# Generated by pormake.
# Topology zzz, (3,6)-cn, num edge types: 1
# Building blocks:
#     Node 0, Type 0, BuildingBlock: BELTOD_clean_linker_0, # of connection points: 3
#     Node 1, Type 0, BuildingBlock: BELTOD_clean_linker_0, # of connection points: 3
#     Node 2, Type 0, BuildingBlock: BELTOD_clean_linker_0, # of connection points: 3
#     Node 3, Type 0, BuildingBlock: BELTOD_clean_linker_0, # of connection points: 3
#     Node 4, Type 0, BuildingBlock: BELTOD_clean_linker_0, # of connection points: 3
#     Node 5, Type 0, BuildingBlock: BELTOD_clean_linker_0, # of connection points: 3
#     Node 6, Type 0, BuildingBlock: BELTOD_clean_linker_0, # of connection points: 3
#     Node 7, Type 0, BuildingBlock: BELTOD_clean_linker_0, # of connection points: 3
#     Node 8, Type 1, BuildingBlock: BETDAH_clean_sbu_0, # of connection points: 6
#     Node 9, Type 1, BuildingBlock: BETDAH_clean_sbu_0, # of connection points: 6
#     Node 10, Type 1, BuildingBlock: BETDAH_clean_sbu_0, # of connection points: 6
#     Node 11, Type 1, BuildingBlock: BETDAH_clean_sbu_0, # of connection points: 6
#     Edge 12, Type (0, 1), BuildingBlock: OJICUG_clean_linker_0, # of connection points: 2
#     Edge 13, Type (0, 1), BuildingBlock: OJICUG_clean_linker_0, # of connection points: 2
#     Edge 14, Type (0, 1), BuildingBlock: OJICUG_clean_linker_0, # of connection points: 2
#     Edge 15, Type (0, 1), BuildingBlock: OJICUG_clean_linker_0, # of connection points: 2
#     Edge 16, Type (0, 1), BuildingBlock: OJICUG_clean_linker_0, # of connection points: 2
#     Edge 17, Type (0, 1), BuildingBlock: OJICUG_clean_linker_0, # of connection points: 2
#     Edge 18, Type (0, 1), BuildingBlock: OJICUG_clean_linker_0, # of connection points: 2
#     Edge 19, Type (0, 1), BuildingBlock: OJICUG_clean_linker_0, # of connection points: 2
#     Edge 20, Type (0, 1), BuildingBlock: OJICUG_clean_linker_0, # of connection points: 2
#     Edge 21, Type (0, 1), BuildingBlock: OJICUG_clean_linker_0, # of connection points: 2
#     Edge 22, Type (0, 1), BuildingBlock: OJICUG_clean_linker_0, # of connection points: 2
#     Edge 23, Type (0, 1), BuildingBlock: OJICUG_clean_linker_0, # of connection points: 2
#     Edge 24, Type (0, 1), BuildingBlock: OJICUG_clean_linker_0, # of connection points: 2
#     Edge 25, Type (0, 1), BuildingBlock: OJICUG_clean_linker_0, # of connection points: 2
#     Edge 26, Type (0, 1), BuildingBlock: OJICUG_clean_linker_0, # of connection points: 2
#     Edge 27, Type (0, 1), BuildingBlock: OJICUG_clean_linker_0, # of connection points: 2
#     Edge 28, Type (0, 1), BuildingBlock: OJICUG_clean_linker_0, # of connection points: 2
#     Edge 29, Type (0, 1), BuildingBlock: OJICUG_clean_linker_0, # of connection points: 2
#     Edge 30, Type (0, 1), BuildingBlock: OJICUG_clean_linker_0, # of connection points: 2
#     Edge 31, Type (0, 1), BuildingBlock: OJICUG_clean_linker_0, # of connection points: 2
#     Edge 32, Type (0, 1), BuildingBlock: OJICUG_clean_linker_0, # of connection points: 2
#     Edge 33, Type (0, 1), BuildingBlock: OJICUG_clean_linker_0, # of connection points: 2
#     Edge 34, Type (0, 1), BuildingBlock: OJICUG_clean_linker_0, # of connection points: 2
#     Edge 35, Type (0, 1), BuildingBlock: OJICUG_clean_linker_0, # of connection points: 2
# Relax obj value: 0.500
# Max RMSD: 0.251
# Mean RMSD: 0.247
data_MOF--net-zzz--node1-BETDAH_clean_sbu_0--node2-BELTOD_clean_linker_0--edge1-OJICUG_clean_linker_0
_symmetry_space_group_name_H-M    P1
_symmetry_Int_Tables_number       1
_symmetry_cell_setting            triclinic
loop_
_symmetry_equiv_pos_as_xyz
'x, y, z'
_cell_length_a     42.042602
_cell_length_b     42.058614
_cell_length_c     13.000115
_cell_angle_alpha  89.692966
_cell_angle_beta   89.999566
_cell_angle_gamma 89.979517
loop_
_atom_site_label
_atom_site_type_symbol
_atom_site_fract_x
_atom_site_fract_y
_atom_site_fract_z
_atom_type_partial_charge
P0 P 0.72469 0.46729 0.45707 0.0
H1 H 0.74477 0.48207 0.66791 0.0
H2 H 0.79637 0.49707 0.73776 0.0
H3 H 0.83065 0.51516 0.4297 0.0
H4 H 0.77862 0.50099 0.36084 0.0
H5 H 0.66212 0.44586 0.39936 0.0
H6 H 0.62533 0.4604 0.26382 0.0
H7 H 0.68588 0.53949 0.1797 0.0
H8 H 0.72348 0.52375 0.31556 0.0
H9 H 0.75552 0.40892 0.52764 0.0
H10 H 0.74151 0.45896 0.24094 0.0
O11 O 0.70485 0.4509 0.55515 0.0
H12 H 0.79758 0.37725 0.44868 0.0
H13 H 0.78389 0.42891 0.16331 0.0
C14 C 0.75735 0.49068 0.5087 0.0
C15 C 0.76292 0.49043 0.61532 0.0
C16 C 0.79285 0.49848 0.65535 0.0
C17 C 0.81821 0.50681 0.58975 0.0
C18 C 0.81188 0.50914 0.48331 0.0
C19 C 0.78184 0.50122 0.44346 0.0
C20 C 0.69537 0.48401 0.36946 0.0
C21 C 0.66721 0.46684 0.35358 0.0
C22 C 0.64598 0.47532 0.27537 0.0
C23 C 0.6522 0.50135 0.20977 0.0
C24 C 0.68023 0.51911 0.22749 0.0
C25 C 0.70167 0.51042 0.30621 0.0
C26 C 0.74528 0.43621 0.39016 0.0
C27 C 0.76059 0.41221 0.44659 0.0
C28 C 0.78492 0.39437 0.40156 0.0
C29 C 0.79474 0.40087 0.30004 0.0
C30 C 0.77701 0.42278 0.24114 0.0
C31 C 0.75258 0.44028 0.28589 0.0
P32 P 0.05632 0.72509 0.47096 0.0
H33 H 0.04202 0.74704 0.68026 0.0
H34 H 0.02621 0.79894 0.7447 0.0
H35 H 1.00596 0.82972 0.43386 0.0
H36 H 0.02043 0.77717 0.37086 0.0
H37 H 0.08191 0.66448 0.41026 0.0
H38 H 0.06729 0.62561 0.28208 0.0
H39 H 0.98055 0.67782 0.22082 0.0
H40 H 0.99659 0.71778 0.34769 0.0
H41 H 0.11622 0.75603 0.52584 0.0
H42 H 0.05992 0.74128 0.25319 0.0
O43 O 0.07443 0.70724 0.5699 0.0
H44 H 0.14628 0.79754 0.43697 0.0
H45 H 0.08807 0.78342 0.1663 0.0
C46 C 0.03235 0.75777 0.52026 0.0
C47 C 0.03301 0.76447 0.62603 0.0
C48 C 0.02452 0.79464 0.66289 0.0
C49 C 0.01546 0.81924 0.59485 0.0
C50 C 1.01261 0.81167 0.48951 0.0
C51 C 0.02081 0.78133 0.45292 0.0
C52 C 0.04017 0.69389 0.3901 0.0
C53 C 0.05937 0.66729 0.37083 0.0
C54 C 0.05081 0.6448 0.29698 0.0
C55 C 0.02256 0.64809 0.2396 0.0
C56 C 1.00274 0.67444 0.26159 0.0
C57 C 1.01161 0.69724 0.3354 0.0
C58 C 0.08589 0.74553 0.39609 0.0
C59 C 0.11112 0.7609 0.44564 0.0
C60 C 0.12801 0.78495 0.39496 0.0
C61 C 0.11922 0.79461 0.29498 0.0
C62 C 0.096 0.77677 0.24261 0.0
C63 C 0.07957 0.75247 0.29273 0.0
P64 P 0.79587 0.05089 0.45873 0.0
H65 H 0.77667 0.02433 0.65932 0.0
H66 H 0.7245 1.00867 0.72364 0.0
H67 H 0.688 1.0103 0.41293 0.0
H68 H 0.74058 0.02486 0.34928 0.0
H69 H 0.85927 0.07267 0.40913 0.0
H70 H 0.8966 0.0608 0.27258 0.0
H71 H 0.83464 0.98566 0.16657 0.0
H72 H 0.79643 0.99914 0.30215 0.0
H73 H 0.74724 0.09223 0.5416 0.0
H74 H 0.79902 0.08411 0.25654 0.0
O75 O 0.81535 0.06294 0.56336 0.0
H76 H 0.70563 0.12132 0.45429 0.0
H77 H 0.75903 0.11612 0.17008 0.0
C78 C 0.76293 0.02558 0.49894 0.0
C79 C 0.75785 0.02001 0.60434 0.0
C80 C 0.7276 1.01165 0.64148 0.0
C81 C 0.70144 1.00889 0.57429 0.0
C82 C 0.7073 1.01194 0.46773 0.0
C83 C 0.73766 0.02002 0.43065 0.0
C84 C 0.82522 0.03646 0.36749 0.0
C85 C 0.85394 0.05318 0.3578 0.0
C86 C 0.8755 0.0462 0.27906 0.0
C87 C 0.86913 0.02205 0.20721 0.0
C88 C 0.84047 1.00473 0.2188 0.0
C89 C 0.81863 1.01209 0.29744 0.0
C90 C 0.77558 0.08486 0.40507 0.0
C91 C 0.75046 0.09815 0.46106 0.0
C92 C 0.72659 0.11515 0.4105 0.0
C93 C 0.72801 0.11995 0.30324 0.0
C94 C 0.75621 0.11144 0.25152 0.0
C95 C 0.77948 0.09334 0.30146 0.0
P96 P 0.46817 0.79471 0.45786 0.0
H97 H 0.47134 0.7691 0.66662 0.0
H98 H 0.48684 0.71725 0.73069 0.0
H99 H 0.53257 0.69736 0.44014 0.0
H100 H 0.51478 0.7487 0.37429 0.0
H101 H 0.44183 0.85448 0.3902 0.0
H102 H 0.4561 0.8929 0.25829 0.0
H103 H 0.54253 0.84056 0.19786 0.0
H104 H 0.52761 0.80164 0.33075 0.0
H105 H 0.40892 0.76327 0.51706 0.0
H106 H 0.46723 0.77278 0.24593 0.0
O107 O 0.44887 0.81361 0.55168 0.0
H108 H 0.38047 0.71906 0.43786 0.0
H109 H 0.44011 0.72831 0.16814 0.0
C110 C 0.49244 0.7636 0.51585 0.0
C111 C 0.48574 0.75419 0.61749 0.0
C112 C 0.49462 0.72408 0.6544 0.0
C113 C 0.51069 0.70232 0.59081 0.0
C114 C 0.51954 0.71282 0.49135 0.0
C115 C 0.51015 0.74283 0.454 0.0
C116 C 0.48373 0.82521 0.37184 0.0
C117 C 0.46426 0.85154 0.35039 0.0
C118 C 0.47255 0.87371 0.27448 0.0
C119 C 0.50059 0.87016 0.21658 0.0
C120 C 0.52057 0.84404 0.23981 0.0
C121 C 0.51219 0.82176 0.31655 0.0
C122 C 0.43992 0.77157 0.38687 0.0
C123 C 0.41474 0.75669 0.43886 0.0
C124 C 0.39875 0.73114 0.39391 0.0
C125 C 0.40818 0.71972 0.29702 0.0
C126 C 0.43169 0.73656 0.24203 0.0
C127 C 0.44742 0.76216 0.28671 0.0
P128 P 0.30928 0.46886 0.07788 0.0
H129 H 0.28645 0.46765 0.86302 0.0
H130 H 0.23439 0.4818 0.79172 0.0
H131 H 0.21241 0.53337 0.06819 0.0
H132 H 0.26468 0.51969 0.13885 0.0
H133 H 0.36833 0.43913 0.13631 0.0
H134 H 0.40766 0.45214 0.26374 0.0
H135 H 0.36848 0.54703 0.28635 0.0
H136 H 0.32761 0.53271 0.16023 0.0
H137 H 0.25576 0.42528 0.08107 0.0
H138 H 0.30912 0.47917 0.30401 0.0
O139 O 0.32026 0.4385 1.00367 0.0
H140 H 0.20889 0.42888 0.19047 0.0
H141 H 0.26241 0.48356 0.41058 0.0
C142 C 0.27998 0.49258 1.0069 0.0
C143 C 0.27122 0.48333 0.90675 0.0
C144 C 0.24116 0.49122 0.86594 0.0
C145 C 0.21892 0.5082 0.92491 0.0
C146 C 0.22883 0.51995 0.02109 0.0
C147 C 0.25906 0.51251 0.06109 0.0
C148 C 0.34503 0.48496 0.13697 0.0
C149 C 0.3688 0.46321 0.16542 0.0
C150 C 0.39157 0.47082 0.23969 0.0
C151 C 0.39156 0.50069 0.28826 0.0
C152 C 0.3691 0.52347 0.25349 0.0
C153 C 0.34597 0.51561 0.17917 0.0
C154 C 0.28556 0.45318 0.18159 0.0
C155 C 0.25807 0.43617 0.15603 0.0
C156 C 0.23122 0.43833 0.21857 0.0
C157 C 0.23185 0.4577 0.30641 0.0
C158 C 0.26114 0.46896 0.34227 0.0
C159 C 0.28797 0.46673 0.27988 0.0
P160 P 0.05795 0.31016 0.05608 0.0
H161 H 0.05213 0.28676 0.84533 0.0
H162 H 0.03647 0.23477 0.78442 0.0
H163 H 0.99014 0.21604 0.07519 0.0
H164 H 1.00743 0.26789 0.13732 0.0
H165 H 0.09251 0.36491 0.12605 0.0
H166 H 0.08393 0.40376 0.26115 0.0
H167 H 0.98984 0.36608 0.31333 0.0
H168 H 0.99878 0.32646 0.1765 0.0
H169 H 0.10572 0.26333 0.99916 0.0
H170 H 0.05928 0.29498 0.27613 0.0
O171 O 0.08115 0.3257 0.96454 0.0
H172 H 0.11626 0.21188 0.07996 0.0
H173 H 0.06927 0.24416 0.35616 0.0
C174 C 0.03084 0.28189 0.99622 0.0
C175 C 0.03736 0.27222 0.89493 0.0
C176 C 0.02849 0.24195 0.85994 0.0
C177 C 1.01258 0.22031 0.92509 0.0
C178 C 1.00317 0.23137 0.02304 0.0
C179 C 1.0123 0.26165 0.05818 0.0
C180 C 0.04625 0.34279 0.13981 0.0
C181 C 0.06964 0.36531 0.16443 0.0
C182 C 0.06484 0.38746 0.24271 0.0
C183 C 0.03639 0.38786 0.2993 0.0
C184 C 1.01206 0.36643 0.2712 0.0
C185 C 0.01709 0.34379 0.19279 0.0
C186 C 0.08143 0.28293 0.13109 0.0
C187 C 0.09944 0.25994 0.07928 0.0
C188 C 0.10512 0.23036 0.12516 0.0
C189 C 0.09284 0.22355 0.22341 0.0
C190 C 0.07915 0.24841 0.28041 0.0
C191 C 0.07337 0.27782 0.23435 0.0
P192 P 0.21531 0.07026 0.0663 0.0
H193 H 0.23956 0.0654 0.85592 0.0
H194 H 0.29095 0.04769 0.79433 0.0
H195 H 0.30689 0.9987 0.0828 0.0
H196 H 0.25574 0.018 0.14557 0.0
H197 H 0.16227 0.10548 0.14747 0.0
H198 H 0.12334 0.09516 0.28253 0.0
H199 H 0.15746 0.99871 0.3098 0.0
H200 H 0.19701 1.00938 0.17358 0.0
H201 H 0.26413 0.1166 0.01329 0.0
H202 H 0.22889 0.07034 0.28736 0.0
O203 O 0.20034 0.09445 0.97632 0.0
H204 H 0.31572 0.12387 0.09587 0.0
H205 H 0.27976 0.07713 0.36906 0.0
C206 C 0.24309 0.04283 1.00548 0.0
C207 C 0.25333 0.04966 0.90474 0.0
C208 C 0.28324 0.03958 0.86942 0.0
C209 C 0.30396 0.02219 0.93373 0.0
C210 C 0.29229 0.01276 0.03127 0.0
C211 C 0.26239 0.02307 0.06673 0.0
C212 C 0.18251 0.05818 0.14922 0.0
C213 C 0.16102 0.08182 0.18049 0.0
C214 C 0.13888 0.076 0.25863 0.0
C215 C 0.13747 0.04624 0.30795 0.0
C216 C 0.15789 0.02189 0.27317 0.0
C217 C 0.1805 0.02792 0.19516 0.0
C218 C 0.24277 0.09249 0.1434 0.0
C219 C 0.26681 0.10972 0.09324 0.0
C220 C 0.29646 0.11355 0.14016 0.0
C221 C 0.30222 0.10016 0.23773 0.0
C222 C 0.27638 0.08771 0.29372 0.0
C223 C 0.24692 0.08375 0.24662 0.0
P224 P 0.46707 0.21077 0.06666 0.0
H225 H 0.46995 0.23513 0.85501 0.0
H226 H 0.48488 0.28731 0.79042 0.0
H227 H 0.5324 0.30694 0.07777 0.0
H228 H 0.51608 0.25508 0.14332 0.0
H229 H 0.43995 0.15052 0.1301 0.0
H230 H 0.45313 0.11277 0.2657 0.0
H231 H 0.54153 0.16237 0.31896 0.0
H232 H 0.52782 0.20054 0.18257 0.0
H233 H 0.41781 0.25754 0.02285 0.0
H234 H 0.46746 0.22184 0.28983 0.0
O235 O 0.44289 0.19492 0.97893 0.0
H236 H 0.40929 0.30807 0.10967 0.0
H237 H 0.45997 0.27186 0.37497 0.0
C238 C 0.49221 0.24045 1.00405 0.0
C239 C 0.48479 0.24996 0.90293 0.0
C240 C 0.49325 0.28025 0.8659 0.0
C241 C 0.50939 0.30206 0.92905 0.0
C242 C 0.51932 0.29134 0.0271 0.0
C243 C 0.51072 0.26107 0.06414 0.0
C244 C 0.48292 0.17842 0.14496 0.0
C245 C 0.46271 0.1528 0.16843 0.0
C246 C 0.47029 0.13108 0.24667 0.0
C247 C 0.49827 0.13455 0.30489 0.0
C248 C 0.51948 0.15922 0.27724 0.0
C249 C 0.51185 0.18097 0.19824 0.0
C250 C 0.44397 0.23614 0.1486 0.0
C251 C 0.42529 0.25984 0.10219 0.0
C252 C 0.42081 0.28893 0.1515 0.0
C253 C 0.4351 0.29453 0.24752 0.0
C254 C 0.44882 0.26871 0.30065 0.0
C255 C 0.45326 0.23974 0.25135 0.0
Ho256 Ho 0.02911 0.01446 0.85361 0.0
Ho257 Ho 0.98597 0.02489 0.67663 0.0
C258 C 1.00508 0.95257 0.72094 0.0
C259 C 0.05737 0.99875 0.02298 0.0
C260 C 0.07744 0.97308 0.06355 0.0
C261 C 0.07235 0.96268 0.16446 0.0
C262 C 0.08882 0.93648 0.20299 0.0
C263 C 0.11099 0.92018 0.14136 0.0
C264 C 0.11717 0.93173 0.04146 0.0
C265 C 0.10037 0.95788 1.00258 0.0
C266 C 0.05919 0.02977 0.67476 0.0
C267 C 1.00837 0.08514 0.81365 0.0
C268 C 0.96757 0.04521 0.49991 0.0
C269 C 0.9839 0.07007 0.43898 0.0
C270 C 1.00416 0.06127 0.35766 0.0
C271 C 0.0266 0.08274 0.31882 0.0
C272 C 0.02904 0.11335 0.36058 0.0
C273 C 1.00725 0.12282 0.43641 0.0
C274 C 0.98487 0.10149 0.47498 0.0
C275 C 0.95412 1.01124 0.85318 0.0
O276 O 0.02093 0.96329 0.80212 0.0
O277 O 0.98979 0.97213 0.65846 0.0
O278 O 0.07001 0.01742 0.9535 0.0
O279 O 0.02796 0.99097 1.00184 0.0
O280 O 0.06763 0.04024 0.76419 0.0
O281 O 0.03612 1.011 0.68559 0.0
O282 O 1.00285 0.07506 0.71877 0.0
O283 O 0.01374 0.06424 0.88742 0.0
O284 O 0.95398 0.05418 0.58573 0.0
O285 O 0.98409 0.01916 0.51185 0.0
O286 O 0.94445 1.00326 0.76187 0.0
O287 O 0.97867 0.02838 0.84461 0.0
H288 H 0.05471 0.97416 0.21248 0.0
H289 H 0.08276 0.92808 0.27935 0.0
H290 H 0.1343 0.92004 0.99226 0.0
H291 H 0.10469 0.96566 0.92424 0.0
H292 H 1.004 0.03718 0.3285 0.0
H293 H 0.04286 0.07501 0.25933 0.0
H294 H 1.00788 0.14668 0.46743 0.0
H295 H 0.96956 0.10921 0.53702 0.0
Ho296 Ho 0.51241 0.02776 0.86754 0.0
Ho297 Ho 0.4961 0.98271 0.67888 0.0
C298 C 0.5694 1.00227 0.71778 0.0
C299 C 0.52731 0.05104 0.04365 0.0
C300 C 0.55105 0.07462 0.07424 0.0
C301 C 0.55747 0.0798 0.17843 0.0
C302 C 0.58376 0.09807 0.20714 0.0
C303 C 0.60403 0.11108 0.13167 0.0
C304 C 0.5958 0.10801 0.02741 0.0
C305 C 0.56956 0.08981 0.9989 0.0
C306 C 0.50751 0.06176 0.68697 0.0
C307 C 0.43879 1.01155 0.81981 0.0
C308 C 0.47366 0.96347 0.50686 0.0
C309 C 0.44857 0.97956 0.44653 0.0
C310 C 0.45682 0.99707 0.358 0.0
C311 C 0.43626 0.02038 0.31926 0.0
C312 C 0.40707 0.02638 0.36821 0.0
C313 C 0.39763 1.00664 0.45021 0.0
C314 C 0.4181 0.98349 0.48893 0.0
C315 C 0.5122 0.95274 0.85742 0.0
O316 O 0.56141 0.01345 0.80991 0.0
O317 O 0.548 0.99188 0.65102 0.0
O318 O 0.50384 0.06202 0.98738 0.0
O319 O 0.53916 0.02427 1.00868 0.0
O320 O 0.5146 0.07429 0.77487 0.0
O321 O 0.50345 0.03269 0.70416 0.0
O322 O 0.44755 1.00153 0.72724 0.0
O323 O 0.45997 0.01933 0.89085 0.0
O324 O 0.46503 0.95095 0.59531 0.0
O325 O 0.50021 0.97959 0.51374 0.0
O326 O 0.51754 0.94131 0.76616 0.0
O327 O 0.49636 0.97811 0.84799 0.0
H328 H 0.5433 0.06826 0.23735 0.0
H329 H 0.58961 0.09979 0.28807 0.0
H330 H 0.61083 0.11799 0.96776 0.0
H331 H 0.56477 0.08611 0.91795 0.0
H332 H 0.48014 0.99446 0.32356 0.0
H333 H 0.44397 0.03475 0.25456 0.0
H334 H 0.37463 1.0096 0.48651 0.0
H335 H 0.41069 0.97011 0.55619 0.0
Ho336 Ho 0.49532 0.51053 0.85295 0.0
Ho337 Ho 0.53912 0.49627 0.6747 0.0
C338 C 0.52066 0.5688 0.71819 0.0
C339 C 0.46578 0.51703 0.0257 0.0
C340 C 0.44435 0.54029 0.07331 0.0
C341 C 0.45076 0.5502 0.17374 0.0
C342 C 0.43463 0.57608 0.21522 0.0
C343 C 0.41149 0.59247 0.15712 0.0
C344 C 0.40328 0.58071 0.05945 0.0
C345 C 0.41977 0.55498 0.01747 0.0
C346 C 0.46663 0.51221 0.6653 0.0
C347 C 0.51378 0.43669 0.80938 0.0
C348 C 0.56112 0.47602 0.50308 0.0
C349 C 0.54792 0.44938 0.44309 0.0
C350 C 0.52922 0.45582 0.35575 0.0
C351 C 0.50787 0.43305 0.31914 0.0
C352 C 0.50512 0.4034 0.36882 0.0
C353 C 0.52642 0.39587 0.44861 0.0
C354 C 0.54758 0.41857 0.48541 0.0
C355 C 0.56963 0.51348 0.8512 0.0
O356 O 0.51357 0.55984 0.81347 0.0
O357 O 0.52674 0.54754 0.64635 0.0
O358 O 0.4545 0.50045 0.94887 0.0
O359 O 0.49485 0.52715 1.0096 0.0
O360 O 0.45935 0.53074 0.74099 0.0
O361 O 0.48739 0.49246 0.69505 0.0
O362 O 0.52671 0.44586 0.72135 0.0
O363 O 0.50195 0.45759 0.8748 0.0
O364 O 0.57418 0.46873 0.59176 0.0
O365 O 0.54222 0.50069 0.50948 0.0
O366 O 0.57957 0.52054 0.75933 0.0
O367 O 0.54536 0.49617 0.84311 0.0
H368 H 0.46954 0.53901 0.21818 0.0
H369 H 0.44196 0.58443 0.29018 0.0
H370 H 0.38518 0.59232 0.01343 0.0
H371 H 0.41426 0.54756 0.93982 0.0
H372 H 0.52913 0.47933 0.32119 0.0
H373 H 0.4923 0.4394 0.25595 0.0
H374 H 0.52606 0.37266 0.48514 0.0
H375 H 0.56205 0.41251 0.5516 0.0
Ho376 Ho 0.01292 0.49087 0.85326 0.0
Ho377 Ho 0.02158 0.54021 0.69931 0.0
C378 C 0.95029 0.51705 0.72838 0.0
C379 C 0.99899 0.45591 1.01164 0.0
C380 C 0.97252 0.43769 0.05682 0.0
C381 C 0.96117 0.4467 0.15357 0.0
C382 C 0.93512 0.43132 0.1972 0.0
C383 C 0.91994 0.40622 0.1455 0.0
C384 C 0.93229 0.39619 0.05042 0.0
C385 C 0.95838 0.41182 1.00629 0.0
C386 C 0.02883 0.46736 0.66547 0.0
C387 C 0.08355 0.51279 0.81742 0.0
C388 C 0.04149 0.57318 0.54487 0.0
C389 C 0.07091 0.5677 0.48582 0.0
C390 C 0.06952 0.54911 0.3965 0.0
C391 C 0.09668 0.53385 0.36052 0.0
C392 C 0.12572 0.53724 0.41266 0.0
C393 C 0.12793 0.55894 0.49388 0.0
C394 C 0.10073 0.57417 0.53013 0.0
C395 C 1.00645 0.56408 0.88702 0.0
O396 O 0.96123 0.5001 0.80733 0.0
O397 O 0.96971 0.53383 0.66999 0.0
O398 O 1.01235 0.44485 0.9285 0.0
O399 O 0.99544 0.48678 1.00895 0.0
O400 O 0.04032 0.45718 0.75201 0.0
O401 O 1.00923 0.48947 0.68272 0.0
O402 O 0.07257 0.52317 0.72788 0.0
O403 O 0.06337 0.50341 0.88874 0.0
O404 O 0.0451 0.58232 0.64011 0.0
O405 O 0.02026 0.55066 0.53669 0.0
O406 O 0.99537 0.57465 0.80035 0.0
O407 O 0.02556 0.54151 0.86936 0.0
H408 H 0.97195 0.46633 0.19447 0.0
H409 H 0.92605 0.44024 0.26946 0.0
H410 H 0.92137 0.37677 1.00905 0.0
H411 H 0.96698 0.40408 0.932 0.0
H412 H 0.04692 0.54386 0.36031 0.0
H413 H 0.09435 0.5175 0.29685 0.0
H414 H 0.15036 0.56278 0.53292 0.0
H415 H 0.10275 0.58884 0.59805 0.0
C416 C 0.11701 0.06451 0.47972 0.0
C417 C 0.11653 0.04188 0.40024 0.0
H418 H 0.09967 0.07817 0.6284 0.0
C419 C 0.09615 0.01552 0.41054 0.0
H420 H 0.13249 0.08504 0.4746 0.0
C421 C 0.07671 1.01198 0.49809 0.0
C422 C 0.07796 0.03424 0.57858 0.0
H423 H 0.0951 0.99778 0.35062 0.0
H424 H 0.06127 0.99143 0.50391 0.0
C425 C 0.09827 0.06055 0.56807 0.0
C426 C 0.51522 0.12844 0.49029 0.0
C427 C 0.50341 0.11458 0.39969 0.0
H428 H 0.52551 0.12272 0.65075 0.0
C429 C 0.49411 0.08234 0.40372 0.0
H430 H 0.52213 0.15323 0.49139 0.0
C431 C 0.49582 0.06484 0.49614 0.0
C432 C 0.50685 0.07909 0.58675 0.0
H433 H 0.48527 0.07071 0.33546 0.0
H434 H 0.48786 0.04043 0.49729 0.0
C435 C 0.51684 0.11098 0.58231 0.0
C436 C 0.40324 0.52677 0.46064 0.0
C437 C 0.41281 0.50649 0.38022 0.0
H438 H 0.41268 0.54462 0.612 0.0
C439 C 0.44169 0.48968 0.39321 0.0
H440 H 0.38118 0.53994 0.45586 0.0
C441 C 0.45916 0.49155 0.48513 0.0
C442 C 0.44897 0.51107 0.56582 0.0
H443 H 0.45076 0.47461 0.33291 0.0
H444 H 0.48051 0.47741 0.49356 0.0
C445 C 0.42119 0.52922 0.55146 0.0
C446 C 1.00719 0.42839 0.40943 0.0
C447 C 0.03382 0.40882 0.39203 0.0
H448 H 0.98503 0.46312 0.50759 0.0
C449 C 0.05882 0.40954 0.46414 0.0
H450 H 0.98755 0.42842 0.3557 0.0
C451 C 0.05716 0.42884 0.55151 0.0
C452 C 0.03075 0.44856 0.5687 0.0
H453 H 0.07958 0.39462 0.45391 0.0
H454 H 0.07664 0.4283 0.60604 0.0
C455 C 1.00586 0.4484 0.49608 0.0
C456 C 0.92447 0.02252 0.12747 0.0
C457 C 0.89154 0.01641 0.11837 0.0
H458 H 0.96978 0.026 0.05164 0.0
C459 C 0.88008 1.00656 0.02164 0.0
H460 H 0.93471 0.02933 0.2005 0.0
C461 C 0.90058 1.0038 0.93681 0.0
C462 C 0.93307 1.01127 0.94546 0.0
H463 H 0.85502 1.00202 1.00987 0.0
H464 H 0.89069 0.99683 0.86337 0.0
C465 C 0.94482 0.02031 0.04211 0.0
C466 C 0.52044 0.88117 0.03579 0.0
C467 C 0.50743 0.8925 0.12852 0.0
H468 H 0.53237 0.89125 0.87848 0.0
C469 C 0.4987 0.92489 0.13318 0.0
H470 H 0.52716 0.85645 0.02819 0.0
C471 C 0.50135 0.94479 0.04649 0.0
C472 C 0.513 0.93296 0.95287 0.0
H473 H 0.48921 0.93482 0.20347 0.0
H474 H 0.49346 0.96924 0.05208 0.0
C475 C 0.52324 0.90114 0.94937 0.0
C476 C 0.64234 0.51929 0.02534 0.0
C477 C 0.63037 0.5083 0.12048 0.0
H478 H 0.63266 0.5299 0.86648 0.0
C479 C 0.59749 0.50177 0.1271 0.0
H480 H 0.66743 0.52428 0.01597 0.0
C481 C 0.57773 0.50436 0.04052 0.0
C482 C 0.59001 0.51415 0.94498 0.0
H483 H 0.58694 0.49407 0.199 0.0
H484 H 0.55287 0.49801 0.04802 0.0
C485 C 0.6224 0.52234 0.939 0.0
C486 C 0.02599 0.59343 0.15661 0.0
C487 C 0.01524 0.62528 0.15348 0.0
H488 H 0.03183 0.5493 0.07591 0.0
C489 C 0.99931 0.6356 0.0639 0.0
H490 H 0.03765 0.58406 0.22434 0.0
C491 C 0.99531 0.61526 0.97959 0.0
C492 C 1.00749 0.58409 0.98135 0.0
H493 H 0.99097 0.65984 0.05662 0.0
H494 H 0.98368 0.62446 0.91129 0.0
C495 C 0.02241 0.57325 0.07158 0.0
C496 C 0.08635 0.18209 0.36102 0.0
C497 C 0.08671 0.19023 0.25606 0.0
H498 H 0.06772 0.15085 0.47671 0.0
C499 C 0.07391 0.16864 0.18467 0.0
H500 H 0.09668 0.1978 0.41769 0.0
C501 C 0.05744 0.14174 0.21853 0.0
C502 C 0.05336 0.13615 0.32407 0.0
H503 H 0.07369 0.17407 0.10316 0.0
H504 H 0.04551 0.12701 0.16247 0.0
C505 C 0.06965 0.15534 0.39479 0.0
C506 C 0.3429 0.08912 0.37419 0.0
C507 C 0.33494 0.09121 0.26944 0.0
H508 H 0.37242 0.06705 0.48786 0.0
C509 C 0.35549 0.07737 0.19677 0.0
H510 H 0.32807 0.10023 0.43191 0.0
C511 C 0.38084 0.05832 0.22885 0.0
C512 C 0.3859 0.05257 0.33389 0.0
H513 H 0.35022 0.07848 0.1153 0.0
H514 H 0.39466 0.04596 0.17141 0.0
C515 C 0.3681 0.06988 0.40616 0.0
C516 C 0.455 0.34898 0.20512 0.0
C517 C 0.44351 0.32735 0.27937 0.0
H518 H 0.48359 0.39002 0.1753 0.0
C519 C 0.44721 0.33477 0.38393 0.0
H520 H 0.45262 0.3442 0.12375 0.0
C521 C 0.46557 0.36083 0.4132 0.0
C522 C 0.4804 0.38009 0.33847 0.0
H523 H 0.43787 0.31914 0.44313 0.0
H524 H 0.46946 0.36494 0.49443 0.0
C525 C 0.47318 0.37516 0.23452 0.0
C526 C 0.18511 0.49007 0.25992 0.0
C527 C 0.20273 0.47474 0.33717 0.0
H528 H 0.1476 0.52231 0.2224 0.0
C529 C 0.1953 0.48048 0.44057 0.0
H530 H 0.19173 0.48737 0.18049 0.0
C531 C 0.17033 0.50105 0.46546 0.0
C532 C 0.15276 0.51634 0.38721 0.0
H533 H 0.20905 0.4695 0.50161 0.0
H534 H 0.16466 0.50485 0.54571 0.0
C535 C 0.16033 0.5105 0.28422 0.0
C536 C 0.13093 0.85247 0.32072 0.0
C537 C 0.12866 0.82638 0.25372 0.0
H538 H 0.12881 0.90291 0.33705 0.0
C539 C 0.12882 0.83228 0.14707 0.0
H540 H 0.13111 0.84923 0.40334 0.0
C541 C 0.12602 0.8633 0.10921 0.0
C542 C 0.12391 0.8891 0.1773 0.0
H543 H 0.12834 0.81284 0.09283 0.0
H544 H 0.12263 0.86657 0.0273 0.0
C545 C 0.12899 0.88348 0.2827 0.0
C546 C 0.67244 0.1428 0.28961 0.0
C547 C 0.69818 0.12652 0.2444 0.0
H548 H 0.62196 0.15071 0.28936 0.0
C549 C 0.69302 0.11091 0.15027 0.0
H550 H 0.67553 0.15596 0.36021 0.0
C551 C 0.66261 0.10867 0.10879 0.0
C552 C 0.63641 0.12165 0.16062 0.0
H553 H 0.71173 0.09766 0.11272 0.0
H554 H 0.65933 0.09412 0.0411 0.0
C555 C 0.64174 0.14001 0.24884 0.0
C556 C 0.39662 0.66217 0.33184 0.0
C557 C 0.39838 0.68762 0.26126 0.0
H558 H 0.3978 0.61178 0.35402 0.0
C559 C 0.39673 0.68088 0.1556 0.0
H560 H 0.3977 0.66626 0.41391 0.0
C561 C 0.39794 0.64952 0.12126 0.0
C562 C 0.4002 0.62417 0.19201 0.0
H563 H 0.39708 0.6999 0.0991 0.0
H564 H 0.39998 0.64552 0.03934 0.0
C565 C 0.3972 0.63078 0.29746 0.0
C566 C 0.85274 0.39103 0.33031 0.0
C567 C 0.82661 0.39063 0.26264 0.0
H568 H 0.90316 0.39477 0.34609 0.0
C569 C 0.83246 0.38715 0.15672 0.0
H570 H 0.84945 0.39352 0.41244 0.0
C571 C 0.86344 0.38911 0.11836 0.0
C572 C 0.88919 0.39389 0.18555 0.0
H573 H 0.81295 0.3857 0.10256 0.0
H574 H 0.86673 0.38983 0.03579 0.0
C575 C 0.88371 0.3923 0.29209 0.0
C576 C 1.0111 0.16159 0.97043 0.0
C577 C 1.00895 0.18575 0.89525 0.0
H578 H 1.01273 0.1118 1.00428 0.0
C579 C 1.00559 0.17622 0.79161 0.0
H580 H 0.01409 0.16744 0.05073 0.0
C581 C 1.00508 0.14378 0.76448 0.0
C582 C 1.00797 0.11985 0.84004 0.0
H583 H 1.0034 0.19379 0.73093 0.0
H584 H 1.00279 0.1375 0.68417 0.0
C585 C 1.01066 0.12935 0.94341 0.0
C586 C 0.34771 0.01357 0.79969 0.0
C587 C 0.33832 0.01694 0.90348 0.0
H588 H 0.38625 1.00924 0.69172 0.0
C589 C 0.36253 0.01746 0.97839 0.0
H590 H 0.33007 1.01251 0.7392 0.0
C591 C 0.39477 0.01576 0.95095 0.0
C592 C 0.40415 0.01305 0.8474 0.0
H593 H 0.3567 0.02004 0.05883 0.0
H594 H 0.41243 0.01659 1.0115 0.0
C595 C 0.38009 1.01152 0.7722 0.0
C596 C 0.51692 0.34573 0.79356 0.0
C597 C 0.51276 0.3365 0.89732 0.0
H598 H 0.5207 0.38419 0.6844 0.0
C599 C 0.50974 0.3608 0.97082 0.0
H600 H 0.51975 0.32797 0.7343 0.0
C601 C 0.50984 0.39299 0.94198 0.0
C602 C 0.5136 0.40218 0.83849 0.0
H603 H 0.50653 0.35497 0.05108 0.0
H604 H 0.50711 0.41074 1.00137 0.0
C605 C 0.51758 0.37808 0.76475 0.0
C606 C 0.17452 0.52186 0.79748 0.0
C607 C 0.18451 0.50986 0.89372 0.0
H608 H 0.13486 0.5326 0.69781 0.0
C609 C 0.16114 0.49809 0.96099 0.0
H610 H 0.19188 0.53073 0.74293 0.0
C611 C 0.12884 0.49905 0.93549 0.0
C612 C 0.11851 0.51163 0.84073 0.0
H613 H 0.16782 0.48731 0.03304 0.0
H614 H 0.11194 0.48967 0.9907 0.0
C615 C 0.14184 0.52289 0.77156 0.0
C616 C 0.9892 0.87372 0.58509 0.0
C617 C 1.0111 0.8529 0.63234 0.0
H618 H 0.96999 0.92084 0.57579 0.0
C619 C 0.02995 0.86508 0.71307 0.0
H620 H 0.97382 0.86543 0.52403 0.0
C621 C 0.02737 0.89699 0.7439 0.0
C622 C 1.00609 0.91791 0.69461 0.0
H623 H 0.04753 0.85027 0.75066 0.0
H624 H 0.04281 0.90547 0.80472 0.0
C625 C 0.98681 0.90566 0.61539 0.0
C626 C 0.64483 0.98815 0.56026 0.0
C627 C 0.66805 1.00523 0.61518 0.0
H628 H 0.5961 0.97367 0.54906 0.0
C629 C 0.65857 0.0202 0.70724 0.0
H630 H 0.65101 0.97585 0.49014 0.0
C631 C 0.62692 0.01862 0.74202 0.0
C632 C 0.60363 1.00221 0.6855 0.0
H633 H 0.67536 0.0341 0.75127 0.0
H634 H 0.62058 0.031 0.81188 0.0
C635 C 0.61318 0.98676 0.59464 0.0
C636 C 0.51455 0.64341 0.55214 0.0
C637 C 0.51548 0.66822 0.62455 0.0
H638 H 0.51558 0.59335 0.52435 0.0
C639 C 0.51901 0.65974 0.72935 0.0
H640 H 0.51098 0.64837 0.47121 0.0
C641 C 0.52079 0.62765 0.76041 0.0
C642 C 0.5197 0.6031 0.6875 0.0
H643 H 0.52035 0.67785 0.788 0.0
H644 H 0.52313 0.6221 0.84148 0.0
C645 C 0.51689 0.61153 0.58297 0.0
C646 C 0.87239 0.53331 0.58674 0.0
C647 C 0.85142 0.51102 0.631 0.0
H648 H 0.91938 0.55289 0.58276 0.0
C649 C 0.86304 0.49176 0.71203 0.0
H650 H 0.86444 0.54896 0.52559 0.0
C651 C 0.89473 0.49421 0.74591 0.0
C652 C 0.91582 0.51593 0.69946 0.0
H653 H 0.84794 0.47394 0.74745 0.0
H654 H 0.90287 0.4785 0.80656 0.0
C655 C 0.90402 0.53567 0.62028 0.0
loop_
_geom_bond_atom_site_label_1
_geom_bond_atom_site_label_2
_geom_bond_distance
_geom_bond_site_symmetry_2
_ccdc_geom_bond_type
P0 O11 1.490 . S
P0 C14 1.812 . S
P0 C20 1.803 . S
P0 C26 1.819 . S
H1 C15 0.941 . S
H2 C16 0.939 . S
H3 C18 0.940 . S
H4 C19 0.940 . S
H5 C21 0.939 . S
H6 C22 0.942 . S
H7 C24 0.940 . S
H8 C25 0.939 . S
H9 C27 0.941 . S
H10 C31 0.939 . S
O11 P0 1.490 . S
H12 C28 0.939 . S
H13 C30 0.940 . S
C14 P0 1.812 . S
C14 C15 1.389 . S
C14 C19 1.391 . S
C15 H1 0.941 . S
C15 C14 1.389 . S
C15 C16 1.397 . S
C16 H2 0.939 . S
C16 C15 1.397 . S
C16 C17 1.378 . S
C17 C16 1.378 . S
C17 C18 1.378 . S
C18 H3 0.940 . S
C18 C17 1.378 . S
C18 C19 1.396 . S
C19 H4 0.940 . S
C19 C14 1.391 . S
C19 C18 1.396 . S
C20 P0 1.803 . S
C20 C21 1.378 . S
C20 C25 1.400 . S
C21 H5 0.939 . S
C21 C20 1.378 . S
C21 C22 1.361 . S
C22 H6 0.942 . S
C22 C21 1.361 . S
C22 C23 1.369 . S
C23 C22 1.369 . S
C23 C24 1.404 . S
C24 H7 0.940 . S
C24 C23 1.404 . S
C24 C25 1.389 . S
C25 H8 0.939 . S
C25 C20 1.400 . S
C25 C24 1.389 . S
C26 P0 1.819 . S
C26 C27 1.391 . S
C26 C31 1.391 . S
C27 H9 0.941 . S
C27 C26 1.391 . S
C27 C28 1.396 . S
C28 H12 0.939 . S
C28 C27 1.396 . S
C28 C29 1.397 . S
C29 C28 1.397 . S
C29 C30 1.385 . S
C30 H13 0.940 . S
C30 C29 1.385 . S
C30 C31 1.388 . S
C31 H10 0.939 . S
C31 C26 1.391 . S
C31 C30 1.388 . S
P32 O43 1.490 . S
P32 C46 1.812 . S
P32 C52 1.803 . S
P32 C58 1.819 . S
H33 C47 0.941 . S
H34 C48 0.939 . S
H35 C50 0.940 . S
H36 C51 0.950 . S
H37 C53 0.939 . S
H38 C54 0.942 . S
H39 C56 0.940 . S
H40 C57 0.959 . S
H41 C59 0.941 . S
H42 C63 0.929 1_655 S
O43 P32 1.490 . S
H44 C60 0.939 . S
H45 C62 0.940 . S
C46 P32 1.812 . S
C46 C47 1.389 . S
C46 C51 1.375 1_455 S
C47 H33 0.941 . S
C47 C46 1.389 . S
C47 C48 1.397 . S
C48 H34 0.939 . S
C48 C47 1.397 . S
C48 C49 1.378 . S
C49 C48 1.378 . S
C49 C50 1.378 1_455 S
C50 H35 0.940 . S
C50 C49 1.378 1_655 S
C50 C51 1.403 . S
C51 H36 0.950 . S
C51 C46 1.375 1_655 S
C51 C50 1.403 . S
C52 P32 1.803 . S
C52 C53 1.378 . S
C52 C57 1.368 1_455 S
C53 H37 0.939 . S
C53 C52 1.378 . S
C53 C54 1.361 . S
C54 H38 0.942 . S
C54 C53 1.361 . S
C54 C55 1.369 . S
C55 C54 1.369 . S
C55 C56 1.404 1_455 S
C56 H39 0.940 . S
C56 C55 1.404 1_655 S
C56 C57 1.402 . S
C57 H40 0.959 . S
C57 C52 1.368 1_655 S
C57 C56 1.402 . S
C58 P32 1.819 . S
C58 C59 1.391 . S
C58 C63 1.391 . S
C59 H41 0.941 . S
C59 C58 1.391 . S
C59 C60 1.396 . S
C60 H44 0.939 . S
C60 C59 1.396 . S
C60 C61 1.397 . S
C61 C60 1.397 . S
C61 C62 1.385 1_455 S
C62 H45 0.940 . S
C62 C61 1.385 1_655 S
C62 C63 1.388 1_655 S
C63 H42 0.929 1_455 S
C63 C58 1.391 . S
C63 C62 1.388 1_455 S
P64 O75 1.490 . S
P64 C78 1.812 . S
P64 C84 1.803 . S
P64 C90 1.819 . S
H65 C79 0.941 . S
H66 C80 0.939 . S
H67 C82 0.940 . S
H68 C83 0.950 . S
H69 C85 0.939 . S
H70 C86 0.942 . S
H71 C88 0.940 . S
H72 C89 0.959 . S
H73 C91 0.941 . S
H74 C95 0.929 1_565 S
O75 P64 1.490 . S
H76 C92 0.939 . S
H77 C94 0.940 . S
C78 P64 1.812 . S
C78 C79 1.389 . S
C78 C83 1.375 1_545 S
C79 H65 0.941 . S
C79 C78 1.389 . S
C79 C80 1.397 . S
C80 H66 0.939 . S
C80 C79 1.397 . S
C80 C81 1.378 . S
C81 C80 1.378 . S
C81 C82 1.378 1_545 S
C82 H67 0.940 . S
C82 C81 1.378 1_565 S
C82 C83 1.402 . S
C83 H68 0.950 . S
C83 C78 1.375 1_565 S
C83 C82 1.402 . S
C84 P64 1.803 . S
C84 C85 1.378 . S
C84 C89 1.368 1_545 S
C85 H69 0.939 . S
C85 C84 1.378 . S
C85 C86 1.361 . S
C86 H70 0.942 . S
C86 C85 1.361 . S
C86 C87 1.369 . S
C87 C86 1.369 . S
C87 C88 1.404 1_545 S
C88 H71 0.940 . S
C88 C87 1.404 1_565 S
C88 C89 1.402 . S
C89 H72 0.959 . S
C89 C84 1.368 1_565 S
C89 C88 1.402 . S
C90 P64 1.819 . S
C90 C91 1.391 . S
C90 C95 1.391 . S
C91 H73 0.941 . S
C91 C90 1.391 . S
C91 C92 1.396 . S
C92 H76 0.939 . S
C92 C91 1.396 . S
C92 C93 1.397 . S
C93 C92 1.397 . S
C93 C94 1.385 1_545 S
C94 H77 0.940 . S
C94 C93 1.385 1_565 S
C94 C95 1.388 1_565 S
C95 H74 0.929 1_545 S
C95 C90 1.391 . S
C95 C94 1.388 1_545 S
P96 O107 1.490 . S
P96 C110 1.812 . S
P96 C116 1.803 . S
P96 C122 1.819 . S
H97 C111 0.941 . S
H98 C112 0.939 . S
H99 C114 0.940 . S
H100 C115 0.940 . S
H101 C117 0.939 . S
H102 C118 0.942 . S
H103 C120 0.940 . S
H104 C121 0.939 . S
H105 C123 0.941 . S
H106 C127 0.939 . S
O107 P96 1.490 . S
H108 C124 0.939 . S
H109 C126 0.940 . S
C110 P96 1.812 . S
C110 C111 1.389 . S
C110 C115 1.391 . S
C111 H97 0.941 . S
C111 C110 1.389 . S
C111 C112 1.397 . S
C112 H98 0.939 . S
C112 C111 1.397 . S
C112 C113 1.378 . S
C113 C112 1.378 . S
C113 C114 1.378 . S
C114 H99 0.940 . S
C114 C113 1.378 . S
C114 C115 1.396 . S
C115 H100 0.940 . S
C115 C110 1.391 . S
C115 C114 1.396 . S
C116 P96 1.803 . S
C116 C117 1.378 . S
C116 C121 1.400 . S
C117 H101 0.939 . S
C117 C116 1.378 . S
C117 C118 1.361 . S
C118 H102 0.942 . S
C118 C117 1.361 . S
C118 C119 1.369 . S
C119 C118 1.369 . S
C119 C120 1.404 . S
C120 H103 0.940 . S
C120 C119 1.404 . S
C120 C121 1.389 . S
C121 H104 0.939 . S
C121 C116 1.400 . S
C121 C120 1.389 . S
C122 P96 1.819 . S
C122 C123 1.391 . S
C122 C127 1.391 . S
C123 H105 0.941 . S
C123 C122 1.391 . S
C123 C124 1.396 . S
C124 H108 0.939 . S
C124 C123 1.396 . S
C124 C125 1.397 . S
C125 C124 1.397 . S
C125 C126 1.385 . S
C126 H109 0.940 . S
C126 C125 1.385 . S
C126 C127 1.388 . S
C127 H106 0.939 . S
C127 C122 1.391 . S
C127 C126 1.388 . S
P128 O139 1.490 . S
P128 C142 1.812 1_554 S
P128 C148 1.803 . S
P128 C154 1.819 . S
H129 C143 0.941 . S
H130 C144 0.939 . S
H131 C146 0.940 . S
H132 C147 0.940 . S
H133 C149 0.939 . S
H134 C150 0.942 . S
H135 C152 0.940 . S
H136 C153 0.939 1_556 S
H137 C155 0.941 . S
H138 C159 0.939 . S
O139 P128 1.490 . S
H140 C156 0.939 . S
H141 C158 0.940 . S
C142 P128 1.812 1_556 S
C142 C143 1.389 . S
C142 C147 1.391 . S
C143 H129 0.941 . S
C143 C142 1.389 . S
C143 C144 1.397 . S
C144 H130 0.939 . S
C144 C143 1.397 . S
C144 C145 1.378 . S
C145 C144 1.378 . S
C145 C146 1.378 . S
C146 H131 0.940 . S
C146 C145 1.378 . S
C146 C147 1.396 . S
C147 H132 0.940 . S
C147 C142 1.391 . S
C147 C146 1.396 . S
C148 P128 1.803 . S
C148 C149 1.378 . S
C148 C153 1.400 . S
C149 H133 0.939 . S
C149 C148 1.378 . S
C149 C150 1.361 . S
C150 H134 0.942 . S
C150 C149 1.361 . S
C150 C151 1.369 . S
C151 C150 1.369 . S
C151 C152 1.404 . S
C152 H135 0.940 . S
C152 C151 1.404 . S
C152 C153 1.389 . S
C153 H136 0.939 1_554 S
C153 C148 1.400 . S
C153 C152 1.389 . S
C154 P128 1.819 . S
C154 C155 1.391 . S
C154 C159 1.391 . S
C155 H137 0.941 . S
C155 C154 1.391 . S
C155 C156 1.396 . S
C156 H140 0.939 . S
C156 C155 1.396 . S
C156 C157 1.397 . S
C157 C156 1.397 . S
C157 C158 1.385 . S
C158 H141 0.940 . S
C158 C157 1.385 . S
C158 C159 1.388 . S
C159 H138 0.939 . S
C159 C154 1.391 . S
C159 C158 1.388 . S
P160 O171 1.490 . S
P160 C174 1.812 1_554 S
P160 C180 1.803 . S
P160 C186 1.819 . S
H161 C175 0.941 . S
H162 C176 0.939 . S
H163 C178 0.940 . S
H164 C179 0.945 . S
H165 C181 0.939 . S
H166 C182 0.942 . S
H167 C184 0.940 . S
H168 C185 0.958 . S
H169 C187 0.941 . S
H170 C191 0.932 1_655 S
O171 P160 1.490 . S
H172 C188 0.939 . S
H173 C190 0.940 . S
C174 P160 1.812 1_556 S
C174 C175 1.389 . S
C174 C179 1.383 1_455 S
C175 H161 0.941 . S
C175 C174 1.389 . S
C175 C176 1.397 . S
C176 H162 0.939 . S
C176 C175 1.397 . S
C176 C177 1.378 . S
C177 C176 1.378 . S
C177 C178 1.378 1_455 S
C178 H163 0.940 . S
C178 C177 1.378 1_655 S
C178 C179 1.400 . S
C179 H164 0.945 . S
C179 C174 1.383 1_655 S
C179 C178 1.400 . S
C180 P160 1.803 . S
C180 C181 1.378 . S
C180 C185 1.376 1_455 S
C181 H165 0.939 . S
C181 C180 1.378 . S
C181 C182 1.361 . S
C182 H166 0.942 . S
C182 C181 1.361 . S
C182 C183 1.369 . S
C183 C182 1.369 . S
C183 C184 1.404 1_455 S
C184 H167 0.940 . S
C184 C183 1.404 1_655 S
C184 C185 1.399 . S
C185 H168 0.958 . S
C185 C180 1.376 1_655 S
C185 C184 1.399 . S
C186 P160 1.819 . S
C186 C187 1.391 . S
C186 C191 1.391 . S
C187 H169 0.941 . S
C187 C186 1.391 . S
C187 C188 1.396 . S
C188 H172 0.939 . S
C188 C187 1.396 . S
C188 C189 1.397 . S
C189 C188 1.397 . S
C189 C190 1.385 1_455 S
C190 H173 0.940 . S
C190 C189 1.385 1_655 S
C190 C191 1.388 1_655 S
C191 H170 0.932 1_455 S
C191 C186 1.391 . S
C191 C190 1.388 1_455 S
P192 O203 1.490 . S
P192 C206 1.812 1_554 S
P192 C212 1.803 . S
P192 C218 1.819 . S
H193 C207 0.941 . S
H194 C208 0.939 . S
H195 C210 0.940 . S
H196 C211 0.945 . S
H197 C213 0.939 . S
H198 C214 0.942 . S
H199 C216 0.940 . S
H200 C217 0.954 1_556 S
H201 C219 0.941 . S
H202 C223 0.932 1_565 S
O203 P192 1.490 . S
H204 C220 0.939 . S
H205 C222 0.940 . S
C206 P192 1.812 1_556 S
C206 C207 1.389 . S
C206 C211 1.383 1_545 S
C207 H193 0.941 . S
C207 C206 1.389 . S
C207 C208 1.397 . S
C208 H194 0.939 . S
C208 C207 1.397 . S
C208 C209 1.378 . S
C209 C208 1.378 . S
C209 C210 1.378 1_545 S
C210 H195 0.940 . S
C210 C209 1.378 1_565 S
C210 C211 1.400 . S
C211 H196 0.945 . S
C211 C206 1.383 1_565 S
C211 C210 1.400 . S
C212 P192 1.803 . S
C212 C213 1.378 . S
C212 C217 1.376 1_545 S
C213 H197 0.939 . S
C213 C212 1.378 . S
C213 C214 1.361 . S
C214 H198 0.942 . S
C214 C213 1.361 . S
C214 C215 1.369 . S
C215 C214 1.369 . S
C215 C216 1.404 1_545 S
C216 H199 0.940 . S
C216 C215 1.404 1_565 S
C216 C217 1.399 . S
C217 H200 0.954 1_554 S
C217 C212 1.376 1_565 S
C217 C216 1.399 . S
C218 P192 1.819 . S
C218 C219 1.391 . S
C218 C223 1.391 . S
C219 H201 0.941 . S
C219 C218 1.391 . S
C219 C220 1.396 . S
C220 H204 0.939 . S
C220 C219 1.396 . S
C220 C221 1.397 . S
C221 C220 1.397 . S
C221 C222 1.385 1_545 S
C222 H205 0.940 . S
C222 C221 1.385 1_565 S
C222 C223 1.388 1_565 S
C223 H202 0.932 1_545 S
C223 C218 1.391 . S
C223 C222 1.388 1_545 S
P224 O235 1.490 . S
P224 C238 1.812 1_554 S
P224 C244 1.803 . S
P224 C250 1.819 . S
H225 C239 0.941 . S
H226 C240 0.939 . S
H227 C242 0.940 . S
H228 C243 0.940 . S
H229 C245 0.939 . S
H230 C246 0.942 . S
H231 C248 0.940 . S
H232 C249 0.939 1_556 S
H233 C251 0.941 . S
H234 C255 0.939 . S
O235 P224 1.490 . S
H236 C252 0.939 . S
H237 C254 0.940 . S
C238 P224 1.812 1_556 S
C238 C239 1.389 . S
C238 C243 1.391 . S
C239 H225 0.941 . S
C239 C238 1.389 . S
C239 C240 1.397 . S
C240 H226 0.939 . S
C240 C239 1.397 . S
C240 C241 1.378 . S
C241 C240 1.378 . S
C241 C242 1.378 . S
C242 H227 0.940 . S
C242 C241 1.378 . S
C242 C243 1.396 . S
C243 H228 0.940 . S
C243 C238 1.391 . S
C243 C242 1.396 . S
C244 P224 1.803 . S
C244 C245 1.378 . S
C244 C249 1.400 . S
C245 H229 0.939 . S
C245 C244 1.378 . S
C245 C246 1.361 . S
C246 H230 0.942 . S
C246 C245 1.361 . S
C246 C247 1.369 . S
C247 C246 1.369 . S
C247 C248 1.404 . S
C248 H231 0.940 . S
C248 C247 1.404 . S
C248 C249 1.389 . S
C249 H232 0.939 1_554 S
C249 C244 1.400 . S
C249 C248 1.389 . S
C250 P224 1.819 . S
C250 C251 1.391 . S
C250 C255 1.391 . S
C251 H233 0.941 . S
C251 C250 1.391 . S
C251 C252 1.396 . S
C252 H236 0.939 . S
C252 C251 1.396 . S
C252 C253 1.397 . S
C253 C252 1.397 . S
C253 C254 1.385 . S
C254 H237 0.940 . S
C254 C253 1.385 . S
C254 C255 1.388 . S
C255 H234 0.939 . S
C255 C250 1.391 . S
C255 C254 1.388 . S
Ho256 C259 2.811 . S
Ho256 O276 2.322 . S
Ho256 O278 2.378 . S
Ho256 O279 2.524 . S
Ho256 O280 2.381 . S
Ho256 O281 2.669 1_565 S
Ho256 O283 2.346 1_565 S
Ho256 O287 2.305 1_455 S
Ho257 C268 2.811 . S
Ho257 O277 2.346 1_545 S
Ho257 O281 2.305 1_655 S
Ho257 O282 2.322 . S
Ho257 O284 2.378 . S
Ho257 O285 2.524 . S
Ho257 O286 2.381 . S
Ho257 O287 2.669 1_545 S
C258 O276 1.259 1_655 S
C258 O277 1.268 . S
C259 Ho256 2.811 . S
C259 C260 1.488 1_556 S
C259 O278 1.215 . S
C259 O279 1.289 . S
C260 C259 1.488 1_554 S
C260 C261 1.348 . S
C260 C265 1.413 . S
C261 C260 1.348 . S
C261 C262 1.442 . S
C261 H288 0.930 1_455 S
C262 C261 1.442 . S
C262 C263 1.381 . S
C262 H289 0.931 . S
C263 C262 1.381 . S
C263 C264 1.321 . S
C264 C263 1.321 . S
C264 C265 1.403 . S
C264 H290 0.934 . S
C265 C260 1.413 . S
C265 C264 1.403 . S
C265 H291 0.930 1_554 S
C266 O280 1.275 . S
C266 O281 1.256 1_565 S
C267 O282 1.259 1_455 S
C267 O283 1.268 . S
C268 Ho257 2.811 . S
C268 C269 1.488 . S
C268 O284 1.215 . S
C268 O285 1.289 . S
C269 C268 1.488 . S
C269 C270 1.348 . S
C269 C274 1.413 . S
C270 C269 1.348 . S
C270 C271 1.442 . S
C270 H292 0.930 1_655 S
C271 C270 1.442 . S
C271 C272 1.381 . S
C271 H293 0.931 . S
C272 C271 1.381 . S
C272 C273 1.321 . S
C273 C272 1.321 . S
C273 C274 1.403 . S
C273 H294 0.934 . S
C274 C269 1.413 . S
C274 C273 1.403 . S
C274 H295 0.930 . S
C275 O286 1.275 . S
C275 O287 1.256 1_545 S
O276 Ho256 2.322 . S
O276 C258 1.259 1_455 S
O277 Ho257 2.346 1_565 S
O277 C258 1.268 . S
O278 Ho256 2.378 . S
O278 C259 1.215 . S
O279 Ho256 2.524 . S
O279 C259 1.289 . S
O280 Ho256 2.381 . S
O280 C266 1.275 . S
O281 Ho256 2.669 1_545 S
O281 Ho257 2.305 1_455 S
O281 C266 1.256 1_545 S
O282 Ho257 2.322 . S
O282 C267 1.259 1_655 S
O283 Ho256 2.346 1_545 S
O283 C267 1.268 . S
O284 Ho257 2.378 . S
O284 C268 1.215 . S
O285 Ho257 2.524 . S
O285 C268 1.289 . S
O286 Ho257 2.381 . S
O286 C275 1.275 . S
O287 Ho256 2.305 1_655 S
O287 Ho257 2.669 1_565 S
O287 C275 1.256 1_565 S
H288 C261 0.930 1_655 S
H289 C262 0.931 . S
H290 C264 0.934 . S
H291 C265 0.930 1_556 S
H292 C270 0.930 1_455 S
H293 C271 0.931 . S
H294 C273 0.934 . S
H295 C274 0.930 . S
Ho296 C299 2.811 . S
Ho296 O316 2.322 . S
Ho296 O318 2.378 . S
Ho296 O319 2.524 . S
Ho296 O320 2.381 . S
Ho296 O321 2.669 . S
Ho296 O323 2.346 . S
Ho296 O327 2.305 1_545 S
Ho297 C308 2.811 . S
Ho297 O317 2.346 . S
Ho297 O321 2.305 1_565 S
Ho297 O322 2.322 . S
Ho297 O324 2.378 . S
Ho297 O325 2.524 . S
Ho297 O326 2.381 . S
Ho297 O327 2.669 . S
C298 O316 1.259 1_565 S
C298 O317 1.268 . S
C299 Ho296 2.811 . S
C299 C300 1.488 1_556 S
C299 O318 1.215 . S
C299 O319 1.289 . S
C300 C299 1.488 1_554 S
C300 C301 1.348 . S
C300 C305 1.413 . S
C301 C300 1.348 . S
C301 C302 1.442 . S
C301 H328 0.930 1_545 S
C302 C301 1.442 . S
C302 C303 1.381 . S
C302 H329 0.931 . S
C303 C302 1.381 . S
C303 C304 1.321 . S
C304 C303 1.321 . S
C304 C305 1.403 . S
C304 H330 0.934 . S
C305 C300 1.413 . S
C305 C304 1.403 . S
C305 H331 0.930 1_554 S
C306 O320 1.275 . S
C306 O321 1.256 . S
C307 O322 1.259 1_545 S
C307 O323 1.268 . S
C308 Ho297 2.811 . S
C308 C309 1.488 . S
C308 O324 1.215 . S
C308 O325 1.289 . S
C309 C308 1.488 . S
C309 C310 1.348 . S
C309 C314 1.413 . S
C310 C309 1.348 . S
C310 C311 1.442 . S
C310 H332 0.930 1_565 S
C311 C310 1.442 . S
C311 C312 1.381 . S
C311 H333 0.931 . S
C312 C311 1.381 . S
C312 C313 1.321 . S
C313 C312 1.321 . S
C313 C314 1.403 . S
C313 H334 0.934 . S
C314 C309 1.413 . S
C314 C313 1.403 . S
C314 H335 0.930 . S
C315 O326 1.275 . S
C315 O327 1.256 . S
O316 Ho296 2.322 . S
O316 C298 1.259 1_545 S
O317 Ho297 2.346 . S
O317 C298 1.268 . S
O318 Ho296 2.378 . S
O318 C299 1.215 . S
O319 Ho296 2.524 . S
O319 C299 1.289 . S
O320 Ho296 2.381 . S
O320 C306 1.275 . S
O321 Ho296 2.669 . S
O321 Ho297 2.305 1_545 S
O321 C306 1.256 . S
O322 Ho297 2.322 . S
O322 C307 1.259 1_565 S
O323 Ho296 2.346 . S
O323 C307 1.268 . S
O324 Ho297 2.378 . S
O324 C308 1.215 . S
O325 Ho297 2.524 . S
O325 C308 1.289 . S
O326 Ho297 2.381 . S
O326 C315 1.275 . S
O327 Ho296 2.305 1_565 S
O327 Ho297 2.669 . S
O327 C315 1.256 . S
H328 C301 0.930 1_565 S
H329 C302 0.931 . S
H330 C304 0.934 . S
H331 C305 0.930 1_556 S
H332 C310 0.930 1_545 S
H333 C311 0.931 . S
H334 C313 0.934 . S
H335 C314 0.930 . S
Ho336 C339 2.811 . S
Ho336 O356 2.322 . S
Ho336 O358 2.378 . S
Ho336 O359 2.524 . S
Ho336 O360 2.381 . S
Ho336 O361 2.669 . S
Ho336 O363 2.346 . S
Ho336 O367 2.305 . S
Ho337 C348 2.811 . S
Ho337 O357 2.346 . S
Ho337 O361 2.305 . S
Ho337 O362 2.322 . S
Ho337 O364 2.378 . S
Ho337 O365 2.524 . S
Ho337 O366 2.381 . S
Ho337 O367 2.669 . S
C338 O356 1.259 . S
C338 O357 1.268 . S
C339 Ho336 2.811 . S
C339 C340 1.488 1_556 S
C339 O358 1.215 . S
C339 O359 1.289 . S
C340 C339 1.488 1_554 S
C340 C341 1.348 . S
C340 C345 1.413 . S
C341 C340 1.348 . S
C341 C342 1.442 . S
C341 H368 0.930 . S
C342 C341 1.442 . S
C342 C343 1.381 . S
C342 H369 0.931 . S
C343 C342 1.381 . S
C343 C344 1.321 . S
C344 C343 1.321 . S
C344 C345 1.403 . S
C344 H370 0.934 . S
C345 C340 1.413 . S
C345 C344 1.403 . S
C345 H371 0.930 1_554 S
C346 O360 1.275 . S
C346 O361 1.256 . S
C347 O362 1.259 . S
C347 O363 1.268 . S
C348 Ho337 2.811 . S
C348 C349 1.488 . S
C348 O364 1.215 . S
C348 O365 1.289 . S
C349 C348 1.488 . S
C349 C350 1.348 . S
C349 C354 1.413 . S
C350 C349 1.348 . S
C350 C351 1.442 . S
C350 H372 0.930 . S
C351 C350 1.442 . S
C351 C352 1.381 . S
C351 H373 0.931 . S
C352 C351 1.381 . S
C352 C353 1.321 . S
C353 C352 1.321 . S
C353 C354 1.403 . S
C353 H374 0.934 . S
C354 C349 1.413 . S
C354 C353 1.403 . S
C354 H375 0.930 . S
C355 O366 1.275 . S
C355 O367 1.256 . S
O356 Ho336 2.322 . S
O356 C338 1.259 . S
O357 Ho337 2.346 . S
O357 C338 1.268 . S
O358 Ho336 2.378 . S
O358 C339 1.215 . S
O359 Ho336 2.524 . S
O359 C339 1.289 . S
O360 Ho336 2.381 . S
O360 C346 1.275 . S
O361 Ho336 2.669 . S
O361 Ho337 2.305 . S
O361 C346 1.256 . S
O362 Ho337 2.322 . S
O362 C347 1.259 . S
O363 Ho336 2.346 . S
O363 C347 1.268 . S
O364 Ho337 2.378 . S
O364 C348 1.215 . S
O365 Ho337 2.524 . S
O365 C348 1.289 . S
O366 Ho337 2.381 . S
O366 C355 1.275 . S
O367 Ho336 2.305 . S
O367 Ho337 2.669 . S
O367 C355 1.256 . S
H368 C341 0.930 . S
H369 C342 0.931 . S
H370 C344 0.934 . S
H371 C345 0.930 1_556 S
H372 C350 0.930 . S
H373 C351 0.931 . S
H374 C353 0.934 . S
H375 C354 0.930 . S
Ho376 C379 2.811 . S
Ho376 O396 2.322 . S
Ho376 O398 2.378 . S
Ho376 O399 2.524 . S
Ho376 O400 2.381 . S
Ho376 O401 2.669 1_655 S
Ho376 O403 2.346 1_655 S
Ho376 O407 2.305 . S
Ho377 C388 2.811 . S
Ho377 O397 2.346 1_455 S
Ho377 O401 2.305 . S
Ho377 O402 2.322 . S
Ho377 O404 2.378 . S
Ho377 O405 2.524 . S
Ho377 O406 2.381 . S
Ho377 O407 2.669 1_455 S
C378 O396 1.259 . S
C378 O397 1.268 . S
C379 Ho376 2.811 . S
C379 C380 1.488 1_556 S
C379 O398 1.215 . S
C379 O399 1.289 . S
C380 C379 1.488 1_554 S
C380 C381 1.348 . S
C380 C385 1.413 . S
C381 C380 1.348 . S
C381 C382 1.442 . S
C381 H408 0.930 . S
C382 C381 1.442 . S
C382 C383 1.381 . S
C382 H409 0.931 . S
C383 C382 1.381 . S
C383 C384 1.321 . S
C384 C383 1.321 . S
C384 C385 1.403 . S
C384 H410 0.934 . S
C385 C380 1.413 . S
C385 C384 1.403 . S
C385 H411 0.930 1_554 S
C386 O400 1.279 . S
C386 O401 1.253 1_655 S
C387 O402 1.259 . S
C387 O403 1.268 . S
C388 Ho377 2.811 . S
C388 C389 1.488 . S
C388 O404 1.215 . S
C388 O405 1.289 . S
C389 C388 1.488 . S
C389 C390 1.348 . S
C389 C394 1.413 . S
C390 C389 1.348 . S
C390 C391 1.442 . S
C390 H412 0.930 . S
C391 C390 1.442 . S
C391 C392 1.381 . S
C391 H413 0.931 . S
C392 C391 1.381 . S
C392 C393 1.321 . S
C393 C392 1.321 . S
C393 C394 1.403 . S
C393 H414 0.934 . S
C394 C389 1.413 . S
C394 C393 1.403 . S
C394 H415 0.930 . S
C395 O406 1.283 . S
C395 O407 1.251 1_455 S
O396 Ho376 2.322 . S
O396 C378 1.259 . S
O397 Ho377 2.346 1_655 S
O397 C378 1.268 . S
O398 Ho376 2.378 . S
O398 C379 1.215 . S
O399 Ho376 2.524 . S
O399 C379 1.289 . S
O400 Ho376 2.381 . S
O400 C386 1.279 . S
O401 Ho376 2.669 1_455 S
O401 Ho377 2.305 . S
O401 C386 1.253 1_455 S
O402 Ho377 2.322 . S
O402 C387 1.259 . S
O403 Ho376 2.346 1_455 S
O403 C387 1.268 . S
O404 Ho377 2.378 . S
O404 C388 1.215 . S
O405 Ho377 2.524 . S
O405 C388 1.289 . S
O406 Ho377 2.381 . S
O406 C395 1.283 . S
O407 Ho376 2.305 . S
O407 Ho377 2.669 1_655 S
O407 C395 1.251 1_655 S
H408 C381 0.930 . S
H409 C382 0.931 . S
H410 C384 0.934 . S
H411 C385 0.930 1_556 S
H412 C390 0.930 . S
H413 C391 0.931 . S
H414 C393 0.934 . S
H415 C394 0.930 . S
C416 C417 1.401 . S
C416 H420 0.950 . S
C416 C425 1.390 . S
C417 C416 1.401 . S
C417 C419 1.374 1_545 S
H418 C425 0.950 . S
C419 C417 1.374 1_565 S
C419 C421 1.390 . S
C419 H423 0.950 . S
H420 C416 0.950 . S
C421 C419 1.390 . S
C421 C422 1.387 1_565 S
C421 H424 0.950 . S
C422 C421 1.387 1_545 S
C422 C425 1.387 . S
H423 C419 0.950 . S
H424 C421 0.950 . S
C425 C416 1.390 . S
C425 H418 0.950 . S
C425 C422 1.387 . S
C426 C427 1.387 . S
C426 H430 0.950 . S
C426 C435 1.390 . S
C427 C426 1.387 . S
C427 C429 1.387 . S
H428 C435 0.950 . S
C429 C427 1.387 . S
C429 C431 1.390 . S
C429 H433 0.950 . S
H430 C426 0.950 . S
C431 C429 1.390 . S
C431 C432 1.387 . S
C431 H434 0.950 . S
C432 C431 1.387 . S
C432 C435 1.387 . S
H433 C429 0.950 . S
H434 C431 0.950 . S
C435 C426 1.390 . S
C435 H428 0.950 . S
C435 C432 1.387 . S
C436 C437 1.387 . S
C436 H440 0.950 . S
C436 C445 1.390 . S
C437 C436 1.387 . S
C437 C439 1.387 . S
H438 C445 0.950 . S
C439 C437 1.387 . S
C439 C441 1.390 . S
C439 H443 0.950 . S
H440 C436 0.950 . S
C441 C439 1.390 . S
C441 C442 1.387 . S
C441 H444 0.950 . S
C442 C441 1.387 . S
C442 C445 1.387 . S
H443 C439 0.950 . S
H444 C441 0.950 . S
C445 C436 1.390 . S
C445 H438 0.950 . S
C445 C442 1.387 . S
C446 C447 1.358 1_655 S
C446 H450 0.950 . S
C446 C455 1.390 . S
C447 C446 1.358 1_455 S
C447 C449 1.418 . S
H448 C455 0.950 . S
C449 C447 1.418 . S
C449 C451 1.390 . S
C449 H453 0.950 . S
H450 C446 0.950 . S
C451 C449 1.390 . S
C451 C452 1.387 . S
C451 H454 0.950 . S
C452 C451 1.387 . S
C452 C455 1.387 1_455 S
H453 C449 0.950 . S
H454 C451 0.950 . S
C455 C446 1.390 . S
C455 H448 0.950 . S
C455 C452 1.387 1_655 S
C456 C457 1.380 1_545 S
C456 H460 0.950 . S
C456 C465 1.390 . S
C457 C456 1.380 1_565 S
C457 C459 1.395 . S
H458 C465 0.950 . S
C459 C457 1.395 . S
C459 C461 1.390 . S
C459 H463 0.950 . S
H460 C456 0.950 . S
C461 C459 1.390 . S
C461 C462 1.416 . S
C461 H464 0.950 . S
C462 C461 1.416 . S
C462 C465 1.359 1_565 S
H463 C459 0.950 . S
H464 C461 0.950 . S
C465 C456 1.390 . S
C465 H458 0.950 . S
C465 C462 1.359 1_545 S
C466 C467 1.387 . S
C466 H470 0.950 . S
C466 C475 1.390 . S
C467 C466 1.387 . S
C467 C469 1.387 . S
H468 C475 0.950 . S
C469 C467 1.387 . S
C469 C471 1.390 . S
C469 H473 0.950 . S
H470 C466 0.950 . S
C471 C469 1.390 . S
C471 C472 1.387 . S
C471 H474 0.950 . S
C472 C471 1.387 . S
C472 C475 1.387 . S
H473 C469 0.950 . S
H474 C471 0.950 . S
C475 C466 1.390 . S
C475 H468 0.950 . S
C475 C472 1.387 . S
C476 C477 1.387 . S
C476 H480 0.950 . S
C476 C485 1.390 . S
C477 C476 1.387 . S
C477 C479 1.387 . S
H478 C485 0.950 . S
C479 C477 1.387 . S
C479 C481 1.390 . S
C479 H483 0.950 . S
H480 C476 0.950 . S
C481 C479 1.390 . S
C481 C482 1.387 . S
C481 H484 0.950 . S
C482 C481 1.387 . S
C482 C485 1.387 . S
H483 C479 0.950 . S
H484 C481 0.950 . S
C485 C476 1.390 . S
C485 H478 0.950 . S
C485 C482 1.387 . S
C486 C487 1.359 1_455 S
C486 H490 0.950 . S
C486 C495 1.390 . S
C487 C486 1.359 1_655 S
C487 C489 1.417 . S
H488 C495 0.950 . S
C489 C487 1.417 . S
C489 C491 1.390 . S
C489 H493 0.950 . S
H490 C486 0.950 . S
C491 C489 1.390 . S
C491 C492 1.387 . S
C491 H494 0.950 . S
C492 C491 1.387 . S
C492 C495 1.387 1_655 S
H493 C489 0.950 . S
H494 C491 0.950 . S
C495 C486 1.390 . S
C495 H488 0.950 . S
C495 C492 1.387 1_455 S
C496 C497 1.387 . S
C496 H500 0.950 . S
C496 C505 1.390 . S
C497 C496 1.387 . S
C497 C499 1.387 1_655 S
H498 C505 0.950 . S
C499 C497 1.387 1_455 S
C499 C501 1.390 1_455 S
C499 H503 0.950 . S
H500 C496 0.950 . S
C501 C499 1.390 1_655 S
C501 C502 1.387 . S
C501 H504 0.950 . S
C502 C501 1.387 . S
C502 C505 1.387 . S
H503 C499 0.950 . S
H504 C501 0.950 . S
C505 C496 1.390 . S
C505 H498 0.950 . S
C505 C502 1.387 . S
C506 C507 1.387 . S
C506 H510 0.950 1_565 S
C506 C515 1.390 . S
C507 C506 1.387 . S
C507 C509 1.387 . S
H508 C515 0.950 . S
C509 C507 1.387 . S
C509 C511 1.390 . S
C509 H513 0.950 . S
H510 C506 0.950 1_545 S
C511 C509 1.390 . S
C511 C512 1.387 . S
C511 H514 0.950 . S
C512 C511 1.387 . S
C512 C515 1.387 . S
H513 C509 0.950 . S
H514 C511 0.950 . S
C515 C506 1.390 . S
C515 H508 0.950 . S
C515 C512 1.387 . S
C516 C517 1.387 . S
C516 H520 0.950 . S
C516 C525 1.390 . S
C517 C516 1.387 . S
C517 C519 1.387 . S
H518 C525 0.950 . S
C519 C517 1.387 . S
C519 C521 1.390 . S
C519 H523 0.950 . S
H520 C516 0.950 . S
C521 C519 1.390 . S
C521 C522 1.387 . S
C521 H524 0.950 . S
C522 C521 1.387 . S
C522 C525 1.387 . S
H523 C519 0.950 . S
H524 C521 0.950 . S
C525 C516 1.390 . S
C525 H518 0.950 . S
C525 C522 1.387 . S
C526 C527 1.387 . S
C526 H530 0.950 . S
C526 C535 1.390 . S
C527 C526 1.387 . S
C527 C529 1.387 . S
H528 C535 0.950 . S
C529 C527 1.387 . S
C529 C531 1.390 . S
C529 H533 0.950 . S
H530 C526 0.950 . S
C531 C529 1.390 . S
C531 C532 1.387 . S
C531 H534 0.950 . S
C532 C531 1.387 . S
C532 C535 1.387 . S
H533 C529 0.950 . S
H534 C531 0.950 . S
C535 C526 1.390 . S
C535 H528 0.950 . S
C535 C532 1.387 . S
C536 C537 1.387 . S
C536 H540 0.950 . S
C536 C545 1.390 . S
C537 C536 1.387 . S
C537 C539 1.387 . S
H538 C545 0.950 . S
C539 C537 1.387 . S
C539 C541 1.390 . S
C539 H543 0.950 1_455 S
H540 C536 0.950 . S
C541 C539 1.390 . S
C541 C542 1.387 . S
C541 H544 0.950 1_554 S
C542 C541 1.387 . S
C542 C545 1.387 . S
H543 C539 0.950 1_655 S
H544 C541 0.950 1_556 S
C545 C536 1.390 . S
C545 H538 0.950 . S
C545 C542 1.387 . S
C546 C547 1.387 . S
C546 H550 0.950 . S
C546 C555 1.390 . S
C547 C546 1.387 . S
C547 C549 1.387 1_545 S
H548 C555 0.950 . S
C549 C547 1.387 1_565 S
C549 C551 1.390 1_565 S
C549 H553 0.950 . S
H550 C546 0.950 . S
C551 C549 1.390 1_545 S
C551 C552 1.387 . S
C551 H554 0.950 . S
C552 C551 1.387 . S
C552 C555 1.387 . S
H553 C549 0.950 . S
H554 C551 0.950 . S
C555 C546 1.390 . S
C555 H548 0.950 . S
C555 C552 1.387 . S
C556 C557 1.387 . S
C556 H560 0.950 . S
C556 C565 1.390 . S
C557 C556 1.387 . S
C557 C559 1.387 . S
H558 C565 0.950 . S
C559 C557 1.387 . S
C559 C561 1.390 . S
C559 H563 0.950 . S
H560 C556 0.950 . S
C561 C559 1.390 . S
C561 C562 1.387 . S
C561 H564 0.950 . S
C562 C561 1.387 . S
C562 C565 1.387 . S
H563 C559 0.950 . S
H564 C561 0.950 . S
C565 C556 1.390 . S
C565 H558 0.950 . S
C565 C562 1.387 . S
C566 C567 1.387 . S
C566 H570 0.950 . S
C566 C575 1.390 . S
C567 C566 1.387 . S
C567 C569 1.387 . S
H568 C575 0.950 . S
C569 C567 1.387 . S
C569 C571 1.390 . S
C569 H573 0.950 . S
H570 C566 0.950 . S
C571 C569 1.390 . S
C571 C572 1.387 . S
C571 H574 0.950 1_554 S
C572 C571 1.387 . S
C572 C575 1.387 . S
H573 C569 0.950 . S
H574 C571 0.950 1_556 S
C575 C566 1.390 . S
C575 H568 0.950 . S
C575 C572 1.387 . S
C576 C577 1.387 1_655 S
C576 H580 0.950 . S
C576 C585 1.390 . S
C577 C576 1.387 1_455 S
C577 C579 1.387 . S
H578 C585 0.950 . S
C579 C577 1.387 . S
C579 C581 1.390 . S
C579 H583 0.950 . S
H580 C576 0.950 . S
C581 C579 1.390 . S
C581 C582 1.387 . S
C581 H584 0.950 . S
C582 C581 1.387 . S
C582 C585 1.387 1_455 S
H583 C579 0.950 . S
H584 C581 0.950 . S
C585 C576 1.390 . S
C585 H578 0.950 . S
C585 C582 1.387 1_655 S
C586 C587 1.387 1_565 S
C586 H590 0.950 . S
C586 C595 1.390 . S
C587 C586 1.387 1_545 S
C587 C589 1.387 . S
H588 C595 0.950 . S
C589 C587 1.387 . S
C589 C591 1.390 . S
C589 H593 0.950 . S
H590 C586 0.950 . S
C591 C589 1.390 . S
C591 C592 1.387 . S
C591 H594 0.950 . S
C592 C591 1.387 . S
C592 C595 1.387 1_545 S
H593 C589 0.950 . S
H594 C591 0.950 . S
C595 C586 1.390 . S
C595 H588 0.950 . S
C595 C592 1.387 1_565 S
C596 C597 1.387 . S
C596 H600 0.950 . S
C596 C605 1.390 . S
C597 C596 1.387 . S
C597 C599 1.387 . S
H598 C605 0.950 . S
C599 C597 1.387 . S
C599 C601 1.390 . S
C599 H603 0.950 . S
H600 C596 0.950 . S
C601 C599 1.390 . S
C601 C602 1.387 . S
C601 H604 0.950 . S
C602 C601 1.387 . S
C602 C605 1.387 . S
H603 C599 0.950 . S
H604 C601 0.950 . S
C605 C596 1.390 . S
C605 H598 0.950 . S
C605 C602 1.387 . S
C606 C607 1.387 . S
C606 H610 0.950 . S
C606 C615 1.390 . S
C607 C606 1.387 . S
C607 C609 1.387 . S
H608 C615 0.950 . S
C609 C607 1.387 . S
C609 C611 1.390 . S
C609 H613 0.950 . S
H610 C606 0.950 . S
C611 C609 1.390 . S
C611 C612 1.387 . S
C611 H614 0.950 . S
C612 C611 1.387 . S
C612 C615 1.387 . S
H613 C609 0.950 . S
H614 C611 0.950 . S
C615 C606 1.390 . S
C615 H608 0.950 . S
C615 C612 1.387 . S
C616 C617 1.387 . S
C616 H620 0.950 . S
C616 C625 1.390 . S
C617 C616 1.387 . S
C617 C619 1.387 1_655 S
H618 C625 0.950 . S
C619 C617 1.387 1_455 S
C619 C621 1.390 . S
C619 H623 0.950 . S
H620 C616 0.950 . S
C621 C619 1.390 . S
C621 C622 1.387 1_455 S
C621 H624 0.950 . S
C622 C621 1.387 1_655 S
C622 C625 1.387 . S
H623 C619 0.950 . S
H624 C621 0.950 . S
C625 C616 1.390 . S
C625 H618 0.950 . S
C625 C622 1.387 . S
C626 C627 1.387 . S
C626 H630 0.950 . S
C626 C635 1.390 . S
C627 C626 1.387 . S
C627 C629 1.387 1_565 S
H628 C635 0.950 . S
C629 C627 1.387 1_545 S
C629 C631 1.390 . S
C629 H633 0.950 . S
H630 C626 0.950 . S
C631 C629 1.390 . S
C631 C632 1.387 1_545 S
C631 H634 0.950 . S
C632 C631 1.387 1_565 S
C632 C635 1.387 . S
H633 C629 0.950 . S
H634 C631 0.950 . S
C635 C626 1.390 . S
C635 H628 0.950 . S
C635 C632 1.387 . S
C636 C637 1.387 . S
C636 H640 0.950 . S
C636 C645 1.390 . S
C637 C636 1.387 . S
C637 C639 1.387 . S
H638 C645 0.950 . S
C639 C637 1.387 . S
C639 C641 1.390 . S
C639 H643 0.950 . S
H640 C636 0.950 . S
C641 C639 1.390 . S
C641 C642 1.387 . S
C641 H644 0.950 . S
C642 C641 1.387 . S
C642 C645 1.387 . S
H643 C639 0.950 . S
H644 C641 0.950 . S
C645 C636 1.390 . S
C645 H638 0.950 . S
C645 C642 1.387 . S
C646 C647 1.387 . S
C646 H650 0.950 . S
C646 C655 1.390 . S
C647 C646 1.387 . S
C647 C649 1.387 . S
H648 C655 0.950 . S
C649 C647 1.387 . S
C649 C651 1.390 . S
C649 H653 0.950 . S
H650 C646 0.950 . S
C651 C649 1.390 . S
C651 C652 1.387 . S
C651 H654 0.950 . S
C652 C651 1.387 . S
C652 C655 1.387 . S
H653 C649 0.950 . S
H654 C651 0.950 . S
C655 C646 1.390 . S
C655 H648 0.950 . S
C655 C652 1.387 . S
C417 C215 2.312 . S
C422 C266 2.596 1_545 S
C432 C306 2.612 . S
C427 C247 2.314 . S
C442 C346 2.620 . S
C437 C151 2.323 . S
C452 C386 2.604 1_455 S
C447 C183 2.323 . S
C462 C275 2.597 1_564 S
C457 C87 2.314 1_565 S
C467 C119 2.352 . S
C472 C315 2.615 1_554 S
C477 C23 2.360 . S
C482 C355 2.618 1_554 S
C487 C55 2.319 1_655 S
C492 C395 2.601 1_654 S
C502 C272 0.831 . S
C497 C189 0.879 1_655 S
C512 C312 0.830 . S
C507 C221 0.871 1_565 S
C522 C352 0.797 . S
C517 C253 0.828 . S
C527 C157 0.836 . S
C532 C392 0.796 . S
C537 C61 0.805 . S
C542 C263 0.836 . S
C552 C303 0.824 . S
C547 C93 0.795 . S
C562 C343 0.806 . S
C557 C125 0.791 . S
C567 C29 0.792 . S
C572 C383 0.812 . S
C577 C177 2.850 . S
C582 C267 3.286 . S
C587 C209 2.816 . S
C592 C307 3.258 . S
C602 C347 3.249 . S
C597 C241 2.796 . S
C612 C387 3.281 . S
C607 C145 2.825 . S
C617 C49 2.894 1_655 S
C622 C258 3.294 . S
C632 C298 3.258 . S
C627 C81 2.861 1_565 S
C642 C338 3.250 . S
C637 C113 2.869 . S
C647 C17 2.897 . S
C652 C378 3.284 . S
