# Generated by pormake.
# Topology ctn, (3,4)-cn, num edge types: 1
# Building blocks:
#     Node 0, Type 0, BuildingBlock: BETDAH_clean_linker_0, # of connection points: 3
#     Node 1, Type 0, BuildingBlock: BETDAH_clean_linker_0, # of connection points: 3
#     Node 2, Type 0, BuildingBlock: BETDAH_clean_linker_0, # of connection points: 3
#     Node 3, Type 0, BuildingBlock: BETDAH_clean_linker_0, # of connection points: 3
#     Node 4, Type 0, BuildingBlock: BETDAH_clean_linker_0, # of connection points: 3
#     Node 5, Type 0, BuildingBlock: BETDAH_clean_linker_0, # of connection points: 3
#     Node 6, Type 0, BuildingBlock: BETDAH_clean_linker_0, # of connection points: 3
#     Node 7, Type 0, BuildingBlock: BETDAH_clean_linker_0, # of connection points: 3
#     Node 8, Type 0, BuildingBlock: BETDAH_clean_linker_0, # of connection points: 3
#     Node 9, Type 0, BuildingBlock: BETDAH_clean_linker_0, # of connection points: 3
#     Node 10, Type 0, BuildingBlock: BETDAH_clean_linker_0, # of connection points: 3
#     Node 11, Type 0, BuildingBlock: BETDAH_clean_linker_0, # of connection points: 3
#     Node 12, Type 0, BuildingBlock: BETDAH_clean_linker_0, # of connection points: 3
#     Node 13, Type 0, BuildingBlock: BETDAH_clean_linker_0, # of connection points: 3
#     Node 14, Type 0, BuildingBlock: BETDAH_clean_linker_0, # of connection points: 3
#     Node 15, Type 0, BuildingBlock: BETDAH_clean_linker_0, # of connection points: 3
#     Node 16, Type 1, BuildingBlock: QUQFOY_clean_sbu_1, # of connection points: 4
#     Node 17, Type 1, BuildingBlock: QUQFOY_clean_sbu_1, # of connection points: 4
#     Node 18, Type 1, BuildingBlock: QUQFOY_clean_sbu_1, # of connection points: 4
#     Node 19, Type 1, BuildingBlock: QUQFOY_clean_sbu_1, # of connection points: 4
#     Node 20, Type 1, BuildingBlock: QUQFOY_clean_sbu_1, # of connection points: 4
#     Node 21, Type 1, BuildingBlock: QUQFOY_clean_sbu_1, # of connection points: 4
#     Node 22, Type 1, BuildingBlock: QUQFOY_clean_sbu_1, # of connection points: 4
#     Node 23, Type 1, BuildingBlock: QUQFOY_clean_sbu_1, # of connection points: 4
#     Node 24, Type 1, BuildingBlock: QUQFOY_clean_sbu_1, # of connection points: 4
#     Node 25, Type 1, BuildingBlock: QUQFOY_clean_sbu_1, # of connection points: 4
#     Node 26, Type 1, BuildingBlock: QUQFOY_clean_sbu_1, # of connection points: 4
#     Node 27, Type 1, BuildingBlock: QUQFOY_clean_sbu_1, # of connection points: 4
#     Edge 28, Type (0, 1), BuildingBlock: ZUJKAS_clean_linker_0, # of connection points: 2
#     Edge 29, Type (0, 1), BuildingBlock: ZUJKAS_clean_linker_0, # of connection points: 2
#     Edge 30, Type (0, 1), BuildingBlock: ZUJKAS_clean_linker_0, # of connection points: 2
#     Edge 31, Type (0, 1), BuildingBlock: ZUJKAS_clean_linker_0, # of connection points: 2
#     Edge 32, Type (0, 1), BuildingBlock: ZUJKAS_clean_linker_0, # of connection points: 2
#     Edge 33, Type (0, 1), BuildingBlock: ZUJKAS_clean_linker_0, # of connection points: 2
#     Edge 34, Type (0, 1), BuildingBlock: ZUJKAS_clean_linker_0, # of connection points: 2
#     Edge 35, Type (0, 1), BuildingBlock: ZUJKAS_clean_linker_0, # of connection points: 2
#     Edge 36, Type (0, 1), BuildingBlock: ZUJKAS_clean_linker_0, # of connection points: 2
#     Edge 37, Type (0, 1), BuildingBlock: ZUJKAS_clean_linker_0, # of connection points: 2
#     Edge 38, Type (0, 1), BuildingBlock: ZUJKAS_clean_linker_0, # of connection points: 2
#     Edge 39, Type (0, 1), BuildingBlock: ZUJKAS_clean_linker_0, # of connection points: 2
#     Edge 40, Type (0, 1), BuildingBlock: ZUJKAS_clean_linker_0, # of connection points: 2
#     Edge 41, Type (0, 1), BuildingBlock: ZUJKAS_clean_linker_0, # of connection points: 2
#     Edge 42, Type (0, 1), BuildingBlock: ZUJKAS_clean_linker_0, # of connection points: 2
#     Edge 43, Type (0, 1), BuildingBlock: ZUJKAS_clean_linker_0, # of connection points: 2
#     Edge 44, Type (0, 1), BuildingBlock: ZUJKAS_clean_linker_0, # of connection points: 2
#     Edge 45, Type (0, 1), BuildingBlock: ZUJKAS_clean_linker_0, # of connection points: 2
#     Edge 46, Type (0, 1), BuildingBlock: ZUJKAS_clean_linker_0, # of connection points: 2
#     Edge 47, Type (0, 1), BuildingBlock: ZUJKAS_clean_linker_0, # of connection points: 2
#     Edge 48, Type (0, 1), BuildingBlock: ZUJKAS_clean_linker_0, # of connection points: 2
#     Edge 49, Type (0, 1), BuildingBlock: ZUJKAS_clean_linker_0, # of connection points: 2
#     Edge 50, Type (0, 1), BuildingBlock: ZUJKAS_clean_linker_0, # of connection points: 2
#     Edge 51, Type (0, 1), BuildingBlock: ZUJKAS_clean_linker_0, # of connection points: 2
#     Edge 52, Type (0, 1), BuildingBlock: ZUJKAS_clean_linker_0, # of connection points: 2
#     Edge 53, Type (0, 1), BuildingBlock: ZUJKAS_clean_linker_0, # of connection points: 2
#     Edge 54, Type (0, 1), BuildingBlock: ZUJKAS_clean_linker_0, # of connection points: 2
#     Edge 55, Type (0, 1), BuildingBlock: ZUJKAS_clean_linker_0, # of connection points: 2
#     Edge 56, Type (0, 1), BuildingBlock: ZUJKAS_clean_linker_0, # of connection points: 2
#     Edge 57, Type (0, 1), BuildingBlock: ZUJKAS_clean_linker_0, # of connection points: 2
#     Edge 58, Type (0, 1), BuildingBlock: ZUJKAS_clean_linker_0, # of connection points: 2
#     Edge 59, Type (0, 1), BuildingBlock: ZUJKAS_clean_linker_0, # of connection points: 2
#     Edge 60, Type (0, 1), BuildingBlock: ZUJKAS_clean_linker_0, # of connection points: 2
#     Edge 61, Type (0, 1), BuildingBlock: ZUJKAS_clean_linker_0, # of connection points: 2
#     Edge 62, Type (0, 1), BuildingBlock: ZUJKAS_clean_linker_0, # of connection points: 2
#     Edge 63, Type (0, 1), BuildingBlock: ZUJKAS_clean_linker_0, # of connection points: 2
#     Edge 64, Type (0, 1), BuildingBlock: ZUJKAS_clean_linker_0, # of connection points: 2
#     Edge 65, Type (0, 1), BuildingBlock: ZUJKAS_clean_linker_0, # of connection points: 2
#     Edge 66, Type (0, 1), BuildingBlock: ZUJKAS_clean_linker_0, # of connection points: 2
#     Edge 67, Type (0, 1), BuildingBlock: ZUJKAS_clean_linker_0, # of connection points: 2
#     Edge 68, Type (0, 1), BuildingBlock: ZUJKAS_clean_linker_0, # of connection points: 2
#     Edge 69, Type (0, 1), BuildingBlock: ZUJKAS_clean_linker_0, # of connection points: 2
#     Edge 70, Type (0, 1), BuildingBlock: ZUJKAS_clean_linker_0, # of connection points: 2
#     Edge 71, Type (0, 1), BuildingBlock: ZUJKAS_clean_linker_0, # of connection points: 2
#     Edge 72, Type (0, 1), BuildingBlock: ZUJKAS_clean_linker_0, # of connection points: 2
#     Edge 73, Type (0, 1), BuildingBlock: ZUJKAS_clean_linker_0, # of connection points: 2
#     Edge 74, Type (0, 1), BuildingBlock: ZUJKAS_clean_linker_0, # of connection points: 2
#     Edge 75, Type (0, 1), BuildingBlock: ZUJKAS_clean_linker_0, # of connection points: 2
# Relax obj value: 0.074
# Max RMSD: 0.180
# Mean RMSD: 0.125
data_MOF--net-ctn--node1-QUQFOY_clean_sbu_1--node2-BETDAH_clean_linker_0--edge1-ZUJKAS_clean_linker_0
_symmetry_space_group_name_H-M    P1
_symmetry_Int_Tables_number       1
_symmetry_cell_setting            triclinic
loop_
_symmetry_equiv_pos_as_xyz
'x, y, z'
_cell_length_a     70.103488
_cell_length_b     69.849188
_cell_length_c     71.419394
_cell_angle_alpha  101.39763
_cell_angle_beta   90.119009
_cell_angle_gamma 99.470014
loop_
_atom_site_label
_atom_site_type_symbol
_atom_site_fract_x
_atom_site_fract_y
_atom_site_fract_z
_atom_type_partial_charge
H0 H 0.07656 0.08038 0.10055 0.0
H1 H 0.10692 0.08793 0.04962 0.0
H2 H 0.06755 0.12717 0.07195 0.0
C3 C 0.07976 0.08833 0.08904 0.0
C4 C 0.0706 0.10461 0.08806 0.0
C5 C 0.09286 0.08209 0.07528 0.0
C6 C 0.09698 0.09258 0.06053 0.0
C7 C 0.08791 0.10866 0.05912 0.0
C8 C 0.07451 0.11462 0.07283 0.0
N9 N 0.09301 0.11847 0.0438 0.0
C10 C 0.083 0.13176 0.03758 0.0
H11 H 0.31845 0.7265 0.24074 0.0
H12 H 0.33962 0.78913 0.24908 0.0
H13 H 0.28395 0.76466 0.22128 0.0
C14 C 0.31675 0.74117 0.23885 0.0
C15 C 0.29972 0.74373 0.23007 0.0
C16 C 0.33123 0.75743 0.24585 0.0
C17 C 0.32868 0.77635 0.24352 0.0
C18 C 0.31192 0.77908 0.23438 0.0
C19 C 0.29729 0.76269 0.22777 0.0
N20 N 0.31 0.79857 0.2327 0.0
C21 C 0.29771 0.80278 0.21934 0.0
H22 H 0.96196 0.4396 0.08407 0.0
H23 H 0.92571 0.47951 0.11283 0.0
H24 H 0.90519 0.43884 0.06069 0.0
C25 C 0.94828 0.44501 0.08505 0.0
C26 C 0.93398 0.43736 0.07053 0.0
C27 C 0.94546 0.46008 0.10047 0.0
C28 C 0.92818 0.46791 0.10102 0.0
C29 C 0.91366 0.46012 0.0867 0.0
C30 C 0.91652 0.44478 0.07164 0.0
N31 N 0.89579 0.46708 0.08755 0.0
C32 C 0.89475 0.48682 0.08795 0.0
H33 H 0.78726 0.83833 0.22896 0.0
H34 H 0.75733 0.79577 0.25959 0.0
H35 H 0.78054 0.8546 0.28956 0.0
C36 C 0.78208 0.83447 0.24225 0.0
C37 C 0.78495 0.8489 0.25916 0.0
C38 C 0.77236 0.81517 0.24221 0.0
C39 C 0.76472 0.8106 0.25932 0.0
C40 C 0.76769 0.82492 0.27638 0.0
C41 C 0.778 0.84383 0.27624 0.0
N42 N 0.76147 0.82043 0.2941 0.0
C43 C 0.74334 0.8099 0.29646 0.0
H44 H 0.06957 0.02374 0.45069 0.0
H45 H 0.06621 0.98259 0.48853 0.0
H46 H 0.0164 0.98396 0.45374 0.0
C47 C 0.06127 0.01196 0.45662 0.0
C48 C 0.04195 0.00482 0.45047 0.0
C49 C 0.07006 0.004 0.4703 0.0
C50 C 0.05936 0.98875 0.47801 0.0
C51 C 0.03984 0.98169 0.47218 0.0
C52 C 0.03133 0.9897 0.4584 0.0
N53 N 0.0283 0.96649 0.4797 0.0
C54 C 0.03371 0.95915 0.49527 0.0
H55 H 0.2671 0.74054 0.82046 0.0
H56 H 0.23119 0.76836 0.78896 0.0
H57 H 0.26536 0.72721 0.75894 0.0
C58 C 0.26165 0.74261 0.80692 0.0
C59 C 0.26789 0.73219 0.78978 0.0
C60 C 0.2484 0.75566 0.80676 0.0
C61 C 0.24124 0.75817 0.78916 0.0
C62 C 0.24757 0.74802 0.7719 0.0
C63 C 0.2609 0.73523 0.77234 0.0
N64 N 0.24094 0.75035 0.75382 0.0
C65 C 0.22505 0.75915 0.75107 0.0
H66 H 0.94733 0.58142 0.51035 0.0
H67 H 0.98511 0.59406 0.46531 0.0
H68 H 0.94282 0.54081 0.45615 0.0
C69 C 0.95246 0.57711 0.49607 0.0
C70 C 0.9434 0.55945 0.48423 0.0
C71 C 0.96744 0.58974 0.48935 0.0
C72 C 0.97358 0.58439 0.47059 0.0
C73 C 0.96462 0.56666 0.45864 0.0
C74 C 0.94952 0.55447 0.46547 0.0
N75 N 0.97014 0.56069 0.43958 0.0
C76 C 0.98785 0.56758 0.43257 0.0
H77 H 0.83075 0.77893 0.82325 0.0
H78 H 0.79608 0.80719 0.79072 0.0
H79 H 0.77134 0.78165 0.83686 0.0
C80 C 0.81712 0.7835 0.82058 0.0
C81 C 0.80136 0.77911 0.83203 0.0
C82 C 0.81538 0.79357 0.80558 0.0
C83 C 0.7977 0.79966 0.80237 0.0
C84 C 0.78179 0.79511 0.81359 0.0
C85 C 0.78368 0.78476 0.82816 0.0
N86 N 0.76346 0.80017 0.81031 0.0
C87 C 0.7608 0.81618 0.80236 0.0
H88 H 0.3202 0.28971 0.30789 0.0
H89 H 0.29026 0.33181 0.28878 0.0
H90 H 0.26741 0.30317 0.33386 0.0
C91 C 0.30815 0.29774 0.30891 0.0
C92 C 0.294 0.29469 0.32239 0.0
C93 C 0.30696 0.31111 0.29675 0.0
C94 C 0.29133 0.32159 0.29818 0.0
C95 C 0.27693 0.31848 0.31148 0.0
C96 C 0.27839 0.30511 0.32343 0.0
N97 N 0.26068 0.32838 0.31331 0.0
C98 C 0.25775 0.34318 0.3037 0.0
H99 H 0.49633 0.95105 0.57598 0.0
H100 H 0.48963 0.00818 0.60845 0.0
H101 H 0.46295 0.98753 0.55222 0.0
C102 C 0.49032 0.96458 0.5774 0.0
C103 C 0.47907 0.9675 0.56223 0.0
C104 C 0.49432 0.97914 0.59413 0.0
C105 C 0.48649 0.99662 0.59574 0.0
C106 C 0.47509 0.99975 0.58087 0.0
C107 C 0.47151 0.98519 0.56396 0.0
N108 N 0.4679 0.0179 0.58345 0.0
C109 C 0.45558 0.02289 0.57062 0.0
H110 H 0.28272 0.30895 0.71136 0.0
H111 H 0.255 0.25409 0.72522 0.0
H112 H 0.25215 0.30916 0.76359 0.0
C113 C 0.27393 0.30103 0.72077 0.0
C114 C 0.26783 0.31161 0.73793 0.0
C115 C 0.26938 0.28028 0.71595 0.0
C116 C 0.25884 0.27009 0.72872 0.0
C117 C 0.25246 0.28034 0.74576 0.0
C118 C 0.25695 0.30115 0.75036 0.0
N119 N 0.2417 0.26917 0.75795 0.0
C120 C 0.22942 0.27673 0.77168 0.0
H121 H 0.81536 0.22578 0.75753 0.0
H122 H 0.81676 0.28556 0.74944 0.0
H123 H 0.76243 0.24854 0.75437 0.0
C124 C 0.80794 0.23758 0.75513 0.0
C125 C 0.7877 0.23475 0.7555 0.0
C126 C 0.81867 0.25594 0.75328 0.0
C127 C 0.80874 0.27129 0.75081 0.0
C128 C 0.78843 0.26851 0.75114 0.0
C129 C 0.77808 0.25044 0.75386 0.0
N130 N 0.7781 0.28404 0.74994 0.0
C131 C 0.78154 0.29562 0.73621 0.0
H132 H 0.57167 0.57229 0.60982 0.0
H133 H 0.61381 0.60622 0.58031 0.0
H134 H 0.56066 0.62695 0.59594 0.0
C135 C 0.57608 0.58508 0.60342 0.0
C136 C 0.56395 0.59941 0.60423 0.0
C137 C 0.59393 0.58713 0.5945 0.0
C138 C 0.59984 0.60404 0.58677 0.0
C139 C 0.58781 0.61816 0.58699 0.0
C140 C 0.56982 0.61583 0.59562 0.0
N141 N 0.59456 0.635 0.5791 0.0
C142 C 0.5833 0.6421 0.5669 0.0
H143 H 0.57498 0.50542 0.93569 0.0
H144 H 0.57686 0.46984 0.97825 0.0
H145 H 0.52547 0.46251 0.94286 0.0
C146 C 0.56808 0.49391 0.94283 0.0
C147 C 0.54902 0.48466 0.93745 0.0
C148 C 0.57827 0.48861 0.95746 0.0
C149 C 0.56909 0.47397 0.96695 0.0
C150 C 0.55005 0.46443 0.9615 0.0
C151 C 0.54025 0.46972 0.94671 0.0
N152 N 0.54019 0.44945 0.97046 0.0
C153 C 0.54644 0.44493 0.98729 0.0
H154 H 0.76997 0.26056 0.33104 0.0
H155 H 0.72881 0.28592 0.30306 0.0
H156 H 0.76347 0.24744 0.26969 0.0
C157 C 0.76305 0.26231 0.31804 0.0
C158 C 0.76852 0.25248 0.30028 0.0
C159 C 0.74876 0.27442 0.31921 0.0
C160 C 0.7397 0.27647 0.30229 0.0
C161 C 0.74519 0.26684 0.2844 0.0
C162 C 0.7596 0.25504 0.28354 0.0
N163 N 0.73672 0.26873 0.26693 0.0
C164 C 0.72028 0.27715 0.2655 0.0
H165 H 0.428 0.08081 0.01273 0.0
H166 H 0.4704 0.09783 0.97287 0.0
H167 H 0.42566 0.04752 0.95502 0.0
C168 C 0.43371 0.07852 0.99852 0.0
C169 C 0.42493 0.06242 0.98451 0.0
C170 C 0.44998 0.09156 0.99446 0.0
C171 C 0.45797 0.08785 0.9763 0.0
C172 C 0.44913 0.07188 0.96214 0.0
C173 C 0.43254 0.05952 0.96621 0.0
N174 N 0.45606 0.0684 0.94339 0.0
C175 C 0.47557 0.0698 0.93957 0.0
O176 O 0.23317 0.86473 0.00318 0.0
Cd177 Cd 0.24287 0.88404 0.02841 0.0
Cd178 Cd 0.21859 0.90628 0.01581 0.0
O179 O 0.21258 0.88192 0.99378 0.0
O180 O 0.25631 0.86821 0.04277 0.0
O181 O 0.23079 0.88124 0.05357 0.0
C182 C 0.24408 0.87107 0.05605 0.0
C183 C 0.19338 0.92227 0.02855 0.0
C184 C 0.2207 0.86667 0.99104 0.0
C185 C 0.26109 0.92339 0.02042 0.0
O186 O 0.24429 0.92519 0.01514 0.0
O187 O 0.26367 0.90816 0.02666 0.0
O188 O 0.19917 0.92284 0.01154 0.0
O189 O 0.20151 0.9119 0.03831 0.0
O190 O 0.18061 0.56116 0.2645 0.0
Cd191 Cd 0.16543 0.53825 0.27555 0.0
Cd192 Cd 0.13488 0.54588 0.25306 0.0
O193 O 0.15781 0.56419 0.24442 0.0
O194 O 0.18543 0.52553 0.2859 0.0
O195 O 0.16477 0.50985 0.26222 0.0
C196 C 0.17907 0.50958 0.27357 0.0
C197 C 0.10985 0.53232 0.23016 0.0
C198 C 0.17499 0.56913 0.25141 0.0
C199 C 0.13151 0.5515 0.29641 0.0
O200 O 0.12498 0.55315 0.2803 0.0
O201 O 0.14734 0.54516 0.2977 0.0
O202 O 0.11314 0.55087 0.2378 0.0
O203 O 0.12112 0.52123 0.23525 0.0
O204 O 0.77843 0.68743 0.00416 0.0
Cd205 Cd 0.76841 0.67233 0.02525 0.0
Cd206 Cd 0.79293 0.648 0.00993 0.0
O207 O 0.8001 0.66887 0.99313 0.0
O208 O 0.75546 0.69087 0.04373 0.0
O209 O 0.78119 0.67912 0.0515 0.0
C210 C 0.7681 0.68999 0.05654 0.0
C211 C 0.81697 0.63688 0.0254 0.0
C212 C 0.79175 0.68361 0.99266 0.0
C213 C 0.75082 0.63038 0.00811 0.0
O214 O 0.76772 0.62774 0.00307 0.0
O215 O 0.74806 0.64707 0.01751 0.0
O216 O 0.81405 0.63194 0.00713 0.0
O217 O 0.80661 0.64886 0.03497 0.0
O218 O 0.9516 0.06896 0.289 0.0
Cd219 Cd 0.93467 0.06711 0.26478 0.0
Cd220 Cd 0.91037 0.08238 0.29048 0.0
O221 O 0.93191 0.08193 0.31 0.0
O222 O 0.95244 0.06263 0.24329 0.0
O223 O 0.93805 0.08894 0.24965 0.0
C224 C 0.94957 0.07909 0.23915 0.0
C225 C 0.89624 0.11069 0.29265 0.0
C226 C 0.9476 0.07532 0.30623 0.0
C227 C 0.89619 0.04178 0.26711 0.0
O228 O 0.89262 0.0558 0.28018 0.0
O229 O 0.91216 0.04341 0.2587 0.0
O230 O 0.89287 0.09926 0.3048 0.0
O231 O 0.90816 0.10629 0.27932 0.0
O232 O 0.28735 0.17214 0.47298 0.0
Cd233 Cd 0.28124 0.15691 0.49478 0.0
Cd234 Cd 0.29863 0.12976 0.4713 0.0
O235 O 0.30205 0.15061 0.45404 0.0
O236 O 0.27182 0.17642 0.51531 0.0
O237 O 0.29787 0.16338 0.51906 0.0
C238 C 0.28596 0.17493 0.52617 0.0
C239 C 0.32498 0.11879 0.48294 0.0
C240 C 0.29593 0.16708 0.45758 0.0
C241 C 0.25779 0.11617 0.48048 0.0
O242 O 0.27223 0.11149 0.471 0.0
O243 O 0.25868 0.1334 0.49071 0.0
O244 O 0.31855 0.11237 0.46549 0.0
O245 O 0.31678 0.13209 0.49362 0.0
O246 O 0.43025 0.53116 0.78233 0.0
Cd247 Cd 0.41143 0.53175 0.76027 0.0
Cd248 Cd 0.39106 0.54774 0.78897 0.0
O249 O 0.41478 0.54692 0.80575 0.0
O250 O 0.42652 0.52748 0.73664 0.0
O251 O 0.4153 0.55526 0.74742 0.0
C252 C 0.42495 0.54517 0.73486 0.0
C253 C 0.3791 0.57713 0.79025 0.0
C254 C 0.42907 0.53855 0.79996 0.0
C255 C 0.37296 0.50816 0.76619 0.0
O256 O 0.37183 0.52163 0.78078 0.0
O257 O 0.38728 0.50981 0.75539 0.0
O258 O 0.37607 0.56716 0.80367 0.0
O259 O 0.3894 0.57057 0.77618 0.0
O260 O 0.74635 0.37593 0.52008 0.0
Cd261 Cd 0.75884 0.39374 0.54507 0.0
Cd262 Cd 0.73664 0.42007 0.53463 0.0
O263 O 0.72842 0.39647 0.51214 0.0
O264 O 0.77106 0.37576 0.55789 0.0
O265 O 0.7482 0.39185 0.57097 0.0
C266 C 0.76025 0.37995 0.57218 0.0
C267 C 0.71322 0.43907 0.54689 0.0
C268 C 0.73439 0.37994 0.50862 0.0
C269 C 0.78021 0.43228 0.53781 0.0
O270 O 0.76383 0.43651 0.53419 0.0
O271 O 0.78138 0.41592 0.54256 0.0
O272 O 0.71991 0.43922 0.53016 0.0
O273 O 0.71944 0.42756 0.55673 0.0
O274 O 0.68473 0.0431 0.80132 0.0
Cd275 Cd 0.6687 0.01808 0.80796 0.0
Cd276 Cd 0.64182 0.02275 0.78169 0.0
O277 O 0.66423 0.04497 0.77856 0.0
O278 O 0.68678 0.00231 0.81671 0.0
O279 O 0.66831 0.9919 0.79023 0.0
C280 C 0.68128 0.98882 0.80168 0.0
C281 C 0.62288 0.00933 0.75363 0.0
C282 C 0.6801 0.05139 0.78809 0.0
C283 C 0.63072 0.02502 0.82335 0.0
O284 O 0.6262 0.02575 0.8063 0.0
O285 O 0.6474 0.02185 0.82749 0.0
O286 O 0.62257 0.02693 0.76313 0.0
O287 O 0.63403 0.99896 0.7601 0.0
O288 O 0.99642 0.2867 0.91307 0.0
Cd289 Cd 0.00529 0.26407 0.89385 0.0
Cd290 Cd 0.02525 0.29455 0.88095 0.0
O291 O 0.01641 0.31153 0.90536 0.0
O292 O 0.9988 0.24047 0.90586 0.0
O293 O 0.02883 0.25389 0.90126 0.0
C294 C 0.01713 0.24087 0.9081 0.0
C295 C 0.05775 0.29722 0.87336 0.0
C296 C 0.00337 0.30505 0.91597 0.0
C297 C 0.99328 0.26863 0.85514 0.0
O298 O 0.0052 0.28482 0.85852 0.0
O299 O 0.99201 0.25701 0.86692 0.0
O300 O 0.04776 0.31063 0.87121 0.0
O301 O 0.04934 0.28244 0.8804 0.0
O302 O 0.50099 0.78597 0.4241 0.0
Cd303 Cd 0.5041 0.75846 0.40878 0.0
Cd304 Cd 0.52701 0.78052 0.38756 0.0
O305 O 0.52138 0.8039 0.40829 0.0
O306 O 0.49664 0.73978 0.42629 0.0
O307 O 0.52622 0.74587 0.41568 0.0
C308 C 0.51435 0.73691 0.42625 0.0
C309 C 0.55836 0.78089 0.37631 0.0
C310 C 0.5096 0.80275 0.42169 0.0
C311 C 0.49043 0.75467 0.36858 0.0
O312 O 0.50518 0.76762 0.3675 0.0
O313 O 0.48742 0.74807 0.38386 0.0
O314 O 0.5474 0.79265 0.3721 0.0
O315 O 0.55168 0.76908 0.38747 0.0
O316 O 0.99034 0.79707 0.68739 0.0
Cd317 Cd 0.01352 0.78987 0.67132 0.0
Cd318 Cd 0.99708 0.8106 0.64672 0.0
O319 O 0.97745 0.81316 0.66831 0.0
O320 O 0.029 0.77875 0.6886 0.0
O321 O 0.04051 0.80544 0.67729 0.0
C322 C 0.04323 0.79265 0.68742 0.0
C323 C 0.00693 0.83783 0.63244 0.0
C324 C 0.97724 0.80648 0.68364 0.0
C325 C 0.00148 0.7681 0.63109 0.0
O326 O 0.99595 0.78372 0.62819 0.0
O327 O 0.00866 0.76755 0.64728 0.0
O328 O 0.98969 0.82776 0.62975 0.0
O329 O 0.01864 0.83285 0.64391 0.0
O330 O 0.48619 0.30219 0.1896 0.0
Cd331 Cd 0.51009 0.2936 0.17556 0.0
Cd332 Cd 0.49711 0.3123 0.14847 0.0
O333 O 0.47653 0.31809 0.16851 0.0
O334 O 0.5258 0.28583 0.19514 0.0
O335 O 0.53646 0.31053 0.18064 0.0
C336 C 0.53955 0.29974 0.19274 0.0
C337 C 0.51018 0.33747 0.13265 0.0
C338 C 0.47442 0.31226 0.18426 0.0
C339 C 0.49945 0.2688 0.13645 0.0
O340 O 0.49471 0.28415 0.13201 0.0
O341 O 0.5061 0.26943 0.15316 0.0
O342 O 0.4926 0.32842 0.12941 0.0
O343 O 0.52045 0.33259 0.14544 0.0
H344 H 0.2714 0.77523 0.83774 0.0
H345 H 0.26151 0.79267 0.86835 0.0
H346 H 0.20197 0.77906 0.84781 0.0
H347 H 0.21175 0.76127 0.81708 0.0
H348 H 0.24001 0.82564 0.87408 0.0
H349 H 0.20278 0.75947 0.90001 0.0
H350 H 0.2201 0.75767 0.8813 0.0
H351 H 0.19627 0.76202 0.87632 0.0
C352 C 0.25618 0.77581 0.83977 0.0
C353 C 0.24233 0.76677 0.82507 0.0
C354 C 0.25057 0.78585 0.85721 0.0
C355 C 0.23101 0.78694 0.86036 0.0
C356 C 0.21712 0.77816 0.84569 0.0
H357 H 0.19805 0.86814 0.96021 0.0
H358 H 0.19723 0.84769 0.92809 0.0
C359 C 0.22274 0.76817 0.82813 0.0
C360 C 0.22543 0.79759 0.87901 0.0
H361 H 0.20415 0.79053 0.92065 0.0
C362 C 0.23197 0.81805 0.8842 0.0
C363 C 0.21509 0.78751 0.89216 0.0
C364 C 0.2082 0.76543 0.88734 0.0
C365 C 0.22879 0.82871 0.90239 0.0
C366 C 0.21861 0.81862 0.91565 0.0
C367 C 0.21178 0.7982 0.91036 0.0
C368 C 0.21643 0.82888 0.93553 0.0
C369 C 0.23702 0.85053 0.90758 0.0
C370 C 0.22677 0.82443 0.95049 0.0
C371 C 0.22726 0.83604 0.96888 0.0
C372 C 0.21737 0.85229 0.9726 0.0
C373 C 0.20594 0.85583 0.95782 0.0
C374 C 0.20549 0.84422 0.93943 0.0
H375 H 0.24733 0.85526 0.89692 0.0
H376 H 0.22505 0.85922 0.90829 0.0
H377 H 0.24459 0.8542 0.92183 0.0
H378 H 0.23524 0.81259 0.94775 0.0
H379 H 0.2361 0.83281 0.97993 0.0
H380 H 0.02276 0.56179 0.44372 0.0
H381 H 0.0524 0.56427 0.42537 0.0
H382 H 0.02242 0.5846 0.38219 0.0
H383 H 0.99298 0.58237 0.40066 0.0
H384 H 0.05429 0.54216 0.38964 0.0
H385 H 0.07411 0.62162 0.38735 0.0
H386 H 0.05781 0.61288 0.40457 0.0
H387 H 0.04914 0.6122 0.38066 0.0
C388 C 0.02279 0.56733 0.43057 0.0
C389 C 0.00588 0.57209 0.42355 0.0
C390 C 0.03963 0.56869 0.42011 0.0
C391 C 0.0397 0.57489 0.40255 0.0
C392 C 0.02286 0.58029 0.39592 0.0
H393 H 0.09756 0.566 0.29852 0.0
H394 H 0.07785 0.57278 0.32635 0.0
C395 C 0.00606 0.57893 0.40639 0.0
C396 C 0.05641 0.57334 0.39 0.0
H397 H 0.08668 0.59873 0.36255 0.0
C398 C 0.06168 0.5546 0.384 0.0
C399 C 0.06596 0.58959 0.38265 0.0
C400 C 0.0616 0.61024 0.38929 0.0
C401 C 0.07547 0.55143 0.37002 0.0
C402 C 0.08443 0.56752 0.36209 0.0
C403 C 0.07975 0.58643 0.36865 0.0
C404 C 0.09734 0.56461 0.34577 0.0
C405 C 0.07955 0.53069 0.36311 0.0
C406 C 0.11501 0.55806 0.34756 0.0
C407 C 0.12634 0.55406 0.3316 0.0
C408 C 0.12018 0.55662 0.31363 0.0
C409 C 0.10272 0.56375 0.31209 0.0
C410 C 0.09145 0.56772 0.32801 0.0
H411 H 0.06888 0.51941 0.36822 0.0
H412 H 0.07938 0.52699 0.34724 0.0
H413 H 0.09415 0.52971 0.36848 0.0
H414 H 0.11992 0.55583 0.36124 0.0
H415 H 0.13977 0.54872 0.33331 0.0
H416 H 0.77513 0.75001 0.8428 0.0
H417 H 0.77715 0.73498 0.87066 0.0
H418 H 0.8342 0.76901 0.88515 0.0
H419 H 0.83193 0.78487 0.85777 0.0
H420 H 0.80223 0.71265 0.88057 0.0
H421 H 0.80647 0.78248 0.93462 0.0
H422 H 0.80021 0.78083 0.90977 0.0
H423 H 0.82505 0.78283 0.91736 0.0
C424 C 0.78804 0.75448 0.85201 0.0
C425 C 0.80326 0.76885 0.84817 0.0
C426 C 0.78924 0.74574 0.86785 0.0
C427 C 0.80568 0.75113 0.88019 0.0
C428 C 0.8212 0.76495 0.87606 0.0
H429 H 0.82111 0.68168 0.9674 0.0
H430 H 0.82675 0.6989 0.94072 0.0
C431 C 0.81998 0.7738 0.86025 0.0
C432 C 0.80634 0.74228 0.89739 0.0
H433 H 0.80896 0.75353 0.9462 0.0
C434 C 0.8038 0.72158 0.89493 0.0
C435 C 0.80816 0.75398 0.91611 0.0
C436 C 0.80995 0.77625 0.91972 0.0
C437 C 0.80277 0.7122 0.91065 0.0
C438 C 0.80481 0.72389 0.92937 0.0
C439 C 0.8076 0.74462 0.93184 0.0
C440 C 0.80275 0.71486 0.94656 0.0
C441 C 0.7987 0.68985 0.90703 0.0
C442 C 0.788 0.71885 0.95925 0.0
C443 C 0.7849 0.70927 0.97467 0.0
C444 C 0.79648 0.69543 0.97767 0.0
C445 C 0.81179 0.69209 0.96539 0.0
C446 C 0.81497 0.70182 0.95005 0.0
H447 H 0.79284 0.68332 0.89227 0.0
H448 H 0.81236 0.68426 0.90891 0.0
H449 H 0.78821 0.68453 0.91727 0.0
H450 H 0.77846 0.72895 0.95689 0.0
H451 H 0.77301 0.71224 0.98385 0.0
H452 H 0.00642 0.01621 0.45051 0.0
H453 H 0.99207 0.03042 0.42616 0.0
H454 H 0.0431 0.02667 0.39297 0.0
H455 H 0.05746 0.01231 0.4171 0.0
H456 H 0.0104 0.06673 0.4114 0.0
H457 H 0.99516 0.997 0.3564 0.0
H458 H 0.99845 0.99707 0.38151 0.0
H459 H 0.01899 0.00333 0.36761 0.0
C460 C 0.01449 0.01827 0.43795 0.0
C461 C 0.03304 0.01314 0.43568 0.0
C462 C 0.00635 0.0265 0.42415 0.0
C463 C 0.01653 0.02948 0.4078 0.0
C464 C 0.03501 0.02436 0.40547 0.0
H465 H 0.98326 0.06405 0.30375 0.0
H466 H 0.00169 0.05538 0.32903 0.0
C467 C 0.04322 0.01628 0.4193 0.0
C468 C 0.00782 0.03792 0.39309 0.0
H469 H 0.98875 0.02609 0.34751 0.0
C470 C 0.00563 0.0579 0.39741 0.0
C471 C 0.00181 0.02634 0.37488 0.0
C472 C 0.00355 0.0047 0.36974 0.0
C473 C 0.99767 0.0667 0.38385 0.0
C474 C 0.99133 0.05503 0.36569 0.0
C475 C 0.99368 0.03506 0.36139 0.0
C476 C 0.98153 0.06286 0.35112 0.0
C477 C 0.99646 0.08847 0.38899 0.0
C478 C 0.96427 0.07031 0.35521 0.0
C479 C 0.95379 0.07546 0.34083 0.0
C480 C 0.96022 0.07295 0.32199 0.0
C481 C 0.97788 0.06615 0.31809 0.0
C482 C 0.98842 0.06115 0.33252 0.0
H483 H 0.00726 0.09643 0.40049 0.0
H484 H 0.99881 0.09557 0.37639 0.0
H485 H 0.98187 0.09023 0.39433 0.0
H486 H 0.95842 0.07134 0.36933 0.0
H487 H 0.94019 0.08052 0.34432 0.0
H488 H 0.28309 0.24497 0.70879 0.0
H489 H 0.2909 0.22625 0.67782 0.0
H490 H 0.27684 0.27204 0.65028 0.0
H491 H 0.26867 0.29065 0.681 0.0
H492 H 0.26503 0.21242 0.64609 0.0
H493 H 0.32951 0.26224 0.62838 0.0
H494 H 0.32082 0.26397 0.65236 0.0
H495 H 0.30935 0.27461 0.6353 0.0
C496 C 0.28166 0.25107 0.69614 0.0
C497 C 0.27525 0.26933 0.6974 0.0
C498 C 0.28627 0.24042 0.6785 0.0
C499 C 0.28475 0.24792 0.66183 0.0
C500 C 0.27858 0.26622 0.66304 0.0
H501 H 0.26112 0.19743 0.54508 0.0
H502 H 0.26296 0.21394 0.57863 0.0
C503 C 0.2739 0.27684 0.68064 0.0
C504 C 0.28806 0.23598 0.64292 0.0
H505 H 0.31345 0.23762 0.60233 0.0
C506 C 0.27582 0.21777 0.63664 0.0
C507 C 0.30226 0.24292 0.63069 0.0
C508 C 0.31637 0.26192 0.63706 0.0
C509 C 0.27675 0.20682 0.61806 0.0
C510 C 0.29018 0.21432 0.60548 0.0
C511 C 0.30309 0.23201 0.61203 0.0
C512 C 0.28982 0.20478 0.58506 0.0
C513 C 0.263 0.18754 0.61178 0.0
C514 C 0.30455 0.19448 0.57754 0.0
C515 C 0.30352 0.18489 0.55828 0.0
C516 C 0.28783 0.18569 0.54631 0.0
C517 C 0.27339 0.19647 0.55389 0.0
C518 C 0.27437 0.20589 0.57307 0.0
H519 H 0.25653 0.18172 0.62415 0.0
H520 H 0.25108 0.18996 0.60272 0.0
H521 H 0.27052 0.1762 0.60311 0.0
H522 H 0.31662 0.19357 0.58663 0.0
H523 H 0.31489 0.17673 0.55284 0.0
H524 H 0.54883 0.62862 0.62812 0.0
H525 H 0.52084 0.62456 0.64827 0.0
H526 H 0.5104 0.56171 0.62521 0.0
H527 H 0.53764 0.56577 0.60433 0.0
H528 H 0.47675 0.57652 0.63031 0.0
H529 H 0.52439 0.60212 0.69594 0.0
H530 H 0.5249 0.61967 0.6806 0.0
H531 H 0.53393 0.59693 0.6724 0.0
C532 C 0.54032 0.614 0.62702 0.0
C533 C 0.54568 0.59746 0.61481 0.0
C534 C 0.52447 0.61167 0.63873 0.0
C535 C 0.51384 0.59276 0.63862 0.0
C536 C 0.51851 0.57643 0.62569 0.0
H537 H 0.43989 0.5255 0.70302 0.0
H538 H 0.45887 0.53967 0.67893 0.0
C539 C 0.53421 0.57875 0.61388 0.0
C540 C 0.49853 0.58957 0.65254 0.0
H541 H 0.49142 0.59165 0.70018 0.0
C542 C 0.47991 0.58004 0.6456 0.0
C543 C 0.50265 0.59416 0.67252 0.0
C544 C 0.52257 0.60363 0.68087 0.0
C545 C 0.46551 0.57443 0.65803 0.0
C546 C 0.46987 0.57839 0.67788 0.0
C547 C 0.48815 0.58874 0.68493 0.0
C548 C 0.45653 0.57001 0.69138 0.0
C549 C 0.44585 0.56393 0.64984 0.0
C550 C 0.44892 0.58241 0.70638 0.0
C551 C 0.43793 0.57432 0.72017 0.0
C552 C 0.43474 0.55375 0.71934 0.0
C553 C 0.44209 0.5414 0.70407 0.0
C554 C 0.45285 0.54946 0.69022 0.0
H555 H 0.44311 0.56673 0.63537 0.0
H556 H 0.44508 0.54773 0.64861 0.0
H557 H 0.43423 0.56867 0.6593 0.0
H558 H 0.45179 0.59833 0.70759 0.0
H559 H 0.43253 0.58421 0.73182 0.0
H560 H 0.80079 0.28931 0.70353 0.0
H561 H 0.7986 0.30565 0.67626 0.0
H562 H 0.76068 0.34224 0.70769 0.0
H563 H 0.76314 0.32611 0.73495 0.0
H564 H 0.76464 0.305 0.65631 0.0
H565 H 0.79861 0.38261 0.68633 0.0
H566 H 0.80167 0.36222 0.6975 0.0
H567 H 0.77986 0.37274 0.70058 0.0
C568 C 0.79239 0.30117 0.70466 0.0
C569 C 0.7823 0.30674 0.72121 0.0
C570 C 0.79107 0.31042 0.68914 0.0
C571 C 0.77968 0.32535 0.69004 0.0
C572 C 0.76991 0.33112 0.70683 0.0
H573 H 0.74176 0.38773 0.60601 0.0
H574 H 0.74587 0.3743 0.63476 0.0
C575 C 0.77125 0.32188 0.72234 0.0
C576 C 0.77671 0.33369 0.67293 0.0
H577 H 0.78135 0.37687 0.65644 0.0
C578 C 0.76842 0.3207 0.6563 0.0
C579 C 0.78148 0.3542 0.67302 0.0
C580 C 0.79106 0.36875 0.69025 0.0
C581 C 0.76458 0.32767 0.6398 0.0
C582 C 0.76941 0.34814 0.63986 0.0
C583 C 0.7776 0.36118 0.6565 0.0
C584 C 0.76672 0.35617 0.62251 0.0
C585 C 0.7551 0.3131 0.62252 0.0
C586 C 0.77719 0.35053 0.60623 0.0
C587 C 0.77488 0.35812 0.58987 0.0
C588 C 0.76209 0.3716 0.58947 0.0
C589 C 0.75164 0.3773 0.60584 0.0
C590 C 0.75401 0.3697 0.62227 0.0
H591 H 0.74784 0.29907 0.62632 0.0
H592 H 0.74425 0.31951 0.61544 0.0
H593 H 0.7663 0.30947 0.61206 0.0
H594 H 0.78731 0.34036 0.60624 0.0
H595 H 0.78324 0.3535 0.57755 0.0
H596 H 0.52814 0.96424 0.59009 0.0
H597 H 0.55066 0.96173 0.6153 0.0
H598 H 0.51326 0.98652 0.65798 0.0
H599 H 0.4903 0.98839 0.63287 0.0
H600 H 0.56977 0.99288 0.64059 0.0
H601 H 0.52686 0.94088 0.67987 0.0
H602 H 0.51976 0.94321 0.6562 0.0
H603 H 0.51432 0.96055 0.67688 0.0
C604 C 0.52445 0.96869 0.60485 0.0
C605 C 0.5074 0.97649 0.60948 0.0
C606 C 0.53739 0.96732 0.61923 0.0
C607 C 0.53351 0.97364 0.63852 0.0
C608 C 0.51634 0.98111 0.64321 0.0
H609 H 0.60182 0.02997 0.73554 0.0
H610 H 0.58185 0.01813 0.70635 0.0
C611 C 0.50337 0.98246 0.62883 0.0
C612 C 0.54826 0.97443 0.65366 0.0
H613 H 0.55434 0.96278 0.69729 0.0
C614 C 0.56651 0.98595 0.65279 0.0
C615 C 0.54413 0.96517 0.66946 0.0
C616 C 0.52526 0.95159 0.67058 0.0
C617 C 0.58026 0.98954 0.66788 0.0
C618 C 0.57554 0.98158 0.68432 0.0
C619 C 0.55782 0.96899 0.6847 0.0
C620 C 0.58781 0.98819 0.702 0.0
C621 C 0.5995 0.00241 0.66644 0.0
C622 C 0.59753 0.97512 0.70938 0.0
C623 C 0.60912 0.98189 0.72617 0.0
C624 C 0.61086 0.00173 0.73586 0.0
C625 C 0.60085 0.01461 0.72845 0.0
C626 C 0.58946 0.00791 0.71171 0.0
H627 H 0.60299 0.00274 0.65132 0.0
H628 H 0.59893 0.0178 0.67396 0.0
H629 H 0.61134 0.99711 0.67326 0.0
H630 H 0.59629 0.9598 0.70208 0.0
H631 H 0.61661 0.97161 0.73159 0.0
H632 H 0.84433 0.23141 0.73922 0.0
H633 H 0.87741 0.23343 0.75145 0.0
H634 H 0.87436 0.29027 0.78712 0.0
H635 H 0.84114 0.28814 0.77541 0.0
H636 H 0.91361 0.26237 0.75614 0.0
H637 H 0.87914 0.25171 0.82418 0.0
H638 H 0.86548 0.2476 0.8019 0.0
H639 H 0.87338 0.27238 0.81511 0.0
C640 C 0.85086 0.24453 0.74938 0.0
C641 C 0.84001 0.25947 0.75659 0.0
C642 C 0.86978 0.2457 0.75627 0.0
C643 C 0.87813 0.26181 0.77043 0.0
C644 C 0.86803 0.2776 0.77633 0.0
H645 H 0.98936 0.29217 0.82946 0.0
H646 H 0.96269 0.28838 0.80634 0.0
C647 C 0.8491 0.27644 0.76949 0.0
C648 C 0.89619 0.26095 0.78077 0.0
H649 H 0.91327 0.25768 0.82456 0.0
C650 C 0.9136 0.26132 0.77108 0.0
C651 C 0.89599 0.25908 0.80013 0.0
C652 C 0.87749 0.25748 0.81095 0.0
C653 C 0.931 0.26046 0.7805 0.0
C654 C 0.93089 0.25938 0.80009 0.0
C655 C 0.91335 0.25853 0.80956 0.0
C656 C 0.94877 0.25995 0.81148 0.0
C657 C 0.94926 0.2605 0.76937 0.0
C658 C 0.94996 0.24513 0.82196 0.0
C659 C 0.9651 0.24735 0.83539 0.0
C660 C 0.97931 0.2645 0.83865 0.0
C661 C 0.97869 0.27877 0.82732 0.0
C662 C 0.96349 0.27656 0.81395 0.0
H663 H 0.946 0.25528 0.75379 0.0
H664 H 0.9574 0.27585 0.77163 0.0
H665 H 0.9587 0.25099 0.77421 0.0
H666 H 0.93871 0.23221 0.8203 0.0
H667 H 0.96516 0.23605 0.84381 0.0
H668 H 0.46675 0.92788 0.55847 0.0
H669 H 0.46882 0.90209 0.53022 0.0
H670 H 0.48816 0.9469 0.49752 0.0
H671 H 0.4862 0.97286 0.52588 0.0
H672 H 0.45308 0.89468 0.49004 0.0
H673 H 0.53343 0.91396 0.49873 0.0
H674 H 0.51768 0.92188 0.51763 0.0
H675 H 0.52013 0.93363 0.49739 0.0
C676 C 0.47106 0.93222 0.54515 0.0
C677 C 0.47648 0.95231 0.54435 0.0
C678 C 0.47219 0.9175 0.52904 0.0
C679 C 0.47888 0.92264 0.51192 0.0
C680 C 0.4831 0.9427 0.51069 0.0
H681 H 0.52129 0.8412 0.41794 0.0
H682 H 0.51279 0.87116 0.43783 0.0
C683 C 0.48185 0.95747 0.52682 0.0
C684 C 0.48318 0.90694 0.49614 0.0
H685 H 0.52071 0.88619 0.47537 0.0
C686 C 0.46784 0.89291 0.48662 0.0
C687 C 0.50246 0.90475 0.49177 0.0
C688 C 0.51945 0.91924 0.50193 0.0
C689 C 0.4713 0.87649 0.47302 0.0
C690 C 0.49062 0.8738 0.46927 0.0
C691 C 0.50593 0.88824 0.47831 0.0
C692 C 0.49533 0.85563 0.45688 0.0
C693 C 0.45424 0.86216 0.46284 0.0
C694 C 0.48866 0.837 0.46124 0.0
C695 C 0.49344 0.81986 0.44991 0.0
C696 C 0.50522 0.82103 0.43411 0.0
C697 C 0.5122 0.83977 0.43 0.0
C698 C 0.50731 0.8569 0.4413 0.0
H699 H 0.44134 0.86945 0.46246 0.0
H700 H 0.45761 0.85578 0.44796 0.0
H701 H 0.45042 0.84987 0.47062 0.0
H702 H 0.47989 0.8357 0.47354 0.0
H703 H 0.48793 0.80571 0.45357 0.0
H704 H 0.21149 0.25462 0.79515 0.0
H705 H 0.18449 0.26203 0.81563 0.0
H706 H 0.18811 0.31856 0.79887 0.0
H707 H 0.21498 0.31094 0.7781 0.0
H708 H 0.1805 0.29323 0.84621 0.0
H709 H 0.13226 0.29158 0.78379 0.0
H710 H 0.15504 0.28267 0.78126 0.0
H711 H 0.15454 0.30882 0.78569 0.0
C712 C 0.2066 0.26871 0.79607 0.0
C713 C 0.21509 0.28225 0.78518 0.0
C714 C 0.19125 0.27293 0.80774 0.0
C715 C 0.18413 0.29071 0.80856 0.0
C716 C 0.19318 0.30461 0.79819 0.0
H717 H 0.07906 0.32657 0.85834 0.0
H718 H 0.11099 0.32681 0.84467 0.0
C719 C 0.20854 0.30035 0.78646 0.0
C720 C 0.16665 0.29411 0.81953 0.0
H721 H 0.11933 0.29879 0.81425 0.0
C722 C 0.16714 0.29455 0.83927 0.0
C723 C 0.14923 0.29575 0.8104 0.0
C724 C 0.14758 0.29452 0.7891 0.0
C725 C 0.15064 0.29659 0.85014 0.0
C726 C 0.13315 0.29791 0.84094 0.0
C727 C 0.13278 0.29782 0.82127 0.0
C728 C 0.11482 0.29869 0.85117 0.0
C729 C 0.15209 0.29743 0.87137 0.0
C730 C 0.10644 0.28286 0.85953 0.0
C731 C 0.08816 0.28268 0.86739 0.0
C732 C 0.07789 0.29826 0.86689 0.0
C733 C 0.08657 0.31433 0.85896 0.0
C734 C 0.10482 0.3145 0.85113 0.0
H735 H 0.1673 0.30187 0.87697 0.0
H736 H 0.14325 0.30799 0.87926 0.0
H737 H 0.14659 0.28252 0.8743 0.0
H738 H 0.11372 0.27031 0.85937 0.0
H739 H 0.08184 0.27005 0.87331 0.0
H740 H 0.58329 0.62895 0.52904 0.0
H741 H 0.57073 0.64373 0.50414 0.0
H742 H 0.55014 0.68707 0.54761 0.0
H743 H 0.56303 0.67241 0.57254 0.0
H744 H 0.53396 0.64988 0.49552 0.0
H745 H 0.5845 0.7212 0.5163 0.0
H746 H 0.58739 0.69938 0.52524 0.0
H747 H 0.56995 0.71433 0.53535 0.0
C748 C 0.57589 0.64151 0.53319 0.0
C749 C 0.57403 0.64963 0.55253 0.0
C750 C 0.56876 0.64994 0.51901 0.0
C751 C 0.55978 0.6667 0.52402 0.0
C752 C 0.55735 0.67439 0.54344 0.0
H753 H 0.49267 0.71713 0.45036 0.0
H754 H 0.50384 0.69908 0.47305 0.0
C755 C 0.56454 0.66595 0.55764 0.0
C756 C 0.55337 0.67628 0.50889 0.0
H757 H 0.56017 0.71966 0.49267 0.0
C758 C 0.5397 0.66513 0.49486 0.0
C759 C 0.56116 0.69605 0.50786 0.0
C760 C 0.5767 0.70842 0.52187 0.0
C761 C 0.53332 0.67335 0.48003 0.0
C762 C 0.54059 0.69334 0.47941 0.0
C763 C 0.55452 0.70437 0.49324 0.0
C764 C 0.53368 0.70329 0.4648 0.0
C765 C 0.51907 0.66045 0.46502 0.0
C766 C 0.54679 0.71189 0.45274 0.0
C767 C 0.54047 0.72237 0.4398 0.0
C768 C 0.52093 0.72453 0.43877 0.0
C769 C 0.5078 0.71565 0.45069 0.0
C770 C 0.51413 0.70522 0.46362 0.0
H771 H 0.51929 0.64446 0.46432 0.0
H772 H 0.50425 0.66322 0.46864 0.0
H773 H 0.52216 0.66386 0.45068 0.0
H774 H 0.56197 0.71066 0.4535 0.0
H775 H 0.55095 0.72909 0.43087 0.0
H776 H 0.8387 0.76742 0.78991 0.0
H777 H 0.86599 0.77297 0.76928 0.0
H778 H 0.85636 0.83275 0.77142 0.0
H779 H 0.82912 0.82741 0.7924 0.0
H780 H 0.86508 0.78495 0.7328 0.0
H781 H 0.91492 0.83807 0.78709 0.0
H782 H 0.89417 0.82199 0.79357 0.0
H783 H 0.89094 0.84346 0.78447 0.0
C784 C 0.8425 0.78183 0.78618 0.0
C785 C 0.83186 0.79704 0.79292 0.0
C786 C 0.85801 0.78492 0.77429 0.0
C787 C 0.86328 0.80331 0.769 0.0
C788 C 0.85264 0.81852 0.77554 0.0
H789 H 0.94447 0.82184 0.67848 0.0
H790 H 0.91666 0.82293 0.69911 0.0
C791 C 0.83701 0.8154 0.78739 0.0
C792 C 0.87982 0.80631 0.75642 0.0
H793 H 0.92633 0.8303 0.75591 0.0
C794 C 0.87843 0.79498 0.73777 0.0
C795 C 0.89723 0.81928 0.76306 0.0
C796 C 0.89959 0.83134 0.78318 0.0
C797 C 0.89409 0.79612 0.7256 0.0
C798 C 0.91153 0.80906 0.73224 0.0
C799 C 0.91287 0.82053 0.75085 0.0
C800 C 0.92887 0.80992 0.72044 0.0
C801 C 0.89211 0.78301 0.70594 0.0
C802 C 0.94515 0.80277 0.7259 0.0
C803 C 0.96106 0.8021 0.71417 0.0
C804 C 0.96104 0.80872 0.69679 0.0
C805 C 0.94495 0.81656 0.69172 0.0
C806 C 0.92901 0.81713 0.70344 0.0
H807 H 0.87901 0.77137 0.7043 0.0
H808 H 0.89102 0.79219 0.69508 0.0
H809 H 0.90503 0.77575 0.70292 0.0
H810 H 0.94532 0.79718 0.73901 0.0
H811 H 0.97321 0.79607 0.71858 0.0
H812 H 0.05894 0.93448 0.49843 0.0
H813 H 0.0608 0.91623 0.52438 0.0
H814 H 0.01661 0.94554 0.55384 0.0
H815 H 0.015 0.96392 0.5281 0.0
H816 H 0.04661 0.94077 0.57855 0.0
H817 H 0.01638 0.87079 0.52799 0.0
H818 H 0.03844 0.88437 0.52122 0.0
H819 H 0.01662 0.89483 0.52225 0.0
C820 C 0.04994 0.93722 0.51067 0.0
C821 C 0.03681 0.95044 0.51144 0.0
C822 C 0.05094 0.92678 0.52539 0.0
C823 C 0.03865 0.92936 0.5409 0.0
C824 C 0.02622 0.94335 0.54202 0.0
H825 H 0.98429 0.85292 0.61009 0.0
H826 H 0.99454 0.87618 0.58929 0.0
C827 C 0.02527 0.95379 0.52735 0.0
C828 C 0.03736 0.91636 0.5551 0.0
H829 H 0.02161 0.86873 0.5599 0.0
C830 C 0.04139 0.92497 0.5745 0.0
C831 C 0.03033 0.89579 0.54973 0.0
C832 C 0.02503 0.88584 0.52921 0.0
C833 C 0.03815 0.91358 0.58873 0.0
C834 C 0.0308 0.89311 0.58335 0.0
C835 C 0.02732 0.88444 0.56393 0.0
C836 C 0.02489 0.88064 0.59756 0.0
C837 C 0.04178 0.9236 0.60945 0.0
C838 C 0.03857 0.87569 0.60938 0.0
C839 C 0.03272 0.86234 0.6214 0.0
C840 C 0.01314 0.85369 0.62164 0.0
C841 C 0.99949 0.85923 0.61021 0.0
C842 C 0.00531 0.87253 0.59829 0.0
H843 H 0.04494 0.94 0.61136 0.0
H844 H 0.02902 0.91945 0.6179 0.0
H845 H 0.05432 0.91857 0.61532 0.0
H846 H 0.05379 0.88163 0.60884 0.0
H847 H 0.04359 0.85828 0.62997 0.0
H848 H 0.1949 0.76526 0.77368 0.0
H849 H 0.16456 0.77494 0.76439 0.0
H850 H 0.18698 0.77953 0.70895 0.0
H851 H 0.21721 0.7698 0.7182 0.0
H852 H 0.15706 0.80976 0.74851 0.0
H853 H 0.1365 0.7366 0.6994 0.0
H854 H 0.15502 0.74104 0.71809 0.0
H855 H 0.16012 0.75001 0.69644 0.0
C856 C 0.19335 0.76865 0.75964 0.0
C857 C 0.20815 0.76684 0.74657 0.0
C858 C 0.17612 0.77418 0.75437 0.0
C859 C 0.17353 0.77779 0.73595 0.0
C860 C 0.18868 0.77667 0.72317 0.0
H861 H 0.07731 0.81799 0.68567 0.0
H862 H 0.10926 0.81615 0.69868 0.0
C863 C 0.20589 0.77118 0.72845 0.0
C864 C 0.15454 0.7813 0.72957 0.0
H865 H 0.11581 0.75998 0.69929 0.0
C866 C 0.14801 0.79893 0.73774 0.0
C867 C 0.14276 0.76701 0.71566 0.0
C868 C 0.1488 0.74751 0.70695 0.0
C869 C 0.12996 0.80273 0.73217 0.0
C870 C 0.11832 0.78853 0.71807 0.0
C871 C 0.12485 0.77088 0.71002 0.0
C872 C 0.09893 0.79119 0.71184 0.0
C873 C 0.12328 0.82164 0.74163 0.0
C874 C 0.08261 0.77782 0.71499 0.0
C875 C 0.06445 0.77879 0.70756 0.0
C876 C 0.06225 0.79308 0.69671 0.0
C877 C 0.07854 0.80685 0.69401 0.0
C878 C 0.09677 0.80587 0.70149 0.0
H879 H 0.13223 0.82924 0.75466 0.0
H880 H 0.12431 0.83186 0.73145 0.0
H881 H 0.10792 0.8186 0.74557 0.0
H882 H 0.08399 0.76635 0.72289 0.0
H883 H 0.05222 0.76798 0.70996 0.0
H884 H 0.97955 0.59633 0.52673 0.0
H885 H 0.98866 0.62836 0.54859 0.0
H886 H 0.98298 0.65845 0.50218 0.0
H887 H 0.97366 0.62641 0.48021 0.0
H888 H 0.01918 0.66318 0.54643 0.0
H889 H 0.9433 0.67705 0.54355 0.0
H890 H 0.94946 0.65265 0.53603 0.0
H891 H 0.95466 0.67061 0.52113 0.0
C892 C 0.98046 0.60978 0.52115 0.0
C893 C 0.97574 0.60891 0.50183 0.0
C894 C 0.98573 0.62802 0.53362 0.0
C895 C 0.98625 0.64569 0.527 0.0
C896 C 0.98249 0.64492 0.50753 0.0
H897 H 0.9911 0.7654 0.59358 0.0
H898 H 0.98896 0.73652 0.56751 0.0
C899 C 0.97732 0.62664 0.49501 0.0
C900 C 0.98939 0.66479 0.5408 0.0
H901 H 0.96564 0.70111 0.56367 0.0
C902 C 0.00755 0.67159 0.55015 0.0
C903 C 0.97415 0.67564 0.54554 0.0
C904 C 0.95422 0.66866 0.53618 0.0
C905 C 0.01089 0.68904 0.56423 0.0
C906 C 0.99547 0.69961 0.56939 0.0
C907 C 0.97742 0.69297 0.55973 0.0
C908 C 0.99752 0.71727 0.58512 0.0
C909 C 0.03092 0.69606 0.5733 0.0
C910 C 0.0028 0.71596 0.60374 0.0
C911 C 0.00412 0.73246 0.61867 0.0
C912 C 0.99992 0.75053 0.61532 0.0
C913 C 0.99441 0.75171 0.59668 0.0
C914 C 0.99322 0.73524 0.58174 0.0
H915 H 0.0421 0.69013 0.56389 0.0
H916 H 0.03448 0.71249 0.57656 0.0
H917 H 0.03166 0.6907 0.58687 0.0
H918 H 0.00566 0.70209 0.60679 0.0
H919 H 0.00828 0.73099 0.63287 0.0
H920 H 0.81779 0.85948 0.24036 0.0
H921 H 0.83483 0.89294 0.24009 0.0
H922 H 0.79267 0.91759 0.2771 0.0
H923 H 0.77548 0.88418 0.27738 0.0
H924 H 0.82121 0.92505 0.22866 0.0
H925 H 0.84459 0.94267 0.30541 0.0
H926 H 0.8355 0.91774 0.29285 0.0
H927 H 0.81903 0.93459 0.30088 0.0
C928 C 0.81207 0.87203 0.24834 0.0
C929 C 0.79534 0.86919 0.25898 0.0
C930 C 0.82185 0.89112 0.24821 0.0
C931 C 0.81514 0.9077 0.25876 0.0
C932 C 0.79829 0.90496 0.26916 0.0
H933 H 0.86055 0.03351 0.28193 0.0
H934 H 0.83957 0.00131 0.27812 0.0
C935 C 0.78851 0.88587 0.26933 0.0
C936 C 0.82586 0.92785 0.25896 0.0
H937 H 0.85108 0.96867 0.28842 0.0
C938 C 0.82777 0.93462 0.2417 0.0
C939 C 0.83438 0.94024 0.27601 0.0
C940 C 0.83346 0.93344 0.29483 0.0
C941 C 0.83782 0.9536 0.24108 0.0
C942 C 0.8464 0.96595 0.25813 0.0
C943 C 0.84439 0.9592 0.27538 0.0
C944 C 0.85798 0.98577 0.25847 0.0
C945 C 0.83894 0.96039 0.22227 0.0
C946 C 0.87516 0.98775 0.24846 0.0
C947 C 0.8872 0.00617 0.25056 0.0
C948 C 0.88234 0.02289 0.26288 0.0
C949 C 0.86477 0.02095 0.27237 0.0
C950 C 0.85275 0.00255 0.27022 0.0
H951 H 0.8274 0.95162 0.21188 0.0
H952 H 0.8377 0.9763 0.22427 0.0
H953 H 0.85312 0.95844 0.21598 0.0
H954 H 0.87965 0.97492 0.2396 0.0
H955 H 0.90066 0.00711 0.24311 0.0
H956 H 0.79794 0.24895 0.2752 0.0
H957 H 0.82114 0.22595 0.27273 0.0
H958 H 0.796 0.20363 0.32086 0.0
H959 H 0.77236 0.22597 0.323 0.0
H960 H 0.84872 0.22165 0.29956 0.0
H961 H 0.79383 0.15354 0.27958 0.0
H962 H 0.7886 0.17786 0.27889 0.0
H963 H 0.78869 0.16959 0.3012 0.0
C964 C 0.79724 0.23901 0.28515 0.0
C965 C 0.7832 0.2392 0.29922 0.0
C966 C 0.81059 0.226 0.2838 0.0
C967 C 0.81007 0.21289 0.29642 0.0
C968 C 0.79641 0.21338 0.31076 0.0
H969 H 0.87082 0.12305 0.31927 0.0
H970 H 0.85144 0.14905 0.31952 0.0
C971 C 0.78305 0.22633 0.3121 0.0
C972 C 0.82371 0.19858 0.2946 0.0
H973 H 0.82537 0.14918 0.28839 0.0
C974 C 0.84367 0.20579 0.29694 0.0
C975 C 0.81706 0.1779 0.29104 0.0
C976 C 0.79589 0.16922 0.28734 0.0
C977 C 0.85711 0.19285 0.29655 0.0
C978 C 0.85036 0.17224 0.29358 0.0
C979 C 0.83046 0.16503 0.29079 0.0
C980 C 0.86352 0.15779 0.29405 0.0
C981 C 0.87834 0.20129 0.29995 0.0
C982 C 0.87689 0.15423 0.2797 0.0
C983 C 0.88804 0.13929 0.27948 0.0
C984 C 0.8859 0.12767 0.29358 0.0
C985 C 0.87282 0.13168 0.30817 0.0
C986 C 0.86171 0.14654 0.30836 0.0
H987 H 0.88086 0.21759 0.30528 0.0
H988 H 0.88491 0.19424 0.31043 0.0
H989 H 0.8859 0.19811 0.28633 0.0
H990 H 0.87829 0.16261 0.26838 0.0
H991 H 0.89794 0.13652 0.26802 0.0
H992 H 0.41766 0.02203 0.97397 0.0
H993 H 0.38941 0.99933 0.98103 0.0
H994 H 0.36556 0.04873 0.01246 0.0
H995 H 0.39366 0.07163 0.00524 0.0
H996 H 0.36472 0.01597 0.03144 0.0
H997 H 0.33426 0.99293 0.95698 0.0
H998 H 0.35926 0.99075 0.9597 0.0
H999 H 0.35226 0.01481 0.96467 0.0
C1000 C 0.40631 0.0281 0.9822 0.0
C1001 C 0.40784 0.04864 0.98894 0.0
C1002 C 0.39022 0.01511 0.98625 0.0
C1003 C 0.37535 0.02241 0.99707 0.0
C1004 C 0.37691 0.04285 0.00406 0.0
H1005 H 0.26073 0.95743 0.00713 0.0
H1006 H 0.2884 0.98219 0.00277 0.0
C1007 C 0.393 0.05588 0.99999 0.0
C1008 C 0.3582 0.00867 0.00114 0.0
H1009 H 0.31974 0.97495 0.97965 0.0
C1010 C 0.35482 0.00704 0.02016 0.0
C1011 C 0.34525 0.99725 0.98638 0.0
C1012 C 0.34777 0.99908 0.96579 0.0
C1013 C 0.33896 0.99392 0.02478 0.0
C1014 C 0.32635 0.98206 0.00995 0.0
C1015 C 0.32955 0.98398 0.99097 0.0
C1016 C 0.30963 0.96759 0.01373 0.0
C1017 C 0.33569 0.99301 0.04549 0.0
C1018 C 0.31245 0.95119 0.02136 0.0
C1019 C 0.29666 0.93697 0.02387 0.0
C1020 C 0.27778 0.93888 0.0187 0.0
C1021 C 0.27505 0.95548 0.01127 0.0
C1022 C 0.29084 0.96966 0.00875 0.0
H1023 H 0.34373 0.00628 0.05526 0.0
H1024 H 0.32006 0.99175 0.04855 0.0
H1025 H 0.34083 0.97974 0.04863 0.0
H1026 H 0.3269 0.94917 0.02498 0.0
H1027 H 0.29928 0.92435 0.02958 0.0
H1028 H 0.26931 0.38221 0.31665 0.0
H1029 H 0.25655 0.40919 0.3061 0.0
H1030 H 0.22115 0.36658 0.26241 0.0
H1031 H 0.23375 0.33957 0.27318 0.0
H1032 H 0.2555 0.42112 0.27042 0.0
H1033 H 0.18176 0.39548 0.29411 0.0
H1034 H 0.20278 0.38624 0.30087 0.0
H1035 H 0.19193 0.37754 0.27727 0.0
C1036 C 0.25906 0.37872 0.30459 0.0
C1037 C 0.25246 0.359 0.29563 0.0
C1038 C 0.25177 0.39408 0.2986 0.0
C1039 C 0.23768 0.38986 0.28367 0.0
C1040 C 0.23176 0.37012 0.27416 0.0
H1041 H 0.16809 0.47273 0.2508 0.0
H1042 H 0.18263 0.443 0.25044 0.0
C1043 C 0.23905 0.35476 0.28018 0.0
C1044 C 0.22857 0.40608 0.27887 0.0
H1045 H 0.18605 0.4242 0.28106 0.0
C1046 C 0.24028 0.42173 0.2726 0.0
C1047 C 0.20869 0.40681 0.28167 0.0
C1048 C 0.19552 0.39073 0.28899 0.0
C1049 C 0.23272 0.43825 0.26934 0.0
C1050 C 0.21301 0.43929 0.27279 0.0
C1051 C 0.20115 0.42334 0.27842 0.0
C1052 C 0.20478 0.45742 0.27212 0.0
C1053 C 0.24593 0.45449 0.26233 0.0
C1054 C 0.21227 0.47528 0.28456 0.0
C1055 C 0.204 0.4922 0.28484 0.0
C1056 C 0.18796 0.49161 0.27275 0.0
C1057 C 0.18046 0.47369 0.26024 0.0
C1058 C 0.18875 0.45671 0.26001 0.0
H1059 H 0.25838 0.44887 0.25482 0.0
H1060 H 0.23804 0.4612 0.2525 0.0
H1061 H 0.25179 0.46627 0.27475 0.0
H1062 H 0.22432 0.47607 0.29435 0.0
H1063 H 0.21011 0.50571 0.2947 0.0
H1064 H 0.10017 0.98345 0.4678 0.0
H1065 H 0.13484 0.99752 0.47246 0.0
H1066 H 0.12043 0.056 0.48983 0.0
H1067 H 0.08597 0.04208 0.48499 0.0
H1068 H 0.15197 0.02865 0.45138 0.0
H1069 H 0.16283 0.05184 0.53008 0.0
H1070 H 0.14358 0.03242 0.51883 0.0
H1071 H 0.14139 0.05796 0.52049 0.0
C1072 C 0.10448 0.99923 0.47307 0.0
C1073 C 0.09054 0.01175 0.47608 0.0
C1074 C 0.1242 0.00723 0.47565 0.0
C1075 C 0.1301 0.02775 0.48164 0.0
C1076 C 0.11612 0.0401 0.48547 0.0
H1077 H 0.22269 0.12308 0.49388 0.0
H1078 H 0.19324 0.09908 0.4939 0.0
C1079 C 0.0965 0.03218 0.48265 0.0
C1080 C 0.15072 0.03677 0.48196 0.0
H1081 H 0.18642 0.06726 0.51116 0.0
C1082 C 0.15974 0.03677 0.46445 0.0
C1083 C 0.16064 0.04738 0.49904 0.0
C1084 C 0.15171 0.04732 0.51823 0.0
C1085 C 0.17801 0.04822 0.46344 0.0
C1086 C 0.18764 0.05953 0.48049 0.0
C1087 C 0.17899 0.05864 0.4981 0.0
C1088 C 0.2058 0.07375 0.4803 0.0
C1089 C 0.18625 0.04906 0.44405 0.0
C1090 C 0.2227 0.06749 0.47265 0.0
C1091 C 0.23958 0.08128 0.47239 0.0
C1092 C 0.23989 0.1015 0.48005 0.0
C1093 C 0.22297 0.10764 0.48786 0.0
C1094 C 0.20612 0.09391 0.48795 0.0
H1095 H 0.17518 0.04299 0.4323 0.0
H1096 H 0.19239 0.06453 0.4431 0.0
H1097 H 0.19806 0.04013 0.44177 0.0
H1098 H 0.22289 0.05195 0.46703 0.0
H1099 H 0.25243 0.07606 0.46646 0.0
H1100 H 0.75983 0.22895 0.78132 0.0
H1101 H 0.7427 0.19731 0.78718 0.0
H1102 H 0.77346 0.16602 0.74202 0.0
H1103 H 0.79104 0.19763 0.73653 0.0
H1104 H 0.7188 0.16856 0.76497 0.0
H1105 H 0.78268 0.13845 0.78459 0.0
H1106 H 0.7841 0.1639 0.78231 0.0
H1107 H 0.78434 0.14471 0.76141 0.0
C1108 C 0.76288 0.21529 0.77265 0.0
C1109 C 0.77678 0.21567 0.75854 0.0
C1110 C 0.75316 0.19725 0.77603 0.0
C1111 C 0.75708 0.17929 0.7653 0.0
C1112 C 0.77063 0.17966 0.75087 0.0
H1113 H 0.67957 0.06718 0.75614 0.0
H1114 H 0.69886 0.09778 0.75043 0.0
C1115 C 0.78055 0.1977 0.74765 0.0
C1116 C 0.74655 0.16021 0.76888 0.0
H1117 H 0.75286 0.1158 0.77893 0.0
C1118 C 0.72625 0.15706 0.76812 0.0
C1119 C 0.75629 0.14534 0.7733 0.0
C1120 C 0.77805 0.14833 0.77566 0.0
C1121 C 0.7154 0.13938 0.7714 0.0
C1122 C 0.72513 0.12414 0.7749 0.0
C1123 C 0.74543 0.12739 0.77597 0.0
C1124 C 0.71446 0.10485 0.77778 0.0
C1125 C 0.69363 0.13743 0.77148 0.0
C1126 C 0.71756 0.09811 0.79462 0.0
C1127 C 0.70682 0.08039 0.79776 0.0
C1128 C 0.69272 0.06918 0.78415 0.0
C1129 C 0.69013 0.07563 0.76702 0.0
C1130 C 0.70105 0.09319 0.76379 0.0
H1131 H 0.68896 0.15216 0.7744 0.0
H1132 H 0.68744 0.12941 0.75722 0.0
H1133 H 0.68748 0.12903 0.78236 0.0
H1134 H 0.72796 0.10682 0.80554 0.0
H1135 H 0.70916 0.07579 0.81109 0.0
H1136 H 0.46446 0.03929 0.5399 0.0
H1137 H 0.44311 0.0553 0.52285 0.0
H1138 H 0.39659 0.03983 0.55944 0.0
H1139 H 0.41786 0.02363 0.57626 0.0
H1140 H 0.38481 0.03364 0.5211 0.0
H1141 H 0.42755 0.10889 0.54603 0.0
H1142 H 0.44109 0.09086 0.53363 0.0
H1143 H 0.43099 0.08797 0.55621 0.0
C1144 C 0.44958 0.03914 0.54404 0.0
C1145 C 0.44262 0.0303 0.55923 0.0
C1146 C 0.43748 0.04839 0.53446 0.0
C1147 C 0.41837 0.04905 0.54011 0.0
C1148 C 0.4113 0.03956 0.55491 0.0
H1149 H 0.33947 0.12644 0.51979 0.0
H1150 H 0.36277 0.10963 0.53301 0.0
C1151 C 0.42338 0.0303 0.56446 0.0
C1152 C 0.4058 0.05994 0.53097 0.0
H1153 H 0.40121 0.10612 0.52434 0.0
C1154 C 0.38841 0.04947 0.52174 0.0
C1155 C 0.41041 0.08066 0.53211 0.0
C1156 C 0.42843 0.09284 0.54267 0.0
C1157 C 0.37552 0.05914 0.51353 0.0
C1158 C 0.38033 0.07978 0.5143 0.0
C1159 C 0.39767 0.09027 0.52362 0.0
C1160 C 0.36723 0.0908 0.506 0.0
C1161 C 0.35664 0.04725 0.50453 0.0
C1162 C 0.36246 0.08618 0.48636 0.0
C1163 C 0.34915 0.09571 0.47878 0.0
C1164 C 0.34046 0.11017 0.49069 0.0
C1165 C 0.34587 0.11535 0.51024 0.0
C1166 C 0.35917 0.10576 0.51782 0.0
H1167 H 0.35308 0.03287 0.50924 0.0
H1168 H 0.34454 0.05564 0.50811 0.0
H1169 H 0.35775 0.04406 0.48876 0.0
H1170 H 0.36884 0.07499 0.47693 0.0
H1171 H 0.34541 0.09147 0.46364 0.0
H1172 H 0.61363 0.57243 0.56351 0.0
H1173 H 0.63373 0.54665 0.56044 0.0
H1174 H 0.622 0.54021 0.61831 0.0
H1175 H 0.60198 0.5663 0.62164 0.0
H1176 H 0.66708 0.54665 0.5839 0.0
H1177 H 0.60828 0.48289 0.5859 0.0
H1178 H 0.60342 0.50606 0.58101 0.0
H1179 H 0.6097 0.50431 0.6049 0.0
C1180 C 0.61544 0.56569 0.57567 0.0
C1181 C 0.60622 0.57147 0.59284 0.0
C1182 C 0.62684 0.55087 0.57385 0.0
C1183 C 0.62918 0.54141 0.58908 0.0
C1184 C 0.6201 0.54712 0.60629 0.0
H1185 H 0.69816 0.44511 0.58276 0.0
H1186 H 0.67779 0.46978 0.5958 0.0
C1187 C 0.60867 0.56201 0.60815 0.0
C1188 C 0.64149 0.52585 0.58678 0.0
H1189 H 0.63978 0.47582 0.58073 0.0
C1190 C 0.66117 0.53119 0.58343 0.0
C1191 C 0.63373 0.50573 0.58634 0.0
C1192 C 0.61261 0.49925 0.58961 0.0
C1193 C 0.67317 0.51687 0.57897 0.0
C1194 C 0.66521 0.49665 0.57754 0.0
C1195 C 0.64577 0.49135 0.58181 0.0
C1196 C 0.67643 0.48088 0.56971 0.0
C1197 C 0.69421 0.52341 0.57537 0.0
C1198 C 0.68186 0.47866 0.55064 0.0
C1199 C 0.69334 0.46467 0.54318 0.0
C1200 C 0.69961 0.45253 0.55464 0.0
C1201 C 0.69359 0.45427 0.5736 0.0
C1202 C 0.68199 0.46834 0.58107 0.0
H1203 H 0.69922 0.53923 0.58204 0.0
H1204 H 0.7035 0.51424 0.58099 0.0
H1205 H 0.69616 0.52166 0.55974 0.0
H1206 H 0.67743 0.48799 0.54157 0.0
H1207 H 0.69759 0.46365 0.52849 0.0
H1208 H 0.77346 0.2947 0.34866 0.0
H1209 H 0.76535 0.31128 0.38031 0.0
H1210 H 0.70461 0.29554 0.36427 0.0
H1211 H 0.71262 0.27844 0.33254 0.0
H1212 H 0.74402 0.34289 0.38925 0.0
H1213 H 0.70949 0.27567 0.41506 0.0
H1214 H 0.72474 0.27436 0.39465 0.0
H1215 H 0.70051 0.27907 0.39253 0.0
C1216 C 0.75835 0.29459 0.3519 0.0
C1217 C 0.74366 0.28511 0.33816 0.0
C1218 C 0.75376 0.30417 0.36995 0.0
C1219 C 0.73439 0.30441 0.37469 0.0
C1220 C 0.71964 0.29525 0.36096 0.0
H1221 H 0.71036 0.38421 0.47992 0.0
H1222 H 0.70665 0.36489 0.44721 0.0
C1223 C 0.72424 0.28568 0.34281 0.0
C1224 C 0.72993 0.31458 0.39401 0.0
H1225 H 0.71164 0.30631 0.43654 0.0
C1226 C 0.73674 0.33497 0.39955 0.0
C1227 C 0.72057 0.3041 0.40739 0.0
C1228 C 0.71348 0.28206 0.40226 0.0
C1229 C 0.7349 0.34513 0.41829 0.0
C1230 C 0.7257 0.33464 0.43176 0.0
C1231 C 0.7185 0.31431 0.42611 0.0
C1232 C 0.72508 0.34427 0.45213 0.0
C1233 C 0.74362 0.36681 0.42373 0.0
C1234 C 0.7358 0.33839 0.46596 0.0
C1235 C 0.73787 0.3493 0.48469 0.0
C1236 C 0.72924 0.36632 0.48993 0.0
C1237 C 0.71737 0.37132 0.47634 0.0
C1238 C 0.71528 0.36035 0.45761 0.0
H1239 H 0.75342 0.37165 0.41273 0.0
H1240 H 0.73186 0.37582 0.42535 0.0
H1241 H 0.7519 0.36999 0.43758 0.0
H1242 H 0.7434 0.32595 0.46202 0.0
H1243 H 0.74701 0.34494 0.49479 0.0
H1244 H 0.49833 0.04596 0.94979 0.0
H1245 H 0.52897 0.03919 0.93545 0.0
H1246 H 0.52613 0.08273 0.90069 0.0
H1247 H 0.49562 0.08958 0.91518 0.0
H1248 H 0.5312 0.02455 0.89698 0.0
H1249 H 0.58309 0.09457 0.91866 0.0
H1250 H 0.56096 0.08916 0.93096 0.0
H1251 H 0.56054 0.0981 0.90904 0.0
C1252 C 0.50463 0.05444 0.93949 0.0
C1253 C 0.49495 0.06838 0.93362 0.0
C1254 C 0.52203 0.05055 0.93129 0.0
C1255 C 0.52994 0.06063 0.91718 0.0
C1256 C 0.52054 0.07512 0.91187 0.0
H1257 H 0.59254 0.02692 0.81857 0.0
H1258 H 0.56935 0.03433 0.84324 0.0
C1259 C 0.50312 0.07898 0.92006 0.0
C1260 C 0.54659 0.05432 0.90634 0.0
H1261 H 0.59107 0.07163 0.89113 0.0
C1262 C 0.54443 0.03476 0.89596 0.0
C1263 C 0.56389 0.0676 0.90514 0.0
C1264 C 0.56738 0.08848 0.91669 0.0
C1265 C 0.55869 0.0284 0.88366 0.0
C1266 C 0.57545 0.04202 0.88158 0.0
C1267 C 0.5781 0.06128 0.89267 0.0
C1268 C 0.58959 0.03694 0.86687 0.0
C1269 C 0.55555 0.00728 0.87266 0.0
C1270 C 0.60871 0.03612 0.87203 0.0
C1271 C 0.62206 0.0318 0.85792 0.0
C1272 C 0.61652 0.02852 0.83844 0.0
C1273 C 0.59731 0.02934 0.83341 0.0
C1274 C 0.58399 0.03351 0.84749 0.0
H1275 H 0.54478 0.99751 0.87945 0.0
H1276 H 0.55004 0.00682 0.85797 0.0
H1277 H 0.56933 0.00131 0.87153 0.0
H1278 H 0.61328 0.03885 0.88696 0.0
H1279 H 0.63678 0.03138 0.86226 0.0
H1280 H 0.265 0.26864 0.33404 0.0
H1281 H 0.26755 0.24698 0.35661 0.0
H1282 H 0.32926 0.26682 0.36223 0.0
H1283 H 0.32673 0.28928 0.34045 0.0
H1284 H 0.28725 0.2163 0.35511 0.0
H1285 H 0.31391 0.27611 0.41743 0.0
H1286 H 0.30424 0.28102 0.39576 0.0
H1287 H 0.32866 0.27638 0.39695 0.0
C1288 C 0.27909 0.26862 0.34026 0.0
C1289 C 0.29563 0.28087 0.33553 0.0
C1290 C 0.28055 0.25608 0.35303 0.0
C1291 C 0.29855 0.25551 0.36134 0.0
C1292 C 0.31516 0.26731 0.3563 0.0
H1293 H 0.31562 0.16298 0.42415 0.0
H1294 H 0.31772 0.18423 0.40048 0.0
C1295 C 0.31371 0.27996 0.34363 0.0
C1296 C 0.29984 0.24254 0.37529 0.0
H1297 H 0.31308 0.24318 0.42148 0.0
C1298 C 0.29293 0.22215 0.36962 0.0
C1299 C 0.30706 0.25025 0.39428 0.0
C1300 C 0.31372 0.27216 0.40157 0.0
C1301 C 0.29293 0.20927 0.38243 0.0
C1302 C 0.30047 0.21693 0.40132 0.0
C1303 C 0.30749 0.2373 0.40695 0.0
C1304 C 0.30003 0.20434 0.41586 0.0
C1305 C 0.28424 0.18771 0.3758 0.0
C1306 C 0.28999 0.20898 0.43268 0.0
C1307 C 0.28899 0.19706 0.44632 0.0
C1308 C 0.29799 0.18018 0.44344 0.0
C1309 C 0.3084 0.17577 0.42675 0.0
C1310 C 0.3095 0.18782 0.41314 0.0
H1311 H 0.27488 0.18527 0.36268 0.0
H1312 H 0.29604 0.17889 0.37246 0.0
H1313 H 0.27551 0.18202 0.3871 0.0
H1314 H 0.28263 0.22168 0.43512 0.0
H1315 H 0.28086 0.20094 0.45898 0.0
H1316 H 0.52567 0.46121 0.90813 0.0
H1317 H 0.50698 0.47185 0.88423 0.0
H1318 H 0.52877 0.53297 0.90942 0.0
H1319 H 0.54748 0.52246 0.93334 0.0
H1320 H 0.47835 0.49488 0.89059 0.0
H1321 H 0.53887 0.53081 0.85281 0.0
H1322 H 0.54232 0.51453 0.86881 0.0
H1323 H 0.53988 0.53982 0.8782 0.0
C1324 C 0.52649 0.47691 0.90856 0.0
C1325 C 0.53811 0.491 0.92257 0.0
C1326 C 0.51587 0.48296 0.89487 0.0
C1327 C 0.51672 0.50318 0.89489 0.0
C1328 C 0.52828 0.51728 0.90886 0.0
H1329 H 0.43097 0.55189 0.83879 0.0
H1330 H 0.45297 0.54455 0.86203 0.0
C1331 C 0.53894 0.51125 0.92253 0.0
C1332 C 0.50481 0.50951 0.88083 0.0
H1333 H 0.50725 0.53567 0.845 0.0
C1334 C 0.48466 0.50376 0.88059 0.0
C1335 C 0.51312 0.52095 0.8677 0.0
C1336 C 0.53475 0.52675 0.86671 0.0
C1337 C 0.47254 0.50928 0.86767 0.0
C1338 C 0.4808 0.52119 0.8549 0.0
C1339 C 0.50097 0.52676 0.85499 0.0
C1340 C 0.4687 0.52729 0.84085 0.0
C1341 C 0.45104 0.50195 0.86754 0.0
C1342 C 0.47085 0.52076 0.82122 0.0
C1343 C 0.45841 0.52505 0.80789 0.0
C1344 C 0.44361 0.536 0.81396 0.0
C1345 C 0.4421 0.54329 0.83362 0.0
C1346 C 0.45458 0.53903 0.84694 0.0
H1347 H 0.44761 0.48921 0.87484 0.0
H1348 H 0.4438 0.51407 0.87515 0.0
H1349 H 0.44486 0.49736 0.85269 0.0
H1350 H 0.48175 0.51179 0.81624 0.0
H1351 H 0.46006 0.51927 0.79286 0.0
H1352 H 0.80076 0.80842 0.21701 0.0
H1353 H 0.79815 0.78529 0.1863 0.0
H1354 H 0.73854 0.76381 0.1962 0.0
H1355 H 0.74094 0.78723 0.22706 0.0
H1356 H 0.7626 0.73346 0.18076 0.0
H1357 H 0.76611 0.79387 0.14 0.0
H1358 H 0.78496 0.79758 0.15808 0.0
H1359 H 0.76027 0.79711 0.16492 0.0
C1360 C 0.78704 0.79885 0.21265 0.0
C1361 C 0.77095 0.79989 0.22432 0.0
C1362 C 0.78562 0.7856 0.19513 0.0
C1363 C 0.76808 0.77311 0.18889 0.0
C1364 C 0.75217 0.77344 0.20079 0.0
H1365 H 0.74197 0.71349 0.07089 0.0
H1366 H 0.74088 0.73232 0.10341 0.0
C1367 C 0.75358 0.78676 0.2184 0.0
C1368 C 0.76639 0.76026 0.16963 0.0
H1369 H 0.76923 0.76206 0.12231 0.0
C1370 C 0.76391 0.73964 0.16794 0.0
C1371 C 0.76791 0.76843 0.15299 0.0
C1372 C 0.76979 0.79045 0.15398 0.0
C1373 C 0.76343 0.72696 0.14995 0.0
C1374 C 0.76571 0.7352 0.13335 0.0
C1375 C 0.76767 0.75579 0.13507 0.0
C1376 C 0.76596 0.72281 0.11397 0.0
C1377 C 0.76035 0.70487 0.14885 0.0
C1378 C 0.78051 0.71128 0.10909 0.0
C1379 C 0.78121 0.70048 0.09045 0.0
C1380 C 0.76741 0.70113 0.07637 0.0
C1381 C 0.75283 0.71266 0.08137 0.0
C1382 C 0.75216 0.72342 0.09996 0.0
H1383 H 0.754 0.7008 0.16206 0.0
H1384 H 0.75069 0.69695 0.13641 0.0
H1385 H 0.77449 0.69968 0.14705 0.0
H1386 H 0.79154 0.71094 0.1196 0.0
H1387 H 0.79264 0.69178 0.08704 0.0
H1388 H 0.07565 0.10919 0.12657 0.0
H1389 H 0.05103 0.11218 0.15053 0.0
H1390 H 0.00969 0.11694 0.10756 0.0
H1391 H 0.03427 0.11319 0.08323 0.0
H1392 H 0.02685 0.13867 0.16455 0.0
H1393 H 0.98516 0.06694 0.12545 0.0
H1394 H 0.00939 0.07617 0.11932 0.0
H1395 H 0.98939 0.08675 0.11252 0.0
C1396 C 0.06137 0.11106 0.12224 0.0
C1397 C 0.05675 0.1105 0.10295 0.0
C1398 C 0.04734 0.11293 0.13598 0.0
C1399 C 0.0284 0.11435 0.13077 0.0
C1400 C 0.02412 0.11545 0.11181 0.0
H1401 H 0.94644 0.11279 0.22564 0.0
H1402 H 0.96302 0.124 0.19845 0.0
C1403 C 0.03821 0.11349 0.09797 0.0
C1404 C 0.01305 0.11255 0.14492 0.0
H1405 H 0.97497 0.07977 0.15574 0.0
C1406 C 0.01524 0.12602 0.16253 0.0
C1407 C 0.99803 0.09591 0.14228 0.0
C1408 C 0.99533 0.0805 0.12396 0.0
C1409 C 0.00348 0.12274 0.17789 0.0
C1410 C 0.98899 0.10568 0.17544 0.0
C1411 C 0.98608 0.09285 0.15752 0.0
C1412 C 0.97856 0.09931 0.19181 0.0
C1413 C 0.00745 0.1368 0.19696 0.0
C1414 C 0.98158 0.08162 0.19688 0.0
C1415 C 0.97212 0.07516 0.21221 0.0
C1416 C 0.95937 0.08625 0.22286 0.0
C1417 C 0.95624 0.10397 0.21775 0.0
C1418 C 0.96575 0.11043 0.20229 0.0
H1419 H 0.02094 0.14771 0.19716 0.0
H1420 H 0.99522 0.14506 0.20016 0.0
H1421 H 0.00867 0.12847 0.20851 0.0
H1422 H 0.99142 0.07282 0.189 0.0
H1423 H 0.97489 0.06145 0.21572 0.0
H1424 H 0.28833 0.7821 0.18366 0.0
H1425 H 0.27411 0.79412 0.15761 0.0
H1426 H 0.26897 0.84861 0.19653 0.0
H1427 H 0.28337 0.83664 0.22252 0.0
H1428 H 0.23836 0.8095 0.15311 0.0
H1429 H 0.30533 0.86515 0.15446 0.0
H1430 H 0.30415 0.8445 0.16636 0.0
H1431 H 0.29334 0.86556 0.17672 0.0
C1432 C 0.28379 0.79647 0.18664 0.0
C1433 C 0.28685 0.80854 0.20489 0.0
C1434 C 0.27568 0.8033 0.17183 0.0
C1435 C 0.27069 0.82232 0.17514 0.0
C1436 C 0.2729 0.83397 0.19368 0.0
H1437 H 0.22116 0.8746 0.08735 0.0
H1438 H 0.22559 0.86292 0.1171 0.0
C1439 C 0.28102 0.82713 0.20847 0.0
C1440 C 0.26483 0.83054 0.15886 0.0
H1441 H 0.28092 0.86459 0.13167 0.0
C1442 C 0.24753 0.82167 0.14849 0.0
C1443 C 0.27697 0.84629 0.15282 0.0
C1444 C 0.29607 0.85589 0.16303 0.0
C1445 C 0.24216 0.82804 0.13205 0.0
C1446 C 0.25441 0.84365 0.12596 0.0
C1447 C 0.27153 0.8527 0.13651 0.0
C1448 C 0.25071 0.84977 0.10779 0.0
C1449 C 0.22383 0.81761 0.1209 0.0
C1450 C 0.26337 0.84626 0.09282 0.0
C1451 C 0.26091 0.85287 0.07594 0.0
C1452 C 0.24579 0.86329 0.0737 0.0
C1453 C 0.23292 0.86659 0.08864 0.0
C1454 C 0.23538 0.85988 0.10559 0.0
H1455 H 0.21723 0.80416 0.12615 0.0
H1456 H 0.21317 0.82787 0.12215 0.0
H1457 H 0.22682 0.81329 0.10551 0.0
H1458 H 0.2753 0.83852 0.09429 0.0
H1459 H 0.27108 0.85005 0.06474 0.0
H1460 H 0.95972 0.49858 0.11751 0.0
H1461 H 0.98724 0.51034 0.14053 0.0
H1462 H 0.99326 0.44993 0.14071 0.0
H1463 H 0.96579 0.43808 0.11793 0.0
H1464 H 0.99368 0.50133 0.17783 0.0
H1465 H 0.04685 0.4758 0.12498 0.0
H1466 H 0.02279 0.47847 0.11805 0.0
H1467 H 0.02646 0.45734 0.12756 0.0
C1468 C 0.96675 0.48783 0.12268 0.0
C1469 C 0.96078 0.46742 0.11574 0.0
C1470 C 0.98249 0.49455 0.13573 0.0
C1471 C 0.99247 0.48097 0.14196 0.0
C1472 C 0.986 0.46062 0.13571 0.0
H1473 H 0.09626 0.49339 0.21389 0.0
H1474 H 0.06741 0.48041 0.19279 0.0
C1475 C 0.97032 0.4539 0.12272 0.0
C1476 C 0.00989 0.48801 0.15473 0.0
H1477 H 0.05858 0.48814 0.1569 0.0
C1478 C 0.00789 0.49852 0.17328 0.0
C1479 C 0.02835 0.48418 0.14871 0.0
C1480 C 0.03137 0.47347 0.12869 0.0
C1481 C 0.02389 0.50516 0.1861 0.0
C1482 C 0.0424 0.5015 0.18003 0.0
C1483 C 0.04436 0.49086 0.16151 0.0
C1484 C 0.06001 0.50923 0.19246 0.0
C1485 C 0.02079 0.51574 0.20614 0.0
C1486 C 0.06562 0.5297 0.19882 0.0
C1487 C 0.08199 0.53712 0.21081 0.0
C1488 C 0.09321 0.5242 0.21656 0.0
C1489 C 0.08789 0.5037 0.20973 0.0
C1490 C 0.07142 0.49627 0.19773 0.0
H1491 H 0.00547 0.51239 0.21013 0.0
H1492 H 0.03016 0.5116 0.21672 0.0
H1493 H 0.02451 0.53197 0.20702 0.0
H1494 H 0.05729 0.53997 0.19453 0.0
H1495 H 0.08576 0.55301 0.21567 0.0
H1496 H 0.3323 0.7358 0.27363 0.0
H1497 H 0.3606 0.73223 0.29189 0.0
H1498 H 0.39743 0.76911 0.26009 0.0
H1499 H 0.3691 0.77291 0.24188 0.0
H1500 H 0.39412 0.71752 0.28091 0.0
H1501 H 0.41045 0.79728 0.31521 0.0
H1502 H 0.38798 0.78626 0.30217 0.0
H1503 H 0.40951 0.79273 0.28957 0.0
C1504 C 0.34645 0.74301 0.27042 0.0
C1505 C 0.3485 0.75473 0.2564 0.0
C1506 C 0.36259 0.74098 0.28087 0.0
C1507 C 0.38106 0.75063 0.27753 0.0
C1508 C 0.38324 0.76189 0.26317 0.0
H1509 H 0.49318 0.76492 0.33362 0.0
H1510 H 0.46712 0.76115 0.30983 0.0
C1511 C 0.36708 0.76405 0.25279 0.0
C1512 C 0.39793 0.74932 0.28943 0.0
H1513 H 0.43316 0.77736 0.32091 0.0
C1514 C 0.40268 0.73059 0.28966 0.0
C1515 C 0.40895 0.76638 0.30094 0.0
C1516 C 0.40389 0.78678 0.30216 0.0
C1517 C 0.41837 0.72852 0.30094 0.0
C1518 C 0.42944 0.74561 0.31229 0.0
C1519 C 0.4247 0.7643 0.31203 0.0
C1520 C 0.44578 0.74465 0.325 0.0
C1521 C 0.42317 0.70817 0.30049 0.0
C1522 C 0.4425 0.73614 0.34118 0.0
C1523 C 0.45738 0.73828 0.3549 0.0
C1524 C 0.47573 0.74911 0.35267 0.0
C1525 C 0.4792 0.7566 0.33587 0.0
C1526 C 0.46434 0.75446 0.32222 0.0
H1527 H 0.41607 0.69718 0.28799 0.0
H1528 H 0.43905 0.70851 0.30005 0.0
H1529 H 0.41807 0.70311 0.31367 0.0
H1530 H 0.42817 0.72877 0.34371 0.0
H1531 H 0.45422 0.73237 0.36768 0.0
H1532 H 0.94956 0.40413 0.07103 0.0
H1533 H 0.95991 0.38159 0.04369 0.0
H1534 H 0.93791 0.41398 0.00529 0.0
H1535 H 0.92746 0.43661 0.03263 0.0
H1536 H 0.92988 0.37246 0.99271 0.0
H1537 H 0.00741 0.39918 0.01372 0.0
H1538 H 0.99322 0.39051 0.03222 0.0
H1539 H 0.98841 0.41204 0.024 0.0
C1540 C 0.94684 0.40638 0.05675 0.0
C1541 C 0.9379 0.42224 0.05394 0.0
C1542 C 0.95279 0.39354 0.04117 0.0
C1543 C 0.95006 0.39643 0.02254 0.0
C1544 C 0.94026 0.41162 0.0196 0.0
H1545 H 0.01259 0.34558 0.92484 0.0
H1546 H 0.99903 0.36827 0.94987 0.0
C1547 C 0.93422 0.42445 0.0352 0.0
C1548 C 0.95803 0.38399 0.00622 0.0
H1549 H 0.00027 0.37066 0.9888 0.0
C1550 C 0.94527 0.37211 0.99178 0.0
C1551 C 0.97815 0.38388 0.0049 0.0
C1552 C 0.99264 0.39722 0.01943 0.0
C1553 C 0.95207 0.35963 0.97628 0.0
C1554 C 0.9721 0.35884 0.97543 0.0
C1555 C 0.9849 0.37116 0.9896 0.0
C1556 C 0.98009 0.34512 0.96014 0.0
C1557 C 0.93778 0.34754 0.96087 0.0
C1558 C 0.97419 0.3246 0.95788 0.0
C1559 C 0.98187 0.31161 0.94363 0.0
C1560 C 0.99576 0.3189 0.93144 0.0
C1561 C 0.00191 0.33948 0.93397 0.0
C1562 C 0.99416 0.35247 0.94823 0.0
H1563 H 0.92429 0.35393 0.96073 0.0
H1564 H 0.94411 0.34653 0.94654 0.0
H1565 H 0.93382 0.33231 0.96359 0.0
H1566 H 0.96371 0.3186 0.96725 0.0
H1567 H 0.9769 0.29585 0.94218 0.0
H1568 H 0.70987 0.82115 0.28876 0.0
H1569 H 0.67821 0.81072 0.30152 0.0
H1570 H 0.70262 0.76973 0.32852 0.0
H1571 H 0.73441 0.78045 0.31597 0.0
H1572 H 0.65398 0.77377 0.29849 0.0
H1573 H 0.68116 0.80537 0.37333 0.0
H1574 H 0.69469 0.81065 0.35295 0.0
H1575 H 0.69405 0.78725 0.36 0.0
C1576 C 0.70831 0.80967 0.29714 0.0
C1577 C 0.72434 0.80149 0.30143 0.0
C1578 C 0.6903 0.80375 0.30444 0.0
C1579 C 0.68815 0.78969 0.31622 0.0
C1580 C 0.70405 0.78085 0.31974 0.0
H1581 H 0.58584 0.75877 0.38271 0.0
H1582 H 0.61739 0.75824 0.36785 0.0
C1583 C 0.7221 0.78681 0.31246 0.0
C1584 C 0.6695 0.78516 0.32549 0.0
H1585 H 0.6483 0.79101 0.36884 0.0
C1586 C 0.65275 0.77737 0.31388 0.0
C1587 C 0.66795 0.78984 0.34559 0.0
C1588 C 0.68536 0.79889 0.35875 0.0
C1589 C 0.63445 0.7745 0.3218 0.0
C1590 C 0.63284 0.77985 0.34182 0.0
C1591 C 0.64962 0.78692 0.3535 0.0
C1592 C 0.61377 0.77981 0.35074 0.0
C1593 C 0.61694 0.76599 0.30865 0.0
C1594 C 0.60155 0.79241 0.34632 0.0
C1595 C 0.58369 0.79284 0.35482 0.0
C1596 C 0.57767 0.78071 0.36798 0.0
C1597 C 0.59005 0.76826 0.3726 0.0
C1598 C 0.60803 0.76791 0.36412 0.0
H1599 H 0.62095 0.75746 0.29481 0.0
H1600 H 0.60615 0.75615 0.31535 0.0
H1601 H 0.61 0.77827 0.3056 0.0
H1602 H 0.60589 0.80203 0.33636 0.0
H1603 H 0.57456 0.80265 0.35096 0.0
H1604 H 0.10223 0.16444 0.02762 0.0
H1605 H 0.09027 0.18368 0.00619 0.0
H1606 H 0.03408 0.14682 0.00287 0.0
H1607 H 0.04609 0.12761 0.0244 0.0
H1608 H 0.07531 0.16614 0.96838 0.0
H1609 H 0.02196 0.20408 0.01237 0.0
H1610 H 0.04072 0.1941 0.02272 0.0
H1611 H 0.01955 0.17786 0.01137 0.0
C1612 C 0.0872 0.16084 0.02267 0.0
C1613 C 0.07493 0.14485 0.02772 0.0
C1614 C 0.08042 0.17171 0.01039 0.0
C1615 C 0.06126 0.16676 0.00307 0.0
C1616 C 0.04882 0.15109 0.00862 0.0
H1617 H 0.99611 0.21051 0.92194 0.0
H1618 H 0.00727 0.19161 0.94392 0.0
C1619 C 0.05564 0.14016 0.02088 0.0
C1620 C 0.05482 0.17699 0.98849 0.0
H1621 H 0.02293 0.20648 0.97978 0.0
C1622 C 0.06391 0.17504 0.97087 0.0
C1623 C 0.03987 0.18844 0.99176 0.0
C1624 C 0.03001 0.19144 0.01062 0.0
C1625 C 0.05826 0.18402 0.9563 0.0
C1626 C 0.04341 0.19564 0.95961 0.0
C1627 C 0.0343 0.19755 0.97724 0.0
C1628 C 0.03713 0.20607 0.94507 0.0
C1629 C 0.06795 0.18059 0.93736 0.0
C1630 C 0.05026 0.22035 0.93822 0.0
C1631 C 0.04395 0.23107 0.92549 0.0
C1632 C 0.02434 0.22789 0.91959 0.0
C1633 C 0.01132 0.21331 0.92618 0.0
C1634 C 0.01765 0.20253 0.9388 0.0
H1635 H 0.07471 0.16705 0.93526 0.0
H1636 H 0.05747 0.17917 0.92528 0.0
H1637 H 0.07955 0.19338 0.93695 0.0
H1638 H 0.06528 0.22364 0.94316 0.0
H1639 H 0.05431 0.24233 0.92084 0.0
H1640 H 0.32592 0.34615 0.28911 0.0
H1641 H 0.3532 0.3508 0.26803 0.0
H1642 H 0.35023 0.28747 0.25247 0.0
H1643 H 0.32282 0.28272 0.27307 0.0
H1644 H 0.38867 0.33863 0.27164 0.0
H1645 H 0.3538 0.30407 0.20073 0.0
H1646 H 0.3401 0.31142 0.22155 0.0
H1647 H 0.34909 0.28831 0.21781 0.0
C1648 C 0.33085 0.33323 0.28087 0.0
C1649 C 0.32228 0.31407 0.28277 0.0
C1650 C 0.34647 0.33591 0.26894 0.0
C1651 C 0.35359 0.31948 0.25853 0.0
C1652 C 0.34476 0.30035 0.26009 0.0
H1653 H 0.46488 0.30144 0.2183 0.0
H1654 H 0.43589 0.30606 0.23636 0.0
C1655 C 0.32923 0.29767 0.27202 0.0
C1656 C 0.37111 0.32215 0.2471 0.0
H1657 H 0.38846 0.3075 0.20289 0.0
C1658 C 0.38859 0.33209 0.25654 0.0
C1659 C 0.37094 0.31384 0.22736 0.0
C1660 C 0.35243 0.30399 0.21621 0.0
C1661 C 0.40609 0.33308 0.24696 0.0
C1662 C 0.4061 0.32361 0.22752 0.0
C1663 C 0.38847 0.31455 0.21785 0.0
C1664 C 0.42428 0.32206 0.21719 0.0
C1665 C 0.42442 0.34409 0.25778 0.0
C1666 C 0.42729 0.32929 0.20026 0.0
C1667 C 0.44381 0.32657 0.18981 0.0
C1668 C 0.45759 0.3164 0.19601 0.0
C1669 C 0.45464 0.30941 0.21313 0.0
C1670 C 0.43812 0.31215 0.22356 0.0
H1671 H 0.42129 0.35534 0.2702 0.0
H1672 H 0.43191 0.33341 0.26331 0.0
H1673 H 0.4344 0.35158 0.2484 0.0
H1674 H 0.41672 0.33687 0.19503 0.0
H1675 H 0.44559 0.33211 0.17668 0.0
H1676 H 0.57319 0.42308 0.99408 0.0
H1677 H 0.57513 0.40781 0.02214 0.0
H1678 H 0.52868 0.43663 0.04724 0.0
H1679 H 0.52703 0.45211 0.01944 0.0
H1680 H 0.55759 0.43475 0.07431 0.0
H1681 H 0.53172 0.36181 0.02625 0.0
H1682 H 0.55395 0.37563 0.02011 0.0
H1683 H 0.5317 0.38496 0.0187 0.0
C1684 C 0.56378 0.42646 0.00586 0.0
C1685 C 0.54995 0.43863 0.0048 0.0
C1686 C 0.56481 0.4177 0.02178 0.0
C1687 C 0.55185 0.42088 0.03662 0.0
C1688 C 0.53882 0.43402 0.03596 0.0
H1689 H 0.49074 0.35216 0.1073 0.0
H1690 H 0.50414 0.37343 0.08567 0.0
C1691 C 0.53786 0.4428 0.02012 0.0
C1692 C 0.55018 0.40901 0.05179 0.0
H1693 H 0.53416 0.36225 0.05899 0.0
C1694 C 0.5528 0.41884 0.07101 0.0
C1695 C 0.54373 0.38828 0.04738 0.0
C1696 C 0.53995 0.37699 0.02703 0.0
C1697 C 0.54849 0.40855 0.08594 0.0
C1698 C 0.54148 0.38798 0.08146 0.0
C1699 C 0.53963 0.37804 0.0623 0.0
C1700 C 0.53372 0.37679 0.09612 0.0
C1701 C 0.55045 0.41981 0.10635 0.0
C1702 C 0.54594 0.37191 0.1094 0.0
C1703 C 0.53828 0.35967 0.1219 0.0
C1704 C 0.51834 0.35212 0.12115 0.0
C1705 C 0.50617 0.35763 0.10822 0.0
C1706 C 0.51379 0.3698 0.09582 0.0
H1707 H 0.5547 0.43603 0.10736 0.0
H1708 H 0.53656 0.41698 0.11358 0.0
H1709 H 0.56159 0.41454 0.11419 0.0
H1710 H 0.5614 0.37705 0.1097 0.0
H1711 H 0.54802 0.35563 0.13167 0.0
H1712 H 0.68398 0.26166 0.27266 0.0
H1713 H 0.65403 0.27153 0.26283 0.0
H1714 H 0.6877 0.31887 0.24036 0.0
H1715 H 0.71765 0.3088 0.25 0.0
H1716 H 0.63949 0.30823 0.27094 0.0
H1717 H 0.65454 0.28513 0.194 0.0
H1718 H 0.66756 0.27821 0.21275 0.0
H1719 H 0.67315 0.30286 0.20818 0.0
C1720 C 0.68489 0.27434 0.26588 0.0
C1721 C 0.70289 0.28453 0.262 0.0
C1722 C 0.66785 0.27996 0.26028 0.0
C1723 C 0.66868 0.29575 0.25064 0.0
C1724 C 0.68677 0.30647 0.24753 0.0
H1725 H 0.57274 0.32547 0.18892 0.0
H1726 H 0.60452 0.32794 0.2045 0.0
C1727 C 0.70381 0.30082 0.25311 0.0
C1728 C 0.65061 0.30016 0.24292 0.0
H1729 H 0.62569 0.29757 0.20113 0.0
C1730 C 0.6365 0.30607 0.25569 0.0
C1731 C 0.64681 0.29736 0.22301 0.0
C1732 C 0.66121 0.2904 0.20863 0.0
C1733 C 0.61854 0.30898 0.24904 0.0
C1734 C 0.6145 0.30553 0.22912 0.0
C1735 C 0.62885 0.30026 0.21639 0.0
C1736 C 0.59498 0.30559 0.22111 0.0
C1737 C 0.60403 0.31564 0.26342 0.0
C1738 C 0.57912 0.29221 0.22527 0.0
C1739 C 0.56103 0.29076 0.21642 0.0
C1740 C 0.55844 0.30256 0.20309 0.0
C1741 C 0.57426 0.31622 0.19917 0.0
C1742 C 0.59241 0.31765 0.20805 0.0
H1743 H 0.61128 0.32371 0.27724 0.0
H1744 H 0.59522 0.32538 0.25803 0.0
H1745 H 0.59415 0.30245 0.26619 0.0
H1746 H 0.58085 0.28241 0.23493 0.0
H1747 H 0.54918 0.28003 0.21973 0.0
H1748 H 0.4881 0.10703 0.00461 0.0
H1749 H 0.5006 0.13619 0.02943 0.0
H1750 H 0.44224 0.14558 0.04158 0.0
H1751 H 0.42971 0.1167 0.01696 0.0
H1752 H 0.49578 0.17569 0.03314 0.0
H1753 H 0.46475 0.14467 0.09414 0.0
H1754 H 0.4666 0.12948 0.07084 0.0
H1755 H 0.44692 0.14317 0.07561 0.0
C1756 C 0.47798 0.11538 0.01256 0.0
C1757 C 0.45792 0.10941 0.00903 0.0
C1758 C 0.48512 0.13195 0.02675 0.0
C1759 C 0.47231 0.14274 0.03763 0.0
C1760 C 0.45235 0.13712 0.03374 0.0
H1761 H 0.48313 0.26143 0.1004 0.0
H1762 H 0.47916 0.23058 0.07668 0.0
C1763 C 0.44522 0.12061 0.01965 0.0
C1764 C 0.47959 0.16019 0.05282 0.0
H1765 H 0.47424 0.18001 0.09976 0.0
C1766 C 0.49132 0.17657 0.04778 0.0
C1767 C 0.47405 0.16117 0.07197 0.0
C1768 C 0.46256 0.1436 0.07853 0.0
C1769 C 0.49679 0.19429 0.0612 0.0
C1770 C 0.49004 0.19573 0.08001 0.0
C1771 C 0.47919 0.179 0.08528 0.0
C1772 C 0.49324 0.21466 0.09422 0.0
C1773 C 0.50966 0.21132 0.05505 0.0
C1774 C 0.50197 0.21581 0.1122 0.0
C1775 C 0.50403 0.23339 0.12594 0.0
C1776 C 0.49733 0.25013 0.12196 0.0
C1777 C 0.48857 0.24888 0.10393 0.0
C1778 C 0.48644 0.23129 0.09025 0.0
H1779 H 0.51851 0.20601 0.04283 0.0
H1780 H 0.50052 0.22117 0.05035 0.0
H1781 H 0.51951 0.22017 0.06698 0.0
H1782 H 0.50716 0.20309 0.11562 0.0
H1783 H 0.51086 0.23384 0.13967 0.0
H1784 H 0.28197 0.33428 0.77242 0.0
H1785 H 0.29539 0.3697 0.77945 0.0
H1786 H 0.2812 0.37349 0.72164 0.0
H1787 H 0.26729 0.33829 0.71469 0.0
H1788 H 0.32645 0.3857 0.76106 0.0
H1789 H 0.264 0.42294 0.75245 0.0
H1790 H 0.26116 0.39758 0.7555 0.0
H1791 H 0.26641 0.40349 0.73246 0.0
C1792 C 0.28122 0.34279 0.76138 0.0
C1793 C 0.27366 0.33348 0.74298 0.0
C1794 C 0.28897 0.36299 0.76538 0.0
C1795 C 0.28914 0.37427 0.75112 0.0
C1796 C 0.28092 0.36518 0.73297 0.0
H1797 H 0.37195 0.47552 0.73755 0.0
H1798 H 0.35041 0.44366 0.7342 0.0
C1799 C 0.27318 0.345 0.72895 0.0
C1800 C 0.29977 0.39489 0.75451 0.0
H1801 H 0.29555 0.44232 0.75179 0.0
C1802 C 0.31964 0.39811 0.75924 0.0
C1803 C 0.29084 0.41109 0.75224 0.0
C1804 C 0.26939 0.40868 0.74807 0.0
C1805 C 0.33095 0.41695 0.76117 0.0
C1806 C 0.32221 0.43294 0.758 0.0
C1807 C 0.30223 0.42993 0.75392 0.0
C1808 C 0.33378 0.45285 0.75885 0.0
C1809 C 0.35218 0.41959 0.76658 0.0
C1810 C 0.33101 0.46877 0.77336 0.0
C1811 C 0.34327 0.48706 0.77531 0.0
C1812 C 0.35845 0.48972 0.7627 0.0
C1813 C 0.36051 0.47397 0.74759 0.0
C1814 C 0.34827 0.45572 0.74568 0.0
H1815 H 0.35557 0.40721 0.77296 0.0
H1816 H 0.36076 0.42 0.75359 0.0
H1817 H 0.35685 0.43374 0.77692 0.0
H1818 H 0.31982 0.46685 0.78359 0.0
H1819 H 0.34121 0.49888 0.78705 0.0
H1820 H 0.26728 0.70561 0.81333 0.0
H1821 H 0.28863 0.68133 0.81345 0.0
H1822 H 0.3193 0.70082 0.76648 0.0
H1823 H 0.29851 0.72579 0.76679 0.0
H1824 H 0.29279 0.65067 0.78426 0.0
H1825 H 0.36345 0.70025 0.80333 0.0
H1826 H 0.34064 0.70913 0.80624 0.0
H1827 H 0.35085 0.70454 0.78303 0.0
C1828 C 0.27882 0.70505 0.80328 0.0
C1829 C 0.28123 0.71774 0.79011 0.0
C1830 C 0.29092 0.69105 0.80328 0.0
C1831 C 0.30572 0.68944 0.79015 0.0
C1832 C 0.30823 0.70207 0.77699 0.0
H1833 H 0.38233 0.60149 0.76422 0.0
H1834 H 0.36527 0.62942 0.76388 0.0
C1835 C 0.29616 0.71616 0.77703 0.0
C1836 C 0.31775 0.67378 0.78964 0.0
H1837 H 0.36417 0.66578 0.7944 0.0
C1838 C 0.30839 0.65399 0.78652 0.0
C1839 C 0.33812 0.67815 0.7925 0.0
C1840 C 0.34889 0.69917 0.79664 0.0
C1841 C 0.31881 0.63845 0.78619 0.0
C1842 C 0.33912 0.64282 0.78924 0.0
C1843 C 0.34858 0.66254 0.79206 0.0
C1844 C 0.35058 0.62702 0.79012 0.0
C1845 C 0.30805 0.61742 0.7825 0.0
C1846 C 0.34827 0.61682 0.80522 0.0
C1847 C 0.35797 0.60096 0.8055 0.0
C1848 C 0.37018 0.59499 0.79064 0.0
C1849 C 0.37297 0.60568 0.77583 0.0
C1850 C 0.36328 0.62164 0.77562 0.0
H1851 H 0.29323 0.61624 0.77636 0.0
H1852 H 0.31603 0.60745 0.77258 0.0
H1853 H 0.30678 0.61213 0.79618 0.0
H1854 H 0.33868 0.62094 0.81665 0.0
H1855 H 0.35557 0.59312 0.81716 0.0
H1856 H 0.9412 0.54899 0.51923 0.0
H1857 H 0.91484 0.52722 0.53087 0.0
H1858 H 0.88331 0.51853 0.47711 0.0
H1859 H 0.90944 0.54042 0.46544 0.0
H1860 H 0.87528 0.53112 0.53427 0.0
H1861 H 0.88506 0.46177 0.48471 0.0
H1862 H 0.90335 0.48377 0.48891 0.0
H1863 H 0.8829 0.48189 0.47303 0.0
C1864 C 0.9286 0.54253 0.50993 0.0
C1865 C 0.92745 0.54633 0.49137 0.0
C1866 C 0.91362 0.53005 0.51657 0.0
C1867 C 0.89732 0.52106 0.50473 0.0
C1868 C 0.89599 0.525 0.48631 0.0
H1869 H 0.78302 0.46862 0.52823 0.0
H1870 H 0.81237 0.49044 0.52237 0.0
C1871 C 0.91093 0.53749 0.47966 0.0
C1872 C 0.88148 0.50781 0.5117 0.0
H1873 H 0.85593 0.4608 0.50189 0.0
C1874 C 0.87112 0.5157 0.52733 0.0
C1875 C 0.87632 0.48765 0.50276 0.0
C1876 C 0.88759 0.47817 0.48653 0.0
C1877 C 0.85523 0.50408 0.53382 0.0
C1878 C 0.84949 0.48418 0.52427 0.0
C1879 C 0.86029 0.47612 0.50909 0.0
C1880 C 0.83189 0.47164 0.52925 0.0
C1881 C 0.84471 0.51319 0.55082 0.0
C1882 C 0.83315 0.45374 0.53488 0.0
C1883 C 0.81638 0.44115 0.53815 0.0
C1884 C 0.79804 0.44618 0.53568 0.0
C1885 C 0.79689 0.4643 0.53032 0.0
C1886 C 0.81366 0.47687 0.52708 0.0
H1887 H 0.85396 0.52632 0.55968 0.0
H1888 H 0.83173 0.51814 0.54572 0.0
H1889 H 0.83985 0.50228 0.55995 0.0
H1890 H 0.84711 0.44941 0.53651 0.0
H1891 H 0.81779 0.42731 0.54224 0.0
H1892 H 0.73591 0.81635 0.77362 0.0
H1893 H 0.72371 0.84539 0.76678 0.0
H1894 H 0.76154 0.88315 0.8118 0.0
H1895 H 0.77391 0.8542 0.81832 0.0
H1896 H 0.70446 0.86865 0.79211 0.0
H1897 H 0.7688 0.91507 0.77017 0.0
H1898 H 0.76807 0.88918 0.77055 0.0
H1899 H 0.77336 0.90768 0.79219 0.0
C1900 C 0.74195 0.83097 0.78161 0.0
C1901 C 0.75592 0.83328 0.7963 0.0
C1902 C 0.73496 0.84749 0.77777 0.0
C1903 C 0.7419 0.86649 0.78859 0.0
C1904 C 0.75634 0.86875 0.80292 0.0
H1905 H 0.71001 0.97953 0.82224 0.0
H1906 H 0.72406 0.94926 0.8162 0.0
C1907 C 0.76334 0.85224 0.80671 0.0
C1908 C 0.73262 0.88361 0.78649 0.0
H1909 H 0.74257 0.93201 0.78213 0.0
C1910 C 0.7127 0.88239 0.78954 0.0
C1911 C 0.74339 0.90151 0.78312 0.0
C1912 C 0.76455 0.90339 0.77863 0.0
C1913 C 0.7035 0.89892 0.79039 0.0
C1914 C 0.71449 0.91706 0.78794 0.0
C1915 C 0.73422 0.91808 0.7841 0.0
C1916 C 0.70614 0.93552 0.79088 0.0
C1917 C 0.68233 0.89715 0.7949 0.0
C1918 C 0.69149 0.93787 0.77852 0.0
C1919 C 0.68337 0.95522 0.78194 0.0
C1920 C 0.6898 0.97045 0.79778 0.0
C1921 C 0.70465 0.96807 0.80996 0.0
C1922 C 0.71276 0.95081 0.8065 0.0
H1923 H 0.6767 0.88299 0.79938 0.0
H1924 H 0.67991 0.90963 0.80643 0.0
H1925 H 0.67384 0.89785 0.782 0.0
H1926 H 0.68634 0.9263 0.76626 0.0
H1927 H 0.67203 0.95665 0.77224 0.0
H1928 H 0.60778 0.49616 0.93379 0.0
H1929 H 0.6394 0.51693 0.94237 0.0
H1930 H 0.62546 0.52551 0.00192 0.0
H1931 H 0.59379 0.50463 0.99341 0.0
H1932 H 0.64357 0.556 0.9598 0.0
H1933 H 0.68102 0.51473 0.00314 0.0
H1934 H 0.66004 0.50323 0.98781 0.0
H1935 H 0.65723 0.51805 0.01094 0.0
C1936 C 0.61157 0.50227 0.94874 0.0
C1937 C 0.5983 0.49891 0.96294 0.0
C1938 C 0.62965 0.51405 0.95361 0.0
C1939 C 0.63483 0.52264 0.97278 0.0
C1940 C 0.62191 0.5187 0.98708 0.0
H1941 H 0.71277 0.63129 0.01577 0.0
H1942 H 0.68529 0.60447 0.00697 0.0
C1943 C 0.60381 0.50682 0.98221 0.0
C1944 C 0.6528 0.53735 0.97751 0.0
H1945 H 0.69499 0.5486 0.00437 0.0
C1946 C 0.65488 0.5543 0.96942 0.0
C1947 C 0.66759 0.53501 0.98995 0.0
C1948 C 0.6665 0.51669 0.99834 0.0
C1949 C 0.67114 0.56922 0.97378 0.0
C1950 C 0.68556 0.56727 0.98681 0.0
C1951 C 0.68378 0.5501 0.99453 0.0
C1952 C 0.70239 0.58315 0.99278 0.0
C1953 C 0.6728 0.58693 0.96437 0.0
C1954 C 0.72115 0.57986 0.98807 0.0
C1955 C 0.73695 0.59517 0.99309 0.0
C1956 C 0.73422 0.61399 0.00302 0.0
C1957 C 0.7154 0.61704 0.00803 0.0
C1958 C 0.69965 0.60175 0.00298 0.0
H1959 H 0.66319 0.58388 0.95136 0.0
H1960 H 0.66852 0.59956 0.97455 0.0
H1961 H 0.68793 0.59146 0.96036 0.0
H1962 H 0.72352 0.56554 0.98025 0.0
H1963 H 0.75126 0.59229 0.9891 0.0
H1964 H 0.2654 0.7387 0.24714 0.0
H1965 H 0.24289 0.70751 0.245 0.0
H1966 H 0.27605 0.67919 0.20009 0.0
H1967 H 0.29918 0.71019 0.20304 0.0
H1968 H 0.21956 0.68156 0.21965 0.0
H1969 H 0.28011 0.6462 0.2391 0.0
H1970 H 0.28293 0.67231 0.23921 0.0
H1971 H 0.28327 0.65479 0.21708 0.0
C1972 C 0.26755 0.7259 0.23652 0.0
C1973 C 0.28392 0.72666 0.22528 0.0
C1974 C 0.25476 0.70808 0.23533 0.0
C1975 C 0.2581 0.69085 0.22276 0.0
C1976 C 0.27354 0.69212 0.21031 0.0
H1977 H 0.17283 0.58205 0.21788 0.0
H1978 H 0.19326 0.61027 0.20848 0.0
C1979 C 0.28658 0.70984 0.21181 0.0
C1980 C 0.24632 0.67145 0.22393 0.0
H1981 H 0.24946 0.62612 0.23369 0.0
C1982 C 0.22607 0.66938 0.22262 0.0
C1983 C 0.25487 0.65568 0.22814 0.0
C1984 C 0.27646 0.65736 0.23116 0.0
C1985 C 0.21412 0.65222 0.22584 0.0
C1986 C 0.22269 0.63635 0.22976 0.0
C1987 C 0.24292 0.63822 0.23055 0.0
C1988 C 0.21106 0.61831 0.23456 0.0
C1989 C 0.19251 0.65173 0.22595 0.0
C1990 C 0.21493 0.61275 0.25186 0.0
C1991 C 0.20365 0.59631 0.25701 0.0
C1992 C 0.18811 0.58525 0.24506 0.0
C1993 C 0.18458 0.59046 0.22748 0.0
C1994 C 0.19613 0.60669 0.22217 0.0
H1995 H 0.18879 0.66684 0.22792 0.0
H1996 H 0.18592 0.64313 0.21205 0.0
H1997 H 0.18592 0.64457 0.2375 0.0
H1998 H 0.22644 0.62142 0.26163 0.0
H1999 H 0.2067 0.5927 0.27066 0.0
H2000 H 0.87055 0.5092 0.10738 0.0
H2001 H 0.86221 0.5398 0.0999 0.0
H2002 H 0.90425 0.53824 0.05585 0.0
H2003 H 0.91258 0.50768 0.06333 0.0
H2004 H 0.88776 0.57956 0.09461 0.0
H2005 H 0.84748 0.53167 0.03028 0.0
H2006 H 0.85381 0.52193 0.05063 0.0
H2007 H 0.872 0.52842 0.03428 0.0
C2008 C 0.87831 0.51575 0.09646 0.0
C2009 C 0.89218 0.50634 0.0859 0.0
C2010 C 0.87358 0.53316 0.09223 0.0
C2011 C 0.8826 0.54118 0.07731 0.0
C2012 C 0.89718 0.53225 0.06743 0.0
H2013 H 0.84633 0.61897 0.00945 0.0
H2014 H 0.86506 0.59853 0.02356 0.0
C2015 C 0.90193 0.51489 0.07169 0.0
C2016 C 0.87518 0.55733 0.07055 0.0
H2017 H 0.84801 0.56588 0.03441 0.0
C2018 C 0.87911 0.57668 0.08144 0.0
C2019 C 0.86389 0.55341 0.05339 0.0
C2020 C 0.85887 0.53274 0.04145 0.0
C2021 C 0.8722 0.59236 0.07539 0.0
C2022 C 0.86076 0.58839 0.05826 0.0
C2023 C 0.85689 0.56897 0.04746 0.0
C2024 C 0.85215 0.60381 0.05121 0.0
C2025 C 0.87749 0.61303 0.0872 0.0
C2026 C 0.83909 0.61412 0.06225 0.0
C2027 C 0.82852 0.62608 0.05426 0.0
C2028 C 0.83058 0.62756 0.035 0.0
C2029 C 0.84435 0.61802 0.0243 0.0
C2030 C 0.85507 0.60633 0.03235 0.0
H2031 H 0.89078 0.61457 0.09625 0.0
H2032 H 0.87979 0.62423 0.078 0.0
H2033 H 0.86552 0.61627 0.09683 0.0
H2034 H 0.83625 0.61209 0.07669 0.0
H2035 H 0.8179 0.63314 0.0628 0.0
H2036 H 0.07577 0.04692 0.08418 0.0
H2037 H 0.08999 0.0171 0.08334 0.0
H2038 H 0.14389 0.0467 0.06575 0.0
H2039 H 0.13015 0.07685 0.06755 0.0
H2040 H 0.10226 0.99503 0.05306 0.0
H2041 H 0.16349 0.02082 0.10546 0.0
H2042 H 0.14438 0.03502 0.10416 0.0
H2043 H 0.16447 0.03672 0.08851 0.0
C2044 C 0.09082 0.04728 0.08065 0.0
C2045 C 0.10181 0.06432 0.07594 0.0
C2046 C 0.09889 0.03015 0.08006 0.0
C2047 C 0.11811 0.02972 0.07478 0.0
C2048 C 0.12919 0.04679 0.07035 0.0
H2049 H 0.1726 0.94293 0.0101 0.0
H2050 H 0.15176 0.9662 0.02395 0.0
C2051 C 0.12119 0.06395 0.07106 0.0
C2052 C 0.12607 0.01098 0.07207 0.0
H2053 H 0.1666 0.99235 0.08049 0.0
C2054 C 0.11615 0.99432 0.05939 0.0
C2055 C 0.14396 0.00981 0.08063 0.0
C2056 C 0.15455 0.0265 0.09562 0.0
C2057 C 0.1243 0.9771 0.05396 0.0
C2058 C 0.14306 0.97671 0.06103 0.0
C2059 C 0.15234 0.99276 0.07482 0.0
C2060 C 0.15418 0.96096 0.05267 0.0
C2061 C 0.11291 0.95968 0.04031 0.0
C2062 C 0.16271 0.95037 0.06425 0.0
C2063 C 0.17486 0.93705 0.05634 0.0
C2064 C 0.1788 0.93433 0.03677 0.0
C2065 C 0.16983 0.94461 0.0252 0.0
C2066 C 0.15775 0.95783 0.03308 0.0
H2067 H 0.09709 0.95926 0.04194 0.0
H2068 H 0.11618 0.96115 0.02542 0.0
H2069 H 0.11662 0.94543 0.04257 0.0
H2070 H 0.16028 0.95271 0.07945 0.0
H2071 H 0.18165 0.92942 0.06563 0.0
loop_
_geom_bond_atom_site_label_1
_geom_bond_atom_site_label_2
_geom_bond_distance
_geom_bond_site_symmetry_2
_ccdc_geom_bond_type
H0 C3 0.929 . S
H1 C6 0.929 . S
H2 C8 0.930 . S
C3 H0 0.929 . S
C3 C4 1.398 . S
C3 C5 1.396 . S
C4 C3 1.398 . S
C4 C8 1.407 . S
C5 C3 1.396 . S
C5 C6 1.394 . S
C6 H1 0.929 . S
C6 C5 1.394 . S
C6 C7 1.382 . S
C7 C6 1.382 . S
C7 C8 1.392 . S
C7 N9 1.420 . S
C8 H2 0.930 . S
C8 C4 1.407 . S
C8 C7 1.392 . S
N9 C7 1.420 . S
N9 C10 1.244 . S
C10 N9 1.244 . S
H11 C14 0.929 . S
H12 C17 0.929 . S
H13 C19 0.930 . S
C14 H11 0.929 . S
C14 C15 1.398 . S
C14 C16 1.396 . S
C15 C14 1.398 . S
C15 C19 1.407 . S
C16 C14 1.396 . S
C16 C17 1.394 . S
C17 H12 0.929 . S
C17 C16 1.394 . S
C17 C18 1.382 . S
C18 C17 1.382 . S
C18 C19 1.392 . S
C18 N20 1.420 . S
C19 H13 0.930 . S
C19 C15 1.407 . S
C19 C18 1.392 . S
N20 C18 1.420 . S
N20 C21 1.244 . S
C21 N20 1.244 . S
H22 C25 0.929 . S
H23 C28 0.929 . S
H24 C30 0.930 . S
C25 H22 0.929 . S
C25 C26 1.398 . S
C25 C27 1.396 . S
C26 C25 1.398 . S
C26 C30 1.407 . S
C27 C25 1.396 . S
C27 C28 1.394 . S
C28 H23 0.929 . S
C28 C27 1.394 . S
C28 C29 1.382 . S
C29 C28 1.382 . S
C29 C30 1.392 . S
C29 N31 1.420 . S
C30 H24 0.930 . S
C30 C26 1.407 . S
C30 C29 1.392 . S
N31 C29 1.420 . S
N31 C32 1.244 . S
C32 N31 1.244 . S
H33 C36 0.929 . S
H34 C39 0.929 . S
H35 C41 0.930 . S
C36 H33 0.929 . S
C36 C37 1.398 . S
C36 C38 1.396 . S
C37 C36 1.398 . S
C37 C41 1.407 . S
C38 C36 1.396 . S
C38 C39 1.394 . S
C39 H34 0.929 . S
C39 C38 1.394 . S
C39 C40 1.382 . S
C40 C39 1.382 . S
C40 C41 1.392 . S
C40 N42 1.420 . S
C41 H35 0.930 . S
C41 C37 1.407 . S
C41 C40 1.392 . S
N42 C40 1.420 . S
N42 C43 1.244 . S
C43 N42 1.244 . S
H44 C47 0.929 . S
H45 C50 0.929 . S
H46 C52 0.930 . S
C47 H44 0.929 . S
C47 C48 1.398 . S
C47 C49 1.396 . S
C48 C47 1.398 . S
C48 C52 1.407 . S
C49 C47 1.396 . S
C49 C50 1.394 . S
C50 H45 0.929 . S
C50 C49 1.394 . S
C50 C51 1.382 . S
C51 C50 1.382 . S
C51 C52 1.392 . S
C51 N53 1.420 . S
C52 H46 0.930 . S
C52 C48 1.407 . S
C52 C51 1.392 . S
N53 C51 1.420 . S
N53 C54 1.244 . S
C54 N53 1.244 . S
H55 C58 0.929 . S
H56 C61 0.929 . S
H57 C63 0.930 . S
C58 H55 0.929 . S
C58 C59 1.398 . S
C58 C60 1.396 . S
C59 C58 1.398 . S
C59 C63 1.407 . S
C60 C58 1.396 . S
C60 C61 1.394 . S
C61 H56 0.929 . S
C61 C60 1.394 . S
C61 C62 1.382 . S
C62 C61 1.382 . S
C62 C63 1.392 . S
C62 N64 1.420 . S
C63 H57 0.930 . S
C63 C59 1.407 . S
C63 C62 1.392 . S
N64 C62 1.420 . S
N64 C65 1.244 . S
C65 N64 1.244 . S
H66 C69 0.929 . S
H67 C72 0.929 . S
H68 C74 0.930 . S
C69 H66 0.929 . S
C69 C70 1.398 . S
C69 C71 1.396 . S
C70 C69 1.398 . S
C70 C74 1.407 . S
C71 C69 1.396 . S
C71 C72 1.394 . S
C72 H67 0.929 . S
C72 C71 1.394 . S
C72 C73 1.382 . S
C73 C72 1.382 . S
C73 C74 1.392 . S
C73 N75 1.420 . S
C74 H68 0.930 . S
C74 C70 1.407 . S
C74 C73 1.392 . S
N75 C73 1.420 . S
N75 C76 1.244 . S
C76 N75 1.244 . S
H77 C80 0.929 . S
H78 C83 0.929 . S
H79 C85 0.930 . S
C80 H77 0.929 . S
C80 C81 1.398 . S
C80 C82 1.396 . S
C81 C80 1.398 . S
C81 C85 1.407 . S
C82 C80 1.396 . S
C82 C83 1.394 . S
C83 H78 0.929 . S
C83 C82 1.394 . S
C83 C84 1.382 . S
C84 C83 1.382 . S
C84 C85 1.392 . S
C84 N86 1.420 . S
C85 H79 0.930 . S
C85 C81 1.407 . S
C85 C84 1.392 . S
N86 C84 1.420 . S
N86 C87 1.244 . S
C87 N86 1.244 . S
H88 C91 0.929 . S
H89 C94 0.929 . S
H90 C96 0.930 . S
C91 H88 0.929 . S
C91 C92 1.398 . S
C91 C93 1.396 . S
C92 C91 1.398 . S
C92 C96 1.407 . S
C93 C91 1.396 . S
C93 C94 1.394 . S
C94 H89 0.929 . S
C94 C93 1.394 . S
C94 C95 1.382 . S
C95 C94 1.382 . S
C95 C96 1.392 . S
C95 N97 1.420 . S
C96 H90 0.930 . S
C96 C92 1.407 . S
C96 C95 1.392 . S
N97 C95 1.420 . S
N97 C98 1.244 . S
C98 N97 1.244 . S
H99 C102 0.929 . S
H100 C105 0.929 . S
H101 C107 0.930 . S
C102 H99 0.929 . S
C102 C103 1.398 . S
C102 C104 1.396 . S
C103 C102 1.398 . S
C103 C107 1.407 . S
C104 C102 1.396 . S
C104 C105 1.394 . S
C105 H100 0.929 . S
C105 C104 1.394 . S
C105 C106 1.382 . S
C106 C105 1.382 . S
C106 C107 1.392 . S
C106 N108 1.420 . S
C107 H101 0.930 . S
C107 C103 1.407 . S
C107 C106 1.392 . S
N108 C106 1.420 . S
N108 C109 1.244 . S
C109 N108 1.244 . S
H110 C113 0.929 . S
H111 C116 0.929 . S
H112 C118 0.930 . S
C113 H110 0.929 . S
C113 C114 1.398 . S
C113 C115 1.396 . S
C114 C113 1.398 . S
C114 C118 1.407 . S
C115 C113 1.396 . S
C115 C116 1.394 . S
C116 H111 0.929 . S
C116 C115 1.394 . S
C116 C117 1.382 . S
C117 C116 1.382 . S
C117 C118 1.392 . S
C117 N119 1.420 . S
C118 H112 0.930 . S
C118 C114 1.407 . S
C118 C117 1.392 . S
N119 C117 1.420 . S
N119 C120 1.244 . S
C120 N119 1.244 . S
H121 C124 0.929 . S
H122 C127 0.929 . S
H123 C129 0.930 . S
C124 H121 0.929 . S
C124 C125 1.398 . S
C124 C126 1.396 . S
C125 C124 1.398 . S
C125 C129 1.407 . S
C126 C124 1.396 . S
C126 C127 1.394 . S
C127 H122 0.929 . S
C127 C126 1.394 . S
C127 C128 1.382 . S
C128 C127 1.382 . S
C128 C129 1.392 . S
C128 N130 1.420 . S
C129 H123 0.930 . S
C129 C125 1.407 . S
C129 C128 1.392 . S
N130 C128 1.420 . S
N130 C131 1.244 . S
C131 N130 1.244 . S
H132 C135 0.929 . S
H133 C138 0.929 . S
H134 C140 0.930 . S
C135 H132 0.929 . S
C135 C136 1.398 . S
C135 C137 1.396 . S
C136 C135 1.398 . S
C136 C140 1.407 . S
C137 C135 1.396 . S
C137 C138 1.394 . S
C138 H133 0.929 . S
C138 C137 1.394 . S
C138 C139 1.382 . S
C139 C138 1.382 . S
C139 C140 1.392 . S
C139 N141 1.420 . S
C140 H134 0.930 . S
C140 C136 1.407 . S
C140 C139 1.392 . S
N141 C139 1.420 . S
N141 C142 1.244 . S
C142 N141 1.244 . S
H143 C146 0.929 . S
H144 C149 0.929 . S
H145 C151 0.930 . S
C146 H143 0.929 . S
C146 C147 1.398 . S
C146 C148 1.396 . S
C147 C146 1.398 . S
C147 C151 1.407 . S
C148 C146 1.396 . S
C148 C149 1.394 . S
C149 H144 0.929 . S
C149 C148 1.394 . S
C149 C150 1.382 . S
C150 C149 1.382 . S
C150 C151 1.392 . S
C150 N152 1.420 . S
C151 H145 0.930 . S
C151 C147 1.407 . S
C151 C150 1.392 . S
N152 C150 1.420 . S
N152 C153 1.244 . S
C153 N152 1.244 . S
H154 C157 0.929 . S
H155 C160 0.929 . S
H156 C162 0.930 . S
C157 H154 0.929 . S
C157 C158 1.398 . S
C157 C159 1.396 . S
C158 C157 1.398 . S
C158 C162 1.407 . S
C159 C157 1.396 . S
C159 C160 1.394 . S
C160 H155 0.929 . S
C160 C159 1.394 . S
C160 C161 1.382 . S
C161 C160 1.382 . S
C161 C162 1.392 . S
C161 N163 1.420 . S
C162 H156 0.930 . S
C162 C158 1.407 . S
C162 C161 1.392 . S
N163 C161 1.420 . S
N163 C164 1.244 . S
C164 N163 1.244 . S
H165 C168 0.929 . S
H166 C171 0.929 . S
H167 C173 0.930 . S
C168 H165 0.929 . S
C168 C169 1.398 . S
C168 C170 1.396 . S
C169 C168 1.398 . S
C169 C173 1.407 . S
C170 C168 1.396 . S
C170 C171 1.394 . S
C171 H166 0.929 . S
C171 C170 1.394 . S
C171 C172 1.382 . S
C172 C171 1.382 . S
C172 C173 1.392 . S
C172 N174 1.420 . S
C173 H167 0.930 . S
C173 C169 1.407 . S
C173 C172 1.392 . S
N174 C172 1.420 . S
N174 C175 1.244 . S
C175 N174 1.244 . S
O176 Cd177 2.223 . S
O176 C184 1.315 . S
Cd177 O176 2.223 . S
Cd177 O180 2.297 . S
Cd177 O181 2.439 . S
Cd177 O187 2.240 . S
Cd178 O179 2.240 . S
Cd178 O186 2.223 . S
Cd178 O188 2.297 . S
Cd178 O189 2.439 . S
O179 Cd178 2.240 . S
O179 C184 1.279 . S
O180 Cd177 2.297 . S
O180 C182 1.247 . S
O181 Cd177 2.439 . S
O181 C182 1.208 . S
C182 O180 1.247 . S
C182 O181 1.208 . S
C183 O188 1.247 . S
C183 O189 1.208 . S
C184 O176 1.315 . S
C184 O179 1.279 . S
C185 O186 1.315 . S
C185 O187 1.279 . S
O186 Cd178 2.223 . S
O186 C185 1.315 . S
O187 Cd177 2.240 . S
O187 C185 1.279 . S
O188 Cd178 2.297 . S
O188 C183 1.247 . S
O189 Cd178 2.439 . S
O189 C183 1.208 . S
O190 Cd191 2.223 . S
O190 C198 1.315 . S
Cd191 O190 2.223 . S
Cd191 O194 2.297 . S
Cd191 O195 2.439 . S
Cd191 O201 2.240 . S
Cd192 O193 2.240 . S
Cd192 O200 2.223 . S
Cd192 O202 2.297 . S
Cd192 O203 2.439 . S
O193 Cd192 2.240 . S
O193 C198 1.279 . S
O194 Cd191 2.297 . S
O194 C196 1.247 . S
O195 Cd191 2.439 . S
O195 C196 1.208 . S
C196 O194 1.247 . S
C196 O195 1.208 . S
C197 O202 1.247 . S
C197 O203 1.208 . S
C198 O190 1.315 . S
C198 O193 1.279 . S
C199 O200 1.315 . S
C199 O201 1.279 . S
O200 Cd192 2.223 . S
O200 C199 1.315 . S
O201 Cd191 2.240 . S
O201 C199 1.279 . S
O202 Cd192 2.297 . S
O202 C197 1.247 . S
O203 Cd192 2.439 . S
O203 C197 1.208 . S
O204 Cd205 2.223 1_556 S
O204 C212 1.315 . S
Cd205 O204 2.223 1_554 S
Cd205 O208 2.297 . S
Cd205 O209 2.439 . S
Cd205 O215 2.240 1_554 S
Cd206 O207 2.240 . S
Cd206 O214 2.223 . S
Cd206 O216 2.297 . S
Cd206 O217 2.439 1_556 S
O207 Cd206 2.240 . S
O207 C212 1.279 . S
O208 Cd205 2.297 . S
O208 C210 1.247 . S
O209 Cd205 2.439 . S
O209 C210 1.208 . S
C210 O208 1.247 . S
C210 O209 1.208 . S
C211 O216 1.247 1_554 S
C211 O217 1.208 . S
C212 O204 1.315 . S
C212 O207 1.279 . S
C213 O214 1.315 . S
C213 O215 1.279 . S
O214 Cd206 2.223 . S
O214 C213 1.315 . S
O215 Cd205 2.240 1_556 S
O215 C213 1.279 . S
O216 Cd206 2.297 . S
O216 C211 1.247 1_556 S
O217 Cd206 2.439 1_554 S
O217 C211 1.208 . S
O218 Cd219 2.223 . S
O218 C226 1.315 . S
Cd219 O218 2.223 . S
Cd219 O222 2.297 . S
Cd219 O223 2.439 . S
Cd219 O229 2.240 . S
Cd220 O221 2.240 . S
Cd220 O228 2.223 . S
Cd220 O230 2.297 . S
Cd220 O231 2.439 . S
O221 Cd220 2.240 . S
O221 C226 1.279 . S
O222 Cd219 2.297 . S
O222 C224 1.247 . S
O223 Cd219 2.439 . S
O223 C224 1.208 . S
C224 O222 1.247 . S
C224 O223 1.208 . S
C225 O230 1.247 . S
C225 O231 1.208 . S
C226 O218 1.315 . S
C226 O221 1.279 . S
C227 O228 1.315 . S
C227 O229 1.279 . S
O228 Cd220 2.223 . S
O228 C227 1.315 . S
O229 Cd219 2.240 . S
O229 C227 1.279 . S
O230 Cd220 2.297 . S
O230 C225 1.247 . S
O231 Cd220 2.439 . S
O231 C225 1.208 . S
O232 Cd233 2.223 . S
O232 C240 1.315 . S
Cd233 O232 2.223 . S
Cd233 O236 2.297 . S
Cd233 O237 2.439 . S
Cd233 O243 2.240 . S
Cd234 O235 2.240 . S
Cd234 O242 2.223 . S
Cd234 O244 2.297 . S
Cd234 O245 2.439 . S
O235 Cd234 2.240 . S
O235 C240 1.279 . S
O236 Cd233 2.297 . S
O236 C238 1.247 . S
O237 Cd233 2.439 . S
O237 C238 1.208 . S
C238 O236 1.247 . S
C238 O237 1.208 . S
C239 O244 1.247 . S
C239 O245 1.208 . S
C240 O232 1.315 . S
C240 O235 1.279 . S
C241 O242 1.315 . S
C241 O243 1.279 . S
O242 Cd234 2.223 . S
O242 C241 1.315 . S
O243 Cd233 2.240 . S
O243 C241 1.279 . S
O244 Cd234 2.297 . S
O244 C239 1.247 . S
O245 Cd234 2.439 . S
O245 C239 1.208 . S
O246 Cd247 2.223 . S
O246 C254 1.315 . S
Cd247 O246 2.223 . S
Cd247 O250 2.297 . S
Cd247 O251 2.439 . S
Cd247 O257 2.240 . S
Cd248 O249 2.240 . S
Cd248 O256 2.223 . S
Cd248 O258 2.297 . S
Cd248 O259 2.439 . S
O249 Cd248 2.240 . S
O249 C254 1.279 . S
O250 Cd247 2.297 . S
O250 C252 1.247 . S
O251 Cd247 2.439 . S
O251 C252 1.208 . S
C252 O250 1.247 . S
C252 O251 1.208 . S
C253 O258 1.247 . S
C253 O259 1.208 . S
C254 O246 1.315 . S
C254 O249 1.279 . S
C255 O256 1.315 . S
C255 O257 1.279 . S
O256 Cd248 2.223 . S
O256 C255 1.315 . S
O257 Cd247 2.240 . S
O257 C255 1.279 . S
O258 Cd248 2.297 . S
O258 C253 1.247 . S
O259 Cd248 2.439 . S
O259 C253 1.208 . S
O260 Cd261 2.223 . S
O260 C268 1.315 . S
Cd261 O260 2.223 . S
Cd261 O264 2.297 . S
Cd261 O265 2.439 . S
Cd261 O271 2.240 . S
Cd262 O263 2.240 . S
Cd262 O270 2.223 . S
Cd262 O272 2.297 . S
Cd262 O273 2.439 . S
O263 Cd262 2.240 . S
O263 C268 1.279 . S
O264 Cd261 2.297 . S
O264 C266 1.247 . S
O265 Cd261 2.439 . S
O265 C266 1.208 . S
C266 O264 1.247 . S
C266 O265 1.208 . S
C267 O272 1.247 . S
C267 O273 1.208 . S
C268 O260 1.315 . S
C268 O263 1.279 . S
C269 O270 1.315 . S
C269 O271 1.279 . S
O270 Cd262 2.223 . S
O270 C269 1.315 . S
O271 Cd261 2.240 . S
O271 C269 1.279 . S
O272 Cd262 2.297 . S
O272 C267 1.247 . S
O273 Cd262 2.439 . S
O273 C267 1.208 . S
O274 Cd275 2.223 1_545 S
O274 C282 1.315 . S
Cd275 O274 2.223 1_565 S
Cd275 O278 2.297 . S
Cd275 O279 2.439 . S
Cd275 O285 2.240 1_565 S
Cd276 O277 2.240 . S
Cd276 O284 2.223 . S
Cd276 O286 2.297 . S
Cd276 O287 2.439 1_545 S
O277 Cd276 2.240 . S
O277 C282 1.279 . S
O278 Cd275 2.297 . S
O278 C280 1.247 . S
O279 Cd275 2.439 . S
O279 C280 1.208 . S
C280 O278 1.247 . S
C280 O279 1.208 . S
C281 O286 1.247 1_565 S
C281 O287 1.208 . S
C282 O274 1.315 . S
C282 O277 1.279 . S
C283 O284 1.315 . S
C283 O285 1.279 . S
O284 Cd276 2.223 . S
O284 C283 1.315 . S
O285 Cd275 2.240 1_545 S
O285 C283 1.279 . S
O286 Cd276 2.297 . S
O286 C281 1.247 1_545 S
O287 Cd276 2.439 1_565 S
O287 C281 1.208 . S
O288 Cd289 2.223 1_655 S
O288 C296 1.315 . S
Cd289 O288 2.223 1_455 S
Cd289 O292 2.297 . S
Cd289 O293 2.439 . S
Cd289 O299 2.243 . S
Cd290 O291 2.240 . S
Cd290 O298 2.223 1_455 S
Cd290 O300 2.297 . S
Cd290 O301 2.439 . S
O291 Cd290 2.240 . S
O291 C296 1.279 1_455 S
O292 Cd289 2.297 . S
O292 C294 1.247 . S
O293 Cd289 2.439 . S
O293 C294 1.208 . S
C294 O292 1.247 . S
C294 O293 1.208 . S
C295 O300 1.247 . S
C295 O301 1.208 . S
C296 O288 1.315 . S
C296 O291 1.279 1_655 S
C297 O298 1.315 . S
C297 O299 1.256 1_655 S
O298 Cd290 2.223 1_655 S
O298 C297 1.315 . S
O299 Cd289 2.243 . S
O299 C297 1.256 1_455 S
O300 Cd290 2.297 . S
O300 C295 1.247 . S
O301 Cd290 2.439 . S
O301 C295 1.208 . S
O302 Cd303 2.223 . S
O302 C310 1.315 . S
Cd303 O302 2.223 . S
Cd303 O306 2.297 . S
Cd303 O307 2.439 . S
Cd303 O313 2.240 . S
Cd304 O305 2.240 . S
Cd304 O312 2.223 . S
Cd304 O314 2.297 . S
Cd304 O315 2.439 . S
O305 Cd304 2.240 . S
O305 C310 1.279 . S
O306 Cd303 2.297 . S
O306 C308 1.247 . S
O307 Cd303 2.439 . S
O307 C308 1.208 . S
C308 O306 1.247 . S
C308 O307 1.208 . S
C309 O314 1.247 . S
C309 O315 1.208 . S
C310 O302 1.315 . S
C310 O305 1.279 . S
C311 O312 1.315 . S
C311 O313 1.279 . S
O312 Cd304 2.223 . S
O312 C311 1.315 . S
O313 Cd303 2.240 . S
O313 C311 1.279 . S
O314 Cd304 2.297 . S
O314 C309 1.247 . S
O315 Cd304 2.439 . S
O315 C309 1.208 . S
O316 Cd317 2.223 1_655 S
O316 C324 1.315 . S
Cd317 O316 2.223 1_455 S
Cd317 O320 2.297 . S
Cd317 O321 2.439 . S
Cd317 O327 2.240 . S
Cd318 O319 2.240 1_455 S
Cd318 O326 2.223 1_455 S
Cd318 O328 2.297 . S
Cd318 O329 2.439 . S
O319 Cd318 2.240 1_655 S
O319 C324 1.279 . S
O320 Cd317 2.297 . S
O320 C322 1.247 . S
O321 Cd317 2.439 . S
O321 C322 1.208 . S
C322 O320 1.247 . S
C322 O321 1.208 . S
C323 O328 1.247 . S
C323 O329 1.208 . S
C324 O316 1.315 . S
C324 O319 1.279 . S
C325 O326 1.315 . S
C325 O327 1.279 1_655 S
O326 Cd318 2.223 1_655 S
O326 C325 1.315 . S
O327 Cd317 2.240 . S
O327 C325 1.279 1_455 S
O328 Cd318 2.297 . S
O328 C323 1.247 . S
O329 Cd318 2.439 . S
O329 C323 1.208 . S
O330 Cd331 2.223 . S
O330 C338 1.315 . S
Cd331 O330 2.223 . S
Cd331 O334 2.297 . S
Cd331 O335 2.439 . S
Cd331 O341 2.240 . S
Cd332 O333 2.240 . S
Cd332 O340 2.223 . S
Cd332 O342 2.297 . S
Cd332 O343 2.439 . S
O333 Cd332 2.240 . S
O333 C338 1.279 . S
O334 Cd331 2.297 . S
O334 C336 1.247 . S
O335 Cd331 2.439 . S
O335 C336 1.208 . S
C336 O334 1.247 . S
C336 O335 1.208 . S
C337 O342 1.247 . S
C337 O343 1.208 . S
C338 O330 1.315 . S
C338 O333 1.279 . S
C339 O340 1.315 . S
C339 O341 1.279 . S
O340 Cd332 2.223 . S
O340 C339 1.315 . S
O341 Cd331 2.240 . S
O341 C339 1.279 . S
O342 Cd332 2.297 . S
O342 C337 1.247 . S
O343 Cd332 2.439 . S
O343 C337 1.208 . S
H344 C352 0.929 . S
H345 C354 0.930 . S
H346 C356 0.930 . S
H347 C359 0.929 . S
H348 C362 0.930 . S
H349 C364 0.960 . S
H350 C364 0.960 . S
H351 C364 0.960 . S
C352 H344 0.929 . S
C352 C353 1.377 . S
C352 C354 1.384 . S
C353 C352 1.377 . S
C353 C359 1.390 . S
C354 H345 0.930 . S
C354 C352 1.384 . S
C354 C355 1.372 . S
C355 C354 1.372 . S
C355 C356 1.400 . S
C355 C360 1.490 . S
C356 H346 0.930 . S
C356 C355 1.400 . S
C356 C359 1.386 . S
H357 C373 0.930 . S
H358 C374 0.931 . S
C359 H347 0.929 . S
C359 C353 1.390 . S
C359 C356 1.386 . S
C360 C355 1.490 . S
C360 C362 1.395 . S
C360 C363 1.403 . S
H361 C367 0.930 . S
C362 H348 0.930 . S
C362 C360 1.395 . S
C362 C365 1.403 . S
C363 C360 1.403 . S
C363 C364 1.524 . S
C363 C367 1.400 . S
C364 H349 0.960 . S
C364 H350 0.960 . S
C364 H351 0.960 . S
C364 C363 1.524 . S
C365 C362 1.403 . S
C365 C366 1.392 . S
C365 C369 1.495 . S
C366 C365 1.392 . S
C366 C367 1.385 . S
C366 C368 1.478 . S
C367 H361 0.930 . S
C367 C363 1.400 . S
C367 C366 1.385 . S
C368 C366 1.478 . S
C368 C370 1.381 . S
C368 C374 1.383 . S
C369 C365 1.495 . S
C369 H375 0.959 . S
C369 H376 0.961 . S
C369 H377 0.960 . S
C370 C368 1.381 . S
C370 C371 1.394 1_556 S
C370 H378 0.930 . S
C371 C370 1.394 1_554 S
C371 C372 1.383 . S
C371 H379 0.929 . S
C372 C371 1.383 . S
C372 C373 1.377 . S
C373 H357 0.930 . S
C373 C372 1.377 . S
C373 C374 1.379 1_554 S
C374 H358 0.931 . S
C374 C368 1.383 . S
C374 C373 1.379 1_556 S
H375 C369 0.959 . S
H376 C369 0.961 . S
H377 C369 0.960 . S
H378 C370 0.930 . S
H379 C371 0.929 . S
H380 C388 0.929 . S
H381 C390 0.930 . S
H382 C392 0.930 . S
H383 C395 0.929 . S
H384 C398 0.930 . S
H385 C400 0.960 . S
H386 C400 0.960 . S
H387 C400 0.960 . S
C388 H380 0.929 . S
C388 C389 1.377 . S
C388 C390 1.384 1_655 S
C389 C388 1.377 . S
C389 C395 1.390 . S
C390 H381 0.930 . S
C390 C388 1.384 1_455 S
C390 C391 1.372 1_455 S
C391 C390 1.372 1_655 S
C391 C392 1.400 . S
C391 C396 1.490 1_655 S
C392 H382 0.930 . S
C392 C391 1.400 . S
C392 C395 1.386 . S
H393 C409 0.930 . S
H394 C410 0.931 . S
C395 H383 0.929 . S
C395 C389 1.390 . S
C395 C392 1.386 . S
C396 C391 1.490 1_455 S
C396 C398 1.395 . S
C396 C399 1.403 . S
H397 C403 0.930 . S
C398 H384 0.930 . S
C398 C396 1.395 . S
C398 C401 1.403 . S
C399 C396 1.403 . S
C399 C400 1.524 1_455 S
C399 C403 1.400 . S
C400 H385 0.960 . S
C400 H386 0.960 . S
C400 H387 0.960 . S
C400 C399 1.524 1_655 S
C401 C398 1.403 . S
C401 C402 1.392 . S
C401 C405 1.495 . S
C402 C401 1.392 . S
C402 C403 1.385 . S
C402 C404 1.478 . S
C403 H397 0.930 . S
C403 C399 1.400 . S
C403 C402 1.385 . S
C404 C402 1.478 . S
C404 C406 1.381 . S
C404 C410 1.383 . S
C405 C401 1.495 . S
C405 H411 0.959 . S
C405 H412 0.961 . S
C405 H413 0.960 . S
C406 C404 1.381 . S
C406 C407 1.394 . S
C406 H414 0.930 . S
C407 C406 1.394 . S
C407 C408 1.383 . S
C407 H415 0.929 . S
C408 C407 1.383 . S
C408 C409 1.377 . S
C409 H393 0.930 . S
C409 C408 1.377 . S
C409 C410 1.379 . S
C410 H394 0.931 . S
C410 C404 1.383 . S
C410 C409 1.379 . S
H411 C405 0.959 . S
H412 C405 0.961 . S
H413 C405 0.960 . S
H414 C406 0.930 . S
H415 C407 0.929 . S
H416 C424 0.929 . S
H417 C426 0.930 . S
H418 C428 0.930 . S
H419 C431 0.929 . S
H420 C434 0.930 . S
H421 C436 0.960 . S
H422 C436 0.960 . S
H423 C436 0.960 . S
C424 H416 0.929 . S
C424 C425 1.377 . S
C424 C426 1.384 . S
C425 C424 1.377 . S
C425 C431 1.390 . S
C426 H417 0.930 . S
C426 C424 1.384 . S
C426 C427 1.372 . S
C427 C426 1.372 . S
C427 C428 1.400 . S
C427 C432 1.490 . S
C428 H418 0.930 . S
C428 C427 1.400 . S
C428 C431 1.386 . S
H429 C445 0.930 . S
H430 C446 0.931 . S
C431 H419 0.929 . S
C431 C425 1.390 . S
C431 C428 1.386 . S
C432 C427 1.490 . S
C432 C434 1.395 . S
C432 C435 1.403 . S
H433 C439 0.930 . S
C434 H420 0.930 . S
C434 C432 1.395 . S
C434 C437 1.403 . S
C435 C432 1.403 . S
C435 C436 1.524 . S
C435 C439 1.400 . S
C436 H421 0.960 . S
C436 H422 0.960 . S
C436 H423 0.960 . S
C436 C435 1.524 . S
C437 C434 1.403 . S
C437 C438 1.392 . S
C437 C441 1.495 . S
C438 C437 1.392 . S
C438 C439 1.385 . S
C438 C440 1.478 . S
C439 H433 0.930 . S
C439 C435 1.400 . S
C439 C438 1.385 . S
C440 C438 1.478 . S
C440 C442 1.381 . S
C440 C446 1.383 . S
C441 C437 1.495 . S
C441 H447 0.959 . S
C441 H448 0.961 . S
C441 H449 0.960 . S
C442 C440 1.381 . S
C442 C443 1.394 . S
C442 H450 0.930 . S
C443 C442 1.394 . S
C443 C444 1.383 . S
C443 H451 0.929 . S
C444 C443 1.383 . S
C444 C445 1.377 . S
C445 H429 0.930 . S
C445 C444 1.377 . S
C445 C446 1.379 . S
C446 H430 0.931 . S
C446 C440 1.383 . S
C446 C445 1.379 . S
H447 C441 0.959 . S
H448 C441 0.961 . S
H449 C441 0.960 . S
H450 C442 0.930 . S
H451 C443 0.929 . S
H452 C460 0.929 . S
H453 C462 0.930 . S
H454 C464 0.908 1_545 S
H455 C467 0.929 . S
H456 C470 0.930 . S
H457 C472 0.960 1_545 S
H458 C472 0.960 . S
H459 C472 0.960 1_545 S
C460 H452 0.929 . S
C460 C461 1.377 . S
C460 C462 1.384 . S
C461 C460 1.377 . S
C461 C467 1.390 . S
C462 H453 0.930 . S
C462 C460 1.384 . S
C462 C463 1.372 . S
C463 C462 1.372 . S
C463 C464 1.405 . S
C463 C468 1.490 1_565 S
C464 H454 0.908 1_565 S
C464 C463 1.405 . S
C464 C467 1.402 . S
H465 C481 0.930 . S
H466 C482 0.888 1_455 S
C467 H455 0.929 . S
C467 C461 1.390 . S
C467 C464 1.402 . S
C468 C463 1.490 1_545 S
C468 C470 1.395 . S
C468 C471 1.403 . S
H469 C475 0.930 . S
C470 H456 0.930 . S
C470 C468 1.395 . S
C470 C473 1.403 . S
C471 C468 1.403 . S
C471 C472 1.524 1_545 S
C471 C475 1.400 . S
C472 H457 0.960 1_565 S
C472 H458 0.960 . S
C472 H459 0.960 1_565 S
C472 C471 1.524 1_565 S
C473 C470 1.403 . S
C473 C474 1.392 . S
C473 C477 1.495 1_455 S
C474 C473 1.392 . S
C474 C475 1.385 . S
C474 C476 1.478 1_455 S
C475 H469 0.930 . S
C475 C471 1.400 . S
C475 C474 1.385 . S
C476 C474 1.478 1_655 S
C476 C478 1.381 . S
C476 C482 1.394 . S
C477 C473 1.495 1_655 S
C477 H483 0.959 . S
C477 H484 0.961 . S
C477 H485 0.960 . S
C478 C476 1.381 . S
C478 C479 1.394 . S
C478 H486 0.930 . S
C479 C478 1.394 . S
C479 C480 1.383 . S
C479 H487 0.929 . S
C480 C479 1.383 . S
C480 C481 1.377 . S
C481 H465 0.930 . S
C481 C480 1.377 . S
C481 C482 1.413 . S
C482 H466 0.888 1_655 S
C482 C476 1.394 . S
C482 C481 1.413 . S
H483 C477 0.959 . S
H484 C477 0.961 . S
H485 C477 0.960 . S
H486 C478 0.930 . S
H487 C479 0.929 . S
H488 C496 0.929 . S
H489 C498 0.930 . S
H490 C500 0.930 . S
H491 C503 0.929 . S
H492 C506 0.930 . S
H493 C508 0.960 . S
H494 C508 0.960 . S
H495 C508 0.960 . S
C496 H488 0.929 . S
C496 C497 1.377 . S
C496 C498 1.384 . S
C497 C496 1.377 . S
C497 C503 1.390 . S
C498 H489 0.930 . S
C498 C496 1.384 . S
C498 C499 1.372 . S
C499 C498 1.372 . S
C499 C500 1.400 . S
C499 C504 1.490 . S
C500 H490 0.930 . S
C500 C499 1.400 . S
C500 C503 1.386 . S
H501 C517 0.930 . S
H502 C518 0.931 . S
C503 H491 0.929 . S
C503 C497 1.390 . S
C503 C500 1.386 . S
C504 C499 1.490 . S
C504 C506 1.395 . S
C504 C507 1.403 . S
H505 C511 0.930 . S
C506 H492 0.930 . S
C506 C504 1.395 . S
C506 C509 1.403 . S
C507 C504 1.403 . S
C507 C508 1.524 . S
C507 C511 1.400 . S
C508 H493 0.960 . S
C508 H494 0.960 . S
C508 H495 0.960 . S
C508 C507 1.524 . S
C509 C506 1.403 . S
C509 C510 1.392 . S
C509 C513 1.495 . S
C510 C509 1.392 . S
C510 C511 1.385 . S
C510 C512 1.478 . S
C511 H505 0.930 . S
C511 C507 1.400 . S
C511 C510 1.385 . S
C512 C510 1.478 . S
C512 C514 1.381 . S
C512 C518 1.383 . S
C513 C509 1.495 . S
C513 H519 0.959 . S
C513 H520 0.961 . S
C513 H521 0.960 . S
C514 C512 1.381 . S
C514 C515 1.394 . S
C514 H522 0.930 . S
C515 C514 1.394 . S
C515 C516 1.383 . S
C515 H523 0.929 . S
C516 C515 1.383 . S
C516 C517 1.377 . S
C517 H501 0.930 . S
C517 C516 1.377 . S
C517 C518 1.379 . S
C518 H502 0.931 . S
C518 C512 1.383 . S
C518 C517 1.379 . S
H519 C513 0.959 . S
H520 C513 0.961 . S
H521 C513 0.960 . S
H522 C514 0.930 . S
H523 C515 0.929 . S
H524 C532 0.929 . S
H525 C534 0.930 . S
H526 C536 0.930 . S
H527 C539 0.929 . S
H528 C542 0.930 . S
H529 C544 0.960 . S
H530 C544 0.960 . S
H531 C544 0.960 . S
C532 H524 0.929 . S
C532 C533 1.377 . S
C532 C534 1.384 . S
C533 C532 1.377 . S
C533 C539 1.390 . S
C534 H525 0.930 . S
C534 C532 1.384 . S
C534 C535 1.372 . S
C535 C534 1.372 . S
C535 C536 1.400 . S
C535 C540 1.490 . S
C536 H526 0.930 . S
C536 C535 1.400 . S
C536 C539 1.386 . S
H537 C553 0.930 . S
H538 C554 0.931 . S
C539 H527 0.929 . S
C539 C533 1.390 . S
C539 C536 1.386 . S
C540 C535 1.490 . S
C540 C542 1.395 . S
C540 C543 1.403 . S
H541 C547 0.930 . S
C542 H528 0.930 . S
C542 C540 1.395 . S
C542 C545 1.403 . S
C543 C540 1.403 . S
C543 C544 1.524 . S
C543 C547 1.400 . S
C544 H529 0.960 . S
C544 H530 0.960 . S
C544 H531 0.960 . S
C544 C543 1.524 . S
C545 C542 1.403 . S
C545 C546 1.392 . S
C545 C549 1.495 . S
C546 C545 1.392 . S
C546 C547 1.385 . S
C546 C548 1.478 . S
C547 H541 0.930 . S
C547 C543 1.400 . S
C547 C546 1.385 . S
C548 C546 1.478 . S
C548 C550 1.381 . S
C548 C554 1.383 . S
C549 C545 1.495 . S
C549 H555 0.959 . S
C549 H556 0.961 . S
C549 H557 0.960 . S
C550 C548 1.381 . S
C550 C551 1.394 . S
C550 H558 0.930 . S
C551 C550 1.394 . S
C551 C552 1.383 . S
C551 H559 0.929 . S
C552 C551 1.383 . S
C552 C553 1.377 . S
C553 H537 0.930 . S
C553 C552 1.377 . S
C553 C554 1.379 . S
C554 H538 0.931 . S
C554 C548 1.383 . S
C554 C553 1.379 . S
H555 C549 0.959 . S
H556 C549 0.961 . S
H557 C549 0.960 . S
H558 C550 0.930 . S
H559 C551 0.929 . S
H560 C568 0.929 . S
H561 C570 0.930 . S
H562 C572 0.930 . S
H563 C575 0.929 . S
H564 C578 0.930 . S
H565 C580 0.960 . S
H566 C580 0.960 . S
H567 C580 0.960 . S
C568 H560 0.929 . S
C568 C569 1.377 . S
C568 C570 1.384 . S
C569 C568 1.377 . S
C569 C575 1.390 . S
C570 H561 0.930 . S
C570 C568 1.384 . S
C570 C571 1.372 . S
C571 C570 1.372 . S
C571 C572 1.400 . S
C571 C576 1.490 . S
C572 H562 0.930 . S
C572 C571 1.400 . S
C572 C575 1.386 . S
H573 C589 0.930 . S
H574 C590 0.931 . S
C575 H563 0.929 . S
C575 C569 1.390 . S
C575 C572 1.386 . S
C576 C571 1.490 . S
C576 C578 1.395 . S
C576 C579 1.403 . S
H577 C583 0.930 . S
C578 H564 0.930 . S
C578 C576 1.395 . S
C578 C581 1.403 . S
C579 C576 1.403 . S
C579 C580 1.524 . S
C579 C583 1.400 . S
C580 H565 0.960 . S
C580 H566 0.960 . S
C580 H567 0.960 . S
C580 C579 1.524 . S
C581 C578 1.403 . S
C581 C582 1.392 . S
C581 C585 1.495 . S
C582 C581 1.392 . S
C582 C583 1.385 . S
C582 C584 1.478 . S
C583 H577 0.930 . S
C583 C579 1.400 . S
C583 C582 1.385 . S
C584 C582 1.478 . S
C584 C586 1.381 . S
C584 C590 1.383 . S
C585 C581 1.495 . S
C585 H591 0.959 . S
C585 H592 0.961 . S
C585 H593 0.960 . S
C586 C584 1.381 . S
C586 C587 1.394 . S
C586 H594 0.930 . S
C587 C586 1.394 . S
C587 C588 1.383 . S
C587 H595 0.929 . S
C588 C587 1.383 . S
C588 C589 1.377 . S
C589 H573 0.930 . S
C589 C588 1.377 . S
C589 C590 1.379 . S
C590 H574 0.931 . S
C590 C584 1.383 . S
C590 C589 1.379 . S
H591 C585 0.959 . S
H592 C585 0.961 . S
H593 C585 0.960 . S
H594 C586 0.930 . S
H595 C587 0.929 . S
H596 C604 0.929 . S
H597 C606 0.930 . S
H598 C608 0.930 . S
H599 C611 0.929 . S
H600 C614 0.930 . S
H601 C616 0.960 . S
H602 C616 0.960 . S
H603 C616 0.960 . S
C604 H596 0.929 . S
C604 C605 1.377 . S
C604 C606 1.384 . S
C605 C604 1.377 . S
C605 C611 1.390 . S
C606 H597 0.930 . S
C606 C604 1.384 . S
C606 C607 1.372 . S
C607 C606 1.372 . S
C607 C608 1.400 . S
C607 C612 1.490 . S
C608 H598 0.930 . S
C608 C607 1.400 . S
C608 C611 1.386 . S
H609 C625 0.968 . S
H610 C626 0.931 . S
C611 H599 0.929 . S
C611 C605 1.390 . S
C611 C608 1.386 . S
C612 C607 1.490 . S
C612 C614 1.395 . S
C612 C615 1.403 . S
H613 C619 0.930 . S
C614 H600 0.930 . S
C614 C612 1.395 . S
C614 C617 1.403 . S
C615 C612 1.403 . S
C615 C616 1.524 . S
C615 C619 1.400 . S
C616 H601 0.960 . S
C616 H602 0.960 . S
C616 H603 0.960 . S
C616 C615 1.524 . S
C617 C614 1.403 . S
C617 C618 1.392 . S
C617 C621 1.495 . S
C618 C617 1.392 . S
C618 C619 1.385 . S
C618 C620 1.478 . S
C619 H613 0.930 . S
C619 C615 1.400 . S
C619 C618 1.385 . S
C620 C618 1.478 . S
C620 C622 1.381 . S
C620 C626 1.383 . S
C621 C617 1.495 . S
C621 H627 0.959 . S
C621 H628 0.961 . S
C621 H629 0.960 . S
C622 C620 1.381 . S
C622 C623 1.394 . S
C622 H630 0.930 . S
C623 C622 1.394 . S
C623 C624 1.383 . S
C623 H631 0.929 . S
C624 C623 1.383 . S
C624 C625 1.377 . S
C625 H609 0.968 . S
C625 C624 1.377 . S
C625 C626 1.379 . S
C626 H610 0.931 . S
C626 C620 1.383 . S
C626 C625 1.379 . S
H627 C621 0.959 . S
H628 C621 0.961 . S
H629 C621 0.960 . S
H630 C622 0.930 . S
H631 C623 0.929 . S
H632 C640 0.929 . S
H633 C642 0.930 . S
H634 C644 0.930 . S
H635 C647 0.929 . S
H636 C650 0.930 . S
H637 C652 0.960 . S
H638 C652 0.960 . S
H639 C652 0.960 . S
C640 H632 0.929 . S
C640 C641 1.377 . S
C640 C642 1.384 . S
C641 C640 1.377 . S
C641 C647 1.390 . S
C642 H633 0.930 . S
C642 C640 1.384 . S
C642 C643 1.372 . S
C643 C642 1.372 . S
C643 C644 1.400 . S
C643 C648 1.490 . S
C644 H634 0.930 . S
C644 C643 1.400 . S
C644 C647 1.386 . S
H645 C661 0.930 . S
H646 C662 0.931 . S
C647 H635 0.929 . S
C647 C641 1.390 . S
C647 C644 1.386 . S
C648 C643 1.490 . S
C648 C650 1.395 . S
C648 C651 1.403 . S
H649 C655 0.930 . S
C650 H636 0.930 . S
C650 C648 1.395 . S
C650 C653 1.403 . S
C651 C648 1.403 . S
C651 C652 1.524 . S
C651 C655 1.400 . S
C652 H637 0.960 . S
C652 H638 0.960 . S
C652 H639 0.960 . S
C652 C651 1.524 . S
C653 C650 1.403 . S
C653 C654 1.392 . S
C653 C657 1.495 . S
C654 C653 1.392 . S
C654 C655 1.385 . S
C654 C656 1.478 . S
C655 H649 0.930 . S
C655 C651 1.400 . S
C655 C654 1.385 . S
C656 C654 1.478 . S
C656 C658 1.381 . S
C656 C662 1.383 . S
C657 C653 1.495 . S
C657 H663 0.959 . S
C657 H664 0.961 . S
C657 H665 0.960 . S
C658 C656 1.381 . S
C658 C659 1.394 . S
C658 H666 0.930 . S
C659 C658 1.394 . S
C659 C660 1.383 . S
C659 H667 0.929 . S
C660 C659 1.383 . S
C660 C661 1.377 . S
C661 H645 0.930 . S
C661 C660 1.377 . S
C661 C662 1.379 . S
C662 H646 0.931 . S
C662 C656 1.383 . S
C662 C661 1.379 . S
H663 C657 0.959 . S
H664 C657 0.961 . S
H665 C657 0.960 . S
H666 C658 0.930 . S
H667 C659 0.929 . S
H668 C676 0.929 . S
H669 C678 0.930 . S
H670 C680 0.930 . S
H671 C683 0.929 . S
H672 C686 0.930 . S
H673 C688 0.960 . S
H674 C688 0.960 . S
H675 C688 0.960 . S
C676 H668 0.929 . S
C676 C677 1.377 . S
C676 C678 1.384 . S
C677 C676 1.377 . S
C677 C683 1.390 . S
C678 H669 0.930 . S
C678 C676 1.384 . S
C678 C679 1.372 . S
C679 C678 1.372 . S
C679 C680 1.400 . S
C679 C684 1.490 . S
C680 H670 0.930 . S
C680 C679 1.400 . S
C680 C683 1.386 . S
H681 C697 0.930 . S
H682 C698 0.931 . S
C683 H671 0.929 . S
C683 C677 1.390 . S
C683 C680 1.386 . S
C684 C679 1.490 . S
C684 C686 1.395 . S
C684 C687 1.403 . S
H685 C691 0.930 . S
C686 H672 0.930 . S
C686 C684 1.395 . S
C686 C689 1.403 . S
C687 C684 1.403 . S
C687 C688 1.524 . S
C687 C691 1.400 . S
C688 H673 0.960 . S
C688 H674 0.960 . S
C688 H675 0.960 . S
C688 C687 1.524 . S
C689 C686 1.403 . S
C689 C690 1.392 . S
C689 C693 1.495 . S
C690 C689 1.392 . S
C690 C691 1.385 . S
C690 C692 1.478 . S
C691 H685 0.930 . S
C691 C687 1.400 . S
C691 C690 1.385 . S
C692 C690 1.478 . S
C692 C694 1.381 . S
C692 C698 1.383 . S
C693 C689 1.495 . S
C693 H699 0.959 . S
C693 H700 0.961 . S
C693 H701 0.960 . S
C694 C692 1.381 . S
C694 C695 1.394 . S
C694 H702 0.930 . S
C695 C694 1.394 . S
C695 C696 1.383 . S
C695 H703 0.929 . S
C696 C695 1.383 . S
C696 C697 1.377 . S
C697 H681 0.930 . S
C697 C696 1.377 . S
C697 C698 1.379 . S
C698 H682 0.931 . S
C698 C692 1.383 . S
C698 C697 1.379 . S
H699 C693 0.959 . S
H700 C693 0.961 . S
H701 C693 0.960 . S
H702 C694 0.930 . S
H703 C695 0.929 . S
H704 C712 0.929 . S
H705 C714 0.930 . S
H706 C716 0.930 . S
H707 C719 0.929 . S
H708 C722 0.930 . S
H709 C724 0.960 . S
H710 C724 0.960 . S
H711 C724 0.960 . S
C712 H704 0.929 . S
C712 C713 1.377 . S
C712 C714 1.384 . S
C713 C712 1.377 . S
C713 C719 1.390 . S
C714 H705 0.930 . S
C714 C712 1.384 . S
C714 C715 1.372 . S
C715 C714 1.372 . S
C715 C716 1.400 . S
C715 C720 1.490 . S
C716 H706 0.930 . S
C716 C715 1.400 . S
C716 C719 1.386 . S
H717 C733 0.930 . S
H718 C734 0.931 . S
C719 H707 0.929 . S
C719 C713 1.390 . S
C719 C716 1.386 . S
C720 C715 1.490 . S
C720 C722 1.395 . S
C720 C723 1.403 . S
H721 C727 0.930 . S
C722 H708 0.930 . S
C722 C720 1.395 . S
C722 C725 1.403 . S
C723 C720 1.403 . S
C723 C724 1.524 . S
C723 C727 1.400 . S
C724 H709 0.960 . S
C724 H710 0.960 . S
C724 H711 0.960 . S
C724 C723 1.524 . S
C725 C722 1.403 . S
C725 C726 1.392 . S
C725 C729 1.495 . S
C726 C725 1.392 . S
C726 C727 1.385 . S
C726 C728 1.478 . S
C727 H721 0.930 . S
C727 C723 1.400 . S
C727 C726 1.385 . S
C728 C726 1.478 . S
C728 C730 1.381 . S
C728 C734 1.383 . S
C729 C725 1.495 . S
C729 H735 0.959 . S
C729 H736 0.961 . S
C729 H737 0.960 . S
C730 C728 1.381 . S
C730 C731 1.394 . S
C730 H738 0.930 . S
C731 C730 1.394 . S
C731 C732 1.383 . S
C731 H739 0.929 . S
C732 C731 1.383 . S
C732 C733 1.377 . S
C733 H717 0.930 . S
C733 C732 1.377 . S
C733 C734 1.379 . S
C734 H718 0.931 . S
C734 C728 1.383 . S
C734 C733 1.379 . S
H735 C729 0.959 . S
H736 C729 0.961 . S
H737 C729 0.960 . S
H738 C730 0.930 . S
H739 C731 0.929 . S
H740 C748 0.929 . S
H741 C750 0.930 . S
H742 C752 0.930 . S
H743 C755 0.929 . S
H744 C758 0.930 . S
H745 C760 0.960 . S
H746 C760 0.960 . S
H747 C760 0.960 . S
C748 H740 0.929 . S
C748 C749 1.377 . S
C748 C750 1.384 . S
C749 C748 1.377 . S
C749 C755 1.390 . S
C750 H741 0.930 . S
C750 C748 1.384 . S
C750 C751 1.372 . S
C751 C750 1.372 . S
C751 C752 1.400 . S
C751 C756 1.490 . S
C752 H742 0.930 . S
C752 C751 1.400 . S
C752 C755 1.386 . S
H753 C769 0.930 . S
H754 C770 0.931 . S
C755 H743 0.929 . S
C755 C749 1.390 . S
C755 C752 1.386 . S
C756 C751 1.490 . S
C756 C758 1.395 . S
C756 C759 1.403 . S
H757 C763 0.930 . S
C758 H744 0.930 . S
C758 C756 1.395 . S
C758 C761 1.403 . S
C759 C756 1.403 . S
C759 C760 1.524 . S
C759 C763 1.400 . S
C760 H745 0.960 . S
C760 H746 0.960 . S
C760 H747 0.960 . S
C760 C759 1.524 . S
C761 C758 1.403 . S
C761 C762 1.392 . S
C761 C765 1.495 . S
C762 C761 1.392 . S
C762 C763 1.385 . S
C762 C764 1.478 . S
C763 H757 0.930 . S
C763 C759 1.400 . S
C763 C762 1.385 . S
C764 C762 1.478 . S
C764 C766 1.381 . S
C764 C770 1.383 . S
C765 C761 1.495 . S
C765 H771 0.959 . S
C765 H772 0.961 . S
C765 H773 0.960 . S
C766 C764 1.381 . S
C766 C767 1.394 . S
C766 H774 0.930 . S
C767 C766 1.394 . S
C767 C768 1.383 . S
C767 H775 0.929 . S
C768 C767 1.383 . S
C768 C769 1.377 . S
C769 H753 0.930 . S
C769 C768 1.377 . S
C769 C770 1.379 . S
C770 H754 0.931 . S
C770 C764 1.383 . S
C770 C769 1.379 . S
H771 C765 0.959 . S
H772 C765 0.961 . S
H773 C765 0.960 . S
H774 C766 0.930 . S
H775 C767 0.929 . S
H776 C784 0.929 . S
H777 C786 0.930 . S
H778 C788 0.930 . S
H779 C791 0.929 . S
H780 C794 0.930 . S
H781 C796 0.960 . S
H782 C796 0.960 . S
H783 C796 0.960 . S
C784 H776 0.929 . S
C784 C785 1.377 . S
C784 C786 1.384 . S
C785 C784 1.377 . S
C785 C791 1.390 . S
C786 H777 0.930 . S
C786 C784 1.384 . S
C786 C787 1.372 . S
C787 C786 1.372 . S
C787 C788 1.400 . S
C787 C792 1.490 . S
C788 H778 0.930 . S
C788 C787 1.400 . S
C788 C791 1.386 . S
H789 C805 0.930 . S
H790 C806 0.931 . S
C791 H779 0.929 . S
C791 C785 1.390 . S
C791 C788 1.386 . S
C792 C787 1.490 . S
C792 C794 1.395 . S
C792 C795 1.403 . S
H793 C799 0.930 . S
C794 H780 0.930 . S
C794 C792 1.395 . S
C794 C797 1.403 . S
C795 C792 1.403 . S
C795 C796 1.524 . S
C795 C799 1.400 . S
C796 H781 0.960 . S
C796 H782 0.960 . S
C796 H783 0.960 . S
C796 C795 1.524 . S
C797 C794 1.403 . S
C797 C798 1.392 . S
C797 C801 1.495 . S
C798 C797 1.392 . S
C798 C799 1.385 . S
C798 C800 1.478 . S
C799 H793 0.930 . S
C799 C795 1.400 . S
C799 C798 1.385 . S
C800 C798 1.478 . S
C800 C802 1.381 . S
C800 C806 1.383 . S
C801 C797 1.495 . S
C801 H807 0.959 . S
C801 H808 0.961 . S
C801 H809 0.960 . S
C802 C800 1.381 . S
C802 C803 1.394 . S
C802 H810 0.930 . S
C803 C802 1.394 . S
C803 C804 1.383 . S
C803 H811 0.929 . S
C804 C803 1.383 . S
C804 C805 1.377 . S
C805 H789 0.930 . S
C805 C804 1.377 . S
C805 C806 1.379 . S
C806 H790 0.931 . S
C806 C800 1.383 . S
C806 C805 1.379 . S
H807 C801 0.959 . S
H808 C801 0.961 . S
H809 C801 0.960 . S
H810 C802 0.930 . S
H811 C803 0.929 . S
H812 C820 0.929 . S
H813 C822 0.930 . S
H814 C824 0.930 . S
H815 C827 0.929 . S
H816 C830 0.930 . S
H817 C832 0.960 . S
H818 C832 0.960 . S
H819 C832 0.960 . S
C820 H812 0.929 . S
C820 C821 1.377 . S
C820 C822 1.384 . S
C821 C820 1.377 . S
C821 C827 1.390 . S
C822 H813 0.930 . S
C822 C820 1.384 . S
C822 C823 1.372 . S
C823 C822 1.372 . S
C823 C824 1.400 . S
C823 C828 1.490 . S
C824 H814 0.930 . S
C824 C823 1.400 . S
C824 C827 1.386 . S
H825 C841 0.930 . S
H826 C842 0.931 . S
C827 H815 0.929 . S
C827 C821 1.390 . S
C827 C824 1.386 . S
C828 C823 1.490 . S
C828 C830 1.395 . S
C828 C831 1.403 . S
H829 C835 0.930 . S
C830 H816 0.930 . S
C830 C828 1.395 . S
C830 C833 1.403 . S
C831 C828 1.403 . S
C831 C832 1.524 . S
C831 C835 1.400 . S
C832 H817 0.960 . S
C832 H818 0.960 . S
C832 H819 0.960 . S
C832 C831 1.524 . S
C833 C830 1.403 . S
C833 C834 1.392 . S
C833 C837 1.495 . S
C834 C833 1.392 . S
C834 C835 1.385 . S
C834 C836 1.478 . S
C835 H829 0.930 . S
C835 C831 1.400 . S
C835 C834 1.385 . S
C836 C834 1.478 . S
C836 C838 1.381 . S
C836 C842 1.383 . S
C837 C833 1.495 . S
C837 H843 0.959 . S
C837 H844 0.961 . S
C837 H845 0.960 . S
C838 C836 1.381 . S
C838 C839 1.394 . S
C838 H846 0.930 . S
C839 C838 1.394 . S
C839 C840 1.383 . S
C839 H847 0.929 . S
C840 C839 1.383 . S
C840 C841 1.377 . S
C841 H825 0.930 . S
C841 C840 1.377 . S
C841 C842 1.379 . S
C842 H826 0.931 . S
C842 C836 1.383 . S
C842 C841 1.379 . S
H843 C837 0.959 . S
H844 C837 0.961 . S
H845 C837 0.960 . S
H846 C838 0.930 . S
H847 C839 0.929 . S
H848 C856 0.929 . S
H849 C858 0.930 . S
H850 C860 0.930 . S
H851 C863 0.929 . S
H852 C866 0.930 . S
H853 C868 0.960 . S
H854 C868 0.960 . S
H855 C868 0.960 . S
C856 H848 0.929 . S
C856 C857 1.377 . S
C856 C858 1.384 . S
C857 C856 1.377 . S
C857 C863 1.390 . S
C858 H849 0.930 . S
C858 C856 1.384 . S
C858 C859 1.372 . S
C859 C858 1.372 . S
C859 C860 1.400 . S
C859 C864 1.490 . S
C860 H850 0.930 . S
C860 C859 1.400 . S
C860 C863 1.386 . S
H861 C877 0.930 . S
H862 C878 0.931 . S
C863 H851 0.929 . S
C863 C857 1.390 . S
C863 C860 1.386 . S
C864 C859 1.490 . S
C864 C866 1.395 . S
C864 C867 1.403 . S
H865 C871 0.930 . S
C866 H852 0.930 . S
C866 C864 1.395 . S
C866 C869 1.403 . S
C867 C864 1.403 . S
C867 C868 1.524 . S
C867 C871 1.400 . S
C868 H853 0.960 . S
C868 H854 0.960 . S
C868 H855 0.960 . S
C868 C867 1.524 . S
C869 C866 1.403 . S
C869 C870 1.392 . S
C869 C873 1.495 . S
C870 C869 1.392 . S
C870 C871 1.385 . S
C870 C872 1.478 . S
C871 H865 0.930 . S
C871 C867 1.400 . S
C871 C870 1.385 . S
C872 C870 1.478 . S
C872 C874 1.381 . S
C872 C878 1.383 . S
C873 C869 1.495 . S
C873 H879 0.959 . S
C873 H880 0.961 . S
C873 H881 0.960 . S
C874 C872 1.381 . S
C874 C875 1.394 . S
C874 H882 0.930 . S
C875 C874 1.394 . S
C875 C876 1.383 . S
C875 H883 0.929 . S
C876 C875 1.383 . S
C876 C877 1.377 . S
C877 H861 0.930 . S
C877 C876 1.377 . S
C877 C878 1.379 . S
C878 H862 0.931 . S
C878 C872 1.383 . S
C878 C877 1.379 . S
H879 C873 0.959 . S
H880 C873 0.961 . S
H881 C873 0.960 . S
H882 C874 0.930 . S
H883 C875 0.929 . S
H884 C892 0.929 . S
H885 C894 0.930 . S
H886 C896 0.930 . S
H887 C899 0.929 . S
H888 C902 0.930 . S
H889 C904 0.960 . S
H890 C904 0.960 . S
H891 C904 0.960 . S
C892 H884 0.929 . S
C892 C893 1.377 . S
C892 C894 1.384 . S
C893 C892 1.377 . S
C893 C899 1.390 . S
C894 H885 0.930 . S
C894 C892 1.384 . S
C894 C895 1.372 . S
C895 C894 1.372 . S
C895 C896 1.400 . S
C895 C900 1.490 . S
C896 H886 0.930 . S
C896 C895 1.400 . S
C896 C899 1.386 . S
H897 C913 0.930 . S
H898 C914 0.931 . S
C899 H887 0.929 . S
C899 C893 1.390 . S
C899 C896 1.386 . S
C900 C895 1.490 . S
C900 C902 1.395 . S
C900 C903 1.403 . S
H901 C907 0.930 . S
C902 H888 0.930 . S
C902 C900 1.395 . S
C902 C905 1.403 . S
C903 C900 1.403 . S
C903 C904 1.524 . S
C903 C907 1.400 . S
C904 H889 0.960 . S
C904 H890 0.960 . S
C904 H891 0.960 . S
C904 C903 1.524 . S
C905 C902 1.403 . S
C905 C906 1.392 . S
C905 C909 1.495 1_655 S
C906 C905 1.392 . S
C906 C907 1.385 . S
C906 C908 1.478 . S
C907 H901 0.930 . S
C907 C903 1.400 . S
C907 C906 1.385 . S
C908 C906 1.478 . S
C908 C910 1.381 . S
C908 C914 1.383 . S
C909 C905 1.495 1_455 S
C909 H915 0.959 . S
C909 H916 0.961 . S
C909 H917 0.960 . S
C910 C908 1.381 . S
C910 C911 1.394 . S
C910 H918 0.930 . S
C911 C910 1.394 . S
C911 C912 1.383 . S
C911 H919 0.929 . S
C912 C911 1.383 . S
C912 C913 1.377 . S
C913 H897 0.930 . S
C913 C912 1.377 . S
C913 C914 1.379 . S
C914 H898 0.931 . S
C914 C908 1.383 . S
C914 C913 1.379 . S
H915 C909 0.959 . S
H916 C909 0.961 . S
H917 C909 0.960 . S
H918 C910 0.930 . S
H919 C911 0.929 . S
H920 C928 0.929 . S
H921 C930 0.930 . S
H922 C932 0.930 . S
H923 C935 0.929 . S
H924 C938 0.930 . S
H925 C940 0.960 . S
H926 C940 0.960 . S
H927 C940 0.960 . S
C928 H920 0.929 . S
C928 C929 1.377 . S
C928 C930 1.384 . S
C929 C928 1.377 . S
C929 C935 1.390 . S
C930 H921 0.930 . S
C930 C928 1.384 . S
C930 C931 1.372 . S
C931 C930 1.372 . S
C931 C932 1.400 . S
C931 C936 1.490 . S
C932 H922 0.930 . S
C932 C931 1.400 . S
C932 C935 1.386 . S
H933 C949 0.930 . S
H934 C950 0.931 . S
C935 H923 0.929 . S
C935 C929 1.390 . S
C935 C932 1.386 . S
C936 C931 1.490 . S
C936 C938 1.395 . S
C936 C939 1.403 . S
H937 C943 0.930 . S
C938 H924 0.930 . S
C938 C936 1.395 . S
C938 C941 1.403 . S
C939 C936 1.403 . S
C939 C940 1.524 . S
C939 C943 1.400 . S
C940 H925 0.960 . S
C940 H926 0.960 . S
C940 H927 0.960 . S
C940 C939 1.524 . S
C941 C938 1.403 . S
C941 C942 1.392 . S
C941 C945 1.495 . S
C942 C941 1.392 . S
C942 C943 1.385 . S
C942 C944 1.478 . S
C943 H937 0.930 . S
C943 C939 1.400 . S
C943 C942 1.385 . S
C944 C942 1.478 . S
C944 C946 1.381 . S
C944 C950 1.383 1_565 S
C945 C941 1.495 . S
C945 H951 0.959 . S
C945 H952 0.961 . S
C945 H953 0.960 . S
C946 C944 1.381 . S
C946 C947 1.394 1_565 S
C946 H954 0.930 . S
C947 C946 1.394 1_545 S
C947 C948 1.383 . S
C947 H955 0.929 . S
C948 C947 1.383 . S
C948 C949 1.377 . S
C949 H933 0.930 . S
C949 C948 1.377 . S
C949 C950 1.379 . S
C950 H934 0.931 . S
C950 C944 1.383 1_545 S
C950 C949 1.379 . S
H951 C945 0.959 . S
H952 C945 0.961 . S
H953 C945 0.960 . S
H954 C946 0.930 . S
H955 C947 0.929 . S
H956 C964 0.929 . S
H957 C966 0.930 . S
H958 C968 0.930 . S
H959 C971 0.929 . S
H960 C974 0.930 . S
H961 C976 0.960 . S
H962 C976 0.960 . S
H963 C976 0.960 . S
C964 H956 0.929 . S
C964 C965 1.377 . S
C964 C966 1.384 . S
C965 C964 1.377 . S
C965 C971 1.390 . S
C966 H957 0.930 . S
C966 C964 1.384 . S
C966 C967 1.372 . S
C967 C966 1.372 . S
C967 C968 1.400 . S
C967 C972 1.490 . S
C968 H958 0.930 . S
C968 C967 1.400 . S
C968 C971 1.386 . S
H969 C985 0.930 . S
H970 C986 0.931 . S
C971 H959 0.929 . S
C971 C965 1.390 . S
C971 C968 1.386 . S
C972 C967 1.490 . S
C972 C974 1.395 . S
C972 C975 1.403 . S
H973 C979 0.930 . S
C974 H960 0.930 . S
C974 C972 1.395 . S
C974 C977 1.403 . S
C975 C972 1.403 . S
C975 C976 1.524 . S
C975 C979 1.400 . S
C976 H961 0.960 . S
C976 H962 0.960 . S
C976 H963 0.960 . S
C976 C975 1.524 . S
C977 C974 1.403 . S
C977 C978 1.392 . S
C977 C981 1.495 . S
C978 C977 1.392 . S
C978 C979 1.385 . S
C978 C980 1.478 . S
C979 H973 0.930 . S
C979 C975 1.400 . S
C979 C978 1.385 . S
C980 C978 1.478 . S
C980 C982 1.381 . S
C980 C986 1.383 . S
C981 C977 1.495 . S
C981 H987 0.959 . S
C981 H988 0.961 . S
C981 H989 0.960 . S
C982 C980 1.381 . S
C982 C983 1.394 . S
C982 H990 0.930 . S
C983 C982 1.394 . S
C983 C984 1.383 . S
C983 H991 0.929 . S
C984 C983 1.383 . S
C984 C985 1.377 . S
C985 H969 0.930 . S
C985 C984 1.377 . S
C985 C986 1.379 . S
C986 H970 0.931 . S
C986 C980 1.383 . S
C986 C985 1.379 . S
H987 C981 0.959 . S
H988 C981 0.961 . S
H989 C981 0.960 . S
H990 C982 0.930 . S
H991 C983 0.929 . S
H992 C1000 0.929 . S
H993 C1002 0.930 . S
H994 C1004 0.930 . S
H995 C1007 0.929 . S
H996 C1010 0.931 . S
H997 C1012 0.960 . S
H998 C1012 0.960 . S
H999 C1012 0.960 . S
C1000 H992 0.929 . S
C1000 C1001 1.377 . S
C1000 C1002 1.384 . S
C1001 C1000 1.377 . S
C1001 C1007 1.390 . S
C1002 H993 0.930 . S
C1002 C1000 1.384 . S
C1002 C1003 1.372 . S
C1003 C1002 1.372 . S
C1003 C1004 1.400 . S
C1003 C1008 1.490 . S
C1004 H994 0.930 . S
C1004 C1003 1.400 . S
C1004 C1007 1.386 . S
H1005 C1021 0.930 . S
H1006 C1022 0.931 . S
C1007 H995 0.929 . S
C1007 C1001 1.390 . S
C1007 C1004 1.386 . S
C1008 C1003 1.490 . S
C1008 C1010 1.395 . S
C1008 C1011 1.403 . S
H1009 C1015 0.930 . S
C1010 H996 0.931 . S
C1010 C1008 1.395 . S
C1010 C1013 1.403 1_556 S
C1011 C1008 1.403 . S
C1011 C1012 1.524 . S
C1011 C1015 1.400 . S
C1012 H997 0.960 . S
C1012 H998 0.960 . S
C1012 H999 0.960 . S
C1012 C1011 1.524 . S
C1013 C1010 1.403 1_554 S
C1013 C1014 1.392 . S
C1013 C1017 1.495 . S
C1014 C1013 1.392 . S
C1014 C1015 1.385 1_554 S
C1014 C1016 1.478 1_545 S
C1015 H1009 0.930 . S
C1015 C1011 1.400 . S
C1015 C1014 1.385 1_556 S
C1016 C1014 1.478 1_565 S
C1016 C1018 1.381 . S
C1016 C1022 1.383 1_565 S
C1017 C1013 1.495 . S
C1017 H1023 0.959 . S
C1017 H1024 0.961 . S
C1017 H1025 0.960 1_545 S
C1018 C1016 1.381 . S
C1018 C1019 1.394 . S
C1018 H1026 0.930 . S
C1019 C1018 1.394 . S
C1019 C1020 1.383 . S
C1019 H1027 0.929 . S
C1020 C1019 1.383 . S
C1020 C1021 1.377 . S
C1021 H1005 0.930 . S
C1021 C1020 1.377 . S
C1021 C1022 1.379 1_565 S
C1022 H1006 0.931 . S
C1022 C1016 1.383 1_545 S
C1022 C1021 1.379 1_545 S
H1023 C1017 0.959 . S
H1024 C1017 0.961 . S
H1025 C1017 0.960 1_565 S
H1026 C1018 0.930 . S
H1027 C1019 0.929 . S
H1028 C1036 0.929 . S
H1029 C1038 0.930 . S
H1030 C1040 0.930 . S
H1031 C1043 0.929 . S
H1032 C1046 0.930 . S
H1033 C1048 0.960 . S
H1034 C1048 0.960 . S
H1035 C1048 0.960 . S
C1036 H1028 0.929 . S
C1036 C1037 1.377 . S
C1036 C1038 1.384 . S
C1037 C1036 1.377 . S
C1037 C1043 1.390 . S
C1038 H1029 0.930 . S
C1038 C1036 1.384 . S
C1038 C1039 1.372 . S
C1039 C1038 1.372 . S
C1039 C1040 1.400 . S
C1039 C1044 1.490 . S
C1040 H1030 0.930 . S
C1040 C1039 1.400 . S
C1040 C1043 1.386 . S
H1041 C1057 0.930 . S
H1042 C1058 0.931 . S
C1043 H1031 0.929 . S
C1043 C1037 1.390 . S
C1043 C1040 1.386 . S
C1044 C1039 1.490 . S
C1044 C1046 1.395 . S
C1044 C1047 1.403 . S
H1045 C1051 0.930 . S
C1046 H1032 0.930 . S
C1046 C1044 1.395 . S
C1046 C1049 1.403 . S
C1047 C1044 1.403 . S
C1047 C1048 1.524 . S
C1047 C1051 1.400 . S
C1048 H1033 0.960 . S
C1048 H1034 0.960 . S
C1048 H1035 0.960 . S
C1048 C1047 1.524 . S
C1049 C1046 1.403 . S
C1049 C1050 1.392 . S
C1049 C1053 1.495 . S
C1050 C1049 1.392 . S
C1050 C1051 1.385 . S
C1050 C1052 1.478 . S
C1051 H1045 0.930 . S
C1051 C1047 1.400 . S
C1051 C1050 1.385 . S
C1052 C1050 1.478 . S
C1052 C1054 1.381 . S
C1052 C1058 1.383 . S
C1053 C1049 1.495 . S
C1053 H1059 0.959 . S
C1053 H1060 0.961 . S
C1053 H1061 0.960 . S
C1054 C1052 1.381 . S
C1054 C1055 1.394 . S
C1054 H1062 0.930 . S
C1055 C1054 1.394 . S
C1055 C1056 1.383 . S
C1055 H1063 0.929 . S
C1056 C1055 1.383 . S
C1056 C1057 1.377 . S
C1057 H1041 0.930 . S
C1057 C1056 1.377 . S
C1057 C1058 1.379 . S
C1058 H1042 0.931 . S
C1058 C1052 1.383 . S
C1058 C1057 1.379 . S
H1059 C1053 0.959 . S
H1060 C1053 0.961 . S
H1061 C1053 0.960 . S
H1062 C1054 0.930 . S
H1063 C1055 0.929 . S
H1064 C1072 0.929 . S
H1065 C1074 0.931 1_565 S
H1066 C1076 0.930 . S
H1067 C1079 0.929 . S
H1068 C1082 0.930 . S
H1069 C1084 0.960 . S
H1070 C1084 0.960 . S
H1071 C1084 0.960 . S
C1072 H1064 0.929 . S
C1072 C1073 1.377 . S
C1072 C1074 1.384 1_565 S
C1073 C1072 1.377 . S
C1073 C1079 1.390 1_565 S
C1074 H1065 0.931 1_545 S
C1074 C1072 1.384 1_545 S
C1074 C1075 1.372 . S
C1075 C1074 1.372 . S
C1075 C1076 1.400 . S
C1075 C1080 1.490 . S
C1076 H1066 0.930 . S
C1076 C1075 1.400 . S
C1076 C1079 1.386 . S
H1077 C1093 0.930 . S
H1078 C1094 0.931 . S
C1079 H1067 0.929 . S
C1079 C1073 1.390 1_545 S
C1079 C1076 1.386 . S
C1080 C1075 1.490 . S
C1080 C1082 1.395 . S
C1080 C1083 1.403 . S
H1081 C1087 0.930 . S
C1082 H1068 0.930 . S
C1082 C1080 1.395 . S
C1082 C1085 1.403 . S
C1083 C1080 1.403 . S
C1083 C1084 1.524 . S
C1083 C1087 1.400 . S
C1084 H1069 0.960 . S
C1084 H1070 0.960 . S
C1084 H1071 0.960 . S
C1084 C1083 1.524 . S
C1085 C1082 1.403 . S
C1085 C1086 1.392 . S
C1085 C1089 1.495 . S
C1086 C1085 1.392 . S
C1086 C1087 1.385 . S
C1086 C1088 1.478 . S
C1087 H1081 0.930 . S
C1087 C1083 1.400 . S
C1087 C1086 1.385 . S
C1088 C1086 1.478 . S
C1088 C1090 1.381 . S
C1088 C1094 1.383 . S
C1089 C1085 1.495 . S
C1089 H1095 0.959 . S
C1089 H1096 0.961 . S
C1089 H1097 0.960 . S
C1090 C1088 1.381 . S
C1090 C1091 1.394 . S
C1090 H1098 0.930 . S
C1091 C1090 1.394 . S
C1091 C1092 1.383 . S
C1091 H1099 0.929 . S
C1092 C1091 1.383 . S
C1092 C1093 1.377 . S
C1093 H1077 0.930 . S
C1093 C1092 1.377 . S
C1093 C1094 1.379 . S
C1094 H1078 0.931 . S
C1094 C1088 1.383 . S
C1094 C1093 1.379 . S
H1095 C1089 0.959 . S
H1096 C1089 0.961 . S
H1097 C1089 0.960 . S
H1098 C1090 0.930 . S
H1099 C1091 0.929 . S
H1100 C1108 0.929 . S
H1101 C1110 0.930 . S
H1102 C1112 0.930 . S
H1103 C1115 0.929 . S
H1104 C1118 0.930 . S
H1105 C1120 0.960 . S
H1106 C1120 0.960 . S
H1107 C1120 0.960 . S
C1108 H1100 0.929 . S
C1108 C1109 1.377 . S
C1108 C1110 1.384 . S
C1109 C1108 1.377 . S
C1109 C1115 1.390 . S
C1110 H1101 0.930 . S
C1110 C1108 1.384 . S
C1110 C1111 1.372 . S
C1111 C1110 1.372 . S
C1111 C1112 1.400 . S
C1111 C1116 1.490 . S
C1112 H1102 0.930 . S
C1112 C1111 1.400 . S
C1112 C1115 1.386 . S
H1113 C1129 0.930 . S
H1114 C1130 0.931 . S
C1115 H1103 0.929 . S
C1115 C1109 1.390 . S
C1115 C1112 1.386 . S
C1116 C1111 1.490 . S
C1116 C1118 1.395 . S
C1116 C1119 1.403 . S
H1117 C1123 0.930 . S
C1118 H1104 0.930 . S
C1118 C1116 1.395 . S
C1118 C1121 1.403 . S
C1119 C1116 1.403 . S
C1119 C1120 1.524 . S
C1119 C1123 1.400 . S
C1120 H1105 0.960 . S
C1120 H1106 0.960 . S
C1120 H1107 0.960 . S
C1120 C1119 1.524 . S
C1121 C1118 1.403 . S
C1121 C1122 1.392 . S
C1121 C1125 1.495 . S
C1122 C1121 1.392 . S
C1122 C1123 1.385 . S
C1122 C1124 1.478 . S
C1123 H1117 0.930 . S
C1123 C1119 1.400 . S
C1123 C1122 1.385 . S
C1124 C1122 1.478 . S
C1124 C1126 1.381 . S
C1124 C1130 1.383 . S
C1125 C1121 1.495 . S
C1125 H1131 0.959 . S
C1125 H1132 0.961 . S
C1125 H1133 0.960 . S
C1126 C1124 1.381 . S
C1126 C1127 1.394 . S
C1126 H1134 0.930 . S
C1127 C1126 1.394 . S
C1127 C1128 1.383 . S
C1127 H1135 0.929 . S
C1128 C1127 1.383 . S
C1128 C1129 1.377 . S
C1129 H1113 0.930 . S
C1129 C1128 1.377 . S
C1129 C1130 1.379 . S
C1130 H1114 0.931 . S
C1130 C1124 1.383 . S
C1130 C1129 1.379 . S
H1131 C1125 0.959 . S
H1132 C1125 0.961 . S
H1133 C1125 0.960 . S
H1134 C1126 0.930 . S
H1135 C1127 0.929 . S
H1136 C1144 0.929 . S
H1137 C1146 0.918 1_545 S
H1138 C1148 0.930 . S
H1139 C1151 0.929 . S
H1140 C1154 0.930 . S
H1141 C1156 0.960 . S
H1142 C1156 0.960 . S
H1143 C1156 0.960 . S
C1144 H1136 0.929 . S
C1144 C1145 1.377 . S
C1144 C1146 1.431 . S
C1145 C1144 1.377 . S
C1145 C1151 1.390 . S
C1146 H1137 0.918 1_565 S
C1146 C1144 1.431 . S
C1146 C1147 1.338 1_565 S
C1147 C1146 1.338 1_545 S
C1147 C1148 1.400 . S
C1147 C1152 1.490 . S
C1148 H1138 0.930 . S
C1148 C1147 1.400 . S
C1148 C1151 1.386 1_545 S
H1149 C1165 0.930 . S
H1150 C1166 0.931 . S
C1151 H1139 0.929 . S
C1151 C1145 1.390 . S
C1151 C1148 1.386 1_565 S
C1152 C1147 1.490 . S
C1152 C1154 1.395 . S
C1152 C1155 1.403 . S
H1153 C1159 0.930 . S
C1154 H1140 0.930 . S
C1154 C1152 1.395 . S
C1154 C1157 1.403 . S
C1155 C1152 1.403 . S
C1155 C1156 1.524 . S
C1155 C1159 1.400 . S
C1156 H1141 0.960 . S
C1156 H1142 0.960 . S
C1156 H1143 0.960 . S
C1156 C1155 1.524 . S
C1157 C1154 1.403 . S
C1157 C1158 1.392 . S
C1157 C1161 1.495 . S
C1158 C1157 1.392 . S
C1158 C1159 1.385 . S
C1158 C1160 1.478 . S
C1159 H1153 0.930 . S
C1159 C1155 1.400 . S
C1159 C1158 1.385 . S
C1160 C1158 1.478 . S
C1160 C1162 1.381 . S
C1160 C1166 1.383 . S
C1161 C1157 1.495 . S
C1161 H1167 0.959 . S
C1161 H1168 0.961 . S
C1161 H1169 0.960 . S
C1162 C1160 1.381 . S
C1162 C1163 1.394 . S
C1162 H1170 0.930 . S
C1163 C1162 1.394 . S
C1163 C1164 1.383 . S
C1163 H1171 0.929 . S
C1164 C1163 1.383 . S
C1164 C1165 1.377 . S
C1165 H1149 0.930 . S
C1165 C1164 1.377 . S
C1165 C1166 1.379 . S
C1166 H1150 0.931 . S
C1166 C1160 1.383 . S
C1166 C1165 1.379 . S
H1167 C1161 0.959 . S
H1168 C1161 0.961 . S
H1169 C1161 0.960 . S
H1170 C1162 0.930 . S
H1171 C1163 0.929 . S
H1172 C1180 0.929 . S
H1173 C1182 0.930 . S
H1174 C1184 0.930 . S
H1175 C1187 0.929 . S
H1176 C1190 0.930 . S
H1177 C1192 0.960 . S
H1178 C1192 0.960 . S
H1179 C1192 0.960 . S
C1180 H1172 0.929 . S
C1180 C1181 1.377 . S
C1180 C1182 1.384 . S
C1181 C1180 1.377 . S
C1181 C1187 1.390 . S
C1182 H1173 0.930 . S
C1182 C1180 1.384 . S
C1182 C1183 1.372 . S
C1183 C1182 1.372 . S
C1183 C1184 1.400 . S
C1183 C1188 1.490 . S
C1184 H1174 0.930 . S
C1184 C1183 1.400 . S
C1184 C1187 1.386 . S
H1185 C1201 0.930 . S
H1186 C1202 0.931 . S
C1187 H1175 0.929 . S
C1187 C1181 1.390 . S
C1187 C1184 1.386 . S
C1188 C1183 1.490 . S
C1188 C1190 1.395 . S
C1188 C1191 1.403 . S
H1189 C1195 0.930 . S
C1190 H1176 0.930 . S
C1190 C1188 1.395 . S
C1190 C1193 1.403 . S
C1191 C1188 1.403 . S
C1191 C1192 1.524 . S
C1191 C1195 1.400 . S
C1192 H1177 0.960 . S
C1192 H1178 0.960 . S
C1192 H1179 0.960 . S
C1192 C1191 1.524 . S
C1193 C1190 1.403 . S
C1193 C1194 1.392 . S
C1193 C1197 1.495 . S
C1194 C1193 1.392 . S
C1194 C1195 1.385 . S
C1194 C1196 1.478 . S
C1195 H1189 0.930 . S
C1195 C1191 1.400 . S
C1195 C1194 1.385 . S
C1196 C1194 1.478 . S
C1196 C1198 1.381 . S
C1196 C1202 1.383 . S
C1197 C1193 1.495 . S
C1197 H1203 0.959 . S
C1197 H1204 0.961 . S
C1197 H1205 0.960 . S
C1198 C1196 1.381 . S
C1198 C1199 1.394 . S
C1198 H1206 0.930 . S
C1199 C1198 1.394 . S
C1199 C1200 1.383 . S
C1199 H1207 0.929 . S
C1200 C1199 1.383 . S
C1200 C1201 1.377 . S
C1201 H1185 0.930 . S
C1201 C1200 1.377 . S
C1201 C1202 1.379 . S
C1202 H1186 0.931 . S
C1202 C1196 1.383 . S
C1202 C1201 1.379 . S
H1203 C1197 0.959 . S
H1204 C1197 0.961 . S
H1205 C1197 0.960 . S
H1206 C1198 0.930 . S
H1207 C1199 0.929 . S
H1208 C1216 0.929 . S
H1209 C1218 0.930 . S
H1210 C1220 0.930 . S
H1211 C1223 0.929 . S
H1212 C1226 0.930 . S
H1213 C1228 0.960 . S
H1214 C1228 0.960 . S
H1215 C1228 0.960 . S
C1216 H1208 0.929 . S
C1216 C1217 1.377 . S
C1216 C1218 1.384 . S
C1217 C1216 1.377 . S
C1217 C1223 1.390 . S
C1218 H1209 0.930 . S
C1218 C1216 1.384 . S
C1218 C1219 1.372 . S
C1219 C1218 1.372 . S
C1219 C1220 1.400 . S
C1219 C1224 1.490 . S
C1220 H1210 0.930 . S
C1220 C1219 1.400 . S
C1220 C1223 1.386 . S
H1221 C1237 0.930 . S
H1222 C1238 0.931 . S
C1223 H1211 0.929 . S
C1223 C1217 1.390 . S
C1223 C1220 1.386 . S
C1224 C1219 1.490 . S
C1224 C1226 1.395 . S
C1224 C1227 1.403 . S
H1225 C1231 0.930 . S
C1226 H1212 0.930 . S
C1226 C1224 1.395 . S
C1226 C1229 1.403 . S
C1227 C1224 1.403 . S
C1227 C1228 1.524 . S
C1227 C1231 1.400 . S
C1228 H1213 0.960 . S
C1228 H1214 0.960 . S
C1228 H1215 0.960 . S
C1228 C1227 1.524 . S
C1229 C1226 1.403 . S
C1229 C1230 1.392 . S
C1229 C1233 1.495 . S
C1230 C1229 1.392 . S
C1230 C1231 1.385 . S
C1230 C1232 1.478 . S
C1231 H1225 0.930 . S
C1231 C1227 1.400 . S
C1231 C1230 1.385 . S
C1232 C1230 1.478 . S
C1232 C1234 1.381 . S
C1232 C1238 1.383 . S
C1233 C1229 1.495 . S
C1233 H1239 0.959 . S
C1233 H1240 0.961 . S
C1233 H1241 0.960 . S
C1234 C1232 1.381 . S
C1234 C1235 1.394 . S
C1234 H1242 0.930 . S
C1235 C1234 1.394 . S
C1235 C1236 1.383 . S
C1235 H1243 0.929 . S
C1236 C1235 1.383 . S
C1236 C1237 1.377 . S
C1237 H1221 0.930 . S
C1237 C1236 1.377 . S
C1237 C1238 1.379 . S
C1238 H1222 0.931 . S
C1238 C1232 1.383 . S
C1238 C1237 1.379 . S
H1239 C1233 0.959 . S
H1240 C1233 0.961 . S
H1241 C1233 0.960 . S
H1242 C1234 0.930 . S
H1243 C1235 0.929 . S
H1244 C1252 0.929 . S
H1245 C1254 0.930 . S
H1246 C1256 0.930 . S
H1247 C1259 0.929 . S
H1248 C1262 0.930 . S
H1249 C1264 0.960 . S
H1250 C1264 0.960 . S
H1251 C1264 0.960 . S
C1252 H1244 0.929 . S
C1252 C1253 1.377 . S
C1252 C1254 1.384 . S
C1253 C1252 1.377 . S
C1253 C1259 1.390 . S
C1254 H1245 0.930 . S
C1254 C1252 1.384 . S
C1254 C1255 1.372 . S
C1255 C1254 1.372 . S
C1255 C1256 1.400 . S
C1255 C1260 1.490 . S
C1256 H1246 0.930 . S
C1256 C1255 1.400 . S
C1256 C1259 1.386 . S
H1257 C1273 0.930 . S
H1258 C1274 0.931 . S
C1259 H1247 0.929 . S
C1259 C1253 1.390 . S
C1259 C1256 1.386 . S
C1260 C1255 1.490 . S
C1260 C1262 1.395 . S
C1260 C1263 1.403 . S
H1261 C1267 0.930 . S
C1262 H1248 0.930 . S
C1262 C1260 1.395 . S
C1262 C1265 1.403 . S
C1263 C1260 1.403 . S
C1263 C1264 1.524 . S
C1263 C1267 1.400 . S
C1264 H1249 0.960 . S
C1264 H1250 0.960 . S
C1264 H1251 0.960 . S
C1264 C1263 1.524 . S
C1265 C1262 1.403 . S
C1265 C1266 1.392 . S
C1265 C1269 1.495 . S
C1266 C1265 1.392 . S
C1266 C1267 1.385 . S
C1266 C1268 1.478 . S
C1267 H1261 0.930 . S
C1267 C1263 1.400 . S
C1267 C1266 1.385 . S
C1268 C1266 1.478 . S
C1268 C1270 1.381 . S
C1268 C1274 1.383 . S
C1269 C1265 1.495 . S
C1269 H1275 0.959 . S
C1269 H1276 0.961 . S
C1269 H1277 0.960 . S
C1270 C1268 1.381 . S
C1270 C1271 1.394 . S
C1270 H1278 0.930 . S
C1271 C1270 1.394 . S
C1271 C1272 1.383 . S
C1271 H1279 0.933 . S
C1272 C1271 1.383 . S
C1272 C1273 1.377 . S
C1273 H1257 0.930 . S
C1273 C1272 1.377 . S
C1273 C1274 1.379 . S
C1274 H1258 0.931 . S
C1274 C1268 1.383 . S
C1274 C1273 1.379 . S
H1275 C1269 0.959 . S
H1276 C1269 0.961 . S
H1277 C1269 0.960 . S
H1278 C1270 0.930 . S
H1279 C1271 0.933 . S
H1280 C1288 0.929 . S
H1281 C1290 0.930 . S
H1282 C1292 0.930 . S
H1283 C1295 0.929 . S
H1284 C1298 0.930 . S
H1285 C1300 0.960 . S
H1286 C1300 0.960 . S
H1287 C1300 0.960 . S
C1288 H1280 0.929 . S
C1288 C1289 1.377 . S
C1288 C1290 1.384 . S
C1289 C1288 1.377 . S
C1289 C1295 1.390 . S
C1290 H1281 0.930 . S
C1290 C1288 1.384 . S
C1290 C1291 1.372 . S
C1291 C1290 1.372 . S
C1291 C1292 1.400 . S
C1291 C1296 1.490 . S
C1292 H1282 0.930 . S
C1292 C1291 1.400 . S
C1292 C1295 1.386 . S
H1293 C1309 0.930 . S
H1294 C1310 0.931 . S
C1295 H1283 0.929 . S
C1295 C1289 1.390 . S
C1295 C1292 1.386 . S
C1296 C1291 1.490 . S
C1296 C1298 1.395 . S
C1296 C1299 1.403 . S
H1297 C1303 0.930 . S
C1298 H1284 0.930 . S
C1298 C1296 1.395 . S
C1298 C1301 1.403 . S
C1299 C1296 1.403 . S
C1299 C1300 1.524 . S
C1299 C1303 1.400 . S
C1300 H1285 0.960 . S
C1300 H1286 0.960 . S
C1300 H1287 0.960 . S
C1300 C1299 1.524 . S
C1301 C1298 1.403 . S
C1301 C1302 1.392 . S
C1301 C1305 1.495 . S
C1302 C1301 1.392 . S
C1302 C1303 1.385 . S
C1302 C1304 1.478 . S
C1303 H1297 0.930 . S
C1303 C1299 1.400 . S
C1303 C1302 1.385 . S
C1304 C1302 1.478 . S
C1304 C1306 1.381 . S
C1304 C1310 1.383 . S
C1305 C1301 1.495 . S
C1305 H1311 0.959 . S
C1305 H1312 0.961 . S
C1305 H1313 0.960 . S
C1306 C1304 1.381 . S
C1306 C1307 1.394 . S
C1306 H1314 0.930 . S
C1307 C1306 1.394 . S
C1307 C1308 1.383 . S
C1307 H1315 0.929 . S
C1308 C1307 1.383 . S
C1308 C1309 1.377 . S
C1309 H1293 0.930 . S
C1309 C1308 1.377 . S
C1309 C1310 1.379 . S
C1310 H1294 0.931 . S
C1310 C1304 1.383 . S
C1310 C1309 1.379 . S
H1311 C1305 0.959 . S
H1312 C1305 0.961 . S
H1313 C1305 0.960 . S
H1314 C1306 0.930 . S
H1315 C1307 0.929 . S
H1316 C1324 0.929 . S
H1317 C1326 0.930 . S
H1318 C1328 0.930 . S
H1319 C1331 0.929 . S
H1320 C1334 0.930 . S
H1321 C1336 0.960 . S
H1322 C1336 0.960 . S
H1323 C1336 0.960 . S
C1324 H1316 0.929 . S
C1324 C1325 1.377 . S
C1324 C1326 1.384 . S
C1325 C1324 1.377 . S
C1325 C1331 1.390 . S
C1326 H1317 0.930 . S
C1326 C1324 1.384 . S
C1326 C1327 1.372 . S
C1327 C1326 1.372 . S
C1327 C1328 1.400 . S
C1327 C1332 1.490 . S
C1328 H1318 0.930 . S
C1328 C1327 1.400 . S
C1328 C1331 1.386 . S
H1329 C1345 0.930 . S
H1330 C1346 0.931 . S
C1331 H1319 0.929 . S
C1331 C1325 1.390 . S
C1331 C1328 1.386 . S
C1332 C1327 1.490 . S
C1332 C1334 1.395 . S
C1332 C1335 1.403 . S
H1333 C1339 0.930 . S
C1334 H1320 0.930 . S
C1334 C1332 1.395 . S
C1334 C1337 1.403 . S
C1335 C1332 1.403 . S
C1335 C1336 1.524 . S
C1335 C1339 1.400 . S
C1336 H1321 0.960 . S
C1336 H1322 0.960 . S
C1336 H1323 0.960 . S
C1336 C1335 1.524 . S
C1337 C1334 1.403 . S
C1337 C1338 1.392 . S
C1337 C1341 1.495 . S
C1338 C1337 1.392 . S
C1338 C1339 1.385 . S
C1338 C1340 1.478 . S
C1339 H1333 0.930 . S
C1339 C1335 1.400 . S
C1339 C1338 1.385 . S
C1340 C1338 1.478 . S
C1340 C1342 1.381 . S
C1340 C1346 1.383 . S
C1341 C1337 1.495 . S
C1341 H1347 0.959 . S
C1341 H1348 0.961 . S
C1341 H1349 0.960 . S
C1342 C1340 1.381 . S
C1342 C1343 1.394 . S
C1342 H1350 0.930 . S
C1343 C1342 1.394 . S
C1343 C1344 1.383 . S
C1343 H1351 0.929 . S
C1344 C1343 1.383 . S
C1344 C1345 1.377 . S
C1345 H1329 0.930 . S
C1345 C1344 1.377 . S
C1345 C1346 1.379 . S
C1346 H1330 0.931 . S
C1346 C1340 1.383 . S
C1346 C1345 1.379 . S
H1347 C1341 0.959 . S
H1348 C1341 0.961 . S
H1349 C1341 0.960 . S
H1350 C1342 0.930 . S
H1351 C1343 0.929 . S
H1352 C1360 0.929 . S
H1353 C1362 0.930 . S
H1354 C1364 0.930 . S
H1355 C1367 0.929 . S
H1356 C1370 0.930 . S
H1357 C1372 0.960 . S
H1358 C1372 0.960 . S
H1359 C1372 0.960 . S
C1360 H1352 0.929 . S
C1360 C1361 1.377 . S
C1360 C1362 1.384 . S
C1361 C1360 1.377 . S
C1361 C1367 1.390 . S
C1362 H1353 0.930 . S
C1362 C1360 1.384 . S
C1362 C1363 1.372 . S
C1363 C1362 1.372 . S
C1363 C1364 1.400 . S
C1363 C1368 1.490 . S
C1364 H1354 0.930 . S
C1364 C1363 1.400 . S
C1364 C1367 1.386 . S
H1365 C1381 0.930 . S
H1366 C1382 0.931 . S
C1367 H1355 0.929 . S
C1367 C1361 1.390 . S
C1367 C1364 1.386 . S
C1368 C1363 1.490 . S
C1368 C1370 1.395 . S
C1368 C1371 1.403 . S
H1369 C1375 0.930 . S
C1370 H1356 0.930 . S
C1370 C1368 1.395 . S
C1370 C1373 1.403 . S
C1371 C1368 1.403 . S
C1371 C1372 1.524 . S
C1371 C1375 1.400 . S
C1372 H1357 0.960 . S
C1372 H1358 0.960 . S
C1372 H1359 0.960 . S
C1372 C1371 1.524 . S
C1373 C1370 1.403 . S
C1373 C1374 1.392 . S
C1373 C1377 1.495 . S
C1374 C1373 1.392 . S
C1374 C1375 1.385 . S
C1374 C1376 1.478 . S
C1375 H1369 0.930 . S
C1375 C1371 1.400 . S
C1375 C1374 1.385 . S
C1376 C1374 1.478 . S
C1376 C1378 1.381 . S
C1376 C1382 1.383 . S
C1377 C1373 1.495 . S
C1377 H1383 0.959 . S
C1377 H1384 0.961 . S
C1377 H1385 0.960 . S
C1378 C1376 1.381 . S
C1378 C1379 1.394 . S
C1378 H1386 0.930 . S
C1379 C1378 1.394 . S
C1379 C1380 1.383 . S
C1379 H1387 0.929 . S
C1380 C1379 1.383 . S
C1380 C1381 1.377 . S
C1381 H1365 0.930 . S
C1381 C1380 1.377 . S
C1381 C1382 1.379 . S
C1382 H1366 0.931 . S
C1382 C1376 1.383 . S
C1382 C1381 1.379 . S
H1383 C1377 0.959 . S
H1384 C1377 0.961 . S
H1385 C1377 0.960 . S
H1386 C1378 0.930 . S
H1387 C1379 0.929 . S
H1388 C1396 0.929 . S
H1389 C1398 0.930 . S
H1390 C1400 0.930 . S
H1391 C1403 0.929 . S
H1392 C1406 0.930 . S
H1393 C1408 0.960 . S
H1394 C1408 0.960 . S
H1395 C1408 0.960 . S
C1396 H1388 0.929 . S
C1396 C1397 1.377 . S
C1396 C1398 1.384 . S
C1397 C1396 1.377 . S
C1397 C1403 1.390 . S
C1398 H1389 0.930 . S
C1398 C1396 1.384 . S
C1398 C1399 1.372 . S
C1399 C1398 1.372 . S
C1399 C1400 1.400 . S
C1399 C1404 1.490 . S
C1400 H1390 0.930 . S
C1400 C1399 1.400 . S
C1400 C1403 1.386 . S
H1401 C1417 0.930 . S
H1402 C1418 0.934 . S
C1403 H1391 0.929 . S
C1403 C1397 1.390 . S
C1403 C1400 1.386 . S
C1404 C1399 1.490 . S
C1404 C1406 1.395 . S
C1404 C1407 1.403 . S
H1405 C1411 0.930 . S
C1406 H1392 0.930 . S
C1406 C1404 1.395 . S
C1406 C1409 1.403 . S
C1407 C1404 1.403 . S
C1407 C1408 1.524 . S
C1407 C1411 1.400 . S
C1408 H1393 0.960 . S
C1408 H1394 0.960 . S
C1408 H1395 0.960 . S
C1408 C1407 1.524 . S
C1409 C1406 1.403 . S
C1409 C1410 1.392 . S
C1409 C1413 1.495 . S
C1410 C1409 1.392 . S
C1410 C1411 1.385 . S
C1410 C1412 1.478 . S
C1411 H1405 0.930 . S
C1411 C1407 1.400 . S
C1411 C1410 1.385 . S
C1412 C1410 1.478 . S
C1412 C1414 1.381 . S
C1412 C1418 1.371 1_455 S
C1413 C1409 1.495 . S
C1413 H1419 0.959 . S
C1413 H1420 0.961 . S
C1413 H1421 0.960 . S
C1414 C1412 1.381 . S
C1414 C1415 1.394 . S
C1414 H1422 0.930 . S
C1415 C1414 1.394 . S
C1415 C1416 1.383 1_455 S
C1415 H1423 0.929 . S
C1416 C1415 1.383 1_655 S
C1416 C1417 1.377 . S
C1417 H1401 0.930 . S
C1417 C1416 1.377 . S
C1417 C1418 1.388 . S
C1418 H1402 0.934 . S
C1418 C1412 1.371 1_655 S
C1418 C1417 1.388 . S
H1419 C1413 0.959 . S
H1420 C1413 0.961 . S
H1421 C1413 0.960 . S
H1422 C1414 0.930 . S
H1423 C1415 0.929 . S
H1424 C1432 0.929 . S
H1425 C1434 0.930 . S
H1426 C1436 0.930 . S
H1427 C1439 0.929 . S
H1428 C1442 0.930 . S
H1429 C1444 0.960 . S
H1430 C1444 0.960 . S
H1431 C1444 0.960 . S
C1432 H1424 0.929 . S
C1432 C1433 1.377 . S
C1432 C1434 1.384 . S
C1433 C1432 1.377 . S
C1433 C1439 1.390 . S
C1434 H1425 0.930 . S
C1434 C1432 1.384 . S
C1434 C1435 1.372 . S
C1435 C1434 1.372 . S
C1435 C1436 1.400 . S
C1435 C1440 1.490 . S
C1436 H1426 0.930 . S
C1436 C1435 1.400 . S
C1436 C1439 1.386 . S
H1437 C1453 0.930 . S
H1438 C1454 0.931 . S
C1439 H1427 0.929 . S
C1439 C1433 1.390 . S
C1439 C1436 1.386 . S
C1440 C1435 1.490 . S
C1440 C1442 1.395 . S
C1440 C1443 1.403 . S
H1441 C1447 0.930 . S
C1442 H1428 0.930 . S
C1442 C1440 1.395 . S
C1442 C1445 1.403 . S
C1443 C1440 1.403 . S
C1443 C1444 1.524 . S
C1443 C1447 1.400 . S
C1444 H1429 0.960 . S
C1444 H1430 0.960 . S
C1444 H1431 0.960 . S
C1444 C1443 1.524 . S
C1445 C1442 1.403 . S
C1445 C1446 1.392 . S
C1445 C1449 1.495 . S
C1446 C1445 1.392 . S
C1446 C1447 1.385 . S
C1446 C1448 1.478 . S
C1447 H1441 0.930 . S
C1447 C1443 1.400 . S
C1447 C1446 1.385 . S
C1448 C1446 1.478 . S
C1448 C1450 1.381 . S
C1448 C1454 1.383 . S
C1449 C1445 1.495 . S
C1449 H1455 0.959 . S
C1449 H1456 0.961 . S
C1449 H1457 0.960 . S
C1450 C1448 1.381 . S
C1450 C1451 1.394 . S
C1450 H1458 0.930 . S
C1451 C1450 1.394 . S
C1451 C1452 1.383 . S
C1451 H1459 0.929 . S
C1452 C1451 1.383 . S
C1452 C1453 1.377 . S
C1453 H1437 0.930 . S
C1453 C1452 1.377 . S
C1453 C1454 1.379 . S
C1454 H1438 0.931 . S
C1454 C1448 1.383 . S
C1454 C1453 1.379 . S
H1455 C1449 0.959 . S
H1456 C1449 0.961 . S
H1457 C1449 0.960 . S
H1458 C1450 0.930 . S
H1459 C1451 0.929 . S
H1460 C1468 0.929 . S
H1461 C1470 0.930 . S
H1462 C1472 0.930 . S
H1463 C1475 0.929 . S
H1464 C1478 0.930 . S
H1465 C1480 1.016 . S
H1466 C1480 0.960 . S
H1467 C1480 0.917 1_655 S
C1468 H1460 0.929 . S
C1468 C1469 1.377 . S
C1468 C1470 1.384 . S
C1469 C1468 1.377 . S
C1469 C1475 1.390 . S
C1470 H1461 0.930 . S
C1470 C1468 1.384 . S
C1470 C1471 1.372 . S
C1471 C1470 1.372 . S
C1471 C1472 1.400 . S
C1471 C1476 1.490 . S
C1472 H1462 0.930 . S
C1472 C1471 1.400 . S
C1472 C1475 1.386 . S
H1473 C1489 0.930 . S
H1474 C1490 0.931 . S
C1475 H1463 0.929 . S
C1475 C1469 1.390 . S
C1475 C1472 1.386 . S
C1476 C1471 1.490 . S
C1476 C1478 1.395 . S
C1476 C1479 1.379 1_655 S
H1477 C1483 0.930 . S
C1478 H1464 0.930 . S
C1478 C1476 1.395 . S
C1478 C1481 1.403 1_655 S
C1479 C1476 1.379 1_455 S
C1479 C1480 1.519 . S
C1479 C1483 1.420 . S
C1480 H1465 1.016 . S
C1480 H1466 0.960 . S
C1480 H1467 0.917 1_455 S
C1480 C1479 1.519 . S
C1481 C1478 1.403 1_455 S
C1481 C1482 1.392 . S
C1481 C1485 1.495 . S
C1482 C1481 1.392 . S
C1482 C1483 1.385 . S
C1482 C1484 1.478 . S
C1483 H1477 0.930 . S
C1483 C1479 1.420 . S
C1483 C1482 1.385 . S
C1484 C1482 1.478 . S
C1484 C1486 1.381 . S
C1484 C1490 1.383 . S
C1485 C1481 1.495 . S
C1485 H1491 0.959 1_455 S
C1485 H1492 0.961 . S
C1485 H1493 0.960 . S
C1486 C1484 1.381 . S
C1486 C1487 1.394 . S
C1486 H1494 0.930 . S
C1487 C1486 1.394 . S
C1487 C1488 1.383 . S
C1487 H1495 0.929 . S
C1488 C1487 1.383 . S
C1488 C1489 1.377 . S
C1489 H1473 0.930 . S
C1489 C1488 1.377 . S
C1489 C1490 1.379 . S
C1490 H1474 0.931 . S
C1490 C1484 1.383 . S
C1490 C1489 1.379 . S
H1491 C1485 0.959 1_655 S
H1492 C1485 0.961 . S
H1493 C1485 0.960 . S
H1494 C1486 0.930 . S
H1495 C1487 0.929 . S
H1496 C1504 0.929 . S
H1497 C1506 0.930 . S
H1498 C1508 0.930 . S
H1499 C1511 0.929 . S
H1500 C1514 0.930 . S
H1501 C1516 0.960 . S
H1502 C1516 0.960 . S
H1503 C1516 0.960 . S
C1504 H1496 0.929 . S
C1504 C1505 1.377 . S
C1504 C1506 1.384 . S
C1505 C1504 1.377 . S
C1505 C1511 1.390 . S
C1506 H1497 0.930 . S
C1506 C1504 1.384 . S
C1506 C1507 1.372 . S
C1507 C1506 1.372 . S
C1507 C1508 1.400 . S
C1507 C1512 1.490 . S
C1508 H1498 0.930 . S
C1508 C1507 1.400 . S
C1508 C1511 1.386 . S
H1509 C1525 0.930 . S
H1510 C1526 0.931 . S
C1511 H1499 0.929 . S
C1511 C1505 1.390 . S
C1511 C1508 1.386 . S
C1512 C1507 1.490 . S
C1512 C1514 1.395 . S
C1512 C1515 1.403 . S
H1513 C1519 0.930 . S
C1514 H1500 0.930 . S
C1514 C1512 1.395 . S
C1514 C1517 1.403 . S
C1515 C1512 1.403 . S
C1515 C1516 1.524 . S
C1515 C1519 1.400 . S
C1516 H1501 0.960 . S
C1516 H1502 0.960 . S
C1516 H1503 0.960 . S
C1516 C1515 1.524 . S
C1517 C1514 1.403 . S
C1517 C1518 1.392 . S
C1517 C1521 1.495 . S
C1518 C1517 1.392 . S
C1518 C1519 1.385 . S
C1518 C1520 1.478 . S
C1519 H1513 0.930 . S
C1519 C1515 1.400 . S
C1519 C1518 1.385 . S
C1520 C1518 1.478 . S
C1520 C1522 1.381 . S
C1520 C1526 1.383 . S
C1521 C1517 1.495 . S
C1521 H1527 0.959 . S
C1521 H1528 0.961 . S
C1521 H1529 0.960 . S
C1522 C1520 1.381 . S
C1522 C1523 1.394 . S
C1522 H1530 0.930 . S
C1523 C1522 1.394 . S
C1523 C1524 1.383 . S
C1523 H1531 0.929 . S
C1524 C1523 1.383 . S
C1524 C1525 1.377 . S
C1525 H1509 0.930 . S
C1525 C1524 1.377 . S
C1525 C1526 1.379 . S
C1526 H1510 0.931 . S
C1526 C1520 1.383 . S
C1526 C1525 1.379 . S
H1527 C1521 0.959 . S
H1528 C1521 0.961 . S
H1529 C1521 0.960 . S
H1530 C1522 0.930 . S
H1531 C1523 0.929 . S
H1532 C1540 0.929 . S
H1533 C1542 0.930 . S
H1534 C1544 0.930 1_556 S
H1535 C1547 0.929 . S
H1536 C1550 0.930 . S
H1537 C1552 0.960 . S
H1538 C1552 0.960 . S
H1539 C1552 0.960 . S
C1540 H1532 0.929 . S
C1540 C1541 1.377 . S
C1540 C1542 1.384 . S
C1541 C1540 1.377 . S
C1541 C1547 1.390 . S
C1542 H1533 0.930 . S
C1542 C1540 1.384 . S
C1542 C1543 1.372 . S
C1543 C1542 1.372 . S
C1543 C1544 1.400 . S
C1543 C1548 1.490 . S
C1544 H1534 0.930 1_554 S
C1544 C1543 1.400 . S
C1544 C1547 1.386 . S
H1545 C1561 0.930 . S
H1546 C1562 0.931 . S
C1547 H1535 0.929 . S
C1547 C1541 1.390 . S
C1547 C1544 1.386 . S
C1548 C1543 1.490 . S
C1548 C1550 1.395 . S
C1548 C1551 1.403 1_554 S
H1549 C1555 0.930 . S
C1550 H1536 0.930 . S
C1550 C1548 1.395 . S
C1550 C1553 1.403 1_554 S
C1551 C1548 1.403 1_556 S
C1551 C1552 1.524 . S
C1551 C1555 1.400 . S
C1552 H1537 0.960 . S
C1552 H1538 0.960 . S
C1552 H1539 0.960 . S
C1552 C1551 1.524 . S
C1553 C1550 1.403 1_556 S
C1553 C1554 1.392 . S
C1553 C1557 1.495 . S
C1554 C1553 1.392 . S
C1554 C1555 1.385 . S
C1554 C1556 1.478 . S
C1555 H1549 0.930 . S
C1555 C1551 1.400 . S
C1555 C1554 1.385 . S
C1556 C1554 1.478 . S
C1556 C1558 1.381 . S
C1556 C1562 1.383 . S
C1557 C1553 1.495 . S
C1557 H1563 0.959 1_556 S
C1557 H1564 0.961 . S
C1557 H1565 0.960 . S
C1558 C1556 1.381 . S
C1558 C1559 1.394 . S
C1558 H1566 0.930 . S
C1559 C1558 1.394 . S
C1559 C1560 1.383 . S
C1559 H1567 0.929 1_655 S
C1560 C1559 1.383 . S
C1560 C1561 1.377 . S
C1561 H1545 0.930 . S
C1561 C1560 1.377 . S
C1561 C1562 1.379 . S
C1562 H1546 0.931 . S
C1562 C1556 1.383 . S
C1562 C1561 1.379 . S
H1563 C1557 0.959 1_554 S
H1564 C1557 0.961 . S
H1565 C1557 0.960 . S
H1566 C1558 0.930 . S
H1567 C1559 0.929 1_455 S
H1568 C1576 0.929 . S
H1569 C1578 0.930 . S
H1570 C1580 0.930 . S
H1571 C1583 0.929 . S
H1572 C1586 0.930 . S
H1573 C1588 0.960 . S
H1574 C1588 0.960 . S
H1575 C1588 0.960 . S
C1576 H1568 0.929 . S
C1576 C1577 1.377 . S
C1576 C1578 1.384 . S
C1577 C1576 1.377 . S
C1577 C1583 1.390 . S
C1578 H1569 0.930 . S
C1578 C1576 1.384 . S
C1578 C1579 1.372 . S
C1579 C1578 1.372 . S
C1579 C1580 1.400 . S
C1579 C1584 1.490 . S
C1580 H1570 0.930 . S
C1580 C1579 1.400 . S
C1580 C1583 1.386 . S
H1581 C1597 0.930 . S
H1582 C1598 0.931 . S
C1583 H1571 0.929 . S
C1583 C1577 1.390 . S
C1583 C1580 1.386 . S
C1584 C1579 1.490 . S
C1584 C1586 1.395 . S
C1584 C1587 1.403 . S
H1585 C1591 0.930 . S
C1586 H1572 0.930 . S
C1586 C1584 1.395 . S
C1586 C1589 1.403 . S
C1587 C1584 1.403 . S
C1587 C1588 1.524 . S
C1587 C1591 1.400 . S
C1588 H1573 0.960 . S
C1588 H1574 0.960 . S
C1588 H1575 0.960 . S
C1588 C1587 1.524 . S
C1589 C1586 1.403 . S
C1589 C1590 1.392 . S
C1589 C1593 1.495 . S
C1590 C1589 1.392 . S
C1590 C1591 1.385 . S
C1590 C1592 1.478 . S
C1591 H1585 0.930 . S
C1591 C1587 1.400 . S
C1591 C1590 1.385 . S
C1592 C1590 1.478 . S
C1592 C1594 1.381 . S
C1592 C1598 1.383 . S
C1593 C1589 1.495 . S
C1593 H1599 0.959 . S
C1593 H1600 0.961 . S
C1593 H1601 0.960 . S
C1594 C1592 1.381 . S
C1594 C1595 1.394 . S
C1594 H1602 0.930 . S
C1595 C1594 1.394 . S
C1595 C1596 1.383 . S
C1595 H1603 0.929 . S
C1596 C1595 1.383 . S
C1596 C1597 1.377 . S
C1597 H1581 0.930 . S
C1597 C1596 1.377 . S
C1597 C1598 1.379 . S
C1598 H1582 0.931 . S
C1598 C1592 1.383 . S
C1598 C1597 1.379 . S
H1599 C1593 0.959 . S
H1600 C1593 0.961 . S
H1601 C1593 0.960 . S
H1602 C1594 0.930 . S
H1603 C1595 0.929 . S
H1604 C1612 0.929 . S
H1605 C1614 0.930 . S
H1606 C1616 0.930 . S
H1607 C1619 0.929 . S
H1608 C1622 0.930 . S
H1609 C1624 0.960 . S
H1610 C1624 0.960 . S
H1611 C1624 0.960 . S
C1612 H1604 0.929 . S
C1612 C1613 1.377 . S
C1612 C1614 1.384 . S
C1613 C1612 1.377 . S
C1613 C1619 1.390 . S
C1614 H1605 0.930 . S
C1614 C1612 1.384 . S
C1614 C1615 1.372 . S
C1615 C1614 1.372 . S
C1615 C1616 1.400 . S
C1615 C1620 1.490 . S
C1616 H1606 0.930 . S
C1616 C1615 1.400 . S
C1616 C1619 1.386 . S
H1617 C1633 0.930 . S
H1618 C1634 0.931 . S
C1619 H1607 0.929 . S
C1619 C1613 1.390 . S
C1619 C1616 1.386 . S
C1620 C1615 1.490 . S
C1620 C1622 1.395 . S
C1620 C1623 1.403 . S
H1621 C1627 0.930 . S
C1622 H1608 0.930 . S
C1622 C1620 1.395 . S
C1622 C1625 1.403 1_554 S
C1623 C1620 1.403 . S
C1623 C1624 1.524 . S
C1623 C1627 1.400 . S
C1624 H1609 0.960 . S
C1624 H1610 0.960 . S
C1624 H1611 0.960 . S
C1624 C1623 1.524 . S
C1625 C1622 1.403 1_556 S
C1625 C1626 1.392 . S
C1625 C1629 1.495 . S
C1626 C1625 1.392 . S
C1626 C1627 1.385 1_556 S
C1626 C1628 1.478 . S
C1627 H1621 0.930 . S
C1627 C1623 1.400 . S
C1627 C1626 1.385 1_554 S
C1628 C1626 1.478 . S
C1628 C1630 1.381 . S
C1628 C1634 1.383 . S
C1629 C1625 1.495 . S
C1629 H1635 0.959 . S
C1629 H1636 0.961 . S
C1629 H1637 0.960 . S
C1630 C1628 1.381 . S
C1630 C1631 1.394 . S
C1630 H1638 0.930 . S
C1631 C1630 1.394 . S
C1631 C1632 1.383 . S
C1631 H1639 0.929 . S
C1632 C1631 1.383 . S
C1632 C1633 1.377 . S
C1633 H1617 0.930 . S
C1633 C1632 1.377 . S
C1633 C1634 1.379 . S
C1634 H1618 0.931 . S
C1634 C1628 1.383 . S
C1634 C1633 1.379 . S
H1635 C1629 0.959 . S
H1636 C1629 0.961 . S
H1637 C1629 0.960 . S
H1638 C1630 0.930 . S
H1639 C1631 0.929 . S
H1640 C1648 0.929 . S
H1641 C1650 0.930 . S
H1642 C1652 0.930 . S
H1643 C1655 0.929 . S
H1644 C1658 0.930 . S
H1645 C1660 0.960 . S
H1646 C1660 0.960 . S
H1647 C1660 0.960 . S
C1648 H1640 0.929 . S
C1648 C1649 1.377 . S
C1648 C1650 1.384 . S
C1649 C1648 1.377 . S
C1649 C1655 1.390 . S
C1650 H1641 0.930 . S
C1650 C1648 1.384 . S
C1650 C1651 1.372 . S
C1651 C1650 1.372 . S
C1651 C1652 1.400 . S
C1651 C1656 1.490 . S
C1652 H1642 0.930 . S
C1652 C1651 1.400 . S
C1652 C1655 1.386 . S
H1653 C1669 0.930 . S
H1654 C1670 0.931 . S
C1655 H1643 0.929 . S
C1655 C1649 1.390 . S
C1655 C1652 1.386 . S
C1656 C1651 1.490 . S
C1656 C1658 1.395 . S
C1656 C1659 1.403 . S
H1657 C1663 0.930 . S
C1658 H1644 0.930 . S
C1658 C1656 1.395 . S
C1658 C1661 1.403 . S
C1659 C1656 1.403 . S
C1659 C1660 1.524 . S
C1659 C1663 1.400 . S
C1660 H1645 0.960 . S
C1660 H1646 0.960 . S
C1660 H1647 0.960 . S
C1660 C1659 1.524 . S
C1661 C1658 1.403 . S
C1661 C1662 1.392 . S
C1661 C1665 1.495 . S
C1662 C1661 1.392 . S
C1662 C1663 1.385 . S
C1662 C1664 1.478 . S
C1663 H1657 0.930 . S
C1663 C1659 1.400 . S
C1663 C1662 1.385 . S
C1664 C1662 1.478 . S
C1664 C1666 1.381 . S
C1664 C1670 1.383 . S
C1665 C1661 1.495 . S
C1665 H1671 0.959 . S
C1665 H1672 0.961 . S
C1665 H1673 0.960 . S
C1666 C1664 1.381 . S
C1666 C1667 1.394 . S
C1666 H1674 0.930 . S
C1667 C1666 1.394 . S
C1667 C1668 1.383 . S
C1667 H1675 0.929 . S
C1668 C1667 1.383 . S
C1668 C1669 1.377 . S
C1669 H1653 0.930 . S
C1669 C1668 1.377 . S
C1669 C1670 1.379 . S
C1670 H1654 0.931 . S
C1670 C1664 1.383 . S
C1670 C1669 1.379 . S
H1671 C1665 0.959 . S
H1672 C1665 0.961 . S
H1673 C1665 0.960 . S
H1674 C1666 0.930 . S
H1675 C1667 0.929 . S
H1676 C1684 0.929 . S
H1677 C1686 0.930 . S
H1678 C1688 0.930 . S
H1679 C1691 0.929 . S
H1680 C1694 0.930 . S
H1681 C1696 0.960 . S
H1682 C1696 0.960 1_556 S
H1683 C1696 0.960 . S
C1684 H1676 0.929 . S
C1684 C1685 1.377 . S
C1684 C1686 1.384 . S
C1685 C1684 1.377 . S
C1685 C1691 1.390 . S
C1686 H1677 0.930 . S
C1686 C1684 1.384 . S
C1686 C1687 1.357 1_556 S
C1687 C1686 1.357 1_554 S
C1687 C1688 1.397 . S
C1687 C1692 1.507 . S
C1688 H1678 0.930 . S
C1688 C1687 1.397 . S
C1688 C1691 1.386 1_554 S
H1689 C1705 0.930 . S
H1690 C1706 0.931 . S
C1691 H1679 0.929 . S
C1691 C1685 1.390 . S
C1691 C1688 1.386 1_556 S
C1692 C1687 1.507 . S
C1692 C1694 1.395 . S
C1692 C1695 1.403 . S
H1693 C1699 0.930 . S
C1694 H1680 0.930 . S
C1694 C1692 1.395 . S
C1694 C1697 1.403 . S
C1695 C1692 1.403 . S
C1695 C1696 1.524 . S
C1695 C1699 1.400 . S
C1696 H1681 0.960 . S
C1696 H1682 0.960 1_554 S
C1696 H1683 0.960 . S
C1696 C1695 1.524 . S
C1697 C1694 1.403 . S
C1697 C1698 1.392 . S
C1697 C1701 1.495 . S
C1698 C1697 1.392 . S
C1698 C1699 1.385 . S
C1698 C1700 1.478 . S
C1699 H1693 0.930 . S
C1699 C1695 1.400 . S
C1699 C1698 1.385 . S
C1700 C1698 1.478 . S
C1700 C1702 1.381 . S
C1700 C1706 1.383 . S
C1701 C1697 1.495 . S
C1701 H1707 0.959 . S
C1701 H1708 0.961 . S
C1701 H1709 0.960 . S
C1702 C1700 1.381 . S
C1702 C1703 1.394 . S
C1702 H1710 0.930 . S
C1703 C1702 1.394 . S
C1703 C1704 1.383 . S
C1703 H1711 0.929 . S
C1704 C1703 1.383 . S
C1704 C1705 1.377 . S
C1705 H1689 0.930 . S
C1705 C1704 1.377 . S
C1705 C1706 1.379 . S
C1706 H1690 0.931 . S
C1706 C1700 1.383 . S
C1706 C1705 1.379 . S
H1707 C1701 0.959 . S
H1708 C1701 0.961 . S
H1709 C1701 0.960 . S
H1710 C1702 0.930 . S
H1711 C1703 0.929 . S
H1712 C1720 0.929 . S
H1713 C1722 0.930 . S
H1714 C1724 0.930 . S
H1715 C1727 0.929 . S
H1716 C1730 0.930 . S
H1717 C1732 0.960 . S
H1718 C1732 0.960 . S
H1719 C1732 0.960 . S
C1720 H1712 0.929 . S
C1720 C1721 1.377 . S
C1720 C1722 1.384 . S
C1721 C1720 1.377 . S
C1721 C1727 1.390 . S
C1722 H1713 0.930 . S
C1722 C1720 1.384 . S
C1722 C1723 1.372 . S
C1723 C1722 1.372 . S
C1723 C1724 1.400 . S
C1723 C1728 1.490 . S
C1724 H1714 0.930 . S
C1724 C1723 1.400 . S
C1724 C1727 1.386 . S
H1725 C1741 0.930 . S
H1726 C1742 0.931 . S
C1727 H1715 0.929 . S
C1727 C1721 1.390 . S
C1727 C1724 1.386 . S
C1728 C1723 1.490 . S
C1728 C1730 1.395 . S
C1728 C1731 1.403 . S
H1729 C1735 0.930 . S
C1730 H1716 0.930 . S
C1730 C1728 1.395 . S
C1730 C1733 1.403 . S
C1731 C1728 1.403 . S
C1731 C1732 1.524 . S
C1731 C1735 1.400 . S
C1732 H1717 0.960 . S
C1732 H1718 0.960 . S
C1732 H1719 0.960 . S
C1732 C1731 1.524 . S
C1733 C1730 1.403 . S
C1733 C1734 1.392 . S
C1733 C1737 1.495 . S
C1734 C1733 1.392 . S
C1734 C1735 1.385 . S
C1734 C1736 1.478 . S
C1735 H1729 0.930 . S
C1735 C1731 1.400 . S
C1735 C1734 1.385 . S
C1736 C1734 1.478 . S
C1736 C1738 1.381 . S
C1736 C1742 1.383 . S
C1737 C1733 1.495 . S
C1737 H1743 0.959 . S
C1737 H1744 0.961 . S
C1737 H1745 0.960 . S
C1738 C1736 1.381 . S
C1738 C1739 1.394 . S
C1738 H1746 0.930 . S
C1739 C1738 1.394 . S
C1739 C1740 1.383 . S
C1739 H1747 0.929 . S
C1740 C1739 1.383 . S
C1740 C1741 1.377 . S
C1741 H1725 0.930 . S
C1741 C1740 1.377 . S
C1741 C1742 1.379 . S
C1742 H1726 0.931 . S
C1742 C1736 1.383 . S
C1742 C1741 1.379 . S
H1743 C1737 0.959 . S
H1744 C1737 0.961 . S
H1745 C1737 0.960 . S
H1746 C1738 0.930 . S
H1747 C1739 0.929 . S
H1748 C1756 0.929 . S
H1749 C1758 0.930 . S
H1750 C1760 0.930 1_554 S
H1751 C1763 0.929 . S
H1752 C1766 0.915 1_556 S
H1753 C1768 0.960 . S
H1754 C1768 0.960 . S
H1755 C1768 0.960 . S
C1756 H1748 0.929 . S
C1756 C1757 1.377 . S
C1756 C1758 1.384 . S
C1757 C1756 1.377 . S
C1757 C1763 1.390 . S
C1758 H1749 0.930 . S
C1758 C1756 1.384 . S
C1758 C1759 1.372 . S
C1759 C1758 1.372 . S
C1759 C1760 1.400 . S
C1759 C1764 1.490 1_556 S
C1760 H1750 0.930 1_556 S
C1760 C1759 1.400 . S
C1760 C1763 1.386 . S
H1761 C1777 0.930 . S
H1762 C1778 0.931 . S
C1763 H1751 0.929 . S
C1763 C1757 1.390 . S
C1763 C1760 1.386 . S
C1764 C1759 1.490 1_554 S
C1764 C1766 1.395 . S
C1764 C1767 1.403 . S
H1765 C1771 0.930 . S
C1766 H1752 0.915 1_554 S
C1766 C1764 1.395 . S
C1766 C1769 1.403 . S
C1767 C1764 1.403 . S
C1767 C1768 1.524 . S
C1767 C1771 1.400 . S
C1768 H1753 0.960 . S
C1768 H1754 0.960 . S
C1768 H1755 0.960 . S
C1768 C1767 1.524 . S
C1769 C1766 1.403 . S
C1769 C1770 1.392 . S
C1769 C1773 1.495 . S
C1770 C1769 1.392 . S
C1770 C1771 1.385 . S
C1770 C1772 1.478 . S
C1771 H1765 0.930 . S
C1771 C1767 1.400 . S
C1771 C1770 1.385 . S
C1772 C1770 1.478 . S
C1772 C1774 1.381 . S
C1772 C1778 1.383 . S
C1773 C1769 1.495 . S
C1773 H1779 0.959 . S
C1773 H1780 0.961 . S
C1773 H1781 0.960 . S
C1774 C1772 1.381 . S
C1774 C1775 1.394 . S
C1774 H1782 0.930 . S
C1775 C1774 1.394 . S
C1775 C1776 1.383 . S
C1775 H1783 0.929 . S
C1776 C1775 1.383 . S
C1776 C1777 1.377 . S
C1777 H1761 0.930 . S
C1777 C1776 1.377 . S
C1777 C1778 1.379 . S
C1778 H1762 0.931 . S
C1778 C1772 1.383 . S
C1778 C1777 1.379 . S
H1779 C1773 0.959 . S
H1780 C1773 0.961 . S
H1781 C1773 0.960 . S
H1782 C1774 0.930 . S
H1783 C1775 0.929 . S
H1784 C1792 0.929 . S
H1785 C1794 0.930 . S
H1786 C1796 0.930 . S
H1787 C1799 0.929 . S
H1788 C1802 0.930 . S
H1789 C1804 0.960 . S
H1790 C1804 0.960 . S
H1791 C1804 0.960 . S
C1792 H1784 0.929 . S
C1792 C1793 1.377 . S
C1792 C1794 1.384 . S
C1793 C1792 1.377 . S
C1793 C1799 1.390 . S
C1794 H1785 0.930 . S
C1794 C1792 1.384 . S
C1794 C1795 1.372 . S
C1795 C1794 1.372 . S
C1795 C1796 1.400 . S
C1795 C1800 1.490 . S
C1796 H1786 0.930 . S
C1796 C1795 1.400 . S
C1796 C1799 1.386 . S
H1797 C1813 0.930 . S
H1798 C1814 0.931 . S
C1799 H1787 0.929 . S
C1799 C1793 1.390 . S
C1799 C1796 1.386 . S
C1800 C1795 1.490 . S
C1800 C1802 1.395 . S
C1800 C1803 1.403 . S
H1801 C1807 0.930 . S
C1802 H1788 0.930 . S
C1802 C1800 1.395 . S
C1802 C1805 1.403 . S
C1803 C1800 1.403 . S
C1803 C1804 1.524 . S
C1803 C1807 1.400 . S
C1804 H1789 0.960 . S
C1804 H1790 0.960 . S
C1804 H1791 0.960 . S
C1804 C1803 1.524 . S
C1805 C1802 1.403 . S
C1805 C1806 1.392 . S
C1805 C1809 1.495 . S
C1806 C1805 1.392 . S
C1806 C1807 1.385 . S
C1806 C1808 1.478 . S
C1807 H1801 0.930 . S
C1807 C1803 1.400 . S
C1807 C1806 1.385 . S
C1808 C1806 1.478 . S
C1808 C1810 1.381 . S
C1808 C1814 1.383 . S
C1809 C1805 1.495 . S
C1809 H1815 0.959 . S
C1809 H1816 0.961 . S
C1809 H1817 0.960 . S
C1810 C1808 1.381 . S
C1810 C1811 1.394 . S
C1810 H1818 0.930 . S
C1811 C1810 1.394 . S
C1811 C1812 1.383 . S
C1811 H1819 0.929 . S
C1812 C1811 1.383 . S
C1812 C1813 1.377 . S
C1813 H1797 0.930 . S
C1813 C1812 1.377 . S
C1813 C1814 1.379 . S
C1814 H1798 0.931 . S
C1814 C1808 1.383 . S
C1814 C1813 1.379 . S
H1815 C1809 0.959 . S
H1816 C1809 0.961 . S
H1817 C1809 0.960 . S
H1818 C1810 0.930 . S
H1819 C1811 0.929 . S
H1820 C1828 0.929 . S
H1821 C1830 0.930 . S
H1822 C1832 0.930 . S
H1823 C1835 0.929 . S
H1824 C1838 0.930 . S
H1825 C1840 0.960 . S
H1826 C1840 0.960 . S
H1827 C1840 0.960 . S
C1828 H1820 0.929 . S
C1828 C1829 1.377 . S
C1828 C1830 1.384 . S
C1829 C1828 1.377 . S
C1829 C1835 1.390 . S
C1830 H1821 0.930 . S
C1830 C1828 1.384 . S
C1830 C1831 1.372 . S
C1831 C1830 1.372 . S
C1831 C1832 1.400 . S
C1831 C1836 1.490 . S
C1832 H1822 0.930 . S
C1832 C1831 1.400 . S
C1832 C1835 1.386 . S
H1833 C1849 0.930 . S
H1834 C1850 0.931 . S
C1835 H1823 0.929 . S
C1835 C1829 1.390 . S
C1835 C1832 1.386 . S
C1836 C1831 1.490 . S
C1836 C1838 1.395 . S
C1836 C1839 1.403 . S
H1837 C1843 0.930 . S
C1838 H1824 0.930 . S
C1838 C1836 1.395 . S
C1838 C1841 1.403 . S
C1839 C1836 1.403 . S
C1839 C1840 1.524 . S
C1839 C1843 1.400 . S
C1840 H1825 0.960 . S
C1840 H1826 0.960 . S
C1840 H1827 0.960 . S
C1840 C1839 1.524 . S
C1841 C1838 1.403 . S
C1841 C1842 1.392 . S
C1841 C1845 1.495 . S
C1842 C1841 1.392 . S
C1842 C1843 1.385 . S
C1842 C1844 1.478 . S
C1843 H1837 0.930 . S
C1843 C1839 1.400 . S
C1843 C1842 1.385 . S
C1844 C1842 1.478 . S
C1844 C1846 1.381 . S
C1844 C1850 1.383 . S
C1845 C1841 1.495 . S
C1845 H1851 0.959 . S
C1845 H1852 0.961 . S
C1845 H1853 0.960 . S
C1846 C1844 1.381 . S
C1846 C1847 1.394 . S
C1846 H1854 0.930 . S
C1847 C1846 1.394 . S
C1847 C1848 1.383 . S
C1847 H1855 0.929 . S
C1848 C1847 1.383 . S
C1848 C1849 1.377 . S
C1849 H1833 0.930 . S
C1849 C1848 1.377 . S
C1849 C1850 1.379 . S
C1850 H1834 0.931 . S
C1850 C1844 1.383 . S
C1850 C1849 1.379 . S
H1851 C1845 0.959 . S
H1852 C1845 0.961 . S
H1853 C1845 0.960 . S
H1854 C1846 0.930 . S
H1855 C1847 0.929 . S
H1856 C1864 0.929 . S
H1857 C1866 0.930 . S
H1858 C1868 0.930 . S
H1859 C1871 0.929 . S
H1860 C1874 0.930 . S
H1861 C1876 0.960 . S
H1862 C1876 0.960 . S
H1863 C1876 0.960 . S
C1864 H1856 0.929 . S
C1864 C1865 1.377 . S
C1864 C1866 1.384 . S
C1865 C1864 1.377 . S
C1865 C1871 1.390 . S
C1866 H1857 0.930 . S
C1866 C1864 1.384 . S
C1866 C1867 1.372 . S
C1867 C1866 1.372 . S
C1867 C1868 1.400 . S
C1867 C1872 1.490 . S
C1868 H1858 0.930 . S
C1868 C1867 1.400 . S
C1868 C1871 1.386 . S
H1869 C1885 0.930 . S
H1870 C1886 0.931 . S
C1871 H1859 0.929 . S
C1871 C1865 1.390 . S
C1871 C1868 1.386 . S
C1872 C1867 1.490 . S
C1872 C1874 1.395 . S
C1872 C1875 1.403 . S
H1873 C1879 0.930 . S
C1874 H1860 0.930 . S
C1874 C1872 1.395 . S
C1874 C1877 1.403 . S
C1875 C1872 1.403 . S
C1875 C1876 1.524 . S
C1875 C1879 1.400 . S
C1876 H1861 0.960 . S
C1876 H1862 0.960 . S
C1876 H1863 0.960 . S
C1876 C1875 1.524 . S
C1877 C1874 1.403 . S
C1877 C1878 1.392 . S
C1877 C1881 1.495 . S
C1878 C1877 1.392 . S
C1878 C1879 1.385 . S
C1878 C1880 1.478 . S
C1879 H1873 0.930 . S
C1879 C1875 1.400 . S
C1879 C1878 1.385 . S
C1880 C1878 1.478 . S
C1880 C1882 1.381 . S
C1880 C1886 1.383 . S
C1881 C1877 1.495 . S
C1881 H1887 0.959 . S
C1881 H1888 0.961 . S
C1881 H1889 0.960 . S
C1882 C1880 1.381 . S
C1882 C1883 1.394 . S
C1882 H1890 0.930 . S
C1883 C1882 1.394 . S
C1883 C1884 1.383 . S
C1883 H1891 0.929 . S
C1884 C1883 1.383 . S
C1884 C1885 1.377 . S
C1885 H1869 0.930 . S
C1885 C1884 1.377 . S
C1885 C1886 1.379 . S
C1886 H1870 0.931 . S
C1886 C1880 1.383 . S
C1886 C1885 1.379 . S
H1887 C1881 0.959 . S
H1888 C1881 0.961 . S
H1889 C1881 0.960 . S
H1890 C1882 0.930 . S
H1891 C1883 0.929 . S
H1892 C1900 0.929 . S
H1893 C1902 0.930 . S
H1894 C1904 0.930 . S
H1895 C1907 0.929 . S
H1896 C1910 0.930 . S
H1897 C1912 0.960 . S
H1898 C1912 0.960 . S
H1899 C1912 0.960 . S
C1900 H1892 0.929 . S
C1900 C1901 1.377 . S
C1900 C1902 1.384 . S
C1901 C1900 1.377 . S
C1901 C1907 1.390 . S
C1902 H1893 0.930 . S
C1902 C1900 1.384 . S
C1902 C1903 1.372 . S
C1903 C1902 1.372 . S
C1903 C1904 1.400 . S
C1903 C1908 1.490 . S
C1904 H1894 0.930 . S
C1904 C1903 1.400 . S
C1904 C1907 1.386 . S
H1905 C1921 0.930 . S
H1906 C1922 0.931 . S
C1907 H1895 0.929 . S
C1907 C1901 1.390 . S
C1907 C1904 1.386 . S
C1908 C1903 1.490 . S
C1908 C1910 1.395 . S
C1908 C1911 1.403 . S
H1909 C1915 0.930 . S
C1910 H1896 0.930 . S
C1910 C1908 1.395 . S
C1910 C1913 1.403 . S
C1911 C1908 1.403 . S
C1911 C1912 1.524 . S
C1911 C1915 1.400 . S
C1912 H1897 0.960 . S
C1912 H1898 0.960 . S
C1912 H1899 0.960 . S
C1912 C1911 1.524 . S
C1913 C1910 1.403 . S
C1913 C1914 1.392 . S
C1913 C1917 1.495 . S
C1914 C1913 1.392 . S
C1914 C1915 1.385 . S
C1914 C1916 1.478 . S
C1915 H1909 0.930 . S
C1915 C1911 1.400 . S
C1915 C1914 1.385 . S
C1916 C1914 1.478 . S
C1916 C1918 1.381 . S
C1916 C1922 1.383 . S
C1917 C1913 1.495 . S
C1917 H1923 0.959 . S
C1917 H1924 0.961 . S
C1917 H1925 0.960 . S
C1918 C1916 1.381 . S
C1918 C1919 1.394 . S
C1918 H1926 0.930 . S
C1919 C1918 1.394 . S
C1919 C1920 1.383 . S
C1919 H1927 0.929 . S
C1920 C1919 1.383 . S
C1920 C1921 1.377 . S
C1921 H1905 0.930 . S
C1921 C1920 1.377 . S
C1921 C1922 1.379 . S
C1922 H1906 0.931 . S
C1922 C1916 1.383 . S
C1922 C1921 1.379 . S
H1923 C1917 0.959 . S
H1924 C1917 0.961 . S
H1925 C1917 0.960 . S
H1926 C1918 0.930 . S
H1927 C1919 0.929 . S
H1928 C1936 0.929 . S
H1929 C1938 0.930 . S
H1930 C1940 0.930 . S
H1931 C1943 0.929 . S
H1932 C1946 0.930 . S
H1933 C1948 0.960 . S
H1934 C1948 0.960 . S
H1935 C1948 0.960 . S
C1936 H1928 0.929 . S
C1936 C1937 1.377 . S
C1936 C1938 1.384 . S
C1937 C1936 1.377 . S
C1937 C1943 1.390 . S
C1938 H1929 0.930 . S
C1938 C1936 1.384 . S
C1938 C1939 1.372 . S
C1939 C1938 1.372 . S
C1939 C1940 1.400 . S
C1939 C1944 1.490 . S
C1940 H1930 0.930 . S
C1940 C1939 1.400 . S
C1940 C1943 1.386 . S
H1941 C1957 0.930 . S
H1942 C1958 0.931 . S
C1943 H1931 0.929 . S
C1943 C1937 1.390 . S
C1943 C1940 1.386 . S
C1944 C1939 1.490 . S
C1944 C1946 1.395 . S
C1944 C1947 1.403 . S
H1945 C1951 0.930 . S
C1946 H1932 0.930 . S
C1946 C1944 1.395 . S
C1946 C1949 1.403 . S
C1947 C1944 1.403 . S
C1947 C1948 1.524 . S
C1947 C1951 1.400 . S
C1948 H1933 0.960 . S
C1948 H1934 0.960 . S
C1948 H1935 0.960 . S
C1948 C1947 1.524 . S
C1949 C1946 1.403 . S
C1949 C1950 1.392 . S
C1949 C1953 1.495 . S
C1950 C1949 1.392 . S
C1950 C1951 1.385 . S
C1950 C1952 1.478 . S
C1951 H1945 0.930 . S
C1951 C1947 1.400 . S
C1951 C1950 1.385 . S
C1952 C1950 1.478 . S
C1952 C1954 1.381 . S
C1952 C1958 1.383 . S
C1953 C1949 1.495 . S
C1953 H1959 0.959 . S
C1953 H1960 0.961 . S
C1953 H1961 0.960 . S
C1954 C1952 1.381 . S
C1954 C1955 1.394 . S
C1954 H1962 0.930 . S
C1955 C1954 1.394 . S
C1955 C1956 1.383 . S
C1955 H1963 0.929 . S
C1956 C1955 1.383 . S
C1956 C1957 1.377 . S
C1957 H1941 0.930 . S
C1957 C1956 1.377 . S
C1957 C1958 1.379 . S
C1958 H1942 0.931 . S
C1958 C1952 1.383 . S
C1958 C1957 1.379 . S
H1959 C1953 0.959 . S
H1960 C1953 0.961 . S
H1961 C1953 0.960 . S
H1962 C1954 0.930 . S
H1963 C1955 0.929 . S
H1964 C1972 0.929 . S
H1965 C1974 0.930 . S
H1966 C1976 0.930 . S
H1967 C1979 0.929 . S
H1968 C1982 0.930 . S
H1969 C1984 0.960 . S
H1970 C1984 0.960 . S
H1971 C1984 0.960 . S
C1972 H1964 0.929 . S
C1972 C1973 1.377 . S
C1972 C1974 1.384 . S
C1973 C1972 1.377 . S
C1973 C1979 1.390 . S
C1974 H1965 0.930 . S
C1974 C1972 1.384 . S
C1974 C1975 1.372 . S
C1975 C1974 1.372 . S
C1975 C1976 1.400 . S
C1975 C1980 1.490 . S
C1976 H1966 0.930 . S
C1976 C1975 1.400 . S
C1976 C1979 1.386 . S
H1977 C1993 0.930 . S
H1978 C1994 0.931 . S
C1979 H1967 0.929 . S
C1979 C1973 1.390 . S
C1979 C1976 1.386 . S
C1980 C1975 1.490 . S
C1980 C1982 1.395 . S
C1980 C1983 1.403 . S
H1981 C1987 0.930 . S
C1982 H1968 0.930 . S
C1982 C1980 1.395 . S
C1982 C1985 1.403 . S
C1983 C1980 1.403 . S
C1983 C1984 1.524 . S
C1983 C1987 1.400 . S
C1984 H1969 0.960 . S
C1984 H1970 0.960 . S
C1984 H1971 0.960 . S
C1984 C1983 1.524 . S
C1985 C1982 1.403 . S
C1985 C1986 1.392 . S
C1985 C1989 1.495 . S
C1986 C1985 1.392 . S
C1986 C1987 1.385 . S
C1986 C1988 1.478 . S
C1987 H1981 0.930 . S
C1987 C1983 1.400 . S
C1987 C1986 1.385 . S
C1988 C1986 1.478 . S
C1988 C1990 1.381 . S
C1988 C1994 1.383 . S
C1989 C1985 1.495 . S
C1989 H1995 0.959 . S
C1989 H1996 0.961 . S
C1989 H1997 0.960 . S
C1990 C1988 1.381 . S
C1990 C1991 1.394 . S
C1990 H1998 0.930 . S
C1991 C1990 1.394 . S
C1991 C1992 1.383 . S
C1991 H1999 0.929 . S
C1992 C1991 1.383 . S
C1992 C1993 1.377 . S
C1993 H1977 0.930 . S
C1993 C1992 1.377 . S
C1993 C1994 1.379 . S
C1994 H1978 0.931 . S
C1994 C1988 1.383 . S
C1994 C1993 1.379 . S
H1995 C1989 0.959 . S
H1996 C1989 0.961 . S
H1997 C1989 0.960 . S
H1998 C1990 0.930 . S
H1999 C1991 0.929 . S
H2000 C2008 0.929 . S
H2001 C2010 0.930 . S
H2002 C2012 0.930 . S
H2003 C2015 0.929 . S
H2004 C2018 0.930 . S
H2005 C2020 0.960 . S
H2006 C2020 0.960 . S
H2007 C2020 0.960 . S
C2008 H2000 0.929 . S
C2008 C2009 1.377 . S
C2008 C2010 1.384 . S
C2009 C2008 1.377 . S
C2009 C2015 1.390 . S
C2010 H2001 0.930 . S
C2010 C2008 1.384 . S
C2010 C2011 1.372 . S
C2011 C2010 1.372 . S
C2011 C2012 1.400 . S
C2011 C2016 1.490 . S
C2012 H2002 0.930 . S
C2012 C2011 1.400 . S
C2012 C2015 1.386 . S
H2013 C2029 0.930 . S
H2014 C2030 0.931 . S
C2015 H2003 0.929 . S
C2015 C2009 1.390 . S
C2015 C2012 1.386 . S
C2016 C2011 1.490 . S
C2016 C2018 1.395 . S
C2016 C2019 1.403 . S
H2017 C2023 0.930 . S
C2018 H2004 0.930 . S
C2018 C2016 1.395 . S
C2018 C2021 1.403 . S
C2019 C2016 1.403 . S
C2019 C2020 1.524 . S
C2019 C2023 1.400 . S
C2020 H2005 0.960 . S
C2020 H2006 0.960 . S
C2020 H2007 0.960 . S
C2020 C2019 1.524 . S
C2021 C2018 1.403 . S
C2021 C2022 1.392 . S
C2021 C2025 1.495 . S
C2022 C2021 1.392 . S
C2022 C2023 1.385 . S
C2022 C2024 1.478 . S
C2023 H2017 0.930 . S
C2023 C2019 1.400 . S
C2023 C2022 1.385 . S
C2024 C2022 1.478 . S
C2024 C2026 1.381 . S
C2024 C2030 1.383 . S
C2025 C2021 1.495 . S
C2025 H2031 0.959 . S
C2025 H2032 0.961 . S
C2025 H2033 0.960 . S
C2026 C2024 1.381 . S
C2026 C2027 1.394 . S
C2026 H2034 0.930 . S
C2027 C2026 1.394 . S
C2027 C2028 1.383 . S
C2027 H2035 0.929 . S
C2028 C2027 1.383 . S
C2028 C2029 1.377 . S
C2029 H2013 0.930 . S
C2029 C2028 1.377 . S
C2029 C2030 1.379 . S
C2030 H2014 0.931 . S
C2030 C2024 1.383 . S
C2030 C2029 1.379 . S
H2031 C2025 0.959 . S
H2032 C2025 0.961 . S
H2033 C2025 0.960 . S
H2034 C2026 0.930 . S
H2035 C2027 0.929 . S
H2036 C2044 0.929 . S
H2037 C2046 0.930 . S
H2038 C2048 0.930 . S
H2039 C2051 0.929 . S
H2040 C2054 0.930 . S
H2041 C2056 0.960 . S
H2042 C2056 0.960 . S
H2043 C2056 0.960 . S
C2044 H2036 0.929 . S
C2044 C2045 1.377 . S
C2044 C2046 1.384 . S
C2045 C2044 1.377 . S
C2045 C2051 1.390 . S
C2046 H2037 0.930 . S
C2046 C2044 1.384 . S
C2046 C2047 1.372 . S
C2047 C2046 1.372 . S
C2047 C2048 1.400 . S
C2047 C2052 1.490 . S
C2048 H2038 0.930 . S
C2048 C2047 1.400 . S
C2048 C2051 1.386 . S
H2049 C2065 0.930 . S
H2050 C2066 0.931 . S
C2051 H2039 0.929 . S
C2051 C2045 1.390 . S
C2051 C2048 1.386 . S
C2052 C2047 1.490 . S
C2052 C2054 1.395 . S
C2052 C2055 1.403 . S
H2053 C2059 0.930 . S
C2054 H2040 0.930 . S
C2054 C2052 1.395 . S
C2054 C2057 1.403 . S
C2055 C2052 1.403 . S
C2055 C2056 1.524 . S
C2055 C2059 1.400 . S
C2056 H2041 0.960 . S
C2056 H2042 0.960 . S
C2056 H2043 0.960 . S
C2056 C2055 1.524 . S
C2057 C2054 1.403 . S
C2057 C2058 1.392 . S
C2057 C2061 1.495 . S
C2058 C2057 1.392 . S
C2058 C2059 1.385 . S
C2058 C2060 1.478 . S
C2059 H2053 0.930 . S
C2059 C2055 1.400 . S
C2059 C2058 1.385 . S
C2060 C2058 1.478 . S
C2060 C2062 1.381 . S
C2060 C2066 1.383 . S
C2061 C2057 1.495 . S
C2061 H2067 0.959 . S
C2061 H2068 0.961 . S
C2061 H2069 0.960 . S
C2062 C2060 1.381 . S
C2062 C2063 1.394 . S
C2062 H2070 0.930 . S
C2063 C2062 1.394 . S
C2063 C2064 1.381 1_545 S
C2063 H2071 0.929 1_545 S
C2064 C2063 1.381 1_565 S
C2064 C2065 1.362 1_565 S
C2065 H2049 0.930 . S
C2065 C2064 1.362 1_545 S
C2065 C2066 1.379 . S
C2066 H2050 0.931 . S
C2066 C2060 1.383 . S
C2066 C2065 1.379 . S
H2067 C2061 0.959 . S
H2068 C2061 0.961 . S
H2069 C2061 0.960 . S
H2070 C2062 0.930 . S
H2071 C2063 0.929 1_565 S
C372 C184 1.792 . S
C353 C60 1.797 . S
C408 C199 1.556 . S
C389 C76 1.555 . S
C425 C81 1.877 . S
C444 C212 1.863 . S
C480 C226 1.579 . S
C461 C48 1.579 . S
C516 C238 1.696 . S
C497 C115 1.806 . S
C552 C252 1.335 . S
C533 C136 1.373 . S
C569 C131 1.583 . S
C588 C266 1.553 . S
C624 C281 1.325 . S
C605 C104 1.356 . S
C641 C126 1.632 . S
C660 C297 1.614 . S
C696 C310 1.328 . S
C677 C103 1.322 . S
C713 C120 1.541 . S
C732 C295 1.509 . S
C768 C308 1.476 . S
C749 C142 1.471 . S
C785 C82 1.927 . S
C804 C324 1.927 . S
C821 C54 1.854 . S
C840 C323 1.832 . S
C857 C65 1.671 . S
C876 C322 1.636 . S
C893 C71 1.237 . S
C912 C325 1.239 . S
C929 C37 1.763 . S
C948 C227 1.761 . S
C965 C158 1.913 . S
C984 C225 1.898 . S
C1020 C185 1.379 . S
C1001 C169 1.370 . S
C1056 C196 1.513 . S
C1037 C98 1.540 . S
C1073 C49 1.702 . S
C1092 C241 1.699 . S
C1128 C282 1.959 . S
C1109 C125 1.959 . S
C1164 C239 1.407 . S
C1145 C109 1.430 . S
C1200 C267 1.667 . S
C1181 C137 1.715 . S
C1236 C268 1.800 . S
C1217 C159 1.796 . S
C1253 C175 1.554 . S
C1272 C283 1.514 . S
C1289 C92 1.877 . S
C1308 C240 1.863 . S
C1344 C254 1.562 . S
C1325 C147 1.578 . S
C1361 C38 1.806 . S
C1380 C210 1.721 . S
C1416 C224 1.372 . S
C1397 C4 1.367 . S
C1452 C182 1.566 . S
C1433 C21 1.584 . S
C1488 C197 1.312 . S
C1469 C27 1.351 . S
C1505 C16 1.634 . S
C1524 C311 1.620 . S
C1541 C26 1.319 . S
C1560 C296 1.315 . S
C1577 C43 1.543 . S
C1596 C309 1.503 . S
C1613 C10 1.473 . S
C1632 C294 1.484 . S
C1668 C338 1.916 . S
C1649 C93 1.929 . S
C1704 C337 1.833 . S
C1685 C153 1.854 . S
C1740 C336 1.605 . S
C1721 C164 1.671 . S
C1757 C170 1.239 . S
C1776 C339 1.217 . S
C1793 C114 1.764 . S
C1812 C255 1.762 . S
C1848 C253 1.880 . S
C1829 C59 1.912 . S
C1884 C269 1.335 . S
C1865 C70 1.362 . S
C1920 C280 1.501 . S
C1901 C87 1.537 . S
C1937 C148 1.700 . S
C1956 C213 1.708 . S
C1992 C198 1.959 . S
C1973 C15 1.958 . S
C2009 C32 1.438 . S
C2028 C211 1.449 . S
C2064 C183 1.696 . S
C2045 C5 1.720 . S
