# Generated by pormake.
# Topology pyr, (3,6)-cn, num edge types: 1
# Building blocks:
#     Node 0, Type 0, BuildingBlock: BELTOD_clean_linker_0, # of connection points: 3
#     Node 1, Type 0, BuildingBlock: BELTOD_clean_linker_0, # of connection points: 3
#     Node 2, Type 0, BuildingBlock: BELTOD_clean_linker_0, # of connection points: 3
#     Node 3, Type 0, BuildingBlock: BELTOD_clean_linker_0, # of connection points: 3
#     Node 4, Type 0, BuildingBlock: BELTOD_clean_linker_0, # of connection points: 3
#     Node 5, Type 0, BuildingBlock: BELTOD_clean_linker_0, # of connection points: 3
#     Node 6, Type 0, BuildingBlock: BELTOD_clean_linker_0, # of connection points: 3
#     Node 7, Type 0, BuildingBlock: BELTOD_clean_linker_0, # of connection points: 3
#     Node 8, Type 1, BuildingBlock: BETDIP_clean_sbu_0, # of connection points: 6
#     Node 9, Type 1, BuildingBlock: BETDIP_clean_sbu_0, # of connection points: 6
#     Node 10, Type 1, BuildingBlock: BETDIP_clean_sbu_0, # of connection points: 6
#     Node 11, Type 1, BuildingBlock: BETDIP_clean_sbu_0, # of connection points: 6
#     Edge 12, Type (0, 1), BuildingBlock: EZIPEK_clean_linker_0, # of connection points: 2
#     Edge 13, Type (0, 1), BuildingBlock: EZIPEK_clean_linker_0, # of connection points: 2
#     Edge 14, Type (0, 1), BuildingBlock: EZIPEK_clean_linker_0, # of connection points: 2
#     Edge 15, Type (0, 1), BuildingBlock: EZIPEK_clean_linker_0, # of connection points: 2
#     Edge 16, Type (0, 1), BuildingBlock: EZIPEK_clean_linker_0, # of connection points: 2
#     Edge 17, Type (0, 1), BuildingBlock: EZIPEK_clean_linker_0, # of connection points: 2
#     Edge 18, Type (0, 1), BuildingBlock: EZIPEK_clean_linker_0, # of connection points: 2
#     Edge 19, Type (0, 1), BuildingBlock: EZIPEK_clean_linker_0, # of connection points: 2
#     Edge 20, Type (0, 1), BuildingBlock: EZIPEK_clean_linker_0, # of connection points: 2
#     Edge 21, Type (0, 1), BuildingBlock: EZIPEK_clean_linker_0, # of connection points: 2
#     Edge 22, Type (0, 1), BuildingBlock: EZIPEK_clean_linker_0, # of connection points: 2
#     Edge 23, Type (0, 1), BuildingBlock: EZIPEK_clean_linker_0, # of connection points: 2
#     Edge 24, Type (0, 1), BuildingBlock: EZIPEK_clean_linker_0, # of connection points: 2
#     Edge 25, Type (0, 1), BuildingBlock: EZIPEK_clean_linker_0, # of connection points: 2
#     Edge 26, Type (0, 1), BuildingBlock: EZIPEK_clean_linker_0, # of connection points: 2
#     Edge 27, Type (0, 1), BuildingBlock: EZIPEK_clean_linker_0, # of connection points: 2
#     Edge 28, Type (0, 1), BuildingBlock: EZIPEK_clean_linker_0, # of connection points: 2
#     Edge 29, Type (0, 1), BuildingBlock: EZIPEK_clean_linker_0, # of connection points: 2
#     Edge 30, Type (0, 1), BuildingBlock: EZIPEK_clean_linker_0, # of connection points: 2
#     Edge 31, Type (0, 1), BuildingBlock: EZIPEK_clean_linker_0, # of connection points: 2
#     Edge 32, Type (0, 1), BuildingBlock: EZIPEK_clean_linker_0, # of connection points: 2
#     Edge 33, Type (0, 1), BuildingBlock: EZIPEK_clean_linker_0, # of connection points: 2
#     Edge 34, Type (0, 1), BuildingBlock: EZIPEK_clean_linker_0, # of connection points: 2
#     Edge 35, Type (0, 1), BuildingBlock: EZIPEK_clean_linker_0, # of connection points: 2
# Relax obj value: 0.175
# Max RMSD: 0.205
# Mean RMSD: 0.095
data_MOF--net-pyr--node1-BETDIP_clean_sbu_0--node2-BELTOD_clean_linker_0--edge1-EZIPEK_clean_linker_0
_symmetry_space_group_name_H-M    P1
_symmetry_Int_Tables_number       1
_symmetry_cell_setting            triclinic
loop_
_symmetry_equiv_pos_as_xyz
'x, y, z'
_cell_length_a     31.41677
_cell_length_b     34.347703
_cell_length_c     32.554633
_cell_angle_alpha  88.581155
_cell_angle_beta   93.508058
_cell_angle_gamma 106.35632
loop_
_atom_site_label
_atom_site_type_symbol
_atom_site_fract_x
_atom_site_fract_y
_atom_site_fract_z
_atom_type_partial_charge
P0 P 0.43531 0.35015 0.30948 0.0
H1 H 0.51053 0.34568 0.26252 0.0
H2 H 0.52803 0.2888 0.22941 0.0
H3 H 0.41119 0.20588 0.27701 0.0
H4 H 0.39306 0.26231 0.3091 0.0
H5 H 0.432 0.42753 0.27012 0.0
H6 H 0.372 0.44691 0.23017 0.0
H7 H 0.29209 0.32222 0.23066 0.0
H8 H 0.3518 0.30282 0.26994 0.0
H9 H 0.44673 0.29566 0.37768 0.0
H10 H 0.36211 0.37268 0.34557 0.0
O11 O 0.48006 0.38937 0.31875 0.0
H12 H 0.39414 0.25977 0.42796 0.0
H13 H 0.31015 0.33723 0.39624 0.0
C14 C 0.45105 0.30819 0.28905 0.0
C15 C 0.48915 0.31518 0.26648 0.0
C16 C 0.49923 0.28284 0.24776 0.0
C17 C 0.47124 0.24323 0.2515 0.0
C18 C 0.43356 0.23617 0.27455 0.0
C19 C 0.42328 0.26846 0.2928 0.0
C20 C 0.39658 0.36365 0.27262 0.0
C21 C 0.40213 0.4042 0.26061 0.0
C22 C 0.36794 0.41528 0.23796 0.0
C23 C 0.32766 0.38595 0.22771 0.0
C24 C 0.32299 0.3452 0.23817 0.0
C25 C 0.35721 0.33414 0.26042 0.0
C26 C 0.40698 0.33517 0.3563 0.0
C27 C 0.41759 0.30563 0.38221 0.0
C28 C 0.38779 0.28531 0.41104 0.0
C29 C 0.34791 0.29533 0.41487 0.0
C30 C 0.34056 0.32885 0.3932 0.0
C31 C 0.37012 0.34882 0.36409 0.0
P32 P 0.20122 0.85262 0.7125 0.0
H33 H 0.24301 0.9187 0.76891 0.0
H34 H 0.25335 0.92189 0.84386 0.0
H35 H 0.1859 0.79416 0.85274 0.0
H36 H 0.17619 0.79058 0.77727 0.0
H37 H 0.28547 0.85179 0.68241 0.0
H38 H 0.3179 0.79718 0.66881 0.0
H39 H 0.19388 0.70868 0.69247 0.0
H40 H 0.16053 0.76408 0.70537 0.0
H41 H 0.11809 0.83544 0.75686 0.0
H42 H 0.16102 0.86965 0.63433 0.0
O43 O 0.23333 0.89585 0.69357 0.0
H44 H 0.05096 0.85679 0.74058 0.0
H45 H 0.0941 0.8915 0.61845 0.0
C46 C 0.20952 0.85427 0.76752 0.0
C47 C 0.23083 0.89121 0.78674 0.0
C48 C 0.23661 0.8931 0.82943 0.0
C49 C 0.22066 0.85819 0.85345 0.0
C50 C 0.19869 0.82124 0.83443 0.0
C51 C 0.19342 0.81925 0.79153 0.0
C52 C 0.22038 0.81199 0.69428 0.0
C53 C 0.26462 0.8208 0.68357 0.0
C54 C 0.2833 0.78966 0.67608 0.0
C55 C 0.25826 0.74911 0.67969 0.0
C56 C 0.21352 0.73994 0.68937 0.0
C57 C 0.19458 0.77141 0.69656 0.0
C58 C 0.14508 0.85168 0.69694 0.0
C59 C 0.11262 0.84624 0.72609 0.0
C60 C 0.07423 0.85848 0.71694 0.0
C61 C 0.06843 0.87668 0.67878 0.0
C62 C 0.09848 0.878 0.64828 0.0
C63 C 0.13651 0.86536 0.65727 0.0
P64 P 0.64934 0.34153 0.85487 0.0
H65 H 0.72338 0.31695 0.89354 0.0
H66 H 0.7872 0.35081 0.93927 0.0
H67 H 0.73823 0.45591 0.94291 0.0
H68 H 0.67339 0.42144 0.89758 0.0
H69 H 0.62975 0.25296 0.84917 0.0
H70 H 0.59005 0.19688 0.89232 0.0
H71 H 0.54859 0.28085 0.96574 0.0
H72 H 0.58922 0.33765 0.92253 0.0
H73 H 0.68753 0.42152 0.81852 0.0
H74 H 0.55838 0.33459 0.81889 0.0
O75 O 0.67326 0.32073 0.82031 0.0
H76 H 0.65916 0.46249 0.76698 0.0
H77 H 0.52996 0.37556 0.76648 0.0
C78 C 0.69412 0.36697 0.8912 0.0
C79 C 0.7261 0.3472 0.90425 0.0
C80 C 0.76251 0.36649 0.93045 0.0
C81 C 0.76777 0.40602 0.94436 0.0
C82 C 0.73496 0.42545 0.93249 0.0
C83 C 0.69811 0.40586 0.90643 0.0
C84 C 0.61219 0.29982 0.88211 0.0
C85 C 0.61152 0.2596 0.87396 0.0
C86 C 0.5889 0.22735 0.89875 0.0
C87 C 0.56622 0.2344 0.93239 0.0
C88 C 0.56569 0.27452 0.93991 0.0
C89 C 0.58865 0.30695 0.91511 0.0
C90 C 0.62475 0.37565 0.82417 0.0
C91 C 0.65266 0.41182 0.8086 0.0
C92 C 0.63662 0.43503 0.77862 0.0
C93 C 0.59235 0.42231 0.7627 0.0
C94 C 0.56416 0.38623 0.77838 0.0
C95 C 0.58028 0.36304 0.80865 0.0
P96 P 0.83978 0.7114 0.32703 0.0
H97 H 0.86923 0.79637 0.29913 0.0
H98 H 0.90207 0.86043 0.33567 0.0
H99 H 0.91694 0.79388 0.44696 0.0
H100 H 0.88431 0.72979 0.41057 0.0
H101 H 0.81608 0.62561 0.3042 0.0
H102 H 0.84671 0.58848 0.25563 0.0
H103 H 0.95647 0.69478 0.23906 0.0
H104 H 0.92565 0.73212 0.28763 0.0
H105 H 0.74437 0.69912 0.33435 0.0
H106 H 0.8484 0.65885 0.39916 0.0
O107 O 0.80943 0.72623 0.28917 0.0
H108 H 0.69227 0.66505 0.38518 0.0
H109 H 0.79633 0.62646 0.45187 0.0
C110 C 0.87342 0.75783 0.35204 0.0
C111 C 0.88014 0.7953 0.33122 0.0
C112 C 0.89887 0.83202 0.35208 0.0
C113 C 0.91164 0.83209 0.3942 0.0
C114 C 0.90717 0.79465 0.41452 0.0
C115 C 0.88846 0.75791 0.39362 0.0
C116 C 0.86922 0.68143 0.30086 0.0
C117 C 0.84751 0.64069 0.29128 0.0
C118 C 0.86473 0.61953 0.26312 0.0
C119 C 0.90392 0.63874 0.24353 0.0
C120 C 0.92633 0.67919 0.25385 0.0
C121 C 0.90896 0.7004 0.28197 0.0
C122 C 0.80062 0.68182 0.36281 0.0
C123 C 0.75612 0.68269 0.35927 0.0
C124 C 0.72619 0.66323 0.38845 0.0
C125 C 0.74016 0.64309 0.42251 0.0
C126 C 0.78457 0.64153 0.42579 0.0
C127 C 0.81437 0.66027 0.39586 0.0
P128 P 0.71939 0.88651 0.9602 0.0
H129 H 0.68034 0.91256 1.02923 0.0
H130 H 0.61102 0.93105 1.0331 0.0
H131 H 0.56551 0.87812 0.91399 0.0
H132 H 0.63496 0.85899 0.91024 0.0
H133 H 0.79057 0.87749 1.01807 0.0
H134 H 0.82326 0.82142 1.03048 0.0
H135 H 0.71602 0.74302 0.95674 0.0
H136 H 0.68262 0.79942 0.94454 0.0
H137 H 0.69871 0.94302 0.89972 0.0
H138 H 0.76221 0.84653 0.90185 0.0
O139 O 0.75277 0.92764 0.98339 0.0
H140 H 0.71372 0.95551 0.82675 0.0
H141 H 0.77655 0.85887 0.829 0.0
C142 C 0.66322 0.88558 0.96896 0.0
C143 C 0.65492 0.90362 1.00455 0.0
C144 C 0.61542 0.91416 1.00676 0.0
C145 C 0.58377 0.90654 0.97349 0.0
C146 C 0.58979 0.88434 0.93981 0.0
C147 C 0.62941 0.8736 0.9377 0.0
C148 C 0.73428 0.84259 0.98017 0.0
C149 C 0.77301 0.84797 1.00576 0.0
C150 C 0.79173 0.81598 1.01294 0.0
C151 C 0.7721 0.77834 0.99436 0.0
C152 C 0.73136 0.77189 0.97153 0.0
C153 C 0.71235 0.80395 0.96464 0.0
C154 C 0.72837 0.89326 0.90608 0.0
C155 C 0.71511 0.92409 0.88441 0.0
C156 C 0.72353 0.93117 0.8429 0.0
C157 C 0.74563 0.90769 0.82269 0.0
C158 C 0.75881 0.87677 0.84416 0.0
C159 C 0.75052 0.86977 0.88575 0.0
P160 P 0.92285 0.35282 0.36842 0.0
H161 H 0.90897 0.42287 0.41006 0.0
H162 H 0.84247 0.43438 0.43759 0.0
H163 H 0.76983 0.30991 0.41269 0.0
H164 H 0.83639 0.29812 0.38598 0.0
H165 H 0.98407 0.31372 0.33571 0.0
H166 H 1.0043 0.25149 0.35524 0.0
H167 H 0.92855 0.23956 0.46322 0.0
H168 H 0.90794 0.30162 0.4436 0.0
H169 H 0.90943 0.40255 0.29673 0.0
H170 H 0.88007 0.27542 0.32892 0.0
O171 O 0.96437 0.39559 0.36764 0.0
H172 H 0.86507 0.3846 0.23117 0.0
H173 H 0.8364 0.25788 0.26428 0.0
C174 C 0.8777 0.35955 0.39629 0.0
C175 C 0.87912 0.39778 0.41144 0.0
C176 C 0.8412 0.40443 0.42692 0.0
C177 C 0.80132 0.37302 0.42692 0.0
C178 C 0.80033 0.33446 0.41295 0.0
C179 C 0.83831 0.32777 0.39784 0.0
C180 C 0.94402 0.31192 0.38786 0.0
C181 C 0.97243 0.29812 0.36397 0.0
C182 C 0.98388 0.26267 0.37499 0.0
C183 C 0.9676 0.24093 0.41044 0.0
C184 C 0.94124 0.25597 0.43566 0.0
C185 C 0.92948 0.29131 0.42441 0.0
C186 C 0.89898 0.34029 0.3172 0.0
C187 C 0.89463 0.3709 0.28923 0.0
C188 C 0.86928 0.36077 0.25208 0.0
C189 C 0.8476 0.31996 0.2432 0.0
C190 C 0.85314 0.2895 0.27065 0.0
C191 C 0.87836 0.29956 0.30744 0.0
P192 P 0.37749 0.69524 0.23858 0.0
H193 H 0.34724 0.69485 0.15244 0.0
H194 H 0.27641 0.6637 0.11445 0.0
H195 H 0.21776 0.6162 0.22805 0.0
H196 H 0.28887 0.64785 0.26635 0.0
H197 H 0.46303 0.75722 0.24867 0.0
H198 H 0.48748 0.82896 0.22795 0.0
H199 H 0.35154 0.82707 0.19755 0.0
H200 H 0.32694 0.75527 0.21833 0.0
H201 H 0.36301 0.61128 0.26553 0.0
H202 H 0.40857 0.72883 0.32232 0.0
O203 O 0.41358 0.68168 0.21049 0.0
H204 H 0.3819 0.57937 0.3297 0.0
H205 H 0.42699 0.69673 0.38701 0.0
C206 C 0.32362 0.6734 0.21222 0.0
C207 C 0.31919 0.67784 0.16931 0.0
C208 C 0.27878 0.66005 0.14758 0.0
C209 C 0.24181 0.63741 0.16831 0.0
C210 C 0.2459 0.63341 0.21141 0.0
C211 C 0.28648 0.65146 0.23325 0.0
C212 C 0.39311 0.75051 0.23511 0.0
C213 C 0.43824 0.77243 0.23877 0.0
C214 C 0.45227 0.81342 0.22678 0.0
C215 C 0.42142 0.83354 0.21106 0.0
C216 C 0.37597 0.81235 0.20972 0.0
C217 C 0.36195 0.77125 0.22168 0.0
C218 C 0.38372 0.6725 0.28902 0.0
C219 C 0.37611 0.6302 0.29209 0.0
C220 C 0.3871 0.61191 0.32874 0.0
C221 C 0.40605 0.63548 0.36341 0.0
C222 C 0.41241 0.67779 0.3608 0.0
C223 C 0.40167 0.69615 0.32388 0.0
P224 P 0.17194 0.33779 0.77375 0.0
H225 H 0.19021 0.3095 0.6947 0.0
H226 H 0.14922 0.25461 0.6494 0.0
H227 H 0.03477 0.23516 0.72193 0.0
H228 H 0.07661 0.29024 0.76857 0.0
H229 H 0.26159 0.33366 0.76117 0.0
H230 H 0.32156 0.37408 0.72352 0.0
H231 H 0.2427 0.45519 0.68736 0.0
H232 H 0.18261 0.41385 0.7256 0.0
H233 H 0.18538 0.34857 0.86274 0.0
H234 H 0.10618 0.3865 0.76536 0.0
O235 O 0.19272 0.30577 0.80244 0.0
H236 H 0.15572 0.38399 0.91303 0.0
H237 H 0.07666 0.42293 0.81646 0.0
C238 C 0.13629 0.3052 0.7347 0.0
C239 C 0.15593 0.29453 0.70058 0.0
C240 C 0.13264 0.26272 0.67472 0.0
C241 C 0.08893 0.24057 0.68216 0.0
C242 C 0.06845 0.25189 0.71547 0.0
C243 C 0.09216 0.28362 0.74184 0.0
C244 C 0.21849 0.37228 0.74921 0.0
C245 C 0.25814 0.36165 0.74729 0.0
C246 C 0.2935 0.38597 0.72606 0.0
C247 C 0.29199 0.42344 0.70765 0.0
C248 C 0.24979 0.43125 0.70606 0.0
C249 C 0.21407 0.40662 0.72729 0.0
C250 C 0.14748 0.36397 0.81001 0.0
C251 C 0.16133 0.36424 0.85199 0.0
C252 C 0.14455 0.38473 0.88094 0.0
C253 C 0.11385 0.40613 0.86878 0.0
C254 C 0.10025 0.40654 0.82668 0.0
C255 C 0.11699 0.38567 0.79751 0.0
Tb256 Tb 0.94131 1.0359 0.54358 0.0
Tb257 Tb 0.03387 1.03981 0.53394 0.0
C258 C 0.85929 1.01892 0.5546 0.0
C259 C 0.83146 0.9933 0.5852 0.0
C260 C 0.84034 0.95748 0.60015 0.0
C261 C 0.82121 0.93866 0.6357 0.0
C262 C 0.79303 0.95549 0.65663 0.0
C263 C 0.78159 0.98952 0.64015 0.0
C264 C 0.80072 1.00833 0.60456 0.0
C265 C 0.9995 0.10062 0.57855 0.0
C266 C 0.98795 0.98251 0.60243 0.0
C267 C 0.11663 0.06222 0.52761 0.0
C268 C 0.14985 0.09972 0.51639 0.0
C269 C 0.1426 0.1379 0.52109 0.0
C270 C 0.17397 0.17307 0.50835 0.0
C271 C 0.21269 0.17023 0.49085 0.0
C272 C 0.22022 0.13219 0.48697 0.0
C273 C 0.18899 0.09714 0.49972 0.0
C274 C 0.97797 0.97446 0.49869 0.0
C275 C 0.98714 0.0913 0.47435 0.0
O276 O 0.87603 1.00083 0.52762 0.0
O277 O 0.88875 0.05059 0.57005 0.0
O278 O 1.00226 0.06463 0.57841 0.0
O279 O 0.96184 0.1003 0.56 0.0
O280 O 0.95015 0.98837 0.58741 0.0
O281 O 0.02647 1.00325 0.58898 0.0
O282 O 0.09748 0.063 0.56198 0.0
O283 O 0.08834 1.04464 0.49793 0.0
O284 O 0.97301 1.00996 0.49854 0.0
O285 O 0.01616 0.97611 0.51693 0.0
O286 O 0.02386 0.09022 0.49573 0.0
O287 O 0.94869 0.06695 0.48467 0.0
H288 H 0.86399 0.94536 0.58592 0.0
H289 H 0.8305 0.91252 0.64829 0.0
H290 H 0.76007 1.00292 0.65623 0.0
H291 H 0.79373 1.03608 0.59369 0.0
H292 H 0.1124 0.14041 0.53379 0.0
H293 H 0.16755 0.20225 0.51105 0.0
H294 H 0.24983 0.12961 0.47318 0.0
H295 H 0.19501 0.06792 0.4959 0.0
Tb296 Tb 0.54584 0.06437 0.10715 0.0
Tb297 Tb 0.44129 1.04029 0.09403 0.0
C298 C 0.62702 0.10121 0.1107 0.0
C299 C 0.6565 0.14154 0.12246 0.0
C300 C 0.66822 0.17305 0.09313 0.0
C301 C 0.69837 0.21031 0.10404 0.0
C302 C 0.71765 0.21617 0.14421 0.0
C303 C 0.70574 0.18501 0.1735 0.0
C304 C 0.67557 0.14801 0.16275 0.0
C305 C 0.50189 0.99429 0.14017 0.0
C306 C 0.48825 0.10769 0.15834 0.0
C307 C 0.36223 0.99953 0.09952 0.0
C308 C 0.32922 0.97562 0.06948 0.0
C309 C 0.30179 0.9376 0.08103 0.0
C310 C 0.27598 0.91131 1.05115 0.0
C311 C 0.2774 0.92312 1.00962 0.0
C312 C 0.30332 0.96176 0.99834 0.0
C313 C 0.32929 0.98781 1.02803 0.0
C314 C 0.48162 0.10134 1.04367 0.0
C315 C 0.49773 1.00618 1.03397 0.0
O316 O 0.60106 0.09935 0.07719 0.0
O317 O 0.60706 0.07803 0.14054 0.0
O318 O 0.48967 1.02643 0.13658 0.0
O319 O 0.54239 1.00269 0.12877 0.0
O320 O 0.52798 0.10688 0.14729 0.0
O321 O 0.45052 0.0817 0.14502 0.0
O322 O 0.3961 0.98489 0.10808 0.0
O323 O 0.37425 1.03908 0.09392 0.0
O324 O 0.49726 0.08281 0.07184 0.0
O325 O 0.43886 0.08443 1.04284 0.0
O326 O 0.45855 1.00201 1.04916 0.0
O327 O 0.53507 1.03161 1.04943 0.0
H328 H 0.65465 0.1687 1.06165 0.0
H329 H 0.70733 0.23417 0.08112 0.0
H330 H 0.72044 0.18916 0.20466 0.0
H331 H 0.6678 0.12426 0.18591 0.0
H332 H 0.30198 0.92754 0.11284 0.0
H333 H 0.25637 0.88135 1.06009 0.0
H334 H 0.30495 0.97098 0.96626 0.0
H335 H 0.35089 1.01666 1.01833 0.0
Tb336 Tb 0.51614 0.57902 0.58418 0.0
Tb337 Tb 0.50895 0.49813 0.53947 0.0
C338 C 0.49639 0.6438 0.59379 0.0
C339 C 0.4628 0.65494 0.61656 0.0
C340 C 0.45449 0.69236 0.60816 0.0
C341 C 0.41758 0.70075 0.62357 0.0
C342 C 0.38844 0.67171 0.64737 0.0
C343 C 0.3974 0.63466 0.65693 0.0
C344 C 0.43458 0.62636 0.64168 0.0
C345 C 0.54297 0.52816 0.63571 0.0
C346 C 0.43501 0.49993 0.60021 0.0
C347 C 0.52541 0.43526 0.51503 0.0
C348 C 0.56495 0.42463 0.50211 0.0
C349 C 0.6058 0.4374 0.52487 0.0
C350 C 0.64322 0.42787 0.51209 0.0
C351 C 0.64042 0.40518 0.47635 0.0
C352 C 0.59955 0.39188 0.45367 0.0
C353 C 0.56205 0.40163 0.46645 0.0
C354 C 0.46793 0.548 0.50126 0.0
C355 C 0.59648 0.57603 0.53216 0.0
O356 O 0.47959 0.61848 0.56371 0.0
O357 O 0.52885 0.63435 0.61536 0.0
O358 O 0.52994 0.5235 0.5981 0.0
O359 O 0.54232 0.56451 0.64542 0.0
O360 O 0.45205 0.53988 0.60279 0.0
O361 O 0.45204 0.47694 0.5777 0.0
O362 O 0.52534 0.44423 0.55396 0.0
O363 O 0.51048 0.45984 0.49052 0.0
O364 O 0.50453 0.55696 0.52236 0.0
O365 O 0.4542 0.50852 0.49948 0.0
O366 O 0.57446 0.53779 0.5224 0.0
O367 O 0.58091 0.59724 0.5579 0.0
H368 H 0.47553 0.71445 0.58834 0.0
H369 H 0.41095 0.72945 0.6159 0.0
H370 H 0.3751 0.61194 0.6752 0.0
H371 H 0.44034 0.59717 0.64824 0.0
H372 H 0.60892 0.45497 0.55241 0.0
H373 H 0.67447 0.43833 0.52999 0.0
H374 H 0.59682 0.37424 0.42601 0.0
H375 H 0.53085 0.39134 0.44845 0.0
Tb376 Tb 1.00203 0.55079 1.02573 0.0
Tb377 Tb 0.00997 0.48636 0.08734 0.0
C378 C 0.96732 0.59319 0.97806 0.0
C379 C 0.93877 0.61989 0.98256 0.0
C380 C 0.90753 0.62191 0.95056 0.0
C381 C 0.87887 0.64595 0.95442 0.0
C382 C 0.88116 0.66833 0.99035 0.0
C383 C 0.912 0.66594 1.02271 0.0
C384 C 0.94058 0.64168 1.01891 0.0
C385 C 0.08013 0.56581 0.06675 0.0
C386 C 0.9674 0.55278 0.11699 0.0
C387 C 0.03993 0.44186 0.13693 0.0
C388 C 0.08189 0.43118 0.1436 0.0
C389 C 0.11922 0.45145 0.122 0.0
C390 C 0.16045 0.44462 0.13211 0.0
C391 C 0.16464 0.41726 0.1638 0.0
C392 C 0.12693 0.39597 0.18438 0.0
C393 C 0.0858 0.40296 0.17437 0.0
C394 C 0.93224 0.47091 1.04501 0.0
C395 C 0.04759 0.48725 0.99741 0.0
O396 O 0.9486 0.55486 0.98594 0.0
O397 O 0.00826 0.60571 0.99374 0.0
O398 O 0.04256 0.54932 0.08068 0.0
O399 O 0.07422 0.57775 1.02913 0.0
O400 O 0.97131 0.5681 0.0791 0.0
O401 O 0.98077 0.52049 0.12771 0.0
O402 O 0.04272 0.47988 0.14377 0.0
O403 O 0.01579 0.4283 0.10333 0.0
O404 O 0.9702 0.48799 1.03253 0.0
O405 O 0.93769 0.45809 0.08226 0.0
O406 O 0.05166 0.47823 1.03722 0.0
O407 O 0.02519 0.51301 0.98458 0.0
H408 H 0.90534 0.60488 0.92255 0.0
H409 H 0.85533 0.64763 0.92916 0.0
H410 H 0.9142 0.68317 1.05058 0.0
H411 H 0.9641 0.64009 1.0442 0.0
H412 H 0.11664 0.47336 0.09825 0.0
H413 H 0.18924 0.46132 0.11602 0.0
H414 H 0.12967 0.37486 0.209 0.0
H415 H 0.05736 0.38725 0.19147 0.0
C416 C 0.3112 0.26372 0.47887 0.0
C417 C 0.31086 0.26643 0.43534 0.0
C418 C 0.24042 0.21279 0.42985 0.0
C419 C 0.24388 0.20636 0.4729 0.0
N420 N 0.28298 0.22348 0.53889 0.0
N421 N 0.27881 0.23979 0.3688 0.0
C422 C 0.27923 0.23144 0.49769 0.0
C423 C 0.27625 0.24019 0.4106 0.0
N424 N 0.34168 0.29231 0.50202 0.0
N425 N 0.20267 0.19281 0.40742 0.0
H426 H 0.30472 0.25889 0.35313 0.0
H427 H 0.25726 0.21805 0.34982 0.0
H428 H 0.17583 0.17212 0.4205 0.0
H429 H 0.19622 0.19949 0.37669 0.0
H430 H 0.34118 0.29441 0.53382 0.0
H431 H 0.36562 0.31607 0.48895 0.0
H432 H 0.31057 0.23761 0.55793 0.0
H433 H 0.25934 0.20087 0.55375 0.0
C434 C 0.19904 0.87892 0.92019 0.0
C435 C 0.22708 0.86162 0.89866 0.0
C436 C 0.28164 0.87315 0.95701 0.0
C437 C 0.25579 0.89421 0.97672 0.0
N438 N 0.186 0.90848 0.98374 0.0
N439 N 0.28804 0.83205 0.89927 0.0
C440 C 0.21285 0.89385 0.96057 0.0
C441 C 0.26594 0.85498 0.91826 0.0
N442 N 0.16047 0.88275 0.90097 0.0
N443 N 0.32231 0.87278 0.97437 0.0
H444 H 0.27752 0.81903 0.87048 0.0
H445 H 0.31465 0.82323 0.91305 0.0
H446 H 0.33375 0.88426 1.00363 0.0
H447 H 0.34543 0.86243 0.95961 0.0
H448 H 0.14061 0.89895 0.91277 0.0
H449 H 0.14873 0.87025 0.87215 0.0
H450 H 0.1531 0.90686 0.97523 0.0
H451 H 0.19587 0.91974 1.01334 0.0
C452 C 0.54694 0.4697 0.73722 0.0
C453 C 0.57636 0.44651 0.72892 0.0
C454 C 0.58413 0.47669 0.6592 0.0
C455 C 0.55205 0.49739 0.66622 0.0
N456 N 0.49674 0.50751 0.70998 0.0
N457 N 0.61575 0.42171 0.67894 0.0
C458 C 0.5317 0.49212 0.70474 0.0
C459 C 0.59268 0.44811 0.68892 0.0
N460 N 0.53489 0.4717 0.77659 0.0
N461 N 0.60893 0.48637 0.62552 0.0
H462 H 0.62244 0.40024 0.69967 0.0
H463 H 0.62451 0.4186 0.64909 0.0
H464 H 0.60404 0.50728 0.60331 0.0
H465 H 0.6369 0.4765 0.62171 0.0
H466 H 0.5179 0.49176 0.78569 0.0
H467 H 0.54509 0.45571 0.8011 0.0
H468 H 0.47768 0.50136 0.73567 0.0
H469 H 0.48344 0.52277 0.68676 0.0
C470 C 0.95709 0.60128 0.22013 0.0
C471 C 0.92035 0.61697 0.21098 0.0
C472 C 0.91178 0.58769 0.14138 0.0
C473 C 0.95089 0.57482 0.14937 0.0
N474 N 0.01676 0.5792 0.19375 0.0
N475 N 0.86776 0.63172 0.1603 0.0
C476 C 0.97512 0.58418 0.18811 0.0
C477 C 0.89919 0.61208 0.17081 0.0
N478 N 0.97442 0.60195 0.25974 0.0
N479 N 0.88541 0.5753 0.10647 0.0
H480 H 0.85737 0.64943 0.18097 0.0
H481 H 0.85489 0.63343 0.13027 0.0
H482 H 0.89267 0.5571 0.08436 0.0
H483 H 0.85418 0.57995 0.10111 0.0
H484 H 0.99778 0.58679 0.26926 0.0
H485 H 0.96267 0.61472 0.28385 0.0
H486 H 0.03776 0.58965 0.21958 0.0
H487 H 0.03256 0.56884 0.17089 0.0
C488 C 0.50378 0.18477 0.24445 0.0
C489 C 0.47799 0.20969 0.22725 0.0
C490 C 0.46315 0.17019 0.1638 0.0
C491 C 0.48524 0.14278 0.1824 0.0
N492 N 0.52273 0.12101 0.24155 0.0
N493 N 0.42885 0.22405 0.17278 0.0
C494 C 0.50484 0.1494 0.22299 0.0
C495 C 0.45652 0.20182 0.18753 0.0
N496 N 0.52754 0.19525 0.28107 0.0
N497 N 0.45019 0.16717 0.12283 0.0
H498 H 0.42462 0.24885 0.18819 0.0
H499 H 0.40763 0.21627 0.14659 0.0
H500 H 0.45388 0.14439 0.10409 0.0
H501 H 0.43926 0.18926 0.10638 0.0
H502 H 0.55059 0.18091 0.29336 0.0
H503 H 0.52656 0.22042 0.2979 0.0
H504 H 0.5335 0.12179 0.27246 0.0
H505 H 0.52378 0.09473 0.22673 0.0
C506 C 0.04322 0.93912 0.68637 0.0
C507 C 0.03448 0.89891 0.67148 0.0
C508 C 0.97586 0.90964 0.62345 0.0
C509 C 0.98911 0.9512 0.63433 0.0
N510 N 0.02004 1.001 0.686 0.0
N511 N 0.98464 0.84206 0.63609 0.0
C512 C 0.01738 0.96415 0.66962 0.0
C513 C 0.99775 0.8828 0.64355 0.0
N514 N 0.07828 0.95438 0.7139 0.0
N515 N 0.94407 0.8966 0.59262 0.0
H516 H 1.00044 0.82219 0.65093 0.0
H517 H 0.95651 0.82752 0.61793 0.0
H518 H 0.92463 0.91478 0.58125 0.0
H519 H 0.93658 0.86823 0.57895 0.0
H520 H 0.08943 0.98484 0.72203 0.0
H521 H 0.09789 0.93701 0.72722 0.0
H522 H 0.03771 1.01163 0.71349 0.0
H523 H 1.00049 1.01901 0.67368 0.0
C524 C 0.85058 0.43647 0.95115 0.0
C525 C 0.8091 0.42718 0.96945 0.0
C526 C 0.84816 0.45372 1.03518 0.0
C527 C 0.88991 0.45684 1.0184 0.0
N528 N 0.92807 0.44016 0.96161 0.0
N529 N 0.76851 0.42213 1.03075 0.0
C530 C 0.89052 0.44563 0.97658 0.0
C531 C 0.80787 0.43464 1.01199 0.0
N532 N 0.85195 0.43658 0.90928 0.0
N533 N 0.84672 0.47001 0.07277 0.0
H534 H 0.73839 0.40831 1.01487 0.0
H535 H 0.76634 0.42248 1.06254 0.0
H536 H 0.87506 0.48481 0.09059 0.0
H537 H 0.81742 0.47241 0.08444 0.0
H538 H 0.8814 0.44709 0.89419 0.0
H539 H 0.82337 0.43032 0.88963 0.0
H540 H 0.92881 0.42856 0.93247 0.0
H541 H 0.9567 0.44155 0.97982 0.0
C542 C 0.69508 0.58495 0.46599 0.0
C543 C 0.70865 0.62682 0.45584 0.0
C544 C 0.65201 0.63817 0.49937 0.0
C545 C 0.63901 0.59599 0.51087 0.0
N546 N 0.6636 0.53544 0.51777 0.0
N547 N 0.71099 0.69456 0.47533 0.0
C548 C 0.66525 0.57123 0.49798 0.0
C549 C 0.69061 0.65377 0.47657 0.0
N550 N 0.70921 0.55782 0.44439 0.0
N551 N 0.62724 0.66367 0.50771 0.0
H552 H 0.73996 0.70703 0.45992 0.0
H553 H 0.70215 0.71534 0.49345 0.0
H554 H 0.59977 0.65656 0.52533 0.0
H555 H 0.63251 0.69235 0.49419 0.0
H556 H 0.69671 0.52653 0.44823 0.0
H557 H 0.73029 0.56636 0.42022 0.0
H558 H 0.68475 0.51795 0.51181 0.0
H559 H 0.64577 0.5265 0.54398 0.0
C560 C 0.27246 0.38629 0.16851 0.0
C561 C 0.28866 0.39791 0.20934 0.0
C562 C 0.22855 0.42942 0.21618 0.0
C563 C 0.20894 0.41283 0.17778 0.0
N564 N 0.20951 0.3721 0.11864 0.0
N565 N 0.27835 0.42506 0.27463 0.0
C566 C 0.2303 0.39054 0.15407 0.0
C567 C 0.26588 0.41827 0.23385 0.0
N568 N 0.29777 0.37184 0.14342 0.0
N569 N 0.21193 0.45645 0.23544 0.0
H570 H 0.30509 0.41688 0.28919 0.0
H571 H 0.25978 0.43554 0.29496 0.0
H572 H 0.18475 0.4656 0.22325 0.0
H573 H 0.22766 0.47275 0.26134 0.0
H574 H 0.28987 0.36657 0.11214 0.0
H575 H 0.32886 0.36854 0.1531 0.0
H576 H 0.22107 0.35173 0.10244 0.0
H577 H 0.17879 0.37478 0.10698 0.0
C578 C 0.56334 0.19855 1.00164 0.0
C579 C 0.54524 0.19994 0.96078 0.0
C580 C 0.49177 0.13319 0.97236 0.0
C581 C 0.50581 0.13436 1.01489 0.0
N582 N 0.54973 0.17383 0.07099 0.0
N583 N 0.48716 0.17132 0.90926 0.0
C584 C 0.54045 0.16845 1.02976 0.0
C585 C 0.50802 0.16798 0.94671 0.0
N586 N 0.60295 0.22556 1.01356 0.0
N587 N 0.46436 0.09822 0.95579 0.0
H588 H 0.49772 0.19635 0.88982 0.0
H589 H 0.45704 0.15117 0.89923 0.0
H590 H 0.45352 0.07145 0.97271 0.0
H591 H 0.4566 0.09434 0.92432 0.0
H592 H 0.61983 0.2238 1.04177 0.0
H593 H 0.6211 0.24761 0.99385 0.0
H594 H 0.57137 0.2 0.08387 0.0
H595 H 0.53183 0.15429 0.09248 0.0
C596 C 0.96999 0.89801 0.41328 0.0
C597 C 0.9269 0.87117 0.41772 0.0
C598 C 0.91474 0.91465 0.47226 0.0
C599 C 0.95734 0.94217 0.46721 0.0
N600 N 0.02039 0.96525 0.42539 0.0
N601 N 0.85435 0.85921 0.44427 0.0
C602 C 0.98337 0.93539 0.43532 0.0
C603 C 0.89805 0.88123 0.44496 0.0
N604 N 0.99884 0.88711 0.38924 0.0
N605 N 0.891 0.91922 0.5045 0.0
H606 H 0.84095 0.83457 0.4248 0.0
H607 H 0.83054 0.86754 0.46016 0.0
H608 H 0.90262 0.94315 0.52481 0.0
H609 H 0.86218 0.89782 0.51309 0.0
H610 H 0.0323 0.90306 0.38837 0.0
H611 H 0.9902 0.86022 0.37252 0.0
H612 H 0.03863 0.96387 0.40008 0.0
H613 H 0.03015 0.99335 0.43993 0.0
C614 C 0.31104 0.71202 0.70833 0.0
C615 C 0.28115 0.71724 0.67567 0.0
C616 C 0.31202 0.6777 0.63034 0.0
C617 C 0.34748 0.68016 0.66017 0.0
N618 N 0.38096 0.69794 0.72821 0.0
N619 N 0.25084 0.704 0.60606 0.0
C620 C 0.34658 0.69603 0.69977 0.0
C621 C 0.28028 0.69896 0.63699 0.0
N622 N 0.30553 0.72302 0.74728 0.0
N623 N 0.30915 0.65526 0.59566 0.0
H624 H 0.22622 0.71823 0.61053 0.0
H625 H 0.25192 0.69574 0.57568 0.0
H626 H 0.33212 0.63941 0.59024 0.0
H627 H 0.28219 0.64936 0.57423 0.0
H628 H 0.32385 0.71711 0.77322 0.0
H629 H 0.2796 0.73484 0.75406 0.0
H630 H 0.38503 0.71348 0.75586 0.0
H631 H 0.4069 0.68552 0.72323 0.0
C632 C 0.79973 0.94616 0.77278 0.0
C633 C 0.7582 0.91785 0.77987 0.0
C634 C 0.74029 0.91167 0.70534 0.0
C635 C 0.781 0.94142 0.69878 0.0
N636 N 0.85037 0.98666 0.72576 0.0
N637 N 0.68729 0.87515 0.75424 0.0
C638 C 0.81085 0.9584 0.7323 0.0
C639 C 0.72802 0.9008 0.74644 0.0
N640 N 0.82948 0.96269 0.80426 0.0
N641 N 0.71411 0.89331 0.67221 0.0
H642 H 0.67799 0.86566 0.78389 0.0
H643 H 0.6618 0.8646 0.73187 0.0
H644 H 0.72204 0.90123 0.64189 0.0
H645 H 0.68597 0.86878 0.6743 0.0
H646 H 0.82458 0.95586 0.83534 0.0
H647 H 0.82458 0.95586 0.83534 0.0
H648 H 0.87307 0.99974 0.74977 0.0
H649 H 0.86052 0.99713 0.69659 0.0
C650 C 0.82954 0.28823 0.17427 0.0
C651 C 0.81626 0.30774 0.20691 0.0
C652 C 0.73848 0.28107 0.18253 0.0
C653 C 0.75126 0.25431 0.15671 0.0
N654 N 0.80845 0.23362 0.12466 0.0
N655 N 0.75885 0.32594 0.24124 0.0
C656 C 0.79677 0.25899 0.15069 0.0
C657 C 0.77095 0.30607 0.21007 0.0
N658 N 0.8736 0.29709 0.16693 0.0
N659 N 0.69508 0.28155 0.18117 0.0
H660 H 0.78197 0.34543 0.26119 0.0
H661 H 0.72607 0.32196 0.24845 0.0
H662 H 0.67096 0.26317 0.16109 0.0
H663 H 0.68384 0.30241 0.1969 0.0
H664 H 0.88564 0.28625 0.1418 0.0
H665 H 0.89782 0.31849 0.18427 0.0
H666 H 0.84087 0.23214 0.1225 0.0
H667 H 0.78516 0.21265 0.10616 0.0
C668 C 0.38979 0.58825 0.42567 0.0
C669 C 0.42112 0.61588 0.4015 0.0
C670 C 0.48075 0.6091 0.45145 0.0
C671 C 0.45096 0.57572 0.47126 0.0
N672 N 0.37517 0.53492 0.4776 0.0
N673 N 0.49796 0.64685 0.38792 0.0
C674 C 0.40488 0.56574 0.45837 0.0
C675 C 0.467 0.6247 0.41348 0.0
N676 N 0.34553 0.58462 0.41836 0.0
N677 N 0.52157 0.62761 0.46938 0.0
H678 H 0.48964 0.65831 0.35954 0.0
H679 H 0.53189 0.65023 0.39301 0.0
H680 H 0.53106 0.62132 0.49924 0.0
H681 H 0.54294 0.65379 0.45741 0.0
H682 H 0.32109 0.5684 0.43738 0.0
H683 H 0.33349 0.60091 0.3952 0.0
H684 H 0.34265 0.52221 0.46613 0.0
H685 H 0.38334 0.52116 0.50464 0.0
C686 C 0.11534 0.4696 0.90813 0.0
C687 C 0.09609 0.42751 0.90078 0.0
C688 C 0.04992 0.42354 0.96038 0.0
C689 C 0.06645 0.46636 0.96576 0.0
N690 N 0.11276 0.53079 0.94262 0.0
N691 N 0.0405 0.36552 0.91586 0.0
C692 C 0.09842 0.48954 0.93885 0.0
C693 C 0.0622 0.40483 0.92591 0.0
N694 N 0.15101 0.49027 0.8867 0.0
N695 N 0.0226 0.40043 0.98831 0.0
H696 H 0.04869 0.35078 0.89115 0.0
H697 H 0.01198 0.34856 0.92957 0.0
H698 H 0.01068 0.41249 1.01271 0.0
H699 H 0.01405 0.36887 0.98913 0.0
H700 H 0.17019 0.51961 0.89365 0.0
H701 H 0.16355 0.47702 0.86347 0.0
H702 H 0.13135 0.55003 0.921 0.0
H703 H 0.10429 0.54623 0.96656 0.0
C704 C 0.56042 0.9692 0.95875 0.0
C705 C 0.54893 0.92805 0.972 0.0
C706 C 0.48336 0.93667 1.00313 0.0
C707 C 0.50234 0.97923 1.00037 0.0
N708 N 0.5454 1.03496 0.96151 0.0
N709 N 0.49668 0.87037 1.00095 0.0
C710 C 0.53626 0.99504 0.97288 0.0
C711 C 0.5088 0.91082 0.99154 0.0
N712 N 0.59622 0.98376 0.93525 0.0
N713 N 0.44149 0.92126 1.01639 0.0
H714 H 0.51414 0.85084 0.99126 0.0
H715 H 0.47056 0.85652 1.01931 0.0
H716 H 0.42086 0.93949 1.02127 0.0
H717 H 0.42516 0.89038 1.01745 0.0
H718 H 0.60893 1.01405 0.92693 0.0
H719 H 0.61361 0.96503 0.92373 0.0
H720 H 0.56887 0.0492 0.94077 0.0
H721 H 0.52679 0.05341 0.97144 0.0
C722 C 0.01779 0.19882 0.43582 0.0
C723 C 0.97557 0.20089 0.41948 0.0
C724 C 0.94786 0.12657 0.42202 0.0
C725 C 0.98751 0.1255 0.44462 0.0
N726 N 0.06673 0.15614 0.44886 0.0
N727 N 0.90117 0.16712 0.393 0.0
C728 C 0.02475 0.16027 0.44422 0.0
C729 C 0.94093 0.16475 0.41085 0.0
N730 N 0.0506 0.23358 0.44517 0.0
N731 N 0.91869 0.09098 0.40879 0.0
H732 H 0.89585 0.19428 0.38209 0.0
H733 H 0.87281 0.1426 0.3904 0.0
H734 H 0.92605 0.06327 0.41274 0.0
H735 H 0.89027 0.0891 0.3899 0.0
H736 H 0.08012 0.23366 0.46166 0.0
H737 H 0.04691 0.26249 0.43936 0.0
H738 H 0.09522 0.18028 0.44608 0.0
H739 H 0.0728 0.12782 0.44891 0.0
C740 C 0.16291 0.63495 0.14409 0.0
C741 C 0.19915 0.61781 0.1443 0.0
C742 C 0.15902 0.5696 0.09081 0.0
C743 C 0.1212 0.58416 0.09321 0.0
N744 N 0.08598 0.62986 0.12321 0.0
N745 N 0.22883 0.56441 0.12334 0.0
C746 C 0.12272 0.61642 0.12043 0.0
C747 C 0.19633 0.58385 0.11918 0.0
N748 N 0.16774 0.67019 0.1649 0.0
N749 N 0.15988 0.54296 1.06059 0.0
H750 H 0.25639 0.57373 0.14402 0.0
H751 H 0.2266 0.53705 0.1091 0.0
H752 H 0.13318 0.53161 1.03951 0.0
H753 H 0.18817 0.53457 1.05433 0.0
H754 H 0.14483 0.687 0.1624 0.0
H755 H 0.19641 0.68447 0.18265 0.0
H756 H 0.08268 0.64925 0.14612 0.0
H757 H 0.05751 0.62011 0.10376 0.0
C758 C 0.33142 0.4847 0.66165 0.0
C759 C 0.33267 0.45046 0.68661 0.0
C760 C 0.40431 0.45233 0.65883 0.0
C761 C 0.3982 0.48062 0.62783 0.0
N762 N 0.35349 0.52274 0.59924 0.0
N763 N 0.38886 0.43081 0.72867 0.0
C764 C 0.36107 0.49658 0.6292 0.0
C765 C 0.37441 0.44197 0.69099 0.0
N766 N 0.30895 0.51066 0.67389 0.0
N767 N 0.439 0.43568 0.65876 0.0
H768 H 0.37082 0.43002 0.75473 0.0
H769 H 0.42087 0.42818 0.73506 0.0
H770 H 0.46415 0.44385 0.63825 0.0
H771 H 0.44134 0.4118 0.67837 0.0
H772 H 0.30991 0.53803 0.65888 0.0
H773 H 0.2964 0.50827 0.70309 0.0
H774 H 0.32462 0.53213 0.5969 0.0
H775 H 0.37396 0.53203 0.57475 0.0
C776 C 0.83306 0.75624 0.96531 0.0
C777 C 0.79834 0.74873 0.99292 0.0
C778 C 0.81605 0.68677 1.01757 0.0
C779 C 0.85318 0.69642 0.99257 0.0
N780 N 0.9023 0.74419 0.94888 0.0
N781 N 0.7594 0.71013 1.04874 0.0
C782 C 0.86316 0.73226 0.96816 0.0
C783 C 0.7905 0.71485 1.02006 0.0
N784 N 0.8366 0.78571 0.93562 0.0
N785 N 0.80454 0.65031 1.03788 0.0
H786 H 0.73948 0.72966 1.05061 0.0
H787 H 0.75535 0.68862 0.07236 0.0
H788 H 0.82275 0.62924 1.03702 0.0
H789 H 0.7753 0.63962 1.05318 0.0
H790 H 0.85808 0.78948 0.91179 0.0
H791 H 0.81529 0.80416 0.93246 0.0
H792 H 0.91364 0.7723 0.93443 0.0
H793 H 0.92562 0.72769 0.95057 0.0
C794 C 0.43788 0.91052 0.21326 0.0
C795 C 0.43741 0.87496 0.19167 0.0
C796 C 0.477 0.91728 0.13611 0.0
C797 C 0.47634 0.95337 0.1567 0.0
N798 N 0.4505 0.98363 0.21312 0.0
N799 N 0.44672 0.84446 0.12836 0.0
C800 C 0.45459 0.94974 0.1945 0.0
C801 C 0.45406 0.87843 0.15188 0.0
N802 N 0.42421 0.90685 0.25259 0.0
N803 N 0.50039 0.91965 0.10167 0.0
H804 H 0.43035 0.81544 0.13876 0.0
H805 H 0.45298 0.84536 0.09725 0.0
H806 H 0.51433 0.94654 0.08615 0.0
H807 H 0.50812 0.89484 0.08957 0.0
H808 H 0.42856 0.93126 0.27225 0.0
H809 H 0.41102 0.87881 0.26675 0.0
H810 H 0.43014 0.98266 0.2374 0.0
H811 H 0.46541 1.01305 0.20321 0.0
C812 C 0.06545 0.16498 0.66909 0.0
C813 C 0.066 0.20472 0.65554 0.0
C814 C 0.02965 0.17679 0.58905 0.0
C815 C 0.0286 0.13663 0.60275 0.0
N816 N 0.06082 0.09614 0.65065 0.0
N817 N 0.05389 0.24969 0.60112 0.0
C818 C 0.0509 0.13168 0.64124 0.0
C819 C 0.04957 0.2109 0.61502 0.0
N820 N 0.07871 0.15883 0.70893 0.0
N821 N 0.01218 0.18245 0.55062 0.0
H822 H 0.06552 0.27503 0.61998 0.0
H823 H 0.04791 0.25738 0.57066 0.0
H824 H 1.00462 0.16013 0.5282 0.0
H825 H 1.0052 0.20908 0.54056 0.0
H826 H 0.0734 0.13017 0.72241 0.0
H827 H 0.09186 0.18238 0.7297 0.0
H828 H 0.08064 0.09227 0.67637 0.0
H829 H 0.05494 0.07214 0.63045 0.0
C830 C 0.73912 0.4052 0.41385 0.0
C831 C 0.75984 0.38095 0.43945 0.0
C832 C 0.69873 0.36802 0.48588 0.0
C833 C 0.68071 0.39581 0.46275 0.0
N834 N 0.68764 0.44619 0.40867 0.0
N835 N 0.76337 0.34426 0.5031 0.0
C836 C 0.70196 0.41589 0.42777 0.0
C837 C 0.74072 0.36367 0.4764 0.0
N838 N 0.75395 0.41684 0.37558 0.0
N839 N 0.67508 0.34494 0.51613 0.0
H840 H 0.79434 0.34068 0.49731 0.0
H841 H 0.75335 0.33483 0.53251 0.0
H842 H 0.64403 0.34707 0.5237 0.0
H843 H 0.68429 0.32118 0.53113 0.0
H844 H 0.7372 0.43079 0.3539 0.0
H845 H 0.78077 0.40925 0.36398 0.0
H846 H 0.70499 0.46505 0.38606 0.0
H847 H 0.66045 0.45491 0.41782 0.0
loop_
_geom_bond_atom_site_label_1
_geom_bond_atom_site_label_2
_geom_bond_distance
_geom_bond_site_symmetry_2
_ccdc_geom_bond_type
P0 O11 1.490 . S
P0 C14 1.812 . S
P0 C20 1.803 . S
P0 C26 1.819 . S
H1 C15 0.941 . S
H2 C16 0.939 . S
H3 C18 0.940 . S
H4 C19 0.940 . S
H5 C21 0.939 . S
H6 C22 0.942 . S
H7 C24 0.940 . S
H8 C25 0.939 . S
H9 C27 0.941 . S
H10 C31 0.939 . S
O11 P0 1.490 . S
H12 C28 0.939 . S
H13 C30 0.940 . S
C14 P0 1.812 . S
C14 C15 1.389 . S
C14 C19 1.391 . S
C15 H1 0.941 . S
C15 C14 1.389 . S
C15 C16 1.397 . S
C16 H2 0.939 . S
C16 C15 1.397 . S
C16 C17 1.378 . S
C17 C16 1.378 . S
C17 C18 1.378 . S
C18 H3 0.940 . S
C18 C17 1.378 . S
C18 C19 1.396 . S
C19 H4 0.940 . S
C19 C14 1.391 . S
C19 C18 1.396 . S
C20 P0 1.803 . S
C20 C21 1.378 . S
C20 C25 1.400 . S
C21 H5 0.939 . S
C21 C20 1.378 . S
C21 C22 1.361 . S
C22 H6 0.942 . S
C22 C21 1.361 . S
C22 C23 1.369 . S
C23 C22 1.369 . S
C23 C24 1.404 . S
C24 H7 0.940 . S
C24 C23 1.404 . S
C24 C25 1.389 . S
C25 H8 0.939 . S
C25 C20 1.400 . S
C25 C24 1.389 . S
C26 P0 1.819 . S
C26 C27 1.391 . S
C26 C31 1.391 . S
C27 H9 0.941 . S
C27 C26 1.391 . S
C27 C28 1.396 . S
C28 H12 0.939 . S
C28 C27 1.396 . S
C28 C29 1.397 . S
C29 C28 1.397 . S
C29 C30 1.385 . S
C30 H13 0.940 . S
C30 C29 1.385 . S
C30 C31 1.388 . S
C31 H10 0.939 . S
C31 C26 1.391 . S
C31 C30 1.388 . S
P32 O43 1.490 . S
P32 C46 1.812 . S
P32 C52 1.803 . S
P32 C58 1.819 . S
H33 C47 0.941 . S
H34 C48 0.939 . S
H35 C50 0.940 . S
H36 C51 0.940 . S
H37 C53 0.939 . S
H38 C54 0.942 . S
H39 C56 0.940 . S
H40 C57 0.939 . S
H41 C59 0.941 . S
H42 C63 0.939 . S
O43 P32 1.490 . S
H44 C60 0.939 . S
H45 C62 0.940 . S
C46 P32 1.812 . S
C46 C47 1.389 . S
C46 C51 1.391 . S
C47 H33 0.941 . S
C47 C46 1.389 . S
C47 C48 1.397 . S
C48 H34 0.939 . S
C48 C47 1.397 . S
C48 C49 1.378 . S
C49 C48 1.378 . S
C49 C50 1.378 . S
C50 H35 0.940 . S
C50 C49 1.378 . S
C50 C51 1.396 . S
C51 H36 0.940 . S
C51 C46 1.391 . S
C51 C50 1.396 . S
C52 P32 1.803 . S
C52 C53 1.378 . S
C52 C57 1.400 . S
C53 H37 0.939 . S
C53 C52 1.378 . S
C53 C54 1.361 . S
C54 H38 0.942 . S
C54 C53 1.361 . S
C54 C55 1.369 . S
C55 C54 1.369 . S
C55 C56 1.404 . S
C56 H39 0.940 . S
C56 C55 1.404 . S
C56 C57 1.389 . S
C57 H40 0.939 . S
C57 C52 1.400 . S
C57 C56 1.389 . S
C58 P32 1.819 . S
C58 C59 1.391 . S
C58 C63 1.391 . S
C59 H41 0.941 . S
C59 C58 1.391 . S
C59 C60 1.396 . S
C60 H44 0.939 . S
C60 C59 1.396 . S
C60 C61 1.397 . S
C61 C60 1.397 . S
C61 C62 1.385 . S
C62 H45 0.940 . S
C62 C61 1.385 . S
C62 C63 1.388 . S
C63 H42 0.939 . S
C63 C58 1.391 . S
C63 C62 1.388 . S
P64 O75 1.490 . S
P64 C78 1.812 . S
P64 C84 1.803 . S
P64 C90 1.819 . S
H65 C79 0.941 . S
H66 C80 0.939 . S
H67 C82 0.940 . S
H68 C83 0.940 . S
H69 C85 0.939 . S
H70 C86 0.942 . S
H71 C88 0.940 . S
H72 C89 0.939 . S
H73 C91 0.941 . S
H74 C95 0.939 . S
O75 P64 1.490 . S
H76 C92 0.939 . S
H77 C94 0.940 . S
C78 P64 1.812 . S
C78 C79 1.389 . S
C78 C83 1.391 . S
C79 H65 0.941 . S
C79 C78 1.389 . S
C79 C80 1.397 . S
C80 H66 0.939 . S
C80 C79 1.397 . S
C80 C81 1.378 . S
C81 C80 1.378 . S
C81 C82 1.378 . S
C82 H67 0.940 . S
C82 C81 1.378 . S
C82 C83 1.396 . S
C83 H68 0.940 . S
C83 C78 1.391 . S
C83 C82 1.396 . S
C84 P64 1.803 . S
C84 C85 1.378 . S
C84 C89 1.400 . S
C85 H69 0.939 . S
C85 C84 1.378 . S
C85 C86 1.361 . S
C86 H70 0.942 . S
C86 C85 1.361 . S
C86 C87 1.369 . S
C87 C86 1.369 . S
C87 C88 1.404 . S
C88 H71 0.940 . S
C88 C87 1.404 . S
C88 C89 1.389 . S
C89 H72 0.939 . S
C89 C84 1.400 . S
C89 C88 1.389 . S
C90 P64 1.819 . S
C90 C91 1.391 . S
C90 C95 1.391 . S
C91 H73 0.941 . S
C91 C90 1.391 . S
C91 C92 1.396 . S
C92 H76 0.939 . S
C92 C91 1.396 . S
C92 C93 1.397 . S
C93 C92 1.397 . S
C93 C94 1.385 . S
C94 H77 0.940 . S
C94 C93 1.385 . S
C94 C95 1.388 . S
C95 H74 0.939 . S
C95 C90 1.391 . S
C95 C94 1.388 . S
P96 O107 1.490 . S
P96 C110 1.812 . S
P96 C116 1.803 . S
P96 C122 1.819 . S
H97 C111 0.941 . S
H98 C112 0.939 . S
H99 C114 0.940 . S
H100 C115 0.940 . S
H101 C117 0.939 . S
H102 C118 0.942 . S
H103 C120 0.940 . S
H104 C121 0.939 . S
H105 C123 0.941 . S
H106 C127 0.939 . S
O107 P96 1.490 . S
H108 C124 0.939 . S
H109 C126 0.940 . S
C110 P96 1.812 . S
C110 C111 1.389 . S
C110 C115 1.391 . S
C111 H97 0.941 . S
C111 C110 1.389 . S
C111 C112 1.397 . S
C112 H98 0.939 . S
C112 C111 1.397 . S
C112 C113 1.378 . S
C113 C112 1.378 . S
C113 C114 1.378 . S
C114 H99 0.940 . S
C114 C113 1.378 . S
C114 C115 1.396 . S
C115 H100 0.940 . S
C115 C110 1.391 . S
C115 C114 1.396 . S
C116 P96 1.803 . S
C116 C117 1.378 . S
C116 C121 1.400 . S
C117 H101 0.939 . S
C117 C116 1.378 . S
C117 C118 1.361 . S
C118 H102 0.942 . S
C118 C117 1.361 . S
C118 C119 1.369 . S
C119 C118 1.369 . S
C119 C120 1.404 . S
C120 H103 0.940 . S
C120 C119 1.404 . S
C120 C121 1.389 . S
C121 H104 0.939 . S
C121 C116 1.400 . S
C121 C120 1.389 . S
C122 P96 1.819 . S
C122 C123 1.391 . S
C122 C127 1.391 . S
C123 H105 0.941 . S
C123 C122 1.391 . S
C123 C124 1.396 . S
C124 H108 0.939 . S
C124 C123 1.396 . S
C124 C125 1.397 . S
C125 C124 1.397 . S
C125 C126 1.385 . S
C126 H109 0.940 . S
C126 C125 1.385 . S
C126 C127 1.388 . S
C127 H106 0.939 . S
C127 C122 1.391 . S
C127 C126 1.388 . S
P128 O139 1.490 . S
P128 C142 1.812 . S
P128 C148 1.803 . S
P128 C154 1.819 . S
H129 C143 0.941 . S
H130 C144 0.939 . S
H131 C146 0.940 . S
H132 C147 0.940 . S
H133 C149 0.939 . S
H134 C150 0.942 . S
H135 C152 0.940 . S
H136 C153 0.939 . S
H137 C155 0.941 . S
H138 C159 0.939 . S
O139 P128 1.490 . S
H140 C156 0.939 . S
H141 C158 0.940 . S
C142 P128 1.812 . S
C142 C143 1.389 . S
C142 C147 1.391 . S
C143 H129 0.941 . S
C143 C142 1.389 . S
C143 C144 1.397 . S
C144 H130 0.939 . S
C144 C143 1.397 . S
C144 C145 1.378 . S
C145 C144 1.378 . S
C145 C146 1.378 . S
C146 H131 0.940 . S
C146 C145 1.378 . S
C146 C147 1.396 . S
C147 H132 0.940 . S
C147 C142 1.391 . S
C147 C146 1.396 . S
C148 P128 1.803 . S
C148 C149 1.378 . S
C148 C153 1.400 . S
C149 H133 0.939 . S
C149 C148 1.378 . S
C149 C150 1.361 . S
C150 H134 0.942 . S
C150 C149 1.361 . S
C150 C151 1.369 . S
C151 C150 1.369 . S
C151 C152 1.404 . S
C152 H135 0.940 . S
C152 C151 1.404 . S
C152 C153 1.389 . S
C153 H136 0.939 . S
C153 C148 1.400 . S
C153 C152 1.389 . S
C154 P128 1.819 . S
C154 C155 1.391 . S
C154 C159 1.391 . S
C155 H137 0.941 . S
C155 C154 1.391 . S
C155 C156 1.396 . S
C156 H140 0.939 . S
C156 C155 1.396 . S
C156 C157 1.397 . S
C157 C156 1.397 . S
C157 C158 1.385 . S
C158 H141 0.940 . S
C158 C157 1.385 . S
C158 C159 1.388 . S
C159 H138 0.939 . S
C159 C154 1.391 . S
C159 C158 1.388 . S
P160 O171 1.490 . S
P160 C174 1.812 . S
P160 C180 1.803 . S
P160 C186 1.819 . S
H161 C175 0.941 . S
H162 C176 0.939 . S
H163 C178 0.940 . S
H164 C179 0.940 . S
H165 C181 0.939 1_455 S
H166 C182 0.942 . S
H167 C184 0.940 . S
H168 C185 0.939 . S
H169 C187 0.941 . S
H170 C191 0.939 . S
O171 P160 1.490 . S
H172 C188 0.939 . S
H173 C190 0.940 . S
C174 P160 1.812 . S
C174 C175 1.389 . S
C174 C179 1.391 . S
C175 H161 0.941 . S
C175 C174 1.389 . S
C175 C176 1.397 . S
C176 H162 0.939 . S
C176 C175 1.397 . S
C176 C177 1.378 . S
C177 C176 1.378 . S
C177 C178 1.378 . S
C178 H163 0.940 . S
C178 C177 1.378 . S
C178 C179 1.396 . S
C179 H164 0.940 . S
C179 C174 1.391 . S
C179 C178 1.396 . S
C180 P160 1.803 . S
C180 C181 1.378 . S
C180 C185 1.400 . S
C181 H165 0.939 1_655 S
C181 C180 1.378 . S
C181 C182 1.361 1_655 S
C182 H166 0.942 . S
C182 C181 1.361 1_455 S
C182 C183 1.369 1_455 S
C183 C182 1.369 1_655 S
C183 C184 1.404 . S
C184 H167 0.940 . S
C184 C183 1.404 . S
C184 C185 1.389 . S
C185 H168 0.939 . S
C185 C180 1.400 . S
C185 C184 1.389 . S
C186 P160 1.819 . S
C186 C187 1.391 . S
C186 C191 1.391 . S
C187 H169 0.941 . S
C187 C186 1.391 . S
C187 C188 1.396 . S
C188 H172 0.939 . S
C188 C187 1.396 . S
C188 C189 1.397 . S
C189 C188 1.397 . S
C189 C190 1.385 . S
C190 H173 0.940 . S
C190 C189 1.385 . S
C190 C191 1.388 . S
C191 H170 0.939 . S
C191 C186 1.391 . S
C191 C190 1.388 . S
P192 O203 1.490 . S
P192 C206 1.812 . S
P192 C212 1.803 . S
P192 C218 1.819 . S
H193 C207 0.941 . S
H194 C208 0.939 . S
H195 C210 0.940 . S
H196 C211 0.940 . S
H197 C213 0.939 . S
H198 C214 0.942 . S
H199 C216 0.940 . S
H200 C217 0.939 . S
H201 C219 0.941 . S
H202 C223 0.939 . S
O203 P192 1.490 . S
H204 C220 0.939 . S
H205 C222 0.940 . S
C206 P192 1.812 . S
C206 C207 1.389 . S
C206 C211 1.391 . S
C207 H193 0.941 . S
C207 C206 1.389 . S
C207 C208 1.397 . S
C208 H194 0.939 . S
C208 C207 1.397 . S
C208 C209 1.378 . S
C209 C208 1.378 . S
C209 C210 1.378 . S
C210 H195 0.940 . S
C210 C209 1.378 . S
C210 C211 1.396 . S
C211 H196 0.940 . S
C211 C206 1.391 . S
C211 C210 1.396 . S
C212 P192 1.803 . S
C212 C213 1.378 . S
C212 C217 1.400 . S
C213 H197 0.939 . S
C213 C212 1.378 . S
C213 C214 1.361 . S
C214 H198 0.942 . S
C214 C213 1.361 . S
C214 C215 1.369 . S
C215 C214 1.369 . S
C215 C216 1.404 . S
C216 H199 0.940 . S
C216 C215 1.404 . S
C216 C217 1.389 . S
C217 H200 0.939 . S
C217 C212 1.400 . S
C217 C216 1.389 . S
C218 P192 1.819 . S
C218 C219 1.391 . S
C218 C223 1.391 . S
C219 H201 0.941 . S
C219 C218 1.391 . S
C219 C220 1.396 . S
C220 H204 0.939 . S
C220 C219 1.396 . S
C220 C221 1.397 . S
C221 C220 1.397 . S
C221 C222 1.385 . S
C222 H205 0.940 . S
C222 C221 1.385 . S
C222 C223 1.388 . S
C223 H202 0.939 . S
C223 C218 1.391 . S
C223 C222 1.388 . S
P224 O235 1.490 . S
P224 C238 1.812 . S
P224 C244 1.803 . S
P224 C250 1.819 . S
H225 C239 0.941 . S
H226 C240 0.939 . S
H227 C242 0.940 . S
H228 C243 0.940 . S
H229 C245 0.939 . S
H230 C246 0.942 . S
H231 C248 0.940 . S
H232 C249 0.939 . S
H233 C251 0.941 . S
H234 C255 0.939 . S
O235 P224 1.490 . S
H236 C252 0.939 . S
H237 C254 0.940 . S
C238 P224 1.812 . S
C238 C239 1.389 . S
C238 C243 1.391 . S
C239 H225 0.941 . S
C239 C238 1.389 . S
C239 C240 1.397 . S
C240 H226 0.939 . S
C240 C239 1.397 . S
C240 C241 1.378 . S
C241 C240 1.378 . S
C241 C242 1.378 . S
C242 H227 0.940 . S
C242 C241 1.378 . S
C242 C243 1.396 . S
C243 H228 0.940 . S
C243 C238 1.391 . S
C243 C242 1.396 . S
C244 P224 1.803 . S
C244 C245 1.378 . S
C244 C249 1.400 . S
C245 H229 0.939 . S
C245 C244 1.378 . S
C245 C246 1.361 . S
C246 H230 0.942 . S
C246 C245 1.361 . S
C246 C247 1.369 . S
C247 C246 1.369 . S
C247 C248 1.404 . S
C248 H231 0.940 . S
C248 C247 1.404 . S
C248 C249 1.389 . S
C249 H232 0.939 . S
C249 C244 1.400 . S
C249 C248 1.389 . S
C250 P224 1.819 . S
C250 C251 1.391 . S
C250 C255 1.391 . S
C251 H233 0.941 . S
C251 C250 1.391 . S
C251 C252 1.396 . S
C252 H236 0.939 . S
C252 C251 1.396 . S
C252 C253 1.397 . S
C253 C252 1.397 . S
C253 C254 1.385 . S
C254 H237 0.940 . S
C254 C253 1.385 . S
C254 C255 1.388 . S
C255 H234 0.939 . S
C255 C250 1.391 . S
C255 C254 1.388 . S
Tb256 C258 2.817 . S
Tb256 O276 2.498 . S
Tb256 O277 2.442 . S
Tb256 O278 2.653 1_665 S
Tb256 O279 2.399 1_565 S
Tb256 O280 2.387 1_655 S
Tb256 O284 2.335 . S
Tb256 O287 2.332 1_565 S
Tb257 C267 2.809 . S
Tb257 O278 2.325 . S
Tb257 O281 2.341 1_545 S
Tb257 O282 2.484 . S
Tb257 O283 2.440 . S
Tb257 O284 2.658 1_445 S
Tb257 O285 2.409 1_545 S
Tb257 O286 2.378 . S
C258 Tb256 2.817 . S
C258 C259 1.514 . S
C258 O276 1.248 . S
C258 O277 1.266 . S
C259 C258 1.514 . S
C259 C260 1.359 . S
C259 C264 1.348 . S
C260 C259 1.359 . S
C260 C261 1.380 . S
C260 H288 0.929 . S
C261 C260 1.380 . S
C261 C262 1.347 . S
C261 H289 0.931 . S
C262 C261 1.347 . S
C262 C263 1.369 . S
C263 C262 1.369 . S
C263 C264 1.408 . S
C263 H290 0.930 . S
C264 C259 1.348 . S
C264 C263 1.408 . S
C264 H291 0.930 . S
C265 O278 1.281 . S
C265 O279 1.254 1_455 S
C266 O280 1.236 . S
C266 O281 1.266 . S
C267 Tb257 2.809 . S
C267 C268 1.514 . S
C267 O282 1.248 . S
C267 O283 1.266 . S
C268 C267 1.514 . S
C268 C269 1.359 . S
C268 C273 1.348 . S
C269 C268 1.359 . S
C269 C270 1.380 . S
C269 H292 0.929 . S
C270 C269 1.380 . S
C270 C271 1.347 . S
C270 H293 0.931 . S
C271 C270 1.347 . S
C271 C272 1.369 . S
C272 C271 1.369 . S
C272 C273 1.408 . S
C272 H294 0.930 . S
C273 C268 1.348 . S
C273 C272 1.408 . S
C273 H295 0.930 . S
C274 O284 1.281 . S
C274 O285 1.254 1_655 S
C275 O286 1.236 1_655 S
C275 O287 1.266 . S
O276 Tb256 2.498 . S
O276 C258 1.248 . S
O277 Tb256 2.442 . S
O277 C258 1.266 . S
O278 Tb256 2.653 1_445 S
O278 Tb257 2.325 . S
O278 C265 1.281 . S
O279 Tb256 2.399 1_545 S
O279 C265 1.254 1_655 S
O280 Tb256 2.387 1_455 S
O280 C266 1.236 . S
O281 Tb257 2.341 1_565 S
O281 C266 1.266 . S
O282 Tb257 2.484 . S
O282 C267 1.248 . S
O283 Tb257 2.440 . S
O283 C267 1.266 . S
O284 Tb256 2.335 . S
O284 Tb257 2.658 1_665 S
O284 C274 1.281 . S
O285 Tb257 2.409 1_565 S
O285 C274 1.254 1_455 S
O286 Tb257 2.378 . S
O286 C275 1.236 1_455 S
O287 Tb256 2.332 1_545 S
O287 C275 1.266 . S
H288 C260 0.929 . S
H289 C261 0.931 . S
H290 C263 0.930 . S
H291 C264 0.930 . S
H292 C269 0.929 . S
H293 C270 0.931 . S
H294 C272 0.930 . S
H295 C273 0.930 . S
Tb296 C298 2.809 . S
Tb296 O316 2.484 . S
Tb296 O317 2.440 . S
Tb296 O318 2.658 1_545 S
Tb296 O319 2.409 1_545 S
Tb296 O320 2.378 . S
Tb296 O324 2.325 1_554 S
Tb296 O327 2.341 1_544 S
Tb297 C307 2.801 1_545 S
Tb297 O318 2.317 1_546 S
Tb297 O321 2.350 1_556 S
Tb297 O322 2.473 1_545 S
Tb297 O323 2.438 1_545 S
Tb297 O324 2.664 . S
Tb297 O325 2.417 . S
Tb297 O326 2.371 1_545 S
C298 Tb296 2.809 . S
C298 C299 1.514 . S
C298 O316 1.248 . S
C298 O317 1.266 . S
C299 C298 1.514 . S
C299 C300 1.359 . S
C299 C304 1.348 . S
C300 C299 1.359 . S
C300 C301 1.380 . S
C300 H328 0.929 . S
C301 C300 1.380 . S
C301 C302 1.347 . S
C301 H329 0.931 . S
C302 C301 1.347 . S
C302 C303 1.369 . S
C303 C302 1.369 . S
C303 C304 1.408 . S
C303 H330 0.930 . S
C304 C299 1.348 . S
C304 C303 1.408 . S
C304 H331 0.930 . S
C305 O318 1.281 . S
C305 O319 1.254 . S
C306 O320 1.236 . S
C306 O321 1.266 . S
C307 Tb297 2.801 1_565 S
C307 C308 1.514 . S
C307 O322 1.248 . S
C307 O323 1.266 . S
C308 C307 1.514 . S
C308 C309 1.359 . S
C308 C313 1.348 . S
C309 C308 1.359 . S
C309 C310 1.380 . S
C309 H332 0.929 . S
C310 C309 1.380 . S
C310 C311 1.347 . S
C310 H333 0.931 . S
C311 C310 1.347 . S
C311 C312 1.369 . S
C312 C311 1.369 . S
C312 C313 1.408 . S
C312 H334 0.930 . S
C313 C308 1.348 . S
C313 C312 1.408 . S
C313 H335 0.930 . S
C314 O324 1.281 . S
C314 O325 1.254 . S
C315 O326 1.236 . S
C315 O327 1.266 . S
O316 Tb296 2.484 . S
O316 C298 1.248 . S
O317 Tb296 2.440 . S
O317 C298 1.266 . S
O318 Tb296 2.658 1_565 S
O318 Tb297 2.317 1_564 S
O318 C305 1.281 . S
O319 Tb296 2.409 1_565 S
O319 C305 1.254 . S
O320 Tb296 2.378 . S
O320 C306 1.236 . S
O321 Tb297 2.350 1_554 S
O321 C306 1.266 . S
O322 Tb297 2.473 1_565 S
O322 C307 1.248 . S
O323 Tb297 2.438 1_565 S
O323 C307 1.266 . S
O324 Tb296 2.325 1_556 S
O324 Tb297 2.664 . S
O324 C314 1.281 . S
O325 Tb297 2.417 . S
O325 C314 1.254 . S
O326 Tb297 2.371 1_565 S
O326 C315 1.236 . S
O327 Tb296 2.341 1_566 S
O327 C315 1.266 . S
H328 C300 0.929 . S
H329 C301 0.931 . S
H330 C303 0.930 . S
H331 C304 0.930 . S
H332 C309 0.929 . S
H333 C310 0.931 . S
H334 C312 0.930 . S
H335 C313 0.930 . S
Tb336 C338 2.809 . S
Tb336 O356 2.484 . S
Tb336 O357 2.440 . S
Tb336 O358 2.658 . S
Tb336 O359 2.409 . S
Tb336 O360 2.378 . S
Tb336 O364 2.325 . S
Tb336 O367 2.341 . S
Tb337 C347 2.809 . S
Tb337 O358 2.325 . S
Tb337 O361 2.341 . S
Tb337 O362 2.484 . S
Tb337 O363 2.440 . S
Tb337 O364 2.658 . S
Tb337 O365 2.409 . S
Tb337 O366 2.378 . S
C338 Tb336 2.809 . S
C338 C339 1.514 . S
C338 O356 1.248 . S
C338 O357 1.266 . S
C339 C338 1.514 . S
C339 C340 1.359 . S
C339 C344 1.348 . S
C340 C339 1.359 . S
C340 C341 1.380 . S
C340 H368 0.929 . S
C341 C340 1.380 . S
C341 C342 1.347 . S
C341 H369 0.931 . S
C342 C341 1.347 . S
C342 C343 1.369 . S
C343 C342 1.369 . S
C343 C344 1.408 . S
C343 H370 0.930 . S
C344 C339 1.348 . S
C344 C343 1.408 . S
C344 H371 0.930 . S
C345 O358 1.281 . S
C345 O359 1.254 . S
C346 O360 1.236 . S
C346 O361 1.266 . S
C347 Tb337 2.809 . S
C347 C348 1.514 . S
C347 O362 1.248 . S
C347 O363 1.266 . S
C348 C347 1.514 . S
C348 C349 1.359 . S
C348 C353 1.348 . S
C349 C348 1.359 . S
C349 C350 1.380 . S
C349 H372 0.929 . S
C350 C349 1.380 . S
C350 C351 1.347 . S
C350 H373 0.931 . S
C351 C350 1.347 . S
C351 C352 1.369 . S
C352 C351 1.369 . S
C352 C353 1.408 . S
C352 H374 0.930 . S
C353 C348 1.348 . S
C353 C352 1.408 . S
C353 H375 0.930 . S
C354 O364 1.281 . S
C354 O365 1.254 . S
C355 O366 1.236 . S
C355 O367 1.266 . S
O356 Tb336 2.484 . S
O356 C338 1.248 . S
O357 Tb336 2.440 . S
O357 C338 1.266 . S
O358 Tb336 2.658 . S
O358 Tb337 2.325 . S
O358 C345 1.281 . S
O359 Tb336 2.409 . S
O359 C345 1.254 . S
O360 Tb336 2.378 . S
O360 C346 1.236 . S
O361 Tb337 2.341 . S
O361 C346 1.266 . S
O362 Tb337 2.484 . S
O362 C347 1.248 . S
O363 Tb337 2.440 . S
O363 C347 1.266 . S
O364 Tb336 2.325 . S
O364 Tb337 2.658 . S
O364 C354 1.281 . S
O365 Tb337 2.409 . S
O365 C354 1.254 . S
O366 Tb337 2.378 . S
O366 C355 1.236 . S
O367 Tb336 2.341 . S
O367 C355 1.266 . S
H368 C340 0.929 . S
H369 C341 0.931 . S
H370 C343 0.930 . S
H371 C344 0.930 . S
H372 C349 0.929 . S
H373 C350 0.931 . S
H374 C352 0.930 . S
H375 C353 0.930 . S
Tb376 C378 2.809 . S
Tb376 O396 2.484 . S
Tb376 O397 2.440 . S
Tb376 O398 2.658 1_656 S
Tb376 O399 2.409 1_656 S
Tb376 O400 2.378 1_556 S
Tb376 O404 2.325 . S
Tb376 O407 2.341 1_655 S
Tb377 C387 2.809 . S
Tb377 O398 2.325 . S
Tb377 O401 2.341 1_455 S
Tb377 O402 2.484 . S
Tb377 O403 2.440 . S
Tb377 O404 2.658 1_454 S
Tb377 O405 2.417 1_455 S
Tb377 O406 2.378 1_554 S
C378 Tb376 2.809 . S
C378 C379 1.514 . S
C378 O396 1.248 . S
C378 O397 1.266 . S
C379 C378 1.514 . S
C379 C380 1.359 . S
C379 C384 1.348 . S
C380 C379 1.359 . S
C380 C381 1.380 . S
C380 H408 0.929 . S
C381 C380 1.380 . S
C381 C382 1.347 . S
C381 H409 0.931 . S
C382 C381 1.347 . S
C382 C383 1.369 . S
C383 C382 1.369 . S
C383 C384 1.408 . S
C383 H410 0.930 . S
C384 C379 1.348 . S
C384 C383 1.408 . S
C384 H411 0.930 . S
C385 O398 1.281 . S
C385 O399 1.254 . S
C386 O400 1.236 . S
C386 O401 1.266 . S
C387 Tb377 2.809 . S
C387 C388 1.514 . S
C387 O402 1.248 . S
C387 O403 1.266 . S
C388 C387 1.514 . S
C388 C389 1.359 . S
C388 C393 1.348 . S
C389 C388 1.359 . S
C389 C390 1.380 . S
C389 H412 0.929 . S
C390 C389 1.380 . S
C390 C391 1.347 . S
C390 H413 0.931 . S
C391 C390 1.347 . S
C391 C392 1.369 . S
C392 C391 1.369 . S
C392 C393 1.408 . S
C392 H414 0.930 . S
C393 C388 1.348 . S
C393 C392 1.408 . S
C393 H415 0.930 . S
C394 O404 1.281 . S
C394 O405 1.244 1_556 S
C395 O406 1.236 . S
C395 O407 1.266 . S
O396 Tb376 2.484 . S
O396 C378 1.248 . S
O397 Tb376 2.440 . S
O397 C378 1.266 . S
O398 Tb376 2.658 1_454 S
O398 Tb377 2.325 . S
O398 C385 1.281 . S
O399 Tb376 2.409 1_454 S
O399 C385 1.254 . S
O400 Tb376 2.378 1_554 S
O400 C386 1.236 . S
O401 Tb377 2.341 1_655 S
O401 C386 1.266 . S
O402 Tb377 2.484 . S
O402 C387 1.248 . S
O403 Tb377 2.440 . S
O403 C387 1.266 . S
O404 Tb376 2.325 . S
O404 Tb377 2.658 1_656 S
O404 C394 1.281 . S
O405 Tb377 2.417 1_655 S
O405 C394 1.244 1_554 S
O406 Tb377 2.378 1_556 S
O406 C395 1.236 . S
O407 Tb376 2.341 1_455 S
O407 C395 1.266 . S
H408 C380 0.929 . S
H409 C381 0.931 . S
H410 C383 0.930 . S
H411 C384 0.930 . S
H412 C389 0.929 . S
H413 C390 0.931 . S
H414 C392 0.930 . S
H415 C393 0.930 . S
C416 C417 1.363 . S
C416 C422 1.379 . S
C416 N424 1.356 . S
C417 C416 1.363 . S
C417 C423 1.363 . S
C418 C419 1.363 . S
C418 C423 1.379 . S
C418 N425 1.356 . S
C419 C418 1.363 . S
C419 C422 1.363 . S
N420 C422 1.356 . S
N420 H432 0.984 . S
N420 H433 0.985 . S
N421 C423 1.356 . S
N421 H426 0.984 . S
N421 H427 0.985 . S
C422 C416 1.379 . S
C422 C419 1.363 . S
C422 N420 1.356 . S
C423 C417 1.363 . S
C423 C418 1.379 . S
C423 N421 1.356 . S
N424 C416 1.356 . S
N424 H430 0.984 . S
N424 H431 0.984 . S
N425 C418 1.356 . S
N425 H428 0.984 . S
N425 H429 0.985 . S
H426 N421 0.984 . S
H427 N421 0.985 . S
H428 N425 0.984 . S
H429 N425 0.985 . S
H430 N424 0.984 . S
H431 N424 0.984 . S
H432 N420 0.984 . S
H433 N420 0.985 . S
C434 C435 1.363 . S
C434 C440 1.379 . S
C434 N442 1.356 . S
C435 C434 1.363 . S
C435 C441 1.363 . S
C436 C437 1.363 . S
C436 C441 1.379 . S
C436 N443 1.356 . S
C437 C436 1.363 . S
C437 C440 1.363 . S
N438 C440 1.356 . S
N438 H450 0.984 . S
N438 H451 0.985 . S
N439 C441 1.356 . S
N439 H444 0.984 . S
N439 H445 0.985 . S
C440 C434 1.379 . S
C440 C437 1.363 . S
C440 N438 1.356 . S
C441 C435 1.363 . S
C441 C436 1.379 . S
C441 N439 1.356 . S
N442 C434 1.356 . S
N442 H448 0.984 . S
N442 H449 0.984 . S
N443 C436 1.356 . S
N443 H446 0.984 . S
N443 H447 0.985 . S
H444 N439 0.984 . S
H445 N439 0.985 . S
H446 N443 0.984 . S
H447 N443 0.985 . S
H448 N442 0.984 . S
H449 N442 0.984 . S
H450 N438 0.984 . S
H451 N438 0.985 . S
C452 C453 1.363 . S
C452 C458 1.379 . S
C452 N460 1.356 . S
C453 C452 1.363 . S
C453 C459 1.363 . S
C454 C455 1.363 . S
C454 C459 1.379 . S
C454 N461 1.356 . S
C455 C454 1.363 . S
C455 C458 1.363 . S
N456 C458 1.356 . S
N456 H468 0.984 . S
N456 H469 0.985 . S
N457 C459 1.356 . S
N457 H462 0.984 . S
N457 H463 0.985 . S
C458 C452 1.379 . S
C458 C455 1.363 . S
C458 N456 1.356 . S
C459 C453 1.363 . S
C459 C454 1.379 . S
C459 N457 1.356 . S
N460 C452 1.356 . S
N460 H466 0.984 . S
N460 H467 0.984 . S
N461 C454 1.356 . S
N461 H464 0.984 . S
N461 H465 0.985 . S
H462 N457 0.984 . S
H463 N457 0.985 . S
H464 N461 0.984 . S
H465 N461 0.985 . S
H466 N460 0.984 . S
H467 N460 0.984 . S
H468 N456 0.984 . S
H469 N456 0.985 . S
C470 C471 1.363 . S
C470 C476 1.379 . S
C470 N478 1.356 . S
C471 C470 1.363 . S
C471 C477 1.363 . S
C472 C473 1.363 . S
C472 C477 1.379 . S
C472 N479 1.356 . S
C473 C472 1.363 . S
C473 C476 1.363 . S
N474 C476 1.356 . S
N474 H486 0.984 . S
N474 H487 0.985 . S
N475 C477 1.356 . S
N475 H480 0.984 . S
N475 H481 0.985 . S
C476 C470 1.379 . S
C476 C473 1.363 . S
C476 N474 1.356 . S
C477 C471 1.363 . S
C477 C472 1.379 . S
C477 N475 1.356 . S
N478 C470 1.356 . S
N478 H484 0.984 . S
N478 H485 0.984 . S
N479 C472 1.356 . S
N479 H482 0.984 . S
N479 H483 0.985 . S
H480 N475 0.984 . S
H481 N475 0.985 . S
H482 N479 0.984 . S
H483 N479 0.985 . S
H484 N478 0.984 . S
H485 N478 0.984 . S
H486 N474 0.984 . S
H487 N474 0.985 . S
C488 C489 1.363 . S
C488 C494 1.379 . S
C488 N496 1.356 . S
C489 C488 1.363 . S
C489 C495 1.363 . S
C490 C491 1.363 . S
C490 C495 1.379 . S
C490 N497 1.356 . S
C491 C490 1.363 . S
C491 C494 1.363 . S
N492 C494 1.356 . S
N492 H504 0.984 . S
N492 H505 0.985 . S
N493 C495 1.356 . S
N493 H498 0.984 . S
N493 H499 0.985 . S
C494 C488 1.379 . S
C494 C491 1.363 . S
C494 N492 1.356 . S
C495 C489 1.363 . S
C495 C490 1.379 . S
C495 N493 1.356 . S
N496 C488 1.356 . S
N496 H502 0.984 . S
N496 H503 0.984 . S
N497 C490 1.356 . S
N497 H500 0.984 . S
N497 H501 0.985 . S
H498 N493 0.984 . S
H499 N493 0.985 . S
H500 N497 0.984 . S
H501 N497 0.985 . S
H502 N496 0.984 . S
H503 N496 0.984 . S
H504 N492 0.984 . S
H505 N492 0.985 . S
C506 C507 1.363 . S
C506 C512 1.379 . S
C506 N514 1.356 . S
C507 C506 1.363 . S
C507 C513 1.363 1_455 S
C508 C509 1.363 1_655 S
C508 C513 1.379 . S
C508 N515 1.356 . S
C509 C508 1.363 1_455 S
C509 C512 1.363 . S
N510 C512 1.356 . S
N510 H522 0.984 . S
N510 H523 0.985 . S
N511 C513 1.356 . S
N511 H516 0.984 . S
N511 H517 0.985 . S
C512 C506 1.379 . S
C512 C509 1.363 . S
C512 N510 1.356 . S
C513 C507 1.363 1_655 S
C513 C508 1.379 . S
C513 N511 1.356 . S
N514 C506 1.356 . S
N514 H520 0.984 . S
N514 H521 0.984 . S
N515 C508 1.356 . S
N515 H518 0.984 . S
N515 H519 0.985 . S
H516 N511 0.984 . S
H517 N511 0.985 . S
H518 N515 0.984 . S
H519 N515 0.985 . S
H520 N514 0.984 . S
H521 N514 0.984 . S
H522 N510 0.984 . S
H523 N510 0.985 . S
C524 C525 1.363 . S
C524 C530 1.379 . S
C524 N532 1.356 . S
C525 C524 1.363 . S
C525 C531 1.363 . S
C526 C527 1.363 . S
C526 C531 1.379 . S
C526 N533 1.356 . S
C527 C526 1.363 . S
C527 C530 1.363 . S
N528 C530 1.356 . S
N528 H540 0.984 . S
N528 H541 0.985 . S
N529 C531 1.356 . S
N529 H534 0.984 . S
N529 H535 0.985 . S
C530 C524 1.379 . S
C530 C527 1.363 . S
C530 N528 1.356 . S
C531 C525 1.363 . S
C531 C526 1.379 . S
C531 N529 1.356 . S
N532 C524 1.356 . S
N532 H538 0.984 . S
N532 H539 0.984 . S
N533 C526 1.356 . S
N533 H536 1.000 . S
N533 H537 0.985 . S
H534 N529 0.984 . S
H535 N529 0.985 . S
H536 N533 1.000 . S
H537 N533 0.985 . S
H538 N532 0.984 . S
H539 N532 0.984 . S
H540 N528 0.984 . S
H541 N528 0.985 . S
C542 C543 1.363 . S
C542 C548 1.379 . S
C542 N550 1.356 . S
C543 C542 1.363 . S
C543 C549 1.363 . S
C544 C545 1.363 . S
C544 C549 1.379 . S
C544 N551 1.356 . S
C545 C544 1.363 . S
C545 C548 1.363 . S
N546 C548 1.356 . S
N546 H558 0.984 . S
N546 H559 0.985 . S
N547 C549 1.356 . S
N547 H552 0.984 . S
N547 H553 0.985 . S
C548 C542 1.379 . S
C548 C545 1.363 . S
C548 N546 1.356 . S
C549 C543 1.363 . S
C549 C544 1.379 . S
C549 N547 1.356 . S
N550 C542 1.356 . S
N550 H556 0.984 . S
N550 H557 0.984 . S
N551 C544 1.356 . S
N551 H554 0.984 . S
N551 H555 0.985 . S
H552 N547 0.984 . S
H553 N547 0.985 . S
H554 N551 0.984 . S
H555 N551 0.985 . S
H556 N550 0.984 . S
H557 N550 0.984 . S
H558 N546 0.984 . S
H559 N546 0.985 . S
C560 C561 1.363 . S
C560 C566 1.379 . S
C560 N568 1.356 . S
C561 C560 1.363 . S
C561 C567 1.363 . S
C562 C563 1.363 . S
C562 C567 1.379 . S
C562 N569 1.356 . S
C563 C562 1.363 . S
C563 C566 1.363 . S
N564 C566 1.356 . S
N564 H576 0.984 . S
N564 H577 0.985 . S
N565 C567 1.356 . S
N565 H570 0.984 . S
N565 H571 0.985 . S
C566 C560 1.379 . S
C566 C563 1.363 . S
C566 N564 1.356 . S
C567 C561 1.363 . S
C567 C562 1.379 . S
C567 N565 1.356 . S
N568 C560 1.356 . S
N568 H574 0.984 . S
N568 H575 0.984 . S
N569 C562 1.356 . S
N569 H572 0.984 . S
N569 H573 0.985 . S
H570 N565 0.984 . S
H571 N565 0.985 . S
H572 N569 0.984 . S
H573 N569 0.985 . S
H574 N568 0.984 . S
H575 N568 0.984 . S
H576 N564 0.984 . S
H577 N564 0.985 . S
C578 C579 1.363 . S
C578 C584 1.379 . S
C578 N586 1.356 . S
C579 C578 1.363 . S
C579 C585 1.363 . S
C580 C581 1.363 . S
C580 C585 1.379 . S
C580 N587 1.356 . S
C581 C580 1.363 . S
C581 C584 1.363 . S
N582 C584 1.356 . S
N582 H594 0.984 . S
N582 H595 0.985 . S
N583 C585 1.356 . S
N583 H588 0.984 . S
N583 H589 0.985 . S
C584 C578 1.379 . S
C584 C581 1.363 . S
C584 N582 1.356 . S
C585 C579 1.363 . S
C585 C580 1.379 . S
C585 N583 1.356 . S
N586 C578 1.356 . S
N586 H592 0.984 . S
N586 H593 0.984 . S
N587 C580 1.356 . S
N587 H590 0.984 . S
N587 H591 0.985 . S
H588 N583 0.984 . S
H589 N583 0.985 . S
H590 N587 0.984 . S
H591 N587 0.985 . S
H592 N586 0.984 . S
H593 N586 0.984 . S
H594 N582 0.984 . S
H595 N582 0.985 . S
C596 C597 1.363 . S
C596 C602 1.379 . S
C596 N604 1.356 . S
C597 C596 1.363 . S
C597 C603 1.363 . S
C598 C599 1.363 . S
C598 C603 1.379 . S
C598 N605 1.356 . S
C599 C598 1.363 . S
C599 C602 1.363 . S
N600 C602 1.356 . S
N600 H612 0.984 . S
N600 H613 0.985 . S
N601 C603 1.356 . S
N601 H606 0.984 . S
N601 H607 0.985 . S
C602 C596 1.379 . S
C602 C599 1.363 . S
C602 N600 1.356 . S
C603 C597 1.363 . S
C603 C598 1.379 . S
C603 N601 1.356 . S
N604 C596 1.356 . S
N604 H610 0.984 . S
N604 H611 0.984 . S
N605 C598 1.356 . S
N605 H608 0.984 . S
N605 H609 0.985 . S
H606 N601 0.984 . S
H607 N601 0.985 . S
H608 N605 0.984 . S
H609 N605 0.985 . S
H610 N604 0.984 . S
H611 N604 0.984 . S
H612 N600 0.984 . S
H613 N600 0.985 . S
C614 C615 1.363 . S
C614 C620 1.379 . S
C614 N622 1.356 . S
C615 C614 1.363 . S
C615 C621 1.363 . S
C616 C617 1.363 . S
C616 C621 1.379 . S
C616 N623 1.356 . S
C617 C616 1.363 . S
C617 C620 1.363 . S
N618 C620 1.356 . S
N618 H630 0.984 . S
N618 H631 0.985 . S
N619 C621 1.356 . S
N619 H624 0.984 . S
N619 H625 0.985 . S
C620 C614 1.379 . S
C620 C617 1.363 . S
C620 N618 1.356 . S
C621 C615 1.363 . S
C621 C616 1.379 . S
C621 N619 1.356 . S
N622 C614 1.356 . S
N622 H628 0.984 . S
N622 H629 0.984 . S
N623 C616 1.356 . S
N623 H626 0.984 . S
N623 H627 0.985 . S
H624 N619 0.984 . S
H625 N619 0.985 . S
H626 N623 0.984 . S
H627 N623 0.985 . S
H628 N622 0.984 . S
H629 N622 0.984 . S
H630 N618 0.984 . S
H631 N618 0.985 . S
C632 C633 1.363 . S
C632 C638 1.379 . S
C632 N640 1.356 . S
C633 C632 1.363 . S
C633 C639 1.363 . S
C634 C635 1.363 . S
C634 C639 1.379 . S
C634 N641 1.356 . S
C635 C634 1.363 . S
C635 C638 1.363 . S
N636 C638 1.356 . S
N636 H648 0.984 . S
N636 H649 0.985 . S
N637 C639 1.356 . S
N637 H642 0.984 . S
N637 H643 0.985 . S
C638 C632 1.379 . S
C638 C635 1.363 . S
C638 N636 1.356 . S
C639 C633 1.363 . S
C639 C634 1.379 . S
C639 N637 1.356 . S
N640 C632 1.356 . S
N640 H646 0.984 . S
N640 H647 0.984 . S
N641 C634 1.356 . S
N641 H644 0.984 . S
N641 H645 0.985 . S
H642 N637 0.984 . S
H643 N637 0.985 . S
H644 N641 0.984 . S
H645 N641 0.985 . S
H646 N640 0.984 . S
H647 N640 0.984 . S
H648 N636 0.984 . S
H649 N636 0.985 . S
C650 C651 1.363 . S
C650 C656 1.379 . S
C650 N658 1.356 . S
C651 C650 1.363 . S
C651 C657 1.363 . S
C652 C653 1.363 . S
C652 C657 1.379 . S
C652 N659 1.356 . S
C653 C652 1.363 . S
C653 C656 1.363 . S
N654 C656 1.356 . S
N654 H666 0.984 . S
N654 H667 0.985 . S
N655 C657 1.356 . S
N655 H660 0.984 . S
N655 H661 0.985 . S
C656 C650 1.379 . S
C656 C653 1.363 . S
C656 N654 1.356 . S
C657 C651 1.363 . S
C657 C652 1.379 . S
C657 N655 1.356 . S
N658 C650 1.356 . S
N658 H664 0.984 . S
N658 H665 0.984 . S
N659 C652 1.356 . S
N659 H662 0.984 . S
N659 H663 0.985 . S
H660 N655 0.984 . S
H661 N655 0.985 . S
H662 N659 0.984 . S
H663 N659 0.985 . S
H664 N658 0.984 . S
H665 N658 0.984 . S
H666 N654 0.984 . S
H667 N654 0.985 . S
C668 C669 1.363 . S
C668 C674 1.379 . S
C668 N676 1.356 . S
C669 C668 1.363 . S
C669 C675 1.363 . S
C670 C671 1.363 . S
C670 C675 1.379 . S
C670 N677 1.356 . S
C671 C670 1.363 . S
C671 C674 1.363 . S
N672 C674 1.356 . S
N672 H684 0.984 . S
N672 H685 0.985 . S
N673 C675 1.356 . S
N673 H678 0.984 . S
N673 H679 0.985 . S
C674 C668 1.379 . S
C674 C671 1.363 . S
C674 N672 1.356 . S
C675 C669 1.363 . S
C675 C670 1.379 . S
C675 N673 1.356 . S
N676 C668 1.356 . S
N676 H682 0.984 . S
N676 H683 0.984 . S
N677 C670 1.356 . S
N677 H680 0.984 . S
N677 H681 0.985 . S
H678 N673 0.984 . S
H679 N673 0.985 . S
H680 N677 0.984 . S
H681 N677 0.985 . S
H682 N676 0.984 . S
H683 N676 0.984 . S
H684 N672 0.984 . S
H685 N672 0.985 . S
C686 C687 1.363 . S
C686 C692 1.379 . S
C686 N694 1.356 . S
C687 C686 1.363 . S
C687 C693 1.363 . S
C688 C689 1.363 . S
C688 C693 1.379 . S
C688 N695 1.356 . S
C689 C688 1.363 . S
C689 C692 1.363 . S
N690 C692 1.356 . S
N690 H702 0.984 . S
N690 H703 0.985 . S
N691 C693 1.356 . S
N691 H696 0.984 . S
N691 H697 0.985 . S
C692 C686 1.379 . S
C692 C689 1.363 . S
C692 N690 1.356 . S
C693 C687 1.363 . S
C693 C688 1.379 . S
C693 N691 1.356 . S
N694 C686 1.356 . S
N694 H700 0.984 . S
N694 H701 0.984 . S
N695 C688 1.356 . S
N695 H698 0.984 . S
N695 H699 0.985 . S
H696 N691 0.984 . S
H697 N691 0.985 . S
H698 N695 0.984 . S
H699 N695 0.985 . S
H700 N694 0.984 . S
H701 N694 0.984 . S
H702 N690 0.984 . S
H703 N690 0.985 . S
C704 C705 1.363 . S
C704 C710 1.379 . S
C704 N712 1.356 . S
C705 C704 1.363 . S
C705 C711 1.363 . S
C706 C707 1.363 . S
C706 C711 1.379 . S
C706 N713 1.356 . S
C707 C706 1.363 . S
C707 C710 1.363 . S
N708 C710 1.356 . S
N708 H720 0.984 . S
N708 H721 0.985 . S
N709 C711 1.356 . S
N709 H714 0.984 . S
N709 H715 0.985 . S
C710 C704 1.379 . S
C710 C707 1.363 . S
C710 N708 1.356 . S
C711 C705 1.363 . S
C711 C706 1.379 . S
C711 N709 1.356 . S
N712 C704 1.356 . S
N712 H718 0.984 . S
N712 H719 0.984 . S
N713 C706 1.356 . S
N713 H716 0.984 . S
N713 H717 0.985 . S
H714 N709 0.984 . S
H715 N709 0.985 . S
H716 N713 0.984 . S
H717 N713 0.985 . S
H718 N712 0.984 . S
H719 N712 0.984 . S
H720 N708 0.984 . S
H721 N708 0.985 . S
C722 C723 1.363 1_455 S
C722 C728 1.379 . S
C722 N730 1.356 . S
C723 C722 1.363 1_655 S
C723 C729 1.363 . S
C724 C725 1.363 . S
C724 C729 1.379 . S
C724 N731 1.356 . S
C725 C724 1.363 . S
C725 C728 1.363 1_655 S
N726 C728 1.356 . S
N726 H738 0.984 . S
N726 H739 0.985 . S
N727 C729 1.356 . S
N727 H732 0.984 . S
N727 H733 0.985 . S
C728 C722 1.379 . S
C728 C725 1.363 1_455 S
C728 N726 1.356 . S
C729 C723 1.363 . S
C729 C724 1.379 . S
C729 N727 1.356 . S
N730 C722 1.356 . S
N730 H736 0.984 . S
N730 H737 0.984 . S
N731 C724 1.356 . S
N731 H734 0.984 . S
N731 H735 0.985 . S
H732 N727 0.984 . S
H733 N727 0.985 . S
H734 N731 0.984 . S
H735 N731 0.985 . S
H736 N730 0.984 . S
H737 N730 0.984 . S
H738 N726 0.984 . S
H739 N726 0.985 . S
C740 C741 1.363 . S
C740 C746 1.379 . S
C740 N748 1.356 . S
C741 C740 1.363 . S
C741 C747 1.363 . S
C742 C743 1.363 . S
C742 C747 1.379 . S
C742 N749 1.356 . S
C743 C742 1.363 . S
C743 C746 1.363 . S
N744 C746 1.356 . S
N744 H756 0.984 . S
N744 H757 0.985 . S
N745 C747 1.356 . S
N745 H750 0.984 . S
N745 H751 0.985 . S
C746 C740 1.379 . S
C746 C743 1.363 . S
C746 N744 1.356 . S
C747 C741 1.363 . S
C747 C742 1.379 . S
C747 N745 1.356 . S
N748 C740 1.356 . S
N748 H754 0.984 . S
N748 H755 0.984 . S
N749 C742 1.356 . S
N749 H752 0.984 . S
N749 H753 0.985 . S
H750 N745 0.984 . S
H751 N745 0.985 . S
H752 N749 0.984 . S
H753 N749 0.985 . S
H754 N748 0.984 . S
H755 N748 0.984 . S
H756 N744 0.984 . S
H757 N744 0.985 . S
C758 C759 1.363 . S
C758 C764 1.379 . S
C758 N766 1.356 . S
C759 C758 1.363 . S
C759 C765 1.363 . S
C760 C761 1.363 . S
C760 C765 1.379 . S
C760 N767 1.356 . S
C761 C760 1.363 . S
C761 C764 1.363 . S
N762 C764 1.356 . S
N762 H774 0.984 . S
N762 H775 0.985 . S
N763 C765 1.356 . S
N763 H768 0.984 . S
N763 H769 0.985 . S
C764 C758 1.379 . S
C764 C761 1.363 . S
C764 N762 1.356 . S
C765 C759 1.363 . S
C765 C760 1.379 . S
C765 N763 1.356 . S
N766 C758 1.356 . S
N766 H772 0.984 . S
N766 H773 0.984 . S
N767 C760 1.356 . S
N767 H770 0.984 . S
N767 H771 0.985 . S
H768 N763 0.984 . S
H769 N763 0.985 . S
H770 N767 0.984 . S
H771 N767 0.985 . S
H772 N766 0.984 . S
H773 N766 0.984 . S
H774 N762 0.984 . S
H775 N762 0.985 . S
C776 C777 1.363 . S
C776 C782 1.379 . S
C776 N784 1.356 . S
C777 C776 1.363 . S
C777 C783 1.363 . S
C778 C779 1.363 . S
C778 C783 1.379 . S
C778 N785 1.356 . S
C779 C778 1.363 . S
C779 C782 1.363 . S
N780 C782 1.356 . S
N780 H792 0.984 . S
N780 H793 0.985 . S
N781 C783 1.356 . S
N781 H786 0.984 . S
N781 H787 0.985 . S
C782 C776 1.379 . S
C782 C779 1.363 . S
C782 N780 1.356 . S
C783 C777 1.363 . S
C783 C778 1.379 . S
C783 N781 1.356 . S
N784 C776 1.356 . S
N784 H790 0.984 . S
N784 H791 0.984 . S
N785 C778 1.356 . S
N785 H788 0.984 . S
N785 H789 0.985 . S
H786 N781 0.984 . S
H787 N781 0.985 . S
H788 N785 0.984 . S
H789 N785 0.985 . S
H790 N784 0.984 . S
H791 N784 0.984 . S
H792 N780 0.984 . S
H793 N780 0.985 . S
C794 C795 1.363 . S
C794 C800 1.379 . S
C794 N802 1.356 . S
C795 C794 1.363 . S
C795 C801 1.363 . S
C796 C797 1.363 . S
C796 C801 1.379 . S
C796 N803 1.356 . S
C797 C796 1.363 . S
C797 C800 1.363 . S
N798 C800 1.356 . S
N798 H810 0.984 . S
N798 H811 0.985 . S
N799 C801 1.356 . S
N799 H804 0.984 . S
N799 H805 0.985 . S
C800 C794 1.379 . S
C800 C797 1.363 . S
C800 N798 1.356 . S
C801 C795 1.363 . S
C801 C796 1.379 . S
C801 N799 1.356 . S
N802 C794 1.356 . S
N802 H808 0.984 . S
N802 H809 0.984 . S
N803 C796 1.356 . S
N803 H806 0.984 . S
N803 H807 0.985 . S
H804 N799 0.984 . S
H805 N799 0.985 . S
H806 N803 0.984 . S
H807 N803 0.985 . S
H808 N802 0.984 . S
H809 N802 0.984 . S
H810 N798 0.984 . S
H811 N798 0.985 . S
C812 C813 1.363 . S
C812 C818 1.379 . S
C812 N820 1.356 . S
C813 C812 1.363 . S
C813 C819 1.363 . S
C814 C815 1.363 . S
C814 C819 1.379 . S
C814 N821 1.356 . S
C815 C814 1.363 . S
C815 C818 1.363 . S
N816 C818 1.356 . S
N816 H828 0.984 . S
N816 H829 0.985 . S
N817 C819 1.356 . S
N817 H822 0.984 . S
N817 H823 0.985 . S
C818 C812 1.379 . S
C818 C815 1.363 . S
C818 N816 1.356 . S
C819 C813 1.363 . S
C819 C814 1.379 . S
C819 N817 1.356 . S
N820 C812 1.356 . S
N820 H826 0.984 . S
N820 H827 0.984 . S
N821 C814 1.356 . S
N821 H824 0.984 . S
N821 H825 0.985 . S
H822 N817 0.984 . S
H823 N817 0.985 . S
H824 N821 0.984 . S
H825 N821 0.985 . S
H826 N820 0.984 . S
H827 N820 0.984 . S
H828 N816 0.984 . S
H829 N816 0.985 . S
C830 C831 1.363 . S
C830 C836 1.379 . S
C830 N838 1.356 . S
C831 C830 1.363 . S
C831 C837 1.363 . S
C832 C833 1.363 . S
C832 C837 1.379 . S
C832 N839 1.356 . S
C833 C832 1.363 . S
C833 C836 1.363 . S
N834 C836 1.356 . S
N834 H846 0.984 . S
N834 H847 0.985 . S
N835 C837 1.356 . S
N835 H840 0.984 . S
N835 H841 0.985 . S
C836 C830 1.379 . S
C836 C833 1.363 . S
C836 N834 1.356 . S
C837 C831 1.363 . S
C837 C832 1.379 . S
C837 N835 1.356 . S
N838 C830 1.356 . S
N838 H844 0.984 . S
N838 H845 0.984 . S
N839 C832 1.356 . S
N839 H842 0.984 . S
N839 H843 0.985 . S
H840 N835 0.984 . S
H841 N835 0.985 . S
H842 N839 0.984 . S
H843 N839 0.985 . S
H844 N838 0.984 . S
H845 N838 0.984 . S
H846 N834 0.984 . S
H847 N834 0.985 . S
C417 C29 1.352 . S
C419 C271 1.360 . S
C435 C49 1.107 . S
C437 C311 1.335 . S
C455 C345 2.418 . S
C453 C93 2.421 . S
C471 C119 2.602 . S
C473 C386 2.544 . S
C491 C306 1.489 . S
C489 C17 1.458 . S
C509 C266 2.202 . S
C507 C61 1.808 . S
C527 C394 1.748 . S
C525 C81 1.717 . S
C545 C355 1.893 . S
C543 C125 2.015 . S
C561 C23 1.726 . S
C563 C391 1.638 . S
C581 C314 2.058 . S
C579 C87 2.095 . S
C597 C113 2.468 . S
C599 C274 2.371 . S
C615 C55 1.467 . S
C617 C342 1.702 . S
C635 C262 1.366 . S
C633 C157 1.209 . S
C651 C189 1.430 . S
C653 C302 1.382 . S
C669 C221 2.336 . S
C671 C354 2.387 . S
C687 C253 2.651 . S
C689 C395 2.614 . S
C705 C145 1.352 . S
C707 C315 1.580 . S
C725 C275 2.192 . S
C723 C183 2.120 . S
C743 C385 1.765 . S
C741 C209 1.676 . S
C761 C346 1.878 . S
C759 C247 1.979 . S
C777 C151 1.413 . S
C779 C382 1.635 . S
C797 C305 2.041 . S
C795 C215 2.048 . S
C815 C265 2.368 . S
C813 C241 2.430 . S
C831 C177 1.705 . S
C833 C351 1.702 . S
