# Generated by pormake.
# Topology pyr, (3,6)-cn, num edge types: 1
# Building blocks:
#     Node 0, Type 0, BuildingBlock: VETTIZ_charged_linker_0, # of connection points: 3
#     Node 1, Type 0, BuildingBlock: VETTIZ_charged_linker_0, # of connection points: 3
#     Node 2, Type 0, BuildingBlock: VETTIZ_charged_linker_0, # of connection points: 3
#     Node 3, Type 0, BuildingBlock: VETTIZ_charged_linker_0, # of connection points: 3
#     Node 4, Type 0, BuildingBlock: VETTIZ_charged_linker_0, # of connection points: 3
#     Node 5, Type 0, BuildingBlock: VETTIZ_charged_linker_0, # of connection points: 3
#     Node 6, Type 0, BuildingBlock: VETTIZ_charged_linker_0, # of connection points: 3
#     Node 7, Type 0, BuildingBlock: VETTIZ_charged_linker_0, # of connection points: 3
#     Node 8, Type 1, BuildingBlock: FUNLAD_clean_sbu_0, # of connection points: 6
#     Node 9, Type 1, BuildingBlock: FUNLAD_clean_sbu_0, # of connection points: 6
#     Node 10, Type 1, BuildingBlock: FUNLAD_clean_sbu_0, # of connection points: 6
#     Node 11, Type 1, BuildingBlock: FUNLAD_clean_sbu_0, # of connection points: 6
#     Edge 12, Type (0, 1), BuildingBlock: OJICUG_clean_linker_0, # of connection points: 2
#     Edge 13, Type (0, 1), BuildingBlock: OJICUG_clean_linker_0, # of connection points: 2
#     Edge 14, Type (0, 1), BuildingBlock: OJICUG_clean_linker_0, # of connection points: 2
#     Edge 15, Type (0, 1), BuildingBlock: OJICUG_clean_linker_0, # of connection points: 2
#     Edge 16, Type (0, 1), BuildingBlock: OJICUG_clean_linker_0, # of connection points: 2
#     Edge 17, Type (0, 1), BuildingBlock: OJICUG_clean_linker_0, # of connection points: 2
#     Edge 18, Type (0, 1), BuildingBlock: OJICUG_clean_linker_0, # of connection points: 2
#     Edge 19, Type (0, 1), BuildingBlock: OJICUG_clean_linker_0, # of connection points: 2
#     Edge 20, Type (0, 1), BuildingBlock: OJICUG_clean_linker_0, # of connection points: 2
#     Edge 21, Type (0, 1), BuildingBlock: OJICUG_clean_linker_0, # of connection points: 2
#     Edge 22, Type (0, 1), BuildingBlock: OJICUG_clean_linker_0, # of connection points: 2
#     Edge 23, Type (0, 1), BuildingBlock: OJICUG_clean_linker_0, # of connection points: 2
#     Edge 24, Type (0, 1), BuildingBlock: OJICUG_clean_linker_0, # of connection points: 2
#     Edge 25, Type (0, 1), BuildingBlock: OJICUG_clean_linker_0, # of connection points: 2
#     Edge 26, Type (0, 1), BuildingBlock: OJICUG_clean_linker_0, # of connection points: 2
#     Edge 27, Type (0, 1), BuildingBlock: OJICUG_clean_linker_0, # of connection points: 2
#     Edge 28, Type (0, 1), BuildingBlock: OJICUG_clean_linker_0, # of connection points: 2
#     Edge 29, Type (0, 1), BuildingBlock: OJICUG_clean_linker_0, # of connection points: 2
#     Edge 30, Type (0, 1), BuildingBlock: OJICUG_clean_linker_0, # of connection points: 2
#     Edge 31, Type (0, 1), BuildingBlock: OJICUG_clean_linker_0, # of connection points: 2
#     Edge 32, Type (0, 1), BuildingBlock: OJICUG_clean_linker_0, # of connection points: 2
#     Edge 33, Type (0, 1), BuildingBlock: OJICUG_clean_linker_0, # of connection points: 2
#     Edge 34, Type (0, 1), BuildingBlock: OJICUG_clean_linker_0, # of connection points: 2
#     Edge 35, Type (0, 1), BuildingBlock: OJICUG_clean_linker_0, # of connection points: 2
# Relax obj value: 0.087
# Max RMSD: 0.073
# Mean RMSD: 0.034
data_MOF--net-pry--node1-FUNLAD_clean_sbu_0--node2-VETTIZ_charged_linker_0--edge1-OJICUG_clean_linker_0
_symmetry_space_group_name_H-M    P1
_symmetry_Int_Tables_number       1
_symmetry_cell_setting            triclinic
loop_
_symmetry_equiv_pos_as_xyz
'x, y, z'
_cell_length_a     33.993408
_cell_length_b     36.139722
_cell_length_c     36.203164
_cell_angle_alpha  89.994633
_cell_angle_beta   90.135092
_cell_angle_gamma 84.240646
loop_
_atom_site_label
_atom_site_type_symbol
_atom_site_fract_x
_atom_site_fract_y
_atom_site_fract_z
_atom_type_partial_charge
C0 C 0.11497 0.10144 0.29752 0.0
C1 C 0.08224 0.11588 0.31872 0.0
C2 C 0.0612 0.14962 0.30672 0.0
C3 C 0.10517 0.15339 0.25381 0.0
C4 C 0.12594 0.12054 0.26574 0.0
C5 C 0.16105 0.10924 0.24158 0.0
H6 H 0.27125 0.13867 0.09063 0.0
C7 C 0.12468 0.16615 0.21958 0.0
C8 C 0.15763 0.13994 0.2127 0.0
H9 H 0.29376 0.0521 0.17273 0.0
H10 H 0.23473 0.0757 0.20556 0.0
H11 H 0.25276 0.20223 0.14762 0.0
H12 H 0.18028 0.1357 0.08417 0.0
H13 H 0.15379 0.17985 0.08537 0.0
H14 H 0.20241 0.1743 0.06483 0.0
H15 H 0.24206 0.21099 0.09973 0.0
H16 H 0.21119 0.23255 0.13586 0.0
C17 C 0.19902 0.10987 0.26528 0.0
C18 C 0.15549 0.07087 0.22444 0.0
C19 C 0.07262 0.2847 0.14612 0.0
C20 C 0.08577 0.30016 0.11269 0.0
C21 C 0.11924 0.28187 0.09525 0.0
C22 C 0.13892 0.24934 0.10978 0.0
C23 C 0.12562 0.23408 0.14259 0.0
C24 C 0.0929 0.25136 0.16041 0.0
C25 C 0.08355 0.22972 0.19495 0.0
C26 C 0.11625 0.1971 0.19468 0.0
C27 C 0.14066 0.20045 0.16374 0.0
C28 C 0.08695 0.25506 0.22885 0.0
C29 C 0.04214 0.21637 0.19022 0.0
C30 C 0.264 0.12483 0.11587 0.0
C31 C 0.28773 0.09332 0.12879 0.0
C32 C 0.27604 0.07608 0.16154 0.0
C33 C 0.2418 0.09007 0.18087 0.0
C34 C 0.21878 0.12192 0.16766 0.0
C35 C 0.23032 0.13865 0.13571 0.0
C36 C 0.20347 0.17273 0.12595 0.0
C37 C 0.17371 0.17397 0.15727 0.0
C38 C 0.18245 0.14406 0.1816 0.0
C39 C 0.22839 0.2065 0.12699 0.0
C40 C 0.18405 0.1657 0.08804 0.0
H41 H 0.05504 0.19363 0.26711 0.0
H42 H 0.13247 0.07616 0.306 0.0
H43 H 0.1243 0.06971 0.21552 0.0
H44 H 0.17341 0.06486 0.19939 0.0
H45 H 0.16277 0.04817 0.24476 0.0
H46 H 0.19523 0.13192 0.2868 0.0
H47 H 0.20651 0.08288 0.27959 0.0
H48 H 0.22479 0.11669 0.24901 0.0
H49 H 0.04704 0.29793 0.16042 0.0
H50 H 0.13092 0.29314 0.0703 0.0
H51 H 0.1641 0.23747 0.09466 0.0
H52 H 0.11453 0.26916 0.22736 0.0
H53 H 0.06152 0.27688 0.23009 0.0
H54 H 0.08852 0.23947 0.25508 0.0
H55 H 0.03919 0.20382 0.16242 0.0
H56 H 0.03629 0.1947 0.21034 0.0
H57 H 0.01875 0.23998 0.19296 0.0
H58 H 0.03577 0.16158 0.32212 0.0
C59 C 0.07231 0.16823 0.27456 0.0
C60 C 0.25095 0.91181 0.61646 0.0
C61 C 0.2272 0.94329 0.62935 0.0
C62 C 0.23874 0.96034 0.66229 0.0
C63 C 0.29581 0.91429 0.66876 0.0
C64 C 0.28446 0.89778 0.63657 0.0
C65 C 0.31127 0.86364 0.62694 0.0
H66 H 0.46782 0.73868 0.66274 0.0
C67 C 0.33194 0.89196 0.683 0.0
C68 C 0.34078 0.86216 0.6586 0.0
H69 H 0.3842 0.74279 0.57203 0.0
H70 H 0.35071 0.79848 0.59599 0.0
H71 H 0.47539 0.83209 0.66498 0.0
H72 H 0.39993 0.76599 0.72841 0.0
H73 H 0.42435 0.79616 0.75699 0.0
H74 H 0.45289 0.75936 0.73254 0.0
H75 H 0.49558 0.79636 0.6962 0.0
H76 H 0.47753 0.84181 0.71278 0.0
C77 C 0.33101 0.87077 0.58931 0.0
C78 C 0.28623 0.82995 0.62749 0.0
C79 C 0.39875 0.93329 0.8001 0.0
C80 C 0.43139 0.91855 0.82139 0.0
C81 C 0.45239 0.88489 0.80932 0.0
C82 C 0.44135 0.86665 0.77691 0.0
C83 C 0.40862 0.8818 0.75603 0.0
C84 C 0.38785 0.91456 0.76805 0.0
C85 C 0.35295 0.92623 0.74358 0.0
C86 C 0.3565 0.89581 0.71445 0.0
C87 C 0.38931 0.86949 0.7215 0.0
C88 C 0.3588 0.96473 0.7269 0.0
C89 C 0.31479 0.92551 0.76682 0.0
C90 C 0.44223 0.75171 0.64818 0.0
C91 C 0.42933 0.73612 0.61472 0.0
C92 C 0.3958 0.7542 0.59699 0.0
C93 C 0.3759 0.78671 0.6113 0.0
C94 C 0.389 0.80206 0.64419 0.0
C95 C 0.42169 0.78489 0.66229 0.0
C96 C 0.43069 0.80631 0.69703 0.0
C97 C 0.39792 0.83877 0.69651 0.0
C98 C 0.37373 0.83559 0.6653 0.0
C99 C 0.4721 0.81983 0.69285 0.0
C100 C 0.42705 0.7807 0.73071 0.0
H101 H 0.27977 0.96035 0.70676 0.0
H102 H 0.2438 0.89812 0.59108 0.0
H103 H 0.26161 0.83424 0.64774 0.0
H104 H 0.30327 0.80386 0.63656 0.0
H105 H 0.27291 0.82553 0.6 0.0
H106 H 0.33548 0.90067 0.58592 0.0
H107 H 0.31247 0.8629 0.56584 0.0
H108 H 0.36099 0.85606 0.58666 0.0
H109 H 0.38134 0.95856 0.80864 0.0
H110 H 0.47776 0.87276 0.82482 0.0
H111 H 0.45862 0.84131 0.76936 0.0
H112 H 0.3901 0.9659 0.71846 0.0
H113 H 0.35135 0.98726 0.74733 0.0
H114 H 0.34118 0.971 0.70164 0.0
H115 H 0.31826 0.90308 0.78798 0.0
H116 H 0.28905 0.9192 0.75013 0.0
H117 H 0.30746 0.95229 0.78151 0.0
H118 H 0.22101 0.98429 0.67343 0.0
C119 C 0.27282 0.94614 0.6819 0.0
C120 C 0.5784 0.33645 1.02083 0.0
C121 C 0.54018 0.32705 1.01193 0.0
C122 C 0.51113 0.35545 1.00068 0.0
C123 C 0.56104 0.39802 0.99624 0.0
C124 C 0.58802 0.3725 1.01316 0.0
C125 C 0.62738 0.38777 1.01857 0.0
H126 H 0.75389 0.50771 0.96004 0.0
C127 C 0.58177 0.4292 0.9834 0.0
C128 C 0.62029 0.42461 0.99786 0.0
H129 H 0.7729 0.42615 0.04721 0.0
H130 H 0.70454 0.41261 0.04224 0.0
H131 H 0.66395 0.54231 0.98956 0.0
H132 H 0.71488 0.46852 0.90788 0.0
H133 H 0.6659 0.47608 0.89198 0.0
H134 H 0.69571 0.51454 0.8953 0.0
H135 H 0.6901 0.55394 0.94877 0.0
H136 H 0.63739 0.55135 0.94795 0.0
C137 C 0.63398 0.39358 0.06047 0.0
C138 C 0.65997 0.36098 1.00019 0.0
C139 C 0.53391 0.48883 0.86348 0.0
C140 C 0.55292 0.51003 0.83791 0.0
C141 C 0.58543 0.52842 0.84949 0.0
C142 C 0.60135 0.52232 0.88494 0.0
C143 C 0.58504 0.49709 0.90854 0.0
C144 C 0.5507 0.48226 0.89847 0.0
C145 C 0.53825 0.45501 0.92642 0.0
C146 C 0.5723 0.45451 0.95402 0.0
C147 C 0.59997 0.47853 0.94278 0.0
C148 C 0.49805 0.47061 0.94334 0.0
C149 C 0.53685 0.41701 0.90673 0.0
C150 C 0.74335 0.48684 0.97798 0.0
C151 C 0.76877 0.46756 1.00363 0.0
C152 C 0.75379 0.44122 0.02714 0.0
C153 C 0.71429 0.43335 0.02418 0.0
C154 C 0.68966 0.45194 0.99743 0.0
C155 C 0.70403 0.47884 0.97556 0.0
C156 C 0.6734 0.49657 0.94937 0.0
C157 C 0.63803 0.47602 0.95938 0.0
C158 C 0.64797 0.44949 0.9871 0.0
C159 C 0.66579 0.53837 0.9591 0.0
C160 C 0.68803 0.48878 0.9091 0.0
H161 H 0.49875 0.41174 0.98377 0.0
H162 H 0.601 0.31566 0.03091 0.0
H163 H 0.65148 0.3547 0.97134 0.0
H164 H 0.6887 0.37255 0.99872 0.0
H165 H 0.66462 0.33432 1.0156 0.0
H166 H 0.60581 0.3948 0.07622 0.0
H167 H 0.65426 0.37061 0.07239 0.0
H168 H 0.6459 0.42042 0.06631 0.0
H169 H 0.50817 0.4754 0.85533 0.0
H170 H 0.60033 0.54529 0.83032 0.0
H171 H 0.62709 0.53573 0.89184 0.0
H172 H 0.48818 0.49922 0.93351 0.0
H173 H 0.47419 0.45302 0.93603 0.0
H174 H 0.49979 0.47266 0.9739 0.0
H175 H 0.56569 0.4082 0.89333 0.0
H176 H 0.53027 0.39443 0.9253 0.0
H177 H 0.51351 0.4187 0.88513 0.0
H178 H 0.48098 0.34948 0.99566 0.0
C179 C 0.52135 0.39122 0.99342 0.0
C180 C 0.97758 0.68366 0.49957 0.0
C181 C 0.95595 0.71338 0.51767 0.0
C182 C 0.91917 0.7075 0.53355 0.0
C183 C 0.92276 0.64608 0.50615 0.0
C184 C 0.96004 0.65095 0.49298 0.0
C185 C 0.97471 0.62157 0.46564 0.0
H186 H 0.92067 0.51186 0.33414 0.0
C187 C 0.9097 0.61256 0.48838 0.0
C188 C 0.94008 0.59817 0.4645 0.0
H189 H 0.03657 0.549 0.35197 0.0
H190 H 0.01734 0.56785 0.41385 0.0
H191 H 0.92031 0.47251 0.4146 0.0
H192 H 0.8673 0.57409 0.36743 0.0
H193 H 0.83103 0.55322 0.39267 0.0
H194 H 0.85567 0.52809 0.35557 0.0
H195 H 0.87149 0.47546 0.39557 0.0
H196 H 0.87986 0.48544 0.44372 0.0
C197 C 0.01241 0.59952 0.4815 0.0
C198 C 0.98099 0.64153 0.42836 0.0
C199 C 0.76837 0.57922 0.50552 0.0
C200 C 0.74707 0.55279 0.48783 0.0
C201 C 0.76659 0.5276 0.46271 0.0
C202 C 0.80638 0.52936 0.45424 0.0
C203 C 0.82675 0.55715 0.47035 0.0
C204 C 0.80827 0.58093 0.49626 0.0
C205 C 0.8351 0.60889 0.5099 0.0
C206 C 0.87288 0.59698 0.4886 0.0
C207 C 0.86719 0.56727 0.46493 0.0
C208 C 0.84119 0.60342 0.55193 0.0
C209 C 0.8166 0.6484 0.49881 0.0
C210 C 0.94267 0.5232 0.35113 0.0
C211 C 0.97954 0.53087 0.3368 0.0
C212 C 0.00709 0.54475 0.36115 0.0
C213 C 0.99604 0.55549 0.39718 0.0
C214 C 0.95704 0.55269 0.40871 0.0
C215 C 0.93232 0.53386 0.38711 0.0
C216 C 0.89315 0.53042 0.40528 0.0
C217 C 0.89692 0.55428 0.43939 0.0
C218 C 0.93395 0.56822 0.44054 0.0
C219 C 0.89079 0.48889 0.4152 0.0
C220 C 0.85985 0.54714 0.379 0.0
H221 H 0.87402 0.67139 0.53973 0.0
H222 H 1.00628 0.68693 0.48779 0.0
H223 H 0.95644 0.66369 0.42311 0.0
H224 H 0.98126 0.62354 0.40398 0.0
H225 H 0.00906 0.65482 0.42863 0.0
H226 H 0.01156 0.59856 0.51221 0.0
H227 H 0.03943 0.61243 0.47344 0.0
H228 H 0.01536 0.57002 0.47279 0.0
H229 H 0.75393 0.59892 0.52494 0.0
H230 H 0.75083 0.50667 0.44932 0.0
H231 H 0.81935 0.50984 0.43446 0.0
H232 H 0.84791 0.57339 0.5586 0.0
H233 H 0.81411 0.61394 0.56731 0.0
H234 H 0.86634 0.61737 0.56262 0.0
H235 H 0.79513 0.6475 0.47566 0.0
H236 H 0.83885 0.66612 0.48836 0.0
H237 H 0.80056 0.66271 0.5223 0.0
H238 H 0.90173 0.72977 0.54783 0.0
C239 C 0.90274 0.67377 0.5283 0.0
C240 C 0.91304 0.75346 0.9276 0.0
C241 C 0.94527 0.72989 0.91424 0.0
C242 C 0.96351 0.74062 0.88122 0.0
C243 C 0.91744 0.79699 0.87629 0.0
C244 C 0.89985 0.78625 0.90851 0.0
C245 C 0.86544 0.81293 0.91973 0.0
H246 H 0.73481 0.96192 0.88694 0.0
C247 C 0.8953 0.83279 0.86337 0.0
C248 C 0.86477 0.84166 0.88916 0.0
H249 H 0.74147 0.88623 0.97999 0.0
H250 H 0.80021 0.8538 0.95557 0.0
H251 H 0.76285 0.90092 0.8226 0.0
H252 H 0.82573 0.97365 0.88954 0.0
H253 H 0.8515 0.96904 0.84761 0.0
H254 H 0.80084 0.98973 0.84798 0.0
H255 H 0.7571 0.95074 0.81891 0.0
H256 H 0.7953 0.92311 0.79405 0.0
C257 C 0.82794 0.79165 0.91916 0.0
C258 C 0.87522 0.8296 0.95783 0.0
C259 C 0.93371 0.90314 0.74641 0.0
C260 C 0.91808 0.93728 0.73009 0.0
C261 C 0.88462 0.9567 0.74672 0.0
C262 C 0.86729 0.94312 0.77846 0.0
C263 C 0.88328 0.90952 0.79456 0.0
C264 C 0.91607 0.88998 0.77877 0.0
C265 C 0.92905 0.85498 0.80079 0.0
C266 C 0.89905 0.85721 0.83242 0.0
C267 C 0.87202 0.88931 0.82811 0.0
C268 C 0.92516 0.82093 0.77585 0.0
C269 C 0.97152 0.85752 0.815 0.0
C270 C 0.74908 0.93849 0.90215 0.0
C271 C 0.73224 0.92612 0.93508 0.0
C272 C 0.75247 0.89574 0.95398 0.0
C273 C 0.78712 0.87697 0.93984 0.0
C274 C 0.8027 0.88858 0.90639 0.0
C275 C 0.78436 0.91939 0.88848 0.0
C276 C 0.80688 0.92853 0.85423 0.0
C277 C 0.84076 0.89732 0.85408 0.0
C278 C 0.83768 0.87391 0.88455 0.0
C279 C 0.77923 0.92599 0.8205 0.0
C280 C 0.8219 0.9673 0.85975 0.0
H281 H 0.96505 0.78036 0.83754 0.0
H282 H 0.89745 0.74624 0.9522 0.0
H283 H 0.90765 0.83023 0.96161 0.0
H284 H 0.86295 0.85898 0.96089 0.0
H285 H 0.8645 0.81302 0.98088 0.0
H286 H 0.82946 0.77086 0.89639 0.0
H287 H 0.82473 0.77645 0.94547 0.0
H288 H 0.80044 0.80977 0.91374 0.0
H289 H 0.95943 0.88739 0.73464 0.0
H290 H 0.87127 0.98245 0.73479 0.0
H291 H 0.84184 0.95944 0.78925 0.0
H292 H 0.89622 0.82381 0.76119 0.0
H293 H 0.94892 0.81817 0.75472 0.0
H294 H 0.92619 0.79475 0.79162 0.0
H295 H 0.97418 0.88533 0.82738 0.0
H296 H 0.98013 0.83698 0.8368 0.0
H297 H 0.99318 0.85342 0.79206 0.0
H298 H 0.9886 0.72344 0.87005 0.0
C299 C 0.94989 0.77388 0.86233 0.0
C300 C 0.7624 0.12978 0.43212 0.0
C301 C 0.78627 0.09811 0.41984 0.0
C302 C 0.77477 0.08029 0.38732 0.0
C303 C 0.71738 0.12581 0.38016 0.0
C304 C 0.72871 0.14315 0.41189 0.0
C305 C 0.7016 0.17729 0.42089 0.0
H306 H 0.54349 0.30001 0.38329 0.0
C307 C 0.68102 0.1475 0.36564 0.0
C308 C 0.67195 0.1778 0.38937 0.0
H309 H 0.62737 0.29855 0.47362 0.0
H310 H 0.6615 0.24277 0.45053 0.0
H311 H 0.53722 0.20599 0.38278 0.0
H312 H 0.61169 0.27159 0.31754 0.0
H313 H 0.58694 0.24079 0.28992 0.0
H314 H 0.55867 0.27808 0.3139 0.0
H315 H 0.51645 0.24132 0.35139 0.0
H316 H 0.5348 0.19589 0.33504 0.0
C317 C 0.68211 0.17084 0.4588 0.0
C318 C 0.72625 0.21122 0.41942 0.0
C319 C 0.61471 0.10237 0.25002 0.0
C320 C 0.58203 0.11621 0.22835 0.0
C321 C 0.56062 0.15 0.23955 0.0
C322 C 0.57133 0.16925 0.27149 0.0
C323 C 0.60415 0.15499 0.29274 0.0
C324 C 0.6253 0.1221 0.28154 0.0
C325 C 0.66031 0.11145 0.30615 0.0
C326 C 0.65643 0.14263 0.33445 0.0
C327 C 0.62333 0.16845 0.3269 0.0
C328 C 0.65491 0.07331 0.32387 0.0
C329 C 0.69839 0.11196 0.28273 0.0
C330 C 0.56928 0.28752 0.39795 0.0
C331 C 0.58207 0.3039 0.43106 0.0
C332 C 0.61588 0.28653 0.44893 0.0
C333 C 0.63613 0.25396 0.43514 0.0
C334 C 0.62311 0.23777 0.40265 0.0
C335 C 0.59018 0.25424 0.38438 0.0
C336 C 0.58134 0.23192 0.35014 0.0
C337 C 0.61446 0.19974 0.3512 0.0
C338 C 0.6387 0.20391 0.38221 0.0
C339 C 0.54016 0.21806 0.35477 0.0
C340 C 0.58457 0.25681 0.31588 0.0
H341 H 0.73366 0.07902 0.3431 0.0
H342 H 0.76955 0.14408 0.45716 0.0
H343 H 0.75071 0.20674 0.39902 0.0
H344 H 0.70888 0.237 0.40998 0.0
H345 H 0.73975 0.21629 0.44668 0.0
H346 H 0.67809 0.14094 0.46295 0.0
H347 H 0.70058 0.17952 0.48197 0.0
H348 H 0.65197 0.18525 0.46124 0.0
H349 H 0.63246 0.07706 0.24212 0.0
H350 H 0.53521 0.16148 0.2237 0.0
H351 H 0.55378 0.19464 0.27838 0.0
H352 H 0.62363 0.07198 0.33231 0.0
H353 H 0.66275 0.05027 0.30408 0.0
H354 H 0.67245 0.06794 0.34934 0.0
H355 H 0.69448 0.13348 0.26068 0.0
H356 H 0.72392 0.11947 0.29903 0.0
H357 H 0.70631 0.0847 0.2691 0.0
H358 H 0.79261 0.0562 0.3766 0.0
C359 C 0.74056 0.09383 0.36759 0.0
C360 C 0.47379 0.54776 0.18364 0.0
C361 C 0.45378 0.52564 0.20766 0.0
C362 C 0.42472 0.50445 0.19314 0.0
C363 C 0.42915 0.53493 0.13413 0.0
C364 C 0.46084 0.55226 0.14704 0.0
C365 C 0.47479 0.57912 0.11945 0.0
H366 H 0.41757 0.71553 1.01293 0.0
C367 C 0.41662 0.55188 0.09849 0.0
C368 C 0.4441 0.57671 0.0888 0.0
H369 H 0.53681 0.68095 0.05009 0.0
H370 H 0.51864 0.61808 0.05951 0.0
H371 H 0.36484 0.67438 0.06995 0.0
H372 H 0.41477 0.63741 0.96562 0.0
H373 H 0.37502 0.61077 0.97369 0.0
H374 H 0.36579 0.66062 0.9685 0.0
H375 H 0.3537 0.69608 0.02589 0.0
H376 H 0.32899 0.65731 0.04028 0.0
C377 C 0.47201 0.6182 0.13753 0.0
C378 C 0.51739 0.56501 0.10715 0.0
C379 C 0.27466 0.54294 0.05888 0.0
C380 C 0.24993 0.56237 0.03282 0.0
C381 C 0.2656 0.58862 1.00968 0.0
C382 C 0.30508 0.59638 1.01356 0.0
C383 C 0.32892 0.57779 0.0409 0.0
C384 C 0.31391 0.55091 0.06232 0.0
C385 C 0.34383 0.53292 0.08905 0.0
C386 C 0.37946 0.55365 0.08018 0.0
C387 C 0.37029 0.58024 0.05231 0.0
C388 C 0.32808 0.54001 0.1291 0.0
C389 C 0.35179 0.49127 0.07885 0.0
C390 C 0.43991 0.69458 0.02317 0.0
C391 C 0.47791 0.70382 0.03326 0.0
C392 C 0.50673 0.67516 0.04444 0.0
C393 C 0.49632 0.63924 0.05062 0.0
C394 C 0.45669 0.63271 0.04696 0.0
C395 C 0.43016 0.65838 0.02979 0.0
C396 C 0.3912 0.64282 0.02272 0.0
C397 C 0.39799 0.60557 0.04285 0.0
C398 C 0.43586 0.60132 0.0587 0.0
C399 C 0.35772 0.66896 0.04056 0.0
C400 C 0.38613 0.63776 0.98051 0.0
H401 H 0.38975 0.49272 0.14681 0.0
H402 H 0.49676 0.56375 0.19389 0.0
H403 H 0.52992 0.54021 0.12304 0.0
H404 H 0.51827 0.55666 0.0776 0.0
H405 H 0.53812 0.58651 0.11144 0.0
H406 H 0.44136 0.62661 0.14715 0.0
H407 H 0.49226 0.61858 0.16158 0.0
H408 H 0.48036 0.63998 0.11869 0.0
H409 H 0.26359 0.52207 0.07647 0.0
H410 H 0.24703 0.60373 0.98923 0.0
H411 H 0.31541 0.61704 0.99577 0.0
H412 H 0.2988 0.55675 0.12985 0.0
H413 H 0.32412 0.51361 0.14367 0.0
H414 H 0.34782 0.55608 0.14581 0.0
H415 H 0.35435 0.48769 0.04839 0.0
H416 H 0.37998 0.47827 0.09043 0.0
H417 H 0.32731 0.47551 0.08846 0.0
H418 H 0.40996 0.48598 0.21079 0.0
C419 C 0.41264 0.50869 0.15628 0.0
C420 C 0.03462 0.35956 0.54405 0.0
C421 C 0.05718 0.32946 0.52745 0.0
C422 C 0.09415 0.33533 0.51197 0.0
C423 C 0.08861 0.39799 0.53659 0.0
C424 C 0.05134 0.3929 0.54955 0.0
C425 C 0.03485 0.42386 0.57437 0.0
H426 H 0.08265 0.5425 0.70089 0.0
C427 C 0.09999 0.43321 0.55219 0.0
C428 C 0.06865 0.44837 0.57453 0.0
H429 H 0.97717 0.48583 0.68997 0.0
H430 H 0.992 0.47411 0.62568 0.0
H431 H 0.08096 0.57722 0.61409 0.0
H432 H 0.13932 0.48228 0.67009 0.0
H433 H 0.17438 0.5034 0.64371 0.0
H434 H 0.14798 0.52977 0.67889 0.0
H435 H 0.12761 0.57946 0.63668 0.0
H436 H 0.12463 0.56527 0.58894 0.0
C437 C 0.99765 0.44375 0.55556 0.0
C438 C 0.02699 0.40727 0.61321 0.0
C439 C 0.24084 0.46732 0.5369 0.0
C440 C 0.26106 0.4954 0.55295 0.0
C441 C 0.24003 0.52301 0.5746 0.0
C442 C 0.19969 0.52194 0.58139 0.0
C443 C 0.18048 0.49227 0.56747 0.0
C444 C 0.20054 0.46627 0.54459 0.0
C445 C 0.17488 0.43685 0.5324 0.0
C446 C 0.1361 0.44991 0.55146 0.0
C447 C 0.14006 0.48183 0.57268 0.0
C448 C 0.1707 0.43879 0.48989 0.0
C449 C 0.1935 0.3987 0.54726 0.0
C450 C 0.0627 0.52762 0.6845 0.0
C451 C 0.03007 0.5132 0.70105 0.0
C452 C 1.00327 0.49624 0.67842 0.0
C453 C 0.01245 0.48843 0.6414 0.0
C454 C 0.04939 0.49604 0.62775 0.0
C455 C 0.07254 0.51784 0.64806 0.0
C456 C 0.11139 0.52214 0.62945 0.0
C457 C 0.10933 0.49578 0.59689 0.0
C458 C 0.07315 0.48019 0.59652 0.0
C459 C 0.11147 0.56311 0.61675 0.0
C460 C 0.14523 0.5089 0.65676 0.0
H461 H 0.13854 0.37203 0.50485 0.0
H462 H 1.00578 0.35632 0.55556 0.0
H463 H 0.03645 0.37699 0.61527 0.0
H464 H 0.04399 0.41965 0.63538 0.0
H465 H 0.99508 0.41072 0.62031 0.0
H466 H 1.00279 0.44753 0.52551 0.0
H467 H 0.97198 0.42724 0.5586 0.0
H468 H 0.98968 0.47201 0.56665 0.0
H469 H 0.25638 0.44586 0.52002 0.0
H470 H 0.25499 0.54528 0.58653 0.0
H471 H 0.18528 0.54341 0.59843 0.0
H472 H 0.16524 0.46819 0.48056 0.0
H473 H 0.19811 0.42629 0.47624 0.0
H474 H 0.1454 0.42484 0.47956 0.0
H475 H 0.21221 0.402 0.57207 0.0
H476 H 0.17113 0.38069 0.55679 0.0
H477 H 0.21249 0.38355 0.52612 0.0
H478 H 0.1123 0.31275 0.49885 0.0
C479 C 0.10969 0.36965 0.51599 0.0
C480 C 0.03718 0.043 0.4558 0.0
N481 N 0.01568 0.10216 0.55306 0.0
C482 C 0.05162 0.11317 0.54419 0.0
C483 C 0.05702 0.15068 0.54223 0.0
C484 C 0.02522 0.17729 0.54955 0.0
C485 C 0.98926 0.16545 0.56157 0.0
C486 C 0.98499 0.12733 0.5629 0.0
Zn487 Zn 0.00794 0.04912 0.53757 0.0
C488 C 0.93203 0.04549 0.49697 0.0
N489 N 0.99835 0.9409 0.49598 0.0
C490 C 0.02894 0.91588 0.48557 0.0
C491 C 0.96258 0.92972 0.50522 0.0
C492 C 0.95728 0.89217 0.50689 0.0
C493 C 0.98898 0.86569 0.49884 0.0
C494 C 0.02474 0.87773 0.48654 0.0
Zn495 Zn 1.00604 0.99395 0.51148 0.0
O496 O 0.03137 0.06318 0.48443 0.0
C497 C 0.08191 0.99745 0.55214 0.0
O498 O 0.03014 1.00898 0.45786 0.0
H499 H 0.93884 0.94975 0.51425 0.0
H500 H 0.07545 0.09303 0.53556 0.0
H501 H 0.0573 0.92529 0.47892 0.0
O502 O 0.06575 0.0301 0.55833 0.0
O503 O 0.06378 0.97579 0.53204 0.0
H504 H 0.9565 0.11805 0.56927 0.0
O505 O 0.98255 0.97981 0.5651 0.0
O506 O 0.98365 0.03455 0.59064 0.0
O507 O 0.94818 1.01279 0.49101 0.0
O508 O 0.95024 0.06733 0.51678 0.0
C509 C 0.97651 1.00063 0.5933 0.0
H510 H 0.08536 0.15884 0.53347 0.0
H511 H 0.96413 0.18538 0.56757 0.0
H512 H 0.92907 0.88387 0.51587 0.0
H513 H 0.04978 0.8579 0.47997 0.0
C514 C 0.58333 0.99089 0.99847 0.0
N515 N 0.5154 0.09504 0.99356 0.0
C516 C 0.55097 0.10774 1.00087 0.0
C517 C 0.55474 0.14568 1.00116 0.0
C518 C 0.52156 0.17095 0.99413 0.0
C519 C 0.48593 0.15716 0.98372 0.0
C520 C 0.48345 0.11875 0.9837 0.0
Zn521 Zn 0.50956 0.04232 1.01121 0.0
C522 C 0.47775 0.9915 0.95779 0.0
N523 N 0.50122 0.93553 0.05716 0.0
C524 C 0.53319 0.91184 0.06704 0.0
C525 C 0.46581 0.92272 0.04939 0.0
C526 C 0.46231 0.88475 0.04844 0.0
C527 C 0.49558 0.85955 0.05528 0.0
C528 C 0.53097 0.87338 0.06634 0.0
Zn529 Zn 0.507 0.98838 0.03964 0.0
O530 O 0.5679 0.02345 0.99054 0.0
C531 C 0.53855 0.03963 0.093 0.0
O532 O 0.56451 0.97074 1.01949 0.0
H533 H 0.44092 0.94172 0.04077 0.0
H534 H 0.57583 0.0887 1.00948 0.0
H535 H 0.56119 0.92251 0.07269 0.0
O536 O 0.53326 0.05873 0.06355 0.0
O537 O 0.53105 1.00571 0.09227 0.0
H538 H 0.45534 0.10814 0.97845 0.0
O539 O 0.44934 1.00651 0.0597 0.0
O540 O 0.45144 0.06017 0.03217 0.0
O541 O 0.48352 0.97195 0.98693 0.0
O542 O 0.48507 0.02543 0.95891 0.0
C543 C 0.43321 0.03897 0.05267 0.0
H544 H 0.58295 0.15517 1.00852 0.0
H545 H 0.45966 0.17582 0.97804 0.0
H546 H 0.43426 0.8752 0.04059 0.0
H547 H 0.5573 0.85477 0.07194 0.0
C548 C 0.52441 0.44694 0.49713 0.0
N549 N 0.52655 0.49738 0.60404 0.0
C550 C 0.50732 0.47315 0.62433 0.0
C551 C 0.51047 0.47297 0.66287 0.0
C552 C 0.53375 0.49788 0.68039 0.0
C553 C 0.55525 0.52064 0.6585 0.0
C554 C 0.55088 0.52026 0.62039 0.0
Zn555 Zn 0.51225 0.50945 0.55039 0.0
C556 C 0.58221 0.53492 0.50999 0.0
N557 N 0.48319 0.54306 0.4406 0.0
C558 C 0.45878 0.51978 0.425 0.0
C559 C 0.50094 0.56797 0.41977 0.0
C560 C 0.49538 0.569 0.38142 0.0
C561 C 0.47103 0.54448 0.36486 0.0
C562 C 0.45201 0.52028 0.38724 0.0
Zn563 Zn 0.49801 0.53113 0.49419 0.0
O564 O 0.52693 0.4525 0.53185 0.0
C565 C 0.42782 0.50633 0.53447 0.0
O566 O 0.51333 0.47447 0.47643 0.0
H567 H 0.52075 0.58579 0.4326 0.0
H568 H 0.48776 0.4555 0.61088 0.0
H569 H 0.44618 0.49902 0.44141 0.0
O570 O 0.45282 0.49867 0.56014 0.0
O571 O 0.43907 0.52006 0.50456 0.0
H572 H 0.56517 0.54011 0.60419 0.0
O573 O 0.48316 0.58801 0.5128 0.0
O574 O 0.49727 0.56594 0.5681 0.0
O575 O 0.5569 0.54236 0.48453 0.0
O576 O 0.5715 0.52067 0.53992 0.0
C577 C 0.48598 0.59348 0.54752 0.0
H578 H 0.49336 0.45491 0.67875 0.0
H579 H 0.57435 0.53957 0.67072 0.0
H580 H 0.5105 0.58811 0.36486 0.0
H581 H 0.43369 0.50041 0.37545 0.0
C582 C 0.98835 0.58798 0.99087 0.0
N583 N 0.99229 0.539 0.0992 0.0
C584 C 1.00552 0.56735 0.11879 0.0
C585 C 1.0029 0.56759 0.15749 0.0
C586 C 0.98814 0.53749 0.17625 0.0
C587 C 0.97382 0.50948 0.15451 0.0
C588 C 0.97503 0.51143 0.11641 0.0
Zn589 Zn 1.00386 0.52732 0.04494 0.0
C590 C 0.93183 0.49951 1.00986 0.0
N591 N 0.02572 0.49059 0.93513 0.0
C592 C 0.05001 0.51262 0.91757 0.0
C593 C 1.0041 0.46736 0.91581 0.0
C594 C 1.00495 0.46728 0.87716 0.0
C595 C 0.02885 0.49078 0.85871 0.0
C596 C 0.05237 0.5128 0.87934 0.0
Zn597 Zn 0.0149 0.50311 0.98931 0.0
O598 O 0.9863 0.58398 0.02588 0.0
C599 C 0.08678 0.53106 0.02499 0.0
O600 O 0.99913 0.5595 0.97137 0.0
H601 H 0.98458 0.45042 0.93017 0.0
H602 H 0.01928 0.58902 0.1046 0.0
H603 H 0.06569 0.53215 0.93288 0.0
O604 O 0.0628 0.54031 0.05103 0.0
O605 O 0.07462 0.51457 0.99682 0.0
H606 H 0.96441 0.48907 0.10068 0.0
O607 O 0.03055 0.44631 1.00762 0.0
O608 O 0.02241 0.47073 0.06259 0.0
O609 O 0.95516 0.49195 0.98299 0.0
O610 O 0.94467 0.51433 0.03863 0.0
C611 C 0.03109 0.4422 0.04261 0.0
H612 H 0.01325 0.59082 0.17208 0.0
H613 H 0.96309 0.48487 0.16597 0.0
H614 H 0.98655 0.44981 0.86189 0.0
H615 H 0.07071 0.53166 0.86596 0.0
C616 C 0.05972 0.11727 0.38554 0.0
C617 C 0.07089 0.09658 0.35366 0.0
H618 H 0.04125 0.11696 0.44202 0.0
C619 C 0.07152 0.05746 0.35583 0.0
H620 H 0.05933 0.14727 0.38541 0.0
C621 C 0.06077 0.03977 0.38864 0.0
C622 C 0.0497 0.06063 0.4205 0.0
H623 H 0.07974 0.04045 0.33191 0.0
H624 H 0.06117 1.00978 0.38902 0.0
C625 C 0.04959 0.09966 0.41831 0.0
C626 C 0.45399 0.91698 0.88828 0.0
C627 C 0.44293 0.93768 0.8563 0.0
H628 H 0.47277 0.9174 0.94481 0.0
C629 C 0.44272 0.97674 0.85825 0.0
H630 H 0.45409 0.88701 0.88823 0.0
C631 C 0.45377 0.99439 0.89092 0.0
C632 C 0.46478 0.97357 0.92287 0.0
H633 H 0.43463 0.99371 0.83423 0.0
H634 H 0.45371 0.02436 0.89112 0.0
C635 C 0.46446 0.93459 0.92098 0.0
C636 C 0.54057 0.53968 0.77593 0.0
C637 C 0.54319 0.50787 0.79825 0.0
H638 H 0.53414 0.56158 0.72123 0.0
C639 C 0.54023 0.47294 0.78191 0.0
H640 H 0.54251 0.5669 0.78792 0.0
C641 C 0.53622 0.46969 0.74374 0.0
C642 C 0.53493 0.50135 0.72117 0.0
H643 H 0.54286 0.44784 0.79848 0.0
H644 H 0.5357 0.44225 0.73185 0.0
C645 C 0.53613 0.53649 0.73777 0.0
C646 C 0.96596 0.50554 0.27392 0.0
C647 C 0.98665 0.52887 0.29612 0.0
H648 H 0.94611 0.49246 0.22106 0.0
C649 C 0.01006 0.55361 0.27851 0.0
H650 H 0.94875 0.48498 0.28586 0.0
C651 C 0.01151 0.55575 0.23996 0.0
C652 C 0.98826 0.53439 0.2177 0.0
H653 H 0.02632 0.57248 0.29426 0.0
H654 H 0.03064 0.57468 0.2281 0.0
C655 C 0.9655 0.50922 0.23572 0.0
C656 C 0.33725 0.0408 0.10698 0.0
C657 C 0.32461 0.0791 0.10846 0.0
H658 H 0.381 0.99813 0.08815 0.0
C659 C 0.34765 0.10384 0.09024 0.0
H660 H 0.32016 0.02073 0.11999 0.0
C661 C 0.38213 0.09074 0.07124 0.0
C662 C 0.39497 0.05257 0.07032 0.0
H663 H 0.33961 0.13357 0.09123 0.0
H664 H 0.39929 0.11071 0.05807 0.0
C665 C 0.37203 0.02776 0.08835 0.0
C666 C 0.16738 0.93281 0.5905 0.0
C667 C 0.19035 0.95756 0.60884 0.0
H668 H 0.11589 0.92585 0.55801 0.0
C669 C 0.17764 0.99586 0.60733 0.0
H670 H 0.17544 0.90308 0.59153 0.0
C671 C 0.14287 1.00888 0.58846 0.0
C672 C 0.12005 0.98403 0.57026 0.0
H673 H 0.19467 1.01593 0.62049 0.0
H674 H 0.13384 0.03849 0.5882 0.0
C675 C 0.13294 0.94586 0.5713 0.0
C676 C 0.83331 0.47529 0.97289 0.0
C677 C 0.81083 0.47479 1.00539 0.0
H678 H 0.8894 0.48311 0.94881 0.0
C679 C 0.82852 0.48198 0.03935 0.0
H680 H 0.82039 0.46954 0.94637 0.0
C681 C 0.8678 0.49018 0.04071 0.0
C682 C 0.89031 0.49078 1.00819 0.0
H683 H 0.81174 0.48196 0.06475 0.0
H684 H 0.88057 0.4959 0.06729 0.0
C685 C 0.87279 0.48292 0.97429 0.0
C686 C 0.6783 0.55234 0.46395 0.0
C687 C 0.70432 0.55159 0.4942 0.0
H688 H 0.61917 0.54808 0.44526 0.0
C689 C 0.68963 0.54722 0.52993 0.0
H690 H 0.68901 0.55591 0.43614 0.0
C691 C 0.64976 0.54216 0.53515 0.0
C692 C 0.62386 0.54204 0.50475 0.0
H693 H 0.70924 0.54642 0.55361 0.0
H694 H 0.6393 0.538 0.56294 0.0
C695 C 0.63839 0.54792 0.46919 0.0
C696 C 0.05569 0.3674 0.11666 0.0
C697 C 0.06657 0.33545 0.09542 0.0
H698 H 0.03637 0.42582 0.1169 0.0
C699 C 0.06312 0.3386 0.0566 0.0
H700 H 0.05814 0.36631 0.14648 0.0
C701 C 0.05114 0.37281 0.0395 0.0
C702 C 0.04191 0.4051 0.06063 0.0
H703 H 0.07056 0.31456 0.03917 0.0
H704 H 0.04975 0.37403 1.00963 0.0
C705 C 0.04357 0.4017 0.09953 0.0
C706 C 0.54795 0.26143 0.03579 0.0
C707 C 0.53201 0.28756 1.00975 0.0
H708 H 0.55657 0.20415 0.05149 0.0
C709 C 0.51091 0.27518 0.97936 0.0
H710 H 0.56392 0.2701 0.05968 0.0
C711 C 0.50678 0.23744 0.9746 0.0
C712 C 0.52389 0.21125 0.99996 0.0
H713 H 0.4989 0.29449 0.95836 0.0
H714 H 0.4914 0.22866 0.95039 0.0
C715 C 0.54388 0.22368 0.03097 0.0
C716 C 0.96115 0.77741 0.54345 0.0
C717 C 0.96882 0.75142 0.51488 0.0
H718 H 0.96187 0.83401 0.56071 0.0
C719 C 0.98595 0.76298 0.48188 0.0
H720 H 0.94854 0.76942 0.56934 0.0
C721 C 0.9941 0.79977 0.4772 0.0
C722 C 0.98467 0.82592 0.5051 0.0
H723 H 0.99147 0.74409 0.45885 0.0
H724 H 1.00605 0.80815 0.45113 0.0
C725 C 0.96885 0.81432 0.53853 0.0
C726 C 0.4515 0.69677 0.55915 0.0
C727 C 0.44888 0.7008 0.59794 0.0
H728 H 0.46475 0.6604 0.51294 0.0
C729 C 0.46144 0.66968 0.61983 0.0
H730 H 0.44296 0.72019 0.5412 0.0
C731 C 0.47435 0.63527 0.60343 0.0
C732 C 0.47506 0.6309 0.56464 0.0
H733 H 0.45972 0.67142 0.64965 0.0
H734 H 0.48275 0.61175 0.62132 0.0
C735 C 0.46415 0.66239 0.54279 0.0
C736 C 0.94712 0.9304 0.66535 0.0
C737 C 0.93545 0.95308 0.69579 0.0
H738 H 0.96836 0.92736 0.6095 0.0
C739 C 0.93828 0.99169 0.69233 0.0
H740 H 0.94512 0.90071 0.66661 0.0
C741 C 0.95171 1.00713 0.65949 0.0
C742 C 0.96247 0.98455 0.62876 0.0
H743 H 0.93005 1.01018 0.71518 0.0
H744 H 0.95328 0.03687 0.6581 0.0
C745 C 0.96017 0.94587 0.63235 0.0
C746 C 0.56034 0.11591 0.16128 0.0
C747 C 0.57107 0.09608 0.19382 0.0
H748 H 0.5426 0.11401 0.10457 0.0
C749 C 0.57173 0.05693 0.19273 0.0
H750 H 0.55994 0.14591 0.16065 0.0
C751 C 0.56142 0.03837 0.1603 0.0
C752 C 0.5508 0.05834 0.12777 0.0
H753 H 0.57961 0.0406 0.21721 0.0
H754 H 0.56178 1.00838 0.16075 0.0
C755 C 0.55067 0.09741 0.12885 0.0
C756 C 0.42558 0.53295 0.27102 0.0
C757 C 0.45903 0.52908 0.24809 0.0
H758 H 0.40315 0.54198 0.32572 0.0
C759 C 0.49651 0.53207 0.2637 0.0
H760 H 0.39616 0.53197 0.25974 0.0
C761 C 0.50039 0.53847 0.30155 0.0
C762 C 0.46689 0.54185 0.32437 0.0
H763 H 0.52282 0.52922 0.24671 0.0
H764 H 0.52964 0.53977 0.31312 0.0
C765 C 0.42948 0.53921 0.30872 0.0
C766 C 0.99285 0.5107 0.76112 0.0
C767 C 0.02883 0.50891 0.74177 0.0
H768 H 0.96466 0.50572 0.81367 0.0
C769 C 0.06434 0.49919 0.76113 0.0
H770 H 0.96502 0.51797 0.74703 0.0
C771 C 0.06406 0.49228 0.79889 0.0
C772 C 0.02828 0.49441 0.81819 0.0
H773 H 0.09255 0.49608 0.74704 0.0
H774 H 0.0919 0.48522 0.81308 0.0
C775 C 0.99259 0.50339 0.79908 0.0
C776 C 0.68248 0.98213 0.94785 0.0
C777 C 0.69354 0.94353 0.94991 0.0
H778 H 0.63916 0.02758 0.96168 0.0
C779 C 0.6675 0.92115 0.9674 0.0
H780 H 0.70172 1.00034 0.93479 0.0
C781 C 0.63236 0.93676 0.9834 0.0
C782 C 0.6215 0.97528 0.98189 0.0
H783 H 0.67408 0.89124 0.96866 0.0
H784 H 0.61338 0.91838 0.99662 0.0
C785 C 0.64676 0.99781 0.96354 0.0
C786 C 0.84618 0.10943 0.45824 0.0
C787 C 0.82317 0.08432 0.44049 0.0
H788 H 0.89791 0.11701 0.4902 0.0
C789 C 0.83592 0.04606 0.44264 0.0
H790 H 0.83803 0.13913 0.45674 0.0
C791 C 0.87083 0.03342 0.46145 0.0
C792 C 0.89375 0.05862 0.47898 0.0
H793 H 0.81884 0.02572 0.42999 0.0
H794 H 0.87989 1.00382 0.46218 0.0
C795 C 0.88078 0.09675 0.4774 0.0
C796 C 0.18469 0.55603 0.06264 0.0
C797 C 0.20782 0.55551 0.03048 0.0
H798 H 0.12809 0.5491 0.08609 0.0
C799 C 0.19077 0.54748 0.99646 0.0
H800 H 0.19715 0.56241 0.08918 0.0
C801 C 0.15146 0.53933 0.99474 0.0
C802 C 0.12831 0.53973 0.02694 0.0
H803 H 0.20808 0.54674 0.97134 0.0
H804 H 0.13916 0.53288 0.96815 0.0
C805 C 0.1452 0.54852 0.06085 0.0
C806 C 0.32882 0.49746 0.57919 0.0
C807 C 0.30416 0.4957 0.54816 0.0
H808 H 0.38763 0.50146 0.59921 0.0
C809 C 0.32072 0.49543 0.51273 0.0
H810 H 0.31663 0.4974 0.60682 0.0
C811 C 0.36112 0.49831 0.50835 0.0
C812 C 0.38575 0.50073 0.53937 0.0
H813 H 0.30222 0.49412 0.48845 0.0
H814 H 0.37303 0.49895 0.48065 0.0
C815 C 0.36937 0.49957 0.57485 0.0
C816 C 0.97137 0.66143 0.91467 0.0
C817 C 0.95846 0.69402 0.93427 0.0
H818 H 0.9905 0.60316 0.91674 0.0
C819 C 0.95647 0.69147 0.97322 0.0
H820 H 0.97292 0.66177 0.88481 0.0
C821 C 0.96627 0.65745 0.99175 0.0
C822 C 0.97848 0.62483 0.97197 0.0
H823 H 0.94734 0.71587 0.9896 0.0
H824 H 0.96408 0.65673 1.02157 0.0
C825 C 0.98117 0.62752 0.93315 0.0
C826 C 0.50654 0.75499 0.06758 0.0
C827 C 0.486 0.74326 0.03653 0.0
H828 H 0.52537 0.80091 0.09804 0.0
C829 C 0.47047 0.76996 1.01086 0.0
H830 H 0.51824 0.73522 0.0883 0.0
C831 C 0.4743 0.80761 1.01671 0.0
C832 C 0.49365 0.81938 0.04838 0.0
H833 H 0.45498 0.76182 0.98647 0.0
H834 H 0.46188 0.82759 0.99647 0.0
C835 C 0.51045 0.79264 0.07336 0.0
C836 C 0.05331 0.26464 0.50334 0.0
C837 C 0.04482 0.29133 0.53113 0.0
H838 H 0.05337 0.20758 0.48744 0.0
C839 C 0.02722 0.28051 0.56416 0.0
H840 H 0.06629 0.27207 0.47743 0.0
C841 C 0.01936 0.24374 0.56966 0.0
C842 C 0.02953 0.21693 0.54253 0.0
H843 H 0.02104 0.30002 0.5866 0.0
H844 H 0.00697 0.23596 0.59574 0.0
C845 C 0.04586 0.22778 0.50905 0.0
C846 C 0.55928 0.3436 0.48621 0.0
C847 C 0.56209 0.33927 0.44746 0.0
H848 H 0.54571 0.38028 0.53213 0.0
C849 C 0.54946 0.3702 0.42532 0.0
H850 H 0.56791 0.32036 0.50435 0.0
C851 C 0.53634 0.40473 0.44144 0.0
C852 C 0.53547 0.4094 0.48021 0.0
H853 H 0.55132 0.36821 0.39551 0.0
H854 H 0.52793 0.4281 0.42338 0.0
C855 C 0.54641 0.37807 0.50229 0.0
loop_
_geom_bond_atom_site_label_1
_geom_bond_atom_site_label_2
_geom_bond_distance
_geom_bond_site_symmetry_2
_ccdc_geom_bond_type
C0 C1 1.391 . S
C0 C4 1.391 . S
C0 H42 0.948 . S
C1 C0 1.391 . S
C1 C2 1.391 . S
C2 C1 1.391 . S
C2 H58 0.947 . S
C2 C59 1.392 . S
C3 C4 1.391 . S
C3 C7 1.397 . S
C3 C59 1.419 . S
C4 C0 1.391 . S
C4 C3 1.391 . S
C4 C5 1.399 . S
C5 C4 1.399 . S
C5 C8 1.396 . S
C5 C17 1.453 . S
C5 C18 1.684 . S
H6 C30 0.948 . S
C7 C3 1.397 . S
C7 C8 1.394 . S
C7 C26 1.723 . S
C8 C5 1.396 . S
C8 C7 1.394 . S
C8 C38 1.723 . S
H9 C32 0.947 . S
H10 C33 0.948 . S
H11 C39 0.982 . S
H12 C40 0.979 . S
H13 C40 0.980 . S
H14 C40 0.983 . S
H15 C39 0.979 . S
H16 C39 0.977 . S
C17 C5 1.453 . S
C17 H46 0.982 . S
C17 H47 0.979 . S
C17 H48 0.977 . S
C18 C5 1.684 . S
C18 H43 0.979 . S
C18 H44 0.980 . S
C18 H45 0.983 . S
C19 C20 1.391 . S
C19 C24 1.391 . S
C19 H49 0.948 . S
C20 C19 1.391 . S
C20 C21 1.391 . S
C21 C20 1.391 . S
C21 C22 1.392 . S
C21 H50 0.947 . S
C22 C21 1.392 . S
C22 C23 1.419 . S
C22 H51 0.948 . S
C23 C22 1.419 . S
C23 C24 1.391 . S
C23 C27 1.397 . S
C24 C19 1.391 . S
C24 C23 1.391 . S
C24 C25 1.399 . S
C25 C24 1.399 . S
C25 C26 1.396 . S
C25 C28 1.453 . S
C25 C29 1.684 . S
C26 C7 1.723 . S
C26 C25 1.396 . S
C26 C27 1.394 . S
C27 C23 1.397 . S
C27 C26 1.394 . S
C27 C37 1.723 . S
C28 C25 1.453 . S
C28 H52 0.982 . S
C28 H53 0.979 . S
C28 H54 0.977 . S
C29 C25 1.684 . S
C29 H55 0.974 1_455 S
C29 H56 0.980 . S
C29 H57 0.983 1_455 S
C30 H6 0.948 . S
C30 C31 1.391 . S
C30 C35 1.391 . S
C31 C30 1.391 . S
C31 C32 1.391 . S
C32 H9 0.947 . S
C32 C31 1.391 . S
C32 C33 1.392 . S
C33 H10 0.948 . S
C33 C32 1.392 . S
C33 C34 1.419 . S
C34 C33 1.419 . S
C34 C35 1.391 . S
C34 C38 1.397 . S
C35 C30 1.391 . S
C35 C34 1.391 . S
C35 C36 1.399 . S
C36 C35 1.399 . S
C36 C37 1.396 . S
C36 C39 1.453 . S
C36 C40 1.684 . S
C37 C27 1.723 . S
C37 C36 1.396 . S
C37 C38 1.394 . S
C38 C8 1.723 . S
C38 C34 1.397 . S
C38 C37 1.394 . S
C39 H11 0.982 . S
C39 H15 0.979 . S
C39 H16 0.977 . S
C39 C36 1.453 . S
C40 H12 0.979 . S
C40 H13 0.980 . S
C40 H14 0.983 . S
C40 C36 1.684 . S
H41 C59 0.948 . S
H42 C0 0.948 . S
H43 C18 0.979 . S
H44 C18 0.980 . S
H45 C18 0.983 . S
H46 C17 0.982 . S
H47 C17 0.979 . S
H48 C17 0.977 . S
H49 C19 0.948 . S
H50 C21 0.947 . S
H51 C22 0.948 . S
H52 C28 0.982 . S
H53 C28 0.979 . S
H54 C28 0.977 . S
H55 C29 0.974 1_655 S
H56 C29 0.980 . S
H57 C29 0.983 1_655 S
H58 C2 0.947 . S
C59 C2 1.392 . S
C59 C3 1.419 . S
C59 H41 0.948 . S
C60 C61 1.391 . S
C60 C64 1.391 . S
C60 H102 0.948 . S
C61 C60 1.391 . S
C61 C62 1.391 . S
C62 C61 1.391 . S
C62 H118 0.947 . S
C62 C119 1.392 . S
C63 C64 1.391 . S
C63 C67 1.397 . S
C63 C119 1.419 . S
C64 C60 1.391 . S
C64 C63 1.391 . S
C64 C65 1.399 . S
C65 C64 1.399 . S
C65 C68 1.396 . S
C65 C77 1.453 . S
C65 C78 1.684 . S
H66 C90 0.948 . S
C67 C63 1.397 . S
C67 C68 1.394 . S
C67 C86 1.723 . S
C68 C65 1.396 . S
C68 C67 1.394 . S
C68 C98 1.723 . S
H69 C92 0.947 . S
H70 C93 0.948 . S
H71 C99 0.982 . S
H72 C100 0.979 . S
H73 C100 0.980 . S
H74 C100 0.983 . S
H75 C99 0.979 . S
H76 C99 0.977 . S
C77 C65 1.453 . S
C77 H106 0.982 . S
C77 H107 0.979 . S
C77 H108 0.977 . S
C78 C65 1.684 . S
C78 H103 0.979 . S
C78 H104 0.980 . S
C78 H105 0.983 . S
C79 C80 1.391 . S
C79 C84 1.391 . S
C79 H109 0.948 . S
C80 C79 1.391 . S
C80 C81 1.391 . S
C81 C80 1.391 . S
C81 C82 1.392 . S
C81 H110 0.947 . S
C82 C81 1.392 . S
C82 C83 1.419 . S
C82 H111 0.948 . S
C83 C82 1.419 . S
C83 C84 1.391 . S
C83 C87 1.397 . S
C84 C79 1.391 . S
C84 C83 1.391 . S
C84 C85 1.399 . S
C85 C84 1.399 . S
C85 C86 1.396 . S
C85 C88 1.453 . S
C85 C89 1.684 . S
C86 C67 1.723 . S
C86 C85 1.396 . S
C86 C87 1.394 . S
C87 C83 1.397 . S
C87 C86 1.394 . S
C87 C97 1.723 . S
C88 C85 1.453 . S
C88 H112 0.982 . S
C88 H113 0.979 . S
C88 H114 0.977 . S
C89 C85 1.684 . S
C89 H115 0.979 . S
C89 H116 0.980 . S
C89 H117 0.983 . S
C90 H66 0.948 . S
C90 C91 1.391 . S
C90 C95 1.391 . S
C91 C90 1.391 . S
C91 C92 1.391 . S
C92 H69 0.947 . S
C92 C91 1.391 . S
C92 C93 1.392 . S
C93 H70 0.948 . S
C93 C92 1.392 . S
C93 C94 1.419 . S
C94 C93 1.419 . S
C94 C95 1.391 . S
C94 C98 1.397 . S
C95 C90 1.391 . S
C95 C94 1.391 . S
C95 C96 1.399 . S
C96 C95 1.399 . S
C96 C97 1.396 . S
C96 C99 1.453 . S
C96 C100 1.684 . S
C97 C87 1.723 . S
C97 C96 1.396 . S
C97 C98 1.394 . S
C98 C68 1.723 . S
C98 C94 1.397 . S
C98 C97 1.394 . S
C99 H71 0.982 . S
C99 H75 0.979 . S
C99 H76 0.977 . S
C99 C96 1.453 . S
C100 H72 0.979 . S
C100 H73 0.980 . S
C100 H74 0.983 . S
C100 C96 1.684 . S
H101 C119 0.948 . S
H102 C60 0.948 . S
H103 C78 0.979 . S
H104 C78 0.980 . S
H105 C78 0.983 . S
H106 C77 0.982 . S
H107 C77 0.979 . S
H108 C77 0.977 . S
H109 C79 0.948 . S
H110 C81 0.947 . S
H111 C82 0.948 . S
H112 C88 0.982 . S
H113 C88 0.979 . S
H114 C88 0.977 . S
H115 C89 0.979 . S
H116 C89 0.980 . S
H117 C89 0.983 . S
H118 C62 0.947 . S
C119 C62 1.392 . S
C119 C63 1.419 . S
C119 H101 0.948 . S
C120 C121 1.391 . S
C120 C124 1.391 . S
C120 H162 0.948 . S
C121 C120 1.391 . S
C121 C122 1.391 . S
C122 C121 1.391 . S
C122 H178 0.947 . S
C122 C179 1.392 . S
C123 C124 1.391 . S
C123 C127 1.397 . S
C123 C179 1.419 . S
C124 C120 1.391 . S
C124 C123 1.391 . S
C124 C125 1.399 . S
C125 C124 1.399 . S
C125 C128 1.396 . S
C125 C137 1.453 . S
C125 C138 1.684 . S
H126 C150 0.948 . S
C127 C123 1.397 . S
C127 C128 1.394 . S
C127 C146 1.723 . S
C128 C125 1.396 . S
C128 C127 1.394 . S
C128 C158 1.723 . S
H129 C152 0.947 1_554 S
H130 C153 0.948 . S
H131 C159 0.982 . S
H132 C160 0.979 . S
H133 C160 0.980 . S
H134 C160 0.983 . S
H135 C159 0.979 . S
H136 C159 0.977 . S
C137 C125 1.453 . S
C137 H166 0.982 . S
C137 H167 0.979 1_556 S
C137 H168 0.977 . S
C138 C125 1.684 . S
C138 H163 0.979 . S
C138 H164 0.980 . S
C138 H165 0.983 . S
C139 C140 1.391 . S
C139 C144 1.391 . S
C139 H169 0.948 . S
C140 C139 1.391 . S
C140 C141 1.391 . S
C141 C140 1.391 . S
C141 C142 1.392 . S
C141 H170 0.947 . S
C142 C141 1.392 . S
C142 C143 1.419 . S
C142 H171 0.948 . S
C143 C142 1.419 . S
C143 C144 1.391 . S
C143 C147 1.397 . S
C144 C139 1.391 . S
C144 C143 1.391 . S
C144 C145 1.399 . S
C145 C144 1.399 . S
C145 C146 1.396 . S
C145 C148 1.453 . S
C145 C149 1.684 . S
C146 C127 1.723 . S
C146 C145 1.396 . S
C146 C147 1.394 . S
C147 C143 1.397 . S
C147 C146 1.394 . S
C147 C157 1.723 . S
C148 C145 1.453 . S
C148 H172 0.982 . S
C148 H173 0.979 . S
C148 H174 0.977 . S
C149 C145 1.684 . S
C149 H175 0.979 . S
C149 H176 0.980 . S
C149 H177 0.983 . S
C150 H126 0.948 . S
C150 C151 1.391 . S
C150 C155 1.391 . S
C151 C150 1.391 . S
C151 C152 1.391 . S
C152 H129 0.947 1_556 S
C152 C151 1.391 . S
C152 C153 1.392 . S
C153 H130 0.948 . S
C153 C152 1.392 . S
C153 C154 1.419 . S
C154 C153 1.419 . S
C154 C155 1.391 . S
C154 C158 1.397 . S
C155 C150 1.391 . S
C155 C154 1.391 . S
C155 C156 1.399 . S
C156 C155 1.399 . S
C156 C157 1.396 . S
C156 C159 1.453 . S
C156 C160 1.684 . S
C157 C147 1.723 . S
C157 C156 1.396 . S
C157 C158 1.394 . S
C158 C128 1.723 . S
C158 C154 1.397 . S
C158 C157 1.394 . S
C159 H131 0.982 . S
C159 H135 0.979 . S
C159 H136 0.977 . S
C159 C156 1.453 . S
C160 H132 0.979 . S
C160 H133 0.980 . S
C160 H134 0.983 . S
C160 C156 1.684 . S
H161 C179 0.948 . S
H162 C120 0.948 . S
H163 C138 0.979 . S
H164 C138 0.980 . S
H165 C138 0.983 . S
H166 C137 0.982 . S
H167 C137 0.979 1_554 S
H168 C137 0.977 . S
H169 C139 0.948 . S
H170 C141 0.947 . S
H171 C142 0.948 . S
H172 C148 0.982 . S
H173 C148 0.979 . S
H174 C148 0.977 . S
H175 C149 0.979 . S
H176 C149 0.980 . S
H177 C149 0.983 . S
H178 C122 0.947 . S
C179 C122 1.392 . S
C179 C123 1.419 . S
C179 H161 0.948 . S
C180 C181 1.391 . S
C180 C184 1.391 . S
C180 H222 0.948 . S
C181 C180 1.391 . S
C181 C182 1.391 . S
C182 C181 1.391 . S
C182 H238 0.947 . S
C182 C239 1.392 . S
C183 C184 1.391 . S
C183 C187 1.397 . S
C183 C239 1.419 . S
C184 C180 1.391 . S
C184 C183 1.391 . S
C184 C185 1.399 . S
C185 C184 1.399 . S
C185 C188 1.396 . S
C185 C197 1.453 . S
C185 C198 1.684 . S
H186 C210 0.948 . S
C187 C183 1.397 . S
C187 C188 1.394 . S
C187 C206 1.723 . S
C188 C185 1.396 . S
C188 C187 1.394 . S
C188 C218 1.723 . S
H189 C212 0.947 . S
H190 C213 0.948 . S
H191 C219 0.982 . S
H192 C220 0.979 . S
H193 C220 0.980 . S
H194 C220 0.983 . S
H195 C219 0.979 . S
H196 C219 0.977 . S
C197 C185 1.453 . S
C197 H226 0.982 . S
C197 H227 0.979 . S
C197 H228 0.977 . S
C198 C185 1.684 . S
C198 H223 0.979 . S
C198 H224 0.980 . S
C198 H225 0.983 . S
C199 C200 1.391 . S
C199 C204 1.391 . S
C199 H229 0.948 . S
C200 C199 1.391 . S
C200 C201 1.391 . S
C201 C200 1.391 . S
C201 C202 1.392 . S
C201 H230 0.947 . S
C202 C201 1.392 . S
C202 C203 1.419 . S
C202 H231 0.948 . S
C203 C202 1.419 . S
C203 C204 1.391 . S
C203 C207 1.397 . S
C204 C199 1.391 . S
C204 C203 1.391 . S
C204 C205 1.399 . S
C205 C204 1.399 . S
C205 C206 1.396 . S
C205 C208 1.453 . S
C205 C209 1.684 . S
C206 C187 1.723 . S
C206 C205 1.396 . S
C206 C207 1.394 . S
C207 C203 1.397 . S
C207 C206 1.394 . S
C207 C217 1.723 . S
C208 C205 1.453 . S
C208 H232 0.982 . S
C208 H233 0.979 . S
C208 H234 0.977 . S
C209 C205 1.684 . S
C209 H235 0.979 . S
C209 H236 0.980 . S
C209 H237 0.983 . S
C210 H186 0.948 . S
C210 C211 1.391 . S
C210 C215 1.391 . S
C211 C210 1.391 . S
C211 C212 1.391 . S
C212 H189 0.947 . S
C212 C211 1.391 . S
C212 C213 1.392 . S
C213 H190 0.948 . S
C213 C212 1.392 . S
C213 C214 1.419 . S
C214 C213 1.419 . S
C214 C215 1.391 . S
C214 C218 1.397 . S
C215 C210 1.391 . S
C215 C214 1.391 . S
C215 C216 1.399 . S
C216 C215 1.399 . S
C216 C217 1.396 . S
C216 C219 1.453 . S
C216 C220 1.684 . S
C217 C207 1.723 . S
C217 C216 1.396 . S
C217 C218 1.394 . S
C218 C188 1.723 . S
C218 C214 1.397 . S
C218 C217 1.394 . S
C219 H191 0.982 . S
C219 H195 0.979 . S
C219 H196 0.977 . S
C219 C216 1.453 . S
C220 H192 0.979 . S
C220 H193 0.980 . S
C220 H194 0.983 . S
C220 C216 1.684 . S
H221 C239 0.948 . S
H222 C180 0.948 . S
H223 C198 0.979 . S
H224 C198 0.980 . S
H225 C198 0.983 . S
H226 C197 0.982 . S
H227 C197 0.979 . S
H228 C197 0.977 . S
H229 C199 0.948 . S
H230 C201 0.947 . S
H231 C202 0.948 . S
H232 C208 0.982 . S
H233 C208 0.979 . S
H234 C208 0.977 . S
H235 C209 0.979 . S
H236 C209 0.980 . S
H237 C209 0.983 . S
H238 C182 0.947 . S
C239 C182 1.392 . S
C239 C183 1.419 . S
C239 H221 0.948 . S
C240 C241 1.391 . S
C240 C244 1.391 . S
C240 H282 0.948 . S
C241 C240 1.391 . S
C241 C242 1.391 . S
C242 C241 1.391 . S
C242 H298 0.947 . S
C242 C299 1.392 . S
C243 C244 1.391 . S
C243 C247 1.397 . S
C243 C299 1.419 . S
C244 C240 1.391 . S
C244 C243 1.391 . S
C244 C245 1.399 . S
C245 C244 1.399 . S
C245 C248 1.396 . S
C245 C257 1.453 . S
C245 C258 1.684 . S
H246 C270 0.948 . S
C247 C243 1.397 . S
C247 C248 1.394 . S
C247 C266 1.723 . S
C248 C245 1.396 . S
C248 C247 1.394 . S
C248 C278 1.723 . S
H249 C272 0.947 . S
H250 C273 0.948 . S
H251 C279 0.982 . S
H252 C280 0.979 . S
H253 C280 0.980 . S
H254 C280 0.983 . S
H255 C279 0.979 . S
H256 C279 0.977 . S
C257 C245 1.453 . S
C257 H286 0.982 . S
C257 H287 0.979 . S
C257 H288 0.977 . S
C258 C245 1.684 . S
C258 H283 0.979 . S
C258 H284 0.980 . S
C258 H285 0.983 . S
C259 C260 1.391 . S
C259 C264 1.391 . S
C259 H289 0.948 . S
C260 C259 1.391 . S
C260 C261 1.391 . S
C261 C260 1.391 . S
C261 C262 1.392 . S
C261 H290 0.947 . S
C262 C261 1.392 . S
C262 C263 1.419 . S
C262 H291 0.948 . S
C263 C262 1.419 . S
C263 C264 1.391 . S
C263 C267 1.397 . S
C264 C259 1.391 . S
C264 C263 1.391 . S
C264 C265 1.399 . S
C265 C264 1.399 . S
C265 C266 1.396 . S
C265 C268 1.453 . S
C265 C269 1.684 . S
C266 C247 1.723 . S
C266 C265 1.396 . S
C266 C267 1.394 . S
C267 C263 1.397 . S
C267 C266 1.394 . S
C267 C277 1.723 . S
C268 C265 1.453 . S
C268 H292 0.982 . S
C268 H293 0.979 . S
C268 H294 0.977 . S
C269 C265 1.684 . S
C269 H295 0.981 . S
C269 H296 0.980 . S
C269 H297 0.983 1_655 S
C270 H246 0.948 . S
C270 C271 1.391 . S
C270 C275 1.391 . S
C271 C270 1.391 . S
C271 C272 1.391 . S
C272 H249 0.947 . S
C272 C271 1.391 . S
C272 C273 1.392 . S
C273 H250 0.948 . S
C273 C272 1.392 . S
C273 C274 1.419 . S
C274 C273 1.419 . S
C274 C275 1.391 . S
C274 C278 1.397 . S
C275 C270 1.391 . S
C275 C274 1.391 . S
C275 C276 1.399 . S
C276 C275 1.399 . S
C276 C277 1.396 . S
C276 C279 1.453 . S
C276 C280 1.684 . S
C277 C267 1.723 . S
C277 C276 1.396 . S
C277 C278 1.394 . S
C278 C248 1.723 . S
C278 C274 1.397 . S
C278 C277 1.394 . S
C279 H251 0.982 . S
C279 H255 0.979 . S
C279 H256 0.977 . S
C279 C276 1.453 . S
C280 H252 0.979 . S
C280 H253 0.980 . S
C280 H254 0.983 . S
C280 C276 1.684 . S
H281 C299 0.948 . S
H282 C240 0.948 . S
H283 C258 0.979 . S
H284 C258 0.980 . S
H285 C258 0.983 . S
H286 C257 0.982 . S
H287 C257 0.979 . S
H288 C257 0.977 . S
H289 C259 0.948 . S
H290 C261 0.947 . S
H291 C262 0.948 . S
H292 C268 0.982 . S
H293 C268 0.979 . S
H294 C268 0.977 . S
H295 C269 0.981 . S
H296 C269 0.980 . S
H297 C269 0.983 1_455 S
H298 C242 0.947 . S
C299 C242 1.392 . S
C299 C243 1.419 . S
C299 H281 0.948 . S
C300 C301 1.391 . S
C300 C304 1.391 . S
C300 H342 0.948 . S
C301 C300 1.391 . S
C301 C302 1.391 . S
C302 C301 1.391 . S
C302 H358 0.947 . S
C302 C359 1.392 . S
C303 C304 1.391 . S
C303 C307 1.397 . S
C303 C359 1.419 . S
C304 C300 1.391 . S
C304 C303 1.391 . S
C304 C305 1.399 . S
C305 C304 1.399 . S
C305 C308 1.396 . S
C305 C317 1.453 . S
C305 C318 1.684 . S
H306 C330 0.948 . S
C307 C303 1.397 . S
C307 C308 1.394 . S
C307 C326 1.723 . S
C308 C305 1.396 . S
C308 C307 1.394 . S
C308 C338 1.723 . S
H309 C332 0.947 . S
H310 C333 0.948 . S
H311 C339 0.982 . S
H312 C340 0.979 . S
H313 C340 0.980 . S
H314 C340 0.983 . S
H315 C339 0.979 . S
H316 C339 0.977 . S
C317 C305 1.453 . S
C317 H346 0.982 . S
C317 H347 0.979 . S
C317 H348 0.977 . S
C318 C305 1.684 . S
C318 H343 0.979 . S
C318 H344 0.980 . S
C318 H345 0.983 . S
C319 C320 1.391 . S
C319 C324 1.391 . S
C319 H349 0.948 . S
C320 C319 1.391 . S
C320 C321 1.391 . S
C321 C320 1.391 . S
C321 C322 1.392 . S
C321 H350 0.947 . S
C322 C321 1.392 . S
C322 C323 1.419 . S
C322 H351 0.948 . S
C323 C322 1.419 . S
C323 C324 1.391 . S
C323 C327 1.397 . S
C324 C319 1.391 . S
C324 C323 1.391 . S
C324 C325 1.399 . S
C325 C324 1.399 . S
C325 C326 1.396 . S
C325 C328 1.453 . S
C325 C329 1.684 . S
C326 C307 1.723 . S
C326 C325 1.396 . S
C326 C327 1.394 . S
C327 C323 1.397 . S
C327 C326 1.394 . S
C327 C337 1.723 . S
C328 C325 1.453 . S
C328 H352 0.982 . S
C328 H353 0.979 . S
C328 H354 0.977 . S
C329 C325 1.684 . S
C329 H355 0.979 . S
C329 H356 0.980 . S
C329 H357 0.983 . S
C330 H306 0.948 . S
C330 C331 1.391 . S
C330 C335 1.391 . S
C331 C330 1.391 . S
C331 C332 1.391 . S
C332 H309 0.947 . S
C332 C331 1.391 . S
C332 C333 1.392 . S
C333 H310 0.948 . S
C333 C332 1.392 . S
C333 C334 1.419 . S
C334 C333 1.419 . S
C334 C335 1.391 . S
C334 C338 1.397 . S
C335 C330 1.391 . S
C335 C334 1.391 . S
C335 C336 1.399 . S
C336 C335 1.399 . S
C336 C337 1.396 . S
C336 C339 1.453 . S
C336 C340 1.684 . S
C337 C327 1.723 . S
C337 C336 1.396 . S
C337 C338 1.394 . S
C338 C308 1.723 . S
C338 C334 1.397 . S
C338 C337 1.394 . S
C339 H311 0.982 . S
C339 H315 0.979 . S
C339 H316 0.977 . S
C339 C336 1.453 . S
C340 H312 0.979 . S
C340 H313 0.980 . S
C340 H314 0.983 . S
C340 C336 1.684 . S
H341 C359 0.948 . S
H342 C300 0.948 . S
H343 C318 0.979 . S
H344 C318 0.980 . S
H345 C318 0.983 . S
H346 C317 0.982 . S
H347 C317 0.979 . S
H348 C317 0.977 . S
H349 C319 0.948 . S
H350 C321 0.947 . S
H351 C322 0.948 . S
H352 C328 0.982 . S
H353 C328 0.979 . S
H354 C328 0.977 . S
H355 C329 0.979 . S
H356 C329 0.980 . S
H357 C329 0.983 . S
H358 C302 0.947 . S
C359 C302 1.392 . S
C359 C303 1.419 . S
C359 H341 0.948 . S
C360 C361 1.391 . S
C360 C364 1.391 . S
C360 H402 0.948 . S
C361 C360 1.391 . S
C361 C362 1.391 . S
C362 C361 1.391 . S
C362 H418 0.947 . S
C362 C419 1.392 . S
C363 C364 1.391 . S
C363 C367 1.397 . S
C363 C419 1.419 . S
C364 C360 1.391 . S
C364 C363 1.391 . S
C364 C365 1.399 . S
C365 C364 1.399 . S
C365 C368 1.396 . S
C365 C377 1.453 . S
C365 C378 1.684 . S
H366 C390 0.948 . S
C367 C363 1.397 . S
C367 C368 1.394 . S
C367 C386 1.723 . S
C368 C365 1.396 . S
C368 C367 1.394 . S
C368 C398 1.723 . S
H369 C392 0.947 . S
H370 C393 0.948 . S
H371 C399 0.982 . S
H372 C400 0.979 . S
H373 C400 0.980 . S
H374 C400 0.983 . S
H375 C399 0.979 . S
H376 C399 0.977 . S
C377 C365 1.453 . S
C377 H406 0.982 . S
C377 H407 0.979 . S
C377 H408 0.977 . S
C378 C365 1.684 . S
C378 H403 0.979 . S
C378 H404 0.980 . S
C378 H405 0.983 . S
C379 C380 1.391 . S
C379 C384 1.391 . S
C379 H409 0.948 . S
C380 C379 1.391 . S
C380 C381 1.391 . S
C381 C380 1.391 . S
C381 C382 1.392 . S
C381 H410 0.947 1_554 S
C382 C381 1.392 . S
C382 C383 1.419 . S
C382 H411 0.948 . S
C383 C382 1.419 . S
C383 C384 1.391 . S
C383 C387 1.397 . S
C384 C379 1.391 . S
C384 C383 1.391 . S
C384 C385 1.399 . S
C385 C384 1.399 . S
C385 C386 1.396 . S
C385 C388 1.453 . S
C385 C389 1.684 . S
C386 C367 1.723 . S
C386 C385 1.396 . S
C386 C387 1.394 . S
C387 C383 1.397 . S
C387 C386 1.394 . S
C387 C397 1.723 . S
C388 C385 1.453 . S
C388 H412 0.982 . S
C388 H413 0.979 . S
C388 H414 0.977 . S
C389 C385 1.684 . S
C389 H415 0.979 . S
C389 H416 0.980 . S
C389 H417 0.983 . S
C390 H366 0.948 . S
C390 C391 1.391 . S
C390 C395 1.391 . S
C391 C390 1.391 . S
C391 C392 1.391 . S
C392 H369 0.947 . S
C392 C391 1.391 . S
C392 C393 1.392 . S
C393 H370 0.948 . S
C393 C392 1.392 . S
C393 C394 1.419 . S
C394 C393 1.419 . S
C394 C395 1.391 . S
C394 C398 1.397 . S
C395 C390 1.391 . S
C395 C394 1.391 . S
C395 C396 1.399 . S
C396 C395 1.399 . S
C396 C397 1.396 . S
C396 C399 1.453 . S
C396 C400 1.684 1_554 S
C397 C387 1.723 . S
C397 C396 1.396 . S
C397 C398 1.394 . S
C398 C368 1.723 . S
C398 C394 1.397 . S
C398 C397 1.394 . S
C399 H371 0.982 . S
C399 H375 0.979 . S
C399 H376 0.977 . S
C399 C396 1.453 . S
C400 H372 0.979 . S
C400 H373 0.980 . S
C400 H374 0.983 . S
C400 C396 1.684 1_556 S
H401 C419 0.948 . S
H402 C360 0.948 . S
H403 C378 0.979 . S
H404 C378 0.980 . S
H405 C378 0.983 . S
H406 C377 0.982 . S
H407 C377 0.979 . S
H408 C377 0.977 . S
H409 C379 0.948 . S
H410 C381 0.947 1_556 S
H411 C382 0.948 . S
H412 C388 0.982 . S
H413 C388 0.979 . S
H414 C388 0.977 . S
H415 C389 0.979 . S
H416 C389 0.980 . S
H417 C389 0.983 . S
H418 C362 0.947 . S
C419 C362 1.392 . S
C419 C363 1.419 . S
C419 H401 0.948 . S
C420 C421 1.391 . S
C420 C424 1.391 . S
C420 H462 0.948 . S
C421 C420 1.391 . S
C421 C422 1.391 . S
C422 C421 1.391 . S
C422 H478 0.947 . S
C422 C479 1.392 . S
C423 C424 1.391 . S
C423 C427 1.397 . S
C423 C479 1.419 . S
C424 C420 1.391 . S
C424 C423 1.391 . S
C424 C425 1.399 . S
C425 C424 1.399 . S
C425 C428 1.396 . S
C425 C437 1.453 . S
C425 C438 1.684 . S
H426 C450 0.948 . S
C427 C423 1.397 . S
C427 C428 1.394 . S
C427 C446 1.723 . S
C428 C425 1.396 . S
C428 C427 1.394 . S
C428 C458 1.723 . S
H429 C452 0.947 . S
H430 C453 0.948 . S
H431 C459 0.982 . S
H432 C460 0.979 . S
H433 C460 0.980 . S
H434 C460 0.983 . S
H435 C459 0.979 . S
H436 C459 0.977 . S
C437 C425 1.453 . S
C437 H466 0.982 . S
C437 H467 0.979 . S
C437 H468 0.977 . S
C438 C425 1.684 . S
C438 H463 0.979 . S
C438 H464 0.980 . S
C438 H465 0.983 . S
C439 C440 1.391 . S
C439 C444 1.391 . S
C439 H469 0.948 . S
C440 C439 1.391 . S
C440 C441 1.391 . S
C441 C440 1.391 . S
C441 C442 1.392 . S
C441 H470 0.947 . S
C442 C441 1.392 . S
C442 C443 1.419 . S
C442 H471 0.948 . S
C443 C442 1.419 . S
C443 C444 1.391 . S
C443 C447 1.397 . S
C444 C439 1.391 . S
C444 C443 1.391 . S
C444 C445 1.399 . S
C445 C444 1.399 . S
C445 C446 1.396 . S
C445 C448 1.453 . S
C445 C449 1.684 . S
C446 C427 1.723 . S
C446 C445 1.396 . S
C446 C447 1.394 . S
C447 C443 1.397 . S
C447 C446 1.394 . S
C447 C457 1.723 . S
C448 C445 1.453 . S
C448 H472 0.982 . S
C448 H473 0.979 . S
C448 H474 0.977 . S
C449 C445 1.684 . S
C449 H475 0.979 . S
C449 H476 0.980 . S
C449 H477 0.983 . S
C450 H426 0.948 . S
C450 C451 1.391 . S
C450 C455 1.391 . S
C451 C450 1.391 . S
C451 C452 1.391 . S
C452 H429 0.947 . S
C452 C451 1.391 . S
C452 C453 1.392 . S
C453 H430 0.948 . S
C453 C452 1.392 . S
C453 C454 1.419 . S
C454 C453 1.419 . S
C454 C455 1.391 . S
C454 C458 1.397 . S
C455 C450 1.391 . S
C455 C454 1.391 . S
C455 C456 1.399 . S
C456 C455 1.399 . S
C456 C457 1.396 . S
C456 C459 1.453 . S
C456 C460 1.684 . S
C457 C447 1.723 . S
C457 C456 1.396 . S
C457 C458 1.394 . S
C458 C428 1.723 . S
C458 C454 1.397 . S
C458 C457 1.394 . S
C459 H431 0.982 . S
C459 H435 0.979 . S
C459 H436 0.977 . S
C459 C456 1.453 . S
C460 H432 0.979 . S
C460 H433 0.980 . S
C460 H434 0.983 . S
C460 C456 1.684 . S
H461 C479 0.948 . S
H462 C420 0.948 . S
H463 C438 0.979 . S
H464 C438 0.980 . S
H465 C438 0.983 . S
H466 C437 0.982 . S
H467 C437 0.979 . S
H468 C437 0.977 . S
H469 C439 0.948 . S
H470 C441 0.947 . S
H471 C442 0.948 . S
H472 C448 0.982 . S
H473 C448 0.979 . S
H474 C448 0.977 . S
H475 C449 0.979 . S
H476 C449 0.980 . S
H477 C449 0.983 . S
H478 C422 0.947 . S
C479 C422 1.392 . S
C479 C423 1.419 . S
C479 H461 0.948 . S
C480 O496 1.251 . S
C480 O498 1.254 1_545 S
N481 C482 1.333 . S
N481 C486 1.307 . S
N481 Zn487 2.020 . S
C482 N481 1.333 . S
C482 C483 1.379 . S
C482 H500 0.952 . S
C483 C482 1.379 . S
C483 C484 1.390 . S
C483 H510 0.949 . S
C484 C483 1.390 . S
C484 C485 1.357 . S
C485 C484 1.357 . S
C485 C486 1.370 . S
C485 H511 0.950 . S
C486 N481 1.307 . S
C486 C485 1.370 . S
C486 H504 0.948 1_455 S
Zn487 N481 2.020 . S
Zn487 O496 2.039 . S
Zn487 O502 2.034 . S
Zn487 O506 2.025 1_455 S
Zn487 O508 2.024 1_455 S
C488 O507 1.246 1_545 S
C488 O508 1.249 . S
N489 C490 1.307 . S
N489 C491 1.333 . S
N489 Zn495 2.020 . S
C490 N489 1.307 . S
C490 C494 1.370 . S
C490 H501 0.948 1_655 S
C491 N489 1.333 . S
C491 C492 1.379 . S
C491 H499 0.952 . S
C492 C491 1.379 . S
C492 C493 1.390 . S
C492 H512 0.949 . S
C493 C492 1.390 . S
C493 C494 1.357 . S
C494 C490 1.370 . S
C494 C493 1.357 . S
C494 H513 0.950 . S
Zn495 N489 2.020 . S
Zn495 O498 2.025 1_655 S
Zn495 O503 2.024 1_655 S
Zn495 O505 2.039 . S
Zn495 O507 2.034 . S
O496 C480 1.251 . S
O496 Zn487 2.039 . S
C497 O502 1.246 1_565 S
C497 O503 1.249 . S
O498 C480 1.254 1_565 S
O498 Zn495 2.025 1_455 S
H499 C491 0.952 . S
H500 C482 0.952 . S
H501 C490 0.948 1_455 S
O502 Zn487 2.034 . S
O502 C497 1.246 1_545 S
O503 Zn495 2.024 1_455 S
O503 C497 1.249 . S
H504 C486 0.948 1_655 S
O505 Zn495 2.039 . S
O505 C509 1.251 . S
O506 Zn487 2.025 1_655 S
O506 C509 1.254 1_545 S
O507 C488 1.246 1_565 S
O507 Zn495 2.034 . S
O508 Zn487 2.024 1_655 S
O508 C488 1.249 . S
C509 O505 1.251 . S
C509 O506 1.254 1_565 S
H510 C483 0.949 . S
H511 C485 0.950 . S
H512 C492 0.949 . S
H513 C494 0.950 . S
C514 O530 1.251 1_565 S
C514 O532 1.254 . S
N515 C516 1.333 . S
N515 C520 1.307 . S
N515 Zn521 2.020 . S
C516 N515 1.333 . S
C516 C517 1.379 . S
C516 H534 0.952 . S
C517 C516 1.379 . S
C517 C518 1.390 . S
C517 H544 0.949 . S
C518 C517 1.390 . S
C518 C519 1.357 . S
C519 C518 1.357 . S
C519 C520 1.370 . S
C519 H545 0.950 . S
C520 N515 1.307 . S
C520 C519 1.370 . S
C520 H538 0.948 . S
Zn521 N515 2.020 . S
Zn521 O530 2.039 . S
Zn521 O536 2.034 1_556 S
Zn521 O540 2.025 1_556 S
Zn521 O542 2.024 . S
C522 O541 1.246 . S
C522 O542 1.249 1_565 S
N523 C524 1.307 . S
N523 C525 1.333 . S
N523 Zn529 2.020 . S
C524 N523 1.307 . S
C524 C528 1.370 . S
C524 H535 0.948 . S
C525 N523 1.333 . S
C525 C526 1.379 . S
C525 H533 0.952 . S
C526 C525 1.379 . S
C526 C527 1.390 . S
C526 H546 0.949 . S
C527 C526 1.390 . S
C527 C528 1.357 . S
C528 C524 1.370 . S
C528 C527 1.357 . S
C528 H547 0.950 . S
Zn529 N523 2.020 . S
Zn529 O532 2.025 1_554 S
Zn529 O537 2.024 . S
Zn529 O539 2.039 . S
Zn529 O541 2.034 1_554 S
O530 C514 1.251 1_545 S
O530 Zn521 2.039 . S
C531 O536 1.246 . S
C531 O537 1.249 1_545 S
O532 C514 1.254 . S
O532 Zn529 2.025 1_556 S
H533 C525 0.952 . S
H534 C516 0.952 . S
H535 C524 0.948 . S
O536 Zn521 2.034 1_554 S
O536 C531 1.246 . S
O537 Zn529 2.024 . S
O537 C531 1.249 1_565 S
H538 C520 0.948 . S
O539 Zn529 2.039 . S
O539 C543 1.251 1_565 S
O540 Zn521 2.025 1_554 S
O540 C543 1.254 . S
O541 C522 1.246 . S
O541 Zn529 2.034 1_556 S
O542 Zn521 2.024 . S
O542 C522 1.249 1_545 S
C543 O539 1.251 1_545 S
C543 O540 1.254 . S
H544 C517 0.949 . S
H545 C519 0.950 . S
H546 C526 0.949 . S
H547 C528 0.950 . S
C548 O564 1.251 . S
C548 O566 1.254 . S
N549 C550 1.333 . S
N549 C554 1.307 . S
N549 Zn555 2.020 . S
C550 N549 1.333 . S
C550 C551 1.379 . S
C550 H568 0.952 . S
C551 C550 1.379 . S
C551 C552 1.390 . S
C551 H578 0.949 . S
C552 C551 1.390 . S
C552 C553 1.357 . S
C553 C552 1.357 . S
C553 C554 1.370 . S
C553 H579 0.950 . S
C554 N549 1.307 . S
C554 C553 1.370 . S
C554 H572 0.948 . S
Zn555 N549 2.020 . S
Zn555 O564 2.039 . S
Zn555 O570 2.034 . S
Zn555 O574 2.025 . S
Zn555 O576 2.024 . S
C556 O575 1.246 . S
C556 O576 1.249 . S
N557 C558 1.307 . S
N557 C559 1.333 . S
N557 Zn563 2.020 . S
C558 N557 1.307 . S
C558 C562 1.370 . S
C558 H569 0.948 . S
C559 N557 1.333 . S
C559 C560 1.379 . S
C559 H567 0.952 . S
C560 C559 1.379 . S
C560 C561 1.390 . S
C560 H580 0.949 . S
C561 C560 1.390 . S
C561 C562 1.357 . S
C562 C558 1.370 . S
C562 C561 1.357 . S
C562 H581 0.950 . S
Zn563 N557 2.020 . S
Zn563 O566 2.025 . S
Zn563 O571 2.024 . S
Zn563 O573 2.039 . S
Zn563 O575 2.034 . S
O564 C548 1.251 . S
O564 Zn555 2.039 . S
C565 O570 1.246 . S
C565 O571 1.249 . S
O566 C548 1.254 . S
O566 Zn563 2.025 . S
H567 C559 0.952 . S
H568 C550 0.952 . S
H569 C558 0.948 . S
O570 Zn555 2.034 . S
O570 C565 1.246 . S
O571 Zn563 2.024 . S
O571 C565 1.249 . S
H572 C554 0.948 . S
O573 Zn563 2.039 . S
O573 C577 1.251 . S
O574 Zn555 2.025 . S
O574 C577 1.254 . S
O575 C556 1.246 . S
O575 Zn563 2.034 . S
O576 Zn555 2.024 . S
O576 C556 1.249 . S
C577 O573 1.251 . S
C577 O574 1.254 . S
H578 C551 0.949 . S
H579 C553 0.950 . S
H580 C560 0.949 . S
H581 C562 0.950 . S
C582 O598 1.251 1_556 S
C582 O600 1.254 . S
N583 C584 1.333 . S
N583 C588 1.307 . S
N583 Zn589 2.020 . S
C584 N583 1.333 . S
C584 C585 1.379 . S
C584 H602 0.952 . S
C585 C584 1.379 . S
C585 C586 1.390 . S
C585 H612 0.949 . S
C586 C585 1.390 . S
C586 C587 1.357 . S
C587 C586 1.357 . S
C587 C588 1.370 . S
C587 H613 0.950 . S
C588 N583 1.307 . S
C588 C587 1.370 . S
C588 H606 0.948 . S
Zn589 N583 2.020 . S
Zn589 O598 2.039 . S
Zn589 O604 2.034 1_655 S
Zn589 O608 2.025 1_655 S
Zn589 O610 2.024 . S
C590 O609 1.246 . S
C590 O610 1.249 1_556 S
N591 C592 1.307 . S
N591 C593 1.333 . S
N591 Zn597 2.020 . S
C592 N591 1.307 . S
C592 C596 1.370 . S
C592 H603 0.948 . S
C593 N591 1.333 . S
C593 C594 1.379 . S
C593 H601 0.952 . S
C594 C593 1.379 . S
C594 C595 1.390 . S
C594 H614 0.949 . S
C595 C594 1.390 . S
C595 C596 1.357 . S
C596 C592 1.370 . S
C596 C595 1.357 . S
C596 H615 0.950 . S
Zn597 N591 2.020 . S
Zn597 O600 2.025 1_455 S
Zn597 O605 2.024 . S
Zn597 O607 2.039 . S
Zn597 O609 2.034 1_455 S
O598 C582 1.251 1_554 S
O598 Zn589 2.039 . S
C599 O604 1.246 . S
C599 O605 1.249 1_554 S
O600 C582 1.254 . S
O600 Zn597 2.025 1_655 S
H601 C593 0.952 . S
H602 C584 0.952 . S
H603 C592 0.948 . S
O604 Zn589 2.034 1_455 S
O604 C599 1.246 . S
O605 Zn597 2.024 . S
O605 C599 1.249 1_556 S
H606 C588 0.948 . S
O607 Zn597 2.039 . S
O607 C611 1.251 1_556 S
O608 Zn589 2.025 1_455 S
O608 C611 1.254 . S
O609 C590 1.246 . S
O609 Zn597 2.034 1_655 S
O610 Zn589 2.024 . S
O610 C590 1.249 1_554 S
C611 O607 1.251 1_554 S
C611 O608 1.254 . S
H612 C585 0.949 . S
H613 C587 0.950 . S
H614 C594 0.949 . S
H615 C596 0.950 . S
C616 C617 1.387 . S
C616 H620 0.950 1_455 S
C616 C625 1.390 . S
C617 C616 1.387 . S
C617 C619 1.387 . S
H618 C625 0.950 1_655 S
C619 C617 1.387 . S
C619 C621 1.390 . S
C619 H623 0.950 . S
H620 C616 0.950 1_655 S
C621 C619 1.390 . S
C621 C622 1.387 . S
C621 H624 0.950 . S
C622 C621 1.387 . S
C622 C625 1.387 . S
H623 C619 0.950 . S
H624 C621 0.950 . S
C625 C616 1.390 . S
C625 H618 0.950 1_455 S
C625 C622 1.387 . S
C626 C627 1.387 . S
C626 H630 0.950 . S
C626 C635 1.390 . S
C627 C626 1.387 . S
C627 C629 1.387 . S
H628 C635 0.950 . S
C629 C627 1.387 . S
C629 C631 1.390 . S
C629 H633 0.950 . S
H630 C626 0.950 . S
C631 C629 1.390 . S
C631 C632 1.387 . S
C631 H634 0.950 1_565 S
C632 C631 1.387 . S
C632 C635 1.387 . S
H633 C629 0.950 . S
H634 C631 0.950 1_545 S
C635 C626 1.390 . S
C635 H628 0.950 . S
C635 C632 1.387 . S
C636 C637 1.387 . S
C636 H640 0.950 . S
C636 C645 1.390 . S
C637 C636 1.387 . S
C637 C639 1.387 . S
H638 C645 0.950 . S
C639 C637 1.387 . S
C639 C641 1.390 . S
C639 H643 0.950 . S
H640 C636 0.950 . S
C641 C639 1.390 . S
C641 C642 1.387 . S
C641 H644 0.950 . S
C642 C641 1.387 . S
C642 C645 1.387 . S
H643 C639 0.950 . S
H644 C641 0.950 . S
C645 C636 1.390 . S
C645 H638 0.950 . S
C645 C642 1.387 . S
C646 C647 1.387 . S
C646 H650 0.950 . S
C646 C655 1.390 . S
C647 C646 1.387 . S
C647 C649 1.387 . S
H648 C655 0.950 . S
C649 C647 1.387 . S
C649 C651 1.390 . S
C649 H653 0.950 . S
H650 C646 0.950 . S
C651 C649 1.390 . S
C651 C652 1.387 . S
C651 H654 0.950 . S
C652 C651 1.387 . S
C652 C655 1.387 . S
H653 C649 0.950 . S
H654 C651 0.950 . S
C655 C646 1.390 . S
C655 H648 0.950 . S
C655 C652 1.387 . S
C656 C657 1.387 . S
C656 H660 0.950 1_545 S
C656 C665 1.390 . S
C657 C656 1.387 . S
C657 C659 1.387 . S
H658 C665 0.950 1_565 S
C659 C657 1.387 . S
C659 C661 1.390 . S
C659 H663 0.950 . S
H660 C656 0.950 1_565 S
C661 C659 1.390 . S
C661 C662 1.387 . S
C661 H664 0.950 . S
C662 C661 1.387 . S
C662 C665 1.387 . S
H663 C659 0.950 . S
H664 C661 0.950 . S
C665 C656 1.390 . S
C665 H658 0.950 1_545 S
C665 C662 1.387 . S
C666 C667 1.387 . S
C666 H670 0.950 . S
C666 C675 1.390 . S
C667 C666 1.387 . S
C667 C669 1.387 . S
H668 C675 0.950 . S
C669 C667 1.387 . S
C669 C671 1.390 . S
C669 H673 0.950 1_565 S
H670 C666 0.950 . S
C671 C669 1.390 . S
C671 C672 1.387 . S
C671 H674 0.950 1_565 S
C672 C671 1.387 . S
C672 C675 1.387 . S
H673 C669 0.950 1_545 S
H674 C671 0.950 1_545 S
C675 C666 1.390 . S
C675 H668 0.950 . S
C675 C672 1.387 . S
C676 C677 1.387 . S
C676 H680 0.950 . S
C676 C685 1.390 . S
C677 C676 1.387 . S
C677 C679 1.387 1_556 S
H678 C685 0.950 . S
C679 C677 1.387 1_554 S
C679 C681 1.390 . S
C679 H683 0.950 . S
H680 C676 0.950 . S
C681 C679 1.390 . S
C681 C682 1.387 1_554 S
C681 H684 0.950 . S
C682 C681 1.387 1_556 S
C682 C685 1.387 . S
H683 C679 0.950 . S
H684 C681 0.950 . S
C685 C676 1.390 . S
C685 H678 0.950 . S
C685 C682 1.387 . S
C686 C687 1.387 . S
C686 H690 0.950 . S
C686 C695 1.390 . S
C687 C686 1.387 . S
C687 C689 1.387 . S
H688 C695 0.950 . S
C689 C687 1.387 . S
C689 C691 1.390 . S
C689 H693 0.950 . S
H690 C686 0.950 . S
C691 C689 1.390 . S
C691 C692 1.387 . S
C691 H694 0.950 . S
C692 C691 1.387 . S
C692 C695 1.387 . S
H693 C689 0.950 . S
H694 C691 0.950 . S
C695 C686 1.390 . S
C695 H688 0.950 . S
C695 C692 1.387 . S
C696 C697 1.387 . S
C696 H700 0.950 1_455 S
C696 C705 1.390 . S
C697 C696 1.387 . S
C697 C699 1.387 . S
H698 C705 0.950 1_655 S
C699 C697 1.387 . S
C699 C701 1.390 . S
C699 H703 0.950 . S
H700 C696 0.950 1_655 S
C701 C699 1.390 . S
C701 C702 1.387 . S
C701 H704 0.950 . S
C702 C701 1.387 . S
C702 C705 1.387 . S
H703 C699 0.950 . S
H704 C701 0.950 . S
C705 C696 1.390 . S
C705 H698 0.950 1_455 S
C705 C702 1.387 . S
C706 C707 1.387 . S
C706 H710 0.950 1_556 S
C706 C715 1.390 . S
C707 C706 1.387 . S
C707 C709 1.387 . S
H708 C715 0.950 1_554 S
C709 C707 1.387 . S
C709 C711 1.390 . S
C709 H713 0.950 . S
H710 C706 0.950 1_554 S
C711 C709 1.390 . S
C711 C712 1.387 . S
C711 H714 0.950 . S
C712 C711 1.387 . S
C712 C715 1.387 . S
H713 C709 0.950 . S
H714 C711 0.950 . S
C715 C706 1.390 . S
C715 H708 0.950 1_556 S
C715 C712 1.387 . S
C716 C717 1.387 . S
C716 H720 0.950 . S
C716 C725 1.390 . S
C717 C716 1.387 . S
C717 C719 1.387 . S
H718 C725 0.950 . S
C719 C717 1.387 . S
C719 C721 1.390 . S
C719 H723 0.950 . S
H720 C716 0.950 . S
C721 C719 1.390 . S
C721 C722 1.387 . S
C721 H724 0.950 . S
C722 C721 1.387 . S
C722 C725 1.387 . S
H723 C719 0.950 . S
H724 C721 0.950 . S
C725 C716 1.390 . S
C725 H718 0.950 . S
C725 C722 1.387 . S
C726 C727 1.387 . S
C726 H730 0.950 . S
C726 C735 1.390 . S
C727 C726 1.387 . S
C727 C729 1.387 . S
H728 C735 0.950 . S
C729 C727 1.387 . S
C729 C731 1.390 . S
C729 H733 0.950 . S
H730 C726 0.950 . S
C731 C729 1.390 . S
C731 C732 1.387 . S
C731 H734 0.950 . S
C732 C731 1.387 . S
C732 C735 1.387 . S
H733 C729 0.950 . S
H734 C731 0.950 . S
C735 C726 1.390 . S
C735 H728 0.950 . S
C735 C732 1.387 . S
C736 C737 1.387 . S
C736 H740 0.950 . S
C736 C745 1.390 . S
C737 C736 1.387 . S
C737 C739 1.387 . S
H738 C745 0.950 . S
C739 C737 1.387 . S
C739 C741 1.390 . S
C739 H743 0.950 1_565 S
H740 C736 0.950 . S
C741 C739 1.390 . S
C741 C742 1.387 . S
C741 H744 0.950 1_565 S
C742 C741 1.387 . S
C742 C745 1.387 . S
H743 C739 0.950 1_545 S
H744 C741 0.950 1_545 S
C745 C736 1.390 . S
C745 H738 0.950 . S
C745 C742 1.387 . S
C746 C747 1.387 . S
C746 H750 0.950 . S
C746 C755 1.390 . S
C747 C746 1.387 . S
C747 C749 1.387 . S
H748 C755 0.950 . S
C749 C747 1.387 . S
C749 C751 1.390 . S
C749 H753 0.950 1_545 S
H750 C746 0.950 . S
C751 C749 1.390 . S
C751 C752 1.387 . S
C751 H754 0.950 1_545 S
C752 C751 1.387 . S
C752 C755 1.387 . S
H753 C749 0.950 1_565 S
H754 C751 0.950 1_565 S
C755 C746 1.390 . S
C755 H748 0.950 . S
C755 C752 1.387 . S
C756 C757 1.387 . S
C756 H760 0.950 . S
C756 C765 1.390 . S
C757 C756 1.387 . S
C757 C759 1.387 . S
H758 C765 0.950 . S
C759 C757 1.387 . S
C759 C761 1.390 . S
C759 H763 0.950 . S
H760 C756 0.950 . S
C761 C759 1.390 . S
C761 C762 1.387 . S
C761 H764 0.950 . S
C762 C761 1.387 . S
C762 C765 1.387 . S
H763 C759 0.950 . S
H764 C761 0.950 . S
C765 C756 1.390 . S
C765 H758 0.950 . S
C765 C762 1.387 . S
C766 C767 1.387 . S
C766 H770 0.950 . S
C766 C775 1.390 . S
C767 C766 1.387 . S
C767 C769 1.387 . S
H768 C775 0.950 . S
C769 C767 1.387 . S
C769 C771 1.390 . S
C769 H773 0.950 . S
H770 C766 0.950 . S
C771 C769 1.390 . S
C771 C772 1.387 . S
C771 H774 0.950 . S
C772 C771 1.387 . S
C772 C775 1.387 . S
H773 C769 0.950 . S
H774 C771 0.950 . S
C775 C766 1.390 . S
C775 H768 0.950 . S
C775 C772 1.387 . S
C776 C777 1.387 . S
C776 H780 0.950 . S
C776 C785 1.390 . S
C777 C776 1.387 . S
C777 C779 1.387 . S
H778 C785 0.950 . S
C779 C777 1.387 . S
C779 C781 1.390 . S
C779 H783 0.950 . S
H780 C776 0.950 . S
C781 C779 1.390 . S
C781 C782 1.387 . S
C781 H784 0.950 1_556 S
C782 C781 1.387 . S
C782 C785 1.387 . S
H783 C779 0.950 . S
H784 C781 0.950 1_554 S
C785 C776 1.390 . S
C785 H778 0.950 . S
C785 C782 1.387 . S
C786 C787 1.387 . S
C786 H790 0.950 . S
C786 C795 1.390 . S
C787 C786 1.387 . S
C787 C789 1.387 . S
H788 C795 0.950 . S
C789 C787 1.387 . S
C789 C791 1.390 . S
C789 H793 0.950 1_545 S
H790 C786 0.950 . S
C791 C789 1.390 . S
C791 C792 1.387 . S
C791 H794 0.950 1_545 S
C792 C791 1.387 . S
C792 C795 1.387 . S
H793 C789 0.950 1_565 S
H794 C791 0.950 1_565 S
C795 C786 1.390 . S
C795 H788 0.950 . S
C795 C792 1.387 . S
C796 C797 1.387 . S
C796 H800 0.950 . S
C796 C805 1.390 . S
C797 C796 1.387 . S
C797 C799 1.387 1_554 S
H798 C805 0.950 . S
C799 C797 1.387 1_556 S
C799 C801 1.390 . S
C799 H803 0.950 . S
H800 C796 0.950 . S
C801 C799 1.390 . S
C801 C802 1.387 1_556 S
C801 H804 0.950 . S
C802 C801 1.387 1_554 S
C802 C805 1.387 . S
H803 C799 0.950 . S
H804 C801 0.950 . S
C805 C796 1.390 . S
C805 H798 0.950 . S
C805 C802 1.387 . S
C806 C807 1.387 . S
C806 H810 0.950 . S
C806 C815 1.390 . S
C807 C806 1.387 . S
C807 C809 1.387 . S
H808 C815 0.950 . S
C809 C807 1.387 . S
C809 C811 1.390 . S
C809 H813 0.950 . S
H810 C806 0.950 . S
C811 C809 1.390 . S
C811 C812 1.387 . S
C811 H814 0.950 . S
C812 C811 1.387 . S
C812 C815 1.387 . S
H813 C809 0.950 . S
H814 C811 0.950 . S
C815 C806 1.390 . S
C815 H808 0.950 . S
C815 C812 1.387 . S
C816 C817 1.387 . S
C816 H820 0.950 1_655 S
C816 C825 1.390 . S
C817 C816 1.387 . S
C817 C819 1.387 . S
H818 C825 0.950 1_455 S
C819 C817 1.387 . S
C819 C821 1.390 . S
C819 H823 0.950 . S
H820 C816 0.950 1_455 S
C821 C819 1.390 . S
C821 C822 1.387 . S
C821 H824 0.950 . S
C822 C821 1.387 . S
C822 C825 1.387 . S
H823 C819 0.950 . S
H824 C821 0.950 . S
C825 C816 1.390 . S
C825 H818 0.950 1_655 S
C825 C822 1.387 . S
C826 C827 1.387 . S
C826 H830 0.950 . S
C826 C835 1.390 . S
C827 C826 1.387 . S
C827 C829 1.387 . S
H828 C835 0.950 . S
C829 C827 1.387 . S
C829 C831 1.390 . S
C829 H833 0.950 1_554 S
H830 C826 0.950 . S
C831 C829 1.390 . S
C831 C832 1.387 . S
C831 H834 0.950 . S
C832 C831 1.387 . S
C832 C835 1.387 . S
H833 C829 0.950 1_556 S
H834 C831 0.950 . S
C835 C826 1.390 . S
C835 H828 0.950 . S
C835 C832 1.387 . S
C836 C837 1.387 . S
C836 H840 0.950 . S
C836 C845 1.390 . S
C837 C836 1.387 . S
C837 C839 1.387 . S
H838 C845 0.950 . S
C839 C837 1.387 . S
C839 C841 1.390 . S
C839 H843 0.950 . S
H840 C836 0.950 . S
C841 C839 1.390 . S
C841 C842 1.387 . S
C841 H844 0.950 . S
C842 C841 1.387 . S
C842 C845 1.387 . S
H843 C839 0.950 . S
H844 C841 0.950 . S
C845 C836 1.390 . S
C845 H838 0.950 . S
C845 C842 1.387 . S
C846 C847 1.387 . S
C846 H850 0.950 . S
C846 C855 1.390 . S
C847 C846 1.387 . S
C847 C849 1.387 . S
H848 C855 0.950 . S
C849 C847 1.387 . S
C849 C851 1.390 . S
C849 H853 0.950 . S
H850 C846 0.950 . S
C851 C849 1.390 . S
C851 C852 1.387 . S
C851 H854 0.950 . S
C852 C851 1.387 . S
C852 C855 1.387 . S
H853 C849 0.950 . S
H854 C851 0.950 . S
C855 C846 1.390 . S
C855 H848 0.950 . S
C855 C852 1.387 . S
C617 C1 2.331 . S
C622 C480 2.345 . S
C627 C80 2.248 . S
C632 C522 2.324 . S
C642 C552 1.121 . S
C637 C140 1.086 . S
C647 C211 1.095 . S
C652 C586 1.184 . S
C662 C543 1.885 . S
C657 C31 1.878 . S
C672 C497 1.886 . S
C667 C61 1.819 . S
C682 C590 1.440 . S
C677 C151 1.346 . S
C692 C556 1.502 . S
C687 C200 1.382 . S
C697 C20 2.204 . S
C702 C611 2.241 . S
C712 C518 1.259 . S
C707 C121 1.153 . S
C717 C181 1.223 . S
C722 C493 1.282 . S
C727 C91 2.121 . S
C732 C577 2.223 . S
C742 C509 2.346 . S
C737 C260 2.313 . S
C747 C320 2.249 . S
C752 C531 2.324 . S
C757 C361 1.145 . S
C762 C561 1.119 . S
C767 C451 1.094 . S
C772 C595 1.182 . S
C777 C271 1.852 . S
C782 C514 1.886 . S
C792 C488 1.885 . S
C787 C301 1.820 . S
C802 C599 1.441 . S
C797 C380 1.424 . S
C812 C565 1.503 . S
C807 C440 1.383 . S
C817 C241 2.244 . S
C822 C582 2.241 . S
C832 C527 1.258 . S
C827 C391 1.218 . S
C842 C484 1.281 . S
C837 C421 1.225 . S
C847 C331 2.121 . S
C852 C548 2.223 . S
