# Generated by pormake.
# Topology tsx, (6,3)-cn, num edge types: 1
# Building blocks:
#     Node 0, Type 0, BuildingBlock: FUNLAD_clean_sbu_0, # of connection points: 6
#     Node 1, Type 0, BuildingBlock: FUNLAD_clean_sbu_0, # of connection points: 6
#     Node 2, Type 1, BuildingBlock: INOVEN_clean_linker_0, # of connection points: 3
#     Node 3, Type 1, BuildingBlock: INOVEN_clean_linker_0, # of connection points: 3
#     Node 4, Type 1, BuildingBlock: INOVEN_clean_linker_0, # of connection points: 3
#     Node 5, Type 1, BuildingBlock: INOVEN_clean_linker_0, # of connection points: 3
#     Edge 6, Type (0, 1), BuildingBlock: FUNLAD_clean_linker_0, # of connection points: 2
#     Edge 7, Type (0, 1), BuildingBlock: FUNLAD_clean_linker_0, # of connection points: 2
#     Edge 8, Type (0, 1), BuildingBlock: FUNLAD_clean_linker_0, # of connection points: 2
#     Edge 9, Type (0, 1), BuildingBlock: FUNLAD_clean_linker_0, # of connection points: 2
#     Edge 10, Type (0, 1), BuildingBlock: FUNLAD_clean_linker_0, # of connection points: 2
#     Edge 11, Type (0, 1), BuildingBlock: FUNLAD_clean_linker_0, # of connection points: 2
#     Edge 12, Type (0, 1), BuildingBlock: FUNLAD_clean_linker_0, # of connection points: 2
#     Edge 13, Type (0, 1), BuildingBlock: FUNLAD_clean_linker_0, # of connection points: 2
#     Edge 14, Type (0, 1), BuildingBlock: FUNLAD_clean_linker_0, # of connection points: 2
#     Edge 15, Type (0, 1), BuildingBlock: FUNLAD_clean_linker_0, # of connection points: 2
#     Edge 16, Type (0, 1), BuildingBlock: FUNLAD_clean_linker_0, # of connection points: 2
#     Edge 17, Type (0, 1), BuildingBlock: FUNLAD_clean_linker_0, # of connection points: 2
# Relax obj value: 0.102
# Max RMSD: 0.111
# Mean RMSD: 0.103
data_MOF--net-tsx--node1-FUNLAD_clean_sbu_0--node2-INOVEN_clean_linker_0--edge1-FUNLAD_clean_linker_0
_symmetry_space_group_name_H-M    P1
_symmetry_Int_Tables_number       1
_symmetry_cell_setting            triclinic
loop_
_symmetry_equiv_pos_as_xyz
'x, y, z'
_cell_length_a     22.627939
_cell_length_b     24.988978
_cell_length_c     44.68337
_cell_angle_alpha  90.873543
_cell_angle_beta   101.29773
_cell_angle_gamma 89.946553
loop_
_atom_site_label
_atom_site_type_symbol
_atom_site_fract_x
_atom_site_fract_y
_atom_site_fract_z
_atom_type_partial_charge
C0 C 0.91185 0.9208 0.00134 0.0
N1 N 0.03502 0.99146 0.07384 0.0
C2 C 0.9904 0.989 0.09021 0.0
C3 C 0.0045 0.98656 0.12196 0.0
C4 C 0.0651 0.98689 0.13703 0.0
C5 C 0.11027 0.98937 0.11957 0.0
C6 C 0.09413 0.99149 0.08782 0.0
Zn7 Zn 0.01218 0.99656 0.02757 0.0
C8 C 0.0818 0.92113 0.9964 0.0
N9 N 0.96257 0.00819 0.93089 0.0
C10 C 0.90397 0.01027 0.91618 0.0
C11 C 0.00841 0.01201 0.91537 0.0
C12 C 0.99625 0.01871 0.88387 0.0
C13 C 0.93629 0.02128 0.86806 0.0
C14 C 0.88972 0.01661 0.88454 0.0
Zn15 Zn 0.98441 0.00186 0.9772 0.0
O16 O 0.94514 0.93649 0.02624 0.0
C17 C 0.91523 0.07741 0.00883 0.0
O18 O 0.91833 0.94167 0.97642 0.0
H19 H 0.05466 0.01007 0.92747 0.0
H20 H 0.94372 0.98934 0.07864 0.0
H21 H 0.86825 0.00738 0.92901 0.0
O22 O 0.94877 0.05726 0.03207 0.0
O23 O 0.92002 0.06115 0.98232 0.0
H24 H 0.12885 0.99332 0.07432 0.0
O25 O 0.05054 0.0625 0.97847 0.0
O26 O 0.07902 0.05614 0.02805 0.0
O27 O 0.0495 0.94196 0.97295 0.0
O28 O 0.07529 0.9366 0.02275 0.0
C29 C 0.08481 0.07752 0.00317 0.0
H30 H 0.96831 0.98537 0.13462 0.0
H31 H 0.15753 0.98917 0.13032 0.0
H32 H 0.03348 0.02111 0.87196 0.0
H33 H 0.84289 0.01854 0.87318 0.0
C34 C 0.42158 0.43565 0.49728 0.0
N35 N 0.55249 0.4959 0.5703 0.0
C36 C 0.50779 0.49942 0.58662 0.0
C37 C 0.52143 0.49847 0.61841 0.0
C38 C 0.58168 0.49383 0.63361 0.0
C39 C 0.62683 0.48914 0.61619 0.0
C40 C 0.61116 0.49039 0.58438 0.0
Zn41 Zn 0.53056 0.50206 0.52404 0.0
C42 C 0.59143 0.42073 0.49245 0.0
N43 N 0.48221 0.51728 0.42742 0.0
C44 C 0.42555 0.52938 0.41241 0.0
C45 C 0.52901 0.51436 0.41246 0.0
C46 C 0.52027 0.52517 0.38145 0.0
C47 C 0.46282 0.53953 0.3655 0.0
C48 C 0.41475 0.54062 0.38122 0.0
Zn49 Zn 0.50225 0.50905 0.47371 0.0
O50 O 0.4571 0.44812 0.52219 0.0
C51 C 0.4425 0.59068 0.50616 0.0
O52 O 0.42986 0.45558 0.47243 0.0
H53 H 0.57376 0.5049 0.42477 0.0
H54 H 0.46145 0.50363 0.57496 0.0
H55 H 0.38903 0.53171 0.42479 0.0
O56 O 0.47421 0.56785 0.52899 0.0
O57 O 0.4447 0.57398 0.47938 0.0
H58 H 0.64598 0.48779 0.57095 0.0
O59 O 0.57442 0.56329 0.47538 0.0
O60 O 0.60345 0.55567 0.52485 0.0
O61 O 0.5607 0.44339 0.46918 0.0
O62 O 0.58695 0.4372 0.51892 0.0
C63 C 0.61059 0.57595 0.4999 0.0
H64 H 0.48513 0.5013 0.63095 0.0
H65 H 0.67386 0.48587 0.62703 0.0
H66 H 0.55837 0.52269 0.37012 0.0
H67 H 0.36977 0.55164 0.36978 0.0
H68 H 0.0724 0.00506 0.49224 0.0
H69 H 0.19012 0.96727 0.43025 0.0
H70 H 0.04847 0.08195 0.40524 0.0
N71 N 0.006 0.0768 0.45736 0.0
N72 N 0.97221 0.10297 0.43742 0.0
C73 C 0.08701 0.01186 0.47097 0.0
C74 C 0.13578 0.98285 0.46395 0.0
C75 C 0.05619 0.04867 0.45021 0.0
C76 C 0.07375 0.05535 0.42193 0.0
C77 C 0.12157 0.02571 0.41437 0.0
C78 C 0.15336 0.99069 0.43592 0.0
H79 H 0.99274 0.9713 0.51766 0.0
H80 H 0.91094 0.93797 0.59437 0.0
H81 H 0.00405 0.08692 0.59093 0.0
N82 N 0.03715 0.06614 0.53733 0.0
N83 N 0.04235 0.11525 0.5425 0.0
C84 C 0.98141 0.98364 0.53919 0.0
C85 C 0.9497 0.94876 0.55463 0.0
C86 C 0.0001 0.0339 0.55192 0.0
C87 C 0.98707 0.04921 0.58041 0.0
C88 C 0.9561 0.01424 0.59628 0.0
C89 C 0.93647 0.96469 0.58279 0.0
H90 H 0.54725 0.49458 0.98749 0.0
H91 H 0.6561 0.44691 0.92278 0.0
H92 H 0.53593 0.58044 0.90378 0.0
N93 N 0.4941 0.57708 0.95596 0.0
N94 N 0.48076 0.62015 0.94255 0.0
C95 C 0.56186 0.50049 0.96609 0.0
C96 C 0.60537 0.46652 0.95754 0.0
C97 C 0.5379 0.54268 0.94715 0.0
C98 C 0.55631 0.54946 0.91912 0.0
C99 C 0.59825 0.51467 0.90994 0.0
C100 C 0.62342 0.47394 0.92959 0.0
H101 H 0.4577 0.48121 0.01385 0.0
H102 H 0.37881 0.45857 0.09281 0.0
H103 H 0.46275 0.60854 0.08021 0.0
N104 N 0.49929 0.57929 0.02872 0.0
N105 N 0.50157 0.62906 0.03128 0.0
C106 C 0.44611 0.49661 0.03475 0.0
C107 C 0.41493 0.46415 0.05187 0.0
C108 C 0.4634 0.5487 0.04488 0.0
C109 C 0.44889 0.56849 0.07222 0.0
C110 C 0.41869 0.53615 0.08984 0.0
C111 C 0.40163 0.48418 0.07931 0.0
C112 C 0.17245 0.13295 0.02949 0.0
C113 C 0.13013 0.12008 0.00292 0.0
C114 C 0.21385 0.17443 0.02953 0.0
C115 C 0.21384 0.20397 0.00294 0.0
C116 C 0.17171 0.19093 0.97638 0.0
C117 C 0.13063 0.14914 0.97626 0.0
C118 C 0.25331 0.25148 0.003 0.0
C119 C 0.3072 0.25692 0.02197 0.0
C120 C 0.34147 0.3081 0.02675 0.0
C121 C 0.38027 0.31692 0.05498 0.0
C122 C 0.40683 0.36692 0.06247 0.0
C123 C 0.39575 0.40909 0.04172 0.0
H124 H 0.30619 0.34341 0.98261 0.0
C125 C 0.36096 0.39929 0.01252 0.0
C126 C 0.33391 0.34919 0.00506 0.0
H127 H 0.35214 0.43111 0.99605 0.0
H128 H 0.1731 0.11147 0.05043 0.0
H129 H 0.24421 0.18435 0.05075 0.0
H130 H 0.17023 0.21345 0.95572 0.0
H131 H 0.09849 0.14034 0.95541 0.0
H132 H 0.23562 0.28364 0.9878 0.0
H133 H 0.32453 0.22403 0.03675 0.0
H134 H 0.38768 0.28585 0.07196 0.0
H135 H 0.43434 0.37325 0.08498 0.0
C136 C 0.13719 0.86465 0.96418 0.0
C137 C 0.12712 0.87983 0.99316 0.0
C138 C 0.18116 0.82672 0.96122 0.0
C139 C 0.21628 0.80332 0.98725 0.0
C140 C 0.20503 0.81739 0.01612 0.0
C141 C 0.1612 0.85547 0.01909 0.0
C142 C 0.26441 0.76383 0.98499 0.0
C143 C 0.29573 0.76456 0.9623 0.0
C144 C 0.3449 0.72655 0.95941 0.0
C145 C 0.38548 0.74084 0.94081 0.0
C146 C 0.43058 0.7056 0.93597 0.0
C147 C 0.43606 0.65534 0.94949 0.0
H148 H 0.31941 0.66274 0.98709 0.0
C149 C 0.39594 0.64059 0.9683 0.0
C150 C 0.35065 0.67595 0.97324 0.0
H151 H 0.39872 0.60151 0.97861 0.0
H152 H 0.11128 0.88223 0.94372 0.0
H153 H 0.18702 0.81551 0.9385 0.0
H154 H 0.23095 0.79956 0.03649 0.0
H155 H 0.15429 0.86599 0.04176 0.0
H156 H 0.27656 0.73585 0.00352 0.0
H157 H 0.28685 0.79607 0.94553 0.0
H158 H 0.38204 0.77933 0.92976 0.0
H159 H 0.4611 0.71732 0.92133 0.0
C160 C 0.8189 0.87067 0.97616 0.0
C161 C 0.86608 0.87863 0.00146 0.0
C162 C 0.7749 0.83157 0.97671 0.0
C163 C 0.77773 0.79931 0.00247 0.0
C164 C 0.82578 0.80632 0.02734 0.0
C165 C 0.86912 0.84594 0.02702 0.0
C166 C 0.73147 0.75811 0.0043 0.0
C167 C 0.67276 0.76425 0.99175 0.0
C168 C 0.62611 0.72705 -0.00162 0.0
C169 C 0.57156 0.74806 0.00377 0.0
C170 C 0.52993 0.71498 0.01384 0.0
C171 C 0.54126 0.66021 0.01773 0.0
H172 H 0.6775 0.65415 0.99634 0.0
C173 C 0.59415 0.63838 0.01054 0.0
C174 C 0.63639 0.67163 0.00103 0.0
H175 H 0.60392 0.59614 0.01342 0.0
H176 H 0.81553 0.8951 0.95607 0.0
H177 H 0.73912 0.82636 0.9569 0.0
H178 H 0.82915 0.78174 0.04738 0.0
H179 H 0.90519 0.85078 0.04676 0.0
H180 H 0.74517 0.72443 0.01917 0.0
H181 H 0.65773 0.80069 0.97963 0.0
H182 H 0.56243 0.79054 0.00162 0.0
H183 H 0.48924 0.73223 0.01919 0.0
C184 C 0.82663 0.13509 0.98822 0.0
C185 C 0.87305 0.12107 0.01256 0.0
C186 C 0.78958 0.17892 0.99094 0.0
C187 C 0.79859 0.20996 0.01801 0.0
C188 C 0.84428 0.19536 0.04251 0.0
C189 C 0.88069 0.15093 0.03997 0.0
C190 C 0.76605 0.26112 0.01973 0.0
C191 C 0.70978 0.26948 0.00404 0.0
C192 C 0.68289 0.3236 -0.00106 0.0
C193 C 0.61994 0.3287 0.99082 0.0
C194 C 0.5939 0.37721 0.97989 0.0
C195 C 0.63063 0.42095 0.97641 0.0
H196 H 0.76785 0.36636 0.00281 0.0
C197 C 0.69322 0.41696 0.98618 0.0
C198 C 0.71919 0.36885 -0.00252 0.0
H199 H 0.72228 0.45018 0.98334 0.0
H200 H 0.81967 0.11283 0.96681 0.0
H201 H 0.75588 0.18985 0.97129 0.0
H202 H 0.85259 0.21902 0.06344 0.0
H203 H 0.91627 0.14123 0.0591 0.0
H204 H 0.79036 0.29344 0.03337 0.0
H205 H 0.68353 0.2358 0.99288 0.0
H206 H 0.59104 0.29437 0.99149 0.0
H207 H 0.54552 0.37935 0.97208 0.0
C208 C 0.70333 0.62559 0.52548 0.0
C209 C 0.659 0.61534 0.49931 0.0
C210 C 0.747 0.665 0.5253 0.0
C211 C 0.74714 0.69503 0.49888 0.0
C212 C 0.70327 0.6843 0.47267 0.0
C213 C 0.65998 0.64453 0.47275 0.0
C214 C 0.78814 0.74136 0.4991 0.0
C215 C 0.84299 0.74431 0.51733 0.0
C216 C 0.87785 0.79492 0.5236 0.0
C217 C 0.91702 0.80083 0.55195 0.0
C218 C 0.94303 0.85034 0.56129 0.0
C219 C 0.931 0.89486 0.54229 0.0
H220 H 0.84161 0.83498 0.48101 0.0
C221 C 0.89616 0.88813 0.51284 0.0
C222 C 0.86965 0.83848 0.50352 0.0
H223 H 0.88681 0.92184 0.4977 0.0
H224 H 0.70365 0.60388 0.54632 0.0
H225 H 0.77887 0.67327 0.54628 0.0
H226 H 0.70194 0.7073 0.45218 0.0
H227 H 0.62632 0.6377 0.4522 0.0
H228 H 0.77048 0.77505 0.4851 0.0
H229 H 0.86011 0.70987 0.53088 0.0
H230 H 0.92487 0.76783 0.56769 0.0
H231 H 0.9707 0.85439 0.58393 0.0
C232 C 0.64285 0.36115 0.45991 0.0
C233 C 0.63386 0.37706 0.48895 0.0
C234 C 0.68552 0.32204 0.45679 0.0
C235 C 0.71985 0.29758 0.48272 0.0
C236 C 0.71039 0.31327 0.5117 0.0
C237 C 0.66778 0.35239 0.51481 0.0
C238 C 0.76843 0.25831 0.48066 0.0
C239 C 0.77113 0.22956 0.45524 0.0
C240 C 0.82291 0.19492 0.45198 0.0
C241 C 0.83479 0.18645 0.42262 0.0
C242 C 0.88408 0.15589 0.41831 0.0
C243 C 0.92193 0.13241 0.44311 0.0
H244 H 0.85178 0.17486 0.49986 0.0
C245 C 0.90965 0.13941 0.47257 0.0
C246 C 0.86045 0.17053 0.47699 0.0
H247 H 0.9381 0.1213 0.49209 0.0
H248 H 0.61789 0.37975 0.43955 0.0
H249 H 0.69257 0.31267 0.43405 0.0
H250 H 0.73645 0.29552 0.53206 0.0
H251 H 0.66212 0.36382 0.53756 0.0
H252 H 0.80381 0.25416 0.50075 0.0
H253 H 0.73568 0.23347 0.43518 0.0
H254 H 0.80651 0.20445 0.40296 0.0
H255 H 0.89302 0.15065 0.3955 0.0
C256 C 0.37173 0.36381 0.52177 0.0
C257 C 0.37074 0.39871 0.49735 0.0
C258 C 0.32343 0.32922 0.52206 0.0
C259 C 0.2728 0.32937 0.49811 0.0
C260 C 0.2714 0.36474 0.47391 0.0
C261 C 0.32031 0.39861 0.47329 0.0
C262 C 0.21986 0.29502 0.49893 0.0
C263 C 0.22572 0.24508 0.50992 0.0
C264 C 0.17393 0.21184 0.51426 0.0
C265 C 0.17941 0.15591 0.51376 0.0
C266 C 0.13468 0.1235 0.52157 0.0
C267 C 0.08399 0.14666 0.53042 0.0
H268 H 0.11708 0.27783 0.52344 0.0
C269 C 0.07773 0.20235 0.53027 0.0
C270 C 0.12208 0.23483 0.52208 0.0
H271 H 0.03927 0.22071 0.5374 0.0
H272 H 0.40991 0.36313 0.54066 0.0
H273 H 0.32515 0.30333 0.54143 0.0
H274 H 0.23255 0.36595 0.45539 0.0
H275 H 0.31813 0.42543 0.45429 0.0
H276 H 0.17537 0.31092 0.48983 0.0
H277 H 0.27043 0.22768 0.51608 0.0
H278 H 0.21919 0.13727 0.50814 0.0
H279 H 0.14129 0.08061 0.52217 0.0
C280 C 0.35745 0.65339 0.48757 0.0
C281 C 0.40487 0.6372 0.51084 0.0
C282 C 0.32347 0.69868 0.49163 0.0
C283 C 0.33678 0.72903 0.51892 0.0
C284 C 0.38401 0.71275 0.54218 0.0
C285 C 0.41723 0.66682 0.53837 0.0
C286 C 0.30617 0.78064 0.52214 0.0
C287 C 0.24806 0.78898 0.50931 0.0
C288 C 0.22054 0.84299 0.5054 0.0
C289 C 0.15747 0.84758 0.49987 0.0
C290 C 0.12955 0.89549 0.48928 0.0
C291 C 0.16438 0.9392 0.48354 0.0
H292 H 0.30397 0.88641 0.50564 0.0
C293 C 0.22742 0.93605 0.49126 0.0
C294 C 0.25535 0.88846 0.50219 0.0
H295 H 0.25506 0.96929 0.48685 0.0
H296 H 0.34696 0.63136 0.46611 0.0
H297 H 0.28839 0.71102 0.47291 0.0
H298 H 0.3956 0.7359 0.56322 0.0
H299 H 0.45376 0.65543 0.55666 0.0
H300 H 0.33293 0.81289 0.53457 0.0
H301 H 0.22027 0.75517 0.49954 0.0
H302 H 0.12966 0.81312 0.50204 0.0
H303 H 0.08081 0.89687 0.48319 0.0
C304 C 0.12579 0.01872 0.18728 0.0
C305 C 0.08078 0.98506 0.17079 0.0
C306 C 0.13859 0.01849 0.21919 0.0
C307 C 0.10649 0.98454 0.23518 0.0
C308 C 0.0629 0.94982 0.21861 0.0
C309 C 0.04992 0.95025 0.18679 0.0
C310 C 0.11686 0.9838 0.269 0.0
C311 C 0.13883 0.02571 0.28712 0.0
C312 C 0.14146 0.02574 0.32059 0.0
C313 C 0.13464 0.07423 0.33581 0.0
C314 C 0.13047 0.07476 0.36664 0.0
C315 C 0.13359 0.02674 0.38287 0.0
H316 H 0.15586 0.94025 0.32666 0.0
C317 C 0.1439 0.97863 0.36799 0.0
C318 C 0.14825 0.97816 0.3373 0.0
H319 H 0.14623 0.94082 0.37969 0.0
H320 H 0.15031 0.04599 0.17554 0.0
H321 H 0.17373 0.04472 0.23112 0.0
H322 H 0.03799 0.92282 0.23033 0.0
H323 H 0.01574 0.92319 0.17468 0.0
H324 H 0.10069 0.9488 0.27909 0.0
H325 H 0.14954 0.06285 0.27705 0.0
H326 H 0.13024 0.11158 0.32357 0.0
H327 H 0.12359 0.11259 0.37759 0.0
C328 C 0.95682 0.06287 0.82043 0.0
C329 C 0.92304 0.02722 0.83445 0.0
C330 C 0.9491 0.06435 0.78867 0.0
C331 C 0.90722 0.03018 0.77023 0.0
C332 C 0.8719 0.99606 0.78426 0.0
C333 C 0.87943 0.99477 0.81604 0.0
C334 C 0.90436 0.02425 0.73688 0.0
C335 C 0.92496 0.06101 0.71966 0.0
C336 C 0.93139 0.04894 0.68785 0.0
C337 C 0.92545 0.08989 0.6663 0.0
C338 C 0.93314 0.07899 0.63644 0.0
C339 C 0.94779 0.02701 0.6278 0.0
H340 H 0.95475 0.96529 0.69568 0.0
C341 C 0.95535 0.98657 0.64976 0.0
C342 C 0.94715 0.99731 0.67932 0.0
H343 H 0.96872 0.94653 0.64428 0.0
H344 H 0.99037 0.08873 0.83408 0.0
H345 H 0.97814 0.09043 0.77889 0.0
H346 H 0.83967 0.969 0.77063 0.0
H347 H 0.85308 0.96659 0.82618 0.0
H348 H 0.886 0.98686 0.72621 0.0
H349 H 0.93792 0.10063 0.72894 0.0
H350 H 0.91429 0.13021 0.67249 0.0
H351 H 0.92704 0.11105 0.62009 0.0
C352 C 0.56819 0.53088 0.68419 0.0
C353 C 0.59709 0.49476 0.66743 0.0
C354 C 0.58075 0.53075 0.71602 0.0
C355 C 0.62299 0.49467 0.7319 0.0
C356 C 0.65221 0.45884 0.71514 0.0
C357 C 0.63971 0.45907 0.68323 0.0
C358 C 0.63371 0.49047 0.76565 0.0
C359 C 0.62302 0.53091 0.78417 0.0
C360 C 0.62418 0.52501 0.81733 0.0
C361 C 0.62589 0.57137 0.83566 0.0
C362 C 0.61982 0.56805 0.8661 0.0
C363 C 0.61168 0.51819 0.87883 0.0
H364 H 0.61429 0.43827 0.817 0.0
C365 C 0.61181 0.47164 0.86081 0.0
C366 C 0.61773 0.47494 0.83039 0.0
H367 H 0.60442 0.43271 0.86978 0.0
H368 H 0.53548 0.55918 0.67268 0.0
H369 H 0.55575 0.55789 0.72794 0.0
H370 H 0.68433 0.43016 0.72677 0.0
H371 H 0.66225 0.43036 0.67094 0.0
H372 H 0.65065 0.45257 0.77532 0.0
H373 H 0.61185 0.57022 0.77467 0.0
H374 H 0.63048 0.61047 0.82619 0.0
H375 H 0.62037 0.60458 0.87951 0.0
C376 C 0.40381 0.53543 0.31156 0.0
C377 C 0.45411 0.55393 0.33281 0.0
C378 C 0.39878 0.54543 0.28042 0.0
C379 C 0.44393 0.57448 0.27001 0.0
C380 C 0.49303 0.59437 0.29141 0.0
C381 C 0.49793 0.58455 0.32243 0.0
C382 C 0.44503 0.58017 0.23709 0.0
C383 C 0.39583 0.57706 0.21458 0.0
C384 C 0.39933 0.57434 0.18166 0.0
C385 C 0.35177 0.55007 0.16105 0.0
C386 C 0.35659 0.54016 0.13076 0.0
C387 C 0.40919 0.55436 0.12039 0.0
H388 H 0.4865 0.61351 0.18527 0.0
C389 C 0.45495 0.58212 0.14044 0.0
C390 C 0.44992 0.59242 0.17064 0.0
H391 H 0.49604 0.59382 0.13327 0.0
H392 H 0.36961 0.51129 0.31883 0.0
H393 H 0.36101 0.52816 0.26463 0.0
H394 H 0.52846 0.61679 0.28405 0.0
H395 H 0.53665 0.60033 0.33827 0.0
H396 H 0.48923 0.58492 0.2315 0.0
H397 H 0.35172 0.57229 0.22034 0.0
H398 H 0.31176 0.53664 0.16869 0.0
H399 H 0.31978 0.51994 0.11569 0.0
loop_
_geom_bond_atom_site_label_1
_geom_bond_atom_site_label_2
_geom_bond_distance
_geom_bond_site_symmetry_2
_ccdc_geom_bond_type
C0 O16 1.251 . S
C0 O18 1.254 1_554 S
N1 C2 1.334 1_445 S
N1 C6 1.307 . S
N1 Zn7 2.020 . S
C2 N1 1.334 1_665 S
C2 C3 1.379 . S
C2 H20 0.951 . S
C3 C2 1.379 . S
C3 C4 1.390 1_665 S
C3 H30 0.949 . S
C4 C3 1.390 1_445 S
C4 C5 1.357 . S
C5 C4 1.357 . S
C5 C6 1.370 . S
C5 H31 0.950 . S
C6 N1 1.307 . S
C6 C5 1.370 . S
C6 H24 0.948 . S
Zn7 N1 2.020 . S
Zn7 O16 2.039 1_445 S
Zn7 O22 2.034 1_455 S
Zn7 O26 2.025 . S
Zn7 O28 2.024 1_545 S
C8 O27 1.246 1_554 S
C8 O28 1.249 . S
N9 C10 1.307 1_455 S
N9 C11 1.336 . S
N9 Zn15 2.019 . S
C10 N9 1.307 1_655 S
C10 C14 1.371 . S
C10 H21 0.945 1_545 S
C11 N9 1.336 . S
C11 C12 1.379 . S
C11 H19 0.952 . S
C12 C11 1.379 . S
C12 C13 1.390 1_455 S
C12 H32 0.949 . S
C13 C12 1.390 1_655 S
C13 C14 1.357 . S
C14 C10 1.371 . S
C14 C13 1.357 . S
C14 H33 0.950 1_545 S
Zn15 N9 2.019 . S
Zn15 O18 2.025 1_445 S
Zn15 O23 2.024 1_455 S
Zn15 O25 2.039 . S
Zn15 O27 2.034 1_545 S
O16 C0 1.251 . S
O16 Zn7 2.039 1_665 S
C17 O22 1.247 . S
C17 O23 1.248 1_554 S
O18 C0 1.254 1_556 S
O18 Zn15 2.025 1_665 S
H19 C11 0.952 . S
H20 C2 0.951 . S
H21 C10 0.945 1_565 S
O22 Zn7 2.034 1_655 S
O22 C17 1.247 . S
O23 Zn15 2.024 1_655 S
O23 C17 1.248 1_556 S
H24 C6 0.948 . S
O25 Zn15 2.039 . S
O25 C29 1.251 1_556 S
O26 Zn7 2.025 . S
O26 C29 1.254 . S
O27 C8 1.246 1_556 S
O27 Zn15 2.034 1_565 S
O28 Zn7 2.024 1_565 S
O28 C8 1.249 . S
C29 O25 1.251 1_554 S
C29 O26 1.254 . S
H30 C3 0.949 . S
H31 C5 0.950 . S
H32 C12 0.949 . S
H33 C14 0.950 1_565 S
C34 O50 1.251 . S
C34 O52 1.254 . S
N35 C36 1.333 . S
N35 C40 1.307 . S
N35 Zn41 2.020 . S
C36 N35 1.333 . S
C36 C37 1.379 . S
C36 H54 0.952 . S
C37 C36 1.379 . S
C37 C38 1.390 . S
C37 H64 0.949 . S
C38 C37 1.390 . S
C38 C39 1.357 . S
C39 C38 1.357 . S
C39 C40 1.370 . S
C39 H65 0.950 . S
C40 N35 1.307 . S
C40 C39 1.370 . S
C40 H58 0.948 . S
Zn41 N35 2.020 . S
Zn41 O50 2.039 . S
Zn41 O56 2.034 . S
Zn41 O60 2.025 . S
Zn41 O62 2.024 . S
C42 O61 1.246 . S
C42 O62 1.249 . S
N43 C44 1.307 . S
N43 C45 1.333 . S
N43 Zn49 2.020 . S
C44 N43 1.307 . S
C44 C48 1.370 . S
C44 H55 0.948 . S
C45 N43 1.333 . S
C45 C46 1.379 . S
C45 H53 0.952 . S
C46 C45 1.379 . S
C46 C47 1.390 . S
C46 H66 0.949 . S
C47 C46 1.390 . S
C47 C48 1.357 . S
C48 C44 1.370 . S
C48 C47 1.357 . S
C48 H67 0.950 . S
Zn49 N43 2.020 . S
Zn49 O52 2.025 . S
Zn49 O57 2.024 . S
Zn49 O59 2.039 . S
Zn49 O61 2.034 . S
O50 C34 1.251 . S
O50 Zn41 2.039 . S
C51 O56 1.246 . S
C51 O57 1.249 . S
O52 C34 1.254 . S
O52 Zn49 2.025 . S
H53 C45 0.952 . S
H54 C36 0.952 . S
H55 C44 0.948 . S
O56 Zn41 2.034 . S
O56 C51 1.246 . S
O57 Zn49 2.024 . S
O57 C51 1.249 . S
H58 C40 0.948 . S
O59 Zn49 2.039 . S
O59 C63 1.251 . S
O60 Zn41 2.025 . S
O60 C63 1.254 . S
O61 C42 1.246 . S
O61 Zn49 2.034 . S
O62 Zn41 2.024 . S
O62 C42 1.249 . S
C63 O59 1.251 . S
C63 O60 1.254 . S
H64 C37 0.949 . S
H65 C39 0.950 . S
H66 C46 0.949 . S
H67 C48 0.950 . S
H68 C73 0.929 . S
H69 C78 0.931 . S
H70 C76 0.930 1_655 S
N71 N72 1.234 . S
N71 C75 1.453 1_655 S
N72 N71 1.234 . S
C73 H68 0.929 . S
C73 C74 1.373 . S
C73 C75 1.368 1_565 S
C74 C73 1.373 . S
C74 C78 1.397 . S
C75 N71 1.453 1_455 S
C75 C73 1.368 1_545 S
C75 C76 1.373 . S
C76 H70 0.930 1_455 S
C76 C75 1.373 . S
C76 C77 1.371 . S
C77 C76 1.371 . S
C77 C78 1.383 1_545 S
C78 H69 0.931 . S
C78 C74 1.397 . S
C78 C77 1.383 1_565 S
H79 C84 0.929 . S
H80 C89 0.931 . S
H81 C87 0.930 . S
N82 N83 1.234 . S
N82 C86 1.453 . S
N83 N82 1.234 . S
C84 H79 0.929 . S
C84 C85 1.373 . S
C84 C86 1.368 1_665 S
C85 C84 1.373 . S
C85 C89 1.397 . S
C86 N82 1.453 . S
C86 C84 1.368 1_445 S
C86 C87 1.373 . S
C87 H81 0.930 . S
C87 C86 1.373 . S
C87 C88 1.371 1_455 S
C88 C87 1.371 1_655 S
C88 C89 1.383 1_545 S
C89 H80 0.931 . S
C89 C85 1.397 . S
C89 C88 1.383 1_565 S
H90 C95 0.929 1_554 S
H91 C100 0.931 . S
H92 C98 0.930 . S
N93 N94 1.234 . S
N93 C97 1.453 . S
N94 N93 1.234 . S
C95 H90 0.929 1_556 S
C95 C96 1.373 . S
C95 C97 1.368 . S
C96 C95 1.373 . S
C96 C100 1.397 . S
C97 N93 1.453 . S
C97 C95 1.368 . S
C97 C98 1.373 . S
C98 H92 0.930 . S
C98 C97 1.373 . S
C98 C99 1.371 . S
C99 C98 1.371 . S
C99 C100 1.383 . S
C100 H91 0.931 . S
C100 C96 1.397 . S
C100 C99 1.383 . S
H101 C106 0.929 . S
H102 C111 0.931 . S
H103 C109 0.930 . S
N104 N105 1.234 . S
N104 C108 1.453 . S
N105 N104 1.234 . S
C106 H101 0.929 . S
C106 C107 1.373 . S
C106 C108 1.368 . S
C107 C106 1.373 . S
C107 C111 1.397 . S
C108 N104 1.453 . S
C108 C106 1.368 . S
C108 C109 1.373 . S
C109 H103 0.930 . S
C109 C108 1.373 . S
C109 C110 1.371 . S
C110 C109 1.371 . S
C110 C111 1.383 . S
C111 H102 0.931 . S
C111 C107 1.397 . S
C111 C110 1.383 . S
C112 C113 1.386 . S
C112 C114 1.383 . S
C112 H128 0.951 . S
C113 C112 1.386 . S
C113 C117 1.383 1_554 S
C114 C112 1.383 . S
C114 C115 1.402 . S
C114 H129 0.951 . S
C115 C114 1.402 . S
C115 C116 1.375 1_554 S
C115 C118 1.481 . S
C116 C115 1.375 1_556 S
C116 C117 1.367 . S
C116 H130 0.951 . S
C117 C113 1.383 1_556 S
C117 C116 1.367 . S
C117 H131 0.950 . S
C118 C115 1.481 . S
C118 C119 1.297 . S
C118 H132 0.949 1_554 S
C119 C118 1.297 . S
C119 C120 1.479 . S
C119 H133 0.950 . S
C120 C119 1.479 . S
C120 C121 1.375 . S
C120 C126 1.404 . S
C121 C120 1.375 . S
C121 C122 1.369 . S
C121 H134 0.950 . S
C122 C121 1.369 . S
C122 C123 1.392 . S
C122 H135 0.951 . S
C123 C122 1.392 . S
C123 C125 1.384 . S
H124 C126 0.949 1_556 S
C125 C123 1.384 . S
C125 C126 1.385 . S
C125 H127 0.950 . S
C126 C120 1.404 . S
C126 H124 0.949 1_554 S
C126 C125 1.385 . S
H127 C125 0.950 . S
H128 C112 0.951 . S
H129 C114 0.951 . S
H130 C116 0.951 . S
H131 C117 0.950 . S
H132 C118 0.949 1_556 S
H133 C119 0.950 . S
H134 C121 0.950 . S
H135 C122 0.951 . S
C136 C137 1.386 1_556 S
C136 C138 1.383 . S
C136 H152 0.951 . S
C137 C136 1.386 1_554 S
C137 C141 1.383 . S
C138 C136 1.383 . S
C138 C139 1.402 1_556 S
C138 H153 0.951 . S
C139 C138 1.402 1_554 S
C139 C140 1.375 . S
C139 C142 1.478 1_554 S
C140 C139 1.375 . S
C140 C141 1.367 . S
C140 H154 0.951 . S
C141 C137 1.383 . S
C141 C140 1.367 . S
C141 H155 0.950 . S
C142 C139 1.478 1_556 S
C142 C143 1.304 . S
C142 H156 0.945 1_556 S
C143 C142 1.304 . S
C143 C144 1.479 . S
C143 H157 0.950 . S
C144 C143 1.479 . S
C144 C145 1.375 . S
C144 C150 1.404 . S
C145 C144 1.375 . S
C145 C146 1.369 . S
C145 H158 0.950 . S
C146 C145 1.369 . S
C146 C147 1.392 . S
C146 H159 0.951 . S
C147 C146 1.392 . S
C147 C149 1.393 . S
H148 C150 0.949 1_554 S
C149 C147 1.393 . S
C149 C150 1.384 . S
C149 H151 0.943 1_556 S
C150 C144 1.404 . S
C150 H148 0.949 1_556 S
C150 C149 1.384 . S
H151 C149 0.943 1_554 S
H152 C136 0.951 . S
H153 C138 0.951 . S
H154 C140 0.951 . S
H155 C141 0.950 . S
H156 C142 0.945 1_554 S
H157 C143 0.950 . S
H158 C145 0.950 . S
H159 C146 0.951 . S
C160 C161 1.386 1_556 S
C160 C162 1.383 . S
C160 H176 0.951 . S
C161 C160 1.386 1_554 S
C161 C165 1.383 . S
C162 C160 1.383 . S
C162 C163 1.402 1_556 S
C162 H177 0.951 . S
C163 C162 1.402 1_554 S
C163 C164 1.375 . S
C163 C166 1.481 . S
C164 C163 1.375 . S
C164 C165 1.367 . S
C164 H178 0.951 . S
C165 C161 1.383 . S
C165 C164 1.367 . S
C165 H179 0.950 . S
C166 C163 1.481 . S
C166 C167 1.297 1_554 S
C166 H180 0.950 . S
C167 C166 1.297 1_556 S
C167 C168 1.481 . S
C167 H181 0.950 . S
C168 C167 1.481 . S
C168 C169 1.375 . S
C168 C174 1.403 1_556 S
C169 C168 1.375 . S
C169 C170 1.369 1_556 S
C169 H182 0.950 . S
C170 C169 1.369 1_554 S
C170 C171 1.392 . S
C170 H183 0.951 1_554 S
C171 C170 1.392 . S
C171 C173 1.384 . S
H172 C174 0.949 . S
C173 C171 1.384 . S
C173 C174 1.385 . S
C173 H175 0.950 . S
C174 C168 1.403 1_554 S
C174 H172 0.949 . S
C174 C173 1.385 . S
H175 C173 0.950 . S
H176 C160 0.951 . S
H177 C162 0.951 . S
H178 C164 0.951 . S
H179 C165 0.950 . S
H180 C166 0.950 . S
H181 C167 0.950 . S
H182 C169 0.950 . S
H183 C170 0.951 1_556 S
C184 C185 1.360 1_556 S
C184 C186 1.383 . S
C184 H200 0.951 . S
C185 C184 1.360 1_554 S
C185 C189 1.416 . S
C186 C184 1.383 . S
C186 C187 1.402 1_556 S
C186 H201 0.951 . S
C187 C186 1.402 1_554 S
C187 C188 1.375 . S
C187 C190 1.481 . S
C188 C187 1.375 . S
C188 C189 1.367 . S
C188 H202 0.951 . S
C189 C185 1.416 . S
C189 C188 1.367 . S
C189 H203 0.950 . S
C190 C187 1.481 . S
C190 C191 1.297 1_554 S
C190 H204 0.950 . S
C191 C190 1.297 1_556 S
C191 C192 1.479 . S
C191 H205 0.950 . S
C192 C191 1.479 . S
C192 C193 1.375 . S
C192 C198 1.404 1_556 S
C193 C192 1.375 . S
C193 C194 1.369 . S
C193 H206 0.950 . S
C194 C193 1.369 . S
C194 C195 1.392 . S
C194 H207 0.951 . S
C195 C194 1.392 . S
C195 C197 1.384 1_556 S
H196 C198 0.949 . S
C197 C195 1.384 1_554 S
C197 C198 1.385 . S
C197 H199 0.950 . S
C198 C192 1.404 1_554 S
C198 H196 0.949 . S
C198 C197 1.385 . S
H199 C197 0.950 . S
H200 C184 0.951 . S
H201 C186 0.951 . S
H202 C188 0.951 . S
H203 C189 0.950 . S
H204 C190 0.950 . S
H205 C191 0.950 . S
H206 C193 0.950 . S
H207 C194 0.951 . S
C208 C209 1.386 . S
C208 C210 1.383 . S
C208 H224 0.951 . S
C209 C208 1.386 . S
C209 C213 1.383 . S
C210 C208 1.383 . S
C210 C211 1.402 . S
C210 H225 0.951 . S
C211 C210 1.402 . S
C211 C212 1.375 . S
C211 C214 1.481 . S
C212 C211 1.375 . S
C212 C213 1.367 . S
C212 H226 0.951 . S
C213 C209 1.383 . S
C213 C212 1.367 . S
C213 H227 0.950 . S
C214 C211 1.481 . S
C214 C215 1.297 . S
C214 H228 0.950 . S
C215 C214 1.297 . S
C215 C216 1.479 . S
C215 H229 0.950 . S
C216 C215 1.479 . S
C216 C217 1.375 . S
C216 C222 1.404 . S
C217 C216 1.375 . S
C217 C218 1.369 . S
C217 H230 0.950 . S
C218 C217 1.369 . S
C218 C219 1.392 . S
C218 H231 0.951 . S
C219 C218 1.392 . S
C219 C221 1.384 . S
H220 C222 0.949 . S
C221 C219 1.384 . S
C221 C222 1.385 . S
C221 H223 0.950 . S
C222 C216 1.404 . S
C222 H220 0.949 . S
C222 C221 1.385 . S
H223 C221 0.950 . S
H224 C208 0.951 . S
H225 C210 0.951 . S
H226 C212 0.951 . S
H227 C213 0.950 . S
H228 C214 0.950 . S
H229 C215 0.950 . S
H230 C217 0.950 . S
H231 C218 0.951 . S
C232 C233 1.386 . S
C232 C234 1.383 . S
C232 H248 0.951 . S
C233 C232 1.386 . S
C233 C237 1.383 . S
C234 C232 1.383 . S
C234 C235 1.402 . S
C234 H249 0.951 . S
C235 C234 1.402 . S
C235 C236 1.375 . S
C235 C238 1.481 . S
C236 C235 1.375 . S
C236 C237 1.367 . S
C236 H250 0.951 . S
C237 C233 1.383 . S
C237 C236 1.367 . S
C237 H251 0.950 . S
C238 C235 1.481 . S
C238 C239 1.297 . S
C238 H252 0.950 . S
C239 C238 1.297 . S
C239 C240 1.479 . S
C239 H253 0.950 . S
C240 C239 1.479 . S
C240 C241 1.375 . S
C240 C246 1.404 . S
C241 C240 1.375 . S
C241 C242 1.369 . S
C241 H254 0.950 . S
C242 C241 1.369 . S
C242 C243 1.392 . S
C242 H255 0.951 . S
C243 C242 1.392 . S
C243 C245 1.384 . S
H244 C246 0.949 . S
C245 C243 1.384 . S
C245 C246 1.385 . S
C245 H247 0.950 . S
C246 C240 1.404 . S
C246 H244 0.949 . S
C246 C245 1.385 . S
H247 C245 0.950 . S
H248 C232 0.951 . S
H249 C234 0.951 . S
H250 C236 0.951 . S
H251 C237 0.950 . S
H252 C238 0.950 . S
H253 C239 0.950 . S
H254 C241 0.950 . S
H255 C242 0.951 . S
C256 C257 1.386 . S
C256 C258 1.383 . S
C256 H272 0.951 . S
C257 C256 1.386 . S
C257 C261 1.383 . S
C258 C256 1.383 . S
C258 C259 1.402 . S
C258 H273 0.951 . S
C259 C258 1.402 . S
C259 C260 1.375 . S
C259 C262 1.481 . S
C260 C259 1.375 . S
C260 C261 1.367 . S
C260 H274 0.951 . S
C261 C257 1.383 . S
C261 C260 1.367 . S
C261 H275 0.950 . S
C262 C259 1.481 . S
C262 C263 1.297 . S
C262 H276 0.950 . S
C263 C262 1.297 . S
C263 C264 1.479 . S
C263 H277 0.950 . S
C264 C263 1.479 . S
C264 C265 1.375 . S
C264 C270 1.404 . S
C265 C264 1.375 . S
C265 C266 1.369 . S
C265 H278 0.950 . S
C266 C265 1.369 . S
C266 C267 1.392 . S
C266 H279 0.951 . S
C267 C266 1.392 . S
C267 C269 1.384 . S
H268 C270 0.949 . S
C269 C267 1.384 . S
C269 C270 1.385 . S
C269 H271 0.950 . S
C270 C264 1.404 . S
C270 H268 0.949 . S
C270 C269 1.385 . S
H271 C269 0.950 . S
H272 C256 0.951 . S
H273 C258 0.951 . S
H274 C260 0.951 . S
H275 C261 0.950 . S
H276 C262 0.950 . S
H277 C263 0.950 . S
H278 C265 0.950 . S
H279 C266 0.951 . S
C280 C281 1.386 . S
C280 C282 1.383 . S
C280 H296 0.951 . S
C281 C280 1.386 . S
C281 C285 1.383 . S
C282 C280 1.383 . S
C282 C283 1.402 . S
C282 H297 0.951 . S
C283 C282 1.402 . S
C283 C284 1.375 . S
C283 C286 1.481 . S
C284 C283 1.375 . S
C284 C285 1.367 . S
C284 H298 0.951 . S
C285 C281 1.383 . S
C285 C284 1.367 . S
C285 H299 0.950 . S
C286 C283 1.481 . S
C286 C287 1.297 . S
C286 H300 0.950 . S
C287 C286 1.297 . S
C287 C288 1.479 . S
C287 H301 0.950 . S
C288 C287 1.479 . S
C288 C289 1.375 . S
C288 C294 1.404 . S
C289 C288 1.375 . S
C289 C290 1.369 . S
C289 H302 0.950 . S
C290 C289 1.369 . S
C290 C291 1.392 . S
C290 H303 0.951 . S
C291 C290 1.392 . S
C291 C293 1.384 . S
H292 C294 0.949 . S
C293 C291 1.384 . S
C293 C294 1.385 . S
C293 H295 0.950 . S
C294 C288 1.404 . S
C294 H292 0.949 . S
C294 C293 1.385 . S
H295 C293 0.950 . S
H296 C280 0.951 . S
H297 C282 0.951 . S
H298 C284 0.951 . S
H299 C285 0.950 . S
H300 C286 0.950 . S
H301 C287 0.950 . S
H302 C289 0.950 . S
H303 C290 0.951 . S
C304 C305 1.386 . S
C304 C306 1.383 . S
C304 H320 0.951 . S
C305 C304 1.386 . S
C305 C309 1.383 1_545 S
C306 C304 1.383 . S
C306 C307 1.387 1_545 S
C306 H321 0.951 . S
C307 C306 1.387 1_565 S
C307 C308 1.388 . S
C307 C310 1.483 . S
C308 C307 1.388 . S
C308 C309 1.367 . S
C308 H322 0.951 . S
C309 C305 1.383 1_565 S
C309 C308 1.367 . S
C309 H323 0.950 . S
C310 C307 1.483 . S
C310 C311 1.297 1_565 S
C310 H324 0.950 . S
C311 C310 1.297 1_545 S
C311 C312 1.479 . S
C311 H325 0.950 . S
C312 C311 1.479 . S
C312 C313 1.375 . S
C312 C318 1.409 1_545 S
C313 C312 1.375 . S
C313 C314 1.369 . S
C313 H326 0.950 . S
C314 C313 1.369 . S
C314 C315 1.392 . S
C314 H327 0.951 . S
C315 C314 1.392 . S
C315 C317 1.384 1_545 S
H316 C318 0.945 1_655 S
C317 C315 1.384 1_565 S
C317 C318 1.384 . S
C317 H319 0.955 . S
C318 C312 1.409 1_565 S
C318 H316 0.945 1_455 S
C318 C317 1.384 . S
H319 C317 0.955 . S
H320 C304 0.951 . S
H321 C306 0.951 . S
H322 C308 0.951 . S
H323 C309 0.950 . S
H324 C310 0.950 . S
H325 C311 0.950 . S
H326 C313 0.950 . S
H327 C314 0.951 . S
C328 C329 1.386 1_455 S
C328 C330 1.383 . S
C328 H344 0.951 . S
C329 C328 1.386 1_655 S
C329 C333 1.383 1_545 S
C330 C328 1.383 . S
C330 C331 1.402 1_445 S
C330 H345 0.951 . S
C331 C330 1.402 1_665 S
C331 C332 1.375 . S
C331 C334 1.481 . S
C332 C331 1.375 . S
C332 C333 1.367 . S
C332 H346 0.951 . S
C333 C329 1.383 1_565 S
C333 C332 1.367 . S
C333 H347 0.950 . S
C334 C331 1.481 . S
C334 C335 1.297 1_665 S
C334 H348 0.950 . S
C335 C334 1.297 1_445 S
C335 C336 1.479 . S
C335 H349 0.950 . S
C336 C335 1.479 . S
C336 C337 1.375 . S
C336 C342 1.404 1_445 S
C337 C336 1.375 . S
C337 C338 1.369 . S
C337 H350 0.950 . S
C338 C337 1.369 . S
C338 C339 1.392 . S
C338 H351 0.951 . S
C339 C338 1.392 . S
C339 C341 1.384 1_445 S
H340 C342 0.949 . S
C341 C339 1.384 1_665 S
C341 C342 1.385 . S
C341 H343 0.950 . S
C342 C336 1.404 1_665 S
C342 H340 0.949 . S
C342 C341 1.385 . S
H343 C341 0.950 . S
H344 C328 0.951 . S
H345 C330 0.951 . S
H346 C332 0.951 . S
H347 C333 0.950 . S
H348 C334 0.950 . S
H349 C335 0.950 . S
H350 C337 0.950 . S
H351 C338 0.951 . S
C352 C353 1.386 . S
C352 C354 1.383 . S
C352 H368 0.951 . S
C353 C352 1.386 . S
C353 C357 1.383 . S
C354 C352 1.383 . S
C354 C355 1.402 . S
C354 H369 0.951 . S
C355 C354 1.402 . S
C355 C356 1.375 . S
C355 C358 1.481 . S
C356 C355 1.375 . S
C356 C357 1.367 . S
C356 H370 0.951 . S
C357 C353 1.383 . S
C357 C356 1.367 . S
C357 H371 0.950 . S
C358 C355 1.481 . S
C358 C359 1.297 . S
C358 H372 0.950 . S
C359 C358 1.297 . S
C359 C360 1.479 . S
C359 H373 0.950 . S
C360 C359 1.479 . S
C360 C361 1.375 . S
C360 C366 1.404 . S
C361 C360 1.375 . S
C361 C362 1.369 . S
C361 H374 0.950 . S
C362 C361 1.369 . S
C362 C363 1.392 . S
C362 H375 0.951 . S
C363 C362 1.392 . S
C363 C365 1.384 . S
H364 C366 0.949 . S
C365 C363 1.384 . S
C365 C366 1.385 . S
C365 H367 0.950 . S
C366 C360 1.404 . S
C366 H364 0.949 . S
C366 C365 1.385 . S
H367 C365 0.950 . S
H368 C352 0.951 . S
H369 C354 0.951 . S
H370 C356 0.951 . S
H371 C357 0.950 . S
H372 C358 0.950 . S
H373 C359 0.950 . S
H374 C361 0.950 . S
H375 C362 0.951 . S
C376 C377 1.386 . S
C376 C378 1.383 . S
C376 H392 0.951 . S
C377 C376 1.386 . S
C377 C381 1.383 . S
C378 C376 1.383 . S
C378 C379 1.402 . S
C378 H393 0.951 . S
C379 C378 1.402 . S
C379 C380 1.375 . S
C379 C382 1.481 . S
C380 C379 1.375 . S
C380 C381 1.367 . S
C380 H394 0.951 . S
C381 C377 1.383 . S
C381 C380 1.367 . S
C381 H395 0.950 . S
C382 C379 1.481 . S
C382 C383 1.297 . S
C382 H396 0.950 . S
C383 C382 1.297 . S
C383 C384 1.479 . S
C383 H397 0.950 . S
C384 C383 1.479 . S
C384 C385 1.375 . S
C384 C390 1.404 . S
C385 C384 1.375 . S
C385 C386 1.369 . S
C385 H398 0.950 . S
C386 C385 1.369 . S
C386 C387 1.392 . S
C386 H399 0.951 . S
C387 C386 1.392 . S
C387 C389 1.384 . S
H388 C390 0.949 . S
C389 C387 1.384 . S
C389 C390 1.385 . S
C389 H391 0.950 . S
C390 C384 1.404 . S
C390 H388 0.949 . S
C390 C389 1.385 . S
H391 C389 0.950 . S
H392 C376 0.951 . S
H393 C378 0.951 . S
H394 C380 0.951 . S
H395 C381 0.950 . S
H396 C382 0.950 . S
H397 C383 0.950 . S
H398 C385 0.950 . S
H399 C386 0.951 . S
C123 C107 1.463 . S
C113 C29 1.469 . S
C137 C8 1.364 . S
C147 N94 1.269 . S
C161 C0 1.386 . S
C171 N105 1.381 . S
C185 C17 1.469 . S
C195 C96 1.443 . S
C209 C63 1.471 . S
C219 C85 1.428 . S
C233 C42 1.366 . S
C243 N72 1.281 . S
C267 N83 1.294 . S
C257 C34 1.378 . S
C291 C74 1.458 . S
C281 C51 1.476 . S
C305 C4 1.513 . S
C315 C77 1.510 . S
C329 C13 1.500 . S
C339 C88 1.486 1_455 S
C363 C99 1.495 . S
C353 C38 1.515 . S
C377 C47 1.509 . S
C387 C110 1.498 . S
