# Generated by pormake.
# Topology pyr, (3,6)-cn, num edge types: 1
# Building blocks:
#     Node 0, Type 0, BuildingBlock: BETDIP_clean_linker_0, # of connection points: 3
#     Node 1, Type 0, BuildingBlock: BETDIP_clean_linker_0, # of connection points: 3
#     Node 2, Type 0, BuildingBlock: BETDIP_clean_linker_0, # of connection points: 3
#     Node 3, Type 0, BuildingBlock: BETDIP_clean_linker_0, # of connection points: 3
#     Node 4, Type 0, BuildingBlock: BETDIP_clean_linker_0, # of connection points: 3
#     Node 5, Type 0, BuildingBlock: BETDIP_clean_linker_0, # of connection points: 3
#     Node 6, Type 0, BuildingBlock: BETDIP_clean_linker_0, # of connection points: 3
#     Node 7, Type 0, BuildingBlock: BETDIP_clean_linker_0, # of connection points: 3
#     Node 8, Type 1, BuildingBlock: MIDCAF_clean_sbu_0, # of connection points: 6
#     Node 9, Type 1, BuildingBlock: MIDCAF_clean_sbu_0, # of connection points: 6
#     Node 10, Type 1, BuildingBlock: MIDCAF_clean_sbu_0, # of connection points: 6
#     Node 11, Type 1, BuildingBlock: MIDCAF_clean_sbu_0, # of connection points: 6
#     Edge 12, Type (0, 1), BuildingBlock: XIVTED_clean_linker_0, # of connection points: 2
#     Edge 13, Type (0, 1), BuildingBlock: XIVTED_clean_linker_0, # of connection points: 2
#     Edge 14, Type (0, 1), BuildingBlock: XIVTED_clean_linker_0, # of connection points: 2
#     Edge 15, Type (0, 1), BuildingBlock: XIVTED_clean_linker_0, # of connection points: 2
#     Edge 16, Type (0, 1), BuildingBlock: XIVTED_clean_linker_0, # of connection points: 2
#     Edge 17, Type (0, 1), BuildingBlock: XIVTED_clean_linker_0, # of connection points: 2
#     Edge 18, Type (0, 1), BuildingBlock: XIVTED_clean_linker_0, # of connection points: 2
#     Edge 19, Type (0, 1), BuildingBlock: XIVTED_clean_linker_0, # of connection points: 2
#     Edge 20, Type (0, 1), BuildingBlock: XIVTED_clean_linker_0, # of connection points: 2
#     Edge 21, Type (0, 1), BuildingBlock: XIVTED_clean_linker_0, # of connection points: 2
#     Edge 22, Type (0, 1), BuildingBlock: XIVTED_clean_linker_0, # of connection points: 2
#     Edge 23, Type (0, 1), BuildingBlock: XIVTED_clean_linker_0, # of connection points: 2
#     Edge 24, Type (0, 1), BuildingBlock: XIVTED_clean_linker_0, # of connection points: 2
#     Edge 25, Type (0, 1), BuildingBlock: XIVTED_clean_linker_0, # of connection points: 2
#     Edge 26, Type (0, 1), BuildingBlock: XIVTED_clean_linker_0, # of connection points: 2
#     Edge 27, Type (0, 1), BuildingBlock: XIVTED_clean_linker_0, # of connection points: 2
#     Edge 28, Type (0, 1), BuildingBlock: XIVTED_clean_linker_0, # of connection points: 2
#     Edge 29, Type (0, 1), BuildingBlock: XIVTED_clean_linker_0, # of connection points: 2
#     Edge 30, Type (0, 1), BuildingBlock: XIVTED_clean_linker_0, # of connection points: 2
#     Edge 31, Type (0, 1), BuildingBlock: XIVTED_clean_linker_0, # of connection points: 2
#     Edge 32, Type (0, 1), BuildingBlock: XIVTED_clean_linker_0, # of connection points: 2
#     Edge 33, Type (0, 1), BuildingBlock: XIVTED_clean_linker_0, # of connection points: 2
#     Edge 34, Type (0, 1), BuildingBlock: XIVTED_clean_linker_0, # of connection points: 2
#     Edge 35, Type (0, 1), BuildingBlock: XIVTED_clean_linker_0, # of connection points: 2
# Relax obj value: 0.088
# Max RMSD: 0.178
# Mean RMSD: 0.136
data_MOF--net-pyr--node1-MIDCAF_clean_sbu_0--node2-BETDIP_clean_linker_0--edge1-XIVTED_clean_linker_0
_symmetry_space_group_name_H-M    P1
_symmetry_Int_Tables_number       1
_symmetry_cell_setting            triclinic
loop_
_symmetry_equiv_pos_as_xyz
'x, y, z'
_cell_length_a     35.490453
_cell_length_b     34.787498
_cell_length_c     36.723419
_cell_angle_alpha  92.983973
_cell_angle_beta   86.138341
_cell_angle_gamma 96.429656
loop_
_atom_site_label
_atom_site_type_symbol
_atom_site_fract_x
_atom_site_fract_y
_atom_site_fract_z
_atom_type_partial_charge
H0 H 0.19562 0.23595 0.2761 0.0
H1 H 0.27684 0.23635 0.18401 0.0
H2 H 0.28145 0.15669 0.268 0.0
H3 H 0.25942 0.29271 0.17339 0.0
C4 C 0.23119 0.29483 0.18603 0.0
C5 C 0.22056 0.22508 0.26248 0.0
C6 C 0.23646 0.19406 0.27669 0.0
C7 C 0.2355 0.24149 0.22973 0.0
C8 C 0.2661 0.22569 0.21023 0.0
C9 C 0.28249 0.19486 0.22387 0.0
C10 C 0.26839 0.18021 0.25758 0.0
N11 N 0.21739 0.27203 0.21627 0.0
H12 H 0.29854 0.85032 0.77621 0.0
H13 H 0.28372 0.75432 0.69818 0.0
H14 H 0.37666 0.76401 0.76888 0.0
H15 H 0.22441 0.77066 0.69807 0.0
C16 C 0.22644 0.80184 0.70297 0.0
C17 C 0.30756 0.82347 0.76418 0.0
C18 C 0.33964 0.80899 0.77645 0.0
C19 C 0.2868 0.80384 0.73649 0.0
C20 C 0.29887 0.76928 0.72023 0.0
C21 C 0.33119 0.7543 0.73186 0.0
C22 C 0.35104 0.77428 0.76039 0.0
N23 N 0.25533 0.82096 0.72457 0.0
H24 H 0.78758 0.35141 0.77713 0.0
H25 H 0.69716 0.25775 0.78352 0.0
H26 H 0.78122 0.27044 0.86257 0.0
H27 H 0.68202 0.275 0.73052 0.0
C28 C 0.69599 0.30351 0.7246 0.0
C29 C 0.7744 0.32545 0.78989 0.0
C30 C 0.78824 0.31389 0.82213 0.0
C31 C 0.74215 0.30494 0.77495 0.0
C32 C 0.72331 0.27264 0.79297 0.0
C33 C 0.73707 0.26078 0.82507 0.0
C34 C 0.77025 0.2805 0.83834 0.0
N35 N 0.72809 0.31979 0.74367 0.0
H36 H 0.73854 0.70129 0.27426 0.0
H37 H 0.83422 0.78771 0.28233 0.0
H38 H 0.74748 0.77846 0.36947 0.0
H39 H 0.85014 0.77083 0.22591 0.0
C40 C 0.83608 0.74214 0.21985 0.0
C41 C 0.75318 0.72563 0.28907 0.0
C42 C 0.73878 0.73752 0.32392 0.0
C43 C 0.78715 0.7439 0.27346 0.0
C44 C 0.80691 0.77479 0.29298 0.0
C45 C 0.7926 0.7878 0.32756 0.0
C46 C 0.75827 0.76921 0.34254 0.0
N47 N 0.80191 0.72806 0.23965 0.0
H48 H 0.86047 0.89963 0.94924 0.0
H49 H 0.95395 0.88344 0.87156 0.0
H50 H 0.87913 0.96931 0.85481 0.0
H51 H 0.98015 0.87377 0.92882 0.0
C52 C 0.95718 0.85321 0.93937 0.0
C53 C 0.8767 0.90762 0.92418 0.0
C54 C 0.866 0.93705 0.9035 0.0
C55 C 0.90861 0.88871 0.91325 0.0
C56 C 0.9295 0.89834 0.88047 0.0
C57 C 0.91903 0.92738 0.85919 0.0
C58 C 0.88721 0.94665 0.87091 0.0
N59 N 0.91893 0.85995 0.93561 0.0
H60 H 0.65052 0.09115 0.35401 0.0
H61 H 0.65904 0.17103 0.4471 0.0
H62 H 0.57788 0.18253 0.36736 0.0
H63 H 0.71087 0.08214 0.36639 0.0
C64 C 0.71114 0.08513 0.39595 0.0
C65 C 0.64162 0.11635 0.3693 0.0
C66 C 0.6124 0.13542 0.35661 0.0
C67 C 0.65888 0.12954 0.40172 0.0
C68 C 0.64629 0.16157 0.42169 0.0
C69 C 0.61712 0.18095 0.40963 0.0
C70 C 0.60047 0.16782 0.37687 0.0
N71 N 0.68782 0.11058 0.416 0.0
H72 H 0.38722 0.56197 0.15711 0.0
H73 H 0.46613 0.66406 0.14261 0.0
H74 H 0.37394 0.63898 0.07199 0.0
H75 H 0.47233 0.65781 0.20381 0.0
C76 C 0.47101 0.6267 0.20628 0.0
C77 C 0.39663 0.58806 0.14265 0.0
C78 C 0.37684 0.5975 0.11314 0.0
C79 C 0.42853 0.61207 0.15375 0.0
C80 C 0.44112 0.64562 0.13469 0.0
C81 C 0.42141 0.65554 0.10519 0.0
C82 C 0.3893 0.63138 0.09465 0.0
N83 N 0.44759 0.60109 0.18371 0.0
H84 H 0.05943 0.36502 0.59917 0.0
H85 H 0.12819 0.46901 0.63199 0.0
H86 H 0.17145 0.3913 0.54839 0.0
H87 H 0.06421 0.48815 0.64435 0.0
C88 C 0.05528 0.46282 0.6602 0.0
C89 C 0.08541 0.38443 0.59573 0.0
C90 C 0.11463 0.3746 0.5705 0.0
C91 C 0.0898 0.41849 0.6176 0.0
C92 C 0.12404 0.44308 0.61445 0.0
C93 C 0.1535 0.43361 0.58929 0.0
C94 C 0.14857 0.39928 0.56736 0.0
N95 N 0.06073 0.42551 0.64476 0.0
Zn96 Zn 0.98154 0.05595 0.56841 0.0
Zn97 Zn 0.05938 0.9643 0.48539 0.0
Zn98 Zn 0.02153 0.01212 0.52787 0.0
C99 C 0.09449 0.03861 0.47257 0.0
C100 C 0.98563 0.95441 0.46376 0.0
O101 O 0.02414 0.99663 0.58613 0.0
O102 O 0.99511 0.04245 0.61664 0.0
C103 C 0.03457 0.10479 0.52912 0.0
O104 O 0.06717 0.04748 0.49536 0.0
O105 O 0.09881 0.00351 0.46488 0.0
O106 O 0.01778 0.94387 0.45391 0.0
O107 O 0.98186 0.97888 0.49099 0.0
O108 O 0.00476 0.1056 0.5497 0.0
O109 O 0.04694 0.07226 0.51884 0.0
O110 O 0.96147 0.00674 0.51058 0.0
O111 O 0.92975 0.03901 0.55354 0.0
C112 C 0.93008 0.01879 0.52403 0.0
O113 O 0.04645 0.97264 0.56385 0.0
O114 O 0.07261 0.93171 0.52428 0.0
C115 C 0.01288 0.01304 0.61666 0.0
C116 C 0.0648 0.94279 0.55693 0.0
Zn117 Zn 0.50097 0.0469 0.99497 0.0
Zn118 Zn 0.57301 0.97006 0.06678 0.0
Zn119 Zn 0.53351 0.00751 0.02908 0.0
C120 C 0.62566 0.00669 0.01904 0.0
C121 C 0.52267 0.9149 0.03266 0.0
O122 O 0.49813 0.04306 0.06826 0.0
O123 O 0.45743 0.05537 0.02893 0.0
C124 C 0.57101 0.07794 0.98159 0.0
O125 O 0.59467 0.01734 0.00833 0.0
O126 O 0.62465 0.98628 0.04652 0.0
O127 O 0.55061 0.91773 0.05246 0.0
O128 O 0.51107 0.9455 0.02078 0.0
O129 O 0.53946 0.09147 0.98587 0.0
O130 O 0.57424 0.04394 0.99262 0.0
O131 O 0.49609 0.96676 0.99383 0.0
O132 O 0.49076 0.00996 0.95339 0.0
C133 C 0.48612 0.97512 0.96225 0.0
O134 O 0.52633 0.02907 0.08802 0.0
O135 O 0.55942 0.99054 0.1161 0.0
C136 C 0.4665 0.05559 0.06152 0.0
C137 C 0.53924 0.01823 0.11752 0.0
Zn138 Zn 0.55483 0.55562 0.56861 0.0
Zn139 Zn 0.46755 0.46352 0.48531 0.0
Zn140 Zn 0.51022 0.50801 0.52615 0.0
C141 C 0.5095 0.41407 0.5156 0.0
C142 C 0.50889 0.5124 0.43809 0.0
O143 O 0.47385 0.53873 0.56792 0.0
O144 O 0.51424 0.57318 0.60347 0.0
C145 C 0.57484 0.47984 0.57356 0.0
O146 O 0.52563 0.44712 0.52735 0.0
O147 O 0.47946 0.41259 0.49888 0.0
O148 O 0.48775 0.48079 0.43686 0.0
O149 O 0.51937 0.52759 0.46908 0.0
O150 O 0.58486 0.51468 0.58321 0.0
O151 O 0.54703 0.47144 0.55264 0.0
O152 O 0.54465 0.5504 0.4915 0.0
O153 O 0.57682 0.59091 0.52969 0.0
C154 C 0.56832 0.58059 0.49753 0.0
O155 O 0.45041 0.51379 0.54583 0.0
O156 O 0.41838 0.48063 0.50271 0.0
C157 C 0.48048 0.56238 0.59562 0.0
C158 C 0.41877 0.50202 0.53149 0.0
Zn159 Zn 0.09131 0.56535 0.97514 0.0
Zn160 Zn 0.99272 0.47583 0.05167 0.0
Zn161 Zn 0.04148 0.52108 0.01128 0.0
C162 C 0.06348 0.46229 0.07188 0.0
C163 C 0.98162 0.45336 0.97834 0.0
O164 O 0.02912 0.58238 0.02112 0.0
O165 O 0.07998 0.61628 0.99648 0.0
C166 C 0.13339 0.52384 0.01406 0.0
O167 O 0.0732 0.48651 0.04651 0.0
O168 O 0.02883 0.45354 0.08119 0.0
O169 O 0.97105 0.44366 0.01041 0.0
O170 O 0.00754 0.48191 0.97306 0.0
O171 O 0.13823 0.54559 0.98737 0.0
O172 O 0.09954 0.51286 0.02738 0.0
O173 O 0.03407 0.50621 0.95251 0.0
O174 O 0.07317 0.55212 0.92617 0.0
C175 C 0.04833 0.52339 0.92367 0.0
O176 O 0.00444 0.55844 0.04461 0.0
O177 O 0.9632 0.5169 0.07431 0.0
C178 C 0.04788 0.61526 0.01358 0.0
C179 C 0.97526 0.55136 0.06705 0.0
H180 H 0.23283 0.11685 0.29138 0.0
H181 H 0.07766 0.10937 0.45169 0.0
H182 H 0.19707 0.2249 0.3374 0.0
H183 H 0.16652 0.03386 0.44417 0.0
H184 H 0.11572 0.152 0.40858 0.0
H185 H 0.20293 0.08442 0.34433 0.0
C186 C 0.2194 0.13416 0.31276 0.0
C187 C 0.21831 0.17416 0.30972 0.0
C188 C 0.12716 0.12657 0.41715 0.0
C189 C 0.18216 0.1361 0.37024 0.0
C190 C 0.10572 0.10255 0.44216 0.0
C191 C 0.1192 0.06838 0.45212 0.0
C192 C 0.16165 0.11554 0.40125 0.0
C193 C 0.15498 0.05989 0.43728 0.0
C194 C 0.20197 0.11533 0.34299 0.0
C195 C 0.19853 0.19406 0.33806 0.0
N196 N 0.17464 0.08292 0.41221 0.0
N197 N 0.1809 0.17476 0.36697 0.0
H198 H 0.36417 0.886 0.77788 0.0
H199 H 0.45217 0.90009 0.97289 0.0
H200 H 0.36758 0.78346 0.83818 0.0
H201 H 0.47947 0.98417 0.89028 0.0
H202 H 0.41796 0.8568 0.92776 0.0
H203 H 0.40175 0.92347 0.82321 0.0
C204 C 0.37268 0.87141 0.80085 0.0
C205 C 0.36258 0.8316 0.80434 0.0
C206 C 0.43184 0.88464 0.91964 0.0
C207 C 0.406 0.87441 0.85656 0.0
C208 C 0.45152 0.90919 0.94533 0.0
C209 C 0.46858 0.94592 0.93562 0.0
C210 C 0.429 0.89729 0.88422 0.0
C211 C 0.4664 0.95642 0.89942 0.0
C212 C 0.39442 0.89275 0.82664 0.0
C213 C 0.37493 0.81411 0.83445 0.0
N214 N 0.44679 0.93251 0.87535 0.0
N215 N 0.39582 0.83568 0.85963 0.0
H216 H 0.63071 0.28453 0.68953 0.0
H217 H 0.64834 0.48631 0.59095 0.0
H218 H 0.72473 0.37388 0.69783 0.0
H219 H 0.54719 0.40515 0.59045 0.0
H220 H 0.67971 0.44066 0.6231 0.0
H221 H 0.60243 0.32377 0.64708 0.0
C222 C 0.64549 0.31228 0.68221 0.0
C223 C 0.67994 0.32609 0.69741 0.0
C224 C 0.65079 0.4325 0.6157 0.0
C225 C 0.64796 0.37097 0.64893 0.0
C226 C 0.63287 0.45856 0.59723 0.0
C227 C 0.59508 0.44951 0.58801 0.0
C228 C 0.63076 0.39707 0.6255 0.0
C229 C 0.57648 0.41307 0.59668 0.0
C230 C 0.62935 0.33463 0.65805 0.0
C231 C 0.698 0.36215 0.68703 0.0
N232 N 0.5944 0.38826 0.6153 0.0
N233 N 0.68174 0.38332 0.66358 0.0
H234 H 0.80765 0.67097 0.19178 0.0
H235 H 0.0044 0.62479 0.08923 0.0
H236 H 0.90699 0.75466 0.18651 0.0
H237 H 0.89997 0.54869 0.08606 0.0
H238 H 0.96947 0.67443 0.12202 0.0
H239 H 0.84098 0.62719 0.15062 0.0
C240 C 0.83648 0.68023 0.18179 0.0
C241 C 0.85476 0.71638 0.19274 0.0
C242 C 0.95416 0.64701 0.11377 0.0
C243 C 0.89331 0.66618 0.14566 0.0
C244 C 0.97403 0.61887 0.09479 0.0
C245 C 0.95493 0.58286 0.08457 0.0
C246 C 0.91507 0.63871 0.12292 0.0
C247 C 0.9158 0.57609 0.09351 0.0
C248 C 0.85554 0.6552 0.1582 0.0
C249 C 0.89202 0.72693 0.17871 0.0
N250 N 0.89723 0.60365 0.11225 0.0
N251 N 0.91026 0.70179 0.1561 0.0
H252 H 0.28052 0.17205 0.15201 0.0
H253 H 0.48183 0.08962 0.12966 0.0
H254 H 0.34973 0.17171 0.24414 0.0
H255 H 0.39117 0.05891 0.05772 0.0
H256 H 0.43776 0.12299 0.17171 0.0
H257 H 0.32559 0.13611 0.11527 0.0
C258 C 0.30552 0.1648 0.16439 0.0
C259 C 0.31148 0.17511 0.20112 0.0
C260 C 0.42757 0.10847 0.14688 0.0
C261 C 0.36318 0.13323 0.15923 0.0
C262 C 0.45263 0.08912 0.12315 0.0
C263 C 0.44031 0.07144 0.09019 0.0
C264 C 0.39018 0.11039 0.13715 0.0
C265 C 0.40219 0.07248 0.0826 0.0
C266 C 0.33107 0.14387 0.14351 0.0
C267 C 0.34406 0.1642 0.21591 0.0
N268 N 0.37873 0.09186 0.10563 0.0
N269 N 0.36886 0.14394 0.19485 0.0
H270 H 0.21879 0.88033 0.70969 0.0
H271 H 0.0658 0.86536 0.55906 0.0
H272 H 0.16954 0.77266 0.66056 0.0
H273 H 0.09759 0.97195 0.62 0.0
H274 H 0.1005 0.83083 0.59954 0.0
H275 H 0.17302 0.91454 0.6802 0.0
C276 C 0.19822 0.86385 0.6929 0.0
C277 C 0.19811 0.82356 0.68731 0.0
C278 C 0.09956 0.86166 0.60458 0.0
C279 C 0.14574 0.86252 0.65354 0.0
C280 C 0.07959 0.88137 0.58151 0.0
C281 C 0.07889 0.92154 0.58618 0.0
C282 C 0.11986 0.8823 0.63223 0.0
C283 C 0.09728 0.9409 0.61564 0.0
C284 C 0.17201 0.8834 0.67617 0.0
C285 C 0.17074 0.80373 0.66542 0.0
N286 N 0.1176 0.92119 0.63725 0.0
N287 N 0.14592 0.82339 0.64917 0.0
H288 H 0.79217 0.32852 0.89551 0.0
H289 H 0.96265 0.48228 0.91436 0.0
H290 H 0.8541 0.35521 0.79292 0.0
H291 H 0.95262 0.37811 0.97461 0.0
H292 H 0.91937 0.44889 0.87016 0.0
H293 H 0.84472 0.36153 0.92784 0.0
C294 C 0.81694 0.34098 0.87963 0.0
C295 C 0.81915 0.33772 0.84126 0.0
C296 C 0.92763 0.43326 0.89256 0.0
C297 C 0.87888 0.3772 0.87863 0.0
C298 C 0.95256 0.45206 0.9175 0.0
C299 C 0.96166 0.43271 0.94784 0.0
C300 C 0.91102 0.39553 0.899 0.0
C301 C 0.94631 0.39411 0.95165 0.0
C302 C 0.84678 0.36006 0.89823 0.0
C303 C 0.85133 0.35659 0.82247 0.0
N304 N 0.92123 0.37705 0.92794 0.0
N305 N 0.88018 0.37564 0.8414 0.0
H306 H 0.68059 0.76418 0.36802 0.0
H307 H 0.59615 0.55331 0.43118 0.0
H308 H 0.72208 0.65852 0.32313 0.0
H309 H 0.5827 0.65881 0.49528 0.0
H310 H 0.63103 0.59155 0.38288 0.0
H311 H 0.63307 0.72571 0.40622 0.0
C312 C 0.67953 0.73291 0.36592 0.0
C313 C 0.70583 0.71465 0.34267 0.0
C314 C 0.62009 0.60632 0.40736 0.0
C315 C 0.65122 0.67048 0.38608 0.0
C316 C 0.60008 0.58458 0.43476 0.0
C317 C 0.58653 0.60309 0.46703 0.0
C318 C 0.62652 0.64679 0.41244 0.0
C319 C 0.59283 0.64354 0.47075 0.0
C320 C 0.65233 0.71099 0.38767 0.0
C321 C 0.70238 0.67395 0.34047 0.0
N322 N 0.61243 0.66407 0.44379 0.0
N323 N 0.67585 0.65325 0.36217 0.0
H324 H 0.16152 0.31539 0.2129 0.0
H325 H 0.13158 0.44036 0.04246 0.0
H326 H 0.24718 0.33621 0.12506 0.0
H327 H 0.05872 0.43772 0.14127 0.0
H328 H 0.17478 0.40277 0.0716 0.0
H329 H 0.12314 0.35954 0.18626 0.0
C330 C 0.17229 0.3293 0.18802 0.0
C331 C 0.20756 0.32208 0.17107 0.0
C332 C 0.14959 0.41087 0.08706 0.0
C333 C 0.16367 0.37262 0.14029 0.0
C334 C 0.12521 0.43276 0.07058 0.0
C335 C 0.09197 0.44292 0.08973 0.0
C336 C 0.14019 0.39839 0.1227 0.0
C337 C 0.08416 0.4307 0.12556 0.0
C338 C 0.1504 0.35463 0.17284 0.0
C339 C 0.2201 0.34103 0.13893 0.0
N340 N 0.10793 0.40898 0.14077 0.0
N341 N 0.19811 0.36526 0.12444 0.0
H342 H 0.70594 0.1871 0.8045 0.0
H343 H 0.59686 0.15218 0.9981 0.0
H344 H 0.7178 0.26745 0.89757 0.0
H345 H 0.61471 0.05726 0.92112 0.0
H346 H 0.64049 0.19507 0.96035 0.0
H347 H 0.67035 0.13917 0.84468 0.0
C348 C 0.70104 0.19458 0.8333 0.0
C349 C 0.71494 0.23112 0.84783 0.0
C350 C 0.6355 0.16474 0.95189 0.0
C351 C 0.67462 0.17694 0.8936 0.0
C352 C 0.61077 0.14029 0.97354 0.0
C353 C 0.6028 0.10123 0.96281 0.0
C354 C 0.65159 0.15024 0.91869 0.0
C355 C 0.62092 0.08716 0.93053 0.0
C356 C 0.6811 0.16722 0.85621 0.0
C357 C 0.70797 0.23945 0.88532 0.0
N358 N 0.64416 0.11184 0.90918 0.0
N359 N 0.68821 0.21271 0.90679 0.0
H360 H 0.80126 0.79282 0.40172 0.0
H361 H 0.98194 0.94362 0.39046 0.0
H362 H 0.83599 0.85302 0.30292 0.0
H363 H 0.91515 0.92679 0.49195 0.0
H364 H 0.92964 0.90924 0.35757 0.0
H365 H 0.84276 0.84034 0.43556 0.0
C366 C 0.81697 0.81636 0.38713 0.0
C367 C 0.81514 0.8186 0.34917 0.0
C368 C 0.92615 0.91357 0.38698 0.0
C369 C 0.86369 0.87248 0.38789 0.0
C370 C 0.95598 0.93298 0.4057 0.0
C371 C 0.95265 0.93783 0.44383 0.0
C372 C 0.89323 0.89795 0.40667 0.0
C373 C 0.91859 0.92364 0.46247 0.0
C374 C 0.84083 0.84341 0.40657 0.0
C375 C 0.83704 0.84947 0.33192 0.0
N376 N 0.89029 0.90371 0.44373 0.0
N377 N 0.86081 0.87484 0.3513 0.0
H378 H 0.36313 0.69581 0.76211 0.0
H379 H 0.41766 0.58886 0.5702 0.0
H380 H 0.33275 0.73244 0.65844 0.0
H381 H 0.47465 0.57917 0.66876 0.0
H382 H 0.37439 0.63014 0.60438 0.0
H383 H 0.39284 0.64255 0.73014 0.0
C384 C 0.36254 0.69268 0.73266 0.0
C385 C 0.34573 0.7192 0.71304 0.0
C386 C 0.39595 0.61839 0.61863 0.0
C387 C 0.37928 0.65755 0.67622 0.0
C388 C 0.42029 0.59444 0.59925 0.0
C389 C 0.44957 0.5804 0.61678 0.0
C390 C 0.4009 0.62816 0.65579 0.0
C391 C 0.45242 0.58941 0.65425 0.0
C392 C 0.37935 0.66206 0.71444 0.0
C393 C 0.34506 0.71276 0.6749 0.0
N394 N 0.42857 0.61282 0.67244 0.0
N395 N 0.36182 0.68281 0.65775 0.0
H396 H 0.94711 -0.00021 0.83912 0.0
H397 H 0.00391 0.93643 0.63394 0.0
H398 H 0.94287 0.87979 0.8022 0.0
H399 H 0.0267 0.05228 0.68063 0.0
H400 H 0.98911 0.91282 0.69581 0.0
H401 H 0.98169 0.01812 0.7819 0.0
C402 C 0.95355 0.9773 0.81887 0.0
C403 C 0.94176 0.93831 0.82516 0.0
C404 C -0.00171 0.94326 0.69254 0.0
C405 C 0.98143 0.95895 0.75933 0.0
C406 C 0.00715 0.95662 0.65727 0.0
C407 C 0.01613 0.99638 0.65229 0.0
C408 C -0.00174 0.97001 0.72267 0.0
C409 C 0.01945 0.02144 0.68334 0.0
C410 C 0.97357 0.98769 0.78627 0.0
C411 C 0.95143 0.91022 0.79829 0.0
N412 N 0.00993 0.00797 0.71707 0.0
N413 N 0.97026 0.92111 0.76627 0.0
H414 H 0.59713 0.17709 0.29875 0.0
H415 H 0.5168 0.98769 0.18271 0.0
H416 H 0.58569 0.06097 0.33694 0.0
H417 H 0.55565 0.09583 0.13338 0.0
H418 H 0.52777 0.0186 0.24295 0.0
H419 H 0.5697 0.15171 0.24145 0.0
C420 C 0.5885 0.14633 0.29521 0.0
C421 C 0.59405 0.12102 0.32249 0.0
C422 C 0.53315 0.03589 0.21909 0.0
C423 C 0.56241 0.09193 0.25729 0.0
C424 C 0.52646 0.01836 0.18476 0.0
C425 C 0.53479 0.03942 0.15315 0.0
C426 C 0.54886 0.07474 0.22191 0.0
C427 C 0.54815 0.07883 0.15719 0.0
C428 C 0.57296 0.13189 0.26251 0.0
C429 C 0.58249 0.08143 0.31643 0.0
N430 N 0.55515 0.09519 0.19096 0.0
N431 N 0.56731 0.06815 0.28454 0.0
H432 H 0.48383 0.55215 0.21674 0.0
H433 H 0.51395 0.59039 0.42798 0.0
H434 H 0.49519 0.66707 0.2676 0.0
H435 H 0.52183 0.48018 0.37026 0.0
H436 H 0.51503 0.6211 0.36921 0.0
H437 H 0.5045 0.52685 0.27181 0.0
C438 C 0.49092 0.57211 0.23951 0.0
C439 C 0.48724 0.61166 0.23796 0.0
C440 C 0.51733 0.59034 0.36939 0.0
C441 C 0.51073 0.58289 0.30134 0.0
C442 C 0.51704 0.5729 0.40291 0.0
C443 C 0.51783 0.53275 0.40385 0.0
C444 C 0.51774 0.56722 0.33681 0.0
C445 C 0.52097 0.51122 0.37067 0.0
C446 C 0.50291 0.55769 0.27095 0.0
C447 C 0.49739 0.63631 0.26798 0.0
N448 N 0.52033 0.52862 0.33855 0.0
N449 N 0.50813 0.62145 0.29876 0.0
H450 H 0.04022 0.4077 0.71201 0.0
H451 H 0.0292 0.56949 0.87291 0.0
H452 H 0.04134 0.52991 0.69647 0.0
H453 H 0.04052 0.45014 0.89148 0.0
H454 H 0.01959 0.55225 0.80878 0.0
H455 H 0.02726 0.41968 0.7777 0.0
C456 C 0.03717 0.43698 0.72235 0.0
C457 C 0.0423 0.46806 0.69895 0.0
C458 C 0.02365 0.52961 0.82682 0.0
C459 C 0.02758 0.48183 0.77385 0.0
C460 C 0.02906 0.53945 0.8634 0.0
C461 C 0.03587 0.51117 0.88716 0.0
C462 C 0.02586 0.49127 0.81369 0.0
C463 C 0.03532 0.47268 0.87379 0.0
C464 C 0.02982 0.44377 0.75985 0.0
C465 C 0.03789 0.50528 0.71371 0.0
N466 N 0.03096 0.46386 0.83765 0.0
N467 N 0.03113 0.51119 0.75027 0.0
H468 H 0.80643 0.95385 0.86502 0.0
H469 H 0.6942 0.02801 0.04624 0.0
H470 H 0.85091 0.96811 0.97188 0.0
H471 H 0.6407 -0.00042 0.945 0.0
H472 H 0.75597 0.02135 0.01469 0.0
H473 H 0.74971 0.98349 0.88951 0.0
C474 C 0.80446 0.96369 0.89349 0.0
C475 C 0.83309 0.958 0.91663 0.0
C476 C 0.73091 0.01732 -0.00094 0.0
C477 C 0.76866 0.99201 0.94467 0.0
C478 C 0.69568 0.02148 0.01703 0.0
C479 C 0.66244 0.0143 0.99814 0.0
C480 C 0.73291 0.00507 0.96199 0.0
C481 C 0.6658 0.00574 0.96039 0.0
C482 C 0.77211 0.98051 0.90744 0.0
C483 C 0.82917 0.97124 0.95327 0.0
N484 N 0.70043 0.00058 0.9436 0.0
N485 N 0.79752 0.98736 0.96615 0.0
H486 H 0.71616 0.07796 0.46945 0.0
H487 H 0.92451 0.0134 0.44964 0.0
H488 H 0.77191 0.05133 0.36465 0.0
H489 H 0.85684 0.01702 0.55153 0.0
H490 H 0.86804 0.0214 0.41705 0.0
H491 H 0.76644 0.05187 0.49936 0.0
C492 C 0.73897 0.06649 0.4527 0.0
C493 C 0.74015 0.0672 0.4145 0.0
C494 C 0.86538 0.01962 0.44648 0.0
C495 C 0.79808 0.03728 0.44864 0.0
C496 C 0.89754 0.01456 0.46506 0.0
C497 C 0.89534 0.01435 0.50335 0.0
C498 C 0.83104 0.02518 0.46645 0.0
C499 C 0.85985 0.01717 0.522 0.0
C500 C 0.76764 0.05137 0.4698 0.0
C501 C 0.77016 0.05149 0.39421 0.0
N502 N 0.8293 0.02297 0.50345 0.0
N503 N 0.79824 0.03758 0.41151 0.0
H504 H 0.31433 0.56999 0.15582 0.0
H505 H 0.19921 0.50462 0.9803 0.0
H506 H 0.3618 0.5689 0.04462 0.0
H507 H 0.14527 0.52582 0.08701 0.0
H508 H 0.26054 0.50889 0.00737 0.0
H509 H 0.25451 0.53668 0.13457 0.0
C510 C 0.31233 0.56203 0.12705 0.0
C511 C 0.34267 0.57267 0.10177 0.0
C512 C 0.23527 0.51184 0.02508 0.0
C513 C 0.27479 0.53472 0.07742 0.0
C514 C 0.20028 0.50918 0.00965 0.0
C515 C 0.16742 0.51531 0.03149 0.0
C516 C 0.23751 0.52156 0.06252 0.0
C517 C 0.17013 0.52102 0.06933 0.0
C518 C 0.27825 0.54316 0.11495 0.0
C519 C 0.33877 0.56181 0.06484 0.0
N520 N 0.20481 0.52482 0.08365 0.0
N521 N 0.30535 0.54374 0.05375 0.0
H522 H 0.19787 0.46253 0.64493 0.0
H523 H 0.39213 0.49747 0.60313 0.0
H524 H 0.19255 0.46061 0.52791 0.0
H525 H 0.36171 0.52625 0.49707 0.0
H526 H 0.32508 0.49355 0.62465 0.0
H527 H 0.2627 0.49513 0.63878 0.0
C528 C 0.21027 0.46947 0.61799 0.0
C529 C 0.19027 0.45823 0.58677 0.0
C530 C 0.33298 0.50218 0.59709 0.0
C531 C 0.2645 0.49458 0.57935 0.0
C532 C 0.37138 0.50446 0.58488 0.0
C533 C 0.38204 0.51157 0.54823 0.0
C534 C 0.3055 0.50707 0.5722 0.0
C535 C 0.35434 0.52012 0.52544 0.0
C536 C 0.24745 0.48769 0.61443 0.0
C537 C 0.20736 0.46803 0.55257 0.0
N538 N 0.31731 0.51696 0.5376 0.0
N539 N 0.24354 0.48532 0.54979 0.0
H540 H 0.90961 0.79022 0.96371 0.0
H541 H 0.08337 0.6875 0.02666 0.0
H542 H 0.0262 0.84126 0.96072 0.0
H543 H 0.97304 0.62621 0.00964 0.0
H544 H 0.05806 0.74842 0.0175 0.0
H545 H 0.92824 0.73415 0.99327 0.0
C546 C 0.93904 0.78981 0.96963 0.0
C547 C 0.96657 0.8202 0.95953 0.0
C548 C 0.03912 0.72178 0.01644 0.0
C549 C 0.9879 0.75651 0.99347 0.0
C550 C 0.05351 0.68703 0.02195 0.0
C551 C 0.03031 0.65181 0.01868 0.0
C552 C 0.00135 0.72132 0.00708 0.0
C553 C 0.99183 0.65279 0.01252 0.0
C554 C 0.94962 0.75784 0.98651 0.0
C555 C 0.00421 0.81825 0.96785 0.0
N556 N 0.97864 0.68699 0.0063 0.0
N557 N 0.01379 0.7869 0.98416 0.0
H558 H 0.49303 0.6802 0.07815 0.0
H559 H 0.44671 0.89206 0.04384 0.0
H560 H 0.37865 0.71194 0.08759 0.0
H561 H 0.55394 0.84946 0.0116 0.0
H562 H 0.41861 0.82526 0.05328 0.0
H563 H 0.51434 0.74099 0.04895 0.0
C564 C 0.47242 0.70002 0.07394 0.0
C565 C 0.43416 0.69131 0.08559 0.0
C566 C 0.44801 0.83041 0.04314 0.0
C567 C 0.4582 0.76103 0.05221 0.0
C568 C 0.46387 0.86846 0.03737 0.0
C569 C 0.50255 0.87602 0.02679 0.0
C570 C 0.47135 0.80013 0.03891 0.0
C571 C 0.52393 0.84466 0.0197 0.0
C572 C 0.48447 0.73459 0.05701 0.0
C573 C 0.40844 0.71767 0.07898 0.0
N574 N 0.50823 0.80817 0.02642 0.0
N575 N 0.42101 0.75164 0.06317 0.0
H576 H 0.05636 0.34619 0.52885 0.0
H577 H 0.11012 0.13121 0.53225 0.0
H578 H 0.1626 0.31799 0.565 0.0
H579 H 0.00302 0.16307 0.50189 0.0
H580 H 0.13706 0.19938 0.52888 0.0
H581 H 0.04373 0.28011 0.50348 0.0
C582 C 0.07725 0.32609 0.53092 0.0
C583 C 0.11019 0.33715 0.54949 0.0
C584 C 0.10795 0.19125 0.52206 0.0
C585 C 0.09576 0.2613 0.52127 0.0
C586 C 0.09273 0.15243 0.5238 0.0
C587 C 0.05428 0.14202 0.51788 0.0
C588 C 0.08431 0.21938 0.51445 0.0
C589 C 0.03271 0.17028 0.50714 0.0
C590 C 0.07014 0.28839 0.51643 0.0
C591 C 0.13672 0.31034 0.55102 0.0
N592 N 0.04785 0.20774 0.50624 0.0
N593 N 0.12858 0.27331 0.53776 0.0
H594 H 0.65933 0.24352 0.44111 0.0
H595 H 0.47498 0.34074 0.52002 0.0
H596 H 0.54373 0.19375 0.42911 0.0
H597 H 0.58575 0.40536 0.5083 0.0
H598 H 0.50303 0.2816 0.50058 0.0
H599 H 0.63556 0.29841 0.47696 0.0
C600 C 0.62897 0.24404 0.44623 0.0
C601 C 0.60342 0.21421 0.4318 0.0
C602 C 0.52141 0.30854 0.50285 0.0
C603 C 0.57616 0.27654 0.47308 0.0
C604 C 0.50546 0.34227 0.51432 0.0
C605 C 0.52803 0.37804 0.5155 0.0
C606 C 0.56025 0.31048 0.49212 0.0
C607 C 0.56736 0.37834 0.50785 0.0
C608 C 0.61547 0.27534 0.46664 0.0
C609 C 0.56441 0.21639 0.43917 0.0
N610 N 0.58221 0.34511 0.49585 0.0
N611 N 0.55202 0.24695 0.45924 0.0
loop_
_geom_bond_atom_site_label_1
_geom_bond_atom_site_label_2
_geom_bond_distance
_geom_bond_site_symmetry_2
_ccdc_geom_bond_type
H0 C5 0.930 . S
H1 C8 0.930 . S
H2 C10 0.930 . S
H3 C4 1.016 . S
C4 H3 1.016 . S
C4 N11 1.286 . S
C5 H0 0.930 . S
C5 C6 1.397 . S
C5 C7 1.361 . S
C6 C5 1.397 . S
C6 C10 1.390 . S
C7 C5 1.361 . S
C7 C8 1.393 . S
C7 N11 1.413 . S
C8 H1 0.930 . S
C8 C7 1.393 . S
C8 C9 1.399 . S
C9 C8 1.399 . S
C9 C10 1.381 . S
C10 H2 0.930 . S
C10 C6 1.390 . S
C10 C9 1.381 . S
N11 C4 1.286 . S
N11 C7 1.413 . S
H12 C17 0.930 . S
H13 C20 0.930 . S
H14 C22 0.930 . S
H15 C16 1.016 . S
C16 H15 1.016 . S
C16 N23 1.286 . S
C17 H12 0.930 . S
C17 C18 1.397 . S
C17 C19 1.361 . S
C18 C17 1.397 . S
C18 C22 1.390 . S
C19 C17 1.361 . S
C19 C20 1.393 . S
C19 N23 1.413 . S
C20 H13 0.930 . S
C20 C19 1.393 . S
C20 C21 1.399 . S
C21 C20 1.399 . S
C21 C22 1.381 . S
C22 H14 0.930 . S
C22 C18 1.390 . S
C22 C21 1.381 . S
N23 C16 1.286 . S
N23 C19 1.413 . S
H24 C29 0.930 . S
H25 C32 0.930 . S
H26 C34 0.930 . S
H27 C28 1.016 . S
C28 H27 1.016 . S
C28 N35 1.286 . S
C29 H24 0.930 . S
C29 C30 1.397 . S
C29 C31 1.361 . S
C30 C29 1.397 . S
C30 C34 1.390 . S
C31 C29 1.361 . S
C31 C32 1.393 . S
C31 N35 1.413 . S
C32 H25 0.930 . S
C32 C31 1.393 . S
C32 C33 1.399 . S
C33 C32 1.399 . S
C33 C34 1.381 . S
C34 H26 0.930 . S
C34 C30 1.390 . S
C34 C33 1.381 . S
N35 C28 1.286 . S
N35 C31 1.413 . S
H36 C41 0.930 . S
H37 C44 0.930 . S
H38 C46 0.930 . S
H39 C40 1.016 . S
C40 H39 1.016 . S
C40 N47 1.286 . S
C41 H36 0.930 . S
C41 C42 1.397 . S
C41 C43 1.361 . S
C42 C41 1.397 . S
C42 C46 1.390 . S
C43 C41 1.361 . S
C43 C44 1.393 . S
C43 N47 1.413 . S
C44 H37 0.930 . S
C44 C43 1.393 . S
C44 C45 1.399 . S
C45 C44 1.399 . S
C45 C46 1.381 . S
C46 H38 0.930 . S
C46 C42 1.390 . S
C46 C45 1.381 . S
N47 C40 1.286 . S
N47 C43 1.413 . S
H48 C53 0.930 . S
H49 C56 0.930 . S
H50 C58 0.933 . S
H51 C52 1.016 1_455 S
C52 H51 1.016 1_655 S
C52 N59 1.286 . S
C53 H48 0.930 . S
C53 C54 1.397 . S
C53 C55 1.361 . S
C54 C53 1.397 . S
C54 C58 1.390 . S
C55 C53 1.361 . S
C55 C56 1.393 . S
C55 N59 1.413 . S
C56 H49 0.930 . S
C56 C55 1.393 . S
C56 C57 1.399 . S
C57 C56 1.399 . S
C57 C58 1.381 . S
C58 H50 0.933 . S
C58 C54 1.390 . S
C58 C57 1.381 . S
N59 C52 1.286 . S
N59 C55 1.413 . S
H60 C65 0.930 . S
H61 C68 0.930 . S
H62 C70 0.930 . S
H63 C64 1.016 . S
C64 H63 1.016 . S
C64 N71 1.286 . S
C65 H60 0.930 . S
C65 C66 1.397 . S
C65 C67 1.361 . S
C66 C65 1.397 . S
C66 C70 1.390 . S
C67 C65 1.361 . S
C67 C68 1.393 . S
C67 N71 1.413 . S
C68 H61 0.930 . S
C68 C67 1.393 . S
C68 C69 1.399 . S
C69 C68 1.399 . S
C69 C70 1.381 . S
C70 H62 0.930 . S
C70 C66 1.390 . S
C70 C69 1.381 . S
N71 C64 1.286 . S
N71 C67 1.413 . S
H72 C77 0.930 . S
H73 C80 0.930 . S
H74 C82 0.930 . S
H75 C76 1.016 . S
C76 H75 1.016 . S
C76 N83 1.286 . S
C77 H72 0.930 . S
C77 C78 1.397 . S
C77 C79 1.361 . S
C78 C77 1.397 . S
C78 C82 1.390 . S
C79 C77 1.361 . S
C79 C80 1.393 . S
C79 N83 1.413 . S
C80 H73 0.930 . S
C80 C79 1.393 . S
C80 C81 1.399 . S
C81 C80 1.399 . S
C81 C82 1.381 . S
C82 H74 0.930 . S
C82 C78 1.390 . S
C82 C81 1.381 . S
N83 C76 1.286 . S
N83 C79 1.413 . S
H84 C89 0.930 . S
H85 C92 0.930 . S
H86 C94 0.930 . S
H87 C88 1.016 . S
C88 H87 1.016 . S
C88 N95 1.286 . S
C89 H84 0.930 . S
C89 C90 1.397 . S
C89 C91 1.361 . S
C90 C89 1.397 . S
C90 C94 1.390 . S
C91 C89 1.361 . S
C91 C92 1.393 . S
C91 N95 1.413 . S
C92 H85 0.930 . S
C92 C91 1.393 . S
C92 C93 1.399 . S
C93 C92 1.399 . S
C93 C94 1.381 . S
C94 H86 0.930 . S
C94 C90 1.390 . S
C94 C93 1.381 . S
N95 C88 1.286 . S
N95 C91 1.413 . S
Zn96 O102 1.920 . S
Zn96 O108 1.898 . S
Zn96 O111 1.905 . S
Zn97 O105 1.905 1_565 S
Zn97 O106 1.898 . S
Zn97 O114 1.920 . S
Zn98 O101 2.080 1_455 S
Zn98 O104 2.114 . S
Zn98 O107 2.120 1_445 S
Zn98 O109 2.120 . S
Zn98 O110 2.114 1_455 S
Zn98 O113 2.080 . S
C99 O104 1.166 . S
C99 O105 1.182 . S
C100 O106 1.167 1_655 S
C100 O107 1.299 . S
O101 Zn98 2.080 1_655 S
O101 C115 1.305 . S
O102 Zn96 1.920 . S
O102 C115 1.234 . S
C103 O108 1.167 1_455 S
C103 O109 1.299 . S
O104 Zn98 2.114 . S
O104 C99 1.166 . S
O105 Zn97 1.905 1_545 S
O105 C99 1.182 . S
O106 Zn97 1.898 . S
O106 C100 1.167 1_455 S
O107 Zn98 2.120 1_665 S
O107 C100 1.299 . S
O108 Zn96 1.898 . S
O108 C103 1.167 1_655 S
O109 Zn98 2.120 . S
O109 C103 1.299 . S
O110 Zn98 2.114 1_655 S
O110 C112 1.166 . S
O111 Zn96 1.905 . S
O111 C112 1.182 . S
C112 O110 1.166 . S
C112 O111 1.182 . S
O113 Zn98 2.080 . S
O113 C116 1.305 1_545 S
O114 Zn97 1.920 . S
O114 C116 1.234 . S
C115 O101 1.305 . S
C115 O102 1.234 . S
C116 O113 1.305 1_565 S
C116 O114 1.234 . S
Zn117 O123 1.920 1_556 S
Zn117 O129 1.898 . S
Zn117 O132 1.905 . S
Zn118 O126 1.905 . S
Zn118 O127 1.898 . S
Zn118 O135 1.920 . S
Zn119 O122 2.080 . S
Zn119 O125 2.114 1_545 S
Zn119 O128 2.120 1_545 S
Zn119 O130 2.120 . S
Zn119 O131 2.114 1_544 S
Zn119 O134 2.080 . S
C120 O125 1.166 . S
C120 O126 1.182 . S
C121 O127 1.167 . S
C121 O128 1.299 . S
O122 Zn119 2.080 . S
O122 C136 1.305 . S
O123 Zn117 1.920 1_554 S
O123 C136 1.234 . S
C124 O129 1.167 . S
C124 O130 1.299 1_556 S
O125 Zn119 2.114 1_565 S
O125 C120 1.166 . S
O126 Zn118 1.905 . S
O126 C120 1.182 . S
O127 Zn118 1.898 . S
O127 C121 1.167 . S
O128 Zn119 2.120 1_565 S
O128 C121 1.299 . S
O129 Zn117 1.898 . S
O129 C124 1.167 . S
O130 Zn119 2.120 . S
O130 C124 1.299 1_554 S
O131 Zn119 2.114 1_566 S
O131 C133 1.166 . S
O132 Zn117 1.905 . S
O132 C133 1.182 1_545 S
C133 O131 1.166 . S
C133 O132 1.182 1_565 S
O134 Zn119 2.080 . S
O134 C137 1.305 . S
O135 Zn118 1.920 . S
O135 C137 1.234 1_565 S
C136 O122 1.305 . S
C136 O123 1.234 . S
C137 O134 1.305 . S
C137 O135 1.234 1_545 S
Zn138 O144 1.920 . S
Zn138 O150 1.898 . S
Zn138 O153 1.905 . S
Zn139 O147 1.905 . S
Zn139 O148 1.898 . S
Zn139 O156 1.920 . S
Zn140 O143 2.080 . S
Zn140 O146 2.114 . S
Zn140 O149 2.120 . S
Zn140 O151 2.120 . S
Zn140 O152 2.114 . S
Zn140 O155 2.080 . S
C141 O146 1.166 . S
C141 O147 1.182 . S
C142 O148 1.167 . S
C142 O149 1.299 . S
O143 Zn140 2.080 . S
O143 C157 1.305 . S
O144 Zn138 1.920 . S
O144 C157 1.234 . S
C145 O150 1.167 . S
C145 O151 1.299 . S
O146 Zn140 2.114 . S
O146 C141 1.166 . S
O147 Zn139 1.905 . S
O147 C141 1.182 . S
O148 Zn139 1.898 . S
O148 C142 1.167 . S
O149 Zn140 2.120 . S
O149 C142 1.299 . S
O150 Zn138 1.898 . S
O150 C145 1.167 . S
O151 Zn140 2.120 . S
O151 C145 1.299 . S
O152 Zn140 2.114 . S
O152 C154 1.166 . S
O153 Zn138 1.905 . S
O153 C154 1.182 . S
C154 O152 1.166 . S
C154 O153 1.182 . S
O155 Zn140 2.080 . S
O155 C158 1.305 . S
O156 Zn139 1.920 . S
O156 C158 1.234 . S
C157 O143 1.305 . S
C157 O144 1.234 . S
C158 O155 1.305 . S
C158 O156 1.234 . S
Zn159 O165 1.920 . S
Zn159 O171 1.898 . S
Zn159 O174 1.905 . S
Zn160 O168 1.905 1_655 S
Zn160 O169 1.898 . S
Zn160 O177 1.920 . S
Zn161 O164 2.080 1_554 S
Zn161 O167 2.114 . S
Zn161 O170 2.120 1_454 S
Zn161 O172 2.120 . S
Zn161 O173 2.114 1_554 S
Zn161 O176 2.080 . S
C162 O167 1.166 . S
C162 O168 1.182 . S
C163 O169 1.167 1_556 S
C163 O170 1.299 . S
O164 Zn161 2.080 1_556 S
O164 C178 1.305 . S
O165 Zn159 1.920 . S
O165 C178 1.234 . S
C166 O171 1.167 1_554 S
C166 O172 1.299 . S
O167 Zn161 2.114 . S
O167 C162 1.166 . S
O168 Zn160 1.905 1_455 S
O168 C162 1.182 . S
O169 Zn160 1.898 . S
O169 C163 1.167 1_554 S
O170 Zn161 2.120 1_656 S
O170 C163 1.299 . S
O171 Zn159 1.898 . S
O171 C166 1.167 1_556 S
O172 Zn161 2.120 . S
O172 C166 1.299 . S
O173 Zn161 2.114 1_556 S
O173 C175 1.166 . S
O174 Zn159 1.905 . S
O174 C175 1.182 . S
C175 O173 1.166 . S
C175 O174 1.182 . S
O176 Zn161 2.080 . S
O176 C179 1.306 . S
O177 Zn160 1.920 . S
O177 C179 1.234 1_655 S
C178 O164 1.305 . S
C178 O165 1.234 . S
C179 O176 1.306 . S
C179 O177 1.234 1_455 S
H180 C186 0.930 . S
H181 C190 0.930 . S
H182 C195 0.929 . S
H183 C193 0.929 . S
H184 C188 0.929 . S
H185 C194 0.929 . S
C186 H180 0.930 . S
C186 C187 1.367 . S
C186 C194 1.378 . S
C187 C186 1.367 . S
C187 C195 1.433 . S
C188 H184 0.929 . S
C188 C190 1.378 . S
C188 C192 1.350 . S
C189 C192 1.463 . S
C189 C194 1.350 . S
C189 N197 1.427 . S
C190 H181 0.930 . S
C190 C188 1.378 . S
C190 C191 1.367 . S
C191 C190 1.367 . S
C191 C193 1.433 . S
C192 C188 1.350 . S
C192 C189 1.463 . S
C192 N196 1.427 . S
C193 H183 0.929 . S
C193 C191 1.433 . S
C193 N196 1.384 . S
C194 H185 0.929 . S
C194 C186 1.378 . S
C194 C189 1.350 . S
C195 H182 0.929 . S
C195 C187 1.433 . S
C195 N197 1.384 . S
N196 C192 1.427 . S
N196 C193 1.384 . S
N197 C189 1.427 . S
N197 C195 1.384 . S
H198 C204 0.930 . S
H199 C208 0.930 . S
H200 C213 0.929 . S
H201 C211 0.929 1_545 S
H202 C206 0.929 . S
H203 C212 0.929 . S
C204 H198 0.930 . S
C204 C205 1.367 . S
C204 C212 1.378 . S
C205 C204 1.367 . S
C205 C213 1.433 . S
C206 H202 0.929 . S
C206 C208 1.378 . S
C206 C210 1.350 . S
C207 C210 1.463 . S
C207 C212 1.350 . S
C207 N215 1.427 . S
C208 H199 0.930 . S
C208 C206 1.378 . S
C208 C209 1.367 . S
C209 C208 1.367 . S
C209 C211 1.433 . S
C210 C206 1.350 . S
C210 C207 1.463 . S
C210 N214 1.427 . S
C211 H201 0.929 1_565 S
C211 C209 1.433 . S
C211 N214 1.384 . S
C212 H203 0.929 . S
C212 C204 1.378 . S
C212 C207 1.350 . S
C213 H200 0.929 . S
C213 C205 1.433 . S
C213 N215 1.384 . S
N214 C210 1.427 . S
N214 C211 1.384 . S
N215 C207 1.427 . S
N215 C213 1.384 . S
H216 C222 0.930 . S
H217 C226 0.930 . S
H218 C231 0.929 . S
H219 C229 0.929 . S
H220 C224 0.929 . S
H221 C230 0.929 . S
C222 H216 0.930 . S
C222 C223 1.367 . S
C222 C230 1.378 . S
C223 C222 1.367 . S
C223 C231 1.433 . S
C224 H220 0.929 . S
C224 C226 1.378 . S
C224 C228 1.350 . S
C225 C228 1.463 . S
C225 C230 1.350 . S
C225 N233 1.427 . S
C226 H217 0.930 . S
C226 C224 1.378 . S
C226 C227 1.367 . S
C227 C226 1.367 . S
C227 C229 1.433 . S
C228 C224 1.350 . S
C228 C225 1.463 . S
C228 N232 1.427 . S
C229 H219 0.929 . S
C229 C227 1.433 . S
C229 N232 1.384 . S
C230 H221 0.929 . S
C230 C222 1.378 . S
C230 C225 1.350 . S
C231 H218 0.929 . S
C231 C223 1.433 . S
C231 N233 1.384 . S
N232 C228 1.427 . S
N232 C229 1.384 . S
N233 C225 1.427 . S
N233 C231 1.384 . S
H234 C240 0.930 . S
H235 C244 0.930 . S
H236 C249 0.929 . S
H237 C247 0.929 . S
H238 C242 0.929 . S
H239 C248 0.929 . S
C240 H234 0.930 . S
C240 C241 1.367 . S
C240 C248 1.378 . S
C241 C240 1.367 . S
C241 C249 1.433 . S
C242 H238 0.929 . S
C242 C244 1.378 1_655 S
C242 C246 1.350 . S
C243 C246 1.463 . S
C243 C248 1.350 . S
C243 N251 1.427 . S
C244 H235 0.930 . S
C244 C242 1.378 1_455 S
C244 C245 1.367 1_455 S
C245 C244 1.367 1_655 S
C245 C247 1.433 . S
C246 C242 1.350 . S
C246 C243 1.463 . S
C246 N250 1.427 . S
C247 H237 0.929 . S
C247 C245 1.433 . S
C247 N250 1.384 . S
C248 H239 0.929 . S
C248 C240 1.378 . S
C248 C243 1.350 . S
C249 H236 0.929 . S
C249 C241 1.433 . S
C249 N251 1.384 . S
N250 C246 1.427 . S
N250 C247 1.384 . S
N251 C243 1.427 . S
N251 C249 1.384 . S
H252 C258 0.930 . S
H253 C262 0.930 . S
H254 C267 0.929 . S
H255 C265 0.929 . S
H256 C260 0.929 . S
H257 C266 0.929 . S
C258 H252 0.930 . S
C258 C259 1.367 . S
C258 C266 1.378 . S
C259 C258 1.367 . S
C259 C267 1.433 . S
C260 H256 0.929 . S
C260 C262 1.378 . S
C260 C264 1.350 . S
C261 C264 1.463 . S
C261 C266 1.350 . S
C261 N269 1.427 . S
C262 H253 0.930 . S
C262 C260 1.378 . S
C262 C263 1.367 . S
C263 C262 1.367 . S
C263 C265 1.433 . S
C264 C260 1.350 . S
C264 C261 1.463 . S
C264 N268 1.427 . S
C265 H255 0.929 . S
C265 C263 1.433 . S
C265 N268 1.384 . S
C266 H257 0.929 . S
C266 C258 1.378 . S
C266 C261 1.350 . S
C267 H254 0.929 . S
C267 C259 1.433 . S
C267 N269 1.384 . S
N268 C264 1.427 . S
N268 C265 1.384 . S
N269 C261 1.427 . S
N269 C267 1.384 . S
H270 C276 0.930 . S
H271 C280 0.930 . S
H272 C285 0.929 . S
H273 C283 0.929 1_545 S
H274 C278 0.929 . S
H275 C284 0.929 . S
C276 H270 0.930 . S
C276 C277 1.367 . S
C276 C284 1.378 . S
C277 C276 1.367 . S
C277 C285 1.433 . S
C278 H274 0.929 . S
C278 C280 1.378 . S
C278 C282 1.350 . S
C279 C282 1.463 . S
C279 C284 1.350 . S
C279 N287 1.427 . S
C280 H271 0.930 . S
C280 C278 1.378 . S
C280 C281 1.367 . S
C281 C280 1.367 . S
C281 C283 1.433 . S
C282 C278 1.350 . S
C282 C279 1.463 . S
C282 N286 1.427 . S
C283 H273 0.929 1_565 S
C283 C281 1.433 . S
C283 N286 1.384 . S
C284 H275 0.929 . S
C284 C276 1.378 . S
C284 C279 1.350 . S
C285 H272 0.929 . S
C285 C277 1.433 . S
C285 N287 1.384 . S
N286 C282 1.427 . S
N286 C283 1.384 . S
N287 C279 1.427 . S
N287 C285 1.384 . S
H288 C294 0.930 . S
H289 C298 0.930 . S
H290 C303 0.929 . S
H291 C301 0.929 . S
H292 C296 0.929 . S
H293 C302 0.929 . S
C294 H288 0.930 . S
C294 C295 1.367 . S
C294 C302 1.378 . S
C295 C294 1.367 . S
C295 C303 1.433 . S
C296 H292 0.929 . S
C296 C298 1.378 . S
C296 C300 1.350 . S
C297 C300 1.463 . S
C297 C302 1.350 . S
C297 N305 1.427 . S
C298 H289 0.930 . S
C298 C296 1.378 . S
C298 C299 1.367 . S
C299 C298 1.367 . S
C299 C301 1.433 . S
C300 C296 1.350 . S
C300 C297 1.463 . S
C300 N304 1.427 . S
C301 H291 0.929 . S
C301 C299 1.433 . S
C301 N304 1.384 . S
C302 H293 0.929 . S
C302 C294 1.378 . S
C302 C297 1.350 . S
C303 H290 0.929 . S
C303 C295 1.433 . S
C303 N305 1.384 . S
N304 C300 1.427 . S
N304 C301 1.384 . S
N305 C297 1.427 . S
N305 C303 1.384 . S
H306 C312 0.930 . S
H307 C316 0.930 . S
H308 C321 0.929 . S
H309 C319 0.929 . S
H310 C314 0.929 . S
H311 C320 0.929 . S
C312 H306 0.930 . S
C312 C313 1.367 . S
C312 C320 1.378 . S
C313 C312 1.367 . S
C313 C321 1.433 . S
C314 H310 0.929 . S
C314 C316 1.378 . S
C314 C318 1.350 . S
C315 C318 1.463 . S
C315 C320 1.350 . S
C315 N323 1.427 . S
C316 H307 0.930 . S
C316 C314 1.378 . S
C316 C317 1.367 . S
C317 C316 1.367 . S
C317 C319 1.433 . S
C318 C314 1.350 . S
C318 C315 1.463 . S
C318 N322 1.427 . S
C319 H309 0.929 . S
C319 C317 1.433 . S
C319 N322 1.384 . S
C320 H311 0.929 . S
C320 C312 1.378 . S
C320 C315 1.350 . S
C321 H308 0.929 . S
C321 C313 1.433 . S
C321 N323 1.384 . S
N322 C318 1.427 . S
N322 C319 1.384 . S
N323 C315 1.427 . S
N323 C321 1.384 . S
H324 C330 0.930 . S
H325 C334 0.930 . S
H326 C339 0.929 . S
H327 C337 0.929 . S
H328 C332 0.929 . S
H329 C338 0.929 . S
C330 H324 0.930 . S
C330 C331 1.367 . S
C330 C338 1.378 . S
C331 C330 1.367 . S
C331 C339 1.433 . S
C332 H328 0.929 . S
C332 C334 1.378 . S
C332 C336 1.350 . S
C333 C336 1.463 . S
C333 C338 1.350 . S
C333 N341 1.427 . S
C334 H325 0.930 . S
C334 C332 1.378 . S
C334 C335 1.367 . S
C335 C334 1.367 . S
C335 C337 1.433 . S
C336 C332 1.350 . S
C336 C333 1.463 . S
C336 N340 1.427 . S
C337 H327 0.929 . S
C337 C335 1.433 . S
C337 N340 1.384 . S
C338 H329 0.929 . S
C338 C330 1.378 . S
C338 C333 1.350 . S
C339 H326 0.929 . S
C339 C331 1.433 . S
C339 N341 1.384 . S
N340 C336 1.427 . S
N340 C337 1.384 . S
N341 C333 1.427 . S
N341 C339 1.384 . S
H342 C348 0.930 . S
H343 C352 0.930 1_554 S
H344 C357 0.929 . S
H345 C355 0.929 . S
H346 C350 0.929 . S
H347 C356 0.929 . S
C348 H342 0.930 . S
C348 C349 1.367 . S
C348 C356 1.378 . S
C349 C348 1.367 . S
C349 C357 1.433 . S
C350 H346 0.929 . S
C350 C352 1.378 . S
C350 C354 1.350 . S
C351 C354 1.463 . S
C351 C356 1.350 . S
C351 N359 1.427 . S
C352 H343 0.930 1_556 S
C352 C350 1.378 . S
C352 C353 1.367 . S
C353 C352 1.367 . S
C353 C355 1.433 . S
C354 C350 1.350 . S
C354 C351 1.463 . S
C354 N358 1.427 . S
C355 H345 0.929 . S
C355 C353 1.433 . S
C355 N358 1.384 . S
C356 H347 0.929 . S
C356 C348 1.378 . S
C356 C351 1.350 . S
C357 H344 0.929 . S
C357 C349 1.433 . S
C357 N359 1.384 . S
N358 C354 1.427 . S
N358 C355 1.384 . S
N359 C351 1.427 . S
N359 C357 1.384 . S
H360 C366 0.930 . S
H361 C370 0.930 . S
H362 C375 0.929 . S
H363 C373 0.929 . S
H364 C368 0.929 . S
H365 C374 0.929 . S
C366 H360 0.930 . S
C366 C367 1.367 . S
C366 C374 1.378 . S
C367 C366 1.367 . S
C367 C375 1.433 . S
C368 H364 0.929 . S
C368 C370 1.378 . S
C368 C372 1.350 . S
C369 C372 1.463 . S
C369 C374 1.350 . S
C369 N377 1.427 . S
C370 H361 0.930 . S
C370 C368 1.378 . S
C370 C371 1.367 . S
C371 C370 1.367 . S
C371 C373 1.433 . S
C372 C368 1.350 . S
C372 C369 1.463 . S
C372 N376 1.427 . S
C373 H363 0.929 . S
C373 C371 1.433 . S
C373 N376 1.384 . S
C374 H365 0.929 . S
C374 C366 1.378 . S
C374 C369 1.350 . S
C375 H362 0.929 . S
C375 C367 1.433 . S
C375 N377 1.384 . S
N376 C372 1.427 . S
N376 C373 1.384 . S
N377 C369 1.427 . S
N377 C375 1.384 . S
H378 C384 0.930 . S
H379 C388 0.930 . S
H380 C393 0.929 . S
H381 C391 0.929 . S
H382 C386 0.929 . S
H383 C392 0.929 . S
C384 H378 0.930 . S
C384 C385 1.367 . S
C384 C392 1.378 . S
C385 C384 1.367 . S
C385 C393 1.433 . S
C386 H382 0.929 . S
C386 C388 1.378 . S
C386 C390 1.350 . S
C387 C390 1.463 . S
C387 C392 1.350 . S
C387 N395 1.427 . S
C388 H379 0.930 . S
C388 C386 1.378 . S
C388 C389 1.367 . S
C389 C388 1.367 . S
C389 C391 1.433 . S
C390 C386 1.350 . S
C390 C387 1.463 . S
C390 N394 1.427 . S
C391 H381 0.929 . S
C391 C389 1.433 . S
C391 N394 1.384 . S
C392 H383 0.929 . S
C392 C384 1.378 . S
C392 C387 1.350 . S
C393 H380 0.929 . S
C393 C385 1.433 . S
C393 N395 1.384 . S
N394 C390 1.427 . S
N394 C391 1.384 . S
N395 C387 1.427 . S
N395 C393 1.384 . S
H396 C402 0.930 . S
H397 C406 0.930 . S
H398 C411 0.929 . S
H399 C409 0.929 . S
H400 C404 0.929 . S
H401 C410 0.929 1_455 S
C402 H396 0.930 . S
C402 C403 1.367 1_545 S
C402 C410 1.378 . S
C403 C402 1.367 1_565 S
C403 C411 1.433 . S
C404 H400 0.929 . S
C404 C406 1.378 . S
C404 C408 1.350 . S
C405 C408 1.463 . S
C405 C410 1.350 1_565 S
C405 N413 1.427 . S
C406 H397 0.930 . S
C406 C404 1.378 . S
C406 C407 1.381 . S
C407 C406 1.381 . S
C407 C409 1.421 1_665 S
C408 C404 1.350 . S
C408 C405 1.463 . S
C408 N412 1.431 1_565 S
C409 H399 0.929 . S
C409 C407 1.421 1_445 S
C409 N412 1.383 1_455 S
C410 H401 0.929 1_655 S
C410 C402 1.378 . S
C410 C405 1.350 1_545 S
C411 H398 0.929 . S
C411 C403 1.433 . S
C411 N413 1.384 . S
N412 C408 1.431 1_545 S
N412 C409 1.383 1_655 S
N413 C405 1.427 . S
N413 C411 1.384 . S
H414 C420 0.930 . S
H415 C424 0.930 1_565 S
H416 C429 0.929 . S
H417 C427 0.929 . S
H418 C422 0.932 . S
H419 C428 0.929 . S
C420 H414 0.930 . S
C420 C421 1.367 . S
C420 C428 1.378 . S
C421 C420 1.367 . S
C421 C429 1.433 . S
C422 H418 0.932 . S
C422 C424 1.378 . S
C422 C426 1.350 . S
C423 C426 1.463 . S
C423 C428 1.350 . S
C423 N431 1.427 . S
C424 H415 0.930 1_545 S
C424 C422 1.378 . S
C424 C425 1.367 . S
C425 C424 1.367 . S
C425 C427 1.433 . S
C426 C422 1.350 . S
C426 C423 1.463 . S
C426 N430 1.427 . S
C427 H417 0.929 . S
C427 C425 1.433 . S
C427 N430 1.384 . S
C428 H419 0.929 . S
C428 C420 1.378 . S
C428 C423 1.350 . S
C429 H416 0.929 . S
C429 C421 1.433 . S
C429 N431 1.384 . S
N430 C426 1.427 . S
N430 C427 1.384 . S
N431 C423 1.427 . S
N431 C429 1.384 . S
H432 C438 0.930 . S
H433 C442 0.930 . S
H434 C447 0.929 . S
H435 C445 0.929 . S
H436 C440 0.929 . S
H437 C446 0.929 . S
C438 H432 0.930 . S
C438 C439 1.367 . S
C438 C446 1.378 . S
C439 C438 1.367 . S
C439 C447 1.433 . S
C440 H436 0.929 . S
C440 C442 1.378 . S
C440 C444 1.350 . S
C441 C444 1.463 . S
C441 C446 1.350 . S
C441 N449 1.427 . S
C442 H433 0.930 . S
C442 C440 1.378 . S
C442 C443 1.367 . S
C443 C442 1.367 . S
C443 C445 1.433 . S
C444 C440 1.350 . S
C444 C441 1.463 . S
C444 N448 1.427 . S
C445 H435 0.929 . S
C445 C443 1.433 . S
C445 N448 1.384 . S
C446 H437 0.929 . S
C446 C438 1.378 . S
C446 C441 1.350 . S
C447 H434 0.929 . S
C447 C439 1.433 . S
C447 N449 1.384 . S
N448 C444 1.427 . S
N448 C445 1.384 . S
N449 C441 1.427 . S
N449 C447 1.384 . S
H450 C456 0.930 . S
H451 C460 0.930 . S
H452 C465 0.929 . S
H453 C463 0.929 . S
H454 C458 0.929 . S
H455 C464 0.929 . S
C456 H450 0.930 . S
C456 C457 1.367 . S
C456 C464 1.378 . S
C457 C456 1.367 . S
C457 C465 1.433 . S
C458 H454 0.929 . S
C458 C460 1.378 . S
C458 C462 1.350 . S
C459 C462 1.463 . S
C459 C464 1.350 . S
C459 N467 1.427 . S
C460 H451 0.930 . S
C460 C458 1.378 . S
C460 C461 1.367 . S
C461 C460 1.367 . S
C461 C463 1.433 . S
C462 C458 1.350 . S
C462 C459 1.463 . S
C462 N466 1.427 . S
C463 H453 0.929 . S
C463 C461 1.433 . S
C463 N466 1.384 . S
C464 H455 0.929 . S
C464 C456 1.378 . S
C464 C459 1.350 . S
C465 H452 0.929 . S
C465 C457 1.433 . S
C465 N467 1.384 . S
N466 C462 1.427 . S
N466 C463 1.384 . S
N467 C459 1.427 . S
N467 C465 1.384 . S
H468 C474 0.930 . S
H469 C478 0.930 . S
H470 C483 0.929 1_554 S
H471 C481 0.929 . S
H472 C476 0.929 . S
H473 C482 0.929 . S
C474 H468 0.930 . S
C474 C475 1.367 . S
C474 C482 1.378 . S
C475 C474 1.367 . S
C475 C483 1.433 . S
C476 H472 0.929 . S
C476 C478 1.378 . S
C476 C480 1.350 1_554 S
C477 C480 1.463 . S
C477 C482 1.350 . S
C477 N485 1.427 1_556 S
C478 H469 0.930 . S
C478 C476 1.378 . S
C478 C479 1.367 . S
C479 C478 1.367 . S
C479 C481 1.433 1_554 S
C480 C476 1.350 1_556 S
C480 C477 1.463 . S
C480 N484 1.427 . S
C481 H471 0.929 . S
C481 C479 1.433 1_556 S
C481 N484 1.384 . S
C482 H473 0.929 . S
C482 C474 1.378 . S
C482 C477 1.350 . S
C483 H470 0.929 1_556 S
C483 C475 1.433 . S
C483 N485 1.384 1_556 S
N484 C480 1.427 . S
N484 C481 1.384 . S
N485 C477 1.427 1_554 S
N485 C483 1.384 1_554 S
H486 C492 0.930 . S
H487 C496 0.930 . S
H488 C501 0.929 . S
H489 C499 0.929 1_565 S
H490 C494 0.929 . S
H491 C500 0.929 . S
C492 H486 0.930 . S
C492 C493 1.367 . S
C492 C500 1.378 . S
C493 C492 1.367 . S
C493 C501 1.433 . S
C494 H490 0.929 . S
C494 C496 1.378 . S
C494 C498 1.350 . S
C495 C498 1.463 . S
C495 C500 1.350 . S
C495 N503 1.427 . S
C496 H487 0.930 . S
C496 C494 1.378 . S
C496 C497 1.367 . S
C497 C496 1.367 . S
C497 C499 1.433 . S
C498 C494 1.350 . S
C498 C495 1.463 . S
C498 N502 1.427 . S
C499 H489 0.929 1_545 S
C499 C497 1.433 . S
C499 N502 1.384 . S
C500 H491 0.929 . S
C500 C492 1.378 . S
C500 C495 1.350 . S
C501 H488 0.929 . S
C501 C493 1.433 . S
C501 N503 1.384 . S
N502 C498 1.427 . S
N502 C499 1.384 . S
N503 C495 1.427 . S
N503 C501 1.384 . S
H504 C510 0.930 . S
H505 C514 0.930 1_556 S
H506 C519 0.929 . S
H507 C517 0.929 . S
H508 C512 0.929 . S
H509 C518 0.929 . S
C510 H504 0.930 . S
C510 C511 1.367 . S
C510 C518 1.378 . S
C511 C510 1.367 . S
C511 C519 1.433 . S
C512 H508 0.929 . S
C512 C514 1.378 . S
C512 C516 1.350 . S
C513 C516 1.463 . S
C513 C518 1.350 . S
C513 N521 1.427 . S
C514 H505 0.930 1_554 S
C514 C512 1.378 . S
C514 C515 1.367 . S
C515 C514 1.367 . S
C515 C517 1.433 . S
C516 C512 1.350 . S
C516 C513 1.463 . S
C516 N520 1.427 . S
C517 H507 0.929 . S
C517 C515 1.433 . S
C517 N520 1.384 . S
C518 H509 0.929 . S
C518 C510 1.378 . S
C518 C513 1.350 . S
C519 H506 0.929 . S
C519 C511 1.433 . S
C519 N521 1.384 . S
N520 C516 1.427 . S
N520 C517 1.384 . S
N521 C513 1.427 . S
N521 C519 1.384 . S
H522 C528 0.930 . S
H523 C532 0.930 . S
H524 C537 0.929 . S
H525 C535 0.929 . S
H526 C530 0.929 . S
H527 C536 0.929 . S
C528 H522 0.930 . S
C528 C529 1.367 . S
C528 C536 1.378 . S
C529 C528 1.367 . S
C529 C537 1.433 . S
C530 H526 0.929 . S
C530 C532 1.378 . S
C530 C534 1.350 . S
C531 C534 1.463 . S
C531 C536 1.350 . S
C531 N539 1.427 . S
C532 H523 0.930 . S
C532 C530 1.378 . S
C532 C533 1.367 . S
C533 C532 1.367 . S
C533 C535 1.433 . S
C534 C530 1.350 . S
C534 C531 1.463 . S
C534 N538 1.427 . S
C535 H525 0.929 . S
C535 C533 1.433 . S
C535 N538 1.384 . S
C536 H527 0.929 . S
C536 C528 1.378 . S
C536 C531 1.350 . S
C537 H524 0.929 . S
C537 C529 1.433 . S
C537 N539 1.384 . S
N538 C534 1.427 . S
N538 C535 1.384 . S
N539 C531 1.427 . S
N539 C537 1.384 . S
H540 C546 0.930 . S
H541 C550 0.930 . S
H542 C555 0.929 . S
H543 C553 0.943 . S
H544 C548 0.929 . S
H545 C554 0.929 . S
C546 H540 0.930 . S
C546 C547 1.367 . S
C546 C554 1.378 . S
C547 C546 1.367 . S
C547 C555 1.433 1_655 S
C548 H544 0.929 . S
C548 C550 1.378 . S
C548 C552 1.350 . S
C549 C552 1.463 . S
C549 C554 1.350 1_455 S
C549 N557 1.427 . S
C550 H541 0.930 . S
C550 C548 1.378 . S
C550 C551 1.367 . S
C551 C550 1.367 . S
C551 C553 1.411 1_455 S
C552 C548 1.350 . S
C552 C549 1.463 . S
C552 N556 1.427 1_455 S
C553 H543 0.943 . S
C553 C551 1.411 1_655 S
C553 N556 1.391 . S
C554 H545 0.929 . S
C554 C546 1.378 . S
C554 C549 1.350 1_655 S
C555 H542 0.929 . S
C555 C547 1.433 1_455 S
C555 N557 1.384 . S
N556 C552 1.427 1_655 S
N556 C553 1.391 . S
N557 C549 1.427 . S
N557 C555 1.384 . S
H558 C564 0.930 . S
H559 C568 0.930 . S
H560 C573 0.929 . S
H561 C571 0.929 . S
H562 C566 0.929 . S
H563 C572 0.929 . S
C564 H558 0.930 . S
C564 C565 1.367 . S
C564 C572 1.378 . S
C565 C564 1.367 . S
C565 C573 1.433 . S
C566 H562 0.929 . S
C566 C568 1.378 . S
C566 C570 1.350 . S
C567 C570 1.463 . S
C567 C572 1.350 . S
C567 N575 1.427 . S
C568 H559 0.930 . S
C568 C566 1.378 . S
C568 C569 1.367 . S
C569 C568 1.367 . S
C569 C571 1.433 . S
C570 C566 1.350 . S
C570 C567 1.463 . S
C570 N574 1.427 . S
C571 H561 0.929 . S
C571 C569 1.433 . S
C571 N574 1.384 . S
C572 H563 0.929 . S
C572 C564 1.378 . S
C572 C567 1.350 . S
C573 H560 0.929 . S
C573 C565 1.433 . S
C573 N575 1.384 . S
N574 C570 1.427 . S
N574 C571 1.384 . S
N575 C567 1.427 . S
N575 C573 1.384 . S
H576 C582 0.930 . S
H577 C586 0.930 . S
H578 C591 0.929 . S
H579 C589 0.929 1_655 S
H580 C584 0.929 . S
H581 C590 0.929 . S
C582 H576 0.930 . S
C582 C583 1.367 . S
C582 C590 1.378 . S
C583 C582 1.367 . S
C583 C591 1.433 . S
C584 H580 0.929 . S
C584 C586 1.378 . S
C584 C588 1.350 . S
C585 C588 1.463 . S
C585 C590 1.350 . S
C585 N593 1.427 . S
C586 H577 0.930 . S
C586 C584 1.378 . S
C586 C587 1.367 . S
C587 C586 1.367 . S
C587 C589 1.433 . S
C588 C584 1.350 . S
C588 C585 1.463 . S
C588 N592 1.427 . S
C589 H579 0.929 1_455 S
C589 C587 1.433 . S
C589 N592 1.384 . S
C590 H581 0.929 . S
C590 C582 1.378 . S
C590 C585 1.350 . S
C591 H578 0.929 . S
C591 C583 1.433 . S
C591 N593 1.384 . S
N592 C588 1.427 . S
N592 C589 1.384 . S
N593 C585 1.427 . S
N593 C591 1.384 . S
H594 C600 0.930 . S
H595 C604 0.930 . S
H596 C609 0.929 . S
H597 C607 0.929 . S
H598 C602 0.929 . S
H599 C608 0.929 . S
C600 H594 0.930 . S
C600 C601 1.367 . S
C600 C608 1.378 . S
C601 C600 1.367 . S
C601 C609 1.433 . S
C602 H598 0.929 . S
C602 C604 1.378 . S
C602 C606 1.350 . S
C603 C606 1.463 . S
C603 C608 1.350 . S
C603 N611 1.427 . S
C604 H595 0.930 . S
C604 C602 1.378 . S
C604 C605 1.367 . S
C605 C604 1.367 . S
C605 C607 1.433 . S
C606 C602 1.350 . S
C606 C603 1.463 . S
C606 N610 1.427 . S
C607 H597 0.929 . S
C607 C605 1.433 . S
C607 N610 1.384 . S
C608 H599 0.929 . S
C608 C600 1.378 . S
C608 C603 1.350 . S
C609 H596 0.929 . S
C609 C601 1.433 . S
C609 N611 1.384 . S
N610 C606 1.427 . S
N610 C607 1.384 . S
N611 C603 1.427 . S
N611 C609 1.384 . S
C187 C6 1.723 . S
C191 C99 1.605 . S
C205 C18 1.791 . S
C209 C133 1.673 . S
C227 C145 1.388 . S
C223 C28 1.493 . S
C241 C40 1.035 . S
C245 C179 0.988 1_655 S
C263 C136 1.671 . S
C259 C9 1.798 . S
C281 C116 1.413 . S
C277 C16 1.511 . S
C299 C163 1.432 . S
C295 C30 1.529 . S
C317 C154 1.157 . S
C313 C42 1.251 . S
C331 C4 1.526 . S
C335 C162 1.445 . S
C353 C124 1.442 . S
C349 C33 1.573 . S
C367 C45 1.293 . S
C371 C100 1.194 . S
C385 C21 1.763 . S
C389 C157 1.664 . S
C407 C115 1.668 1_565 S
C403 C57 1.798 . S
C421 C66 1.857 . S
C425 C137 1.728 . S
C439 C76 1.663 . S
C443 C142 1.579 . S
C457 C88 1.111 . S
C461 C175 1.074 . S
C475 C54 1.837 . S
C479 C120 1.719 . S
C497 C112 1.533 . S
C493 C64 1.627 . S
C515 C166 1.410 . S
C511 C78 1.459 . S
C533 C158 1.260 . S
C529 C93 1.356 . S
C547 C52 1.480 . S
C551 C178 1.414 . S
C569 C121 1.537 . S
C565 C81 1.646 . S
C587 C103 1.340 . S
C583 C90 1.419 . S
C601 C69 1.816 . S
C605 C141 1.704 . S
