# Generated by pormake.
# Topology llk, (3,12)-cn, num edge types: 1
# Building blocks:
#     Node 0, Type 0, BuildingBlock: MIDCAF_clean_linker_0, # of connection points: 3
#     Node 1, Type 0, BuildingBlock: MIDCAF_clean_linker_0, # of connection points: 3
#     Node 2, Type 0, BuildingBlock: MIDCAF_clean_linker_0, # of connection points: 3
#     Node 3, Type 0, BuildingBlock: MIDCAF_clean_linker_0, # of connection points: 3
#     Node 4, Type 0, BuildingBlock: MIDCAF_clean_linker_0, # of connection points: 3
#     Node 5, Type 0, BuildingBlock: MIDCAF_clean_linker_0, # of connection points: 3
#     Node 6, Type 0, BuildingBlock: MIDCAF_clean_linker_0, # of connection points: 3
#     Node 7, Type 0, BuildingBlock: MIDCAF_clean_linker_0, # of connection points: 3
#     Node 8, Type 0, BuildingBlock: MIDCAF_clean_linker_0, # of connection points: 3
#     Node 9, Type 0, BuildingBlock: MIDCAF_clean_linker_0, # of connection points: 3
#     Node 10, Type 0, BuildingBlock: MIDCAF_clean_linker_0, # of connection points: 3
#     Node 11, Type 0, BuildingBlock: MIDCAF_clean_linker_0, # of connection points: 3
#     Node 12, Type 0, BuildingBlock: MIDCAF_clean_linker_0, # of connection points: 3
#     Node 13, Type 0, BuildingBlock: MIDCAF_clean_linker_0, # of connection points: 3
#     Node 14, Type 0, BuildingBlock: MIDCAF_clean_linker_0, # of connection points: 3
#     Node 15, Type 0, BuildingBlock: MIDCAF_clean_linker_0, # of connection points: 3
#     Node 16, Type 0, BuildingBlock: MIDCAF_clean_linker_0, # of connection points: 3
#     Node 17, Type 0, BuildingBlock: MIDCAF_clean_linker_0, # of connection points: 3
#     Node 18, Type 0, BuildingBlock: MIDCAF_clean_linker_0, # of connection points: 3
#     Node 19, Type 0, BuildingBlock: MIDCAF_clean_linker_0, # of connection points: 3
#     Node 20, Type 0, BuildingBlock: MIDCAF_clean_linker_0, # of connection points: 3
#     Node 21, Type 0, BuildingBlock: MIDCAF_clean_linker_0, # of connection points: 3
#     Node 22, Type 0, BuildingBlock: MIDCAF_clean_linker_0, # of connection points: 3
#     Node 23, Type 0, BuildingBlock: MIDCAF_clean_linker_0, # of connection points: 3
#     Node 24, Type 1, BuildingBlock: EZIPEK_clean_sbu_0, # of connection points: 12
#     Node 25, Type 1, BuildingBlock: EZIPEK_clean_sbu_0, # of connection points: 12
#     Node 26, Type 1, BuildingBlock: EZIPEK_clean_sbu_0, # of connection points: 12
#     Node 27, Type 1, BuildingBlock: EZIPEK_clean_sbu_0, # of connection points: 12
#     Node 28, Type 1, BuildingBlock: EZIPEK_clean_sbu_0, # of connection points: 12
#     Node 29, Type 1, BuildingBlock: EZIPEK_clean_sbu_0, # of connection points: 12
#     Edge 30, Type (0, 1), BuildingBlock: EZIPEK_clean_linker_0, # of connection points: 2
#     Edge 31, Type (0, 1), BuildingBlock: EZIPEK_clean_linker_0, # of connection points: 2
#     Edge 32, Type (0, 1), BuildingBlock: EZIPEK_clean_linker_0, # of connection points: 2
#     Edge 33, Type (0, 1), BuildingBlock: EZIPEK_clean_linker_0, # of connection points: 2
#     Edge 34, Type (0, 1), BuildingBlock: EZIPEK_clean_linker_0, # of connection points: 2
#     Edge 35, Type (0, 1), BuildingBlock: EZIPEK_clean_linker_0, # of connection points: 2
#     Edge 36, Type (0, 1), BuildingBlock: EZIPEK_clean_linker_0, # of connection points: 2
#     Edge 37, Type (0, 1), BuildingBlock: EZIPEK_clean_linker_0, # of connection points: 2
#     Edge 38, Type (0, 1), BuildingBlock: EZIPEK_clean_linker_0, # of connection points: 2
#     Edge 39, Type (0, 1), BuildingBlock: EZIPEK_clean_linker_0, # of connection points: 2
#     Edge 40, Type (0, 1), BuildingBlock: EZIPEK_clean_linker_0, # of connection points: 2
#     Edge 41, Type (0, 1), BuildingBlock: EZIPEK_clean_linker_0, # of connection points: 2
#     Edge 42, Type (0, 1), BuildingBlock: EZIPEK_clean_linker_0, # of connection points: 2
#     Edge 43, Type (0, 1), BuildingBlock: EZIPEK_clean_linker_0, # of connection points: 2
#     Edge 44, Type (0, 1), BuildingBlock: EZIPEK_clean_linker_0, # of connection points: 2
#     Edge 45, Type (0, 1), BuildingBlock: EZIPEK_clean_linker_0, # of connection points: 2
#     Edge 46, Type (0, 1), BuildingBlock: EZIPEK_clean_linker_0, # of connection points: 2
#     Edge 47, Type (0, 1), BuildingBlock: EZIPEK_clean_linker_0, # of connection points: 2
#     Edge 48, Type (0, 1), BuildingBlock: EZIPEK_clean_linker_0, # of connection points: 2
#     Edge 49, Type (0, 1), BuildingBlock: EZIPEK_clean_linker_0, # of connection points: 2
#     Edge 50, Type (0, 1), BuildingBlock: EZIPEK_clean_linker_0, # of connection points: 2
#     Edge 51, Type (0, 1), BuildingBlock: EZIPEK_clean_linker_0, # of connection points: 2
#     Edge 52, Type (0, 1), BuildingBlock: EZIPEK_clean_linker_0, # of connection points: 2
#     Edge 53, Type (0, 1), BuildingBlock: EZIPEK_clean_linker_0, # of connection points: 2
#     Edge 54, Type (0, 1), BuildingBlock: EZIPEK_clean_linker_0, # of connection points: 2
#     Edge 55, Type (0, 1), BuildingBlock: EZIPEK_clean_linker_0, # of connection points: 2
#     Edge 56, Type (0, 1), BuildingBlock: EZIPEK_clean_linker_0, # of connection points: 2
#     Edge 57, Type (0, 1), BuildingBlock: EZIPEK_clean_linker_0, # of connection points: 2
#     Edge 58, Type (0, 1), BuildingBlock: EZIPEK_clean_linker_0, # of connection points: 2
#     Edge 59, Type (0, 1), BuildingBlock: EZIPEK_clean_linker_0, # of connection points: 2
#     Edge 60, Type (0, 1), BuildingBlock: EZIPEK_clean_linker_0, # of connection points: 2
#     Edge 61, Type (0, 1), BuildingBlock: EZIPEK_clean_linker_0, # of connection points: 2
#     Edge 62, Type (0, 1), BuildingBlock: EZIPEK_clean_linker_0, # of connection points: 2
#     Edge 63, Type (0, 1), BuildingBlock: EZIPEK_clean_linker_0, # of connection points: 2
#     Edge 64, Type (0, 1), BuildingBlock: EZIPEK_clean_linker_0, # of connection points: 2
#     Edge 65, Type (0, 1), BuildingBlock: EZIPEK_clean_linker_0, # of connection points: 2
#     Edge 66, Type (0, 1), BuildingBlock: EZIPEK_clean_linker_0, # of connection points: 2
#     Edge 67, Type (0, 1), BuildingBlock: EZIPEK_clean_linker_0, # of connection points: 2
#     Edge 68, Type (0, 1), BuildingBlock: EZIPEK_clean_linker_0, # of connection points: 2
#     Edge 69, Type (0, 1), BuildingBlock: EZIPEK_clean_linker_0, # of connection points: 2
#     Edge 70, Type (0, 1), BuildingBlock: EZIPEK_clean_linker_0, # of connection points: 2
#     Edge 71, Type (0, 1), BuildingBlock: EZIPEK_clean_linker_0, # of connection points: 2
#     Edge 72, Type (0, 1), BuildingBlock: EZIPEK_clean_linker_0, # of connection points: 2
#     Edge 73, Type (0, 1), BuildingBlock: EZIPEK_clean_linker_0, # of connection points: 2
#     Edge 74, Type (0, 1), BuildingBlock: EZIPEK_clean_linker_0, # of connection points: 2
#     Edge 75, Type (0, 1), BuildingBlock: EZIPEK_clean_linker_0, # of connection points: 2
#     Edge 76, Type (0, 1), BuildingBlock: EZIPEK_clean_linker_0, # of connection points: 2
#     Edge 77, Type (0, 1), BuildingBlock: EZIPEK_clean_linker_0, # of connection points: 2
#     Edge 78, Type (0, 1), BuildingBlock: EZIPEK_clean_linker_0, # of connection points: 2
#     Edge 79, Type (0, 1), BuildingBlock: EZIPEK_clean_linker_0, # of connection points: 2
#     Edge 80, Type (0, 1), BuildingBlock: EZIPEK_clean_linker_0, # of connection points: 2
#     Edge 81, Type (0, 1), BuildingBlock: EZIPEK_clean_linker_0, # of connection points: 2
#     Edge 82, Type (0, 1), BuildingBlock: EZIPEK_clean_linker_0, # of connection points: 2
#     Edge 83, Type (0, 1), BuildingBlock: EZIPEK_clean_linker_0, # of connection points: 2
#     Edge 84, Type (0, 1), BuildingBlock: EZIPEK_clean_linker_0, # of connection points: 2
#     Edge 85, Type (0, 1), BuildingBlock: EZIPEK_clean_linker_0, # of connection points: 2
#     Edge 86, Type (0, 1), BuildingBlock: EZIPEK_clean_linker_0, # of connection points: 2
#     Edge 87, Type (0, 1), BuildingBlock: EZIPEK_clean_linker_0, # of connection points: 2
#     Edge 88, Type (0, 1), BuildingBlock: EZIPEK_clean_linker_0, # of connection points: 2
#     Edge 89, Type (0, 1), BuildingBlock: EZIPEK_clean_linker_0, # of connection points: 2
#     Edge 90, Type (0, 1), BuildingBlock: EZIPEK_clean_linker_0, # of connection points: 2
#     Edge 91, Type (0, 1), BuildingBlock: EZIPEK_clean_linker_0, # of connection points: 2
#     Edge 92, Type (0, 1), BuildingBlock: EZIPEK_clean_linker_0, # of connection points: 2
#     Edge 93, Type (0, 1), BuildingBlock: EZIPEK_clean_linker_0, # of connection points: 2
#     Edge 94, Type (0, 1), BuildingBlock: EZIPEK_clean_linker_0, # of connection points: 2
#     Edge 95, Type (0, 1), BuildingBlock: EZIPEK_clean_linker_0, # of connection points: 2
#     Edge 96, Type (0, 1), BuildingBlock: EZIPEK_clean_linker_0, # of connection points: 2
#     Edge 97, Type (0, 1), BuildingBlock: EZIPEK_clean_linker_0, # of connection points: 2
#     Edge 98, Type (0, 1), BuildingBlock: EZIPEK_clean_linker_0, # of connection points: 2
#     Edge 99, Type (0, 1), BuildingBlock: EZIPEK_clean_linker_0, # of connection points: 2
#     Edge 100, Type (0, 1), BuildingBlock: EZIPEK_clean_linker_0, # of connection points: 2
#     Edge 101, Type (0, 1), BuildingBlock: EZIPEK_clean_linker_0, # of connection points: 2
# Relax obj value: 0.107
# Max RMSD: 0.161
# Mean RMSD: 0.135
data_MOF--net-llk--node1-EZIPEK_clean_sbu_0--node2-MIDCAF_clean_linker_0--edge1-EZIPEK_clean_linker_0
_symmetry_space_group_name_H-M    P1
_symmetry_Int_Tables_number       1
_symmetry_cell_setting            triclinic
loop_
_symmetry_equiv_pos_as_xyz
'x, y, z'
_cell_length_a     44.341501
_cell_length_b     44.620721
_cell_length_c     44.620895
_cell_angle_alpha  89.979774
_cell_angle_beta   89.970261
_cell_angle_gamma 89.954428
loop_
_atom_site_label
_atom_site_type_symbol
_atom_site_fract_x
_atom_site_fract_y
_atom_site_fract_z
_atom_type_partial_charge
C0 C 0.03178 0.32507 0.18167 0.0
C1 C 1.00813 0.33123 0.16167 0.0
C2 C 0.98278 0.31238 0.16151 0.0
C3 C 0.98015 0.28911 0.18251 0.0
H4 H 0.04831 0.21117 0.28804 0.0
H5 H 0.05513 0.1727 0.32707 0.0
H6 H 0.9608 0.15034 0.32102 0.0
H7 H 0.95413 0.18833 0.28201 0.0
H8 H 0.96786 0.27043 0.34092 0.0
H9 H 0.9712 0.30877 0.37977 0.0
H10 H 0.96921 0.3779 0.31229 0.0
H11 H 0.9657 0.34002 0.27314 0.0
H12 H 0.04659 0.29905 0.21938 0.0
H13 H 0.05162 0.33921 0.182 0.0
H14 H 0.96438 0.31664 0.14612 0.0
H15 H 0.95919 0.27669 0.18372 0.0
N16 N 1.00146 0.24157 0.24094 0.0
N17 N 0.9809 0.2514 0.28865 0.0
N18 N 0.98178 0.28918 0.25277 0.0
C19 C 0.9938 0.23203 0.26917 0.0
C20 C 0.97494 0.27997 0.28075 0.0
C21 C 0.99463 0.27042 0.2327 0.0
C22 C 1.00088 0.20207 0.2813 0.0
C23 C 0.02948 0.19686 0.2939 0.0
C24 C 0.03322 0.1754 0.31669 0.0
C25 C 1.00832 0.15908 0.32744 0.0
C26 C 0.98027 0.16281 0.31331 0.0
C27 C 0.9766 0.18409 0.29056 0.0
C28 C 0.96741 0.3022 0.30389 0.0
C29 C 0.96722 0.29377 0.33429 0.0
C30 C 0.96925 0.31553 0.35652 0.0
C31 C 0.97123 0.34576 0.34849 0.0
C32 C 0.96813 0.35445 0.31855 0.0
C33 C 0.96605 0.33276 0.2963 0.0
C34 C 1.003 0.28397 0.20373 0.0
C35 C 0.02921 0.30167 0.20252 0.0
C36 C 0.69906 0.98002 0.16735 0.0
C37 C 0.69071 0.0081 0.1558 0.0
C38 C 0.70728 0.03348 0.16503 0.0
C39 C 0.72989 0.031 0.18722 0.0
H40 H 0.8416 0.9779 0.26596 0.0
H41 H 0.87978 0.98075 0.30584 0.0
H42 H 0.8342 0.05744 0.3432 0.0
H43 H 0.79703 0.05532 0.30284 0.0
H44 H 0.74981 0.98064 0.34083 0.0
H45 H 0.71152 0.9815 0.38018 0.0
H46 H 0.64137 0.98001 0.31333 0.0
H47 H 0.67919 0.979 0.2737 0.0
H48 H 0.72602 0.9557 0.1988 0.0
H49 H 0.68699 0.96002 0.1606 0.0
H50 H 0.70157 0.05541 0.15629 0.0
H51 H 0.74021 0.05118 0.19594 0.0
N52 N 0.77845 0.01002 0.2387 0.0
N53 N 0.76776 0.99605 0.28858 0.0
N54 N 0.73114 0.98978 0.25192 0.0
C55 C 0.78734 0.00706 0.26815 0.0
C56 C 0.73976 0.98742 0.28078 0.0
C57 C 0.74992 1.00076 0.23068 0.0
C58 C 0.81672 0.01694 0.2806 0.0
C59 C 0.84093 0.99655 0.28149 0.0
C60 C 0.8624 0.99778 0.30476 0.0
C61 C 0.85969 0.019 0.32803 0.0
C62 C 0.83692 0.0408 0.32573 0.0
C63 C 0.81593 0.03992 0.30222 0.0
C64 C 0.71749 0.98045 0.30414 0.0
C65 C 0.72626 0.97981 0.33444 0.0
C66 C 0.70454 0.98035 0.35694 0.0
C67 C 0.67399 0.98147 0.34929 0.0
C68 C 0.66505 0.97949 0.31931 0.0
C69 C 0.6867 0.97883 0.29679 0.0
C70 C 0.73677 1.003 0.20007 0.0
C71 C 0.72182 0.97751 0.18892 0.0
C72 C 0.98438 0.68932 0.17928 0.0
C73 C 1.00697 0.68498 0.15763 0.0
C74 C 0.03111 0.7053 0.15633 0.0
C75 C 0.03392 0.72805 0.17786 0.0
H76 H 0.96962 0.79839 0.28919 0.0
H77 H 0.9617 0.83618 0.32878 0.0
H78 H 0.05577 0.85995 0.32431 0.0
H79 H 0.0636 0.82253 0.28496 0.0
H80 H 0.04751 0.6714 0.26596 0.0
H81 H 0.04522 0.63354 0.30509 0.0
H82 H 0.06559 0.70037 0.37178 0.0
H83 H 0.06726 0.73895 0.33288 0.0
H84 H 0.97089 0.71322 0.21883 0.0
H85 H 0.96551 0.67397 0.18062 0.0
H86 H 0.04873 0.70241 0.13976 0.0
H87 H 0.05427 0.74147 0.17813 0.0
N88 N 0.01497 0.77119 0.24067 0.0
N89 N 0.04011 0.75949 0.28575 0.0
N90 N 0.03801 0.72411 0.24754 0.0
C91 C 0.02458 0.77936 0.26876 0.0
C92 C 0.04675 0.73181 0.27544 0.0
C93 C 0.02256 0.74337 0.22992 0.0
C94 C 0.01704 0.80819 0.28332 0.0
C95 C 0.98822 0.81269 0.29573 0.0
C96 C 0.98384 0.83378 0.3188 0.0
C97 C 1.0083 0.85048 0.32997 0.0
C98 C 0.03664 0.84716 0.31632 0.0
C99 C 0.04097 0.82617 0.29341 0.0
C100 C 0.05652 0.70838 0.29651 0.0
C101 C 0.0525 0.67807 0.28876 0.0
C102 C 0.05108 0.65635 0.31104 0.0
C103 C 0.05444 0.66461 0.34106 0.0
C104 C 0.06257 0.69397 0.34855 0.0
C105 C 0.06355 0.71587 0.32632 0.0
C106 C 0.01246 0.73115 0.20088 0.0
C107 C 0.98712 0.71219 0.2007 0.0
C108 C 0.32441 0.02438 0.1672 0.0
C109 C 0.33131 0.99613 0.15518 0.0
C110 C 0.31324 0.97151 0.16386 0.0
C111 C 0.29055 0.97483 0.18594 0.0
H112 H 0.17905 0.0293 0.26507 0.0
H113 H 0.14104 0.02565 0.30493 0.0
H114 H 0.18459 0.94618 0.3386 0.0
H115 H 0.22228 0.94963 0.29857 0.0
H116 H 0.26793 0.03003 0.33868 0.0
H117 H 0.30667 0.033 0.3775 0.0
H118 H 0.37533 0.04186 0.30963 0.0
H119 H 0.33709 0.03954 0.27067 0.0
H120 H 0.29814 0.04975 0.19825 0.0
H121 H 0.33756 0.04385 0.16089 0.0
H122 H 0.31769 0.9495 0.15465 0.0
H123 H 0.27894 0.95513 0.19416 0.0
N124 N 0.24265 0.99539 0.23707 0.0
N125 N 0.25071 0.01336 0.28623 0.0
N126 N 0.28785 0.01983 0.25009 0.0
C127 C 0.23263 0.99966 0.26602 0.0
C128 C 0.27826 0.02349 0.27849 0.0
C129 C 0.27068 0.00611 0.22916 0.0
C130 C 0.20322 0.98922 0.27796 0.0
C131 C 0.17933 0.00993 0.27971 0.0
C132 C 0.15788 0.00816 0.30292 0.0
C133 C 0.16002 0.98579 0.32509 0.0
C134 C 0.18227 0.96358 0.32181 0.0
C135 C 0.20356 0.96527 0.29852 0.0
C136 C 0.29957 0.03363 0.3016 0.0
C137 C 0.29114 0.03352 0.33199 0.0
C138 C 0.31315 0.03521 0.35419 0.0
C139 C 0.34361 0.03693 0.3461 0.0
C140 C 0.3518 0.0402 0.31602 0.0
C141 C 0.32988 0.03882 0.29385 0.0
C142 C 0.28504 1.00298 0.19909 0.0
C143 C 0.30146 0.02779 0.18839 0.0
C144 C 0.03378 0.68681 0.8264 0.0
C145 C 0.01157 0.68145 0.84821 0.0
C146 C 0.98708 0.70137 0.85034 0.0
C147 C 0.98387 0.72504 0.82978 0.0
H148 H 0.95955 0.83374 0.73655 0.0
H149 H 0.96649 0.87129 0.69701 0.0
H150 H 0.05705 0.83946 0.68253 0.0
H151 H 0.05016 0.80198 0.7223 0.0
H152 H 0.98411 0.74808 0.67188 0.0
H153 H 0.98773 0.70937 0.63406 0.0
H154 H 0.95226 0.64431 0.69633 0.0
H155 H 0.9501 0.68295 0.73541 0.0
H156 H 0.04693 0.71278 0.78802 0.0
H157 H 0.05291 0.67183 0.82439 0.0
H158 H 0.9697 0.69771 0.86701 0.0
H159 H 0.9635 0.73845 0.83033 0.0
N160 N 1.00392 0.77418 0.77221 0.0
N161 N 0.98156 0.76781 0.7248 0.0
N162 N 0.98209 0.72798 0.75848 0.0
C163 C 0.99569 0.78564 0.74481 0.0
C164 C 0.97486 0.73905 0.73126 0.0
C165 C 0.99615 0.74517 0.77919 0.0
C166 C 1.00463 0.81548 0.73332 0.0
C167 C 0.98155 0.83596 0.72621 0.0
C168 C 0.9853 0.85706 0.70316 0.0
C169 C 0.01216 0.85799 0.68646 0.0
C170 C 0.03613 0.83921 0.69506 0.0
C171 C 0.03239 0.81817 0.71826 0.0
C172 C 0.96738 0.71836 0.70681 0.0
C173 C 0.97625 0.72579 0.67751 0.0
C174 C 0.97852 0.70366 0.65583 0.0
C175 C 0.97092 0.67401 0.66277 0.0
C176 C 0.95864 0.66711 0.69091 0.0
C177 C 0.95726 0.68916 0.71304 0.0
C178 C 1.00536 0.72961 0.80704 0.0
C179 C 0.03068 0.71062 0.80604 0.0
C180 C 0.18637 0.04017 0.68586 0.0
C181 C 0.16205 0.0202 0.68321 0.0
C182 C 0.1571 0.99937 0.70643 0.0
C183 C 0.17797 0.99641 0.72997 0.0
H184 H 0.27793 0.04479 0.81375 0.0
H185 H 0.31672 0.05116 0.85303 0.0
H186 H 0.33696 0.95675 0.84832 0.0
H187 H 0.29777 0.95019 0.81083 0.0
H188 H 0.33618 0.96184 0.73617 0.0
H189 H 0.37339 0.96397 0.69608 0.0
H190 H 0.30232 0.97102 0.63057 0.0
H191 H 0.26464 0.96918 0.67043 0.0
H192 H 0.22705 0.0512 0.70923 0.0
H193 H 0.19075 0.05642 0.66834 0.0
H194 H 0.13848 0.98374 0.70497 0.0
H195 H 0.17556 0.97784 0.74543 0.0
N196 N 0.24246 1.00564 0.77184 0.0
N197 N 0.28636 0.97888 0.75865 0.0
N198 N 0.24929 0.987 0.72284 0.0
C199 C 0.26985 0.99344 0.77965 0.0
C200 C 0.27644 0.97567 0.73028 0.0
C201 C 0.23203 1.00161 0.74311 0.0
C202 C 0.28454 0.99693 0.80939 0.0
C203 C 0.28969 0.02527 0.82222 0.0
C204 C 0.31229 0.02899 0.84421 0.0
C205 C 0.3304 1.00453 0.85319 0.0
C206 C 0.3237 0.97605 0.84168 0.0
C207 C 0.30097 0.97228 0.82041 0.0
C208 C 0.29749 0.96639 0.70653 0.0
C209 C 0.32829 0.96291 0.71323 0.0
C210 C 0.34962 0.96421 0.69042 0.0
C211 C 0.34032 0.96852 0.66079 0.0
C212 C 0.30962 0.96818 0.65356 0.0
C213 C 0.28822 0.96704 0.67637 0.0
C214 C 0.20386 0.01457 0.73105 0.0
C215 C 0.20686 0.03754 0.70963 0.0
C216 C 0.98392 0.31617 0.84101 0.0
C217 C 0.01029 0.32459 0.85623 0.0
C218 C 0.03661 0.30753 0.8521 0.0
C219 C 0.03721 0.2841 0.8311 0.0
H220 H 0.96219 0.20267 0.72613 0.0
H221 H 0.95988 0.16571 0.68532 0.0
H222 H 0.05592 0.15254 0.69208 0.0
H223 H 0.05809 0.18898 0.73306 0.0
H224 H 1.0033 0.27586 0.67615 0.0
H225 H 1.00111 0.31675 0.64007 0.0
H226 H 0.04583 0.37526 0.70288 0.0
H227 H 0.04739 0.33451 0.73978 0.0
H228 H 0.96453 0.28837 0.80693 0.0
H229 H 0.96329 0.32883 0.84408 0.0
H230 H 0.05714 0.3135 0.8638 0.0
H231 H 0.05856 0.27341 0.82604 0.0
N232 N 0.01143 0.23591 0.77546 0.0
N233 N 0.01946 0.24997 0.72517 0.0
N234 N 0.02125 0.28623 0.76255 0.0
C235 C 0.0139 0.22842 0.74571 0.0
C236 C 0.02319 0.27876 0.7334 0.0
C237 C 0.0155 0.2653 0.78369 0.0
C238 C 0.01017 0.19794 0.73354 0.0
C239 C 0.98247 0.19053 0.72007 0.0
C240 C 0.98126 0.17002 0.69621 0.0
C241 C 1.00784 0.15689 0.68511 0.0
C242 C 0.03516 0.1626 0.70002 0.0
C243 C 0.03629 0.18287 0.72396 0.0
C244 C 0.02549 0.30217 0.71067 0.0
C245 C 0.01302 0.29729 0.6822 0.0
C246 C 0.01153 0.32058 0.6617 0.0
C247 C 0.02301 0.3488 0.66922 0.0
C248 C 0.03663 0.35353 0.69711 0.0
C249 C 0.03759 0.33033 0.71794 0.0
C250 C 0.01137 0.27699 0.81429 0.0
C251 C 0.98444 0.29252 0.82036 0.0
C252 C 0.85159 0.97527 0.69747 0.0
C253 C 0.86276 1.00289 0.68731 0.0
C254 C 0.85342 0.0292 0.70217 0.0
C255 C 0.83129 0.02802 0.72484 0.0
H256 H 0.7519 0.98085 0.83661 0.0
H257 H 0.71296 0.98612 0.87552 0.0
H258 H 0.67617 0.06236 0.82887 0.0
H259 H 0.71535 0.05752 0.79054 0.0
H260 H 0.67788 0.97297 0.74509 0.0
H261 H 0.63744 0.97202 0.70769 0.0
H262 H 0.7025 0.98734 0.63751 0.0
H263 H 0.74308 0.98768 0.6743 0.0
H264 H 0.81993 0.95258 0.72569 0.0
H265 H 0.8584 0.95464 0.68658 0.0
H266 H 0.8618 0.0508 0.69487 0.0
H267 H 0.82232 0.04878 0.73374 0.0
N268 N 0.77924 0.00964 0.77363 0.0
N269 N 0.72868 0.99763 0.7624 0.0
N270 N 0.76606 0.98878 0.7269 0.0
C271 C 0.74939 0.00829 0.78194 0.0
C272 C 0.73678 0.98787 0.73495 0.0
C273 C 0.78746 0.99931 0.74576 0.0
C274 C 0.73723 0.01923 0.81088 0.0
C275 C 0.73674 0.99987 0.83573 0.0
C276 C 0.71411 1.00258 0.85772 0.0
C277 C 0.6913 0.02443 0.85498 0.0
C278 C 0.69342 0.04537 0.83159 0.0
C279 C 0.71616 0.04284 0.80988 0.0
C280 C 0.71353 0.98085 0.71262 0.0
C281 C 0.68364 0.9754 0.72162 0.0
C282 C 0.66058 0.97482 0.70041 0.0
C283 C 0.66726 0.98013 0.67021 0.0
C284 C 0.69719 0.98344 0.6609 0.0
C285 C 0.72028 0.98352 0.68195 0.0
C286 C 0.81847 1.00046 0.73332 0.0
C287 C 0.82987 0.97408 0.72021 0.0
C288 C 0.18376 0.3243 0.04828 0.0
C289 C 0.16101 0.32749 0.02661 0.0
C290 C 0.15819 0.30516 1.00449 0.0
C291 C 0.17945 0.2818 1.0024 0.0
H292 H 0.27841 0.19476 0.05532 0.0
H293 H 0.31604 0.15413 0.05972 0.0
H294 H 0.33104 0.15779 0.96434 0.0
H295 H 0.29304 0.197 0.95984 0.0
H296 H 0.33957 0.27102 0.97903 0.0
H297 H 0.37786 0.31009 0.97755 0.0
H298 H 0.30862 0.37794 0.97936 0.0
H299 H 0.26984 0.33911 0.98117 0.0
H300 H 0.22379 0.30082 0.06158 0.0
H301 H 0.18659 0.34121 0.06546 0.0
H302 H 0.14094 0.30714 0.98742 0.0
H303 H 0.17864 0.26697 0.9832 0.0
N304 N 0.24152 0.23802 0.01513 0.0
N305 N 0.28789 0.25022 0.99234 0.0
N306 N 0.252 0.2875 0.99963 0.0
C307 C 0.26945 0.22946 1.00471 0.0
C308 C 0.27949 0.27915 0.98978 0.0
C309 C 0.23278 0.26747 0.012 0.0
C310 C 0.28229 0.19874 0.00715 0.0
C311 C 0.28863 0.18575 0.03519 0.0
C312 C 0.31062 0.16297 0.03777 0.0
C313 C 0.32703 0.15327 0.01243 0.0
C314 C 0.31908 0.16492 0.98429 0.0
C315 C 0.29697 0.18712 0.98169 0.0
C316 C 0.30169 0.302 0.98101 0.0
C317 C 0.33231 0.29419 0.97836 0.0
C318 C 0.35426 0.31641 0.97752 0.0
C319 C 0.3458 0.34658 0.97894 0.0
C320 C 0.31528 0.35459 0.97856 0.0
C321 C 0.29327 0.33238 0.97961 0.0
C322 C 0.20374 0.28007 0.02259 0.0
C323 C 0.20478 0.30083 0.04633 0.0
C324 C 0.19375 0.68085 0.9727 0.0
C325 C 0.16726 0.68074 0.99 0.0
C326 C 0.16182 0.70514 0.00927 0.0
C327 C 0.18382 0.72744 0.01344 0.0
H328 H 0.27872 0.81198 0.97352 0.0
H329 H 0.31599 0.85227 0.96398 0.0
H330 H 0.36065 0.83088 0.04704 0.0
H331 H 0.32341 0.79321 0.05762 0.0
H332 H 0.33154 0.73071 0.07645 0.0
H333 H 0.36988 0.69168 0.07728 0.0
H334 H 0.3033 0.62601 0.05221 0.0
H335 H 0.26468 0.66488 0.05073 0.0
H336 H 0.23709 0.70093 0.9654 0.0
H337 H 0.19862 0.6623 0.95781 0.0
H338 H 0.14165 0.70556 0.02296 0.0
H339 H 0.18044 0.74392 0.03096 0.0
N340 N 0.25286 0.76429 0.00718 0.0
N341 N 0.29084 0.75143 0.04161 0.0
N342 N 0.25164 0.71814 0.03321 0.0
C343 C 0.27912 0.77147 0.02199 0.0
C344 C 0.27761 0.72489 0.04735 0.0
C345 C 0.23881 0.73749 0.01359 0.0
C346 C 0.2979 0.79889 0.01621 0.0
C347 C 0.29611 0.81638 0.98996 0.0
C348 C 0.31767 0.83913 0.98432 0.0
C349 C 0.34168 0.84431 1.00453 0.0
C350 C 0.34279 0.8273 0.03085 0.0
C351 C 0.32116 0.80552 0.03681 0.0
C352 C 0.29546 0.70109 0.06193 0.0
C353 C 0.32465 0.70779 0.07234 0.0
C354 C 0.34665 0.68553 0.07292 0.0
C355 C 0.33936 0.65644 0.0638 0.0
C356 C 0.30917 0.64861 0.05885 0.0
C357 C 0.28716 0.67092 0.05803 0.0
C358 C 0.21156 0.72607 0.99818 0.0
C359 C 0.21558 0.70332 0.97668 0.0
C360 C 0.83621 0.32577 0.96918 0.0
C361 C 0.85872 0.32905 0.99108 0.0
C362 C 0.86064 0.30733 0.01393 0.0
C363 C 0.83879 0.28456 0.01639 0.0
H364 H 0.73753 0.19745 0.96424 0.0
H365 H 0.69757 0.15903 0.96159 0.0
H366 H 0.68444 0.16629 0.05704 0.0
H367 H 0.72517 0.20269 0.05988 0.0
H368 H 0.6771 0.27765 0.02555 0.0
H369 H 0.6403 0.31808 0.02655 0.0
H370 H 0.7109 0.38187 0.04496 0.0
H371 H 0.74845 0.34152 0.04316 0.0
H372 H 0.79589 0.30284 0.9559 0.0
H373 H 0.83407 0.34218 0.95142 0.0
H374 H 0.87769 0.30936 0.03118 0.0
H375 H 0.83897 0.27025 0.03601 0.0
N376 N 0.77654 0.24123 1.00382 0.0
N377 N 0.72955 0.25464 0.02453 0.0
N378 N 0.76589 0.2914 0.01705 0.0
C379 C 0.7482 0.2333 0.01363 0.0
C380 C 0.73805 0.28353 0.02629 0.0
C381 C 0.78536 0.27076 0.00605 0.0
C382 C 0.73506 0.20269 0.01237 0.0
C383 C 0.72734 0.18945 0.9848 0.0
C384 C 0.70394 0.16802 0.98322 0.0
C385 C 0.68729 0.16014 0.00905 0.0
C386 C 0.69655 0.17195 0.03672 0.0
C387 C 0.72028 0.19249 0.03838 0.0
C388 C 0.71571 0.3066 0.03374 0.0
C389 C 0.68486 0.30012 0.03052 0.0
C390 C 0.66378 0.32311 0.031 0.0
C391 C 0.67322 0.35266 0.03534 0.0
C392 C 0.70355 0.359 0.04137 0.0
C393 C 0.72483 0.33603 0.04028 0.0
C394 C 0.81481 0.28277 0.99583 0.0
C395 C 0.81462 0.30288 0.97149 0.0
C396 C 0.69614 0.8431 0.96705 0.0
C397 C 0.69451 0.85862 0.99432 0.0
C398 C 0.71579 0.85154 0.01683 0.0
C399 C 0.73623 0.82748 0.01303 0.0
H400 H 0.84131 0.74367 0.96922 0.0
H401 H 0.88016 0.70494 0.97622 0.0
H402 H 0.82978 0.66846 0.05028 0.0
H403 H 0.79136 0.70733 0.04359 0.0
H404 H 0.74445 0.66884 0.97438 0.0
H405 H 0.70262 0.63339 0.9744 0.0
H406 H 0.64172 0.70349 0.94687 0.0
H407 H 0.68326 0.73933 0.94663 0.0
H408 H 0.71613 0.80751 0.94211 0.0
H409 H 0.68045 0.84819 0.94914 0.0
H410 H 0.71536 0.86345 0.03797 0.0
H411 H 0.75044 0.82081 0.0316 0.0
N412 N 0.77654 0.77124 0.9963 0.0
N413 N 0.76631 0.72144 0.98155 0.0
N414 N 0.73125 0.75888 0.97169 0.0
C415 C 0.78516 0.74165 0.99423 0.0
C416 C 0.73941 0.72982 0.97019 0.0
C417 C 0.74923 0.77984 0.98442 0.0
C418 C 0.81366 0.72919 0.00642 0.0
C419 C 0.83952 0.72859 0.98816 0.0
C420 C 0.8615 0.70608 0.99185 0.0
C421 C 0.85785 0.68351 0.01365 0.0
C422 C 0.83327 0.68557 0.03341 0.0
C423 C 0.8115 0.70815 0.02985 0.0
C424 C 0.71698 0.7071 0.9614 0.0
C425 C 0.72242 0.67662 0.96735 0.0
C426 C 0.69861 0.65629 0.96736 0.0
C427 C 0.66932 0.6662 0.96114 0.0
C428 C 0.66433 0.69573 0.95186 0.0
C429 C 0.6881 0.71611 0.95187 0.0
C430 C 0.73615 0.81063 0.98637 0.0
C431 C 0.71681 0.81983 0.96303 0.0
C432 C 0.48299 0.8162 0.67121 0.0
C433 C 0.50707 0.82538 0.65285 0.0
C434 C 0.53427 0.80929 0.65416 0.0
C435 C 0.53823 0.78632 0.67529 0.0
H436 H 0.55092 0.68021 0.76989 0.0
H437 H 0.54458 0.64306 0.81026 0.0
H438 H 0.46794 0.69221 0.84358 0.0
H439 H 0.47403 0.72903 0.80313 0.0
H440 H 0.56883 0.77861 0.82828 0.0
H441 H 0.56709 0.81867 0.86588 0.0
H442 H 0.5337 0.88006 0.79891 0.0
H443 H 0.53696 0.84119 0.7612 0.0
H444 H 0.46903 0.78864 0.70822 0.0
H445 H 0.46179 0.82827 0.67064 0.0
H446 H 0.55315 0.81588 0.64023 0.0
H447 H 0.56044 0.7765 0.67784 0.0
N448 N 0.51496 0.74068 0.73745 0.0
N449 N 0.5366 0.75506 0.78355 0.0
N450 N 0.53832 0.78771 0.7429 0.0
C451 C 0.52229 0.73422 0.76668 0.0
C452 C 0.54461 0.78182 0.77187 0.0
C453 C 0.52387 0.7676 0.72544 0.0
C454 C 0.51227 0.70691 0.78267 0.0
C455 C 0.53183 0.68219 0.78492 0.0
C456 C 0.52856 0.66129 0.80832 0.0
C457 C 0.50597 0.66503 0.83015 0.0
C458 C 0.48554 0.68888 0.82707 0.0
C459 C 0.4887 0.7096 0.80362 0.0
C460 C 0.55254 0.80665 0.79198 0.0
C461 C 0.56228 0.80097 0.82141 0.0
C462 C 0.56118 0.8237 0.84287 0.0
C463 C 0.54955 0.85192 0.83515 0.0
C464 C 0.54247 0.85828 0.80525 0.0
C465 C 0.54448 0.83598 0.7837 0.0
C466 C 0.51503 0.77873 0.69545 0.0
C467 C 0.48694 0.79308 0.6923 0.0
C468 C 0.18069 0.47658 0.67825 0.0
C469 C 0.18024 0.50444 0.66379 0.0
C470 C 0.20257 0.52569 0.67148 0.0
C471 C 0.22373 0.51958 0.69446 0.0
H472 H 0.33746 0.4755 0.76768 0.0
H473 H 0.37628 0.48279 0.8063 0.0
H474 H 0.31855 0.54603 0.85145 0.0
H475 H 0.28033 0.53943 0.81247 0.0
H476 H 0.24981 0.45542 0.84513 0.0
H477 H 0.21115 0.45531 0.88397 0.0
H478 H 0.14278 0.43891 0.81737 0.0
H479 H 0.18109 0.43857 0.77827 0.0
H480 H 0.2009 0.44849 0.711 0.0
H481 H 0.16418 0.45959 0.67265 0.0
H482 H 0.20308 0.54723 0.66031 0.0
H483 H 0.2395 0.53685 0.70113 0.0
N484 N 0.2666 0.4996 0.74631 0.0
N485 N 0.26413 0.47461 0.79293 0.0
N486 N 0.22621 0.46743 0.75788 0.0
C487 C 0.27892 0.49311 0.77389 0.0
C488 C 0.23779 0.46169 0.7852 0.0
C489 C 0.24004 0.48592 0.73811 0.0
C490 C 0.30616 0.50759 0.78643 0.0
C491 C 0.33392 0.49241 0.78473 0.0
C492 C 0.35588 0.49613 0.80719 0.0
C493 C 0.35024 0.51465 0.83214 0.0
C494 C 0.32354 0.53163 0.83254 0.0
C495 C 0.30188 0.52825 0.80989 0.0
C496 C 0.21828 0.44847 0.80847 0.0
C497 C 0.22678 0.45044 0.83878 0.0
C498 C 0.20476 0.45039 0.86106 0.0
C499 C 0.17431 0.44808 0.85311 0.0
C500 C 0.16629 0.44118 0.82361 0.0
C501 C 0.18827 0.44106 0.80133 0.0
C502 C 0.22319 0.49189 0.70964 0.0
C503 C 0.20198 0.47027 0.70031 0.0
C504 C 0.4823 0.19658 0.66809 0.0
C505 C 0.5103 0.18236 0.66427 0.0
C506 C 0.53516 0.19298 0.68083 0.0
C507 C 0.53141 0.21575 0.70244 0.0
H508 H 0.49963 0.33703 0.76165 0.0
H509 H 0.50589 0.37871 0.79753 0.0
H510 H 0.53425 0.31589 0.86534 0.0
H511 H 0.52981 0.27508 0.8295 0.0
H512 H 0.45361 0.24349 0.84113 0.0
H513 H 0.45505 0.2055 0.88041 0.0
H514 H 0.46238 0.13614 0.81362 0.0
H515 H 0.46104 0.17375 0.77402 0.0
H516 H 0.45619 0.22809 0.69333 0.0
H517 H 0.46283 0.1891 0.65549 0.0
H518 H 0.55709 0.18262 0.67809 0.0
H519 H 0.55023 0.22158 0.71675 0.0
N520 N 0.50801 0.26786 0.74816 0.0
N521 N 0.4826 0.25932 0.79373 0.0
N522 N 0.47727 0.2252 0.75483 0.0
C523 C 0.50088 0.27674 0.77682 0.0
C524 C 0.47078 0.23361 0.78314 0.0
C525 C 0.49542 0.24195 0.73707 0.0
C526 C 0.51449 0.30278 0.79261 0.0
C527 C 0.50876 0.33246 0.78369 0.0
C528 C 0.51185 0.35619 0.8044 0.0
C529 C 0.51993 0.35046 0.83451 0.0
C530 C 0.5278 0.32108 0.8425 0.0
C531 C 0.52547 0.29773 0.8218 0.0
C532 C 0.45847 0.21167 0.80455 0.0
C533 C 0.45431 0.2201 0.83466 0.0
C534 C 0.45516 0.19851 0.85716 0.0
C535 C 0.45973 0.16843 0.84961 0.0
C536 C 0.45928 0.15949 0.81956 0.0
C537 C 0.45839 0.18105 0.79702 0.0
C538 C 0.50284 0.22854 0.70755 0.0
C539 C 0.47864 0.21931 0.68938 0.0
C540 C 0.82376 0.54181 0.66889 0.0
C541 C 0.82768 0.51376 0.65525 0.0
C542 C 0.80762 0.49042 0.66301 0.0
C543 C 0.78591 0.49453 0.68585 0.0
H544 H 0.6836 0.55641 0.77363 0.0
H545 H 0.64497 0.55149 0.81276 0.0
H546 H 0.6767 0.46238 0.83243 0.0
H547 H 0.71531 0.46731 0.79328 0.0
H548 H 0.77184 0.53962 0.84201 0.0
H549 H 0.81187 0.53872 0.87958 0.0
H550 H 0.87841 0.55296 0.81057 0.0
H551 H 0.83882 0.55433 0.77278 0.0
H552 H 0.80078 0.56764 0.70204 0.0
H553 H 0.83853 0.56032 0.66325 0.0
H554 H 0.80982 0.46865 0.65252 0.0
H555 H 0.77267 0.47555 0.69331 0.0
N556 N 0.74135 0.51639 0.7389 0.0
N557 N 0.75158 0.53084 0.7888 0.0
N558 N 0.78874 0.53591 0.75244 0.0
C559 C 0.7321 0.51995 0.76813 0.0
C560 C 0.77987 0.53885 0.78116 0.0
C561 C 0.7701 0.52494 0.73113 0.0
C562 C 0.70188 0.51186 0.77961 0.0
C563 C 0.68113 0.53511 0.78504 0.0
C564 C 0.65941 0.53253 0.80783 0.0
C565 C 0.65811 0.50669 0.8258 0.0
C566 C 0.67721 0.48251 0.81887 0.0
C567 C 0.69892 0.48512 0.79606 0.0
C568 C 0.80226 0.5462 0.80433 0.0
C569 C 0.79486 0.54345 0.83486 0.0
C570 C 0.81761 0.54293 0.85635 0.0
C571 C 0.84781 0.54522 0.84747 0.0
C572 C 0.85508 0.55092 0.81753 0.0
C573 C 0.8324 0.55162 0.79605 0.0
C574 C 0.78347 0.52226 0.70067 0.0
C575 C 0.80181 0.54607 0.69089 0.0
C576 C 0.53008 0.17476 0.32068 0.0
C577 C 0.52028 0.18229 0.34962 0.0
C578 C 0.51047 0.21201 0.35482 0.0
C579 C 0.5074 0.23251 0.33086 0.0
H580 H 0.54809 0.30744 0.23036 0.0
H581 H 0.55649 0.34763 0.19309 0.0
H582 H 0.46098 0.35119 0.17574 0.0
H583 H 0.45248 0.3124 0.21329 0.0
H584 H 0.46294 0.23668 0.17081 0.0
H585 H 0.46533 0.19665 0.13365 0.0
H586 H 0.46364 0.13057 0.20411 0.0
H587 H 0.46093 0.1702 0.24157 0.0
H588 H 0.53394 0.18789 0.27485 0.0
H589 H 0.53789 0.15227 0.31581 0.0
H590 H 0.50308 0.2186 0.377 0.0
H591 H 0.49676 0.25399 0.33488 0.0
N592 N 0.50674 0.26736 0.26549 0.0
N593 N 0.478 0.25766 0.22203 0.0
N594 N 0.48493 0.21997 0.25716 0.0
C595 C 0.49423 0.27706 0.23892 0.0
C596 C 0.4733 0.22916 0.23085 0.0
C597 C 0.50138 0.23842 0.27476 0.0
C598 C 0.49957 0.30698 0.22513 0.0
C599 C 0.52886 0.31778 0.21955 0.0
C600 C 0.53371 0.34028 0.19778 0.0
C601 C 0.5094 0.35187 0.18096 0.0
C602 C 0.48013 0.3423 0.18794 0.0
C603 C 0.47529 0.3204 0.2098 0.0
C604 C 0.46286 0.20658 0.20918 0.0
C605 C 0.46187 0.21367 0.17846 0.0
C606 C 0.46339 0.1909 0.15717 0.0
C607 C 0.46559 0.16102 0.16649 0.0
C608 C 0.46246 0.1537 0.1968 0.0
C609 C 0.46085 0.1764 0.21809 0.0
C610 C 0.51512 0.22392 0.30152 0.0
C611 C 0.52804 0.19538 0.29721 0.0
C612 C 0.68626 0.54658 0.18257 0.0
C613 C 0.66207 0.52641 0.18035 0.0
C614 C 0.65875 0.50432 0.20262 0.0
C615 C 0.68076 0.50074 0.225 0.0
H616 H 0.78233 0.55153 0.30643 0.0
H617 H 0.82077 0.55805 0.34604 0.0
H618 H 0.8374 0.46285 0.34555 0.0
H619 H 0.79868 0.45624 0.30753 0.0
H620 H 0.83599 0.45835 0.23407 0.0
H621 H 0.87512 0.45674 0.19582 0.0
H622 H 0.80859 0.47286 0.12728 0.0
H623 H 0.76906 0.47497 0.16531 0.0
H624 H 0.72815 0.55698 0.20425 0.0
H625 H 0.68944 0.56366 0.1656 0.0
H626 H 0.64039 0.48839 0.20129 0.0
H627 H 0.67929 0.48157 0.23985 0.0
N628 N 0.74537 0.51159 0.2662 0.0
N629 N 0.78861 0.48342 0.25406 0.0
N630 N 0.75184 0.49121 0.2178 0.0
C631 C 0.77249 0.49917 0.27446 0.0
C632 C 0.77869 0.47941 0.2258 0.0
C633 C 0.73488 0.50688 0.2376 0.0
C634 C 0.78716 0.50332 0.30411 0.0
C635 C 0.79326 0.53195 0.31583 0.0
C636 C 0.81567 0.53573 0.33798 0.0
C637 C 0.8326 0.511 0.34831 0.0
C638 C 0.82506 0.48235 0.33781 0.0
C639 C 0.80258 0.47856 0.31628 0.0
C640 C 0.79958 0.46795 0.2028 0.0
C641 C 0.82939 0.46062 0.21081 0.0
C642 C 0.85183 0.4596 0.18904 0.0
C643 C 0.84457 0.46541 0.1591 0.0
C644 C 0.81437 0.46866 0.15049 0.0
C645 C 0.79189 0.46987 0.17228 0.0
C646 C 0.70635 0.5193 0.2257 0.0
C647 C 0.70817 0.54304 0.205 0.0
C648 C 0.49554 0.84645 0.31559 0.0
C649 C 0.49891 0.83795 0.34561 0.0
C650 C 0.50295 0.80724 0.35228 0.0
C651 C 0.50599 0.78592 0.32906 0.0
H652 H 0.46263 0.71528 0.22288 0.0
H653 H 0.45593 0.67724 0.18353 0.0
H654 H 0.54701 0.64675 0.19797 0.0
H655 H 0.55326 0.68384 0.23768 0.0
H656 H 0.53394 0.76304 0.16905 0.0
H657 H 0.53126 0.79962 0.12899 0.0
H658 H 0.56942 0.86688 0.18713 0.0
H659 H 0.57053 0.83059 0.22837 0.0
H660 H 0.49653 0.83319 0.26975 0.0
H661 H 0.49217 0.86979 0.30974 0.0
H662 H 0.50539 0.80007 0.37534 0.0
H663 H 0.51132 0.7629 0.33462 0.0
N664 N 0.50752 0.74673 0.26911 0.0
N665 N 0.53458 0.74737 0.22363 0.0
N666 N 0.53255 0.79037 0.25277 0.0
C667 C 0.51777 0.73227 0.24386 0.0
C668 C 0.54199 0.77629 0.22775 0.0
C669 C 0.51565 0.77612 0.27371 0.0
C670 C 0.50823 0.7021 0.23401 0.0
C671 C 0.48048 0.69915 0.21899 0.0
C672 C 0.47694 0.67796 0.19587 0.0
C673 C 0.50128 0.65967 0.18706 0.0
C674 C 0.52799 0.66079 0.20396 0.0
C675 C 0.53132 0.68156 0.22723 0.0
C676 C 0.55183 0.79424 0.20202 0.0
C677 C 0.54281 0.78527 0.17319 0.0
C678 C 0.54107 0.80618 0.15024 0.0
C679 C 0.54951 0.83594 0.15549 0.0
C680 C 0.56247 0.84398 0.183 0.0
C681 C 0.56327 0.82326 0.20638 0.0
C682 C 0.50459 0.79505 0.29893 0.0
C683 C 0.49802 0.82534 0.2927 0.0
C684 C 0.33597 0.46645 0.18895 0.0
C685 C 0.35873 0.48802 0.18525 0.0
C686 C 0.36101 0.51129 0.20637 0.0
C687 C 0.33921 0.51455 0.229 0.0
H688 H 0.23815 0.4615 0.31219 0.0
H689 H 0.19974 0.45579 0.35195 0.0
H690 H 0.18465 0.55124 0.35099 0.0
H691 H 0.22332 0.55702 0.31266 0.0
H692 H 0.18262 0.54976 0.23853 0.0
H693 H 0.14394 0.55197 0.1999 0.0
H694 H 0.21156 0.53926 0.13164 0.0
H695 H 0.25067 0.53656 0.17006 0.0
H696 H 0.29514 0.45456 0.21188 0.0
H697 H 0.33359 0.44846 0.17283 0.0
H698 H 0.37821 0.52833 0.20384 0.0
H699 H 0.33967 0.53448 0.24285 0.0
N700 N 0.27572 0.50175 0.27153 0.0
N701 N 0.23128 0.52779 0.25893 0.0
N702 N 0.26806 0.5203 0.22257 0.0
C703 C 0.24818 0.51332 0.27963 0.0
C704 C 0.24083 0.5313 0.23046 0.0
C705 C 0.28577 0.50591 0.24269 0.0
C706 C 0.2341 0.50977 0.30961 0.0
C707 C 0.22762 0.48131 0.32155 0.0
C708 C 0.20522 0.47799 0.3438 0.0
C709 C 0.18869 0.50304 0.35399 0.0
C710 C 0.1967 0.53153 0.34336 0.0
C711 C 0.21916 0.53485 0.32168 0.0
C712 C 0.21961 0.54195 0.2074 0.0
C713 C 0.18953 0.54829 0.21529 0.0
C714 C 0.16735 0.54966 0.1933 0.0
C715 C 0.17508 0.54516 0.16326 0.0
C716 C 0.20542 0.54251 0.15492 0.0
C717 C 0.22765 0.54092 0.17691 0.0
C718 C 0.31483 0.49453 0.23104 0.0
C719 C 0.31423 0.46971 0.2116 0.0
C720 C 0.66762 0.81747 0.53447 0.0
C721 C 0.65599 0.82613 0.50653 0.0
C722 C 0.66501 0.80992 0.48089 0.0
C723 C 0.68732 0.78745 0.48296 0.0
H724 H 0.76641 0.67681 0.53087 0.0
H725 H 0.80579 0.63821 0.52655 0.0
H726 H 0.8449 0.68597 0.45215 0.0
H727 H 0.80522 0.72388 0.45593 0.0
H728 H 0.84084 0.76876 0.5399 0.0
H729 H 0.88105 0.80638 0.54048 0.0
H730 H 0.81539 0.87624 0.52616 0.0
H731 H 0.77505 0.83925 0.5262 0.0
H732 H 0.69943 0.79043 0.55825 0.0
H733 H 0.66099 0.82932 0.55462 0.0
H734 H 0.65616 0.81593 0.45908 0.0
H735 H 0.69605 0.77747 0.4626 0.0
N736 N 0.73991 0.74013 0.50214 0.0
N737 N 0.79017 0.75129 0.51541 0.0
N738 N 0.75261 0.7867 0.52362 0.0
C739 C 0.76972 0.73181 0.50415 0.0
C740 C 0.78185 0.77865 0.52515 0.0
C741 C 0.73145 0.76794 0.51247 0.0
C742 C 0.78221 0.70302 0.49326 0.0
C743 C 0.78222 0.67798 0.51239 0.0
C744 C 0.80511 0.6562 0.51026 0.0
C745 C 0.82869 0.65939 0.4893 0.0
C746 C 0.8271 0.68295 0.46851 0.0
C747 C 0.80406 0.7044 0.4704 0.0
C748 C 0.80491 0.80106 0.53249 0.0
C749 C 0.83491 0.79221 0.53766 0.0
C750 C 0.85783 0.81353 0.53802 0.0
C751 C 0.8509 0.8437 0.53279 0.0
C752 C 0.82088 0.85287 0.52995 0.0
C753 C 0.79794 0.8317 0.5301 0.0
C754 C 0.70049 0.78045 0.51078 0.0
C755 C 0.68932 0.79484 0.53657 0.0
C756 C 0.68697 0.18624 0.48672 0.0
C757 C 0.66495 0.18168 0.50894 0.0
C758 C 0.66373 0.20175 0.53321 0.0
C759 C 0.68553 0.2244 0.53639 0.0
H760 H 0.77913 0.31125 0.47685 0.0
H761 H 0.81501 0.35262 0.46745 0.0
H762 H 0.84027 0.35184 0.56071 0.0
H763 H 0.80421 0.31184 0.57021 0.0
H764 H 0.84447 0.23793 0.55939 0.0
H765 H 0.88276 0.19879 0.55809 0.0
H766 H 0.81344 0.13114 0.55802 0.0
H767 H 0.7747 0.17001 0.55902 0.0
H768 H 0.72697 0.2101 0.47381 0.0
H769 H 0.68844 0.17108 0.46781 0.0
H770 H 0.647 0.19873 0.55065 0.0
H771 H 0.68572 0.23762 0.55675 0.0
N772 N 0.74732 0.26928 0.5195 0.0
N773 N 0.79324 0.25821 0.54366 0.0
N774 N 0.7567 0.22112 0.53932 0.0
C775 C 0.77525 0.27823 0.52946 0.0
C776 C 0.78434 0.22972 0.54857 0.0
C777 C 0.73795 0.24045 0.52518 0.0
C778 C 0.78855 0.30845 0.52435 0.0
C779 C 0.7914 0.32087 0.49548 0.0
C780 C 0.81231 0.34413 0.49003 0.0
C781 C 0.83094 0.355 0.51327 0.0
C782 C 0.82655 0.34379 0.54231 0.0
C783 C 0.80562 0.32105 0.54777 0.0
C784 C 0.80652 0.20706 0.55821 0.0
C785 C 0.83723 0.21476 0.56014 0.0
C786 C 0.85921 0.19248 0.55947 0.0
C787 C 0.85065 0.16239 0.55738 0.0
C788 C 0.82019 0.15443 0.55944 0.0
C789 C 0.79816 0.17669 0.55991 0.0
C790 C 0.7088 0.22772 0.5152 0.0
C791 C 0.70866 0.20896 0.48986 0.0
C792 C 0.33967 0.82044 0.47496 0.0
C793 C 0.35961 0.8276 0.49835 0.0
C794 C 0.36114 0.80834 0.52325 0.0
C795 C 0.34103 0.78417 0.52603 0.0
H796 H 0.24354 0.69588 0.46814 0.0
H797 H 0.20435 0.65703 0.46207 0.0
H798 H 0.18563 0.66118 0.5568 0.0
H799 H 0.22525 0.6984 0.56299 0.0
H800 H 0.18194 0.7737 0.54253 0.0
H801 H 0.14465 0.81371 0.5402 0.0
H802 H 0.21558 0.87972 0.53863 0.0
H803 H 0.25339 0.83992 0.54069 0.0
H804 H 0.30253 0.79319 0.46071 0.0
H805 H 0.33809 0.83488 0.4555 0.0
H806 H 0.37638 0.81331 0.54155 0.0
H807 H 0.34043 0.77187 0.54696 0.0
N808 N 0.28009 0.73769 0.50978 0.0
N809 N 0.23332 0.75136 0.53089 0.0
N810 N 0.27069 0.78736 0.52532 0.0
C811 C 0.25157 0.73004 0.51919 0.0
C812 C 0.24255 0.77997 0.53391 0.0
C813 C 0.28967 0.76675 0.5136 0.0
C814 C 0.23788 0.69984 0.51614 0.0
C815 C 0.23215 0.68725 0.48781 0.0
C816 C 0.20929 0.66553 0.48426 0.0
C817 C 0.19142 0.65661 0.50889 0.0
C818 C 0.19874 0.66775 0.53738 0.0
C819 C 0.22176 0.68878 0.54096 0.0
C820 C 0.22063 0.80364 0.54099 0.0
C821 C 0.18974 0.79669 0.54244 0.0
C822 C 0.16838 0.81944 0.54101 0.0
C823 C 0.1777 0.84926 0.53852 0.0
C824 C 0.20832 0.85658 0.54012 0.0
C825 C 0.22976 0.83384 0.54137 0.0
C826 C 0.3192 0.77858 0.50385 0.0
C827 C 0.31977 0.79614 0.47766 0.0
C828 C 0.18268 0.33711 0.46604 0.0
C829 C 0.18249 0.35318 0.49301 0.0
C830 C 0.20554 0.34721 0.51411 0.0
C831 C 0.22686 0.32411 0.50905 0.0
H832 H 0.33801 0.24683 0.46523 0.0
H833 H 0.37761 0.20907 0.47318 0.0
H834 H 0.32491 0.16953 0.544 0.0
H835 H 0.28582 0.20758 0.53653 0.0
H836 H 0.24816 0.16814 0.45937 0.0
H837 H 0.20878 0.13005 0.46042 0.0
H838 H 0.14227 0.19662 0.43726 0.0
H839 H 0.18132 0.23497 0.43579 0.0
H840 H 0.20274 0.30274 0.43975 0.0
H841 H 0.16559 0.34127 0.44919 0.0
H842 H 0.20624 0.35957 0.53498 0.0
H843 H 0.24294 0.3186 0.52646 0.0
N844 N 0.26929 0.27058 0.49152 0.0
N845 N 0.26477 0.22171 0.47165 0.0
N846 N 0.22696 0.25663 0.46296 0.0
C847 C 0.28085 0.24222 0.48728 0.0
C848 C 0.23787 0.22868 0.45941 0.0
C849 C 0.24205 0.27787 0.4786 0.0
C850 C 0.30914 0.23086 0.50087 0.0
C851 C 0.3358 0.2313 0.48377 0.0
C852 C 0.35821 0.20931 0.48794 0.0
C853 C 0.35416 0.18608 0.50895 0.0
C854 C 0.32869 0.18711 0.52768 0.0
C855 C 0.30653 0.20926 0.52373 0.0
C856 C 0.21763 0.20479 0.4487 0.0
C857 C 0.22541 0.17456 0.45327 0.0
C858 C 0.20299 0.15273 0.45388 0.0
C859 C 0.17281 0.16096 0.44966 0.0
C860 C 0.16556 0.19017 0.44086 0.0
C861 C 0.18794 0.212 0.44014 0.0
C862 C 0.22584 0.30708 0.48251 0.0
C863 C 0.20419 0.31494 0.46069 0.0
C864 C 0.01395 0.93507 0.58003 0.0
C865 C 1.00781 0.93423 0.4317 0.0
C866 C 0.01178 0.07901 0.57898 0.0
C867 C 0.00979 0.07757 0.43094 0.0
C868 C 0.9387 0.07727 0.51688 0.0
C869 C 0.94053 0.93298 0.50953 0.0
C870 C 0.08249 0.07915 0.49166 0.0
C871 C 0.08599 0.93559 0.51147 0.0
C872 C 0.08378 0.99825 0.43151 0.0
C873 C 0.93735 0.01036 0.43374 0.0
C874 C 0.08635 0.01286 0.57683 0.0
C875 C 0.94058 1.00415 0.58084 0.0
Eu876 Eu 0.01308 0.94907 0.50569 0.0
O877 O 0.98477 0.97886 0.47993 0.0
O878 O 0.03945 0.98043 0.53144 0.0
Eu879 Eu 0.9544 1.00553 0.50673 0.0
Eu880 Eu 0.0692 0.00727 0.50439 0.0
O881 O 0.98636 0.97961 0.53224 0.0
O882 O 0.0389 0.97964 0.47853 0.0
Eu883 Eu 0.01291 0.00709 0.56164 0.0
Eu884 Eu 0.01062 1.00585 0.44932 0.0
O885 O 0.98548 0.03268 0.53163 0.0
O886 O 0.98378 0.03289 0.4794 0.0
O887 O 0.03712 0.03287 0.47899 0.0
O888 O 0.03929 0.03448 0.53148 0.0
Eu889 Eu 0.01094 0.06392 0.5051 0.0
O890 O 0.01451 0.92503 0.55158 0.0
O891 O 0.01486 0.92497 0.45958 0.0
O892 O 0.01671 0.08841 0.55069 0.0
O893 O 1.0039 0.08698 0.45903 0.0
O894 O 0.92944 0.04901 0.51407 0.0
O895 O 0.93048 0.96109 0.50831 0.0
O896 O 0.09255 0.05111 0.49431 0.0
O897 O 0.09472 0.96413 0.51108 0.0
O898 O 0.05479 1.00005 0.42332 0.0
O899 O 0.96603 0.01012 0.42473 0.0
O900 O 0.05786 0.0099 0.58604 0.0
O901 O 0.96954 0.00681 0.58848 0.0
O902 O 0.05432 0.08876 0.49587 0.0
O903 O 0.96676 0.08751 0.51375 0.0
O904 O 0.05795 0.92527 0.50841 0.0
O905 O 0.96912 0.92379 0.50832 0.0
O906 O 1.00158 0.96256 0.4248 0.0
O907 O 0.01664 0.04933 0.42395 0.0
O908 O 0.01303 0.96385 0.58797 0.0
O909 O 1.00659 0.05061 0.5864 0.0
O910 O 0.93047 1.0022 0.55253 0.0
O911 O 0.92806 0.00835 0.46231 0.0
O912 O 0.09546 0.01322 0.54821 0.0
O913 O 0.09382 1.00005 0.45978 0.0
C914 C 0.51904 0.92796 0.06924 0.0
C915 C 0.50183 0.07192 0.08125 0.0
C916 C 0.51897 0.93969 0.92541 0.0
C917 C 0.49996 0.08286 0.9367 0.0
C918 C 0.58452 0.0163 0.93144 0.0
C919 C 0.58571 0.00816 0.07554 0.0
C920 C 0.43617 0.00751 0.93176 0.0
C921 C 0.4367 0.99502 0.07502 0.0
C922 C 0.43239 0.07339 0.01006 0.0
C923 C 0.58086 0.08261 0.00736 0.0
C924 C 0.44107 0.9301 0.99669 0.0
C925 C 0.59006 0.93909 1.00152 0.0
Eu926 Eu 0.5117 1.00151 0.06072 0.0
O927 O 0.53613 0.03275 0.03252 0.0
O928 O 0.48655 0.97566 0.02836 0.0
Eu929 Eu 0.56726 0.00991 1.00333 0.0
Eu930 Eu 0.45487 1.0026 1.00361 0.0
O931 O 0.53918 0.9792 0.02771 0.0
O932 O 0.4838 0.02873 0.03191 0.0
Eu933 Eu 0.51457 0.94901 0.999 0.0
Eu934 Eu 0.50757 0.06319 0.00771 0.0
O935 O 0.5387 0.98333 0.97482 0.0
O936 O 0.53551 0.0366 0.97828 0.0
O937 O 0.48298 0.03295 0.97902 0.0
O938 O 0.48571 0.97933 0.97447 0.0
Eu939 Eu 0.51028 0.01013 0.94627 0.0
O940 O 0.52314 0.95568 0.07975 0.0
O941 O 0.50582 0.04325 0.08878 0.0
O942 O 0.51069 0.96758 0.91886 0.0
O943 O 0.50307 0.05549 0.92515 0.0
O944 O 0.5931 0.01449 0.95997 0.0
O945 O 0.59354 0.01053 0.04678 0.0
O946 O 0.42838 0.00641 0.96058 0.0
O947 O 0.42868 0.99697 0.04637 0.0
O948 O 0.46036 0.08499 0.00937 0.0
O949 O 0.55172 0.09084 0.0093 0.0
O950 O 0.47021 0.9218 0.99466 0.0
O951 O 0.56209 0.92737 1.00117 0.0
O952 O 0.46467 0.0081 0.92159 0.0
O953 O 0.55588 0.01515 0.92157 0.0
O954 O 0.46547 0.995 0.08505 0.0
O955 O 0.55728 1.005 0.08557 0.0
O956 O 0.50247 0.08357 0.05372 0.0
O957 O 0.50191 0.0906 0.9655 0.0
O958 O 0.51099 0.92151 0.0413 0.0
O959 O 0.52361 0.92922 0.95308 0.0
O960 O 0.5964 0.96829 1.00191 0.0
O961 O 0.59065 0.05457 1.00469 0.0
O962 O 0.43132 0.95809 1.00015 0.0
O963 O 0.42611 0.04419 0.00903 0.0
C964 C 0.01068 0.43338 0.07808 0.0
C965 C 0.01075 0.43019 0.93551 0.0
C966 C 1.00877 0.58157 0.07543 0.0
C967 C 0.01421 0.57867 0.93125 0.0
C968 C 0.93809 0.57942 0.00922 0.0
C969 C 0.93751 0.43394 0.99862 0.0
C970 C 0.08553 0.57822 0.9979 0.0
C971 C 0.0844 0.43351 0.01499 0.0
C972 C 0.08416 0.49162 0.93463 0.0
C973 C 0.94041 0.51548 0.93189 0.0
C974 C 0.08239 0.51774 0.07786 0.0
C975 C 0.9382 0.49677 0.07608 0.0
Eu976 Eu 0.01101 0.44991 0.00636 0.0
O977 O 0.98455 0.47925 0.97826 0.0
O978 O 0.03784 0.48014 0.03301 0.0
Eu979 Eu 0.95405 0.50656 1.00423 0.0
Eu980 Eu 0.06865 0.50594 0.00585 0.0
O981 O 0.9843 0.48089 0.0317 0.0
O982 O 0.03793 0.47957 0.97969 0.0
Eu983 Eu 0.01047 0.50731 0.06236 0.0
Eu984 Eu 0.01216 0.50486 0.94771 0.0
O985 O 0.98426 0.53347 0.03094 0.0
O986 O 0.98553 0.53192 0.97772 0.0
O987 O 0.03888 0.53209 0.9778 0.0
O988 O 0.03751 0.53274 0.0313 0.0
Eu989 Eu 0.01174 0.56284 1.00381 0.0
O990 O 1.00275 0.42609 0.05029 0.0
O991 O 0.01873 0.42406 0.96357 0.0
O992 O 0.01745 0.58822 0.04759 0.0
O993 O 1.00678 0.58679 0.9591 0.0
O994 O 0.9286 0.55093 0.00934 0.0
O995 O 0.92822 0.4625 0.99833 0.0
O996 O 0.09469 0.54965 0.9988 0.0
O997 O 0.09397 0.46195 0.01406 0.0
O998 O 0.05614 0.49477 0.92426 0.0
O999 O 0.96876 0.51241 0.92244 0.0
O1000 O 0.05397 0.51538 0.08738 0.0
O1001 O 0.96632 0.49948 0.0863 0.0
O1002 O 0.0569 0.58741 1.00034 0.0
O1003 O 0.96687 0.58812 0.00676 0.0
O1004 O 0.05567 0.42482 0.01211 0.0
O1005 O 0.96615 0.42508 1.00184 0.0
O1006 O 1.00438 0.45812 0.9258 0.0
O1007 O 0.02005 0.55013 0.92319 0.0
O1008 O 0.01747 0.4616 0.08648 0.0
O1009 O 1.00202 0.55357 0.08444 0.0
O1010 O 0.92906 0.49933 0.04774 0.0
O1011 O 0.93046 0.51358 0.96001 0.0
O1012 O 0.09228 0.51467 0.0498 0.0
O1013 O 0.09342 0.49553 0.96279 0.0
C1014 C 0.51226 0.43778 0.08038 0.0
C1015 C 0.50499 0.58039 0.08148 0.0
C1016 C 0.51116 0.43769 0.93249 0.0
C1017 C 0.50327 0.58289 0.93323 0.0
C1018 C 0.57933 0.5083 0.93127 0.0
C1019 C 0.5818 0.51886 0.07712 0.0
C1020 C 0.43262 0.51148 0.93431 0.0
C1021 C 0.43555 0.49865 0.07964 0.0
C1022 C 0.43253 0.57838 0.02002 0.0
C1023 C 0.57607 0.58451 0.99522 0.0
C1024 C 0.43732 0.43483 0.99992 0.0
C1025 C 0.58231 0.44073 0.01274 0.0
Eu1026 Eu 0.50846 0.50916 0.06252 0.0
O1027 O 0.53376 0.5376 0.03246 0.0
O1028 O 0.48159 0.48164 0.03316 0.0
Eu1029 Eu 0.56435 0.51196 1.0048 0.0
Eu1030 Eu 0.4501 0.50747 0.00686 0.0
O1031 O 0.53536 0.48401 0.03156 0.0
O1032 O 0.48045 0.5346 0.03271 0.0
Eu1033 Eu 0.50907 0.45243 0.00634 0.0
Eu1034 Eu 0.5049 0.5671 0.00694 0.0
O1035 O 0.53427 0.48398 0.97921 0.0
O1036 O 0.53202 0.53751 0.97979 0.0
O1037 O 0.47871 0.53611 0.98001 0.0
O1038 O 0.48139 0.48227 0.97997 0.0
Eu1039 Eu 0.50644 0.51024 0.9495 0.0
O1040 O 0.51942 0.46598 0.08685 0.0
O1041 O 0.4997 0.55181 0.08818 0.0
O1042 O 0.5088 0.4663 0.92394 0.0
O1043 O 0.50977 0.55481 0.92512 0.0
O1044 O 0.58902 0.50692 0.95972 0.0
O1045 O 0.59066 0.51848 0.04843 0.0
O1046 O 0.42366 0.51156 0.96297 0.0
O1047 O 0.42571 0.49935 0.05128 0.0
O1048 O 0.4602 0.58948 0.01643 0.0
O1049 O 0.54772 0.59336 0.99964 0.0
O1050 O 0.4659 0.42605 1.00273 0.0
O1051 O 0.55435 0.42986 0.01127 0.0
O1052 O 0.46125 0.51019 0.92496 0.0
O1053 O 0.55041 0.5106 0.92312 0.0
O1054 O 0.46434 0.50182 0.08812 0.0
O1055 O 0.55335 0.51587 0.08661 0.0
O1056 O 0.5103 0.59028 0.0534 0.0
O1057 O 0.49782 0.59149 0.96165 0.0
O1058 O 0.5047 0.42879 0.05258 0.0
O1059 O 0.512 0.42799 0.96101 0.0
O1060 O 0.59071 0.46928 0.01053 0.0
O1061 O 0.58665 0.55659 0.99646 0.0
O1062 O 0.42703 0.46289 1.00056 0.0
O1063 O 0.42406 0.54993 0.01658 0.0
C1064 C 1.00865 0.43932 0.57818 0.0
C1065 C 1.00304 0.43612 0.43374 0.0
C1066 C 1.0021 0.58458 0.57427 0.0
C1067 C 0.01764 0.58005 0.43054 0.0
C1068 C 0.93536 0.58304 0.49896 0.0
C1069 C 0.93231 0.43887 0.50432 0.0
C1070 C 0.08414 0.58012 0.50432 0.0
C1071 C 0.0808 0.43613 0.50603 0.0
C1072 C 0.08424 0.50443 0.43436 0.0
C1073 C 0.93538 0.51233 0.43065 0.0
C1074 C 0.08059 0.51299 0.57822 0.0
C1075 C 0.93192 0.50902 0.57458 0.0
Eu1076 Eu 1.00647 0.45273 0.50576 0.0
O1077 O 0.98156 0.48306 0.47743 0.0
O1078 O 0.03304 0.48314 0.53239 0.0
Eu1079 Eu 0.95169 0.51099 0.5029 0.0
Eu1080 Eu 0.06438 0.50836 0.50578 0.0
O1081 O 0.98034 0.4845 0.53126 0.0
O1082 O 0.0344 0.48173 0.4788 0.0
Eu1083 Eu 1.00667 0.51141 0.5617 0.0
Eu1084 Eu 0.00947 0.50847 0.44705 0.0
O1085 O 0.98176 0.53779 0.52957 0.0
O1086 O 0.98301 0.53666 0.47625 0.0
O1087 O 0.03574 0.53511 0.47772 0.0
O1088 O 0.03469 0.53678 0.53135 0.0
Eu1089 Eu 0.00967 0.56706 0.50299 0.0
O1090 O 1.00098 0.43042 0.55081 0.0
O1091 O 1.00283 0.42732 0.46228 0.0
O1092 O 0.01062 0.59232 0.54678 0.0
O1093 O 0.01566 0.59036 0.4585 0.0
O1094 O 0.92635 0.5547 0.50092 0.0
O1095 O 0.9247 0.46773 0.50194 0.0
O1096 O 0.09151 0.55116 0.50364 0.0
O1097 O 0.08977 0.46456 0.50693 0.0
O1098 O 0.05592 0.50598 0.42367 0.0
O1099 O 0.9642 0.51053 0.42133 0.0
O1100 O 0.05179 0.51553 0.58749 0.0
O1101 O 0.96027 0.50766 0.58531 0.0
O1102 O 0.05581 0.59077 0.50498 0.0
O1103 O 0.9642 0.59244 0.49929 0.0
O1104 O 0.05191 0.42691 0.50554 0.0
O1105 O 0.96068 0.4286 0.50644 0.0
O1106 O 1.00628 0.46397 0.42345 0.0
O1107 O 0.01512 0.55169 0.42156 0.0
O1108 O 0.01437 0.46758 0.58605 0.0
O1109 O 0.99759 0.55646 0.58355 0.0
O1110 O 0.92458 0.51094 0.54569 0.0
O1111 O 0.92666 0.51335 0.45915 0.0
O1112 O 0.0893 0.50972 0.54983 0.0
O1113 O 0.09154 0.50418 0.4633 0.0
C1114 C 0.5044 0.93233 0.57658 0.0
C1115 C 0.50526 0.93597 0.43237 0.0
C1116 C 0.50923 0.08049 0.5803 0.0
C1117 C 0.51227 0.08317 0.43572 0.0
C1118 C 0.43555 0.08263 0.509 0.0
C1119 C 0.43291 0.93596 0.50112 0.0
C1120 C 0.5823 0.07938 0.50766 0.0
C1121 C 0.57757 0.93192 0.50599 0.0
C1122 C 0.58181 1.00391 0.43617 0.0
C1123 C 0.43683 0.01563 0.43229 0.0
C1124 C 0.57752 1.00199 0.58053 0.0
C1125 C 0.43181 1.00156 0.57612 0.0
Eu1126 Eu 0.50566 0.95173 0.50482 0.0
O1127 O 0.48017 0.98274 0.47791 0.0
O1128 O 0.53206 0.98053 0.53314 0.0
Eu1129 Eu 0.44982 0.00924 0.5048 0.0
Eu1130 Eu 0.56447 0.00615 0.50795 0.0
O1131 O 0.47898 0.9817 0.53167 0.0
O1132 O 0.53419 0.9813 0.47956 0.0
Eu1133 Eu 0.50507 0.00686 0.56368 0.0
Eu1134 Eu 0.50885 0.0092 0.44923 0.0
O1135 O 0.47984 0.0349 0.5332 0.0
O1136 O 0.48214 0.03548 0.47986 0.0
O1137 O 0.53551 0.03417 0.48101 0.0
O1138 O 0.53392 0.03289 0.53459 0.0
Eu1139 Eu 0.50888 0.06442 0.50778 0.0
O1140 O 0.50605 0.92484 0.54772 0.0
O1141 O 0.50402 0.92688 0.46077 0.0
O1142 O 0.51481 0.08836 0.55203 0.0
O1143 O 0.51112 0.09118 0.46453 0.0
O1144 O 0.42538 0.05439 0.50784 0.0
O1145 O 0.42378 0.96467 0.50008 0.0
O1146 O 0.59108 0.05054 0.50785 0.0
O1147 O 0.58811 0.96003 0.50863 0.0
O1148 O 0.55377 0.0066 0.4258 0.0
O1149 O 0.46537 0.01293 0.42335 0.0
O1150 O 0.54885 1.00379 0.58942 0.0
O1151 O 0.45985 1.00332 0.58678 0.0
O1152 O 0.55372 0.0888 0.50753 0.0
O1153 O 0.4646 0.09077 0.50905 0.0
O1154 O 0.54859 0.9246 0.5034 0.0
O1155 O 0.4614 0.92694 0.50368 0.0
O1156 O 0.50729 0.9646 0.42333 0.0
O1157 O 0.51183 0.05487 0.42551 0.0
O1158 O 0.50323 0.96061 0.58702 0.0
O1159 O 0.50311 0.05224 0.58901 0.0
O1160 O 0.42338 1.00358 0.54756 0.0
O1161 O 0.42659 0.01489 0.46034 0.0
O1162 O 0.58788 1.003 0.55254 0.0
O1163 O 0.59047 1.00345 0.46472 0.0
C1164 C 0.14339 0.13831 0.49141 0.0
C1165 C 0.1487 0.14086 0.4601 0.0
C1166 C 0.10744 0.1063 0.4497 0.0
C1167 C 0.1044 0.10131 0.48099 0.0
N1168 N 0.12053 0.10995 0.53176 0.0
N1169 N 0.13799 0.12634 0.40925 0.0
C1170 C 0.12265 0.11662 0.50192 0.0
C1171 C 0.13117 0.12476 0.43912 0.0
N1172 N 0.15742 0.15737 0.51097 0.0
N1173 N 0.0876 0.09335 0.43018 0.0
H1174 H 0.15511 0.13997 0.4008 0.0
H1175 H 0.12815 0.11279 0.393 0.0
H1176 H 0.07135 0.07794 0.437 0.0
H1177 H 0.08621 0.09883 0.40755 0.0
H1178 H 0.15203 0.15877 0.53363 0.0
H1179 H 0.17277 0.17373 0.50422 0.0
H1180 H 0.1357 0.11762 0.54782 0.0
H1181 H 0.1046 0.09504 0.54026 0.0
C1182 C 0.89304 0.12714 0.56838 0.0
C1183 C 0.87291 0.14003 0.54739 0.0
C1184 C 0.89564 0.11135 0.50638 0.0
C1185 C 0.9161 0.09888 0.52722 0.0
N1186 N 0.93262 0.0908 0.5781 0.0
N1187 N 0.85735 0.14869 0.49618 0.0
C1188 C 0.91453 0.10582 0.55827 0.0
C1189 C 0.87469 0.13318 0.51631 0.0
N1190 N 0.8919 0.13591 0.59775 0.0
N1191 N 0.89578 0.10163 0.4773 0.0
H1192 H 0.84151 0.16479 0.50241 0.0
H1193 H 0.86 0.14735 0.47305 0.0
H1194 H 0.91152 0.08631 0.46914 0.0
H1195 H 0.87925 0.10703 0.46165 0.0
H1196 H 0.90777 0.13 0.61384 0.0
H1197 H 0.87552 0.15054 0.60601 0.0
H1198 H 0.93116 0.09264 0.60127 0.0
H1199 H 0.94822 0.07464 0.57145 0.0
C1200 C 0.88811 0.86736 0.49838 0.0
C1201 C 0.87504 0.86555 0.52741 0.0
C1202 C 0.90595 0.90724 0.54486 0.0
C1203 C 0.91785 0.90997 0.51544 0.0
N1204 N 0.9176 0.89663 0.4632 0.0
N1205 N 0.86875 0.88449 0.57761 0.0
C1206 C 0.90835 0.89102 0.49191 0.0
C1207 C 0.88318 0.88572 0.55051 0.0
N1208 N 0.88117 0.8464 0.47709 0.0
N1209 N 0.91709 0.92473 0.56747 0.0
H1210 H 0.85315 0.86787 0.58306 0.0
H1211 H 0.87092 0.90066 0.59425 0.0
H1212 H 0.93374 0.94084 0.56407 0.0
H1213 H 0.91172 0.92193 0.58999 0.0
H1214 H 0.8926 0.84435 0.45682 0.0
H1215 H 0.86512 0.82965 0.48029 0.0
H1216 H 0.909 0.88579 0.44442 0.0
H1217 H 0.93249 0.91389 0.45779 0.0
C1218 C 0.15267 0.8836 0.50208 0.0
C1219 C 0.15526 0.87248 0.53179 0.0
C1220 C 0.11076 0.90047 0.54707 0.0
C1221 C 0.10951 0.91348 0.51806 0.0
N1222 N 0.13106 0.92096 0.46899 0.0
N1223 N 0.14067 0.87382 0.58378 0.0
C1224 C 0.13112 0.90622 0.49587 0.0
C1225 C 0.13537 0.88186 0.55466 0.0
N1226 N 0.16984 0.87159 0.4796 0.0
N1227 N 0.08832 0.90576 0.56732 0.0
H1228 H 0.15871 0.86022 0.59016 0.0
H1229 H 0.12884 0.88265 0.60191 0.0
H1230 H 0.07127 0.92126 0.56348 0.0
H1231 H 0.08579 0.89375 0.58718 0.0
H1232 H 0.1666 0.87642 0.457 0.0
H1233 H 0.1859 0.85488 0.48318 0.0
H1234 H 0.14829 0.9191 0.45324 0.0
H1235 H 0.11468 0.93669 0.46315 0.0
C1236 C 0.45407 0.11629 0.13525 0.0
C1237 C 0.47518 0.13775 0.14519 0.0
C1238 C 0.51462 0.11529 0.11403 0.0
C1239 C 0.49386 0.09285 0.10537 0.0
N1240 N 0.44583 0.06825 0.11204 0.0
N1241 N 0.52679 0.15468 0.1493 0.0
C1242 C 0.46425 0.0921 0.11746 0.0
C1243 C 0.50588 0.13645 0.13608 0.0
N1244 N 0.42412 0.11973 0.14176 0.0
N1245 N 0.54253 0.11649 0.101 0.0
H1246 H 0.52133 0.17044 0.16569 0.0
H1247 H 0.54992 0.15256 0.14591 0.0
H1248 H 0.55033 0.10025 0.08605 0.0
H1249 H 0.55733 0.13439 0.10369 0.0
H1250 H 0.40719 0.10676 0.13212 0.0
H1251 H 0.41585 0.13729 0.15484 0.0
H1252 H 0.42556 0.06471 0.12331 0.0
H1253 H 0.45194 0.0507 0.09802 0.0
C1254 C 0.87379 0.50388 0.13098 0.0
C1255 C 0.86879 0.4732 0.13795 0.0
C1256 C 0.91186 0.45856 0.10724 0.0
C1257 C 0.91493 0.48887 0.09802 0.0
N1258 N 0.89714 0.53993 0.0977 0.0
N1259 N 0.88032 0.42094 0.13085 0.0
C1260 C 0.89536 0.51142 0.10885 0.0
C1261 C 0.88718 0.45038 0.1257 0.0
N1262 N 0.85883 0.52582 0.14644 0.0
N1263 N 0.93244 0.43764 0.09814 0.0
H1264 H 0.86235 0.41426 0.1444 0.0
H1265 H 0.89089 0.40311 0.1201 0.0
H1266 H 0.94941 0.44237 0.08271 0.0
H1267 H 0.93361 0.416 0.10679 0.0
H1268 H 0.86396 0.54852 0.14464 0.0
H1269 H 0.84301 0.52135 0.16314 0.0
H1270 H 0.88118 0.55649 0.10208 0.0
H1271 H 0.91352 0.54654 0.08229 0.0
C1272 C 0.51952 0.88103 0.14093 0.0
C1273 C 0.54124 0.85908 0.13335 0.0
C1274 C 0.54114 0.87662 0.08155 0.0
C1275 C 0.52418 0.90255 0.09044 0.0
N1276 N 0.49789 0.92917 0.13042 0.0
N1277 N 0.57562 0.83773 0.09761 0.0
C1278 C 0.51373 0.90476 0.12069 0.0
C1279 C 0.55273 0.8573 0.10396 0.0
N1280 N 0.50295 0.87827 0.16668 0.0
N1281 N 0.54642 0.86981 0.05212 0.0
H1282 H 0.58586 0.82427 0.11378 0.0
H1283 H 0.58626 0.83662 0.07689 0.0
H1284 H 0.54211 0.88359 0.03399 0.0
H1285 H 0.55406 0.84881 0.04526 0.0
H1286 H 0.48437 0.89173 0.17157 0.0
H1287 H 0.50543 0.86049 0.18164 0.0
H1288 H 0.49422 0.93371 0.15304 0.0
H1289 H 0.48924 0.9456 0.11641 0.0
C1290 C 0.13264 0.56171 0.13036 0.0
C1291 C 0.15118 0.53839 0.14142 0.0
C1292 C 0.12517 0.50171 0.11004 0.0
C1293 C 0.10534 0.52465 0.10045 0.0
N1294 N 0.08709 0.57551 0.10387 0.0
N1295 N 0.16149 0.48546 0.14703 0.0
C1296 C 0.10802 0.55436 0.1115 0.0
C1297 C 0.1465 0.50814 0.13271 0.0
N1298 N 0.13931 0.59088 0.13701 0.0
N1299 N 0.12379 0.47386 0.09729 0.0
H1300 H 0.17712 0.48909 0.16409 0.0
H1301 H 0.15653 0.46286 0.14394 0.0
H1302 H 0.10752 0.46789 0.08155 0.0
H1303 H 0.13999 0.45731 0.10074 0.0
H1304 H 0.12863 0.60916 0.12713 0.0
H1305 H 0.15725 0.59697 0.15085 0.0
H1306 H 0.08575 0.59655 0.11385 0.0
H1307 H 0.07001 0.57152 0.08837 0.0
C1308 C 0.51886 0.86734 0.8797 0.0
C1309 C 0.54161 0.87405 0.85845 0.0
C1310 C 0.5413 0.92622 0.87462 0.0
C1311 C 0.52353 0.91823 0.90017 0.0
N1312 N 0.49548 0.87962 0.92672 0.0
N1313 N 0.57825 0.90866 0.83887 0.0
C1314 C 0.51252 0.88826 0.90273 0.0
C1315 C 0.55394 0.90313 0.8569 0.0
N1316 N 0.5019 0.84188 0.87687 0.0
N1317 N 0.5457 0.95536 0.86622 0.0
H1318 H 0.58897 0.89196 0.82643 0.0
H1319 H 0.58952 0.92911 0.83852 0.0
H1320 H 0.5379 0.97401 0.87763 0.0
H1321 H 0.55536 0.96115 0.84571 0.0
H1322 H 0.48279 0.83763 0.88979 0.0
H1323 H 0.50476 0.82647 0.85955 0.0
H1324 H 0.49091 0.85725 0.93167 0.0
H1325 H 0.48675 0.89447 0.94238 0.0
C1326 C 0.13185 0.43831 0.88861 0.0
C1327 C 0.15097 0.45895 0.87391 0.0
C1328 C 0.12713 0.50099 0.90004 0.0
C1329 C 0.10683 0.48056 0.91338 0.0
N1330 N 0.08729 0.4304 0.91893 0.0
N1331 N 0.16334 0.51004 0.86054 0.0
C1332 C 0.10828 0.44939 0.90703 0.0
C1333 C 0.1477 0.49036 0.87821 0.0
N1334 N 0.13702 0.40821 0.88579 0.0
N1335 N 0.12704 0.53042 0.90858 0.0
H1336 H 0.17852 0.50328 0.84401 0.0
H1337 H 0.15942 0.53304 0.86038 0.0
H1338 H 0.11152 0.53914 0.92382 0.0
H1339 H 0.1436 0.54571 0.9023 0.0
H1340 H 0.12595 0.39192 0.89834 0.0
H1341 H 0.15406 0.39945 0.87224 0.0
H1342 H 0.08477 0.40813 0.91249 0.0
H1343 H 0.0715 0.43732 0.93476 0.0
C1344 C 0.44871 0.13275 0.89113 0.0
C1345 C 0.47005 0.1473 0.8727 0.0
C1346 C 0.51146 0.11966 0.89632 0.0
C1347 C 0.49022 0.10623 0.91575 0.0
N1348 N 0.43948 0.10238 0.93498 0.0
N1349 N 0.52182 0.15908 0.86044 0.0
C1350 C 0.4591 0.11367 0.91427 0.0
C1351 C 0.50151 0.14206 0.87605 0.0
N1352 N 0.41855 0.13623 0.88567 0.0
N1353 N 0.54094 0.11063 0.89696 0.0
H1354 H 0.51545 0.17554 0.84509 0.0
H1355 H 0.54496 0.15858 0.86425 0.0
H1356 H 0.54917 0.09514 0.91247 0.0
H1357 H 0.5569 0.11701 0.88109 0.0
H1358 H 0.40187 0.12344 0.89595 0.0
H1359 H 0.41018 0.15049 0.8691 0.0
H1360 H 0.41747 0.11007 0.93759 0.0
H1361 H 0.44577 0.08638 0.95076 0.0
C1362 C 0.89033 0.56077 0.88053 0.0
C1363 C 0.87197 0.53772 0.8687 0.0
C1364 C 0.89827 0.50008 0.89871 0.0
C1365 C 0.91774 0.52284 0.90923 0.0
N1366 N 0.93538 0.57398 0.90813 0.0
N1367 N 0.8618 0.48502 0.86136 0.0
C1368 C 0.91484 0.55293 0.89932 0.0
C1369 C 0.87684 0.5072 0.87633 0.0
N1370 N 0.88356 0.59012 0.87466 0.0
N1371 N 0.89997 0.4718 0.91045 0.0
H1372 H 0.84599 0.48925 0.84459 0.0
H1373 H 0.8668 0.46233 0.86366 0.0
H1374 H 0.91625 0.4655 0.92609 0.0
H1375 H 0.88406 0.45516 0.90631 0.0
H1376 H 0.89411 0.60817 0.88502 0.0
H1377 H 0.86568 0.59658 0.8609 0.0
H1378 H 0.93651 0.5955 0.89921 0.0
H1379 H 0.95236 0.56949 0.92362 0.0
C1380 C 0.62874 0.63006 0.94698 0.0
C1381 C 0.64355 0.64712 0.96926 0.0
C1382 C 0.61293 0.62415 0.00866 0.0
C1383 C 0.59774 0.60755 0.98633 0.0
N1384 N 0.58662 0.5979 0.9343 0.0
N1385 N 0.64637 0.66544 0.02014 0.0
C1386 C 0.60418 0.61158 0.95544 0.0
C1387 C 0.63458 0.64572 0.9998 0.0
N1388 N 0.63891 0.63073 0.91804 0.0
N1389 N 0.60732 0.61857 0.03829 0.0
H1390 H 0.66257 0.68144 0.0146 0.0
H1391 H 0.63844 0.66766 0.04199 0.0
H1392 H 0.59072 0.60366 0.04549 0.0
H1393 H 0.62023 0.62722 0.05573 0.0
H1394 H 0.63131 0.61631 0.90135 0.0
H1395 H 0.65651 0.64457 0.91104 0.0
H1396 H 0.58799 0.60242 0.91145 0.0
H1397 H 0.56912 0.58328 0.93977 0.0
C1398 C 0.36834 0.63413 0.02147 0.0
C1399 C 0.36357 0.63663 0.05289 0.0
C1400 C 0.40674 0.6041 0.06247 0.0
C1401 C 0.40937 0.59911 0.03113 0.0
N1402 N 0.3912 0.60626 0.98082 0.0
N1403 N 0.3759 0.6225 0.10349 0.0
C1404 C 0.3897 0.61321 0.01061 0.0
C1405 C 0.38228 0.62136 0.07351 0.0
N1406 N 0.3534 0.65272 1.00208 0.0
N1407 N 0.42757 0.59216 0.08163 0.0
H1408 H 0.35814 0.63512 0.11224 0.0
H1409 H 0.3867 0.60937 0.11951 0.0
H1410 H 0.44423 0.57729 0.07457 0.0
H1411 H 0.4292 0.59787 0.10419 0.0
H1412 H 0.35837 0.65414 0.97932 0.0
H1413 H 0.33784 0.66881 0.00901 0.0
H1414 H 0.37512 0.61299 0.9652 0.0
H1415 H 0.40751 0.59193 0.97202 0.0
C1416 C 0.38868 0.3776 0.96067 0.0
C1417 C 0.369 0.36947 0.98423 0.0
C1418 C 0.39371 0.40482 0.01809 0.0
C1419 C 0.41472 0.41137 0.99509 0.0
N1420 N 0.4359 0.40036 0.94645 0.0
N1421 N 0.35586 0.37054 0.0368 0.0
C1422 C 0.4134 0.39657 0.96699 0.0
C1423 C 0.37227 0.38179 0.01338 0.0
N1424 N 0.38307 0.36807 0.93208 0.0
N1425 N 0.39429 0.42055 0.0444 0.0
H1426 H 0.34004 0.35344 0.03439 0.0
H1427 H 0.35964 0.37632 0.05908 0.0
H1428 H 0.41094 0.43623 0.04947 0.0
H1429 H 0.37732 0.41937 0.06049 0.0
H1430 H 0.39469 0.376 0.9134 0.0
H1431 H 0.36501 0.35413 0.92664 0.0
H1432 H 0.43808 0.38718 0.92731 0.0
H1433 H 0.45362 0.41528 0.94956 0.0
C1434 C 0.63018 0.38371 0.05317 0.0
C1435 C 0.6515 0.37702 0.03051 0.0
C1436 C 0.62708 0.4119 0.99585 0.0
C1437 C 0.60636 0.4192 0.01886 0.0
N1438 N 0.59076 0.41691 0.07062 0.0
N1439 N 0.67294 0.38607 0.9815 0.0
C1440 C 0.60855 0.40641 0.04787 0.0
C1441 C 0.65085 0.39165 1.00222 0.0
N1442 N 0.63032 0.36793 0.07947 0.0
N1443 N 0.62322 0.42346 0.96768 0.0
H1444 H 0.6897 0.36996 0.98444 0.0
H1445 H 0.67584 0.39848 0.96198 0.0
H1446 H 0.6065 0.43904 0.96242 0.0
H1447 H 0.63525 0.41643 0.94893 0.0
H1448 H 0.61304 0.36892 0.09523 0.0
H1449 H 0.64702 0.35237 0.08489 0.0
H1450 H 0.59334 0.41081 0.09299 0.0
H1451 H 0.57481 0.43381 0.0676 0.0
C1452 C 0.96596 0.652 0.61192 0.0
C1453 C 0.97829 0.65025 0.64096 0.0
C1454 C 1.00722 0.60592 0.62649 0.0
C1455 C 0.99666 0.60906 0.5964 0.0
N1456 N 0.97414 0.64335 0.55966 0.0
N1457 N 0.0173 0.63095 0.67346 0.0
C1458 C 0.9787 0.63461 0.58868 0.0
C1459 C 1.00072 0.62867 0.6477 0.0
N1460 N 0.94159 0.67004 0.60655 0.0
N1461 N 0.02405 0.58171 0.63497 0.0
H1462 H 0.01421 0.64793 0.68919 0.0
H1463 H 0.03627 0.61785 0.67778 0.0
H1464 H 0.03293 0.56621 0.62003 0.0
H1465 H 0.02827 0.57638 0.65732 0.0
H1466 H 0.93035 0.67064 0.58609 0.0
H1467 H 0.9308 0.68223 0.62339 0.0
H1468 H 0.96469 0.66404 0.55416 0.0
H1469 H 0.9813 0.63195 0.54077 0.0
C1470 C 0.3823 0.9546 0.6266 0.0
C1471 C 0.36276 0.97682 0.63803 0.0
C1472 C 0.38676 0.01507 0.60678 0.0
C1473 C 0.40812 0.9934 0.59758 0.0
N1474 N 0.42857 0.94334 0.60054 0.0
N1475 N 0.34878 0.02895 0.6432 0.0
C1476 C 0.40665 0.96342 0.60815 0.0
C1477 C 0.3655 0.0073 0.6292 0.0
N1478 N 0.37687 0.925 0.6325 0.0
N1479 N 0.3867 0.04292 0.594 0.0
H1480 H 0.333 0.02427 0.65989 0.0
H1481 H 0.35221 0.05182 0.64006 0.0
H1482 H 0.40267 0.04962 0.57822 0.0
H1483 H 0.36962 0.0586 0.59735 0.0
H1484 H 0.38832 0.90748 0.62208 0.0
H1485 H 0.35907 0.91777 0.64598 0.0
H1486 H 0.43116 0.92262 0.61096 0.0
H1487 H 0.44514 0.9481 0.58475 0.0
C1488 C 1.00078 0.39737 0.65237 0.0
C1489 C 0.0207 0.37318 0.64731 0.0
C1490 C 0.02823 0.389 0.59578 0.0
C1491 C 0.01163 0.41591 0.60168 0.0
N1492 N 0.98475 0.44678 0.63814 0.0
N1493 N 0.05911 0.34991 0.61715 0.0
C1494 C 0.99895 0.42059 0.6308 0.0
C1495 C 0.03616 0.37025 0.61993 0.0
N1496 N 0.98233 0.39742 0.67697 0.0
N1497 N 0.03616 0.38042 0.56746 0.0
H1498 H 0.06612 0.33616 0.63475 0.0
H1499 H 0.07316 0.34888 0.59845 0.0
H1500 H 0.03431 0.39345 0.54838 0.0
H1501 H 0.04381 0.35885 0.56259 0.0
H1502 H 0.96468 0.41258 0.67982 0.0
H1503 H 0.98272 0.38065 0.69324 0.0
H1504 H 0.97939 0.45255 0.66013 0.0
H1505 H 0.97933 0.46351 0.62294 0.0
C1506 C 0.62935 0.01382 0.64656 0.0
C1507 C 0.6429 0.98503 0.64842 0.0
C1508 C 0.61239 0.96708 0.60659 0.0
C1509 C 0.60002 0.9963 0.60382 0.0
N1510 N 0.59962 0.04859 0.61705 0.0
N1511 N 0.64992 0.93487 0.62965 0.0
C1512 C 0.60912 0.01998 0.6228 0.0
C1513 C 0.63513 0.96177 0.62827 0.0
N1514 N 0.63582 0.03522 0.66756 0.0
N1515 N 0.60183 0.94436 0.58889 0.0
H1516 H 0.66552 0.92968 0.64636 0.0
H1517 H 0.64801 0.91811 0.61357 0.0
H1518 H 0.58548 0.9476 0.57244 0.0
H1519 H 0.6075 0.92191 0.59168 0.0
H1520 H 0.62401 0.05528 0.66957 0.0
H1521 H 0.65185 0.03229 0.68439 0.0
H1522 H 0.60801 0.06747 0.62788 0.0
H1523 H 0.58481 0.05384 0.59967 0.0
C1524 C 0.00993 0.37087 0.38028 0.0
C1525 C 0.97938 0.36828 0.37101 0.0
C1526 C 0.96558 0.41212 0.40031 0.0
C1527 C 0.99547 0.41323 0.41159 0.0
N1528 N 0.04544 0.39238 0.41557 0.0
N1529 N 0.92721 0.38273 0.3754 0.0
C1530 C 0.01749 0.39213 0.40262 0.0
C1531 C 0.95692 0.38791 0.38186 0.0
N1532 N 0.03177 0.35384 0.36688 0.0
N1533 N 0.94551 0.43436 0.40708 0.0
H1534 H 0.92006 0.3651 0.3618 0.0
H1535 H 0.90948 0.39426 0.3855 0.0
H1536 H 0.95033 0.45143 0.4222 0.0
H1537 H 0.92481 0.43689 0.39635 0.0
H1538 H 0.05476 0.357 0.37033 0.0
H1539 H 0.02713 0.33789 0.35043 0.0
H1540 H 0.06142 0.37556 0.41241 0.0
H1541 H 0.05208 0.40855 0.4311 0.0
C1542 C 0.6323 0.96336 0.38169 0.0
C1543 C 0.65121 0.9871 0.37245 0.0
C1544 C 0.62603 0.02163 0.40685 0.0
C1545 C 0.6054 0.99853 0.41396 0.0
N1546 N 0.58579 0.94875 0.4056 0.0
N1547 N 0.66379 0.03979 0.37215 0.0
C1548 C 0.60756 0.96979 0.40056 0.0
C1549 C 0.64757 0.01655 0.38397 0.0
N1550 N 0.63865 0.93457 0.37323 0.0
N1551 N 0.62508 0.04825 0.42203 0.0
H1552 H 0.67987 0.037 0.35531 0.0
H1553 H 0.65972 0.06219 0.37729 0.0
H1554 H 0.60875 0.05317 0.43813 0.0
H1555 H 0.6416 0.06472 0.42014 0.0
H1556 H 0.62767 0.91591 0.38202 0.0
H1557 H 0.65673 0.92905 0.35931 0.0
H1558 H 0.58409 0.92898 0.39333 0.0
H1559 H 0.56816 0.95195 0.42068 0.0
C1560 C 0.0657 0.62084 0.3738 0.0
C1561 C 0.04534 0.64343 0.36459 0.0
C1562 C 1.00581 0.62312 0.39713 0.0
C1563 C 0.0268 0.60172 0.40766 0.0
N1564 N 0.07747 0.58209 0.40982 0.0
N1565 N 0.99699 0.66827 0.36827 0.0
C1566 C 0.05693 0.60097 0.39692 0.0
C1567 C 0.01565 0.64527 0.37655 0.0
N1568 N 0.09319 0.61819 0.3601 0.0
N1569 N 0.97632 0.62147 0.40602 0.0
H1570 H 1.00258 0.68397 0.35188 0.0
H1571 H 0.97653 0.67294 0.37871 0.0
H1572 H 0.9686 0.60568 0.42146 0.0
H1573 H 0.95902 0.63422 0.39677 0.0
H1574 H 0.10757 0.59999 0.36307 0.0
H1575 H 0.101 0.6334 0.34411 0.0
H1576 H 0.10048 0.58275 0.40534 0.0
H1577 H 0.07191 0.56742 0.42711 0.0
C1578 C 0.38677 0.05517 0.3767 0.0
C1579 C 0.36726 0.03152 0.3685 0.0
C1580 C 0.39335 0.99723 0.40244 0.0
C1581 C 0.41412 0.02038 0.409 0.0
N1582 N 0.43457 0.06939 0.39825 0.0
N1583 N 0.35562 0.97856 0.36813 0.0
C1584 C 0.41214 0.04873 0.39476 0.0
C1585 C 0.37147 1.00208 0.37988 0.0
N1586 N 0.38042 0.08392 0.36811 0.0
N1587 N 0.39453 0.97067 0.41774 0.0
H1588 H 0.33966 0.98099 0.35115 0.0
H1589 H 0.36016 0.95624 0.37325 0.0
H1590 H 0.4114 0.96556 0.4332 0.0
H1591 H 0.37777 0.95438 0.41645 0.0
H1592 H 0.39206 0.10253 0.3761 0.0
H1593 H 0.36175 0.08946 0.35499 0.0
H1594 H 0.43604 0.0889 0.38552 0.0
H1595 H 0.45295 0.06604 0.41235 0.0
C1596 C 1.00572 0.10764 0.35015 0.0
C1597 C 0.01088 0.1386 0.35397 0.0
C1598 C 0.01905 0.12984 0.40792 0.0
C1599 C 0.00918 0.09949 0.40489 0.0
N1600 N 0.98519 0.06305 0.37197 0.0
N1601 N 0.0168 0.18031 0.38784 0.0
C1602 C 1.00041 0.08935 0.37565 0.0
C1603 C 0.01588 0.15006 0.38325 0.0
N1604 N 1.00608 0.09546 0.32205 0.0
N1605 N 0.03311 0.1393 0.43344 0.0
H1606 H 0.01445 0.19587 0.37055 0.0
H1607 H 0.01708 0.18987 0.40915 0.0
H1608 H 0.03804 0.12534 0.4514 0.0
H1609 H 0.04331 0.16026 0.43526 0.0
H1610 H 1.00556 0.07241 0.31826 0.0
H1611 H 0.01017 0.10811 0.30281 0.0
H1612 H 0.97589 0.0564 0.35157 0.0
H1613 H 0.97806 0.04989 0.38969 0.0
C1614 C 0.87696 0.99131 0.37499 0.0
C1615 C 0.87873 0.01701 0.35605 0.0
C1616 C 0.91231 0.04073 0.39309 0.0
C1617 C 0.91434 0.01343 0.4093 0.0
N1618 N 0.90063 0.96144 0.41398 0.0
N1619 N 0.90215 0.06466 0.3454 0.0
C1620 C 0.89713 0.98836 0.39982 0.0
C1621 C 0.8974 0.0414 0.36476 0.0
N1622 N 0.85508 0.97029 0.37017 0.0
N1623 N 0.92409 0.0663 0.40513 0.0
H1624 H 0.8925 0.06557 0.32411 0.0
H1625 H 0.91793 0.08149 0.3493 0.0
H1626 H 0.9355 0.06646 0.42558 0.0
H1627 H 0.9206 0.0875 0.39597 0.0
H1628 H 0.8508 0.95271 0.38493 0.0
H1629 H 0.83914 0.97207 0.3531 0.0
H1630 H 0.89152 0.94149 0.40594 0.0
H1631 H 0.91442 0.95873 0.43271 0.0
C1632 C 1.00867 0.90258 0.35109 0.0
C1633 C 1.00489 0.87158 0.35594 0.0
C1634 C 0.99776 0.88169 0.40981 0.0
C1635 C 1.00698 0.91212 0.40575 0.0
N1636 N 0.02832 0.94852 0.37068 0.0
N1637 N 1.00033 0.83072 0.39101 0.0
C1638 C 0.01421 0.92181 0.37586 0.0
C1639 C 1.00072 0.86084 0.38562 0.0
N1640 N 1.00691 0.91388 0.32267 0.0
N1641 N 0.98452 0.87272 0.43596 0.0
H1642 H 1.00223 0.81478 0.37403 0.0
H1643 H 1.00072 0.8217 0.41256 0.0
H1644 H 0.97968 0.88721 0.45355 0.0
H1645 H 0.97488 0.85161 0.43873 0.0
H1646 H 1.00626 0.93679 0.31815 0.0
H1647 H 1.00278 0.90046 0.30396 0.0
H1648 H 0.03654 0.95475 0.34969 0.0
H1649 H 0.03589 0.96266 0.38743 0.0
C1650 C 0.11971 0.96596 0.36064 0.0
C1651 C 0.14183 0.98788 0.35359 0.0
C1652 C 0.12853 0.01529 0.39988 0.0
C1653 C 0.1064 0.99331 0.4068 0.0
N1654 N 0.0894 0.94268 0.39947 0.0
N1655 N 0.17279 0.02888 0.37073 0.0
C1656 C 0.10449 0.96713 0.38882 0.0
C1657 C 0.14784 0.01126 0.37448 0.0
N1658 N 0.1124 0.94455 0.34003 0.0
N1659 N 0.13086 0.04034 0.41724 0.0
H1660 H 0.18776 0.02633 0.35289 0.0
H1661 H 0.18033 0.04416 0.38667 0.0
H1662 H 0.11875 0.04314 0.43702 0.0
H1663 H 0.14371 0.05896 0.41139 0.0
H1664 H 0.09425 0.92997 0.34267 0.0
H1665 H 0.12289 0.94303 0.31915 0.0
H1666 H 0.08983 0.92185 0.38894 0.0
H1667 H 0.07858 0.94263 0.42025 0.0
C1668 C 0.03237 0.90262 0.65752 0.0
C1669 C 0.01407 0.87661 0.65841 0.0
C1670 C 0.99571 0.88802 0.60742 0.0
C1671 C 0.01555 0.91306 0.60568 0.0
N1672 N 0.05833 0.9392 0.62692 0.0
N1673 N 0.98364 0.84079 0.6316 0.0
C1674 C 0.03549 0.91889 0.63014 0.0
C1675 C 0.99738 0.86819 0.63253 0.0
N1676 N 0.04607 0.91245 0.68311 0.0
N1677 N 0.97409 0.88387 0.58604 0.0
H1678 H 0.98442 0.82558 0.64934 0.0
H1679 H 0.97397 0.83198 0.61224 0.0
H1680 H 0.97175 0.89762 0.56737 0.0
H1681 H 0.9567 0.86832 0.58814 0.0
H1682 H 0.05679 0.93315 0.68477 0.0
H1683 H 0.0445 0.9011 0.70349 0.0
H1684 H 0.07539 0.94208 0.64269 0.0
H1685 H 0.0623 0.95082 0.60707 0.0
C1686 C 0.14593 0.99314 0.63583 0.0
C1687 C 0.14411 0.01892 0.65463 0.0
C1688 C 0.11208 0.04333 0.6168 0.0
C1689 C 0.1095 0.0159 0.601 0.0
N1690 N 0.12382 0.96422 0.59532 0.0
N1691 N 0.12246 0.06762 0.66421 0.0
C1692 C 0.12651 0.99068 0.61042 0.0
C1693 C 0.12655 0.04389 0.64531 0.0
N1694 N 0.16719 0.97165 0.64142 0.0
N1695 N 0.10135 0.06907 0.60415 0.0
H1696 H 0.13201 0.06859 0.68554 0.0
H1697 H 0.10737 0.08499 0.65983 0.0
H1698 H 0.09026 0.06918 0.58354 0.0
H1699 H 0.10533 0.09029 0.61302 0.0
H1700 H 0.17163 0.95389 0.62694 0.0
H1701 H 0.18255 0.97307 0.65904 0.0
H1702 H 0.13248 0.94399 0.60317 0.0
H1703 H 0.11136 0.96226 0.57562 0.0
C1704 C 1.00097 0.14958 0.62886 0.0
C1705 C 1.00758 0.1375 0.65764 0.0
C1706 C 0.02251 0.09045 0.63383 0.0
C1707 C 0.01206 0.10071 0.60519 0.0
N1708 N 0.98463 0.13933 0.57819 0.0
N1709 N 0.01735 0.09378 0.68768 0.0
C1710 C 0.9995 0.13015 0.60337 0.0
C1711 C 0.016 0.10712 0.66012 0.0
N1712 N 0.9969 0.17974 0.62557 0.0
N1713 N 0.04016 0.06551 0.63614 0.0
H1714 H 0.0123 0.10511 0.70751 0.0
H1715 H 0.0203 0.07077 0.69049 0.0
H1716 H 0.04775 0.05367 0.61767 0.0
H1717 H 0.0506 0.05895 0.65602 0.0
H1718 H 0.99524 0.19012 0.6047 0.0
H1719 H 0.99801 0.19472 0.64347 0.0
H1720 H 0.97233 0.15921 0.57723 0.0
H1721 H 0.98155 0.12591 0.55943 0.0
C1722 C 0.91065 0.98883 0.65973 0.0
C1723 C 0.88247 1.00387 0.65982 0.0
C1724 C 0.89159 0.01961 0.60753 0.0
C1725 C 0.91861 1.00227 0.60666 0.0
N1726 N 0.94784 0.96283 0.6299 0.0
N1727 N 0.84282 0.02721 0.63095 0.0
C1728 C 0.92639 0.9847 0.63221 0.0
C1729 C 0.87198 0.01745 0.63289 0.0
N1730 N 0.92288 0.97901 0.68606 0.0
N1731 N 0.88494 0.03912 0.5849 0.0
H1732 H 0.82747 0.02546 0.64857 0.0
H1733 H 0.83302 0.03425 0.61093 0.0
H1734 H 0.89817 0.04161 0.56585 0.0
H1735 H 0.86762 0.05486 0.58629 0.0
H1736 H 0.94473 0.97054 0.68762 0.0
H1737 H 0.9124 0.98218 0.70676 0.0
H1738 H 0.95247 0.94761 0.64702 0.0
H1739 H 0.95819 0.9574 0.60968 0.0
C1740 C 0.35875 0.01194 0.10807 0.0
C1741 C 0.35765 0.9933 0.13381 0.0
C1742 C 0.4072 0.97261 0.11918 0.0
C1743 C 0.41046 0.99491 0.09668 0.0
N1744 N 0.39048 0.04046 0.07472 0.0
N1745 N 0.38456 0.9596 0.16686 0.0
C1746 C 0.3865 0.01588 0.09254 0.0
C1747 C 0.38294 0.97464 0.14027 0.0
N1748 N 0.33306 0.02544 0.09786 0.0
N1749 N 0.42593 0.94841 0.11935 0.0
H1750 H 0.36798 0.96113 0.18334 0.0
H1751 H 0.40381 0.948 0.17362 0.0
H1752 H 0.44168 0.94485 0.10241 0.0
H1753 H 0.42306 0.93024 0.13377 0.0
H1754 H 0.33208 0.03704 0.0776 0.0
H1755 H 0.31205 0.02212 0.10787 0.0
H1756 H 0.37472 0.05773 0.07316 0.0
H1757 H 0.41097 0.04549 0.06455 0.0
C1758 C 0.99791 0.38586 0.15008 0.0
C1759 C 0.00972 0.35769 0.14108 0.0
C1760 C 0.02184 0.37841 0.09156 0.0
C1761 C 0.01145 0.40768 0.10064 0.0
N1762 N 0.99029 0.43866 0.14021 0.0
N1763 N 0.03625 0.32763 0.10515 0.0
C1764 C 0.99997 0.41125 0.13047 0.0
C1765 C 0.02246 0.35417 0.11235 0.0
N1766 N 0.98329 0.38794 0.17703 0.0
N1767 N 0.03105 0.37319 0.06284 0.0
H1768 H 0.03654 0.30906 0.11935 0.0
H1769 H 0.04924 0.32434 0.08601 0.0
H1770 H 0.03787 0.38981 0.04825 0.0
H1771 H 0.032 0.35193 0.05326 0.0
H1772 H 0.97048 0.40633 0.18363 0.0
H1773 H 0.98221 0.37027 0.19231 0.0
H1774 H 0.98698 0.44391 0.16269 0.0
H1775 H 0.98574 0.45665 0.12618 0.0
C1776 C 0.66431 0.99351 0.10771 0.0
C1777 C 0.66408 0.01021 0.13477 0.0
C1778 C 0.61266 0.02781 0.1223 0.0
C1779 C 0.61161 0.00794 0.09741 0.0
N1780 N 0.63467 0.96637 0.07134 0.0
N1781 N 0.63502 0.03876 0.17067 0.0
C1782 C 0.63699 0.98926 0.09152 0.0
C1783 C 0.63742 0.02619 0.14287 0.0
N1784 N 0.69085 0.98225 0.09694 0.0
N1785 N 0.59079 0.0491 0.12579 0.0
H1786 H 0.65208 0.0375 0.18668 0.0
H1787 H 0.61501 0.04793 0.17881 0.0
H1788 H 0.57276 0.0515 0.111 0.0
H1789 H 0.59215 0.06616 0.14166 0.0
H1790 H 0.69279 0.97237 0.07587 0.0
H1791 H 0.71148 0.98569 0.10763 0.0
H1792 H 0.65149 0.95035 0.0682 0.0
H1793 H 0.61459 0.96133 0.06037 0.0
C1794 C 0.99401 0.66099 0.10828 0.0
C1795 C 1.00625 0.65824 0.13732 0.0
C1796 C 0.01707 0.6047 0.12786 0.0
C1797 C 1.0068 0.60766 0.0975 0.0
N1798 N 0.9875 0.64116 0.05872 0.0
N1799 N 0.03311 0.62914 0.17393 0.0
C1800 C 0.99599 0.63654 0.08775 0.0
C1801 C 0.01852 0.63049 0.14693 0.0
N1802 N 0.97932 0.68688 0.10057 0.0
N1803 N 0.02597 0.5775 0.13884 0.0
H1804 H 0.03397 0.64713 0.18884 0.0
H1805 H 0.04636 0.61111 0.1807 0.0
H1806 H 0.03078 0.5589 0.12574 0.0
H1807 H 0.02813 0.57303 0.16165 0.0
H1808 H 0.96667 0.68947 0.08111 0.0
H1809 H 0.9778 0.70541 0.11475 0.0
H1810 H 0.98592 0.66232 0.04897 0.0
H1811 H 0.98196 0.62415 0.04402 0.0
C1812 C 0.38267 0.02518 0.86567 0.0
C1813 C 0.35696 0.0079 0.87393 0.0
C1814 C 0.38598 0.98653 0.91556 0.0
C1815 C 0.41023 0.00667 0.90999 0.0
N1816 N 0.4285 0.04958 0.88233 0.0
N1817 N 0.33233 0.97785 0.91159 0.0
C1818 C 0.40773 0.02728 0.88575 0.0
C1819 C 0.35808 0.99043 0.90045 0.0
N1820 N 0.38396 0.03848 0.83813 0.0
N1821 N 0.39002 0.96252 0.93413 0.0
H1822 H 0.31126 0.98101 0.90167 0.0
H1823 H 0.33148 0.96713 0.93234 0.0
H1824 H 0.41084 0.95737 0.9436 0.0
H1825 H 0.37389 0.94577 0.93695 0.0
H1826 H 0.40341 0.04863 0.82982 0.0
H1827 H 0.36666 0.03694 0.82242 0.0
H1828 H 0.42587 0.06708 0.86708 0.0
H1829 H 0.4469 0.05222 0.89653 0.0
C1830 C 0.02189 0.37943 0.86543 0.0
C1831 C 0.01033 0.35169 0.87605 0.0
C1832 C 0.9992 0.37474 0.92478 0.0
C1833 C 0.00963 0.40346 0.9142 0.0
N1834 N 0.03138 0.43232 0.87346 0.0
N1835 N 0.9854 0.32312 0.9143 0.0
C1836 C 0.02089 0.40557 0.88415 0.0
C1837 C 0.99847 0.34946 0.9053 0.0
N1838 N 0.0349 0.38044 0.83762 0.0
N1839 N 0.99011 0.37104 0.95377 0.0
H1840 H 0.98594 0.30352 0.90159 0.0
H1841 H 0.97241 0.32082 0.93358 0.0
H1842 H 0.98308 0.38842 0.96734 0.0
H1843 H 0.98935 0.35037 0.96457 0.0
H1844 H 0.04733 0.39843 0.82947 0.0
H1845 H 0.03468 0.36236 0.82281 0.0
H1846 H 0.03476 0.43689 0.85085 0.0
H1847 H 0.03688 0.45044 0.88697 0.0
C1848 C 0.656 0.04654 0.89425 0.0
C1849 C 0.66324 0.02306 0.87394 0.0
C1850 C 0.61844 0.99526 0.89098 0.0
C1851 C 0.60977 0.01969 0.90939 0.0
N1852 N 0.61787 0.07065 0.92522 0.0
N1853 N 0.64711 0.97834 0.84804 0.0
C1854 C 0.62786 0.046 0.90996 0.0
C1855 C 0.6432 0.99838 0.87088 0.0
N1856 N 0.67655 0.06875 0.89944 0.0
N1857 N 0.60412 0.96837 0.89382 0.0
H1858 H 0.66433 0.98013 0.83221 0.0
H1859 H 0.63152 0.96167 0.84301 0.0
H1860 H 0.58593 0.96513 0.90828 0.0
H1861 H 0.61217 0.94869 0.88413 0.0
H1862 H 0.6741 0.08479 0.91621 0.0
H1863 H 0.69738 0.06966 0.88862 0.0
H1864 H 0.6284 0.09148 0.92426 0.0
H1865 H 0.59744 0.07096 0.93683 0.0
C1866 C 0.02984 0.65656 0.89553 0.0
C1867 C 0.01363 0.65457 0.8684 0.0
C1868 C 1.00237 0.60131 0.87918 0.0
C1869 C 0.01596 0.60394 0.90821 0.0
N1870 N 0.04146 0.63628 0.94404 0.0
N1871 N 0.9817 0.6264 0.83528 0.0
C1872 C 0.0293 0.63221 0.91627 0.0
C1873 C 0.99934 0.62725 0.86041 0.0
N1874 N 0.04665 0.68164 0.90124 0.0
N1875 N 0.99208 0.57424 0.86917 0.0
H1876 H 0.97985 0.64437 0.82043 0.0
H1877 H 0.96713 0.60884 0.83022 0.0
H1878 H 0.99001 0.55525 0.8824 0.0
H1879 H 0.98655 0.57012 0.84688 0.0
H1880 H 0.06225 0.68321 0.91859 0.0
H1881 H 0.04681 0.70037 0.88725 0.0
H1882 H 0.04591 0.65724 0.95329 0.0
H1883 H 0.04689 0.61879 0.95821 0.0
C1884 C 0.14814 0.37657 1.00097 0.0
C1885 C 0.14289 0.35603 0.02484 0.0
C1886 C 0.1062 0.39155 0.04636 0.0
C1887 C 0.1073 0.40909 0.01984 0.0
N1888 N 0.13054 0.41927 0.97216 0.0
N1889 N 0.11577 0.34345 0.06994 0.0
C1890 C 0.12882 0.40198 0.99732 0.0
C1891 C 0.12177 0.36352 0.04761 0.0
N1892 N 0.17248 0.37251 0.98255 0.0
N1893 N 0.09133 0.40239 0.07087 0.0
H1894 H 0.12627 0.32257 0.07135 0.0
H1895 H 0.09882 0.34655 0.08579 0.0
H1896 H 0.07983 0.42279 0.0706 0.0
H1897 H 0.09241 0.39246 0.09197 0.0
H1898 H 0.17954 0.38818 0.96675 0.0
H1899 H 0.18753 0.35469 0.98487 0.0
H1900 H 0.14286 0.41333 0.95321 0.0
H1901 H 0.11851 0.43914 0.96975 0.0
C1902 C 0.13 0.6445 0.96603 0.0
C1903 C 0.14759 0.65324 0.99118 0.0
C1904 C 0.12648 0.61097 0.02003 0.0
C1905 C 0.10911 0.60216 0.99482 0.0
N1906 N 0.10162 0.60491 0.94153 0.0
N1907 N 0.16853 0.63994 0.03931 0.0
C1908 C 0.11309 0.61726 0.96709 0.0
C1909 C 0.14752 0.63505 0.01741 0.0
N1910 N 0.12853 0.66276 0.9415 0.0
N1911 N 0.12258 0.5965 0.04669 0.0
H1912 H 0.18479 0.65676 0.03798 0.0
H1913 H 0.17181 0.62565 0.05747 0.0
H1914 H 0.10904 0.57756 0.04878 0.0
H1915 H 0.1315 0.60409 0.06688 0.0
H1916 H 0.11381 0.65912 0.92369 0.0
H1917 H 0.14035 0.68291 0.94001 0.0
H1918 H 0.10637 0.61298 0.92014 0.0
H1919 H 0.08907 0.58514 0.94168 0.0
C1920 C 0.35255 0.1047 0.99801 0.0
C1921 C 0.35323 0.13178 0.01462 0.0
C1922 C 0.40447 0.11864 0.03182 0.0
C1923 C 0.40552 0.09417 0.01137 0.0
N1924 N 0.38151 0.06872 0.96973 0.0
N1925 N 0.38285 0.16722 0.04309 0.0
C1926 C 0.37975 0.08844 0.99308 0.0
C1927 C 0.38002 0.13951 0.03043 0.0
N1928 N 0.32576 0.09414 0.98724 0.0
N1929 N 0.42595 0.12138 0.05356 0.0
H1930 H 0.36602 0.1835 0.04202 0.0
H1931 H 0.40305 0.175 0.05214 0.0
H1932 H 0.44331 0.10592 0.05638 0.0
H1933 H 0.42454 0.13707 0.0708 0.0
H1934 H 0.32351 0.07305 0.97746 0.0
H1935 H 0.30528 0.10503 0.99105 0.0
H1936 H 0.36426 0.06594 0.95412 0.0
H1937 H 0.40141 0.05804 0.96354 0.0
C1938 C 0.8732 0.37844 0.01533 0.0
C1939 C 0.87772 0.35706 0.99205 0.0
C1940 C 0.91499 0.39105 0.96912 0.0
C1941 C 0.91438 0.40957 0.99497 0.0
N1942 N 0.89241 0.42124 0.0429 0.0
N1943 N 0.90476 0.34219 0.94757 0.0
C1944 C 0.89318 0.40344 0.01805 0.0
C1945 C 0.89899 0.36327 0.96902 0.0
N1946 N 0.84894 0.37562 0.03406 0.0
N1947 N 0.92985 0.40069 0.9441 0.0
H1948 H 0.89395 0.32145 0.94701 0.0
H1949 H 0.92194 0.3443 0.9318 0.0
H1950 H 0.94165 0.42091 0.9435 0.0
H1951 H 0.92845 0.38996 0.92342 0.0
H1952 H 0.84248 0.39198 0.04941 0.0
H1953 H 0.83339 0.35818 0.03239 0.0
H1954 H 0.88034 0.41595 0.0622 0.0
H1955 H 0.90515 0.44074 0.04474 0.0
C1956 C 0.66641 0.90545 0.97854 0.0
C1957 C 0.66944 0.8811 0.99882 0.0
C1958 C 0.62272 0.89773 0.02392 0.0
C1959 C 0.61701 0.91853 1.00052 0.0
N1960 N 0.63266 0.9398 0.9533 0.0
N1961 N 0.64738 0.85155 0.03855 0.0
C1962 C 0.63877 0.92179 0.97727 0.0
C1963 C 0.64683 0.87663 0.02104 0.0
N1964 N 0.69034 0.91354 0.96102 0.0
N1965 N 0.60617 0.89903 0.04966 0.0
H1966 H 0.66362 0.83479 0.03651 0.0
H1967 H 0.6301 0.84604 0.05328 0.0
H1968 H 0.58879 0.91447 0.05277 0.0
H1969 H 0.61178 0.88696 0.06886 0.0
H1970 H 0.69059 0.93287 0.94792 0.0
H1971 H 0.71116 0.90268 0.96208 0.0
H1972 H 0.64618 0.94069 0.93423 0.0
H1973 H 0.61259 0.95175 0.95132 0.0
C1974 C 0.89697 0.64929 0.0377 0.0
C1975 C 0.87731 0.65579 0.01338 0.0
C1976 C 0.89506 0.61014 0.98754 0.0
C1977 C 0.91482 0.60381 0.01179 0.0
N1978 N 0.92693 0.61178 0.06367 0.0
N1979 N 0.85183 0.63804 0.96905 0.0
C1980 C 0.91349 0.62177 0.03801 0.0
C1981 C 0.8747 0.63494 0.98938 0.0
N1982 N 0.90063 0.66984 0.06008 0.0
N1983 N 0.89601 0.59265 0.96249 0.0
H1984 H 0.8361 0.65541 0.96992 0.0
H1985 H 0.84659 0.62201 0.95294 0.0
H1986 H 0.90892 0.57321 0.96126 0.0
H1987 H 0.88514 0.59808 0.94255 0.0
H1988 H 0.91656 0.66759 0.07706 0.0
H1989 H 0.88928 0.69032 0.06045 0.0
H1990 H 0.92412 0.62202 0.08445 0.0
H1991 H 0.939 0.59172 0.06457 0.0
C1992 C 0.36981 0.89004 0.02225 0.0
C1993 C 0.36558 0.86787 0.9998 0.0
C1994 C 0.40966 0.88838 0.973 0.0
C1995 C 0.41662 0.90689 0.99795 0.0
N1996 N 0.40559 0.92085 0.04905 0.0
N1997 N 0.38517 0.84301 0.95575 0.0
C1998 C 0.39729 0.90639 0.02336 0.0
C1999 C 0.38652 0.86621 0.97563 0.0
N2000 N 0.34718 0.89605 0.04216 0.0
N2001 N 0.42384 0.89302 0.94628 0.0
H2002 H 0.36901 0.82611 0.95706 0.0
H2003 H 0.40173 0.83922 0.93961 0.0
H2004 H 0.43917 0.91043 0.94316 0.0
H2005 H 0.4178 0.88195 0.92662 0.0
H2006 H 0.34796 0.91387 0.05724 0.0
H2007 H 0.32628 0.88535 0.04129 0.0
H2008 H 0.39366 0.91898 0.06908 0.0
H2009 H 0.42613 0.93202 0.05119 0.0
C2010 C 0.63374 0.14909 0.99049 0.0
C2011 C 0.65949 0.14059 0.00773 0.0
C2012 C 0.62948 0.10001 0.03007 0.0
C2013 C 0.60556 0.10549 0.0096 0.0
N2014 N 0.58736 0.13286 0.9666 0.0
N2015 N 0.68315 0.10322 0.03904 0.0
C2016 C 0.60829 0.12944 0.98878 0.0
C2017 C 0.65769 0.11467 0.02614 0.0
N2018 N 0.63286 0.17647 0.97682 0.0
N2019 N 0.62499 0.08129 0.0539 0.0
H2020 H 0.7045 0.11239 0.03555 0.0
H2021 H 0.68349 0.08281 0.0504 0.0
H2022 H 0.60411 0.0715 0.0584 0.0
H2023 H 0.64079 0.07837 0.07095 0.0
H2024 H 0.61356 0.18488 0.96648 0.0
H2025 H 0.65028 0.19204 0.97842 0.0
H2026 H 0.5901 0.14777 0.94883 0.0
H2027 H 0.56852 0.11906 0.96454 0.0
C2028 C 0.48548 0.61932 0.85646 0.0
C2029 C 0.5044 0.64479 0.857 0.0
C2030 C 0.51877 0.63296 0.90923 0.0
C2031 C 0.50194 0.60566 0.90793 0.0
N2032 N 0.47098 0.57205 0.87824 0.0
N2033 N 0.54165 0.67462 0.88232 0.0
C2034 C 0.48582 0.5987 0.88093 0.0
C2035 C 0.52161 0.65132 0.88302 0.0
N2036 N 0.46643 0.61515 0.8327 0.0
N2037 N 0.53228 0.64159 0.93535 0.0
H2038 H 0.54356 0.68921 0.86415 0.0
H2039 H 0.55794 0.67831 0.89869 0.0
H2040 H 0.53368 0.62817 0.95428 0.0
H2041 H 0.54102 0.66293 0.93892 0.0
H2042 H 0.44918 0.59935 0.83242 0.0
H2043 H 0.46632 0.62901 0.81387 0.0
H2044 H 0.46341 0.56341 0.85792 0.0
H2045 H 0.46691 0.55786 0.89616 0.0
C2046 C 0.37317 0.48735 0.87666 0.0
C2047 C 0.37053 0.51402 0.85922 0.0
C2048 C 0.40224 0.54029 0.8961 0.0
C2049 C 0.4089 0.51271 0.91045 0.0
N2050 N 0.40087 0.45956 0.9146 0.0
N2051 N 0.38557 0.56528 0.85081 0.0
C2052 C 0.39434 0.4861 0.90079 0.0
C2053 C 0.38575 0.5404 0.86866 0.0
N2054 N 0.35438 0.46371 0.87115 0.0
N2055 N 0.41086 0.56654 0.90924 0.0
H2056 H 0.37442 0.56607 0.83025 0.0
H2057 H 0.39868 0.58416 0.85511 0.0
H2058 H 0.42333 0.5671 0.92904 0.0
H2059 H 0.40387 0.58753 0.90171 0.0
H2060 H 0.35303 0.44488 0.88486 0.0
H2061 H 0.33793 0.46402 0.85446 0.0
H2062 H 0.39408 0.43878 0.90642 0.0
H2063 H 0.41466 0.45822 0.93347 0.0
C2064 C 0.49008 0.38844 0.8651 0.0
C2065 C 0.51801 0.37415 0.85855 0.0
C2066 C 0.54004 0.39809 0.90333 0.0
C2067 C 0.51317 0.41498 0.90771 0.0
N2068 N 0.46462 0.43037 0.88827 0.0
N2069 N 0.57145 0.371 0.86796 0.0
C2070 C 0.48895 0.4116 0.88706 0.0
C2071 C 0.54353 0.38053 0.87677 0.0
N2072 N 0.46409 0.37866 0.85188 0.0
N2073 N 0.56255 0.39905 0.9242 0.0
H2074 H 0.57504 0.35919 0.84809 0.0
H2075 H 0.59131 0.3775 0.87857 0.0
H2076 H 0.56179 0.41281 0.94303 0.0
H2077 H 0.58108 0.38469 0.92383 0.0
H2078 H 0.44277 0.38612 0.85834 0.0
H2079 H 0.46336 0.36079 0.83688 0.0
H2080 H 0.4482 0.43111 0.87157 0.0
H2081 H 0.46175 0.44654 0.90483 0.0
C2082 C 0.61265 0.48806 0.85471 0.0
C2083 C 0.63893 0.50606 0.85357 0.0
C2084 C 0.62768 0.52494 0.90441 0.0
C2085 C 0.60195 0.50589 0.90605 0.0
N2086 N 0.5762 0.46277 0.8861 0.0
N2087 N 0.67529 0.53632 0.87992 0.0
C2088 C 0.59624 0.4856 0.88209 0.0
C2089 C 0.64758 0.52291 0.87923 0.0
N2090 N 0.60287 0.47379 0.82944 0.0
N2091 N 0.63267 0.54586 0.92617 0.0
H2092 H 0.69045 0.53539 0.86206 0.0
H2093 H 0.68441 0.54603 0.8991 0.0
H2094 H 0.6193 0.54794 0.94518 0.0
H2095 H 0.64878 0.56273 0.92434 0.0
H2096 H 0.58206 0.46306 0.82801 0.0
H2097 H 0.61439 0.47485 0.80907 0.0
H2098 H 0.57297 0.44565 0.87058 0.0
H2099 H 0.56566 0.45899 0.9066 0.0
C2100 C 0.50448 0.40425 0.16058 0.0
C2101 C 0.51372 0.37425 0.15605 0.0
C2102 C 0.52312 0.38523 0.10237 0.0
C2103 C 0.51283 0.41547 0.10644 0.0
N2104 N 0.49589 0.4539 0.14156 0.0
N2105 N 0.53442 0.33618 0.12404 0.0
C2106 C 0.50436 0.42495 0.13616 0.0
C2107 C 0.52371 0.36478 0.12729 0.0
N2108 N 0.49424 0.41266 0.18831 0.0
N2109 N 0.53274 0.37594 0.07476 0.0
H2110 H 0.53394 0.32037 0.14123 0.0
H2111 H 0.54514 0.32803 0.10501 0.0
H2112 H 0.53815 0.39042 0.05737 0.0
H2113 H 0.5358 0.35367 0.06868 0.0
H2114 H 0.48245 0.43236 0.19262 0.0
H2115 H 0.49641 0.39921 0.20732 0.0
H2116 H 0.49689 0.46395 0.16258 0.0
H2117 H 0.48717 0.46809 0.12538 0.0
C2118 C 0.64708 0.50237 0.13125 0.0
C2119 C 0.6429 0.52572 0.15259 0.0
C2120 C 0.60489 0.54849 0.11946 0.0
C2121 C 0.60536 0.52266 0.10092 0.0
N2122 N 0.62702 0.47458 0.08903 0.0
N2123 N 0.61602 0.57004 0.16812 0.0
C2124 C 0.62668 0.49958 0.10665 0.0
C2125 C 0.62143 0.54866 0.14689 0.0
N2126 N 0.67125 0.48349 0.13388 0.0
N2127 N 0.58968 0.57343 0.11014 0.0
H2128 H 0.62769 0.57092 0.18839 0.0
H2129 H 0.59833 0.58536 0.16665 0.0
H2130 H 0.57771 0.57405 0.09002 0.0
H2131 H 0.59095 0.59403 0.12103 0.0
H2132 H 0.67748 0.46811 0.11747 0.0
H2133 H 0.68689 0.48499 0.15127 0.0
H2134 H 0.63913 0.45526 0.09422 0.0
H2135 H 0.61387 0.47255 0.06982 0.0
C2136 C 0.4961 0.65191 0.1305 0.0
C2137 C 0.49975 0.63984 0.1598 0.0
C2138 C 0.51203 0.59132 0.13736 0.0
C2139 C 0.50427 0.60191 0.10796 0.0
N2140 N 0.48036 0.64197 0.07965 0.0
N2141 N 0.5027 0.59565 0.19057 0.0
C2142 C 0.49392 0.63216 0.10531 0.0
C2143 C 0.50486 0.60878 0.16299 0.0
N2144 N 0.49569 0.68222 0.12634 0.0
N2145 N 0.52802 0.56546 0.14125 0.0
H2146 H 0.49683 0.60759 0.20982 0.0
H2147 H 0.50341 0.57248 0.19361 0.0
H2148 H 0.53675 0.55302 0.12369 0.0
H2149 H 0.53639 0.55867 0.16201 0.0
H2150 H 0.49616 0.69204 0.10514 0.0
H2151 H 0.49791 0.69749 0.14387 0.0
H2152 H 0.47007 0.66292 0.07801 0.0
H2153 H 0.47581 0.62823 0.06142 0.0
C2154 C 0.36961 0.51061 0.13451 0.0
C2155 C 0.37687 0.48903 0.15684 0.0
C2156 C 0.41626 0.46874 0.12372 0.0
C2157 C 0.41285 0.49361 0.10415 0.0
N2158 N 0.38532 0.5382 0.09042 0.0
N2159 N 0.40832 0.44823 0.17346 0.0
C2160 C 0.38903 0.51438 0.10924 0.0
C2161 C 0.40042 0.46813 0.15156 0.0
N2162 N 0.34353 0.52685 0.13695 0.0
N2163 N 0.43337 0.44488 0.1149 0.0
H2164 H 0.39712 0.447 0.19399 0.0
H2165 H 0.42734 0.43458 0.17211 0.0
H2166 H 0.44452 0.44432 0.0943 0.0
H2167 H 0.43422 0.42471 0.12663 0.0
H2168 H 0.33511 0.54049 0.11998 0.0
H2169 H 0.32865 0.52465 0.15492 0.0
H2170 H 0.37095 0.5561 0.09488 0.0
H2171 H 0.39778 0.54095 0.07089 0.0
C2172 C 0.85524 0.52933 0.60829 0.0
C2173 C 0.85319 0.50973 0.63326 0.0
C2174 C 0.90099 0.48639 0.61726 0.0
C2175 C 0.90556 0.50951 0.59585 0.0
N2176 N 0.88833 0.55646 0.57501 0.0
N2177 N 0.87778 0.4726 0.66439 0.0
C2178 C 0.88297 0.53192 0.59248 0.0
C2179 C 0.87707 0.489 0.63857 0.0
N2180 N 0.83041 0.54503 0.59916 0.0
N2181 N 0.91817 0.46106 0.61618 0.0
H2182 H 0.8614 0.47438 0.68104 0.0
H2183 H 0.89621 0.4594 0.67043 0.0
H2184 H 0.93413 0.45744 0.5994 0.0
H2185 H 0.91404 0.4424 0.62963 0.0
H2186 H 0.82988 0.55751 0.57941 0.0
H2187 H 0.80942 0.54284 0.6095 0.0
H2188 H 0.87376 0.57477 0.574 0.0
H2189 H 0.90881 0.5599 0.56415 0.0
C2190 C 0.52071 0.87966 0.64335 0.0
C2191 C 0.50488 0.85346 0.63436 0.0
C2192 C 0.48392 0.88139 0.59165 0.0
C2193 C 0.50302 0.90635 0.5982 0.0
N2194 N 0.54349 0.9266 0.62837 0.0
N2195 N 0.47461 0.82811 0.59752 0.0
C2196 C 0.52232 0.90488 0.62368 0.0
C2197 C 0.48733 0.85401 0.60785 0.0
N2198 N 0.5337 0.88078 0.67111 0.0
N2199 N 0.46155 0.88409 0.57074 0.0
H2200 H 0.47637 0.80773 0.60885 0.0
H2201 H 0.46457 0.82627 0.5765 0.0
H2202 H 0.45723 0.90388 0.55916 0.0
H2203 H 0.44505 0.86786 0.56729 0.0
H2204 H 0.54266 0.90033 0.68024 0.0
H2205 H 0.53297 0.86294 0.6862 0.0
H2206 H 0.5605 0.92475 0.64436 0.0
H2207 H 0.546 0.94522 0.61459 0.0
C2208 C 0.1339 0.53236 0.64372 0.0
C2209 C 0.15646 0.50987 0.64027 0.0
C2210 C 0.1269 0.48787 0.59928 0.0
C2211 C 0.10577 0.51182 0.60077 0.0
N2212 N 0.09513 0.56158 0.61885 0.0
N2213 N 0.17817 0.4718 0.60856 0.0
C2214 C 0.11091 0.53547 0.62145 0.0
C2215 C 0.15412 0.48943 0.61602 0.0
N2216 N 0.13357 0.55007 0.66865 0.0
N2217 N 0.12051 0.46289 0.58283 0.0
H2218 H 0.19885 0.47311 0.61965 0.0
H2219 H 0.17863 0.45845 0.5894 0.0
H2220 H 0.10015 0.46014 0.57152 0.0
H2221 H 0.13388 0.44368 0.5832 0.0
H2222 H 0.11588 0.56468 0.67354 0.0
H2223 H 0.14951 0.54827 0.68571 0.0
H2224 H 0.09975 0.58051 0.63173 0.0
H2225 H 0.07998 0.56533 0.6014 0.0
C2226 C 0.50625 0.16056 0.61241 0.0
C2227 C 0.51276 0.1562 0.64309 0.0
C2228 C 0.52061 0.10234 0.63278 0.0
C2229 C 0.50948 0.106 0.60293 0.0
N2230 N 0.48363 0.13955 0.56837 0.0
N2231 N 0.52065 0.12139 0.68373 0.0
C2232 C 0.50014 0.13541 0.59385 0.0
C2233 C 0.51839 0.12664 0.65366 0.0
N2234 N 0.50611 0.18887 0.60071 0.0
N2235 N 0.53469 0.07644 0.64115 0.0
H2236 H 0.51893 0.13831 0.69974 0.0
H2237 H 0.52142 0.09988 0.69282 0.0
H2238 H 0.53826 0.05849 0.62676 0.0
H2239 H 0.54588 0.07407 0.66155 0.0
H2240 H 0.50447 0.19308 0.57778 0.0
H2241 H 0.51096 0.20784 0.61349 0.0
H2242 H 0.47394 0.16006 0.56261 0.0
H2243 H 0.47602 0.12206 0.5551 0.0
C2244 C 0.88541 0.52948 0.36189 0.0
C2245 C 0.85843 0.51414 0.36994 0.0
C2246 C 0.88416 0.49389 0.41418 0.0
C2247 C 0.91002 0.51197 0.40826 0.0
N2248 N 0.93174 0.55242 0.3794 0.0
N2249 N 0.83027 0.4882 0.40816 0.0
C2250 C 0.90972 0.53132 0.3829 0.0
C2251 C 0.85727 0.49843 0.39751 0.0
N2252 N 0.88848 0.5413 0.33383 0.0
N2253 N 0.88553 0.47124 0.43477 0.0
H2254 H 0.80993 0.49184 0.39698 0.0
H2255 H 0.82772 0.47911 0.42953 0.0
H2256 H 0.90518 0.46558 0.4462 0.0
H2257 H 0.86825 0.45571 0.43776 0.0
H2258 H 0.90879 0.54989 0.32581 0.0
H2259 H 0.87161 0.54008 0.31762 0.0
H2260 H 0.9308 0.56906 0.36303 0.0
H2261 H 0.9493 0.55532 0.39462 0.0
C2262 C 0.47529 0.88187 0.37291 0.0
C2263 C 0.50008 0.86196 0.36924 0.0
C2264 C 0.52755 0.88957 0.40838 0.0
C2265 C 0.50429 0.91159 0.40934 0.0
N2266 N 0.45755 0.93068 0.38909 0.0
N2267 N 0.55267 0.85152 0.37889 0.0
C2268 C 0.47876 0.90847 0.39034 0.0
C2269 C 0.52697 0.86698 0.38582 0.0
N2270 N 0.44793 0.87465 0.36082 0.0
N2271 N 0.55035 0.89001 0.42899 0.0
H2272 H 0.55378 0.83556 0.36188 0.0
H2273 H 0.57369 0.85672 0.38793 0.0
H2274 H 0.55304 0.90699 0.44475 0.0
H2275 H 0.56563 0.87244 0.43158 0.0
H2276 H 0.42822 0.88656 0.36525 0.0
H2277 H 0.4443 0.85489 0.34886 0.0
H2278 H 0.44026 0.93111 0.3733 0.0
H2279 H 0.45831 0.94977 0.4025 0.0
C2280 C 0.16378 0.51588 0.403 0.0
C2281 C 0.16261 0.50032 0.37538 0.0
C2282 C 0.11092 0.48406 0.38779 0.0
C2283 C 0.11053 0.50361 0.413 0.0
N2284 N 0.13568 0.54371 0.43988 0.0
N2285 N 0.13248 0.47374 0.33894 0.0
C2286 C 0.13676 0.52102 0.41934 0.0
C2287 C 0.13546 0.48548 0.36704 0.0
N2288 N 0.19087 0.5255 0.41395 0.0
N2289 N 0.08879 0.46307 0.38425 0.0
H2290 H 0.14952 0.47468 0.32289 0.0
H2291 H 0.11208 0.46553 0.33075 0.0
H2292 H 0.07129 0.46012 0.39956 0.0
H2293 H 0.08971 0.44641 0.36791 0.0
H2294 H 0.19338 0.53444 0.43539 0.0
H2295 H 0.21125 0.52151 0.40293 0.0
H2296 H 0.15334 0.55875 0.44315 0.0
H2297 H 0.116 0.55003 0.45088 0.0
C2298 C 0.54416 0.14008 0.37971 0.0
C2299 C 0.51845 0.15807 0.37325 0.0
C2300 C 0.48956 0.12867 0.41019 0.0
C2301 C 0.51402 0.10825 0.41338 0.0
N2302 N 0.56313 0.09197 0.3965 0.0
N2303 N 0.46429 0.16359 0.37724 0.0
C2304 C 0.54078 0.11305 0.39652 0.0
C2305 C 0.49048 0.15088 0.3872 0.0
N2306 N 0.57213 0.14946 0.37097 0.0
N2307 N 0.46521 0.12689 0.42886 0.0
H2308 H 0.46336 0.17845 0.35925 0.0
H2309 H 0.44307 0.15674 0.38459 0.0
H2310 H 0.46273 0.1102 0.44499 0.0
H2311 H 0.44845 0.14327 0.42961 0.0
H2312 H 0.59196 0.13876 0.37751 0.0
H2313 H 0.5757 0.1698 0.35999 0.0
H2314 H 0.58168 0.09294 0.38217 0.0
H2315 H 0.56215 0.07241 0.40923 0.0
C2316 C 0.64448 0.87937 0.48891 0.0
C2317 C 0.63555 0.85305 0.50469 0.0
C2318 C 0.59251 0.88087 0.52545 0.0
C2319 C 0.59912 0.90589 0.50674 0.0
N2320 N 0.62851 0.92588 0.46575 0.0
N2321 N 0.59686 0.82727 0.53256 0.0
C2322 C 0.62434 0.90433 0.48708 0.0
C2323 C 0.60826 0.85339 0.52131 0.0
N2324 N 0.6727 0.88122 0.47675 0.0
N2325 N 0.57204 0.88362 0.54818 0.0
H2326 H 0.60724 0.80655 0.52922 0.0
H2327 H 0.57558 0.82578 0.54237 0.0
H2328 H 0.56126 0.90375 0.55317 0.0
H2329 H 0.56847 0.86702 0.56423 0.0
H2330 H 0.68138 0.90097 0.46774 0.0
H2331 H 0.68852 0.86401 0.47826 0.0
H2332 H 0.64456 0.92406 0.44878 0.0
H2333 H 0.61412 0.94415 0.46322 0.0
C2334 C 0.64901 0.13063 0.52852 0.0
C2335 C 0.64471 0.15463 0.5079 0.0
C2336 C 0.60426 0.12577 0.48366 0.0
C2337 C 0.60579 0.10366 0.50662 0.0
N2338 N 0.62744 0.08729 0.55343 0.0
N2339 N 0.61536 0.17672 0.46819 0.0
C2340 C 0.62773 0.10658 0.52966 0.0
C2341 C 0.62157 0.1526 0.48606 0.0
N2342 N 0.67398 0.13032 0.54647 0.0
N2343 N 0.58701 0.12059 0.45887 0.0
H2344 H 0.62746 0.19672 0.46929 0.0
H2345 H 0.59662 0.17786 0.45418 0.0
H2346 H 0.57491 0.1008 0.45592 0.0
H2347 H 0.58727 0.13432 0.44001 0.0
H2348 H 0.68009 0.112 0.5596 0.0
H2349 H 0.69016 0.14727 0.54618 0.0
H2350 H 0.64044 0.09039 0.57262 0.0
H2351 H 0.61243 0.06943 0.55512 0.0
C2352 C 0.87569 0.64263 0.51688 0.0
C2353 C 0.85674 0.64046 0.49126 0.0
C2354 C 0.8933 0.6056 0.46842 0.0
C2355 C 0.91034 0.6053 0.49542 0.0
N2356 N 0.91357 0.61858 0.54757 0.0
N2357 N 0.84538 0.61637 0.44428 0.0
C2358 C 0.90044 0.62253 0.52023 0.0
C2359 C 0.86506 0.62106 0.46736 0.0
N2360 N 0.87083 0.66464 0.53762 0.0
N2361 N 0.90429 0.59122 0.44367 0.0
H2362 H 0.82439 0.62687 0.44303 0.0
H2363 H 0.84861 0.60017 0.42779 0.0
H2364 H 0.92468 0.57953 0.4438 0.0
H2365 H 0.89463 0.59296 0.42248 0.0
H2366 H 0.88566 0.66897 0.55518 0.0
H2367 H 0.85369 0.68053 0.53568 0.0
H2368 H 0.90448 0.62724 0.56728 0.0
H2369 H 0.9318 0.6042 0.55089 0.0
C2370 C 0.36915 0.88008 0.51811 0.0
C2371 C 0.37687 0.85659 0.49789 0.0
C2372 C 0.41485 0.88949 0.47499 0.0
C2373 C 0.41039 0.91108 0.49798 0.0
N2374 N 0.38479 0.92568 0.54334 0.0
N2375 N 0.40981 0.83773 0.45925 0.0
C2376 C 0.38776 0.90617 0.51996 0.0
C2377 C 0.40039 0.86104 0.4768 0.0
N2378 N 0.34346 0.87792 0.53493 0.0
N2379 N 0.43236 0.89659 0.45084 0.0
H2380 H 0.4 0.81651 0.46009 0.0
H2381 H 0.42901 0.83866 0.44583 0.0
H2382 H 0.44236 0.91759 0.44842 0.0
H2383 H 0.43415 0.88305 0.43192 0.0
H2384 H 0.33497 0.89551 0.54774 0.0
H2385 H 0.32903 0.85951 0.53392 0.0
H2386 H 0.37139 0.9214 0.56203 0.0
H2387 H 0.39733 0.94533 0.54502 0.0
C2388 C 0.13698 0.3724 0.52264 0.0
C2389 C 0.15757 0.37565 0.49834 0.0
C2390 C 0.12467 0.41483 0.47722 0.0
C2391 C 0.10584 0.41368 0.50296 0.0
N2392 N 0.09981 0.39697 0.55389 0.0
N2393 N 0.17451 0.40597 0.45683 0.0
C2394 C 0.11361 0.39406 0.52677 0.0
C2395 C 0.15243 0.39871 0.47692 0.0
N2396 N 0.13863 0.34803 0.54108 0.0
N2397 N 0.11572 0.43077 0.45264 0.0
H2398 H 0.19561 0.3956 0.45679 0.0
H2399 H 0.1731 0.4244 0.44254 0.0
H2400 H 0.09516 0.44208 0.45171 0.0
H2401 H 0.12716 0.43015 0.43224 0.0
H2402 H 0.1223 0.34331 0.55722 0.0
H2403 H 0.15452 0.33103 0.53838 0.0
H2404 H 0.10698 0.38555 0.57298 0.0
H2405 H 0.08335 0.41316 0.55789 0.0
C2406 C 0.39213 0.15208 0.53492 0.0
C2407 C 0.37455 0.15901 0.5092 0.0
C2408 C 0.39616 0.11495 0.48343 0.0
C2409 C 0.4127 0.10745 0.50964 0.0
N2410 N 0.419 0.11379 0.5628 0.0
N2411 N 0.35431 0.1425 0.46175 0.0
C2412 C 0.40851 0.12455 0.53612 0.0
C2413 C 0.37503 0.13915 0.48419 0.0
N2414 N 0.39412 0.17226 0.55784 0.0
N2415 N 0.40096 0.09925 0.4576 0.0
H2416 H 0.33793 0.15927 0.46177 0.0
H2417 H 0.35141 0.12699 0.44456 0.0
H2418 H 0.41517 0.08066 0.45654 0.0
H2419 H 0.39255 0.10586 0.43684 0.0
H2420 H 0.40906 0.1698 0.57569 0.0
H2421 H 0.38286 0.19279 0.55763 0.0
H2422 H 0.4139 0.12356 0.58339 0.0
H2423 H 0.43079 0.0936 0.56447 0.0
C2424 C 0.85524 0.40508 0.52357 0.0
C2425 C 0.8558 0.3774 0.50795 0.0
C2426 C 0.90544 0.39125 0.48697 0.0
C2427 C 0.90656 0.41689 0.50589 0.0
N2428 N 0.88479 0.44347 0.54783 0.0
N2429 N 0.88446 0.34176 0.47873 0.0
C2430 C 0.88199 0.42257 0.52566 0.0
C2431 C 0.8817 0.36984 0.49061 0.0
N2432 N 0.82897 0.41495 0.53617 0.0
N2433 N 0.92636 0.38768 0.4648 0.0
H2434 H 0.86805 0.32524 0.48121 0.0
H2435 H 0.90423 0.33402 0.46874 0.0
H2436 H 0.94379 0.40287 0.46118 0.0
H2437 H 0.92473 0.37124 0.44831 0.0
H2438 H 0.82655 0.43627 0.54539 0.0
H2439 H 0.80878 0.40305 0.53453 0.0
H2440 H 0.86869 0.4466 0.56456 0.0
H2441 H 0.90479 0.455 0.5517 0.0
C2442 C 0.16266 0.60974 0.52247 0.0
C2443 C 0.16428 0.63659 0.50554 0.0
C2444 C 0.11323 0.62622 0.48597 0.0
C2445 C 0.11039 0.60144 0.50585 0.0
N2446 N 0.13011 0.57568 0.54925 0.0
N2447 N 0.13786 0.67367 0.47596 0.0
C2448 C 0.13451 0.59493 0.52585 0.0
C2449 C 0.13867 0.64576 0.48853 0.0
N2450 N 0.18818 0.59793 0.53493 0.0
N2451 N 0.09236 0.6307 0.46394 0.0
H2452 H 0.15542 0.68904 0.47795 0.0
H2453 H 0.11856 0.68259 0.46605 0.0
H2454 H 0.07353 0.61709 0.46117 0.0
H2455 H 0.0952 0.64632 0.44679 0.0
H2456 H 0.18868 0.57695 0.54519 0.0
H2457 H 0.20941 0.60761 0.53214 0.0
H2458 H 0.1461 0.5721 0.56599 0.0
H2459 H 0.10912 0.56634 0.55396 0.0
loop_
_geom_bond_atom_site_label_1
_geom_bond_atom_site_label_2
_geom_bond_distance
_geom_bond_site_symmetry_2
_ccdc_geom_bond_type
C0 C1 1.383 1_455 S
C0 H13 0.948 . S
C0 C35 1.382 . S
C1 C0 1.383 1_655 S
C1 C2 1.378 . S
C2 C1 1.378 . S
C2 C3 1.378 . S
C2 H14 0.952 . S
C3 C2 1.378 . S
C3 H15 0.950 . S
C3 C34 1.383 . S
H4 C23 0.947 . S
H5 C24 0.954 . S
H6 C26 0.953 . S
H7 C27 0.945 . S
H8 C29 0.950 1_455 S
H9 C30 0.949 . S
H10 C32 0.950 . S
H11 C33 0.948 . S
H12 C35 0.951 . S
H13 C0 0.948 . S
H14 C2 0.952 . S
H15 C3 0.950 . S
N16 C19 1.382 . S
N16 C21 1.363 . S
N17 C19 1.371 . S
N17 C20 1.372 . S
N18 C20 1.361 . S
N18 C21 1.377 . S
C19 N16 1.382 . S
C19 N17 1.371 . S
C19 C22 1.480 . S
C20 N17 1.372 . S
C20 N18 1.361 . S
C20 C28 1.457 . S
C21 N16 1.363 . S
C21 N18 1.377 . S
C21 C34 1.479 . S
C22 C19 1.480 . S
C22 C23 1.383 . S
C22 C27 1.385 . S
C23 H4 0.947 . S
C23 C22 1.383 . S
C23 C24 1.385 1_655 S
C24 H5 0.954 . S
C24 C23 1.385 1_455 S
C24 C25 1.381 1_455 S
C25 C24 1.381 1_655 S
C25 C26 1.377 . S
C26 H6 0.953 . S
C26 C25 1.377 . S
C26 C27 1.369 . S
C27 H7 0.945 . S
C27 C22 1.385 . S
C27 C26 1.369 . S
C28 C20 1.457 . S
C28 C29 1.375 . S
C28 C33 1.364 . S
C29 H8 0.950 1_655 S
C29 C28 1.375 . S
C29 C30 1.388 1_655 S
C30 H9 0.949 . S
C30 C29 1.388 1_455 S
C30 C31 1.387 1_455 S
C31 C30 1.387 1_655 S
C31 C32 1.372 . S
C32 H10 0.950 . S
C32 C31 1.372 . S
C32 C33 1.379 . S
C33 H11 0.948 . S
C33 C28 1.364 . S
C33 C32 1.379 . S
C34 C3 1.383 . S
C34 C21 1.479 . S
C34 C35 1.398 1_655 S
C35 C0 1.382 . S
C35 H12 0.951 . S
C35 C34 1.398 1_455 S
C36 C37 1.384 1_545 S
C36 H49 0.948 . S
C36 C71 1.382 1_545 S
C37 C36 1.384 1_565 S
C37 C38 1.378 . S
C38 C37 1.378 . S
C38 C39 1.378 . S
C38 H50 0.952 . S
C39 C38 1.378 . S
C39 H51 0.950 . S
C39 C70 1.383 . S
H40 C59 0.947 . S
H41 C60 0.952 . S
H42 C62 0.953 . S
H43 C63 0.945 . S
H44 C65 0.949 1_545 S
H45 C66 0.949 . S
H46 C68 0.950 . S
H47 C69 0.948 . S
H48 C71 0.951 1_545 S
H49 C36 0.948 . S
H50 C38 0.952 . S
H51 C39 0.950 . S
N52 C55 1.382 . S
N52 C57 1.363 . S
N53 C55 1.371 . S
N53 C56 1.372 . S
N54 C56 1.361 . S
N54 C57 1.377 . S
C55 N52 1.382 . S
C55 N53 1.371 . S
C55 C58 1.480 . S
C56 N53 1.372 . S
C56 N54 1.361 . S
C56 C64 1.457 . S
C57 N52 1.363 . S
C57 N54 1.377 . S
C57 C70 1.479 . S
C58 C55 1.480 . S
C58 C59 1.383 . S
C58 C63 1.385 . S
C59 H40 0.947 . S
C59 C58 1.383 . S
C59 C60 1.386 1_565 S
C60 H41 0.952 . S
C60 C59 1.386 1_545 S
C60 C61 1.381 1_545 S
C61 C60 1.381 1_565 S
C61 C62 1.377 . S
C62 H42 0.953 . S
C62 C61 1.377 . S
C62 C63 1.369 . S
C63 H43 0.945 . S
C63 C58 1.385 . S
C63 C62 1.369 . S
C64 C56 1.457 . S
C64 C65 1.377 . S
C64 C69 1.364 . S
C65 H44 0.949 1_565 S
C65 C64 1.377 . S
C65 C66 1.387 1_565 S
C66 H45 0.949 . S
C66 C65 1.387 1_545 S
C66 C67 1.387 1_545 S
C67 C66 1.387 1_565 S
C67 C68 1.372 . S
C68 H46 0.950 . S
C68 C67 1.372 . S
C68 C69 1.379 . S
C69 H47 0.948 . S
C69 C64 1.364 . S
C69 C68 1.379 . S
C70 C39 1.383 . S
C70 C57 1.479 . S
C70 C71 1.398 . S
C71 C36 1.382 1_565 S
C71 H48 0.951 1_565 S
C71 C70 1.398 . S
C72 C73 1.384 . S
C72 H85 0.947 1_455 S
C72 C107 1.382 . S
C73 C72 1.384 . S
C73 C74 1.378 . S
C74 C73 1.378 . S
C74 C75 1.378 . S
C74 H86 0.952 . S
C75 C74 1.378 . S
C75 H87 0.950 . S
C75 C106 1.383 . S
H76 C95 0.947 . S
H77 C96 0.948 . S
H78 C98 0.953 . S
H79 C99 0.945 . S
H80 C101 0.952 1_655 S
H81 C102 0.953 . S
H82 C104 0.950 . S
H83 C105 0.948 . S
H84 C107 0.949 1_655 S
H85 C72 0.947 1_655 S
H86 C74 0.952 . S
H87 C75 0.950 . S
N88 C91 1.382 . S
N88 C93 1.363 . S
N89 C91 1.371 . S
N89 C92 1.372 . S
N90 C92 1.361 . S
N90 C93 1.377 . S
C91 N88 1.382 . S
C91 N89 1.371 . S
C91 C94 1.480 . S
C92 N89 1.372 . S
C92 N90 1.361 . S
C92 C100 1.457 . S
C93 N88 1.363 . S
C93 N90 1.377 . S
C93 C106 1.479 . S
C94 C91 1.480 . S
C94 C95 1.383 . S
C94 C99 1.385 . S
C95 H76 0.947 . S
C95 C94 1.383 . S
C95 C96 1.387 1_455 S
C96 H77 0.948 . S
C96 C95 1.387 1_655 S
C96 C97 1.383 1_655 S
C97 C96 1.383 1_455 S
C97 C98 1.377 . S
C98 H78 0.953 . S
C98 C97 1.377 . S
C98 C99 1.369 . S
C99 H79 0.945 . S
C99 C94 1.385 . S
C99 C98 1.369 . S
C100 C92 1.457 . S
C100 C101 1.372 . S
C100 C105 1.364 . S
C101 H80 0.952 1_455 S
C101 C100 1.372 . S
C101 C102 1.387 1_455 S
C102 H81 0.953 . S
C102 C101 1.387 1_655 S
C102 C103 1.384 1_655 S
C103 C102 1.384 1_455 S
C103 C104 1.372 . S
C104 H82 0.950 . S
C104 C103 1.372 . S
C104 C105 1.379 . S
C105 H83 0.948 . S
C105 C100 1.364 . S
C105 C104 1.379 . S
C106 C75 1.383 . S
C106 C93 1.479 . S
C106 C107 1.401 . S
C107 C72 1.382 . S
C107 H84 0.949 1_455 S
C107 C106 1.401 . S
C108 C109 1.384 1_565 S
C108 H121 0.947 . S
C108 C143 1.382 1_565 S
C109 C108 1.384 1_545 S
C109 C110 1.378 . S
C110 C109 1.378 . S
C110 C111 1.378 . S
C110 H122 0.952 . S
C111 C110 1.378 . S
C111 H123 0.950 . S
C111 C142 1.383 . S
H112 C131 0.947 . S
H113 C132 0.949 . S
H114 C134 0.953 . S
H115 C135 0.945 . S
H116 C137 0.947 1_565 S
H117 C138 0.954 . S
H118 C140 0.950 . S
H119 C141 0.948 . S
H120 C143 0.950 1_565 S
H121 C108 0.947 . S
H122 C110 0.952 . S
H123 C111 0.950 . S
N124 C127 1.382 . S
N124 C129 1.363 . S
N125 C127 1.371 . S
N125 C128 1.372 . S
N126 C128 1.361 . S
N126 C129 1.377 . S
C127 N124 1.382 . S
C127 N125 1.371 . S
C127 C130 1.480 . S
C128 N125 1.372 . S
C128 N126 1.361 . S
C128 C136 1.457 . S
C129 N124 1.363 . S
C129 N126 1.377 . S
C129 C142 1.479 . S
C130 C127 1.480 . S
C130 C131 1.383 . S
C130 C135 1.385 . S
C131 H112 0.947 . S
C131 C130 1.383 . S
C131 C132 1.387 1_545 S
C132 H113 0.949 . S
C132 C131 1.387 1_565 S
C132 C133 1.382 1_565 S
C133 C132 1.382 1_545 S
C133 C134 1.377 . S
C134 H114 0.953 . S
C134 C133 1.377 . S
C134 C135 1.369 . S
C135 H115 0.945 . S
C135 C130 1.385 . S
C135 C134 1.369 . S
C136 C128 1.457 . S
C136 C137 1.379 . S
C136 C141 1.364 . S
C137 H116 0.947 1_545 S
C137 C136 1.379 . S
C137 C138 1.387 1_545 S
C138 H117 0.954 . S
C138 C137 1.387 1_565 S
C138 C139 1.384 1_565 S
C139 C138 1.384 1_545 S
C139 C140 1.372 . S
C140 H118 0.950 . S
C140 C139 1.372 . S
C140 C141 1.379 . S
C141 H119 0.948 . S
C141 C136 1.364 . S
C141 C140 1.379 . S
C142 C111 1.383 . S
C142 C129 1.479 . S
C142 C143 1.399 . S
C143 C108 1.382 1_545 S
C143 H120 0.950 1_545 S
C143 C142 1.399 . S
C144 C145 1.383 1_455 S
C144 H157 0.949 . S
C144 C179 1.382 . S
C145 C144 1.383 1_655 S
C145 C146 1.378 . S
C146 C145 1.378 . S
C146 C147 1.378 . S
C146 H158 0.952 . S
C147 C146 1.378 . S
C147 H159 0.950 . S
C147 C178 1.383 . S
H148 C167 0.947 . S
H149 C168 0.954 . S
H150 C170 0.953 . S
H151 C171 0.945 . S
H152 C173 0.950 1_455 S
H153 C174 0.949 . S
H154 C176 0.950 . S
H155 C177 0.948 . S
H156 C179 0.951 . S
H157 C144 0.949 . S
H158 C146 0.952 . S
H159 C147 0.950 . S
N160 C163 1.382 . S
N160 C165 1.363 . S
N161 C163 1.371 . S
N161 C164 1.372 . S
N162 C164 1.361 . S
N162 C165 1.377 . S
C163 N160 1.382 . S
C163 N161 1.371 . S
C163 C166 1.480 . S
C164 N161 1.372 . S
C164 N162 1.361 . S
C164 C172 1.457 . S
C165 N160 1.363 . S
C165 N162 1.377 . S
C165 C178 1.479 . S
C166 C163 1.480 . S
C166 C167 1.383 . S
C166 C171 1.385 . S
C167 H148 0.947 . S
C167 C166 1.383 . S
C167 C168 1.385 1_655 S
C168 H149 0.954 . S
C168 C167 1.385 1_455 S
C168 C169 1.381 1_455 S
C169 C168 1.381 1_655 S
C169 C170 1.377 . S
C170 H150 0.953 . S
C170 C169 1.377 . S
C170 C171 1.369 . S
C171 H151 0.945 . S
C171 C166 1.385 . S
C171 C170 1.369 . S
C172 C164 1.457 . S
C172 C173 1.375 . S
C172 C177 1.364 . S
C173 H152 0.950 1_655 S
C173 C172 1.375 . S
C173 C174 1.388 1_655 S
C174 H153 0.949 . S
C174 C173 1.388 1_455 S
C174 C175 1.387 1_455 S
C175 C174 1.387 1_655 S
C175 C176 1.372 . S
C176 H154 0.950 . S
C176 C175 1.372 . S
C176 C177 1.379 . S
C177 H155 0.948 . S
C177 C172 1.364 . S
C177 C176 1.379 . S
C178 C147 1.383 . S
C178 C165 1.479 . S
C178 C179 1.398 1_655 S
C179 C144 1.382 . S
C179 H156 0.951 . S
C179 C178 1.398 1_455 S
C180 C181 1.384 . S
C180 H193 0.948 1_545 S
C180 C215 1.382 . S
C181 C180 1.384 . S
C181 C182 1.378 . S
C182 C181 1.378 . S
C182 C183 1.378 . S
C182 H194 0.952 . S
C183 C182 1.378 . S
C183 H195 0.950 . S
C183 C214 1.383 . S
H184 C203 0.947 . S
H185 C204 0.950 . S
H186 C206 0.953 . S
H187 C207 0.945 . S
H188 C209 0.947 1_565 S
H189 C210 0.954 . S
H190 C212 0.950 . S
H191 C213 0.948 . S
H192 C215 0.950 1_565 S
H193 C180 0.948 1_565 S
H194 C182 0.952 . S
H195 C183 0.950 . S
N196 C199 1.382 . S
N196 C201 1.363 . S
N197 C199 1.371 . S
N197 C200 1.372 . S
N198 C200 1.361 . S
N198 C201 1.377 . S
C199 N196 1.382 . S
C199 N197 1.371 . S
C199 C202 1.480 . S
C200 N197 1.372 . S
C200 N198 1.361 . S
C200 C208 1.457 . S
C201 N196 1.363 . S
C201 N198 1.377 . S
C201 C214 1.479 . S
C202 C199 1.480 . S
C202 C203 1.383 . S
C202 C207 1.385 . S
C203 H184 0.947 . S
C203 C202 1.383 . S
C203 C204 1.387 1_545 S
C204 H185 0.950 . S
C204 C203 1.387 1_565 S
C204 C205 1.382 1_565 S
C205 C204 1.382 1_545 S
C205 C206 1.377 . S
C206 H186 0.953 . S
C206 C205 1.377 . S
C206 C207 1.369 . S
C207 H187 0.945 . S
C207 C202 1.385 . S
C207 C206 1.369 . S
C208 C200 1.457 . S
C208 C209 1.379 . S
C208 C213 1.364 . S
C209 H188 0.947 1_545 S
C209 C208 1.379 . S
C209 C210 1.387 1_545 S
C210 H189 0.954 . S
C210 C209 1.387 1_565 S
C210 C211 1.383 1_565 S
C211 C210 1.383 1_545 S
C211 C212 1.372 . S
C212 H190 0.950 . S
C212 C211 1.372 . S
C212 C213 1.379 . S
C213 H191 0.948 . S
C213 C208 1.364 . S
C213 C212 1.379 . S
C214 C183 1.383 . S
C214 C201 1.479 . S
C214 C215 1.400 . S
C215 C180 1.382 . S
C215 H192 0.950 1_545 S
C215 C214 1.400 . S
C216 C217 1.384 . S
C216 H229 0.947 1_455 S
C216 C251 1.382 . S
C217 C216 1.384 . S
C217 C218 1.378 . S
C218 C217 1.378 . S
C218 C219 1.378 . S
C218 H230 0.952 . S
C219 C218 1.378 . S
C219 H231 0.950 . S
C219 C250 1.383 . S
H220 C239 0.947 . S
H221 C240 0.948 . S
H222 C242 0.953 . S
H223 C243 0.945 . S
H224 C245 0.946 1_655 S
H225 C246 0.953 . S
H226 C248 0.950 . S
H227 C249 0.948 . S
H228 C251 0.949 1_655 S
H229 C216 0.947 1_655 S
H230 C218 0.952 . S
H231 C219 0.950 . S
N232 C235 1.382 . S
N232 C237 1.363 . S
N233 C235 1.371 . S
N233 C236 1.372 . S
N234 C236 1.361 . S
N234 C237 1.377 . S
C235 N232 1.382 . S
C235 N233 1.371 . S
C235 C238 1.480 . S
C236 N233 1.372 . S
C236 N234 1.361 . S
C236 C244 1.457 . S
C237 N232 1.363 . S
C237 N234 1.377 . S
C237 C250 1.479 . S
C238 C235 1.480 . S
C238 C239 1.383 . S
C238 C243 1.385 . S
C239 H220 0.947 . S
C239 C238 1.383 . S
C239 C240 1.387 1_455 S
C240 H221 0.948 . S
C240 C239 1.387 1_655 S
C240 C241 1.383 1_655 S
C241 C240 1.383 1_455 S
C241 C242 1.377 . S
C242 H222 0.953 . S
C242 C241 1.377 . S
C242 C243 1.369 . S
C243 H223 0.945 . S
C243 C238 1.385 . S
C243 C242 1.369 . S
C244 C236 1.457 . S
C244 C245 1.381 . S
C244 C249 1.364 . S
C245 H224 0.946 1_455 S
C245 C244 1.381 . S
C245 C246 1.387 1_455 S
C246 H225 0.953 . S
C246 C245 1.387 1_655 S
C246 C247 1.384 1_655 S
C247 C246 1.384 1_455 S
C247 C248 1.372 . S
C248 H226 0.950 . S
C248 C247 1.372 . S
C248 C249 1.379 . S
C249 H227 0.948 . S
C249 C244 1.364 . S
C249 C248 1.379 . S
C250 C219 1.383 . S
C250 C237 1.479 . S
C250 C251 1.401 . S
C251 C216 1.382 . S
C251 H228 0.949 1_455 S
C251 C250 1.401 . S
C252 C253 1.384 1_545 S
C252 H265 0.948 . S
C252 C287 1.382 1_545 S
C253 C252 1.384 1_565 S
C253 C254 1.378 . S
C254 C253 1.378 . S
C254 C255 1.378 . S
C254 H266 0.952 . S
C255 C254 1.378 . S
C255 H267 0.950 . S
C255 C286 1.383 . S
H256 C275 0.947 . S
H257 C276 0.952 . S
H258 C278 0.953 . S
H259 C279 0.945 . S
H260 C281 0.949 1_545 S
H261 C282 0.949 . S
H262 C284 0.950 . S
H263 C285 0.948 . S
H264 C287 0.951 1_545 S
H265 C252 0.948 . S
H266 C254 0.952 . S
H267 C255 0.950 . S
N268 C271 1.382 . S
N268 C273 1.363 . S
N269 C271 1.371 . S
N269 C272 1.372 . S
N270 C272 1.361 . S
N270 C273 1.377 . S
C271 N268 1.382 . S
C271 N269 1.371 . S
C271 C274 1.480 . S
C272 N269 1.372 . S
C272 N270 1.361 . S
C272 C280 1.457 . S
C273 N268 1.363 . S
C273 N270 1.377 . S
C273 C286 1.479 . S
C274 C271 1.480 . S
C274 C275 1.383 . S
C274 C279 1.385 . S
C275 H256 0.947 . S
C275 C274 1.383 . S
C275 C276 1.386 1_565 S
C276 H257 0.952 . S
C276 C275 1.386 1_545 S
C276 C277 1.381 1_545 S
C277 C276 1.381 1_565 S
C277 C278 1.377 . S
C278 H258 0.953 . S
C278 C277 1.377 . S
C278 C279 1.369 . S
C279 H259 0.945 . S
C279 C274 1.385 . S
C279 C278 1.369 . S
C280 C272 1.457 . S
C280 C281 1.377 . S
C280 C285 1.364 . S
C281 H260 0.949 1_565 S
C281 C280 1.377 . S
C281 C282 1.387 1_565 S
C282 H261 0.949 . S
C282 C281 1.387 1_545 S
C282 C283 1.387 1_545 S
C283 C282 1.387 1_565 S
C283 C284 1.372 . S
C284 H262 0.950 . S
C284 C283 1.372 . S
C284 C285 1.379 . S
C285 H263 0.948 . S
C285 C280 1.364 . S
C285 C284 1.379 . S
C286 C255 1.383 . S
C286 C273 1.479 . S
C286 C287 1.398 . S
C287 C252 1.382 1_565 S
C287 H264 0.951 1_565 S
C287 C286 1.398 . S
C288 C289 1.385 . S
C288 H301 0.946 1_554 S
C288 C323 1.382 . S
C289 C288 1.385 . S
C289 C290 1.378 . S
C290 C289 1.378 . S
C290 C291 1.378 . S
C290 H302 0.952 . S
C291 C290 1.378 . S
C291 H303 0.950 . S
C291 C322 1.383 . S
H292 C311 0.947 . S
H293 C312 0.945 . S
H294 C314 0.953 . S
H295 C315 0.945 . S
H296 C317 0.952 1_556 S
H297 C318 0.951 . S
H298 C320 0.950 . S
H299 C321 0.948 . S
H300 C323 0.948 1_556 S
H301 C288 0.946 1_556 S
H302 C290 0.952 . S
H303 C291 0.950 . S
N304 C307 1.382 . S
N304 C309 1.363 . S
N305 C307 1.371 . S
N305 C308 1.372 . S
N306 C308 1.361 . S
N306 C309 1.377 . S
C307 N304 1.382 . S
C307 N305 1.371 . S
C307 C310 1.480 . S
C308 N305 1.372 . S
C308 N306 1.361 . S
C308 C316 1.457 . S
C309 N304 1.363 . S
C309 N306 1.377 . S
C309 C322 1.479 . S
C310 C307 1.480 . S
C310 C311 1.383 . S
C310 C315 1.385 . S
C311 H292 0.947 . S
C311 C310 1.383 . S
C311 C312 1.389 1_554 S
C312 H293 0.945 . S
C312 C311 1.389 1_556 S
C312 C313 1.384 1_556 S
C313 C312 1.384 1_554 S
C313 C314 1.377 . S
C314 H294 0.953 . S
C314 C313 1.377 . S
C314 C315 1.369 . S
C315 H295 0.945 . S
C315 C310 1.385 . S
C315 C314 1.369 . S
C316 C308 1.457 . S
C316 C317 1.372 . S
C316 C321 1.364 . S
C317 H296 0.952 1_554 S
C317 C316 1.372 . S
C317 C318 1.388 1_554 S
C318 H297 0.951 . S
C318 C317 1.388 1_556 S
C318 C319 1.385 1_556 S
C319 C318 1.385 1_554 S
C319 C320 1.372 . S
C320 H298 0.950 . S
C320 C319 1.372 . S
C320 C321 1.379 . S
C321 H299 0.948 . S
C321 C316 1.364 . S
C321 C320 1.379 . S
C322 C291 1.383 . S
C322 C309 1.479 . S
C322 C323 1.402 . S
C323 C288 1.382 . S
C323 H300 0.948 1_554 S
C323 C322 1.402 . S
C324 C325 1.383 1_554 S
C324 H337 0.950 . S
C324 C359 1.382 . S
C325 C324 1.383 1_556 S
C325 C326 1.378 . S
C326 C325 1.378 . S
C326 C327 1.378 . S
C326 H338 0.952 . S
C327 C326 1.378 . S
C327 H339 0.950 . S
C327 C358 1.383 . S
H328 C347 0.947 . S
H329 C348 0.946 . S
H330 C350 0.953 . S
H331 C351 0.945 . S
H332 C353 0.952 1_554 S
H333 C354 0.949 . S
H334 C356 0.950 . S
H335 C357 0.948 . S
H336 C359 0.952 . S
H337 C324 0.950 . S
H338 C326 0.952 . S
H339 C327 0.950 . S
N340 C343 1.382 . S
N340 C345 1.363 . S
N341 C343 1.371 . S
N341 C344 1.372 . S
N342 C344 1.361 . S
N342 C345 1.377 . S
C343 N340 1.382 . S
C343 N341 1.371 . S
C343 C346 1.480 . S
C344 N341 1.372 . S
C344 N342 1.361 . S
C344 C352 1.457 . S
C345 N340 1.363 . S
C345 N342 1.377 . S
C345 C358 1.479 . S
C346 C343 1.480 . S
C346 C347 1.383 . S
C346 C351 1.385 . S
C347 H328 0.947 . S
C347 C346 1.383 . S
C347 C348 1.388 1_556 S
C348 H329 0.946 . S
C348 C347 1.388 1_554 S
C348 C349 1.384 1_554 S
C349 C348 1.384 1_556 S
C349 C350 1.377 . S
C350 H330 0.953 . S
C350 C349 1.377 . S
C350 C351 1.369 . S
C351 H331 0.945 . S
C351 C346 1.385 . S
C351 C350 1.369 . S
C352 C344 1.457 . S
C352 C353 1.372 . S
C352 C357 1.364 . S
C353 H332 0.952 1_556 S
C353 C352 1.372 . S
C353 C354 1.388 1_556 S
C354 H333 0.949 . S
C354 C353 1.388 1_554 S
C354 C355 1.387 1_554 S
C355 C354 1.387 1_556 S
C355 C356 1.372 . S
C356 H334 0.950 . S
C356 C355 1.372 . S
C356 C357 1.379 . S
C357 H335 0.948 . S
C357 C352 1.364 . S
C357 C356 1.379 . S
C358 C327 1.383 . S
C358 C345 1.479 . S
C358 C359 1.397 1_556 S
C359 C324 1.382 . S
C359 H336 0.952 . S
C359 C358 1.397 1_554 S
C360 C361 1.383 1_554 S
C360 H373 0.950 . S
C360 C395 1.382 . S
C361 C360 1.383 1_556 S
C361 C362 1.378 . S
C362 C361 1.378 . S
C362 C363 1.378 . S
C362 H374 0.952 . S
C363 C362 1.378 . S
C363 H375 0.950 . S
C363 C394 1.383 . S
H364 C383 0.947 . S
H365 C384 0.946 . S
H366 C386 0.953 . S
H367 C387 0.945 . S
H368 C389 0.952 1_554 S
H369 C390 0.949 . S
H370 C392 0.950 . S
H371 C393 0.948 . S
H372 C395 0.952 . S
H373 C360 0.950 . S
H374 C362 0.952 . S
H375 C363 0.950 . S
N376 C379 1.382 . S
N376 C381 1.363 . S
N377 C379 1.371 . S
N377 C380 1.372 . S
N378 C380 1.361 . S
N378 C381 1.377 . S
C379 N376 1.382 . S
C379 N377 1.371 . S
C379 C382 1.480 . S
C380 N377 1.372 . S
C380 N378 1.361 . S
C380 C388 1.457 . S
C381 N376 1.363 . S
C381 N378 1.377 . S
C381 C394 1.479 . S
C382 C379 1.480 . S
C382 C383 1.383 . S
C382 C387 1.385 . S
C383 H364 0.947 . S
C383 C382 1.383 . S
C383 C384 1.388 1_556 S
C384 H365 0.946 . S
C384 C383 1.388 1_554 S
C384 C385 1.384 1_554 S
C385 C384 1.384 1_556 S
C385 C386 1.377 . S
C386 H366 0.953 . S
C386 C385 1.377 . S
C386 C387 1.369 . S
C387 H367 0.945 . S
C387 C382 1.385 . S
C387 C386 1.369 . S
C388 C380 1.457 . S
C388 C389 1.372 . S
C388 C393 1.364 . S
C389 H368 0.952 1_556 S
C389 C388 1.372 . S
C389 C390 1.388 1_556 S
C390 H369 0.949 . S
C390 C389 1.388 1_554 S
C390 C391 1.387 1_554 S
C391 C390 1.387 1_556 S
C391 C392 1.372 . S
C392 H370 0.950 . S
C392 C391 1.372 . S
C392 C393 1.379 . S
C393 H371 0.948 . S
C393 C388 1.364 . S
C393 C392 1.379 . S
C394 C363 1.383 . S
C394 C381 1.479 . S
C394 C395 1.397 1_556 S
C395 C360 1.382 . S
C395 H372 0.952 . S
C395 C394 1.397 1_554 S
C396 C397 1.382 1_554 S
C396 H409 0.950 . S
C396 C431 1.382 . S
C397 C396 1.382 1_556 S
C397 C398 1.378 . S
C398 C397 1.378 . S
C398 C399 1.378 . S
C398 H410 0.952 . S
C399 C398 1.378 . S
C399 H411 0.950 . S
C399 C430 1.383 . S
H400 C419 0.947 . S
H401 C420 0.946 . S
H402 C422 0.953 . S
H403 C423 0.945 . S
H404 C425 0.952 1_554 S
H405 C426 0.949 . S
H406 C428 0.950 . S
H407 C429 0.948 . S
H408 C431 0.953 . S
H409 C396 0.950 . S
H410 C398 0.952 . S
H411 C399 0.950 . S
N412 C415 1.382 . S
N412 C417 1.363 . S
N413 C415 1.371 . S
N413 C416 1.372 . S
N414 C416 1.361 . S
N414 C417 1.377 . S
C415 N412 1.382 . S
C415 N413 1.371 . S
C415 C418 1.480 . S
C416 N413 1.372 . S
C416 N414 1.361 . S
C416 C424 1.457 . S
C417 N412 1.363 . S
C417 N414 1.377 . S
C417 C430 1.479 . S
C418 C415 1.480 . S
C418 C419 1.383 . S
C418 C423 1.385 . S
C419 H400 0.947 . S
C419 C418 1.383 . S
C419 C420 1.388 1_556 S
C420 H401 0.946 . S
C420 C419 1.388 1_554 S
C420 C421 1.384 1_554 S
C421 C420 1.384 1_556 S
C421 C422 1.377 . S
C422 H402 0.953 . S
C422 C421 1.377 . S
C422 C423 1.369 . S
C423 H403 0.945 . S
C423 C418 1.385 . S
C423 C422 1.369 . S
C424 C416 1.457 . S
C424 C425 1.372 . S
C424 C429 1.364 . S
C425 H404 0.952 1_556 S
C425 C424 1.372 . S
C425 C426 1.388 1_556 S
C426 H405 0.949 . S
C426 C425 1.388 1_554 S
C426 C427 1.387 1_554 S
C427 C426 1.387 1_556 S
C427 C428 1.372 . S
C428 H406 0.950 . S
C428 C427 1.372 . S
C428 C429 1.379 . S
C429 H407 0.948 . S
C429 C424 1.364 . S
C429 C428 1.379 . S
C430 C399 1.383 . S
C430 C417 1.479 . S
C430 C431 1.397 1_556 S
C431 C396 1.382 . S
C431 H408 0.953 . S
C431 C430 1.397 1_554 S
C432 C433 1.384 . S
C432 H445 0.947 . S
C432 C467 1.382 . S
C433 C432 1.384 . S
C433 C434 1.378 . S
C434 C433 1.378 . S
C434 C435 1.378 . S
C434 H446 0.952 . S
C435 C434 1.378 . S
C435 H447 0.950 . S
C435 C466 1.383 . S
H436 C455 0.947 . S
H437 C456 0.946 . S
H438 C458 0.953 . S
H439 C459 0.945 . S
H440 C461 0.952 . S
H441 C462 0.949 . S
H442 C464 0.950 . S
H443 C465 0.948 . S
H444 C467 0.951 . S
H445 C432 0.947 . S
H446 C434 0.952 . S
H447 C435 0.950 . S
N448 C451 1.382 . S
N448 C453 1.363 . S
N449 C451 1.371 . S
N449 C452 1.372 . S
N450 C452 1.361 . S
N450 C453 1.377 . S
C451 N448 1.382 . S
C451 N449 1.371 . S
C451 C454 1.480 . S
C452 N449 1.372 . S
C452 N450 1.361 . S
C452 C460 1.457 . S
C453 N448 1.363 . S
C453 N450 1.377 . S
C453 C466 1.479 . S
C454 C451 1.480 . S
C454 C455 1.383 . S
C454 C459 1.385 . S
C455 H436 0.947 . S
C455 C454 1.383 . S
C455 C456 1.388 . S
C456 H437 0.946 . S
C456 C455 1.388 . S
C456 C457 1.384 . S
C457 C456 1.384 . S
C457 C458 1.377 . S
C458 H438 0.953 . S
C458 C457 1.377 . S
C458 C459 1.369 . S
C459 H439 0.945 . S
C459 C454 1.385 . S
C459 C458 1.369 . S
C460 C452 1.457 . S
C460 C461 1.372 . S
C460 C465 1.364 . S
C461 H440 0.952 . S
C461 C460 1.372 . S
C461 C462 1.389 . S
C462 H441 0.949 . S
C462 C461 1.389 . S
C462 C463 1.387 . S
C463 C462 1.387 . S
C463 C464 1.372 . S
C464 H442 0.950 . S
C464 C463 1.372 . S
C464 C465 1.379 . S
C465 H443 0.948 . S
C465 C460 1.364 . S
C465 C464 1.379 . S
C466 C435 1.383 . S
C466 C453 1.479 . S
C466 C467 1.398 . S
C467 C432 1.382 . S
C467 H444 0.951 . S
C467 C466 1.398 . S
C468 C469 1.384 . S
C468 H481 0.947 . S
C468 C503 1.382 . S
C469 C468 1.384 . S
C469 C470 1.378 . S
C470 C469 1.378 . S
C470 C471 1.378 . S
C470 H482 0.952 . S
C471 C470 1.378 . S
C471 H483 0.950 . S
C471 C502 1.383 . S
H472 C491 0.947 . S
H473 C492 0.946 . S
H474 C494 0.953 . S
H475 C495 0.945 . S
H476 C497 0.952 . S
H477 C498 0.949 . S
H478 C500 0.950 . S
H479 C501 0.948 . S
H480 C503 0.951 . S
H481 C468 0.947 . S
H482 C470 0.952 . S
H483 C471 0.950 . S
N484 C487 1.382 . S
N484 C489 1.363 . S
N485 C487 1.371 . S
N485 C488 1.372 . S
N486 C488 1.361 . S
N486 C489 1.377 . S
C487 N484 1.382 . S
C487 N485 1.371 . S
C487 C490 1.480 . S
C488 N485 1.372 . S
C488 N486 1.361 . S
C488 C496 1.457 . S
C489 N484 1.363 . S
C489 N486 1.377 . S
C489 C502 1.479 . S
C490 C487 1.480 . S
C490 C491 1.383 . S
C490 C495 1.385 . S
C491 H472 0.947 . S
C491 C490 1.383 . S
C491 C492 1.388 . S
C492 H473 0.946 . S
C492 C491 1.388 . S
C492 C493 1.384 . S
C493 C492 1.384 . S
C493 C494 1.377 . S
C494 H474 0.953 . S
C494 C493 1.377 . S
C494 C495 1.369 . S
C495 H475 0.945 . S
C495 C490 1.385 . S
C495 C494 1.369 . S
C496 C488 1.457 . S
C496 C497 1.372 . S
C496 C501 1.364 . S
C497 H476 0.952 . S
C497 C496 1.372 . S
C497 C498 1.389 . S
C498 H477 0.949 . S
C498 C497 1.389 . S
C498 C499 1.387 . S
C499 C498 1.387 . S
C499 C500 1.372 . S
C500 H478 0.950 . S
C500 C499 1.372 . S
C500 C501 1.379 . S
C501 H479 0.948 . S
C501 C496 1.364 . S
C501 C500 1.379 . S
C502 C471 1.383 . S
C502 C489 1.479 . S
C502 C503 1.398 . S
C503 C468 1.382 . S
C503 H480 0.951 . S
C503 C502 1.398 . S
C504 C505 1.384 . S
C504 H517 0.947 . S
C504 C539 1.382 . S
C505 C504 1.384 . S
C505 C506 1.378 . S
C506 C505 1.378 . S
C506 C507 1.378 . S
C506 H518 0.952 . S
C507 C506 1.378 . S
C507 H519 0.950 . S
C507 C538 1.383 . S
H508 C527 0.947 . S
H509 C528 0.946 . S
H510 C530 0.953 . S
H511 C531 0.945 . S
H512 C533 0.952 . S
H513 C534 0.949 . S
H514 C536 0.950 . S
H515 C537 0.948 . S
H516 C539 0.951 . S
H517 C504 0.947 . S
H518 C506 0.952 . S
H519 C507 0.950 . S
N520 C523 1.382 . S
N520 C525 1.363 . S
N521 C523 1.371 . S
N521 C524 1.372 . S
N522 C524 1.361 . S
N522 C525 1.377 . S
C523 N520 1.382 . S
C523 N521 1.371 . S
C523 C526 1.480 . S
C524 N521 1.372 . S
C524 N522 1.361 . S
C524 C532 1.457 . S
C525 N520 1.363 . S
C525 N522 1.377 . S
C525 C538 1.479 . S
C526 C523 1.480 . S
C526 C527 1.383 . S
C526 C531 1.385 . S
C527 H508 0.947 . S
C527 C526 1.383 . S
C527 C528 1.388 . S
C528 H509 0.946 . S
C528 C527 1.388 . S
C528 C529 1.384 . S
C529 C528 1.384 . S
C529 C530 1.377 . S
C530 H510 0.953 . S
C530 C529 1.377 . S
C530 C531 1.369 . S
C531 H511 0.945 . S
C531 C526 1.385 . S
C531 C530 1.369 . S
C532 C524 1.457 . S
C532 C533 1.372 . S
C532 C537 1.364 . S
C533 H512 0.952 . S
C533 C532 1.372 . S
C533 C534 1.389 . S
C534 H513 0.949 . S
C534 C533 1.389 . S
C534 C535 1.387 . S
C535 C534 1.387 . S
C535 C536 1.372 . S
C536 H514 0.950 . S
C536 C535 1.372 . S
C536 C537 1.379 . S
C537 H515 0.948 . S
C537 C532 1.364 . S
C537 C536 1.379 . S
C538 C507 1.383 . S
C538 C525 1.479 . S
C538 C539 1.398 . S
C539 C504 1.382 . S
C539 H516 0.951 . S
C539 C538 1.398 . S
C540 C541 1.384 . S
C540 H553 0.947 . S
C540 C575 1.382 . S
C541 C540 1.384 . S
C541 C542 1.378 . S
C542 C541 1.378 . S
C542 C543 1.378 . S
C542 H554 0.952 . S
C543 C542 1.378 . S
C543 H555 0.950 . S
C543 C574 1.383 . S
H544 C563 0.947 . S
H545 C564 0.946 . S
H546 C566 0.953 . S
H547 C567 0.945 . S
H548 C569 0.952 . S
H549 C570 0.949 . S
H550 C572 0.950 . S
H551 C573 0.948 . S
H552 C575 0.951 . S
H553 C540 0.947 . S
H554 C542 0.952 . S
H555 C543 0.950 . S
N556 C559 1.382 . S
N556 C561 1.363 . S
N557 C559 1.371 . S
N557 C560 1.372 . S
N558 C560 1.361 . S
N558 C561 1.377 . S
C559 N556 1.382 . S
C559 N557 1.371 . S
C559 C562 1.480 . S
C560 N557 1.372 . S
C560 N558 1.361 . S
C560 C568 1.457 . S
C561 N556 1.363 . S
C561 N558 1.377 . S
C561 C574 1.479 . S
C562 C559 1.480 . S
C562 C563 1.383 . S
C562 C567 1.385 . S
C563 H544 0.947 . S
C563 C562 1.383 . S
C563 C564 1.388 . S
C564 H545 0.946 . S
C564 C563 1.388 . S
C564 C565 1.384 . S
C565 C564 1.384 . S
C565 C566 1.377 . S
C566 H546 0.953 . S
C566 C565 1.377 . S
C566 C567 1.369 . S
C567 H547 0.945 . S
C567 C562 1.385 . S
C567 C566 1.369 . S
C568 C560 1.457 . S
C568 C569 1.372 . S
C568 C573 1.364 . S
C569 H548 0.952 . S
C569 C568 1.372 . S
C569 C570 1.389 . S
C570 H549 0.949 . S
C570 C569 1.389 . S
C570 C571 1.387 . S
C571 C570 1.387 . S
C571 C572 1.372 . S
C572 H550 0.950 . S
C572 C571 1.372 . S
C572 C573 1.379 . S
C573 H551 0.948 . S
C573 C568 1.364 . S
C573 C572 1.379 . S
C574 C543 1.383 . S
C574 C561 1.479 . S
C574 C575 1.398 . S
C575 C540 1.382 . S
C575 H552 0.951 . S
C575 C574 1.398 . S
C576 C577 1.384 . S
C576 H589 0.947 . S
C576 C611 1.382 . S
C577 C576 1.384 . S
C577 C578 1.378 . S
C578 C577 1.378 . S
C578 C579 1.378 . S
C578 H590 0.952 . S
C579 C578 1.378 . S
C579 H591 0.950 . S
C579 C610 1.383 . S
H580 C599 0.947 . S
H581 C600 0.946 . S
H582 C602 0.953 . S
H583 C603 0.945 . S
H584 C605 0.952 . S
H585 C606 0.949 . S
H586 C608 0.950 . S
H587 C609 0.948 . S
H588 C611 0.951 . S
H589 C576 0.947 . S
H590 C578 0.952 . S
H591 C579 0.950 . S
N592 C595 1.382 . S
N592 C597 1.363 . S
N593 C595 1.371 . S
N593 C596 1.372 . S
N594 C596 1.361 . S
N594 C597 1.377 . S
C595 N592 1.382 . S
C595 N593 1.371 . S
C595 C598 1.480 . S
C596 N593 1.372 . S
C596 N594 1.361 . S
C596 C604 1.457 . S
C597 N592 1.363 . S
C597 N594 1.377 . S
C597 C610 1.479 . S
C598 C595 1.480 . S
C598 C599 1.383 . S
C598 C603 1.385 . S
C599 H580 0.947 . S
C599 C598 1.383 . S
C599 C600 1.388 . S
C600 H581 0.946 . S
C600 C599 1.388 . S
C600 C601 1.384 . S
C601 C600 1.384 . S
C601 C602 1.377 . S
C602 H582 0.953 . S
C602 C601 1.377 . S
C602 C603 1.369 . S
C603 H583 0.945 . S
C603 C598 1.385 . S
C603 C602 1.369 . S
C604 C596 1.457 . S
C604 C605 1.372 . S
C604 C609 1.364 . S
C605 H584 0.952 . S
C605 C604 1.372 . S
C605 C606 1.389 . S
C606 H585 0.949 . S
C606 C605 1.389 . S
C606 C607 1.387 . S
C607 C606 1.387 . S
C607 C608 1.372 . S
C608 H586 0.950 . S
C608 C607 1.372 . S
C608 C609 1.379 . S
C609 H587 0.948 . S
C609 C604 1.364 . S
C609 C608 1.379 . S
C610 C579 1.383 . S
C610 C597 1.479 . S
C610 C611 1.398 . S
C611 C576 1.382 . S
C611 H588 0.951 . S
C611 C610 1.398 . S
C612 C613 1.384 . S
C612 H625 0.947 . S
C612 C647 1.382 . S
C613 C612 1.384 . S
C613 C614 1.378 . S
C614 C613 1.378 . S
C614 C615 1.378 . S
C614 H626 0.952 . S
C615 C614 1.378 . S
C615 H627 0.950 . S
C615 C646 1.383 . S
H616 C635 0.947 . S
H617 C636 0.946 . S
H618 C638 0.953 . S
H619 C639 0.945 . S
H620 C641 0.952 . S
H621 C642 0.949 . S
H622 C644 0.950 . S
H623 C645 0.948 . S
H624 C647 0.951 . S
H625 C612 0.947 . S
H626 C614 0.952 . S
H627 C615 0.950 . S
N628 C631 1.382 . S
N628 C633 1.363 . S
N629 C631 1.371 . S
N629 C632 1.372 . S
N630 C632 1.361 . S
N630 C633 1.377 . S
C631 N628 1.382 . S
C631 N629 1.371 . S
C631 C634 1.480 . S
C632 N629 1.372 . S
C632 N630 1.361 . S
C632 C640 1.457 . S
C633 N628 1.363 . S
C633 N630 1.377 . S
C633 C646 1.479 . S
C634 C631 1.480 . S
C634 C635 1.383 . S
C634 C639 1.385 . S
C635 H616 0.947 . S
C635 C634 1.383 . S
C635 C636 1.388 . S
C636 H617 0.946 . S
C636 C635 1.388 . S
C636 C637 1.384 . S
C637 C636 1.384 . S
C637 C638 1.377 . S
C638 H618 0.953 . S
C638 C637 1.377 . S
C638 C639 1.369 . S
C639 H619 0.945 . S
C639 C634 1.385 . S
C639 C638 1.369 . S
C640 C632 1.457 . S
C640 C641 1.372 . S
C640 C645 1.364 . S
C641 H620 0.952 . S
C641 C640 1.372 . S
C641 C642 1.389 . S
C642 H621 0.949 . S
C642 C641 1.389 . S
C642 C643 1.387 . S
C643 C642 1.387 . S
C643 C644 1.372 . S
C644 H622 0.950 . S
C644 C643 1.372 . S
C644 C645 1.379 . S
C645 H623 0.948 . S
C645 C640 1.364 . S
C645 C644 1.379 . S
C646 C615 1.383 . S
C646 C633 1.479 . S
C646 C647 1.398 . S
C647 C612 1.382 . S
C647 H624 0.951 . S
C647 C646 1.398 . S
C648 C649 1.384 . S
C648 H661 0.947 . S
C648 C683 1.382 . S
C649 C648 1.384 . S
C649 C650 1.378 . S
C650 C649 1.378 . S
C650 C651 1.378 . S
C650 H662 0.952 . S
C651 C650 1.378 . S
C651 H663 0.950 . S
C651 C682 1.383 . S
H652 C671 0.947 . S
H653 C672 0.946 . S
H654 C674 0.953 . S
H655 C675 0.945 . S
H656 C677 0.952 . S
H657 C678 0.949 . S
H658 C680 0.950 . S
H659 C681 0.948 . S
H660 C683 0.951 . S
H661 C648 0.947 . S
H662 C650 0.952 . S
H663 C651 0.950 . S
N664 C667 1.382 . S
N664 C669 1.363 . S
N665 C667 1.371 . S
N665 C668 1.372 . S
N666 C668 1.361 . S
N666 C669 1.377 . S
C667 N664 1.382 . S
C667 N665 1.371 . S
C667 C670 1.480 . S
C668 N665 1.372 . S
C668 N666 1.361 . S
C668 C676 1.457 . S
C669 N664 1.363 . S
C669 N666 1.377 . S
C669 C682 1.479 . S
C670 C667 1.480 . S
C670 C671 1.383 . S
C670 C675 1.385 . S
C671 H652 0.947 . S
C671 C670 1.383 . S
C671 C672 1.388 . S
C672 H653 0.946 . S
C672 C671 1.388 . S
C672 C673 1.384 . S
C673 C672 1.384 . S
C673 C674 1.377 . S
C674 H654 0.953 . S
C674 C673 1.377 . S
C674 C675 1.369 . S
C675 H655 0.945 . S
C675 C670 1.385 . S
C675 C674 1.369 . S
C676 C668 1.457 . S
C676 C677 1.372 . S
C676 C681 1.364 . S
C677 H656 0.952 . S
C677 C676 1.372 . S
C677 C678 1.389 . S
C678 H657 0.949 . S
C678 C677 1.389 . S
C678 C679 1.387 . S
C679 C678 1.387 . S
C679 C680 1.372 . S
C680 H658 0.950 . S
C680 C679 1.372 . S
C680 C681 1.379 . S
C681 H659 0.948 . S
C681 C676 1.364 . S
C681 C680 1.379 . S
C682 C651 1.383 . S
C682 C669 1.479 . S
C682 C683 1.398 . S
C683 C648 1.382 . S
C683 H660 0.951 . S
C683 C682 1.398 . S
C684 C685 1.384 . S
C684 H697 0.947 . S
C684 C719 1.382 . S
C685 C684 1.384 . S
C685 C686 1.378 . S
C686 C685 1.378 . S
C686 C687 1.378 . S
C686 H698 0.952 . S
C687 C686 1.378 . S
C687 H699 0.950 . S
C687 C718 1.383 . S
H688 C707 0.947 . S
H689 C708 0.946 . S
H690 C710 0.953 . S
H691 C711 0.945 . S
H692 C713 0.952 . S
H693 C714 0.949 . S
H694 C716 0.950 . S
H695 C717 0.948 . S
H696 C719 0.951 . S
H697 C684 0.947 . S
H698 C686 0.952 . S
H699 C687 0.950 . S
N700 C703 1.382 . S
N700 C705 1.363 . S
N701 C703 1.371 . S
N701 C704 1.372 . S
N702 C704 1.361 . S
N702 C705 1.377 . S
C703 N700 1.382 . S
C703 N701 1.371 . S
C703 C706 1.480 . S
C704 N701 1.372 . S
C704 N702 1.361 . S
C704 C712 1.457 . S
C705 N700 1.363 . S
C705 N702 1.377 . S
C705 C718 1.479 . S
C706 C703 1.480 . S
C706 C707 1.383 . S
C706 C711 1.385 . S
C707 H688 0.947 . S
C707 C706 1.383 . S
C707 C708 1.388 . S
C708 H689 0.946 . S
C708 C707 1.388 . S
C708 C709 1.384 . S
C709 C708 1.384 . S
C709 C710 1.377 . S
C710 H690 0.953 . S
C710 C709 1.377 . S
C710 C711 1.369 . S
C711 H691 0.945 . S
C711 C706 1.385 . S
C711 C710 1.369 . S
C712 C704 1.457 . S
C712 C713 1.372 . S
C712 C717 1.364 . S
C713 H692 0.952 . S
C713 C712 1.372 . S
C713 C714 1.389 . S
C714 H693 0.949 . S
C714 C713 1.389 . S
C714 C715 1.387 . S
C715 C714 1.387 . S
C715 C716 1.372 . S
C716 H694 0.950 . S
C716 C715 1.372 . S
C716 C717 1.379 . S
C717 H695 0.948 . S
C717 C712 1.364 . S
C717 C716 1.379 . S
C718 C687 1.383 . S
C718 C705 1.479 . S
C718 C719 1.398 . S
C719 C684 1.382 . S
C719 H696 0.951 . S
C719 C718 1.398 . S
C720 C721 1.384 . S
C720 H733 0.947 . S
C720 C755 1.382 . S
C721 C720 1.384 . S
C721 C722 1.378 . S
C722 C721 1.378 . S
C722 C723 1.378 . S
C722 H734 0.952 . S
C723 C722 1.378 . S
C723 H735 0.950 . S
C723 C754 1.383 . S
H724 C743 0.947 . S
H725 C744 0.946 . S
H726 C746 0.953 . S
H727 C747 0.945 . S
H728 C749 0.952 . S
H729 C750 0.949 . S
H730 C752 0.950 . S
H731 C753 0.948 . S
H732 C755 0.951 . S
H733 C720 0.947 . S
H734 C722 0.952 . S
H735 C723 0.950 . S
N736 C739 1.382 . S
N736 C741 1.363 . S
N737 C739 1.371 . S
N737 C740 1.372 . S
N738 C740 1.361 . S
N738 C741 1.377 . S
C739 N736 1.382 . S
C739 N737 1.371 . S
C739 C742 1.480 . S
C740 N737 1.372 . S
C740 N738 1.361 . S
C740 C748 1.457 . S
C741 N736 1.363 . S
C741 N738 1.377 . S
C741 C754 1.479 . S
C742 C739 1.480 . S
C742 C743 1.383 . S
C742 C747 1.385 . S
C743 H724 0.947 . S
C743 C742 1.383 . S
C743 C744 1.388 . S
C744 H725 0.946 . S
C744 C743 1.388 . S
C744 C745 1.384 . S
C745 C744 1.384 . S
C745 C746 1.377 . S
C746 H726 0.953 . S
C746 C745 1.377 . S
C746 C747 1.369 . S
C747 H727 0.945 . S
C747 C742 1.385 . S
C747 C746 1.369 . S
C748 C740 1.457 . S
C748 C749 1.372 . S
C748 C753 1.364 . S
C749 H728 0.952 . S
C749 C748 1.372 . S
C749 C750 1.389 . S
C750 H729 0.949 . S
C750 C749 1.389 . S
C750 C751 1.387 . S
C751 C750 1.387 . S
C751 C752 1.372 . S
C752 H730 0.950 . S
C752 C751 1.372 . S
C752 C753 1.379 . S
C753 H731 0.948 . S
C753 C748 1.364 . S
C753 C752 1.379 . S
C754 C723 1.383 . S
C754 C741 1.479 . S
C754 C755 1.398 . S
C755 C720 1.382 . S
C755 H732 0.951 . S
C755 C754 1.398 . S
C756 C757 1.384 . S
C756 H769 0.947 . S
C756 C791 1.382 . S
C757 C756 1.384 . S
C757 C758 1.378 . S
C758 C757 1.378 . S
C758 C759 1.378 . S
C758 H770 0.952 . S
C759 C758 1.378 . S
C759 H771 0.950 . S
C759 C790 1.383 . S
H760 C779 0.947 . S
H761 C780 0.946 . S
H762 C782 0.953 . S
H763 C783 0.945 . S
H764 C785 0.952 . S
H765 C786 0.949 . S
H766 C788 0.950 . S
H767 C789 0.948 . S
H768 C791 0.951 . S
H769 C756 0.947 . S
H770 C758 0.952 . S
H771 C759 0.950 . S
N772 C775 1.382 . S
N772 C777 1.363 . S
N773 C775 1.371 . S
N773 C776 1.372 . S
N774 C776 1.361 . S
N774 C777 1.377 . S
C775 N772 1.382 . S
C775 N773 1.371 . S
C775 C778 1.480 . S
C776 N773 1.372 . S
C776 N774 1.361 . S
C776 C784 1.457 . S
C777 N772 1.363 . S
C777 N774 1.377 . S
C777 C790 1.479 . S
C778 C775 1.480 . S
C778 C779 1.383 . S
C778 C783 1.385 . S
C779 H760 0.947 . S
C779 C778 1.383 . S
C779 C780 1.388 . S
C780 H761 0.946 . S
C780 C779 1.388 . S
C780 C781 1.384 . S
C781 C780 1.384 . S
C781 C782 1.377 . S
C782 H762 0.953 . S
C782 C781 1.377 . S
C782 C783 1.369 . S
C783 H763 0.945 . S
C783 C778 1.385 . S
C783 C782 1.369 . S
C784 C776 1.457 . S
C784 C785 1.372 . S
C784 C789 1.364 . S
C785 H764 0.952 . S
C785 C784 1.372 . S
C785 C786 1.389 . S
C786 H765 0.949 . S
C786 C785 1.389 . S
C786 C787 1.387 . S
C787 C786 1.387 . S
C787 C788 1.372 . S
C788 H766 0.950 . S
C788 C787 1.372 . S
C788 C789 1.379 . S
C789 H767 0.948 . S
C789 C784 1.364 . S
C789 C788 1.379 . S
C790 C759 1.383 . S
C790 C777 1.479 . S
C790 C791 1.398 . S
C791 C756 1.382 . S
C791 H768 0.951 . S
C791 C790 1.398 . S
C792 C793 1.384 . S
C792 H805 0.947 . S
C792 C827 1.382 . S
C793 C792 1.384 . S
C793 C794 1.378 . S
C794 C793 1.378 . S
C794 C795 1.378 . S
C794 H806 0.952 . S
C795 C794 1.378 . S
C795 H807 0.950 . S
C795 C826 1.383 . S
H796 C815 0.947 . S
H797 C816 0.946 . S
H798 C818 0.953 . S
H799 C819 0.945 . S
H800 C821 0.952 . S
H801 C822 0.949 . S
H802 C824 0.950 . S
H803 C825 0.948 . S
H804 C827 0.951 . S
H805 C792 0.947 . S
H806 C794 0.952 . S
H807 C795 0.950 . S
N808 C811 1.382 . S
N808 C813 1.363 . S
N809 C811 1.371 . S
N809 C812 1.372 . S
N810 C812 1.361 . S
N810 C813 1.377 . S
C811 N808 1.382 . S
C811 N809 1.371 . S
C811 C814 1.480 . S
C812 N809 1.372 . S
C812 N810 1.361 . S
C812 C820 1.457 . S
C813 N808 1.363 . S
C813 N810 1.377 . S
C813 C826 1.479 . S
C814 C811 1.480 . S
C814 C815 1.383 . S
C814 C819 1.385 . S
C815 H796 0.947 . S
C815 C814 1.383 . S
C815 C816 1.388 . S
C816 H797 0.946 . S
C816 C815 1.388 . S
C816 C817 1.384 . S
C817 C816 1.384 . S
C817 C818 1.377 . S
C818 H798 0.953 . S
C818 C817 1.377 . S
C818 C819 1.369 . S
C819 H799 0.945 . S
C819 C814 1.385 . S
C819 C818 1.369 . S
C820 C812 1.457 . S
C820 C821 1.372 . S
C820 C825 1.364 . S
C821 H800 0.952 . S
C821 C820 1.372 . S
C821 C822 1.389 . S
C822 H801 0.949 . S
C822 C821 1.389 . S
C822 C823 1.387 . S
C823 C822 1.387 . S
C823 C824 1.372 . S
C824 H802 0.950 . S
C824 C823 1.372 . S
C824 C825 1.379 . S
C825 H803 0.948 . S
C825 C820 1.364 . S
C825 C824 1.379 . S
C826 C795 1.383 . S
C826 C813 1.479 . S
C826 C827 1.398 . S
C827 C792 1.382 . S
C827 H804 0.951 . S
C827 C826 1.398 . S
C828 C829 1.384 . S
C828 H841 0.947 . S
C828 C863 1.382 . S
C829 C828 1.384 . S
C829 C830 1.378 . S
C830 C829 1.378 . S
C830 C831 1.378 . S
C830 H842 0.952 . S
C831 C830 1.378 . S
C831 H843 0.950 . S
C831 C862 1.383 . S
H832 C851 0.947 . S
H833 C852 0.946 . S
H834 C854 0.953 . S
H835 C855 0.945 . S
H836 C857 0.952 . S
H837 C858 0.949 . S
H838 C860 0.950 . S
H839 C861 0.948 . S
H840 C863 0.951 . S
H841 C828 0.947 . S
H842 C830 0.952 . S
H843 C831 0.950 . S
N844 C847 1.382 . S
N844 C849 1.363 . S
N845 C847 1.371 . S
N845 C848 1.372 . S
N846 C848 1.361 . S
N846 C849 1.377 . S
C847 N844 1.382 . S
C847 N845 1.371 . S
C847 C850 1.480 . S
C848 N845 1.372 . S
C848 N846 1.361 . S
C848 C856 1.457 . S
C849 N844 1.363 . S
C849 N846 1.377 . S
C849 C862 1.479 . S
C850 C847 1.480 . S
C850 C851 1.383 . S
C850 C855 1.385 . S
C851 H832 0.947 . S
C851 C850 1.383 . S
C851 C852 1.388 . S
C852 H833 0.946 . S
C852 C851 1.388 . S
C852 C853 1.384 . S
C853 C852 1.384 . S
C853 C854 1.377 . S
C854 H834 0.953 . S
C854 C853 1.377 . S
C854 C855 1.369 . S
C855 H835 0.945 . S
C855 C850 1.385 . S
C855 C854 1.369 . S
C856 C848 1.457 . S
C856 C857 1.372 . S
C856 C861 1.364 . S
C857 H836 0.952 . S
C857 C856 1.372 . S
C857 C858 1.389 . S
C858 H837 0.949 . S
C858 C857 1.389 . S
C858 C859 1.387 . S
C859 C858 1.387 . S
C859 C860 1.372 . S
C860 H838 0.950 . S
C860 C859 1.372 . S
C860 C861 1.379 . S
C861 H839 0.948 . S
C861 C856 1.364 . S
C861 C860 1.379 . S
C862 C831 1.383 . S
C862 C849 1.479 . S
C862 C863 1.398 . S
C863 C828 1.382 . S
C863 H840 0.951 . S
C863 C862 1.398 . S
C864 O890 1.283 . S
C864 O908 1.283 . S
C865 O891 1.283 . S
C865 O906 1.283 . S
C866 O892 1.283 . S
C866 O909 1.283 . S
C867 O893 1.283 . S
C867 O907 1.283 . S
C868 O894 1.283 . S
C868 O903 1.283 . S
C869 O895 1.283 . S
C869 O905 1.283 . S
C870 O896 1.283 . S
C870 O902 1.283 . S
C871 O897 1.283 . S
C871 O904 1.283 . S
C872 O898 1.283 . S
C872 O913 1.283 . S
C873 O899 1.283 . S
C873 O911 1.283 . S
C874 O900 1.283 . S
C874 O912 1.283 . S
C875 O901 1.283 . S
C875 O910 1.283 . S
Eu876 O877 2.366 1_455 S
Eu876 O878 2.374 . S
Eu876 O881 2.366 1_455 S
Eu876 O882 2.374 . S
Eu876 O890 2.363 . S
Eu876 O891 2.363 . S
Eu876 O904 2.369 . S
Eu876 O905 2.357 1_455 S
O877 Eu876 2.366 1_655 S
O877 Eu879 2.369 1_565 S
O877 Eu884 2.365 1_665 S
O878 Eu876 2.374 . S
O878 Eu880 2.368 1_565 S
O878 Eu883 2.372 1_565 S
Eu879 O877 2.369 1_545 S
Eu879 O881 2.369 1_545 S
Eu879 O885 2.371 . S
Eu879 O886 2.371 . S
Eu879 O894 2.365 . S
Eu879 O895 2.361 1_545 S
Eu879 O910 2.363 . S
Eu879 O911 2.363 . S
Eu880 O878 2.368 1_545 S
Eu880 O882 2.368 1_545 S
Eu880 O887 2.372 . S
Eu880 O888 2.372 . S
Eu880 O896 2.366 . S
Eu880 O897 2.360 1_545 S
Eu880 O912 2.363 . S
Eu880 O913 2.363 . S
O881 Eu876 2.366 1_655 S
O881 Eu879 2.369 1_565 S
O881 Eu883 2.365 1_665 S
O882 Eu876 2.374 . S
O882 Eu880 2.368 1_565 S
O882 Eu884 2.372 1_565 S
Eu883 O878 2.372 1_545 S
Eu883 O881 2.365 1_445 S
Eu883 O885 2.368 1_455 S
Eu883 O888 2.375 . S
Eu883 O900 2.369 . S
Eu883 O901 2.357 1_455 S
Eu883 O908 2.361 1_545 S
Eu883 O909 2.365 . S
Eu884 O877 2.365 1_445 S
Eu884 O882 2.372 1_545 S
Eu884 O886 2.368 1_455 S
Eu884 O887 2.375 . S
Eu884 O898 2.369 . S
Eu884 O899 2.357 1_455 S
Eu884 O906 2.360 1_545 S
Eu884 O907 2.365 . S
O885 Eu879 2.371 . S
O885 Eu883 2.368 1_655 S
O885 Eu889 2.367 1_655 S
O886 Eu879 2.371 . S
O886 Eu884 2.368 1_655 S
O886 Eu889 2.367 1_655 S
O887 Eu880 2.372 . S
O887 Eu884 2.375 . S
O887 Eu889 2.374 . S
O888 Eu880 2.372 . S
O888 Eu883 2.375 . S
O888 Eu889 2.374 . S
Eu889 O885 2.367 1_455 S
Eu889 O886 2.367 1_455 S
Eu889 O887 2.374 . S
Eu889 O888 2.374 . S
Eu889 O892 2.363 . S
Eu889 O893 2.363 . S
Eu889 O902 2.369 . S
Eu889 O903 2.357 1_455 S
O890 C864 1.283 . S
O890 Eu876 2.363 . S
O891 C865 1.283 . S
O891 Eu876 2.363 . S
O892 C866 1.283 . S
O892 Eu889 2.363 . S
O893 C867 1.283 . S
O893 Eu889 2.363 . S
O894 C868 1.283 . S
O894 Eu879 2.365 . S
O895 C869 1.283 . S
O895 Eu879 2.361 1_565 S
O896 C870 1.283 . S
O896 Eu880 2.366 . S
O897 C871 1.283 . S
O897 Eu880 2.360 1_565 S
O898 C872 1.283 . S
O898 Eu884 2.369 . S
O899 C873 1.283 . S
O899 Eu884 2.357 1_655 S
O900 C874 1.283 . S
O900 Eu883 2.369 . S
O901 C875 1.283 . S
O901 Eu883 2.357 1_655 S
O902 C870 1.283 . S
O902 Eu889 2.369 . S
O903 C868 1.283 . S
O903 Eu889 2.357 1_655 S
O904 C871 1.283 . S
O904 Eu876 2.369 . S
O905 C869 1.283 . S
O905 Eu876 2.357 1_655 S
O906 C865 1.283 . S
O906 Eu884 2.360 1_565 S
O907 C867 1.283 . S
O907 Eu884 2.365 . S
O908 C864 1.283 . S
O908 Eu883 2.361 1_565 S
O909 C866 1.283 . S
O909 Eu883 2.365 . S
O910 C875 1.283 . S
O910 Eu879 2.363 . S
O911 C873 1.283 . S
O911 Eu879 2.363 . S
O912 C874 1.283 . S
O912 Eu880 2.363 . S
O913 C872 1.283 . S
O913 Eu880 2.363 . S
C914 O940 1.283 . S
C914 O958 1.283 . S
C915 O941 1.283 . S
C915 O956 1.283 . S
C916 O942 1.283 . S
C916 O959 1.283 . S
C917 O943 1.283 . S
C917 O957 1.283 . S
C918 O944 1.283 . S
C918 O953 1.283 . S
C919 O945 1.283 . S
C919 O955 1.283 . S
C920 O946 1.283 . S
C920 O952 1.283 . S
C921 O947 1.283 . S
C921 O954 1.283 . S
C922 O948 1.283 . S
C922 O963 1.283 . S
C923 O949 1.283 . S
C923 O961 1.283 . S
C924 O950 1.283 . S
C924 O962 1.283 . S
C925 O951 1.283 . S
C925 O960 1.283 . S
Eu926 O927 2.370 . S
Eu926 O928 2.370 1_545 S
Eu926 O931 2.370 1_545 S
Eu926 O932 2.370 . S
Eu926 O940 2.363 1_545 S
Eu926 O941 2.363 . S
Eu926 O954 2.363 . S
Eu926 O955 2.363 . S
O927 Eu926 2.370 . S
O927 Eu929 2.384 . S
O927 Eu934 2.384 . S
O928 Eu926 2.370 1_565 S
O928 Eu930 2.384 1_565 S
O928 Eu933 2.384 . S
Eu929 O927 2.384 . S
Eu929 O931 2.384 1_545 S
Eu929 O935 2.356 1_544 S
Eu929 O936 2.356 1_554 S
Eu929 O944 2.340 1_554 S
Eu929 O945 2.386 . S
Eu929 O960 2.363 1_545 S
Eu929 O961 2.363 . S
Eu930 O928 2.384 1_545 S
Eu930 O932 2.384 . S
Eu930 O937 2.356 1_554 S
Eu930 O938 2.356 1_544 S
Eu930 O946 2.340 1_554 S
Eu930 O947 2.386 . S
Eu930 O962 2.363 1_545 S
Eu930 O963 2.363 . S
O931 Eu926 2.370 1_565 S
O931 Eu929 2.384 1_565 S
O931 Eu933 2.384 . S
O932 Eu926 2.370 . S
O932 Eu930 2.384 . S
O932 Eu934 2.384 . S
Eu933 O928 2.384 . S
Eu933 O931 2.384 . S
Eu933 O935 2.356 1_554 S
Eu933 O938 2.356 1_554 S
Eu933 O950 2.363 . S
Eu933 O951 2.363 . S
Eu933 O958 2.386 . S
Eu933 O959 2.340 1_554 S
Eu934 O927 2.384 . S
Eu934 O932 2.384 . S
Eu934 O936 2.356 1_554 S
Eu934 O937 2.356 1_554 S
Eu934 O948 2.363 . S
Eu934 O949 2.363 . S
Eu934 O956 2.386 . S
Eu934 O957 2.340 1_554 S
O935 Eu929 2.356 1_566 S
O935 Eu933 2.356 1_556 S
O935 Eu939 2.370 1_565 S
O936 Eu929 2.356 1_556 S
O936 Eu934 2.356 1_556 S
O936 Eu939 2.370 . S
O937 Eu930 2.356 1_556 S
O937 Eu934 2.356 1_556 S
O937 Eu939 2.370 . S
O938 Eu930 2.356 1_566 S
O938 Eu933 2.356 1_556 S
O938 Eu939 2.370 1_565 S
Eu939 O935 2.370 1_545 S
Eu939 O936 2.370 . S
Eu939 O937 2.370 . S
Eu939 O938 2.370 1_545 S
Eu939 O942 2.363 1_545 S
Eu939 O943 2.363 . S
Eu939 O952 2.363 . S
Eu939 O953 2.363 . S
O940 C914 1.283 . S
O940 Eu926 2.363 1_565 S
O941 C915 1.283 . S
O941 Eu926 2.363 . S
O942 C916 1.283 . S
O942 Eu939 2.363 1_565 S
O943 C917 1.283 . S
O943 Eu939 2.363 . S
O944 C918 1.283 . S
O944 Eu929 2.340 1_556 S
O945 C919 1.283 . S
O945 Eu929 2.386 . S
O946 C920 1.283 . S
O946 Eu930 2.340 1_556 S
O947 C921 1.283 . S
O947 Eu930 2.386 . S
O948 C922 1.283 . S
O948 Eu934 2.363 . S
O949 C923 1.283 . S
O949 Eu934 2.363 . S
O950 C924 1.283 . S
O950 Eu933 2.363 . S
O951 C925 1.283 . S
O951 Eu933 2.363 . S
O952 C920 1.283 . S
O952 Eu939 2.363 . S
O953 C918 1.283 . S
O953 Eu939 2.363 . S
O954 C921 1.283 . S
O954 Eu926 2.363 . S
O955 C919 1.283 . S
O955 Eu926 2.363 . S
O956 C915 1.283 . S
O956 Eu934 2.386 . S
O957 C917 1.283 . S
O957 Eu934 2.340 1_556 S
O958 C914 1.283 . S
O958 Eu933 2.386 . S
O959 C916 1.283 . S
O959 Eu933 2.340 1_556 S
O960 C925 1.283 . S
O960 Eu929 2.363 1_565 S
O961 C923 1.283 . S
O961 Eu929 2.363 . S
O962 C924 1.283 . S
O962 Eu930 2.363 1_565 S
O963 C922 1.283 . S
O963 Eu930 2.363 . S
C964 O990 1.283 . S
C964 O1008 1.283 . S
C965 O991 1.283 . S
C965 O1006 1.283 . S
C966 O992 1.283 . S
C966 O1009 1.283 . S
C967 O993 1.283 . S
C967 O1007 1.283 . S
C968 O994 1.283 . S
C968 O1003 1.283 . S
C969 O995 1.283 . S
C969 O1005 1.283 . S
C970 O996 1.283 . S
C970 O1002 1.283 . S
C971 O997 1.283 . S
C971 O1004 1.283 . S
C972 O998 1.283 . S
C972 O1013 1.283 . S
C973 O999 1.283 . S
C973 O1011 1.283 . S
C974 O1000 1.283 . S
C974 O1012 1.283 . S
C975 O1001 1.283 . S
C975 O1010 1.283 . S
Eu976 O977 2.355 1_454 S
Eu976 O978 2.385 . S
Eu976 O981 2.374 1_455 S
Eu976 O982 2.366 1_554 S
Eu976 O990 2.379 . S
Eu976 O991 2.347 1_554 S
Eu976 O1004 2.372 . S
Eu976 O1005 2.353 1_455 S
O977 Eu976 2.355 1_656 S
O977 Eu979 2.360 1_556 S
O977 Eu984 2.364 1_655 S
O978 Eu976 2.385 . S
O978 Eu980 2.380 . S
O978 Eu983 2.376 . S
Eu979 O977 2.360 1_554 S
Eu979 O981 2.380 . S
Eu979 O985 2.380 . S
Eu979 O986 2.360 1_554 S
Eu979 O994 2.363 . S
Eu979 O995 2.363 . S
Eu979 O1010 2.379 . S
Eu979 O1011 2.347 1_554 S
Eu980 O978 2.380 . S
Eu980 O982 2.360 1_554 S
Eu980 O987 2.360 1_554 S
Eu980 O988 2.380 . S
Eu980 O996 2.363 . S
Eu980 O997 2.363 . S
Eu980 O1012 2.379 . S
Eu980 O1013 2.347 1_554 S
O981 Eu976 2.374 1_655 S
O981 Eu979 2.380 . S
O981 Eu983 2.364 1_655 S
O982 Eu976 2.366 1_556 S
O982 Eu980 2.360 1_556 S
O982 Eu984 2.376 . S
Eu983 O978 2.376 . S
Eu983 O981 2.364 1_455 S
Eu983 O985 2.364 1_455 S
Eu983 O988 2.376 . S
Eu983 O1000 2.372 . S
Eu983 O1001 2.353 1_455 S
Eu983 O1008 2.363 . S
Eu983 O1009 2.363 . S
Eu984 O977 2.364 1_455 S
Eu984 O982 2.376 . S
Eu984 O986 2.364 1_455 S
Eu984 O987 2.376 . S
Eu984 O998 2.372 . S
Eu984 O999 2.353 1_455 S
Eu984 O1006 2.363 . S
Eu984 O1007 2.363 . S
O985 Eu979 2.380 . S
O985 Eu983 2.364 1_655 S
O985 Eu989 2.374 1_655 S
O986 Eu979 2.360 1_556 S
O986 Eu984 2.364 1_655 S
O986 Eu989 2.355 1_656 S
O987 Eu980 2.360 1_556 S
O987 Eu984 2.376 . S
O987 Eu989 2.366 1_556 S
O988 Eu980 2.380 . S
O988 Eu983 2.376 . S
O988 Eu989 2.385 . S
Eu989 O985 2.374 1_455 S
Eu989 O986 2.355 1_454 S
Eu989 O987 2.366 1_554 S
Eu989 O988 2.385 . S
Eu989 O992 2.379 . S
Eu989 O993 2.347 1_554 S
Eu989 O1002 2.373 . S
Eu989 O1003 2.353 1_455 S
O990 C964 1.283 . S
O990 Eu976 2.379 . S
O991 C965 1.283 . S
O991 Eu976 2.347 1_556 S
O992 C966 1.283 . S
O992 Eu989 2.379 . S
O993 C967 1.283 . S
O993 Eu989 2.347 1_556 S
O994 C968 1.283 . S
O994 Eu979 2.363 . S
O995 C969 1.283 . S
O995 Eu979 2.363 . S
O996 C970 1.283 . S
O996 Eu980 2.363 . S
O997 C971 1.283 . S
O997 Eu980 2.363 . S
O998 C972 1.283 . S
O998 Eu984 2.372 . S
O999 C973 1.283 . S
O999 Eu984 2.353 1_655 S
O1000 C974 1.283 . S
O1000 Eu983 2.372 . S
O1001 C975 1.283 . S
O1001 Eu983 2.353 1_655 S
O1002 C970 1.283 . S
O1002 Eu989 2.373 . S
O1003 C968 1.283 . S
O1003 Eu989 2.353 1_655 S
O1004 C971 1.283 . S
O1004 Eu976 2.372 . S
O1005 C969 1.283 . S
O1005 Eu976 2.353 1_655 S
O1006 C965 1.283 . S
O1006 Eu984 2.363 . S
O1007 C967 1.283 . S
O1007 Eu984 2.363 . S
O1008 C964 1.283 . S
O1008 Eu983 2.363 . S
O1009 C966 1.283 . S
O1009 Eu983 2.363 . S
O1010 C975 1.283 . S
O1010 Eu979 2.379 . S
O1011 C973 1.283 . S
O1011 Eu979 2.347 1_556 S
O1012 C974 1.283 . S
O1012 Eu980 2.379 . S
O1013 C972 1.283 . S
O1013 Eu980 2.347 1_556 S
C1014 O1040 1.283 . S
C1014 O1058 1.283 . S
C1015 O1041 1.283 . S
C1015 O1056 1.283 . S
C1016 O1042 1.283 . S
C1016 O1059 1.283 . S
C1017 O1043 1.283 . S
C1017 O1057 1.283 . S
C1018 O1044 1.283 . S
C1018 O1053 1.283 . S
C1019 O1045 1.283 . S
C1019 O1055 1.283 . S
C1020 O1046 1.283 . S
C1020 O1052 1.283 . S
C1021 O1047 1.283 . S
C1021 O1054 1.283 . S
C1022 O1048 1.283 . S
C1022 O1063 1.283 . S
C1023 O1049 1.283 . S
C1023 O1061 1.283 . S
C1024 O1050 1.283 . S
C1024 O1062 1.283 . S
C1025 O1051 1.283 . S
C1025 O1060 1.283 . S
Eu1026 O1027 2.370 . S
Eu1026 O1028 2.370 . S
Eu1026 O1031 2.370 . S
Eu1026 O1032 2.370 . S
Eu1026 O1040 2.363 . S
Eu1026 O1041 2.363 . S
Eu1026 O1054 2.363 . S
Eu1026 O1055 2.363 . S
O1027 Eu1026 2.370 . S
O1027 Eu1029 2.382 . S
O1027 Eu1034 2.382 . S
O1028 Eu1026 2.370 . S
O1028 Eu1030 2.382 . S
O1028 Eu1033 2.382 . S
Eu1029 O1027 2.382 . S
Eu1029 O1031 2.382 . S
Eu1029 O1035 2.358 1_554 S
Eu1029 O1036 2.358 1_554 S
Eu1029 O1044 2.343 1_554 S
Eu1029 O1045 2.383 . S
Eu1029 O1060 2.363 . S
Eu1029 O1061 2.363 . S
Eu1030 O1028 2.382 . S
Eu1030 O1032 2.382 . S
Eu1030 O1037 2.358 1_554 S
Eu1030 O1038 2.358 1_554 S
Eu1030 O1046 2.343 1_554 S
Eu1030 O1047 2.383 . S
Eu1030 O1062 2.363 . S
Eu1030 O1063 2.363 . S
O1031 Eu1026 2.370 . S
O1031 Eu1029 2.382 . S
O1031 Eu1033 2.382 . S
O1032 Eu1026 2.370 . S
O1032 Eu1030 2.382 . S
O1032 Eu1034 2.382 . S
Eu1033 O1028 2.382 . S
Eu1033 O1031 2.382 . S
Eu1033 O1035 2.358 1_554 S
Eu1033 O1038 2.358 1_554 S
Eu1033 O1050 2.363 . S
Eu1033 O1051 2.363 . S
Eu1033 O1058 2.383 . S
Eu1033 O1059 2.343 1_554 S
Eu1034 O1027 2.382 . S
Eu1034 O1032 2.382 . S
Eu1034 O1036 2.358 1_554 S
Eu1034 O1037 2.358 1_554 S
Eu1034 O1048 2.363 . S
Eu1034 O1049 2.363 . S
Eu1034 O1056 2.383 . S
Eu1034 O1057 2.343 1_554 S
O1035 Eu1029 2.358 1_556 S
O1035 Eu1033 2.358 1_556 S
O1035 Eu1039 2.370 . S
O1036 Eu1029 2.358 1_556 S
O1036 Eu1034 2.358 1_556 S
O1036 Eu1039 2.370 . S
O1037 Eu1030 2.358 1_556 S
O1037 Eu1034 2.358 1_556 S
O1037 Eu1039 2.370 . S
O1038 Eu1030 2.358 1_556 S
O1038 Eu1033 2.358 1_556 S
O1038 Eu1039 2.370 . S
Eu1039 O1035 2.370 . S
Eu1039 O1036 2.370 . S
Eu1039 O1037 2.370 . S
Eu1039 O1038 2.370 . S
Eu1039 O1042 2.363 . S
Eu1039 O1043 2.363 . S
Eu1039 O1052 2.363 . S
Eu1039 O1053 2.363 . S
O1040 C1014 1.283 . S
O1040 Eu1026 2.363 . S
O1041 C1015 1.283 . S
O1041 Eu1026 2.363 . S
O1042 C1016 1.283 . S
O1042 Eu1039 2.363 . S
O1043 C1017 1.283 . S
O1043 Eu1039 2.363 . S
O1044 C1018 1.283 . S
O1044 Eu1029 2.343 1_556 S
O1045 C1019 1.283 . S
O1045 Eu1029 2.383 . S
O1046 C1020 1.283 . S
O1046 Eu1030 2.343 1_556 S
O1047 C1021 1.283 . S
O1047 Eu1030 2.383 . S
O1048 C1022 1.283 . S
O1048 Eu1034 2.363 . S
O1049 C1023 1.283 . S
O1049 Eu1034 2.363 . S
O1050 C1024 1.283 . S
O1050 Eu1033 2.363 . S
O1051 C1025 1.283 . S
O1051 Eu1033 2.363 . S
O1052 C1020 1.283 . S
O1052 Eu1039 2.363 . S
O1053 C1018 1.283 . S
O1053 Eu1039 2.363 . S
O1054 C1021 1.283 . S
O1054 Eu1026 2.363 . S
O1055 C1019 1.283 . S
O1055 Eu1026 2.363 . S
O1056 C1015 1.283 . S
O1056 Eu1034 2.383 . S
O1057 C1017 1.283 . S
O1057 Eu1034 2.343 1_556 S
O1058 C1014 1.283 . S
O1058 Eu1033 2.383 . S
O1059 C1016 1.283 . S
O1059 Eu1033 2.343 1_556 S
O1060 C1025 1.283 . S
O1060 Eu1029 2.363 . S
O1061 C1023 1.283 . S
O1061 Eu1029 2.363 . S
O1062 C1024 1.283 . S
O1062 Eu1030 2.363 . S
O1063 C1022 1.283 . S
O1063 Eu1030 2.363 . S
C1064 O1090 1.283 . S
C1064 O1108 1.283 . S
C1065 O1091 1.283 . S
C1065 O1106 1.283 . S
C1066 O1092 1.283 . S
C1066 O1109 1.283 . S
C1067 O1093 1.283 . S
C1067 O1107 1.283 . S
C1068 O1094 1.283 . S
C1068 O1103 1.283 . S
C1069 O1095 1.283 . S
C1069 O1105 1.283 . S
C1070 O1096 1.283 . S
C1070 O1102 1.283 . S
C1071 O1097 1.283 . S
C1071 O1104 1.283 . S
C1072 O1098 1.283 . S
C1072 O1113 1.283 . S
C1073 O1099 1.283 . S
C1073 O1111 1.283 . S
C1074 O1100 1.283 . S
C1074 O1112 1.283 . S
C1075 O1101 1.283 . S
C1075 O1110 1.283 . S
Eu1076 O1077 2.365 1_455 S
Eu1076 O1078 2.375 . S
Eu1076 O1081 2.365 1_455 S
Eu1076 O1082 2.375 . S
Eu1076 O1090 2.363 . S
Eu1076 O1091 2.363 . S
Eu1076 O1104 2.371 . S
Eu1076 O1105 2.355 1_455 S
O1077 Eu1076 2.365 1_655 S
O1077 Eu1079 2.370 . S
O1077 Eu1084 2.365 1_655 S
O1078 Eu1076 2.375 . S
O1078 Eu1080 2.370 . S
O1078 Eu1083 2.375 . S
Eu1079 O1077 2.370 . S
Eu1079 O1081 2.370 . S
Eu1079 O1085 2.370 . S
Eu1079 O1086 2.370 . S
Eu1079 O1094 2.363 . S
Eu1079 O1095 2.363 . S
Eu1079 O1110 2.363 . S
Eu1079 O1111 2.363 . S
Eu1080 O1078 2.370 . S
Eu1080 O1082 2.370 . S
Eu1080 O1087 2.370 . S
Eu1080 O1088 2.370 . S
Eu1080 O1096 2.363 . S
Eu1080 O1097 2.363 . S
Eu1080 O1112 2.363 . S
Eu1080 O1113 2.363 . S
O1081 Eu1076 2.365 1_655 S
O1081 Eu1079 2.370 . S
O1081 Eu1083 2.365 1_655 S
O1082 Eu1076 2.375 . S
O1082 Eu1080 2.370 . S
O1082 Eu1084 2.375 . S
Eu1083 O1078 2.375 . S
Eu1083 O1081 2.365 1_455 S
Eu1083 O1085 2.365 1_455 S
Eu1083 O1088 2.375 . S
Eu1083 O1100 2.371 . S
Eu1083 O1101 2.355 1_455 S
Eu1083 O1108 2.363 . S
Eu1083 O1109 2.363 . S
Eu1084 O1077 2.365 1_455 S
Eu1084 O1082 2.375 . S
Eu1084 O1086 2.365 1_455 S
Eu1084 O1087 2.375 . S
Eu1084 O1098 2.371 . S
Eu1084 O1099 2.355 1_455 S
Eu1084 O1106 2.363 . S
Eu1084 O1107 2.363 . S
O1085 Eu1079 2.370 . S
O1085 Eu1083 2.365 1_655 S
O1085 Eu1089 2.365 1_655 S
O1086 Eu1079 2.370 . S
O1086 Eu1084 2.365 1_655 S
O1086 Eu1089 2.365 1_655 S
O1087 Eu1080 2.370 . S
O1087 Eu1084 2.375 . S
O1087 Eu1089 2.375 . S
O1088 Eu1080 2.370 . S
O1088 Eu1083 2.375 . S
O1088 Eu1089 2.375 . S
Eu1089 O1085 2.365 1_455 S
Eu1089 O1086 2.365 1_455 S
Eu1089 O1087 2.375 . S
Eu1089 O1088 2.375 . S
Eu1089 O1092 2.363 . S
Eu1089 O1093 2.363 . S
Eu1089 O1102 2.371 . S
Eu1089 O1103 2.355 1_455 S
O1090 C1064 1.283 . S
O1090 Eu1076 2.363 . S
O1091 C1065 1.283 . S
O1091 Eu1076 2.363 . S
O1092 C1066 1.283 . S
O1092 Eu1089 2.363 . S
O1093 C1067 1.283 . S
O1093 Eu1089 2.363 . S
O1094 C1068 1.283 . S
O1094 Eu1079 2.363 . S
O1095 C1069 1.283 . S
O1095 Eu1079 2.363 . S
O1096 C1070 1.283 . S
O1096 Eu1080 2.363 . S
O1097 C1071 1.283 . S
O1097 Eu1080 2.363 . S
O1098 C1072 1.283 . S
O1098 Eu1084 2.371 . S
O1099 C1073 1.283 . S
O1099 Eu1084 2.355 1_655 S
O1100 C1074 1.283 . S
O1100 Eu1083 2.371 . S
O1101 C1075 1.283 . S
O1101 Eu1083 2.355 1_655 S
O1102 C1070 1.283 . S
O1102 Eu1089 2.371 . S
O1103 C1068 1.283 . S
O1103 Eu1089 2.355 1_655 S
O1104 C1071 1.283 . S
O1104 Eu1076 2.371 . S
O1105 C1069 1.283 . S
O1105 Eu1076 2.355 1_655 S
O1106 C1065 1.283 . S
O1106 Eu1084 2.363 . S
O1107 C1067 1.283 . S
O1107 Eu1084 2.363 . S
O1108 C1064 1.283 . S
O1108 Eu1083 2.363 . S
O1109 C1066 1.283 . S
O1109 Eu1083 2.363 . S
O1110 C1075 1.283 . S
O1110 Eu1079 2.363 . S
O1111 C1073 1.283 . S
O1111 Eu1079 2.363 . S
O1112 C1074 1.283 . S
O1112 Eu1080 2.363 . S
O1113 C1072 1.283 . S
O1113 Eu1080 2.363 . S
C1114 O1140 1.283 . S
C1114 O1158 1.283 . S
C1115 O1141 1.283 . S
C1115 O1156 1.283 . S
C1116 O1142 1.283 . S
C1116 O1159 1.283 . S
C1117 O1143 1.283 . S
C1117 O1157 1.283 . S
C1118 O1144 1.283 . S
C1118 O1153 1.283 . S
C1119 O1145 1.283 . S
C1119 O1155 1.283 . S
C1120 O1146 1.283 . S
C1120 O1152 1.283 . S
C1121 O1147 1.283 . S
C1121 O1154 1.283 . S
C1122 O1148 1.283 . S
C1122 O1163 1.283 . S
C1123 O1149 1.283 . S
C1123 O1161 1.283 . S
C1124 O1150 1.283 . S
C1124 O1162 1.283 . S
C1125 O1151 1.283 . S
C1125 O1160 1.283 . S
Eu1126 O1127 2.370 . S
Eu1126 O1128 2.370 . S
Eu1126 O1131 2.370 . S
Eu1126 O1132 2.370 . S
Eu1126 O1140 2.363 . S
Eu1126 O1141 2.363 . S
Eu1126 O1154 2.363 . S
Eu1126 O1155 2.363 . S
O1127 Eu1126 2.370 . S
O1127 Eu1129 2.370 1_565 S
O1127 Eu1134 2.370 1_565 S
O1128 Eu1126 2.370 . S
O1128 Eu1130 2.370 1_565 S
O1128 Eu1133 2.370 1_565 S
Eu1129 O1127 2.370 1_545 S
Eu1129 O1131 2.370 1_545 S
Eu1129 O1135 2.370 . S
Eu1129 O1136 2.370 . S
Eu1129 O1144 2.363 . S
Eu1129 O1145 2.362 1_545 S
Eu1129 O1160 2.363 . S
Eu1129 O1161 2.363 . S
Eu1130 O1128 2.370 1_545 S
Eu1130 O1132 2.370 1_545 S
Eu1130 O1137 2.370 . S
Eu1130 O1138 2.370 . S
Eu1130 O1146 2.363 . S
Eu1130 O1147 2.363 1_545 S
Eu1130 O1162 2.363 . S
Eu1130 O1163 2.363 . S
O1131 Eu1126 2.370 . S
O1131 Eu1129 2.370 1_565 S
O1131 Eu1133 2.370 1_565 S
O1132 Eu1126 2.370 . S
O1132 Eu1130 2.370 1_565 S
O1132 Eu1134 2.370 1_565 S
Eu1133 O1128 2.370 1_545 S
Eu1133 O1131 2.370 1_545 S
Eu1133 O1135 2.370 . S
Eu1133 O1138 2.370 . S
Eu1133 O1150 2.363 . S
Eu1133 O1151 2.363 . S
Eu1133 O1158 2.363 1_545 S
Eu1133 O1159 2.363 . S
Eu1134 O1127 2.370 1_545 S
Eu1134 O1132 2.370 1_545 S
Eu1134 O1136 2.370 . S
Eu1134 O1137 2.370 . S
Eu1134 O1148 2.363 . S
Eu1134 O1149 2.363 . S
Eu1134 O1156 2.363 1_545 S
Eu1134 O1157 2.363 . S
O1135 Eu1129 2.370 . S
O1135 Eu1133 2.370 . S
O1135 Eu1139 2.370 . S
O1136 Eu1129 2.370 . S
O1136 Eu1134 2.370 . S
O1136 Eu1139 2.370 . S
O1137 Eu1130 2.370 . S
O1137 Eu1134 2.370 . S
O1137 Eu1139 2.370 . S
O1138 Eu1130 2.370 . S
O1138 Eu1133 2.370 . S
O1138 Eu1139 2.370 . S
Eu1139 O1135 2.370 . S
Eu1139 O1136 2.370 . S
Eu1139 O1137 2.370 . S
Eu1139 O1138 2.370 . S
Eu1139 O1142 2.363 . S
Eu1139 O1143 2.363 . S
Eu1139 O1152 2.363 . S
Eu1139 O1153 2.363 . S
O1140 C1114 1.283 . S
O1140 Eu1126 2.363 . S
O1141 C1115 1.283 . S
O1141 Eu1126 2.363 . S
O1142 C1116 1.283 . S
O1142 Eu1139 2.363 . S
O1143 C1117 1.283 . S
O1143 Eu1139 2.363 . S
O1144 C1118 1.283 . S
O1144 Eu1129 2.363 . S
O1145 C1119 1.283 . S
O1145 Eu1129 2.362 1_565 S
O1146 C1120 1.283 . S
O1146 Eu1130 2.363 . S
O1147 C1121 1.283 . S
O1147 Eu1130 2.363 1_565 S
O1148 C1122 1.283 . S
O1148 Eu1134 2.363 . S
O1149 C1123 1.283 . S
O1149 Eu1134 2.363 . S
O1150 C1124 1.283 . S
O1150 Eu1133 2.363 . S
O1151 C1125 1.283 . S
O1151 Eu1133 2.363 . S
O1152 C1120 1.283 . S
O1152 Eu1139 2.363 . S
O1153 C1118 1.283 . S
O1153 Eu1139 2.363 . S
O1154 C1121 1.283 . S
O1154 Eu1126 2.363 . S
O1155 C1119 1.283 . S
O1155 Eu1126 2.363 . S
O1156 C1115 1.283 . S
O1156 Eu1134 2.363 1_565 S
O1157 C1117 1.283 . S
O1157 Eu1134 2.363 . S
O1158 C1114 1.283 . S
O1158 Eu1133 2.363 1_565 S
O1159 C1116 1.283 . S
O1159 Eu1133 2.363 . S
O1160 C1125 1.283 . S
O1160 Eu1129 2.363 . S
O1161 C1123 1.283 . S
O1161 Eu1129 2.363 . S
O1162 C1124 1.283 . S
O1162 Eu1130 2.363 . S
O1163 C1122 1.283 . S
O1163 Eu1130 2.363 . S
C1164 C1165 1.363 . S
C1164 C1170 1.379 . S
C1164 N1172 1.356 . S
C1165 C1164 1.363 . S
C1165 C1171 1.363 . S
C1166 C1167 1.363 . S
C1166 C1171 1.379 . S
C1166 N1173 1.356 . S
C1167 C1166 1.363 . S
C1167 C1170 1.363 . S
N1168 C1170 1.356 . S
N1168 H1180 0.984 . S
N1168 H1181 0.985 . S
N1169 C1171 1.356 . S
N1169 H1174 0.984 . S
N1169 H1175 0.985 . S
C1170 C1164 1.379 . S
C1170 C1167 1.363 . S
C1170 N1168 1.356 . S
C1171 C1165 1.363 . S
C1171 C1166 1.379 . S
C1171 N1169 1.356 . S
N1172 C1164 1.356 . S
N1172 H1178 0.984 . S
N1172 H1179 0.984 . S
N1173 C1166 1.356 . S
N1173 H1176 0.984 . S
N1173 H1177 0.985 . S
H1174 N1169 0.984 . S
H1175 N1169 0.985 . S
H1176 N1173 0.984 . S
H1177 N1173 0.985 . S
H1178 N1172 0.984 . S
H1179 N1172 0.984 . S
H1180 N1168 0.984 . S
H1181 N1168 0.985 . S
C1182 C1183 1.363 . S
C1182 C1188 1.379 . S
C1182 N1190 1.356 . S
C1183 C1182 1.363 . S
C1183 C1189 1.363 . S
C1184 C1185 1.363 . S
C1184 C1189 1.379 . S
C1184 N1191 1.356 . S
C1185 C1184 1.363 . S
C1185 C1188 1.363 . S
N1186 C1188 1.356 . S
N1186 H1198 0.984 . S
N1186 H1199 0.985 . S
N1187 C1189 1.356 . S
N1187 H1192 0.984 . S
N1187 H1193 0.985 . S
C1188 C1182 1.379 . S
C1188 C1185 1.363 . S
C1188 N1186 1.356 . S
C1189 C1183 1.363 . S
C1189 C1184 1.379 . S
C1189 N1187 1.356 . S
N1190 C1182 1.356 . S
N1190 H1196 0.984 . S
N1190 H1197 0.984 . S
N1191 C1184 1.356 . S
N1191 H1194 0.984 . S
N1191 H1195 0.985 . S
H1192 N1187 0.984 . S
H1193 N1187 0.985 . S
H1194 N1191 0.984 . S
H1195 N1191 0.985 . S
H1196 N1190 0.984 . S
H1197 N1190 0.984 . S
H1198 N1186 0.984 . S
H1199 N1186 0.985 . S
C1200 C1201 1.363 . S
C1200 C1206 1.379 . S
C1200 N1208 1.356 . S
C1201 C1200 1.363 . S
C1201 C1207 1.363 . S
C1202 C1203 1.363 . S
C1202 C1207 1.379 . S
C1202 N1209 1.356 . S
C1203 C1202 1.363 . S
C1203 C1206 1.363 . S
N1204 C1206 1.356 . S
N1204 H1216 0.984 . S
N1204 H1217 0.985 . S
N1205 C1207 1.356 . S
N1205 H1210 0.984 . S
N1205 H1211 0.985 . S
C1206 C1200 1.379 . S
C1206 C1203 1.363 . S
C1206 N1204 1.356 . S
C1207 C1201 1.363 . S
C1207 C1202 1.379 . S
C1207 N1205 1.356 . S
N1208 C1200 1.356 . S
N1208 H1214 0.984 . S
N1208 H1215 0.984 . S
N1209 C1202 1.356 . S
N1209 H1212 0.984 . S
N1209 H1213 0.985 . S
H1210 N1205 0.984 . S
H1211 N1205 0.985 . S
H1212 N1209 0.984 . S
H1213 N1209 0.985 . S
H1214 N1208 0.984 . S
H1215 N1208 0.984 . S
H1216 N1204 0.984 . S
H1217 N1204 0.985 . S
C1218 C1219 1.363 . S
C1218 C1224 1.379 . S
C1218 N1226 1.356 . S
C1219 C1218 1.363 . S
C1219 C1225 1.363 . S
C1220 C1221 1.363 . S
C1220 C1225 1.379 . S
C1220 N1227 1.356 . S
C1221 C1220 1.363 . S
C1221 C1224 1.363 . S
N1222 C1224 1.356 . S
N1222 H1234 0.984 . S
N1222 H1235 0.985 . S
N1223 C1225 1.356 . S
N1223 H1228 0.984 . S
N1223 H1229 0.985 . S
C1224 C1218 1.379 . S
C1224 C1221 1.363 . S
C1224 N1222 1.356 . S
C1225 C1219 1.363 . S
C1225 C1220 1.379 . S
C1225 N1223 1.356 . S
N1226 C1218 1.356 . S
N1226 H1232 0.984 . S
N1226 H1233 0.984 . S
N1227 C1220 1.356 . S
N1227 H1230 0.984 . S
N1227 H1231 0.985 . S
H1228 N1223 0.984 . S
H1229 N1223 0.985 . S
H1230 N1227 0.984 . S
H1231 N1227 0.985 . S
H1232 N1226 0.984 . S
H1233 N1226 0.984 . S
H1234 N1222 0.984 . S
H1235 N1222 0.985 . S
C1236 C1237 1.363 . S
C1236 C1242 1.379 . S
C1236 N1244 1.356 . S
C1237 C1236 1.363 . S
C1237 C1243 1.363 . S
C1238 C1239 1.363 . S
C1238 C1243 1.379 . S
C1238 N1245 1.356 . S
C1239 C1238 1.363 . S
C1239 C1242 1.363 . S
N1240 C1242 1.356 . S
N1240 H1252 0.984 . S
N1240 H1253 0.985 . S
N1241 C1243 1.356 . S
N1241 H1246 0.984 . S
N1241 H1247 0.985 . S
C1242 C1236 1.379 . S
C1242 C1239 1.363 . S
C1242 N1240 1.356 . S
C1243 C1237 1.363 . S
C1243 C1238 1.379 . S
C1243 N1241 1.356 . S
N1244 C1236 1.356 . S
N1244 H1250 0.984 . S
N1244 H1251 0.984 . S
N1245 C1238 1.356 . S
N1245 H1248 0.984 . S
N1245 H1249 0.985 . S
H1246 N1241 0.984 . S
H1247 N1241 0.985 . S
H1248 N1245 0.984 . S
H1249 N1245 0.985 . S
H1250 N1244 0.984 . S
H1251 N1244 0.984 . S
H1252 N1240 0.984 . S
H1253 N1240 0.985 . S
C1254 C1255 1.363 . S
C1254 C1260 1.379 . S
C1254 N1262 1.356 . S
C1255 C1254 1.363 . S
C1255 C1261 1.363 . S
C1256 C1257 1.363 . S
C1256 C1261 1.379 . S
C1256 N1263 1.356 . S
C1257 C1256 1.363 . S
C1257 C1260 1.363 . S
N1258 C1260 1.356 . S
N1258 H1270 0.984 . S
N1258 H1271 0.985 . S
N1259 C1261 1.356 . S
N1259 H1264 0.984 . S
N1259 H1265 0.985 . S
C1260 C1254 1.379 . S
C1260 C1257 1.363 . S
C1260 N1258 1.356 . S
C1261 C1255 1.363 . S
C1261 C1256 1.379 . S
C1261 N1259 1.356 . S
N1262 C1254 1.356 . S
N1262 H1268 0.984 . S
N1262 H1269 0.984 . S
N1263 C1256 1.356 . S
N1263 H1266 0.984 . S
N1263 H1267 0.985 . S
H1264 N1259 0.984 . S
H1265 N1259 0.985 . S
H1266 N1263 0.984 . S
H1267 N1263 0.985 . S
H1268 N1262 0.984 . S
H1269 N1262 0.984 . S
H1270 N1258 0.984 . S
H1271 N1258 0.985 . S
C1272 C1273 1.363 . S
C1272 C1278 1.379 . S
C1272 N1280 1.356 . S
C1273 C1272 1.363 . S
C1273 C1279 1.363 . S
C1274 C1275 1.363 . S
C1274 C1279 1.379 . S
C1274 N1281 1.356 . S
C1275 C1274 1.363 . S
C1275 C1278 1.363 . S
N1276 C1278 1.356 . S
N1276 H1288 0.984 . S
N1276 H1289 0.985 . S
N1277 C1279 1.356 . S
N1277 H1282 0.984 . S
N1277 H1283 0.985 . S
C1278 C1272 1.379 . S
C1278 C1275 1.363 . S
C1278 N1276 1.356 . S
C1279 C1273 1.363 . S
C1279 C1274 1.379 . S
C1279 N1277 1.356 . S
N1280 C1272 1.356 . S
N1280 H1286 0.984 . S
N1280 H1287 0.984 . S
N1281 C1274 1.356 . S
N1281 H1284 0.984 . S
N1281 H1285 0.985 . S
H1282 N1277 0.984 . S
H1283 N1277 0.985 . S
H1284 N1281 0.984 . S
H1285 N1281 0.985 . S
H1286 N1280 0.984 . S
H1287 N1280 0.984 . S
H1288 N1276 0.984 . S
H1289 N1276 0.985 . S
C1290 C1291 1.363 . S
C1290 C1296 1.379 . S
C1290 N1298 1.356 . S
C1291 C1290 1.363 . S
C1291 C1297 1.363 . S
C1292 C1293 1.363 . S
C1292 C1297 1.379 . S
C1292 N1299 1.356 . S
C1293 C1292 1.363 . S
C1293 C1296 1.363 . S
N1294 C1296 1.356 . S
N1294 H1306 0.984 . S
N1294 H1307 0.985 . S
N1295 C1297 1.356 . S
N1295 H1300 0.984 . S
N1295 H1301 0.985 . S
C1296 C1290 1.379 . S
C1296 C1293 1.363 . S
C1296 N1294 1.356 . S
C1297 C1291 1.363 . S
C1297 C1292 1.379 . S
C1297 N1295 1.356 . S
N1298 C1290 1.356 . S
N1298 H1304 0.984 . S
N1298 H1305 0.984 . S
N1299 C1292 1.356 . S
N1299 H1302 0.984 . S
N1299 H1303 0.985 . S
H1300 N1295 0.984 . S
H1301 N1295 0.985 . S
H1302 N1299 0.984 . S
H1303 N1299 0.985 . S
H1304 N1298 0.984 . S
H1305 N1298 0.984 . S
H1306 N1294 0.984 . S
H1307 N1294 0.985 . S
C1308 C1309 1.363 . S
C1308 C1314 1.379 . S
C1308 N1316 1.356 . S
C1309 C1308 1.363 . S
C1309 C1315 1.363 . S
C1310 C1311 1.363 . S
C1310 C1315 1.379 . S
C1310 N1317 1.356 . S
C1311 C1310 1.363 . S
C1311 C1314 1.363 . S
N1312 C1314 1.356 . S
N1312 H1324 0.984 . S
N1312 H1325 0.985 . S
N1313 C1315 1.356 . S
N1313 H1318 0.984 . S
N1313 H1319 0.985 . S
C1314 C1308 1.379 . S
C1314 C1311 1.363 . S
C1314 N1312 1.356 . S
C1315 C1309 1.363 . S
C1315 C1310 1.379 . S
C1315 N1313 1.356 . S
N1316 C1308 1.356 . S
N1316 H1322 0.984 . S
N1316 H1323 0.984 . S
N1317 C1310 1.356 . S
N1317 H1320 0.984 . S
N1317 H1321 0.985 . S
H1318 N1313 0.984 . S
H1319 N1313 0.985 . S
H1320 N1317 0.984 . S
H1321 N1317 0.985 . S
H1322 N1316 0.984 . S
H1323 N1316 0.984 . S
H1324 N1312 0.984 . S
H1325 N1312 0.985 . S
C1326 C1327 1.363 . S
C1326 C1332 1.379 . S
C1326 N1334 1.356 . S
C1327 C1326 1.363 . S
C1327 C1333 1.363 . S
C1328 C1329 1.363 . S
C1328 C1333 1.379 . S
C1328 N1335 1.356 . S
C1329 C1328 1.363 . S
C1329 C1332 1.363 . S
N1330 C1332 1.356 . S
N1330 H1342 0.984 . S
N1330 H1343 0.985 . S
N1331 C1333 1.356 . S
N1331 H1336 0.984 . S
N1331 H1337 0.985 . S
C1332 C1326 1.379 . S
C1332 C1329 1.363 . S
C1332 N1330 1.356 . S
C1333 C1327 1.363 . S
C1333 C1328 1.379 . S
C1333 N1331 1.356 . S
N1334 C1326 1.356 . S
N1334 H1340 0.984 . S
N1334 H1341 0.984 . S
N1335 C1328 1.356 . S
N1335 H1338 0.984 . S
N1335 H1339 0.985 . S
H1336 N1331 0.984 . S
H1337 N1331 0.985 . S
H1338 N1335 0.984 . S
H1339 N1335 0.985 . S
H1340 N1334 0.984 . S
H1341 N1334 0.984 . S
H1342 N1330 0.984 . S
H1343 N1330 0.985 . S
C1344 C1345 1.363 . S
C1344 C1350 1.379 . S
C1344 N1352 1.356 . S
C1345 C1344 1.363 . S
C1345 C1351 1.363 . S
C1346 C1347 1.363 . S
C1346 C1351 1.379 . S
C1346 N1353 1.356 . S
C1347 C1346 1.363 . S
C1347 C1350 1.363 . S
N1348 C1350 1.356 . S
N1348 H1360 0.984 . S
N1348 H1361 0.985 . S
N1349 C1351 1.356 . S
N1349 H1354 0.984 . S
N1349 H1355 0.985 . S
C1350 C1344 1.379 . S
C1350 C1347 1.363 . S
C1350 N1348 1.356 . S
C1351 C1345 1.363 . S
C1351 C1346 1.379 . S
C1351 N1349 1.356 . S
N1352 C1344 1.356 . S
N1352 H1358 0.984 . S
N1352 H1359 0.984 . S
N1353 C1346 1.356 . S
N1353 H1356 0.984 . S
N1353 H1357 0.985 . S
H1354 N1349 0.984 . S
H1355 N1349 0.985 . S
H1356 N1353 0.984 . S
H1357 N1353 0.985 . S
H1358 N1352 0.984 . S
H1359 N1352 0.984 . S
H1360 N1348 0.984 . S
H1361 N1348 0.985 . S
C1362 C1363 1.363 . S
C1362 C1368 1.379 . S
C1362 N1370 1.356 . S
C1363 C1362 1.363 . S
C1363 C1369 1.363 . S
C1364 C1365 1.363 . S
C1364 C1369 1.379 . S
C1364 N1371 1.356 . S
C1365 C1364 1.363 . S
C1365 C1368 1.363 . S
N1366 C1368 1.356 . S
N1366 H1378 0.984 . S
N1366 H1379 0.985 . S
N1367 C1369 1.356 . S
N1367 H1372 0.984 . S
N1367 H1373 0.985 . S
C1368 C1362 1.379 . S
C1368 C1365 1.363 . S
C1368 N1366 1.356 . S
C1369 C1363 1.363 . S
C1369 C1364 1.379 . S
C1369 N1367 1.356 . S
N1370 C1362 1.356 . S
N1370 H1376 0.984 . S
N1370 H1377 0.984 . S
N1371 C1364 1.356 . S
N1371 H1374 0.984 . S
N1371 H1375 0.985 . S
H1372 N1367 0.984 . S
H1373 N1367 0.985 . S
H1374 N1371 0.984 . S
H1375 N1371 0.985 . S
H1376 N1370 0.984 . S
H1377 N1370 0.984 . S
H1378 N1366 0.984 . S
H1379 N1366 0.985 . S
C1380 C1381 1.348 1_556 S
C1380 C1386 1.379 . S
C1380 N1388 1.356 . S
C1381 C1380 1.348 1_554 S
C1381 C1387 1.378 . S
C1382 C1383 1.378 . S
C1382 C1387 1.379 . S
C1382 N1389 1.356 . S
C1383 C1382 1.378 . S
C1383 C1386 1.348 1_554 S
N1384 C1386 1.356 . S
N1384 H1396 0.984 . S
N1384 H1397 0.985 . S
N1385 C1387 1.356 . S
N1385 H1390 0.984 . S
N1385 H1391 0.985 . S
C1386 C1380 1.379 . S
C1386 C1383 1.348 1_556 S
C1386 N1384 1.356 . S
C1387 C1381 1.378 . S
C1387 C1382 1.379 . S
C1387 N1385 1.356 . S
N1388 C1380 1.356 . S
N1388 H1394 0.984 . S
N1388 H1395 0.984 . S
N1389 C1382 1.356 . S
N1389 H1392 0.984 . S
N1389 H1393 0.985 . S
H1390 N1385 0.984 . S
H1391 N1385 0.985 . S
H1392 N1389 0.984 . S
H1393 N1389 0.985 . S
H1394 N1388 0.984 . S
H1395 N1388 0.984 . S
H1396 N1384 0.984 . S
H1397 N1384 0.985 . S
C1398 C1399 1.348 1_556 S
C1398 C1404 1.379 . S
C1398 N1406 1.356 . S
C1399 C1398 1.348 1_554 S
C1399 C1405 1.378 . S
C1400 C1401 1.378 . S
C1400 C1405 1.379 . S
C1400 N1407 1.356 . S
C1401 C1400 1.378 . S
C1401 C1404 1.348 1_554 S
N1402 C1404 1.356 . S
N1402 H1414 0.984 . S
N1402 H1415 0.985 . S
N1403 C1405 1.356 . S
N1403 H1408 0.984 . S
N1403 H1409 0.985 . S
C1404 C1398 1.379 . S
C1404 C1401 1.348 1_556 S
C1404 N1402 1.356 . S
C1405 C1399 1.378 . S
C1405 C1400 1.379 . S
C1405 N1403 1.356 . S
N1406 C1398 1.356 . S
N1406 H1412 0.984 . S
N1406 H1413 0.984 . S
N1407 C1400 1.356 . S
N1407 H1410 0.984 . S
N1407 H1411 0.985 . S
H1408 N1403 0.984 . S
H1409 N1403 0.985 . S
H1410 N1407 0.984 . S
H1411 N1407 0.985 . S
H1412 N1406 0.984 . S
H1413 N1406 0.984 . S
H1414 N1402 0.984 . S
H1415 N1402 0.985 . S
C1416 C1417 1.348 1_556 S
C1416 C1422 1.379 . S
C1416 N1424 1.356 . S
C1417 C1416 1.348 1_554 S
C1417 C1423 1.378 . S
C1418 C1419 1.379 . S
C1418 C1423 1.379 . S
C1418 N1425 1.356 . S
C1419 C1418 1.379 . S
C1419 C1422 1.348 1_554 S
N1420 C1422 1.356 . S
N1420 H1432 0.984 . S
N1420 H1433 0.985 . S
N1421 C1423 1.356 . S
N1421 H1426 0.984 . S
N1421 H1427 0.985 . S
C1422 C1416 1.379 . S
C1422 C1419 1.348 1_556 S
C1422 N1420 1.356 . S
C1423 C1417 1.378 . S
C1423 C1418 1.379 . S
C1423 N1421 1.356 . S
N1424 C1416 1.356 . S
N1424 H1430 0.984 . S
N1424 H1431 0.984 . S
N1425 C1418 1.356 . S
N1425 H1428 0.984 . S
N1425 H1429 0.985 . S
H1426 N1421 0.984 . S
H1427 N1421 0.985 . S
H1428 N1425 0.984 . S
H1429 N1425 0.985 . S
H1430 N1424 0.984 . S
H1431 N1424 0.984 . S
H1432 N1420 0.984 . S
H1433 N1420 0.985 . S
C1434 C1435 1.378 . S
C1434 C1440 1.379 . S
C1434 N1442 1.356 . S
C1435 C1434 1.378 . S
C1435 C1441 1.348 1_554 S
C1436 C1437 1.348 1_556 S
C1436 C1441 1.379 . S
C1436 N1443 1.356 . S
C1437 C1436 1.348 1_554 S
C1437 C1440 1.379 . S
N1438 C1440 1.356 . S
N1438 H1450 0.984 . S
N1438 H1451 0.985 . S
N1439 C1441 1.356 . S
N1439 H1444 0.984 . S
N1439 H1445 0.985 . S
C1440 C1434 1.379 . S
C1440 C1437 1.379 . S
C1440 N1438 1.356 . S
C1441 C1435 1.348 1_556 S
C1441 C1436 1.379 . S
C1441 N1439 1.356 . S
N1442 C1434 1.356 . S
N1442 H1448 0.984 . S
N1442 H1449 0.984 . S
N1443 C1436 1.356 . S
N1443 H1446 0.984 . S
N1443 H1447 0.985 . S
H1444 N1439 0.984 . S
H1445 N1439 0.985 . S
H1446 N1443 0.984 . S
H1447 N1443 0.985 . S
H1448 N1442 0.984 . S
H1449 N1442 0.984 . S
H1450 N1438 0.984 . S
H1451 N1438 0.985 . S
C1452 C1453 1.360 1_655 S
C1452 C1458 1.379 . S
C1452 N1460 1.356 . S
C1453 C1452 1.360 1_455 S
C1453 C1459 1.366 . S
C1454 C1455 1.366 . S
C1454 C1459 1.379 . S
C1454 N1461 1.356 . S
C1455 C1454 1.366 . S
C1455 C1458 1.360 1_455 S
N1456 C1458 1.356 . S
N1456 H1468 0.984 . S
N1456 H1469 0.985 . S
N1457 C1459 1.356 . S
N1457 H1462 0.984 . S
N1457 H1463 0.985 . S
C1458 C1452 1.379 . S
C1458 C1455 1.360 1_655 S
C1458 N1456 1.356 . S
C1459 C1453 1.366 . S
C1459 C1454 1.379 . S
C1459 N1457 1.356 . S
N1460 C1452 1.356 . S
N1460 H1466 0.984 . S
N1460 H1467 0.984 . S
N1461 C1454 1.356 . S
N1461 H1464 0.984 . S
N1461 H1465 0.985 . S
H1462 N1457 0.984 . S
H1463 N1457 0.985 . S
H1464 N1461 0.984 . S
H1465 N1461 0.985 . S
H1466 N1460 0.984 . S
H1467 N1460 0.984 . S
H1468 N1456 0.984 . S
H1469 N1456 0.985 . S
C1470 C1471 1.362 1_565 S
C1470 C1476 1.379 . S
C1470 N1478 1.356 . S
C1471 C1470 1.362 1_545 S
C1471 C1477 1.364 . S
C1472 C1473 1.363 . S
C1472 C1477 1.379 . S
C1472 N1479 1.356 . S
C1473 C1472 1.363 . S
C1473 C1476 1.363 1_545 S
N1474 C1476 1.356 . S
N1474 H1486 0.984 . S
N1474 H1487 0.985 . S
N1475 C1477 1.356 . S
N1475 H1480 0.984 . S
N1475 H1481 0.985 . S
C1476 C1470 1.379 . S
C1476 C1473 1.363 1_565 S
C1476 N1474 1.356 . S
C1477 C1471 1.364 . S
C1477 C1472 1.379 . S
C1477 N1475 1.356 . S
N1478 C1470 1.356 . S
N1478 H1484 0.984 . S
N1478 H1485 0.984 . S
N1479 C1472 1.356 . S
N1479 H1482 0.984 . S
N1479 H1483 0.985 . S
H1480 N1475 0.984 . S
H1481 N1475 0.985 . S
H1482 N1479 0.984 . S
H1483 N1479 0.985 . S
H1484 N1478 0.984 . S
H1485 N1478 0.984 . S
H1486 N1474 0.984 . S
H1487 N1474 0.985 . S
C1488 C1489 1.359 1_655 S
C1488 C1494 1.379 . S
C1488 N1496 1.356 . S
C1489 C1488 1.359 1_455 S
C1489 C1495 1.367 . S
C1490 C1491 1.368 . S
C1490 C1495 1.379 . S
C1490 N1497 1.356 . S
C1491 C1490 1.368 . S
C1491 C1494 1.358 1_455 S
N1492 C1494 1.356 . S
N1492 H1504 0.984 . S
N1492 H1505 0.985 . S
N1493 C1495 1.356 . S
N1493 H1498 0.984 . S
N1493 H1499 0.985 . S
C1494 C1488 1.379 . S
C1494 C1491 1.358 1_655 S
C1494 N1492 1.356 . S
C1495 C1489 1.367 . S
C1495 C1490 1.379 . S
C1495 N1493 1.356 . S
N1496 C1488 1.356 . S
N1496 H1502 0.984 . S
N1496 H1503 0.984 . S
N1497 C1490 1.356 . S
N1497 H1500 0.984 . S
N1497 H1501 0.985 . S
H1498 N1493 0.984 . S
H1499 N1493 0.985 . S
H1500 N1497 0.984 . S
H1501 N1497 0.985 . S
H1502 N1496 0.984 . S
H1503 N1496 0.984 . S
H1504 N1492 0.984 . S
H1505 N1492 0.985 . S
C1506 C1507 1.363 . S
C1506 C1512 1.379 . S
C1506 N1514 1.356 . S
C1507 C1506 1.363 . S
C1507 C1513 1.363 1_545 S
C1508 C1509 1.363 1_565 S
C1508 C1513 1.379 . S
C1508 N1515 1.356 . S
C1509 C1508 1.363 1_545 S
C1509 C1512 1.363 . S
N1510 C1512 1.356 . S
N1510 H1522 0.984 . S
N1510 H1523 0.985 . S
N1511 C1513 1.356 . S
N1511 H1516 0.984 . S
N1511 H1517 0.985 . S
C1512 C1506 1.379 . S
C1512 C1509 1.363 . S
C1512 N1510 1.356 . S
C1513 C1507 1.363 1_565 S
C1513 C1508 1.379 . S
C1513 N1511 1.356 . S
N1514 C1506 1.356 . S
N1514 H1520 0.984 . S
N1514 H1521 0.984 . S
N1515 C1508 1.356 . S
N1515 H1518 0.984 . S
N1515 H1519 0.985 . S
H1516 N1511 0.984 . S
H1517 N1511 0.985 . S
H1518 N1515 0.984 . S
H1519 N1515 0.985 . S
H1520 N1514 0.984 . S
H1521 N1514 0.984 . S
H1522 N1510 0.984 . S
H1523 N1510 0.985 . S
C1524 C1525 1.368 . S
C1524 C1530 1.379 . S
C1524 N1532 1.356 . S
C1525 C1524 1.368 . S
C1525 C1531 1.358 1_455 S
C1526 C1527 1.358 1_655 S
C1526 C1531 1.379 . S
C1526 N1533 1.356 . S
C1527 C1526 1.358 1_455 S
C1527 C1530 1.368 . S
N1528 C1530 1.356 . S
N1528 H1540 0.984 . S
N1528 H1541 0.985 . S
N1529 C1531 1.356 . S
N1529 H1534 0.984 . S
N1529 H1535 0.985 . S
C1530 C1524 1.379 . S
C1530 C1527 1.368 . S
C1530 N1528 1.356 . S
C1531 C1525 1.358 1_655 S
C1531 C1526 1.379 . S
C1531 N1529 1.356 . S
N1532 C1524 1.356 . S
N1532 H1538 0.984 . S
N1532 H1539 0.984 . S
N1533 C1526 1.356 . S
N1533 H1536 0.984 . S
N1533 H1537 0.985 . S
H1534 N1529 0.984 . S
H1535 N1529 0.985 . S
H1536 N1533 0.984 . S
H1537 N1533 0.985 . S
H1538 N1532 0.984 . S
H1539 N1532 0.984 . S
H1540 N1528 0.984 . S
H1541 N1528 0.985 . S
C1542 C1543 1.363 1_565 S
C1542 C1548 1.379 . S
C1542 N1550 1.356 . S
C1543 C1542 1.363 1_545 S
C1543 C1549 1.363 . S
C1544 C1545 1.363 . S
C1544 C1549 1.379 . S
C1544 N1551 1.356 . S
C1545 C1544 1.363 . S
C1545 C1548 1.363 1_545 S
N1546 C1548 1.356 . S
N1546 H1558 0.984 . S
N1546 H1559 0.985 . S
N1547 C1549 1.356 . S
N1547 H1552 0.984 . S
N1547 H1553 0.985 . S
C1548 C1542 1.379 . S
C1548 C1545 1.363 1_565 S
C1548 N1546 1.356 . S
C1549 C1543 1.363 . S
C1549 C1544 1.379 . S
C1549 N1547 1.356 . S
N1550 C1542 1.356 . S
N1550 H1556 0.984 . S
N1550 H1557 0.984 . S
N1551 C1544 1.356 . S
N1551 H1554 0.984 . S
N1551 H1555 0.985 . S
H1552 N1547 0.984 . S
H1553 N1547 0.985 . S
H1554 N1551 0.984 . S
H1555 N1551 0.985 . S
H1556 N1550 0.984 . S
H1557 N1550 0.984 . S
H1558 N1546 0.984 . S
H1559 N1546 0.985 . S
C1560 C1561 1.363 . S
C1560 C1566 1.379 . S
C1560 N1568 1.356 1_455 S
C1561 C1560 1.363 . S
C1561 C1567 1.363 . S
C1562 C1563 1.363 . S
C1562 C1567 1.379 . S
C1562 N1569 1.356 . S
C1563 C1562 1.363 . S
C1563 C1566 1.363 . S
N1564 C1566 1.356 1_655 S
N1564 H1576 0.984 . S
N1564 H1577 0.985 1_655 S
N1565 C1567 1.356 . S
N1565 H1570 0.984 . S
N1565 H1571 0.984 . S
C1566 C1560 1.379 . S
C1566 C1563 1.363 . S
C1566 N1564 1.356 1_455 S
C1567 C1561 1.363 . S
C1567 C1562 1.379 . S
C1567 N1565 1.356 . S
N1568 C1560 1.356 1_655 S
N1568 H1574 0.984 . S
N1568 H1575 0.985 1_655 S
N1569 C1562 1.356 . S
N1569 H1572 0.984 . S
N1569 H1573 0.984 . S
H1570 N1565 0.984 . S
H1571 N1565 0.984 . S
H1572 N1569 0.984 . S
H1573 N1569 0.984 . S
H1574 N1568 0.984 . S
H1575 N1568 0.985 1_455 S
H1576 N1564 0.984 . S
H1577 N1564 0.985 1_455 S
C1578 C1579 1.364 . S
C1578 C1584 1.379 . S
C1578 N1586 1.356 . S
C1579 C1578 1.364 . S
C1579 C1585 1.362 1_545 S
C1580 C1581 1.363 1_565 S
C1580 C1585 1.379 . S
C1580 N1587 1.356 . S
C1581 C1580 1.363 1_545 S
C1581 C1584 1.363 . S
N1582 C1584 1.356 . S
N1582 H1594 0.984 . S
N1582 H1595 0.985 . S
N1583 C1585 1.356 . S
N1583 H1588 0.984 . S
N1583 H1589 0.985 . S
C1584 C1578 1.379 . S
C1584 C1581 1.363 . S
C1584 N1582 1.356 . S
C1585 C1579 1.362 1_565 S
C1585 C1580 1.379 . S
C1585 N1583 1.356 . S
N1586 C1578 1.356 . S
N1586 H1592 0.984 . S
N1586 H1593 0.984 . S
N1587 C1580 1.356 . S
N1587 H1590 0.984 . S
N1587 H1591 0.985 . S
H1588 N1583 0.984 . S
H1589 N1583 0.985 . S
H1590 N1587 0.984 . S
H1591 N1587 0.985 . S
H1592 N1586 0.984 . S
H1593 N1586 0.984 . S
H1594 N1582 0.984 . S
H1595 N1582 0.985 . S
C1596 C1597 1.359 1_655 S
C1596 C1602 1.379 . S
C1596 N1604 1.356 . S
C1597 C1596 1.359 1_455 S
C1597 C1603 1.367 . S
C1598 C1599 1.366 . S
C1598 C1603 1.379 . S
C1598 N1605 1.356 . S
C1599 C1598 1.366 . S
C1599 C1602 1.360 1_455 S
N1600 C1602 1.356 . S
N1600 H1612 0.984 . S
N1600 H1613 0.985 . S
N1601 C1603 1.356 . S
N1601 H1606 0.984 . S
N1601 H1607 0.985 . S
C1602 C1596 1.379 . S
C1602 C1599 1.360 1_655 S
C1602 N1600 1.356 . S
C1603 C1597 1.367 . S
C1603 C1598 1.379 . S
C1603 N1601 1.356 . S
N1604 C1596 1.356 . S
N1604 H1610 0.984 . S
N1604 H1611 0.984 . S
N1605 C1598 1.356 . S
N1605 H1608 0.984 . S
N1605 H1609 0.985 . S
H1606 N1601 0.984 . S
H1607 N1601 0.985 . S
H1608 N1605 0.984 . S
H1609 N1605 0.985 . S
H1610 N1604 0.984 . S
H1611 N1604 0.984 . S
H1612 N1600 0.984 . S
H1613 N1600 0.985 . S
C1614 C1615 1.362 1_565 S
C1614 C1620 1.379 . S
C1614 N1622 1.356 . S
C1615 C1614 1.362 1_545 S
C1615 C1621 1.364 . S
C1616 C1617 1.364 . S
C1616 C1621 1.379 . S
C1616 N1623 1.356 . S
C1617 C1616 1.364 . S
C1617 C1620 1.362 1_545 S
N1618 C1620 1.356 . S
N1618 H1630 0.984 . S
N1618 H1631 0.985 . S
N1619 C1621 1.356 . S
N1619 H1624 0.984 . S
N1619 H1625 0.985 . S
C1620 C1614 1.379 . S
C1620 C1617 1.362 1_565 S
C1620 N1618 1.356 . S
C1621 C1615 1.364 . S
C1621 C1616 1.379 . S
C1621 N1619 1.356 . S
N1622 C1614 1.356 . S
N1622 H1628 0.984 . S
N1622 H1629 0.984 . S
N1623 C1616 1.356 . S
N1623 H1626 0.984 . S
N1623 H1627 0.985 . S
H1624 N1619 0.984 . S
H1625 N1619 0.985 . S
H1626 N1623 0.984 . S
H1627 N1623 0.985 . S
H1628 N1622 0.984 . S
H1629 N1622 0.984 . S
H1630 N1618 0.984 . S
H1631 N1618 0.985 . S
C1632 C1633 1.366 . S
C1632 C1638 1.379 . S
C1632 N1640 1.356 . S
C1633 C1632 1.366 . S
C1633 C1639 1.360 1_455 S
C1634 C1635 1.360 1_655 S
C1634 C1639 1.379 . S
C1634 N1641 1.356 . S
C1635 C1634 1.360 1_455 S
C1635 C1638 1.366 . S
N1636 C1638 1.356 . S
N1636 H1648 0.984 . S
N1636 H1649 0.985 . S
N1637 C1639 1.356 . S
N1637 H1642 0.984 . S
N1637 H1643 0.985 . S
C1638 C1632 1.379 . S
C1638 C1635 1.366 . S
C1638 N1636 1.356 . S
C1639 C1633 1.360 1_655 S
C1639 C1634 1.379 . S
C1639 N1637 1.356 . S
N1640 C1632 1.356 . S
N1640 H1646 0.984 . S
N1640 H1647 0.984 . S
N1641 C1634 1.356 . S
N1641 H1644 0.984 . S
N1641 H1645 0.985 . S
H1642 N1637 0.984 . S
H1643 N1637 0.985 . S
H1644 N1641 0.984 . S
H1645 N1641 0.985 . S
H1646 N1640 0.984 . S
H1647 N1640 0.984 . S
H1648 N1636 0.984 . S
H1649 N1636 0.985 . S
C1650 C1651 1.361 1_565 S
C1650 C1656 1.379 . S
C1650 N1658 1.356 . S
C1651 C1650 1.361 1_545 S
C1651 C1657 1.365 . S
C1652 C1653 1.365 . S
C1652 C1657 1.379 . S
C1652 N1659 1.356 . S
C1653 C1652 1.365 . S
C1653 C1656 1.361 1_545 S
N1654 C1656 1.356 . S
N1654 H1666 0.984 . S
N1654 H1667 0.985 . S
N1655 C1657 1.356 . S
N1655 H1660 0.984 . S
N1655 H1661 0.985 . S
C1656 C1650 1.379 . S
C1656 C1653 1.361 1_565 S
C1656 N1654 1.356 . S
C1657 C1651 1.365 . S
C1657 C1652 1.379 . S
C1657 N1655 1.356 . S
N1658 C1650 1.356 . S
N1658 H1664 0.984 . S
N1658 H1665 0.984 . S
N1659 C1652 1.356 . S
N1659 H1662 0.984 . S
N1659 H1663 0.985 . S
H1660 N1655 0.984 . S
H1661 N1655 0.985 . S
H1662 N1659 0.984 . S
H1663 N1659 0.985 . S
H1664 N1658 0.984 . S
H1665 N1658 0.984 . S
H1666 N1654 0.984 . S
H1667 N1654 0.985 . S
C1668 C1669 1.370 . S
C1668 C1674 1.379 . S
C1668 N1676 1.356 . S
C1669 C1668 1.370 . S
C1669 C1675 1.356 1_455 S
C1670 C1671 1.357 1_655 S
C1670 C1675 1.379 . S
C1670 N1677 1.356 . S
C1671 C1670 1.357 1_455 S
C1671 C1674 1.369 . S
N1672 C1674 1.356 . S
N1672 H1684 0.984 . S
N1672 H1685 0.985 . S
N1673 C1675 1.356 . S
N1673 H1678 0.984 . S
N1673 H1679 0.985 . S
C1674 C1668 1.379 . S
C1674 C1671 1.369 . S
C1674 N1672 1.356 . S
C1675 C1669 1.356 1_655 S
C1675 C1670 1.379 . S
C1675 N1673 1.356 . S
N1676 C1668 1.356 . S
N1676 H1682 0.984 . S
N1676 H1683 0.984 . S
N1677 C1670 1.356 . S
N1677 H1680 0.984 . S
N1677 H1681 0.985 . S
H1678 N1673 0.984 . S
H1679 N1673 0.985 . S
H1680 N1677 0.984 . S
H1681 N1677 0.985 . S
H1682 N1676 0.984 . S
H1683 N1676 0.984 . S
H1684 N1672 0.984 . S
H1685 N1672 0.985 . S
C1686 C1687 1.362 1_565 S
C1686 C1692 1.379 . S
C1686 N1694 1.356 . S
C1687 C1686 1.362 1_545 S
C1687 C1693 1.364 . S
C1688 C1689 1.365 . S
C1688 C1693 1.379 . S
C1688 N1695 1.356 . S
C1689 C1688 1.365 . S
C1689 C1692 1.361 1_545 S
N1690 C1692 1.356 . S
N1690 H1702 0.984 . S
N1690 H1703 0.985 . S
N1691 C1693 1.356 . S
N1691 H1696 0.984 . S
N1691 H1697 0.985 . S
C1692 C1686 1.379 . S
C1692 C1689 1.361 1_565 S
C1692 N1690 1.356 . S
C1693 C1687 1.364 . S
C1693 C1688 1.379 . S
C1693 N1691 1.356 . S
N1694 C1686 1.356 . S
N1694 H1700 0.984 . S
N1694 H1701 0.984 . S
N1695 C1688 1.356 . S
N1695 H1698 0.984 . S
N1695 H1699 0.985 . S
H1696 N1691 0.984 . S
H1697 N1691 0.985 . S
H1698 N1695 0.984 . S
H1699 N1695 0.985 . S
H1700 N1694 0.984 . S
H1701 N1694 0.984 . S
H1702 N1690 0.984 . S
H1703 N1690 0.985 . S
C1704 C1705 1.359 1_655 S
C1704 C1710 1.379 . S
C1704 N1712 1.356 . S
C1705 C1704 1.359 1_455 S
C1705 C1711 1.367 . S
C1706 C1707 1.367 . S
C1706 C1711 1.379 . S
C1706 N1713 1.356 . S
C1707 C1706 1.367 . S
C1707 C1710 1.359 1_455 S
N1708 C1710 1.356 . S
N1708 H1720 0.984 . S
N1708 H1721 0.985 . S
N1709 C1711 1.356 . S
N1709 H1714 0.984 . S
N1709 H1715 0.985 . S
C1710 C1704 1.379 . S
C1710 C1707 1.359 1_655 S
C1710 N1708 1.356 . S
C1711 C1705 1.367 . S
C1711 C1706 1.379 . S
C1711 N1709 1.356 . S
N1712 C1704 1.356 . S
N1712 H1718 0.984 . S
N1712 H1719 0.984 . S
N1713 C1706 1.356 . S
N1713 H1716 0.984 . S
N1713 H1717 0.985 . S
H1714 N1709 0.984 . S
H1715 N1709 0.985 . S
H1716 N1713 0.984 . S
H1717 N1713 0.985 . S
H1718 N1712 0.984 . S
H1719 N1712 0.984 . S
H1720 N1708 0.984 . S
H1721 N1708 0.985 . S
C1722 C1723 1.362 1_565 S
C1722 C1728 1.379 . S
C1722 N1730 1.356 . S
C1723 C1722 1.362 1_545 S
C1723 C1729 1.364 . S
C1724 C1725 1.364 . S
C1724 C1729 1.379 . S
C1724 N1731 1.356 . S
C1725 C1724 1.364 . S
C1725 C1728 1.362 1_545 S
N1726 C1728 1.356 . S
N1726 H1738 0.984 . S
N1726 H1739 0.985 . S
N1727 C1729 1.356 . S
N1727 H1732 0.984 . S
N1727 H1733 0.985 . S
C1728 C1722 1.379 . S
C1728 C1725 1.362 1_565 S
C1728 N1726 1.356 . S
C1729 C1723 1.364 . S
C1729 C1724 1.379 . S
C1729 N1727 1.356 . S
N1730 C1722 1.356 . S
N1730 H1736 0.984 . S
N1730 H1737 0.984 . S
N1731 C1724 1.356 . S
N1731 H1734 0.984 . S
N1731 H1735 0.985 . S
H1732 N1727 0.984 . S
H1733 N1727 0.985 . S
H1734 N1731 0.984 . S
H1735 N1731 0.985 . S
H1736 N1730 0.984 . S
H1737 N1730 0.984 . S
H1738 N1726 0.984 . S
H1739 N1726 0.985 . S
C1740 C1741 1.364 . S
C1740 C1746 1.379 . S
C1740 N1748 1.356 . S
C1741 C1740 1.364 . S
C1741 C1747 1.362 1_545 S
C1742 C1743 1.363 1_565 S
C1742 C1747 1.379 . S
C1742 N1749 1.356 . S
C1743 C1742 1.363 1_545 S
C1743 C1746 1.363 . S
N1744 C1746 1.356 . S
N1744 H1756 0.984 . S
N1744 H1757 0.985 . S
N1745 C1747 1.356 . S
N1745 H1750 0.984 . S
N1745 H1751 0.985 . S
C1746 C1740 1.379 . S
C1746 C1743 1.363 . S
C1746 N1744 1.356 . S
C1747 C1741 1.362 1_565 S
C1747 C1742 1.379 . S
C1747 N1745 1.356 . S
N1748 C1740 1.356 . S
N1748 H1754 0.984 . S
N1748 H1755 0.984 . S
N1749 C1742 1.356 . S
N1749 H1752 0.984 . S
N1749 H1753 0.985 . S
H1750 N1745 0.984 . S
H1751 N1745 0.985 . S
H1752 N1749 0.984 . S
H1753 N1749 0.985 . S
H1754 N1748 0.984 . S
H1755 N1748 0.984 . S
H1756 N1744 0.984 . S
H1757 N1744 0.985 . S
C1758 C1759 1.358 1_655 S
C1758 C1764 1.379 . S
C1758 N1766 1.356 . S
C1759 C1758 1.358 1_455 S
C1759 C1765 1.368 . S
C1760 C1761 1.369 . S
C1760 C1765 1.379 . S
C1760 N1767 1.356 . S
C1761 C1760 1.369 . S
C1761 C1764 1.358 1_455 S
N1762 C1764 1.356 . S
N1762 H1774 0.984 . S
N1762 H1775 0.985 . S
N1763 C1765 1.356 . S
N1763 H1768 0.984 . S
N1763 H1769 0.985 . S
C1764 C1758 1.379 . S
C1764 C1761 1.358 1_655 S
C1764 N1762 1.356 . S
C1765 C1759 1.368 . S
C1765 C1760 1.379 . S
C1765 N1763 1.356 . S
N1766 C1758 1.356 . S
N1766 H1772 0.984 . S
N1766 H1773 0.984 . S
N1767 C1760 1.356 . S
N1767 H1770 0.984 . S
N1767 H1771 0.985 . S
H1768 N1763 0.984 . S
H1769 N1763 0.985 . S
H1770 N1767 0.984 . S
H1771 N1767 0.985 . S
H1772 N1766 0.984 . S
H1773 N1766 0.984 . S
H1774 N1762 0.984 . S
H1775 N1762 0.985 . S
C1776 C1777 1.363 1_565 S
C1776 C1782 1.379 . S
C1776 N1784 1.356 . S
C1777 C1776 1.363 1_545 S
C1777 C1783 1.363 . S
C1778 C1779 1.363 . S
C1778 C1783 1.379 . S
C1778 N1785 1.356 . S
C1779 C1778 1.363 . S
C1779 C1782 1.363 1_545 S
N1780 C1782 1.356 . S
N1780 H1792 0.984 . S
N1780 H1793 0.985 . S
N1781 C1783 1.356 . S
N1781 H1786 0.984 . S
N1781 H1787 0.985 . S
C1782 C1776 1.379 . S
C1782 C1779 1.363 1_565 S
C1782 N1780 1.356 . S
C1783 C1777 1.363 . S
C1783 C1778 1.379 . S
C1783 N1781 1.356 . S
N1784 C1776 1.356 . S
N1784 H1790 0.984 . S
N1784 H1791 0.984 . S
N1785 C1778 1.356 . S
N1785 H1788 0.984 . S
N1785 H1789 0.985 . S
H1786 N1781 0.984 . S
H1787 N1781 0.985 . S
H1788 N1785 0.984 . S
H1789 N1785 0.985 . S
H1790 N1784 0.984 . S
H1791 N1784 0.984 . S
H1792 N1780 0.984 . S
H1793 N1780 0.985 . S
C1794 C1795 1.358 1_655 S
C1794 C1800 1.379 . S
C1794 N1802 1.356 . S
C1795 C1794 1.358 1_455 S
C1795 C1801 1.368 . S
C1796 C1797 1.368 . S
C1796 C1801 1.379 . S
C1796 N1803 1.356 . S
C1797 C1796 1.368 . S
C1797 C1800 1.358 1_455 S
N1798 C1800 1.356 . S
N1798 H1810 0.984 . S
N1798 H1811 0.985 . S
N1799 C1801 1.356 . S
N1799 H1804 0.984 . S
N1799 H1805 0.985 . S
C1800 C1794 1.379 . S
C1800 C1797 1.358 1_655 S
C1800 N1798 1.356 . S
C1801 C1795 1.368 . S
C1801 C1796 1.379 . S
C1801 N1799 1.356 . S
N1802 C1794 1.356 . S
N1802 H1808 0.984 . S
N1802 H1809 0.984 . S
N1803 C1796 1.356 . S
N1803 H1806 0.984 . S
N1803 H1807 0.985 . S
H1804 N1799 0.984 . S
H1805 N1799 0.985 . S
H1806 N1803 0.984 . S
H1807 N1803 0.985 . S
H1808 N1802 0.984 . S
H1809 N1802 0.984 . S
H1810 N1798 0.984 . S
H1811 N1798 0.985 . S
C1812 C1813 1.363 . S
C1812 C1818 1.379 . S
C1812 N1820 1.356 . S
C1813 C1812 1.363 . S
C1813 C1819 1.363 1_545 S
C1814 C1815 1.364 1_565 S
C1814 C1819 1.379 . S
C1814 N1821 1.356 . S
C1815 C1814 1.364 1_545 S
C1815 C1818 1.362 . S
N1816 C1818 1.356 . S
N1816 H1828 0.984 . S
N1816 H1829 0.985 . S
N1817 C1819 1.356 . S
N1817 H1822 0.984 . S
N1817 H1823 0.985 . S
C1818 C1812 1.379 . S
C1818 C1815 1.362 . S
C1818 N1816 1.356 . S
C1819 C1813 1.363 1_565 S
C1819 C1814 1.379 . S
C1819 N1817 1.356 . S
N1820 C1812 1.356 . S
N1820 H1826 0.984 . S
N1820 H1827 0.984 . S
N1821 C1814 1.356 . S
N1821 H1824 0.984 . S
N1821 H1825 0.985 . S
H1822 N1817 0.984 . S
H1823 N1817 0.985 . S
H1824 N1821 0.984 . S
H1825 N1821 0.985 . S
H1826 N1820 0.984 . S
H1827 N1820 0.984 . S
H1828 N1816 0.984 . S
H1829 N1816 0.985 . S
C1830 C1831 1.366 . S
C1830 C1836 1.379 . S
C1830 N1838 1.356 . S
C1831 C1830 1.366 . S
C1831 C1837 1.360 1_455 S
C1832 C1833 1.360 1_655 S
C1832 C1837 1.379 . S
C1832 N1839 1.356 . S
C1833 C1832 1.360 1_455 S
C1833 C1836 1.366 . S
N1834 C1836 1.356 . S
N1834 H1846 0.984 . S
N1834 H1847 0.985 . S
N1835 C1837 1.356 . S
N1835 H1840 0.984 . S
N1835 H1841 0.985 . S
C1836 C1830 1.379 . S
C1836 C1833 1.366 . S
C1836 N1834 1.356 . S
C1837 C1831 1.360 1_655 S
C1837 C1832 1.379 . S
C1837 N1835 1.356 . S
N1838 C1830 1.356 . S
N1838 H1844 0.984 . S
N1838 H1845 0.984 . S
N1839 C1832 1.356 . S
N1839 H1842 0.984 . S
N1839 H1843 0.985 . S
H1840 N1835 0.984 . S
H1841 N1835 0.985 . S
H1842 N1839 0.984 . S
H1843 N1839 0.985 . S
H1844 N1838 0.984 . S
H1845 N1838 0.984 . S
H1846 N1834 0.984 . S
H1847 N1834 0.985 . S
C1848 C1849 1.363 . S
C1848 C1854 1.379 . S
C1848 N1856 1.356 . S
C1849 C1848 1.363 . S
C1849 C1855 1.363 1_545 S
C1850 C1851 1.363 1_565 S
C1850 C1855 1.379 . S
C1850 N1857 1.356 . S
C1851 C1850 1.363 1_545 S
C1851 C1854 1.363 . S
N1852 C1854 1.356 . S
N1852 H1864 0.984 . S
N1852 H1865 0.985 . S
N1853 C1855 1.356 . S
N1853 H1858 0.984 . S
N1853 H1859 0.985 . S
C1854 C1848 1.379 . S
C1854 C1851 1.363 . S
C1854 N1852 1.356 . S
C1855 C1849 1.363 1_565 S
C1855 C1850 1.379 . S
C1855 N1853 1.356 . S
N1856 C1848 1.356 . S
N1856 H1862 0.984 . S
N1856 H1863 0.984 . S
N1857 C1850 1.356 . S
N1857 H1860 0.984 . S
N1857 H1861 0.985 . S
H1858 N1853 0.984 . S
H1859 N1853 0.985 . S
H1860 N1857 0.984 . S
H1861 N1857 0.985 . S
H1862 N1856 0.984 . S
H1863 N1856 0.984 . S
H1864 N1852 0.984 . S
H1865 N1852 0.985 . S
C1866 C1867 1.366 . S
C1866 C1872 1.379 . S
C1866 N1874 1.356 . S
C1867 C1866 1.366 . S
C1867 C1873 1.360 1_455 S
C1868 C1869 1.360 1_655 S
C1868 C1873 1.379 . S
C1868 N1875 1.356 . S
C1869 C1868 1.360 1_455 S
C1869 C1872 1.366 . S
N1870 C1872 1.356 . S
N1870 H1882 0.984 . S
N1870 H1883 0.985 . S
N1871 C1873 1.356 . S
N1871 H1876 0.984 . S
N1871 H1877 0.985 . S
C1872 C1866 1.379 . S
C1872 C1869 1.366 . S
C1872 N1870 1.356 . S
C1873 C1867 1.360 1_655 S
C1873 C1868 1.379 . S
C1873 N1871 1.356 . S
N1874 C1866 1.356 . S
N1874 H1880 0.984 . S
N1874 H1881 0.984 . S
N1875 C1868 1.356 . S
N1875 H1878 0.984 . S
N1875 H1879 0.985 . S
H1876 N1871 0.984 . S
H1877 N1871 0.985 . S
H1878 N1875 0.984 . S
H1879 N1875 0.985 . S
H1880 N1874 0.984 . S
H1881 N1874 0.984 . S
H1882 N1870 0.984 . S
H1883 N1870 0.985 . S
C1884 C1885 1.349 1_556 S
C1884 C1890 1.379 . S
C1884 N1892 1.356 . S
C1885 C1884 1.349 1_554 S
C1885 C1891 1.377 . S
C1886 C1887 1.376 . S
C1886 C1891 1.379 . S
C1886 N1893 1.356 . S
C1887 C1886 1.376 . S
C1887 C1890 1.350 1_554 S
N1888 C1890 1.356 . S
N1888 H1900 0.984 . S
N1888 H1901 0.985 . S
N1889 C1891 1.356 . S
N1889 H1894 0.984 . S
N1889 H1895 0.985 . S
C1890 C1884 1.379 . S
C1890 C1887 1.350 1_556 S
C1890 N1888 1.356 . S
C1891 C1885 1.377 . S
C1891 C1886 1.379 . S
C1891 N1889 1.356 . S
N1892 C1884 1.356 . S
N1892 H1898 0.984 . S
N1892 H1899 0.984 . S
N1893 C1886 1.356 . S
N1893 H1896 0.984 . S
N1893 H1897 0.985 . S
H1894 N1889 0.984 . S
H1895 N1889 0.985 . S
H1896 N1893 0.984 . S
H1897 N1893 0.985 . S
H1898 N1892 0.984 . S
H1899 N1892 0.984 . S
H1900 N1888 0.984 . S
H1901 N1888 0.985 . S
C1902 C1903 1.349 1_556 S
C1902 C1908 1.379 . S
C1902 N1910 1.356 . S
C1903 C1902 1.349 1_554 S
C1903 C1909 1.377 . S
C1904 C1905 1.376 . S
C1904 C1909 1.379 . S
C1904 N1911 1.356 . S
C1905 C1904 1.376 . S
C1905 C1908 1.350 1_554 S
N1906 C1908 1.356 . S
N1906 H1918 0.984 . S
N1906 H1919 0.985 . S
N1907 C1909 1.356 . S
N1907 H1912 0.984 . S
N1907 H1913 0.985 . S
C1908 C1902 1.379 . S
C1908 C1905 1.350 1_556 S
C1908 N1906 1.356 . S
C1909 C1903 1.377 . S
C1909 C1904 1.379 . S
C1909 N1907 1.356 . S
N1910 C1902 1.356 . S
N1910 H1916 0.984 . S
N1910 H1917 0.984 . S
N1911 C1904 1.356 . S
N1911 H1914 0.984 . S
N1911 H1915 0.985 . S
H1912 N1907 0.984 . S
H1913 N1907 0.985 . S
H1914 N1911 0.984 . S
H1915 N1911 0.985 . S
H1916 N1910 0.984 . S
H1917 N1910 0.984 . S
H1918 N1906 0.984 . S
H1919 N1906 0.985 . S
C1920 C1921 1.349 1_556 S
C1920 C1926 1.379 . S
C1920 N1928 1.356 . S
C1921 C1920 1.349 1_554 S
C1921 C1927 1.377 . S
C1922 C1923 1.378 . S
C1922 C1927 1.379 . S
C1922 N1929 1.356 . S
C1923 C1922 1.378 . S
C1923 C1926 1.348 1_554 S
N1924 C1926 1.356 . S
N1924 H1936 0.984 . S
N1924 H1937 0.985 . S
N1925 C1927 1.356 . S
N1925 H1930 0.984 . S
N1925 H1931 0.985 . S
C1926 C1920 1.379 . S
C1926 C1923 1.348 1_556 S
C1926 N1924 1.356 . S
C1927 C1921 1.377 . S
C1927 C1922 1.379 . S
C1927 N1925 1.356 . S
N1928 C1920 1.356 . S
N1928 H1934 0.984 . S
N1928 H1935 0.984 . S
N1929 C1922 1.356 . S
N1929 H1932 0.984 . S
N1929 H1933 0.985 . S
H1930 N1925 0.984 . S
H1931 N1925 0.985 . S
H1932 N1929 0.984 . S
H1933 N1929 0.985 . S
H1934 N1928 0.984 . S
H1935 N1928 0.984 . S
H1936 N1924 0.984 . S
H1937 N1924 0.985 . S
C1938 C1939 1.377 . S
C1938 C1944 1.379 . S
C1938 N1946 1.356 . S
C1939 C1938 1.377 . S
C1939 C1945 1.349 1_554 S
C1940 C1941 1.350 1_556 S
C1940 C1945 1.379 . S
C1940 N1947 1.356 . S
C1941 C1940 1.350 1_554 S
C1941 C1944 1.376 . S
N1942 C1944 1.356 . S
N1942 H1954 0.984 . S
N1942 H1955 0.985 . S
N1943 C1945 1.356 . S
N1943 H1948 0.984 . S
N1943 H1949 0.985 . S
C1944 C1938 1.379 . S
C1944 C1941 1.376 . S
C1944 N1942 1.356 . S
C1945 C1939 1.349 1_556 S
C1945 C1940 1.379 . S
C1945 N1943 1.356 . S
N1946 C1938 1.356 . S
N1946 H1952 0.984 . S
N1946 H1953 0.984 . S
N1947 C1940 1.356 . S
N1947 H1950 0.984 . S
N1947 H1951 0.985 . S
H1948 N1943 0.984 . S
H1949 N1943 0.985 . S
H1950 N1947 0.984 . S
H1951 N1947 0.985 . S
H1952 N1946 0.984 . S
H1953 N1946 0.984 . S
H1954 N1942 0.984 . S
H1955 N1942 0.985 . S
C1956 C1957 1.347 1_556 S
C1956 C1962 1.379 . S
C1956 N1964 1.356 . S
C1957 C1956 1.347 1_554 S
C1957 C1963 1.379 . S
C1958 C1959 1.380 . S
C1958 C1963 1.379 . S
C1958 N1965 1.356 . S
C1959 C1958 1.380 . S
C1959 C1962 1.346 1_554 S
N1960 C1962 1.356 . S
N1960 H1972 0.984 . S
N1960 H1973 0.985 . S
N1961 C1963 1.356 . S
N1961 H1966 0.984 . S
N1961 H1967 0.985 . S
C1962 C1956 1.379 . S
C1962 C1959 1.346 1_556 S
C1962 N1960 1.356 . S
C1963 C1957 1.379 . S
C1963 C1958 1.379 . S
C1963 N1961 1.356 . S
N1964 C1956 1.356 . S
N1964 H1970 0.984 . S
N1964 H1971 0.984 . S
N1965 C1958 1.356 . S
N1965 H1968 0.984 . S
N1965 H1969 0.985 . S
H1966 N1961 0.984 . S
H1967 N1961 0.985 . S
H1968 N1965 0.984 . S
H1969 N1965 0.985 . S
H1970 N1964 0.984 . S
H1971 N1964 0.984 . S
H1972 N1960 0.984 . S
H1973 N1960 0.985 . S
C1974 C1975 1.377 . S
C1974 C1980 1.379 . S
C1974 N1982 1.356 . S
C1975 C1974 1.377 . S
C1975 C1981 1.349 1_554 S
C1976 C1977 1.350 1_556 S
C1976 C1981 1.379 . S
C1976 N1983 1.356 . S
C1977 C1976 1.350 1_554 S
C1977 C1980 1.376 . S
N1978 C1980 1.356 . S
N1978 H1990 0.984 . S
N1978 H1991 0.985 . S
N1979 C1981 1.356 . S
N1979 H1984 0.984 . S
N1979 H1985 0.985 . S
C1980 C1974 1.379 . S
C1980 C1977 1.376 . S
C1980 N1978 1.356 . S
C1981 C1975 1.349 1_556 S
C1981 C1976 1.379 . S
C1981 N1979 1.356 . S
N1982 C1974 1.356 . S
N1982 H1988 0.984 . S
N1982 H1989 0.984 . S
N1983 C1976 1.356 . S
N1983 H1986 0.984 . S
N1983 H1987 0.985 . S
H1984 N1979 0.984 . S
H1985 N1979 0.985 . S
H1986 N1983 0.984 . S
H1987 N1983 0.985 . S
H1988 N1982 0.984 . S
H1989 N1982 0.984 . S
H1990 N1978 0.984 . S
H1991 N1978 0.985 . S
C1992 C1993 1.379 . S
C1992 C1998 1.379 . S
C1992 N2000 1.356 . S
C1993 C1992 1.379 . S
C1993 C1999 1.347 1_554 S
C1994 C1995 1.346 1_556 S
C1994 C1999 1.379 . S
C1994 N2001 1.356 . S
C1995 C1994 1.346 1_554 S
C1995 C1998 1.380 . S
N1996 C1998 1.356 . S
N1996 H2008 0.984 . S
N1996 H2009 0.985 . S
N1997 C1999 1.356 . S
N1997 H2002 0.984 . S
N1997 H2003 0.985 . S
C1998 C1992 1.379 . S
C1998 C1995 1.380 . S
C1998 N1996 1.356 . S
C1999 C1993 1.347 1_556 S
C1999 C1994 1.379 . S
C1999 N1997 1.356 . S
N2000 C1992 1.356 . S
N2000 H2006 0.984 . S
N2000 H2007 0.984 . S
N2001 C1994 1.356 . S
N2001 H2004 0.984 . S
N2001 H2005 0.985 . S
H2002 N1997 0.984 . S
H2003 N1997 0.985 . S
H2004 N2001 0.984 . S
H2005 N2001 0.985 . S
H2006 N2000 0.984 . S
H2007 N2000 0.984 . S
H2008 N1996 0.984 . S
H2009 N1996 0.985 . S
C2010 C2011 1.347 1_556 S
C2010 C2016 1.379 . S
C2010 N2018 1.356 . S
C2011 C2010 1.347 1_554 S
C2011 C2017 1.380 . S
C2012 C2013 1.380 . S
C2012 C2017 1.379 . S
C2012 N2019 1.356 . S
C2013 C2012 1.380 . S
C2013 C2016 1.346 1_554 S
N2014 C2016 1.356 . S
N2014 H2026 0.984 . S
N2014 H2027 0.985 . S
N2015 C2017 1.356 . S
N2015 H2020 0.984 . S
N2015 H2021 0.985 . S
C2016 C2010 1.379 . S
C2016 C2013 1.346 1_556 S
C2016 N2014 1.356 . S
C2017 C2011 1.380 . S
C2017 C2012 1.379 . S
C2017 N2015 1.356 . S
N2018 C2010 1.356 . S
N2018 H2024 0.984 . S
N2018 H2025 0.984 . S
N2019 C2012 1.356 . S
N2019 H2022 0.984 . S
N2019 H2023 0.985 . S
H2020 N2015 0.984 . S
H2021 N2015 0.985 . S
H2022 N2019 0.984 . S
H2023 N2019 0.985 . S
H2024 N2018 0.984 . S
H2025 N2018 0.984 . S
H2026 N2014 0.984 . S
H2027 N2014 0.985 . S
C2028 C2029 1.363 . S
C2028 C2034 1.379 . S
C2028 N2036 1.356 . S
C2029 C2028 1.363 . S
C2029 C2035 1.363 . S
C2030 C2031 1.363 . S
C2030 C2035 1.379 . S
C2030 N2037 1.356 . S
C2031 C2030 1.363 . S
C2031 C2034 1.363 . S
N2032 C2034 1.356 . S
N2032 H2044 0.984 . S
N2032 H2045 0.985 . S
N2033 C2035 1.356 . S
N2033 H2038 0.984 . S
N2033 H2039 0.985 . S
C2034 C2028 1.379 . S
C2034 C2031 1.363 . S
C2034 N2032 1.356 . S
C2035 C2029 1.363 . S
C2035 C2030 1.379 . S
C2035 N2033 1.356 . S
N2036 C2028 1.356 . S
N2036 H2042 0.984 . S
N2036 H2043 0.984 . S
N2037 C2030 1.356 . S
N2037 H2040 0.984 . S
N2037 H2041 0.985 . S
H2038 N2033 0.984 . S
H2039 N2033 0.985 . S
H2040 N2037 0.984 . S
H2041 N2037 0.985 . S
H2042 N2036 0.984 . S
H2043 N2036 0.984 . S
H2044 N2032 0.984 . S
H2045 N2032 0.985 . S
C2046 C2047 1.363 . S
C2046 C2052 1.379 . S
C2046 N2054 1.356 . S
C2047 C2046 1.363 . S
C2047 C2053 1.363 . S
C2048 C2049 1.363 . S
C2048 C2053 1.379 . S
C2048 N2055 1.356 . S
C2049 C2048 1.363 . S
C2049 C2052 1.363 . S
N2050 C2052 1.356 . S
N2050 H2062 0.984 . S
N2050 H2063 0.985 . S
N2051 C2053 1.356 . S
N2051 H2056 0.984 . S
N2051 H2057 0.985 . S
C2052 C2046 1.379 . S
C2052 C2049 1.363 . S
C2052 N2050 1.356 . S
C2053 C2047 1.363 . S
C2053 C2048 1.379 . S
C2053 N2051 1.356 . S
N2054 C2046 1.356 . S
N2054 H2060 0.984 . S
N2054 H2061 0.984 . S
N2055 C2048 1.356 . S
N2055 H2058 0.984 . S
N2055 H2059 0.985 . S
H2056 N2051 0.984 . S
H2057 N2051 0.985 . S
H2058 N2055 0.984 . S
H2059 N2055 0.985 . S
H2060 N2054 0.984 . S
H2061 N2054 0.984 . S
H2062 N2050 0.984 . S
H2063 N2050 0.985 . S
C2064 C2065 1.363 . S
C2064 C2070 1.379 . S
C2064 N2072 1.356 . S
C2065 C2064 1.363 . S
C2065 C2071 1.363 . S
C2066 C2067 1.363 . S
C2066 C2071 1.379 . S
C2066 N2073 1.356 . S
C2067 C2066 1.363 . S
C2067 C2070 1.363 . S
N2068 C2070 1.356 . S
N2068 H2080 0.984 . S
N2068 H2081 0.985 . S
N2069 C2071 1.356 . S
N2069 H2074 0.984 . S
N2069 H2075 0.985 . S
C2070 C2064 1.379 . S
C2070 C2067 1.363 . S
C2070 N2068 1.356 . S
C2071 C2065 1.363 . S
C2071 C2066 1.379 . S
C2071 N2069 1.356 . S
N2072 C2064 1.356 . S
N2072 H2078 0.984 . S
N2072 H2079 0.984 . S
N2073 C2066 1.356 . S
N2073 H2076 0.984 . S
N2073 H2077 0.985 . S
H2074 N2069 0.984 . S
H2075 N2069 0.985 . S
H2076 N2073 0.984 . S
H2077 N2073 0.985 . S
H2078 N2072 0.984 . S
H2079 N2072 0.984 . S
H2080 N2068 0.984 . S
H2081 N2068 0.985 . S
C2082 C2083 1.363 . S
C2082 C2088 1.379 . S
C2082 N2090 1.356 . S
C2083 C2082 1.363 . S
C2083 C2089 1.363 . S
C2084 C2085 1.363 . S
C2084 C2089 1.379 . S
C2084 N2091 1.356 . S
C2085 C2084 1.363 . S
C2085 C2088 1.363 . S
N2086 C2088 1.356 . S
N2086 H2098 0.984 . S
N2086 H2099 0.985 . S
N2087 C2089 1.356 . S
N2087 H2092 0.984 . S
N2087 H2093 0.985 . S
C2088 C2082 1.379 . S
C2088 C2085 1.363 . S
C2088 N2086 1.356 . S
C2089 C2083 1.363 . S
C2089 C2084 1.379 . S
C2089 N2087 1.356 . S
N2090 C2082 1.356 . S
N2090 H2096 0.984 . S
N2090 H2097 0.984 . S
N2091 C2084 1.356 . S
N2091 H2094 0.984 . S
N2091 H2095 0.985 . S
H2092 N2087 0.984 . S
H2093 N2087 0.985 . S
H2094 N2091 0.984 . S
H2095 N2091 0.985 . S
H2096 N2090 0.984 . S
H2097 N2090 0.984 . S
H2098 N2086 0.984 . S
H2099 N2086 0.985 . S
C2100 C2101 1.363 . S
C2100 C2106 1.379 . S
C2100 N2108 1.356 . S
C2101 C2100 1.363 . S
C2101 C2107 1.363 . S
C2102 C2103 1.363 . S
C2102 C2107 1.379 . S
C2102 N2109 1.356 . S
C2103 C2102 1.363 . S
C2103 C2106 1.363 . S
N2104 C2106 1.356 . S
N2104 H2116 0.984 . S
N2104 H2117 0.985 . S
N2105 C2107 1.356 . S
N2105 H2110 0.984 . S
N2105 H2111 0.985 . S
C2106 C2100 1.379 . S
C2106 C2103 1.363 . S
C2106 N2104 1.356 . S
C2107 C2101 1.363 . S
C2107 C2102 1.379 . S
C2107 N2105 1.356 . S
N2108 C2100 1.356 . S
N2108 H2114 0.984 . S
N2108 H2115 0.984 . S
N2109 C2102 1.356 . S
N2109 H2112 0.984 . S
N2109 H2113 0.985 . S
H2110 N2105 0.984 . S
H2111 N2105 0.985 . S
H2112 N2109 0.984 . S
H2113 N2109 0.985 . S
H2114 N2108 0.984 . S
H2115 N2108 0.984 . S
H2116 N2104 0.984 . S
H2117 N2104 0.985 . S
C2118 C2119 1.363 . S
C2118 C2124 1.379 . S
C2118 N2126 1.356 . S
C2119 C2118 1.363 . S
C2119 C2125 1.363 . S
C2120 C2121 1.363 . S
C2120 C2125 1.379 . S
C2120 N2127 1.356 . S
C2121 C2120 1.363 . S
C2121 C2124 1.363 . S
N2122 C2124 1.356 . S
N2122 H2134 0.984 . S
N2122 H2135 0.985 . S
N2123 C2125 1.356 . S
N2123 H2128 0.984 . S
N2123 H2129 0.985 . S
C2124 C2118 1.379 . S
C2124 C2121 1.363 . S
C2124 N2122 1.356 . S
C2125 C2119 1.363 . S
C2125 C2120 1.379 . S
C2125 N2123 1.356 . S
N2126 C2118 1.356 . S
N2126 H2132 0.984 . S
N2126 H2133 0.984 . S
N2127 C2120 1.356 . S
N2127 H2130 0.984 . S
N2127 H2131 0.985 . S
H2128 N2123 0.984 . S
H2129 N2123 0.985 . S
H2130 N2127 0.984 . S
H2131 N2127 0.985 . S
H2132 N2126 0.984 . S
H2133 N2126 0.984 . S
H2134 N2122 0.984 . S
H2135 N2122 0.985 . S
C2136 C2137 1.363 . S
C2136 C2142 1.379 . S
C2136 N2144 1.356 . S
C2137 C2136 1.363 . S
C2137 C2143 1.363 . S
C2138 C2139 1.363 . S
C2138 C2143 1.379 . S
C2138 N2145 1.356 . S
C2139 C2138 1.363 . S
C2139 C2142 1.363 . S
N2140 C2142 1.356 . S
N2140 H2152 0.984 . S
N2140 H2153 0.985 . S
N2141 C2143 1.356 . S
N2141 H2146 0.984 . S
N2141 H2147 0.985 . S
C2142 C2136 1.379 . S
C2142 C2139 1.363 . S
C2142 N2140 1.356 . S
C2143 C2137 1.363 . S
C2143 C2138 1.379 . S
C2143 N2141 1.356 . S
N2144 C2136 1.356 . S
N2144 H2150 0.984 . S
N2144 H2151 0.984 . S
N2145 C2138 1.356 . S
N2145 H2148 0.984 . S
N2145 H2149 0.985 . S
H2146 N2141 0.984 . S
H2147 N2141 0.985 . S
H2148 N2145 0.984 . S
H2149 N2145 0.985 . S
H2150 N2144 0.984 . S
H2151 N2144 0.984 . S
H2152 N2140 0.984 . S
H2153 N2140 0.985 . S
C2154 C2155 1.363 . S
C2154 C2160 1.379 . S
C2154 N2162 1.356 . S
C2155 C2154 1.363 . S
C2155 C2161 1.363 . S
C2156 C2157 1.363 . S
C2156 C2161 1.379 . S
C2156 N2163 1.356 . S
C2157 C2156 1.363 . S
C2157 C2160 1.363 . S
N2158 C2160 1.356 . S
N2158 H2170 0.984 . S
N2158 H2171 0.985 . S
N2159 C2161 1.356 . S
N2159 H2164 0.984 . S
N2159 H2165 0.985 . S
C2160 C2154 1.379 . S
C2160 C2157 1.363 . S
C2160 N2158 1.356 . S
C2161 C2155 1.363 . S
C2161 C2156 1.379 . S
C2161 N2159 1.356 . S
N2162 C2154 1.356 . S
N2162 H2168 0.984 . S
N2162 H2169 0.984 . S
N2163 C2156 1.356 . S
N2163 H2166 0.984 . S
N2163 H2167 0.985 . S
H2164 N2159 0.984 . S
H2165 N2159 0.985 . S
H2166 N2163 0.984 . S
H2167 N2163 0.985 . S
H2168 N2162 0.984 . S
H2169 N2162 0.984 . S
H2170 N2158 0.984 . S
H2171 N2158 0.985 . S
C2172 C2173 1.363 . S
C2172 C2178 1.379 . S
C2172 N2180 1.356 . S
C2173 C2172 1.363 . S
C2173 C2179 1.363 . S
C2174 C2175 1.363 . S
C2174 C2179 1.379 . S
C2174 N2181 1.356 . S
C2175 C2174 1.363 . S
C2175 C2178 1.363 . S
N2176 C2178 1.356 . S
N2176 H2188 0.984 . S
N2176 H2189 0.985 . S
N2177 C2179 1.356 . S
N2177 H2182 0.984 . S
N2177 H2183 0.985 . S
C2178 C2172 1.379 . S
C2178 C2175 1.363 . S
C2178 N2176 1.356 . S
C2179 C2173 1.363 . S
C2179 C2174 1.379 . S
C2179 N2177 1.356 . S
N2180 C2172 1.356 . S
N2180 H2186 0.984 . S
N2180 H2187 0.984 . S
N2181 C2174 1.356 . S
N2181 H2184 0.984 . S
N2181 H2185 0.985 . S
H2182 N2177 0.984 . S
H2183 N2177 0.985 . S
H2184 N2181 0.984 . S
H2185 N2181 0.985 . S
H2186 N2180 0.984 . S
H2187 N2180 0.984 . S
H2188 N2176 0.984 . S
H2189 N2176 0.985 . S
C2190 C2191 1.363 . S
C2190 C2196 1.379 . S
C2190 N2198 1.356 . S
C2191 C2190 1.363 . S
C2191 C2197 1.363 . S
C2192 C2193 1.363 . S
C2192 C2197 1.379 . S
C2192 N2199 1.356 . S
C2193 C2192 1.363 . S
C2193 C2196 1.363 . S
N2194 C2196 1.356 . S
N2194 H2206 0.984 . S
N2194 H2207 0.985 . S
N2195 C2197 1.356 . S
N2195 H2200 0.984 . S
N2195 H2201 0.985 . S
C2196 C2190 1.379 . S
C2196 C2193 1.363 . S
C2196 N2194 1.356 . S
C2197 C2191 1.363 . S
C2197 C2192 1.379 . S
C2197 N2195 1.356 . S
N2198 C2190 1.356 . S
N2198 H2204 0.984 . S
N2198 H2205 0.984 . S
N2199 C2192 1.356 . S
N2199 H2202 0.984 . S
N2199 H2203 0.985 . S
H2200 N2195 0.984 . S
H2201 N2195 0.985 . S
H2202 N2199 0.984 . S
H2203 N2199 0.985 . S
H2204 N2198 0.984 . S
H2205 N2198 0.984 . S
H2206 N2194 0.984 . S
H2207 N2194 0.985 . S
C2208 C2209 1.363 . S
C2208 C2214 1.379 . S
C2208 N2216 1.356 . S
C2209 C2208 1.363 . S
C2209 C2215 1.363 . S
C2210 C2211 1.363 . S
C2210 C2215 1.379 . S
C2210 N2217 1.356 . S
C2211 C2210 1.363 . S
C2211 C2214 1.363 . S
N2212 C2214 1.356 . S
N2212 H2224 0.984 . S
N2212 H2225 0.985 . S
N2213 C2215 1.356 . S
N2213 H2218 0.984 . S
N2213 H2219 0.985 . S
C2214 C2208 1.379 . S
C2214 C2211 1.363 . S
C2214 N2212 1.356 . S
C2215 C2209 1.363 . S
C2215 C2210 1.379 . S
C2215 N2213 1.356 . S
N2216 C2208 1.356 . S
N2216 H2222 0.984 . S
N2216 H2223 0.984 . S
N2217 C2210 1.356 . S
N2217 H2220 0.984 . S
N2217 H2221 0.985 . S
H2218 N2213 0.984 . S
H2219 N2213 0.985 . S
H2220 N2217 0.984 . S
H2221 N2217 0.985 . S
H2222 N2216 0.984 . S
H2223 N2216 0.984 . S
H2224 N2212 0.984 . S
H2225 N2212 0.985 . S
C2226 C2227 1.363 . S
C2226 C2232 1.379 . S
C2226 N2234 1.356 . S
C2227 C2226 1.363 . S
C2227 C2233 1.363 . S
C2228 C2229 1.363 . S
C2228 C2233 1.379 . S
C2228 N2235 1.356 . S
C2229 C2228 1.363 . S
C2229 C2232 1.363 . S
N2230 C2232 1.356 . S
N2230 H2242 0.984 . S
N2230 H2243 0.985 . S
N2231 C2233 1.356 . S
N2231 H2236 0.984 . S
N2231 H2237 0.985 . S
C2232 C2226 1.379 . S
C2232 C2229 1.363 . S
C2232 N2230 1.356 . S
C2233 C2227 1.363 . S
C2233 C2228 1.379 . S
C2233 N2231 1.356 . S
N2234 C2226 1.356 . S
N2234 H2240 0.984 . S
N2234 H2241 0.984 . S
N2235 C2228 1.356 . S
N2235 H2238 0.984 . S
N2235 H2239 0.985 . S
H2236 N2231 0.984 . S
H2237 N2231 0.985 . S
H2238 N2235 0.984 . S
H2239 N2235 0.985 . S
H2240 N2234 0.984 . S
H2241 N2234 0.984 . S
H2242 N2230 0.984 . S
H2243 N2230 0.985 . S
C2244 C2245 1.363 . S
C2244 C2250 1.379 . S
C2244 N2252 1.356 . S
C2245 C2244 1.363 . S
C2245 C2251 1.363 . S
C2246 C2247 1.363 . S
C2246 C2251 1.379 . S
C2246 N2253 1.356 . S
C2247 C2246 1.363 . S
C2247 C2250 1.363 . S
N2248 C2250 1.356 . S
N2248 H2260 0.984 . S
N2248 H2261 0.985 . S
N2249 C2251 1.356 . S
N2249 H2254 0.984 . S
N2249 H2255 0.985 . S
C2250 C2244 1.379 . S
C2250 C2247 1.363 . S
C2250 N2248 1.356 . S
C2251 C2245 1.363 . S
C2251 C2246 1.379 . S
C2251 N2249 1.356 . S
N2252 C2244 1.356 . S
N2252 H2258 0.984 . S
N2252 H2259 0.984 . S
N2253 C2246 1.356 . S
N2253 H2256 0.984 . S
N2253 H2257 0.985 . S
H2254 N2249 0.984 . S
H2255 N2249 0.985 . S
H2256 N2253 0.984 . S
H2257 N2253 0.985 . S
H2258 N2252 0.984 . S
H2259 N2252 0.984 . S
H2260 N2248 0.984 . S
H2261 N2248 0.985 . S
C2262 C2263 1.363 . S
C2262 C2268 1.379 . S
C2262 N2270 1.356 . S
C2263 C2262 1.363 . S
C2263 C2269 1.363 . S
C2264 C2265 1.363 . S
C2264 C2269 1.379 . S
C2264 N2271 1.356 . S
C2265 C2264 1.363 . S
C2265 C2268 1.363 . S
N2266 C2268 1.356 . S
N2266 H2278 0.984 . S
N2266 H2279 0.985 . S
N2267 C2269 1.356 . S
N2267 H2272 0.984 . S
N2267 H2273 0.985 . S
C2268 C2262 1.379 . S
C2268 C2265 1.363 . S
C2268 N2266 1.356 . S
C2269 C2263 1.363 . S
C2269 C2264 1.379 . S
C2269 N2267 1.356 . S
N2270 C2262 1.356 . S
N2270 H2276 0.984 . S
N2270 H2277 0.984 . S
N2271 C2264 1.356 . S
N2271 H2274 0.984 . S
N2271 H2275 0.985 . S
H2272 N2267 0.984 . S
H2273 N2267 0.985 . S
H2274 N2271 0.984 . S
H2275 N2271 0.985 . S
H2276 N2270 0.984 . S
H2277 N2270 0.984 . S
H2278 N2266 0.984 . S
H2279 N2266 0.985 . S
C2280 C2281 1.363 . S
C2280 C2286 1.379 . S
C2280 N2288 1.356 . S
C2281 C2280 1.363 . S
C2281 C2287 1.363 . S
C2282 C2283 1.363 . S
C2282 C2287 1.379 . S
C2282 N2289 1.356 . S
C2283 C2282 1.363 . S
C2283 C2286 1.363 . S
N2284 C2286 1.356 . S
N2284 H2296 0.984 . S
N2284 H2297 0.985 . S
N2285 C2287 1.356 . S
N2285 H2290 0.984 . S
N2285 H2291 0.985 . S
C2286 C2280 1.379 . S
C2286 C2283 1.363 . S
C2286 N2284 1.356 . S
C2287 C2281 1.363 . S
C2287 C2282 1.379 . S
C2287 N2285 1.356 . S
N2288 C2280 1.356 . S
N2288 H2294 0.984 . S
N2288 H2295 0.984 . S
N2289 C2282 1.356 . S
N2289 H2292 0.984 . S
N2289 H2293 0.985 . S
H2290 N2285 0.984 . S
H2291 N2285 0.985 . S
H2292 N2289 0.984 . S
H2293 N2289 0.985 . S
H2294 N2288 0.984 . S
H2295 N2288 0.984 . S
H2296 N2284 0.984 . S
H2297 N2284 0.985 . S
C2298 C2299 1.363 . S
C2298 C2304 1.379 . S
C2298 N2306 1.356 . S
C2299 C2298 1.363 . S
C2299 C2305 1.363 . S
C2300 C2301 1.363 . S
C2300 C2305 1.379 . S
C2300 N2307 1.356 . S
C2301 C2300 1.363 . S
C2301 C2304 1.363 . S
N2302 C2304 1.356 . S
N2302 H2314 0.984 . S
N2302 H2315 0.985 . S
N2303 C2305 1.356 . S
N2303 H2308 0.984 . S
N2303 H2309 0.985 . S
C2304 C2298 1.379 . S
C2304 C2301 1.363 . S
C2304 N2302 1.356 . S
C2305 C2299 1.363 . S
C2305 C2300 1.379 . S
C2305 N2303 1.356 . S
N2306 C2298 1.356 . S
N2306 H2312 0.984 . S
N2306 H2313 0.984 . S
N2307 C2300 1.356 . S
N2307 H2310 0.984 . S
N2307 H2311 0.985 . S
H2308 N2303 0.984 . S
H2309 N2303 0.985 . S
H2310 N2307 0.984 . S
H2311 N2307 0.985 . S
H2312 N2306 0.984 . S
H2313 N2306 0.984 . S
H2314 N2302 0.984 . S
H2315 N2302 0.985 . S
C2316 C2317 1.363 . S
C2316 C2322 1.379 . S
C2316 N2324 1.356 . S
C2317 C2316 1.363 . S
C2317 C2323 1.363 . S
C2318 C2319 1.363 . S
C2318 C2323 1.379 . S
C2318 N2325 1.356 . S
C2319 C2318 1.363 . S
C2319 C2322 1.363 . S
N2320 C2322 1.356 . S
N2320 H2332 0.984 . S
N2320 H2333 0.985 . S
N2321 C2323 1.356 . S
N2321 H2326 0.984 . S
N2321 H2327 0.985 . S
C2322 C2316 1.379 . S
C2322 C2319 1.363 . S
C2322 N2320 1.356 . S
C2323 C2317 1.363 . S
C2323 C2318 1.379 . S
C2323 N2321 1.356 . S
N2324 C2316 1.356 . S
N2324 H2330 0.984 . S
N2324 H2331 0.984 . S
N2325 C2318 1.356 . S
N2325 H2328 0.984 . S
N2325 H2329 0.985 . S
H2326 N2321 0.984 . S
H2327 N2321 0.985 . S
H2328 N2325 0.984 . S
H2329 N2325 0.985 . S
H2330 N2324 0.984 . S
H2331 N2324 0.984 . S
H2332 N2320 0.984 . S
H2333 N2320 0.985 . S
C2334 C2335 1.363 . S
C2334 C2340 1.379 . S
C2334 N2342 1.356 . S
C2335 C2334 1.363 . S
C2335 C2341 1.363 . S
C2336 C2337 1.363 . S
C2336 C2341 1.379 . S
C2336 N2343 1.356 . S
C2337 C2336 1.363 . S
C2337 C2340 1.363 . S
N2338 C2340 1.356 . S
N2338 H2350 0.984 . S
N2338 H2351 0.985 . S
N2339 C2341 1.356 . S
N2339 H2344 0.984 . S
N2339 H2345 0.985 . S
C2340 C2334 1.379 . S
C2340 C2337 1.363 . S
C2340 N2338 1.356 . S
C2341 C2335 1.363 . S
C2341 C2336 1.379 . S
C2341 N2339 1.356 . S
N2342 C2334 1.356 . S
N2342 H2348 0.984 . S
N2342 H2349 0.984 . S
N2343 C2336 1.356 . S
N2343 H2346 0.984 . S
N2343 H2347 0.985 . S
H2344 N2339 0.984 . S
H2345 N2339 0.985 . S
H2346 N2343 0.984 . S
H2347 N2343 0.985 . S
H2348 N2342 0.984 . S
H2349 N2342 0.984 . S
H2350 N2338 0.984 . S
H2351 N2338 0.985 . S
C2352 C2353 1.363 . S
C2352 C2358 1.379 . S
C2352 N2360 1.356 . S
C2353 C2352 1.363 . S
C2353 C2359 1.363 . S
C2354 C2355 1.363 . S
C2354 C2359 1.379 . S
C2354 N2361 1.356 . S
C2355 C2354 1.363 . S
C2355 C2358 1.363 . S
N2356 C2358 1.356 . S
N2356 H2368 0.984 . S
N2356 H2369 0.985 . S
N2357 C2359 1.356 . S
N2357 H2362 0.984 . S
N2357 H2363 0.985 . S
C2358 C2352 1.379 . S
C2358 C2355 1.363 . S
C2358 N2356 1.356 . S
C2359 C2353 1.363 . S
C2359 C2354 1.379 . S
C2359 N2357 1.356 . S
N2360 C2352 1.356 . S
N2360 H2366 0.984 . S
N2360 H2367 0.984 . S
N2361 C2354 1.356 . S
N2361 H2364 0.984 . S
N2361 H2365 0.985 . S
H2362 N2357 0.984 . S
H2363 N2357 0.985 . S
H2364 N2361 0.984 . S
H2365 N2361 0.985 . S
H2366 N2360 0.984 . S
H2367 N2360 0.984 . S
H2368 N2356 0.984 . S
H2369 N2356 0.985 . S
C2370 C2371 1.363 . S
C2370 C2376 1.379 . S
C2370 N2378 1.356 . S
C2371 C2370 1.363 . S
C2371 C2377 1.363 . S
C2372 C2373 1.363 . S
C2372 C2377 1.379 . S
C2372 N2379 1.356 . S
C2373 C2372 1.363 . S
C2373 C2376 1.363 . S
N2374 C2376 1.356 . S
N2374 H2386 0.984 . S
N2374 H2387 0.985 . S
N2375 C2377 1.356 . S
N2375 H2380 0.984 . S
N2375 H2381 0.985 . S
C2376 C2370 1.379 . S
C2376 C2373 1.363 . S
C2376 N2374 1.356 . S
C2377 C2371 1.363 . S
C2377 C2372 1.379 . S
C2377 N2375 1.356 . S
N2378 C2370 1.356 . S
N2378 H2384 0.984 . S
N2378 H2385 0.984 . S
N2379 C2372 1.356 . S
N2379 H2382 0.984 . S
N2379 H2383 0.985 . S
H2380 N2375 0.984 . S
H2381 N2375 0.985 . S
H2382 N2379 0.984 . S
H2383 N2379 0.985 . S
H2384 N2378 0.984 . S
H2385 N2378 0.984 . S
H2386 N2374 0.984 . S
H2387 N2374 0.985 . S
C2388 C2389 1.363 . S
C2388 C2394 1.379 . S
C2388 N2396 1.356 . S
C2389 C2388 1.363 . S
C2389 C2395 1.363 . S
C2390 C2391 1.363 . S
C2390 C2395 1.379 . S
C2390 N2397 1.356 . S
C2391 C2390 1.363 . S
C2391 C2394 1.363 . S
N2392 C2394 1.356 . S
N2392 H2404 0.984 . S
N2392 H2405 0.985 . S
N2393 C2395 1.356 . S
N2393 H2398 0.984 . S
N2393 H2399 0.985 . S
C2394 C2388 1.379 . S
C2394 C2391 1.363 . S
C2394 N2392 1.356 . S
C2395 C2389 1.363 . S
C2395 C2390 1.379 . S
C2395 N2393 1.356 . S
N2396 C2388 1.356 . S
N2396 H2402 0.984 . S
N2396 H2403 0.984 . S
N2397 C2390 1.356 . S
N2397 H2400 0.984 . S
N2397 H2401 0.985 . S
H2398 N2393 0.984 . S
H2399 N2393 0.985 . S
H2400 N2397 0.984 . S
H2401 N2397 0.985 . S
H2402 N2396 0.984 . S
H2403 N2396 0.984 . S
H2404 N2392 0.984 . S
H2405 N2392 0.985 . S
C2406 C2407 1.363 . S
C2406 C2412 1.379 . S
C2406 N2414 1.356 . S
C2407 C2406 1.363 . S
C2407 C2413 1.363 . S
C2408 C2409 1.363 . S
C2408 C2413 1.379 . S
C2408 N2415 1.356 . S
C2409 C2408 1.363 . S
C2409 C2412 1.363 . S
N2410 C2412 1.356 . S
N2410 H2422 0.984 . S
N2410 H2423 0.985 . S
N2411 C2413 1.356 . S
N2411 H2416 0.984 . S
N2411 H2417 0.985 . S
C2412 C2406 1.379 . S
C2412 C2409 1.363 . S
C2412 N2410 1.356 . S
C2413 C2407 1.363 . S
C2413 C2408 1.379 . S
C2413 N2411 1.356 . S
N2414 C2406 1.356 . S
N2414 H2420 0.984 . S
N2414 H2421 0.984 . S
N2415 C2408 1.356 . S
N2415 H2418 0.984 . S
N2415 H2419 0.985 . S
H2416 N2411 0.984 . S
H2417 N2411 0.985 . S
H2418 N2415 0.984 . S
H2419 N2415 0.985 . S
H2420 N2414 0.984 . S
H2421 N2414 0.984 . S
H2422 N2410 0.984 . S
H2423 N2410 0.985 . S
C2424 C2425 1.363 . S
C2424 C2430 1.379 . S
C2424 N2432 1.356 . S
C2425 C2424 1.363 . S
C2425 C2431 1.363 . S
C2426 C2427 1.363 . S
C2426 C2431 1.379 . S
C2426 N2433 1.356 . S
C2427 C2426 1.363 . S
C2427 C2430 1.363 . S
N2428 C2430 1.356 . S
N2428 H2440 0.984 . S
N2428 H2441 0.985 . S
N2429 C2431 1.356 . S
N2429 H2434 0.984 . S
N2429 H2435 0.985 . S
C2430 C2424 1.379 . S
C2430 C2427 1.363 . S
C2430 N2428 1.356 . S
C2431 C2425 1.363 . S
C2431 C2426 1.379 . S
C2431 N2429 1.356 . S
N2432 C2424 1.356 . S
N2432 H2438 0.984 . S
N2432 H2439 0.984 . S
N2433 C2426 1.356 . S
N2433 H2436 0.984 . S
N2433 H2437 0.985 . S
H2434 N2429 0.984 . S
H2435 N2429 0.985 . S
H2436 N2433 0.984 . S
H2437 N2433 0.985 . S
H2438 N2432 0.984 . S
H2439 N2432 0.984 . S
H2440 N2428 0.984 . S
H2441 N2428 0.985 . S
C2442 C2443 1.363 . S
C2442 C2448 1.379 . S
C2442 N2450 1.356 . S
C2443 C2442 1.363 . S
C2443 C2449 1.363 . S
C2444 C2445 1.363 . S
C2444 C2449 1.379 . S
C2444 N2451 1.356 . S
C2445 C2444 1.363 . S
C2445 C2448 1.363 . S
N2446 C2448 1.356 . S
N2446 H2458 0.984 . S
N2446 H2459 0.985 . S
N2447 C2449 1.356 . S
N2447 H2452 0.984 . S
N2447 H2453 0.985 . S
C2448 C2442 1.379 . S
C2448 C2445 1.363 . S
C2448 N2446 1.356 . S
C2449 C2443 1.363 . S
C2449 C2444 1.379 . S
C2449 N2447 1.356 . S
N2450 C2442 1.356 . S
N2450 H2456 0.984 . S
N2450 H2457 0.984 . S
N2451 C2444 1.356 . S
N2451 H2454 0.984 . S
N2451 H2455 0.985 . S
H2452 N2447 0.984 . S
H2453 N2447 0.985 . S
H2454 N2451 0.984 . S
H2455 N2451 0.985 . S
H2456 N2450 0.984 . S
H2457 N2450 0.984 . S
H2458 N2446 0.984 . S
H2459 N2446 0.985 . S
C1167 C870 1.137 . S
C1165 C859 1.135 . S
C1183 C787 1.134 . S
C1185 C868 1.136 . S
C1203 C869 1.138 . S
C1201 C751 1.135 . S
C1219 C823 1.136 . S
C1221 C871 1.139 . S
C1239 C915 1.137 . S
C1237 C607 1.133 . S
C1257 C975 1.138 . S
C1255 C643 1.136 . S
C1273 C679 1.133 . S
C1275 C914 1.137 . S
C1293 C974 1.137 . S
C1291 C715 1.135 . S
C1309 C463 1.135 . S
C1311 C916 1.139 . S
C1329 C972 1.135 . S
C1327 C499 1.133 . S
C1345 C535 1.136 . S
C1347 C917 1.138 . S
C1363 C571 1.133 . S
C1365 C973 1.136 . S
C1383 C1023 1.138 . S
C1381 C427 1.133 1_554 S
C1399 C355 1.132 1_554 S
C1401 C1022 1.137 . S
C1417 C319 1.137 . S
C1419 C1024 1.137 . S
C1437 C1025 1.138 . S
C1435 C391 1.134 1_554 S
C1453 C175 1.133 1_455 S
C1455 C1066 1.137 . S
C1471 C211 1.136 . S
C1473 C1125 1.138 . S
C1489 C247 1.134 . S
C1491 C1064 1.136 . S
C1507 C283 1.135 1_545 S
C1509 C1124 1.137 . S
C1527 C1065 1.138 . S
C1525 C31 1.135 1_455 S
C1545 C1122 1.135 . S
C1543 C67 1.133 1_545 S
C1561 C103 1.137 . S
C1563 C1067 1.139 . S
C1581 C1123 1.136 . S
C1579 C139 1.134 . S
C1599 C867 2.076 . S
C1597 C25 1.859 1_455 S
C1615 C61 1.857 1_545 S
C1617 C873 2.074 . S
C1633 C97 1.861 . S
C1635 C865 2.076 . S
C1651 C133 1.858 . S
C1653 C872 2.075 . S
C1669 C169 1.859 1_455 S
C1671 C864 2.076 . S
C1689 C874 2.072 . S
C1687 C181 1.923 . S
C1705 C241 1.859 . S
C1707 C866 2.075 . S
C1725 C875 2.072 . S
C1723 C253 1.923 1_545 S
C1743 C921 2.072 . S
C1741 C109 1.923 . S
C1759 C1 1.924 1_455 S
C1761 C964 2.073 . S
C1779 C919 2.072 . S
C1777 C37 1.922 1_545 S
C1797 C966 2.074 . S
C1795 C73 1.925 . S
C1813 C205 1.858 . S
C1815 C920 2.074 . S
C1833 C965 2.072 . S
C1831 C217 1.924 . S
C1851 C918 2.074 . S
C1849 C277 1.858 1_545 S
C1869 C967 2.073 . S
C1867 C145 1.923 1_455 S
C1887 C971 2.074 . S
C1885 C289 1.925 . S
C1903 C325 1.923 1_554 S
C1905 C970 2.073 . S
C1923 C922 2.076 . S
C1921 C313 1.860 . S
C1941 C969 2.073 . S
C1939 C361 1.924 1_554 S
C1957 C397 1.924 1_554 S
C1959 C925 2.074 . S
C1975 C421 1.859 1_554 S
C1977 C968 2.076 . S
C1995 C924 2.076 . S
C1993 C349 1.859 1_554 S
C2013 C923 2.077 . S
C2011 C385 1.858 1_554 S
C2031 C1017 2.076 . S
C2029 C457 1.859 . S
C2049 C1020 2.074 . S
C2047 C493 1.857 . S
C2065 C529 1.860 . S
C2067 C1016 2.076 . S
C2085 C1018 2.074 . S
C2083 C565 1.858 . S
C2103 C1014 2.076 . S
C2101 C601 1.859 . S
C2119 C613 1.923 . S
C2121 C1019 2.072 . S
C2137 C673 1.859 . S
C2139 C1015 2.076 . S
C2157 C1021 2.072 . S
C2155 C685 1.923 . S
C2175 C1075 2.072 . S
C2173 C541 1.923 . S
C2191 C433 1.924 . S
C2193 C1114 2.073 . S
C2211 C1074 2.072 . S
C2209 C469 1.922 . S
C2229 C1116 2.074 . S
C2227 C505 1.925 . S
C2247 C1073 2.074 . S
C2245 C637 1.858 . S
C2263 C649 1.923 . S
C2265 C1115 2.073 . S
C2283 C1072 2.074 . S
C2281 C709 1.858 . S
C2301 C1117 2.073 . S
C2299 C577 1.923 . S
C2319 C1121 2.074 . S
C2317 C721 1.925 . S
C2335 C757 1.924 . S
C2337 C1120 2.073 . S
C2355 C1068 2.076 . S
C2353 C745 1.860 . S
C2371 C793 1.924 . S
C2373 C1119 2.073 . S
C2391 C1071 2.074 . S
C2389 C829 1.925 . S
C2409 C1118 2.076 . S
C2407 C853 1.859 . S
C2427 C1069 2.076 . S
C2425 C781 1.860 . S
C2443 C817 1.860 . S
C2445 C1070 2.077 . S
