# Generated by pormake.
# Topology rtl, (3,6)-cn, num edge types: 1
# Building blocks:
#     Node 0, Type 0, BuildingBlock: MIDCAF_clean_linker_0, # of connection points: 3
#     Node 1, Type 0, BuildingBlock: MIDCAF_clean_linker_0, # of connection points: 3
#     Node 2, Type 0, BuildingBlock: MIDCAF_clean_linker_0, # of connection points: 3
#     Node 3, Type 0, BuildingBlock: MIDCAF_clean_linker_0, # of connection points: 3
#     Node 4, Type 1, BuildingBlock: KUMBUR_clean_sbu_1, # of connection points: 6
#     Node 5, Type 1, BuildingBlock: KUMBUR_clean_sbu_1, # of connection points: 6
#     Edge 6, Type (0, 1), BuildingBlock: AJUNOK_clean_linker_0, # of connection points: 2
#     Edge 7, Type (0, 1), BuildingBlock: AJUNOK_clean_linker_0, # of connection points: 2
#     Edge 8, Type (0, 1), BuildingBlock: AJUNOK_clean_linker_0, # of connection points: 2
#     Edge 9, Type (0, 1), BuildingBlock: AJUNOK_clean_linker_0, # of connection points: 2
#     Edge 10, Type (0, 1), BuildingBlock: AJUNOK_clean_linker_0, # of connection points: 2
#     Edge 11, Type (0, 1), BuildingBlock: AJUNOK_clean_linker_0, # of connection points: 2
#     Edge 12, Type (0, 1), BuildingBlock: AJUNOK_clean_linker_0, # of connection points: 2
#     Edge 13, Type (0, 1), BuildingBlock: AJUNOK_clean_linker_0, # of connection points: 2
#     Edge 14, Type (0, 1), BuildingBlock: AJUNOK_clean_linker_0, # of connection points: 2
#     Edge 15, Type (0, 1), BuildingBlock: AJUNOK_clean_linker_0, # of connection points: 2
#     Edge 16, Type (0, 1), BuildingBlock: AJUNOK_clean_linker_0, # of connection points: 2
#     Edge 17, Type (0, 1), BuildingBlock: AJUNOK_clean_linker_0, # of connection points: 2
# Relax obj value: 0.018
# Max RMSD: 0.112
# Mean RMSD: 0.066
data_MOF--net-rtl--node1-KUMBUR_clean_sbu_1--node2-MIDCAF_clean_linker_0--edge1-AJUNOK_clean_linker_0
_symmetry_space_group_name_H-M    P1
_symmetry_Int_Tables_number       1
_symmetry_cell_setting            triclinic
loop_
_symmetry_equiv_pos_as_xyz
'x, y, z'
_cell_length_a     31.042316
_cell_length_b     31.89709
_cell_length_c     28.275469
_cell_angle_alpha  77.008271
_cell_angle_beta   99.31924
_cell_angle_gamma 91.507931
loop_
_atom_site_label
_atom_site_type_symbol
_atom_site_fract_x
_atom_site_fract_y
_atom_site_fract_z
_atom_type_partial_charge
C0 C 0.15306 0.91014 0.1329 0.0
C1 C 0.17068 0.89207 0.18195 0.0
C2 C 0.2053 0.86222 0.19192 0.0
C3 C 0.22191 0.85072 0.1533 0.0
H4 H 0.28942 0.74775 0.10708 0.0
H5 H 0.34157 0.69006 0.11149 0.0
H6 H 0.383 0.76132 0.97787 0.0
H7 H 0.32978 0.81768 0.97227 0.0
H8 H 0.22208 0.83642 0.89355 0.0
H9 H 0.18208 0.86367 0.81085 0.0
H10 H 0.12094 0.9611 0.86222 0.0
H11 H 0.16058 0.93399 0.94518 0.0
H12 H 0.15479 0.91346 0.05722 0.0
H13 H 0.12607 0.9329 0.12414 0.0
H14 H 0.21979 0.84817 0.22947 0.0
H15 H 0.24864 0.8277 0.16206 0.0
N16 N 0.25449 0.82842 0.07035 0.0
N17 N 0.25031 0.83669 0.98502 0.0
N18 N 0.20236 0.87513 0.01563 0.0
C19 C 0.26948 0.81844 0.03153 0.0
C20 C 0.21665 0.86496 0.97675 0.0
C21 C 0.221 0.85719 0.06249 0.0
C22 C 0.30509 0.78674 0.03888 0.0
C23 C 0.31006 0.75118 0.07903 0.0
C24 C 0.33988 0.71824 0.08155 0.0
C25 C 0.36545 0.72067 0.04425 0.0
C26 C 0.36259 0.75779 0.00615 0.0
C27 C 0.33236 0.7902 1.00315 0.0
C28 C 0.19439 0.88291 0.92607 0.0
C29 C 0.20033 0.86381 0.8873 0.0
C30 C 0.17731 0.87915 0.84005 0.0
C31 C 0.14831 0.91412 0.8306 0.0
C32 C 0.14316 0.93402 0.86883 0.0
C33 C 0.16575 0.91838 0.91624 0.0
C34 C 0.20413 0.86888 0.10408 0.0
C35 C 0.1695 0.89874 0.0945 0.0
C36 C 0.62952 0.59504 0.52303 0.0
C37 C 0.6417 0.61194 0.47682 0.0
C38 C 0.66733 0.64913 0.47064 0.0
C39 C 0.68125 0.66851 0.51009 0.0
H40 H 0.78739 0.73305 0.56985 0.0
H41 H 0.84097 0.78925 0.55574 0.0
H42 H 0.8002 0.84588 0.66657 0.0
H43 H 0.74693 0.78803 0.68225 0.0
H44 H 0.671 0.72025 0.75159 0.0
H45 H 0.63853 0.69176 0.82626 0.0
H46 H 0.62383 0.56799 0.78839 0.0
H47 H 0.65508 0.59608 0.71402 0.0
H48 H 0.6335 0.60037 0.59765 0.0
H49 H 0.60988 0.56631 0.5289 0.0
H50 H 0.67636 0.66349 0.43515 0.0
H51 H 0.70106 0.69709 0.50398 0.0
N52 N 0.71433 0.70365 0.59455 0.0
N53 N 0.71204 0.70964 0.67548 0.0
N54 N 0.6691 0.65849 0.64155 0.0
C55 C 0.72842 0.7227 0.63261 0.0
C56 C 0.68246 0.67713 0.68012 0.0
C57 C 0.68453 0.67177 0.59852 0.0
C58 C 0.76233 0.75636 0.62672 0.0
C59 C 0.7896 0.75744 0.59129 0.0
C60 C 0.82021 0.7899 0.58289 0.0
C61 C 0.82396 0.8228 0.60893 0.0
C62 C 0.79782 0.82111 0.64564 0.0
C63 C 0.76734 0.78806 0.65459 0.0
C64 C 0.66542 0.66049 0.7268 0.0
C65 C 0.661 0.68694 0.75944 0.0
C66 C 0.64228 0.6708 0.80187 0.0
C67 C 0.62867 0.6278 0.81269 0.0
C68 C 0.63409 0.60124 0.78074 0.0
C69 C 0.65186 0.61746 0.73812 0.0
C70 C 0.66948 0.65137 0.55655 0.0
C71 C 0.64321 0.61452 0.56245 0.0
C72 C 0.87019 0.11161 0.95293 0.0
C73 C 0.8478 0.13109 0.90612 0.0
C74 C 0.81328 0.15975 0.90246 0.0
C75 C 0.80141 0.16901 0.94449 0.0
H76 H 0.75689 0.27715 1.00407 0.0
H77 H 0.70441 0.33446 0.99759 0.0
H78 H 0.64358 0.25347 0.11228 0.0
H79 H 0.69874 0.19779 0.12145 0.0
H80 H 0.81408 0.17926 0.20557 0.0
H81 H 0.85266 0.15033 0.28818 0.0
H82 H 0.91037 0.05105 0.23653 0.0
H83 H 0.87197 0.08011 0.15296 0.0
H84 H 0.87602 0.10529 0.03086 0.0
H85 H 0.89665 0.08901 0.95677 0.0
H86 H 0.7957 0.17553 0.86684 0.0
H87 H 0.77466 0.19145 0.93984 0.0
N88 N 0.77869 0.19031 0.03011 0.0
N89 N 0.785 0.18049 0.11549 0.0
N90 N 0.83002 0.14083 0.08193 0.0
C91 C 0.76561 0.20022 0.06974 0.0
C92 C 0.81745 0.15101 0.12202 0.0
C93 C 0.81054 0.16034 0.03574 0.0
C94 C 0.7317 0.23327 0.06324 0.0
C95 C 0.73202 0.27167 0.02755 0.0
C96 C 0.70156 0.30427 0.02348 0.0
C97 C 0.6691 0.29843 0.05379 0.0
C98 C 0.66829 0.2593 0.08863 0.0
C99 C 0.69968 0.22732 0.0938 0.0
C100 C 0.83998 0.13206 0.17245 0.0
C101 C 0.83479 0.15115 0.21153 0.0
C102 C 0.857 0.13481 0.25886 0.0
C103 C 0.88455 0.09879 0.26834 0.0
C104 C 0.88921 0.07895 0.22984 0.0
C105 C 0.86738 0.09567 0.18214 0.0
C106 C 0.82368 0.14976 0.99151 0.0
C107 C 0.8582 0.1208 0.99529 0.0
C108 C 0.40676 0.40002 0.59456 0.0
C109 C 0.38464 0.38802 0.63518 0.0
C110 C 0.35321 0.35557 0.63509 0.0
C111 C 0.34275 0.33682 0.59467 0.0
H112 H 0.23682 0.28142 0.52451 0.0
H113 H 0.18116 0.22663 0.53533 0.0
H114 H 0.22944 0.16587 0.43196 0.0
H115 H 0.28422 0.22232 0.41935 0.0
H116 H 0.31433 0.33272 0.33102 0.0
H117 H 0.34447 0.36317 0.2557 0.0
H118 H 0.46337 0.39383 0.34271 0.0
H119 H 0.43324 0.36441 0.41801 0.0
H120 H 0.41308 0.39197 0.52267 0.0
H121 H 0.43176 0.42438 0.59394 0.0
H122 H 0.33536 0.34577 0.66561 0.0
H123 H 0.31751 0.31268 0.59579 0.0
N124 N 0.31602 0.30357 0.50883 0.0
N125 N 0.31935 0.30093 0.4273 0.0
N126 N 0.36717 0.34537 0.46719 0.0
C127 C 0.30106 0.2876 0.46871 0.0
C128 C 0.35244 0.32999 0.42628 0.0
C129 C 0.34905 0.33223 0.5087 0.0
C130 C 0.26506 0.25611 0.4712 0.0
C131 C 0.2353 0.25668 0.50359 0.0
C132 C 0.20346 0.22512 0.50998 0.0
C133 C 0.20083 0.19167 0.48473 0.0
C134 C 0.22995 0.19159 0.45134 0.0
C135 C 0.2615 0.22378 0.44427 0.0
C136 C 0.37137 0.34612 0.38059 0.0
C137 C 0.34701 0.34567 0.33415 0.0
C138 C 0.36409 0.36322 0.29106 0.0
C139 C 0.40619 0.3806 0.29364 0.0
C140 C 0.4309 0.38033 0.3399 0.0
C141 C 0.41355 0.36362 0.38291 0.0
C142 C 0.36336 0.35004 0.55299 0.0
C143 C 0.39617 0.3813 0.55382 0.0
Tb144 Tb 0.04365 0.95961 0.52609 0.0
C145 C 0.94947 0.13557 0.50326 0.0
N146 N 0.98638 0.12089 0.53511 0.0
C147 C 0.01918 0.19014 0.51451 0.0
C148 C 0.94609 0.17824 0.47537 0.0
C149 C 0.02098 0.14749 0.54139 0.0
C150 C 0.98161 0.20559 0.4813 0.0
C151 C 0.87672 0.12084 0.46485 0.0
C152 C 0.91536 0.10714 0.4979 0.0
C153 C 0.87321 0.1633 0.43671 0.0
C154 C 0.90778 0.19194 0.44201 0.0
Tb155 Tb 0.98654 0.05031 0.57523 0.0
N156 N 0.92041 0.06596 0.52505 0.0
C157 C 0.84268 0.09153 0.46138 0.0
C158 C 0.8862 0.03824 0.52406 0.0
C159 C 0.84725 0.05026 0.49162 0.0
H160 H 0.04975 0.13604 0.56772 0.0
H161 H 0.82053 0.02782 0.49045 0.0
H162 H 0.97774 0.87561 0.52958 0.0
H163 H 0.20551 0.97928 0.62329 0.0
H164 H 0.88796 0.00723 0.5488 0.0
H165 H 0.81243 0.10075 0.43639 0.0
H166 H 0.13902 0.00292 0.56425 0.0
H167 H 0.04675 0.21108 0.51952 0.0
H168 H 0.84385 0.17435 0.41089 0.0
H169 H 0.90463 0.22456 0.42 0.0
H170 H 0.97961 0.79937 0.57358 0.0
H171 H 0.98038 0.23859 0.4604 0.0
H172 H 0.2135 0.90371 0.67018 0.0
N173 N 0.04144 0.88863 0.5636 0.0
C174 C 0.07815 0.87242 0.5949 0.0
C175 C 0.0075 0.8196 0.58001 0.0
C176 C 0.08081 0.82897 0.62042 0.0
C177 C 0.00635 0.86296 0.55557 0.0
C178 C 0.04488 0.80251 0.61256 0.0
N179 N 0.10767 0.94236 0.57938 0.0
C180 C 0.14111 0.97033 0.58523 0.0
C181 C 0.15034 0.88498 0.63672 0.0
C182 C 0.11247 0.90011 0.60297 0.0
C183 C 0.18388 0.91403 0.64448 0.0
C184 C 0.17936 0.95678 0.6183 0.0
H185 H 0.04557 0.76896 0.63159 0.0
H186 H 0.12136 0.78035 0.67373 0.0
H187 H 0.18219 0.82938 0.68803 0.0
O188 O 0.08746 0.96931 0.4753 0.0
O189 O 0.04363 0.95015 0.60564 0.0
O190 O 0.04629 0.01872 0.61807 0.0
O191 O 0.042 0.91737 0.47829 0.0
O192 O 0.06753 0.02611 0.50816 0.0
O193 O 0.05659 0.0561 0.57258 0.0
O194 O 0.95002 0.03706 0.63336 0.0
O195 O 0.98593 0.05967 0.49563 0.0
O196 O 0.98468 0.99164 0.48053 0.0
O197 O 0.98987 0.09329 0.62234 0.0
O198 O 0.9618 0.98384 0.59119 0.0
O199 O 0.97342 0.95434 0.52646 0.0
C200 C 0.05152 0.97712 0.6348 0.0
C201 C 0.06113 0.94922 0.40116 0.0
C202 C 0.07876 0.94647 0.32102 0.0
C203 C 0.04247 0.97318 0.29833 0.0
C204 C 0.02499 0.97556 0.37779 0.0
C205 C 0.01569 0.98752 0.32666 0.0
C206 C 0.08798 0.93454 0.37268 0.0
C207 C 0.07465 0.05639 0.53339 0.0
C208 C 0.07165 0.93817 0.45509 0.0
C209 C 0.11873 0.81363 0.65367 0.0
C210 C 0.15336 0.84158 0.66188 0.0
C211 C 0.97686 0.03322 0.46604 0.0
C212 C 0.92655 0.09771 0.65724 0.0
C213 C 0.88614 0.11876 0.71557 0.0
C214 C 0.85908 0.14525 0.67605 0.0
C215 C 0.89936 0.12457 0.61846 0.0
C216 C 0.91988 0.09489 0.70584 0.0
C217 C 0.86577 0.14813 0.62784 0.0
C218 C 0.95395 0.95466 0.56446 0.0
C219 C 0.96172 0.07225 0.64773 0.0
H220 H 0.03463 0.98263 0.25862 0.0
H221 H 1.00419 0.9869 0.39917 0.0
H222 H 0.98772 0.00799 0.309 0.0
H223 H 0.11628 0.91454 0.3906 0.0
H224 H 0.83306 0.16417 0.68253 0.0
H225 H 0.90403 0.12747 0.58101 0.0
H226 H 0.9406 0.07386 0.73592 0.0
H227 H 0.84495 0.1688 0.59765 0.0
Tb228 Tb 0.46141 0.48773 1.00539 0.0
C229 C 0.65518 0.54356 0.0671 0.0
N230 N 0.63388 0.5093 0.09048 0.0
C231 C 0.69726 0.46465 0.10107 0.0
C232 C 0.69828 0.53945 0.05885 0.0
C233 C 0.65444 0.47032 0.1082 0.0
C234 C 0.71922 0.49931 0.07606 0.0
C235 C 0.65357 0.61873 0.02475 0.0
C236 C 0.63307 0.58263 0.05022 0.0
C237 C 0.69653 0.61485 0.01637 0.0
C238 C 0.71883 0.57531 0.03338 0.0
Tb239 Tb 0.56335 0.52154 0.09755 0.0
N240 N 0.59082 0.58462 0.0572 0.0
C241 C 0.63018 0.65754 0.00826 0.0
C242 C 0.56882 0.62307 0.04356 0.0
C243 C 0.58783 0.65982 0.01826 0.0
H244 H 0.63816 0.44389 0.12896 0.0
H245 H 0.56988 0.69 0.00683 0.0
H246 H 0.38034 0.54669 0.0197 0.0
H247 H 0.48476 0.31449 0.04162 0.0
H248 H 0.53699 0.62618 0.0526 0.0
H249 H 0.64471 0.68604 0.98848 0.0
H250 H 0.49757 0.38939 1.00232 0.0
H251 H 0.71336 0.43363 0.11508 0.0
H252 H 0.71276 0.6422 0.9967 0.0
H253 H 0.7519 0.57278 0.02654 0.0
H254 H 0.31343 0.53478 0.05781 0.0
H255 H 0.75235 0.49481 0.07045 0.0
H256 H 0.42541 0.29704 0.09135 0.0
N257 N 0.39866 0.48056 0.03876 0.0
C258 C 0.38782 0.43969 0.05922 0.0
C259 C 0.33418 0.5078 0.05865 0.0
C260 C 0.35031 0.43143 0.08188 0.0
C261 C 0.37207 0.51449 0.0372 0.0
C262 C 0.32341 0.46614 0.0814 0.0
N263 N 0.45114 0.41569 0.03601 0.0
C264 C 0.47388 0.38299 0.02688 0.0
C265 C 0.40547 0.36355 0.08005 0.0
C266 C 0.41547 0.40634 0.05879 0.0
C267 C 0.43197 0.33034 0.07556 0.0
C268 C 0.46568 0.34008 0.04783 0.0
H269 H 0.29426 0.46111 0.09841 0.0
H270 H 0.31273 0.38203 0.12268 0.0
H271 H 0.3608 0.32254 0.12072 0.0
O272 O 0.4504 0.46265 0.94041 0.0
O273 O 0.45652 0.48788 0.08242 0.0
O274 O 0.52398 0.46635 0.12551 0.0
O275 O 0.40867 0.51226 0.951 0.0
O276 O 0.52567 0.45752 0.01173 0.0
O277 O 0.55742 0.4542 0.09233 0.0
O278 O 0.55607 0.55589 0.15127 0.0
O279 O 0.57119 0.52888 0.02039 0.0
O280 O 0.50292 0.53916 0.97179 0.0
O281 O 0.60808 0.50978 0.16353 0.0
O282 O 0.5017 0.5582 0.08449 0.0
O283 O 0.46635 0.5556 0.00654 0.0
C284 C 0.48129 0.46608 0.12181 0.0
C285 C 0.3886 0.48949 0.87452 0.0
C286 C 0.37477 0.47401 0.79256 0.0
C287 C 0.33535 0.49739 0.78266 0.0
C288 C 0.34909 0.51289 0.86342 0.0
C289 C 0.32266 0.51662 0.81789 0.0
C290 C 0.40116 0.46955 0.83902 0.0
C291 C 0.554 0.44066 0.05115 0.0
C292 C 0.41665 0.48789 0.92245 0.0
C293 C 0.34116 0.38903 0.10463 0.0
C294 C 0.36869 0.35518 0.10375 0.0
C295 C 0.54556 0.54437 0.97871 0.0
C296 C 0.57919 0.51821 0.23278 0.0
C297 C 0.58382 0.52504 0.31763 0.0
C298 C 0.56119 0.48617 0.32829 0.0
C299 C 0.55762 0.47898 0.2444 0.0
C300 C 0.59229 0.54114 0.26949 0.0
C301 C 0.54831 0.46324 0.2918 0.0
C302 C 0.47278 0.57313 0.04488 0.0
C303 C 0.58826 0.53557 0.18268 0.0
H304 H 0.31403 0.50043 0.74768 0.0
H305 H 0.33853 0.5285 0.88994 0.0
H306 H 0.29223 0.53456 0.80984 0.0
H307 H 0.43159 0.45154 0.84697 0.0
H308 H 0.55429 0.47313 0.36507 0.0
H309 H 0.54833 0.46046 0.21694 0.0
H310 H 0.60896 0.57152 0.26057 0.0
H311 H 0.53146 0.43301 0.30039 0.0
C312 C 0.16393 0.13868 0.54482 0.0
C313 C 0.16914 0.15615 0.49567 0.0
C314 C 0.13354 0.10632 0.55665 0.0
C315 C 0.1074 0.08968 0.51989 0.0
H316 H 0.18365 0.15002 0.57461 0.0
H317 H 0.13068 0.0941 0.59498 0.0
S318 S 0.10716 0.12447 0.38556 0.0
N319 N 0.14445 0.1548 0.40984 0.0
N320 N 0.08834 0.0929 0.43235 0.0
C321 C 0.11256 0.10621 0.47069 0.0
C322 C 0.14316 0.13965 0.4585 0.0
C323 C 0.42114 0.66296 0.0862 0.0
C324 C 0.39329 0.68372 0.04351 0.0
C325 C 0.44713 0.62765 0.08614 0.0
C326 C 0.44618 0.61165 0.0434 0.0
H327 H 0.42302 0.6742 0.11988 0.0
H328 H 0.46781 0.61263 0.12009 0.0
S329 S 0.3776 0.65427 0.9221 0.0
N330 N 0.36513 0.68503 0.95777 0.0
N331 N 0.41478 0.61987 0.95695 0.0
C332 C 0.41852 0.63243 1.00031 0.0
C333 C 0.39189 0.66811 1.00056 0.0
C334 C 0.88382 0.87172 0.63502 0.0
C335 C 0.85508 0.85862 0.59723 0.0
C336 C 0.91527 0.90348 0.62423 0.0
C337 C 0.91932 0.92287 0.57532 0.0
H338 H 0.88276 0.85657 0.67314 0.0
H339 H 0.93736 0.91203 0.65432 0.0
S340 S 0.84862 0.90431 0.46325 0.0
N341 N 0.83004 0.87102 0.50902 0.0
N342 N 0.88985 0.92952 0.48904 0.0
C343 C 0.89001 0.91111 0.53734 0.0
C344 C 0.85772 0.87931 0.54822 0.0
C345 C 0.6276 0.34202 0.09517 0.0
C346 C 0.63782 0.33378 0.05135 0.0
C347 C 0.59972 0.37592 0.09451 0.0
C348 C 0.58176 0.40387 0.05014 0.0
H349 H 0.64185 0.3226 0.13055 0.0
H350 H 0.59262 0.38048 0.1293 0.0
S351 S 0.59547 0.39488 0.9248 0.0
N352 N 0.62459 0.35446 0.96188 0.0
N353 N 0.57469 0.42019 0.96093 0.0
C354 C 0.591 0.39575 0.00591 0.0
C355 C 0.61857 0.36043 0.00647 0.0
C356 C 0.14514 0.94875 0.21944 0.0
C357 C 0.15226 0.90486 0.22194 0.0
C358 C 0.12274 0.9619 0.25282 0.0
C359 C 0.10675 0.93169 0.29013 0.0
H360 H 0.1561 0.97313 0.19066 0.0
H361 H 0.11707 0.99599 0.2488 0.0
S362 S 0.11758 0.81305 0.31341 0.0
N363 N 0.14235 0.83121 0.26542 0.0
N364 N 0.10043 0.85608 0.32861 0.0
C365 C 0.11505 0.88779 0.29433 0.0
C366 C 0.13779 0.87434 0.26014 0.0
C367 C 0.62853 0.57475 0.89238 0.0
C368 C 0.60852 0.60986 0.85691 0.0
C369 C 0.60814 0.55425 0.93205 0.0
C370 C 0.56655 0.56751 0.93707 0.0
H371 H 0.65997 0.56274 0.88905 0.0
H372 H 0.62465 0.52711 0.95831 0.0
S373 S 0.50132 0.65912 0.85524 0.0
N374 N 0.54579 0.6582 0.83028 0.0
N375 N 0.507 0.61917 0.9045 0.0
C376 C 0.54653 0.60306 0.90233 0.0
C377 C 0.56768 0.62442 0.86237 0.0
C378 C 0.90272 0.04003 0.34376 0.0
C379 C 0.90872 0.08244 0.31842 0.0
C380 C 0.92457 0.02444 0.39175 0.0
C381 C 0.95363 0.05056 0.4157 0.0
H382 H 0.88055 0.01899 0.32658 0.0
H383 H 0.91871 0.99168 0.41018 0.0
S384 S 0.98272 0.16311 0.36342 0.0
N385 N 0.9465 0.14989 0.31974 0.0
N386 N 0.9886 0.1203 0.40938 0.0
C387 C 0.96023 0.09289 0.39037 0.0
C388 C 0.93759 0.10887 0.34181 0.0
C389 C 0.39443 0.38783 0.72527 0.0
C390 C 0.39111 0.41111 0.67608 0.0
C391 C 0.39241 0.4087 0.76367 0.0
C392 C 0.38671 0.45354 0.75414 0.0
H393 H 0.39679 0.35304 0.73388 0.0
H394 H 0.39268 0.38939 0.80051 0.0
S395 S 0.38109 0.52979 0.63308 0.0
N396 N 0.38525 0.48195 0.6209 0.0
N397 N 0.38222 0.52099 0.69309 0.0
C398 C 0.3863 0.47741 0.70577 0.0
C399 C 0.38838 0.45626 0.66674 0.0
C400 C 0.58376 0.57841 0.4249 0.0
C401 C 0.62754 0.5907 0.43527 0.0
C402 C 0.56979 0.55751 0.38655 0.0
C403 C 0.59904 0.54831 0.35703 0.0
H404 H 0.56003 0.58519 0.44645 0.0
H405 H 0.53578 0.54867 0.37977 0.0
S406 S 0.7176 0.57116 0.37085 0.0
N407 N 0.70044 0.59034 0.41421 0.0
N408 N 0.67401 0.55146 0.34183 0.0
C409 C 0.64288 0.56029 0.36702 0.0
C410 C 0.65717 0.58139 0.40618 0.0
C411 C 0.82707 0.11273 0.82412 0.0
C412 C 0.85991 0.12239 0.86052 0.0
C413 C 0.83627 0.10994 0.77807 0.0
C414 C 0.87869 0.11664 0.76659 0.0
H415 H 0.79371 0.1083 0.83092 0.0
H416 H 0.80974 0.1034 0.75079 0.0
S417 S 0.97653 0.1418 0.84932 0.0
N418 N 0.93677 0.13762 0.88246 0.0
N419 N 0.95413 0.13226 0.79571 0.0
C420 C 0.91222 0.12468 0.80323 0.0
C421 C 0.90282 0.12757 0.85024 0.0
C422 C 0.40397 0.43675 0.21544 0.0
C423 C 0.42412 0.40015 0.24822 0.0
C424 C 0.42236 0.45766 0.17425 0.0
C425 C 0.46112 0.44228 0.16398 0.0
H426 H 0.37452 0.45004 0.22253 0.0
H427 H 0.40665 0.48664 0.15093 0.0
S428 S 0.52371 0.34479 0.23568 0.0
N429 N 0.48333 0.34793 0.26632 0.0
N430 N 0.51693 0.38607 0.18789 0.0
C431 C 0.48048 0.40463 0.19543 0.0
C432 C 0.46221 0.38386 0.23779 0.0
C433 C 0.1255 0.97284 0.75643 0.0
C434 C 0.12299 0.92959 0.78098 0.0
C435 C 0.10184 0.98813 0.70932 0.0
C436 C 0.07464 0.9607 0.68532 0.0
H437 H 0.1464 0.99485 0.77352 0.0
H438 H 0.10549 0.02151 0.69135 0.0
S439 S 0.05333 0.84576 0.73653 0.0
N440 N 0.08945 0.86016 0.77951 0.0
N441 N 0.04403 0.88902 0.6914 0.0
C442 C 0.07099 0.91761 0.71015 0.0
C443 C 0.09544 0.90201 0.75788 0.0
loop_
_geom_bond_atom_site_label_1
_geom_bond_atom_site_label_2
_geom_bond_distance
_geom_bond_site_symmetry_2
_ccdc_geom_bond_type
C0 C1 1.384 . S
C0 H13 0.947 . S
C0 C35 1.382 . S
C1 C0 1.384 . S
C1 C2 1.378 . S
C2 C1 1.378 . S
C2 C3 1.378 . S
C2 H14 0.952 . S
C3 C2 1.378 . S
C3 H15 0.950 . S
C3 C34 1.383 . S
H4 C23 0.947 . S
H5 C24 0.946 . S
H6 C26 0.953 . S
H7 C27 0.945 . S
H8 C29 0.952 . S
H9 C30 0.949 . S
H10 C32 0.950 . S
H11 C33 0.948 . S
H12 C35 0.951 . S
H13 C0 0.947 . S
H14 C2 0.952 . S
H15 C3 0.950 . S
N16 C19 1.382 . S
N16 C21 1.363 . S
N17 C19 1.371 1_556 S
N17 C20 1.372 . S
N18 C20 1.361 1_554 S
N18 C21 1.377 . S
C19 N16 1.382 . S
C19 N17 1.371 1_554 S
C19 C22 1.480 . S
C20 N17 1.372 . S
C20 N18 1.361 1_556 S
C20 C28 1.457 . S
C21 N16 1.363 . S
C21 N18 1.377 . S
C21 C34 1.479 . S
C22 C19 1.480 . S
C22 C23 1.383 . S
C22 C27 1.385 1_554 S
C23 H4 0.947 . S
C23 C22 1.383 . S
C23 C24 1.388 . S
C24 H5 0.946 . S
C24 C23 1.388 . S
C24 C25 1.384 . S
C25 C24 1.384 . S
C25 C26 1.377 1_554 S
C26 H6 0.953 . S
C26 C25 1.377 1_556 S
C26 C27 1.369 . S
C27 H7 0.945 . S
C27 C22 1.385 1_556 S
C27 C26 1.369 . S
C28 C20 1.457 . S
C28 C29 1.372 . S
C28 C33 1.364 . S
C29 H8 0.952 . S
C29 C28 1.372 . S
C29 C30 1.389 . S
C30 H9 0.949 . S
C30 C29 1.389 . S
C30 C31 1.387 . S
C31 C30 1.387 . S
C31 C32 1.372 . S
C32 H10 0.950 . S
C32 C31 1.372 . S
C32 C33 1.379 . S
C33 H11 0.948 . S
C33 C28 1.364 . S
C33 C32 1.379 . S
C34 C3 1.383 . S
C34 C21 1.479 . S
C34 C35 1.398 . S
C35 C0 1.382 . S
C35 H12 0.951 . S
C35 C34 1.398 . S
C36 C37 1.384 . S
C36 H49 0.947 . S
C36 C71 1.382 . S
C37 C36 1.384 . S
C37 C38 1.378 . S
C38 C37 1.378 . S
C38 C39 1.378 . S
C38 H50 0.952 . S
C39 C38 1.378 . S
C39 H51 0.950 . S
C39 C70 1.383 . S
H40 C59 0.947 . S
H41 C60 0.946 . S
H42 C62 0.953 . S
H43 C63 0.945 . S
H44 C65 0.952 . S
H45 C66 0.949 . S
H46 C68 0.950 . S
H47 C69 0.948 . S
H48 C71 0.951 . S
H49 C36 0.947 . S
H50 C38 0.952 . S
H51 C39 0.950 . S
N52 C55 1.382 . S
N52 C57 1.363 . S
N53 C55 1.371 . S
N53 C56 1.372 . S
N54 C56 1.361 . S
N54 C57 1.377 . S
C55 N52 1.382 . S
C55 N53 1.371 . S
C55 C58 1.480 . S
C56 N53 1.372 . S
C56 N54 1.361 . S
C56 C64 1.457 . S
C57 N52 1.363 . S
C57 N54 1.377 . S
C57 C70 1.479 . S
C58 C55 1.480 . S
C58 C59 1.383 . S
C58 C63 1.385 . S
C59 H40 0.947 . S
C59 C58 1.383 . S
C59 C60 1.388 . S
C60 H41 0.946 . S
C60 C59 1.388 . S
C60 C61 1.384 . S
C61 C60 1.384 . S
C61 C62 1.377 . S
C62 H42 0.953 . S
C62 C61 1.377 . S
C62 C63 1.369 . S
C63 H43 0.945 . S
C63 C58 1.385 . S
C63 C62 1.369 . S
C64 C56 1.457 . S
C64 C65 1.372 . S
C64 C69 1.364 . S
C65 H44 0.952 . S
C65 C64 1.372 . S
C65 C66 1.389 . S
C66 H45 0.949 . S
C66 C65 1.389 . S
C66 C67 1.387 . S
C67 C66 1.387 . S
C67 C68 1.372 . S
C68 H46 0.950 . S
C68 C67 1.372 . S
C68 C69 1.379 . S
C69 H47 0.948 . S
C69 C64 1.364 . S
C69 C68 1.379 . S
C70 C39 1.383 . S
C70 C57 1.479 . S
C70 C71 1.398 . S
C71 C36 1.382 . S
C71 H48 0.951 . S
C71 C70 1.398 . S
C72 C73 1.384 . S
C72 H85 0.947 . S
C72 C107 1.382 . S
C73 C72 1.384 . S
C73 C74 1.378 . S
C74 C73 1.378 . S
C74 C75 1.378 . S
C74 H86 0.952 . S
C75 C74 1.378 . S
C75 H87 0.950 . S
C75 C106 1.383 . S
H76 C95 0.947 1_556 S
H77 C96 0.946 1_556 S
H78 C98 0.953 . S
H79 C99 0.945 . S
H80 C101 0.952 . S
H81 C102 0.949 . S
H82 C104 0.950 . S
H83 C105 0.948 . S
H84 C107 0.951 1_554 S
H85 C72 0.947 . S
H86 C74 0.952 . S
H87 C75 0.950 . S
N88 C91 1.382 . S
N88 C93 1.363 . S
N89 C91 1.371 . S
N89 C92 1.372 . S
N90 C92 1.361 . S
N90 C93 1.377 . S
C91 N88 1.382 . S
C91 N89 1.371 . S
C91 C94 1.480 . S
C92 N89 1.372 . S
C92 N90 1.361 . S
C92 C100 1.457 . S
C93 N88 1.363 . S
C93 N90 1.377 . S
C93 C106 1.479 1_554 S
C94 C91 1.480 . S
C94 C95 1.383 . S
C94 C99 1.385 . S
C95 H76 0.947 1_554 S
C95 C94 1.383 . S
C95 C96 1.388 . S
C96 H77 0.946 1_554 S
C96 C95 1.388 . S
C96 C97 1.384 . S
C97 C96 1.384 . S
C97 C98 1.377 . S
C98 H78 0.953 . S
C98 C97 1.377 . S
C98 C99 1.369 . S
C99 H79 0.945 . S
C99 C94 1.385 . S
C99 C98 1.369 . S
C100 C92 1.457 . S
C100 C101 1.372 . S
C100 C105 1.364 . S
C101 H80 0.952 . S
C101 C100 1.372 . S
C101 C102 1.389 . S
C102 H81 0.949 . S
C102 C101 1.389 . S
C102 C103 1.387 . S
C103 C102 1.387 . S
C103 C104 1.372 . S
C104 H82 0.950 . S
C104 C103 1.372 . S
C104 C105 1.379 . S
C105 H83 0.948 . S
C105 C100 1.364 . S
C105 C104 1.379 . S
C106 C75 1.383 . S
C106 C93 1.479 1_556 S
C106 C107 1.398 . S
C107 C72 1.382 . S
C107 H84 0.951 1_556 S
C107 C106 1.398 . S
C108 C109 1.384 . S
C108 H121 0.947 . S
C108 C143 1.382 . S
C109 C108 1.384 . S
C109 C110 1.378 . S
C110 C109 1.378 . S
C110 C111 1.378 . S
C110 H122 0.952 . S
C111 C110 1.378 . S
C111 H123 0.950 . S
C111 C142 1.383 . S
H112 C131 0.947 . S
H113 C132 0.946 . S
H114 C134 0.953 . S
H115 C135 0.945 . S
H116 C137 0.952 . S
H117 C138 0.949 . S
H118 C140 0.950 . S
H119 C141 0.948 . S
H120 C143 0.951 . S
H121 C108 0.947 . S
H122 C110 0.952 . S
H123 C111 0.950 . S
N124 C127 1.382 . S
N124 C129 1.363 . S
N125 C127 1.371 . S
N125 C128 1.372 . S
N126 C128 1.361 . S
N126 C129 1.377 . S
C127 N124 1.382 . S
C127 N125 1.371 . S
C127 C130 1.480 . S
C128 N125 1.372 . S
C128 N126 1.361 . S
C128 C136 1.457 . S
C129 N124 1.363 . S
C129 N126 1.377 . S
C129 C142 1.479 . S
C130 C127 1.480 . S
C130 C131 1.383 . S
C130 C135 1.385 . S
C131 H112 0.947 . S
C131 C130 1.383 . S
C131 C132 1.388 . S
C132 H113 0.946 . S
C132 C131 1.388 . S
C132 C133 1.384 . S
C133 C132 1.384 . S
C133 C134 1.377 . S
C134 H114 0.953 . S
C134 C133 1.377 . S
C134 C135 1.369 . S
C135 H115 0.945 . S
C135 C130 1.385 . S
C135 C134 1.369 . S
C136 C128 1.457 . S
C136 C137 1.372 . S
C136 C141 1.364 . S
C137 H116 0.952 . S
C137 C136 1.372 . S
C137 C138 1.389 . S
C138 H117 0.949 . S
C138 C137 1.389 . S
C138 C139 1.387 . S
C139 C138 1.387 . S
C139 C140 1.372 . S
C140 H118 0.950 . S
C140 C139 1.372 . S
C140 C141 1.379 . S
C141 H119 0.948 . S
C141 C136 1.364 . S
C141 C140 1.379 . S
C142 C111 1.383 . S
C142 C129 1.479 . S
C142 C143 1.398 . S
C143 C108 1.382 . S
C143 H120 0.951 . S
C143 C142 1.398 . S
Tb144 N173 2.617 . S
Tb144 N179 2.572 . S
Tb144 O188 2.465 . S
Tb144 O189 2.387 . S
Tb144 O191 2.428 . S
Tb144 O192 2.308 1_565 S
Tb144 O196 2.346 1_465 S
Tb144 O199 2.393 1_455 S
Tb144 C208 2.802 . S
C145 N146 1.379 . S
C145 C148 1.416 . S
C145 C152 1.424 . S
N146 C145 1.379 . S
N146 C149 1.334 . S
N146 Tb155 2.617 . S
C147 C149 1.390 . S
C147 C150 1.339 . S
C147 H167 0.930 1_655 S
C148 C145 1.416 . S
C148 C150 1.416 . S
C148 C154 1.448 . S
C149 N146 1.334 . S
C149 C147 1.390 . S
C149 H160 0.930 1_655 S
C150 C147 1.339 . S
C150 C148 1.416 . S
C150 H171 0.930 . S
C151 C152 1.413 . S
C151 C153 1.427 . S
C151 C157 1.416 . S
C152 C145 1.424 . S
C152 C151 1.413 . S
C152 N156 1.361 . S
C153 C151 1.427 . S
C153 C154 1.328 . S
C153 H168 0.929 . S
C154 C148 1.448 . S
C154 C153 1.328 . S
C154 H169 0.930 . S
Tb155 N146 2.617 . S
Tb155 N156 2.572 . S
Tb155 O190 2.349 1_655 S
Tb155 O193 2.393 1_655 S
Tb155 O194 2.465 . S
Tb155 O195 2.387 . S
Tb155 O197 2.428 . S
Tb155 O198 2.308 1_545 S
Tb155 C219 2.802 . S
N156 C152 1.361 . S
N156 Tb155 2.572 . S
N156 C158 1.340 . S
C157 C151 1.416 . S
C157 C159 1.332 . S
C157 H165 0.931 . S
C158 N156 1.340 . S
C158 C159 1.407 . S
C158 H164 0.930 . S
C159 C157 1.332 . S
C159 C158 1.407 . S
C159 H161 0.929 . S
H160 C149 0.930 1_455 S
H161 C159 0.929 . S
H162 C177 0.930 1_655 S
H163 C184 0.929 . S
H164 C158 0.930 . S
H165 C157 0.931 . S
H166 C180 0.930 . S
H167 C147 0.930 1_455 S
H168 C153 0.929 . S
H169 C154 0.930 . S
H170 C175 0.930 1_655 S
H171 C150 0.930 . S
H172 C183 0.931 . S
N173 Tb144 2.617 . S
N173 C174 1.379 . S
N173 C177 1.334 . S
C174 N173 1.379 . S
C174 C176 1.416 . S
C174 C182 1.424 . S
C175 H170 0.930 1_455 S
C175 C177 1.390 . S
C175 C178 1.339 . S
C176 C174 1.416 . S
C176 C178 1.416 . S
C176 C209 1.448 . S
C177 H162 0.930 1_455 S
C177 N173 1.334 . S
C177 C175 1.390 . S
C178 C175 1.339 . S
C178 C176 1.416 . S
C178 H185 0.930 . S
N179 Tb144 2.572 . S
N179 C180 1.340 . S
N179 C182 1.361 . S
C180 H166 0.930 . S
C180 N179 1.340 . S
C180 C184 1.407 . S
C181 C182 1.413 . S
C181 C183 1.416 . S
C181 C210 1.427 . S
C182 C174 1.424 . S
C182 N179 1.361 . S
C182 C181 1.413 . S
C183 H172 0.931 . S
C183 C181 1.416 . S
C183 C184 1.332 . S
C184 H163 0.929 . S
C184 C180 1.407 . S
C184 C183 1.332 . S
H185 C178 0.930 . S
H186 C209 0.930 . S
H187 C210 0.929 . S
O188 Tb144 2.465 . S
O188 C208 1.264 . S
O189 Tb144 2.387 . S
O189 C200 1.264 . S
O190 Tb155 2.349 1_455 S
O190 C200 1.243 1_545 S
O191 Tb144 2.428 . S
O191 C208 1.256 . S
O192 Tb144 2.308 1_545 S
O192 C207 1.266 . S
O193 Tb155 2.393 1_455 S
O193 C207 1.248 . S
O194 Tb155 2.465 . S
O194 C219 1.264 . S
O195 Tb155 2.387 . S
O195 C211 1.264 . S
O196 Tb144 2.346 1_645 S
O196 C211 1.249 . S
O197 Tb155 2.428 . S
O197 C219 1.256 . S
O198 Tb155 2.308 1_565 S
O198 C218 1.266 . S
O199 Tb144 2.393 1_655 S
O199 C218 1.248 . S
C200 O189 1.264 . S
C200 O190 1.243 1_565 S
C201 C204 1.399 . S
C201 C206 1.383 . S
C201 C208 1.496 . S
C202 C203 1.399 . S
C202 C206 1.389 . S
C203 C202 1.399 . S
C203 C205 1.380 . S
C203 H220 0.929 . S
C204 C201 1.399 . S
C204 C205 1.392 . S
C204 H221 0.929 . S
C205 C203 1.380 . S
C205 C204 1.392 . S
C205 H222 0.929 . S
C206 C201 1.383 . S
C206 C202 1.389 . S
C206 H223 0.931 . S
C207 O192 1.266 . S
C207 O193 1.248 . S
C208 Tb144 2.802 . S
C208 O188 1.264 . S
C208 O191 1.256 . S
C208 C201 1.496 . S
C209 C176 1.448 . S
C209 H186 0.930 . S
C209 C210 1.328 . S
C210 C181 1.427 . S
C210 H187 0.929 . S
C210 C209 1.328 . S
C211 O195 1.264 . S
C211 O196 1.249 . S
C212 C215 1.399 . S
C212 C216 1.383 . S
C212 C219 1.496 . S
C213 C214 1.399 . S
C213 C216 1.389 . S
C214 C213 1.399 . S
C214 C217 1.380 . S
C214 H224 0.929 . S
C215 C212 1.399 . S
C215 C217 1.392 . S
C215 H225 0.929 . S
C216 C212 1.383 . S
C216 C213 1.389 . S
C216 H226 0.931 . S
C217 C214 1.380 . S
C217 C215 1.392 . S
C217 H227 0.929 . S
C218 O198 1.266 . S
C218 O199 1.248 . S
C219 Tb155 2.802 . S
C219 O194 1.264 . S
C219 O197 1.256 . S
C219 C212 1.496 . S
H220 C203 0.929 . S
H221 C204 0.929 . S
H222 C205 0.929 . S
H223 C206 0.931 . S
H224 C214 0.929 . S
H225 C215 0.929 . S
H226 C216 0.931 . S
H227 C217 0.929 . S
Tb228 N257 2.617 1_556 S
Tb228 N263 2.572 1_556 S
Tb228 O272 2.465 . S
Tb228 O273 2.387 1_556 S
Tb228 O275 2.428 . S
Tb228 O276 2.308 1_556 S
Tb228 O280 2.349 . S
Tb228 O283 2.393 1_556 S
Tb228 C292 2.802 . S
C229 N230 1.379 . S
C229 C232 1.416 . S
C229 C236 1.424 . S
N230 C229 1.379 . S
N230 C233 1.334 . S
N230 Tb239 2.617 . S
C231 C233 1.390 . S
C231 C234 1.339 . S
C231 H251 0.930 . S
C232 C229 1.416 . S
C232 C234 1.416 . S
C232 C238 1.448 . S
C233 N230 1.334 . S
C233 C231 1.390 . S
C233 H244 0.930 . S
C234 C231 1.339 . S
C234 C232 1.416 . S
C234 H255 0.930 . S
C235 C236 1.413 . S
C235 C237 1.427 . S
C235 C241 1.416 . S
C236 C229 1.424 . S
C236 C235 1.413 . S
C236 N240 1.361 . S
C237 C235 1.427 . S
C237 C238 1.328 . S
C237 H252 0.929 . S
C238 C232 1.448 . S
C238 C237 1.328 . S
C238 H253 0.930 . S
Tb239 N230 2.617 . S
Tb239 N240 2.572 . S
Tb239 O274 2.349 . S
Tb239 O277 2.393 . S
Tb239 O278 2.465 . S
Tb239 O279 2.387 . S
Tb239 O281 2.428 . S
Tb239 O282 2.308 . S
Tb239 C303 2.802 . S
N240 C236 1.361 . S
N240 Tb239 2.572 . S
N240 C242 1.340 . S
C241 C235 1.416 . S
C241 C243 1.332 . S
C241 H249 0.931 . S
C242 N240 1.340 . S
C242 C243 1.407 . S
C242 H248 0.930 . S
C243 C241 1.332 . S
C243 C242 1.407 . S
C243 H245 0.929 . S
H244 C233 0.930 . S
H245 C243 0.929 . S
H246 C261 0.930 . S
H247 C268 0.929 . S
H248 C242 0.930 . S
H249 C241 0.931 . S
H250 C264 0.930 . S
H251 C231 0.930 . S
H252 C237 0.929 . S
H253 C238 0.930 . S
H254 C259 0.930 . S
H255 C234 0.930 . S
H256 C267 0.931 . S
N257 Tb228 2.617 1_554 S
N257 C258 1.380 . S
N257 C261 1.335 1_554 S
C258 N257 1.380 . S
C258 C260 1.416 . S
C258 C266 1.424 . S
C259 H254 0.930 . S
C259 C261 1.390 . S
C259 C262 1.339 1_556 S
C260 C258 1.416 . S
C260 C262 1.416 . S
C260 C293 1.448 . S
C261 H246 0.930 . S
C261 N257 1.335 1_556 S
C261 C259 1.390 . S
C262 C259 1.339 1_554 S
C262 C260 1.416 . S
C262 H269 0.930 . S
N263 Tb228 2.572 1_554 S
N263 C264 1.340 . S
N263 C266 1.361 . S
C264 H250 0.930 . S
C264 N263 1.340 . S
C264 C268 1.407 . S
C265 C266 1.413 . S
C265 C267 1.416 . S
C265 C294 1.427 . S
C266 C258 1.424 . S
C266 N263 1.361 . S
C266 C265 1.413 . S
C267 H256 0.931 . S
C267 C265 1.416 . S
C267 C268 1.332 . S
C268 H247 0.929 . S
C268 C264 1.407 . S
C268 C267 1.332 . S
H269 C262 0.930 . S
H270 C293 0.930 . S
H271 C294 0.929 . S
O272 Tb228 2.465 . S
O272 C292 1.264 . S
O273 Tb228 2.387 1_554 S
O273 C284 1.264 . S
O274 Tb239 2.349 . S
O274 C284 1.243 . S
O275 Tb228 2.428 . S
O275 C292 1.256 . S
O276 Tb228 2.308 1_554 S
O276 C291 1.266 . S
O277 Tb239 2.393 . S
O277 C291 1.248 . S
O278 Tb239 2.465 . S
O278 C303 1.264 . S
O279 Tb239 2.387 . S
O279 C295 1.264 1_554 S
O280 Tb228 2.349 . S
O280 C295 1.243 . S
O281 Tb239 2.428 . S
O281 C303 1.256 . S
O282 Tb239 2.308 . S
O282 C302 1.266 . S
O283 Tb228 2.393 1_554 S
O283 C302 1.248 . S
C284 O273 1.264 . S
C284 O274 1.243 . S
C285 C288 1.399 . S
C285 C290 1.383 . S
C285 C292 1.496 . S
C286 C287 1.399 . S
C286 C290 1.389 . S
C287 C286 1.399 . S
C287 C289 1.380 . S
C287 H304 0.929 . S
C288 C285 1.399 . S
C288 C289 1.392 . S
C288 H305 0.929 . S
C289 C287 1.380 . S
C289 C288 1.392 . S
C289 H306 0.929 . S
C290 C285 1.383 . S
C290 C286 1.389 . S
C290 H307 0.931 . S
C291 O276 1.266 . S
C291 O277 1.248 . S
C292 Tb228 2.802 . S
C292 O272 1.264 . S
C292 O275 1.256 . S
C292 C285 1.496 . S
C293 C260 1.448 . S
C293 H270 0.930 . S
C293 C294 1.328 . S
C294 C265 1.427 . S
C294 H271 0.929 . S
C294 C293 1.328 . S
C295 O279 1.264 1_556 S
C295 O280 1.243 . S
C296 C299 1.399 . S
C296 C300 1.383 . S
C296 C303 1.496 . S
C297 C298 1.399 . S
C297 C300 1.389 . S
C298 C297 1.399 . S
C298 C301 1.380 . S
C298 H308 0.929 . S
C299 C296 1.399 . S
C299 C301 1.392 . S
C299 H309 0.929 . S
C300 C296 1.383 . S
C300 C297 1.389 . S
C300 H310 0.931 . S
C301 C298 1.380 . S
C301 C299 1.392 . S
C301 H311 0.929 . S
C302 O282 1.266 . S
C302 O283 1.248 . S
C303 Tb239 2.802 . S
C303 O278 1.264 . S
C303 O281 1.256 . S
C303 C296 1.496 . S
H304 C287 0.929 . S
H305 C288 0.929 . S
H306 C289 0.929 . S
H307 C290 0.931 . S
H308 C298 0.929 . S
H309 C299 0.929 . S
H310 C300 0.931 . S
H311 C301 0.929 . S
C312 C313 1.369 . S
C312 C314 1.419 . S
C312 H316 0.930 . S
C313 C312 1.369 . S
C313 C322 1.429 . S
C314 C312 1.419 . S
C314 C315 1.363 . S
C314 H317 0.929 . S
C315 C314 1.363 . S
C315 C321 1.428 . S
H316 C312 0.930 . S
H317 C314 0.929 . S
S318 N319 1.613 . S
S318 N320 1.610 . S
N319 S318 1.613 . S
N319 C322 1.350 . S
N320 S318 1.610 . S
N320 C321 1.351 . S
C321 C315 1.428 . S
C321 N320 1.351 . S
C321 C322 1.434 . S
C322 C313 1.429 . S
C322 N319 1.350 . S
C322 C321 1.434 . S
C323 C324 1.369 . S
C323 C325 1.419 . S
C323 H327 0.930 . S
C324 C323 1.369 . S
C324 C333 1.429 . S
C325 C323 1.419 . S
C325 C326 1.363 . S
C325 H328 0.929 . S
C326 C325 1.363 . S
C326 C332 1.428 . S
H327 C323 0.930 . S
H328 C325 0.929 . S
S329 N330 1.613 . S
S329 N331 1.610 . S
N330 S329 1.613 . S
N330 C333 1.350 1_556 S
N331 S329 1.610 . S
N331 C332 1.351 1_556 S
C332 C326 1.428 . S
C332 N331 1.351 1_554 S
C332 C333 1.434 . S
C333 C324 1.429 . S
C333 N330 1.350 1_554 S
C333 C332 1.434 . S
C334 C335 1.369 . S
C334 C336 1.419 . S
C334 H338 0.930 . S
C335 C334 1.369 . S
C335 C344 1.429 . S
C336 C334 1.419 . S
C336 C337 1.363 . S
C336 H339 0.929 . S
C337 C336 1.363 . S
C337 C343 1.428 . S
H338 C334 0.930 . S
H339 C336 0.929 . S
S340 N341 1.608 1_545 S
S340 N342 1.609 1_545 S
N341 S340 1.608 1_565 S
N341 C344 1.350 . S
N342 S340 1.609 1_565 S
N342 C343 1.351 . S
C343 C337 1.428 . S
C343 N342 1.351 . S
C343 C344 1.434 . S
C344 C335 1.429 . S
C344 N341 1.350 . S
C344 C343 1.434 . S
C345 C346 1.369 . S
C345 C347 1.419 . S
C345 H349 0.930 . S
C346 C345 1.369 . S
C346 C355 1.439 . S
C347 C345 1.419 . S
C347 C348 1.363 . S
C347 H350 0.929 . S
C348 C347 1.363 . S
C348 C354 1.428 . S
H349 C345 0.930 . S
H350 C347 0.929 . S
S351 N352 1.613 . S
S351 N353 1.610 . S
N352 S351 1.613 . S
N352 C355 1.333 1_556 S
N353 S351 1.610 . S
N353 C354 1.351 1_556 S
C354 C348 1.428 . S
C354 N353 1.351 1_554 S
C354 C355 1.441 . S
C355 C346 1.439 . S
C355 N352 1.333 1_554 S
C355 C354 1.441 . S
C356 C357 1.369 . S
C356 C358 1.419 . S
C356 H360 0.930 . S
C357 C356 1.369 . S
C357 C366 1.429 . S
C358 C356 1.419 . S
C358 C359 1.363 . S
C358 H361 0.929 1_565 S
C359 C358 1.363 . S
C359 C365 1.428 . S
H360 C356 0.930 . S
H361 C358 0.929 1_545 S
S362 N363 1.613 . S
S362 N364 1.610 . S
N363 S362 1.613 . S
N363 C366 1.350 . S
N364 S362 1.610 . S
N364 C365 1.351 . S
C365 C359 1.428 . S
C365 N364 1.351 . S
C365 C366 1.434 . S
C366 C357 1.429 . S
C366 N363 1.350 . S
C366 C365 1.434 . S
C367 C368 1.369 . S
C367 C369 1.419 . S
C367 H371 0.930 . S
C368 C367 1.369 . S
C368 C377 1.429 . S
C369 C367 1.419 . S
C369 C370 1.363 . S
C369 H372 0.929 . S
C370 C369 1.363 . S
C370 C376 1.428 . S
H371 C367 0.930 . S
H372 C369 0.929 . S
S373 N374 1.613 . S
S373 N375 1.610 . S
N374 S373 1.613 . S
N374 C377 1.350 . S
N375 S373 1.610 . S
N375 C376 1.351 . S
C376 C370 1.428 . S
C376 N375 1.351 . S
C376 C377 1.434 . S
C377 C368 1.429 . S
C377 N374 1.350 . S
C377 C376 1.434 . S
C378 C379 1.369 . S
C378 C380 1.419 . S
C378 H382 0.930 1_545 S
C379 C378 1.369 . S
C379 C388 1.429 . S
C380 C378 1.419 . S
C380 C381 1.363 . S
C380 H383 0.929 1_545 S
C381 C380 1.363 . S
C381 C387 1.428 . S
H382 C378 0.930 1_565 S
H383 C380 0.929 1_565 S
S384 N385 1.613 . S
S384 N386 1.610 . S
N385 S384 1.613 . S
N385 C388 1.350 . S
N386 S384 1.610 . S
N386 C387 1.351 . S
C387 C381 1.428 . S
C387 N386 1.351 . S
C387 C388 1.434 . S
C388 C379 1.429 . S
C388 N385 1.350 . S
C388 C387 1.434 . S
C389 C390 1.369 . S
C389 C391 1.419 . S
C389 H393 0.930 . S
C390 C389 1.369 . S
C390 C399 1.429 . S
C391 C389 1.419 . S
C391 C392 1.363 . S
C391 H394 0.929 . S
C392 C391 1.363 . S
C392 C398 1.428 . S
H393 C389 0.930 . S
H394 C391 0.929 . S
S395 N396 1.613 . S
S395 N397 1.610 . S
N396 S395 1.613 . S
N396 C399 1.350 . S
N397 S395 1.610 . S
N397 C398 1.351 . S
C398 C392 1.428 . S
C398 N397 1.351 . S
C398 C399 1.434 . S
C399 C390 1.429 . S
C399 N396 1.350 . S
C399 C398 1.434 . S
C400 C401 1.369 . S
C400 C402 1.419 . S
C400 H404 0.930 . S
C401 C400 1.369 . S
C401 C410 1.429 . S
C402 C400 1.419 . S
C402 C403 1.363 . S
C402 H405 0.929 . S
C403 C402 1.363 . S
C403 C409 1.428 . S
H404 C400 0.930 . S
H405 C402 0.929 . S
S406 N407 1.613 . S
S406 N408 1.610 . S
N407 S406 1.613 . S
N407 C410 1.350 . S
N408 S406 1.610 . S
N408 C409 1.351 . S
C409 C403 1.428 . S
C409 N408 1.351 . S
C409 C410 1.434 . S
C410 C401 1.429 . S
C410 N407 1.350 . S
C410 C409 1.434 . S
C411 C412 1.369 . S
C411 C413 1.419 . S
C411 H415 0.930 . S
C412 C411 1.369 . S
C412 C421 1.429 . S
C413 C411 1.419 . S
C413 C414 1.363 . S
C413 H416 0.929 . S
C414 C413 1.363 . S
C414 C420 1.428 . S
H415 C411 0.930 . S
H416 C413 0.929 . S
S417 N418 1.613 . S
S417 N419 1.610 . S
N418 S417 1.613 . S
N418 C421 1.350 . S
N419 S417 1.610 . S
N419 C420 1.351 . S
C420 C414 1.428 . S
C420 N419 1.351 . S
C420 C421 1.434 . S
C421 C412 1.429 . S
C421 N418 1.350 . S
C421 C420 1.434 . S
C422 C423 1.369 . S
C422 C424 1.419 . S
C422 H426 0.930 . S
C423 C422 1.369 . S
C423 C432 1.429 . S
C424 C422 1.419 . S
C424 C425 1.363 . S
C424 H427 0.929 . S
C425 C424 1.363 . S
C425 C431 1.428 . S
H426 C422 0.930 . S
H427 C424 0.929 . S
S428 N429 1.613 . S
S428 N430 1.610 . S
N429 S428 1.613 . S
N429 C432 1.350 . S
N430 S428 1.610 . S
N430 C431 1.351 . S
C431 C425 1.428 . S
C431 N430 1.351 . S
C431 C432 1.434 . S
C432 C423 1.429 . S
C432 N429 1.350 . S
C432 C431 1.434 . S
C433 C434 1.362 1_545 S
C433 C435 1.417 . S
C433 H437 0.939 . S
C434 C433 1.362 1_565 S
C434 C443 1.429 . S
C435 C433 1.417 . S
C435 C436 1.363 1_545 S
C435 H438 0.929 . S
C436 C435 1.363 1_565 S
C436 C442 1.428 . S
H437 C433 0.939 . S
H438 C435 0.929 . S
S439 N440 1.613 . S
S439 N441 1.610 . S
N440 S439 1.613 . S
N440 C443 1.350 . S
N441 S439 1.610 . S
N441 C442 1.351 . S
C442 C436 1.428 . S
C442 N441 1.351 . S
C442 C443 1.434 . S
C443 C434 1.429 . S
C443 N440 1.350 . S
C443 C442 1.434 . S
C315 C207 1.674 . S
C313 C133 1.666 . S
C324 C25 1.648 . S
C326 C302 1.660 . S
C335 C61 1.638 . S
C337 C218 1.672 . S
C346 C97 1.603 . S
C348 C291 1.662 . S
C359 C202 1.423 . S
C357 C1 1.556 . S
C370 C295 1.630 . S
C368 C67 1.588 . S
C379 C103 1.594 . S
C381 C211 1.666 . S
C390 C109 1.535 . S
C392 C286 1.411 . S
C403 C297 1.411 . S
C401 C37 1.521 . S
C414 C213 1.424 . S
C412 C73 1.535 . S
C425 C284 1.631 . S
C423 C139 1.612 . S
C434 C31 1.649 . S
C436 C200 1.666 . S
