# Generated by pormake.
# Topology rtl, (3,6)-cn, num edge types: 1
# Building blocks:
#     Node 0, Type 0, BuildingBlock: PAMTOO_clean_linker_0, # of connection points: 3
#     Node 1, Type 0, BuildingBlock: PAMTOO_clean_linker_0, # of connection points: 3
#     Node 2, Type 0, BuildingBlock: PAMTOO_clean_linker_0, # of connection points: 3
#     Node 3, Type 0, BuildingBlock: PAMTOO_clean_linker_0, # of connection points: 3
#     Node 4, Type 1, BuildingBlock: LEVNOQ01_clean_sbu_1, # of connection points: 6
#     Node 5, Type 1, BuildingBlock: LEVNOQ01_clean_sbu_1, # of connection points: 6
#     Edge 6, Type (0, 1), BuildingBlock: KIFKEQ_clean_linker_1, # of connection points: 2
#     Edge 7, Type (0, 1), BuildingBlock: KIFKEQ_clean_linker_1, # of connection points: 2
#     Edge 8, Type (0, 1), BuildingBlock: KIFKEQ_clean_linker_1, # of connection points: 2
#     Edge 9, Type (0, 1), BuildingBlock: KIFKEQ_clean_linker_1, # of connection points: 2
#     Edge 10, Type (0, 1), BuildingBlock: KIFKEQ_clean_linker_1, # of connection points: 2
#     Edge 11, Type (0, 1), BuildingBlock: KIFKEQ_clean_linker_1, # of connection points: 2
#     Edge 12, Type (0, 1), BuildingBlock: KIFKEQ_clean_linker_1, # of connection points: 2
#     Edge 13, Type (0, 1), BuildingBlock: KIFKEQ_clean_linker_1, # of connection points: 2
#     Edge 14, Type (0, 1), BuildingBlock: KIFKEQ_clean_linker_1, # of connection points: 2
#     Edge 15, Type (0, 1), BuildingBlock: KIFKEQ_clean_linker_1, # of connection points: 2
#     Edge 16, Type (0, 1), BuildingBlock: KIFKEQ_clean_linker_1, # of connection points: 2
#     Edge 17, Type (0, 1), BuildingBlock: KIFKEQ_clean_linker_1, # of connection points: 2
# Relax obj value: 0.020
# Max RMSD: 0.115
# Mean RMSD: 0.090
data_MOF--net-rtl--node1-LEVNOQ01_clean_sbu_1--node2-PAMTOO_clean_linker_0--edge1-KIFKEQ_clean_linker_1
_symmetry_space_group_name_H-M    P1
_symmetry_Int_Tables_number       1
_symmetry_cell_setting            triclinic
loop_
_symmetry_equiv_pos_as_xyz
'x, y, z'
_cell_length_a     36.028689
_cell_length_b     35.963599
_cell_length_c     22.682409
_cell_angle_alpha  91.834118
_cell_angle_beta   98.365956
_cell_angle_gamma 90.174475
loop_
_atom_site_label
_atom_site_type_symbol
_atom_site_fract_x
_atom_site_fract_y
_atom_site_fract_z
_atom_type_partial_charge
H0 H 0.17189 0.92739 0.09209 0.0
H1 H 0.25654 0.85799 0.18499 0.0
H2 H 0.23313 0.84997 0.9941 0.0
H3 H 0.24494 0.77863 0.05609 0.0
C4 C 0.26657 0.78784 0.09389 0.0
O5 O 0.27468 0.8251 0.08914 0.0
H6 H 0.25534 0.78374 0.13645 0.0
C7 C 0.19323 0.9063 0.09097 0.0
C8 C 0.1997 0.89019 0.03601 0.0
C9 C 0.21339 0.89473 0.14485 0.0
C10 C 0.2409 0.86734 0.14372 0.0
C11 C 0.24815 0.85156 0.08943 0.0
C12 C 0.22771 0.86299 0.0357 0.0
H13 H 0.63002 0.65964 0.56015 0.0
H14 H 0.70577 0.73545 0.49419 0.0
H15 H 0.71317 0.71952 0.68266 0.0
H16 H 0.73176 0.79595 0.66029 0.0
C17 C 0.73582 0.79229 0.61278 0.0
O18 O 0.74133 0.75506 0.60008 0.0
H19 H 0.71014 0.80249 0.58473 0.0
C20 C 0.65268 0.67991 0.56837 0.0
C21 C 0.66949 0.68788 0.62719 0.0
C22 C 0.66531 0.69679 0.51991 0.0
C23 C 0.69561 0.72199 0.53088 0.0
C24 C 0.71262 0.73031 0.58962 0.0
C25 C 0.69991 0.71287 0.63754 0.0
H26 H 0.86202 0.11859 0.98996 0.0
H27 H 0.79057 0.20077 0.89915 0.0
H28 H 0.81342 0.20495 0.09017 0.0
H29 H 0.73328 0.22029 0.03746 0.0
C30 C 0.73889 0.23343 0.99588 0.0
O31 O 0.77713 0.23612 0.99586 0.0
H32 H 0.72622 0.21566 0.95698 0.0
C33 C 0.84436 0.14285 0.9916 0.0
C34 C 0.84029 0.1599 0.04702 0.0
C35 C 0.82673 0.15739 0.93804 0.0
C36 C 0.80422 0.18904 0.94006 0.0
C37 C 0.79892 0.20563 0.99482 0.0
C38 C 0.81695 0.19118 0.04818 0.0
H39 H 0.3723 0.39494 0.50653 0.0
H40 H 0.31723 0.29979 0.56619 0.0
H41 H 0.31755 0.3131 0.3794 0.0
H42 H 0.25175 0.27344 0.38528 0.0
C43 C 0.25451 0.27657 0.43465 0.0
O44 O 0.29192 0.27338 0.45834 0.0
H45 H 0.24363 0.30471 0.4448 0.0
C46 C 0.35667 0.3692 0.49627 0.0
C47 C 0.346 0.35715 0.43644 0.0
C48 C 0.34738 0.34818 0.5434 0.0
C49 C 0.32565 0.31564 0.53045 0.0
C50 C 0.31441 0.30365 0.47118 0.0
C51 C 0.32562 0.32363 0.42473 0.0
O52 O 0.96777 0.09351 0.59513 0.0
Mg53 Mg 0.02171 0.07054 0.61355 0.0
O54 O 0.96445 0.03339 0.59753 0.0
Mg55 Mg 0.01379 0.01793 0.54059 0.0
O56 O 0.05461 0.07189 0.54779 0.0
O57 O 0.05954 0.11212 0.62654 0.0
O58 O 0.06288 0.00321 0.48345 0.0
O59 O 0.97894 0.04477 0.459 0.0
Mg60 Mg 0.00637 0.96418 0.46729 0.0
O61 O 0.9735 0.96359 0.5333 0.0
O62 O 0.06127 0.943 0.48466 0.0
O63 O 0.99004 1.00054 0.39508 0.0
O64 O 0.97071 0.92076 0.45845 0.0
C65 C 0.05004 0.00263 0.67555 0.0
C66 C 0.94939 0.06499 0.60398 0.0
C67 C 0.07039 0.10091 0.57736 0.0
C68 C 0.07874 0.97216 0.47612 0.0
C69 C 0.97677 0.03234 0.40538 0.0
C70 C 0.95908 0.93311 0.50643 0.0
O71 O 0.03591 0.03396 0.68589 0.0
O72 O 0.0489 0.9908 0.62182 0.0
O73 O 0.53793 0.51803 0.17682 0.0
Mg74 Mg 0.5297 0.47516 0.10875 0.0
O75 O 0.543 0.55718 0.10673 0.0
Mg76 Mg 0.51049 0.51907 0.03155 0.0
O77 O 0.5589 0.47155 0.03812 0.0
O78 O 0.57514 0.44336 0.12515 0.0
O79 O 0.48033 0.47496 0.95518 0.0
O80 O 0.54876 0.54456 0.96869 0.0
Mg81 Mg 0.46545 0.54023 0.95128 0.0
O82 O 0.46879 0.57233 0.02742 0.0
O83 O 0.4245 0.49851 0.94114 0.0
O84 O 0.50528 0.54195 0.89084 0.0
O85 O 0.43824 0.58842 0.93853 0.0
C86 C 0.45896 0.46501 0.10823 0.0
C87 C 0.54653 0.55012 0.16179 0.0
C88 C 0.58067 0.44909 0.07138 0.0
C89 C 0.44558 0.47153 0.9338 0.0
C90 C 0.53913 0.54779 0.91294 0.0
C91 C 0.44747 0.59536 0.99474 0.0
O92 O 0.48258 0.44009 0.10218 0.0
O93 O 0.46656 0.49807 0.09474 0.0
H94 H 0.2421 0.20421 0.39436 0.0
H95 H 0.21485 0.28329 0.52809 0.0
H96 H 0.20075 0.15791 0.429 0.0
H97 H 0.17275 0.23801 0.56158 0.0
H98 H 0.12359 0.14338 0.64462 0.0
H99 H 0.17155 0.1818 0.61189 0.0
H100 H 0.1348 0.14482 0.42946 0.0
H101 H 0.08729 0.10481 0.46306 0.0
C102 C 0.22725 0.21152 0.43127 0.0
C103 C 0.2312 0.24729 0.45827 0.0
C104 C 0.20339 0.18522 0.45079 0.0
C105 C 0.18324 0.19419 0.49794 0.0
C106 C 0.18814 0.22982 0.52573 0.0
C107 C 0.21206 0.25593 0.50641 0.0
C108 C 0.1258 0.14323 0.59748 0.0
C109 C 0.10126 0.12152 0.55625 0.0
C110 C 0.15325 0.16545 0.57866 0.0
C111 C 0.15663 0.1671 0.51789 0.0
C112 C 0.13309 0.14416 0.47668 0.0
C113 C 0.10576 0.12136 0.49577 0.0
H114 H 0.33081 0.8028 0.04432 0.0
H115 H 0.27878 0.71855 0.13698 0.0
H116 H 0.38251 0.76096 0.03324 0.0
H117 H 0.32976 0.67592 0.12372 0.0
H118 H 0.43321 0.60814 0.10981 0.0
H119 H 0.39579 0.65906 0.14482 0.0
H120 H 0.38666 0.70731 0.97122 0.0
H121 H 0.4242 0.65761 0.93739 0.0
C122 C 0.33072 0.77555 0.06325 0.0
C123 C 0.30096 0.76413 0.09239 0.0
C124 C 0.36025 0.7514 0.05652 0.0
C125 C 0.3603 0.71494 0.07737 0.0
C126 C 0.33106 0.70395 0.10803 0.0
C127 C 0.3017 0.72825 0.11526 0.0
C128 C 0.42395 0.63024 0.07991 0.0
C129 C 0.43127 0.62872 0.02073 0.0
C130 C 0.40226 0.65919 0.09968 0.0
C131 C 0.38794 0.6872 0.06072 0.0
C132 C 0.39745 0.68663 0.00281 0.0
C133 C 0.41879 0.65784 0.98316 0.0
H134 H 0.75525 0.80741 0.50457 0.0
H135 H 0.79106 0.82691 0.69286 0.0
H136 H 0.80945 0.84261 0.48256 0.0
H137 H 0.84576 0.86194 0.67115 0.0
H138 H 0.91812 0.95378 0.596 0.0
H139 H 0.86402 0.92071 0.62452 0.0
H140 H 0.87721 0.83295 0.49493 0.0
H141 H 0.9303 0.8656 0.46628 0.0
C142 C 0.77481 0.81935 0.54114 0.0
C143 C 0.76904 0.81462 0.60024 0.0
C144 C 0.80589 0.83933 0.52872 0.0
C145 C 0.83202 0.85494 0.57519 0.0
C146 C 0.82598 0.85056 0.63443 0.0
C147 C 0.79485 0.83038 0.64685 0.0
C148 C 0.90957 0.92729 0.57405 0.0
C149 C 0.92835 0.91256 0.52846 0.0
C150 C 0.87866 0.90835 0.5904 0.0
C151 C 0.86599 0.87448 0.56128 0.0
C152 C 0.88565 0.85936 0.51725 0.0
C153 C 0.91632 0.87809 0.50108 0.0
H154 H 0.76778 0.30033 0.04587 0.0
H155 H 0.66863 0.25129 0.94267 0.0
H156 H 0.73529 0.35949 0.05126 0.0
H157 H 0.6355 0.30994 0.94993 0.0
H158 H 0.5835 0.42241 0.95695 0.0
H159 H 0.62696 0.37524 0.92716 0.0
H160 H 0.68748 0.37911 0.10643 0.0
H161 H 0.64507 0.42612 0.13512 0.0
C162 C 0.73926 0.30243 0.02334 0.0
C163 C 0.72091 0.27134 0.99302 0.0
C164 C 0.7205 0.33626 0.02676 0.0
C165 C 0.68266 0.33957 0.00119 0.0
C166 C 0.66477 0.30874 0.96921 0.0
C167 C 0.68365 0.27501 0.9654 0.0
C168 C 0.60687 0.41392 0.98918 0.0
C169 C 0.61074 0.42762 0.04843 0.0
C170 C 0.63151 0.38665 0.97242 0.0
C171 C 0.66056 0.37301 0.01455 0.0
C172 C 0.66583 0.38902 0.0725 0.0
C173 C 0.64126 0.41589 0.08916 0.0
H174 H 0.19311 0.85496 0.23456 0.0
H175 H 0.21091 0.9673 0.18342 0.0
H176 H 0.16921 0.87825 0.32319 0.0
H177 H 0.18923 0.99123 0.27443 0.0
H178 H 0.09381 0.01561 0.3866 0.0
H179 H 0.13408 0.99972 0.31269 0.0
H180 H 0.17688 0.90605 0.41637 0.0
H181 H 0.13416 0.92064 0.48769 0.0
C182 C 0.19285 0.88474 0.24342 0.0
C183 C 0.20361 0.90936 0.20225 0.0
C184 C 0.17942 0.89826 0.29462 0.0
C185 C 0.17711 0.93684 0.30657 0.0
C186 C 0.18977 0.96142 0.26645 0.0
C187 C 0.20244 0.9478 0.21447 0.0
C188 C 0.1126 0.99223 0.39429 0.0
C189 C 0.11063 0.96907 0.44235 0.0
C190 C 0.13588 0.98304 0.35184 0.0
C191 C 0.1583 0.95092 0.35737 0.0
C192 C 0.15906 0.93014 0.40916 0.0
C193 C 0.13501 0.93876 0.45063 0.0
H194 H 0.70811 0.65248 0.72289 0.0
H195 H 0.59658 0.68262 0.64299 0.0
H196 H 0.68113 0.61563 0.79599 0.0
H197 H 0.56989 0.64621 0.71518 0.0
H198 H 0.53107 0.54402 0.79215 0.0
H199 H 0.56655 0.5779 0.72778 0.0
H200 H 0.64127 0.62021 0.88164 0.0
H201 H 0.60572 0.58563 0.94677 0.0
C202 C 0.67795 0.65171 0.72162 0.0
C203 C 0.65437 0.66987 0.67673 0.0
C204 C 0.66255 0.63059 0.76322 0.0
C205 C 0.6234 0.62734 0.76031 0.0
C206 C 0.60013 0.6473 0.71748 0.0
C207 C 0.6154 0.66827 0.67628 0.0
C208 C 0.5554 0.56004 0.81239 0.0
C209 C 0.56525 0.56258 0.87461 0.0
C210 C 0.5756 0.57964 0.77549 0.0
C211 C 0.60609 0.60245 0.79981 0.0
C212 C 0.61776 0.60297 0.86175 0.0
C213 C 0.59746 0.58315 0.89895 0.0
H214 H 0.91313 0.13709 0.0659 0.0
H215 H 0.81562 0.15037 0.15486 0.0
H216 H 0.94688 0.10923 0.15416 0.0
H217 H 0.84968 0.12249 0.24381 0.0
H218 H 0.93626 0.09688 0.40972 0.0
H219 H 0.90403 0.13086 0.32548 0.0
H220 H 0.9424 0.05017 0.2032 0.0
H221 H 0.97467 0.01664 0.28659 0.0
C222 C 0.89881 0.13393 0.10426 0.0
C223 C 0.86142 0.14541 0.10289 0.0
C224 C 0.91822 0.11801 0.15495 0.0
C225 C 0.90085 0.11321 0.20582 0.0
C226 C 0.86394 0.12599 0.20546 0.0
C227 C 0.84441 0.14192 0.1545 0.0
C228 C 0.93796 0.08656 0.36481 0.0
C229 C 0.9581 0.05403 0.35497 0.0
C230 C 0.91931 0.1059 0.3166 0.0
C231 C 0.92074 0.0933 0.25761 0.0
C232 C 0.94115 0.06097 0.24799 0.0
C233 C 0.95951 0.04159 0.29595 0.0
H234 H 0.38814 0.30923 0.63189 0.0
H235 H 0.33605 0.41552 0.59535 0.0
H236 H 0.41236 0.3317 0.73396 0.0
H237 H 0.35946 0.43762 0.69705 0.0
H238 H 0.48557 0.42334 0.87046 0.0
H239 H 0.46047 0.38739 0.77939 0.0
H240 H 0.34809 0.41851 0.80406 0.0
H241 H 0.37273 0.45371 0.89479 0.0
C242 C 0.38155 0.3372 0.64602 0.0
C243 C 0.36021 0.36069 0.606 0.0
C244 C 0.39554 0.35005 0.70408 0.0
C245 C 0.38759 0.38628 0.72337 0.0
C246 C 0.36569 0.40943 0.68352 0.0
C247 C 0.35243 0.3969 0.62534 0.0
C248 C 0.45546 0.4214 0.85755 0.0
C249 C 0.4312 0.44184 0.88936 0.0
C250 C 0.44112 0.40095 0.80535 0.0
C251 C 0.40241 0.40086 0.78423 0.0
C252 C 0.37808 0.41864 0.81886 0.0
C253 C 0.39226 0.43868 0.87096 0.0
H254 H 0.59041 0.6926 0.47989 0.0
H255 H 0.69841 0.67723 0.42183 0.0
H256 H 0.55981 0.66311 0.38712 0.0
H257 H 0.66754 0.64787 0.32821 0.0
H258 H 0.59028 0.61169 0.15122 0.0
H259 H 0.61835 0.65494 0.23176 0.0
H260 H 0.56415 0.59469 0.35754 0.0
H261 H 0.53672 0.55165 0.27812 0.0
C262 C 0.60755 0.6835 0.44675 0.0
C263 C 0.64686 0.68657 0.45857 0.0
C264 C 0.59002 0.66664 0.39368 0.0
C265 C 0.61135 0.65266 0.35094 0.0
C266 C 0.65042 0.65848 0.36038 0.0
C267 C 0.66807 0.6753 0.41388 0.0
C268 C 0.58413 0.60803 0.19603 0.0
C269 C 0.56138 0.57824 0.20843 0.0
C270 C 0.60032 0.63262 0.24202 0.0
C271 C 0.59327 0.62827 0.30079 0.0
C272 C 0.56973 0.59905 0.31259 0.0
C273 C 0.55419 0.57424 0.26712 0.0
H274 H 0.82162 0.08419 0.90084 0.0
H275 H 0.84884 0.19334 0.84545 0.0
H276 H 0.83949 0.05661 0.80926 0.0
H277 H 0.86838 0.16619 0.75577 0.0
H278 H 0.8958 0.1182 0.59048 0.0
H279 H 0.8551 0.1368 0.66294 0.0
H280 H 0.89415 0.0432 0.76964 0.0
H281 H 0.93267 0.02352 0.69494 0.0
C282 C 0.83128 0.10224 0.86878 0.0
C283 C 0.83396 0.14085 0.88015 0.0
C284 C 0.84168 0.08649 0.81642 0.0
C285 C 0.85561 0.10899 0.77477 0.0
C286 C 0.85705 0.14782 0.78569 0.0
C287 C 0.84608 0.16353 0.83746 0.0
C288 C 0.89446 0.10092 0.6284 0.0
C289 C 0.91752 0.06965 0.63748 0.0
C290 C 0.87158 0.11182 0.67046 0.0
C291 C 0.87215 0.09231 0.72342 0.0
C292 C 0.89272 0.05902 0.72959 0.0
C293 C 0.91491 0.04762 0.68667 0.0
H294 H 0.30485 0.36634 0.32568 0.0
H295 H 0.41013 0.39834 0.43279 0.0
H296 H 0.32393 0.39786 0.2411 0.0
H297 H 0.42781 0.43155 0.34909 0.0
H298 H 0.43806 0.50854 0.19792 0.0
H299 H 0.40429 0.48743 0.27728 0.0
H300 H 0.38165 0.3819 0.18271 0.0
H301 H 0.41626 0.40255 0.10445 0.0
C302 C 0.33194 0.38013 0.33153 0.0
C303 C 0.35611 0.37922 0.38627 0.0
C304 C 0.34257 0.39856 0.28317 0.0
C305 C 0.37716 0.41728 0.28881 0.0
C306 C 0.40067 0.41781 0.34393 0.0
C307 C 0.39043 0.39876 0.39195 0.0
C308 C 0.42463 0.48139 0.19309 0.0
C309 C 0.42962 0.45713 0.14515 0.0
C310 C 0.40569 0.46921 0.23871 0.0
C311 C 0.39068 0.43298 0.23616 0.0
C312 C 0.39281 0.41001 0.18555 0.0
C313 C 0.4125 0.42183 0.14077 0.0
H314 H 0.22243 0.90344 0.92794 0.0
H315 H 0.12406 0.90176 0.01632 0.0
H316 H 0.18445 0.92623 0.83822 0.0
H317 H 0.08635 0.92463 0.92715 0.0
H318 H 0.0476 0.01531 0.79389 0.0
H319 H 0.08266 0.98431 0.87772 0.0
H320 H 0.1317 0.91094 0.75628 0.0
H321 H 0.09658 0.94239 0.6716 0.0
C322 C 0.19266 0.90745 0.92799 0.0
C323 C 0.17643 0.90136 0.97967 0.0
C324 C 0.17088 0.92045 0.87656 0.0
C325 C 0.13245 0.92764 0.87578 0.0
C326 C 0.11602 0.92011 0.92668 0.0
C327 C 0.13769 0.9071 0.97787 0.0
C328 C 0.06561 0.99239 0.78484 0.0
C329 C 0.06932 0.9814 0.72596 0.0
C330 C 0.08558 0.97445 0.83302 0.0
C331 C 0.10997 0.94511 0.82374 0.0
C332 C 0.11335 0.93365 0.76487 0.0
C333 C 0.09304 0.95148 0.71642 0.0
loop_
_geom_bond_atom_site_label_1
_geom_bond_atom_site_label_2
_geom_bond_distance
_geom_bond_site_symmetry_2
_ccdc_geom_bond_type
H0 C7 0.929 . S
H1 C10 0.930 . S
H2 C12 0.929 1_556 S
H3 C4 0.969 . S
C4 H3 0.969 . S
C4 O5 1.550 . S
C4 H6 0.973 . S
O5 C4 1.550 . S
O5 C11 1.412 . S
H6 C4 0.973 . S
C7 H0 0.929 . S
C7 C8 1.400 . S
C7 C9 1.364 . S
C8 C7 1.400 . S
C8 C12 1.377 . S
C9 C7 1.364 . S
C9 C10 1.374 . S
C10 H1 0.930 . S
C10 C9 1.374 . S
C10 C11 1.383 . S
C11 O5 1.412 . S
C11 C10 1.383 . S
C11 C12 1.394 . S
C12 H2 0.929 1_554 S
C12 C8 1.377 . S
C12 C11 1.394 . S
H13 C20 0.929 . S
H14 C23 0.930 . S
H15 C25 0.929 . S
H16 C17 0.969 . S
C17 H16 0.969 . S
C17 O18 1.550 . S
C17 H19 0.973 . S
O18 C17 1.550 . S
O18 C24 1.412 . S
H19 C17 0.973 . S
C20 H13 0.929 . S
C20 C21 1.400 . S
C20 C22 1.364 . S
C21 C20 1.400 . S
C21 C25 1.377 . S
C22 C20 1.364 . S
C22 C23 1.374 . S
C23 H14 0.930 . S
C23 C22 1.374 . S
C23 C24 1.383 . S
C24 O18 1.412 . S
C24 C23 1.383 . S
C24 C25 1.394 . S
C25 H15 0.929 . S
C25 C21 1.377 . S
C25 C24 1.394 . S
H26 C33 0.929 . S
H27 C36 0.930 . S
H28 C38 0.929 . S
H29 C30 0.969 . S
C30 H29 0.969 . S
C30 O31 1.550 1_556 S
C30 H32 0.973 . S
O31 C30 1.550 1_554 S
O31 C37 1.412 . S
H32 C30 0.973 . S
C33 H26 0.929 . S
C33 C34 1.400 . S
C33 C35 1.364 1_554 S
C34 C33 1.400 . S
C34 C38 1.377 . S
C35 C33 1.364 1_556 S
C35 C36 1.374 . S
C36 H27 0.930 . S
C36 C35 1.374 . S
C36 C37 1.383 1_556 S
C37 O31 1.412 . S
C37 C36 1.383 1_554 S
C37 C38 1.394 . S
C38 H28 0.929 . S
C38 C34 1.377 . S
C38 C37 1.394 . S
H39 C46 0.929 . S
H40 C49 0.930 . S
H41 C51 0.929 . S
H42 C43 0.969 . S
C43 H42 0.969 . S
C43 O44 1.550 . S
C43 H45 0.973 . S
O44 C43 1.550 . S
O44 C50 1.412 . S
H45 C43 0.973 . S
C46 H39 0.929 . S
C46 C47 1.400 . S
C46 C48 1.364 . S
C47 C46 1.400 . S
C47 C51 1.377 . S
C48 C46 1.364 . S
C48 C49 1.374 . S
C49 H40 0.930 . S
C49 C48 1.374 . S
C49 C50 1.383 . S
C50 O44 1.412 . S
C50 C49 1.383 . S
C50 C51 1.394 . S
C51 H41 0.929 . S
C51 C47 1.377 . S
C51 C50 1.394 . S
O52 Mg53 1.990 . S
O52 C66 1.253 1_455 S
Mg53 O52 1.990 . S
Mg53 O56 2.180 . S
Mg53 O57 2.117 . S
Mg53 O71 2.030 . S
O54 Mg55 2.072 1_655 S
O54 C66 1.260 . S
Mg55 O54 2.072 1_455 S
Mg55 O56 2.099 . S
Mg55 O58 2.079 1_545 S
Mg55 O59 2.072 1_455 S
Mg55 O61 2.099 1_445 S
Mg55 O72 2.079 1_545 S
O56 Mg53 2.180 . S
O56 Mg55 2.099 . S
O56 C67 1.279 . S
O57 Mg53 2.117 . S
O57 C67 1.250 . S
O58 Mg55 2.079 1_565 S
O58 C68 1.264 . S
O59 Mg55 2.072 1_655 S
O59 C69 1.260 . S
Mg60 O61 2.180 . S
Mg60 O62 2.030 1_655 S
Mg60 O63 1.990 1_565 S
Mg60 O64 2.117 . S
O61 Mg55 2.099 1_665 S
O61 Mg60 2.180 . S
O61 C70 1.279 . S
O62 Mg60 2.030 1_455 S
O62 C68 1.248 . S
O63 Mg60 1.990 1_545 S
O63 C69 1.253 . S
O64 Mg60 2.117 . S
O64 C70 1.250 . S
C65 O71 1.248 1_565 S
C65 O72 1.264 . S
C66 O52 1.253 1_655 S
C66 O54 1.260 . S
C67 O56 1.279 . S
C67 O57 1.250 . S
C68 O58 1.264 . S
C68 O62 1.248 . S
C69 O59 1.260 . S
C69 O63 1.253 . S
C70 O61 1.279 . S
C70 O64 1.250 . S
O71 Mg53 2.030 . S
O71 C65 1.248 1_545 S
O72 Mg55 2.079 1_565 S
O72 C65 1.264 . S
O73 Mg74 1.990 . S
O73 C87 1.253 . S
Mg74 O73 1.990 . S
Mg74 O77 2.180 . S
Mg74 O78 2.117 . S
Mg74 O92 2.030 . S
O75 Mg76 2.072 . S
O75 C87 1.260 . S
Mg76 O75 2.072 . S
Mg76 O77 2.099 . S
Mg76 O79 2.079 1_554 S
Mg76 O80 2.072 1_554 S
Mg76 O82 2.099 . S
Mg76 O93 2.079 . S
O77 Mg74 2.180 . S
O77 Mg76 2.099 . S
O77 C88 1.279 . S
O78 Mg74 2.117 . S
O78 C88 1.250 . S
O79 Mg76 2.079 1_556 S
O79 C89 1.264 . S
O80 Mg76 2.072 1_556 S
O80 C90 1.260 . S
Mg81 O82 2.180 1_556 S
Mg81 O83 2.030 . S
Mg81 O84 1.990 . S
Mg81 O85 2.117 . S
O82 Mg76 2.099 . S
O82 Mg81 2.180 1_554 S
O82 C91 1.279 . S
O83 Mg81 2.030 . S
O83 C89 1.248 . S
O84 Mg81 1.990 . S
O84 C90 1.253 . S
O85 Mg81 2.117 . S
O85 C91 1.250 1_556 S
C86 O92 1.248 . S
C86 O93 1.264 . S
C87 O73 1.253 . S
C87 O75 1.260 . S
C88 O77 1.279 . S
C88 O78 1.250 . S
C89 O79 1.264 . S
C89 O83 1.248 . S
C90 O80 1.260 . S
C90 O84 1.253 . S
C91 O82 1.279 . S
C91 O85 1.250 1_554 S
O92 Mg74 2.030 . S
O92 C86 1.248 . S
O93 Mg76 2.079 . S
O93 C86 1.264 . S
H94 C102 0.950 . S
H95 C107 0.950 . S
H96 C104 0.950 . S
H97 C106 0.950 . S
H98 C108 0.950 . S
H99 C110 0.950 . S
H100 C112 0.950 . S
H101 C113 0.950 . S
C102 H94 0.950 . S
C102 C103 1.386 . S
C102 C104 1.391 . S
C103 C102 1.386 . S
C103 C107 1.393 . S
C104 H96 0.950 . S
C104 C102 1.391 . S
C104 C105 1.400 . S
C105 C104 1.400 . S
C105 C106 1.398 . S
C105 C111 1.491 . S
C106 H97 0.950 . S
C106 C105 1.398 . S
C106 C107 1.391 . S
C107 H95 0.950 . S
C107 C103 1.393 . S
C107 C106 1.391 . S
C108 H98 0.950 . S
C108 C109 1.386 . S
C108 C110 1.391 . S
C109 C108 1.386 . S
C109 C113 1.393 . S
C110 H99 0.950 . S
C110 C108 1.391 . S
C110 C111 1.400 . S
C111 C105 1.491 . S
C111 C110 1.400 . S
C111 C112 1.398 . S
C112 H100 0.950 . S
C112 C111 1.398 . S
C112 C113 1.391 . S
C113 H101 0.950 . S
C113 C109 1.393 . S
C113 C112 1.391 . S
H114 C122 0.950 . S
H115 C127 0.950 . S
H116 C124 0.950 . S
H117 C126 0.950 . S
H118 C128 0.950 1_556 S
H119 C130 0.950 . S
H120 C132 0.950 . S
H121 C133 0.950 . S
C122 H114 0.950 . S
C122 C123 1.386 . S
C122 C124 1.391 . S
C123 C122 1.386 . S
C123 C127 1.393 . S
C124 H116 0.950 . S
C124 C122 1.391 . S
C124 C125 1.400 . S
C125 C124 1.400 . S
C125 C126 1.398 . S
C125 C131 1.491 . S
C126 H117 0.950 . S
C126 C125 1.398 . S
C126 C127 1.391 . S
C127 H115 0.950 . S
C127 C123 1.393 . S
C127 C126 1.391 . S
C128 H118 0.950 1_554 S
C128 C129 1.386 . S
C128 C130 1.391 . S
C129 C128 1.386 . S
C129 C133 1.393 . S
C130 H119 0.950 . S
C130 C128 1.391 . S
C130 C131 1.400 . S
C131 C125 1.491 . S
C131 C130 1.400 . S
C131 C132 1.398 . S
C132 H120 0.950 . S
C132 C131 1.398 . S
C132 C133 1.391 . S
C133 H121 0.950 . S
C133 C129 1.393 . S
C133 C132 1.391 . S
H134 C142 0.950 . S
H135 C147 0.950 . S
H136 C144 0.950 . S
H137 C146 0.950 . S
H138 C148 0.950 . S
H139 C150 0.950 . S
H140 C152 0.950 . S
H141 C153 0.950 . S
C142 H134 0.950 . S
C142 C143 1.386 . S
C142 C144 1.391 . S
C143 C142 1.386 . S
C143 C147 1.393 . S
C144 H136 0.950 . S
C144 C142 1.391 . S
C144 C145 1.400 . S
C145 C144 1.400 . S
C145 C146 1.398 . S
C145 C151 1.491 . S
C146 H137 0.950 . S
C146 C145 1.398 . S
C146 C147 1.391 . S
C147 H135 0.950 . S
C147 C143 1.393 . S
C147 C146 1.391 . S
C148 H138 0.950 . S
C148 C149 1.386 . S
C148 C150 1.391 . S
C149 C148 1.386 . S
C149 C153 1.393 . S
C150 H139 0.950 . S
C150 C148 1.391 . S
C150 C151 1.400 . S
C151 C145 1.491 . S
C151 C150 1.400 . S
C151 C152 1.398 . S
C152 H140 0.950 . S
C152 C151 1.398 . S
C152 C153 1.391 . S
C153 H141 0.950 . S
C153 C149 1.393 . S
C153 C152 1.391 . S
H154 C162 0.950 . S
H155 C167 0.950 . S
H156 C164 0.950 . S
H157 C166 0.950 . S
H158 C168 0.950 . S
H159 C170 0.950 . S
H160 C172 0.950 . S
H161 C173 0.950 . S
C162 H154 0.950 . S
C162 C163 1.386 . S
C162 C164 1.391 . S
C163 C162 1.386 . S
C163 C167 1.393 . S
C164 H156 0.950 . S
C164 C162 1.391 . S
C164 C165 1.400 1_556 S
C165 C164 1.400 1_554 S
C165 C166 1.398 1_554 S
C165 C171 1.491 . S
C166 H157 0.950 . S
C166 C165 1.398 1_556 S
C166 C167 1.391 . S
C167 H155 0.950 . S
C167 C163 1.393 . S
C167 C166 1.391 . S
C168 H158 0.950 . S
C168 C169 1.386 . S
C168 C170 1.391 . S
C169 C168 1.386 . S
C169 C173 1.393 . S
C170 H159 0.950 . S
C170 C168 1.391 . S
C170 C171 1.400 . S
C171 C165 1.491 . S
C171 C170 1.400 . S
C171 C172 1.398 . S
C172 H160 0.950 . S
C172 C171 1.398 . S
C172 C173 1.391 . S
C173 H161 0.950 . S
C173 C169 1.393 . S
C173 C172 1.391 . S
H174 C182 0.950 . S
H175 C187 0.950 . S
H176 C184 0.950 . S
H177 C186 0.950 . S
H178 C188 0.961 . S
H179 C190 0.950 . S
H180 C192 0.950 . S
H181 C193 0.950 . S
C182 H174 0.950 . S
C182 C183 1.386 . S
C182 C184 1.391 . S
C183 C182 1.386 . S
C183 C187 1.393 . S
C184 H176 0.950 . S
C184 C182 1.391 . S
C184 C185 1.400 . S
C185 C184 1.400 . S
C185 C186 1.398 . S
C185 C191 1.491 . S
C186 H177 0.950 . S
C186 C185 1.398 . S
C186 C187 1.391 . S
C187 H175 0.950 . S
C187 C183 1.393 . S
C187 C186 1.391 . S
C188 H178 0.961 . S
C188 C189 1.386 . S
C188 C190 1.391 . S
C189 C188 1.386 . S
C189 C193 1.393 . S
C190 H179 0.950 . S
C190 C188 1.391 . S
C190 C191 1.400 . S
C191 C185 1.491 . S
C191 C190 1.400 . S
C191 C192 1.398 . S
C192 H180 0.950 . S
C192 C191 1.398 . S
C192 C193 1.391 . S
C193 H181 0.950 . S
C193 C189 1.393 . S
C193 C192 1.391 . S
H194 C202 0.950 . S
H195 C207 0.950 . S
H196 C204 0.950 . S
H197 C206 0.950 . S
H198 C208 0.950 . S
H199 C210 0.950 . S
H200 C212 0.950 . S
H201 C213 0.950 . S
C202 H194 0.950 . S
C202 C203 1.386 . S
C202 C204 1.391 . S
C203 C202 1.386 . S
C203 C207 1.393 . S
C204 H196 0.950 . S
C204 C202 1.391 . S
C204 C205 1.400 . S
C205 C204 1.400 . S
C205 C206 1.398 . S
C205 C211 1.491 . S
C206 H197 0.950 . S
C206 C205 1.398 . S
C206 C207 1.391 . S
C207 H195 0.950 . S
C207 C203 1.393 . S
C207 C206 1.391 . S
C208 H198 0.950 . S
C208 C209 1.386 . S
C208 C210 1.391 . S
C209 C208 1.386 . S
C209 C213 1.393 . S
C210 H199 0.950 . S
C210 C208 1.391 . S
C210 C211 1.400 . S
C211 C205 1.491 . S
C211 C210 1.400 . S
C211 C212 1.398 . S
C212 H200 0.950 . S
C212 C211 1.398 . S
C212 C213 1.391 . S
C213 H201 0.950 . S
C213 C209 1.393 . S
C213 C212 1.391 . S
H214 C222 0.950 . S
H215 C227 0.950 . S
H216 C224 0.950 . S
H217 C226 0.950 . S
H218 C228 0.950 . S
H219 C230 0.950 . S
H220 C232 0.950 . S
H221 C233 0.950 1_455 S
C222 H214 0.950 . S
C222 C223 1.386 . S
C222 C224 1.391 . S
C223 C222 1.386 . S
C223 C227 1.393 . S
C224 H216 0.950 . S
C224 C222 1.391 . S
C224 C225 1.400 . S
C225 C224 1.400 . S
C225 C226 1.398 . S
C225 C231 1.491 . S
C226 H217 0.950 . S
C226 C225 1.398 . S
C226 C227 1.391 . S
C227 H215 0.950 . S
C227 C223 1.393 . S
C227 C226 1.391 . S
C228 H218 0.950 . S
C228 C229 1.386 . S
C228 C230 1.391 . S
C229 C228 1.386 . S
C229 C233 1.393 . S
C230 H219 0.950 . S
C230 C228 1.391 . S
C230 C231 1.400 . S
C231 C225 1.491 . S
C231 C230 1.400 . S
C231 C232 1.398 . S
C232 H220 0.950 . S
C232 C231 1.398 . S
C232 C233 1.391 . S
C233 H221 0.950 1_655 S
C233 C229 1.393 . S
C233 C232 1.391 . S
H234 C242 0.950 . S
H235 C247 0.950 . S
H236 C244 0.950 . S
H237 C246 0.950 . S
H238 C248 0.950 . S
H239 C250 0.950 . S
H240 C252 0.950 . S
H241 C253 0.950 . S
C242 H234 0.950 . S
C242 C243 1.386 . S
C242 C244 1.391 . S
C243 C242 1.386 . S
C243 C247 1.393 . S
C244 H236 0.950 . S
C244 C242 1.391 . S
C244 C245 1.400 . S
C245 C244 1.400 . S
C245 C246 1.398 . S
C245 C251 1.491 . S
C246 H237 0.950 . S
C246 C245 1.398 . S
C246 C247 1.391 . S
C247 H235 0.950 . S
C247 C243 1.393 . S
C247 C246 1.391 . S
C248 H238 0.950 . S
C248 C249 1.386 . S
C248 C250 1.391 . S
C249 C248 1.386 . S
C249 C253 1.393 . S
C250 H239 0.950 . S
C250 C248 1.391 . S
C250 C251 1.400 . S
C251 C245 1.491 . S
C251 C250 1.400 . S
C251 C252 1.398 . S
C252 H240 0.950 . S
C252 C251 1.398 . S
C252 C253 1.391 . S
C253 H241 0.950 . S
C253 C249 1.393 . S
C253 C252 1.391 . S
H254 C262 0.950 . S
H255 C267 0.950 . S
H256 C264 0.950 . S
H257 C266 0.950 . S
H258 C268 0.950 . S
H259 C270 0.950 . S
H260 C272 0.950 . S
H261 C273 0.950 . S
C262 H254 0.950 . S
C262 C263 1.386 . S
C262 C264 1.391 . S
C263 C262 1.386 . S
C263 C267 1.393 . S
C264 H256 0.950 . S
C264 C262 1.391 . S
C264 C265 1.400 . S
C265 C264 1.400 . S
C265 C266 1.398 . S
C265 C271 1.491 . S
C266 H257 0.950 . S
C266 C265 1.398 . S
C266 C267 1.391 . S
C267 H255 0.950 . S
C267 C263 1.393 . S
C267 C266 1.391 . S
C268 H258 0.950 . S
C268 C269 1.386 . S
C268 C270 1.391 . S
C269 C268 1.386 . S
C269 C273 1.393 . S
C270 H259 0.950 . S
C270 C268 1.391 . S
C270 C271 1.400 . S
C271 C265 1.491 . S
C271 C270 1.400 . S
C271 C272 1.398 . S
C272 H260 0.950 . S
C272 C271 1.398 . S
C272 C273 1.391 . S
C273 H261 0.950 . S
C273 C269 1.393 . S
C273 C272 1.391 . S
H274 C282 0.950 . S
H275 C287 0.950 . S
H276 C284 0.950 . S
H277 C286 0.950 . S
H278 C288 0.950 . S
H279 C290 0.950 . S
H280 C292 0.950 . S
H281 C293 0.950 . S
C282 H274 0.950 . S
C282 C283 1.386 . S
C282 C284 1.391 . S
C283 C282 1.386 . S
C283 C287 1.393 . S
C284 H276 0.950 . S
C284 C282 1.391 . S
C284 C285 1.400 . S
C285 C284 1.400 . S
C285 C286 1.398 . S
C285 C291 1.491 . S
C286 H277 0.950 . S
C286 C285 1.398 . S
C286 C287 1.391 . S
C287 H275 0.950 . S
C287 C283 1.393 . S
C287 C286 1.391 . S
C288 H278 0.950 . S
C288 C289 1.386 . S
C288 C290 1.391 . S
C289 C288 1.386 . S
C289 C293 1.393 . S
C290 H279 0.950 . S
C290 C288 1.391 . S
C290 C291 1.400 . S
C291 C285 1.491 . S
C291 C290 1.400 . S
C291 C292 1.398 . S
C292 H280 0.950 . S
C292 C291 1.398 . S
C292 C293 1.391 . S
C293 H281 0.950 . S
C293 C289 1.393 . S
C293 C292 1.391 . S
H294 C302 0.950 . S
H295 C307 0.950 . S
H296 C304 0.950 . S
H297 C306 0.950 . S
H298 C308 0.950 . S
H299 C310 0.950 . S
H300 C312 0.950 . S
H301 C313 0.950 . S
C302 H294 0.950 . S
C302 C303 1.386 . S
C302 C304 1.391 . S
C303 C302 1.386 . S
C303 C307 1.393 . S
C304 H296 0.950 . S
C304 C302 1.391 . S
C304 C305 1.400 . S
C305 C304 1.400 . S
C305 C306 1.398 . S
C305 C311 1.491 . S
C306 H297 0.950 . S
C306 C305 1.398 . S
C306 C307 1.391 . S
C307 H295 0.950 . S
C307 C303 1.393 . S
C307 C306 1.391 . S
C308 H298 0.950 . S
C308 C309 1.386 . S
C308 C310 1.391 . S
C309 C308 1.386 . S
C309 C313 1.393 . S
C310 H299 0.950 . S
C310 C308 1.391 . S
C310 C311 1.400 . S
C311 C305 1.491 . S
C311 C310 1.400 . S
C311 C312 1.398 . S
C312 H300 0.950 . S
C312 C311 1.398 . S
C312 C313 1.391 . S
C313 H301 0.950 . S
C313 C309 1.393 . S
C313 C312 1.391 . S
H314 C322 0.950 . S
H315 C327 0.950 . S
H316 C324 0.950 . S
H317 C326 0.950 . S
H318 C328 0.950 . S
H319 C330 0.950 . S
H320 C332 0.950 . S
H321 C333 0.950 . S
C322 H314 0.950 . S
C322 C323 1.386 . S
C322 C324 1.391 . S
C323 C322 1.386 . S
C323 C327 1.393 . S
C324 H316 0.950 . S
C324 C322 1.391 . S
C324 C325 1.400 . S
C325 C324 1.400 . S
C325 C326 1.398 . S
C325 C331 1.491 . S
C326 H317 0.950 . S
C326 C325 1.398 . S
C326 C327 1.391 . S
C327 H315 0.950 . S
C327 C323 1.393 . S
C327 C326 1.391 . S
C328 H318 0.950 . S
C328 C329 1.386 . S
C328 C330 1.391 . S
C329 C328 1.386 . S
C329 C333 1.393 . S
C330 H319 0.950 . S
C330 C328 1.391 . S
C330 C331 1.400 . S
C331 C325 1.491 . S
C331 C330 1.400 . S
C331 C332 1.398 . S
C332 H320 0.950 . S
C332 C331 1.398 . S
C332 C333 1.391 . S
C333 H321 0.950 . S
C333 C329 1.393 . S
C333 C332 1.391 . S
C109 C67 1.254 . S
C103 C43 1.410 . S
C123 C4 1.433 . S
C129 C91 1.265 . S
C143 C17 1.530 . S
C149 C70 1.375 . S
C163 C30 1.574 . S
C169 C88 1.376 . S
C189 C68 1.441 . S
C183 C9 1.471 . S
C209 C90 1.526 . S
C203 C21 1.581 . S
C223 C34 1.570 . S
C229 C69 1.512 . S
C243 C48 1.481 . S
C249 C89 1.427 . S
C269 C87 1.488 . S
C263 C22 1.553 . S
C289 C66 1.512 . S
C283 C35 1.567 . S
C309 C86 1.436 . S
C303 C47 1.480 . S
C323 C8 1.495 1_556 S
C329 C65 1.427 . S
