# Generated by pormake.
# Topology anh, (6,3)-cn, num edge types: 1
# Building blocks:
#     Node 0, Type 0, BuildingBlock: BETFEN_clean_sbu_0, # of connection points: 6
#     Node 1, Type 0, BuildingBlock: BETFEN_clean_sbu_0, # of connection points: 6
#     Node 2, Type 0, BuildingBlock: BETFEN_clean_sbu_0, # of connection points: 6
#     Node 3, Type 1, BuildingBlock: BELTOD_clean_linker_0, # of connection points: 3
#     Node 4, Type 1, BuildingBlock: BELTOD_clean_linker_0, # of connection points: 3
#     Node 5, Type 1, BuildingBlock: BELTOD_clean_linker_0, # of connection points: 3
#     Node 6, Type 1, BuildingBlock: BELTOD_clean_linker_0, # of connection points: 3
#     Node 7, Type 1, BuildingBlock: BELTOD_clean_linker_0, # of connection points: 3
#     Node 8, Type 1, BuildingBlock: BELTOD_clean_linker_0, # of connection points: 3
#     Edge 9, Type (0, 1), BuildingBlock: XUDNAN_clean_linker_2, # of connection points: 2
#     Edge 10, Type (0, 1), BuildingBlock: XUDNAN_clean_linker_2, # of connection points: 2
#     Edge 11, Type (0, 1), BuildingBlock: XUDNAN_clean_linker_2, # of connection points: 2
#     Edge 12, Type (0, 1), BuildingBlock: XUDNAN_clean_linker_2, # of connection points: 2
#     Edge 13, Type (0, 1), BuildingBlock: XUDNAN_clean_linker_2, # of connection points: 2
#     Edge 14, Type (0, 1), BuildingBlock: XUDNAN_clean_linker_2, # of connection points: 2
#     Edge 15, Type (0, 1), BuildingBlock: XUDNAN_clean_linker_2, # of connection points: 2
#     Edge 16, Type (0, 1), BuildingBlock: XUDNAN_clean_linker_2, # of connection points: 2
#     Edge 17, Type (0, 1), BuildingBlock: XUDNAN_clean_linker_2, # of connection points: 2
#     Edge 18, Type (0, 1), BuildingBlock: XUDNAN_clean_linker_2, # of connection points: 2
#     Edge 19, Type (0, 1), BuildingBlock: XUDNAN_clean_linker_2, # of connection points: 2
#     Edge 20, Type (0, 1), BuildingBlock: XUDNAN_clean_linker_2, # of connection points: 2
#     Edge 21, Type (0, 1), BuildingBlock: XUDNAN_clean_linker_2, # of connection points: 2
#     Edge 22, Type (0, 1), BuildingBlock: XUDNAN_clean_linker_2, # of connection points: 2
#     Edge 23, Type (0, 1), BuildingBlock: XUDNAN_clean_linker_2, # of connection points: 2
#     Edge 24, Type (0, 1), BuildingBlock: XUDNAN_clean_linker_2, # of connection points: 2
#     Edge 25, Type (0, 1), BuildingBlock: XUDNAN_clean_linker_2, # of connection points: 2
#     Edge 26, Type (0, 1), BuildingBlock: XUDNAN_clean_linker_2, # of connection points: 2
# Relax obj value: 0.180
# Max RMSD: 0.206
# Mean RMSD: 0.149
data_MOF--net-anh--node1-BETFEN_clean_sbu_0--node2-BELTOD_clean_linker_0--edge1-XUDNAN_clean_linker_2
_symmetry_space_group_name_H-M    P1
_symmetry_Int_Tables_number       1
_symmetry_cell_setting            triclinic
loop_
_symmetry_equiv_pos_as_xyz
'x, y, z'
_cell_length_a     33.928585
_cell_length_b     36.777829
_cell_length_c     61.086978
_cell_angle_alpha  90.595063
_cell_angle_beta   92.31947
_cell_angle_gamma 107.67982
loop_
_atom_site_label
_atom_site_type_symbol
_atom_site_fract_x
_atom_site_fract_y
_atom_site_fract_z
_atom_type_partial_charge
Pr0 Pr 1.01104 0.50999 0.14642 0.0
Pr1 Pr 0.05052 0.59548 0.14416 0.0
C2 C 0.96945 0.43842 0.15809 0.0
C3 C 0.92783 0.41127 0.1613 0.0
C4 C 0.90636 0.38592 0.14435 0.0
C5 C 0.86937 0.35744 0.14829 0.0
C6 C 0.85327 0.35347 0.1693 0.0
C7 C 0.87415 0.37952 0.18605 0.0
C8 C 0.911 0.40799 0.18212 0.0
C9 C 0.02125 0.53683 0.10375 0.0
C10 C 0.94859 0.56508 0.14348 0.0
C11 C 0.09324 0.66802 0.1351 0.0
C12 C 0.13235 0.69761 0.14164 0.0
C13 C 0.14637 0.7041 0.16371 0.0
C14 C 0.18232 0.73379 0.16965 0.0
C15 C 0.20509 0.75745 0.15363 0.0
C16 C 0.19143 0.75012 0.13149 0.0
C17 C 0.15539 0.72057 0.12559 0.0
C18 C 0.04144 0.56907 0.18703 0.0
C19 C 0.11231 0.53932 0.14361 0.0
O20 O 0.98291 0.46726 0.17199 0.0
O21 O 0.98095 0.44701 0.13809 0.0
O22 O 1.00874 0.55246 0.11934 0.0
O23 O 0.02793 0.50526 0.10969 0.0
O24 O 0.981 0.59254 0.13709 0.0
O25 O 0.95286 0.5324 0.15034 0.0
O26 O 0.09591 0.6386 0.1237 0.0
O27 O 0.06478 0.659 0.14963 0.0
O28 O 0.05318 0.55303 0.17133 0.0
O29 O 0.0365 0.60124 0.18119 0.0
O30 O 0.08047 0.51144 0.15011 0.0
O31 O 0.10788 0.57263 0.13809 0.0
H32 H 0.91874 0.38734 0.12821 0.0
H33 H 0.85427 0.33757 0.13509 0.0
H34 H 0.8623 0.37755 0.20234 0.0
H35 H 0.92686 0.42679 0.19561 0.0
H36 H 0.12922 0.68665 0.17642 0.0
H37 H 0.19163 0.73878 0.18686 0.0
H38 H 0.20857 0.76725 0.11868 0.0
H39 H 0.14524 0.7159 0.10846 0.0
Pr40 Pr 0.566 0.06511 0.52079 0.0
Pr41 Pr 0.47593 0.03442 0.52623 0.0
C42 C 0.64176 0.10216 0.50637 0.0
C43 C 0.66984 0.14128 0.503 0.0
C44 C 0.68698 0.16672 0.52069 0.0
C45 C 0.71467 0.20292 0.5171 0.0
C46 C 0.72594 0.21466 0.49574 0.0
C47 C 0.70843 0.1892 0.47808 0.0
C48 C 0.68087 0.15299 0.48169 0.0
C49 C 0.54547 0.05224 0.56417 0.0
C50 C 0.51357 0.13191 0.52819 0.0
C51 C 0.39732 0.9961 0.53596 0.0
C52 C 0.36756 0.958 0.53105 0.0
C53 C 0.376 0.93298 0.51568 0.0
C54 C 0.34697 0.89725 0.51075 0.0
C55 C 0.30901 0.88579 0.52119 0.0
C56 C 0.3009 0.91106 0.53662 0.0
C57 C 0.32986 0.94676 0.54147 0.0
C58 C 0.49692 0.0483 0.4829 0.0
C59 C 0.52959 0.96768 0.52337 0.0
O60 O 0.60846 0.09039 0.49343 0.0
O61 O 0.63549 0.09049 0.52647 0.0
O62 O 0.52716 0.06776 0.55051 0.0
O63 O 0.57642 0.04387 0.55586 0.0
O64 O 0.48233 0.1014 0.53347 0.0
O65 O 0.54784 0.12536 0.52128 0.0
O66 O 0.42946 0.99749 0.54891 0.0
O67 O 0.4067 1.01885 0.51941 0.0
O68 O 0.51462 0.03177 0.4963 0.0
O69 O 0.46711 0.05766 0.49161 0.0
O70 O 0.56139 0.99764 0.51805 0.0
O71 O 0.49444 0.9746 0.52832 0.0
H72 H 0.67935 0.15859 0.53735 0.0
H73 H 0.72787 0.22142 0.53116 0.0
H74 H 0.71576 0.1973 0.46139 0.0
H75 H 0.66827 0.13398 0.46774 0.0
H76 H 0.40501 0.94112 0.50747 0.0
H77 H 0.35449 0.8784 0.499 0.0
H78 H 0.27185 0.90347 0.54476 0.0
H79 H 0.32267 0.96572 0.55328 0.0
Pr80 Pr 0.50987 0.51845 0.81379 0.0
Pr81 Pr 0.52541 0.59988 0.82674 0.0
C82 C 0.4956 0.44802 0.79667 0.0
C83 C 0.51609 0.4188 0.80052 0.0
C84 C 0.49398 0.38029 0.79684 0.0
C85 C 0.51242 0.35219 0.80208 0.0
C86 C 0.55324 0.36228 0.81108 0.0
C87 C 0.57559 0.40099 0.8144 0.0
C88 C 0.55701 0.42908 0.80929 0.0
C89 C 0.51506 0.53222 0.85923 0.0
C90 C 0.6053 0.56734 0.82852 0.0
C91 C 0.52894 0.66721 0.8454 0.0
C92 C 0.50144 0.6818 0.85836 0.0
C93 C 0.51344 0.72048 0.86433 0.0
C94 C 0.48576 0.73584 0.87438 0.0
C95 C 0.44541 0.71272 0.87863 0.0
C96 C 0.43437 0.67339 0.87372 0.0
C97 C 0.46227 0.658 0.86368 0.0
C98 C 0.54589 0.59017 0.78347 0.0
C99 C 0.42728 0.54883 0.81586 0.0
O100 O 0.51749 0.47874 0.78702 0.0
O101 O 0.47559 0.45529 0.81318 0.0
O102 O 0.49582 0.54589 0.84523 0.0
O103 O 0.53282 0.50972 0.85003 0.0
O104 O 0.58818 0.59036 0.8385 0.0
O105 O 0.58284 0.54011 0.81493 0.0
O106 O 0.54419 0.64247 0.85502 0.0
O107 O 0.51667 0.6582 0.82489 0.0
O108 O 0.51343 0.57016 0.79213 0.0
O109 O 0.56827 0.61627 0.7971 0.0
O110 O 0.44126 0.52092 0.80917 0.0
O111 O 0.45287 0.58122 0.82388 0.0
H112 H 0.46232 0.37196 0.79021 0.0
H113 H 0.49474 0.32252 0.79906 0.0
H114 H 0.60699 0.40947 0.82141 0.0
H115 H 0.57435 0.45879 0.81251 0.0
H116 H 0.54359 0.73916 0.86034 0.0
H117 H 0.49519 0.76641 0.8774 0.0
H118 H 0.40365 0.65492 0.87679 0.0
H119 H 0.45277 0.62789 0.85933 0.0
P120 P 0.57963 1.01147 0.25606 0.0
H121 H 0.55345 1.00753 0.2095 0.0
H122 H 0.49011 0.97119 0.18909 0.0
H123 H 0.43813 0.92185 0.24936 0.0
H124 H 0.50192 0.95774 0.26958 0.0
H125 H 0.66706 0.04682 0.24786 0.0
H126 H 0.70453 0.10581 0.23028 0.0
H127 H 0.58984 0.13231 0.21893 0.0
H128 H 0.55242 0.07285 0.23651 0.0
H129 H 0.62486 1.0113 0.29785 0.0
H130 H 0.51587 0.03907 0.275 0.0
O131 O 0.60907 0.98243 0.25668 0.0
H132 H 0.6133 0.02763 0.33543 0.0
H133 H 0.50297 0.05397 0.31256 0.0
C134 C 0.53186 0.98646 0.24119 0.0
C135 C 0.52819 0.98939 0.21839 0.0
C136 C 0.49191 0.96854 0.20671 0.0
C137 C 0.45881 0.94386 0.2176 0.0
C138 C 0.46302 0.94046 0.24043 0.0
C139 C 0.49933 0.96135 0.25207 0.0
C140 C 0.60686 0.05508 0.24303 0.0
C141 C 0.64991 0.06519 0.2415 0.0
C142 C 0.67136 0.09912 0.2316 0.0
C143 C 0.65014 0.12371 0.22312 0.0
C144 C 0.60698 0.11371 0.225 0.0
C145 C 0.58559 0.07983 0.23507 0.0
C146 C 0.57067 1.02315 0.28374 0.0
C147 C 0.59813 1.0205 0.30098 0.0
C148 C 0.59136 0.02969 0.32249 0.0
C149 C 0.55702 0.0419 0.32715 0.0
C150 C 0.52999 0.04511 0.30965 0.0
C151 C 0.53704 0.0362 0.28815 0.0
P152 P 0.54204 0.55601 0.54582 0.0
H153 H 0.5777 0.50407 0.51841 0.0
H154 H 0.56874 0.4354 0.51616 0.0
H155 H 0.46633 0.41554 0.55853 0.0
H156 H 0.47497 0.48366 0.56027 0.0
H157 H 0.49288 0.60692 0.56615 0.0
H158 H 0.49247 0.6728 0.56081 0.0
H159 H 0.5632 0.67808 0.50346 0.0
H160 H 0.56399 0.61269 0.50898 0.0
H161 H 0.61295 0.57159 0.57773 0.0
H162 H 0.48021 0.54326 0.5801 0.0
O163 O 0.59096 0.56915 0.53814 0.0
H164 H 0.6195 0.57755 0.61735 0.0
H165 H 0.48672 0.551 0.62011 0.0
C166 C 0.52659 0.50164 0.53915 0.0
C167 C 0.55232 0.48528 0.52689 0.0
C168 C 0.5475 0.44484 0.52582 0.0
C169 C 0.5165 0.41716 0.53699 0.0
C170 C 0.49042 0.43367 0.54901 0.0
C171 C 0.49528 0.47404 0.55006 0.0
C172 C 0.52822 0.60195 0.538 0.0
C173 C 0.5078 0.62125 0.55202 0.0
C174 C 0.50766 0.66025 0.54896 0.0
C175 C 0.52851 0.68338 0.53182 0.0
C176 C 0.5473 0.66341 0.51733 0.0
C177 C 0.54714 0.62454 0.5203 0.0
C178 C 0.54608 0.55786 0.57566 0.0
C179 C 0.58504 0.56686 0.58669 0.0
C180 C 0.58881 0.57053 0.60955 0.0
C181 C 0.55375 0.5657 0.62212 0.0
C182 C 0.51448 0.55497 0.6111 0.0
C183 C 0.51073 0.55082 0.58814 0.0
P184 P 0.03329 0.58657 0.86914 0.0
H185 H 0.04679 0.5535 0.82659 0.0
H186 H 0.10729 0.53793 0.81306 0.0
H187 H 0.16602 0.55993 0.87791 0.0
H188 H 0.1064 0.57558 0.89109 0.0
H189 H 0.9973 0.61711 0.83204 0.0
H190 H 0.92588 0.61437 0.82239 0.0
H191 H 0.88202 0.52472 0.86854 0.0
H192 H 0.95381 0.52772 0.8784 0.0
H193 H 0.03647 0.64288 0.90378 0.0
H194 H 0.02022 0.52213 0.89916 0.0
O195 O 0.05452 0.63283 0.86421 0.0
H196 H 0.0315 0.63911 0.94326 0.0
H197 H 1.013 0.51756 0.93891 0.0
C198 C 0.07117 0.56452 0.86005 0.0
C199 C 0.07212 0.55372 0.83801 0.0
C200 C 0.10693 0.5451 0.83027 0.0
C201 C 0.14184 0.54801 0.84435 0.0
C202 C 0.14008 0.55783 0.86651 0.0
C203 C 0.10542 0.56614 0.87418 0.0
C204 C 0.98136 0.57318 0.85629 0.0
C205 C 0.97248 0.59596 0.83966 0.0
C206 C 0.9315 0.5945 0.83419 0.0
C207 C 0.89829 0.56974 0.84495 0.0
C208 C 0.9069 0.54409 0.85995 0.0
C209 C 0.94811 0.54586 0.86562 0.0
C210 C 0.02901 0.58284 0.8985 0.0
C211 C 0.03164 0.61541 0.91126 0.0
C212 C 0.02833 0.6131 0.93394 0.0
C213 C 0.02147 0.57794 0.94442 0.0
C214 C 0.01875 0.5452 0.93152 0.0
C215 C 0.02253 0.54768 0.90876 0.0
P216 P 0.06292 0.52783 0.42159 0.0
H217 H 0.10348 0.54361 0.46475 0.0
H218 H 0.13746 0.60235 0.48581 0.0
H219 H 0.09974 0.66778 0.43532 0.0
H220 H 0.06486 0.60854 0.41446 0.0
H221 H 0.0442 0.4472 0.43236 0.0
H222 H 0.98484 0.40131 0.44783 0.0
H223 H 0.92401 0.48857 0.4524 0.0
H224 H 0.9846 0.53487 0.43737 0.0
H225 H 0.10622 0.58192 0.38901 0.0
H226 H 0.99685 0.48424 0.39035 0.0
O227 O 0.10131 0.50823 0.42201 0.0
H228 H 0.09706 0.58356 0.34907 0.0
H229 H 0.98859 0.48509 0.35048 0.0
C230 C 0.0823 0.57161 0.43782 0.0
C231 C 0.10205 0.57053 0.4583 0.0
C232 C 0.12146 0.60419 0.47035 0.0
C233 C 0.12172 0.63985 0.46215 0.0
C234 C 0.1007 0.64082 0.44191 0.0
C235 C 0.08072 0.60692 0.42997 0.0
C236 C 0.01917 0.49469 0.43403 0.0
C237 C 0.01834 0.45668 0.43688 0.0
C238 C 0.98399 0.43022 0.44553 0.0
C239 C 0.94934 0.44101 0.45135 0.0
C240 C 0.95028 0.47926 0.4484 0.0
C241 C 0.98485 0.5058 0.43976 0.0
C242 C 0.05144 0.53383 0.39291 0.0
C243 C 0.07948 0.56163 0.38087 0.0
C244 C 0.07442 0.56241 0.35801 0.0
C245 C 0.04204 0.53453 0.34672 0.0
C246 C 1.01375 0.50699 0.3588 0.0
C247 C 0.01835 0.50669 0.38166 0.0
P248 P 0.54109 0.98685 0.79523 0.0
H249 H 0.61913 0.03784 0.81515 0.0
H250 H 0.64009 0.10567 0.82626 0.0
H251 H 0.51901 0.11106 0.80485 0.0
H252 H 0.49839 0.04376 0.79409 0.0
H253 H 0.47827 0.91384 0.78562 0.0
H254 H 0.42181 0.8747 0.80653 0.0
H255 H 0.4478 0.96353 0.85674 0.0
H256 H 0.50492 1.00211 0.836 0.0
H257 H 0.59701 0.99871 0.75945 0.0
H258 H 0.46646 0.97884 0.76709 0.0
O259 O 0.57845 0.96717 0.80106 0.0
H260 H 0.58787 1.00856 0.7204 0.0
H261 H 0.45648 0.98658 0.72787 0.0
C262 C 0.55711 0.03596 0.80402 0.0
C263 C 0.59712 0.05368 0.81305 0.0
C264 C 0.60907 0.09233 0.81934 0.0
C265 C 0.58098 0.11341 0.81673 0.0
C266 C 0.54101 0.09533 0.80758 0.0
C267 C 0.52927 0.05699 0.80124 0.0
C268 C 0.49545 0.96107 0.80903 0.0
C269 C 0.47111 0.9253 0.80084 0.0
C270 C 0.43846 0.90315 0.81273 0.0
C271 C 0.42992 0.9162 0.83324 0.0
C272 C 0.45342 0.95279 0.84097 0.0
C273 C 0.48613 0.97488 0.82906 0.0
C274 C 0.53228 0.98699 0.76604 0.0
C275 C 0.56613 0.99526 0.75256 0.0
C276 C 0.56078 1.0008 0.73019 0.0
C277 C 0.52136 0.99823 0.72088 0.0
C278 C 0.48735 0.98919 0.73447 0.0
C279 C 0.49288 0.98413 0.75689 0.0
P280 P 0.51542 0.50416 0.09498 0.0
H281 H 0.56087 0.487 0.13335 0.0
H282 H 0.63458 0.50727 0.14456 0.0
H283 H 0.65807 0.59161 0.09411 0.0
H284 H 0.58476 0.57173 0.08332 0.0
H285 H 0.43626 0.45037 0.1051 0.0
H286 H 0.3716 0.45649 0.11728 0.0
H287 H 0.42511 0.57895 0.12183 0.0
H288 H 0.49127 0.57253 0.10944 0.0
H289 H 0.51906 0.45876 0.05576 0.0
H290 H 0.50965 0.57074 0.07022 0.0
O291 O 0.51022 0.45767 0.09689 0.0
H292 H 0.51618 0.47055 0.01676 0.0
H293 H 0.50902 0.58373 0.03112 0.0
C294 C 0.56676 0.52767 0.10742 0.0
C295 C 0.58169 0.51059 0.12508 0.0
C296 C 0.62413 0.52184 0.13128 0.0
C297 C 0.65279 0.55076 0.12008 0.0
C298 C 0.63724 0.56938 0.10328 0.0
C299 C 0.59487 0.55799 0.09705 0.0
C300 C 0.4695 0.51086 0.10686 0.0
C301 C 0.43488 0.47868 0.10908 0.0
C302 C 0.39745 0.48222 0.11603 0.0
C303 C 0.39294 0.51819 0.12084 0.0
C304 C 0.4274 0.55077 0.11828 0.0
C305 C 0.46539 0.54711 0.11141 0.0
C306 C 0.51407 0.5137 0.06601 0.0
C307 C 0.51657 0.48606 0.05058 0.0
C308 C 0.51542 0.49305 0.02814 0.0
C309 C 0.51238 0.52816 0.02057 0.0
C310 C 0.51054 0.55605 0.03618 0.0
C311 C 0.51109 0.54877 0.05864 0.0
H312 H 0.1825 0.57909 0.12154 0.0
H313 H 0.13679 0.48532 0.16568 0.0
H314 H 0.20436 0.47343 0.16624 0.0
H315 H 0.24129 0.53279 0.08966 0.0
H316 H 0.28351 0.57554 0.08571 0.0
H317 H 0.23228 0.57865 0.08961 0.0
H318 H 0.26077 0.62599 0.12227 0.0
H319 H 0.3121 0.6229 0.11853 0.0
H320 H 0.28912 0.61251 0.14473 0.0
H321 H 0.27589 0.47047 0.16207 0.0
H322 H 0.34589 0.47354 0.15133 0.0
H323 H 0.34741 0.56735 0.10849 0.0
C324 C 0.18687 0.55626 0.13144 0.0
C325 C 0.15401 0.53322 0.14364 0.0
C326 C 0.16108 0.50335 0.15614 0.0
C327 C 0.19957 0.49644 0.15666 0.0
C328 C 0.23111 0.51941 0.14447 0.0
C329 C 0.22528 0.54856 0.13194 0.0
C330 C 0.26413 0.56759 0.11955 0.0
C331 C 0.25473 0.56338 0.09466 0.0
C332 C 0.28262 0.60975 0.1267 0.0
C333 C 0.29242 0.54435 0.127 0.0
C334 C 0.27262 0.51702 0.14156 0.0
C335 C 0.29163 0.49166 0.15061 0.0
C336 C 0.33148 0.49356 0.14431 0.0
C337 C 0.35236 0.5204 0.12887 0.0
C338 C 0.33262 0.54667 0.12043 0.0
H339 H 0.78713 0.23373 0.46565 0.0
H340 H 0.73319 0.28291 0.51709 0.0
H341 H 0.78367 0.34598 0.51124 0.0
H342 H 0.89228 0.28843 0.47735 0.0
H343 H 0.90537 0.29384 0.44901 0.0
H344 H 0.86483 0.25262 0.45716 0.0
H345 H 0.8135 0.26812 0.42892 0.0
H346 H 0.85393 0.30934 0.42063 0.0
H347 H 0.80603 0.31459 0.42972 0.0
H348 H 0.84114 0.40405 0.49994 0.0
H349 H 0.90062 0.45176 0.48431 0.0
H350 H 0.91485 0.36502 0.43924 0.0
C351 C 0.78547 0.25777 0.47554 0.0
C352 C 0.75602 0.25306 0.49191 0.0
C353 C 0.7557 0.28542 0.50469 0.0
C354 C 0.78412 0.32151 0.50138 0.0
C355 C 0.81271 0.32502 0.48515 0.0
C356 C 0.8135 0.29401 0.47241 0.0
C357 C 0.84746 0.30534 0.45613 0.0
C358 C 0.87937 0.28378 0.46016 0.0
C359 C 0.82913 0.29897 0.43245 0.0
C360 C 0.86589 0.3475 0.4618 0.0
C361 C 0.84539 0.35837 0.47855 0.0
C362 C 0.85723 0.39586 0.48673 0.0
C363 C 0.89096 0.42287 0.47762 0.0
C364 C 0.91264 0.41239 0.46048 0.0
C365 C 0.89949 0.37408 0.45249 0.0
H366 H 0.45397 0.77179 0.90745 0.0
H367 H 0.36656 0.69683 0.861 0.0
H368 H 0.32992 0.74418 0.85648 0.0
H369 H 0.37863 0.83706 0.92215 0.0
H370 H 0.42433 0.878 0.92325 0.0
H371 H 0.42665 0.83312 0.93397 0.0
H372 H 0.48737 0.83565 0.90927 0.0
H373 H 0.48509 0.87978 0.8986 0.0
H374 H 0.48063 0.84006 0.88004 0.0
H375 H 0.326 0.80365 0.84269 0.0
H376 H 0.35429 0.86334 0.82318 0.0
H377 H 0.44632 0.90558 0.87592 0.0
C378 C 0.42564 0.76491 0.89734 0.0
C379 C 0.41377 0.73133 0.88417 0.0
C380 C 0.37641 0.72239 0.87128 0.0
C381 C 0.3553 0.74945 0.8686 0.0
C382 C 0.37183 0.78522 0.87897 0.0
C383 C 0.40552 0.7926 0.89387 0.0
C384 C 0.42454 0.83517 0.89818 0.0
C385 C 0.4128 0.84649 0.92072 0.0
C386 C 0.47213 0.84834 0.89633 0.0
C387 C 0.40247 0.8503 0.88005 0.0
C388 C 0.36986 0.82138 0.87038 0.0
C389 C 0.35046 0.82669 0.85057 0.0
C390 C 0.36694 0.86066 0.83944 0.0
C391 C 0.40278 0.88877 0.84801 0.0
C392 C 0.4184 0.88476 0.8693 0.0
H393 H 0.8713 0.5105 0.14487 0.0
H394 H 0.93038 0.63182 0.13706 0.0
H395 H 0.8618 0.64143 0.132 0.0
H396 H 0.79036 0.5012 0.10381 0.0
H397 H 0.75118 0.46708 0.11847 0.0
H398 H 0.80482 0.46975 0.12281 0.0
H399 H 0.79989 0.48018 0.16444 0.0
H400 H 0.7462 0.47758 0.16024 0.0
H401 H 0.78205 0.51875 0.17398 0.0
H402 H 0.78671 0.63809 0.12676 0.0
H403 H 0.71097 0.62179 0.12087 0.0
H404 H 0.69931 0.50231 0.13082 0.0
C405 C 0.86982 0.53917 0.14236 0.0
C406 C 0.90658 0.57045 0.1415 0.0
C407 C 0.90297 0.60735 0.13783 0.0
C408 C 0.86402 0.61315 0.13496 0.0
C409 C 0.82853 0.58179 0.1357 0.0
C410 C 0.83098 0.54547 0.13927 0.0
C411 C 0.78793 0.51651 0.13842 0.0
C412 C 0.78331 0.48689 0.11976 0.0
C413 C 0.77847 0.49711 0.16059 0.0
C414 C 0.761 0.5422 0.13369 0.0
C415 C 0.78513 0.57977 0.13233 0.0
C416 C 0.76755 0.60872 0.12777 0.0
C417 C 0.72434 0.5991 0.1243 0.0
C418 C 0.69868 0.5607 0.12525 0.0
C419 C 0.71763 0.53202 0.13024 0.0
H420 H 0.28546 0.8485 0.48097 0.0
H421 H 0.26266 0.83627 0.55033 0.0
H422 H 0.21079 0.77358 0.54256 0.0
H423 H 0.17971 0.8042 0.46119 0.0
H424 H 0.19351 0.7806 0.43803 0.0
H425 H 0.22869 0.82485 0.44888 0.0
H426 H 0.28651 0.79273 0.45404 0.0
H427 H 0.2516 0.74845 0.44309 0.0
H428 H 0.27695 0.74991 0.46973 0.0
H429 H 0.16238 0.71152 0.5275 0.0
H430 H 0.12109 0.65426 0.50616 0.0
H431 H 0.17475 0.70611 0.44646 0.0
C432 C 0.26975 0.83255 0.49455 0.0
C433 C 0.27812 0.84758 0.51629 0.0
C434 C 0.25645 0.8258 0.53351 0.0
C435 C 0.22702 0.79001 0.52928 0.0
C436 C 0.21935 0.77621 0.50769 0.0
C437 C 0.24006 0.79675 0.49059 0.0
C438 C 0.2261 0.77518 0.46891 0.0
C439 C 0.20579 0.79755 0.45333 0.0
C440 C 0.26245 0.76602 0.45832 0.0
C441 C 0.19451 0.73923 0.47652 0.0
C442 C 0.19113 0.74047 0.49897 0.0
C443 C 0.16472 0.71028 0.50991 0.0
C444 C 0.14146 0.67781 0.49766 0.0
C445 C 0.14457 0.67564 0.47464 0.0
C446 C 0.17122 0.70708 0.46398 0.0
H447 H 0.51815 0.29786 0.83344 0.0
H448 H 0.63009 0.35858 0.80142 0.0
H449 H 0.657 0.30375 0.80687 0.0
H450 H 0.56727 0.24308 0.87276 0.0
H451 H 0.52237 0.20151 0.86968 0.0
H452 H 0.51662 0.24858 0.86798 0.0
H453 H 0.47876 0.23059 0.82984 0.0
H454 H 0.48438 0.18374 0.83142 0.0
H455 H 0.50388 0.21315 0.80844 0.0
H456 H 0.66478 0.23838 0.80883 0.0
H457 H 0.65223 0.1686 0.80669 0.0
H458 H 0.53605 0.15107 0.8383 0.0
C459 C 0.54879 0.29992 0.82809 0.0
C460 C 0.57208 0.33221 0.817 0.0
C461 C 0.612 0.33411 0.81016 0.0
C462 C 0.62753 0.30317 0.81324 0.0
C463 C 0.60302 0.27101 0.82354 0.0
C464 C 0.56466 0.26944 0.83111 0.0
C465 C 0.54194 0.23015 0.83897 0.0
C466 C 0.53677 0.23089 0.86383 0.0
C467 C 0.4998 0.21345 0.8264 0.0
C468 C 0.57217 0.2091 0.83322 0.0
C469 C 0.60773 0.23326 0.82486 0.0
C470 C 0.63767 0.21935 0.81593 0.0
C471 C 0.63036 0.1797 0.81481 0.0
C472 C 0.59319 0.15464 0.82235 0.0
C473 C 0.56478 0.16971 0.8325 0.0
H474 H 0.47567 0.89388 0.53774 0.0
H475 H 0.59439 0.94379 0.50915 0.0
H476 H 0.60543 0.88059 0.5083 0.0
H477 H 0.50902 0.82527 0.5723 0.0
H478 H 0.46109 0.78703 0.56857 0.0
H479 H 0.46117 0.83598 0.56682 0.0
H480 H 0.42519 0.82174 0.52834 0.0
H481 H 0.42498 0.77274 0.52999 0.0
H482 H 0.44826 0.80118 0.50735 0.0
H483 H 0.60471 0.80908 0.51004 0.0
H484 H 0.59355 0.74061 0.51494 0.0
H485 H 0.4758 0.73079 0.54345 0.0
C486 C 0.5041 0.89177 0.53124 0.0
C487 C 0.53408 0.92593 0.5234 0.0
C488 C 0.57049 0.91984 0.51529 0.0
C489 C 0.57716 0.88328 0.51472 0.0
C490 C 0.54751 0.85086 0.52246 0.0
C491 C 0.51159 0.8547 0.53071 0.0
C492 C 0.48517 0.81468 0.53825 0.0
C493 C 0.4787 0.81581 0.56296 0.0
C494 C 0.4434 0.80182 0.52522 0.0
C495 C 0.51158 0.78793 0.53298 0.0
C496 C 0.54737 0.80981 0.52373 0.0
C497 C 0.57654 0.79219 0.51722 0.0
C498 C 0.56955 0.75222 0.51999 0.0
C499 C 0.53339 0.72772 0.52942 0.0
C500 C 0.5041 0.74708 0.53616 0.0
H501 H 0.64984 0.51568 0.8235 0.0
H502 H 0.66366 0.63347 0.84169 0.0
H503 H 0.73895 0.64605 0.84722 0.0
H504 H 0.72724 0.50449 0.86374 0.0
H505 H 0.74628 0.47456 0.84614 0.0
H506 H 0.69323 0.4745 0.84288 0.0
H507 H 0.70379 0.49139 0.80212 0.0
H508 H 0.7569 0.49159 0.80521 0.0
H509 H 0.74499 0.53303 0.795 0.0
H510 H 0.81262 0.64727 0.84951 0.0
H511 H 0.88056 0.63581 0.85145 0.0
H512 H 0.82135 0.51628 0.8344 0.0
C513 C 0.6688 0.54411 0.8286 0.0
C514 C 0.65068 0.57368 0.83206 0.0
C515 C 0.67658 0.61033 0.83898 0.0
C516 C 0.71951 0.61782 0.8421 0.0
C517 C 0.7364 0.58826 0.83856 0.0
C518 C 0.71197 0.55198 0.83223 0.0
C519 C 0.73835 0.52521 0.83034 0.0
C520 C 0.7255 0.49277 0.84676 0.0
C521 C 0.73585 0.50938 0.80676 0.0
C522 C 0.78137 0.55228 0.8364 0.0
C523 C 0.77928 0.58857 0.84084 0.0
C524 C 0.81463 0.61894 0.84619 0.0
C525 C 0.85315 0.61219 0.84713 0.0
C526 C 0.85641 0.57525 0.84301 0.0
C527 C 0.81984 0.54479 0.8377 0.0
H528 H 0.26576 0.76057 0.1857 0.0
H529 H 0.22834 0.82894 0.13621 0.0
H530 H 0.28938 0.88353 0.14681 0.0
H531 H 0.30129 0.83598 0.2266 0.0
H532 H 0.344 0.82029 0.23658 0.0
H533 H 0.2979 0.78615 0.22472 0.0
H534 H 0.34194 0.76385 0.19689 0.0
H535 H 0.38818 0.79788 0.20868 0.0
H536 H 0.37548 0.79842 0.17977 0.0
H537 H 0.3541 0.9311 0.16309 0.0
H538 H 0.41773 0.96814 0.18396 0.0
H539 H 0.41257 0.86904 0.22308 0.0
C540 C 0.27018 0.78706 0.17716 0.0
C541 C 0.24222 0.79026 0.16 0.0
C542 C 0.2496 0.82543 0.14912 0.0
C543 C 0.28407 0.85675 0.15513 0.0
C544 C 0.31089 0.85259 0.17211 0.0
C545 C 0.30435 0.81867 0.18299 0.0
C546 C 0.33772 0.82182 0.2008 0.0
C547 C 0.3191 0.8157 0.22352 0.0
C548 C 0.36228 0.79383 0.19626 0.0
C549 C 0.36403 0.86284 0.19823 0.0
C550 C 0.34804 0.88006 0.18158 0.0
C551 C 0.36698 0.91787 0.17612 0.0
C552 C 0.40325 0.93861 0.188 0.0
C553 C 0.42027 0.92156 0.20516 0.0
C554 C 0.40017 0.88311 0.21026 0.0
H555 H 0.57054 0.20851 0.52063 0.0
H556 H 0.44587 0.15281 0.54069 0.0
H557 H 0.43438 0.2155 0.5445 0.0
H558 H 0.59064 0.29342 0.55765 0.0
H559 H 0.61921 0.32707 0.53839 0.0
H560 H 0.61869 0.27793 0.53689 0.0
H561 H 0.59197 0.27314 0.49657 0.0
H562 H 0.59238 0.32227 0.49793 0.0
H563 H 0.54549 0.28531 0.48952 0.0
H564 H 0.4346 0.28683 0.54607 0.0
H565 H 0.44643 0.3558 0.54579 0.0
H566 H 0.57188 0.37216 0.52574 0.0
C567 C 0.54068 0.20923 0.52585 0.0
C568 C 0.50914 0.17356 0.53028 0.0
C569 C 0.47102 0.17793 0.53706 0.0
C570 C 0.46405 0.21418 0.53931 0.0
C571 C 0.49524 0.2481 0.53488 0.0
C572 C 0.53304 0.24605 0.52829 0.0
C573 C 0.56116 0.28757 0.52472 0.0
C574 C 0.59974 0.29706 0.54033 0.0
C575 C 0.57351 0.29235 0.50076 0.0
C576 C 0.53349 0.31305 0.53028 0.0
C577 C 0.49552 0.28922 0.53607 0.0
C578 C 0.46456 0.30527 0.54172 0.0
C579 C 0.472 0.34566 0.5417 0.0
C580 C 0.51059 0.37228 0.5362 0.0
C581 C 0.54169 0.35443 0.53019 0.0
H582 H 0.38717 0.59248 0.8372 0.0
H583 H 0.36387 0.49188 0.79499 0.0
H584 H 0.28838 0.48159 0.79647 0.0
H585 H 0.30309 0.55362 0.87207 0.0
H586 H 0.29265 0.59847 0.8757 0.0
H587 H 0.34418 0.59786 0.87021 0.0
H588 H 0.34432 0.64055 0.83627 0.0
H589 H 0.29297 0.64111 0.84239 0.0
H590 H 0.30278 0.62536 0.81567 0.0
H591 H 0.21419 0.48227 0.80322 0.0
H592 H 0.14957 0.49228 0.81572 0.0
H593 H 0.22245 0.59144 0.85418 0.0
C594 C 0.36635 0.56846 0.82804 0.0
C595 C 0.38174 0.54317 0.8158 0.0
C596 C 0.35305 0.51179 0.8044 0.0
C597 C 0.31004 0.50573 0.80514 0.0
C598 C 0.29599 0.53111 0.8175 0.0
C599 C 0.32344 0.56176 0.82881 0.0
C600 C 0.30071 0.5841 0.84161 0.0
C601 C 0.31076 0.58347 0.86636 0.0
C602 C 0.31077 0.62522 0.8335 0.0
C603 C 0.25609 0.56131 0.8358 0.0
C604 C 0.25387 0.53097 0.82175 0.0
C605 C 0.21573 0.50597 0.81421 0.0
C606 C 0.17911 0.51196 0.82133 0.0
C607 C 0.18069 0.54248 0.83606 0.0
C608 C 0.21995 0.56749 0.84318 0.0
H609 H 0.84241 0.30799 0.20514 0.0
H610 H 0.78093 0.32504 0.14419 0.0
H611 H 0.72076 0.26944 0.15187 0.0
H612 H 0.81006 0.20724 0.20226 0.0
H613 H 0.80339 0.20139 0.23127 0.0
H614 H 0.84041 0.24354 0.22144 0.0
H615 H 0.8049 0.28607 0.24211 0.0
H616 H 0.76781 0.24402 0.25208 0.0
H617 H 0.75024 0.27866 0.23718 0.0
H618 H 0.66788 0.21069 0.1661 0.0
H619 H 0.62794 0.15282 0.18498 0.0
H620 H 0.72454 0.17516 0.23658 0.0
C621 C 0.81602 0.30049 0.19357 0.0
C622 C 0.81626 0.32104 0.17412 0.0
C623 C 0.7815 0.30961 0.15914 0.0
C624 C 0.74712 0.27822 0.16343 0.0
C625 C 0.74803 0.25853 0.18275 0.0
C626 C 0.78163 0.26926 0.19755 0.0
C627 C 0.77572 0.24266 0.21671 0.0
C628 C 0.80939 0.22252 0.21798 0.0
C629 C 0.77459 0.26414 0.2383 0.0
C630 C 0.73371 0.21494 0.21029 0.0
C631 C 0.71802 0.2247 0.19075 0.0
C632 C 0.67981 0.20293 0.18146 0.0
C633 C 0.65726 0.17021 0.19235 0.0
C634 C 0.67312 0.15942 0.21224 0.0
C635 C 0.71174 0.1824 0.2213 0.0
H636 H 0.04836 0.50881 0.06713 0.0
H637 H 0.98874 0.59124 0.08849 0.0
H638 H 0.98139 0.60949 0.05019 0.0
H639 H 0.10627 0.56746 0.02458 0.0
H640 H 0.10075 0.52768 0.00597 0.0
H641 H 0.10114 0.52071 0.03511 0.0
H642 H 0.03047 0.46784 0.03053 0.0
H643 H 0.02972 0.47483 0.00139 0.0
H644 H 0.98716 0.47853 0.01706 0.0
H645 H 0.9777 0.6171 0.00982 0.0
H646 H 0.98272 0.61748 0.96979 0.0
H647 H 0.04868 0.53311 0.97406 0.0
C648 C 0.03386 0.53073 0.06369 0.0
C649 C 0.0189 0.54847 0.08075 0.0
C650 C 1.00037 0.57724 0.07568 0.0
C651 C 0.99595 0.58775 0.05396 0.0
C652 C 1.01059 0.56952 0.03749 0.0
C653 C 0.0296 0.54194 0.04204 0.0
C654 C 0.04335 0.52754 0.02118 0.0
C655 C 0.09069 0.53639 0.02175 0.0
C656 C 0.02136 0.48464 0.01732 0.0
C657 C 0.02878 0.55114 0.00425 0.0
C658 C 1.00976 0.57495 0.01407 0.0
C659 C 0.99304 0.59897 0.00194 0.0
C660 C 0.99635 0.59915 0.97916 0.0
C661 C 0.01669 0.57579 0.96862 0.0
C662 C 0.03277 0.55121 0.98147 0.0
H663 H 0.5366 1.01066 0.4565 0.0
H664 H 0.47976 0.10155 0.45722 0.0
H665 H 0.4934 0.11261 0.41809 0.0
H666 H 0.61637 0.05307 0.41733 0.0
H667 H 0.61134 1.00801 0.40378 0.0
H668 H 0.60085 1.0095 0.43241 0.0
H669 H 0.52779 0.96153 0.42465 0.0
H670 H 0.53804 0.95988 0.39604 0.0
H671 H 0.4933 0.97236 0.40429 0.0
H672 H 0.51069 0.11254 0.37886 0.0
H673 H 0.52752 0.09938 0.34134 0.0
H674 H 0.56896 1.00553 0.36508 0.0
C675 C 0.52767 0.03323 0.44843 0.0
C676 C 0.50738 0.05546 0.45982 0.0
C677 C 0.49536 0.08425 0.44872 0.0
C678 C 0.50311 0.09084 0.42654 0.0
C679 C 0.5226 0.06815 0.41563 0.0
C680 C 0.53455 0.03977 0.42611 0.0
C681 C 0.55224 1.01773 0.4101 0.0
C682 C 0.59792 1.02237 0.41627 0.0
C683 C 0.52628 0.97537 0.40869 0.0
C684 C 0.5479 0.03789 0.38901 0.0
C685 C 0.53122 0.06718 0.39267 0.0
C686 C 0.52367 0.0896 0.37575 0.0
C687 C 0.53301 0.08166 0.35443 0.0
C688 C 0.54927 0.05119 0.35009 0.0
C689 C 0.55708 0.02932 0.36777 0.0
H690 H 0.49876 0.54311 0.74988 0.0
H691 H 0.61125 0.63699 0.76333 0.0
H692 H 0.62491 0.6402 0.72404 0.0
H693 H 0.53998 0.49783 0.70644 0.0
H694 H 0.49222 0.48395 0.69001 0.0
H695 H 0.49116 0.48826 0.71938 0.0
H696 H 0.44867 0.5357 0.71491 0.0
H697 H 0.44979 0.53169 0.68554 0.0
H698 H 0.46858 0.57792 0.69907 0.0
H699 H 0.62555 0.63572 0.68358 0.0
H700 H 0.61503 0.62193 0.64401 0.0
H701 H 0.50353 0.52898 0.65544 0.0
C702 C 0.52632 0.56417 0.74451 0.0
C703 C 0.55387 0.58995 0.75973 0.0
C704 C 0.58962 0.61705 0.75205 0.0
C705 C 0.59768 0.61912 0.72972 0.0
C706 C 0.56985 0.59375 0.71511 0.0
C707 C 0.53502 0.56658 0.7221 0.0
C708 C 0.51035 0.54288 0.70271 0.0
C709 C 0.50832 0.50073 0.70476 0.0
C710 C 0.46676 0.54733 0.70043 0.0
C711 C 0.53664 0.5613 0.68382 0.0
C712 C 0.57074 0.59059 0.69148 0.0
C713 C 0.59926 0.6125 0.67738 0.0
C714 C 0.59312 0.60417 0.65485 0.0
C715 C 0.55884 0.57386 0.64637 0.0
C716 C 0.53007 0.55235 0.66121 0.0
H717 H 0.57769 1.01456 0.59495 0.0
H718 H 0.48798 0.07618 0.58516 0.0
H719 H 0.46996 0.0669 0.62396 0.0
H720 H 0.51701 0.9445 0.63182 0.0
H721 H 0.56163 0.94319 0.64846 0.0
H722 H 0.56671 0.95398 0.61982 0.0
H723 H 0.62442 1.01719 0.62981 0.0
H724 H 0.6195 1.00663 0.65847 0.0
H725 H 0.6141 0.05097 0.6486 0.0
H726 H 0.46439 0.05369 0.66413 0.0
H727 H 0.47057 0.03662 0.70273 0.0
H728 H 0.5614 0.98059 0.68581 0.0
C729 C 0.5542 0.02601 0.60099 0.0
C730 C 0.53434 0.04624 0.58719 0.0
C731 C 0.5036 0.06067 0.59555 0.0
C732 C 0.49314 0.0555 0.61752 0.0
C733 C 0.51346 0.03556 0.63077 0.0
C734 C 0.54316 1.02085 0.6228 0.0
C735 C 0.56061 1.00083 0.6405 0.0
C736 C 0.55089 0.95809 0.63481 0.0
C737 C 0.60743 1.02007 0.64458 0.0
C738 C 0.53658 1.00714 0.65977 0.0
C739 C 0.5095 0.02715 0.6538 0.0
C740 C 0.48507 0.03755 0.66895 0.0
C741 C 0.4886 0.02744 0.69084 0.0
C742 C 0.51623 1.00694 0.69739 0.0
C743 C 0.54018 0.99646 0.68147 0.0
H744 H 0.55203 0.50349 0.8932 0.0
H745 H 0.47219 0.57365 0.87911 0.0
H746 H 0.4647 0.58184 0.91864 0.0
H747 H 0.49768 0.45503 0.9384 0.0
H748 H 0.54346 0.45472 0.95434 0.0
H749 H 0.54404 0.45535 0.92488 0.0
H750 H 0.60733 0.5164 0.92711 0.0
H751 H 0.60705 0.51587 0.95659 0.0
H752 H 0.60436 0.55773 0.94228 0.0
H753 H 0.46235 0.57949 0.95942 0.0
H754 H 0.4673 0.56874 -0.00101 0.0
H755 H 0.55167 0.50293 0.98734 0.0
C756 C 0.53321 0.52074 0.8985 0.0
C757 C 0.51258 0.53784 0.88309 0.0
C758 C 0.48824 0.56024 0.89062 0.0
C759 C 0.48378 0.56508 0.91306 0.0
C760 C 0.50409 0.54757 0.92784 0.0
C761 C 0.52859 0.52608 0.92095 0.0
C762 C 0.54664 0.5101 0.94037 0.0
C763 C 0.53207 0.4662 0.93943 0.0
C764 C 0.59417 0.52598 0.94166 0.0
C765 C 0.52791 0.52547 0.95916 0.0
C766 C 0.50351 0.54702 0.95153 0.0
C767 C 0.48185 0.56312 0.96565 0.0
C768 C 0.48514 0.55706 0.98818 0.0
C769 C 0.51017 0.53523 0.99655 0.0
C770 C 0.53196 0.51948 0.98166 0.0
H771 H 0.03863 0.61028 0.2243 0.0
H772 H 0.04402 0.49982 0.20163 0.0
H773 H 0.04186 0.47824 0.23989 0.0
H774 H 0.10661 0.61643 0.2719 0.0
H775 H 0.07942 0.6404 0.28883 0.0
H776 H 0.07886 0.64635 0.2596 0.0
H777 H 0.99863 0.6236 0.258 0.0
H778 H 0.99894 0.6175 0.28722 0.0
H779 H 0.97151 0.5781 0.26916 0.0
H780 H 0.03765 0.46834 0.28058 0.0
H781 H 0.03828 0.47257 0.32103 0.0
H782 H 0.04128 0.59107 0.31763 0.0
C783 C 0.0391 0.58147 0.2274 0.0
C784 C 0.04073 0.55642 0.20998 0.0
C785 C 0.04211 0.51923 0.2147 0.0
C786 C 0.04096 0.50676 0.23638 0.0
C787 C 0.03919 0.5321 0.25319 0.0
C788 C 0.03886 0.56886 0.24899 0.0
C789 C 0.03908 0.59102 0.27012 0.0
C790 C 0.07833 0.62559 0.27276 0.0
C791 C 0.99969 0.60327 0.27118 0.0
C792 C 0.03943 0.56096 0.28686 0.0
C793 C 0.03894 0.52702 0.27671 0.0
C794 C 0.03823 0.49481 0.28869 0.0
C795 C 0.0384 0.49741 0.31163 0.0
C796 C 0.03985 0.53211 0.3224 0.0
C797 C 0.0404 0.56427 0.3098 0.0
loop_
_geom_bond_atom_site_label_1
_geom_bond_atom_site_label_2
_geom_bond_distance
_geom_bond_site_symmetry_2
_ccdc_geom_bond_type
Pr0 C2 2.880 . S
Pr0 O20 2.562 . S
Pr0 O21 2.490 . S
Pr0 O22 2.695 1_655 S
Pr0 O23 2.512 . S
Pr0 O25 2.437 . S
Pr0 O28 2.432 . S
Pr0 O30 2.438 1_655 S
Pr1 C11 2.880 . S
Pr1 O22 2.436 . S
Pr1 O24 2.438 1_455 S
Pr1 O26 2.562 . S
Pr1 O27 2.490 . S
Pr1 O28 2.693 1_455 S
Pr1 O29 2.512 . S
Pr1 O31 2.437 . S
C2 Pr0 2.880 . S
C2 C3 1.491 . S
C2 O20 1.254 . S
C2 O21 1.225 . S
C3 C2 1.491 . S
C3 C4 1.392 . S
C3 C8 1.356 . S
C4 C3 1.392 . S
C4 C5 1.368 . S
C4 H32 0.929 . S
C5 C4 1.368 . S
C5 C6 1.386 . S
C5 H33 0.929 . S
C6 C5 1.386 . S
C6 C7 1.373 . S
C7 C6 1.373 . S
C7 C8 1.409 . S
C7 H34 0.931 . S
C8 C3 1.356 . S
C8 C7 1.409 . S
C8 H35 0.930 . S
C9 O22 1.270 . S
C9 O23 1.248 1_455 S
C10 O24 1.267 . S
C10 O25 1.278 . S
C11 Pr1 2.880 . S
C11 C12 1.491 . S
C11 O26 1.254 . S
C11 O27 1.225 . S
C12 C11 1.491 . S
C12 C13 1.392 . S
C12 C17 1.356 . S
C13 C12 1.392 . S
C13 C14 1.368 . S
C13 H36 0.929 . S
C14 C13 1.368 . S
C14 C15 1.386 . S
C14 H37 0.929 . S
C15 C14 1.386 . S
C15 C16 1.373 . S
C16 C15 1.373 . S
C16 C17 1.409 . S
C16 H38 0.931 . S
C17 C12 1.356 . S
C17 C16 1.409 . S
C17 H39 0.930 . S
C18 O28 1.268 1_455 S
C18 O29 1.248 . S
C19 O30 1.267 . S
C19 O31 1.278 . S
O20 Pr0 2.562 . S
O20 C2 1.254 . S
O21 Pr0 2.490 . S
O21 C2 1.225 . S
O22 Pr0 2.695 1_455 S
O22 Pr1 2.436 . S
O22 C9 1.270 . S
O23 Pr0 2.512 . S
O23 C9 1.248 1_655 S
O24 Pr1 2.438 1_655 S
O24 C10 1.267 . S
O25 Pr0 2.437 . S
O25 C10 1.278 . S
O26 Pr1 2.562 . S
O26 C11 1.254 . S
O27 Pr1 2.490 . S
O27 C11 1.225 . S
O28 Pr0 2.432 . S
O28 Pr1 2.693 1_655 S
O28 C18 1.268 1_655 S
O29 Pr1 2.512 . S
O29 C18 1.248 . S
O30 Pr0 2.438 1_455 S
O30 C19 1.267 . S
O31 Pr1 2.437 . S
O31 C19 1.278 . S
H32 C4 0.929 . S
H33 C5 0.929 . S
H34 C7 0.931 . S
H35 C8 0.930 . S
H36 C13 0.929 . S
H37 C14 0.929 . S
H38 C16 0.931 . S
H39 C17 0.930 . S
Pr40 C42 2.880 . S
Pr40 O60 2.562 . S
Pr40 O61 2.490 . S
Pr40 O62 2.695 . S
Pr40 O63 2.512 . S
Pr40 O65 2.437 . S
Pr40 O68 2.436 . S
Pr40 O70 2.438 1_545 S
Pr41 C51 2.880 . S
Pr41 O62 2.436 1_565 S
Pr41 O64 2.438 1_565 S
Pr41 O66 2.562 . S
Pr41 O67 2.490 . S
Pr41 O68 2.695 1_565 S
Pr41 O69 2.512 . S
Pr41 O71 2.437 . S
C42 Pr40 2.880 . S
C42 C43 1.491 . S
C42 O60 1.254 . S
C42 O61 1.225 . S
C43 C42 1.491 . S
C43 C44 1.392 . S
C43 C48 1.356 . S
C44 C43 1.392 . S
C44 C45 1.368 . S
C44 H72 0.929 . S
C45 C44 1.368 . S
C45 C46 1.386 . S
C45 H73 0.929 . S
C46 C45 1.386 . S
C46 C47 1.373 . S
C47 C46 1.373 . S
C47 C48 1.409 . S
C47 H74 0.931 . S
C48 C43 1.356 . S
C48 C47 1.409 . S
C48 H75 0.930 . S
C49 O62 1.270 . S
C49 O63 1.248 . S
C50 O64 1.267 . S
C50 O65 1.278 . S
C51 Pr41 2.880 . S
C51 C52 1.491 . S
C51 O66 1.254 . S
C51 O67 1.225 . S
C52 C51 1.491 . S
C52 C53 1.392 . S
C52 C57 1.356 . S
C53 C52 1.392 . S
C53 C54 1.368 . S
C53 H76 0.929 . S
C54 C53 1.368 . S
C54 C55 1.386 . S
C54 H77 0.929 . S
C55 C54 1.386 . S
C55 C56 1.373 . S
C56 C55 1.373 . S
C56 C57 1.409 . S
C56 H78 0.931 . S
C57 C52 1.356 . S
C57 C56 1.409 . S
C57 H79 0.930 . S
C58 O68 1.270 . S
C58 O69 1.248 1_545 S
C59 O70 1.267 . S
C59 O71 1.278 . S
O60 Pr40 2.562 . S
O60 C42 1.254 . S
O61 Pr40 2.490 . S
O61 C42 1.225 . S
O62 Pr40 2.695 . S
O62 Pr41 2.436 1_545 S
O62 C49 1.270 . S
O63 Pr40 2.512 . S
O63 C49 1.248 . S
O64 Pr41 2.438 1_545 S
O64 C50 1.267 . S
O65 Pr40 2.437 . S
O65 C50 1.278 . S
O66 Pr41 2.562 . S
O66 C51 1.254 . S
O67 Pr41 2.490 . S
O67 C51 1.225 . S
O68 Pr40 2.436 . S
O68 Pr41 2.695 1_545 S
O68 C58 1.270 . S
O69 Pr41 2.512 . S
O69 C58 1.248 1_565 S
O70 Pr40 2.438 1_565 S
O70 C59 1.267 . S
O71 Pr41 2.437 . S
O71 C59 1.278 . S
H72 C44 0.929 . S
H73 C45 0.929 . S
H74 C47 0.931 . S
H75 C48 0.930 . S
H76 C53 0.929 . S
H77 C54 0.929 . S
H78 C56 0.931 . S
H79 C57 0.930 . S
Pr80 C82 2.880 . S
Pr80 O100 2.562 . S
Pr80 O101 2.490 . S
Pr80 O102 2.695 . S
Pr80 O103 2.512 . S
Pr80 O105 2.437 . S
Pr80 O108 2.436 . S
Pr80 O110 2.438 . S
Pr81 C91 2.880 . S
Pr81 O102 2.436 . S
Pr81 O104 2.438 . S
Pr81 O106 2.562 . S
Pr81 O107 2.490 . S
Pr81 O108 2.695 . S
Pr81 O109 2.512 . S
Pr81 O111 2.437 . S
C82 Pr80 2.880 . S
C82 C83 1.491 . S
C82 O100 1.254 . S
C82 O101 1.225 . S
C83 C82 1.491 . S
C83 C84 1.392 . S
C83 C88 1.356 . S
C84 C83 1.392 . S
C84 C85 1.368 . S
C84 H112 0.929 . S
C85 C84 1.368 . S
C85 C86 1.386 . S
C85 H113 0.929 . S
C86 C85 1.386 . S
C86 C87 1.373 . S
C87 C86 1.373 . S
C87 C88 1.409 . S
C87 H114 0.931 . S
C88 C83 1.356 . S
C88 C87 1.409 . S
C88 H115 0.930 . S
C89 O102 1.270 . S
C89 O103 1.248 . S
C90 O104 1.267 . S
C90 O105 1.278 . S
C91 Pr81 2.880 . S
C91 C92 1.491 . S
C91 O106 1.254 . S
C91 O107 1.225 . S
C92 C91 1.491 . S
C92 C93 1.392 . S
C92 C97 1.356 . S
C93 C92 1.392 . S
C93 C94 1.368 . S
C93 H116 0.929 . S
C94 C93 1.368 . S
C94 C95 1.386 . S
C94 H117 0.929 . S
C95 C94 1.386 . S
C95 C96 1.373 . S
C96 C95 1.373 . S
C96 C97 1.409 . S
C96 H118 0.931 . S
C97 C92 1.356 . S
C97 C96 1.409 . S
C97 H119 0.930 . S
C98 O108 1.270 . S
C98 O109 1.248 . S
C99 O110 1.267 . S
C99 O111 1.278 . S
O100 Pr80 2.562 . S
O100 C82 1.254 . S
O101 Pr80 2.490 . S
O101 C82 1.225 . S
O102 Pr80 2.695 . S
O102 Pr81 2.436 . S
O102 C89 1.270 . S
O103 Pr80 2.512 . S
O103 C89 1.248 . S
O104 Pr81 2.438 . S
O104 C90 1.267 . S
O105 Pr80 2.437 . S
O105 C90 1.278 . S
O106 Pr81 2.562 . S
O106 C91 1.254 . S
O107 Pr81 2.490 . S
O107 C91 1.225 . S
O108 Pr80 2.436 . S
O108 Pr81 2.695 . S
O108 C98 1.270 . S
O109 Pr81 2.512 . S
O109 C98 1.248 . S
O110 Pr80 2.438 . S
O110 C99 1.267 . S
O111 Pr81 2.437 . S
O111 C99 1.278 . S
H112 C84 0.929 . S
H113 C85 0.929 . S
H114 C87 0.931 . S
H115 C88 0.930 . S
H116 C93 0.929 . S
H117 C94 0.929 . S
H118 C96 0.931 . S
H119 C97 0.930 . S
P120 O131 1.490 1_545 S
P120 C134 1.812 1_545 S
P120 C140 1.803 . S
P120 C146 1.819 . S
H121 C135 0.941 . S
H122 C136 0.939 . S
H123 C138 0.940 . S
H124 C139 0.940 1_545 S
H125 C141 0.939 . S
H126 C142 0.942 . S
H127 C144 0.940 . S
H128 C145 0.939 . S
H129 C147 0.941 . S
H130 C151 0.939 . S
O131 P120 1.490 1_565 S
H132 C148 0.939 . S
H133 C150 0.940 . S
C134 P120 1.812 1_565 S
C134 C135 1.389 . S
C134 C139 1.391 . S
C135 H121 0.941 . S
C135 C134 1.389 . S
C135 C136 1.397 . S
C136 H122 0.939 . S
C136 C135 1.397 . S
C136 C137 1.378 . S
C137 C136 1.378 . S
C137 C138 1.378 . S
C138 H123 0.940 . S
C138 C137 1.378 . S
C138 C139 1.396 . S
C139 H124 0.940 1_565 S
C139 C134 1.391 . S
C139 C138 1.396 . S
C140 P120 1.803 . S
C140 C141 1.378 . S
C140 C145 1.400 . S
C141 H125 0.939 . S
C141 C140 1.378 . S
C141 C142 1.361 . S
C142 H126 0.942 . S
C142 C141 1.361 . S
C142 C143 1.369 . S
C143 C142 1.369 . S
C143 C144 1.404 . S
C144 H127 0.940 . S
C144 C143 1.404 . S
C144 C145 1.389 . S
C145 H128 0.939 . S
C145 C140 1.400 . S
C145 C144 1.389 . S
C146 P120 1.819 . S
C146 C147 1.391 1_545 S
C146 C151 1.391 . S
C147 H129 0.941 . S
C147 C146 1.391 1_565 S
C147 C148 1.396 . S
C148 H132 0.939 . S
C148 C147 1.396 . S
C148 C149 1.397 1_565 S
C149 C148 1.397 1_545 S
C149 C150 1.385 . S
C150 H133 0.940 . S
C150 C149 1.385 . S
C150 C151 1.388 . S
C151 H130 0.939 . S
C151 C146 1.391 . S
C151 C150 1.388 . S
P152 O163 1.490 . S
P152 C166 1.812 . S
P152 C172 1.803 . S
P152 C178 1.819 . S
H153 C167 0.941 . S
H154 C168 0.939 . S
H155 C170 0.940 . S
H156 C171 0.940 . S
H157 C173 0.939 . S
H158 C174 0.942 . S
H159 C176 0.940 . S
H160 C177 0.939 . S
H161 C179 0.941 . S
H162 C183 0.939 . S
O163 P152 1.490 . S
H164 C180 0.939 . S
H165 C182 0.940 . S
C166 P152 1.812 . S
C166 C167 1.389 . S
C166 C171 1.391 . S
C167 H153 0.941 . S
C167 C166 1.389 . S
C167 C168 1.397 . S
C168 H154 0.939 . S
C168 C167 1.397 . S
C168 C169 1.378 . S
C169 C168 1.378 . S
C169 C170 1.378 . S
C170 H155 0.940 . S
C170 C169 1.378 . S
C170 C171 1.396 . S
C171 H156 0.940 . S
C171 C166 1.391 . S
C171 C170 1.396 . S
C172 P152 1.803 . S
C172 C173 1.378 . S
C172 C177 1.400 . S
C173 H157 0.939 . S
C173 C172 1.378 . S
C173 C174 1.361 . S
C174 H158 0.942 . S
C174 C173 1.361 . S
C174 C175 1.369 . S
C175 C174 1.369 . S
C175 C176 1.404 . S
C176 H159 0.940 . S
C176 C175 1.404 . S
C176 C177 1.389 . S
C177 H160 0.939 . S
C177 C172 1.400 . S
C177 C176 1.389 . S
C178 P152 1.819 . S
C178 C179 1.391 . S
C178 C183 1.391 . S
C179 H161 0.941 . S
C179 C178 1.391 . S
C179 C180 1.396 . S
C180 H164 0.939 . S
C180 C179 1.396 . S
C180 C181 1.397 . S
C181 C180 1.397 . S
C181 C182 1.385 . S
C182 H165 0.940 . S
C182 C181 1.385 . S
C182 C183 1.388 . S
C183 H162 0.939 . S
C183 C178 1.391 . S
C183 C182 1.388 . S
P184 O195 1.490 . S
P184 C198 1.812 . S
P184 C204 1.803 1_455 S
P184 C210 1.819 . S
H185 C199 0.941 . S
H186 C200 0.939 . S
H187 C202 0.940 . S
H188 C203 0.940 . S
H189 C205 0.939 . S
H190 C206 0.942 . S
H191 C208 0.940 . S
H192 C209 0.939 . S
H193 C211 0.941 . S
H194 C215 0.939 . S
O195 P184 1.490 . S
H196 C212 0.939 . S
H197 C214 0.940 . S
C198 P184 1.812 . S
C198 C199 1.389 . S
C198 C203 1.391 . S
C199 H185 0.941 . S
C199 C198 1.389 . S
C199 C200 1.397 . S
C200 H186 0.939 . S
C200 C199 1.397 . S
C200 C201 1.378 . S
C201 C200 1.378 . S
C201 C202 1.378 . S
C202 H187 0.940 . S
C202 C201 1.378 . S
C202 C203 1.396 . S
C203 H188 0.940 . S
C203 C198 1.391 . S
C203 C202 1.396 . S
C204 P184 1.803 1_655 S
C204 C205 1.378 . S
C204 C209 1.400 . S
C205 H189 0.939 . S
C205 C204 1.378 . S
C205 C206 1.361 . S
C206 H190 0.942 . S
C206 C205 1.361 . S
C206 C207 1.369 . S
C207 C206 1.369 . S
C207 C208 1.404 . S
C208 H191 0.940 . S
C208 C207 1.404 . S
C208 C209 1.389 . S
C209 H192 0.939 . S
C209 C204 1.400 . S
C209 C208 1.389 . S
C210 P184 1.819 . S
C210 C211 1.391 . S
C210 C215 1.391 1_455 S
C211 H193 0.941 . S
C211 C210 1.391 . S
C211 C212 1.396 . S
C212 H196 0.939 . S
C212 C211 1.396 . S
C212 C213 1.397 . S
C213 C212 1.397 . S
C213 C214 1.385 1_455 S
C214 H197 0.940 . S
C214 C213 1.385 1_655 S
C214 C215 1.388 . S
C215 H194 0.939 . S
C215 C210 1.391 1_655 S
C215 C214 1.388 . S
P216 O227 1.490 . S
P216 C230 1.812 . S
P216 C236 1.803 1_455 S
P216 C242 1.819 . S
H217 C231 0.941 . S
H218 C232 0.939 . S
H219 C234 0.940 . S
H220 C235 0.940 . S
H221 C237 0.939 . S
H222 C238 0.942 . S
H223 C240 0.940 . S
H224 C241 0.939 . S
H225 C243 0.941 . S
H226 C247 0.939 . S
O227 P216 1.490 . S
H228 C244 0.939 . S
H229 C246 0.940 . S
C230 P216 1.812 . S
C230 C231 1.389 . S
C230 C235 1.391 . S
C231 H217 0.941 . S
C231 C230 1.389 . S
C231 C232 1.397 . S
C232 H218 0.939 . S
C232 C231 1.397 . S
C232 C233 1.378 . S
C233 C232 1.378 . S
C233 C234 1.378 . S
C234 H219 0.940 . S
C234 C233 1.378 . S
C234 C235 1.396 . S
C235 H220 0.940 . S
C235 C230 1.391 . S
C235 C234 1.396 . S
C236 P216 1.803 1_655 S
C236 C237 1.378 . S
C236 C241 1.400 . S
C237 H221 0.939 . S
C237 C236 1.378 . S
C237 C238 1.361 . S
C238 H222 0.942 . S
C238 C237 1.361 . S
C238 C239 1.369 . S
C239 C238 1.369 . S
C239 C240 1.404 . S
C240 H223 0.940 . S
C240 C239 1.404 . S
C240 C241 1.389 . S
C241 H224 0.939 . S
C241 C236 1.400 . S
C241 C240 1.389 . S
C242 P216 1.819 . S
C242 C243 1.391 . S
C242 C247 1.391 1_455 S
C243 H225 0.941 . S
C243 C242 1.391 . S
C243 C244 1.396 . S
C244 H228 0.939 . S
C244 C243 1.396 . S
C244 C245 1.397 . S
C245 C244 1.397 . S
C245 C246 1.385 1_455 S
C246 H229 0.940 . S
C246 C245 1.385 1_655 S
C246 C247 1.388 . S
C247 H226 0.939 . S
C247 C242 1.391 1_655 S
C247 C246 1.388 . S
P248 O259 1.490 . S
P248 C262 1.812 . S
P248 C268 1.803 1_545 S
P248 C274 1.819 . S
H249 C263 0.941 . S
H250 C264 0.939 . S
H251 C266 0.940 . S
H252 C267 0.940 . S
H253 C269 0.939 . S
H254 C270 0.942 . S
H255 C272 0.940 . S
H256 C273 0.939 . S
H257 C275 0.941 . S
H258 C279 0.939 . S
O259 P248 1.490 . S
H260 C276 0.939 . S
H261 C278 0.940 . S
C262 P248 1.812 . S
C262 C263 1.389 . S
C262 C267 1.391 . S
C263 H249 0.941 . S
C263 C262 1.389 . S
C263 C264 1.397 . S
C264 H250 0.939 . S
C264 C263 1.397 . S
C264 C265 1.378 . S
C265 C264 1.378 . S
C265 C266 1.378 . S
C266 H251 0.940 . S
C266 C265 1.378 . S
C266 C267 1.396 . S
C267 H252 0.940 . S
C267 C262 1.391 . S
C267 C266 1.396 . S
C268 P248 1.803 1_565 S
C268 C269 1.378 . S
C268 C273 1.400 . S
C269 H253 0.939 . S
C269 C268 1.378 . S
C269 C270 1.361 . S
C270 H254 0.942 . S
C270 C269 1.361 . S
C270 C271 1.369 . S
C271 C270 1.369 . S
C271 C272 1.404 . S
C272 H255 0.940 . S
C272 C271 1.404 . S
C272 C273 1.389 . S
C273 H256 0.939 . S
C273 C268 1.400 . S
C273 C272 1.389 . S
C274 P248 1.819 . S
C274 C275 1.391 . S
C274 C279 1.391 1_545 S
C275 H257 0.941 . S
C275 C274 1.391 . S
C275 C276 1.396 . S
C276 H260 0.939 . S
C276 C275 1.396 . S
C276 C277 1.397 . S
C277 C276 1.397 . S
C277 C278 1.385 1_545 S
C278 H261 0.940 . S
C278 C277 1.385 1_565 S
C278 C279 1.388 . S
C279 H258 0.939 . S
C279 C274 1.391 1_565 S
C279 C278 1.388 . S
P280 O291 1.490 . S
P280 C294 1.812 . S
P280 C300 1.803 . S
P280 C306 1.819 . S
H281 C295 0.941 . S
H282 C296 0.939 . S
H283 C298 0.940 . S
H284 C299 0.940 . S
H285 C301 0.939 . S
H286 C302 0.942 . S
H287 C304 0.940 . S
H288 C305 0.939 . S
H289 C307 0.941 . S
H290 C311 0.939 . S
O291 P280 1.490 . S
H292 C308 0.939 . S
H293 C310 0.940 . S
C294 P280 1.812 . S
C294 C295 1.389 . S
C294 C299 1.391 . S
C295 H281 0.941 . S
C295 C294 1.389 . S
C295 C296 1.397 . S
C296 H282 0.939 . S
C296 C295 1.397 . S
C296 C297 1.378 . S
C297 C296 1.378 . S
C297 C298 1.378 . S
C298 H283 0.940 . S
C298 C297 1.378 . S
C298 C299 1.396 . S
C299 H284 0.940 . S
C299 C294 1.391 . S
C299 C298 1.396 . S
C300 P280 1.803 . S
C300 C301 1.378 . S
C300 C305 1.400 . S
C301 H285 0.939 . S
C301 C300 1.378 . S
C301 C302 1.361 . S
C302 H286 0.942 . S
C302 C301 1.361 . S
C302 C303 1.369 . S
C303 C302 1.369 . S
C303 C304 1.404 . S
C304 H287 0.940 . S
C304 C303 1.404 . S
C304 C305 1.389 . S
C305 H288 0.939 . S
C305 C300 1.400 . S
C305 C304 1.389 . S
C306 P280 1.819 . S
C306 C307 1.391 . S
C306 C311 1.391 . S
C307 H289 0.941 . S
C307 C306 1.391 . S
C307 C308 1.396 . S
C308 H292 0.939 . S
C308 C307 1.396 . S
C308 C309 1.397 . S
C309 C308 1.397 . S
C309 C310 1.385 . S
C310 H293 0.940 . S
C310 C309 1.385 . S
C310 C311 1.388 . S
C311 H290 0.939 . S
C311 C306 1.391 . S
C311 C310 1.388 . S
H312 C324 0.930 . S
H313 C326 0.930 . S
H314 C327 0.930 . S
H315 C331 0.959 . S
H316 C331 0.959 . S
H317 C331 0.961 . S
H318 C332 0.960 . S
H319 C332 0.961 . S
H320 C332 0.959 . S
H321 C335 0.929 . S
H322 C336 0.931 . S
H323 C338 0.930 . S
C324 H312 0.930 . S
C324 C325 1.399 . S
C324 C329 1.399 . S
C325 C324 1.399 . S
C325 C326 1.376 . S
C326 H313 0.930 . S
C326 C325 1.376 . S
C326 C327 1.388 . S
C327 H314 0.930 . S
C327 C326 1.388 . S
C327 C328 1.390 . S
C328 C327 1.390 . S
C328 C329 1.394 . S
C328 C334 1.465 . S
C329 C324 1.399 . S
C329 C328 1.394 . S
C329 C330 1.516 . S
C330 C329 1.516 . S
C330 C331 1.502 . S
C330 C332 1.561 . S
C330 C333 1.526 . S
C331 H315 0.959 . S
C331 H316 0.959 . S
C331 H317 0.961 . S
C331 C330 1.502 . S
C332 H318 0.960 . S
C332 H319 0.961 . S
C332 H320 0.959 . S
C332 C330 1.561 . S
C333 C330 1.526 . S
C333 C334 1.396 . S
C333 C338 1.390 . S
C334 C328 1.465 . S
C334 C333 1.396 . S
C334 C335 1.399 . S
C335 H321 0.929 . S
C335 C334 1.399 . S
C335 C336 1.385 . S
C336 H322 0.931 . S
C336 C335 1.385 . S
C336 C337 1.389 . S
C337 C336 1.389 . S
C337 C338 1.387 . S
C338 H323 0.930 . S
C338 C333 1.390 . S
C338 C337 1.387 . S
H339 C351 0.930 . S
H340 C353 0.930 . S
H341 C354 0.930 . S
H342 C358 0.959 . S
H343 C358 0.959 . S
H344 C358 0.961 . S
H345 C359 0.960 . S
H346 C359 0.961 . S
H347 C359 0.959 . S
H348 C362 0.929 . S
H349 C363 0.931 . S
H350 C365 0.930 . S
C351 H339 0.930 . S
C351 C352 1.399 . S
C351 C356 1.399 . S
C352 C351 1.399 . S
C352 C353 1.376 . S
C353 H340 0.930 . S
C353 C352 1.376 . S
C353 C354 1.388 . S
C354 H341 0.930 . S
C354 C353 1.388 . S
C354 C355 1.390 . S
C355 C354 1.390 . S
C355 C356 1.394 . S
C355 C361 1.465 . S
C356 C351 1.399 . S
C356 C355 1.394 . S
C356 C357 1.516 . S
C357 C356 1.516 . S
C357 C358 1.502 . S
C357 C359 1.561 . S
C357 C360 1.526 . S
C358 H342 0.959 . S
C358 H343 0.959 . S
C358 H344 0.961 . S
C358 C357 1.502 . S
C359 H345 0.960 . S
C359 H346 0.961 . S
C359 H347 0.959 . S
C359 C357 1.561 . S
C360 C357 1.526 . S
C360 C361 1.396 . S
C360 C365 1.390 . S
C361 C355 1.465 . S
C361 C360 1.396 . S
C361 C362 1.399 . S
C362 H348 0.929 . S
C362 C361 1.399 . S
C362 C363 1.385 . S
C363 H349 0.931 . S
C363 C362 1.385 . S
C363 C364 1.389 . S
C364 C363 1.389 . S
C364 C365 1.387 . S
C365 H350 0.930 . S
C365 C360 1.390 . S
C365 C364 1.387 . S
H366 C378 0.930 . S
H367 C380 0.930 . S
H368 C381 0.930 . S
H369 C385 0.959 . S
H370 C385 0.959 . S
H371 C385 0.961 . S
H372 C386 0.960 . S
H373 C386 0.961 . S
H374 C386 0.959 . S
H375 C389 0.929 . S
H376 C390 0.931 . S
H377 C392 0.930 . S
C378 H366 0.930 . S
C378 C379 1.399 . S
C378 C383 1.399 . S
C379 C378 1.399 . S
C379 C380 1.376 . S
C380 H367 0.930 . S
C380 C379 1.376 . S
C380 C381 1.388 . S
C381 H368 0.930 . S
C381 C380 1.388 . S
C381 C382 1.390 . S
C382 C381 1.390 . S
C382 C383 1.394 . S
C382 C388 1.465 . S
C383 C378 1.399 . S
C383 C382 1.394 . S
C383 C384 1.516 . S
C384 C383 1.516 . S
C384 C385 1.502 . S
C384 C386 1.561 . S
C384 C387 1.526 . S
C385 H369 0.959 . S
C385 H370 0.959 . S
C385 H371 0.961 . S
C385 C384 1.502 . S
C386 H372 0.960 . S
C386 H373 0.961 . S
C386 H374 0.959 . S
C386 C384 1.561 . S
C387 C384 1.526 . S
C387 C388 1.396 . S
C387 C392 1.390 . S
C388 C382 1.465 . S
C388 C387 1.396 . S
C388 C389 1.399 . S
C389 H375 0.929 . S
C389 C388 1.399 . S
C389 C390 1.385 . S
C390 H376 0.931 . S
C390 C389 1.385 . S
C390 C391 1.389 . S
C391 C390 1.389 . S
C391 C392 1.387 . S
C392 H377 0.930 . S
C392 C387 1.390 . S
C392 C391 1.387 . S
H393 C405 0.930 . S
H394 C407 0.930 . S
H395 C408 0.930 . S
H396 C412 0.959 . S
H397 C412 0.959 . S
H398 C412 0.961 . S
H399 C413 0.960 . S
H400 C413 0.961 . S
H401 C413 0.959 . S
H402 C416 0.929 . S
H403 C417 0.931 . S
H404 C419 0.930 . S
C405 H393 0.930 . S
C405 C406 1.399 . S
C405 C410 1.399 . S
C406 C405 1.399 . S
C406 C407 1.376 . S
C407 H394 0.930 . S
C407 C406 1.376 . S
C407 C408 1.388 . S
C408 H395 0.930 . S
C408 C407 1.388 . S
C408 C409 1.390 . S
C409 C408 1.390 . S
C409 C410 1.394 . S
C409 C415 1.465 . S
C410 C405 1.399 . S
C410 C409 1.394 . S
C410 C411 1.516 . S
C411 C410 1.516 . S
C411 C412 1.502 . S
C411 C413 1.561 . S
C411 C414 1.526 . S
C412 H396 0.959 . S
C412 H397 0.959 . S
C412 H398 0.961 . S
C412 C411 1.502 . S
C413 H399 0.960 . S
C413 H400 0.961 . S
C413 H401 0.959 . S
C413 C411 1.561 . S
C414 C411 1.526 . S
C414 C415 1.396 . S
C414 C419 1.390 . S
C415 C409 1.465 . S
C415 C414 1.396 . S
C415 C416 1.399 . S
C416 H402 0.929 . S
C416 C415 1.399 . S
C416 C417 1.385 . S
C417 H403 0.931 . S
C417 C416 1.385 . S
C417 C418 1.389 . S
C418 C417 1.389 . S
C418 C419 1.387 . S
C419 H404 0.930 . S
C419 C414 1.390 . S
C419 C418 1.387 . S
H420 C432 0.930 . S
H421 C434 0.930 . S
H422 C435 0.930 . S
H423 C439 0.959 . S
H424 C439 0.959 . S
H425 C439 0.961 . S
H426 C440 0.960 . S
H427 C440 0.961 . S
H428 C440 0.959 . S
H429 C443 0.929 . S
H430 C444 0.931 . S
H431 C446 0.930 . S
C432 H420 0.930 . S
C432 C433 1.399 . S
C432 C437 1.399 . S
C433 C432 1.399 . S
C433 C434 1.376 . S
C434 H421 0.930 . S
C434 C433 1.376 . S
C434 C435 1.388 . S
C435 H422 0.930 . S
C435 C434 1.388 . S
C435 C436 1.390 . S
C436 C435 1.390 . S
C436 C437 1.394 . S
C436 C442 1.465 . S
C437 C432 1.399 . S
C437 C436 1.394 . S
C437 C438 1.516 . S
C438 C437 1.516 . S
C438 C439 1.502 . S
C438 C440 1.561 . S
C438 C441 1.526 . S
C439 H423 0.959 . S
C439 H424 0.959 . S
C439 H425 0.961 . S
C439 C438 1.502 . S
C440 H426 0.960 . S
C440 H427 0.961 . S
C440 H428 0.959 . S
C440 C438 1.561 . S
C441 C438 1.526 . S
C441 C442 1.396 . S
C441 C446 1.390 . S
C442 C436 1.465 . S
C442 C441 1.396 . S
C442 C443 1.399 . S
C443 H429 0.929 . S
C443 C442 1.399 . S
C443 C444 1.385 . S
C444 H430 0.931 . S
C444 C443 1.385 . S
C444 C445 1.389 . S
C445 C444 1.389 . S
C445 C446 1.387 . S
C446 H431 0.930 . S
C446 C441 1.390 . S
C446 C445 1.387 . S
H447 C459 0.930 . S
H448 C461 0.930 . S
H449 C462 0.930 . S
H450 C466 0.959 . S
H451 C466 0.959 . S
H452 C466 0.961 . S
H453 C467 0.960 . S
H454 C467 0.961 . S
H455 C467 0.959 . S
H456 C470 0.929 . S
H457 C471 0.931 . S
H458 C473 0.930 . S
C459 H447 0.930 . S
C459 C460 1.399 . S
C459 C464 1.399 . S
C460 C459 1.399 . S
C460 C461 1.376 . S
C461 H448 0.930 . S
C461 C460 1.376 . S
C461 C462 1.388 . S
C462 H449 0.930 . S
C462 C461 1.388 . S
C462 C463 1.390 . S
C463 C462 1.390 . S
C463 C464 1.394 . S
C463 C469 1.465 . S
C464 C459 1.399 . S
C464 C463 1.394 . S
C464 C465 1.516 . S
C465 C464 1.516 . S
C465 C466 1.502 . S
C465 C467 1.561 . S
C465 C468 1.526 . S
C466 H450 0.959 . S
C466 H451 0.959 . S
C466 H452 0.961 . S
C466 C465 1.502 . S
C467 H453 0.960 . S
C467 H454 0.961 . S
C467 H455 0.959 . S
C467 C465 1.561 . S
C468 C465 1.526 . S
C468 C469 1.396 . S
C468 C473 1.390 . S
C469 C463 1.465 . S
C469 C468 1.396 . S
C469 C470 1.399 . S
C470 H456 0.929 . S
C470 C469 1.399 . S
C470 C471 1.385 . S
C471 H457 0.931 . S
C471 C470 1.385 . S
C471 C472 1.389 . S
C472 C471 1.389 . S
C472 C473 1.387 . S
C473 H458 0.930 . S
C473 C468 1.390 . S
C473 C472 1.387 . S
H474 C486 0.930 . S
H475 C488 0.930 . S
H476 C489 0.930 . S
H477 C493 0.959 . S
H478 C493 0.959 . S
H479 C493 0.961 . S
H480 C494 0.960 . S
H481 C494 0.961 . S
H482 C494 0.959 . S
H483 C497 0.929 . S
H484 C498 0.931 . S
H485 C500 0.930 . S
C486 H474 0.930 . S
C486 C487 1.399 . S
C486 C491 1.399 . S
C487 C486 1.399 . S
C487 C488 1.376 . S
C488 H475 0.930 . S
C488 C487 1.376 . S
C488 C489 1.388 . S
C489 H476 0.930 . S
C489 C488 1.388 . S
C489 C490 1.390 . S
C490 C489 1.390 . S
C490 C491 1.394 . S
C490 C496 1.465 . S
C491 C486 1.399 . S
C491 C490 1.394 . S
C491 C492 1.516 . S
C492 C491 1.516 . S
C492 C493 1.502 . S
C492 C494 1.561 . S
C492 C495 1.526 . S
C493 H477 0.959 . S
C493 H478 0.959 . S
C493 H479 0.961 . S
C493 C492 1.502 . S
C494 H480 0.960 . S
C494 H481 0.961 . S
C494 H482 0.959 . S
C494 C492 1.561 . S
C495 C492 1.526 . S
C495 C496 1.396 . S
C495 C500 1.390 . S
C496 C490 1.465 . S
C496 C495 1.396 . S
C496 C497 1.399 . S
C497 H483 0.929 . S
C497 C496 1.399 . S
C497 C498 1.385 . S
C498 H484 0.931 . S
C498 C497 1.385 . S
C498 C499 1.389 . S
C499 C498 1.389 . S
C499 C500 1.387 . S
C500 H485 0.930 . S
C500 C495 1.390 . S
C500 C499 1.387 . S
H501 C513 0.930 . S
H502 C515 0.930 . S
H503 C516 0.930 . S
H504 C520 0.959 . S
H505 C520 0.959 . S
H506 C520 0.961 . S
H507 C521 0.960 . S
H508 C521 0.961 . S
H509 C521 0.959 . S
H510 C524 0.929 . S
H511 C525 0.931 . S
H512 C527 0.930 . S
C513 H501 0.930 . S
C513 C514 1.399 . S
C513 C518 1.399 . S
C514 C513 1.399 . S
C514 C515 1.376 . S
C515 H502 0.930 . S
C515 C514 1.376 . S
C515 C516 1.388 . S
C516 H503 0.930 . S
C516 C515 1.388 . S
C516 C517 1.390 . S
C517 C516 1.390 . S
C517 C518 1.394 . S
C517 C523 1.465 . S
C518 C513 1.399 . S
C518 C517 1.394 . S
C518 C519 1.516 . S
C519 C518 1.516 . S
C519 C520 1.502 . S
C519 C521 1.561 . S
C519 C522 1.526 . S
C520 H504 0.959 . S
C520 H505 0.959 . S
C520 H506 0.961 . S
C520 C519 1.502 . S
C521 H507 0.960 . S
C521 H508 0.961 . S
C521 H509 0.959 . S
C521 C519 1.561 . S
C522 C519 1.526 . S
C522 C523 1.396 . S
C522 C527 1.390 . S
C523 C517 1.465 . S
C523 C522 1.396 . S
C523 C524 1.399 . S
C524 H510 0.929 . S
C524 C523 1.399 . S
C524 C525 1.385 . S
C525 H511 0.931 . S
C525 C524 1.385 . S
C525 C526 1.389 . S
C526 C525 1.389 . S
C526 C527 1.387 . S
C527 H512 0.930 . S
C527 C522 1.390 . S
C527 C526 1.387 . S
H528 C540 0.930 . S
H529 C542 0.930 . S
H530 C543 0.930 . S
H531 C547 0.959 . S
H532 C547 0.959 . S
H533 C547 0.961 . S
H534 C548 0.960 . S
H535 C548 0.961 . S
H536 C548 0.959 . S
H537 C551 0.929 . S
H538 C552 0.931 . S
H539 C554 0.930 . S
C540 H528 0.930 . S
C540 C541 1.399 . S
C540 C545 1.399 . S
C541 C540 1.399 . S
C541 C542 1.376 . S
C542 H529 0.930 . S
C542 C541 1.376 . S
C542 C543 1.388 . S
C543 H530 0.930 . S
C543 C542 1.388 . S
C543 C544 1.390 . S
C544 C543 1.390 . S
C544 C545 1.394 . S
C544 C550 1.465 . S
C545 C540 1.399 . S
C545 C544 1.394 . S
C545 C546 1.516 . S
C546 C545 1.516 . S
C546 C547 1.502 . S
C546 C548 1.561 . S
C546 C549 1.526 . S
C547 H531 0.959 . S
C547 H532 0.959 . S
C547 H533 0.961 . S
C547 C546 1.502 . S
C548 H534 0.960 . S
C548 H535 0.961 . S
C548 H536 0.959 . S
C548 C546 1.561 . S
C549 C546 1.526 . S
C549 C550 1.396 . S
C549 C554 1.390 . S
C550 C544 1.465 . S
C550 C549 1.396 . S
C550 C551 1.399 . S
C551 H537 0.929 . S
C551 C550 1.399 . S
C551 C552 1.385 . S
C552 H538 0.931 . S
C552 C551 1.385 . S
C552 C553 1.389 . S
C553 C552 1.389 . S
C553 C554 1.387 . S
C554 H539 0.930 . S
C554 C549 1.390 . S
C554 C553 1.387 . S
H555 C567 0.930 . S
H556 C569 0.930 . S
H557 C570 0.930 . S
H558 C574 0.959 . S
H559 C574 0.959 . S
H560 C574 0.961 . S
H561 C575 0.960 . S
H562 C575 0.961 . S
H563 C575 0.959 . S
H564 C578 0.929 . S
H565 C579 0.931 . S
H566 C581 0.930 . S
C567 H555 0.930 . S
C567 C568 1.399 . S
C567 C572 1.399 . S
C568 C567 1.399 . S
C568 C569 1.376 . S
C569 H556 0.930 . S
C569 C568 1.376 . S
C569 C570 1.388 . S
C570 H557 0.930 . S
C570 C569 1.388 . S
C570 C571 1.390 . S
C571 C570 1.390 . S
C571 C572 1.394 . S
C571 C577 1.465 . S
C572 C567 1.399 . S
C572 C571 1.394 . S
C572 C573 1.516 . S
C573 C572 1.516 . S
C573 C574 1.502 . S
C573 C575 1.561 . S
C573 C576 1.526 . S
C574 H558 0.959 . S
C574 H559 0.959 . S
C574 H560 0.961 . S
C574 C573 1.502 . S
C575 H561 0.960 . S
C575 H562 0.961 . S
C575 H563 0.959 . S
C575 C573 1.561 . S
C576 C573 1.526 . S
C576 C577 1.396 . S
C576 C581 1.390 . S
C577 C571 1.465 . S
C577 C576 1.396 . S
C577 C578 1.399 . S
C578 H564 0.929 . S
C578 C577 1.399 . S
C578 C579 1.385 . S
C579 H565 0.931 . S
C579 C578 1.385 . S
C579 C580 1.389 . S
C580 C579 1.389 . S
C580 C581 1.387 . S
C581 H566 0.930 . S
C581 C576 1.390 . S
C581 C580 1.387 . S
H582 C594 0.930 . S
H583 C596 0.930 . S
H584 C597 0.930 . S
H585 C601 0.959 . S
H586 C601 0.959 . S
H587 C601 0.961 . S
H588 C602 0.960 . S
H589 C602 0.961 . S
H590 C602 0.959 . S
H591 C605 0.929 . S
H592 C606 0.931 . S
H593 C608 0.930 . S
C594 H582 0.930 . S
C594 C595 1.399 . S
C594 C599 1.399 . S
C595 C594 1.399 . S
C595 C596 1.376 . S
C596 H583 0.930 . S
C596 C595 1.376 . S
C596 C597 1.388 . S
C597 H584 0.930 . S
C597 C596 1.388 . S
C597 C598 1.390 . S
C598 C597 1.390 . S
C598 C599 1.394 . S
C598 C604 1.465 . S
C599 C594 1.399 . S
C599 C598 1.394 . S
C599 C600 1.516 . S
C600 C599 1.516 . S
C600 C601 1.502 . S
C600 C602 1.561 . S
C600 C603 1.526 . S
C601 H585 0.959 . S
C601 H586 0.959 . S
C601 H587 0.961 . S
C601 C600 1.502 . S
C602 H588 0.960 . S
C602 H589 0.961 . S
C602 H590 0.959 . S
C602 C600 1.561 . S
C603 C600 1.526 . S
C603 C604 1.396 . S
C603 C608 1.390 . S
C604 C598 1.465 . S
C604 C603 1.396 . S
C604 C605 1.399 . S
C605 H591 0.929 . S
C605 C604 1.399 . S
C605 C606 1.385 . S
C606 H592 0.931 . S
C606 C605 1.385 . S
C606 C607 1.389 . S
C607 C606 1.389 . S
C607 C608 1.387 . S
C608 H593 0.930 . S
C608 C603 1.390 . S
C608 C607 1.387 . S
H609 C621 0.930 . S
H610 C623 0.930 . S
H611 C624 0.930 . S
H612 C628 0.959 . S
H613 C628 0.959 . S
H614 C628 0.961 . S
H615 C629 0.960 . S
H616 C629 0.961 . S
H617 C629 0.959 . S
H618 C632 0.929 . S
H619 C633 0.931 . S
H620 C635 0.930 . S
C621 H609 0.930 . S
C621 C622 1.399 . S
C621 C626 1.399 . S
C622 C621 1.399 . S
C622 C623 1.376 . S
C623 H610 0.930 . S
C623 C622 1.376 . S
C623 C624 1.388 . S
C624 H611 0.930 . S
C624 C623 1.388 . S
C624 C625 1.390 . S
C625 C624 1.390 . S
C625 C626 1.394 . S
C625 C631 1.465 . S
C626 C621 1.399 . S
C626 C625 1.394 . S
C626 C627 1.516 . S
C627 C626 1.516 . S
C627 C628 1.502 . S
C627 C629 1.561 . S
C627 C630 1.526 . S
C628 H612 0.959 . S
C628 H613 0.959 . S
C628 H614 0.961 . S
C628 C627 1.502 . S
C629 H615 0.960 . S
C629 H616 0.961 . S
C629 H617 0.959 . S
C629 C627 1.561 . S
C630 C627 1.526 . S
C630 C631 1.396 . S
C630 C635 1.390 . S
C631 C625 1.465 . S
C631 C630 1.396 . S
C631 C632 1.399 . S
C632 H618 0.929 . S
C632 C631 1.399 . S
C632 C633 1.385 . S
C633 H619 0.931 . S
C633 C632 1.385 . S
C633 C634 1.389 . S
C634 C633 1.389 . S
C634 C635 1.387 . S
C635 H620 0.930 . S
C635 C630 1.390 . S
C635 C634 1.387 . S
H636 C648 0.930 . S
H637 C650 0.930 . S
H638 C651 0.930 . S
H639 C655 0.959 . S
H640 C655 0.959 . S
H641 C655 0.961 . S
H642 C656 0.960 . S
H643 C656 0.961 . S
H644 C656 0.959 . S
H645 C659 0.929 . S
H646 C660 0.931 . S
H647 C662 0.930 . S
C648 H636 0.930 . S
C648 C649 1.399 . S
C648 C653 1.399 . S
C649 C648 1.399 . S
C649 C650 1.376 . S
C650 H637 0.930 . S
C650 C649 1.376 . S
C650 C651 1.388 . S
C651 H638 0.930 . S
C651 C650 1.388 . S
C651 C652 1.390 . S
C652 C651 1.390 . S
C652 C653 1.394 . S
C652 C658 1.465 . S
C653 C648 1.399 . S
C653 C652 1.394 . S
C653 C654 1.516 . S
C654 C653 1.516 . S
C654 C655 1.502 . S
C654 C656 1.561 1_455 S
C654 C657 1.526 . S
C655 H639 0.959 . S
C655 H640 0.959 . S
C655 H641 0.961 . S
C655 C654 1.502 . S
C656 H642 0.960 . S
C656 H643 0.961 . S
C656 H644 0.959 . S
C656 C654 1.561 1_655 S
C657 C654 1.526 . S
C657 C658 1.396 . S
C657 C662 1.390 1_554 S
C658 C652 1.465 . S
C658 C657 1.396 . S
C658 C659 1.399 . S
C659 H645 0.929 . S
C659 C658 1.399 . S
C659 C660 1.385 1_554 S
C660 H646 0.931 . S
C660 C659 1.385 1_556 S
C660 C661 1.389 . S
C661 C660 1.389 . S
C661 C662 1.387 . S
C662 H647 0.930 . S
C662 C657 1.390 1_556 S
C662 C661 1.387 . S
H663 C675 0.930 . S
H664 C677 0.930 . S
H665 C678 0.930 . S
H666 C682 0.959 . S
H667 C682 0.959 . S
H668 C682 0.961 . S
H669 C683 0.960 . S
H670 C683 0.961 . S
H671 C683 0.959 . S
H672 C686 0.929 . S
H673 C687 0.931 . S
H674 C689 0.905 1_565 S
C675 H663 0.930 . S
C675 C676 1.399 1_565 S
C675 C680 1.399 1_565 S
C676 C675 1.399 1_545 S
C676 C677 1.376 . S
C677 H664 0.930 . S
C677 C676 1.376 . S
C677 C678 1.388 . S
C678 H665 0.930 . S
C678 C677 1.388 . S
C678 C679 1.390 . S
C679 C678 1.390 . S
C679 C680 1.394 . S
C679 C685 1.465 . S
C680 C675 1.399 1_545 S
C680 C679 1.394 . S
C680 C681 1.516 1_545 S
C681 C680 1.516 1_565 S
C681 C682 1.502 . S
C681 C683 1.561 . S
C681 C684 1.526 1_565 S
C682 H666 0.959 . S
C682 H667 0.959 . S
C682 H668 0.961 . S
C682 C681 1.502 . S
C683 H669 0.960 . S
C683 H670 0.961 . S
C683 H671 0.959 . S
C683 C681 1.561 . S
C684 C681 1.526 1_545 S
C684 C685 1.396 . S
C684 C689 1.394 . S
C685 C679 1.465 . S
C685 C684 1.396 . S
C685 C686 1.399 . S
C686 H672 0.929 . S
C686 C685 1.399 . S
C686 C687 1.385 . S
C687 H673 0.931 . S
C687 C686 1.385 . S
C687 C688 1.389 . S
C688 C687 1.389 . S
C688 C689 1.408 . S
C689 H674 0.905 1_545 S
C689 C684 1.394 . S
C689 C688 1.408 . S
H690 C702 0.930 . S
H691 C704 0.930 . S
H692 C705 0.930 . S
H693 C709 0.959 . S
H694 C709 0.959 . S
H695 C709 0.961 . S
H696 C710 0.960 . S
H697 C710 0.961 . S
H698 C710 0.959 . S
H699 C713 0.929 . S
H700 C714 0.931 . S
H701 C716 0.930 . S
C702 H690 0.930 . S
C702 C703 1.399 . S
C702 C707 1.399 . S
C703 C702 1.399 . S
C703 C704 1.376 . S
C704 H691 0.930 . S
C704 C703 1.376 . S
C704 C705 1.388 . S
C705 H692 0.930 . S
C705 C704 1.388 . S
C705 C706 1.390 . S
C706 C705 1.390 . S
C706 C707 1.394 . S
C706 C712 1.465 . S
C707 C702 1.399 . S
C707 C706 1.394 . S
C707 C708 1.516 . S
C708 C707 1.516 . S
C708 C709 1.502 . S
C708 C710 1.561 . S
C708 C711 1.526 . S
C709 H693 0.959 . S
C709 H694 0.959 . S
C709 H695 0.961 . S
C709 C708 1.502 . S
C710 H696 0.960 . S
C710 H697 0.961 . S
C710 H698 0.959 . S
C710 C708 1.561 . S
C711 C708 1.526 . S
C711 C712 1.396 . S
C711 C716 1.390 . S
C712 C706 1.465 . S
C712 C711 1.396 . S
C712 C713 1.399 . S
C713 H699 0.929 . S
C713 C712 1.399 . S
C713 C714 1.385 . S
C714 H700 0.931 . S
C714 C713 1.385 . S
C714 C715 1.389 . S
C715 C714 1.389 . S
C715 C716 1.387 . S
C716 H701 0.930 . S
C716 C711 1.390 . S
C716 C715 1.387 . S
H717 C729 0.930 . S
H718 C731 0.930 . S
H719 C732 0.930 . S
H720 C736 0.959 . S
H721 C736 0.959 . S
H722 C736 0.961 . S
H723 C737 0.960 . S
H724 C737 0.961 . S
H725 C737 0.959 . S
H726 C740 0.929 . S
H727 C741 0.931 . S
H728 C743 0.930 . S
C729 H717 0.930 . S
C729 C730 1.399 . S
C729 C734 1.399 . S
C730 C729 1.399 . S
C730 C731 1.376 1_545 S
C731 H718 0.930 . S
C731 C730 1.376 1_565 S
C731 C732 1.388 . S
C732 H719 0.930 . S
C732 C731 1.388 . S
C732 C733 1.390 . S
C733 C732 1.390 . S
C733 C734 1.394 1_565 S
C733 C739 1.465 . S
C734 C729 1.399 . S
C734 C733 1.394 1_545 S
C734 C735 1.516 . S
C735 C734 1.516 . S
C735 C736 1.502 . S
C735 C737 1.561 . S
C735 C738 1.526 . S
C736 H720 0.959 . S
C736 H721 0.959 . S
C736 H722 0.961 . S
C736 C735 1.502 . S
C737 H723 0.960 . S
C737 H724 0.961 . S
C737 H725 0.959 . S
C737 C735 1.561 . S
C738 C735 1.526 . S
C738 C739 1.396 1_545 S
C738 C743 1.390 . S
C739 C733 1.465 . S
C739 C738 1.396 1_565 S
C739 C740 1.399 . S
C740 H726 0.929 . S
C740 C739 1.399 . S
C740 C741 1.385 . S
C741 H727 0.931 . S
C741 C740 1.385 . S
C741 C742 1.389 1_565 S
C742 C741 1.389 1_545 S
C742 C743 1.387 . S
C743 H728 0.930 . S
C743 C738 1.390 . S
C743 C742 1.387 . S
H744 C756 0.930 . S
H745 C758 0.930 . S
H746 C759 0.930 . S
H747 C763 0.959 . S
H748 C763 0.959 . S
H749 C763 0.961 . S
H750 C764 0.960 . S
H751 C764 0.961 . S
H752 C764 0.959 . S
H753 C767 0.929 . S
H754 C768 0.931 . S
H755 C770 0.930 . S
C756 H744 0.930 . S
C756 C757 1.399 . S
C756 C761 1.399 . S
C757 C756 1.399 . S
C757 C758 1.376 . S
C758 H745 0.930 . S
C758 C757 1.376 . S
C758 C759 1.388 . S
C759 H746 0.930 . S
C759 C758 1.388 . S
C759 C760 1.390 . S
C760 C759 1.390 . S
C760 C761 1.394 . S
C760 C766 1.465 . S
C761 C756 1.399 . S
C761 C760 1.394 . S
C761 C762 1.516 . S
C762 C761 1.516 . S
C762 C763 1.502 . S
C762 C764 1.561 . S
C762 C765 1.526 . S
C763 H747 0.959 . S
C763 H748 0.959 . S
C763 H749 0.961 . S
C763 C762 1.502 . S
C764 H750 0.960 . S
C764 H751 0.961 . S
C764 H752 0.959 . S
C764 C762 1.561 . S
C765 C762 1.526 . S
C765 C766 1.396 . S
C765 C770 1.390 1_556 S
C766 C760 1.465 . S
C766 C765 1.396 . S
C766 C767 1.399 . S
C767 H753 0.929 . S
C767 C766 1.399 . S
C767 C768 1.385 1_556 S
C768 H754 0.931 . S
C768 C767 1.385 1_554 S
C768 C769 1.389 . S
C769 C768 1.389 . S
C769 C770 1.387 . S
C770 H755 0.930 . S
C770 C765 1.390 1_554 S
C770 C769 1.387 . S
H771 C783 0.930 . S
H772 C785 0.930 . S
H773 C786 0.930 . S
H774 C790 0.959 . S
H775 C790 0.959 . S
H776 C790 0.961 . S
H777 C791 0.960 . S
H778 C791 0.961 . S
H779 C791 0.959 1_655 S
H780 C794 0.929 . S
H781 C795 0.931 . S
H782 C797 0.930 . S
C783 H771 0.930 . S
C783 C784 1.399 . S
C783 C788 1.399 . S
C784 C783 1.399 . S
C784 C785 1.376 1_455 S
C785 H772 0.930 . S
C785 C784 1.376 1_655 S
C785 C786 1.388 . S
C786 H773 0.930 . S
C786 C785 1.388 . S
C786 C787 1.390 . S
C787 C786 1.390 . S
C787 C788 1.394 1_655 S
C787 C793 1.465 . S
C788 C783 1.399 . S
C788 C787 1.394 1_455 S
C788 C789 1.516 . S
C789 C788 1.516 . S
C789 C790 1.502 . S
C789 C791 1.561 . S
C789 C792 1.526 . S
C790 H774 0.959 . S
C790 H775 0.959 . S
C790 H776 0.961 . S
C790 C789 1.502 . S
C791 H777 0.960 . S
C791 H778 0.961 . S
C791 H779 0.959 1_455 S
C791 C789 1.561 . S
C792 C789 1.526 . S
C792 C793 1.396 1_455 S
C792 C797 1.390 . S
C793 C787 1.465 . S
C793 C792 1.396 1_655 S
C793 C794 1.399 . S
C794 H780 0.929 . S
C794 C793 1.399 . S
C794 C795 1.385 . S
C795 H781 0.931 . S
C795 C794 1.385 . S
C795 C796 1.389 . S
C796 C795 1.389 . S
C796 C797 1.387 1_655 S
C797 H782 0.930 . S
C797 C792 1.390 . S
C797 C796 1.387 1_455 S
C325 C19 1.855 . S
C337 C303 1.804 . S
C352 C46 1.255 . S
C364 C239 1.241 . S
C379 C95 0.352 . S
C391 C271 0.407 . S
C406 C10 1.958 . S
C418 C297 1.937 . S
C445 C233 1.247 . S
C433 C55 1.277 . S
C472 C265 0.632 . S
C460 C86 0.483 . S
C487 C59 3.067 . S
C499 C175 3.018 . S
C514 C90 1.946 . S
C526 C207 1.918 . S
C541 C15 1.303 . S
C553 C137 1.273 . S
C580 C169 2.926 . S
C568 C50 2.950 . S
C607 C201 1.863 . S
C595 C99 1.900 . S
C622 C6 1.242 . S
C634 C143 1.231 . S
C661 C213 1.320 . S
C649 C9 1.364 . S
C676 C58 1.436 . S
C688 C149 1.491 . S
C703 C98 1.670 . S
C715 C181 1.729 . S
C742 C277 1.098 . S
C730 C49 1.109 . S
C769 C309 1.299 . S
C757 C89 1.295 . S
C784 C18 1.461 . S
C796 C245 1.438 1_655 S
