# Generated by pormake.
# Topology pyr, (3,6)-cn, num edge types: 1
# Building blocks:
#     Node 0, Type 0, BuildingBlock: KAKCAD_clean_linker_0, # of connection points: 3
#     Node 1, Type 0, BuildingBlock: KAKCAD_clean_linker_0, # of connection points: 3
#     Node 2, Type 0, BuildingBlock: KAKCAD_clean_linker_0, # of connection points: 3
#     Node 3, Type 0, BuildingBlock: KAKCAD_clean_linker_0, # of connection points: 3
#     Node 4, Type 0, BuildingBlock: KAKCAD_clean_linker_0, # of connection points: 3
#     Node 5, Type 0, BuildingBlock: KAKCAD_clean_linker_0, # of connection points: 3
#     Node 6, Type 0, BuildingBlock: KAKCAD_clean_linker_0, # of connection points: 3
#     Node 7, Type 0, BuildingBlock: KAKCAD_clean_linker_0, # of connection points: 3
#     Node 8, Type 1, BuildingBlock: LEVNOQ01_clean_sbu_1, # of connection points: 6
#     Node 9, Type 1, BuildingBlock: LEVNOQ01_clean_sbu_1, # of connection points: 6
#     Node 10, Type 1, BuildingBlock: LEVNOQ01_clean_sbu_1, # of connection points: 6
#     Node 11, Type 1, BuildingBlock: LEVNOQ01_clean_sbu_1, # of connection points: 6
#     Edge 12, Type (0, 1), BuildingBlock: KIFKEQ_clean_linker_1, # of connection points: 2
#     Edge 13, Type (0, 1), BuildingBlock: KIFKEQ_clean_linker_1, # of connection points: 2
#     Edge 14, Type (0, 1), BuildingBlock: KIFKEQ_clean_linker_1, # of connection points: 2
#     Edge 15, Type (0, 1), BuildingBlock: KIFKEQ_clean_linker_1, # of connection points: 2
#     Edge 16, Type (0, 1), BuildingBlock: KIFKEQ_clean_linker_1, # of connection points: 2
#     Edge 17, Type (0, 1), BuildingBlock: KIFKEQ_clean_linker_1, # of connection points: 2
#     Edge 18, Type (0, 1), BuildingBlock: KIFKEQ_clean_linker_1, # of connection points: 2
#     Edge 19, Type (0, 1), BuildingBlock: KIFKEQ_clean_linker_1, # of connection points: 2
#     Edge 20, Type (0, 1), BuildingBlock: KIFKEQ_clean_linker_1, # of connection points: 2
#     Edge 21, Type (0, 1), BuildingBlock: KIFKEQ_clean_linker_1, # of connection points: 2
#     Edge 22, Type (0, 1), BuildingBlock: KIFKEQ_clean_linker_1, # of connection points: 2
#     Edge 23, Type (0, 1), BuildingBlock: KIFKEQ_clean_linker_1, # of connection points: 2
#     Edge 24, Type (0, 1), BuildingBlock: KIFKEQ_clean_linker_1, # of connection points: 2
#     Edge 25, Type (0, 1), BuildingBlock: KIFKEQ_clean_linker_1, # of connection points: 2
#     Edge 26, Type (0, 1), BuildingBlock: KIFKEQ_clean_linker_1, # of connection points: 2
#     Edge 27, Type (0, 1), BuildingBlock: KIFKEQ_clean_linker_1, # of connection points: 2
#     Edge 28, Type (0, 1), BuildingBlock: KIFKEQ_clean_linker_1, # of connection points: 2
#     Edge 29, Type (0, 1), BuildingBlock: KIFKEQ_clean_linker_1, # of connection points: 2
#     Edge 30, Type (0, 1), BuildingBlock: KIFKEQ_clean_linker_1, # of connection points: 2
#     Edge 31, Type (0, 1), BuildingBlock: KIFKEQ_clean_linker_1, # of connection points: 2
#     Edge 32, Type (0, 1), BuildingBlock: KIFKEQ_clean_linker_1, # of connection points: 2
#     Edge 33, Type (0, 1), BuildingBlock: KIFKEQ_clean_linker_1, # of connection points: 2
#     Edge 34, Type (0, 1), BuildingBlock: KIFKEQ_clean_linker_1, # of connection points: 2
#     Edge 35, Type (0, 1), BuildingBlock: KIFKEQ_clean_linker_1, # of connection points: 2
# Relax obj value: 0.034
# Max RMSD: 0.110
# Mean RMSD: 0.045
data_MOF--net-pry--node1-LEVNOQ01_clean_sbu_1--node2-KAKCAD_clean_linker_0--edge1-KIFKEQ_clean_linker_1
_symmetry_space_group_name_H-M    P1
_symmetry_Int_Tables_number       1
_symmetry_cell_setting            triclinic
loop_
_symmetry_equiv_pos_as_xyz
'x, y, z'
_cell_length_a     46.888742
_cell_length_b     45.143029
_cell_length_c     45.038766
_cell_angle_alpha  92.530382
_cell_angle_beta   90.591477
_cell_angle_gamma 93.075629
loop_
_atom_site_label
_atom_site_type_symbol
_atom_site_fract_x
_atom_site_fract_y
_atom_site_fract_z
_atom_type_partial_charge
C0 C 0.09339 0.12477 0.23244 0.0
C1 C 0.11169 0.11936 0.25634 0.0
C2 C 0.10434 0.13538 0.20591 0.0
C3 C 0.13392 0.14074 0.20251 0.0
C4 C 0.1522 0.13592 0.2266 0.0
C5 C 0.14121 0.12545 0.25322 0.0
C6 C 0.14568 0.15044 0.17364 0.0
C7 C 0.13244 0.17212 0.15767 0.0
C8 C 0.14302 0.18092 0.13003 0.0
C9 C 0.16724 0.16749 0.11846 0.0
C10 C 0.18102 0.1461 0.13431 0.0
C11 C 0.17003 0.13771 0.1618 0.0
C12 C 0.20727 0.13285 0.12256 0.0
C13 C 0.20901 0.12301 0.09258 0.0
C14 C 0.23089 0.12998 0.14147 0.0
C15 C 0.25573 0.11779 0.13069 0.0
C16 C 0.25757 0.108 0.10073 0.0
C17 C 0.1291 0.20452 0.11366 0.0
C18 C 0.09928 0.20666 0.11409 0.0
C19 C 0.14552 0.2255 0.09797 0.0
C20 C 0.13253 0.2481 0.08338 0.0
C21 C 0.10274 0.25058 0.08429 0.0
C22 C 0.08632 0.22944 0.0998 0.0
C23 C 0.23385 0.11054 0.08182 0.0
H24 H 0.07051 0.1206 0.23418 0.0
H25 H 0.08967 0.13866 0.18776 0.0
H26 H 0.17506 0.14015 0.22484 0.0
H27 H 0.15595 0.12131 0.27105 0.0
H28 H 0.11429 0.18272 0.16726 0.0
H29 H 0.18011 0.12064 0.17369 0.0
H30 H 0.1756 0.17385 0.0972 0.0
H31 H 0.19108 0.12472 0.07752 0.0
H32 H 0.23033 0.13756 0.16461 0.0
H33 H 0.27351 0.1159 0.1459 0.0
H34 H 0.0858 0.19071 0.12551 0.0
H35 H 0.16856 0.2249 0.09736 0.0
H36 H 0.23468 0.10336 0.05859 0.0
H37 H 0.0634 0.23072 0.10145 0.0
H38 H 0.14593 0.26361 0.07136 0.0
C39 C 0.36612 0.9167 0.73017 0.0
C40 C 0.39568 0.91818 0.73618 0.0
C41 C 0.35514 0.904 0.70332 0.0
C42 C 0.37341 0.89303 0.68132 0.0
C43 C 0.403 0.89492 0.6871 0.0
C44 C 0.41395 0.90704 0.71423 0.0
C45 C 0.36154 0.87948 0.65265 0.0
C46 C 0.33693 0.89023 0.63979 0.0
C47 C 0.32448 0.87667 0.61374 0.0
C48 C 0.33795 0.85299 0.59948 0.0
C49 C 0.36309 0.84239 0.61141 0.0
C50 C 0.37436 0.85542 0.63828 0.0
C51 C 0.37751 0.8175 0.59615 0.0
C52 C 0.36158 0.79324 0.58245 0.0
C53 C 0.4075 0.81768 0.59554 0.0
C54 C 0.42121 0.7939 0.5823 0.0
C55 C 0.40529 0.76942 0.56913 0.0
C56 C 0.29706 0.88699 0.60207 0.0
C57 C 0.27588 0.89589 0.62194 0.0
C58 C 0.29175 0.8882 0.57131 0.0
C59 C 0.2661 0.89866 0.5608 0.0
C60 C 0.2455 0.90844 0.58086 0.0
C61 C 0.25055 0.90667 0.61148 0.0
C62 C 0.37533 0.76951 0.56898 0.0
H63 H 0.3513 0.9254 0.74617 0.0
H64 H 0.33219 0.90252 0.70007 0.0
H65 H 0.41786 0.88713 0.67064 0.0
H66 H 0.43679 0.90719 0.71806 0.0
H67 H 0.32749 0.90949 0.64996 0.0
H68 H 0.39277 0.84622 0.64841 0.0
H69 H 0.32876 0.84267 0.57916 0.0
H70 H 0.33846 0.79216 0.58282 0.0
H71 H 0.42047 0.83627 0.60528 0.0
H72 H 0.44434 0.79465 0.58237 0.0
H73 H 0.27879 0.89447 0.64571 0.0
H74 H 0.30763 0.88175 0.55536 0.0
H75 H 0.3625 0.7508 0.55931 0.0
H76 H 0.23478 0.91355 0.6274 0.0
H77 H 0.2627 0.89991 0.53708 0.0
C78 C 0.72469 0.41307 0.90236 0.0
C79 C 0.74493 0.39407 0.91311 0.0
C80 C 0.70288 0.40208 0.88274 0.0
C81 C 0.70067 0.37183 0.87381 0.0
C82 C 0.7208 0.35289 0.8845 0.0
C83 C 0.74272 0.36387 0.90374 0.0
C84 C 0.67739 0.35966 0.85362 0.0
C85 C 0.67156 0.37315 0.82687 0.0
C86 C 0.65048 0.36048 0.80701 0.0
C87 C 0.63468 0.33464 0.8147 0.0
C88 C 0.64045 0.32086 0.84119 0.0
C89 C 0.6618 0.3335 0.86054 0.0
C90 C 0.62479 0.29272 0.84821 0.0
C91 C 0.59491 0.28963 0.84527 0.0
C92 C 0.63975 0.26868 0.85778 0.0
C93 C 0.62511 0.24215 0.86459 0.0
C94 C 0.59519 0.23921 0.8622 0.0
C95 C 0.64541 0.37341 0.77779 0.0
C96 C 0.64555 0.40432 0.77511 0.0
C97 C 0.63982 0.35469 0.75235 0.0
C98 C 0.63348 0.36652 0.72514 0.0
C99 C 0.63294 0.39733 0.72264 0.0
C100 C 0.63943 0.41617 0.74777 0.0
C101 C 0.58023 0.26317 0.85237 0.0
H102 H 0.72553 0.43639 0.90925 0.0
H103 H 0.68748 0.4171 0.87491 0.0
H104 H 0.71986 0.32957 0.87756 0.0
H105 H 0.75831 0.34867 0.91071 0.0
H106 H 0.68429 0.39274 0.82101 0.0
H107 H 0.66614 0.32308 0.88122 0.0
H108 H 0.61815 0.32485 0.79977 0.0
H109 H 0.58286 0.30787 0.83801 0.0
H110 H 0.66283 0.27037 0.8599 0.0
H111 H 0.63717 0.22417 0.87244 0.0
H112 H 0.64955 0.41934 0.7943 0.0
H113 H 0.64029 0.33081 0.75343 0.0
H114 H 0.55716 0.26145 0.85022 0.0
H115 H 0.63884 0.44004 0.74651 0.0
H116 H 0.62893 0.35153 0.70603 0.0
C117 C 0.87158 0.61146 0.26662 0.0
C118 C 0.90005 0.60643 0.25943 0.0
C119 C 0.86398 0.61763 0.296 0.0
C120 C 0.88468 0.61901 0.31887 0.0
C121 C 0.91328 0.61476 0.31166 0.0
C122 C 0.92089 0.60845 0.28223 0.0
C123 C 0.8762 0.62475 0.35012 0.0
C124 C 0.85121 0.61073 0.36089 0.0
C125 C 0.84149 0.61763 0.38964 0.0
C126 C 0.85783 0.63816 0.40805 0.0
C127 C 0.88324 0.65204 0.39783 0.0
C128 C 0.89226 0.64514 0.36881 0.0
C129 C 0.89928 0.67531 0.4166 0.0
C130 C 0.88458 0.69671 0.43302 0.0
C131 C 0.92932 0.67725 0.41708 0.0
C132 C 0.94427 0.70062 0.43288 0.0
C133 C 0.9295 0.72253 0.44855 0.0
C134 C 0.81353 0.6046 0.39968 0.0
C135 C 0.79045 0.60005 0.37948 0.0
C136 C 0.80936 0.59728 0.42946 0.0
C137 C 0.7827 0.58599 0.4388 0.0
C138 C 0.75986 0.58134 0.41843 0.0
C139 C 0.76404 0.58837 0.3887 0.0
C140 C 0.8995 0.72 0.44884 0.0
H141 H 0.8551 0.61061 0.24953 0.0
H142 H 0.84185 0.62145 0.3008 0.0
H143 H 0.92966 0.61554 0.32887 0.0
H144 H 0.94295 0.60427 0.27751 0.0
H145 H 0.83928 0.59435 0.3467 0.0
H146 H 0.91109 0.65668 0.36025 0.0
H147 H 0.85047 0.64393 0.43016 0.0
H148 H 0.86146 0.69621 0.43269 0.0
H149 H 0.94128 0.66089 0.40496 0.0
H150 H 0.9674 0.70182 0.43245 0.0
H151 H 0.79251 0.60609 0.35657 0.0
H152 H 0.82671 0.60008 0.44555 0.0
H153 H 0.88744 0.7368 0.46016 0.0
H154 H 0.74664 0.58544 0.37265 0.0
H155 H 0.78001 0.58057 0.46182 0.0
C156 C 0.88053 0.85903 0.74589 0.0
C157 C 0.88019 0.88926 0.73969 0.0
C158 C 0.87225 0.84923 0.77378 0.0
C159 C 0.86369 0.86947 0.79623 0.0
C160 C 0.86396 0.89978 0.79011 0.0
C161 C 0.87198 0.90951 0.76221 0.0
C162 C 0.85399 0.85911 0.82572 0.0
C163 C 0.86717 0.83584 0.83931 0.0
C164 C 0.85766 0.82553 0.86677 0.0
C165 C 0.83519 0.83969 0.88112 0.0
C166 C 0.82172 0.86316 0.86806 0.0
C167 C 0.83113 0.87232 0.84018 0.0
C168 C 0.79725 0.87758 0.88286 0.0
C169 C 0.77739 0.86095 0.89946 0.0
C170 C 0.79307 0.908 0.87989 0.0
C171 C 0.76928 0.92112 0.89228 0.0
C172 C 0.74918 0.90435 0.90849 0.0
C173 C 0.87051 0.79932 0.87984 0.0
C174 C 0.87848 0.77531 0.86132 0.0
C175 C 0.87425 0.79757 0.91078 0.0
C176 C 0.88513 0.77231 0.92282 0.0
C177 C 0.89272 0.74816 0.90425 0.0
C178 C 0.88959 0.75026 0.87331 0.0
C179 C 0.75394 0.87419 0.91232 0.0
H180 H 0.88658 0.84285 0.72896 0.0
H181 H 0.87197 0.82568 0.77748 0.0
H182 H 0.85816 0.91614 0.80697 0.0
H183 H 0.87204 0.93303 0.75838 0.0
H184 H 0.88518 0.82597 0.82863 0.0
H185 H 0.82001 0.88925 0.82917 0.0
H186 H 0.82792 0.83211 0.90235 0.0
H187 H 0.77949 0.83745 0.90208 0.0
H188 H 0.80813 0.9218 0.86784 0.0
H189 H 0.76643 0.94431 0.88857 0.0
H190 H 0.87561 0.77551 0.83745 0.0
H191 H 0.86876 0.81573 0.92578 0.0
H192 H 0.73949 0.86056 0.92524 0.0
H193 H 0.89565 0.73245 0.85818 0.0
H194 H 0.88699 0.77149 0.94675 0.0
C195 C 0.60001 0.06634 0.29838 0.0
C196 C 0.59683 0.08412 0.27394 0.0
C197 C 0.60862 0.07931 0.32605 0.0
C198 C 0.61362 0.11026 0.32971 0.0
C199 C 0.60951 0.12803 0.30537 0.0
C200 C 0.60145 0.11502 0.27763 0.0
C201 C 0.62497 0.12395 0.3582 0.0
C202 C 0.64939 0.11321 0.37123 0.0
C203 C 0.66203 0.12762 0.39668 0.0
C204 C 0.64979 0.15282 0.40936 0.0
C205 C 0.62466 0.1634 0.39725 0.0
C206 C 0.61251 0.14876 0.37147 0.0
C207 C 0.61126 0.18969 0.41138 0.0
C208 C 0.61245 0.1951 0.44247 0.0
C209 C 0.59697 0.20956 0.39396 0.0
C210 C 0.58387 0.23374 0.40726 0.0
C211 C 0.58531 0.239 0.43814 0.0
C212 C 0.68857 0.11669 0.40929 0.0
C213 C 0.69056 0.08636 0.41398 0.0
C214 C 0.71246 0.1362 0.41537 0.0
C215 C 0.73827 0.12534 0.4248 0.0
C216 C 0.74059 0.09478 0.42865 0.0
C217 C 0.71618 0.07556 0.42379 0.0
C218 C 0.59986 0.21973 0.45567 0.0
H219 H 0.59666 0.04243 0.29583 0.0
H220 H 0.61166 0.06517 0.34452 0.0
H221 H 0.61354 0.15189 0.30755 0.0
H222 H 0.59917 0.12904 0.25893 0.0
H223 H 0.65933 0.09435 0.36077 0.0
H224 H 0.59309 0.15626 0.36175 0.0
H225 H 0.66002 0.16415 0.42866 0.0
H226 H 0.62269 0.18011 0.45678 0.0
H227 H 0.59609 0.20672 0.36997 0.0
H228 H 0.57285 0.24859 0.39338 0.0
H229 H 0.6723 0.07093 0.40986 0.0
H230 H 0.71151 0.15969 0.41171 0.0
H231 H 0.60103 0.22343 0.47959 0.0
H232 H 0.71689 0.05202 0.42721 0.0
H233 H 0.75663 0.14079 0.42795 0.0
C234 C 0.23845 0.61607 0.13824 0.0
C235 C 0.24172 0.61142 0.10746 0.0
C236 C 0.26082 0.62914 0.15578 0.0
C237 C 0.28675 0.63824 0.14278 0.0
C238 C 0.29027 0.63302 0.11207 0.0
C239 C 0.268 0.61944 0.09457 0.0
C240 C 0.30919 0.65484 0.16108 0.0
C241 C 0.31777 0.64434 0.1885 0.0
C242 C 0.33725 0.6613 0.20723 0.0
C243 C 0.34766 0.68924 0.19812 0.0
C244 C 0.34004 0.69949 0.17038 0.0
C245 C 0.32093 0.68211 0.15186 0.0
C246 C 0.35245 0.72824 0.16065 0.0
C247 C 0.35239 0.75388 0.17954 0.0
C248 C 0.36531 0.72994 0.13274 0.0
C249 C 0.3784 0.75664 0.1241 0.0
C250 C 0.37855 0.78224 0.14304 0.0
C251 C 0.34712 0.64987 0.23597 0.0
C252 C 0.32915 0.63118 0.25267 0.0
C253 C 0.37487 0.65754 0.24692 0.0
C254 C 0.38421 0.64729 0.27388 0.0
C255 C 0.36654 0.62805 0.29028 0.0
C256 C 0.33885 0.6201 0.27923 0.0
C257 C 0.36512 0.78074 0.17069 0.0
H258 H 0.21847 0.60976 0.14872 0.0
H259 H 0.25751 0.63307 0.17937 0.0
H260 H 0.31014 0.63971 0.1016 0.0
H261 H 0.271 0.61602 0.07088 0.0
H262 H 0.3095 0.62269 0.19482 0.0
H263 H 0.31437 0.69039 0.13076 0.0
H264 H 0.36202 0.70313 0.21244 0.0
H265 H 0.34248 0.75311 0.20113 0.0
H266 H 0.36581 0.71043 0.11789 0.0
H267 H 0.38844 0.7573 0.10256 0.0
H268 H 0.30748 0.62506 0.2454 0.0
H269 H 0.38975 0.67125 0.23458 0.0
H270 H 0.36507 0.80015 0.18571 0.0
H271 H 0.32466 0.60493 0.29077 0.0
H272 H 0.40543 0.65457 0.28173 0.0
C273 C 0.10588 0.28739 0.55748 0.0
C274 C 0.07679 0.27935 0.56103 0.0
C275 C 0.11845 0.31244 0.57254 0.0
C276 C 0.1022 0.33081 0.59098 0.0
C277 C 0.07295 0.32314 0.59424 0.0
C278 C 0.06042 0.29762 0.57953 0.0
C279 C 0.11608 0.35764 0.60669 0.0
C280 C 0.13837 0.37379 0.59301 0.0
C281 C 0.15372 0.39725 0.6083 0.0
C282 C 0.14554 0.40597 0.63705 0.0
C283 C 0.12318 0.39038 0.65127 0.0
C284 C 0.10858 0.36616 0.6359 0.0
C285 C 0.1161 0.39867 0.68257 0.0
C286 C 0.13787 0.40838 0.70306 0.0
C287 C 0.08762 0.39733 0.69217 0.0
C288 C 0.08109 0.406 0.72138 0.0
C289 C 0.10285 0.41646 0.74146 0.0
C290 C 0.1802 0.41038 0.59546 0.0
C291 C 0.20057 0.39161 0.58368 0.0
C292 C 0.18615 0.44122 0.59642 0.0
C293 C 0.21222 0.45301 0.58607 0.0
C294 C 0.233 0.43415 0.57498 0.0
C295 C 0.22667 0.40331 0.57369 0.0
C296 C 0.13129 0.41743 0.73207 0.0
H297 H 0.11915 0.27424 0.54313 0.0
H298 H 0.14116 0.31708 0.56995 0.0
H299 H 0.0597 0.33683 0.60808 0.0
H300 H 0.03805 0.29194 0.5832 0.0
H301 H 0.1443 0.36784 0.57042 0.0
H302 H 0.09227 0.35315 0.64715 0.0
H303 H 0.15728 0.42438 0.64865 0.0
H304 H 0.16011 0.40892 0.69679 0.0
H305 H 0.07029 0.39025 0.67697 0.0
H306 H 0.05893 0.40531 0.72803 0.0
H307 H 0.19677 0.3677 0.58322 0.0
H308 H 0.17071 0.45617 0.60528 0.0
H309 H 0.14848 0.42503 0.74727 0.0
H310 H 0.24228 0.38799 0.56601 0.0
H311 H 0.21617 0.47689 0.58701 0.0
O312 O 0.97369 0.01486 0.57584 0.0
Mg313 Mg 0.00907 0.03056 0.55325 0.0
O314 O 0.97021 0.98173 0.53868 0.0
Mg315 Mg -0.00456 0.00217 0.49709 0.0
O316 O 0.0031 0.05214 0.51481 0.0
O317 O 0.01406 0.07465 0.55946 0.0
O318 O 0.02011 0.02124 0.45471 0.0
O319 O 0.95072 0.01717 0.48079 0.0
Mg320 Mg 0.97785 0.96971 0.43869 0.0
O321 O 0.98764 0.95343 0.47884 0.0
O322 O 0.01238 0.98901 0.4168 0.0
O323 O 0.93958 0.99167 0.43882 0.0
O324 O 0.97525 0.92477 0.43829 0.0
C325 C 0.05536 0.99166 0.5368 0.0
C326 C 0.96299 0.99064 0.56478 0.0
C327 C 0.00837 0.07618 0.53152 0.0
C328 C 0.02503 0.01239 0.42788 0.0
C329 C 0.93358 0.01078 0.45889 0.0
C330 C 0.98272 0.92728 0.46598 0.0
O331 O 0.04713 0.00884 0.55753 0.0
O332 O 0.04018 0.98689 0.51319 0.0
O333 O 0.4674 0.05592 0.04391 0.0
Mg334 Mg 0.50694 0.05654 0.02207 0.0
O335 O 0.45458 0.01676 0.01564 0.0
Mg336 Mg 0.50114 0.00296 0.00298 0.0
O337 O 0.51326 0.04746 0.97777 0.0
O338 O 0.50807 0.09317 -0.00133 0.0
O339 O 0.54895 0.98986 0.98973 0.0
O340 O 0.48175 0.98925 0.95543 0.0
Mg341 Mg 0.50688 0.93952 0.99024 0.0
O342 O 0.4858 0.95874 0.0249 0.0
O343 O 0.55073 0.94166 0.99464 0.0
O344 O 0.48961 0.94177 0.94745 0.0
O345 O 0.48768 0.90937 0.01588 0.0
C346 C 0.53886 0.03458 0.06294 0.0
C347 C 0.44812 0.03734 0.03425 0.0
C348 C 0.51339 0.0762 0.97592 0.0
C349 C 0.56328 0.96647 0.9904 0.0
C350 C 0.48031 0.96566 0.93863 0.0
C351 C 0.47968 0.93154 0.03221 0.0
O352 O 0.54323 0.05745 0.04835 0.0
O353 O 0.52107 0.01411 0.05251 0.0
O354 O 0.50199 0.57481 0.54855 0.0
Mg355 Mg 0.49355 0.53084 0.5584 0.0
O356 O 0.48895 0.5573 0.50403 0.0
Mg357 Mg 0.49791 0.50565 0.50053 0.0
O358 O 0.5229 0.50087 0.54615 0.0
O359 O 0.51838 0.52134 0.59234 0.0
O360 O 0.50588 0.45394 0.49489 0.0
O361 O 0.54283 0.51853 0.48141 0.0
Mg362 Mg 0.50124 0.48247 0.43408 0.0
O363 O 0.4745 0.50941 0.45579 0.0
O364 O 0.49699 0.43923 0.44801 0.0
O365 O 0.54266 0.50342 0.43385 0.0
O366 O 0.46962 0.49647 0.40749 0.0
C367 C 0.43911 0.49848 0.5422 0.0
C368 C 0.49395 0.5793 0.5225 0.0
C369 C 0.53116 0.504 0.57393 0.0
C370 C 0.50274 0.43328 0.4745 0.0
C371 C 0.55529 0.51623 0.45637 0.0
C372 C 0.46134 0.51149 0.43056 0.0
O373 O 0.45102 0.5145 0.56301 0.0
O374 O 0.45268 0.49249 0.51849 0.0
O375 O 0.99191 0.43946 0.047 0.0
Mg376 Mg 0.00818 0.48364 0.05043 0.0
O377 O 0.0141 0.45175 0.00702 0.0
Mg378 Mg -0.00314 0.50123 0.0011 0.0
O379 O 0.97991 0.51622 0.04957 0.0
O380 O -0.00231 0.49774 0.0912 0.0
O381 O 0.98176 0.54865 0.98998 0.0
O382 O 0.94902 0.47897 -0.00204 0.0
Mg383 Mg 0.97219 0.49249 0.95187 0.0
O384 O 0.01566 0.49112 0.95247 0.0
O385 O 0.95015 0.53219 0.95629 0.0
O386 O 0.94958 0.45186 0.95683 0.0
O387 O 0.98846 0.49287 0.91107 0.0
C388 C 0.06042 0.51411 0.02775 0.0
C389 C 0.00594 0.43168 0.02468 0.0
C390 C 0.98088 0.51499 0.07842 0.0
C391 C 0.96109 0.55343 0.97253 0.0
C392 C 0.9376 0.45818 0.98095 0.0
C393 C 0.01295 0.49043 0.92361 0.0
O394 O 0.05271 0.49429 0.04549 0.0
O395 O 0.0422 0.52343 0.00971 0.0
H396 H 0.07096 0.07424 0.25989 0.0
H397 H 0.1264 0.13387 0.31482 0.0
H398 H 0.05298 0.05075 0.30403 0.0
H399 H 0.10857 0.10976 0.35934 0.0
H400 H 0.03917 0.07295 0.42967 0.0
H401 H 0.06188 0.10095 0.38964 0.0
H402 H 0.075 0.01861 0.34058 0.0
H403 H 0.05269 0.99102 0.37989 0.0
C404 C 0.07914 0.08255 0.28142 0.0
C405 C 0.10014 0.10597 0.28374 0.0
C406 C 0.06904 0.06887 0.30675 0.0
C407 C 0.07955 0.0782 0.33521 0.0
C408 C 0.10004 0.10211 0.33774 0.0
C409 C 0.11038 0.11572 0.31224 0.0
C410 C 0.04757 0.06092 0.41065 0.0
C411 C 0.04377 0.02978 0.4078 0.0
C412 C 0.06045 0.07692 0.3877 0.0
C413 C 0.06959 0.06197 0.36163 0.0
C414 C 0.06753 0.03083 0.35997 0.0
C415 C 0.05486 0.01501 0.38267 0.0
H416 H 0.44704 0.9493 0.74779 0.0
H417 H 0.37094 0.91531 0.79127 0.0
H418 H 0.4676 0.96564 0.79605 0.0
H419 H 0.3911 0.93334 0.83914 0.0
H420 H 0.432 0.99072 0.91862 0.0
H421 H 0.41046 0.98361 0.86848 0.0
H422 H 0.48176 0.93313 0.84025 0.0
H423 H 0.50268 0.93952 0.89004 0.0
C424 C 0.43457 0.94537 0.76746 0.0
C425 C 0.40734 0.9306 0.76539 0.0
C426 C 0.44628 0.95509 0.79507 0.0
C427 C 0.43084 0.95087 0.8212 0.0
C428 C 0.40324 0.93727 0.81923 0.0
C429 C 0.39171 0.927 0.79169 0.0
C430 C 0.44317 0.97859 0.90146 0.0
C431 C 0.46889 0.96559 0.90804 0.0
C432 C 0.43084 0.97438 0.87296 0.0
C433 C 0.44454 0.95787 0.8506 0.0
C434 C 0.4709 0.94616 0.85698 0.0
C435 C 0.48279 0.94972 0.88547 0.0
H436 H 0.58778 0.3785 0.68688 0.0
H437 H 0.65816 0.44418 0.6947 0.0
H438 H 0.56987 0.40223 0.6435 0.0
H439 H 0.64076 0.46758 0.6507 0.0
H440 H 0.57103 0.52533 0.61346 0.0
H441 H 0.60119 0.49689 0.64395 0.0
H442 H 0.57417 0.4168 0.59269 0.0
H443 H 0.54302 0.44581 0.56236 0.0
C444 C 0.59983 0.39758 0.6788 0.0
C445 C 0.62417 0.40974 0.69431 0.0
C446 C 0.58969 0.41108 0.65379 0.0
C447 C 0.6038 0.43692 0.64366 0.0
C448 C 0.62913 0.44799 0.65821 0.0
C449 C 0.63908 0.43467 0.68341 0.0
C450 C 0.57217 0.50177 0.60816 0.0
C451 C 0.55465 0.48764 0.58581 0.0
C452 C 0.58963 0.48542 0.62553 0.0
C453 C 0.58996 0.45446 0.62097 0.0
C454 C 0.57409 0.44059 0.59697 0.0
C455 C 0.55657 0.45715 0.57937 0.0
H456 H 0.94782 0.62384 0.22864 0.0
H457 H 0.86958 0.56877 0.22037 0.0
H458 H 0.96235 0.60497 0.1798 0.0
H459 H 0.88346 0.55114 0.17113 0.0
H460 H 0.94368 0.49167 0.11654 0.0
H461 H 0.92012 0.51762 0.15694 0.0
H462 H 0.9528 0.6017 0.12519 0.0
H463 H 0.97666 0.57515 0.08437 0.0
C464 C 0.93357 0.60804 0.21625 0.0
C465 C 0.90767 0.59761 0.22852 0.0
C466 C 0.94168 0.5976 0.18808 0.0
C467 C 0.92403 0.57657 0.17166 0.0
C468 C 0.89758 0.56721 0.18337 0.0
C469 C 0.88954 0.57751 0.21151 0.0
C470 C 0.94504 0.51575 0.1177 0.0
C471 C 0.96168 0.53156 0.09747 0.0
C472 C 0.93152 0.53065 0.14077 0.0
C473 C 0.93465 0.56172 0.14427 0.0
C474 C 0.95017 0.57771 0.12305 0.0
C475 C 0.9635 0.56267 0.09959 0.0
H476 H 0.31191 0.13047 0.11125 0.0
H477 H 0.26407 0.05831 0.06431 0.0
H478 H 0.35625 0.11034 0.09469 0.0
H479 H 0.30881 0.03739 0.04818 0.0
H480 H 0.39766 0.02711 0.00251 0.0
H481 H 0.35038 0.0428 0.01755 0.0
H482 H 0.38509 0.07117 0.10412 0.0
H483 H 0.43197 0.05693 0.08858 0.0
C484 C 0.31091 0.11006 0.09761 0.0
C485 C 0.28447 0.09583 0.0894 0.0
C486 C 0.3364 0.09836 0.08817 0.0
C487 C 0.3363 0.0718 0.07052 0.0
C488 C 0.30979 0.05788 0.06166 0.0
C489 C 0.28414 0.06984 0.07093 0.0
C490 C 0.39491 0.03628 0.02486 0.0
C491 C 0.41851 0.04113 0.04428 0.0
C492 C 0.36785 0.04531 0.03352 0.0
C493 C 0.36395 0.059 0.06186 0.0
C494 C 0.38734 0.06176 0.08178 0.0
C495 C 0.41423 0.05327 0.073 0.0
H496 H 0.20744 0.88557 0.53802 0.0
H497 H 0.22404 0.96031 0.59998 0.0
H498 H 0.16123 0.90483 0.52492 0.0
H499 H 0.1787 0.97999 0.58646 0.0
H500 H 0.08437 0.98687 0.58847 0.0
H501 H 0.13028 0.96646 0.59621 0.0
H502 H 0.1355 0.94419 0.50218 0.0
H503 H 0.08839 0.9641 0.49445 0.0
C504 C 0.20136 0.90634 0.54843 0.0
C505 C 0.219 0.92124 0.57035 0.0
C506 C 0.17499 0.91741 0.54091 0.0
C507 C 0.16599 0.94367 0.55505 0.0
C508 C 0.18451 0.95925 0.57577 0.0
C509 C 0.21056 0.94808 0.58346 0.0
C510 C 0.09517 0.97763 0.56933 0.0
C511 C 0.08282 0.97745 0.54076 0.0
C512 C 0.1217 0.96607 0.57377 0.0
C513 C 0.13695 0.95427 0.54974 0.0
C514 C 0.12431 0.95316 0.52117 0.0
C515 C 0.0974 0.96461 0.51672 0.0
H516 H 0.77509 0.44791 0.91193 0.0
H517 H 0.76994 0.36638 0.95905 0.0
H518 H 0.81881 0.4635 0.93921 0.0
H519 H 0.81455 0.38157 0.98517 0.0
H520 H 0.91517 0.40257 0.9676 0.0
H521 H 0.86463 0.38794 0.96015 0.0
H522 H 0.84214 0.47499 0.99236 0.0
H523 H 0.89288 0.48941 0.00059 0.0
C524 C 0.7828 0.43358 0.92855 0.0
C525 C 0.76915 0.40559 0.93281 0.0
C526 C 0.80791 0.44256 0.94419 0.0
C527 C 0.82009 0.42363 0.96414 0.0
C528 C 0.80567 0.39646 0.96973 0.0
C529 C 0.7803 0.38768 0.95449 0.0
C530 C 0.89936 0.41814 0.97422 0.0
C531 C 0.90783 0.44704 0.98471 0.0
C532 C 0.87046 0.40979 0.96997 0.0
C533 C 0.84956 0.43044 0.9755 0.0
C534 C 0.8579 0.45872 0.98792 0.0
C535 C 0.88686 0.46685 0.99285 0.0
H536 H 0.72843 0.60086 0.46552 0.0
H537 H 0.72724 0.53565 0.39247 0.0
H538 H 0.679 0.58548 0.47697 0.0
H539 H 0.67841 0.51965 0.40426 0.0
H540 H 0.58338 0.52589 0.40499 0.0
H541 H 0.63323 0.54082 0.39865 0.0
H542 H 0.64575 0.54635 0.49397 0.0
H543 H 0.5951 0.53203 0.50041 0.0
C544 C 0.71774 0.58284 0.45232 0.0
C545 C 0.73142 0.56968 0.42788 0.0
C546 C 0.68948 0.57401 0.45887 0.0
C547 C 0.67455 0.55172 0.44118 0.0
C548 C 0.68896 0.53749 0.4178 0.0
C549 C 0.71698 0.5465 0.41111 0.0
C550 C 0.59665 0.53036 0.42468 0.0
C551 C 0.58529 0.52752 0.45321 0.0
C552 C 0.62536 0.53871 0.42102 0.0
C553 C 0.64367 0.54421 0.44578 0.0
C554 C 0.6322 0.54229 0.47444 0.0
C555 C 0.60323 0.53407 0.47813 0.0
H556 H 0.05029 0.24959 0.05608 0.0
H557 H 0.12364 0.30835 0.07971 0.0
H558 H 0.02645 0.29101 0.03579 0.0
H559 H 0.10002 0.34944 0.05865 0.0
H560 H 0.05735 0.41547 0.00248 0.0
H561 H 0.08129 0.36986 0.01227 0.0
H562 H 0.0062 0.33616 0.05721 0.0
H563 H 0.98246 0.38145 0.0474 0.0
C564 C 0.06141 0.27126 0.05698 0.0
C565 C 0.08891 0.27547 0.06985 0.0
C566 C 0.04776 0.29499 0.04514 0.0
C567 C 0.06131 0.32356 0.04555 0.0
C568 C 0.08913 0.32764 0.05752 0.0
C569 C 0.1027 0.30397 0.06962 0.0
C570 C 0.0457 0.3979 0.0136 0.0
C571 C 0.01799 0.40199 0.02408 0.0
C572 C 0.05952 0.37195 0.01957 0.0
C573 C 0.04574 0.34944 0.03574 0.0
C574 C 0.01738 0.35287 0.0445 0.0
C575 C 0.00376 0.37886 0.03889 0.0
H576 H 0.60706 0.18153 0.84834 0.0
H577 H 0.5486 0.23511 0.89751 0.0
H578 H 0.58378 0.13662 0.86742 0.0
H579 H 0.52594 0.19073 0.91725 0.0
H580 H 0.48054 0.11098 0.94464 0.0
H581 H 0.49728 0.14697 0.90907 0.0
H582 H 0.58156 0.11262 0.91317 0.0
H583 H 0.564 0.07556 0.94742 0.0
C584 C 0.58913 0.18364 0.86313 0.0
C585 C 0.57965 0.21178 0.8715 0.0
C586 C 0.57583 0.15795 0.87409 0.0
C587 C 0.55293 0.15992 0.89389 0.0
C588 C 0.54303 0.18813 0.90152 0.0
C589 C 0.55612 0.2137 0.89033 0.0
C590 C 0.50229 0.11041 0.9368 0.0
C591 C 0.52102 0.0906 0.94842 0.0
C592 C 0.51205 0.13128 0.91682 0.0
C593 C 0.54099 0.1333 0.90883 0.0
C594 C 0.55911 0.11169 0.91864 0.0
C595 C 0.54911 0.09037 0.93821 0.0
H596 H 0.91966 0.75163 0.50201 0.0
H597 H 0.97379 0.75489 0.42509 0.0
H598 H 0.93944 0.8006 0.51937 0.0
H599 H 0.99318 0.80352 0.44199 0.0
H600 H 0.02592 0.89026 0.46844 0.0
H601 H 0.01944 0.83694 0.47521 0.0
H602 H 0.93239 0.84883 0.5022 0.0
H603 H 0.93961 0.90203 0.49662 0.0
C604 C 0.9361 0.76261 0.48906 0.0
C605 C 0.94493 0.74952 0.46201 0.0
C606 C 0.94746 0.79063 0.49902 0.0
C607 C 0.9678 0.80621 0.48205 0.0
C608 C 0.97797 0.79212 0.45604 0.0
C609 C 0.96672 0.76414 0.44619 0.0
C610 C 0.00604 0.88152 0.47753 0.0
C611 C 0.98331 0.89999 0.48224 0.0
C612 C 0.0021 0.85096 0.48093 0.0
C613 C 0.97512 0.83841 0.48839 0.0
C614 C 0.95349 0.85756 0.49652 0.0
C615 C 0.95759 0.88815 0.49344 0.0
H616 H 0.39419 0.73731 0.5167 0.0
H617 H 0.44919 0.74228 0.5944 0.0
H618 H 0.4182 0.69375 0.49756 0.0
H619 H 0.47252 0.69866 0.57605 0.0
H620 H 0.52357 0.63126 0.53573 0.0
H621 H 0.50381 0.67992 0.54115 0.0
H622 H 0.42297 0.64279 0.50549 0.0
H623 H 0.44365 0.59452 0.49834 0.0
C624 C 0.41139 0.72904 0.52968 0.0
C625 C 0.41998 0.74333 0.55693 0.0
C626 C 0.42514 0.70408 0.51875 0.0
C627 C 0.44762 0.69276 0.53499 0.0
C628 C 0.45599 0.70715 0.56233 0.0
C629 C 0.44248 0.73215 0.57304 0.0
C630 C 0.50197 0.6339 0.52789 0.0
C631 C 0.48513 0.60928 0.51658 0.0
C632 C 0.49041 0.66164 0.53149 0.0
C633 C 0.46145 0.66518 0.52472 0.0
C634 C 0.44533 0.64102 0.51095 0.0
C635 C 0.45719 0.61333 0.50669 0.0
H636 H 0.85316 0.92895 0.7068 0.0
H637 H 0.9254 0.87355 0.70514 0.0
H638 H 0.86818 0.94962 0.6601 0.0
H639 H 0.94085 0.89466 0.6585 0.0
H640 H 0.95602 0.92952 0.5662 0.0
H641 H 0.93239 0.90132 0.60541 0.0
H642 H 0.9059 0.98338 0.64684 0.0
H643 H 0.92868 0.01094 0.60792 0.0
C644 C 0.87229 0.92118 0.69643 0.0
C645 C 0.88829 0.89991 0.70992 0.0
C646 C 0.88091 0.93301 0.66959 0.0
C647 C 0.90594 0.92409 0.65558 0.0
C648 C 0.92131 0.90185 0.66843 0.0
C649 C 0.91253 0.88983 0.69526 0.0
C650 C 0.9444 0.94129 0.58327 0.0
C651 C 0.94424 0.97244 0.58402 0.0
C652 C 0.93119 0.92522 0.60593 0.0
C653 C 0.91733 0.94005 0.62946 0.0
C654 C 0.91596 0.97104 0.62903 0.0
C655 C 0.9292 0.98694 0.60669 0.0
H656 H 0.63256 0.08113 0.22749 0.0
H657 H 0.54664 0.05686 0.25368 0.0
H658 H 0.62164 0.06216 0.17693 0.0
H659 H 0.53476 0.0394 0.20253 0.0
H660 H 0.52324 -0.00107 0.10904 0.0
H661 H 0.53937 0.00552 0.16102 0.0
H662 H 0.59661 0.07878 0.13719 0.0
H663 H 0.58174 0.07128 0.08598 0.0
C664 C 0.61129 0.07163 0.22223 0.0
C665 C 0.59034 0.07055 0.24412 0.0
C666 C 0.60489 0.06094 0.19327 0.0
C667 C 0.57712 0.04964 0.18535 0.0
C668 C 0.55643 0.04762 0.20775 0.0
C669 C 0.56307 0.05782 0.23696 0.0
C670 C 0.53982 0.01587 0.11495 0.0
C671 C 0.55114 0.03461 0.09339 0.0
C672 C 0.54882 0.01992 0.14477 0.0
C673 C 0.5693 0.04276 0.1535 0.0
C674 C 0.58128 0.06057 0.13152 0.0
C675 C 0.5725 0.05642 0.10197 0.0
H676 H 0.33625 0.61226 0.34007 0.0
H677 H 0.42158 0.61493 0.30391 0.0
H678 H 0.35403 0.58833 0.38369 0.0
H679 H 0.43917 0.59344 0.34839 0.0
H680 H 0.46822 0.57116 0.43739 0.0
H681 H 0.44117 0.60558 0.40902 0.0
H682 H 0.37983 0.53421 0.38311 0.0
H683 H 0.40738 0.49974 0.41057 0.0
C684 C 0.35873 0.60815 0.34137 0.0
C685 C 0.37737 0.61566 0.31815 0.0
C686 C 0.36889 0.59487 0.3666 0.0
C687 C 0.39797 0.58973 0.36953 0.0
C688 C 0.41674 0.59798 0.34695 0.0
C689 C 0.40655 0.61043 0.32144 0.0
C690 C 0.44811 0.5633 0.42699 0.0
C691 C 0.43965 0.533 0.42612 0.0
C692 C 0.43282 0.58286 0.4106 0.0
C693 C 0.40863 0.57235 0.39385 0.0
C694 C 0.39828 0.54282 0.39609 0.0
C695 C 0.41392 0.52316 0.41187 0.0
H696 H 0.12216 0.46807 0.77025 0.0
H697 H 0.06765 0.38917 0.78094 0.0
H698 H 0.10832 0.48744 0.81929 0.0
H699 H 0.05373 0.40859 0.82992 0.0
H700 H 0.04574 0.44272 0.92426 0.0
H701 H 0.07376 0.42413 0.88231 0.0
H702 H 0.0598 0.50418 0.83635 0.0
H703 H 0.03153 0.52227 0.87785 0.0
C704 C 0.10759 0.45469 0.78333 0.0
C705 C 0.09586 0.42719 0.77186 0.0
C706 C 0.09966 0.46578 0.81128 0.0
C707 C 0.08017 0.4494 0.82841 0.0
C708 C 0.06917 0.42145 0.81735 0.0
C709 C 0.07683 0.41051 0.78924 0.0
C710 C 0.0498 0.45677 0.9057 0.0
C711 C 0.03687 0.48396 0.90417 0.0
C712 C 0.06546 0.44603 0.88162 0.0
C713 C 0.06874 0.46268 0.8561 0.0
C714 C 0.05783 0.49103 0.85585 0.0
C715 C 0.04175 0.50143 0.87957 0.0
H716 H 0.69564 0.87772 0.91413 0.0
H717 H 0.74289 0.96197 0.93043 0.0
H718 H 0.65385 0.89833 0.93662 0.0
H719 H 0.7 0.98294 0.95156 0.0
H720 H 0.59516 0.00123 0.95227 0.0
H721 H 0.6426 0.99012 0.93274 0.0
H722 H 0.6474 0.919 0.99314 0.0
H723 H 0.60091 0.9301 0.01274 0.0
C724 C 0.69732 0.90057 0.92258 0.0
C725 C 0.72308 0.91787 0.92084 0.0
C726 C 0.67317 0.91246 0.9352 0.0
C727 C 0.67379 0.94216 0.94595 0.0
C728 C 0.69899 0.96 0.94331 0.0
C729 C 0.72349 0.94792 0.9311 0.0
C730 C 0.60689 0.984 0.96206 0.0
C731 C 0.59421 0.96635 0.98384 0.0
C732 C 0.63389 0.97754 0.95079 0.0
C733 C 0.6483 0.95335 0.96113 0.0
C734 C 0.63656 0.93746 0.98451 0.0
C735 C 0.60996 0.94394 0.99577 0.0
H736 H 0.76148 0.0426 0.40775 0.0
H737 H 0.78362 0.1196 0.46558 0.0
H738 H 0.80747 0.02316 0.41782 0.0
H739 H 0.83084 0.10091 0.47401 0.0
H740 H 0.9045 0.04195 0.50198 0.0
H741 H 0.85746 0.06265 0.49673 0.0
H742 H 0.85505 0.03428 0.40377 0.0
H743 H 0.90092 0.01303 0.4092 0.0
C744 C 0.77604 0.05535 0.42283 0.0
C745 C 0.76866 0.0827 0.43588 0.0
C746 C 0.80272 0.04439 0.42822 0.0
C747 C 0.82309 0.06067 0.44639 0.0
C748 C 0.81563 0.08775 0.45999 0.0
C749 C 0.78868 0.09863 0.45483 0.0
C750 C 0.89385 0.04029 0.48047 0.0
C751 C 0.90626 0.02549 0.45613 0.0
C752 C 0.86698 0.0522 0.47742 0.0
C753 C 0.85222 0.04966 0.44994 0.0
C754 C 0.86531 0.03587 0.42548 0.0
C755 C 0.89181 0.02382 0.42857 0.0
H756 H 0.18795 0.63081 0.10584 0.0
H757 H 0.24063 0.56386 0.06766 0.0
H758 H 0.14635 0.60781 0.07902 0.0
H759 H 0.19879 0.54054 0.04087 0.0
H760 H 0.10759 0.48912 0.04874 0.0
H761 H 0.15387 0.51388 0.06145 0.0
H762 H 0.1257 0.59509 0.02657 0.0
H763 H 0.07924 0.57013 0.01348 0.0
C764 C 0.19061 0.61131 0.09143 0.0
C765 C 0.21734 0.59889 0.08897 0.0
C766 C 0.1669 0.59834 0.07587 0.0
C767 C 0.16937 0.57243 0.05784 0.0
C768 C 0.19633 0.5605 0.05465 0.0
C769 C 0.2202 0.57381 0.06988 0.0
C770 C 0.11147 0.51209 0.04319 0.0
C771 C 0.08974 0.52778 0.03037 0.0
C772 C 0.13804 0.5262 0.0503 0.0
C773 C 0.14328 0.55643 0.04516 0.0
C774 C 0.1221 0.57178 0.03091 0.0
C775 C 0.09561 0.55748 0.0233 0.0
H776 H 0.26698 0.4144 0.52966 0.0
H777 H 0.2647 0.48101 0.60147 0.0
H778 H 0.31662 0.42946 0.52076 0.0
H779 H 0.31351 0.49752 0.59106 0.0
H780 H 0.40928 0.49405 0.59333 0.0
H781 H 0.3591 0.47969 0.59895 0.0
H782 H 0.34992 0.46621 0.5036 0.0
H783 H 0.40076 0.47951 0.49814 0.0
C784 C 0.27693 0.43247 0.54337 0.0
C785 C 0.26187 0.44614 0.56662 0.0
C786 C 0.30534 0.44138 0.53797 0.0
C787 C 0.31929 0.46442 0.55547 0.0
C788 C 0.30371 0.47917 0.57761 0.0
C789 C 0.27546 0.47003 0.58326 0.0
C790 C 0.3966 0.48789 0.57355 0.0
C791 C 0.40895 0.48796 0.54529 0.0
C792 C 0.3677 0.47993 0.57674 0.0
C793 C 0.35025 0.47223 0.5517 0.0
C794 C 0.36273 0.47181 0.52339 0.0
C795 C 0.39185 0.47945 0.52023 0.0
H796 H 0.92758 0.74255 0.95335 0.0
H797 H 0.88102 0.69068 0.88399 0.0
H798 H 0.94331 0.69687 0.97396 0.0
H799 H 0.89812 0.64564 0.90321 0.0
H800 H 0.90787 0.56662 0.95579 0.0
H801 H 0.89119 0.61427 0.94261 0.0
H802 H 0.9739 0.6561 0.96621 0.0
H803 H 0.99025 0.608 0.98071 0.0
C804 C 0.92068 0.72149 0.94245 0.0
C805 C 0.90299 0.72048 0.9169 0.0
C806 C 0.93001 0.69527 0.95409 0.0
C807 C 0.92188 0.66738 0.94047 0.0
C808 C 0.90442 0.66652 0.9148 0.0
C809 C 0.89496 0.69257 0.90337 0.0
C810 C 0.92241 0.58605 0.95861 0.0
C811 C 0.95045 0.58348 0.96909 0.0
C812 C 0.91293 0.61342 0.95074 0.0
C813 C 0.93135 0.63909 0.95256 0.0
C814 C 0.95905 0.63687 0.96452 0.0
C815 C 0.96847 0.60932 0.97285 0.0
H816 H 0.43245 0.78931 0.1223 0.0
H817 H 0.35795 0.83787 0.14352 0.0
H818 H 0.45608 0.8341 0.10395 0.0
H819 H 0.38174 0.88313 0.12504 0.0
H820 H 0.42226 0.92836 0.03805 0.0
H821 H 0.39658 0.89695 0.07296 0.0
H822 H 0.47582 0.88495 0.11955 0.0
H823 H 0.50132 0.91607 0.08436 0.0
C824 C 0.42127 0.80972 0.12326 0.0
C825 C 0.39335 0.81015 0.13408 0.0
C826 C 0.4349 0.83547 0.11312 0.0
C827 C 0.42083 0.86222 0.11331 0.0
C828 C 0.39308 0.86285 0.12474 0.0
C829 C 0.37954 0.83705 0.13532 0.0
C830 C 0.4338 0.92032 0.05678 0.0
C831 C 0.46358 0.9247 0.05889 0.0
C832 C 0.41918 0.90221 0.07666 0.0
C833 C 0.43432 0.88809 0.09862 0.0
C834 C 0.4637 0.89526 0.10259 0.0
C835 C 0.47824 0.91333 0.08274 0.0
H836 H 0.02254 0.26789 0.5375 0.0
H837 H 0.1023 0.22661 0.55232 0.0
H838 H 0.00121 0.22016 0.51818 0.0
H839 H 0.08137 0.17978 0.53217 0.0
H840 H 0.0452 0.09819 0.49076 0.0
H841 H 0.05958 0.15101 0.48786 0.0
H842 H 0.98977 0.1735 0.54499 0.0
H843 H 0.97573 0.12102 0.54782 0.0
C844 C 0.03563 0.24885 0.53638 0.0
C845 C 0.06416 0.25122 0.54666 0.0
C846 C 0.02348 0.22162 0.525 0.0
C847 C 0.0397 0.19632 0.52332 0.0
C848 C 0.06849 0.19901 0.53242 0.0
C849 C 0.08049 0.22599 0.5441 0.0
C850 C 0.03211 0.11461 0.50129 0.0
C851 C 0.0094 0.10582 0.51948 0.0
C852 C 0.04049 0.14476 0.49995 0.0
C853 C 0.02608 0.16631 0.51663 0.0
C854 C 0.00122 0.15751 0.53178 0.0
C855 C 0.99311 0.12746 0.53337 0.0
H856 H 0.52857 0.24576 0.4431 0.0
H857 H 0.61079 0.28953 0.46347 0.0
H858 H 0.50501 0.28978 0.4613 0.0
H859 H 0.58763 0.33452 0.47999 0.0
H860 H 0.54097 0.41221 0.51422 0.0
H861 H 0.55902 0.36219 0.51273 0.0
H862 H 0.49806 0.33546 0.44256 0.0
H863 H 0.47955 0.3843 0.4452 0.0
C864 C 0.5415 0.26492 0.45169 0.0
C865 C 0.57133 0.26457 0.45184 0.0
C866 C 0.52811 0.29023 0.46193 0.0
C867 C 0.54434 0.31607 0.47177 0.0
C868 C 0.57433 0.31508 0.473 0.0
C869 C 0.58767 0.28945 0.46331 0.0
C870 C 0.53079 0.39518 0.49941 0.0
C871 C 0.50894 0.40216 0.47977 0.0
C872 C 0.54141 0.36665 0.49815 0.0
C873 C 0.53031 0.34469 0.47725 0.0
C874 C 0.50704 0.35137 0.45925 0.0
C875 C 0.49646 0.3796 0.46061 0.0
loop_
_geom_bond_atom_site_label_1
_geom_bond_atom_site_label_2
_geom_bond_distance
_geom_bond_site_symmetry_2
_ccdc_geom_bond_type
C0 C1 1.386 . S
C0 C2 1.397 . S
C0 H24 0.931 . S
C1 C0 1.386 . S
C1 C5 1.397 . S
C2 C0 1.397 . S
C2 C3 1.384 . S
C2 H25 0.930 . S
C3 C2 1.384 . S
C3 C4 1.377 . S
C3 C6 1.481 . S
C4 C3 1.377 . S
C4 C5 1.389 . S
C4 H26 0.929 . S
C5 C1 1.397 . S
C5 C4 1.389 . S
C5 H27 0.931 . S
C6 C3 1.481 . S
C6 C7 1.387 . S
C6 C11 1.390 . S
C7 C6 1.387 . S
C7 C8 1.401 . S
C7 H28 0.930 . S
C8 C7 1.401 . S
C8 C9 1.376 . S
C8 C17 1.511 . S
C9 C8 1.376 . S
C9 C10 1.392 . S
C9 H30 0.931 . S
C10 C9 1.392 . S
C10 C11 1.361 . S
C10 C12 1.500 . S
C11 C6 1.390 . S
C11 C10 1.361 . S
C11 H29 0.931 . S
C12 C10 1.500 . S
C12 C13 1.371 . S
C12 C14 1.365 . S
C13 C12 1.371 . S
C13 C23 1.386 . S
C13 H31 0.931 . S
C14 C12 1.365 . S
C14 C15 1.409 . S
C14 H32 0.929 . S
C15 C14 1.409 . S
C15 C16 1.380 . S
C15 H33 0.930 . S
C16 C15 1.380 . S
C16 C23 1.357 . S
C17 C8 1.511 . S
C17 C18 1.341 . S
C17 C19 1.371 . S
C18 C17 1.341 . S
C18 C22 1.394 . S
C18 H34 0.930 . S
C19 C17 1.371 . S
C19 C20 1.392 . S
C19 H35 0.931 . S
C20 C19 1.392 . S
C20 C21 1.331 . S
C20 H38 0.932 . S
C21 C20 1.331 . S
C21 C22 1.336 . S
C22 C18 1.394 . S
C22 C21 1.336 . S
C22 H37 0.929 . S
C23 C13 1.386 . S
C23 C16 1.357 . S
C23 H36 0.928 . S
H24 C0 0.931 . S
H25 C2 0.930 . S
H26 C4 0.929 . S
H27 C5 0.931 . S
H28 C7 0.930 . S
H29 C11 0.931 . S
H30 C9 0.931 . S
H31 C13 0.931 . S
H32 C14 0.929 . S
H33 C15 0.930 . S
H34 C18 0.930 . S
H35 C19 0.931 . S
H36 C23 0.928 . S
H37 C22 0.929 . S
H38 C20 0.932 . S
C39 C40 1.386 . S
C39 C41 1.397 . S
C39 H63 0.931 . S
C40 C39 1.386 . S
C40 C44 1.397 . S
C41 C39 1.397 . S
C41 C42 1.384 . S
C41 H64 0.930 . S
C42 C41 1.384 . S
C42 C43 1.377 . S
C42 C45 1.481 . S
C43 C42 1.377 . S
C43 C44 1.389 . S
C43 H65 0.929 . S
C44 C40 1.397 . S
C44 C43 1.389 . S
C44 H66 0.931 . S
C45 C42 1.481 . S
C45 C46 1.387 . S
C45 C50 1.390 . S
C46 C45 1.387 . S
C46 C47 1.401 . S
C46 H67 0.930 . S
C47 C46 1.401 . S
C47 C48 1.376 . S
C47 C56 1.511 . S
C48 C47 1.376 . S
C48 C49 1.392 . S
C48 H69 0.931 . S
C49 C48 1.392 . S
C49 C50 1.361 . S
C49 C51 1.500 . S
C50 C45 1.390 . S
C50 C49 1.361 . S
C50 H68 0.931 . S
C51 C49 1.500 . S
C51 C52 1.371 . S
C51 C53 1.365 . S
C52 C51 1.371 . S
C52 C62 1.386 . S
C52 H70 0.931 . S
C53 C51 1.365 . S
C53 C54 1.409 . S
C53 H71 0.929 . S
C54 C53 1.409 . S
C54 C55 1.380 . S
C54 H72 0.930 . S
C55 C54 1.380 . S
C55 C62 1.357 . S
C56 C47 1.511 . S
C56 C57 1.341 . S
C56 C58 1.371 . S
C57 C56 1.341 . S
C57 C61 1.394 . S
C57 H73 0.930 . S
C58 C56 1.371 . S
C58 C59 1.392 . S
C58 H74 0.931 . S
C59 C58 1.392 . S
C59 C60 1.331 . S
C59 H77 0.932 . S
C60 C59 1.331 . S
C60 C61 1.336 . S
C61 C57 1.394 . S
C61 C60 1.336 . S
C61 H76 0.929 . S
C62 C52 1.386 . S
C62 C55 1.357 . S
C62 H75 0.928 . S
H63 C39 0.931 . S
H64 C41 0.930 . S
H65 C43 0.929 . S
H66 C44 0.931 . S
H67 C46 0.930 . S
H68 C50 0.931 . S
H69 C48 0.931 . S
H70 C52 0.931 . S
H71 C53 0.929 . S
H72 C54 0.930 . S
H73 C57 0.930 . S
H74 C58 0.931 . S
H75 C62 0.928 . S
H76 C61 0.929 . S
H77 C59 0.932 . S
C78 C79 1.386 . S
C78 C80 1.397 . S
C78 H102 0.931 . S
C79 C78 1.386 . S
C79 C83 1.397 . S
C80 C78 1.397 . S
C80 C81 1.384 . S
C80 H103 0.930 . S
C81 C80 1.384 . S
C81 C82 1.377 . S
C81 C84 1.481 . S
C82 C81 1.377 . S
C82 C83 1.389 . S
C82 H104 0.929 . S
C83 C79 1.397 . S
C83 C82 1.389 . S
C83 H105 0.931 . S
C84 C81 1.481 . S
C84 C85 1.387 . S
C84 C89 1.390 . S
C85 C84 1.387 . S
C85 C86 1.401 . S
C85 H106 0.930 . S
C86 C85 1.401 . S
C86 C87 1.376 . S
C86 C95 1.511 . S
C87 C86 1.376 . S
C87 C88 1.392 . S
C87 H108 0.931 . S
C88 C87 1.392 . S
C88 C89 1.361 . S
C88 C90 1.500 . S
C89 C84 1.390 . S
C89 C88 1.361 . S
C89 H107 0.931 . S
C90 C88 1.500 . S
C90 C91 1.371 . S
C90 C92 1.365 . S
C91 C90 1.371 . S
C91 C101 1.386 . S
C91 H109 0.931 . S
C92 C90 1.365 . S
C92 C93 1.409 . S
C92 H110 0.929 . S
C93 C92 1.409 . S
C93 C94 1.380 . S
C93 H111 0.930 . S
C94 C93 1.380 . S
C94 C101 1.357 . S
C95 C86 1.511 . S
C95 C96 1.341 . S
C95 C97 1.371 . S
C96 C95 1.341 . S
C96 C100 1.394 . S
C96 H112 0.930 . S
C97 C95 1.371 . S
C97 C98 1.392 . S
C97 H113 0.931 . S
C98 C97 1.392 . S
C98 C99 1.331 . S
C98 H116 0.932 . S
C99 C98 1.331 . S
C99 C100 1.336 . S
C100 C96 1.394 . S
C100 C99 1.336 . S
C100 H115 0.929 . S
C101 C91 1.386 . S
C101 C94 1.357 . S
C101 H114 0.928 . S
H102 C78 0.931 . S
H103 C80 0.930 . S
H104 C82 0.929 . S
H105 C83 0.931 . S
H106 C85 0.930 . S
H107 C89 0.931 . S
H108 C87 0.931 . S
H109 C91 0.931 . S
H110 C92 0.929 . S
H111 C93 0.930 . S
H112 C96 0.930 . S
H113 C97 0.931 . S
H114 C101 0.928 . S
H115 C100 0.929 . S
H116 C98 0.932 . S
C117 C118 1.386 . S
C117 C119 1.397 . S
C117 H141 0.931 . S
C118 C117 1.386 . S
C118 C122 1.397 . S
C119 C117 1.397 . S
C119 C120 1.384 . S
C119 H142 0.930 . S
C120 C119 1.384 . S
C120 C121 1.377 . S
C120 C123 1.481 . S
C121 C120 1.377 . S
C121 C122 1.389 . S
C121 H143 0.929 . S
C122 C118 1.397 . S
C122 C121 1.389 . S
C122 H144 0.931 . S
C123 C120 1.481 . S
C123 C124 1.387 . S
C123 C128 1.390 . S
C124 C123 1.387 . S
C124 C125 1.401 . S
C124 H145 0.930 . S
C125 C124 1.401 . S
C125 C126 1.376 . S
C125 C134 1.511 . S
C126 C125 1.376 . S
C126 C127 1.392 . S
C126 H147 0.931 . S
C127 C126 1.392 . S
C127 C128 1.361 . S
C127 C129 1.500 . S
C128 C123 1.390 . S
C128 C127 1.361 . S
C128 H146 0.931 . S
C129 C127 1.500 . S
C129 C130 1.371 . S
C129 C131 1.365 . S
C130 C129 1.371 . S
C130 C140 1.386 . S
C130 H148 0.931 . S
C131 C129 1.365 . S
C131 C132 1.409 . S
C131 H149 0.929 . S
C132 C131 1.409 . S
C132 C133 1.380 . S
C132 H150 0.930 . S
C133 C132 1.380 . S
C133 C140 1.357 . S
C134 C125 1.511 . S
C134 C135 1.341 . S
C134 C136 1.371 . S
C135 C134 1.341 . S
C135 C139 1.394 . S
C135 H151 0.930 . S
C136 C134 1.371 . S
C136 C137 1.392 . S
C136 H152 0.931 . S
C137 C136 1.392 . S
C137 C138 1.331 . S
C137 H155 0.932 . S
C138 C137 1.331 . S
C138 C139 1.336 . S
C139 C135 1.394 . S
C139 C138 1.336 . S
C139 H154 0.929 . S
C140 C130 1.386 . S
C140 C133 1.357 . S
C140 H153 0.928 . S
H141 C117 0.931 . S
H142 C119 0.930 . S
H143 C121 0.929 . S
H144 C122 0.931 . S
H145 C124 0.930 . S
H146 C128 0.931 . S
H147 C126 0.931 . S
H148 C130 0.931 . S
H149 C131 0.929 . S
H150 C132 0.930 . S
H151 C135 0.930 . S
H152 C136 0.931 . S
H153 C140 0.928 . S
H154 C139 0.929 . S
H155 C137 0.932 . S
C156 C157 1.386 . S
C156 C158 1.397 . S
C156 H180 0.931 . S
C157 C156 1.386 . S
C157 C161 1.397 . S
C158 C156 1.397 . S
C158 C159 1.384 . S
C158 H181 0.930 . S
C159 C158 1.384 . S
C159 C160 1.377 . S
C159 C162 1.481 . S
C160 C159 1.377 . S
C160 C161 1.389 . S
C160 H182 0.929 . S
C161 C157 1.397 . S
C161 C160 1.389 . S
C161 H183 0.931 . S
C162 C159 1.481 . S
C162 C163 1.387 . S
C162 C167 1.390 . S
C163 C162 1.387 . S
C163 C164 1.401 . S
C163 H184 0.930 . S
C164 C163 1.401 . S
C164 C165 1.376 . S
C164 C173 1.511 . S
C165 C164 1.376 . S
C165 C166 1.392 . S
C165 H186 0.931 . S
C166 C165 1.392 . S
C166 C167 1.361 . S
C166 C168 1.500 . S
C167 C162 1.390 . S
C167 C166 1.361 . S
C167 H185 0.931 . S
C168 C166 1.500 . S
C168 C169 1.371 . S
C168 C170 1.365 . S
C169 C168 1.371 . S
C169 C179 1.386 . S
C169 H187 0.931 . S
C170 C168 1.365 . S
C170 C171 1.409 . S
C170 H188 0.929 . S
C171 C170 1.409 . S
C171 C172 1.380 . S
C171 H189 0.930 . S
C172 C171 1.380 . S
C172 C179 1.357 . S
C173 C164 1.511 . S
C173 C174 1.341 . S
C173 C175 1.371 . S
C174 C173 1.341 . S
C174 C178 1.394 . S
C174 H190 0.930 . S
C175 C173 1.371 . S
C175 C176 1.392 . S
C175 H191 0.931 . S
C176 C175 1.392 . S
C176 C177 1.331 . S
C176 H194 0.932 . S
C177 C176 1.331 . S
C177 C178 1.336 . S
C178 C174 1.394 . S
C178 C177 1.336 . S
C178 H193 0.929 . S
C179 C169 1.386 . S
C179 C172 1.357 . S
C179 H192 0.928 . S
H180 C156 0.931 . S
H181 C158 0.930 . S
H182 C160 0.929 . S
H183 C161 0.931 . S
H184 C163 0.930 . S
H185 C167 0.931 . S
H186 C165 0.931 . S
H187 C169 0.931 . S
H188 C170 0.929 . S
H189 C171 0.930 . S
H190 C174 0.930 . S
H191 C175 0.931 . S
H192 C179 0.928 . S
H193 C178 0.929 . S
H194 C176 0.932 . S
C195 C196 1.386 . S
C195 C197 1.397 . S
C195 H219 0.931 . S
C196 C195 1.386 . S
C196 C200 1.397 . S
C197 C195 1.397 . S
C197 C198 1.384 . S
C197 H220 0.930 . S
C198 C197 1.384 . S
C198 C199 1.377 . S
C198 C201 1.481 . S
C199 C198 1.377 . S
C199 C200 1.389 . S
C199 H221 0.929 . S
C200 C196 1.397 . S
C200 C199 1.389 . S
C200 H222 0.931 . S
C201 C198 1.481 . S
C201 C202 1.387 . S
C201 C206 1.390 . S
C202 C201 1.387 . S
C202 C203 1.401 . S
C202 H223 0.930 . S
C203 C202 1.401 . S
C203 C204 1.376 . S
C203 C212 1.511 . S
C204 C203 1.376 . S
C204 C205 1.392 . S
C204 H225 0.931 . S
C205 C204 1.392 . S
C205 C206 1.361 . S
C205 C207 1.500 . S
C206 C201 1.390 . S
C206 C205 1.361 . S
C206 H224 0.931 . S
C207 C205 1.500 . S
C207 C208 1.371 . S
C207 C209 1.365 . S
C208 C207 1.371 . S
C208 C218 1.386 . S
C208 H226 0.931 . S
C209 C207 1.365 . S
C209 C210 1.409 . S
C209 H227 0.929 . S
C210 C209 1.409 . S
C210 C211 1.380 . S
C210 H228 0.930 . S
C211 C210 1.380 . S
C211 C218 1.357 . S
C212 C203 1.511 . S
C212 C213 1.341 . S
C212 C214 1.371 . S
C213 C212 1.341 . S
C213 C217 1.394 . S
C213 H229 0.930 . S
C214 C212 1.371 . S
C214 C215 1.392 . S
C214 H230 0.931 . S
C215 C214 1.392 . S
C215 C216 1.331 . S
C215 H233 0.932 . S
C216 C215 1.331 . S
C216 C217 1.336 . S
C217 C213 1.394 . S
C217 C216 1.336 . S
C217 H232 0.929 . S
C218 C208 1.386 . S
C218 C211 1.357 . S
C218 H231 0.928 . S
H219 C195 0.931 . S
H220 C197 0.930 . S
H221 C199 0.929 . S
H222 C200 0.931 . S
H223 C202 0.930 . S
H224 C206 0.931 . S
H225 C204 0.931 . S
H226 C208 0.931 . S
H227 C209 0.929 . S
H228 C210 0.930 . S
H229 C213 0.930 . S
H230 C214 0.931 . S
H231 C218 0.928 . S
H232 C217 0.929 . S
H233 C215 0.932 . S
C234 C235 1.386 . S
C234 C236 1.397 . S
C234 H258 0.931 . S
C235 C234 1.386 . S
C235 C239 1.397 . S
C236 C234 1.397 . S
C236 C237 1.384 . S
C236 H259 0.930 . S
C237 C236 1.384 . S
C237 C238 1.377 . S
C237 C240 1.481 . S
C238 C237 1.377 . S
C238 C239 1.389 . S
C238 H260 0.929 . S
C239 C235 1.397 . S
C239 C238 1.389 . S
C239 H261 0.931 . S
C240 C237 1.481 . S
C240 C241 1.387 . S
C240 C245 1.390 . S
C241 C240 1.387 . S
C241 C242 1.401 . S
C241 H262 0.930 . S
C242 C241 1.401 . S
C242 C243 1.376 . S
C242 C251 1.511 . S
C243 C242 1.376 . S
C243 C244 1.392 . S
C243 H264 0.931 . S
C244 C243 1.392 . S
C244 C245 1.361 . S
C244 C246 1.500 . S
C245 C240 1.390 . S
C245 C244 1.361 . S
C245 H263 0.931 . S
C246 C244 1.500 . S
C246 C247 1.371 . S
C246 C248 1.365 . S
C247 C246 1.371 . S
C247 C257 1.386 . S
C247 H265 0.931 . S
C248 C246 1.365 . S
C248 C249 1.409 . S
C248 H266 0.929 . S
C249 C248 1.409 . S
C249 C250 1.380 . S
C249 H267 0.930 . S
C250 C249 1.380 . S
C250 C257 1.357 . S
C251 C242 1.511 . S
C251 C252 1.341 . S
C251 C253 1.371 . S
C252 C251 1.341 . S
C252 C256 1.394 . S
C252 H268 0.930 . S
C253 C251 1.371 . S
C253 C254 1.392 . S
C253 H269 0.931 . S
C254 C253 1.392 . S
C254 C255 1.331 . S
C254 H272 0.932 . S
C255 C254 1.331 . S
C255 C256 1.336 . S
C256 C252 1.394 . S
C256 C255 1.336 . S
C256 H271 0.929 . S
C257 C247 1.386 . S
C257 C250 1.357 . S
C257 H270 0.928 . S
H258 C234 0.931 . S
H259 C236 0.930 . S
H260 C238 0.929 . S
H261 C239 0.931 . S
H262 C241 0.930 . S
H263 C245 0.931 . S
H264 C243 0.931 . S
H265 C247 0.931 . S
H266 C248 0.929 . S
H267 C249 0.930 . S
H268 C252 0.930 . S
H269 C253 0.931 . S
H270 C257 0.928 . S
H271 C256 0.929 . S
H272 C254 0.932 . S
C273 C274 1.386 . S
C273 C275 1.397 . S
C273 H297 0.931 . S
C274 C273 1.386 . S
C274 C278 1.397 . S
C275 C273 1.397 . S
C275 C276 1.384 . S
C275 H298 0.930 . S
C276 C275 1.384 . S
C276 C277 1.377 . S
C276 C279 1.481 . S
C277 C276 1.377 . S
C277 C278 1.389 . S
C277 H299 0.929 . S
C278 C274 1.397 . S
C278 C277 1.389 . S
C278 H300 0.931 . S
C279 C276 1.481 . S
C279 C280 1.387 . S
C279 C284 1.390 . S
C280 C279 1.387 . S
C280 C281 1.401 . S
C280 H301 0.930 . S
C281 C280 1.401 . S
C281 C282 1.376 . S
C281 C290 1.511 . S
C282 C281 1.376 . S
C282 C283 1.392 . S
C282 H303 0.931 . S
C283 C282 1.392 . S
C283 C284 1.361 . S
C283 C285 1.500 . S
C284 C279 1.390 . S
C284 C283 1.361 . S
C284 H302 0.931 . S
C285 C283 1.500 . S
C285 C286 1.371 . S
C285 C287 1.365 . S
C286 C285 1.371 . S
C286 C296 1.386 . S
C286 H304 0.931 . S
C287 C285 1.365 . S
C287 C288 1.409 . S
C287 H305 0.929 . S
C288 C287 1.409 . S
C288 C289 1.380 . S
C288 H306 0.930 . S
C289 C288 1.380 . S
C289 C296 1.357 . S
C290 C281 1.511 . S
C290 C291 1.341 . S
C290 C292 1.371 . S
C291 C290 1.341 . S
C291 C295 1.394 . S
C291 H307 0.930 . S
C292 C290 1.371 . S
C292 C293 1.392 . S
C292 H308 0.931 . S
C293 C292 1.392 . S
C293 C294 1.331 . S
C293 H311 0.932 . S
C294 C293 1.331 . S
C294 C295 1.336 . S
C295 C291 1.394 . S
C295 C294 1.336 . S
C295 H310 0.929 . S
C296 C286 1.386 . S
C296 C289 1.357 . S
C296 H309 0.928 . S
H297 C273 0.931 . S
H298 C275 0.930 . S
H299 C277 0.929 . S
H300 C278 0.931 . S
H301 C280 0.930 . S
H302 C284 0.931 . S
H303 C282 0.931 . S
H304 C286 0.931 . S
H305 C287 0.929 . S
H306 C288 0.930 . S
H307 C291 0.930 . S
H308 C292 0.931 . S
H309 C296 0.928 . S
H310 C295 0.929 . S
H311 C293 0.932 . S
O312 Mg313 1.990 . S
O312 C326 1.253 1_445 S
Mg313 O312 1.990 . S
Mg313 O316 2.180 . S
Mg313 O317 2.117 . S
Mg313 O331 2.030 1_545 S
O314 Mg315 2.072 1_665 S
O314 C326 1.260 . S
Mg315 O314 2.072 1_445 S
Mg315 O316 2.099 . S
Mg315 O318 2.079 . S
Mg315 O319 2.072 1_455 S
Mg315 O321 2.099 1_445 S
Mg315 O332 2.079 1_545 S
O316 Mg313 2.180 . S
O316 Mg315 2.099 . S
O316 C327 1.279 . S
O317 Mg313 2.117 . S
O317 C327 1.250 . S
O318 Mg315 2.079 . S
O318 C328 1.264 . S
O319 Mg315 2.072 1_655 S
O319 C329 1.260 . S
Mg320 O321 2.180 . S
Mg320 O322 2.030 1_565 S
Mg320 O323 1.990 1_565 S
Mg320 O324 2.117 . S
O321 Mg315 2.099 1_665 S
O321 Mg320 2.180 . S
O321 C330 1.279 . S
O322 Mg320 2.030 1_545 S
O322 C328 1.248 1_655 S
O323 Mg320 1.990 1_545 S
O323 C329 1.253 . S
O324 Mg320 2.117 . S
O324 C330 1.250 . S
C325 O331 1.248 . S
C325 O332 1.264 . S
C326 O312 1.253 1_665 S
C326 O314 1.260 . S
C327 O316 1.279 . S
C327 O317 1.250 . S
C328 O318 1.264 . S
C328 O322 1.248 1_455 S
C329 O319 1.260 . S
C329 O323 1.253 . S
C330 O321 1.279 . S
C330 O324 1.250 . S
O331 Mg313 2.030 1_565 S
O331 C325 1.248 . S
O332 Mg315 2.079 1_565 S
O332 C325 1.264 . S
O333 Mg334 1.990 . S
O333 C347 1.253 . S
Mg334 O333 1.990 . S
Mg334 O337 2.167 1_554 S
Mg334 O338 2.117 1_554 S
Mg334 O352 2.030 . S
O335 Mg336 2.072 . S
O335 C347 1.260 . S
Mg336 O335 2.072 . S
Mg336 O337 2.095 1_554 S
Mg336 O339 2.079 1_554 S
Mg336 O340 2.072 1_554 S
Mg336 O342 2.099 1_545 S
Mg336 O353 2.079 . S
O337 Mg334 2.167 1_556 S
O337 Mg336 2.095 1_556 S
O337 C348 1.293 . S
O338 Mg334 2.117 1_556 S
O338 C348 1.250 . S
O339 Mg336 2.079 1_556 S
O339 C349 1.264 1_545 S
O340 Mg336 2.072 1_556 S
O340 C350 1.260 1_545 S
Mg341 O342 2.180 1_556 S
Mg341 O343 2.030 . S
Mg341 O344 1.990 . S
Mg341 O345 2.117 1_556 S
O342 Mg336 2.099 1_565 S
O342 Mg341 2.180 1_554 S
O342 C351 1.279 . S
O343 Mg341 2.030 . S
O343 C349 1.248 . S
O344 Mg341 1.990 . S
O344 C350 1.253 . S
O345 Mg341 2.117 1_554 S
O345 C351 1.250 . S
C346 O352 1.248 . S
C346 O353 1.264 . S
C347 O333 1.253 . S
C347 O335 1.260 . S
C348 O337 1.293 . S
C348 O338 1.250 . S
C349 O339 1.264 1_565 S
C349 O343 1.248 . S
C350 O340 1.260 1_565 S
C350 O344 1.253 . S
C351 O342 1.279 . S
C351 O345 1.250 . S
O352 Mg334 2.030 . S
O352 C346 1.248 . S
O353 Mg336 2.079 . S
O353 C346 1.264 . S
O354 Mg355 1.990 . S
O354 C368 1.253 . S
Mg355 O354 1.990 . S
Mg355 O358 2.180 . S
Mg355 O359 2.117 . S
Mg355 O373 2.030 . S
O356 Mg357 2.072 . S
O356 C368 1.260 . S
Mg357 O356 2.072 . S
Mg357 O358 2.099 . S
Mg357 O360 2.079 . S
Mg357 O361 2.072 . S
Mg357 O363 2.099 . S
Mg357 O374 2.079 . S
O358 Mg355 2.180 . S
O358 Mg357 2.099 . S
O358 C369 1.279 . S
O359 Mg355 2.117 . S
O359 C369 1.250 . S
O360 Mg357 2.079 . S
O360 C370 1.264 . S
O361 Mg357 2.072 . S
O361 C371 1.260 . S
Mg362 O363 2.180 . S
Mg362 O364 2.030 . S
Mg362 O365 1.990 . S
Mg362 O366 2.117 . S
O363 Mg357 2.099 . S
O363 Mg362 2.180 . S
O363 C372 1.279 . S
O364 Mg362 2.030 . S
O364 C370 1.248 . S
O365 Mg362 1.990 . S
O365 C371 1.253 . S
O366 Mg362 2.117 . S
O366 C372 1.250 . S
C367 O373 1.248 . S
C367 O374 1.264 . S
C368 O354 1.253 . S
C368 O356 1.260 . S
C369 O358 1.279 . S
C369 O359 1.250 . S
C370 O360 1.264 . S
C370 O364 1.248 . S
C371 O361 1.260 . S
C371 O365 1.253 . S
C372 O363 1.279 . S
C372 O366 1.250 . S
O373 Mg355 2.030 . S
O373 C367 1.248 . S
O374 Mg357 2.079 . S
O374 C367 1.264 . S
O375 Mg376 1.990 . S
O375 C389 1.253 . S
Mg376 O375 1.990 . S
Mg376 O379 2.180 1_455 S
Mg376 O380 2.117 1_455 S
Mg376 O394 2.030 . S
O377 Mg378 2.072 . S
O377 C389 1.260 . S
Mg378 O377 2.072 . S
Mg378 O379 2.099 1_455 S
Mg378 O381 2.079 1_454 S
Mg378 O382 2.072 1_455 S
Mg378 O384 2.099 1_554 S
Mg378 O395 2.079 . S
O379 Mg376 2.180 1_655 S
O379 Mg378 2.099 1_655 S
O379 C390 1.279 . S
O380 Mg376 2.117 1_655 S
O380 C390 1.250 . S
O381 Mg378 2.079 1_656 S
O381 C391 1.264 . S
O382 Mg378 2.072 1_655 S
O382 C392 1.260 1_554 S
Mg383 O384 2.180 1_655 S
Mg383 O385 2.030 . S
Mg383 O386 1.990 . S
Mg383 O387 2.117 . S
O384 Mg378 2.099 1_556 S
O384 Mg383 2.180 1_455 S
O384 C393 1.279 . S
O385 Mg383 2.030 . S
O385 C391 1.248 . S
O386 Mg383 1.990 . S
O386 C392 1.253 . S
O387 Mg383 2.117 . S
O387 C393 1.250 1_655 S
C388 O394 1.248 . S
C388 O395 1.264 . S
C389 O375 1.253 . S
C389 O377 1.260 . S
C390 O379 1.279 . S
C390 O380 1.250 . S
C391 O381 1.264 . S
C391 O385 1.248 . S
C392 O382 1.260 1_556 S
C392 O386 1.253 . S
C393 O384 1.279 . S
C393 O387 1.250 1_455 S
O394 Mg376 2.030 . S
O394 C388 1.248 . S
O395 Mg378 2.079 . S
O395 C388 1.264 . S
H396 C404 0.950 . S
H397 C409 0.950 . S
H398 C406 0.950 . S
H399 C408 0.950 . S
H400 C410 0.950 . S
H401 C412 0.950 . S
H402 C414 0.950 . S
H403 C415 0.950 1_565 S
C404 H396 0.950 . S
C404 C405 1.386 . S
C404 C406 1.391 . S
C405 C404 1.386 . S
C405 C409 1.393 . S
C406 H398 0.950 . S
C406 C404 1.391 . S
C406 C407 1.400 . S
C407 C406 1.400 . S
C407 C408 1.398 . S
C407 C413 1.491 . S
C408 H399 0.950 . S
C408 C407 1.398 . S
C408 C409 1.391 . S
C409 H397 0.950 . S
C409 C405 1.393 . S
C409 C408 1.391 . S
C410 H400 0.950 . S
C410 C411 1.386 . S
C410 C412 1.391 . S
C411 C410 1.386 . S
C411 C415 1.393 . S
C412 H401 0.950 . S
C412 C410 1.391 . S
C412 C413 1.400 . S
C413 C407 1.491 . S
C413 C412 1.400 . S
C413 C414 1.398 . S
C414 H402 0.950 . S
C414 C413 1.398 . S
C414 C415 1.391 . S
C415 H403 0.950 1_545 S
C415 C411 1.393 . S
C415 C414 1.391 . S
H416 C424 0.950 . S
H417 C429 0.950 . S
H418 C426 0.950 . S
H419 C428 0.950 . S
H420 C430 0.950 . S
H421 C432 0.950 . S
H422 C434 0.950 . S
H423 C435 0.950 1_545 S
C424 H416 0.950 . S
C424 C425 1.386 . S
C424 C426 1.391 . S
C425 C424 1.386 . S
C425 C429 1.393 . S
C426 H418 0.950 . S
C426 C424 1.391 . S
C426 C427 1.400 . S
C427 C426 1.400 . S
C427 C428 1.398 . S
C427 C433 1.491 . S
C428 H419 0.950 . S
C428 C427 1.398 . S
C428 C429 1.391 . S
C429 H417 0.950 . S
C429 C425 1.393 . S
C429 C428 1.391 . S
C430 H420 0.950 . S
C430 C431 1.386 . S
C430 C432 1.391 . S
C431 C430 1.386 . S
C431 C435 1.393 . S
C432 H421 0.950 . S
C432 C430 1.391 . S
C432 C433 1.400 . S
C433 C427 1.491 . S
C433 C432 1.400 . S
C433 C434 1.398 . S
C434 H422 0.950 . S
C434 C433 1.398 . S
C434 C435 1.391 . S
C435 H423 0.950 1_565 S
C435 C431 1.393 . S
C435 C434 1.391 . S
H436 C444 0.950 . S
H437 C449 0.950 . S
H438 C446 0.950 . S
H439 C448 0.950 . S
H440 C450 0.950 . S
H441 C452 0.950 . S
H442 C454 0.950 . S
H443 C455 0.950 . S
C444 H436 0.950 . S
C444 C445 1.386 . S
C444 C446 1.391 . S
C445 C444 1.386 . S
C445 C449 1.393 . S
C446 H438 0.950 . S
C446 C444 1.391 . S
C446 C447 1.400 . S
C447 C446 1.400 . S
C447 C448 1.398 . S
C447 C453 1.491 . S
C448 H439 0.950 . S
C448 C447 1.398 . S
C448 C449 1.391 . S
C449 H437 0.950 . S
C449 C445 1.393 . S
C449 C448 1.391 . S
C450 H440 0.950 . S
C450 C451 1.386 . S
C450 C452 1.391 . S
C451 C450 1.386 . S
C451 C455 1.393 . S
C452 H441 0.950 . S
C452 C450 1.391 . S
C452 C453 1.400 . S
C453 C447 1.491 . S
C453 C452 1.400 . S
C453 C454 1.398 . S
C454 H442 0.950 . S
C454 C453 1.398 . S
C454 C455 1.391 . S
C455 H443 0.950 . S
C455 C451 1.393 . S
C455 C454 1.391 . S
H456 C464 0.950 . S
H457 C469 0.950 . S
H458 C466 0.950 . S
H459 C468 0.950 . S
H460 C470 0.950 . S
H461 C472 0.950 . S
H462 C474 0.950 . S
H463 C475 0.950 . S
C464 H456 0.950 . S
C464 C465 1.386 . S
C464 C466 1.391 . S
C465 C464 1.386 . S
C465 C469 1.393 . S
C466 H458 0.950 . S
C466 C464 1.391 . S
C466 C467 1.400 . S
C467 C466 1.400 . S
C467 C468 1.398 . S
C467 C473 1.491 . S
C468 H459 0.950 . S
C468 C467 1.398 . S
C468 C469 1.391 . S
C469 H457 0.950 . S
C469 C465 1.393 . S
C469 C468 1.391 . S
C470 H460 0.950 . S
C470 C471 1.386 . S
C470 C472 1.391 . S
C471 C470 1.386 . S
C471 C475 1.393 . S
C472 H461 0.950 . S
C472 C470 1.391 . S
C472 C473 1.400 . S
C473 C467 1.491 . S
C473 C472 1.400 . S
C473 C474 1.398 . S
C474 H462 0.950 . S
C474 C473 1.398 . S
C474 C475 1.391 . S
C475 H463 0.950 . S
C475 C471 1.393 . S
C475 C474 1.391 . S
H476 C484 0.950 . S
H477 C489 0.950 . S
H478 C486 0.950 . S
H479 C488 0.950 . S
H480 C490 0.950 . S
H481 C492 0.950 . S
H482 C494 0.950 . S
H483 C495 0.950 . S
C484 H476 0.950 . S
C484 C485 1.386 . S
C484 C486 1.391 . S
C485 C484 1.386 . S
C485 C489 1.393 . S
C486 H478 0.950 . S
C486 C484 1.391 . S
C486 C487 1.400 . S
C487 C486 1.400 . S
C487 C488 1.398 . S
C487 C493 1.491 . S
C488 H479 0.950 . S
C488 C487 1.398 . S
C488 C489 1.391 . S
C489 H477 0.950 . S
C489 C485 1.393 . S
C489 C488 1.391 . S
C490 H480 0.950 . S
C490 C491 1.386 . S
C490 C492 1.391 . S
C491 C490 1.386 . S
C491 C495 1.393 . S
C492 H481 0.950 . S
C492 C490 1.391 . S
C492 C493 1.400 . S
C493 C487 1.491 . S
C493 C492 1.400 . S
C493 C494 1.398 . S
C494 H482 0.950 . S
C494 C493 1.398 . S
C494 C495 1.391 . S
C495 H483 0.950 . S
C495 C491 1.393 . S
C495 C494 1.391 . S
H496 C504 0.950 . S
H497 C509 0.950 . S
H498 C506 0.950 . S
H499 C508 0.950 . S
H500 C510 0.950 1_545 S
H501 C512 0.950 . S
H502 C514 0.950 . S
H503 C515 0.950 . S
C504 H496 0.950 . S
C504 C505 1.386 . S
C504 C506 1.391 . S
C505 C504 1.386 . S
C505 C509 1.393 . S
C506 H498 0.950 . S
C506 C504 1.391 . S
C506 C507 1.400 . S
C507 C506 1.400 . S
C507 C508 1.398 . S
C507 C513 1.491 . S
C508 H499 0.950 . S
C508 C507 1.398 . S
C508 C509 1.391 . S
C509 H497 0.950 . S
C509 C505 1.393 . S
C509 C508 1.391 . S
C510 H500 0.950 1_565 S
C510 C511 1.386 . S
C510 C512 1.391 . S
C511 C510 1.386 . S
C511 C515 1.393 . S
C512 H501 0.950 . S
C512 C510 1.391 . S
C512 C513 1.400 . S
C513 C507 1.491 . S
C513 C512 1.400 . S
C513 C514 1.398 . S
C514 H502 0.950 . S
C514 C513 1.398 . S
C514 C515 1.391 . S
C515 H503 0.950 . S
C515 C511 1.393 . S
C515 C514 1.391 . S
H516 C524 0.950 . S
H517 C529 0.950 . S
H518 C526 0.950 . S
H519 C528 0.950 . S
H520 C530 0.950 . S
H521 C532 0.950 . S
H522 C534 0.950 . S
H523 C535 0.950 . S
C524 H516 0.950 . S
C524 C525 1.386 . S
C524 C526 1.391 . S
C525 C524 1.386 . S
C525 C529 1.393 . S
C526 H518 0.950 . S
C526 C524 1.391 . S
C526 C527 1.400 . S
C527 C526 1.400 . S
C527 C528 1.398 . S
C527 C533 1.491 . S
C528 H519 0.950 . S
C528 C527 1.398 . S
C528 C529 1.391 . S
C529 H517 0.950 . S
C529 C525 1.393 . S
C529 C528 1.391 . S
C530 H520 0.950 . S
C530 C531 1.386 . S
C530 C532 1.391 . S
C531 C530 1.386 . S
C531 C535 1.393 . S
C532 H521 0.950 . S
C532 C530 1.391 . S
C532 C533 1.400 . S
C533 C527 1.491 . S
C533 C532 1.400 . S
C533 C534 1.398 . S
C534 H522 0.950 . S
C534 C533 1.398 . S
C534 C535 1.391 . S
C535 H523 0.950 . S
C535 C531 1.393 . S
C535 C534 1.391 . S
H536 C544 0.950 . S
H537 C549 0.950 . S
H538 C546 0.950 . S
H539 C548 0.950 . S
H540 C550 0.950 . S
H541 C552 0.950 . S
H542 C554 0.950 . S
H543 C555 0.950 . S
C544 H536 0.950 . S
C544 C545 1.386 . S
C544 C546 1.391 . S
C545 C544 1.386 . S
C545 C549 1.393 . S
C546 H538 0.950 . S
C546 C544 1.391 . S
C546 C547 1.400 . S
C547 C546 1.400 . S
C547 C548 1.398 . S
C547 C553 1.491 . S
C548 H539 0.950 . S
C548 C547 1.398 . S
C548 C549 1.391 . S
C549 H537 0.950 . S
C549 C545 1.393 . S
C549 C548 1.391 . S
C550 H540 0.950 . S
C550 C551 1.386 . S
C550 C552 1.391 . S
C551 C550 1.386 . S
C551 C555 1.393 . S
C552 H541 0.950 . S
C552 C550 1.391 . S
C552 C553 1.400 . S
C553 C547 1.491 . S
C553 C552 1.400 . S
C553 C554 1.398 . S
C554 H542 0.950 . S
C554 C553 1.398 . S
C554 C555 1.391 . S
C555 H543 0.950 . S
C555 C551 1.393 . S
C555 C554 1.391 . S
H556 C564 0.950 . S
H557 C569 0.950 . S
H558 C566 0.950 . S
H559 C568 0.950 . S
H560 C570 0.950 . S
H561 C572 0.950 . S
H562 C574 0.950 . S
H563 C575 0.950 1_655 S
C564 H556 0.950 . S
C564 C565 1.386 . S
C564 C566 1.391 . S
C565 C564 1.386 . S
C565 C569 1.393 . S
C566 H558 0.950 . S
C566 C564 1.391 . S
C566 C567 1.400 . S
C567 C566 1.400 . S
C567 C568 1.398 . S
C567 C573 1.491 . S
C568 H559 0.950 . S
C568 C567 1.398 . S
C568 C569 1.391 . S
C569 H557 0.950 . S
C569 C565 1.393 . S
C569 C568 1.391 . S
C570 H560 0.950 . S
C570 C571 1.386 . S
C570 C572 1.391 . S
C571 C570 1.386 . S
C571 C575 1.393 . S
C572 H561 0.950 . S
C572 C570 1.391 . S
C572 C573 1.400 . S
C573 C567 1.491 . S
C573 C572 1.400 . S
C573 C574 1.398 . S
C574 H562 0.950 . S
C574 C573 1.398 . S
C574 C575 1.391 . S
C575 H563 0.950 1_455 S
C575 C571 1.393 . S
C575 C574 1.391 . S
H576 C584 0.950 . S
H577 C589 0.950 . S
H578 C586 0.950 . S
H579 C588 0.950 . S
H580 C590 0.950 . S
H581 C592 0.950 . S
H582 C594 0.950 . S
H583 C595 0.950 . S
C584 H576 0.950 . S
C584 C585 1.386 . S
C584 C586 1.391 . S
C585 C584 1.386 . S
C585 C589 1.393 . S
C586 H578 0.950 . S
C586 C584 1.391 . S
C586 C587 1.400 . S
C587 C586 1.400 . S
C587 C588 1.398 . S
C587 C593 1.491 . S
C588 H579 0.950 . S
C588 C587 1.398 . S
C588 C589 1.391 . S
C589 H577 0.950 . S
C589 C585 1.393 . S
C589 C588 1.391 . S
C590 H580 0.950 . S
C590 C591 1.386 . S
C590 C592 1.391 . S
C591 C590 1.386 . S
C591 C595 1.393 . S
C592 H581 0.950 . S
C592 C590 1.391 . S
C592 C593 1.400 . S
C593 C587 1.491 . S
C593 C592 1.400 . S
C593 C594 1.398 . S
C594 H582 0.950 . S
C594 C593 1.398 . S
C594 C595 1.391 . S
C595 H583 0.950 . S
C595 C591 1.393 . S
C595 C594 1.391 . S
H596 C604 0.950 . S
H597 C609 0.950 . S
H598 C606 0.950 . S
H599 C608 0.950 . S
H600 C610 0.950 . S
H601 C612 0.950 . S
H602 C614 0.950 . S
H603 C615 0.950 . S
C604 H596 0.950 . S
C604 C605 1.386 . S
C604 C606 1.391 . S
C605 C604 1.386 . S
C605 C609 1.393 . S
C606 H598 0.950 . S
C606 C604 1.391 . S
C606 C607 1.400 . S
C607 C606 1.400 . S
C607 C608 1.398 . S
C607 C613 1.491 . S
C608 H599 0.950 . S
C608 C607 1.398 . S
C608 C609 1.391 . S
C609 H597 0.950 . S
C609 C605 1.393 . S
C609 C608 1.391 . S
C610 H600 0.950 . S
C610 C611 1.386 . S
C610 C612 1.391 . S
C611 C610 1.386 . S
C611 C615 1.393 . S
C612 H601 0.950 . S
C612 C610 1.391 . S
C612 C613 1.400 . S
C613 C607 1.491 . S
C613 C612 1.400 . S
C613 C614 1.398 . S
C614 H602 0.950 . S
C614 C613 1.398 . S
C614 C615 1.391 . S
C615 H603 0.950 . S
C615 C611 1.393 . S
C615 C614 1.391 . S
H616 C624 0.950 . S
H617 C629 0.950 . S
H618 C626 0.950 . S
H619 C628 0.950 . S
H620 C630 0.950 . S
H621 C632 0.950 . S
H622 C634 0.950 . S
H623 C635 0.950 . S
C624 H616 0.950 . S
C624 C625 1.386 . S
C624 C626 1.391 . S
C625 C624 1.386 . S
C625 C629 1.393 . S
C626 H618 0.950 . S
C626 C624 1.391 . S
C626 C627 1.400 . S
C627 C626 1.400 . S
C627 C628 1.398 . S
C627 C633 1.491 . S
C628 H619 0.950 . S
C628 C627 1.398 . S
C628 C629 1.391 . S
C629 H617 0.950 . S
C629 C625 1.393 . S
C629 C628 1.391 . S
C630 H620 0.950 . S
C630 C631 1.386 . S
C630 C632 1.391 . S
C631 C630 1.386 . S
C631 C635 1.393 . S
C632 H621 0.950 . S
C632 C630 1.391 . S
C632 C633 1.400 . S
C633 C627 1.491 . S
C633 C632 1.400 . S
C633 C634 1.398 . S
C634 H622 0.950 . S
C634 C633 1.398 . S
C634 C635 1.391 . S
C635 H623 0.950 . S
C635 C631 1.393 . S
C635 C634 1.391 . S
H636 C644 0.950 . S
H637 C649 0.950 . S
H638 C646 0.950 . S
H639 C648 0.950 . S
H640 C650 0.950 1_455 S
H641 C652 0.950 . S
H642 C654 0.950 . S
H643 C655 0.950 . S
C644 H636 0.950 . S
C644 C645 1.386 . S
C644 C646 1.391 . S
C645 C644 1.386 . S
C645 C649 1.393 . S
C646 H638 0.950 . S
C646 C644 1.391 . S
C646 C647 1.400 . S
C647 C646 1.400 . S
C647 C648 1.398 . S
C647 C653 1.491 . S
C648 H639 0.950 . S
C648 C647 1.398 . S
C648 C649 1.391 . S
C649 H637 0.950 . S
C649 C645 1.393 . S
C649 C648 1.391 . S
C650 H640 0.950 1_655 S
C650 C651 1.386 . S
C650 C652 1.391 . S
C651 C650 1.386 . S
C651 C655 1.393 . S
C652 H641 0.950 . S
C652 C650 1.391 . S
C652 C653 1.400 . S
C653 C647 1.491 . S
C653 C652 1.400 . S
C653 C654 1.398 . S
C654 H642 0.950 . S
C654 C653 1.398 . S
C654 C655 1.391 . S
C655 H643 0.950 . S
C655 C651 1.393 . S
C655 C654 1.391 . S
H656 C664 0.950 . S
H657 C669 0.950 . S
H658 C666 0.950 . S
H659 C668 0.950 . S
H660 C670 0.950 . S
H661 C672 0.950 . S
H662 C674 0.950 . S
H663 C675 0.950 . S
C664 H656 0.950 . S
C664 C665 1.386 . S
C664 C666 1.391 . S
C665 C664 1.386 . S
C665 C669 1.393 . S
C666 H658 0.950 . S
C666 C664 1.391 . S
C666 C667 1.400 . S
C667 C666 1.400 . S
C667 C668 1.398 . S
C667 C673 1.491 . S
C668 H659 0.950 . S
C668 C667 1.398 . S
C668 C669 1.391 . S
C669 H657 0.950 . S
C669 C665 1.393 . S
C669 C668 1.391 . S
C670 H660 0.950 . S
C670 C671 1.386 . S
C670 C672 1.391 . S
C671 C670 1.386 . S
C671 C675 1.393 . S
C672 H661 0.950 . S
C672 C670 1.391 . S
C672 C673 1.400 . S
C673 C667 1.491 . S
C673 C672 1.400 . S
C673 C674 1.398 . S
C674 H662 0.950 . S
C674 C673 1.398 . S
C674 C675 1.391 . S
C675 H663 0.950 . S
C675 C671 1.393 . S
C675 C674 1.391 . S
H676 C684 0.950 . S
H677 C689 0.950 . S
H678 C686 0.950 . S
H679 C688 0.950 . S
H680 C690 0.950 . S
H681 C692 0.950 . S
H682 C694 0.950 . S
H683 C695 0.950 . S
C684 H676 0.950 . S
C684 C685 1.386 . S
C684 C686 1.391 . S
C685 C684 1.386 . S
C685 C689 1.393 . S
C686 H678 0.950 . S
C686 C684 1.391 . S
C686 C687 1.400 . S
C687 C686 1.400 . S
C687 C688 1.398 . S
C687 C693 1.491 . S
C688 H679 0.950 . S
C688 C687 1.398 . S
C688 C689 1.391 . S
C689 H677 0.950 . S
C689 C685 1.393 . S
C689 C688 1.391 . S
C690 H680 0.950 . S
C690 C691 1.386 . S
C690 C692 1.391 . S
C691 C690 1.386 . S
C691 C695 1.393 . S
C692 H681 0.950 . S
C692 C690 1.391 . S
C692 C693 1.400 . S
C693 C687 1.491 . S
C693 C692 1.400 . S
C693 C694 1.398 . S
C694 H682 0.950 . S
C694 C693 1.398 . S
C694 C695 1.391 . S
C695 H683 0.950 . S
C695 C691 1.393 . S
C695 C694 1.391 . S
H696 C704 0.950 . S
H697 C709 0.950 . S
H698 C706 0.950 . S
H699 C708 0.950 . S
H700 C710 0.950 1_655 S
H701 C712 0.950 . S
H702 C714 0.950 . S
H703 C715 0.950 . S
C704 H696 0.950 . S
C704 C705 1.386 . S
C704 C706 1.391 . S
C705 C704 1.386 . S
C705 C709 1.393 . S
C706 H698 0.950 . S
C706 C704 1.391 . S
C706 C707 1.400 . S
C707 C706 1.400 . S
C707 C708 1.398 . S
C707 C713 1.491 . S
C708 H699 0.950 . S
C708 C707 1.398 . S
C708 C709 1.391 . S
C709 H697 0.950 . S
C709 C705 1.393 . S
C709 C708 1.391 . S
C710 H700 0.950 1_455 S
C710 C711 1.386 . S
C710 C712 1.391 . S
C711 C710 1.386 . S
C711 C715 1.393 . S
C712 H701 0.950 . S
C712 C710 1.391 . S
C712 C713 1.400 . S
C713 C707 1.491 . S
C713 C712 1.400 . S
C713 C714 1.398 . S
C714 H702 0.950 . S
C714 C713 1.398 . S
C714 C715 1.391 . S
C715 H703 0.950 . S
C715 C711 1.393 . S
C715 C714 1.391 . S
H716 C724 0.950 . S
H717 C729 0.950 . S
H718 C726 0.950 . S
H719 C728 0.950 . S
H720 C730 0.973 . S
H721 C732 0.950 1_545 S
H722 C734 0.950 . S
H723 C735 0.950 . S
C724 H716 0.950 . S
C724 C725 1.386 . S
C724 C726 1.391 . S
C725 C724 1.386 . S
C725 C729 1.393 . S
C726 H718 0.950 . S
C726 C724 1.391 . S
C726 C727 1.400 . S
C727 C726 1.400 . S
C727 C728 1.398 . S
C727 C733 1.491 . S
C728 H719 0.950 . S
C728 C727 1.398 . S
C728 C729 1.391 . S
C729 H717 0.950 . S
C729 C725 1.393 . S
C729 C728 1.391 . S
C730 H720 0.973 . S
C730 C731 1.370 1_545 S
C730 C732 1.384 1_545 S
C731 C730 1.370 1_565 S
C731 C735 1.393 . S
C732 H721 0.950 1_565 S
C732 C730 1.384 1_565 S
C732 C733 1.400 . S
C733 C727 1.491 . S
C733 C732 1.400 . S
C733 C734 1.398 . S
C734 H722 0.950 . S
C734 C733 1.398 . S
C734 C735 1.391 . S
C735 H723 0.950 . S
C735 C731 1.393 . S
C735 C734 1.391 . S
H736 C744 0.950 . S
H737 C749 0.950 . S
H738 C746 0.950 . S
H739 C748 0.950 . S
H740 C750 0.950 . S
H741 C752 0.950 . S
H742 C754 0.950 . S
H743 C755 0.950 . S
C744 H736 0.950 . S
C744 C745 1.386 . S
C744 C746 1.391 . S
C745 C744 1.386 . S
C745 C749 1.393 . S
C746 H738 0.950 . S
C746 C744 1.391 . S
C746 C747 1.400 . S
C747 C746 1.400 . S
C747 C748 1.398 . S
C747 C753 1.491 . S
C748 H739 0.950 . S
C748 C747 1.398 . S
C748 C749 1.391 . S
C749 H737 0.950 . S
C749 C745 1.393 . S
C749 C748 1.391 . S
C750 H740 0.950 . S
C750 C751 1.386 . S
C750 C752 1.391 . S
C751 C750 1.386 . S
C751 C755 1.393 . S
C752 H741 0.950 . S
C752 C750 1.391 . S
C752 C753 1.400 . S
C753 C747 1.491 . S
C753 C752 1.400 . S
C753 C754 1.398 . S
C754 H742 0.950 . S
C754 C753 1.398 . S
C754 C755 1.391 . S
C755 H743 0.950 . S
C755 C751 1.393 . S
C755 C754 1.391 . S
H756 C764 0.950 . S
H757 C769 0.950 . S
H758 C766 0.950 . S
H759 C768 0.950 . S
H760 C770 0.950 . S
H761 C772 0.950 . S
H762 C774 0.950 . S
H763 C775 0.950 . S
C764 H756 0.950 . S
C764 C765 1.386 . S
C764 C766 1.391 . S
C765 C764 1.386 . S
C765 C769 1.393 . S
C766 H758 0.950 . S
C766 C764 1.391 . S
C766 C767 1.400 . S
C767 C766 1.400 . S
C767 C768 1.398 . S
C767 C773 1.491 . S
C768 H759 0.950 . S
C768 C767 1.398 . S
C768 C769 1.391 . S
C769 H757 0.950 . S
C769 C765 1.393 . S
C769 C768 1.391 . S
C770 H760 0.950 . S
C770 C771 1.386 . S
C770 C772 1.391 . S
C771 C770 1.386 . S
C771 C775 1.393 . S
C772 H761 0.950 . S
C772 C770 1.391 . S
C772 C773 1.400 . S
C773 C767 1.491 . S
C773 C772 1.400 . S
C773 C774 1.398 . S
C774 H762 0.950 . S
C774 C773 1.398 . S
C774 C775 1.391 . S
C775 H763 0.950 . S
C775 C771 1.393 . S
C775 C774 1.391 . S
H776 C784 0.950 . S
H777 C789 0.950 . S
H778 C786 0.950 . S
H779 C788 0.950 . S
H780 C790 0.950 . S
H781 C792 0.950 . S
H782 C794 0.950 . S
H783 C795 0.950 . S
C784 H776 0.950 . S
C784 C785 1.386 . S
C784 C786 1.391 . S
C785 C784 1.386 . S
C785 C789 1.393 . S
C786 H778 0.950 . S
C786 C784 1.391 . S
C786 C787 1.400 . S
C787 C786 1.400 . S
C787 C788 1.398 . S
C787 C793 1.491 . S
C788 H779 0.950 . S
C788 C787 1.398 . S
C788 C789 1.391 . S
C789 H777 0.950 . S
C789 C785 1.393 . S
C789 C788 1.391 . S
C790 H780 0.950 . S
C790 C791 1.386 . S
C790 C792 1.391 . S
C791 C790 1.386 . S
C791 C795 1.393 . S
C792 H781 0.950 . S
C792 C790 1.391 . S
C792 C793 1.400 . S
C793 C787 1.491 . S
C793 C792 1.400 . S
C793 C794 1.398 . S
C794 H782 0.950 . S
C794 C793 1.398 . S
C794 C795 1.391 . S
C795 H783 0.950 . S
C795 C791 1.393 . S
C795 C794 1.391 . S
H796 C804 0.950 . S
H797 C809 0.950 . S
H798 C806 0.950 . S
H799 C808 0.950 . S
H800 C810 0.950 . S
H801 C812 0.950 . S
H802 C814 0.950 . S
H803 C815 0.950 1_455 S
C804 H796 0.950 . S
C804 C805 1.386 . S
C804 C806 1.391 . S
C805 C804 1.386 . S
C805 C809 1.393 . S
C806 H798 0.950 . S
C806 C804 1.391 . S
C806 C807 1.400 . S
C807 C806 1.400 . S
C807 C808 1.398 . S
C807 C813 1.491 . S
C808 H799 0.950 . S
C808 C807 1.398 . S
C808 C809 1.391 . S
C809 H797 0.950 . S
C809 C805 1.393 . S
C809 C808 1.391 . S
C810 H800 0.950 . S
C810 C811 1.386 . S
C810 C812 1.391 . S
C811 C810 1.386 . S
C811 C815 1.393 . S
C812 H801 0.950 . S
C812 C810 1.391 . S
C812 C813 1.400 . S
C813 C807 1.491 . S
C813 C812 1.400 . S
C813 C814 1.398 . S
C814 H802 0.950 . S
C814 C813 1.398 . S
C814 C815 1.391 . S
C815 H803 0.950 1_655 S
C815 C811 1.393 . S
C815 C814 1.391 . S
H816 C824 0.950 . S
H817 C829 0.950 . S
H818 C826 0.950 . S
H819 C828 0.950 . S
H820 C830 0.950 . S
H821 C832 0.950 . S
H822 C834 0.950 . S
H823 C835 0.950 . S
C824 H816 0.950 . S
C824 C825 1.386 . S
C824 C826 1.391 . S
C825 C824 1.386 . S
C825 C829 1.393 . S
C826 H818 0.950 . S
C826 C824 1.391 . S
C826 C827 1.400 . S
C827 C826 1.400 . S
C827 C828 1.398 . S
C827 C833 1.491 . S
C828 H819 0.950 . S
C828 C827 1.398 . S
C828 C829 1.391 . S
C829 H817 0.950 . S
C829 C825 1.393 . S
C829 C828 1.391 . S
C830 H820 0.950 . S
C830 C831 1.386 . S
C830 C832 1.391 . S
C831 C830 1.386 . S
C831 C835 1.393 . S
C832 H821 0.950 . S
C832 C830 1.391 . S
C832 C833 1.400 . S
C833 C827 1.491 . S
C833 C832 1.400 . S
C833 C834 1.398 . S
C834 H822 0.950 . S
C834 C833 1.398 . S
C834 C835 1.391 . S
C835 H823 0.950 . S
C835 C831 1.393 . S
C835 C834 1.391 . S
H836 C844 0.950 . S
H837 C849 0.950 . S
H838 C846 0.950 . S
H839 C848 0.950 . S
H840 C850 0.950 . S
H841 C852 0.950 . S
H842 C854 0.950 . S
H843 C855 0.950 . S
C844 H836 0.950 . S
C844 C845 1.386 . S
C844 C846 1.391 . S
C845 C844 1.386 . S
C845 C849 1.393 . S
C846 H838 0.950 . S
C846 C844 1.391 . S
C846 C847 1.400 . S
C847 C846 1.400 . S
C847 C848 1.398 . S
C847 C853 1.491 . S
C848 H839 0.950 . S
C848 C847 1.398 . S
C848 C849 1.391 . S
C849 H837 0.950 . S
C849 C845 1.393 . S
C849 C848 1.391 . S
C850 H840 0.950 . S
C850 C851 1.386 . S
C850 C852 1.391 . S
C851 C850 1.386 . S
C851 C855 1.393 . S
C852 H841 0.950 . S
C852 C850 1.391 . S
C852 C853 1.400 . S
C853 C847 1.491 . S
C853 C852 1.400 . S
C853 C854 1.398 . S
C854 H842 0.950 . S
C854 C853 1.398 . S
C854 C855 1.391 . S
C855 H843 0.950 . S
C855 C851 1.393 . S
C855 C854 1.391 . S
H856 C864 0.950 . S
H857 C869 0.950 . S
H858 C866 0.950 . S
H859 C868 0.950 . S
H860 C870 0.950 . S
H861 C872 0.950 . S
H862 C874 0.950 . S
H863 C875 0.950 . S
C864 H856 0.950 . S
C864 C865 1.386 . S
C864 C866 1.391 . S
C865 C864 1.386 . S
C865 C869 1.393 . S
C866 H858 0.950 . S
C866 C864 1.391 . S
C866 C867 1.400 . S
C867 C866 1.400 . S
C867 C868 1.398 . S
C867 C873 1.491 . S
C868 H859 0.950 . S
C868 C867 1.398 . S
C868 C869 1.391 . S
C869 H857 0.950 . S
C869 C865 1.393 . S
C869 C868 1.391 . S
C870 H860 0.950 . S
C870 C871 1.386 . S
C870 C872 1.391 . S
C871 C870 1.386 . S
C871 C875 1.393 . S
C872 H861 0.950 . S
C872 C870 1.391 . S
C872 C873 1.400 . S
C873 C867 1.491 . S
C873 C872 1.400 . S
C873 C874 1.398 . S
C874 H862 0.950 . S
C874 C873 1.398 . S
C874 C875 1.391 . S
C875 H863 0.950 . S
C875 C871 1.393 . S
C875 C874 1.391 . S
C405 C1 1.626 . S
C411 C328 1.572 . S
C425 C40 1.496 . S
C431 C350 1.437 . S
C451 C369 1.227 . S
C445 C99 1.465 . S
C465 C118 1.842 . S
C471 C390 1.517 . S
C491 C347 1.773 . S
C485 C16 1.830 . S
C511 C325 1.677 . S
C505 C60 1.708 . S
C531 C392 1.294 . S
C525 C79 1.377 . S
C551 C371 1.449 . S
C545 C138 1.460 . S
C565 C21 1.754 . S
C571 C389 1.716 . S
C591 C348 1.342 . S
C585 C94 1.627 . S
C605 C133 1.675 . S
C611 C330 1.509 . S
C625 C55 1.532 . S
C631 C368 1.508 . S
C651 C326 1.596 . S
C645 C157 1.655 . S
C665 C196 1.323 . S
C671 C346 1.276 . S
C685 C255 1.516 . S
C691 C372 1.290 . S
C705 C289 1.751 . S
C711 C393 1.426 . S
C725 C172 1.769 . S
C731 C349 1.731 . S
C751 C329 1.720 . S
C745 C216 1.802 . S
C771 C388 1.196 . S
C765 C235 1.262 . S
C791 C367 1.519 . S
C785 C294 1.561 . S
C805 C177 1.563 . S
C811 C391 1.526 . S
C831 C351 1.271 . S
C825 C250 1.526 . S
C851 C327 1.350 . S
C845 C274 1.482 . S
C865 C211 1.454 . S
C871 C370 1.426 . S
