# Generated by pormake.
# Topology zzz, (3,6)-cn, num edge types: 1
# Building blocks:
#     Node 0, Type 0, BuildingBlock: VETTIZ_charged_linker_0, # of connection points: 3
#     Node 1, Type 0, BuildingBlock: VETTIZ_charged_linker_0, # of connection points: 3
#     Node 2, Type 0, BuildingBlock: VETTIZ_charged_linker_0, # of connection points: 3
#     Node 3, Type 0, BuildingBlock: VETTIZ_charged_linker_0, # of connection points: 3
#     Node 4, Type 0, BuildingBlock: VETTIZ_charged_linker_0, # of connection points: 3
#     Node 5, Type 0, BuildingBlock: VETTIZ_charged_linker_0, # of connection points: 3
#     Node 6, Type 0, BuildingBlock: VETTIZ_charged_linker_0, # of connection points: 3
#     Node 7, Type 0, BuildingBlock: VETTIZ_charged_linker_0, # of connection points: 3
#     Node 8, Type 1, BuildingBlock: VOLQOD_clean_sbu_1, # of connection points: 6
#     Node 9, Type 1, BuildingBlock: VOLQOD_clean_sbu_1, # of connection points: 6
#     Node 10, Type 1, BuildingBlock: VOLQOD_clean_sbu_1, # of connection points: 6
#     Node 11, Type 1, BuildingBlock: VOLQOD_clean_sbu_1, # of connection points: 6
#     Edge 12, Type (0, 1), BuildingBlock: TEMPAE_clean_linker_10, # of connection points: 2
#     Edge 13, Type (0, 1), BuildingBlock: TEMPAE_clean_linker_10, # of connection points: 2
#     Edge 14, Type (0, 1), BuildingBlock: TEMPAE_clean_linker_10, # of connection points: 2
#     Edge 15, Type (0, 1), BuildingBlock: TEMPAE_clean_linker_10, # of connection points: 2
#     Edge 16, Type (0, 1), BuildingBlock: TEMPAE_clean_linker_10, # of connection points: 2
#     Edge 17, Type (0, 1), BuildingBlock: TEMPAE_clean_linker_10, # of connection points: 2
#     Edge 18, Type (0, 1), BuildingBlock: TEMPAE_clean_linker_10, # of connection points: 2
#     Edge 19, Type (0, 1), BuildingBlock: TEMPAE_clean_linker_10, # of connection points: 2
#     Edge 20, Type (0, 1), BuildingBlock: TEMPAE_clean_linker_10, # of connection points: 2
#     Edge 21, Type (0, 1), BuildingBlock: TEMPAE_clean_linker_10, # of connection points: 2
#     Edge 22, Type (0, 1), BuildingBlock: TEMPAE_clean_linker_10, # of connection points: 2
#     Edge 23, Type (0, 1), BuildingBlock: TEMPAE_clean_linker_10, # of connection points: 2
#     Edge 24, Type (0, 1), BuildingBlock: TEMPAE_clean_linker_10, # of connection points: 2
#     Edge 25, Type (0, 1), BuildingBlock: TEMPAE_clean_linker_10, # of connection points: 2
#     Edge 26, Type (0, 1), BuildingBlock: TEMPAE_clean_linker_10, # of connection points: 2
#     Edge 27, Type (0, 1), BuildingBlock: TEMPAE_clean_linker_10, # of connection points: 2
#     Edge 28, Type (0, 1), BuildingBlock: TEMPAE_clean_linker_10, # of connection points: 2
#     Edge 29, Type (0, 1), BuildingBlock: TEMPAE_clean_linker_10, # of connection points: 2
#     Edge 30, Type (0, 1), BuildingBlock: TEMPAE_clean_linker_10, # of connection points: 2
#     Edge 31, Type (0, 1), BuildingBlock: TEMPAE_clean_linker_10, # of connection points: 2
#     Edge 32, Type (0, 1), BuildingBlock: TEMPAE_clean_linker_10, # of connection points: 2
#     Edge 33, Type (0, 1), BuildingBlock: TEMPAE_clean_linker_10, # of connection points: 2
#     Edge 34, Type (0, 1), BuildingBlock: TEMPAE_clean_linker_10, # of connection points: 2
#     Edge 35, Type (0, 1), BuildingBlock: TEMPAE_clean_linker_10, # of connection points: 2
# Relax obj value: 0.368
# Max RMSD: 0.260
# Mean RMSD: 0.211
data_MOF--net-zzz--node1-VOLQOD_clean_sbu_1--node2-VETTIZ_charged_linker_0--edge1-TEMPAE_clean_linker_10
_symmetry_space_group_name_H-M    P1
_symmetry_Int_Tables_number       1
_symmetry_cell_setting            triclinic
loop_
_symmetry_equiv_pos_as_xyz
'x, y, z'
_cell_length_a     57.804426
_cell_length_b     56.89944
_cell_length_c     22.866651
_cell_angle_alpha  90.152129
_cell_angle_beta   90.222281
_cell_angle_gamma 92.291062
loop_
_atom_site_label
_atom_site_type_symbol
_atom_site_fract_x
_atom_site_fract_y
_atom_site_fract_z
_atom_type_partial_charge
C0 C 0.8195 0.52164 0.29099 0.0
C1 C 0.84273 0.53065 0.28943 0.0
C2 C 0.85135 0.54021 0.23649 0.0
C3 C 0.81795 0.52419 0.18566 0.0
C4 C 0.80704 0.51935 0.23788 0.0
C5 C 0.78255 0.50972 0.22697 0.0
H6 H 0.70632 0.46969 0.01611 0.0
C7 C 0.80408 0.51396 0.13795 0.0
C8 C 0.78179 0.50899 0.15978 0.0
H9 H 0.69246 0.5285 0.12834 0.0
H10 H 0.7319 0.52738 0.16841 0.0
H11 H 0.75187 0.49297 0.97222 0.0
H12 H 0.74385 0.44 0.10717 0.0
H13 H 0.76892 0.43475 0.06664 0.0
H14 H 0.74094 0.43266 0.03103 0.0
H15 H 0.73924 0.46403 0.95875 0.0
H16 H 0.76976 0.46902 0.95882 0.0
C17 C 0.76513 0.52635 0.25369 0.0
C18 C 0.77937 0.48483 0.25292 0.0
C19 C 0.85078 0.47132 0.98642 0.0
C20 C 0.84603 0.45099 0.95296 0.0
C21 C 0.82404 0.43957 0.95624 0.0
C22 C 0.80669 0.44895 0.99108 0.0
C23 C 0.81151 0.46986 0.02264 0.0
C24 C 0.83356 0.48007 0.02208 0.0
C25 C 0.83643 0.50051 0.06366 0.0
C26 C 0.81222 0.50075 0.08984 0.0
C27 C 0.79762 0.48337 0.06371 0.0
C28 C 0.84197 0.52294 0.02763 0.0
C29 C 0.85562 0.49527 0.109 0.0
C30 C 0.71129 0.48151 0.05159 0.0
C31 C 0.69624 0.49883 0.06995 0.0
C32 C 0.70347 0.51449 0.11506 0.0
C33 C 0.72589 0.51354 0.13925 0.0
C34 C 0.74074 0.49631 0.11954 0.0
C35 C 0.73366 0.48114 0.07492 0.0
C36 C 0.75376 0.4691 0.04753 0.0
C37 C 0.77391 0.48167 0.07886 0.0
C38 C 0.766 0.49544 0.12484 0.0
C39 C 0.75377 0.4739 0.98079 0.0
C40 C 0.75183 0.44269 0.06336 0.0
H41 H 0.84623 0.5439 0.1446 0.0
H42 H 0.81188 0.5152 0.33134 0.0
H43 H 0.7925 0.47301 0.23501 0.0
H44 H 0.7619 0.47714 0.2421 0.0
H45 H 0.78118 0.48531 0.30131 0.0
H46 H 0.76507 0.54323 0.22932 0.0
H47 H 0.76965 0.53033 0.30006 0.0
H48 H 0.74745 0.51804 0.25373 0.0
H49 H 0.86781 0.48 0.98561 0.0
H50 H 0.82022 0.4237 0.93118 0.0
H51 H 0.79012 0.43979 0.99183 0.0
H52 H 0.83027 0.5238 0.989 0.0
H53 H 0.86011 0.52319 0.01167 0.0
H54 H 0.83948 0.53913 0.05315 0.0
H55 H 0.84825 0.48641 0.1484 0.0
H56 H 0.86563 0.51137 0.12237 0.0
H57 H 0.8688 0.48358 0.09105 0.0
H58 H 0.86838 0.54883 0.23469 0.0
C59 C 0.83893 0.53706 0.18449 0.0
C60 C 0.09855 0.81323 0.98796 0.0
C61 C 0.10192 0.83734 0.00131 0.0
C62 C 0.0984 0.84477 0.05946 0.0
C63 C 0.08382 0.80579 0.08561 0.0
C64 C 0.08912 0.79791 0.03036 0.0
C65 C 0.08115 0.77265 0.02102 0.0
H66 H 0.01678 0.67721 0.10768 0.0
C67 C 0.07039 0.78685 0.11574 0.0
C68 C 0.06874 0.76736 0.07844 0.0
H69 H 0.06128 0.68567 0.95682 0.0
H70 H 0.07269 0.72459 0.98775 0.0
H71 H 0.0543 0.70431 0.20321 0.0
H72 H 0.99721 0.73217 0.10501 0.0
H73 H 0.99662 0.74125 0.17882 0.0
H74 H 0.99245 0.7105 0.16121 0.0
H75 H 0.02492 0.69353 0.2134 0.0
H76 H 0.03558 0.72011 0.24853 0.0
C77 C 0.1029 0.7578 0.01341 0.0
C78 C 0.06423 0.77164 0.96818 0.0
C79 C 0.03458 0.80603 0.30957 0.0
C80 C 0.01782 0.79502 0.34524 0.0
C81 C 0.00849 0.77264 0.32887 0.0
C82 C 0.01624 0.76136 0.27774 0.0
C83 C 0.03307 0.77287 0.24223 0.0
C84 C 0.04165 0.79497 0.25866 0.0
C85 C 0.05753 0.80605 0.21437 0.0
C86 C 0.05805 0.78671 0.1691 0.0
C87 C 0.04388 0.76706 0.18516 0.0
C88 C 0.08158 0.81054 0.24347 0.0
C89 C 0.04613 0.8285 0.19072 0.0
C90 C 0.02892 0.68761 0.08152 0.0
C91 C 0.03829 0.67822 0.02986 0.0
C92 C 0.05411 0.69224 0.99713 0.0
C93 C 0.06068 0.71497 0.01501 0.0
C94 C 0.05128 0.72419 0.06615 0.0
C95 C 0.03592 0.71061 0.09926 0.0
C96 C 0.02865 0.72364 0.15364 0.0
C97 C 0.0425 0.74693 0.14761 0.0
C98 C 0.05529 0.74709 0.09533 0.0
C99 C 0.03611 0.7097 0.20788 0.0
C100 C 0.0023 0.72704 0.15003 0.0
H101 H 0.08664 0.83616 0.14426 0.0
H102 H 0.1017 0.80667 0.94435 0.0
H103 H 0.05217 0.78638 0.97031 0.0
H104 H 0.05303 0.7555 0.96674 0.0
H105 H 0.07379 0.77312 0.92621 0.0
H106 H 0.11871 0.76684 0.03201 0.0
H107 H 0.10638 0.75428 0.96652 0.0
H108 H 0.10136 0.74086 0.03716 0.0
H109 H 0.04146 0.82357 0.31987 0.0
H110 H 0.9953 0.76396 0.35554 0.0
H111 H 0.00867 0.74432 0.26731 0.0
H112 H 0.08584 0.7957 0.27272 0.0
H113 H 0.08196 0.82684 0.27037 0.0
H114 H 0.09587 0.81174 0.21149 0.0
H115 H 0.02712 0.82807 0.19842 0.0
H116 H 0.04774 0.83036 0.14275 0.0
H117 H 0.05355 0.84465 0.21215 0.0
H118 H 0.10064 0.8631 0.07178 0.0
C119 C 0.08968 0.8291 0.10163 0.0
C120 C 0.80842 0.99451 0.05298 0.0
C121 C 0.81804 0.00149 0.99872 0.0
C122 C 0.80719 0.01876 0.96574 0.0
C123 C 0.77702 0.02115 0.03813 0.0
C124 C 0.78771 0.00454 0.07175 0.0
C125 C 0.77401 0.99892 0.12675 0.0
H126 H 0.67823 0.02103 0.29059 0.0
C127 C 0.75574 0.02795 0.068 0.0
C128 C 0.75382 0.01531 0.12074 0.0
H129 H 0.72888 0.96947 0.32863 0.0
H130 H 0.75073 0.98154 0.24171 0.0
H131 H 0.71381 0.06339 0.24669 0.0
H132 H 0.67191 0.00803 0.16917 0.0
H133 H 0.67344 0.02938 0.11436 0.0
H134 H 0.66045 0.0362 0.18371 0.0
H135 H 0.68278 0.06288 0.24253 0.0
H136 H 0.70052 0.07549 0.18494 0.0
C137 C 0.78931 0.00522 0.18041 0.0
C138 C 0.76581 0.97276 0.12428 0.0
C139 C 0.69881 0.07816 0.96032 0.0
C140 C 0.67586 0.08379 0.97355 0.0
C141 C 0.66833 0.08149 0.03204 0.0
C142 C 0.68229 0.07145 0.07447 0.0
C143 C 0.70385 0.06303 0.0584 0.0
C144 C 0.71226 0.06737 0.00296 0.0
C145 C 0.73525 0.05643 0.99338 0.0
C146 C 0.73838 0.04359 0.05106 0.0
C147 C 0.7199 0.04749 0.0886 0.0
C148 C 0.75383 0.07656 0.9849 0.0
C149 C 0.73259 0.03911 0.94099 0.0
C150 C 0.6943 0.01261 0.28121 0.0
C151 C 0.70205 0.99463 0.31714 0.0
C152 C 0.72259 0.9835 0.3017 0.0
C153 C 0.73518 0.9905 0.25125 0.0
C154 C 0.72684 0.00844 0.21529 0.0
C155 C 0.70663 0.019 0.23102 0.0
C156 C 0.69882 0.03631 0.18683 0.0
C157 C 0.71789 0.03507 0.14206 0.0
C158 C 0.73454 0.01886 0.1584 0.0
C159 C 0.69876 0.06085 0.2165 0.0
C160 C 0.67491 0.02726 0.16228 0.0
H161 H 0.77965 0.04166 0.95766 0.0
H162 H 0.8165 0.9813 0.07925 0.0
H163 H 0.75957 0.96794 0.07957 0.0
H164 H 0.75109 0.96869 0.15355 0.0
H165 H 0.78017 0.96117 0.13553 0.0
H166 H 0.79775 0.02299 0.17514 0.0
H167 H 0.80314 0.99238 0.18579 0.0
H168 H 0.7793 0.00578 0.22131 0.0
H169 H 0.70556 0.08034 0.9165 0.0
H170 H 0.65089 0.08552 0.04447 0.0
H171 H 0.67504 0.06928 0.11726 0.0
H172 H 0.74862 0.0932 0.00586 0.0
H173 H 0.75679 0.08031 0.93781 0.0
H174 H 0.77054 0.07271 0.00598 0.0
H175 H 0.7155 0.02939 0.94241 0.0
H176 H 0.74544 0.02532 0.94097 0.0
H177 H 0.73368 0.04862 0.89867 0.0
H178 H 0.81448 0.02462 0.92441 0.0
C179 C 0.78696 0.0287 0.98525 0.0
C180 C 0.5176 0.69476 0.32502 0.0
C181 C 0.50804 0.67432 0.3521 0.0
C182 C 0.48865 0.66257 0.32646 0.0
C183 C 0.48907 0.69032 0.2469 0.0
C184 C 0.5075 0.70269 0.27265 0.0
C185 C 0.51418 0.72454 0.23781 0.0
H186 H 0.49989 0.78683 0.98599 0.0
C187 C 0.48303 0.70199 0.19192 0.0
C188 C 0.49728 0.72243 0.18626 0.0
H189 H 0.54583 0.80562 0.12929 0.0
H190 H 0.53172 0.77106 0.18335 0.0
H191 H 0.50862 0.7309 0.98877 0.0
H192 H 0.45679 0.7747 0.06058 0.0
H193 H 0.44226 0.74816 0.04087 0.0
H194 H 0.45633 0.766 0.98511 0.0
H195 H 0.488 0.74582 0.94495 0.0
H196 H 0.48148 0.71711 0.97454 0.0
C197 C 0.53959 0.72286 0.21816 0.0
C198 C 0.50979 0.74632 0.2761 0.0
C199 C 0.4313 0.65736 0.04731 0.0
C200 C 0.42485 0.66188 0.98911 0.0
C201 C 0.42833 0.68495 0.96738 0.0
C202 C 0.44037 0.70228 1.00051 0.0
C203 C 0.44901 0.69654 0.05602 0.0
C204 C 0.44328 0.67483 0.0797 0.0
C205 C 0.45333 0.6719 0.13979 0.0
C206 C 0.46741 0.69489 0.14662 0.0
C207 C 0.46507 0.70905 0.09718 0.0
C208 C 0.46891 0.6503 0.13852 0.0
C209 C 0.43297 0.66992 0.18391 0.0
C210 C 0.50712 0.7834 0.02881 0.0
C211 C 0.52427 0.7986 0.05301 0.0
C212 C 0.53272 0.79396 0.10962 0.0
C213 C 0.5245 0.77395 0.14079 0.0
C214 C 0.50746 0.75869 0.11529 0.0
C215 C 0.49895 0.76387 0.0604 0.0
C216 C 0.48065 0.74641 0.03962 0.0
C217 C 0.47921 0.72984 0.09116 0.0
C218 C 0.49517 0.73673 0.13542 0.0
C219 C 0.48991 0.73441 0.98388 0.0
C220 C 0.45779 0.75936 0.03055 0.0
H221 H 0.46468 0.66037 0.25717 0.0
H222 H 0.53235 0.70428 0.34424 0.0
H223 H 0.49366 0.74357 0.30202 0.0
H224 H 0.50712 0.76227 0.25 0.0
H225 H 0.52431 0.74983 0.30729 0.0
H226 H 0.54248 0.70521 0.1991 0.0
H227 H 0.55161 0.72551 0.25583 0.0
H228 H 0.5445 0.73574 0.18404 0.0
H229 H 0.42896 0.63999 0.06598 0.0
H230 H 0.42288 0.68928 0.92348 0.0
H231 H 0.44347 0.71913 0.98042 0.0
H232 H 0.47939 0.65024 0.09781 0.0
H233 H 0.45831 0.63359 0.13985 0.0
H234 H 0.48159 0.65007 0.17456 0.0
H235 H 0.41672 0.67676 0.1655 0.0
H236 H 0.43641 0.68064 0.22381 0.0
H237 H 0.42915 0.65136 0.19676 0.0
H238 H 0.48113 0.64671 0.34601 0.0
C239 C 0.47913 0.67047 0.27451 0.0
C240 C 0.31855 0.51322 0.27238 0.0
C241 C 0.32891 0.52243 0.32408 0.0
C242 C 0.31794 0.54049 0.35428 0.0
C243 C 0.28688 0.53975 0.28324 0.0
C244 C 0.29762 0.52236 0.25239 0.0
C245 C 0.2841 0.51538 0.19778 0.0
H246 H 0.18879 0.53231 0.02758 0.0
C247 C 0.26538 0.54537 0.25244 0.0
C248 C 0.2637 0.53154 0.20135 0.0
H249 H 0.24122 0.48186 0.99679 0.0
H250 H 0.26199 0.49559 0.08439 0.0
H251 H 0.18206 0.52081 0.14972 0.0
H252 H 0.22263 0.57636 0.07045 0.0
H253 H 0.20829 0.5888 0.13013 0.0
H254 H 0.19157 0.57458 0.07238 0.0
H255 H 0.16986 0.54848 0.13364 0.0
H256 H 0.18302 0.54271 0.20361 0.0
C257 C 0.27626 0.48919 0.20303 0.0
C258 C 0.29944 0.52086 0.14401 0.0
C259 C 0.20658 0.59503 0.35432 0.0
C260 C 0.18331 0.59924 0.34036 0.0
C261 C 0.17584 0.59566 0.28198 0.0
C262 C 0.19026 0.5857 0.24062 0.0
C263 C 0.21222 0.57859 0.25773 0.0
C264 C 0.2205 0.5842 0.31287 0.0
C265 C 0.24401 0.57451 0.32372 0.0
C266 C 0.24756 0.56076 0.2674 0.0
C267 C 0.22887 0.56326 0.22924 0.0
C268 C 0.24224 0.55812 0.37778 0.0
C269 C 0.2618 0.59551 0.33036 0.0
C270 C 0.20504 0.52452 0.03869 0.0
C271 C 0.21365 0.50639 0.00457 0.0
C272 C 0.23434 0.49604 0.02224 0.0
C273 C 0.24632 0.50403 0.073 0.0
C274 C 0.23723 0.52224 0.10686 0.0
C275 C 0.21681 0.53195 0.08915 0.0
C276 C 0.20825 0.54965 0.13147 0.0
C277 C 0.22725 0.5498 0.17707 0.0
C278 C 0.24438 0.53383 0.16294 0.0
C279 C 0.18456 0.54016 0.15582 0.0
C280 C 0.20743 0.57365 0.09973 0.0
H281 H 0.28981 0.56285 0.35945 0.0
H282 H 0.32664 0.49946 0.24795 0.0
H283 H 0.30821 0.53854 0.14849 0.0
H284 H 0.28944 0.52131 0.1029 0.0
H285 H 0.31303 0.50772 0.13944 0.0
H286 H 0.27007 0.48521 0.24807 0.0
H287 H 0.29081 0.4776 0.19352 0.0
H288 H 0.26161 0.48429 0.17387 0.0
H289 H 0.21329 0.5983 0.39794 0.0
H290 H 0.15819 0.5986 0.26892 0.0
H291 H 0.18309 0.58254 0.19791 0.0
H292 H 0.22599 0.54697 0.37597 0.0
H293 H 0.24207 0.56849 0.41899 0.0
H294 H 0.25631 0.54567 0.38068 0.0
H295 H 0.25555 0.61174 0.30949 0.0
H296 H 0.27837 0.59225 0.30813 0.0
H297 H 0.2653 0.59969 0.37711 0.0
H298 H 0.32525 0.54766 0.39455 0.0
C299 C 0.2972 0.54923 0.33404 0.0
C300 C 0.10353 0.16983 0.40925 0.0
C301 C 0.10434 0.14547 0.39999 0.0
C302 C 0.11493 0.13708 0.34913 0.0
C303 C 0.11641 0.1765 0.31016 0.0
C304 C 0.1099 0.18514 0.36371 0.0
C305 C 0.10791 0.21142 0.3628 0.0
H306 H 0.06374 0.3005 0.23987 0.0
C307 C 0.11453 0.19533 0.26668 0.0
C308 C 0.11139 0.2163 0.29737 0.0
H309 H 0.10912 0.30181 0.39123 0.0
H310 H 0.1252 0.26499 0.35855 0.0
H311 H 0.10915 0.2791 0.15758 0.0
H312 H 0.04832 0.24297 0.23031 0.0
H313 H 0.05173 0.23727 0.15453 0.0
H314 H 0.04612 0.26651 0.17844 0.0
H315 H 0.08063 0.28427 0.13012 0.0
H316 H 0.0963 0.25914 0.10681 0.0
C317 C 0.1272 0.22251 0.40242 0.0
C318 C 0.08352 0.21788 0.38361 0.0
C319 C 0.08849 0.16747 0.06611 0.0
C320 C 0.07549 0.17728 0.0212 0.0
C321 C 0.07023 0.20125 0.02507 0.0
C322 C 0.077 0.21479 0.0746 0.0
C323 C 0.08899 0.20418 0.12068 0.0
C324 C 0.09459 0.18087 0.11541 0.0
C325 C 0.10635 0.17166 0.16865 0.0
C326 C 0.10746 0.19349 0.20712 0.0
C327 C 0.09728 0.21264 0.17898 0.0
C328 C 0.13088 0.16439 0.15121 0.0
C329 C 0.09094 0.15109 0.19444 0.0
C330 C 0.0765 0.29248 0.26734 0.0
C331 C 0.0838 0.30312 0.32082 0.0
C332 C 0.10185 0.29308 0.35279 0.0
C333 C 0.1105 0.27157 0.33602 0.0
C334 C 0.10029 0.2596 0.28885 0.0
C335 C 0.0855 0.27063 0.25167 0.0
C336 C 0.08172 0.25625 0.19609 0.0
C337 C 0.09537 0.23432 0.20984 0.0
C338 C 0.10473 0.23637 0.2663 0.0
C339 C 0.09234 0.27038 0.14455 0.0
C340 C 0.05556 0.25042 0.18902 0.0
H341 H 0.12884 0.14571 0.26539 0.0
H342 H 0.09618 0.17655 0.44914 0.0
H343 H 0.06989 0.20899 0.35605 0.0
H344 H 0.0812 0.23707 0.38158 0.0
H345 H 0.08065 0.21263 0.42982 0.0
H346 H 0.13206 0.21042 0.43818 0.0
H347 H 0.1214 0.23844 0.42519 0.0
H348 H 0.14314 0.22691 0.37702 0.0
H349 H 0.09317 0.14922 0.06399 0.0
H350 H 0.06027 0.20926 0.9908 0.0
H351 H 0.07213 0.23278 0.07593 0.0
H352 H 0.13924 0.1777 0.1217 0.0
H353 H 0.13013 0.14721 0.12794 0.0
H354 H 0.14255 0.1632 0.18942 0.0
H355 H 0.07663 0.1451 0.16469 0.0
H356 H 0.08233 0.15628 0.23556 0.0
H357 H 0.10096 0.13518 0.20247 0.0
H358 H 0.11624 0.11836 0.34183 0.0
C359 C 0.12138 0.1527 0.30426 0.0
C360 C 0.31539 0.03501 0.04996 0.0
C361 C 0.33841 0.04257 0.03648 0.0
C362 C 0.3497 0.05966 0.07235 0.0
C363 C 0.31885 0.05592 0.14215 0.0
C364 C 0.30571 0.04247 0.1033 0.0
C365 C 0.28155 0.03757 0.12751 0.0
H366 H 0.21199 0.04047 0.37032 0.0
C367 C 0.30668 0.05703 0.1979 0.0
C368 C 0.28413 0.0474 0.18982 0.0
H369 H 0.19036 0.02041 0.19601 0.0
H370 H 0.22991 0.02759 0.16069 0.0
H371 H 0.25288 0.01108 0.36966 0.0
H372 H 0.24724 0.08471 0.3423 0.0
H373 H 0.27078 0.08037 0.39029 0.0
H374 H 0.24231 0.06913 0.40968 0.0
H375 H 0.25798 0.03136 0.42841 0.0
H376 H 0.28126 0.02201 0.38241 0.0
C377 C 0.27608 0.01082 0.12712 0.0
C378 C 0.26445 0.05158 0.09064 0.0
C379 C 0.3566 0.05849 0.37927 0.0
C380 C 0.35127 0.05184 0.43672 0.0
C381 C 0.32815 0.05178 0.4556 0.0
C382 C 0.31032 0.05626 0.41599 0.0
C383 C 0.31566 0.05971 0.35661 0.0
C384 C 0.33855 0.06173 0.33946 0.0
C385 C 0.34107 0.06391 0.27424 0.0
C386 C 0.31575 0.0611 0.2549 0.0
C387 C 0.30112 0.05848 0.3033 0.0
C388 C 0.35571 0.04343 0.25226 0.0
C389 C 0.35206 0.0886 0.26019 0.0
C390 C 0.2157 0.03808 0.32429 0.0
C391 C 0.19816 0.0305 0.28555 0.0
C392 C 0.20369 0.02663 0.22635 0.0
C393 C 0.22652 0.03099 0.20596 0.0
C394 C 0.24389 0.03901 0.24546 0.0
C395 C 0.23824 0.04201 0.30372 0.0
C396 C 0.25887 0.04835 0.34116 0.0
C397 C 0.27752 0.05137 0.29516 0.0
C398 C 0.26893 0.0456 0.2389 0.0
C399 C 0.26302 0.0273 0.38277 0.0
C400 C 0.25465 0.07184 0.37298 0.0
H401 H 0.34907 0.07946 0.15094 0.0
H402 H 0.30581 0.02288 0.02148 0.0
H403 H 0.27193 0.06942 0.08044 0.0
H404 H 0.24813 0.05459 0.11377 0.0
H405 H 0.26046 0.04249 0.04853 0.0
H406 H 0.2904 0.0014 0.14811 0.0
H407 H 0.27395 0.00414 0.08164 0.0
H408 H 0.26016 0.00599 0.15151 0.0
H409 H 0.37435 0.05858 0.36427 0.0
H410 H 0.3238 0.04679 0.50004 0.0
H411 H 0.29299 0.05554 0.43245 0.0
H412 H 0.34791 0.02621 0.26656 0.0
H413 H 0.37368 0.04506 0.26952 0.0
H414 H 0.35729 0.04277 0.20438 0.0
H415 H 0.35609 0.09919 0.30019 0.0
H416 H 0.3402 0.09919 0.23361 0.0
H417 H 0.36869 0.08727 0.23643 0.0
H418 H 0.36679 0.06676 0.06118 0.0
C419 C 0.33979 0.06667 0.12462 0.0
C420 C 0.47431 0.27855 0.05133 0.0
C421 C 0.47955 0.30187 0.03345 0.0
C422 C 0.49703 0.3152 0.06264 0.0
C423 C 0.50282 0.28324 0.12947 0.0
C424 C 0.48626 0.26955 0.09991 0.0
C425 C 0.48318 0.24542 0.12741 0.0
H426 H 0.51439 0.17177 0.34775 0.0
C427 C 0.51131 0.2698 0.17947 0.0
C428 C 0.50012 0.24742 0.17887 0.0
H429 H 0.4661 0.15513 0.20787 0.0
H430 H 0.4721 0.19479 0.1688 0.0
H431 H 0.55291 0.20025 0.27153 0.0
H432 H 0.49525 0.2197 0.3764 0.0
H433 H 0.51565 0.24314 0.38364 0.0
H434 H 0.52283 0.21422 0.40852 0.0
H435 H 0.55183 0.19744 0.34969 0.0
H436 H 0.56217 0.22431 0.31553 0.0
C437 C 0.49042 0.2269 0.08224 0.0
C438 C 0.45785 0.24206 0.14797 0.0
C439 C 0.56308 0.31236 0.32776 0.0
C440 C 0.57018 0.3064 0.38435 0.0
C441 C 0.56715 0.28294 0.40325 0.0
C442 C 0.55593 0.26598 0.36735 0.0
C443 C 0.54725 0.27269 0.31254 0.0
C444 C 0.55136 0.29543 0.29319 0.0
C445 C 0.53936 0.30007 0.23631 0.0
C446 C 0.52689 0.27649 0.22519 0.0
C447 C 0.53168 0.26053 0.26959 0.0
C448 C 0.55824 0.3056 0.18971 0.0
C449 C 0.52219 0.32002 0.24673 0.0
C450 C 0.50529 0.17652 0.30823 0.0
C451 C 0.49015 0.16026 0.28016 0.0
C452 C 0.47801 0.16739 0.22998 0.0
C453 C 0.4816 0.19033 0.20735 0.0
C454 C 0.49726 0.20628 0.23571 0.0
C455 C 0.50856 0.19913 0.28565 0.0
C456 C 0.52388 0.21812 0.31223 0.0
C457 C 0.52087 0.23775 0.26891 0.0
C458 C 0.50516 0.23102 0.22396 0.0
C459 C 0.54906 0.2097 0.31281 0.0
C460 C 0.51414 0.22412 0.37349 0.0
H461 H 0.5216 0.31736 0.13046 0.0
H462 H 0.4611 0.26788 0.02891 0.0
H463 H 0.45219 0.25817 0.17058 0.0
H464 H 0.45544 0.22765 0.17978 0.0
H465 H 0.44604 0.23855 0.11024 0.0
H466 H 0.50666 0.23286 0.05984 0.0
H467 H 0.47678 0.22401 0.0483 0.0
H468 H 0.49413 0.20987 0.10237 0.0
H469 H 0.56465 0.3304 0.31272 0.0
H470 H 0.57245 0.27805 0.44691 0.0
H471 H 0.55359 0.24856 0.38476 0.0
H472 H 0.57441 0.29635 0.19948 0.0
H473 H 0.56281 0.32473 0.18803 0.0
H474 H 0.5531 0.29935 0.14548 0.0
H475 H 0.51524 0.31942 0.29205 0.0
H476 H 0.50661 0.31855 0.21872 0.0
H477 H 0.53078 0.33764 0.2404 0.0
H478 H 0.50153 0.33302 0.04878 0.0
C479 C 0.50871 0.30604 0.11008 0.0
O480 O 0.06326 0.0072 0.59915 0.0
Zn481 Zn 0.04318 0.00427 0.67208 0.0
O482 O 0.01081 0.99499 0.65297 0.0
Zn483 Zn 0.99025 0.02021 0.67748 0.0
Zn484 Zn 0.00899 0.98946 0.56803 0.0
Zn485 Zn 1.00041 0.96618 0.69421 0.0
O486 O 0.96498 0.00829 0.73136 0.0
O487 O 0.9718 0.97065 0.74527 0.0
O488 O 0.04508 0.03559 0.71596 0.0
O489 O 0.00844 0.04578 0.72076 0.0
O490 O 0.97568 0.03477 0.6066 0.0
O491 O 0.98413 0.00985 0.53894 0.0
O492 O 1.00091 0.95536 0.5504 0.0
O493 O 0.05686 0.97958 0.72378 0.0
O494 O 0.99425 0.93898 0.63704 0.0
O495 O 0.02629 0.95624 0.7461 0.0
C496 C 0.05921 0.00417 0.5447 0.0
C497 C 0.95982 0.98859 0.75526 0.0
C498 C 0.98454 0.03102 0.55687 0.0
C499 C 0.02983 0.04986 0.73211 0.0
C500 C 0.99558 0.93739 0.58146 0.0
C501 C 0.04767 0.96223 0.75154 0.0
O502 O 0.03905 0.99783 0.52653 0.0
O503 O 0.49587 0.02935 0.60488 0.0
Zn504 Zn 0.50233 0.0117 0.67964 0.0
O505 O 0.51143 0.97939 0.66282 0.0
Zn506 Zn 0.48824 0.95695 0.69713 0.0
Zn507 Zn 0.51337 0.97545 0.57737 0.0
Zn508 Zn 0.54171 0.97302 0.69722 0.0
O509 O 0.50295 0.93463 0.75259 0.0
O510 O 0.54031 0.94517 0.75346 0.0
O511 O 0.47312 0.01186 0.72946 0.0
O512 O 0.46408 0.97397 0.7425 0.0
O513 O 0.47182 0.9383 0.63291 0.0
O514 O 0.49305 0.94731 0.5578 0.0
O515 O 0.54633 0.97067 0.55151 0.0
O516 O 0.52813 0.02959 0.72301 0.0
O517 O 0.56613 0.96813 0.63443 0.0
O518 O 0.55275 0.00146 0.74267 0.0
C519 C 0.49616 0.02387 0.55079 0.0
C520 C 0.52346 0.93192 0.77124 0.0
C521 C 0.47309 0.94608 0.58095 0.0
C522 C 0.45995 0.99555 0.75086 0.0
C523 C 0.56539 0.96813 0.57863 0.0
C524 C 0.54652 0.02261 0.74719 0.0
O525 O 0.50207 0.00361 0.53412 0.0
O526 O 0.45636 0.47897 0.63706 0.0
Zn527 Zn 0.47594 0.47985 0.71087 0.0
O528 O 0.50883 0.48793 0.69355 0.0
Zn529 Zn 0.52813 0.46366 0.7249 0.0
Zn530 Zn 0.51255 0.48994 0.6086 0.0
Zn531 Zn 0.5194 0.51785 0.72975 0.0
O532 O 0.55142 0.47615 0.78381 0.0
O533 O 0.54644 0.51452 0.78639 0.0
O534 O 0.47203 0.44811 0.7526 0.0
O535 O 0.50867 0.43878 0.76518 0.0
O536 O 0.54516 0.44771 0.66078 0.0
O537 O 0.5337 0.46515 0.57939 0.0
O538 O 0.52448 0.52236 0.5851 0.0
O539 O 0.46286 0.50527 0.76167 0.0
O540 O 0.52814 0.54241 0.66827 0.0
O541 O 0.49307 0.53028 0.77553 0.0
C542 C 0.46113 0.48145 0.58299 0.0
C543 C 0.55689 0.49651 0.8039 0.0
C544 C 0.54548 0.44982 0.6054 0.0
C545 C 0.48711 0.43432 0.77222 0.0
C546 C 0.52931 0.54146 0.61263 0.0
C547 C 0.47193 0.52404 0.78398 0.0
O548 O 0.48192 0.4853 0.56625 0.0
O549 O 0.98394 0.5231 0.59893 0.0
Zn550 Zn 0.01473 0.52348 0.64315 0.0
O551 O 0.02441 0.49128 0.65989 0.0
Zn552 Zn 0.02651 0.48718 0.7449 0.0
Zn553 Zn 0.00186 0.46848 0.62613 0.0
Zn554 Zn 0.05456 0.48547 0.62523 0.0
O555 O 0.05897 0.47962 0.76995 0.0
O556 O 0.07901 0.48017 0.68737 0.0
O557 O 0.01168 0.54246 0.71766 0.0
O558 O 0.01943 0.51721 0.78809 0.0
O559 O 0.00341 0.46204 0.77185 0.0
O560 O 0.98679 0.44916 0.68948 0.0
O561 O 0.0161 0.44652 0.56762 0.0
O562 O 0.03903 0.54087 0.59462 0.0
O563 O 0.0533 0.45759 0.56983 0.0
O564 O 0.06511 0.51376 0.57918 0.0
C565 C 0.97075 0.5063 0.57949 0.0
C566 C 0.07808 0.47808 0.74283 0.0
C567 C 0.98877 0.44854 0.74492 0.0
C568 C 0.01409 0.53769 0.77173 0.0
C569 C 0.03682 0.44418 0.55036 0.0
C570 C 0.05781 0.53438 0.57183 0.0
O571 O 0.97595 0.48493 0.58632 0.0
C572 C 0.16233 0.0454 0.33019 0.0
C573 C 0.17448 0.02636 0.30903 0.0
C574 C 0.14209 0.04183 0.36342 0.0
C575 C 0.13412 0.01862 0.37711 0.0
C576 C 0.14583 0.99931 0.35356 0.0
C577 C 0.16585 0.00343 0.31956 0.0
C578 C 0.13011 0.06298 0.38668 0.0
C579 C 0.13802 0.9743 0.36715 0.0
C580 C 0.10145 0.01024 0.52069 0.0
C581 C 0.07836 0.00763 0.50172 0.0
C582 C 0.11968 0.01361 0.48058 0.0
C583 C 0.1148 0.01459 0.41983 0.0
C584 C 0.09155 0.01191 0.40037 0.0
C585 C 0.07368 0.00823 0.44141 0.0
C586 C 0.1442 0.01634 0.50335 0.0
C587 C 0.08551 0.01333 0.33625 0.0
H588 H 0.16922 0.06313 0.32259 0.0
H589 H 0.17552 0.98872 0.30403 0.0
H590 H 0.11108 0.06078 0.38113 0.0
H591 H 0.13381 0.06485 0.43411 0.0
H592 H 0.13614 0.07947 0.36466 0.0
H593 H 0.14774 0.96131 0.34171 0.0
H594 H 0.1406 0.97087 0.41444 0.0
H595 H 0.11928 0.97152 0.35768 0.0
H596 H 0.10534 0.00968 0.56705 0.0
H597 H 0.05594 0.00618 0.42616 0.0
H598 H 0.15166 0.03395 0.49157 0.0
H599 H 0.15513 0.00307 0.4827 0.0
H600 H 0.14519 0.01434 0.5516 0.0
H601 H 0.09097 0.03091 0.31911 0.0
H602 H 0.06666 0.01039 0.32804 0.0
H603 H 0.09501 1.00009 0.31117 0.0
C604 C 0.50765 0.12425 0.31902 0.0
C605 C 0.48764 0.13617 0.30474 0.0
C606 C 0.50655 0.10402 0.3538 0.0
C607 C 0.48484 0.09528 0.37456 0.0
C608 C 0.46433 0.10612 0.35643 0.0
C609 C 0.46598 0.12656 0.3217 0.0
C610 C 0.52886 0.09304 0.37176 0.0
C611 C 0.44083 0.09701 0.37668 0.0
C612 C 0.48778 0.03546 0.44718 0.0
C613 C 0.49075 0.0418 0.50622 0.0
C614 C 0.48422 0.05252 0.40407 0.0
C615 C 0.4842 0.07656 0.42012 0.0
C616 C 0.48638 0.08298 0.47988 0.0
C617 C 0.4895 0.06553 0.52216 0.0
C618 C 0.48136 0.04489 0.34113 0.0
C619 C 0.48653 0.10841 0.49896 0.0
H620 H 0.52439 0.13152 0.30534 0.0
H621 H 0.45048 0.13577 0.31083 0.0
H622 H 0.53168 0.09558 0.41943 0.0
H623 H 0.52785 0.07383 0.36323 0.0
H624 H 0.54409 0.10084 0.34828 0.0
H625 H 0.42659 0.10474 0.35129 0.0
H626 H 0.43928 0.07756 0.37286 0.0
H627 H 0.43858 0.10151 0.4235 0.0
H628 H 0.48854 0.01715 0.43443 0.0
H629 H 0.49169 0.07064 0.5676 0.0
H630 H 0.49721 0.05007 0.31634 0.0
H631 H 0.46668 0.05375 0.32046 0.0
H632 H 0.47833 0.02555 0.33695 0.0
H633 H 0.50201 0.11797 0.48087 0.0
H634 H 0.48683 0.11036 0.54732 0.0
H635 H 0.47105 0.117 0.48164 0.0
C636 C 0.3536 0.48924 0.35588 0.0
C637 C 0.35075 0.51343 0.34864 0.0
C638 C 0.37235 0.48098 0.38848 0.0
C639 C 0.38846 0.49732 0.41462 0.0
C640 C 0.38636 0.52166 0.40433 0.0
C641 C 0.36768 0.52937 0.37121 0.0
C642 C 0.37423 0.45487 0.39745 0.0
C643 C 0.40312 0.53974 0.43107 0.0
C644 C 0.41908 0.4844 0.5576 0.0
C645 C 0.44202 0.48205 0.53926 0.0
C646 C 0.40128 0.48823 0.51713 0.0
C647 C 0.4064 0.48944 0.45663 0.0
C648 C 0.42922 0.48564 0.43753 0.0
C649 C 0.44678 0.48217 0.47904 0.0
C650 C 0.37722 0.49235 0.53951 0.0
C651 C 0.43534 0.48635 0.37344 0.0
H652 H 0.34057 0.47683 0.33867 0.0
H653 H 0.36581 0.54807 0.3648 0.0
H654 H 0.39226 0.44959 0.39017 0.0
H655 H 0.36967 0.45035 0.44326 0.0
H656 H 0.36248 0.44446 0.36777 0.0
H657 H 0.39984 0.55788 0.41616 0.0
H658 H 0.40166 0.53923 0.47944 0.0
H659 H 0.42118 0.53568 0.4199 0.0
H660 H 0.41516 0.48433 0.60391 0.0
H661 H 0.46439 0.48016 0.46427 0.0
H662 H 0.36429 0.48081 0.51621 0.0
H663 H 0.37279 0.51082 0.5308 0.0
H664 H 0.37566 0.48906 0.58723 0.0
H665 H 0.4225 0.47568 0.34747 0.0
H666 H 0.45287 0.47977 0.36514 0.0
H667 H 0.4349 0.50471 0.35742 0.0
C668 C 0.06699 0.3239 0.4056 0.0
C669 C 0.07272 0.32401 0.34601 0.0
C670 C 0.05947 0.34411 0.43365 0.0
C671 C 0.05733 0.36507 0.4013 0.0
C672 C 0.06181 0.36501 0.34031 0.0
C673 C 0.06948 0.34442 0.31326 0.0
C674 C 0.05481 0.34324 0.49861 0.0
C675 C 0.05944 0.38693 0.3042 0.0
C676 C 0.02397 0.41162 0.48133 0.0
C677 C 0.04196 0.42519 0.50791 0.0
C678 C 0.02869 0.3928 0.44375 0.0
C679 C 0.05194 0.3872 0.43286 0.0
C680 C 0.07015 0.40134 0.45788 0.0
C681 C 0.06495 0.42017 0.49482 0.0
C682 C 0.00877 0.37833 0.41754 0.0
C683 C 0.09519 0.39591 0.44784 0.0
H684 H 0.06902 0.30801 0.43088 0.0
H685 H 0.07386 0.34458 0.26721 0.0
H686 H 0.0674 0.35519 0.5219 0.0
H687 H 0.03725 0.34941 0.50801 0.0
H688 H 0.05618 0.32525 0.51676 0.0
H689 H 0.06093 0.38335 0.25661 0.0
H690 H 0.04252 0.39482 0.31265 0.0
H691 H 0.07316 0.40017 0.31692 0.0
H692 H 0.00614 0.41545 0.49058 0.0
H693 H 0.07901 0.43055 0.51479 0.0
H694 H 0.0079 0.36065 0.43792 0.0
H695 H 0.01144 0.37579 0.36996 0.0
H696 H 0.9919 0.38661 0.42426 0.0
H697 H 0.0989 0.37879 0.4683 0.0
H698 H 0.1073 0.40963 0.46652 0.0
H699 H 0.09866 0.39427 0.40037 0.0
C700 C 0.86086 0.99603 0.00082 0.0
C701 C 0.83927 0.99144 0.9743 0.0
C702 C 0.88152 0.99226 0.97017 0.0
C703 C 0.88044 0.9837 0.91181 0.0
C704 C 0.85862 0.97722 0.88695 0.0
C705 C 0.83834 0.98125 0.9184 0.0
C706 C 0.90437 0.99926 0.99854 0.0
C707 C 0.85653 0.96792 0.82517 0.0
C708 C 0.92572 0.00638 0.80332 0.0
C709 C 0.93971 0.98697 0.79603 0.0
C710 C 0.90675 0.00556 0.84149 0.0
C711 C 0.90148 0.98483 0.87378 0.0
C712 C 0.91561 0.96521 0.86729 0.0
C713 C 0.93452 0.96647 0.8284 0.0
C714 C 0.89211 0.02689 0.84662 0.0
C715 C 0.91064 0.94284 0.90105 0.0
H716 H 0.8616 0.00415 0.04378 0.0
H717 H 0.82161 0.97775 0.89783 0.0
H718 H 0.91731 0.98574 0.99051 0.0
H719 H 0.91119 0.01596 0.97906 0.0
H720 H 0.90264 0.00188 0.04647 0.0
H721 H 0.8388 0.9607 0.81528 0.0
H722 H 0.8607 0.98238 0.79398 0.0
H723 H 0.86903 0.95396 0.81754 0.0
H724 H 0.92948 0.02234 0.77877 0.0
H725 H 0.94524 0.95141 0.82348 0.0
H726 H 0.89143 0.03275 0.89287 0.0
H727 H 0.8741 0.02231 0.83253 0.0
H728 H 0.89885 0.04185 0.81964 0.0
H729 H 0.91009 0.94672 0.94859 0.0
H730 H 0.92381 0.92952 0.89314 0.0
H731 H 0.89338 0.93517 0.88847 0.0
C732 C 0.53857 0.81641 0.95977 0.0
C733 C 0.53233 0.81939 0.01845 0.0
C734 C 0.541 0.83568 0.92189 0.0
C735 C 0.53701 0.85855 0.94314 0.0
C736 C 0.53262 0.86187 0.00354 0.0
C737 C 0.53035 0.84219 0.04062 0.0
C738 C 0.5459 0.83127 0.85807 0.0
C739 C 0.52842 0.88596 0.02809 0.0
C740 C 0.54933 0.9103 0.84025 0.0
C741 C 0.52736 0.91333 0.81552 0.0
C742 C 0.55278 0.89286 0.88271 0.0
C743 C 0.53384 0.87808 0.90074 0.0
C744 C 0.51164 0.88118 0.87621 0.0
C745 C 0.50869 0.89869 0.8341 0.0
C746 C 0.57668 0.8901 0.9079 0.0
C747 C 0.49095 0.86578 0.89393 0.0
H748 H 0.54031 0.79876 0.94271 0.0
H749 H 0.52544 0.84454 0.08591 0.0
H750 H 0.52989 0.83363 0.83212 0.0
H751 H 0.55927 0.84409 0.8416 0.0
H752 H 0.55181 0.8132 0.85022 0.0
H753 H 0.52907 0.88617 0.07665 0.0
H754 H 0.54137 0.89912 0.01118 0.0
H755 H 0.51107 0.89148 0.01399 0.0
H756 H 0.56386 0.92155 0.82648 0.0
H757 H 0.49162 0.90082 0.8156 0.0
H758 H 0.58287 0.87243 0.89685 0.0
H759 H 0.57615 0.89135 0.9563 0.0
H760 H 0.58938 0.9036 0.89121 0.0
H761 H 0.49403 0.84715 0.88302 0.0
H762 H 0.47475 0.87086 0.87183 0.0
H763 H 0.48838 0.86683 0.94191 0.0
C764 C 0.65314 0.50367 0.06259 0.0
C765 C 0.67476 0.50234 0.03559 0.0
C766 C 0.63273 0.50477 0.02887 0.0
C767 C 0.63412 0.50475 0.96691 0.0
C768 C 0.65607 0.50457 0.93978 0.0
C769 C 0.67605 0.50336 0.97437 0.0
C770 C 0.60965 0.50498 0.05941 0.0
C771 C 0.65846 0.50472 0.87401 0.0
C772 C 0.58543 0.4788 0.87195 0.0
C773 C 0.57571 0.49896 0.84843 0.0
C774 C 0.60375 0.48052 0.91239 0.0
C775 C 0.61278 0.50295 0.92987 0.0
C776 C 0.60267 0.52341 0.90768 0.0
C777 C 0.58423 0.52118 0.8673 0.0
C778 C 0.61396 0.45823 0.93496 0.0
C779 C 0.61183 0.54764 0.92509 0.0
H780 H 0.65211 0.50297 0.10989 0.0
H781 H 0.6928 0.50283 0.95335 0.0
H782 H 0.59917 0.51932 0.04204 0.0
H783 H 0.59984 0.48816 0.05077 0.0
H784 H 0.61159 0.50726 0.10747 0.0
H785 H 0.67683 0.5062 0.85992 0.0
H786 H 0.65049 0.48825 0.85552 0.0
H787 H 0.64913 0.51958 0.85504 0.0
H788 H 0.5789 0.46152 0.85827 0.0
H789 H 0.57682 0.53687 0.84969 0.0
H790 H 0.61462 0.45847 0.98345 0.0
H791 H 0.632 0.45708 0.91913 0.0
H792 H 0.60391 0.44219 0.9205 0.0
H793 H 0.61297 0.54916 0.9734 0.0
H794 H 0.60081 0.56171 0.90828 0.0
H795 H 0.62959 0.55064 0.90771 0.0
C796 C 0.04935 0.63982 0.98754 0.0
C797 C 0.0319 0.65418 0.00786 0.0
C798 C 0.04403 0.61939 0.95501 0.0
C799 C 0.0206 0.61286 0.94295 0.0
C800 C 0.00281 0.62624 0.96734 0.0
C801 C 0.00867 0.64684 0.99945 0.0
C802 C 0.06361 0.6057 0.93019 0.0
C803 C 0.97762 0.61962 0.95659 0.0
C804 C 0.01269 0.58041 0.79841 0.0
C805 C 0.01252 0.55679 0.81605 0.0
C806 C 0.01416 0.5988 0.83953 0.0
C807 C 0.01517 0.59356 0.90002 0.0
C808 C 0.01358 0.56979 0.91831 0.0
C809 C 0.01247 0.5517 0.87615 0.0
C810 C 0.01597 0.62387 0.81796 0.0
C811 C 0.01412 0.56342 0.98232 0.0
H812 H 0.06733 0.64524 0.99475 0.0
H813 H 0.99511 0.65788 0.01497 0.0
H814 H 0.06118 0.58676 0.94081 0.0
H815 H 0.06366 0.60726 0.88182 0.0
H816 H 0.08078 0.61209 0.94708 0.0
H817 H 0.96607 0.62932 0.986 0.0
H818 H 0.97306 0.62374 0.91069 0.0
H819 H 0.97429 0.60045 0.96287 0.0
H820 H 0.0127 0.5846 0.7522 0.0
H821 H 0.01211 0.53353 0.89037 0.0
H822 H 0.03337 0.63169 0.82873 0.0
H823 H 0.00304 0.63464 0.84018 0.0
H824 H 0.01327 0.62509 0.76995 0.0
H825 H 0.03182 0.56698 1.00002 0.0
H826 H 0.00927 0.54458 0.98967 0.0
H827 H 0.0022 0.57438 0.00752 0.0
C828 C 0.09783 0.10919 0.4608 0.0
C829 C 0.08934 0.12935 0.43477 0.0
C830 C 0.08261 0.09252 0.4871 0.0
C831 C 0.05844 0.09574 0.48479 0.0
C832 C 0.04994 0.11639 0.4596 0.0
C833 C 0.06554 0.13305 0.43551 0.0
C834 C 0.09236 0.07099 0.51447 0.0
C835 C 0.0243 0.12046 0.45575 0.0
C836 C 0.01483 0.04418 0.48487 0.0
C837 C 0.00476 0.04641 0.5402 0.0
C838 C 0.03305 0.05955 0.46705 0.0
C839 C 0.04167 0.07725 0.50594 0.0
C840 C 0.03231 0.07893 0.56271 0.0
C841 C 0.01367 0.06385 0.57868 0.0
C842 C 0.04223 0.05766 0.40555 0.0
C843 C 0.04161 0.09708 0.60601 0.0
H844 H 0.11625 0.10635 0.4598 0.0
H845 H 0.05899 0.1485 0.4144 0.0
H846 H 0.08236 0.06521 0.55354 0.0
H847 H 0.09131 0.05656 0.48194 0.0
H848 H 0.11082 0.07401 0.52713 0.0
H849 H 0.02063 0.13763 0.43543 0.0
H850 H 0.01558 0.10625 0.42945 0.0
H851 H 0.01651 0.11989 0.49999 0.0
H852 H 0.00795 0.03088 0.45478 0.0
H853 H 0.00589 0.06601 0.62118 0.0
H854 H 0.06139 0.05725 0.40606 0.0
H855 H 0.03754 0.0734 0.38022 0.0
H856 H 0.03513 0.04175 0.38243 0.0
H857 H 0.03949 0.11504 0.58854 0.0
H858 H 0.06042 0.0949 0.61289 0.0
H859 H 0.03275 0.09574 0.64894 0.0
C860 C 0.39 0.05047 0.48543 0.0
C861 C 0.36872 0.03944 0.4705 0.0
C862 C 0.40802 0.03739 0.50834 0.0
C863 C 0.4049 0.01264 0.51355 0.0
C864 C 0.38324 0.00157 0.49909 0.0
C865 C 0.36531 0.01519 0.47869 0.0
C866 C 0.43057 0.05016 0.52368 0.0
C867 C 0.37931 0.97519 0.50254 0.0
C868 C 0.45605 0.97291 0.50715 0.0
C869 C 0.4567 0.96443 0.56463 0.0
C870 C 0.43978 0.98932 0.49025 0.0
C871 C 0.4242 0.99785 0.5322 0.0
C872 C 0.42543 0.99014 0.59076 0.0
C873 C 0.44123 0.97311 0.60589 0.0
C874 C 0.4385 0.99664 0.42696 0.0
C875 C 0.40992 0.99975 0.63736 0.0
H876 H 0.3927 0.06919 0.47792 0.0
H877 H 0.34897 0.00666 0.46566 0.0
H878 H 0.44073 0.04058 0.55655 0.0
H879 H 0.44098 0.05227 0.4833 0.0
H880 H 0.42752 0.06808 0.54067 0.0
H881 H 0.36164 0.96934 0.488 0.0
H882 H 0.39213 0.9664 0.47481 0.0
H883 H 0.38185 0.96914 0.54809 0.0
H884 H 0.4678 0.96616 0.47492 0.0
H885 H 0.44122 0.96645 0.65008 0.0
H886 H 0.43936 0.01609 0.42347 0.0
H887 H 0.42166 0.99034 0.408 0.0
H888 H 0.45266 0.98948 0.40041 0.0
H889 H 0.41426 0.01878 0.64369 0.0
H890 H 0.41181 0.99064 0.67983 0.0
H891 H 0.39148 0.99808 0.62381 0.0
C892 C 0.59173 0.34392 0.41119 0.0
C893 C 0.57601 0.32555 0.42627 0.0
C894 C 0.59265 0.36506 0.4431 0.0
C895 C 0.57699 0.36797 0.48975 0.0
C896 C 0.56246 0.34874 0.50793 0.0
C897 C 0.56234 0.32766 0.47626 0.0
C898 C 0.60907 0.38481 0.42397 0.0
C899 C 0.54531 0.35114 0.5571 0.0
C900 C 0.57491 0.41902 0.59566 0.0
C901 C 0.55726 0.43198 0.57065 0.0
C902 C 0.58315 0.39914 0.56722 0.0
C903 C 0.57294 0.39174 0.51361 0.0
C904 C 0.55623 0.40568 0.48641 0.0
C905 C 0.54883 0.42583 0.51496 0.0
C906 C 0.60167 0.38529 0.59638 0.0
C907 C 0.5447 0.39827 0.42948 0.0
H908 H 0.60237 0.34221 0.37259 0.0
H909 H 0.55 0.31356 0.48755 0.0
H910 H 0.59953 0.39749 0.39723 0.0
H911 H 0.6165 0.39448 0.46231 0.0
H912 H 0.62343 0.37821 0.39711 0.0
H913 H 0.53668 0.33401 0.5689 0.0
H914 H 0.55401 0.35864 0.5966 0.0
H915 H 0.5318 0.36339 0.54374 0.0
H916 H 0.58171 0.42392 0.63843 0.0
H917 H 0.53518 0.43578 0.49546 0.0
H918 H 0.61417 0.37899 0.56371 0.0
H919 H 0.59359 0.36961 0.61802 0.0
H920 H 0.61127 0.39591 0.63009 0.0
H921 H 0.53312 0.4118 0.41239 0.0
H922 H 0.53427 0.3817 0.43611 0.0
H923 H 0.55789 0.39477 0.39584 0.0
C924 C 0.16802 0.5901 0.44049 0.0
C925 C 0.16575 0.60217 0.38734 0.0
C926 C 0.14889 0.58566 0.47675 0.0
C927 C 0.12686 0.59285 0.45869 0.0
C928 C 0.12502 0.60781 0.40977 0.0
C929 C 0.14464 0.61267 0.37518 0.0
C930 C 0.15181 0.57059 0.53034 0.0
C931 C 0.10191 0.6163 0.38974 0.0
C932 C 0.08304 0.54343 0.48713 0.0
C933 C 0.07225 0.55117 0.53782 0.0
C934 C 0.09957 0.55778 0.45844 0.0
C935 C 0.10597 0.58015 0.48221 0.0
C936 C 0.09422 0.58857 0.53179 0.0
C937 C 0.07722 0.57399 0.55879 0.0
C938 C 0.11118 0.54831 0.40465 0.0
C939 C 0.10069 0.61211 0.55905 0.0
H940 H 0.18408 0.58197 0.45145 0.0
H941 H 0.14287 0.62305 0.33588 0.0
H942 H 0.14112 0.57686 0.56696 0.0
H943 H 0.14595 0.55221 0.52015 0.0
H944 H 0.17017 0.57051 0.54488 0.0
H945 H 0.10398 0.63182 0.36058 0.0
H946 H 0.09261 0.60198 0.36503 0.0
H947 H 0.09097 0.62092 0.42748 0.0
H948 H 0.07897 0.52582 0.47079 0.0
H949 H 0.06891 0.57986 0.59837 0.0
H950 H 0.12939 0.54445 0.41515 0.0
H951 H 0.11146 0.56159 0.36917 0.0
H952 H 0.10233 0.53191 0.38807 0.0
H953 H 0.11588 0.61017 0.58821 0.0
H954 H 0.0863 0.61874 0.58577 0.0
H955 H 0.10555 0.62542 0.52547 0.0
C956 C 0.11549 0.87734 0.9653 0.0
C957 C 0.10462 0.85524 0.95401 0.0
C958 C 0.11164 0.89664 0.9289 0.0
C959 C 0.09719 0.89352 0.87921 0.0
C960 C 0.08902 0.87064 0.86308 0.0
C961 C 0.09257 0.85183 0.90099 0.0
C962 C 0.12092 0.9207 0.94727 0.0
C963 C 0.07424 0.86641 0.80917 0.0
C964 C 0.05276 0.93762 0.83952 0.0
C965 C 0.06216 0.94765 0.78871 0.0
C966 C 0.06487 0.92116 0.87157 0.0
C967 C 0.08666 0.91408 0.85129 0.0
C968 C 0.09676 0.92498 0.80143 0.0
C969 C 0.08442 0.9419 0.77093 0.0
C970 C 0.05372 0.91044 0.92544 0.0
C971 C 0.11974 0.91768 0.77788 0.0
H972 H 0.12563 0.88003 0.00488 0.0
H973 H 0.08404 0.83498 0.89115 0.0
H974 H 0.12678 0.9312 0.90891 0.0
H975 H 0.1069 0.93027 0.96879 0.0
H976 H 0.13555 0.91961 0.97868 0.0
H977 H 0.07298 0.84749 0.79693 0.0
H978 H 0.0565 0.87235 0.81761 0.0
H979 H 0.08133 0.87661 0.77156 0.0
H980 H 0.03562 0.94228 0.85349 0.0
H981 H 0.09161 0.94958 0.7313 0.0
H982 H 0.06615 0.91091 0.96256 0.0
H983 H 0.04867 0.89173 0.91675 0.0
H984 H 0.03801 0.91969 0.93878 0.0
H985 H 0.13223 0.91468 0.81378 0.0
H986 H 0.12742 0.93103 0.74752 0.0
H987 H 0.11717 0.90087 0.75357 0.0
C988 C 0.63816 0.09914 0.93686 0.0
C989 C 0.65844 0.08699 0.9261 0.0
C990 C 0.61826 0.09503 0.90233 0.0
C991 C 0.61898 0.07902 0.85505 0.0
C992 C 0.64039 0.06996 0.83819 0.0
C993 C 0.6598 0.07378 0.87429 0.0
C994 C 0.5959 0.10555 0.92091 0.0
C995 C 0.64215 0.05363 0.78636 0.0
C996 C 0.57206 0.03203 0.83164 0.0
C997 C 0.5618 0.03933 0.77969 0.0
C998 C 0.58947 0.04589 0.85898 0.0
C999 C 0.59728 0.06728 0.83265 0.0
C1000 C 0.58607 0.07539 0.78179 0.0
C1001 C 0.5682 0.06133 0.75608 0.0
C1002 C 0.60049 0.03682 0.91412 0.0
C1003 C 0.59398 0.09789 0.75193 0.0
H1004 H 0.63717 0.11032 0.97513 0.0
H1005 H 0.67523 0.06437 0.8645 0.0
H1006 H 0.58527 0.11019 0.88246 0.0
H1007 H 0.5857 0.09241 0.94698 0.0
H1008 H 0.59908 0.1215 0.94836 0.0
H1009 H 0.66038 0.05194 0.77227 0.0
H1010 H 0.63504 0.03589 0.79838 0.0
H1011 H 0.63191 0.05995 0.74885 0.0
H1012 H 0.5669 0.01507 0.85001 0.0
H1013 H 0.5603 0.06686 0.71555 0.0
H1014 H 0.60163 0.05081 0.94801 0.0
H1015 H 0.61837 0.03156 0.90455 0.0
H1016 H 0.59067 0.02135 0.93236 0.0
H1017 H 0.5998 0.11156 0.78401 0.0
H1018 H 0.58001 0.10493 0.7243 0.0
H1019 H 0.60887 0.09431 0.72322 0.0
C1020 C 0.40824 0.62096 0.97053 0.0
C1021 C 0.41915 0.6417 0.94913 0.0
C1022 C 0.41041 0.59944 0.94124 0.0
C1023 C 0.42323 0.5989 0.88876 0.0
C1024 C 0.4309 0.62026 0.86234 0.0
C1025 C 0.42899 0.6414 0.89309 0.0
C1026 C 0.40143 0.57712 0.97017 0.0
C1027 C 0.44387 0.62054 0.80512 0.0
C1028 C 0.4676 0.55326 0.86323 0.0
C1029 C 0.45754 0.54002 0.8175 0.0
C1030 C 0.45572 0.57135 0.88972 0.0
C1031 C 0.43339 0.57669 0.86897 0.0
C1032 C 0.42255 0.56243 0.82515 0.0
C1033 C 0.43475 0.54405 0.80011 0.0
C1034 C 0.46774 0.58572 0.93743 0.0
C1035 C 0.39888 0.56757 0.80157 0.0
H1036 H 0.39971 0.62113 0.01263 0.0
H1037 H 0.43736 0.65718 0.87541 0.0
H1038 H 0.39475 0.56415 0.93733 0.0
H1039 H 0.41583 0.56906 0.99417 0.0
H1040 H 0.38748 0.58061 0.00195 0.0
H1041 H 0.4447 0.63834 0.78521 0.0
H1042 H 0.46184 0.61507 0.81288 0.0
H1043 H 0.43559 0.60798 0.77349 0.0
H1044 H 0.48513 0.54994 0.87707 0.0
H1045 H 0.42701 0.53385 0.76447 0.0
H1046 H 0.45611 0.58755 0.97552 0.0
H1047 H 0.47218 0.60366 0.92094 0.0
H1048 H 0.48393 0.57775 0.95259 0.0
H1049 H 0.38736 0.57378 0.83656 0.0
H1050 H 0.39053 0.55182 0.78026 0.0
H1051 H 0.40062 0.5817 0.76835 0.0
C1052 C 0.87274 0.41962 0.92297 0.0
C1053 C 0.8644 0.44219 0.9152 0.0
C1054 C 0.89307 0.41302 0.89476 0.0
C1055 C 0.9051 0.42949 0.8585 0.0
C1056 C 0.89567 0.45167 0.84751 0.0
C1057 C 0.87544 0.45771 0.87606 0.0
C1058 C 0.90229 0.38908 0.90688 0.0
C1059 C 0.90769 0.46971 0.80843 0.0
C1060 C 0.9689 0.43922 0.83922 0.0
C1061 C 0.97064 0.43552 0.77877 0.0
C1062 C 0.94803 0.43419 0.86843 0.0
C1063 C 0.92864 0.42518 0.83629 0.0
C1064 C 0.93148 0.41786 0.77774 0.0
C1065 C 0.95252 0.42317 0.74946 0.0
C1066 C 0.94591 0.44154 0.93159 0.0
C1067 C 0.91149 0.40722 0.74278 0.0
H1068 H 0.86414 0.40766 0.95348 0.0
H1069 H 0.86872 0.47506 0.86979 0.0
H1070 H 0.91131 0.38203 0.86828 0.0
H1071 H 0.91493 0.39051 0.94347 0.0
H1072 H 0.88818 0.37635 0.91989 0.0
H1073 H 0.89735 0.48557 0.80217 0.0
H1074 H 0.92465 0.47534 0.82782 0.0
H1075 H 0.91105 0.46197 0.76487 0.0
H1076 H 0.98303 0.44815 0.86272 0.0
H1077 H 0.95392 0.41953 0.70307 0.0
H1078 H 0.93561 0.42817 0.95661 0.0
H1079 H 0.93678 0.45831 0.93389 0.0
H1080 H 0.96312 0.44425 0.9529 0.0
H1081 H 0.90046 0.39526 0.77015 0.0
H1082 H 0.91762 0.3973 0.70427 0.0
H1083 H 0.90057 0.42147 0.72674 0.0
C1084 C 0.06949 0.16764 0.9142 0.0
C1085 C 0.06657 0.16163 0.97321 0.0
C1086 C 0.06338 0.1514 0.86947 0.0
C1087 C 0.05412 0.12873 0.88431 0.0
C1088 C 0.05033 0.12303 0.9438 0.0
C1089 C 0.0565 0.13952 0.98728 0.0
C1090 C 0.06749 0.1582 0.80653 0.0
C1091 C 0.04033 0.0992 0.96178 0.0
C1092 C 0.02046 0.0882 0.77932 0.0
C1093 C 0.03682 0.07137 0.76608 0.0
C1094 C 0.02622 0.10773 0.815 0.0
C1095 C 0.04886 0.11051 0.83849 0.0
C1096 C 0.06573 0.09419 0.8232 0.0
C1097 C 0.05954 0.07488 0.78708 0.0
C1098 C 0.00775 0.12479 0.82972 0.0
C1099 C 0.09007 0.09648 0.84734 0.0
H1100 H 0.07731 0.18468 0.90314 0.0
H1101 H 0.05383 0.13493 0.03283 0.0
H1102 H 0.08108 0.14725 0.78771 0.0
H1103 H 0.05151 0.15481 0.7803 0.0
H1104 H 0.07306 0.17702 0.80195 0.0
H1105 H 0.03794 0.09776 0.00984 0.0
H1106 H 0.02334 0.09567 0.94012 0.0
H1107 H 0.05198 0.08526 0.94748 0.0
H1108 H 0.00293 0.08591 0.76273 0.0
H1109 H 0.07237 0.06212 0.77684 0.0
H1110 H 0.01438 0.14317 0.82342 0.0
H1111 H 0.00291 0.12286 0.87642 0.0
H1112 H 0.99191 0.12181 0.80261 0.0
H1113 H 0.09745 0.11453 0.84018 0.0
H1114 H 0.1017 0.08372 0.82705 0.0
H1115 H 0.08974 0.09342 0.89524 0.0
C1116 C 0.37385 0.023 0.00485 0.0
C1117 C 0.35226 0.03169 0.98975 0.0
C1118 C 0.38949 0.01611 0.96211 0.0
C1119 C 0.38341 0.01771 0.90231 0.0
C1120 C 0.36109 0.02523 0.88666 0.0
C1121 C 0.3457 0.03219 0.93073 0.0
C1122 C 0.41298 0.00813 0.98111 0.0
C1123 C 0.35385 0.02683 0.82341 0.0
C1124 C 0.43581 0.02492 0.80272 0.0
C1125 C 0.43933 0.0016 0.78592 0.0
C1126 C 0.41699 0.03057 0.83824 0.0
C1127 C 0.4011 0.01254 0.85701 0.0
C1128 C 0.40395 0.98915 0.83795 0.0
C1129 C 0.42308 0.98394 0.8031 0.0
C1130 C 0.41473 0.05572 0.8579 0.0
C1131 C 0.3873 0.96944 0.85624 0.0
H1132 H 0.37884 0.02236 0.05059 0.0
H1133 H 0.32906 0.03897 0.91896 0.0
H1134 H 0.41623 0.9906 0.9622 0.0
H1135 H 0.42669 0.02059 0.96461 0.0
H1136 H 0.41465 0.00704 0.02943 0.0
H1137 H 0.33516 0.03033 0.81865 0.0
H1138 H 0.36407 0.04124 0.80182 0.0
H1139 H 0.35746 0.01029 0.79992 0.0
H1140 H 0.44812 0.03874 0.78945 0.0
H1141 H 0.42537 0.9659 0.78972 0.0
H1142 H 0.4177 0.05699 0.90581 0.0
H1143 H 0.39696 0.06155 0.84916 0.0
H1144 H 0.4273 0.06797 0.83574 0.0
H1145 H 0.38942 0.96599 0.90364 0.0
H1146 H 0.39017 0.95289 0.83191 0.0
H1147 H 0.36916 0.97447 0.84914 0.0
C1148 C 0.45494 0.33341 0.99842 0.0
C1149 C 0.46757 0.31359 0.98506 0.0
C1150 C 0.45238 0.35138 0.95728 0.0
C1151 C 0.46256 0.34928 0.90136 0.0
C1152 C 0.47229 0.32773 0.88513 0.0
C1153 C 0.4749 0.31014 0.92754 0.0
C1154 C 0.44181 0.37391 0.9768 0.0
C1155 C 0.48266 0.32442 0.82542 0.0
C1156 C 0.45867 0.4008 0.79497 0.0
C1157 C 0.47997 0.41285 0.80526 0.0
C1158 C 0.45273 0.37979 0.825 0.0
C1159 C 0.46826 0.37102 0.86702 0.0
C1160 C 0.48958 0.38343 0.87808 0.0
C1161 C 0.49523 0.40395 0.84672 0.0
C1162 C 0.43013 0.36678 0.811 0.0
C1163 C 0.50651 0.37513 0.92342 0.0
H1164 H 0.44944 0.33612 0.04315 0.0
H1165 H 0.48484 0.2949 0.91731 0.0
H1166 H 0.45588 0.38697 0.98839 0.0
H1167 H 0.43139 0.38154 0.94132 0.0
H1168 H 0.43065 0.37112 0.01581 0.0
H1169 H 0.48449 0.3055 0.81503 0.0
H1170 H 0.47193 0.33245 0.79109 0.0
H1171 H 0.50013 0.33325 0.82416 0.0
H1172 H 0.44692 0.40748 0.76251 0.0
H1173 H 0.51163 0.41326 0.85526 0.0
H1174 H 0.42018 0.36311 0.85157 0.0
H1175 H 0.43368 0.34956 0.79078 0.0
H1176 H 0.41922 0.37675 0.78046 0.0
H1177 H 0.49797 0.37368 0.96671 0.0
H1178 H 0.52203 0.38718 0.92778 0.0
H1179 H 0.51235 0.35741 0.91155 0.0
C1180 C 0.19052 0.51467 0.91525 0.0
C1181 C 0.19977 0.49807 0.95309 0.0
C1182 C 0.17269 0.50837 0.87582 0.0
C1183 C 0.16405 0.48475 0.87343 0.0
C1184 C 0.1748 0.46747 0.90758 0.0
C1185 C 0.19252 0.47436 0.94733 0.0
C1186 C 0.16185 0.52742 0.84034 0.0
C1187 C 0.1665 0.44201 0.90531 0.0
C1188 C 0.09985 0.47983 0.83782 0.0
C1189 C 0.0999 0.47621 0.77707 0.0
C1190 C 0.12058 0.48148 0.87003 0.0
C1191 C 0.142 0.47909 0.84111 0.0
C1192 C 0.14212 0.47392 0.78049 0.0
C1193 C 0.1211 0.47275 0.74908 0.0
C1194 C 0.11959 0.48717 0.93452 0.0
C1195 C 0.16451 0.47073 0.74827 0.0
H1196 H 0.1963 0.53298 0.91909 0.0
H1197 H 0.19956 0.46146 0.97655 0.0
H1198 H 0.16042 0.52216 0.79371 0.0
H1199 H 0.14406 0.53013 0.85644 0.0
H1200 H 0.1719 0.54445 0.84322 0.0
H1201 H 0.1792 0.43029 0.92549 0.0
H1202 H 0.14993 0.43984 0.92936 0.0
H1203 H 0.16322 0.4363 0.85948 0.0
H1204 H 0.08363 0.48249 0.86006 0.0
H1205 H 0.12136 0.46973 0.70227 0.0
H1206 H 0.12776 0.50488 0.9426 0.0
H1207 H 0.12947 0.47437 0.96004 0.0
H1208 H 0.10156 0.48699 0.9512 0.0
H1209 H 0.17386 0.48801 0.74345 0.0
H1210 H 0.16154 0.46309 0.70398 0.0
H1211 H 0.17593 0.45915 0.77332 0.0
C1212 C 0.9868 0.81535 0.39971 0.0
C1213 C 0.00974 0.80836 0.39666 0.0
C1214 C 0.98073 0.83384 0.43707 0.0
C1215 C 0.99807 0.84561 0.47157 0.0
C1216 C 0.02071 0.83697 0.47266 0.0
C1217 C 0.02622 0.81842 0.43536 0.0
C1218 C 0.95627 0.84209 0.43563 0.0
C1219 C 0.03979 0.84882 0.5087 0.0
C1220 C 0.99775 0.91178 0.4925 0.0
C1221 C 0.993 0.91393 0.55241 0.0
C1222 C 0.9984 0.88967 0.46536 0.0
C1223 C 0.99391 0.86901 0.49856 0.0
C1224 C 0.98778 0.87103 0.55824 0.0
C1225 C 0.98755 0.89345 0.58459 0.0
C1226 C 0.00512 0.88843 0.40165 0.0
C1227 C 0.98243 0.8495 0.5949 0.0
H1228 H 0.97405 0.80771 0.36959 0.0
H1229 H 0.04396 0.81297 0.43311 0.0
H1230 H 0.9504 0.84673 0.48018 0.0
H1231 H 0.9556 0.85814 0.4083 0.0
H1232 H 0.94403 0.82851 0.41683 0.0
H1233 H 0.05555 0.83827 0.51037 0.0
H1234 H 0.04455 0.86621 0.48937 0.0
H1235 H 0.03387 0.85192 0.55403 0.0
H1236 H 0.00189 0.9274 0.46696 0.0
H1237 H 0.9837 0.89484 0.63079 0.0
H1238 H 0.992 0.87772 0.37671 0.0
H1239 H 0.02188 0.87972 0.39748 0.0
H1240 H 0.00689 0.9061 0.38121 0.0
H1241 H 0.97069 0.83688 0.57096 0.0
H1242 H 0.97432 0.85402 0.63722 0.0
H1243 H 0.99867 0.84044 0.6042 0.0
C1244 C 0.67817 0.00453 0.40407 0.0
C1245 C 0.68744 0.98727 0.36804 0.0
C1246 C 0.66015 0.99899 0.44324 0.0
C1247 C 0.6512 0.97551 0.44715 0.0
C1248 C 0.66177 0.95766 0.41445 0.0
C1249 C 0.67976 0.96376 0.3751 0.0
C1250 C 0.64956 0.01864 0.47718 0.0
C1251 C 0.65308 0.93236 0.41805 0.0
C1252 C 0.60868 0.96414 0.57232 0.0
C1253 C 0.58728 0.96713 0.54442 0.0
C1254 C 0.62961 0.9656 0.54084 0.0
C1255 C 0.62923 0.97044 0.4801 0.0
C1256 C 0.60765 0.97257 0.45137 0.0
C1257 C 0.58703 0.97078 0.48369 0.0
C1258 C 0.65218 0.96286 0.57303 0.0
C1259 C 0.60636 0.97787 0.38676 0.0
H1260 H 0.68424 0.0227 0.39927 0.0
H1261 H 0.68675 0.95035 0.34724 0.0
H1262 H 0.6318 0.02137 0.46052 0.0
H1263 H 0.64807 0.01399 0.52411 0.0
H1264 H 0.65982 0.0355 0.47339 0.0
H1265 H 0.66532 0.92021 0.39774 0.0
H1266 H 0.65021 0.92712 0.46424 0.0
H1267 H 0.6362 0.93029 0.39497 0.0
H1268 H 0.60916 0.96119 0.61911 0.0
H1269 H 0.57069 0.97308 0.46143 0.0
H1270 H 0.66177 0.98012 0.5755 0.0
H1271 H 0.66326 0.95062 0.54913 0.0
H1272 H 0.64947 0.95622 0.61823 0.0
H1273 H 0.61458 0.99547 0.37811 0.0
H1274 H 0.58825 0.97768 0.37028 0.0
H1275 H 0.61604 0.96484 0.36149 0.0
C1276 C 0.54054 0.65532 0.40422 0.0
C1277 C 0.51807 0.66369 0.4052 0.0
C1278 C 0.54734 0.63831 0.44484 0.0
C1279 C 0.53113 0.62934 0.4864 0.0
C1280 C 0.50939 0.63977 0.49141 0.0
C1281 C 0.50323 0.65696 0.45108 0.0
C1282 C 0.57105 0.62839 0.43962 0.0
C1283 C 0.4915 0.6309 0.53491 0.0
C1284 C 0.52724 0.56407 0.51933 0.0
C1285 C 0.53355 0.56346 0.57861 0.0
C1286 C 0.52749 0.58529 0.48825 0.0
C1287 C 0.53478 0.60652 0.51654 0.0
C1288 C 0.54283 0.60583 0.57509 0.0
C1289 C 0.5418 0.58436 0.60574 0.0
C1290 C 0.5185 0.58512 0.42607 0.0
C1291 C 0.55148 0.62787 0.60631 0.0
H1292 H 0.55207 0.66049 0.36882 0.0
H1293 H 0.48591 0.66361 0.45211 0.0
H1294 H 0.57841 0.62479 0.48344 0.0
H1295 H 0.5697 0.6115 0.41527 0.0
H1296 H 0.58316 0.64055 0.41571 0.0
H1297 H 0.47662 0.64261 0.53782 0.0
H1298 H 0.48486 0.61311 0.52147 0.0
H1299 H 0.49929 0.62933 0.57901 0.0
H1300 H 0.52084 0.54809 0.49781 0.0
H1301 H 0.54694 0.58407 0.65136 0.0
H1302 H 0.53146 0.59364 0.39653 0.0
H1303 H 0.50257 0.59535 0.42354 0.0
H1304 H 0.51435 0.56704 0.40967 0.0
H1305 H 0.56205 0.62376 0.64538 0.0
H1306 H 0.53651 0.63793 0.62101 0.0
H1307 H 0.56201 0.63938 0.57669 0.0
C1308 C 0.85316 0.53208 0.39737 0.0
C1309 C 0.85921 0.52779 0.33906 0.0
C1310 C 0.86943 0.52963 0.443 0.0
C1311 C 0.89214 0.52267 0.42983 0.0
C1312 C 0.89811 0.518 0.37115 0.0
C1313 C 0.88161 0.52043 0.32689 0.0
C1314 C 0.86239 0.53453 0.50515 0.0
C1315 C 0.922 0.51035 0.35488 0.0
C1316 C 0.94526 0.53405 0.52599 0.0
C1317 C 0.94912 0.51141 0.5472 0.0
C1318 C 0.92589 0.53837 0.49069 0.0
C1319 C 0.90988 0.51967 0.47663 0.0
C1320 C 0.91295 0.49713 0.50085 0.0
C1321 C 0.93254 0.49326 0.5355 0.0
C1322 C 0.92333 0.56263 0.46555 0.0
C1323 C 0.89627 0.47671 0.48744 0.0
H1324 H 0.8359 0.53767 0.40719 0.0
H1325 H 0.88629 0.51633 0.28225 0.0
H1326 H 0.86484 0.51877 0.5326 0.0
H1327 H 0.87361 0.54899 0.52369 0.0
H1328 H 0.84404 0.5395 0.50831 0.0
H1329 H 0.924 0.50791 0.30696 0.0
H1330 H 0.93528 0.52362 0.37006 0.0
H1331 H 0.92561 0.49351 0.37683 0.0
H1332 H 0.95786 0.54824 0.535 0.0
H1333 H 0.93511 0.47576 0.55237 0.0
H1334 H 0.90535 0.56835 0.47107 0.0
H1335 H 0.92692 0.56223 0.41792 0.0
H1336 H 0.93541 0.57588 0.48631 0.0
H1337 H 0.87812 0.48196 0.49286 0.0
H1338 H 0.89921 0.46132 0.51593 0.0
H1339 H 0.89834 0.47121 0.44124 0.0
loop_
_geom_bond_atom_site_label_1
_geom_bond_atom_site_label_2
_geom_bond_distance
_geom_bond_site_symmetry_2
_ccdc_geom_bond_type
C0 C1 1.391 . S
C0 C4 1.391 . S
C0 H42 0.948 . S
C1 C0 1.391 . S
C1 C2 1.391 . S
C2 C1 1.391 . S
C2 H58 0.947 . S
C2 C59 1.392 . S
C3 C4 1.391 . S
C3 C7 1.397 . S
C3 C59 1.419 . S
C4 C0 1.391 . S
C4 C3 1.391 . S
C4 C5 1.399 . S
C5 C4 1.399 . S
C5 C8 1.396 . S
C5 C17 1.453 . S
C5 C18 1.684 . S
H6 C30 0.948 . S
C7 C3 1.397 . S
C7 C8 1.394 . S
C7 C26 1.723 . S
C8 C5 1.396 . S
C8 C7 1.394 . S
C8 C38 1.723 . S
H9 C32 0.947 . S
H10 C33 0.948 . S
H11 C39 0.982 . S
H12 C40 0.979 . S
H13 C40 0.980 . S
H14 C40 0.983 . S
H15 C39 0.979 . S
H16 C39 0.977 . S
C17 C5 1.453 . S
C17 H46 0.982 . S
C17 H47 0.979 . S
C17 H48 0.977 . S
C18 C5 1.684 . S
C18 H43 0.979 . S
C18 H44 0.980 . S
C18 H45 0.983 . S
C19 C20 1.391 . S
C19 C24 1.391 . S
C19 H49 0.948 . S
C20 C19 1.391 . S
C20 C21 1.391 . S
C21 C20 1.391 . S
C21 C22 1.392 . S
C21 H50 0.947 . S
C22 C21 1.392 . S
C22 C23 1.419 . S
C22 H51 0.948 . S
C23 C22 1.419 . S
C23 C24 1.391 . S
C23 C27 1.397 . S
C24 C19 1.391 . S
C24 C23 1.391 . S
C24 C25 1.399 1_556 S
C25 C24 1.399 1_554 S
C25 C26 1.396 . S
C25 C28 1.453 . S
C25 C29 1.684 . S
C26 C7 1.723 . S
C26 C25 1.396 . S
C26 C27 1.394 1_554 S
C27 C23 1.397 . S
C27 C26 1.394 1_556 S
C27 C37 1.723 . S
C28 C25 1.453 . S
C28 H52 0.982 . S
C28 H53 0.979 . S
C28 H54 0.977 . S
C29 C25 1.684 . S
C29 H55 0.979 . S
C29 H56 0.980 . S
C29 H57 0.983 . S
C30 H6 0.948 . S
C30 C31 1.391 . S
C30 C35 1.391 . S
C31 C30 1.391 . S
C31 C32 1.391 1_556 S
C32 H9 0.947 . S
C32 C31 1.391 1_554 S
C32 C33 1.392 . S
C33 H10 0.948 . S
C33 C32 1.392 . S
C33 C34 1.419 . S
C34 C33 1.419 . S
C34 C35 1.391 1_554 S
C34 C38 1.397 . S
C35 C30 1.391 . S
C35 C34 1.391 1_556 S
C35 C36 1.399 . S
C36 C35 1.399 . S
C36 C37 1.396 . S
C36 C39 1.453 . S
C36 C40 1.684 . S
C37 C27 1.723 . S
C37 C36 1.396 . S
C37 C38 1.394 1_556 S
C38 C8 1.723 . S
C38 C34 1.397 . S
C38 C37 1.394 1_554 S
C39 H11 0.982 . S
C39 H15 0.979 . S
C39 H16 0.977 . S
C39 C36 1.453 . S
C40 H12 0.979 . S
C40 H13 0.980 . S
C40 H14 0.983 . S
C40 C36 1.684 . S
H41 C59 0.948 . S
H42 C0 0.948 . S
H43 C18 0.979 . S
H44 C18 0.980 . S
H45 C18 0.983 . S
H46 C17 0.982 . S
H47 C17 0.979 . S
H48 C17 0.977 . S
H49 C19 0.948 . S
H50 C21 0.947 . S
H51 C22 0.948 . S
H52 C28 0.982 . S
H53 C28 0.979 . S
H54 C28 0.977 . S
H55 C29 0.979 . S
H56 C29 0.980 . S
H57 C29 0.983 . S
H58 C2 0.947 . S
C59 C2 1.392 . S
C59 C3 1.419 . S
C59 H41 0.948 . S
C60 C61 1.391 . S
C60 C64 1.391 . S
C60 H102 0.948 . S
C61 C60 1.391 . S
C61 C62 1.391 . S
C62 C61 1.391 . S
C62 H118 0.947 1_556 S
C62 C119 1.392 1_556 S
C63 C64 1.391 1_554 S
C63 C67 1.397 . S
C63 C119 1.419 . S
C64 C60 1.391 . S
C64 C63 1.391 1_556 S
C64 C65 1.399 . S
C65 C64 1.399 . S
C65 C68 1.396 1_556 S
C65 C77 1.453 1_655 S
C65 C78 1.684 . S
H66 C90 0.948 . S
C67 C63 1.397 . S
C67 C68 1.394 . S
C67 C86 1.723 . S
C68 C65 1.396 1_554 S
C68 C67 1.394 . S
C68 C98 1.723 . S
H69 C92 0.947 . S
H70 C93 0.948 . S
H71 C99 0.982 . S
H72 C100 0.979 . S
H73 C100 0.980 . S
H74 C100 0.983 . S
H75 C99 0.979 . S
H76 C99 0.977 . S
C77 C65 1.453 1_455 S
C77 H106 0.982 . S
C77 H107 0.979 . S
C77 H108 0.977 . S
C78 C65 1.684 . S
C78 H103 0.979 . S
C78 H104 0.980 . S
C78 H105 0.983 . S
C79 C80 1.391 . S
C79 C84 1.391 . S
C79 H109 0.948 . S
C80 C79 1.391 . S
C80 C81 1.391 . S
C81 C80 1.391 . S
C81 C82 1.392 . S
C81 H110 0.947 . S
C82 C81 1.392 . S
C82 C83 1.419 . S
C82 H111 0.948 . S
C83 C82 1.419 . S
C83 C84 1.391 . S
C83 C87 1.397 . S
C84 C79 1.391 . S
C84 C83 1.391 . S
C84 C85 1.399 . S
C85 C84 1.399 . S
C85 C86 1.396 . S
C85 C88 1.453 1_655 S
C85 C89 1.684 . S
C86 C67 1.723 . S
C86 C85 1.396 . S
C86 C87 1.394 . S
C87 C83 1.397 . S
C87 C86 1.394 . S
C87 C97 1.723 . S
C88 C85 1.453 1_455 S
C88 H112 0.982 . S
C88 H113 0.979 . S
C88 H114 0.977 . S
C89 C85 1.684 . S
C89 H115 0.979 . S
C89 H116 0.980 . S
C89 H117 0.983 . S
C90 H66 0.948 . S
C90 C91 1.391 . S
C90 C95 1.391 . S
C91 C90 1.391 . S
C91 C92 1.391 1_554 S
C92 H69 0.947 . S
C92 C91 1.391 1_556 S
C92 C93 1.392 . S
C93 H70 0.948 . S
C93 C92 1.392 . S
C93 C94 1.419 1_556 S
C94 C93 1.419 1_554 S
C94 C95 1.391 . S
C94 C98 1.397 . S
C95 C90 1.391 . S
C95 C94 1.391 . S
C95 C96 1.399 . S
C96 C95 1.399 . S
C96 C97 1.396 . S
C96 C99 1.453 1_655 S
C96 C100 1.684 . S
C97 C87 1.723 . S
C97 C96 1.396 . S
C97 C98 1.394 . S
C98 C68 1.723 . S
C98 C94 1.397 . S
C98 C97 1.394 . S
C99 H71 0.982 . S
C99 H75 0.979 . S
C99 H76 0.977 . S
C99 C96 1.453 1_455 S
C100 H72 0.979 . S
C100 H73 0.980 . S
C100 H74 0.983 . S
C100 C96 1.684 . S
H101 C119 0.948 . S
H102 C60 0.948 . S
H103 C78 0.979 . S
H104 C78 0.980 . S
H105 C78 0.983 . S
H106 C77 0.982 . S
H107 C77 0.979 . S
H108 C77 0.977 . S
H109 C79 0.948 . S
H110 C81 0.947 . S
H111 C82 0.948 . S
H112 C88 0.982 . S
H113 C88 0.979 . S
H114 C88 0.977 . S
H115 C89 0.979 . S
H116 C89 0.980 . S
H117 C89 0.983 . S
H118 C62 0.947 1_554 S
C119 C62 1.392 1_554 S
C119 C63 1.419 . S
C119 H101 0.948 . S
C120 C121 1.391 . S
C120 C124 1.391 . S
C120 H162 0.948 . S
C121 C120 1.391 . S
C121 C122 1.391 1_554 S
C122 C121 1.391 1_556 S
C122 H178 0.947 . S
C122 C179 1.392 . S
C123 C124 1.391 . S
C123 C127 1.396 . S
C123 C179 1.419 1_554 S
C124 C120 1.391 . S
C124 C123 1.391 . S
C124 C125 1.399 . S
C125 C124 1.399 . S
C125 C128 1.396 1_565 S
C125 C137 1.453 1_565 S
C125 C138 1.684 . S
H126 C150 0.948 . S
C127 C123 1.396 . S
C127 C128 1.394 1_565 S
C127 C146 1.723 1_564 S
C128 C125 1.396 1_545 S
C128 C127 1.394 1_545 S
C128 C158 1.723 . S
H129 C152 0.947 . S
H130 C153 0.948 . S
H131 C159 0.982 . S
H132 C160 0.979 . S
H133 C160 0.980 . S
H134 C160 0.983 . S
H135 C159 0.979 . S
H136 C159 0.977 . S
C137 C125 1.453 1_545 S
C137 H166 0.982 . S
C137 H167 0.979 . S
C137 H168 0.977 . S
C138 C125 1.684 . S
C138 H163 0.979 . S
C138 H164 0.980 . S
C138 H165 0.983 . S
C139 C140 1.391 . S
C139 C144 1.391 . S
C139 H169 0.948 . S
C140 C139 1.391 . S
C140 C141 1.391 . S
C141 C140 1.391 . S
C141 C142 1.392 . S
C141 H170 0.947 . S
C142 C141 1.392 . S
C142 C143 1.419 . S
C142 H171 0.948 1_556 S
C143 C142 1.419 . S
C143 C144 1.391 . S
C143 C147 1.397 1_566 S
C144 C139 1.391 . S
C144 C143 1.391 . S
C144 C145 1.399 . S
C145 C144 1.399 . S
C145 C146 1.396 1_565 S
C145 C148 1.453 1_565 S
C145 C149 1.684 . S
C146 C127 1.723 1_546 S
C146 C145 1.396 1_545 S
C146 C147 1.394 1_556 S
C147 C143 1.397 1_544 S
C147 C146 1.394 1_554 S
C147 C157 1.723 . S
C148 C145 1.453 1_545 S
C148 H172 0.982 . S
C148 H173 0.979 . S
C148 H174 0.977 . S
C149 C145 1.684 . S
C149 H175 0.979 . S
C149 H176 0.980 . S
C149 H177 0.983 . S
C150 H126 0.948 . S
C150 C151 1.391 . S
C150 C155 1.391 . S
C151 C150 1.391 . S
C151 C152 1.391 . S
C152 H129 0.947 . S
C152 C151 1.391 . S
C152 C153 1.392 . S
C153 H130 0.948 . S
C153 C152 1.392 . S
C153 C154 1.419 . S
C154 C153 1.419 . S
C154 C155 1.391 . S
C154 C158 1.397 1_565 S
C155 C150 1.391 . S
C155 C154 1.391 . S
C155 C156 1.399 . S
C156 C155 1.399 . S
C156 C157 1.396 1_565 S
C156 C159 1.453 1_565 S
C156 C160 1.684 . S
C157 C147 1.723 . S
C157 C156 1.396 1_545 S
C157 C158 1.394 . S
C158 C128 1.723 . S
C158 C154 1.397 1_545 S
C158 C157 1.394 . S
C159 H131 0.982 . S
C159 H135 0.979 . S
C159 H136 0.977 . S
C159 C156 1.453 1_545 S
C160 H132 0.979 . S
C160 H133 0.980 . S
C160 H134 0.983 . S
C160 C156 1.684 . S
H161 C179 0.948 . S
H162 C120 0.948 . S
H163 C138 0.979 . S
H164 C138 0.980 . S
H165 C138 0.983 . S
H166 C137 0.982 . S
H167 C137 0.979 . S
H168 C137 0.977 . S
H169 C139 0.948 . S
H170 C141 0.947 . S
H171 C142 0.948 1_554 S
H172 C148 0.982 . S
H173 C148 0.979 . S
H174 C148 0.977 . S
H175 C149 0.979 . S
H176 C149 0.980 . S
H177 C149 0.983 . S
H178 C122 0.947 . S
C179 C122 1.392 . S
C179 C123 1.419 1_556 S
C179 H161 0.948 . S
C180 C181 1.391 . S
C180 C184 1.391 . S
C180 H222 0.948 . S
C181 C180 1.391 . S
C181 C182 1.391 . S
C182 C181 1.391 . S
C182 H238 0.947 . S
C182 C239 1.392 . S
C183 C184 1.391 . S
C183 C187 1.397 . S
C183 C239 1.419 . S
C184 C180 1.391 . S
C184 C183 1.391 . S
C184 C185 1.399 . S
C185 C184 1.399 . S
C185 C188 1.396 . S
C185 C197 1.453 . S
C185 C198 1.684 . S
H186 C210 0.948 . S
C187 C183 1.397 . S
C187 C188 1.394 . S
C187 C206 1.723 . S
C188 C185 1.396 . S
C188 C187 1.394 . S
C188 C218 1.723 . S
H189 C212 0.947 . S
H190 C213 0.948 . S
H191 C219 0.982 . S
H192 C220 0.979 . S
H193 C220 0.980 . S
H194 C220 0.983 . S
H195 C219 0.979 . S
H196 C219 0.977 . S
C197 C185 1.453 . S
C197 H226 0.982 . S
C197 H227 0.979 . S
C197 H228 0.977 . S
C198 C185 1.684 . S
C198 H223 0.979 . S
C198 H224 0.980 . S
C198 H225 0.983 . S
C199 C200 1.391 . S
C199 C204 1.391 . S
C199 H229 0.948 . S
C200 C199 1.391 . S
C200 C201 1.391 . S
C201 C200 1.391 . S
C201 C202 1.392 . S
C201 H230 0.947 . S
C202 C201 1.392 . S
C202 C203 1.419 . S
C202 H231 0.948 . S
C203 C202 1.419 . S
C203 C204 1.391 . S
C203 C207 1.390 1_556 S
C204 C199 1.391 . S
C204 C203 1.391 . S
C204 C205 1.399 1_556 S
C205 C204 1.399 1_554 S
C205 C206 1.396 . S
C205 C208 1.453 . S
C205 C209 1.684 . S
C206 C187 1.723 . S
C206 C205 1.396 . S
C206 C207 1.401 . S
C207 C203 1.390 1_554 S
C207 C206 1.401 . S
C207 C217 1.722 1_554 S
C208 C205 1.453 . S
C208 H232 0.982 . S
C208 H233 0.979 . S
C208 H234 0.977 . S
C209 C205 1.684 . S
C209 H235 0.979 . S
C209 H236 0.980 . S
C209 H237 0.983 . S
C210 H186 0.948 . S
C210 C211 1.391 1_556 S
C210 C215 1.391 . S
C211 C210 1.391 1_554 S
C211 C212 1.391 . S
C212 H189 0.947 . S
C212 C211 1.391 . S
C212 C213 1.392 . S
C213 H190 0.948 . S
C213 C212 1.392 . S
C213 C214 1.419 . S
C214 C213 1.419 . S
C214 C215 1.391 1_554 S
C214 C218 1.397 . S
C215 C210 1.391 . S
C215 C214 1.391 1_556 S
C215 C216 1.399 . S
C216 C215 1.399 . S
C216 C217 1.396 . S
C216 C219 1.453 . S
C216 C220 1.684 . S
C217 C207 1.722 1_556 S
C217 C216 1.396 . S
C217 C218 1.394 1_556 S
C218 C188 1.723 . S
C218 C214 1.397 . S
C218 C217 1.394 1_554 S
C219 H191 0.982 . S
C219 H195 0.979 . S
C219 H196 0.977 . S
C219 C216 1.453 . S
C220 H192 0.979 . S
C220 H193 0.980 . S
C220 H194 0.983 . S
C220 C216 1.684 . S
H221 C239 0.948 . S
H222 C180 0.948 . S
H223 C198 0.979 . S
H224 C198 0.980 . S
H225 C198 0.983 . S
H226 C197 0.982 . S
H227 C197 0.979 . S
H228 C197 0.977 . S
H229 C199 0.948 . S
H230 C201 0.947 . S
H231 C202 0.948 . S
H232 C208 0.982 . S
H233 C208 0.979 . S
H234 C208 0.977 . S
H235 C209 0.979 . S
H236 C209 0.980 . S
H237 C209 0.983 . S
H238 C182 0.947 . S
C239 C182 1.392 . S
C239 C183 1.419 . S
C239 H221 0.948 . S
C240 C241 1.391 . S
C240 C244 1.391 . S
C240 H282 0.948 . S
C241 C240 1.391 . S
C241 C242 1.391 . S
C242 C241 1.391 . S
C242 H298 0.947 . S
C242 C299 1.392 . S
C243 C244 1.391 . S
C243 C247 1.397 . S
C243 C299 1.419 . S
C244 C240 1.391 . S
C244 C243 1.391 . S
C244 C245 1.399 . S
C245 C244 1.399 . S
C245 C248 1.396 . S
C245 C257 1.453 . S
C245 C258 1.684 . S
H246 C270 0.948 . S
C247 C243 1.397 . S
C247 C248 1.394 . S
C247 C266 1.723 . S
C248 C245 1.396 . S
C248 C247 1.394 . S
C248 C278 1.723 . S
H249 C272 0.947 1_556 S
H250 C273 0.948 . S
H251 C279 0.982 . S
H252 C280 0.979 . S
H253 C280 0.980 . S
H254 C280 0.983 . S
H255 C279 0.979 . S
H256 C279 0.977 . S
C257 C245 1.453 . S
C257 H286 0.982 . S
C257 H287 0.979 . S
C257 H288 0.977 . S
C258 C245 1.684 . S
C258 H283 0.979 . S
C258 H284 0.980 . S
C258 H285 0.983 . S
C259 C260 1.391 . S
C259 C264 1.391 . S
C259 H289 0.948 . S
C260 C259 1.391 . S
C260 C261 1.391 . S
C261 C260 1.391 . S
C261 C262 1.392 . S
C261 H290 0.947 . S
C262 C261 1.392 . S
C262 C263 1.419 . S
C262 H291 0.948 . S
C263 C262 1.419 . S
C263 C264 1.391 . S
C263 C267 1.397 . S
C264 C259 1.391 . S
C264 C263 1.391 . S
C264 C265 1.399 . S
C265 C264 1.399 . S
C265 C266 1.396 . S
C265 C268 1.453 . S
C265 C269 1.684 . S
C266 C247 1.723 . S
C266 C265 1.396 . S
C266 C267 1.394 . S
C267 C263 1.397 . S
C267 C266 1.394 . S
C267 C277 1.723 . S
C268 C265 1.453 . S
C268 H292 0.982 . S
C268 H293 0.979 . S
C268 H294 0.977 . S
C269 C265 1.684 . S
C269 H295 0.979 . S
C269 H296 0.980 . S
C269 H297 0.983 . S
C270 H246 0.948 . S
C270 C271 1.391 . S
C270 C275 1.391 . S
C271 C270 1.391 . S
C271 C272 1.391 . S
C272 H249 0.947 1_554 S
C272 C271 1.391 . S
C272 C273 1.392 . S
C273 H250 0.948 . S
C273 C272 1.392 . S
C273 C274 1.419 . S
C274 C273 1.419 . S
C274 C275 1.391 . S
C274 C278 1.397 . S
C275 C270 1.391 . S
C275 C274 1.391 . S
C275 C276 1.399 . S
C276 C275 1.399 . S
C276 C277 1.396 . S
C276 C279 1.453 . S
C276 C280 1.684 . S
C277 C267 1.723 . S
C277 C276 1.396 . S
C277 C278 1.394 . S
C278 C248 1.723 . S
C278 C274 1.397 . S
C278 C277 1.394 . S
C279 H251 0.982 . S
C279 H255 0.979 . S
C279 H256 0.977 . S
C279 C276 1.453 . S
C280 H252 0.979 . S
C280 H253 0.980 . S
C280 H254 0.983 . S
C280 C276 1.684 . S
H281 C299 0.948 . S
H282 C240 0.948 . S
H283 C258 0.979 . S
H284 C258 0.980 . S
H285 C258 0.983 . S
H286 C257 0.982 . S
H287 C257 0.979 . S
H288 C257 0.977 . S
H289 C259 0.948 . S
H290 C261 0.947 . S
H291 C262 0.948 . S
H292 C268 0.982 . S
H293 C268 0.979 . S
H294 C268 0.977 . S
H295 C269 0.979 . S
H296 C269 0.980 . S
H297 C269 0.983 . S
H298 C242 0.947 . S
C299 C242 1.392 . S
C299 C243 1.419 . S
C299 H281 0.948 . S
C300 C301 1.391 . S
C300 C304 1.391 . S
C300 H342 0.948 . S
C301 C300 1.391 . S
C301 C302 1.391 . S
C302 C301 1.391 . S
C302 H358 0.947 . S
C302 C359 1.392 . S
C303 C304 1.391 . S
C303 C307 1.397 . S
C303 C359 1.419 . S
C304 C300 1.391 . S
C304 C303 1.391 . S
C304 C305 1.399 . S
C305 C304 1.399 . S
C305 C308 1.396 . S
C305 C317 1.453 . S
C305 C318 1.684 . S
H306 C330 0.948 . S
C307 C303 1.397 . S
C307 C308 1.394 . S
C307 C326 1.723 . S
C308 C305 1.396 . S
C308 C307 1.394 . S
C308 C338 1.723 . S
H309 C332 0.947 . S
H310 C333 0.948 . S
H311 C339 0.982 . S
H312 C340 0.979 . S
H313 C340 0.980 . S
H314 C340 0.983 . S
H315 C339 0.979 . S
H316 C339 0.977 . S
C317 C305 1.453 . S
C317 H346 0.982 . S
C317 H347 0.979 . S
C317 H348 0.977 . S
C318 C305 1.684 . S
C318 H343 0.979 . S
C318 H344 0.980 . S
C318 H345 0.983 . S
C319 C320 1.391 . S
C319 C324 1.391 . S
C319 H349 0.948 . S
C320 C319 1.391 . S
C320 C321 1.391 . S
C321 C320 1.391 . S
C321 C322 1.392 . S
C321 H350 0.947 . S
C322 C321 1.392 . S
C322 C323 1.419 . S
C322 H351 0.948 . S
C323 C322 1.419 . S
C323 C324 1.391 . S
C323 C327 1.397 . S
C324 C319 1.391 . S
C324 C323 1.391 . S
C324 C325 1.399 . S
C325 C324 1.399 . S
C325 C326 1.396 . S
C325 C328 1.453 . S
C325 C329 1.684 . S
C326 C307 1.723 . S
C326 C325 1.396 . S
C326 C327 1.394 . S
C327 C323 1.397 . S
C327 C326 1.394 . S
C327 C337 1.723 . S
C328 C325 1.453 . S
C328 H352 0.982 . S
C328 H353 0.979 . S
C328 H354 0.977 . S
C329 C325 1.684 . S
C329 H355 0.979 . S
C329 H356 0.980 . S
C329 H357 0.983 . S
C330 H306 0.948 . S
C330 C331 1.391 . S
C330 C335 1.391 . S
C331 C330 1.391 . S
C331 C332 1.391 . S
C332 H309 0.947 . S
C332 C331 1.391 . S
C332 C333 1.392 . S
C333 H310 0.948 . S
C333 C332 1.392 . S
C333 C334 1.419 . S
C334 C333 1.419 . S
C334 C335 1.391 . S
C334 C338 1.397 . S
C335 C330 1.391 . S
C335 C334 1.391 . S
C335 C336 1.399 . S
C336 C335 1.399 . S
C336 C337 1.396 . S
C336 C339 1.453 . S
C336 C340 1.684 . S
C337 C327 1.723 . S
C337 C336 1.396 . S
C337 C338 1.394 . S
C338 C308 1.723 . S
C338 C334 1.397 . S
C338 C337 1.394 . S
C339 H311 0.982 . S
C339 H315 0.979 . S
C339 H316 0.977 . S
C339 C336 1.453 . S
C340 H312 0.979 . S
C340 H313 0.980 . S
C340 H314 0.983 . S
C340 C336 1.684 . S
H341 C359 0.948 . S
H342 C300 0.948 . S
H343 C318 0.979 . S
H344 C318 0.980 . S
H345 C318 0.983 . S
H346 C317 0.982 . S
H347 C317 0.979 . S
H348 C317 0.977 . S
H349 C319 0.948 . S
H350 C321 0.947 . S
H351 C322 0.948 . S
H352 C328 0.982 . S
H353 C328 0.979 . S
H354 C328 0.977 . S
H355 C329 0.979 . S
H356 C329 0.980 . S
H357 C329 0.983 . S
H358 C302 0.947 . S
C359 C302 1.392 . S
C359 C303 1.419 . S
C359 H341 0.948 . S
C360 C361 1.391 . S
C360 C364 1.391 . S
C360 H402 0.948 . S
C361 C360 1.391 . S
C361 C362 1.391 . S
C362 C361 1.391 . S
C362 H418 0.947 . S
C362 C419 1.392 . S
C363 C364 1.391 . S
C363 C367 1.397 1_545 S
C363 C419 1.419 . S
C364 C360 1.391 . S
C364 C363 1.391 . S
C364 C365 1.399 . S
C365 C364 1.399 . S
C365 C368 1.396 1_545 S
C365 C377 1.453 1_545 S
C365 C378 1.684 . S
H366 C390 0.948 . S
C367 C363 1.397 1_565 S
C367 C368 1.394 . S
C367 C386 1.723 . S
C368 C365 1.396 1_565 S
C368 C367 1.394 . S
C368 C398 1.723 . S
H369 C392 0.947 . S
H370 C393 0.948 . S
H371 C399 0.982 . S
H372 C400 0.979 . S
H373 C400 0.980 . S
H374 C400 0.983 . S
H375 C399 0.979 . S
H376 C399 0.977 . S
C377 C365 1.453 1_565 S
C377 H406 0.982 . S
C377 H407 0.979 . S
C377 H408 0.977 . S
C378 C365 1.684 . S
C378 H403 0.979 . S
C378 H404 0.980 . S
C378 H405 0.983 . S
C379 C380 1.391 . S
C379 C384 1.391 . S
C379 H409 0.948 . S
C380 C379 1.391 . S
C380 C381 1.391 . S
C381 C380 1.391 . S
C381 C382 1.392 . S
C381 H410 0.947 . S
C382 C381 1.392 . S
C382 C383 1.419 . S
C382 H411 0.948 . S
C383 C382 1.419 . S
C383 C384 1.391 . S
C383 C387 1.397 1_545 S
C384 C379 1.391 . S
C384 C383 1.391 . S
C384 C385 1.399 . S
C385 C384 1.399 . S
C385 C386 1.396 1_545 S
C385 C388 1.453 1_545 S
C385 C389 1.684 . S
C386 C367 1.723 . S
C386 C385 1.396 1_565 S
C386 C387 1.394 . S
C387 C383 1.397 1_565 S
C387 C386 1.394 . S
C387 C397 1.723 . S
C388 C385 1.453 1_565 S
C388 H412 0.982 . S
C388 H413 0.979 . S
C388 H414 0.977 . S
C389 C385 1.684 . S
C389 H415 0.979 . S
C389 H416 0.980 . S
C389 H417 0.983 . S
C390 H366 0.948 . S
C390 C391 1.391 . S
C390 C395 1.391 . S
C391 C390 1.391 . S
C391 C392 1.391 . S
C392 H369 0.947 . S
C392 C391 1.391 . S
C392 C393 1.392 . S
C393 H370 0.948 . S
C393 C392 1.392 . S
C393 C394 1.419 . S
C394 C393 1.419 . S
C394 C395 1.391 . S
C394 C398 1.397 1_545 S
C395 C390 1.391 . S
C395 C394 1.391 . S
C395 C396 1.399 . S
C396 C395 1.399 . S
C396 C397 1.396 1_545 S
C396 C399 1.453 1_545 S
C396 C400 1.684 . S
C397 C387 1.723 . S
C397 C396 1.396 1_565 S
C397 C398 1.394 . S
C398 C368 1.723 . S
C398 C394 1.397 1_565 S
C398 C397 1.394 . S
C399 H371 0.982 . S
C399 H375 0.979 . S
C399 H376 0.977 . S
C399 C396 1.453 1_565 S
C400 H372 0.979 . S
C400 H373 0.980 . S
C400 H374 0.983 . S
C400 C396 1.684 . S
H401 C419 0.948 . S
H402 C360 0.948 . S
H403 C378 0.979 . S
H404 C378 0.980 . S
H405 C378 0.983 . S
H406 C377 0.982 . S
H407 C377 0.979 . S
H408 C377 0.977 . S
H409 C379 0.948 . S
H410 C381 0.947 . S
H411 C382 0.948 . S
H412 C388 0.982 . S
H413 C388 0.979 . S
H414 C388 0.977 . S
H415 C389 0.979 . S
H416 C389 0.980 . S
H417 C389 0.983 . S
H418 C362 0.947 . S
C419 C362 1.392 . S
C419 C363 1.419 . S
C419 H401 0.948 . S
C420 C421 1.391 . S
C420 C424 1.391 . S
C420 H462 0.948 . S
C421 C420 1.391 . S
C421 C422 1.391 . S
C422 C421 1.391 . S
C422 H478 0.947 . S
C422 C479 1.392 . S
C423 C424 1.391 . S
C423 C427 1.397 . S
C423 C479 1.419 . S
C424 C420 1.391 . S
C424 C423 1.391 . S
C424 C425 1.399 . S
C425 C424 1.399 . S
C425 C428 1.396 . S
C425 C437 1.453 . S
C425 C438 1.684 . S
H426 C450 0.948 . S
C427 C423 1.397 . S
C427 C428 1.394 . S
C427 C446 1.723 . S
C428 C425 1.396 . S
C428 C427 1.394 . S
C428 C458 1.723 . S
H429 C452 0.947 . S
H430 C453 0.948 . S
H431 C459 0.982 . S
H432 C460 0.979 . S
H433 C460 0.980 . S
H434 C460 0.983 . S
H435 C459 0.979 . S
H436 C459 0.977 . S
C437 C425 1.453 . S
C437 H466 0.982 . S
C437 H467 0.979 . S
C437 H468 0.977 . S
C438 C425 1.684 . S
C438 H463 0.979 . S
C438 H464 0.980 . S
C438 H465 0.983 . S
C439 C440 1.391 . S
C439 C444 1.391 . S
C439 H469 0.948 . S
C440 C439 1.391 . S
C440 C441 1.391 . S
C441 C440 1.391 . S
C441 C442 1.392 . S
C441 H470 0.947 . S
C442 C441 1.392 . S
C442 C443 1.419 . S
C442 H471 0.948 . S
C443 C442 1.419 . S
C443 C444 1.391 . S
C443 C447 1.397 . S
C444 C439 1.391 . S
C444 C443 1.391 . S
C444 C445 1.399 . S
C445 C444 1.399 . S
C445 C446 1.396 . S
C445 C448 1.453 . S
C445 C449 1.684 . S
C446 C427 1.723 . S
C446 C445 1.396 . S
C446 C447 1.394 . S
C447 C443 1.397 . S
C447 C446 1.394 . S
C447 C457 1.723 . S
C448 C445 1.453 . S
C448 H472 0.982 . S
C448 H473 0.979 . S
C448 H474 0.977 . S
C449 C445 1.684 . S
C449 H475 0.979 . S
C449 H476 0.980 . S
C449 H477 0.983 . S
C450 H426 0.948 . S
C450 C451 1.391 . S
C450 C455 1.391 . S
C451 C450 1.391 . S
C451 C452 1.391 . S
C452 H429 0.947 . S
C452 C451 1.391 . S
C452 C453 1.392 . S
C453 H430 0.948 . S
C453 C452 1.392 . S
C453 C454 1.419 . S
C454 C453 1.419 . S
C454 C455 1.391 . S
C454 C458 1.397 . S
C455 C450 1.391 . S
C455 C454 1.391 . S
C455 C456 1.399 . S
C456 C455 1.399 . S
C456 C457 1.396 . S
C456 C459 1.453 . S
C456 C460 1.684 . S
C457 C447 1.723 . S
C457 C456 1.396 . S
C457 C458 1.394 . S
C458 C428 1.723 . S
C458 C454 1.397 . S
C458 C457 1.394 . S
C459 H431 0.982 . S
C459 H435 0.979 . S
C459 H436 0.977 . S
C459 C456 1.453 . S
C460 H432 0.979 . S
C460 H433 0.980 . S
C460 H434 0.983 . S
C460 C456 1.684 . S
H461 C479 0.948 . S
H462 C420 0.948 . S
H463 C438 0.979 . S
H464 C438 0.980 . S
H465 C438 0.983 . S
H466 C437 0.982 . S
H467 C437 0.979 . S
H468 C437 0.977 . S
H469 C439 0.948 . S
H470 C441 0.947 . S
H471 C442 0.948 . S
H472 C448 0.982 . S
H473 C448 0.979 . S
H474 C448 0.977 . S
H475 C449 0.979 . S
H476 C449 0.980 . S
H477 C449 0.983 . S
H478 C422 0.947 . S
C479 C422 1.392 . S
C479 C423 1.419 . S
C479 H461 0.948 . S
O480 Zn481 1.952 . S
O480 C496 1.237 . S
Zn481 O480 1.952 . S
Zn481 O482 1.950 . S
Zn481 O488 1.919 1_565 S
Zn481 O493 1.924 . S
O482 Zn481 1.950 . S
O482 Zn483 1.902 1_565 S
O482 Zn484 1.953 . S
O482 Zn485 1.962 . S
Zn483 O482 1.902 1_545 S
Zn483 O486 1.933 1_455 S
Zn483 O489 1.941 . S
Zn483 O490 1.965 . S
Zn484 O482 1.953 . S
Zn484 O491 1.938 1_565 S
Zn484 O492 1.906 . S
Zn484 O502 1.953 . S
Zn485 O482 1.962 . S
Zn485 O487 1.932 1_455 S
Zn485 O494 1.977 . S
Zn485 O495 1.910 . S
O486 Zn483 1.933 1_655 S
O486 C497 1.226 . S
O487 Zn485 1.932 1_655 S
O487 C497 1.307 1_565 S
O488 Zn481 1.919 1_545 S
O488 C499 1.253 . S
O489 Zn483 1.941 . S
O489 C499 1.283 . S
O490 Zn483 1.965 . S
O490 C498 1.303 . S
O491 Zn484 1.938 1_545 S
O491 C498 1.247 . S
O492 Zn484 1.906 . S
O492 C500 1.304 . S
O493 Zn481 1.924 . S
O493 C501 1.311 . S
O494 Zn485 1.977 . S
O494 C500 1.272 . S
O495 Zn485 1.910 . S
O495 C501 1.231 . S
C496 O480 1.237 . S
C496 O502 1.298 . S
C497 O486 1.226 . S
C497 O487 1.307 1_545 S
C498 O490 1.303 . S
C498 O491 1.247 . S
C499 O488 1.253 . S
C499 O489 1.283 . S
C500 O492 1.304 . S
C500 O494 1.272 . S
C501 O493 1.311 . S
C501 O495 1.231 . S
O502 Zn484 1.953 . S
O502 C496 1.298 . S
O503 Zn504 1.953 . S
O503 C519 1.225 . S
Zn504 O503 1.953 . S
Zn504 O505 1.949 . S
Zn504 O511 1.919 . S
Zn504 O516 1.924 . S
O505 Zn504 1.949 . S
O505 Zn506 1.923 1_545 S
O505 Zn507 1.950 . S
O505 Zn508 1.945 1_545 S
Zn506 O505 1.923 1_565 S
Zn506 O509 1.933 . S
Zn506 O512 1.941 . S
Zn506 O513 1.965 . S
Zn507 O505 1.950 . S
Zn507 O514 1.938 . S
Zn507 O515 1.887 1_545 S
Zn507 O525 1.953 . S
Zn508 O505 1.945 1_565 S
Zn508 O510 1.932 . S
Zn508 O517 1.977 . S
Zn508 O518 1.910 1_565 S
O509 Zn506 1.933 . S
O509 C520 1.226 . S
O510 Zn508 1.932 . S
O510 C520 1.307 . S
O511 Zn504 1.919 . S
O511 C522 1.253 . S
O512 Zn506 1.941 . S
O512 C522 1.283 1_565 S
O513 Zn506 1.965 . S
O513 C521 1.303 . S
O514 Zn507 1.938 . S
O514 C521 1.247 1_545 S
O515 Zn507 1.887 1_565 S
O515 C523 1.331 . S
O516 Zn504 1.924 . S
O516 C524 1.311 . S
O517 Zn508 1.977 . S
O517 C523 1.272 . S
O518 Zn508 1.910 1_545 S
O518 C524 1.231 . S
C519 O503 1.225 . S
C519 O525 1.298 . S
C520 O509 1.226 . S
C520 O510 1.307 . S
C521 O513 1.303 . S
C521 O514 1.247 1_565 S
C522 O511 1.253 . S
C522 O512 1.283 1_545 S
C523 O515 1.331 . S
C523 O517 1.272 . S
C524 O516 1.311 . S
C524 O518 1.231 . S
O525 Zn507 1.953 . S
O525 C519 1.298 . S
O526 Zn527 1.953 . S
O526 C542 1.225 . S
Zn527 O526 1.953 . S
Zn527 O528 1.949 . S
Zn527 O534 1.919 . S
Zn527 O539 1.924 . S
O528 Zn527 1.949 . S
O528 Zn529 1.923 . S
O528 Zn530 1.950 . S
O528 Zn531 1.945 . S
Zn529 O528 1.923 . S
Zn529 O532 1.933 . S
Zn529 O535 1.941 . S
Zn529 O536 1.965 . S
Zn530 O528 1.950 . S
Zn530 O537 1.938 . S
Zn530 O538 1.906 . S
Zn530 O548 1.953 . S
Zn531 O528 1.945 . S
Zn531 O533 1.932 . S
Zn531 O540 1.977 . S
Zn531 O541 1.910 . S
O532 Zn529 1.933 . S
O532 C543 1.226 . S
O533 Zn531 1.932 . S
O533 C543 1.307 . S
O534 Zn527 1.919 . S
O534 C545 1.253 . S
O535 Zn529 1.941 . S
O535 C545 1.283 . S
O536 Zn529 1.965 . S
O536 C544 1.303 . S
O537 Zn530 1.938 . S
O537 C544 1.247 . S
O538 Zn530 1.906 . S
O538 C546 1.304 . S
O539 Zn527 1.924 . S
O539 C547 1.311 . S
O540 Zn531 1.977 . S
O540 C546 1.272 . S
O541 Zn531 1.910 . S
O541 C547 1.231 . S
C542 O526 1.225 . S
C542 O548 1.298 . S
C543 O532 1.226 . S
C543 O533 1.307 . S
C544 O536 1.303 . S
C544 O537 1.247 . S
C545 O534 1.253 . S
C545 O535 1.283 . S
C546 O538 1.304 . S
C546 O540 1.272 . S
C547 O539 1.311 . S
C547 O541 1.231 . S
O548 Zn530 1.953 . S
O548 C542 1.298 . S
O549 Zn550 1.953 1_655 S
O549 C565 1.225 . S
Zn550 O549 1.953 1_455 S
Zn550 O551 1.949 . S
Zn550 O557 1.919 . S
Zn550 O562 1.924 . S
O551 Zn550 1.949 . S
O551 Zn552 1.923 . S
O551 Zn553 1.950 1_455 S
O551 Zn554 1.945 . S
Zn552 O551 1.923 . S
Zn552 O555 1.933 . S
Zn552 O558 1.949 . S
Zn552 O559 1.965 1_455 S
Zn553 O551 1.950 1_655 S
Zn553 O560 1.938 . S
Zn553 O561 1.906 1_655 S
Zn553 O571 1.953 . S
Zn554 O551 1.945 . S
Zn554 O556 1.932 . S
Zn554 O563 1.977 . S
Zn554 O564 1.910 . S
O555 Zn552 1.933 . S
O555 C566 1.226 . S
O556 Zn554 1.932 . S
O556 C566 1.307 . S
O557 Zn550 1.919 . S
O557 C568 1.253 . S
O558 Zn552 1.949 . S
O558 C568 1.290 . S
O559 Zn552 1.965 1_655 S
O559 C567 1.303 . S
O560 Zn553 1.938 . S
O560 C567 1.247 . S
O561 Zn553 1.906 1_455 S
O561 C569 1.304 . S
O562 Zn550 1.924 . S
O562 C570 1.311 . S
O563 Zn554 1.977 . S
O563 C569 1.272 . S
O564 Zn554 1.910 . S
O564 C570 1.231 . S
C565 O549 1.225 . S
C565 O571 1.298 . S
C566 O555 1.226 . S
C566 O556 1.307 . S
C567 O559 1.303 . S
C567 O560 1.247 . S
C568 O557 1.253 . S
C568 O558 1.290 . S
C569 O561 1.304 . S
C569 O563 1.272 . S
C570 O562 1.311 . S
C570 O564 1.231 . S
O571 Zn553 1.953 . S
O571 C565 1.298 . S
C572 C573 1.391 1_545 S
C572 C574 1.394 . S
C572 H588 0.931 . S
C573 C572 1.391 1_565 S
C573 C577 1.376 . S
C574 C572 1.394 . S
C574 C575 1.369 1_545 S
C574 C578 1.531 . S
C575 C574 1.369 1_565 S
C575 C576 1.410 . S
C575 C583 1.503 . S
C576 C575 1.410 . S
C576 C577 1.392 . S
C576 C579 1.511 . S
C577 C573 1.376 . S
C577 C576 1.392 . S
C577 H589 0.929 . S
C578 C574 1.531 . S
C578 H590 0.960 . S
C578 H591 0.962 . S
C578 H592 0.960 . S
C579 C576 1.511 . S
C579 H593 0.961 . S
C579 H594 0.961 . S
C579 H595 0.961 . S
C580 C581 1.370 1_545 S
C580 C582 1.363 . S
C580 H596 0.931 . S
C581 C580 1.370 1_565 S
C581 C585 1.408 . S
C582 C580 1.363 . S
C582 C583 1.370 1_545 S
C582 C586 1.524 . S
C583 C575 1.503 . S
C583 C582 1.370 1_565 S
C583 C584 1.403 . S
C584 C583 1.403 . S
C584 C585 1.404 . S
C584 C587 1.539 . S
C585 C581 1.408 . S
C585 C584 1.404 . S
C585 H597 0.930 . S
C586 C582 1.524 . S
C586 H598 0.956 . S
C586 H599 0.961 . S
C586 H600 0.961 . S
C587 C584 1.539 . S
C587 H601 0.958 . S
C587 H602 0.961 . S
C587 H603 0.960 . S
H588 C572 0.931 . S
H589 C577 0.929 . S
H590 C578 0.960 . S
H591 C578 0.962 . S
H592 C578 0.960 . S
H593 C579 0.961 . S
H594 C579 0.961 . S
H595 C579 0.961 . S
H596 C580 0.931 . S
H597 C585 0.930 . S
H598 C586 0.956 . S
H599 C586 0.961 . S
H600 C586 0.961 . S
H601 C587 0.958 . S
H602 C587 0.961 . S
H603 C587 0.960 . S
C604 C605 1.391 . S
C604 C606 1.394 . S
C604 H620 0.931 . S
C605 C604 1.391 . S
C605 C609 1.376 . S
C606 C604 1.394 . S
C606 C607 1.369 . S
C606 C610 1.531 . S
C607 C606 1.369 . S
C607 C608 1.410 . S
C607 C615 1.503 . S
C608 C607 1.410 . S
C608 C609 1.392 . S
C608 C611 1.511 . S
C609 C605 1.376 . S
C609 C608 1.392 . S
C609 H621 0.929 . S
C610 C606 1.531 . S
C610 H622 0.960 . S
C610 H623 0.962 . S
C610 H624 0.960 . S
C611 C608 1.511 . S
C611 H625 0.961 . S
C611 H626 0.961 . S
C611 H627 0.961 . S
C612 C613 1.370 . S
C612 C614 1.363 . S
C612 H628 0.931 . S
C613 C612 1.370 . S
C613 C617 1.408 . S
C614 C612 1.363 . S
C614 C615 1.370 . S
C614 C618 1.524 . S
C615 C607 1.503 . S
C615 C614 1.370 . S
C615 C616 1.403 . S
C616 C615 1.403 . S
C616 C617 1.404 . S
C616 C619 1.539 . S
C617 C613 1.408 . S
C617 C616 1.404 . S
C617 H629 0.930 . S
C618 C614 1.524 . S
C618 H630 0.956 . S
C618 H631 0.961 . S
C618 H632 0.961 . S
C619 C616 1.539 . S
C619 H633 0.958 . S
C619 H634 0.961 . S
C619 H635 0.960 . S
H620 C604 0.931 . S
H621 C609 0.929 . S
H622 C610 0.960 . S
H623 C610 0.962 . S
H624 C610 0.960 . S
H625 C611 0.961 . S
H626 C611 0.961 . S
H627 C611 0.961 . S
H628 C612 0.931 . S
H629 C617 0.930 . S
H630 C618 0.956 . S
H631 C618 0.961 . S
H632 C618 0.961 . S
H633 C619 0.958 . S
H634 C619 0.961 . S
H635 C619 0.960 . S
C636 C637 1.391 . S
C636 C638 1.394 . S
C636 H652 0.931 . S
C637 C636 1.391 . S
C637 C641 1.376 . S
C638 C636 1.394 . S
C638 C639 1.369 . S
C638 C642 1.531 . S
C639 C638 1.369 . S
C639 C640 1.410 . S
C639 C647 1.503 . S
C640 C639 1.410 . S
C640 C641 1.392 . S
C640 C643 1.511 . S
C641 C637 1.376 . S
C641 C640 1.392 . S
C641 H653 0.929 . S
C642 C638 1.531 . S
C642 H654 0.960 . S
C642 H655 0.962 . S
C642 H656 0.960 . S
C643 C640 1.511 . S
C643 H657 0.961 . S
C643 H658 0.961 . S
C643 H659 0.961 . S
C644 C645 1.370 . S
C644 C646 1.363 . S
C644 H660 0.931 . S
C645 C644 1.370 . S
C645 C649 1.408 . S
C646 C644 1.363 . S
C646 C647 1.370 . S
C646 C650 1.524 . S
C647 C639 1.503 . S
C647 C646 1.370 . S
C647 C648 1.403 . S
C648 C647 1.403 . S
C648 C649 1.404 . S
C648 C651 1.539 . S
C649 C645 1.408 . S
C649 C648 1.404 . S
C649 H661 0.930 . S
C650 C646 1.524 . S
C650 H662 0.956 . S
C650 H663 0.961 . S
C650 H664 0.961 . S
C651 C648 1.539 . S
C651 H665 0.958 . S
C651 H666 0.961 . S
C651 H667 0.960 . S
H652 C636 0.931 . S
H653 C641 0.929 . S
H654 C642 0.960 . S
H655 C642 0.962 . S
H656 C642 0.960 . S
H657 C643 0.961 . S
H658 C643 0.961 . S
H659 C643 0.961 . S
H660 C644 0.931 . S
H661 C649 0.930 . S
H662 C650 0.956 . S
H663 C650 0.961 . S
H664 C650 0.961 . S
H665 C651 0.958 . S
H666 C651 0.961 . S
H667 C651 0.960 . S
C668 C669 1.391 . S
C668 C670 1.394 . S
C668 H684 0.931 . S
C669 C668 1.391 . S
C669 C673 1.376 . S
C670 C668 1.394 . S
C670 C671 1.369 . S
C670 C674 1.531 . S
C671 C670 1.369 . S
C671 C672 1.410 . S
C671 C679 1.503 . S
C672 C671 1.410 . S
C672 C673 1.392 . S
C672 C675 1.511 . S
C673 C669 1.376 . S
C673 C672 1.392 . S
C673 H685 0.929 . S
C674 C670 1.531 . S
C674 H686 0.960 . S
C674 H687 0.962 . S
C674 H688 0.960 . S
C675 C672 1.511 . S
C675 H689 0.961 . S
C675 H690 0.961 . S
C675 H691 0.961 . S
C676 C677 1.370 . S
C676 C678 1.363 . S
C676 H692 0.931 . S
C677 C676 1.370 . S
C677 C681 1.408 . S
C678 C676 1.363 . S
C678 C679 1.370 . S
C678 C682 1.524 . S
C679 C671 1.503 . S
C679 C678 1.370 . S
C679 C680 1.403 . S
C680 C679 1.403 . S
C680 C681 1.404 . S
C680 C683 1.539 . S
C681 C677 1.408 . S
C681 C680 1.404 . S
C681 H693 0.930 . S
C682 C678 1.524 . S
C682 H694 0.956 . S
C682 H695 0.961 . S
C682 H696 0.961 . S
C683 C680 1.539 . S
C683 H697 0.958 . S
C683 H698 0.961 . S
C683 H699 0.960 . S
H684 C668 0.931 . S
H685 C673 0.929 . S
H686 C674 0.960 . S
H687 C674 0.962 . S
H688 C674 0.960 . S
H689 C675 0.961 . S
H690 C675 0.961 . S
H691 C675 0.961 . S
H692 C676 0.931 . S
H693 C681 0.930 . S
H694 C682 0.956 . S
H695 C682 0.961 . S
H696 C682 0.961 . S
H697 C683 0.958 . S
H698 C683 0.961 . S
H699 C683 0.960 . S
C700 C701 1.391 . S
C700 C702 1.394 . S
C700 H716 0.931 . S
C701 C700 1.391 . S
C701 C705 1.376 1_546 S
C702 C700 1.394 . S
C702 C703 1.369 . S
C702 C706 1.531 . S
C703 C702 1.369 . S
C703 C704 1.400 1_545 S
C703 C711 1.503 . S
C704 C703 1.400 1_565 S
C704 C705 1.395 1_556 S
C704 C707 1.519 . S
C705 C701 1.376 1_564 S
C705 C704 1.395 1_554 S
C705 H717 0.929 . S
C706 C702 1.531 . S
C706 H718 0.960 . S
C706 H719 0.962 . S
C706 H720 0.960 . S
C707 C704 1.519 . S
C707 H721 0.961 1_556 S
C707 H722 0.961 . S
C707 H723 0.953 1_566 S
C708 C709 1.370 1_565 S
C708 C710 1.363 . S
C708 H724 0.931 . S
C709 C708 1.370 1_545 S
C709 C713 1.408 . S
C710 C708 1.363 . S
C710 C711 1.370 1_565 S
C710 C714 1.524 . S
C711 C703 1.503 . S
C711 C710 1.370 1_545 S
C711 C712 1.403 . S
C712 C711 1.403 . S
C712 C713 1.404 . S
C712 C715 1.539 . S
C713 C709 1.408 . S
C713 C712 1.404 . S
C713 H725 0.930 . S
C714 C710 1.524 . S
C714 H726 0.956 . S
C714 H727 0.961 . S
C714 H728 0.961 . S
C715 C712 1.539 . S
C715 H729 0.958 . S
C715 H730 0.961 . S
C715 H731 0.960 . S
H716 C700 0.931 . S
H717 C705 0.929 . S
H718 C706 0.960 . S
H719 C706 0.962 . S
H720 C706 0.960 . S
H721 C707 0.961 1_554 S
H722 C707 0.961 . S
H723 C707 0.953 1_544 S
H724 C708 0.931 . S
H725 C713 0.930 . S
H726 C714 0.956 . S
H727 C714 0.961 . S
H728 C714 0.961 . S
H729 C715 0.958 . S
H730 C715 0.961 . S
H731 C715 0.960 . S
C732 C733 1.391 . S
C732 C734 1.394 . S
C732 H748 0.931 . S
C733 C732 1.391 . S
C733 C737 1.376 . S
C734 C732 1.394 . S
C734 C735 1.369 . S
C734 C738 1.531 . S
C735 C734 1.369 . S
C735 C736 1.410 . S
C735 C743 1.503 . S
C736 C735 1.410 . S
C736 C737 1.392 . S
C736 C739 1.511 . S
C737 C733 1.376 . S
C737 C736 1.392 . S
C737 H749 0.929 . S
C738 C734 1.531 . S
C738 H750 0.960 . S
C738 H751 0.962 . S
C738 H752 0.960 . S
C739 C736 1.511 . S
C739 H753 0.961 . S
C739 H754 0.961 . S
C739 H755 0.961 . S
C740 C741 1.370 . S
C740 C742 1.363 . S
C740 H756 0.931 . S
C741 C740 1.370 . S
C741 C745 1.408 . S
C742 C740 1.363 . S
C742 C743 1.370 . S
C742 C746 1.524 . S
C743 C735 1.503 . S
C743 C742 1.370 . S
C743 C744 1.403 . S
C744 C743 1.403 . S
C744 C745 1.404 . S
C744 C747 1.539 . S
C745 C741 1.408 . S
C745 C744 1.404 . S
C745 H757 0.930 . S
C746 C742 1.524 . S
C746 H758 0.956 . S
C746 H759 0.961 . S
C746 H760 0.961 . S
C747 C744 1.539 . S
C747 H761 0.958 . S
C747 H762 0.961 . S
C747 H763 0.960 . S
H748 C732 0.931 . S
H749 C737 0.929 . S
H750 C738 0.960 . S
H751 C738 0.962 . S
H752 C738 0.960 . S
H753 C739 0.961 . S
H754 C739 0.961 . S
H755 C739 0.961 . S
H756 C740 0.931 . S
H757 C745 0.930 . S
H758 C746 0.956 . S
H759 C746 0.961 . S
H760 C746 0.961 . S
H761 C747 0.958 . S
H762 C747 0.961 . S
H763 C747 0.960 . S
C764 C765 1.391 . S
C764 C766 1.394 . S
C764 H780 0.931 1_556 S
C765 C764 1.391 . S
C765 C769 1.376 . S
C766 C764 1.394 . S
C766 C767 1.369 . S
C766 C770 1.531 . S
C767 C766 1.369 . S
C767 C768 1.410 . S
C767 C775 1.503 . S
C768 C767 1.410 . S
C768 C769 1.392 . S
C768 C771 1.511 . S
C769 C765 1.376 . S
C769 C768 1.392 . S
C769 H781 0.929 . S
C770 C766 1.531 . S
C770 H782 0.960 . S
C770 H783 0.962 . S
C770 H784 0.960 . S
C771 C768 1.511 . S
C771 H785 0.961 . S
C771 H786 0.961 . S
C771 H787 0.961 . S
C772 C773 1.370 . S
C772 C774 1.363 . S
C772 H788 0.931 . S
C773 C772 1.370 . S
C773 C777 1.408 . S
C774 C772 1.363 . S
C774 C775 1.370 . S
C774 C778 1.524 . S
C775 C767 1.503 . S
C775 C774 1.370 . S
C775 C776 1.403 . S
C776 C775 1.403 . S
C776 C777 1.404 . S
C776 C779 1.539 . S
C777 C773 1.408 . S
C777 C776 1.404 . S
C777 H789 0.930 . S
C778 C774 1.524 . S
C778 H790 0.956 . S
C778 H791 0.961 . S
C778 H792 0.961 . S
C779 C776 1.539 . S
C779 H793 0.958 . S
C779 H794 0.961 . S
C779 H795 0.960 . S
H780 C764 0.931 1_554 S
H781 C769 0.929 . S
H782 C770 0.960 . S
H783 C770 0.962 . S
H784 C770 0.960 . S
H785 C771 0.961 . S
H786 C771 0.961 . S
H787 C771 0.961 . S
H788 C772 0.931 . S
H789 C777 0.930 . S
H790 C778 0.956 . S
H791 C778 0.961 . S
H792 C778 0.961 . S
H793 C779 0.958 . S
H794 C779 0.961 . S
H795 C779 0.960 . S
C796 C797 1.391 1_456 S
C796 C798 1.394 . S
C796 H812 0.931 1_556 S
C797 C796 1.391 1_654 S
C797 C801 1.367 1_554 S
C798 C796 1.394 . S
C798 C799 1.369 1_455 S
C798 C802 1.531 . S
C799 C798 1.369 1_655 S
C799 C800 1.410 . S
C799 C807 1.503 . S
C800 C799 1.410 . S
C800 C801 1.392 . S
C800 C803 1.511 . S
C801 C797 1.367 1_556 S
C801 C800 1.392 . S
C801 H813 0.929 . S
C802 C798 1.531 . S
C802 H814 0.960 . S
C802 H815 0.962 . S
C802 H816 0.960 . S
C803 C800 1.511 . S
C803 H817 0.961 . S
C803 H818 0.961 . S
C803 H819 0.961 . S
C804 C805 1.370 . S
C804 C806 1.363 . S
C804 H820 0.931 . S
C805 C804 1.370 . S
C805 C809 1.408 1_455 S
C806 C804 1.363 . S
C806 C807 1.370 1_455 S
C806 C810 1.524 . S
C807 C799 1.503 . S
C807 C806 1.370 1_655 S
C807 C808 1.403 . S
C808 C807 1.403 . S
C808 C809 1.404 . S
C808 C811 1.539 . S
C809 C805 1.408 1_655 S
C809 C808 1.404 . S
C809 H821 0.930 . S
C810 C806 1.524 . S
C810 H822 0.956 . S
C810 H823 0.973 . S
C810 H824 0.961 . S
C811 C808 1.539 . S
C811 H825 0.958 . S
C811 H826 0.961 . S
C811 H827 0.960 . S
H812 C796 0.931 1_554 S
H813 C801 0.929 . S
H814 C802 0.960 . S
H815 C802 0.962 . S
H816 C802 0.960 . S
H817 C803 0.961 . S
H818 C803 0.961 . S
H819 C803 0.961 . S
H820 C804 0.931 . S
H821 C809 0.930 . S
H822 C810 0.956 . S
H823 C810 0.973 . S
H824 C810 0.961 . S
H825 C811 0.958 . S
H826 C811 0.961 . S
H827 C811 0.960 . S
C828 C829 1.391 . S
C828 C830 1.394 . S
C828 H844 0.931 . S
C829 C828 1.391 . S
C829 C833 1.376 . S
C830 C828 1.394 . S
C830 C831 1.369 . S
C830 C834 1.531 . S
C831 C830 1.369 . S
C831 C832 1.410 . S
C831 C839 1.503 . S
C832 C831 1.410 . S
C832 C833 1.392 . S
C832 C835 1.511 . S
C833 C829 1.376 . S
C833 C832 1.392 . S
C833 H845 0.929 . S
C834 C830 1.531 . S
C834 H846 0.960 . S
C834 H847 0.962 . S
C834 H848 0.960 . S
C835 C832 1.511 . S
C835 H849 0.961 . S
C835 H850 0.961 . S
C835 H851 0.961 . S
C836 C837 1.370 . S
C836 C838 1.363 . S
C836 H852 0.931 . S
C837 C836 1.370 . S
C837 C841 1.408 . S
C838 C836 1.363 . S
C838 C839 1.370 . S
C838 C842 1.524 . S
C839 C831 1.503 . S
C839 C838 1.370 . S
C839 C840 1.403 . S
C840 C839 1.403 . S
C840 C841 1.404 . S
C840 C843 1.539 . S
C841 C837 1.408 . S
C841 C840 1.404 . S
C841 H853 0.930 . S
C842 C838 1.524 . S
C842 H854 0.956 . S
C842 H855 0.961 . S
C842 H856 0.961 . S
C843 C840 1.539 . S
C843 H857 0.958 . S
C843 H858 0.961 . S
C843 H859 0.960 . S
H844 C828 0.931 . S
H845 C833 0.929 . S
H846 C834 0.960 . S
H847 C834 0.962 . S
H848 C834 0.960 . S
H849 C835 0.961 . S
H850 C835 0.961 . S
H851 C835 0.961 . S
H852 C836 0.931 . S
H853 C841 0.930 . S
H854 C842 0.956 . S
H855 C842 0.961 . S
H856 C842 0.961 . S
H857 C843 0.958 . S
H858 C843 0.961 . S
H859 C843 0.960 . S
C860 C861 1.398 . S
C860 C862 1.394 . S
C860 H876 0.931 . S
C861 C860 1.398 . S
C861 C865 1.368 1_545 S
C862 C860 1.394 . S
C862 C863 1.369 1_545 S
C862 C866 1.531 . S
C863 C862 1.369 1_565 S
C863 C864 1.410 . S
C863 C871 1.503 . S
C864 C863 1.410 . S
C864 C865 1.392 . S
C864 C867 1.511 . S
C865 C861 1.368 1_565 S
C865 C864 1.392 . S
C865 H877 0.929 . S
C866 C862 1.531 . S
C866 H878 0.960 . S
C866 H879 0.962 . S
C866 H880 0.960 . S
C867 C864 1.511 . S
C867 H881 0.961 . S
C867 H882 0.961 . S
C867 H883 0.961 . S
C868 C869 1.370 1_545 S
C868 C870 1.363 . S
C868 H884 0.931 . S
C869 C868 1.370 1_565 S
C869 C873 1.408 . S
C870 C868 1.363 . S
C870 C871 1.370 1_545 S
C870 C874 1.524 . S
C871 C863 1.503 . S
C871 C870 1.370 1_565 S
C871 C872 1.403 . S
C872 C871 1.403 . S
C872 C873 1.404 . S
C872 C875 1.539 . S
C873 C869 1.408 . S
C873 C872 1.404 . S
C873 H885 0.930 . S
C874 C870 1.524 . S
C874 H886 0.956 . S
C874 H887 0.961 1_545 S
C874 H888 0.961 . S
C875 C872 1.539 . S
C875 H889 0.958 . S
C875 H890 0.961 . S
C875 H891 0.960 . S
H876 C860 0.931 . S
H877 C865 0.929 . S
H878 C866 0.960 . S
H879 C866 0.962 . S
H880 C866 0.960 . S
H881 C867 0.961 . S
H882 C867 0.961 . S
H883 C867 0.961 . S
H884 C868 0.931 . S
H885 C873 0.930 . S
H886 C874 0.956 . S
H887 C874 0.961 1_565 S
H888 C874 0.961 . S
H889 C875 0.958 . S
H890 C875 0.961 . S
H891 C875 0.960 . S
C892 C893 1.391 . S
C892 C894 1.394 . S
C892 H908 0.931 . S
C893 C892 1.391 . S
C893 C897 1.376 . S
C894 C892 1.394 . S
C894 C895 1.369 . S
C894 C898 1.531 . S
C895 C894 1.369 . S
C895 C896 1.410 . S
C895 C903 1.503 . S
C896 C895 1.410 . S
C896 C897 1.392 . S
C896 C899 1.511 . S
C897 C893 1.376 . S
C897 C896 1.392 . S
C897 H909 0.929 . S
C898 C894 1.531 . S
C898 H910 0.960 . S
C898 H911 0.962 . S
C898 H912 0.960 . S
C899 C896 1.511 . S
C899 H913 0.961 . S
C899 H914 0.961 . S
C899 H915 0.961 . S
C900 C901 1.370 . S
C900 C902 1.363 . S
C900 H916 0.931 . S
C901 C900 1.370 . S
C901 C905 1.408 . S
C902 C900 1.363 . S
C902 C903 1.370 . S
C902 C906 1.524 . S
C903 C895 1.503 . S
C903 C902 1.370 . S
C903 C904 1.403 . S
C904 C903 1.403 . S
C904 C905 1.404 . S
C904 C907 1.539 . S
C905 C901 1.408 . S
C905 C904 1.404 . S
C905 H917 0.930 . S
C906 C902 1.524 . S
C906 H918 0.956 . S
C906 H919 0.961 . S
C906 H920 0.961 . S
C907 C904 1.539 . S
C907 H921 0.958 . S
C907 H922 0.961 . S
C907 H923 0.960 . S
H908 C892 0.931 . S
H909 C897 0.929 . S
H910 C898 0.960 . S
H911 C898 0.962 . S
H912 C898 0.960 . S
H913 C899 0.961 . S
H914 C899 0.961 . S
H915 C899 0.961 . S
H916 C900 0.931 . S
H917 C905 0.930 . S
H918 C906 0.956 . S
H919 C906 0.961 . S
H920 C906 0.961 . S
H921 C907 0.958 . S
H922 C907 0.961 . S
H923 C907 0.960 . S
C924 C925 1.391 . S
C924 C926 1.394 . S
C924 H940 0.931 . S
C925 C924 1.391 . S
C925 C929 1.376 . S
C926 C924 1.394 . S
C926 C927 1.369 . S
C926 C930 1.531 . S
C927 C926 1.369 . S
C927 C928 1.410 . S
C927 C935 1.503 . S
C928 C927 1.410 . S
C928 C929 1.392 . S
C928 C931 1.511 . S
C929 C925 1.376 . S
C929 C928 1.392 . S
C929 H941 0.929 . S
C930 C926 1.531 . S
C930 H942 0.960 . S
C930 H943 0.962 . S
C930 H944 0.960 . S
C931 C928 1.511 . S
C931 H945 0.961 . S
C931 H946 0.961 . S
C931 H947 0.961 . S
C932 C933 1.370 . S
C932 C934 1.363 . S
C932 H948 0.931 . S
C933 C932 1.370 . S
C933 C937 1.408 . S
C934 C932 1.363 . S
C934 C935 1.370 . S
C934 C938 1.524 . S
C935 C927 1.503 . S
C935 C934 1.370 . S
C935 C936 1.403 . S
C936 C935 1.403 . S
C936 C937 1.404 . S
C936 C939 1.539 . S
C937 C933 1.408 . S
C937 C936 1.404 . S
C937 H949 0.930 . S
C938 C934 1.524 . S
C938 H950 0.956 . S
C938 H951 0.961 . S
C938 H952 0.961 . S
C939 C936 1.539 . S
C939 H953 0.958 . S
C939 H954 0.961 . S
C939 H955 0.960 . S
H940 C924 0.931 . S
H941 C929 0.929 . S
H942 C930 0.960 . S
H943 C930 0.962 . S
H944 C930 0.960 . S
H945 C931 0.961 . S
H946 C931 0.961 . S
H947 C931 0.961 . S
H948 C932 0.931 . S
H949 C937 0.930 . S
H950 C938 0.956 . S
H951 C938 0.961 . S
H952 C938 0.961 . S
H953 C939 0.958 . S
H954 C939 0.961 . S
H955 C939 0.960 . S
C956 C957 1.391 1_455 S
C956 C958 1.394 . S
C956 H972 0.931 . S
C957 C956 1.391 1_655 S
C957 C961 1.376 . S
C958 C956 1.394 . S
C958 C959 1.369 . S
C958 C962 1.531 . S
C959 C958 1.369 . S
C959 C960 1.410 1_455 S
C959 C967 1.503 . S
C960 C959 1.410 1_655 S
C960 C961 1.392 . S
C960 C963 1.511 . S
C961 C957 1.376 . S
C961 C960 1.392 . S
C961 H973 0.929 . S
C962 C958 1.531 . S
C962 H974 0.960 . S
C962 H975 0.962 . S
C962 H976 0.960 . S
C963 C960 1.511 . S
C963 H977 0.961 . S
C963 H978 0.961 . S
C963 H979 0.961 . S
C964 C965 1.370 . S
C964 C966 1.363 . S
C964 H980 0.931 . S
C965 C964 1.370 . S
C965 C969 1.408 . S
C966 C964 1.363 . S
C966 C967 1.370 . S
C966 C970 1.524 . S
C967 C959 1.503 . S
C967 C966 1.370 . S
C967 C968 1.403 . S
C968 C967 1.403 . S
C968 C969 1.404 . S
C968 C971 1.539 . S
C969 C965 1.408 . S
C969 C968 1.404 . S
C969 H981 0.930 . S
C970 C966 1.524 . S
C970 H982 0.956 . S
C970 H983 0.961 . S
C970 H984 0.961 . S
C971 C968 1.539 . S
C971 H985 0.958 . S
C971 H986 0.961 . S
C971 H987 0.960 . S
H972 C956 0.931 . S
H973 C961 0.929 . S
H974 C962 0.960 . S
H975 C962 0.962 . S
H976 C962 0.960 . S
H977 C963 0.961 . S
H978 C963 0.961 . S
H979 C963 0.961 . S
H980 C964 0.931 . S
H981 C969 0.930 . S
H982 C970 0.956 . S
H983 C970 0.961 . S
H984 C970 0.961 . S
H985 C971 0.958 . S
H986 C971 0.961 . S
H987 C971 0.960 . S
C988 C989 1.391 1_545 S
C988 C990 1.394 . S
C988 H1004 0.931 . S
C989 C988 1.391 1_565 S
C989 C993 1.376 . S
C990 C988 1.394 . S
C990 C991 1.369 . S
C990 C994 1.531 . S
C991 C990 1.369 . S
C991 C992 1.410 1_545 S
C991 C999 1.503 . S
C992 C991 1.410 1_565 S
C992 C993 1.392 . S
C992 C995 1.511 . S
C993 C989 1.376 . S
C993 C992 1.392 . S
C993 H1005 0.929 . S
C994 C990 1.531 . S
C994 H1006 0.960 . S
C994 H1007 0.962 . S
C994 H1008 0.960 . S
C995 C992 1.511 . S
C995 H1009 0.961 . S
C995 H1010 0.961 . S
C995 H1011 0.961 . S
C996 C997 1.370 . S
C996 C998 1.363 . S
C996 H1012 0.931 . S
C997 C996 1.370 . S
C997 C1001 1.408 . S
C998 C996 1.363 . S
C998 C999 1.370 . S
C998 C1002 1.524 . S
C999 C991 1.503 . S
C999 C998 1.370 . S
C999 C1000 1.403 . S
C1000 C999 1.403 . S
C1000 C1001 1.404 . S
C1000 C1003 1.539 . S
C1001 C997 1.408 . S
C1001 C1000 1.404 . S
C1001 H1013 0.930 . S
C1002 C998 1.524 . S
C1002 H1014 0.956 . S
C1002 H1015 0.961 1_545 S
C1002 H1016 0.961 . S
C1003 C1000 1.539 . S
C1003 H1017 0.958 . S
C1003 H1018 0.961 . S
C1003 H1019 0.960 . S
H1004 C988 0.931 . S
H1005 C993 0.929 . S
H1006 C994 0.960 . S
H1007 C994 0.962 . S
H1008 C994 0.960 . S
H1009 C995 0.961 . S
H1010 C995 0.961 . S
H1011 C995 0.961 . S
H1012 C996 0.931 . S
H1013 C1001 0.930 . S
H1014 C1002 0.956 . S
H1015 C1002 0.961 1_565 S
H1016 C1002 0.961 . S
H1017 C1003 0.958 . S
H1018 C1003 0.961 . S
H1019 C1003 0.960 . S
C1020 C1021 1.391 . S
C1020 C1022 1.394 . S
C1020 H1036 0.931 . S
C1021 C1020 1.391 . S
C1021 C1025 1.376 . S
C1022 C1020 1.394 . S
C1022 C1023 1.369 . S
C1022 C1026 1.531 . S
C1023 C1022 1.369 . S
C1023 C1024 1.410 . S
C1023 C1031 1.503 . S
C1024 C1023 1.410 . S
C1024 C1025 1.392 . S
C1024 C1027 1.511 . S
C1025 C1021 1.376 . S
C1025 C1024 1.392 . S
C1025 H1037 0.929 . S
C1026 C1022 1.531 . S
C1026 H1038 0.960 . S
C1026 H1039 0.962 . S
C1026 H1040 0.960 . S
C1027 C1024 1.511 . S
C1027 H1041 0.961 . S
C1027 H1042 0.961 . S
C1027 H1043 0.961 . S
C1028 C1029 1.370 . S
C1028 C1030 1.363 . S
C1028 H1044 0.931 . S
C1029 C1028 1.370 . S
C1029 C1033 1.408 . S
C1030 C1028 1.363 . S
C1030 C1031 1.370 . S
C1030 C1034 1.524 . S
C1031 C1023 1.503 . S
C1031 C1030 1.370 . S
C1031 C1032 1.403 . S
C1032 C1031 1.403 . S
C1032 C1033 1.404 . S
C1032 C1035 1.539 . S
C1033 C1029 1.408 . S
C1033 C1032 1.404 . S
C1033 H1045 0.930 . S
C1034 C1030 1.524 . S
C1034 H1046 0.956 . S
C1034 H1047 0.961 . S
C1034 H1048 0.961 . S
C1035 C1032 1.539 . S
C1035 H1049 0.958 . S
C1035 H1050 0.961 . S
C1035 H1051 0.960 . S
H1036 C1020 0.931 . S
H1037 C1025 0.929 . S
H1038 C1026 0.960 . S
H1039 C1026 0.962 . S
H1040 C1026 0.960 . S
H1041 C1027 0.961 . S
H1042 C1027 0.961 . S
H1043 C1027 0.961 . S
H1044 C1028 0.931 . S
H1045 C1033 0.930 . S
H1046 C1034 0.956 . S
H1047 C1034 0.961 . S
H1048 C1034 0.961 . S
H1049 C1035 0.958 . S
H1050 C1035 0.961 . S
H1051 C1035 0.960 . S
C1052 C1053 1.391 . S
C1052 C1054 1.394 . S
C1052 H1068 0.931 . S
C1053 C1052 1.391 . S
C1053 C1057 1.376 . S
C1054 C1052 1.394 . S
C1054 C1055 1.369 . S
C1054 C1058 1.531 . S
C1055 C1054 1.369 . S
C1055 C1056 1.410 . S
C1055 C1063 1.503 . S
C1056 C1055 1.410 . S
C1056 C1057 1.392 . S
C1056 C1059 1.511 . S
C1057 C1053 1.376 . S
C1057 C1056 1.392 . S
C1057 H1069 0.929 . S
C1058 C1054 1.531 . S
C1058 H1070 0.960 . S
C1058 H1071 0.962 . S
C1058 H1072 0.960 . S
C1059 C1056 1.511 . S
C1059 H1073 0.961 . S
C1059 H1074 0.961 . S
C1059 H1075 0.961 . S
C1060 C1061 1.370 . S
C1060 C1062 1.363 . S
C1060 H1076 0.931 . S
C1061 C1060 1.370 . S
C1061 C1065 1.408 . S
C1062 C1060 1.363 . S
C1062 C1063 1.370 . S
C1062 C1066 1.524 . S
C1063 C1055 1.503 . S
C1063 C1062 1.370 . S
C1063 C1064 1.403 . S
C1064 C1063 1.403 . S
C1064 C1065 1.404 . S
C1064 C1067 1.539 . S
C1065 C1061 1.408 . S
C1065 C1064 1.404 . S
C1065 H1077 0.930 . S
C1066 C1062 1.524 . S
C1066 H1078 0.956 . S
C1066 H1079 0.961 . S
C1066 H1080 0.961 . S
C1067 C1064 1.539 . S
C1067 H1081 0.958 . S
C1067 H1082 0.961 . S
C1067 H1083 0.960 . S
H1068 C1052 0.931 . S
H1069 C1057 0.929 . S
H1070 C1058 0.960 . S
H1071 C1058 0.962 . S
H1072 C1058 0.960 . S
H1073 C1059 0.961 . S
H1074 C1059 0.961 . S
H1075 C1059 0.961 . S
H1076 C1060 0.931 . S
H1077 C1065 0.930 . S
H1078 C1066 0.956 . S
H1079 C1066 0.961 . S
H1080 C1066 0.961 . S
H1081 C1067 0.958 . S
H1082 C1067 0.961 . S
H1083 C1067 0.960 . S
C1084 C1085 1.391 1_556 S
C1084 C1086 1.394 . S
C1084 H1100 0.931 . S
C1085 C1084 1.391 1_554 S
C1085 C1089 1.376 . S
C1086 C1084 1.394 . S
C1086 C1087 1.369 . S
C1086 C1090 1.531 . S
C1087 C1086 1.369 . S
C1087 C1088 1.410 1_556 S
C1087 C1095 1.503 . S
C1088 C1087 1.410 1_554 S
C1088 C1089 1.392 . S
C1088 C1091 1.511 . S
C1089 C1085 1.376 . S
C1089 C1088 1.392 . S
C1089 H1101 0.929 . S
C1090 C1086 1.531 . S
C1090 H1102 0.960 . S
C1090 H1103 0.962 . S
C1090 H1104 0.960 . S
C1091 C1088 1.511 . S
C1091 H1105 0.961 . S
C1091 H1106 0.961 . S
C1091 H1107 0.961 . S
C1092 C1093 1.370 . S
C1092 C1094 1.363 . S
C1092 H1108 0.931 . S
C1093 C1092 1.370 . S
C1093 C1097 1.408 . S
C1094 C1092 1.363 . S
C1094 C1095 1.370 . S
C1094 C1098 1.524 . S
C1095 C1087 1.503 . S
C1095 C1094 1.370 . S
C1095 C1096 1.403 . S
C1096 C1095 1.403 . S
C1096 C1097 1.404 . S
C1096 C1099 1.539 . S
C1097 C1093 1.408 . S
C1097 C1096 1.404 . S
C1097 H1109 0.930 . S
C1098 C1094 1.524 . S
C1098 H1110 0.956 . S
C1098 H1111 0.961 1_556 S
C1098 H1112 0.961 . S
C1099 C1096 1.539 . S
C1099 H1113 0.958 . S
C1099 H1114 0.961 . S
C1099 H1115 0.960 . S
H1100 C1084 0.931 . S
H1101 C1089 0.929 . S
H1102 C1090 0.960 . S
H1103 C1090 0.962 . S
H1104 C1090 0.960 . S
H1105 C1091 0.961 . S
H1106 C1091 0.961 . S
H1107 C1091 0.961 . S
H1108 C1092 0.931 . S
H1109 C1097 0.930 . S
H1110 C1098 0.956 . S
H1111 C1098 0.961 1_554 S
H1112 C1098 0.961 . S
H1113 C1099 0.958 . S
H1114 C1099 0.961 . S
H1115 C1099 0.960 . S
C1116 C1117 1.391 1_554 S
C1116 C1118 1.394 1_554 S
C1116 H1132 0.931 . S
C1117 C1116 1.391 1_556 S
C1117 C1121 1.376 . S
C1118 C1116 1.394 1_556 S
C1118 C1119 1.369 . S
C1118 C1122 1.531 1_556 S
C1119 C1118 1.369 . S
C1119 C1120 1.410 . S
C1119 C1127 1.503 . S
C1120 C1119 1.410 . S
C1120 C1121 1.393 . S
C1120 C1123 1.511 . S
C1121 C1117 1.376 . S
C1121 C1120 1.393 . S
C1121 H1133 0.928 1_565 S
C1122 C1118 1.531 1_554 S
C1122 H1134 0.959 1_554 S
C1122 H1135 0.962 1_565 S
C1122 H1136 0.960 . S
C1123 C1120 1.511 . S
C1123 H1137 0.963 1_565 S
C1123 H1138 0.963 1_565 S
C1123 H1139 0.957 . S
C1124 C1125 1.370 1_545 S
C1124 C1126 1.363 . S
C1124 H1140 0.931 . S
C1125 C1124 1.370 1_565 S
C1125 C1129 1.408 . S
C1126 C1124 1.363 . S
C1126 C1127 1.370 1_545 S
C1126 C1130 1.524 . S
C1127 C1119 1.503 . S
C1127 C1126 1.370 1_565 S
C1127 C1128 1.403 . S
C1128 C1127 1.403 . S
C1128 C1129 1.404 . S
C1128 C1131 1.539 . S
C1129 C1125 1.408 . S
C1129 C1128 1.404 . S
C1129 H1141 0.930 . S
C1130 C1126 1.524 . S
C1130 H1142 0.956 . S
C1130 H1143 0.961 . S
C1130 H1144 0.961 . S
C1131 C1128 1.539 . S
C1131 H1145 0.958 . S
C1131 H1146 0.961 . S
C1131 H1147 0.960 . S
H1132 C1116 0.931 . S
H1133 C1121 0.928 1_545 S
H1134 C1122 0.959 1_556 S
H1135 C1122 0.962 1_545 S
H1136 C1122 0.960 . S
H1137 C1123 0.963 1_545 S
H1138 C1123 0.963 1_545 S
H1139 C1123 0.957 . S
H1140 C1124 0.931 . S
H1141 C1129 0.930 . S
H1142 C1130 0.956 . S
H1143 C1130 0.961 . S
H1144 C1130 0.961 . S
H1145 C1131 0.958 . S
H1146 C1131 0.961 . S
H1147 C1131 0.960 . S
C1148 C1149 1.391 . S
C1148 C1150 1.394 . S
C1148 H1164 0.931 1_556 S
C1149 C1148 1.391 . S
C1149 C1153 1.376 . S
C1150 C1148 1.394 . S
C1150 C1151 1.369 . S
C1150 C1154 1.531 . S
C1151 C1150 1.369 . S
C1151 C1152 1.410 . S
C1151 C1159 1.503 . S
C1152 C1151 1.410 . S
C1152 C1153 1.392 . S
C1152 C1155 1.511 . S
C1153 C1149 1.376 . S
C1153 C1152 1.392 . S
C1153 H1165 0.929 . S
C1154 C1150 1.531 . S
C1154 H1166 0.960 . S
C1154 H1167 0.962 . S
C1154 H1168 0.960 1_556 S
C1155 C1152 1.511 . S
C1155 H1169 0.961 . S
C1155 H1170 0.961 . S
C1155 H1171 0.961 . S
C1156 C1157 1.370 . S
C1156 C1158 1.363 . S
C1156 H1172 0.931 . S
C1157 C1156 1.370 . S
C1157 C1161 1.408 . S
C1158 C1156 1.363 . S
C1158 C1159 1.370 . S
C1158 C1162 1.524 . S
C1159 C1151 1.503 . S
C1159 C1158 1.370 . S
C1159 C1160 1.403 . S
C1160 C1159 1.403 . S
C1160 C1161 1.404 . S
C1160 C1163 1.539 . S
C1161 C1157 1.408 . S
C1161 C1160 1.404 . S
C1161 H1173 0.930 . S
C1162 C1158 1.524 . S
C1162 H1174 0.956 . S
C1162 H1175 0.961 . S
C1162 H1176 0.961 . S
C1163 C1160 1.539 . S
C1163 H1177 0.958 . S
C1163 H1178 0.961 . S
C1163 H1179 0.960 . S
H1164 C1148 0.931 1_554 S
H1165 C1153 0.929 . S
H1166 C1154 0.960 . S
H1167 C1154 0.962 . S
H1168 C1154 0.960 1_554 S
H1169 C1155 0.961 . S
H1170 C1155 0.961 . S
H1171 C1155 0.961 . S
H1172 C1156 0.931 . S
H1173 C1161 0.930 . S
H1174 C1162 0.956 . S
H1175 C1162 0.961 . S
H1176 C1162 0.961 . S
H1177 C1163 0.958 . S
H1178 C1163 0.961 . S
H1179 C1163 0.960 . S
C1180 C1181 1.391 . S
C1180 C1182 1.394 . S
C1180 H1196 0.931 1_556 S
C1181 C1180 1.391 . S
C1181 C1185 1.376 . S
C1182 C1180 1.394 . S
C1182 C1183 1.369 . S
C1182 C1186 1.531 . S
C1183 C1182 1.369 . S
C1183 C1184 1.410 . S
C1183 C1191 1.503 . S
C1184 C1183 1.410 . S
C1184 C1185 1.392 . S
C1184 C1187 1.511 . S
C1185 C1181 1.376 . S
C1185 C1184 1.392 . S
C1185 H1197 0.929 . S
C1186 C1182 1.531 . S
C1186 H1198 0.960 . S
C1186 H1199 0.970 . S
C1186 H1200 0.960 . S
C1187 C1184 1.511 . S
C1187 H1201 0.961 . S
C1187 H1202 0.961 . S
C1187 H1203 0.961 . S
C1188 C1189 1.370 . S
C1188 C1190 1.363 . S
C1188 H1204 0.931 . S
C1189 C1188 1.370 . S
C1189 C1193 1.408 . S
C1190 C1188 1.363 . S
C1190 C1191 1.370 . S
C1190 C1194 1.524 . S
C1191 C1183 1.503 . S
C1191 C1190 1.370 . S
C1191 C1192 1.403 . S
C1192 C1191 1.403 . S
C1192 C1193 1.404 . S
C1192 C1195 1.539 . S
C1193 C1189 1.408 . S
C1193 C1192 1.404 . S
C1193 H1205 0.930 . S
C1194 C1190 1.524 . S
C1194 H1206 0.956 . S
C1194 H1207 0.961 . S
C1194 H1208 0.961 . S
C1195 C1192 1.539 . S
C1195 H1209 0.958 . S
C1195 H1210 0.961 . S
C1195 H1211 0.960 . S
H1196 C1180 0.931 1_554 S
H1197 C1185 0.929 . S
H1198 C1186 0.960 . S
H1199 C1186 0.970 . S
H1200 C1186 0.960 . S
H1201 C1187 0.961 . S
H1202 C1187 0.961 . S
H1203 C1187 0.961 . S
H1204 C1188 0.931 . S
H1205 C1193 0.930 . S
H1206 C1194 0.956 . S
H1207 C1194 0.961 . S
H1208 C1194 0.961 . S
H1209 C1195 0.958 . S
H1210 C1195 0.961 . S
H1211 C1195 0.960 . S
C1212 C1213 1.391 . S
C1212 C1214 1.394 . S
C1212 H1228 0.931 . S
C1213 C1212 1.391 . S
C1213 C1217 1.376 1_655 S
C1214 C1212 1.394 . S
C1214 C1215 1.369 . S
C1214 C1218 1.531 . S
C1215 C1214 1.369 . S
C1215 C1216 1.410 1_655 S
C1215 C1223 1.503 . S
C1216 C1215 1.410 1_455 S
C1216 C1217 1.392 . S
C1216 C1219 1.511 . S
C1217 C1213 1.376 1_455 S
C1217 C1216 1.392 . S
C1217 H1229 0.929 . S
C1218 C1214 1.531 . S
C1218 H1230 0.960 . S
C1218 H1231 0.962 . S
C1218 H1232 0.960 . S
C1219 C1216 1.511 . S
C1219 H1233 0.961 . S
C1219 H1234 0.961 . S
C1219 H1235 0.961 . S
C1220 C1221 1.370 . S
C1220 C1222 1.363 . S
C1220 H1236 0.931 . S
C1221 C1220 1.370 . S
C1221 C1225 1.408 1_655 S
C1222 C1220 1.363 . S
C1222 C1223 1.370 . S
C1222 C1226 1.524 . S
C1223 C1215 1.503 . S
C1223 C1222 1.370 . S
C1223 C1224 1.403 1_655 S
C1224 C1223 1.403 1_455 S
C1224 C1225 1.404 . S
C1224 C1227 1.539 . S
C1225 C1221 1.408 1_455 S
C1225 C1224 1.404 . S
C1225 H1237 0.930 . S
C1226 C1222 1.524 . S
C1226 H1238 0.956 . S
C1226 H1239 0.961 . S
C1226 H1240 0.961 . S
C1227 C1224 1.539 . S
C1227 H1241 0.958 1_455 S
C1227 H1242 0.961 . S
C1227 H1243 0.960 . S
H1228 C1212 0.931 . S
H1229 C1217 0.929 . S
H1230 C1218 0.960 . S
H1231 C1218 0.962 . S
H1232 C1218 0.960 . S
H1233 C1219 0.961 . S
H1234 C1219 0.961 . S
H1235 C1219 0.961 . S
H1236 C1220 0.931 . S
H1237 C1225 0.930 . S
H1238 C1226 0.956 . S
H1239 C1226 0.961 . S
H1240 C1226 0.961 . S
H1241 C1227 0.958 1_655 S
H1242 C1227 0.961 . S
H1243 C1227 0.960 . S
C1244 C1245 1.391 . S
C1244 C1246 1.394 . S
C1244 H1260 0.925 1_565 S
C1245 C1244 1.391 . S
C1245 C1249 1.376 . S
C1246 C1244 1.394 . S
C1246 C1247 1.369 . S
C1246 C1250 1.531 . S
C1247 C1246 1.369 . S
C1247 C1248 1.410 . S
C1247 C1255 1.503 . S
C1248 C1247 1.410 . S
C1248 C1249 1.392 . S
C1248 C1251 1.511 . S
C1249 C1245 1.376 . S
C1249 C1248 1.392 . S
C1249 H1261 0.929 . S
C1250 C1246 1.531 . S
C1250 H1262 0.960 . S
C1250 H1263 0.962 1_565 S
C1250 H1264 0.960 . S
C1251 C1248 1.511 . S
C1251 H1265 0.961 . S
C1251 H1266 0.961 . S
C1251 H1267 0.961 . S
C1252 C1253 1.370 1_545 S
C1252 C1254 1.363 . S
C1252 H1268 0.931 . S
C1253 C1252 1.370 1_565 S
C1253 C1257 1.408 . S
C1254 C1252 1.363 . S
C1254 C1255 1.370 1_545 S
C1254 C1258 1.524 . S
C1255 C1247 1.503 . S
C1255 C1254 1.370 1_565 S
C1255 C1256 1.403 . S
C1256 C1255 1.403 . S
C1256 C1257 1.404 . S
C1256 C1259 1.539 . S
C1257 C1253 1.408 . S
C1257 C1256 1.404 . S
C1257 H1269 0.930 . S
C1258 C1254 1.524 . S
C1258 H1270 0.956 . S
C1258 H1271 0.961 . S
C1258 H1272 0.961 . S
C1259 C1256 1.539 . S
C1259 H1273 0.958 . S
C1259 H1274 0.961 . S
C1259 H1275 0.960 . S
H1260 C1244 0.925 1_545 S
H1261 C1249 0.929 . S
H1262 C1250 0.960 . S
H1263 C1250 0.962 1_545 S
H1264 C1250 0.960 . S
H1265 C1251 0.961 . S
H1266 C1251 0.961 . S
H1267 C1251 0.961 . S
H1268 C1252 0.931 . S
H1269 C1257 0.930 . S
H1270 C1258 0.956 . S
H1271 C1258 0.961 . S
H1272 C1258 0.961 . S
H1273 C1259 0.958 . S
H1274 C1259 0.961 . S
H1275 C1259 0.960 . S
C1276 C1277 1.391 . S
C1276 C1278 1.394 . S
C1276 H1292 0.931 . S
C1277 C1276 1.391 . S
C1277 C1281 1.376 . S
C1278 C1276 1.394 . S
C1278 C1279 1.369 . S
C1278 C1282 1.531 . S
C1279 C1278 1.369 . S
C1279 C1280 1.410 . S
C1279 C1287 1.503 . S
C1280 C1279 1.410 . S
C1280 C1281 1.392 . S
C1280 C1283 1.511 . S
C1281 C1277 1.376 . S
C1281 C1280 1.392 . S
C1281 H1293 0.929 . S
C1282 C1278 1.531 . S
C1282 H1294 0.960 . S
C1282 H1295 0.962 . S
C1282 H1296 0.960 . S
C1283 C1280 1.511 . S
C1283 H1297 0.961 . S
C1283 H1298 0.961 . S
C1283 H1299 0.961 . S
C1284 C1285 1.370 . S
C1284 C1286 1.363 . S
C1284 H1300 0.931 . S
C1285 C1284 1.370 . S
C1285 C1289 1.408 . S
C1286 C1284 1.363 . S
C1286 C1287 1.370 . S
C1286 C1290 1.524 . S
C1287 C1279 1.503 . S
C1287 C1286 1.370 . S
C1287 C1288 1.403 . S
C1288 C1287 1.403 . S
C1288 C1289 1.404 . S
C1288 C1291 1.539 . S
C1289 C1285 1.408 . S
C1289 C1288 1.404 . S
C1289 H1301 0.930 . S
C1290 C1286 1.524 . S
C1290 H1302 0.956 . S
C1290 H1303 0.961 . S
C1290 H1304 0.961 . S
C1291 C1288 1.539 . S
C1291 H1305 0.958 . S
C1291 H1306 0.961 . S
C1291 H1307 0.960 . S
H1292 C1276 0.931 . S
H1293 C1281 0.929 . S
H1294 C1282 0.960 . S
H1295 C1282 0.962 . S
H1296 C1282 0.960 . S
H1297 C1283 0.961 . S
H1298 C1283 0.961 . S
H1299 C1283 0.961 . S
H1300 C1284 0.931 . S
H1301 C1289 0.930 . S
H1302 C1290 0.956 . S
H1303 C1290 0.961 . S
H1304 C1290 0.961 . S
H1305 C1291 0.958 . S
H1306 C1291 0.961 . S
H1307 C1291 0.960 . S
C1308 C1309 1.391 . S
C1308 C1310 1.394 . S
C1308 H1324 0.931 . S
C1309 C1308 1.391 . S
C1309 C1313 1.376 . S
C1310 C1308 1.394 . S
C1310 C1311 1.369 . S
C1310 C1314 1.531 . S
C1311 C1310 1.369 . S
C1311 C1312 1.410 . S
C1311 C1319 1.503 . S
C1312 C1311 1.410 . S
C1312 C1313 1.392 . S
C1312 C1315 1.511 . S
C1313 C1309 1.376 . S
C1313 C1312 1.392 . S
C1313 H1325 0.929 . S
C1314 C1310 1.531 . S
C1314 H1326 0.960 . S
C1314 H1327 0.962 . S
C1314 H1328 0.960 . S
C1315 C1312 1.511 . S
C1315 H1329 0.961 . S
C1315 H1330 0.961 . S
C1315 H1331 0.961 . S
C1316 C1317 1.370 . S
C1316 C1318 1.363 . S
C1316 H1332 0.931 . S
C1317 C1316 1.370 . S
C1317 C1321 1.408 . S
C1318 C1316 1.363 . S
C1318 C1319 1.370 . S
C1318 C1322 1.524 . S
C1319 C1311 1.503 . S
C1319 C1318 1.370 . S
C1319 C1320 1.403 . S
C1320 C1319 1.403 . S
C1320 C1321 1.404 . S
C1320 C1323 1.539 . S
C1321 C1317 1.408 . S
C1321 C1320 1.404 . S
C1321 H1333 0.930 . S
C1322 C1318 1.524 . S
C1322 H1334 0.956 . S
C1322 H1335 0.961 . S
C1322 H1336 0.961 . S
C1323 C1320 1.539 . S
C1323 H1337 0.958 . S
C1323 H1338 0.961 . S
C1323 H1339 0.960 . S
H1324 C1308 0.931 . S
H1325 C1313 0.929 . S
H1326 C1314 0.960 . S
H1327 C1314 0.962 . S
H1328 C1314 0.960 . S
H1329 C1315 0.961 . S
H1330 C1315 0.961 . S
H1331 C1315 0.961 . S
H1332 C1316 0.931 . S
H1333 C1321 0.930 . S
H1334 C1322 0.956 . S
H1335 C1322 0.961 . S
H1336 C1322 0.961 . S
H1337 C1323 0.958 . S
H1338 C1323 0.961 . S
H1339 C1323 0.960 . S
C573 C391 1.745 1_565 S
C581 C496 1.684 . S
C613 C519 1.881 . S
C605 C451 1.929 . S
C645 C542 1.748 . S
C637 C241 1.678 . S
C677 C569 1.652 . S
C669 C331 1.567 . S
C709 C497 1.609 . S
C701 C121 1.534 1_546 S
C733 C211 1.631 1_556 S
C741 C520 1.675 . S
C765 C31 1.531 . S
C773 C543 1.505 . S
C797 C91 1.657 . S
C805 C568 1.715 . S
C837 C498 0.136 . S
C829 C301 0.861 . S
C869 C521 0.262 . S
C861 C380 0.363 . S
C901 C544 0.115 . S
C893 C440 0.185 . S
C925 C260 0.594 . S
C933 C570 0.585 . S
C957 C61 0.574 . S
C965 C501 0.620 . S
C997 C524 0.639 . S
C989 C140 0.611 . S
C1029 C547 0.655 . S
C1021 C200 0.528 . S
C1053 C20 0.150 . S
C1061 C567 0.165 . S
C1085 C320 1.990 . S
C1093 C499 1.951 . S
C1117 C361 1.730 1_566 S
C1125 C522 1.893 1_565 S
C1157 C545 1.935 . S
C1149 C421 1.748 1_556 S
C1189 C566 1.657 . S
C1181 C271 1.664 1_556 S
C1213 C80 2.048 . S
C1221 C500 1.917 1_655 S
C1253 C523 1.809 . S
C1245 C151 1.855 . S
C1285 C546 1.789 . S
C1277 C181 1.654 . S
C1309 C1 1.848 . S
C1317 C565 2.054 . S
