# Generated by pormake.
# Topology pyr, (3,6)-cn, num edge types: 1
# Building blocks:
#     Node 0, Type 0, BuildingBlock: BELTOD_clean_linker_0, # of connection points: 3
#     Node 1, Type 0, BuildingBlock: BELTOD_clean_linker_0, # of connection points: 3
#     Node 2, Type 0, BuildingBlock: BELTOD_clean_linker_0, # of connection points: 3
#     Node 3, Type 0, BuildingBlock: BELTOD_clean_linker_0, # of connection points: 3
#     Node 4, Type 0, BuildingBlock: BELTOD_clean_linker_0, # of connection points: 3
#     Node 5, Type 0, BuildingBlock: BELTOD_clean_linker_0, # of connection points: 3
#     Node 6, Type 0, BuildingBlock: BELTOD_clean_linker_0, # of connection points: 3
#     Node 7, Type 0, BuildingBlock: BELTOD_clean_linker_0, # of connection points: 3
#     Node 8, Type 1, BuildingBlock: PAMTOO_clean_sbu_0, # of connection points: 6
#     Node 9, Type 1, BuildingBlock: PAMTOO_clean_sbu_0, # of connection points: 6
#     Node 10, Type 1, BuildingBlock: PAMTOO_clean_sbu_0, # of connection points: 6
#     Node 11, Type 1, BuildingBlock: PAMTOO_clean_sbu_0, # of connection points: 6
#     Edge 12, Type (0, 1), BuildingBlock: UVAHIK_clean_linker_0, # of connection points: 2
#     Edge 13, Type (0, 1), BuildingBlock: UVAHIK_clean_linker_0, # of connection points: 2
#     Edge 14, Type (0, 1), BuildingBlock: UVAHIK_clean_linker_0, # of connection points: 2
#     Edge 15, Type (0, 1), BuildingBlock: UVAHIK_clean_linker_0, # of connection points: 2
#     Edge 16, Type (0, 1), BuildingBlock: UVAHIK_clean_linker_0, # of connection points: 2
#     Edge 17, Type (0, 1), BuildingBlock: UVAHIK_clean_linker_0, # of connection points: 2
#     Edge 18, Type (0, 1), BuildingBlock: UVAHIK_clean_linker_0, # of connection points: 2
#     Edge 19, Type (0, 1), BuildingBlock: UVAHIK_clean_linker_0, # of connection points: 2
#     Edge 20, Type (0, 1), BuildingBlock: UVAHIK_clean_linker_0, # of connection points: 2
#     Edge 21, Type (0, 1), BuildingBlock: UVAHIK_clean_linker_0, # of connection points: 2
#     Edge 22, Type (0, 1), BuildingBlock: UVAHIK_clean_linker_0, # of connection points: 2
#     Edge 23, Type (0, 1), BuildingBlock: UVAHIK_clean_linker_0, # of connection points: 2
#     Edge 24, Type (0, 1), BuildingBlock: UVAHIK_clean_linker_0, # of connection points: 2
#     Edge 25, Type (0, 1), BuildingBlock: UVAHIK_clean_linker_0, # of connection points: 2
#     Edge 26, Type (0, 1), BuildingBlock: UVAHIK_clean_linker_0, # of connection points: 2
#     Edge 27, Type (0, 1), BuildingBlock: UVAHIK_clean_linker_0, # of connection points: 2
#     Edge 28, Type (0, 1), BuildingBlock: UVAHIK_clean_linker_0, # of connection points: 2
#     Edge 29, Type (0, 1), BuildingBlock: UVAHIK_clean_linker_0, # of connection points: 2
#     Edge 30, Type (0, 1), BuildingBlock: UVAHIK_clean_linker_0, # of connection points: 2
#     Edge 31, Type (0, 1), BuildingBlock: UVAHIK_clean_linker_0, # of connection points: 2
#     Edge 32, Type (0, 1), BuildingBlock: UVAHIK_clean_linker_0, # of connection points: 2
#     Edge 33, Type (0, 1), BuildingBlock: UVAHIK_clean_linker_0, # of connection points: 2
#     Edge 34, Type (0, 1), BuildingBlock: UVAHIK_clean_linker_0, # of connection points: 2
#     Edge 35, Type (0, 1), BuildingBlock: UVAHIK_clean_linker_0, # of connection points: 2
# Relax obj value: 0.077
# Max RMSD: 0.149
# Mean RMSD: 0.065
data_MOF--net-pyr--node1-PAMTOO_clean_sbu_0--node2-BELTOD_clean_linker_0--edge1-UVAHIK_clean_linker_0
_symmetry_space_group_name_H-M    P1
_symmetry_Int_Tables_number       1
_symmetry_cell_setting            triclinic
loop_
_symmetry_equiv_pos_as_xyz
'x, y, z'
_cell_length_a     52.582865
_cell_length_b     55.859147
_cell_length_c     55.778285
_cell_angle_alpha  90.040298
_cell_angle_beta   90.065772
_cell_angle_gamma 101.21792
loop_
_atom_site_label
_atom_site_type_symbol
_atom_site_fract_x
_atom_site_fract_y
_atom_site_fract_z
_atom_type_partial_charge
P0 P 0.34784 0.29174 0.22875 0.0
H1 H 0.37643 0.29574 0.18351 0.0
H2 H 0.39827 0.26741 0.16175 0.0
H3 H 0.37855 0.21452 0.21856 0.0
H4 H 0.35713 0.24287 0.24024 0.0
H5 H 0.3297 0.33762 0.23189 0.0
H6 H 0.29888 0.3551 0.20804 0.0
H7 H 0.29213 0.29479 0.15829 0.0
H8 H 0.32224 0.27706 0.18272 0.0
H9 H 0.34894 0.28804 0.2813 0.0
H10 H 0.29863 0.25788 0.22314 0.0
O11 O 0.36966 0.3129 0.24265 0.0
H12 H 0.31966 0.26337 0.30993 0.0
H13 H 0.26901 0.23384 0.25152 0.0
C14 C 0.36455 0.27118 0.21315 0.0
C15 C 0.37678 0.27801 0.19122 0.0
C16 C 0.38919 0.2618 0.17879 0.0
C17 C 0.38994 0.23865 0.18836 0.0
C18 C 0.37842 0.23225 0.21077 0.0
C19 C 0.36593 0.24841 0.22309 0.0
C20 C 0.32876 0.30639 0.20876 0.0
C21 C 0.32199 0.32846 0.21556 0.0
C22 C 0.30438 0.33844 0.20187 0.0
C23 C 0.29305 0.32639 0.18118 0.0
C24 C 0.30031 0.30445 0.17421 0.0
C25 C 0.31783 0.29446 0.18799 0.0
C26 C 0.32573 0.27503 0.25017 0.0
C27 C 0.33142 0.27639 0.27474 0.0
C28 C 0.31463 0.26235 0.29107 0.0
C29 C 0.29201 0.24663 0.283 0.0
C30 C 0.28641 0.24551 0.25832 0.0
C31 C 0.3032 0.25946 0.24207 0.0
P32 P 0.22887 0.80867 0.68505 0.0
H33 H 0.27751 0.82695 0.7096 0.0
H34 H 0.28902 0.83318 0.75178 0.0
H35 H 0.20982 0.80294 0.77165 0.0
H36 H 0.19837 0.79722 0.72914 0.0
H37 H 0.24235 0.79202 0.63823 0.0
H38 H 0.25654 0.75506 0.62508 0.0
H39 H 0.24126 0.72422 0.69587 0.0
H40 H 0.22727 0.7614 0.70895 0.0
H41 H 0.20109 0.84518 0.70236 0.0
H42 H 0.18629 0.78344 0.65438 0.0
O43 O 0.24881 0.83041 0.67003 0.0
H44 H 0.16062 0.85659 0.69 0.0
H45 H 0.14545 0.79455 0.64212 0.0
C46 C 0.23698 0.81229 0.71631 0.0
C47 C 0.26261 0.82173 0.72303 0.0
C48 C 0.26921 0.82499 0.74719 0.0
C49 C 0.25031 0.8186 0.76511 0.0
C50 C 0.22473 0.80838 0.75827 0.0
C51 C 0.21816 0.80512 0.73402 0.0
C52 C 0.23441 0.77966 0.67467 0.0
C53 C 0.24169 0.77715 0.65081 0.0
C54 C 0.2496 0.75592 0.64328 0.0
C55 C 0.2503 0.73682 0.65953 0.0
C56 C 0.24133 0.7388 0.68306 0.0
C57 C 0.2333 0.76004 0.69054 0.0
C58 C 0.19654 0.81334 0.6795 0.0
C59 C 0.18871 0.83365 0.68969 0.0
C60 C 0.16548 0.84011 0.68265 0.0
C61 C 0.14979 0.82649 0.66505 0.0
C62 C 0.15722 0.80552 0.65558 0.0
C63 C 0.1805 0.79906 0.66268 0.0
P64 P 0.66869 0.34169 0.81356 0.0
H65 H 0.71914 0.33158 0.82658 0.0
H66 H 0.75424 0.35242 0.85203 0.0
H67 H 0.71062 0.40882 0.86684 0.0
H68 H 0.67557 0.38789 0.84075 0.0
H69 H 0.62577 0.30157 0.80212 0.0
H70 H 0.60141 0.26819 0.82584 0.0
H71 H 0.64338 0.29821 0.88923 0.0
H72 H 0.66605 0.33228 0.86576 0.0
H73 H 0.68927 0.38475 0.78531 0.0
H74 H 0.61369 0.34251 0.80191 0.0
O75 O 0.6818 0.32544 0.79358 0.0
H76 H 0.66996 0.40783 0.75552 0.0
H77 H 0.59423 0.36545 0.77205 0.0
C78 C 0.69499 0.35844 0.83135 0.0
C79 C 0.71722 0.34859 0.83504 0.0
C80 C 0.7372 0.36042 0.84986 0.0
C81 C 0.73528 0.3823 0.8616 0.0
C82 C 0.71289 0.39217 0.85786 0.0
C83 C 0.69283 0.38024 0.84298 0.0
C84 C 0.64757 0.3197 0.83207 0.0
C85 C 0.62911 0.30135 0.82127 0.0
C86 C 0.6155 0.28196 0.83488 0.0
C87 C 0.62053 0.28007 0.85958 0.0
C88 C 0.63854 0.29898 0.87042 0.0
C89 C 0.65177 0.31859 0.85686 0.0
C90 C 0.653 0.36195 0.79604 0.0
C91 C 0.66841 0.38083 0.783 0.0
C92 C 0.65733 0.39403 0.76589 0.0
C93 C 0.63053 0.38841 0.7612 0.0
C94 C 0.61498 0.37003 0.77494 0.0
C95 C 0.62611 0.35695 0.79218 0.0
P96 P 0.84186 0.68582 0.30989 0.0
H97 H 0.87767 0.72982 0.29506 0.0
H98 H 0.9007 0.76518 0.31743 0.0
H99 H 0.877 0.72799 0.38398 0.0
H100 H 0.85438 0.6926 0.3615 0.0
H101 H 0.82281 0.6565 0.26854 0.0
H102 H 0.84285 0.63332 0.23974 0.0
H103 H 0.91412 0.64826 0.28068 0.0
H104 H 0.89392 0.67255 0.309 0.0
H105 H 0.79624 0.69778 0.33221 0.0
H106 H 0.83496 0.63652 0.33152 0.0
O107 O 0.82589 0.70132 0.29152 0.0
H108 H 0.763 0.67568 0.35866 0.0
H109 H 0.80187 0.61422 0.35868 0.0
C110 C 0.86406 0.70866 0.32655 0.0
C111 C 0.87793 0.72906 0.31447 0.0
C112 C 0.89088 0.74937 0.3273 0.0
C113 C 0.8903 0.74964 0.35253 0.0
C114 C 0.87787 0.72844 0.36458 0.0
C115 C 0.86484 0.70814 0.3517 0.0
C116 C 0.85693 0.66648 0.29075 0.0
C117 C 0.84274 0.6547 0.2714 0.0
C118 C 0.85425 0.6412 0.25498 0.0
C119 C 0.88027 0.63875 0.25767 0.0
C120 C 0.89423 0.65 0.27767 0.0
C121 C 0.88265 0.66377 0.29405 0.0
C122 C 0.81778 0.66864 0.32956 0.0
C123 C 0.79755 0.67949 0.33778 0.0
C124 C 0.77867 0.66688 0.35316 0.0
C125 C 0.7797 0.64312 0.36093 0.0
C126 C 0.80026 0.63235 0.35284 0.0
C127 C 0.81924 0.64508 0.33736 0.0
P128 P 0.7355 0.80447 0.87276 0.0
H129 H 0.71917 0.82496 0.91676 0.0
H130 H 0.6786 0.83626 0.92877 0.0
H131 H 0.64219 0.80416 0.86373 0.0
H132 H 0.6832 0.79274 0.85181 0.0
H133 H 0.75939 0.78225 0.91177 0.0
H134 H 0.77129 0.7425 0.91608 0.0
H135 H 0.73139 0.71871 0.84988 0.0
H136 H 0.71971 0.75894 0.84561 0.0
H137 H 0.71389 0.83712 0.84055 0.0
H138 H 0.77105 0.79132 0.83722 0.0
O139 O 0.75836 0.82322 0.88816 0.0
H140 H 0.72401 0.85033 0.79948 0.0
H141 H 0.78211 0.80525 0.79648 0.0
C142 C 0.70432 0.80871 0.88308 0.0
C143 C 0.7024 0.82003 0.90521 0.0
C144 C 0.67909 0.8263 0.91216 0.0
C145 C 0.65725 0.8213 0.89708 0.0
C146 C 0.65881 0.80852 0.87556 0.0
C147 C 0.68215 0.80198 0.86875 0.0
C148 C 0.73934 0.77367 0.87805 0.0
C149 C 0.75283 0.76837 0.89837 0.0
C150 C 0.75943 0.74551 0.90091 0.0
C151 C 0.75251 0.72749 0.88318 0.0
C152 C 0.73733 0.73234 0.86365 0.0
C153 C 0.7306 0.75525 0.86121 0.0
C154 C 0.74096 0.81245 0.84167 0.0
C155 C 0.72821 0.82946 0.83084 0.0
C156 C 0.73431 0.8373 0.8074 0.0
C157 C 0.75381 0.82878 0.79458 0.0
C158 C 0.76656 0.81175 0.80556 0.0
C159 C 0.76028 0.80379 0.82893 0.0
P160 P 0.8452 0.29175 0.31559 0.0
H161 H 0.83451 0.34089 0.32159 0.0
H162 H 0.8009 0.35631 0.34364 0.0
H163 H 0.77398 0.28454 0.37365 0.0
H164 H 0.80713 0.2692 0.35112 0.0
H165 H 0.89384 0.29583 0.34234 0.0
H166 H 0.91327 0.26602 0.36444 0.0
H167 H 0.84707 0.20978 0.3467 0.0
H168 H 0.82758 0.23972 0.32539 0.0
H169 H 0.79501 0.29595 0.29423 0.0
H170 H 0.85594 0.25591 0.28072 0.0
O171 O 0.86851 0.31413 0.30556 0.0
H172 H 0.76866 0.27282 0.26292 0.0
H173 H 0.82954 0.23266 0.2492 0.0
C174 C 0.82365 0.30401 0.33506 0.0
C175 C 0.82172 0.32862 0.33331 0.0
C176 C 0.80249 0.33741 0.34595 0.0
C177 C 0.78471 0.32164 0.36038 0.0
C178 C 0.78717 0.29711 0.36249 0.0
C179 C 0.80635 0.28836 0.34983 0.0
C180 C 0.85955 0.26987 0.33183 0.0
C181 C 0.88359 0.27706 0.3432 0.0
C182 C 0.8947 0.25998 0.35575 0.0
C183 C 0.8818 0.23546 0.35725 0.0
C184 C 0.85745 0.22852 0.34613 0.0
C185 C 0.84638 0.2456 0.3337 0.0
C186 C 0.82714 0.27711 0.29034 0.0
C187 C 0.80284 0.2823 0.28447 0.0
C188 C 0.78783 0.26919 0.26638 0.0
C189 C 0.79691 0.25071 0.25383 0.0
C190 C 0.82187 0.2465 0.25888 0.0
C191 C 0.83697 0.25979 0.27684 0.0
P192 P 0.37532 0.66893 0.19272 0.0
H193 H 0.35921 0.66057 0.14322 0.0
H194 H 0.31751 0.64531 0.12396 0.0
H195 H 0.28015 0.63909 0.19325 0.0
H196 H 0.32221 0.65437 0.21246 0.0
H197 H 0.42491 0.70048 0.18134 0.0
H198 H 0.43657 0.74275 0.16817 0.0
H199 H 0.35774 0.75168 0.18025 0.0
H200 H 0.34609 0.70893 0.19276 0.0
H201 H 0.35732 0.62258 0.21678 0.0
H202 H 0.40009 0.69387 0.23599 0.0
O203 O 0.39625 0.65569 0.17762 0.0
H204 H 0.3665 0.60699 0.25607 0.0
H205 H 0.40981 0.67828 0.27534 0.0
C206 C 0.34392 0.65803 0.17929 0.0
C207 C 0.34206 0.65586 0.1543 0.0
C208 C 0.31813 0.64731 0.14328 0.0
C209 C 0.29545 0.64084 0.15705 0.0
C210 C 0.2973 0.64354 0.18215 0.0
C211 C 0.32133 0.65228 0.19316 0.0
C212 C 0.38455 0.70142 0.18767 0.0
C213 C 0.41018 0.71159 0.18142 0.0
C214 C 0.41686 0.73592 0.17399 0.0
C215 C 0.39806 0.75073 0.17284 0.0
C216 C 0.37262 0.74075 0.18039 0.0
C217 C 0.36596 0.71633 0.18777 0.0
C218 C 0.3775 0.65953 0.22357 0.0
C219 C 0.36816 0.63506 0.22969 0.0
C220 C 0.37373 0.62607 0.2521 0.0
C221 C 0.3891 0.6413 0.26887 0.0
C222 C 0.3977 0.66608 0.263 0.0
C223 C 0.39212 0.67505 0.24047 0.0
P224 P 0.17238 0.3372 0.7194 0.0
H225 H 0.18069 0.28733 0.71397 0.0
H226 H 0.15894 0.25246 0.69073 0.0
H227 H 0.10246 0.29397 0.66669 0.0
H228 H 0.1243 0.32899 0.69066 0.0
H229 H 0.20366 0.38662 0.72335 0.0
H230 H 0.23509 0.4111 0.69662 0.0
H231 H 0.21832 0.35448 0.64275 0.0
H232 H 0.18602 0.33101 0.66891 0.0
H233 H 0.14549 0.32081 0.76345 0.0
H234 H 0.15492 0.3849 0.71887 0.0
O235 O 0.19373 0.32755 0.73733 0.0
H236 H 0.12392 0.3411 0.79385 0.0
H237 H 0.13333 0.4055 0.74935 0.0
C238 C 0.15392 0.3107 0.70436 0.0
C239 C 0.16339 0.28891 0.70406 0.0
C240 C 0.15106 0.26899 0.69047 0.0
C241 C 0.12904 0.27039 0.6766 0.0
C242 C 0.11923 0.29215 0.6773 0.0
C243 C 0.13168 0.31219 0.69098 0.0
C244 C 0.19174 0.35727 0.698 0.0
C245 C 0.20607 0.3799 0.70545 0.0
C246 C 0.22447 0.3937 0.69022 0.0
C247 C 0.22955 0.38484 0.66739 0.0
C248 C 0.21476 0.36229 0.65989 0.0
C249 C 0.19614 0.3487 0.675 0.0
C250 C 0.15227 0.35143 0.73906 0.0
C251 C 0.14257 0.33918 0.76004 0.0
C252 C 0.13014 0.35083 0.77743 0.0
C253 C 0.1271 0.3751 0.77426 0.0
C254 C 0.13578 0.38697 0.75262 0.0
C255 C 0.14809 0.37517 0.73511 0.0
Dy256 Dy 0.02706 0.01845 0.49498 0.0
Dy257 Dy 0.97245 0.01253 0.52513 0.0
C258 C 0.01991 0.05631 0.53633 0.0
O259 O 0.02532 0.98561 0.51796 0.0
O260 O 0.99851 0.99456 0.54767 0.0
O261 O 0.06874 0.022 0.49407 0.0
O262 O 0.04665 0.01964 0.46102 0.0
O263 O 0.97021 0.97678 0.5063 0.0
O264 O 0.99777 0.99076 0.47542 0.0
O265 O 0.96688 0.03111 0.49067 0.0
O266 O 0.00891 0.04931 0.483 0.0
O267 O 0.93061 1.00296 0.52577 0.0
O268 O 0.95189 0.01788 0.55747 0.0
C269 C 0.0156 0.98221 0.53963 0.0
O270 O 0.03572 0.04355 0.52655 0.0
O271 O 0.99469 0.04996 0.53359 0.0
C272 C 0.08871 0.04309 0.46034 0.0
C273 C 0.12327 0.08003 0.43627 0.0
C274 C 0.10196 0.08559 0.44884 0.0
C275 C 0.08475 0.06721 0.46076 0.0
C276 C 0.11036 0.03763 0.44857 0.0
C277 C 0.12753 0.05594 0.43665 0.0
C278 C 0.06964 0.02321 0.47072 0.0
C279 C 0.97963 0.97392 0.48491 0.0
C280 C 0.98394 0.04805 0.48006 0.0
C281 C 0.91254 0.99026 0.56331 0.0
C282 C 0.88054 0.95743 0.59389 0.0
C283 C 0.90553 0.95379 0.58796 0.0
C284 C 0.92143 0.97011 0.57276 0.0
C285 C 0.88747 0.99359 0.56863 0.0
C286 C 0.87157 0.97731 0.58376 0.0
C287 C 0.9293 0.00835 0.54842 0.0
H288 H 0.09806 0.10393 0.44871 0.0
H289 H 0.06801 0.07166 0.46976 0.0
H290 H 0.11366 0.01908 0.44814 0.0
H291 H 0.14399 0.05118 0.42745 0.0
H292 H 0.91307 0.93878 0.59563 0.0
H293 H 0.94079 0.96729 0.56873 0.0
H294 H 0.88031 0.00899 0.56132 0.0
H295 H 0.85228 0.98037 0.58766 0.0
Dy296 Dy 0.47379 0.01792 1.00832 0.0
Dy297 Dy 0.52821 0.02542 0.03888 0.0
C298 C 0.48177 0.98059 0.05009 0.0
O299 O 0.47466 0.05096 0.03088 0.0
O300 O 0.50135 0.04279 0.06103 0.0
O301 O 0.43228 0.01531 1.00716 0.0
O302 O 0.45401 0.01426 0.97428 0.0
O303 O 0.52906 0.06066 0.01966 0.0
O304 O 0.50341 0.04478 0.98812 0.0
O305 O 0.53413 1.00624 1.00472 0.0
O306 O 0.49233 0.98699 0.99756 0.0
O307 O 0.56999 0.03557 0.03932 0.0
O308 O 0.54911 0.02191 0.07155 0.0
C309 C 0.48395 0.05463 0.0527 0.0
O310 O 0.46546 0.99236 0.03958 0.0
O311 O 0.50697 0.98794 0.04812 0.0
C312 C 0.41189 0.99088 0.97565 0.0
C313 C 0.37624 0.95125 0.95666 0.0
C314 C 0.39821 0.94728 0.96931 0.0
C315 C 0.41591 0.96697 0.97877 0.0
C316 C 0.38976 0.9949 0.96361 0.0
C317 C 0.37204 0.97525 0.95419 0.0
C318 C 0.43111 0.01178 0.98403 0.0
C319 C 0.52071 0.06239 0.99767 0.0
C320 C 0.51732 0.98876 0.99446 0.0
C321 C 0.58822 0.0502 0.0763 0.0
C322 C 0.62055 0.08549 0.10443 0.0
C323 C 0.5958 0.08896 0.09742 0.0
C324 C 0.57973 0.07142 0.08344 0.0
C325 C 0.61294 0.04683 0.08293 0.0
C326 C 0.629 0.06432 0.09685 0.0
C327 C 0.57155 0.03126 0.06218 0.0
H328 H 0.40185 0.929 0.97167 0.0
H329 H 0.43294 0.96362 0.98815 0.0
H330 H 0.38647 0.01328 0.96102 0.0
H331 H 0.35554 0.97896 0.94424 0.0
H332 H 0.58865 0.10497 0.10313 0.0
H333 H 0.56063 0.07426 0.07839 0.0
H334 H 0.6198 0.03059 0.07742 0.0
H335 H 0.64811 0.0613 0.10157 0.0
Dy336 Dy 0.50485 0.48774 0.50056 0.0
Dy337 Dy 0.50753 0.53832 0.53118 0.0
C338 C 0.53187 0.49533 0.55247 0.0
O339 O 0.46415 0.48634 0.51328 0.0
O340 O 0.47484 0.51083 0.54609 0.0
O341 O 0.49886 0.44836 0.49907 0.0
O342 O 0.50799 0.46965 0.4668 0.0
O343 O 0.47907 0.53995 0.50153 0.0
O344 O 0.49431 0.51496 0.47495 0.0
O345 O 0.5408 0.54629 0.50568 0.0
O346 O 0.54624 0.50719 0.49807 0.0
O347 O 0.50914 0.57723 0.53273 0.0
O348 O 0.50761 0.55627 0.56546 0.0
C349 C 0.45834 0.49426 0.53438 0.0
O350 O 0.51661 0.48037 0.53805 0.0
O351 O 0.53586 0.51905 0.54919 0.0
C352 C 0.52636 0.43503 0.47083 0.0
C353 C 0.56813 0.41332 0.45685 0.0
C354 C 0.57035 0.42885 0.47693 0.0
C355 C 0.54969 0.4397 0.48379 0.0
C356 C 0.5238 0.4192 0.45113 0.0
C357 C 0.5445 0.4084 0.44419 0.0
C358 C 0.50557 0.44819 0.47659 0.0
C359 C 0.4812 0.53216 0.47953 0.0
C360 C 0.55459 0.53095 0.49716 0.0
C361 C 0.48319 0.58697 0.56396 0.0
C362 C 0.4398 0.60503 0.57998 0.0
C363 C 0.43657 0.58406 0.56547 0.0
C364 C 0.45808 0.57511 0.55755 0.0
C365 C 0.48661 0.60784 0.57841 0.0
C366 C 0.46505 0.61683 0.58639 0.0
C367 C 0.50555 0.57706 0.55586 0.0
H368 H 0.58812 0.43278 0.48727 0.0
H369 H 0.55207 0.45207 0.49896 0.0
H370 H 0.50602 0.41567 0.44077 0.0
H371 H 0.54225 0.39681 0.42845 0.0
H372 H 0.4174 0.57437 0.5605 0.0
H373 H 0.45514 0.55882 0.54652 0.0
H374 H 0.50589 0.61715 0.58352 0.0
H375 H 0.46815 0.63316 0.59734 0.0
Dy376 Dy 0.01005 0.53541 1.00225 0.0
Dy377 Dy 0.01014 0.48469 0.032 0.0
C378 C 0.98699 0.5276 0.05539 0.0
O379 O 0.05097 0.5394 0.01526 0.0
O380 O 0.04379 0.51171 0.04614 0.0
O381 O 0.00382 0.57242 1.00096 0.0
O382 O 0.0162 0.55593 0.96911 0.0
O383 O 0.03767 0.48534 1.00126 0.0
O384 O 0.01666 0.5069 0.97601 0.0
O385 O 0.9756 0.47624 1.00776 0.0
O386 O 0.96912 0.51499 0.99998 0.0
O387 O 0.00928 0.44589 0.032 0.0
O388 O 0.01156 0.4657 0.06554 0.0
C389 C 0.05842 0.53023 0.0352 0.0
O390 O 1.00143 0.54269 0.04056 0.0
O391 O 0.98313 0.50387 0.05209 0.0
C392 C 0.98577 0.58131 0.96435 0.0
C393 C 0.94467 0.59558 0.93915 0.0
C394 C 0.9396 0.57809 0.95754 0.0
C395 C 0.95995 0.57101 0.96997 0.0
C396 C 0.991 0.59839 0.94577 0.0
C397 C 0.97062 0.60548 0.93324 0.0
C398 C 0.0071 0.57418 0.97785 0.0
C399 C 0.03228 0.49155 0.97943 0.0
C400 C 0.96124 0.49118 0.9994 0.0
C401 C 0.03511 0.43432 0.06265 0.0
C402 C 0.07774 0.41521 0.07904 0.0
C403 C 0.08106 0.43342 0.06129 0.0
C404 C 0.05993 0.44296 0.05324 0.0
C405 C 0.03161 0.41601 0.08014 0.0
C406 C 0.05277 0.40652 0.0883 0.0
C407 C 0.01317 0.44519 0.05507 0.0
H408 H 0.91991 0.57035 0.96282 0.0
H409 H 0.95551 0.55777 0.98428 0.0
H410 H 0.01083 0.60636 0.94106 0.0
H411 H 0.97518 0.61875 0.91897 0.0
H412 H 0.1001 0.44071 0.05406 0.0
H413 H 0.063 0.45733 0.03989 0.0
H414 H 0.01257 0.40924 0.08764 0.0
H415 H 0.04959 0.39236 0.10183 0.0
C416 C 0.26834 0.24012 0.32237 0.0
C417 C 0.27449 0.231 0.30005 0.0
C418 C 0.25132 0.2254 0.33805 0.0
C419 C 0.19927 0.17062 0.33854 0.0
H420 H 0.21494 0.1678 0.40633 0.0
C421 C 0.14768 0.09311 0.39856 0.0
C422 C 0.1402 0.09888 0.42169 0.0
C423 C 0.16323 0.11072 0.38448 0.0
C424 C 0.21012 0.16866 0.3875 0.0
H425 H 0.26834 0.19901 0.27711 0.0
H426 H 0.23867 0.17348 0.3043 0.0
H427 H 0.24389 0.19601 0.38031 0.0
H428 H 0.14328 0.12764 0.44827 0.0
H429 H 0.17046 0.15863 0.42347 0.0
H430 H 0.16573 0.14315 0.34557 0.0
C431 C 0.24656 0.19213 0.30951 0.0
C432 C 0.22669 0.18479 0.37262 0.0
C433 C 0.26357 0.20678 0.29392 0.0
C434 C 0.14864 0.12271 0.43046 0.0
C435 C 0.16435 0.14037 0.41635 0.0
C436 C 0.18275 0.15455 0.35338 0.0
C437 C 0.24008 0.20131 0.33166 0.0
C438 C 0.22166 0.18561 0.3479 0.0
C439 C 0.17169 0.13456 0.39317 0.0
C440 C 0.18822 0.15307 0.37793 0.0
H441 H 0.27626 0.25878 0.32753 0.0
H442 H 0.24655 0.23301 0.35494 0.0
H443 H 0.19458 0.17121 0.31967 0.0
H444 H 0.14122 0.07501 0.39116 0.0
H445 H 0.16883 0.10557 0.36681 0.0
C446 C 0.28123 0.82064 0.79968 0.0
C447 C 0.25719 0.82394 0.79064 0.0
C448 C 0.28935 0.82895 0.82257 0.0
C449 C 0.27975 0.87662 0.86464 0.0
H450 H 0.32604 0.84792 0.90487 0.0
C451 C 0.33173 0.9297 0.94428 0.0
C452 C 0.35866 0.93079 0.94457 0.0
C453 C 0.31559 0.91237 0.93021 0.0
C454 C 0.31308 0.85612 0.89384 0.0
H455 H 0.22211 0.83717 0.79917 0.0
H456 H 0.236 0.85111 0.83936 0.0
H457 H 0.30367 0.82448 0.8714 0.0
H458 H 0.38962 0.91384 0.93118 0.0
H459 H 0.36151 0.88369 0.90662 0.0
H460 H 0.28977 0.90851 0.88643 0.0
C461 C 0.2488 0.84252 0.82854 0.0
C462 C 0.30029 0.84272 0.87468 0.0
C463 C 0.24072 0.83429 0.8056 0.0
C464 C 0.36892 0.91332 0.93155 0.0
C465 C 0.35279 0.89601 0.91748 0.0
C466 C 0.29245 0.88995 0.88379 0.0
C467 C 0.27354 0.84064 0.837 0.0
C468 C 0.284 0.85308 0.85949 0.0
C469 C 0.32604 0.89578 0.91614 0.0
C470 C 0.30976 0.8801 0.89823 0.0
H471 H 0.29417 0.81233 0.78876 0.0
H472 H 0.30859 0.82733 0.82842 0.0
H473 H 0.26771 0.88536 0.8531 0.0
H474 H 0.32321 0.94264 0.95447 0.0
H475 H 0.295 0.91239 0.92984 0.0
C476 C 0.62746 0.42571 0.73657 0.0
C477 C 0.61923 0.40061 0.74107 0.0
C478 C 0.6179 0.43675 0.71683 0.0
C479 C 0.5645 0.42713 0.67149 0.0
H480 H 0.61137 0.47648 0.63569 0.0
C481 C 0.53745 0.45992 0.57839 0.0
C482 C 0.54346 0.48513 0.57361 0.0
C483 C 0.54696 0.4503 0.59895 0.0
C484 C 0.59795 0.46291 0.64562 0.0
H485 H 0.59454 0.36748 0.72804 0.0
H486 H 0.57809 0.38656 0.69365 0.0
H487 H 0.62692 0.45859 0.67142 0.0
H488 H 0.56475 0.51988 0.58669 0.0
H489 H 0.58146 0.50303 0.62255 0.0
H490 H 0.53566 0.43122 0.64548 0.0
C491 C 0.59152 0.39792 0.70564 0.0
C492 C 0.60685 0.45266 0.66619 0.0
C493 C 0.60097 0.38692 0.72543 0.0
C494 C 0.55973 0.50039 0.58974 0.0
C495 C 0.56939 0.49071 0.61029 0.0
C496 C 0.55567 0.43728 0.65087 0.0
C497 C 0.59993 0.42298 0.70094 0.0
C498 C 0.59029 0.43451 0.67938 0.0
C499 C 0.56288 0.46556 0.6153 0.0
C500 C 0.5723 0.4552 0.63757 0.0
H501 H 0.64128 0.43687 0.74839 0.0
H502 H 0.62452 0.45615 0.71412 0.0
H503 H 0.55098 0.4136 0.68136 0.0
H504 H 0.52507 0.44754 0.56639 0.0
H505 H 0.54189 0.43081 0.602 0.0
C506 C 0.87813 0.60508 0.22693 0.0
C507 C 0.89271 0.62525 0.23917 0.0
C508 C 0.889 0.59372 0.20821 0.0
C509 C 0.94483 0.60439 0.16537 0.0
H510 H 0.91994 0.53597 0.15097 0.0
C511 C 0.97283 0.56227 0.07687 0.0
C512 C 0.97562 0.53775 0.07661 0.0
C513 C 0.96293 0.57224 0.09705 0.0
C514 C 0.92747 0.55503 0.1548 0.0
H515 H 0.9308 0.64858 0.24143 0.0
H516 H 0.9501 0.62802 0.20984 0.0
H517 H 0.90397 0.55378 0.18621 0.0
H518 H 0.97029 0.50451 0.09754 0.0
H519 H 0.95399 0.52202 0.13306 0.0
H520 H 0.96925 0.60539 0.13466 0.0
C521 C 0.92988 0.62144 0.21414 0.0
C522 C 0.91791 0.56543 0.17495 0.0
C523 C 0.91888 0.63305 0.23267 0.0
C524 C 0.96818 0.52341 0.09705 0.0
C525 C 0.95868 0.5335 0.11744 0.0
C526 C 0.95468 0.59391 0.14545 0.0
C527 C 0.915 0.60183 0.20131 0.0
C528 C 0.9262 0.59036 0.18045 0.0
C529 C 0.95595 0.55813 0.11781 0.0
C530 C 0.94596 0.56911 0.13964 0.0
H531 H 0.85809 0.59808 0.23162 0.0
H532 H 0.87666 0.57892 0.19878 0.0
H533 H 0.95157 0.62368 0.16862 0.0
H534 H 0.97814 0.5738 0.06135 0.0
H535 H 0.96057 0.59104 0.09619 0.0
C536 C 0.39757 0.21754 0.15012 0.0
C537 C 0.40212 0.22097 0.17482 0.0
C538 C 0.40807 0.20016 0.13752 0.0
C539 C 0.43434 0.14403 0.14636 0.0
H540 H 0.4591 0.15718 0.08133 0.0
C541 C 0.48392 0.07752 0.09152 0.0
C542 C 0.47548 0.07354 0.06766 0.0
C543 C 0.47618 0.09581 0.10528 0.0
C544 C 0.45211 0.1532 0.09943 0.0
H545 H 0.42185 0.2093 0.20556 0.0
H546 H 0.44044 0.17909 0.18351 0.0
H547 H 0.44385 0.18891 0.10401 0.0
H548 H 0.45222 0.08564 0.03961 0.0
H549 H 0.43883 0.11735 0.06357 0.0
H550 H 0.44266 0.10826 0.14168 0.0
C551 C 0.42832 0.18952 0.17396 0.0
C552 C 0.44332 0.17135 0.11242 0.0
C553 C 0.41772 0.20685 0.18658 0.0
C554 C 0.45912 0.08818 0.05791 0.0
C555 C 0.45157 0.1065 0.07159 0.0
C556 C 0.44327 0.12589 0.13339 0.0
C557 C 0.42349 0.18586 0.1493 0.0
C558 C 0.43405 0.16691 0.13594 0.0
C559 C 0.46006 0.11059 0.09538 0.0
C560 C 0.45195 0.1302 0.10969 0.0
H561 H 0.3853 0.22786 0.14062 0.0
H562 H 0.40358 0.19754 0.11863 0.0
H563 H 0.42702 0.13988 0.16433 0.0
H564 H 0.49656 0.0666 0.09957 0.0
H565 H 0.48315 0.09865 0.12354 0.0
C566 C 0.12399 0.83606 0.62984 0.0
C567 C 0.12752 0.83582 0.65481 0.0
C568 C 0.10568 0.84809 0.61976 0.0
C569 C 0.07349 0.89917 0.63269 0.0
H570 H 0.03795 0.87893 0.57294 0.0
C571 C 0.01678 0.96101 0.57926 0.0
C572 C 0.02346 0.9632 0.55484 0.0
C573 C 0.02469 0.9431 0.59344 0.0
C574 C 0.04771 0.88478 0.58966 0.0
H575 H 0.11336 0.84664 0.68885 0.0
H576 H 0.08123 0.86766 0.67119 0.0
H577 H 0.05942 0.85053 0.59464 0.0
H578 H 0.04319 0.94797 0.52608 0.0
H579 H 0.05686 0.91695 0.55073 0.0
H580 H 0.06232 0.93366 0.62731 0.0
C581 C 0.09299 0.85887 0.65942 0.0
C582 C 0.06002 0.86855 0.60207 0.0
C583 C 0.11135 0.84681 0.66953 0.0
C584 C 0.03779 0.94689 0.54484 0.0
C585 C 0.04543 0.92892 0.55891 0.0
C586 C 0.06105 0.91537 0.62031 0.0
C587 C 0.09041 0.86017 0.63439 0.0
C588 C 0.07374 0.87581 0.62334 0.0
C589 C 0.03909 0.92689 0.58337 0.0
C590 C 0.04873 0.90859 0.5983 0.0
H591 H 0.13638 0.82813 0.61795 0.0
H592 H 0.10453 0.84903 0.60041 0.0
H593 H 0.08411 0.90546 0.64887 0.0
H594 H 0.00571 0.97326 0.58748 0.0
H595 H 0.01949 0.94188 0.61225 0.0
C596 C 0.76927 0.38039 0.89292 0.0
C597 C 0.75657 0.39444 0.87778 0.0
C598 C 0.7902 0.39142 0.90715 0.0
C599 C 0.82301 0.45038 0.93336 0.0
H600 H 0.8822 0.4185 0.93595 0.0
C601 C 0.92195 0.49588 0.97533 0.0
C602 C 0.936 0.4808 0.98781 0.0
C603 C 0.8992 0.48582 0.9629 0.0
C604 C 0.86573 0.42751 0.93575 0.0
H605 H 0.75572 0.43133 0.86621 0.0
H606 H 0.79228 0.45065 0.89116 0.0
H607 H 0.84425 0.40032 0.91261 0.0
H608 H 0.9365 0.44332 0.99762 0.0
H609 H 0.89673 0.4259 0.97641 0.0
H610 H 0.84459 0.4776 0.95656 0.0
C611 C 0.78588 0.43103 0.89209 0.0
C612 C 0.84393 0.41707 0.9223 0.0
C613 C 0.76491 0.41995 0.87778 0.0
C614 C 0.92633 0.4555 0.98808 0.0
C615 C 0.90356 0.44547 0.97575 0.0
C616 C 0.84485 0.46082 0.94691 0.0
C617 C 0.79902 0.41685 0.9067 0.0
C618 C 0.82224 0.42829 0.92098 0.0
C619 C 0.88988 0.46043 0.96268 0.0
C620 C 0.86648 0.44946 0.94835 0.0
H621 H 0.76303 0.36075 0.89383 0.0
H622 H 0.79946 0.37998 0.91857 0.0
H623 H 0.80655 0.45939 0.93292 0.0
H624 H 0.92883 0.51543 0.97462 0.0
H625 H 0.88936 0.49791 0.95288 0.0
C626 C 0.74883 0.60483 0.37396 0.0
C627 C 0.75914 0.62984 0.37718 0.0
C628 C 0.72809 0.593 0.38809 0.0
C629 C 0.67333 0.6065 0.42324 0.0
H630 H 0.66918 0.54179 0.44993 0.0
C631 C 0.59097 0.56583 0.48766 0.0
C632 C 0.57983 0.54092 0.48551 0.0
C633 C 0.61378 0.57576 0.47545 0.0
C634 C 0.66987 0.55975 0.44237 0.0
H635 H 0.75661 0.66155 0.39888 0.0
H636 H 0.72043 0.64107 0.42317 0.0
H637 H 0.7073 0.56053 0.42669 0.0
H638 H 0.5844 0.50679 0.46911 0.0
H639 H 0.62394 0.52422 0.44736 0.0
H640 H 0.63589 0.60575 0.43834 0.0
C641 C 0.72804 0.6307 0.40943 0.0
C642 C 0.69177 0.5705 0.42909 0.0
C643 C 0.74878 0.64245 0.39545 0.0
C644 C 0.59247 0.52605 0.47124 0.0
C645 C 0.61525 0.53605 0.45883 0.0
C646 C 0.65143 0.59573 0.43632 0.0
C647 C 0.71714 0.60594 0.40568 0.0
C648 C 0.69383 0.5941 0.41953 0.0
C649 C 0.62603 0.56114 0.4605 0.0
C650 C 0.64943 0.57228 0.44627 0.0
H651 H 0.75615 0.59457 0.35996 0.0
H652 H 0.72005 0.57395 0.38466 0.0
H653 H 0.67404 0.62448 0.41571 0.0
H654 H 0.58195 0.57781 0.49868 0.0
H655 H 0.62178 0.59501 0.47771 0.0
C656 C 0.25056 0.31991 0.15918 0.0
C657 C 0.27268 0.33595 0.16779 0.0
C658 C 0.23063 0.3289 0.14789 0.0
C659 C 0.20181 0.38351 0.14505 0.0
H660 H 0.16612 0.35193 0.08915 0.0
C661 C 0.10348 0.40266 0.11303 0.0
C662 C 0.10039 0.40581 0.08828 0.0
C663 C 0.12515 0.39447 0.12184 0.0
C664 C 0.17602 0.36104 0.10465 0.0
H665 H 0.29153 0.37402 0.17048 0.0
H666 H 0.25657 0.38971 0.15095 0.0
H667 H 0.20358 0.3374 0.10534 0.0
H668 H 0.11736 0.40245 0.05332 0.0
H669 H 0.15532 0.38821 0.06875 0.0
H670 H 0.17428 0.40714 0.14439 0.0
C671 C 0.25459 0.37018 0.15321 0.0
C672 C 0.19731 0.3526 0.11404 0.0
C673 C 0.27459 0.36119 0.16441 0.0
C674 C 0.11932 0.40038 0.07251 0.0
C675 C 0.14092 0.39204 0.08131 0.0
C676 C 0.18044 0.39184 0.13576 0.0
C677 C 0.23228 0.35414 0.14504 0.0
C678 C 0.21036 0.36368 0.1344 0.0
C679 C 0.14414 0.38913 0.10609 0.0
C680 C 0.16722 0.38062 0.11555 0.0
H681 H 0.24821 0.3004 0.16184 0.0
H682 H 0.21353 0.3161 0.14208 0.0
H683 H 0.2113 0.39227 0.16089 0.0
H684 H 0.08935 0.40692 0.12565 0.0
H685 H 0.12695 0.39216 0.14101 0.0
C686 C 0.60286 0.25952 0.89826 0.0
C687 C 0.60822 0.25794 0.87363 0.0
C688 C 0.59292 0.23856 0.91164 0.0
C689 C 0.5846 0.17037 0.90922 0.0
H690 H 0.53941 0.17338 0.96355 0.0
C691 C 0.52847 0.08456 0.95836 0.0
C692 C 0.53066 0.08475 0.9835 0.0
C693 C 0.53785 0.10566 0.94502 0.0
C694 C 0.55213 0.17232 0.94849 0.0
H695 H 0.60681 0.23249 0.84395 0.0
H696 H 0.58808 0.19653 0.86671 0.0
H697 H 0.55486 0.21004 0.93991 0.0
H698 H 0.5441 0.10741 0.01433 0.0
H699 H 0.55992 0.14439 0.991 0.0
H700 H 0.58104 0.13237 0.91752 0.0
C701 C 0.59233 0.21387 0.876 0.0
C702 C 0.56115 0.19338 0.93495 0.0
C703 C 0.60267 0.23475 0.86273 0.0
C704 C 0.54222 0.1066 0.99499 0.0
C705 C 0.55114 0.12782 0.98166 0.0
C706 C 0.5752 0.14925 0.92251 0.0
C707 C 0.58762 0.21535 0.90075 0.0
C708 C 0.57762 0.19279 0.91512 0.0
C709 C 0.54916 0.12755 0.95653 0.0
C710 C 0.55895 0.15 0.94233 0.0
H711 H 0.60641 0.27697 0.90737 0.0
H712 H 0.58991 0.24061 0.93066 0.0
H713 H 0.5977 0.1691 0.89453 0.0
H714 H 0.51971 0.06803 0.94895 0.0
H715 H 0.53593 0.10496 0.92568 0.0
C716 C 0.91464 0.77197 0.38764 0.0
C717 C 0.90088 0.7725 0.36606 0.0
C718 C 0.92366 0.7935 0.40059 0.0
C719 C 0.93719 0.86135 0.39423 0.0
H720 H 0.93571 0.86032 0.4637 0.0
C721 C 0.98278 0.94605 0.45012 0.0
C722 C 0.97034 0.95088 0.47139 0.0
C723 C 0.97461 0.92418 0.43761 0.0
C724 C 0.93604 0.86103 0.4443 0.0
H725 H 0.88531 0.79616 0.34158 0.0
H726 H 0.90065 0.83342 0.36412 0.0
H727 H 0.92082 0.82268 0.44137 0.0
H728 H 0.93933 0.93635 0.49606 0.0
H729 H 0.92465 0.89847 0.47394 0.0
H730 H 0.95154 0.89978 0.39706 0.0
C731 C 0.90517 0.81654 0.37081 0.0
C732 C 0.92784 0.8393 0.43146 0.0
C733 C 0.89633 0.79509 0.35783 0.0
C734 C 0.94941 0.93326 0.47977 0.0
C735 C 0.94111 0.9114 0.46715 0.0
C736 C 0.94525 0.88306 0.40704 0.0
C737 C 0.91898 0.81611 0.39239 0.0
C738 C 0.92824 0.83915 0.40622 0.0
C739 C 0.95361 0.90653 0.44587 0.0
C740 C 0.94483 0.88326 0.43228 0.0
H741 H 0.91865 0.75492 0.39442 0.0
H742 H 0.93453 0.79242 0.41692 0.0
H743 H 0.93815 0.86201 0.37485 0.0
H744 H 0.99912 0.95905 0.4432 0.0
H745 H 0.98507 0.92099 0.42159 0.0
C746 C 0.25915 0.70579 0.62965 0.0
C747 C 0.26294 0.71631 0.65258 0.0
C748 C 0.27411 0.68916 0.62191 0.0
C749 C 0.32067 0.65095 0.64236 0.0
H750 H 0.35014 0.66511 0.57905 0.0
C751 C 0.41545 0.62277 0.61195 0.0
C752 C 0.41686 0.61455 0.58827 0.0
C753 C 0.39394 0.63193 0.61965 0.0
C754 C 0.3418 0.66062 0.59661 0.0
H755 H 0.28468 0.71689 0.68572 0.0
H756 H 0.31079 0.68806 0.67225 0.0
H757 H 0.31628 0.68583 0.5929 0.0
H758 H 0.3968 0.60947 0.55409 0.0
H759 H 0.35915 0.62526 0.56759 0.0
H760 H 0.34688 0.62625 0.64624 0.0
C761 C 0.29603 0.69232 0.66031 0.0
C762 C 0.32231 0.67246 0.60454 0.0
C763 C 0.28103 0.70887 0.66806 0.0
C764 C 0.3962 0.61549 0.5725 0.0
C765 C 0.37473 0.62472 0.58017 0.0
C766 C 0.34024 0.63915 0.63443 0.0
C767 C 0.29324 0.68277 0.63692 0.0
C768 C 0.31179 0.66806 0.62765 0.0
C769 C 0.37342 0.63315 0.60379 0.0
C770 C 0.35129 0.64416 0.6116 0.0
H771 H 0.24508 0.71091 0.61745 0.0
H772 H 0.27116 0.68177 0.60394 0.0
H773 H 0.31271 0.6469 0.66013 0.0
H774 H 0.43093 0.62202 0.62459 0.0
H775 H 0.39363 0.63855 0.63788 0.0
C776 C 0.76951 0.8239 0.75254 0.0
C777 C 0.76206 0.83882 0.77053 0.0
C778 C 0.77909 0.83389 0.7306 0.0
C779 C 0.78232 0.88789 0.69172 0.0
H780 H 0.84766 0.87309 0.67019 0.0
C781 C 0.85048 0.9514 0.62903 0.0
C782 C 0.86427 0.94128 0.61139 0.0
C783 C 0.83558 0.93652 0.64593 0.0
C784 C 0.82917 0.87708 0.67566 0.0
H785 H 0.75874 0.87595 0.77936 0.0
H786 H 0.77499 0.89317 0.74109 0.0
H787 H 0.82519 0.85093 0.70414 0.0
H788 H 0.87296 0.90753 0.59746 0.0
H789 H 0.84683 0.88141 0.62713 0.0
H790 H 0.7865 0.91435 0.6636 0.0
C791 C 0.77316 0.87372 0.74385 0.0
C792 C 0.81631 0.8644 0.69512 0.0
C793 C 0.76378 0.86381 0.7658 0.0
C794 C 0.86274 0.91588 0.61099 0.0
C795 C 0.84777 0.90094 0.62794 0.0
C796 C 0.79511 0.90049 0.67224 0.0
C797 C 0.78121 0.85894 0.72614 0.0
C798 C 0.79308 0.8701 0.7037 0.0
C799 C 0.83407 0.91113 0.64563 0.0
C800 C 0.81901 0.89568 0.66438 0.0
H801 H 0.76808 0.80452 0.75546 0.0
H802 H 0.78493 0.82204 0.71717 0.0
H803 H 0.76422 0.89237 0.6977 0.0
H804 H 0.85168 0.97095 0.63015 0.0
H805 H 0.82575 0.94503 0.65963 0.0
C806 C 0.76445 0.24483 0.2202 0.0
C807 C 0.77969 0.23486 0.23674 0.0
C808 C 0.74692 0.22959 0.20532 0.0
C809 C 0.70872 0.16732 0.20248 0.0
H810 H 0.70322 0.1798 0.13447 0.0
C811 C 0.65186 0.09572 0.13852 0.0
C812 C 0.63747 0.10361 0.11989 0.0
C813 C 0.6683 0.11256 0.15276 0.0
C814 C 0.70424 0.17627 0.1535 0.0
H815 H 0.78864 0.20118 0.25058 0.0
H816 H 0.75818 0.17462 0.22452 0.0
H817 H 0.73418 0.20781 0.159 0.0
H818 H 0.62898 0.13545 0.10171 0.0
H819 H 0.65734 0.16498 0.12699 0.0
H820 H 0.67877 0.13592 0.19716 0.0
C821 C 0.75971 0.19419 0.22312 0.0
C822 C 0.72202 0.19227 0.16751 0.0
C823 C 0.77736 0.2094 0.23784 0.0
C824 C 0.63966 0.1288 0.11603 0.0
C825 C 0.65613 0.1457 0.13033 0.0
C826 C 0.69087 0.15143 0.18854 0.0
C827 C 0.74412 0.2041 0.20689 0.0
C828 C 0.72465 0.18777 0.19208 0.0
C829 C 0.6707 0.13776 0.14882 0.0
C830 C 0.68864 0.15552 0.16383 0.0
H831 H 0.76596 0.2644 0.2189 0.0
H832 H 0.73508 0.23771 0.19302 0.0
H833 H 0.70996 0.16366 0.22147 0.0
H834 H 0.65035 0.07645 0.14219 0.0
H835 H 0.67946 0.10579 0.16664 0.0
C836 C 0.39832 0.64356 0.3135 0.0
C837 C 0.39748 0.63089 0.29159 0.0
C838 C 0.40671 0.63371 0.33458 0.0
C839 C 0.44612 0.58946 0.35526 0.0
H840 H 0.40978 0.59069 0.41555 0.0
C841 C 0.46925 0.5333 0.43603 0.0
C842 C 0.46953 0.54347 0.45913 0.0
C843 C 0.45986 0.54451 0.41638 0.0
C844 C 0.42038 0.59045 0.39895 0.0
H845 H 0.40525 0.59803 0.27479 0.0
H846 H 0.41957 0.58089 0.31134 0.0
H847 H 0.39493 0.60961 0.37998 0.0
H848 H 0.45963 0.57335 0.47962 0.0
H849 H 0.44356 0.59317 0.44522 0.0
H850 H 0.4717 0.57057 0.37402 0.0
C851 C 0.41381 0.59846 0.3123 0.0
C852 C 0.41183 0.6013 0.37853 0.0
C853 C 0.40528 0.60818 0.29134 0.0
C854 C 0.45964 0.56495 0.46211 0.0
C855 C 0.45034 0.57628 0.44236 0.0
C856 C 0.45473 0.57876 0.37562 0.0
C857 C 0.41475 0.61109 0.3342 0.0
C858 C 0.42441 0.60067 0.35634 0.0
C859 C 0.45062 0.56637 0.41914 0.0
C860 C 0.44182 0.57878 0.39772 0.0
H861 H 0.39234 0.66103 0.31439 0.0
H862 H 0.40733 0.64401 0.3511 0.0
H863 H 0.45664 0.58907 0.33862 0.0
H864 H 0.47646 0.51666 0.433 0.0
H865 H 0.45985 0.53594 0.39897 0.0
C866 C 0.12724 0.41244 0.79987 0.0
C867 C 0.11609 0.38815 0.79399 0.0
C868 C 0.11822 0.42406 0.81952 0.0
C869 C 0.0814 0.4105 0.87652 0.0
H870 H 0.07847 0.47926 0.87434 0.0
C871 C 0.05914 0.46335 0.96123 0.0
C872 C 0.04301 0.4805 0.95831 0.0
C873 C 0.06852 0.45251 0.94124 0.0
C874 C 0.07898 0.45999 0.87526 0.0
H875 H 0.0859 0.35747 0.80379 0.0
H876 H 0.07004 0.37773 0.8378 0.0
H877 H 0.09266 0.45962 0.83912 0.0
H878 H 0.02425 0.4997 0.93187 0.0
H879 H 0.04029 0.4807 0.89722 0.0
H880 H 0.06717 0.41074 0.91247 0.0
C881 C 0.0862 0.38766 0.82758 0.0
C882 C 0.08743 0.44876 0.85508 0.0
C883 C 0.09526 0.37603 0.80798 0.0
C884 C 0.03669 0.48665 0.93488 0.0
C885 C 0.04605 0.47582 0.91492 0.0
C886 C 0.07296 0.42173 0.8967 0.0
C887 C 0.09774 0.41176 0.83384 0.0
C888 C 0.08871 0.42382 0.85537 0.0
C889 C 0.06203 0.45852 0.91777 0.0
C890 C 0.07155 0.44664 0.89637 0.0
H891 H 0.14356 0.42225 0.78977 0.0
H892 H 0.12785 0.4425 0.82389 0.0
H893 H 0.08244 0.39137 0.87763 0.0
H894 H 0.06447 0.45818 0.97898 0.0
H895 H 0.08105 0.43953 0.94419 0.0
C896 C 0.62315 0.84469 0.88529 0.0
C897 C 0.63412 0.83175 0.90284 0.0
C898 C 0.60477 0.85858 0.89164 0.0
C899 C 0.58729 0.90184 0.91463 0.0
H900 H 0.53526 0.88489 0.9642 0.0
C901 C 0.5533 0.97344 0.97394 0.0
C902 C 0.5269 0.97024 0.97986 0.0
C903 C 0.56269 0.95545 0.96126 0.0
C904 C 0.54945 0.88981 0.95009 0.0
H905 H 0.63292 0.82158 0.94037 0.0
H906 H 0.60103 0.84596 0.9515 0.0
H907 H 0.55652 0.85337 0.94756 0.0
H908 H 0.48953 0.94577 0.97675 0.0
H909 H 0.50608 0.91422 0.95468 0.0
H910 H 0.58073 0.93836 0.91756 0.0
C911 C 0.60655 0.84538 0.93284 0.0
C912 C 0.56175 0.87181 0.94071 0.0
C913 C 0.62499 0.83158 0.92652 0.0
C914 C 0.50999 0.9488 0.97246 0.0
C915 C 0.51946 0.93068 0.95993 0.0
C916 C 0.57512 0.91982 0.92409 0.0
C917 C 0.59693 0.85972 0.91563 0.0
C918 C 0.58119 0.87775 0.92323 0.0
C919 C 0.54594 0.93377 0.95433 0.0
C920 C 0.5565 0.91412 0.9423 0.0
H921 H 0.6299 0.8453 0.86692 0.0
H922 H 0.59745 0.86919 0.87793 0.0
H923 H 0.60237 0.90709 0.90137 0.0
H924 H 0.56685 0.98973 0.97933 0.0
H925 H 0.58326 0.95822 0.95748 0.0
C926 C 0.8782 0.19881 0.38397 0.0
C927 C 0.89366 0.21704 0.3701 0.0
C928 C 0.889 0.18072 0.39505 0.0
C929 C 0.95034 0.16609 0.41633 0.0
H930 H 0.91285 0.09921 0.41171 0.0
C931 C 0.99209 0.08481 0.45318 0.0
C932 C 0.9746 0.06668 0.46541 0.0
C933 C 0.98312 0.103 0.4403 0.0
C934 C 0.92346 0.11781 0.41338 0.0
H935 H 0.93273 0.23067 0.35726 0.0
H936 H 0.95166 0.1992 0.37694 0.0
H937 H 0.89548 0.13168 0.39239 0.0
H938 H 0.93393 0.05341 0.47356 0.0
H939 H 0.91844 0.08519 0.45153 0.0
H940 H 0.9781 0.15227 0.4377 0.0
C941 C 0.93117 0.19903 0.37926 0.0
C942 C 0.9135 0.1364 0.40229 0.0
C943 C 0.92033 0.21708 0.36805 0.0
C944 C 0.94796 0.06699 0.46424 0.0
C945 C 0.93904 0.08517 0.45147 0.0
C946 C 0.96026 0.14748 0.42756 0.0
C947 C 0.91555 0.1805 0.39264 0.0
C948 C 0.9267 0.16076 0.40382 0.0
C949 C 0.95648 0.10346 0.43941 0.0
C950 C 0.94679 0.12313 0.42641 0.0
H951 H 0.85771 0.19852 0.38634 0.0
H952 H 0.87657 0.16695 0.40563 0.0
H953 H 0.96083 0.18473 0.41797 0.0
H954 H 0.01274 0.08507 0.45367 0.0
H955 H 0.99706 0.11664 0.43096 0.0
C956 C 0.25305 0.61077 0.15482 0.0
C957 C 0.27017 0.63092 0.14513 0.0
C958 C 0.23003 0.6006 0.14287 0.0
C959 C 0.19912 0.59709 0.08267 0.0
H960 H 0.13639 0.57214 0.11838 0.0
C961 C 0.0992 0.56263 0.03683 0.0
C962 C 0.08352 0.54158 0.04653 0.0
C963 C 0.12211 0.57387 0.04845 0.0
C964 C 0.15381 0.5788 0.10813 0.0
H965 H 0.27593 0.65672 0.11568 0.0
H966 H 0.23575 0.63918 0.095 0.0
H967 H 0.1755 0.59142 0.13971 0.0
H968 H 0.08014 0.51558 0.07585 0.0
H969 H 0.11992 0.53502 0.09583 0.0
H970 H 0.17731 0.58449 0.05107 0.0
C971 C 0.24037 0.63084 0.11155 0.0
C972 C 0.17628 0.58986 0.12038 0.0
C973 C 0.26341 0.64095 0.12345 0.0
C974 C 0.09156 0.53185 0.06788 0.0
C975 C 0.11435 0.5431 0.07948 0.0
C976 C 0.1766 0.58609 0.0704 0.0
C977 C 0.22346 0.61037 0.12097 0.0
C978 C 0.1993 0.59906 0.10785 0.0
C979 C 0.12981 0.56438 0.07007 0.0
C980 C 0.15369 0.57666 0.08298 0.0
H981 H 0.2578 0.60239 0.17131 0.0
H982 H 0.21771 0.58465 0.15054 0.0
H983 H 0.21656 0.60361 0.0724 0.0
H984 H 0.09362 0.57067 0.02047 0.0
H985 H 0.13346 0.59034 0.04078 0.0
C986 C 0.27415 0.41108 0.66263 0.0
C987 C 0.25115 0.39819 0.6521 0.0
C988 C 0.29489 0.42256 0.64843 0.0
C989 C 0.32497 0.41962 0.5897 0.0
H990 H 0.36075 0.4854 0.60439 0.0
C991 C 0.41301 0.46879 0.53347 0.0
C992 C 0.43318 0.48388 0.54603 0.0
C993 C 0.3895 0.4591 0.54494 0.0
C994 C 0.35127 0.46689 0.60018 0.0
H995 H 0.23207 0.38801 0.61799 0.0
H996 H 0.26865 0.4074 0.59333 0.0
H997 H 0.32253 0.46715 0.62735 0.0
H998 H 0.44444 0.50034 0.58068 0.0
H999 H 0.40427 0.48302 0.60067 0.0
H1000 H 0.35418 0.41891 0.56313 0.0
C1001 C 0.27047 0.40851 0.61267 0.0
C1002 C 0.32923 0.4565 0.61331 0.0
C1003 C 0.24954 0.39732 0.62687 0.0
C1004 C 0.4293 0.48897 0.5703 0.0
C1005 C 0.40604 0.47913 0.58179 0.0
C1006 C 0.34726 0.42989 0.57674 0.0
C1007 C 0.2934 0.42121 0.6233 0.0
C1008 C 0.31596 0.43267 0.60839 0.0
C1009 C 0.38569 0.46413 0.56932 0.0
C1010 C 0.36094 0.45359 0.58199 0.0
H1011 H 0.27654 0.41179 0.68191 0.0
H1012 H 0.31243 0.43195 0.65717 0.0
H1013 H 0.31526 0.40113 0.58561 0.0
H1014 H 0.41529 0.46457 0.51473 0.0
H1015 H 0.37423 0.44788 0.53461 0.0
C1016 C 0.76657 0.69345 0.90577 0.0
C1017 C 0.7638 0.70511 0.88388 0.0
C1018 C 0.78195 0.67574 0.90728 0.0
C1019 C 0.83919 0.66163 0.87784 0.0
H1020 H 0.83015 0.60869 0.92387 0.0
C1021 C 0.92477 0.62922 0.92223 0.0
C1022 C 0.92292 0.60428 0.92714 0.0
C1023 C 0.90366 0.6378 0.91276 0.0
C1024 C 0.83283 0.62314 0.91064 0.0
H1025 H 0.77336 0.70594 0.84601 0.0
H1026 H 0.79967 0.67463 0.84856 0.0
H1027 H 0.79378 0.62843 0.91458 0.0
H1028 H 0.89771 0.56862 0.92493 0.0
H1029 H 0.86069 0.58372 0.90857 0.0
H1030 H 0.87834 0.65669 0.87425 0.0
C1031 C 0.79035 0.67952 0.86465 0.0
C1032 C 0.81207 0.63459 0.90549 0.0
C1033 C 0.77501 0.69727 0.86315 0.0
C1034 C 0.89964 0.58801 0.92172 0.0
C1035 C 0.87845 0.59663 0.91231 0.0
C1036 C 0.85991 0.65021 0.88301 0.0
C1037 C 0.79484 0.66928 0.8869 0.0
C1038 C 0.81522 0.6544 0.88951 0.0
C1039 C 0.88015 0.62166 0.908 0.0
C1040 C 0.85719 0.63132 0.89997 0.0
H1041 H 0.75786 0.69885 0.92199 0.0
H1042 H 0.78504 0.66831 0.92473 0.0
H1043 H 0.84242 0.67698 0.86563 0.0
H1044 H 0.94221 0.64232 0.92656 0.0
H1045 H 0.90546 0.65726 0.91003 0.0
C1046 C 0.38716 0.78496 0.1477 0.0
C1047 C 0.40476 0.77594 0.16261 0.0
C1048 C 0.39409 0.80786 0.13673 0.0
C1049 C 0.44298 0.86617 0.13889 0.0
H1050 H 0.42066 0.87296 0.07338 0.0
C1051 C 0.48838 0.94743 0.07846 0.0
C1052 C 0.47165 0.958 0.06394 0.0
C1053 C 0.47914 0.92595 0.09123 0.0
C1054 C 0.42681 0.87147 0.09177 0.0
H1055 H 0.44328 0.78463 0.17821 0.0
H1056 H 0.4556 0.82403 0.15858 0.0
H1057 H 0.40661 0.83442 0.0944 0.0
H1058 H 0.43195 0.95408 0.05149 0.0
H1059 H 0.41586 0.91647 0.07372 0.0
H1060 H 0.46368 0.90311 0.13596 0.0
C1061 C 0.43626 0.81357 0.15556 0.0
C1062 C 0.4187 0.84935 0.10389 0.0
C1063 C 0.42929 0.79074 0.16662 0.0
C1064 C 0.44539 0.94651 0.06254 0.0
C1065 C 0.43618 0.92486 0.07517 0.0
C1066 C 0.45124 0.88822 0.12669 0.0
C1067 C 0.41886 0.82239 0.14025 0.0
C1068 C 0.42677 0.84631 0.1276 0.0
C1069 C 0.45295 0.91432 0.08969 0.0
C1070 C 0.44338 0.89112 0.10294 0.0
H1071 H 0.36821 0.77405 0.14391 0.0
H1072 H 0.37998 0.81411 0.12539 0.0
H1073 H 0.44923 0.86478 0.15725 0.0
H1074 H 0.50872 0.95573 0.07999 0.0
H1075 H 0.49265 0.91819 0.10201 0.0
C1076 C 0.13276 0.236 0.64847 0.0
C1077 C 0.11701 0.24936 0.66112 0.0
C1078 C 0.1218 0.21564 0.63473 0.0
C1079 C 0.06103 0.18498 0.60487 0.0
H1080 H 0.0935 0.12837 0.60751 0.0
C1081 C 0.01424 0.09212 0.56184 0.0
C1082 C 0.03075 0.07863 0.55043 0.0
C1083 C 0.0244 0.11309 0.57516 0.0
C1084 C 0.08434 0.14409 0.60629 0.0
H1085 H 0.07719 0.25183 0.66877 0.0
H1086 H 0.05801 0.21621 0.64473 0.0
H1087 H 0.11154 0.16458 0.63079 0.0
H1088 H 0.07105 0.07695 0.54401 0.0
H1089 H 0.08871 0.11356 0.56696 0.0
H1090 H 0.03383 0.16444 0.5803 0.0
C1091 C 0.07892 0.22166 0.64536 0.0
C1092 C 0.0947 0.16491 0.61969 0.0
C1093 C 0.08992 0.2421 0.65915 0.0
C1094 C 0.05771 0.08675 0.55264 0.0
C1095 C 0.06786 0.10773 0.56594 0.0
C1096 C 0.05067 0.16413 0.59142 0.0
C1097 C 0.09475 0.208 0.63316 0.0
C1098 C 0.08328 0.1857 0.6191 0.0
C1099 C 0.05136 0.12118 0.57744 0.0
C1100 C 0.06223 0.14341 0.59188 0.0
H1101 H 0.15368 0.24137 0.64906 0.0
H1102 H 0.13462 0.20597 0.62517 0.0
H1103 H 0.05189 0.20072 0.60373 0.0
H1104 H 0.99338 0.08643 0.56061 0.0
H1105 H 0.01106 0.12274 0.58399 0.0
C1106 C 0.76655 0.35362 0.3828 0.0
C1107 C 0.76286 0.33039 0.37213 0.0
C1108 C 0.74567 0.36208 0.393 0.0
C1109 C 0.67418 0.35229 0.39097 0.0
H1110 H 0.6821 0.38895 0.45047 0.0
C1111 C 0.58715 0.37897 0.43988 0.0
C1112 C 0.59064 0.403 0.44863 0.0
C1113 C 0.60825 0.36963 0.43139 0.0
C1114 C 0.67966 0.3789 0.43374 0.0
H1115 H 0.73427 0.29789 0.36375 0.0
H1116 H 0.69808 0.31238 0.38202 0.0
H1117 H 0.71889 0.37355 0.43415 0.0
H1118 H 0.61911 0.4361 0.45514 0.0
H1119 H 0.65589 0.41972 0.44053 0.0
H1120 H 0.63498 0.35764 0.39055 0.0
C1121 C 0.71704 0.32418 0.38229 0.0
C1122 C 0.70073 0.37012 0.42437 0.0
C1123 C 0.73788 0.31574 0.3721 0.0
C1124 C 0.61578 0.41737 0.44893 0.0
C1125 C 0.63687 0.40801 0.44052 0.0
C1126 C 0.65311 0.36101 0.40036 0.0
C1127 C 0.72064 0.34751 0.39272 0.0
C1128 C 0.69824 0.35673 0.40286 0.0
C1129 C 0.63332 0.38409 0.43151 0.0
C1130 C 0.65562 0.37445 0.42183 0.0
H1131 H 0.78559 0.36527 0.38328 0.0
H1132 H 0.74907 0.38023 0.4007 0.0
H1133 H 0.67172 0.34242 0.37414 0.0
H1134 H 0.56812 0.3673 0.43973 0.0
H1135 H 0.60495 0.35102 0.42487 0.0
loop_
_geom_bond_atom_site_label_1
_geom_bond_atom_site_label_2
_geom_bond_distance
_geom_bond_site_symmetry_2
_ccdc_geom_bond_type
P0 O11 1.490 . S
P0 C14 1.812 . S
P0 C20 1.803 . S
P0 C26 1.819 . S
H1 C15 0.941 . S
H2 C16 0.939 . S
H3 C18 0.940 . S
H4 C19 0.940 . S
H5 C21 0.939 . S
H6 C22 0.942 . S
H7 C24 0.940 . S
H8 C25 0.939 . S
H9 C27 0.941 . S
H10 C31 0.939 . S
O11 P0 1.490 . S
H12 C28 0.939 . S
H13 C30 0.940 . S
C14 P0 1.812 . S
C14 C15 1.389 . S
C14 C19 1.391 . S
C15 H1 0.941 . S
C15 C14 1.389 . S
C15 C16 1.397 . S
C16 H2 0.939 . S
C16 C15 1.397 . S
C16 C17 1.378 . S
C17 C16 1.378 . S
C17 C18 1.378 . S
C18 H3 0.940 . S
C18 C17 1.378 . S
C18 C19 1.396 . S
C19 H4 0.940 . S
C19 C14 1.391 . S
C19 C18 1.396 . S
C20 P0 1.803 . S
C20 C21 1.378 . S
C20 C25 1.400 . S
C21 H5 0.939 . S
C21 C20 1.378 . S
C21 C22 1.361 . S
C22 H6 0.942 . S
C22 C21 1.361 . S
C22 C23 1.369 . S
C23 C22 1.369 . S
C23 C24 1.404 . S
C24 H7 0.940 . S
C24 C23 1.404 . S
C24 C25 1.389 . S
C25 H8 0.939 . S
C25 C20 1.400 . S
C25 C24 1.389 . S
C26 P0 1.819 . S
C26 C27 1.391 . S
C26 C31 1.391 . S
C27 H9 0.941 . S
C27 C26 1.391 . S
C27 C28 1.396 . S
C28 H12 0.939 . S
C28 C27 1.396 . S
C28 C29 1.397 . S
C29 C28 1.397 . S
C29 C30 1.385 . S
C30 H13 0.940 . S
C30 C29 1.385 . S
C30 C31 1.388 . S
C31 H10 0.939 . S
C31 C26 1.391 . S
C31 C30 1.388 . S
P32 O43 1.490 . S
P32 C46 1.812 . S
P32 C52 1.803 . S
P32 C58 1.819 . S
H33 C47 0.941 . S
H34 C48 0.939 . S
H35 C50 0.940 . S
H36 C51 0.940 . S
H37 C53 0.939 . S
H38 C54 0.942 . S
H39 C56 0.940 . S
H40 C57 0.939 . S
H41 C59 0.941 . S
H42 C63 0.939 . S
O43 P32 1.490 . S
H44 C60 0.939 . S
H45 C62 0.940 . S
C46 P32 1.812 . S
C46 C47 1.389 . S
C46 C51 1.391 . S
C47 H33 0.941 . S
C47 C46 1.389 . S
C47 C48 1.397 . S
C48 H34 0.939 . S
C48 C47 1.397 . S
C48 C49 1.378 . S
C49 C48 1.378 . S
C49 C50 1.378 . S
C50 H35 0.940 . S
C50 C49 1.378 . S
C50 C51 1.396 . S
C51 H36 0.940 . S
C51 C46 1.391 . S
C51 C50 1.396 . S
C52 P32 1.803 . S
C52 C53 1.378 . S
C52 C57 1.400 . S
C53 H37 0.939 . S
C53 C52 1.378 . S
C53 C54 1.361 . S
C54 H38 0.942 . S
C54 C53 1.361 . S
C54 C55 1.369 . S
C55 C54 1.369 . S
C55 C56 1.404 . S
C56 H39 0.940 . S
C56 C55 1.404 . S
C56 C57 1.389 . S
C57 H40 0.939 . S
C57 C52 1.400 . S
C57 C56 1.389 . S
C58 P32 1.819 . S
C58 C59 1.391 . S
C58 C63 1.391 . S
C59 H41 0.941 . S
C59 C58 1.391 . S
C59 C60 1.396 . S
C60 H44 0.939 . S
C60 C59 1.396 . S
C60 C61 1.397 . S
C61 C60 1.397 . S
C61 C62 1.385 . S
C62 H45 0.940 . S
C62 C61 1.385 . S
C62 C63 1.388 . S
C63 H42 0.939 . S
C63 C58 1.391 . S
C63 C62 1.388 . S
P64 O75 1.490 . S
P64 C78 1.812 . S
P64 C84 1.803 . S
P64 C90 1.819 . S
H65 C79 0.941 . S
H66 C80 0.939 . S
H67 C82 0.940 . S
H68 C83 0.940 . S
H69 C85 0.939 . S
H70 C86 0.942 . S
H71 C88 0.940 . S
H72 C89 0.939 . S
H73 C91 0.941 . S
H74 C95 0.939 . S
O75 P64 1.490 . S
H76 C92 0.939 . S
H77 C94 0.940 . S
C78 P64 1.812 . S
C78 C79 1.389 . S
C78 C83 1.391 . S
C79 H65 0.941 . S
C79 C78 1.389 . S
C79 C80 1.397 . S
C80 H66 0.939 . S
C80 C79 1.397 . S
C80 C81 1.378 . S
C81 C80 1.378 . S
C81 C82 1.378 . S
C82 H67 0.940 . S
C82 C81 1.378 . S
C82 C83 1.396 . S
C83 H68 0.940 . S
C83 C78 1.391 . S
C83 C82 1.396 . S
C84 P64 1.803 . S
C84 C85 1.378 . S
C84 C89 1.400 . S
C85 H69 0.939 . S
C85 C84 1.378 . S
C85 C86 1.361 . S
C86 H70 0.942 . S
C86 C85 1.361 . S
C86 C87 1.369 . S
C87 C86 1.369 . S
C87 C88 1.404 . S
C88 H71 0.940 . S
C88 C87 1.404 . S
C88 C89 1.389 . S
C89 H72 0.939 . S
C89 C84 1.400 . S
C89 C88 1.389 . S
C90 P64 1.819 . S
C90 C91 1.391 . S
C90 C95 1.391 . S
C91 H73 0.941 . S
C91 C90 1.391 . S
C91 C92 1.396 . S
C92 H76 0.939 . S
C92 C91 1.396 . S
C92 C93 1.397 . S
C93 C92 1.397 . S
C93 C94 1.385 . S
C94 H77 0.940 . S
C94 C93 1.385 . S
C94 C95 1.388 . S
C95 H74 0.939 . S
C95 C90 1.391 . S
C95 C94 1.388 . S
P96 O107 1.490 . S
P96 C110 1.812 . S
P96 C116 1.803 . S
P96 C122 1.819 . S
H97 C111 0.941 . S
H98 C112 0.939 . S
H99 C114 0.940 . S
H100 C115 0.940 . S
H101 C117 0.939 . S
H102 C118 0.942 . S
H103 C120 0.940 . S
H104 C121 0.939 . S
H105 C123 0.941 . S
H106 C127 0.939 . S
O107 P96 1.490 . S
H108 C124 0.939 . S
H109 C126 0.940 . S
C110 P96 1.812 . S
C110 C111 1.389 . S
C110 C115 1.391 . S
C111 H97 0.941 . S
C111 C110 1.389 . S
C111 C112 1.397 . S
C112 H98 0.939 . S
C112 C111 1.397 . S
C112 C113 1.378 . S
C113 C112 1.378 . S
C113 C114 1.378 . S
C114 H99 0.940 . S
C114 C113 1.378 . S
C114 C115 1.396 . S
C115 H100 0.940 . S
C115 C110 1.391 . S
C115 C114 1.396 . S
C116 P96 1.803 . S
C116 C117 1.378 . S
C116 C121 1.400 . S
C117 H101 0.939 . S
C117 C116 1.378 . S
C117 C118 1.361 . S
C118 H102 0.942 . S
C118 C117 1.361 . S
C118 C119 1.369 . S
C119 C118 1.369 . S
C119 C120 1.404 . S
C120 H103 0.940 . S
C120 C119 1.404 . S
C120 C121 1.389 . S
C121 H104 0.939 . S
C121 C116 1.400 . S
C121 C120 1.389 . S
C122 P96 1.819 . S
C122 C123 1.391 . S
C122 C127 1.391 . S
C123 H105 0.941 . S
C123 C122 1.391 . S
C123 C124 1.396 . S
C124 H108 0.939 . S
C124 C123 1.396 . S
C124 C125 1.397 . S
C125 C124 1.397 . S
C125 C126 1.385 . S
C126 H109 0.940 . S
C126 C125 1.385 . S
C126 C127 1.388 . S
C127 H106 0.939 . S
C127 C122 1.391 . S
C127 C126 1.388 . S
P128 O139 1.490 . S
P128 C142 1.812 . S
P128 C148 1.803 . S
P128 C154 1.819 . S
H129 C143 0.941 . S
H130 C144 0.939 . S
H131 C146 0.940 . S
H132 C147 0.940 . S
H133 C149 0.939 . S
H134 C150 0.942 . S
H135 C152 0.940 . S
H136 C153 0.939 . S
H137 C155 0.941 . S
H138 C159 0.939 . S
O139 P128 1.490 . S
H140 C156 0.939 . S
H141 C158 0.940 . S
C142 P128 1.812 . S
C142 C143 1.389 . S
C142 C147 1.391 . S
C143 H129 0.941 . S
C143 C142 1.389 . S
C143 C144 1.397 . S
C144 H130 0.939 . S
C144 C143 1.397 . S
C144 C145 1.378 . S
C145 C144 1.378 . S
C145 C146 1.378 . S
C146 H131 0.940 . S
C146 C145 1.378 . S
C146 C147 1.396 . S
C147 H132 0.940 . S
C147 C142 1.391 . S
C147 C146 1.396 . S
C148 P128 1.803 . S
C148 C149 1.378 . S
C148 C153 1.400 . S
C149 H133 0.939 . S
C149 C148 1.378 . S
C149 C150 1.361 . S
C150 H134 0.942 . S
C150 C149 1.361 . S
C150 C151 1.369 . S
C151 C150 1.369 . S
C151 C152 1.404 . S
C152 H135 0.940 . S
C152 C151 1.404 . S
C152 C153 1.389 . S
C153 H136 0.939 . S
C153 C148 1.400 . S
C153 C152 1.389 . S
C154 P128 1.819 . S
C154 C155 1.391 . S
C154 C159 1.391 . S
C155 H137 0.941 . S
C155 C154 1.391 . S
C155 C156 1.396 . S
C156 H140 0.939 . S
C156 C155 1.396 . S
C156 C157 1.397 . S
C157 C156 1.397 . S
C157 C158 1.385 . S
C158 H141 0.940 . S
C158 C157 1.385 . S
C158 C159 1.388 . S
C159 H138 0.939 . S
C159 C154 1.391 . S
C159 C158 1.388 . S
P160 O171 1.490 . S
P160 C174 1.812 . S
P160 C180 1.803 . S
P160 C186 1.819 . S
H161 C175 0.941 . S
H162 C176 0.939 . S
H163 C178 0.940 . S
H164 C179 0.940 . S
H165 C181 0.939 . S
H166 C182 0.942 . S
H167 C184 0.940 . S
H168 C185 0.939 . S
H169 C187 0.941 . S
H170 C191 0.939 . S
O171 P160 1.490 . S
H172 C188 0.939 . S
H173 C190 0.940 . S
C174 P160 1.812 . S
C174 C175 1.389 . S
C174 C179 1.391 . S
C175 H161 0.941 . S
C175 C174 1.389 . S
C175 C176 1.397 . S
C176 H162 0.939 . S
C176 C175 1.397 . S
C176 C177 1.378 . S
C177 C176 1.378 . S
C177 C178 1.378 . S
C178 H163 0.940 . S
C178 C177 1.378 . S
C178 C179 1.396 . S
C179 H164 0.940 . S
C179 C174 1.391 . S
C179 C178 1.396 . S
C180 P160 1.803 . S
C180 C181 1.378 . S
C180 C185 1.400 . S
C181 H165 0.939 . S
C181 C180 1.378 . S
C181 C182 1.361 . S
C182 H166 0.942 . S
C182 C181 1.361 . S
C182 C183 1.369 . S
C183 C182 1.369 . S
C183 C184 1.404 . S
C184 H167 0.940 . S
C184 C183 1.404 . S
C184 C185 1.389 . S
C185 H168 0.939 . S
C185 C180 1.400 . S
C185 C184 1.389 . S
C186 P160 1.819 . S
C186 C187 1.391 . S
C186 C191 1.391 . S
C187 H169 0.941 . S
C187 C186 1.391 . S
C187 C188 1.396 . S
C188 H172 0.939 . S
C188 C187 1.396 . S
C188 C189 1.397 . S
C189 C188 1.397 . S
C189 C190 1.385 . S
C190 H173 0.940 . S
C190 C189 1.385 . S
C190 C191 1.388 . S
C191 H170 0.939 . S
C191 C186 1.391 . S
C191 C190 1.388 . S
P192 O203 1.490 . S
P192 C206 1.812 . S
P192 C212 1.803 . S
P192 C218 1.819 . S
H193 C207 0.941 . S
H194 C208 0.939 . S
H195 C210 0.940 . S
H196 C211 0.940 . S
H197 C213 0.939 . S
H198 C214 0.942 . S
H199 C216 0.940 . S
H200 C217 0.939 . S
H201 C219 0.941 . S
H202 C223 0.939 . S
O203 P192 1.490 . S
H204 C220 0.939 . S
H205 C222 0.940 . S
C206 P192 1.812 . S
C206 C207 1.389 . S
C206 C211 1.391 . S
C207 H193 0.941 . S
C207 C206 1.389 . S
C207 C208 1.397 . S
C208 H194 0.939 . S
C208 C207 1.397 . S
C208 C209 1.378 . S
C209 C208 1.378 . S
C209 C210 1.378 . S
C210 H195 0.940 . S
C210 C209 1.378 . S
C210 C211 1.396 . S
C211 H196 0.940 . S
C211 C206 1.391 . S
C211 C210 1.396 . S
C212 P192 1.803 . S
C212 C213 1.378 . S
C212 C217 1.400 . S
C213 H197 0.939 . S
C213 C212 1.378 . S
C213 C214 1.361 . S
C214 H198 0.942 . S
C214 C213 1.361 . S
C214 C215 1.369 . S
C215 C214 1.369 . S
C215 C216 1.404 . S
C216 H199 0.940 . S
C216 C215 1.404 . S
C216 C217 1.389 . S
C217 H200 0.939 . S
C217 C212 1.400 . S
C217 C216 1.389 . S
C218 P192 1.819 . S
C218 C219 1.391 . S
C218 C223 1.391 . S
C219 H201 0.941 . S
C219 C218 1.391 . S
C219 C220 1.396 . S
C220 H204 0.939 . S
C220 C219 1.396 . S
C220 C221 1.397 . S
C221 C220 1.397 . S
C221 C222 1.385 . S
C222 H205 0.940 . S
C222 C221 1.385 . S
C222 C223 1.388 . S
C223 H202 0.939 . S
C223 C218 1.391 . S
C223 C222 1.388 . S
P224 O235 1.490 . S
P224 C238 1.812 . S
P224 C244 1.803 . S
P224 C250 1.819 . S
H225 C239 0.941 . S
H226 C240 0.939 . S
H227 C242 0.940 . S
H228 C243 0.940 . S
H229 C245 0.939 . S
H230 C246 0.942 . S
H231 C248 0.940 . S
H232 C249 0.939 . S
H233 C251 0.941 . S
H234 C255 0.939 . S
O235 P224 1.490 . S
H236 C252 0.939 . S
H237 C254 0.940 . S
C238 P224 1.812 . S
C238 C239 1.389 . S
C238 C243 1.391 . S
C239 H225 0.941 . S
C239 C238 1.389 . S
C239 C240 1.397 . S
C240 H226 0.939 . S
C240 C239 1.397 . S
C240 C241 1.378 . S
C241 C240 1.378 . S
C241 C242 1.378 . S
C242 H227 0.940 . S
C242 C241 1.378 . S
C242 C243 1.396 . S
C243 H228 0.940 . S
C243 C238 1.391 . S
C243 C242 1.396 . S
C244 P224 1.803 . S
C244 C245 1.378 . S
C244 C249 1.400 . S
C245 H229 0.939 . S
C245 C244 1.378 . S
C245 C246 1.361 . S
C246 H230 0.942 . S
C246 C245 1.361 . S
C246 C247 1.369 . S
C247 C246 1.369 . S
C247 C248 1.404 . S
C248 H231 0.940 . S
C248 C247 1.404 . S
C248 C249 1.389 . S
C249 H232 0.939 . S
C249 C244 1.400 . S
C249 C248 1.389 . S
C250 P224 1.819 . S
C250 C251 1.391 . S
C250 C255 1.391 . S
C251 H233 0.941 . S
C251 C250 1.391 . S
C251 C252 1.396 . S
C252 H236 0.939 . S
C252 C251 1.396 . S
C252 C253 1.397 . S
C253 C252 1.397 . S
C253 C254 1.385 . S
C254 H237 0.940 . S
C254 C253 1.385 . S
C254 C255 1.388 . S
C255 H234 0.939 . S
C255 C250 1.391 . S
C255 C254 1.388 . S
Dy256 O259 2.307 1_545 S
Dy256 O261 2.395 . S
Dy256 O262 2.379 . S
Dy256 O264 2.339 1_545 S
Dy256 O266 2.333 . S
Dy256 O270 2.275 . S
Dy256 C278 2.738 . S
Dy257 O260 2.298 1_645 S
Dy257 O263 2.275 1_545 S
Dy257 O265 2.307 . S
Dy257 O267 2.395 1_545 S
Dy257 O268 2.379 1_545 S
Dy257 O271 2.339 . S
Dy257 C287 2.738 1_545 S
C258 O270 1.254 . S
C258 O271 1.257 1_455 S
O259 Dy256 2.307 1_565 S
O259 C269 1.266 . S
O260 Dy257 2.298 1_465 S
O260 C269 1.236 . S
O261 Dy256 2.395 . S
O261 C278 1.255 . S
O262 Dy256 2.379 . S
O262 C278 1.249 . S
O263 Dy257 2.275 1_565 S
O263 C279 1.254 . S
O264 Dy256 2.339 1_565 S
O264 C279 1.257 1_455 S
O265 Dy257 2.307 . S
O265 C280 1.266 . S
O266 Dy256 2.333 . S
O266 C280 1.201 1_455 S
O267 Dy257 2.395 1_565 S
O267 C287 1.255 . S
O268 Dy257 2.379 1_565 S
O268 C287 1.249 . S
C269 O259 1.266 . S
C269 O260 1.236 . S
O270 Dy256 2.275 . S
O270 C258 1.254 . S
O271 Dy257 2.339 . S
O271 C258 1.257 1_655 S
C272 C275 1.344 . S
C272 C276 1.328 . S
C272 C278 1.516 . S
C273 C274 1.304 . S
C273 C277 1.323 . S
C274 C273 1.304 . S
C274 C275 1.371 . S
C274 H288 0.930 . S
C275 C272 1.344 . S
C275 C274 1.371 . S
C275 H289 0.931 . S
C276 C272 1.328 . S
C276 C277 1.433 . S
C276 H290 0.931 . S
C277 C273 1.323 . S
C277 C276 1.433 . S
C277 H291 0.933 . S
C278 Dy256 2.738 . S
C278 O261 1.255 . S
C278 O262 1.249 . S
C278 C272 1.516 . S
C279 O263 1.254 . S
C279 O264 1.257 1_655 S
C280 O265 1.266 . S
C280 O266 1.201 1_655 S
C281 C284 1.344 . S
C281 C285 1.328 . S
C281 C287 1.516 . S
C282 C283 1.304 . S
C282 C286 1.323 . S
C283 C282 1.304 . S
C283 C284 1.371 . S
C283 H292 0.930 . S
C284 C281 1.344 . S
C284 C283 1.371 . S
C284 H293 0.931 . S
C285 C281 1.328 . S
C285 C286 1.433 . S
C285 H294 0.931 . S
C286 C282 1.323 . S
C286 C285 1.433 . S
C286 H295 0.933 . S
C287 Dy257 2.738 1_565 S
C287 O267 1.255 . S
C287 O268 1.249 . S
C287 C281 1.516 . S
H288 C274 0.930 . S
H289 C275 0.931 . S
H290 C276 0.931 . S
H291 C277 0.933 . S
H292 C283 0.930 . S
H293 C284 0.931 . S
H294 C285 0.931 . S
H295 C286 0.933 . S
Dy296 O299 2.307 1_556 S
Dy296 O301 2.395 1_545 S
Dy296 O302 2.375 1_545 S
Dy296 O304 2.339 . S
Dy296 O306 2.298 1_545 S
Dy296 O310 2.275 1_546 S
Dy296 C318 2.738 1_545 S
Dy297 O300 2.298 . S
Dy297 O303 2.275 1_554 S
Dy297 O305 2.307 1_544 S
Dy297 O307 2.395 . S
Dy297 O308 2.379 . S
Dy297 O311 2.339 1_545 S
Dy297 C327 2.738 . S
C298 O310 1.254 . S
C298 O311 1.257 . S
O299 Dy296 2.307 1_554 S
O299 C309 1.266 . S
O300 Dy297 2.298 . S
O300 C309 1.236 . S
O301 Dy296 2.395 1_565 S
O301 C318 1.255 . S
O302 Dy296 2.375 1_565 S
O302 C318 1.275 . S
O303 Dy297 2.275 1_556 S
O303 C319 1.254 . S
O304 Dy296 2.339 . S
O304 C319 1.257 . S
O305 Dy297 2.307 1_566 S
O305 C320 1.266 . S
O306 Dy296 2.298 1_565 S
O306 C320 1.236 . S
O307 Dy297 2.395 . S
O307 C327 1.255 . S
O308 Dy297 2.379 . S
O308 C327 1.249 . S
C309 O299 1.266 . S
C309 O300 1.236 . S
O310 Dy296 2.275 1_564 S
O310 C298 1.254 . S
O311 Dy297 2.339 1_565 S
O311 C298 1.257 . S
C312 C315 1.344 . S
C312 C316 1.328 . S
C312 C318 1.516 . S
C313 C314 1.304 . S
C313 C317 1.323 . S
C314 C313 1.304 . S
C314 C315 1.371 . S
C314 H328 0.930 . S
C315 C312 1.344 . S
C315 C314 1.371 . S
C315 H329 0.931 . S
C316 C312 1.328 . S
C316 C317 1.433 . S
C316 H330 0.931 . S
C317 C313 1.323 . S
C317 C316 1.433 . S
C317 H331 0.933 . S
C318 Dy296 2.738 1_565 S
C318 O301 1.255 . S
C318 O302 1.275 . S
C318 C312 1.516 . S
C319 O303 1.254 . S
C319 O304 1.257 . S
C320 O305 1.266 . S
C320 O306 1.236 . S
C321 C324 1.344 . S
C321 C325 1.328 . S
C321 C327 1.516 . S
C322 C323 1.304 . S
C322 C326 1.323 . S
C323 C322 1.304 . S
C323 C324 1.371 . S
C323 H332 0.930 . S
C324 C321 1.344 . S
C324 C323 1.371 . S
C324 H333 0.931 . S
C325 C321 1.328 . S
C325 C326 1.433 . S
C325 H334 0.931 . S
C326 C322 1.323 . S
C326 C325 1.433 . S
C326 H335 0.933 . S
C327 Dy297 2.738 . S
C327 O307 1.255 . S
C327 O308 1.249 . S
C327 C321 1.516 . S
H328 C314 0.930 . S
H329 C315 0.931 . S
H330 C316 0.931 . S
H331 C317 0.933 . S
H332 C323 0.930 . S
H333 C324 0.931 . S
H334 C325 0.931 . S
H335 C326 0.933 . S
Dy336 O339 2.307 . S
Dy336 O341 2.395 . S
Dy336 O342 2.379 . S
Dy336 O344 2.339 . S
Dy336 O346 2.298 . S
Dy336 O350 2.275 . S
Dy336 C358 2.738 . S
Dy337 O340 2.298 . S
Dy337 O343 2.275 . S
Dy337 O345 2.307 . S
Dy337 O347 2.395 . S
Dy337 O348 2.379 . S
Dy337 O351 2.339 . S
Dy337 C367 2.738 . S
C338 O350 1.254 . S
C338 O351 1.257 . S
O339 Dy336 2.307 . S
O339 C349 1.266 . S
O340 Dy337 2.298 . S
O340 C349 1.236 . S
O341 Dy336 2.395 . S
O341 C358 1.255 . S
O342 Dy336 2.379 . S
O342 C358 1.249 . S
O343 Dy337 2.275 . S
O343 C359 1.254 . S
O344 Dy336 2.339 . S
O344 C359 1.257 . S
O345 Dy337 2.307 . S
O345 C360 1.266 . S
O346 Dy336 2.298 . S
O346 C360 1.236 . S
O347 Dy337 2.395 . S
O347 C367 1.255 . S
O348 Dy337 2.379 . S
O348 C367 1.249 . S
C349 O339 1.266 . S
C349 O340 1.236 . S
O350 Dy336 2.275 . S
O350 C338 1.254 . S
O351 Dy337 2.339 . S
O351 C338 1.257 . S
C352 C355 1.344 . S
C352 C356 1.328 . S
C352 C358 1.516 . S
C353 C354 1.304 . S
C353 C357 1.323 . S
C354 C353 1.304 . S
C354 C355 1.371 . S
C354 H368 0.930 . S
C355 C352 1.344 . S
C355 C354 1.371 . S
C355 H369 0.931 . S
C356 C352 1.328 . S
C356 C357 1.433 . S
C356 H370 0.931 . S
C357 C353 1.323 . S
C357 C356 1.433 . S
C357 H371 0.933 . S
C358 Dy336 2.738 . S
C358 O341 1.255 . S
C358 O342 1.249 . S
C358 C352 1.516 . S
C359 O343 1.254 . S
C359 O344 1.257 . S
C360 O345 1.266 . S
C360 O346 1.236 . S
C361 C364 1.344 . S
C361 C365 1.328 . S
C361 C367 1.516 . S
C362 C363 1.304 . S
C362 C366 1.323 . S
C363 C362 1.304 . S
C363 C364 1.371 . S
C363 H372 0.930 . S
C364 C361 1.344 . S
C364 C363 1.371 . S
C364 H373 0.931 . S
C365 C361 1.328 . S
C365 C366 1.433 . S
C365 H374 0.931 . S
C366 C362 1.323 . S
C366 C365 1.433 . S
C366 H375 0.933 . S
C367 Dy337 2.738 . S
C367 O347 1.255 . S
C367 O348 1.249 . S
C367 C361 1.516 . S
H368 C354 0.930 . S
H369 C355 0.931 . S
H370 C356 0.931 . S
H371 C357 0.933 . S
H372 C363 0.930 . S
H373 C364 0.931 . S
H374 C365 0.931 . S
H375 C366 0.933 . S
Dy376 O379 2.307 1_556 S
Dy376 O381 2.395 1_455 S
Dy376 O382 2.379 1_455 S
Dy376 O384 2.339 . S
Dy376 O386 2.298 1_455 S
Dy376 O390 2.275 1_456 S
Dy376 C398 2.738 1_455 S
Dy377 O380 2.298 . S
Dy377 O383 2.275 1_554 S
Dy377 O385 2.307 1_455 S
Dy377 O387 2.395 . S
Dy377 O388 2.379 . S
Dy377 O391 2.339 1_455 S
Dy377 C407 2.738 . S
C378 O390 1.254 . S
C378 O391 1.257 . S
O379 Dy376 2.307 1_554 S
O379 C389 1.266 . S
O380 Dy377 2.298 . S
O380 C389 1.236 . S
O381 Dy376 2.395 1_655 S
O381 C398 1.255 . S
O382 Dy376 2.379 1_655 S
O382 C398 1.249 . S
O383 Dy377 2.275 1_556 S
O383 C399 1.254 . S
O384 Dy376 2.339 . S
O384 C399 1.257 . S
O385 Dy377 2.307 1_655 S
O385 C400 1.266 1_554 S
O386 Dy376 2.298 1_655 S
O386 C400 1.236 . S
O387 Dy377 2.395 . S
O387 C407 1.255 . S
O388 Dy377 2.379 . S
O388 C407 1.249 . S
C389 O379 1.266 . S
C389 O380 1.236 . S
O390 Dy376 2.275 1_654 S
O390 C378 1.254 . S
O391 Dy377 2.339 1_655 S
O391 C378 1.257 . S
C392 C395 1.344 . S
C392 C396 1.328 . S
C392 C398 1.516 . S
C393 C394 1.304 . S
C393 C397 1.323 . S
C394 C393 1.304 . S
C394 C395 1.371 . S
C394 H408 0.930 . S
C395 C392 1.344 . S
C395 C394 1.371 . S
C395 H409 0.931 . S
C396 C392 1.328 . S
C396 C397 1.433 . S
C396 H410 0.931 . S
C397 C393 1.323 . S
C397 C396 1.433 . S
C397 H411 0.933 . S
C398 Dy376 2.738 1_655 S
C398 O381 1.255 . S
C398 O382 1.249 . S
C398 C392 1.516 . S
C399 O383 1.254 . S
C399 O384 1.257 . S
C400 O385 1.266 1_556 S
C400 O386 1.236 . S
C401 C404 1.344 . S
C401 C405 1.328 . S
C401 C407 1.516 . S
C402 C403 1.304 . S
C402 C406 1.323 . S
C403 C402 1.304 . S
C403 C404 1.371 . S
C403 H412 0.930 . S
C404 C401 1.344 . S
C404 C403 1.371 . S
C404 H413 0.931 . S
C405 C401 1.328 . S
C405 C406 1.433 . S
C405 H414 0.931 . S
C406 C402 1.323 . S
C406 C405 1.433 . S
C406 H415 0.933 . S
C407 Dy377 2.738 . S
C407 O387 1.255 . S
C407 O388 1.249 . S
C407 C401 1.516 . S
H408 C394 0.930 . S
H409 C395 0.931 . S
H410 C396 0.931 . S
H411 C397 0.933 . S
H412 C403 0.930 . S
H413 C404 0.931 . S
H414 C405 0.931 . S
H415 C406 0.933 . S
C416 C417 1.349 . S
C416 C418 1.327 . S
C416 H441 0.950 . S
C417 C416 1.349 . S
C417 C433 1.349 . S
C418 C416 1.327 . S
C418 C437 1.429 . S
C418 H442 0.950 . S
C419 C436 1.574 . S
C419 C438 1.368 . S
C419 H443 0.949 . S
H420 C424 0.949 . S
C421 C422 1.349 . S
C421 C423 1.327 . S
C421 H444 0.950 . S
C422 C421 1.349 . S
C422 C434 1.349 . S
C423 C421 1.327 . S
C423 C439 1.429 . S
C423 H445 0.950 . S
C424 H420 0.949 . S
C424 C432 1.574 . S
C424 C440 1.368 . S
H425 C433 0.950 . S
H426 C431 0.950 . S
H427 C432 0.949 . S
H428 C434 0.950 . S
H429 C435 0.950 . S
H430 C436 0.949 . S
C431 H426 0.950 . S
C431 C433 1.327 . S
C431 C437 1.429 . S
C432 C424 1.574 . S
C432 H427 0.949 . S
C432 C438 1.368 . S
C433 C417 1.349 . S
C433 H425 0.950 . S
C433 C431 1.327 . S
C434 C422 1.349 . S
C434 H428 0.950 . S
C434 C435 1.327 . S
C435 H429 0.950 . S
C435 C434 1.327 . S
C435 C439 1.429 . S
C436 C419 1.574 . S
C436 H430 0.949 . S
C436 C440 1.368 . S
C437 C418 1.429 . S
C437 C431 1.429 . S
C437 C438 1.523 . S
C438 C419 1.368 . S
C438 C432 1.368 . S
C438 C437 1.523 . S
C439 C423 1.429 . S
C439 C435 1.429 . S
C439 C440 1.523 . S
C440 C424 1.368 . S
C440 C436 1.368 . S
C440 C439 1.523 . S
H441 C416 0.950 . S
H442 C418 0.950 . S
H443 C419 0.949 . S
H444 C421 0.950 . S
H445 C423 0.950 . S
C446 C447 1.349 . S
C446 C448 1.327 . S
C446 H471 0.950 . S
C447 C446 1.349 . S
C447 C463 1.349 . S
C448 C446 1.327 . S
C448 C467 1.429 . S
C448 H472 0.950 . S
C449 C466 1.574 . S
C449 C468 1.368 . S
C449 H473 0.949 . S
H450 C454 0.949 . S
C451 C452 1.349 . S
C451 C453 1.327 . S
C451 H474 0.950 . S
C452 C451 1.349 . S
C452 C464 1.349 . S
C453 C451 1.327 . S
C453 C469 1.429 . S
C453 H475 0.950 . S
C454 H450 0.949 . S
C454 C462 1.574 . S
C454 C470 1.368 . S
H455 C463 0.950 . S
H456 C461 0.950 . S
H457 C462 0.949 . S
H458 C464 0.950 . S
H459 C465 0.950 . S
H460 C466 0.949 . S
C461 H456 0.950 . S
C461 C463 1.327 . S
C461 C467 1.429 . S
C462 C454 1.574 . S
C462 H457 0.949 . S
C462 C468 1.368 . S
C463 C447 1.349 . S
C463 H455 0.950 . S
C463 C461 1.327 . S
C464 C452 1.349 . S
C464 H458 0.950 . S
C464 C465 1.327 . S
C465 H459 0.950 . S
C465 C464 1.327 . S
C465 C469 1.429 . S
C466 C449 1.574 . S
C466 H460 0.949 . S
C466 C470 1.368 . S
C467 C448 1.429 . S
C467 C461 1.429 . S
C467 C468 1.523 . S
C468 C449 1.368 . S
C468 C462 1.368 . S
C468 C467 1.523 . S
C469 C453 1.429 . S
C469 C465 1.429 . S
C469 C470 1.523 . S
C470 C454 1.368 . S
C470 C466 1.368 . S
C470 C469 1.523 . S
H471 C446 0.950 . S
H472 C448 0.950 . S
H473 C449 0.949 . S
H474 C451 0.950 . S
H475 C453 0.950 . S
C476 C477 1.349 . S
C476 C478 1.327 . S
C476 H501 0.950 . S
C477 C476 1.349 . S
C477 C493 1.349 . S
C478 C476 1.327 . S
C478 C497 1.429 . S
C478 H502 0.950 . S
C479 C496 1.574 . S
C479 C498 1.368 . S
C479 H503 0.949 . S
H480 C484 0.949 . S
C481 C482 1.349 . S
C481 C483 1.327 . S
C481 H504 0.950 . S
C482 C481 1.349 . S
C482 C494 1.349 . S
C483 C481 1.327 . S
C483 C499 1.429 . S
C483 H505 0.950 . S
C484 H480 0.949 . S
C484 C492 1.574 . S
C484 C500 1.368 . S
H485 C493 0.950 . S
H486 C491 0.950 . S
H487 C492 0.949 . S
H488 C494 0.950 . S
H489 C495 0.950 . S
H490 C496 0.949 . S
C491 H486 0.950 . S
C491 C493 1.327 . S
C491 C497 1.429 . S
C492 C484 1.574 . S
C492 H487 0.949 . S
C492 C498 1.368 . S
C493 C477 1.349 . S
C493 H485 0.950 . S
C493 C491 1.327 . S
C494 C482 1.349 . S
C494 H488 0.950 . S
C494 C495 1.327 . S
C495 H489 0.950 . S
C495 C494 1.327 . S
C495 C499 1.429 . S
C496 C479 1.574 . S
C496 H490 0.949 . S
C496 C500 1.368 . S
C497 C478 1.429 . S
C497 C491 1.429 . S
C497 C498 1.523 . S
C498 C479 1.368 . S
C498 C492 1.368 . S
C498 C497 1.523 . S
C499 C483 1.429 . S
C499 C495 1.429 . S
C499 C500 1.523 . S
C500 C484 1.368 . S
C500 C496 1.368 . S
C500 C499 1.523 . S
H501 C476 0.950 . S
H502 C478 0.950 . S
H503 C479 0.949 . S
H504 C481 0.950 . S
H505 C483 0.950 . S
C506 C507 1.349 . S
C506 C508 1.327 . S
C506 H531 0.950 . S
C507 C506 1.349 . S
C507 C523 1.349 . S
C508 C506 1.327 . S
C508 C527 1.429 . S
C508 H532 0.950 . S
C509 C526 1.574 . S
C509 C528 1.368 . S
C509 H533 0.949 . S
H510 C514 0.949 . S
C511 C512 1.349 . S
C511 C513 1.327 . S
C511 H534 0.950 . S
C512 C511 1.349 . S
C512 C524 1.349 . S
C513 C511 1.327 . S
C513 C529 1.429 . S
C513 H535 0.950 . S
C514 H510 0.949 . S
C514 C522 1.574 . S
C514 C530 1.368 . S
H515 C523 0.950 . S
H516 C521 0.950 . S
H517 C522 0.949 . S
H518 C524 0.950 . S
H519 C525 0.950 . S
H520 C526 0.949 . S
C521 H516 0.950 . S
C521 C523 1.327 . S
C521 C527 1.429 . S
C522 C514 1.574 . S
C522 H517 0.949 . S
C522 C528 1.368 . S
C523 C507 1.349 . S
C523 H515 0.950 . S
C523 C521 1.327 . S
C524 C512 1.349 . S
C524 H518 0.950 . S
C524 C525 1.327 . S
C525 H519 0.950 . S
C525 C524 1.327 . S
C525 C529 1.429 . S
C526 C509 1.574 . S
C526 H520 0.949 . S
C526 C530 1.368 . S
C527 C508 1.429 . S
C527 C521 1.429 . S
C527 C528 1.523 . S
C528 C509 1.368 . S
C528 C522 1.368 . S
C528 C527 1.523 . S
C529 C513 1.429 . S
C529 C525 1.429 . S
C529 C530 1.523 . S
C530 C514 1.368 . S
C530 C526 1.368 . S
C530 C529 1.523 . S
H531 C506 0.950 . S
H532 C508 0.950 . S
H533 C509 0.949 . S
H534 C511 0.950 . S
H535 C513 0.950 . S
C536 C537 1.349 . S
C536 C538 1.327 . S
C536 H561 0.950 . S
C537 C536 1.349 . S
C537 C553 1.349 . S
C538 C536 1.327 . S
C538 C557 1.429 . S
C538 H562 0.950 . S
C539 C556 1.574 . S
C539 C558 1.368 . S
C539 H563 0.949 . S
H540 C544 0.949 . S
C541 C542 1.349 . S
C541 C543 1.327 . S
C541 H564 0.950 . S
C542 C541 1.349 . S
C542 C554 1.349 . S
C543 C541 1.327 . S
C543 C559 1.429 . S
C543 H565 0.950 . S
C544 H540 0.949 . S
C544 C552 1.574 . S
C544 C560 1.368 . S
H545 C553 0.950 . S
H546 C551 0.950 . S
H547 C552 0.949 . S
H548 C554 0.950 . S
H549 C555 0.950 . S
H550 C556 0.949 . S
C551 H546 0.950 . S
C551 C553 1.327 . S
C551 C557 1.429 . S
C552 C544 1.574 . S
C552 H547 0.949 . S
C552 C558 1.368 . S
C553 C537 1.349 . S
C553 H545 0.950 . S
C553 C551 1.327 . S
C554 C542 1.349 . S
C554 H548 0.950 . S
C554 C555 1.327 . S
C555 H549 0.950 . S
C555 C554 1.327 . S
C555 C559 1.429 . S
C556 C539 1.574 . S
C556 H550 0.949 . S
C556 C560 1.368 . S
C557 C538 1.429 . S
C557 C551 1.429 . S
C557 C558 1.523 . S
C558 C539 1.368 . S
C558 C552 1.368 . S
C558 C557 1.523 . S
C559 C543 1.429 . S
C559 C555 1.429 . S
C559 C560 1.523 . S
C560 C544 1.368 . S
C560 C556 1.368 . S
C560 C559 1.523 . S
H561 C536 0.950 . S
H562 C538 0.950 . S
H563 C539 0.949 . S
H564 C541 0.950 . S
H565 C543 0.950 . S
C566 C567 1.349 . S
C566 C568 1.327 . S
C566 H591 0.950 . S
C567 C566 1.349 . S
C567 C583 1.349 . S
C568 C566 1.327 . S
C568 C587 1.429 . S
C568 H592 0.950 . S
C569 C586 1.574 . S
C569 C588 1.368 . S
C569 H593 0.949 . S
H570 C574 0.949 . S
C571 C572 1.349 . S
C571 C573 1.327 . S
C571 H594 0.950 . S
C572 C571 1.349 . S
C572 C584 1.349 . S
C573 C571 1.327 . S
C573 C589 1.429 . S
C573 H595 0.950 . S
C574 H570 0.949 . S
C574 C582 1.574 . S
C574 C590 1.368 . S
H575 C583 0.950 . S
H576 C581 0.950 . S
H577 C582 0.949 . S
H578 C584 0.950 . S
H579 C585 0.950 . S
H580 C586 0.949 . S
C581 H576 0.950 . S
C581 C583 1.327 . S
C581 C587 1.429 . S
C582 C574 1.574 . S
C582 H577 0.949 . S
C582 C588 1.368 . S
C583 C567 1.349 . S
C583 H575 0.950 . S
C583 C581 1.327 . S
C584 C572 1.349 . S
C584 H578 0.950 . S
C584 C585 1.327 . S
C585 H579 0.950 . S
C585 C584 1.327 . S
C585 C589 1.429 . S
C586 C569 1.574 . S
C586 H580 0.949 . S
C586 C590 1.368 . S
C587 C568 1.429 . S
C587 C581 1.429 . S
C587 C588 1.523 . S
C588 C569 1.368 . S
C588 C582 1.368 . S
C588 C587 1.523 . S
C589 C573 1.429 . S
C589 C585 1.429 . S
C589 C590 1.523 . S
C590 C574 1.368 . S
C590 C586 1.368 . S
C590 C589 1.523 . S
H591 C566 0.950 . S
H592 C568 0.950 . S
H593 C569 0.949 . S
H594 C571 0.950 . S
H595 C573 0.950 . S
C596 C597 1.349 . S
C596 C598 1.327 . S
C596 H621 0.950 . S
C597 C596 1.349 . S
C597 C613 1.349 . S
C598 C596 1.327 . S
C598 C617 1.429 . S
C598 H622 0.950 . S
C599 C616 1.574 . S
C599 C618 1.368 . S
C599 H623 0.949 . S
H600 C604 0.949 . S
C601 C602 1.349 . S
C601 C603 1.327 . S
C601 H624 0.950 . S
C602 C601 1.349 . S
C602 C614 1.349 . S
C603 C601 1.327 . S
C603 C619 1.429 . S
C603 H625 0.950 . S
C604 H600 0.949 . S
C604 C612 1.574 . S
C604 C620 1.368 . S
H605 C613 0.950 . S
H606 C611 0.950 . S
H607 C612 0.949 . S
H608 C614 0.950 . S
H609 C615 0.950 . S
H610 C616 0.949 . S
C611 H606 0.950 . S
C611 C613 1.327 . S
C611 C617 1.429 . S
C612 C604 1.574 . S
C612 H607 0.949 . S
C612 C618 1.368 . S
C613 C597 1.349 . S
C613 H605 0.950 . S
C613 C611 1.327 . S
C614 C602 1.349 . S
C614 H608 0.950 . S
C614 C615 1.327 . S
C615 H609 0.950 . S
C615 C614 1.327 . S
C615 C619 1.429 . S
C616 C599 1.574 . S
C616 H610 0.949 . S
C616 C620 1.368 . S
C617 C598 1.429 . S
C617 C611 1.429 . S
C617 C618 1.523 . S
C618 C599 1.368 . S
C618 C612 1.368 . S
C618 C617 1.523 . S
C619 C603 1.429 . S
C619 C615 1.429 . S
C619 C620 1.523 . S
C620 C604 1.368 . S
C620 C616 1.368 . S
C620 C619 1.523 . S
H621 C596 0.950 . S
H622 C598 0.950 . S
H623 C599 0.949 . S
H624 C601 0.950 . S
H625 C603 0.950 . S
C626 C627 1.349 . S
C626 C628 1.327 . S
C626 H651 0.950 . S
C627 C626 1.349 . S
C627 C643 1.349 . S
C628 C626 1.327 . S
C628 C647 1.429 . S
C628 H652 0.950 . S
C629 C646 1.574 . S
C629 C648 1.368 . S
C629 H653 0.949 . S
H630 C634 0.949 . S
C631 C632 1.349 . S
C631 C633 1.327 . S
C631 H654 0.950 . S
C632 C631 1.349 . S
C632 C644 1.349 . S
C633 C631 1.327 . S
C633 C649 1.429 . S
C633 H655 0.950 . S
C634 H630 0.949 . S
C634 C642 1.574 . S
C634 C650 1.368 . S
H635 C643 0.950 . S
H636 C641 0.950 . S
H637 C642 0.949 . S
H638 C644 0.950 . S
H639 C645 0.950 . S
H640 C646 0.949 . S
C641 H636 0.950 . S
C641 C643 1.327 . S
C641 C647 1.429 . S
C642 C634 1.574 . S
C642 H637 0.949 . S
C642 C648 1.368 . S
C643 C627 1.349 . S
C643 H635 0.950 . S
C643 C641 1.327 . S
C644 C632 1.349 . S
C644 H638 0.950 . S
C644 C645 1.327 . S
C645 H639 0.950 . S
C645 C644 1.327 . S
C645 C649 1.429 . S
C646 C629 1.574 . S
C646 H640 0.949 . S
C646 C650 1.368 . S
C647 C628 1.429 . S
C647 C641 1.429 . S
C647 C648 1.523 . S
C648 C629 1.368 . S
C648 C642 1.368 . S
C648 C647 1.523 . S
C649 C633 1.429 . S
C649 C645 1.429 . S
C649 C650 1.523 . S
C650 C634 1.368 . S
C650 C646 1.368 . S
C650 C649 1.523 . S
H651 C626 0.950 . S
H652 C628 0.950 . S
H653 C629 0.949 . S
H654 C631 0.950 . S
H655 C633 0.950 . S
C656 C657 1.349 . S
C656 C658 1.327 . S
C656 H681 0.950 . S
C657 C656 1.349 . S
C657 C673 1.349 . S
C658 C656 1.327 . S
C658 C677 1.429 . S
C658 H682 0.950 . S
C659 C676 1.574 . S
C659 C678 1.368 . S
C659 H683 0.949 . S
H660 C664 0.949 . S
C661 C662 1.349 . S
C661 C663 1.327 . S
C661 H684 0.950 . S
C662 C661 1.349 . S
C662 C674 1.349 . S
C663 C661 1.327 . S
C663 C679 1.429 . S
C663 H685 0.950 . S
C664 H660 0.949 . S
C664 C672 1.574 . S
C664 C680 1.368 . S
H665 C673 0.950 . S
H666 C671 0.950 . S
H667 C672 0.949 . S
H668 C674 0.950 . S
H669 C675 0.950 . S
H670 C676 0.949 . S
C671 H666 0.950 . S
C671 C673 1.327 . S
C671 C677 1.429 . S
C672 C664 1.574 . S
C672 H667 0.949 . S
C672 C678 1.368 . S
C673 C657 1.349 . S
C673 H665 0.950 . S
C673 C671 1.327 . S
C674 C662 1.349 . S
C674 H668 0.950 . S
C674 C675 1.327 . S
C675 H669 0.950 . S
C675 C674 1.327 . S
C675 C679 1.429 . S
C676 C659 1.574 . S
C676 H670 0.949 . S
C676 C680 1.368 . S
C677 C658 1.429 . S
C677 C671 1.429 . S
C677 C678 1.523 . S
C678 C659 1.368 . S
C678 C672 1.368 . S
C678 C677 1.523 . S
C679 C663 1.429 . S
C679 C675 1.429 . S
C679 C680 1.523 . S
C680 C664 1.368 . S
C680 C676 1.368 . S
C680 C679 1.523 . S
H681 C656 0.950 . S
H682 C658 0.950 . S
H683 C659 0.949 . S
H684 C661 0.950 . S
H685 C663 0.950 . S
C686 C687 1.349 . S
C686 C688 1.327 . S
C686 H711 0.950 . S
C687 C686 1.349 . S
C687 C703 1.349 . S
C688 C686 1.327 . S
C688 C707 1.429 . S
C688 H712 0.950 . S
C689 C706 1.574 . S
C689 C708 1.368 . S
C689 H713 0.949 . S
H690 C694 0.949 . S
C691 C692 1.349 . S
C691 C693 1.327 . S
C691 H714 0.950 . S
C692 C691 1.349 . S
C692 C704 1.349 . S
C693 C691 1.327 . S
C693 C709 1.429 . S
C693 H715 0.950 . S
C694 H690 0.949 . S
C694 C702 1.574 . S
C694 C710 1.368 . S
H695 C703 0.950 . S
H696 C701 0.950 . S
H697 C702 0.949 . S
H698 C704 0.950 . S
H699 C705 0.950 . S
H700 C706 0.949 . S
C701 H696 0.950 . S
C701 C703 1.327 . S
C701 C707 1.429 . S
C702 C694 1.574 . S
C702 H697 0.949 . S
C702 C708 1.368 . S
C703 C687 1.349 . S
C703 H695 0.950 . S
C703 C701 1.327 . S
C704 C692 1.349 . S
C704 H698 0.950 . S
C704 C705 1.327 . S
C705 H699 0.950 . S
C705 C704 1.327 . S
C705 C709 1.429 . S
C706 C689 1.574 . S
C706 H700 0.949 . S
C706 C710 1.368 . S
C707 C688 1.429 . S
C707 C701 1.429 . S
C707 C708 1.523 . S
C708 C689 1.368 . S
C708 C702 1.368 . S
C708 C707 1.523 . S
C709 C693 1.429 . S
C709 C705 1.429 . S
C709 C710 1.523 . S
C710 C694 1.368 . S
C710 C706 1.368 . S
C710 C709 1.523 . S
H711 C686 0.950 . S
H712 C688 0.950 . S
H713 C689 0.949 . S
H714 C691 0.950 . S
H715 C693 0.950 . S
C716 C717 1.349 . S
C716 C718 1.327 . S
C716 H741 0.950 . S
C717 C716 1.349 . S
C717 C733 1.349 . S
C718 C716 1.327 . S
C718 C737 1.429 . S
C718 H742 0.950 . S
C719 C736 1.574 . S
C719 C738 1.368 . S
C719 H743 0.949 . S
H720 C724 0.949 . S
C721 C722 1.349 . S
C721 C723 1.327 . S
C721 H744 0.950 . S
C722 C721 1.349 . S
C722 C734 1.349 . S
C723 C721 1.327 . S
C723 C739 1.429 . S
C723 H745 0.950 . S
C724 H720 0.949 . S
C724 C732 1.574 . S
C724 C740 1.368 . S
H725 C733 0.950 . S
H726 C731 0.950 . S
H727 C732 0.949 . S
H728 C734 0.950 . S
H729 C735 0.950 . S
H730 C736 0.949 . S
C731 H726 0.950 . S
C731 C733 1.327 . S
C731 C737 1.429 . S
C732 C724 1.574 . S
C732 H727 0.949 . S
C732 C738 1.368 . S
C733 C717 1.349 . S
C733 H725 0.950 . S
C733 C731 1.327 . S
C734 C722 1.349 . S
C734 H728 0.950 . S
C734 C735 1.327 . S
C735 H729 0.950 . S
C735 C734 1.327 . S
C735 C739 1.429 . S
C736 C719 1.574 . S
C736 H730 0.949 . S
C736 C740 1.368 . S
C737 C718 1.429 . S
C737 C731 1.429 . S
C737 C738 1.523 . S
C738 C719 1.368 . S
C738 C732 1.368 . S
C738 C737 1.523 . S
C739 C723 1.429 . S
C739 C735 1.429 . S
C739 C740 1.523 . S
C740 C724 1.368 . S
C740 C736 1.368 . S
C740 C739 1.523 . S
H741 C716 0.950 . S
H742 C718 0.950 . S
H743 C719 0.949 . S
H744 C721 0.950 . S
H745 C723 0.950 . S
C746 C747 1.349 . S
C746 C748 1.327 . S
C746 H771 0.950 . S
C747 C746 1.349 . S
C747 C763 1.349 . S
C748 C746 1.327 . S
C748 C767 1.429 . S
C748 H772 0.950 . S
C749 C766 1.574 . S
C749 C768 1.368 . S
C749 H773 0.949 . S
H750 C754 0.949 . S
C751 C752 1.349 . S
C751 C753 1.327 . S
C751 H774 0.950 . S
C752 C751 1.349 . S
C752 C764 1.349 . S
C753 C751 1.327 . S
C753 C769 1.429 . S
C753 H775 0.950 . S
C754 H750 0.949 . S
C754 C762 1.574 . S
C754 C770 1.368 . S
H755 C763 0.950 . S
H756 C761 0.950 . S
H757 C762 0.949 . S
H758 C764 0.950 . S
H759 C765 0.950 . S
H760 C766 0.949 . S
C761 H756 0.950 . S
C761 C763 1.327 . S
C761 C767 1.429 . S
C762 C754 1.574 . S
C762 H757 0.949 . S
C762 C768 1.368 . S
C763 C747 1.349 . S
C763 H755 0.950 . S
C763 C761 1.327 . S
C764 C752 1.349 . S
C764 H758 0.950 . S
C764 C765 1.327 . S
C765 H759 0.950 . S
C765 C764 1.327 . S
C765 C769 1.429 . S
C766 C749 1.574 . S
C766 H760 0.949 . S
C766 C770 1.368 . S
C767 C748 1.429 . S
C767 C761 1.429 . S
C767 C768 1.523 . S
C768 C749 1.368 . S
C768 C762 1.368 . S
C768 C767 1.523 . S
C769 C753 1.429 . S
C769 C765 1.429 . S
C769 C770 1.523 . S
C770 C754 1.368 . S
C770 C766 1.368 . S
C770 C769 1.523 . S
H771 C746 0.950 . S
H772 C748 0.950 . S
H773 C749 0.949 . S
H774 C751 0.950 . S
H775 C753 0.950 . S
C776 C777 1.349 . S
C776 C778 1.327 . S
C776 H801 0.950 . S
C777 C776 1.349 . S
C777 C793 1.349 . S
C778 C776 1.327 . S
C778 C797 1.429 . S
C778 H802 0.950 . S
C779 C796 1.574 . S
C779 C798 1.368 . S
C779 H803 0.949 . S
H780 C784 0.949 . S
C781 C782 1.349 . S
C781 C783 1.327 . S
C781 H804 0.950 . S
C782 C781 1.349 . S
C782 C794 1.349 . S
C783 C781 1.327 . S
C783 C799 1.429 . S
C783 H805 0.950 . S
C784 H780 0.949 . S
C784 C792 1.574 . S
C784 C800 1.368 . S
H785 C793 0.950 . S
H786 C791 0.950 . S
H787 C792 0.949 . S
H788 C794 0.950 . S
H789 C795 0.950 . S
H790 C796 0.949 . S
C791 H786 0.950 . S
C791 C793 1.327 . S
C791 C797 1.429 . S
C792 C784 1.574 . S
C792 H787 0.949 . S
C792 C798 1.368 . S
C793 C777 1.349 . S
C793 H785 0.950 . S
C793 C791 1.327 . S
C794 C782 1.349 . S
C794 H788 0.950 . S
C794 C795 1.327 . S
C795 H789 0.950 . S
C795 C794 1.327 . S
C795 C799 1.429 . S
C796 C779 1.574 . S
C796 H790 0.949 . S
C796 C800 1.368 . S
C797 C778 1.429 . S
C797 C791 1.429 . S
C797 C798 1.523 . S
C798 C779 1.368 . S
C798 C792 1.368 . S
C798 C797 1.523 . S
C799 C783 1.429 . S
C799 C795 1.429 . S
C799 C800 1.523 . S
C800 C784 1.368 . S
C800 C796 1.368 . S
C800 C799 1.523 . S
H801 C776 0.950 . S
H802 C778 0.950 . S
H803 C779 0.949 . S
H804 C781 0.950 . S
H805 C783 0.950 . S
C806 C807 1.349 . S
C806 C808 1.327 . S
C806 H831 0.950 . S
C807 C806 1.349 . S
C807 C823 1.349 . S
C808 C806 1.327 . S
C808 C827 1.429 . S
C808 H832 0.950 . S
C809 C826 1.574 . S
C809 C828 1.368 . S
C809 H833 0.949 . S
H810 C814 0.949 . S
C811 C812 1.349 . S
C811 C813 1.327 . S
C811 H834 0.950 . S
C812 C811 1.349 . S
C812 C824 1.349 . S
C813 C811 1.327 . S
C813 C829 1.429 . S
C813 H835 0.950 . S
C814 H810 0.949 . S
C814 C822 1.574 . S
C814 C830 1.368 . S
H815 C823 0.950 . S
H816 C821 0.950 . S
H817 C822 0.949 . S
H818 C824 0.950 . S
H819 C825 0.950 . S
H820 C826 0.949 . S
C821 H816 0.950 . S
C821 C823 1.327 . S
C821 C827 1.429 . S
C822 C814 1.574 . S
C822 H817 0.949 . S
C822 C828 1.368 . S
C823 C807 1.349 . S
C823 H815 0.950 . S
C823 C821 1.327 . S
C824 C812 1.349 . S
C824 H818 0.950 . S
C824 C825 1.327 . S
C825 H819 0.950 . S
C825 C824 1.327 . S
C825 C829 1.429 . S
C826 C809 1.574 . S
C826 H820 0.949 . S
C826 C830 1.368 . S
C827 C808 1.429 . S
C827 C821 1.429 . S
C827 C828 1.523 . S
C828 C809 1.368 . S
C828 C822 1.368 . S
C828 C827 1.523 . S
C829 C813 1.429 . S
C829 C825 1.429 . S
C829 C830 1.523 . S
C830 C814 1.368 . S
C830 C826 1.368 . S
C830 C829 1.523 . S
H831 C806 0.950 . S
H832 C808 0.950 . S
H833 C809 0.949 . S
H834 C811 0.950 . S
H835 C813 0.950 . S
C836 C837 1.349 . S
C836 C838 1.327 . S
C836 H861 0.950 . S
C837 C836 1.349 . S
C837 C853 1.349 . S
C838 C836 1.327 . S
C838 C857 1.429 . S
C838 H862 0.950 . S
C839 C856 1.574 . S
C839 C858 1.368 . S
C839 H863 0.949 . S
H840 C844 0.949 . S
C841 C842 1.349 . S
C841 C843 1.327 . S
C841 H864 0.950 . S
C842 C841 1.349 . S
C842 C854 1.349 . S
C843 C841 1.327 . S
C843 C859 1.429 . S
C843 H865 0.950 . S
C844 H840 0.949 . S
C844 C852 1.574 . S
C844 C860 1.368 . S
H845 C853 0.950 . S
H846 C851 0.950 . S
H847 C852 0.949 . S
H848 C854 0.950 . S
H849 C855 0.950 . S
H850 C856 0.949 . S
C851 H846 0.950 . S
C851 C853 1.327 . S
C851 C857 1.429 . S
C852 C844 1.574 . S
C852 H847 0.949 . S
C852 C858 1.368 . S
C853 C837 1.349 . S
C853 H845 0.950 . S
C853 C851 1.327 . S
C854 C842 1.349 . S
C854 H848 0.950 . S
C854 C855 1.327 . S
C855 H849 0.950 . S
C855 C854 1.327 . S
C855 C859 1.429 . S
C856 C839 1.574 . S
C856 H850 0.949 . S
C856 C860 1.368 . S
C857 C838 1.429 . S
C857 C851 1.429 . S
C857 C858 1.523 . S
C858 C839 1.368 . S
C858 C852 1.368 . S
C858 C857 1.523 . S
C859 C843 1.429 . S
C859 C855 1.429 . S
C859 C860 1.523 . S
C860 C844 1.368 . S
C860 C856 1.368 . S
C860 C859 1.523 . S
H861 C836 0.950 . S
H862 C838 0.950 . S
H863 C839 0.949 . S
H864 C841 0.950 . S
H865 C843 0.950 . S
C866 C867 1.349 . S
C866 C868 1.327 . S
C866 H891 0.950 . S
C867 C866 1.349 . S
C867 C883 1.349 . S
C868 C866 1.327 . S
C868 C887 1.429 . S
C868 H892 0.950 . S
C869 C886 1.574 . S
C869 C888 1.368 . S
C869 H893 0.949 . S
H870 C874 0.949 . S
C871 C872 1.349 . S
C871 C873 1.327 . S
C871 H894 0.950 . S
C872 C871 1.349 . S
C872 C884 1.349 . S
C873 C871 1.327 . S
C873 C889 1.429 . S
C873 H895 0.950 . S
C874 H870 0.949 . S
C874 C882 1.574 . S
C874 C890 1.368 . S
H875 C883 0.950 . S
H876 C881 0.950 . S
H877 C882 0.949 . S
H878 C884 0.950 . S
H879 C885 0.950 . S
H880 C886 0.949 . S
C881 H876 0.950 . S
C881 C883 1.327 . S
C881 C887 1.429 . S
C882 C874 1.574 . S
C882 H877 0.949 . S
C882 C888 1.368 . S
C883 C867 1.349 . S
C883 H875 0.950 . S
C883 C881 1.327 . S
C884 C872 1.349 . S
C884 H878 0.950 . S
C884 C885 1.327 . S
C885 H879 0.950 . S
C885 C884 1.327 . S
C885 C889 1.429 . S
C886 C869 1.574 . S
C886 H880 0.949 . S
C886 C890 1.368 . S
C887 C868 1.429 . S
C887 C881 1.429 . S
C887 C888 1.523 . S
C888 C869 1.368 . S
C888 C882 1.368 . S
C888 C887 1.523 . S
C889 C873 1.429 . S
C889 C885 1.429 . S
C889 C890 1.523 . S
C890 C874 1.368 . S
C890 C886 1.368 . S
C890 C889 1.523 . S
H891 C866 0.950 . S
H892 C868 0.950 . S
H893 C869 0.949 . S
H894 C871 0.950 . S
H895 C873 0.950 . S
C896 C897 1.349 . S
C896 C898 1.327 . S
C896 H921 0.950 . S
C897 C896 1.349 . S
C897 C913 1.349 . S
C898 C896 1.327 . S
C898 C917 1.429 . S
C898 H922 0.950 . S
C899 C916 1.574 . S
C899 C918 1.368 . S
C899 H923 0.949 . S
H900 C904 0.949 . S
C901 C902 1.349 . S
C901 C903 1.327 . S
C901 H924 0.950 . S
C902 C901 1.349 . S
C902 C914 1.349 . S
C903 C901 1.327 . S
C903 C919 1.429 . S
C903 H925 0.950 . S
C904 H900 0.949 . S
C904 C912 1.574 . S
C904 C920 1.368 . S
H905 C913 0.950 . S
H906 C911 0.950 . S
H907 C912 0.949 . S
H908 C914 0.950 . S
H909 C915 0.950 . S
H910 C916 0.949 . S
C911 H906 0.950 . S
C911 C913 1.327 . S
C911 C917 1.429 . S
C912 C904 1.574 . S
C912 H907 0.949 . S
C912 C918 1.368 . S
C913 C897 1.349 . S
C913 H905 0.950 . S
C913 C911 1.327 . S
C914 C902 1.349 . S
C914 H908 0.950 . S
C914 C915 1.327 . S
C915 H909 0.950 . S
C915 C914 1.327 . S
C915 C919 1.429 . S
C916 C899 1.574 . S
C916 H910 0.949 . S
C916 C920 1.368 . S
C917 C898 1.429 . S
C917 C911 1.429 . S
C917 C918 1.523 . S
C918 C899 1.368 . S
C918 C912 1.368 . S
C918 C917 1.523 . S
C919 C903 1.429 . S
C919 C915 1.429 . S
C919 C920 1.523 . S
C920 C904 1.368 . S
C920 C916 1.368 . S
C920 C919 1.523 . S
H921 C896 0.950 . S
H922 C898 0.950 . S
H923 C899 0.949 . S
H924 C901 0.950 . S
H925 C903 0.950 . S
C926 C927 1.349 . S
C926 C928 1.327 . S
C926 H951 0.950 . S
C927 C926 1.349 . S
C927 C943 1.349 . S
C928 C926 1.327 . S
C928 C947 1.429 . S
C928 H952 0.950 . S
C929 C946 1.574 . S
C929 C948 1.368 . S
C929 H953 0.949 . S
H930 C934 0.949 . S
C931 C932 1.349 . S
C931 C933 1.327 . S
C931 H954 0.950 . S
C932 C931 1.349 . S
C932 C944 1.349 . S
C933 C931 1.327 . S
C933 C949 1.429 . S
C933 H955 0.950 . S
C934 H930 0.949 . S
C934 C942 1.574 . S
C934 C950 1.368 . S
H935 C943 0.950 . S
H936 C941 0.950 . S
H937 C942 0.949 . S
H938 C944 0.950 . S
H939 C945 0.950 . S
H940 C946 0.949 . S
C941 H936 0.950 . S
C941 C943 1.327 . S
C941 C947 1.429 . S
C942 C934 1.574 . S
C942 H937 0.949 . S
C942 C948 1.368 . S
C943 C927 1.349 . S
C943 H935 0.950 . S
C943 C941 1.327 . S
C944 C932 1.349 . S
C944 H938 0.950 . S
C944 C945 1.327 . S
C945 H939 0.950 . S
C945 C944 1.327 . S
C945 C949 1.429 . S
C946 C929 1.574 . S
C946 H940 0.949 . S
C946 C950 1.368 . S
C947 C928 1.429 . S
C947 C941 1.429 . S
C947 C948 1.523 . S
C948 C929 1.368 . S
C948 C942 1.368 . S
C948 C947 1.523 . S
C949 C933 1.429 . S
C949 C945 1.429 . S
C949 C950 1.523 . S
C950 C934 1.368 . S
C950 C946 1.368 . S
C950 C949 1.523 . S
H951 C926 0.950 . S
H952 C928 0.950 . S
H953 C929 0.949 . S
H954 C931 0.950 . S
H955 C933 0.950 . S
C956 C957 1.349 . S
C956 C958 1.327 . S
C956 H981 0.950 . S
C957 C956 1.349 . S
C957 C973 1.349 . S
C958 C956 1.327 . S
C958 C977 1.429 . S
C958 H982 0.950 . S
C959 C976 1.574 . S
C959 C978 1.368 . S
C959 H983 0.949 . S
H960 C964 0.949 . S
C961 C962 1.349 . S
C961 C963 1.327 . S
C961 H984 0.950 . S
C962 C961 1.349 . S
C962 C974 1.349 . S
C963 C961 1.327 . S
C963 C979 1.429 . S
C963 H985 0.950 . S
C964 H960 0.949 . S
C964 C972 1.574 . S
C964 C980 1.368 . S
H965 C973 0.950 . S
H966 C971 0.950 . S
H967 C972 0.949 . S
H968 C974 0.950 . S
H969 C975 0.950 . S
H970 C976 0.949 . S
C971 H966 0.950 . S
C971 C973 1.327 . S
C971 C977 1.429 . S
C972 C964 1.574 . S
C972 H967 0.949 . S
C972 C978 1.368 . S
C973 C957 1.349 . S
C973 H965 0.950 . S
C973 C971 1.327 . S
C974 C962 1.349 . S
C974 H968 0.950 . S
C974 C975 1.327 . S
C975 H969 0.950 . S
C975 C974 1.327 . S
C975 C979 1.429 . S
C976 C959 1.574 . S
C976 H970 0.949 . S
C976 C980 1.368 . S
C977 C958 1.429 . S
C977 C971 1.429 . S
C977 C978 1.523 . S
C978 C959 1.368 . S
C978 C972 1.368 . S
C978 C977 1.523 . S
C979 C963 1.429 . S
C979 C975 1.429 . S
C979 C980 1.523 . S
C980 C964 1.368 . S
C980 C976 1.368 . S
C980 C979 1.523 . S
H981 C956 0.950 . S
H982 C958 0.950 . S
H983 C959 0.949 . S
H984 C961 0.950 . S
H985 C963 0.950 . S
C986 C987 1.349 . S
C986 C988 1.327 . S
C986 H1011 0.950 . S
C987 C986 1.349 . S
C987 C1003 1.349 . S
C988 C986 1.327 . S
C988 C1007 1.429 . S
C988 H1012 0.950 . S
C989 C1006 1.574 . S
C989 C1008 1.368 . S
C989 H1013 0.949 . S
H990 C994 0.949 . S
C991 C992 1.349 . S
C991 C993 1.327 . S
C991 H1014 0.950 . S
C992 C991 1.349 . S
C992 C1004 1.349 . S
C993 C991 1.327 . S
C993 C1009 1.429 . S
C993 H1015 0.950 . S
C994 H990 0.949 . S
C994 C1002 1.574 . S
C994 C1010 1.368 . S
H995 C1003 0.950 . S
H996 C1001 0.950 . S
H997 C1002 0.949 . S
H998 C1004 0.950 . S
H999 C1005 0.950 . S
H1000 C1006 0.949 . S
C1001 H996 0.950 . S
C1001 C1003 1.327 . S
C1001 C1007 1.429 . S
C1002 C994 1.574 . S
C1002 H997 0.949 . S
C1002 C1008 1.368 . S
C1003 C987 1.349 . S
C1003 H995 0.950 . S
C1003 C1001 1.327 . S
C1004 C992 1.349 . S
C1004 H998 0.950 . S
C1004 C1005 1.327 . S
C1005 H999 0.950 . S
C1005 C1004 1.327 . S
C1005 C1009 1.429 . S
C1006 C989 1.574 . S
C1006 H1000 0.949 . S
C1006 C1010 1.368 . S
C1007 C988 1.429 . S
C1007 C1001 1.429 . S
C1007 C1008 1.523 . S
C1008 C989 1.368 . S
C1008 C1002 1.368 . S
C1008 C1007 1.523 . S
C1009 C993 1.429 . S
C1009 C1005 1.429 . S
C1009 C1010 1.523 . S
C1010 C994 1.368 . S
C1010 C1006 1.368 . S
C1010 C1009 1.523 . S
H1011 C986 0.950 . S
H1012 C988 0.950 . S
H1013 C989 0.949 . S
H1014 C991 0.950 . S
H1015 C993 0.950 . S
C1016 C1017 1.349 . S
C1016 C1018 1.327 . S
C1016 H1041 0.950 . S
C1017 C1016 1.349 . S
C1017 C1033 1.349 . S
C1018 C1016 1.327 . S
C1018 C1037 1.429 . S
C1018 H1042 0.950 . S
C1019 C1036 1.574 . S
C1019 C1038 1.368 . S
C1019 H1043 0.949 . S
H1020 C1024 0.949 . S
C1021 C1022 1.349 . S
C1021 C1023 1.327 . S
C1021 H1044 0.950 . S
C1022 C1021 1.349 . S
C1022 C1034 1.349 . S
C1023 C1021 1.327 . S
C1023 C1039 1.429 . S
C1023 H1045 0.950 . S
C1024 H1020 0.949 . S
C1024 C1032 1.574 . S
C1024 C1040 1.368 . S
H1025 C1033 0.950 . S
H1026 C1031 0.950 . S
H1027 C1032 0.949 . S
H1028 C1034 0.950 . S
H1029 C1035 0.950 . S
H1030 C1036 0.949 . S
C1031 H1026 0.950 . S
C1031 C1033 1.327 . S
C1031 C1037 1.429 . S
C1032 C1024 1.574 . S
C1032 H1027 0.949 . S
C1032 C1038 1.368 . S
C1033 C1017 1.349 . S
C1033 H1025 0.950 . S
C1033 C1031 1.327 . S
C1034 C1022 1.349 . S
C1034 H1028 0.950 . S
C1034 C1035 1.327 . S
C1035 H1029 0.950 . S
C1035 C1034 1.327 . S
C1035 C1039 1.429 . S
C1036 C1019 1.574 . S
C1036 H1030 0.949 . S
C1036 C1040 1.368 . S
C1037 C1018 1.429 . S
C1037 C1031 1.429 . S
C1037 C1038 1.523 . S
C1038 C1019 1.368 . S
C1038 C1032 1.368 . S
C1038 C1037 1.523 . S
C1039 C1023 1.429 . S
C1039 C1035 1.429 . S
C1039 C1040 1.523 . S
C1040 C1024 1.368 . S
C1040 C1036 1.368 . S
C1040 C1039 1.523 . S
H1041 C1016 0.950 . S
H1042 C1018 0.950 . S
H1043 C1019 0.949 . S
H1044 C1021 0.950 . S
H1045 C1023 0.950 . S
C1046 C1047 1.349 . S
C1046 C1048 1.327 . S
C1046 H1071 0.950 . S
C1047 C1046 1.349 . S
C1047 C1063 1.349 . S
C1048 C1046 1.327 . S
C1048 C1067 1.429 . S
C1048 H1072 0.950 . S
C1049 C1066 1.574 . S
C1049 C1068 1.368 . S
C1049 H1073 0.949 . S
H1050 C1054 0.949 . S
C1051 C1052 1.349 . S
C1051 C1053 1.327 . S
C1051 H1074 0.950 . S
C1052 C1051 1.349 . S
C1052 C1064 1.349 . S
C1053 C1051 1.327 . S
C1053 C1069 1.429 . S
C1053 H1075 0.950 . S
C1054 H1050 0.949 . S
C1054 C1062 1.574 . S
C1054 C1070 1.368 . S
H1055 C1063 0.950 . S
H1056 C1061 0.950 . S
H1057 C1062 0.949 . S
H1058 C1064 0.950 . S
H1059 C1065 0.950 . S
H1060 C1066 0.949 . S
C1061 H1056 0.950 . S
C1061 C1063 1.327 . S
C1061 C1067 1.429 . S
C1062 C1054 1.574 . S
C1062 H1057 0.949 . S
C1062 C1068 1.368 . S
C1063 C1047 1.349 . S
C1063 H1055 0.950 . S
C1063 C1061 1.327 . S
C1064 C1052 1.349 . S
C1064 H1058 0.950 . S
C1064 C1065 1.327 . S
C1065 H1059 0.950 . S
C1065 C1064 1.327 . S
C1065 C1069 1.429 . S
C1066 C1049 1.574 . S
C1066 H1060 0.949 . S
C1066 C1070 1.368 . S
C1067 C1048 1.429 . S
C1067 C1061 1.429 . S
C1067 C1068 1.523 . S
C1068 C1049 1.368 . S
C1068 C1062 1.368 . S
C1068 C1067 1.523 . S
C1069 C1053 1.429 . S
C1069 C1065 1.429 . S
C1069 C1070 1.523 . S
C1070 C1054 1.368 . S
C1070 C1066 1.368 . S
C1070 C1069 1.523 . S
H1071 C1046 0.950 . S
H1072 C1048 0.950 . S
H1073 C1049 0.949 . S
H1074 C1051 0.950 . S
H1075 C1053 0.950 . S
C1076 C1077 1.349 . S
C1076 C1078 1.327 . S
C1076 H1101 0.950 . S
C1077 C1076 1.349 . S
C1077 C1093 1.349 . S
C1078 C1076 1.327 . S
C1078 C1097 1.429 . S
C1078 H1102 0.950 . S
C1079 C1096 1.574 . S
C1079 C1098 1.368 . S
C1079 H1103 0.949 . S
H1080 C1084 0.949 . S
C1081 C1082 1.349 . S
C1081 C1083 1.327 . S
C1081 H1104 0.950 . S
C1082 C1081 1.349 . S
C1082 C1094 1.349 . S
C1083 C1081 1.327 . S
C1083 C1099 1.429 . S
C1083 H1105 0.950 . S
C1084 H1080 0.949 . S
C1084 C1092 1.574 . S
C1084 C1100 1.368 . S
H1085 C1093 0.950 . S
H1086 C1091 0.950 . S
H1087 C1092 0.949 . S
H1088 C1094 0.950 . S
H1089 C1095 0.950 . S
H1090 C1096 0.949 . S
C1091 H1086 0.950 . S
C1091 C1093 1.327 . S
C1091 C1097 1.429 . S
C1092 C1084 1.574 . S
C1092 H1087 0.949 . S
C1092 C1098 1.368 . S
C1093 C1077 1.349 . S
C1093 H1085 0.950 . S
C1093 C1091 1.327 . S
C1094 C1082 1.349 . S
C1094 H1088 0.950 . S
C1094 C1095 1.327 . S
C1095 H1089 0.950 . S
C1095 C1094 1.327 . S
C1095 C1099 1.429 . S
C1096 C1079 1.574 . S
C1096 H1090 0.949 . S
C1096 C1100 1.368 . S
C1097 C1078 1.429 . S
C1097 C1091 1.429 . S
C1097 C1098 1.523 . S
C1098 C1079 1.368 . S
C1098 C1092 1.368 . S
C1098 C1097 1.523 . S
C1099 C1083 1.429 . S
C1099 C1095 1.429 . S
C1099 C1100 1.523 . S
C1100 C1084 1.368 . S
C1100 C1096 1.368 . S
C1100 C1099 1.523 . S
H1101 C1076 0.950 . S
H1102 C1078 0.950 . S
H1103 C1079 0.949 . S
H1104 C1081 0.950 . S
H1105 C1083 0.950 . S
C1106 C1107 1.349 . S
C1106 C1108 1.327 . S
C1106 H1131 0.950 . S
C1107 C1106 1.349 . S
C1107 C1123 1.349 . S
C1108 C1106 1.327 . S
C1108 C1127 1.429 . S
C1108 H1132 0.950 . S
C1109 C1126 1.574 . S
C1109 C1128 1.368 . S
C1109 H1133 0.949 . S
H1110 C1114 0.949 . S
C1111 C1112 1.349 . S
C1111 C1113 1.327 . S
C1111 H1134 0.950 . S
C1112 C1111 1.349 . S
C1112 C1124 1.349 . S
C1113 C1111 1.327 . S
C1113 C1129 1.429 . S
C1113 H1135 0.950 . S
C1114 H1110 0.949 . S
C1114 C1122 1.574 . S
C1114 C1130 1.368 . S
H1115 C1123 0.950 . S
H1116 C1121 0.950 . S
H1117 C1122 0.949 . S
H1118 C1124 0.950 . S
H1119 C1125 0.950 . S
H1120 C1126 0.949 . S
C1121 H1116 0.950 . S
C1121 C1123 1.327 . S
C1121 C1127 1.429 . S
C1122 C1114 1.574 . S
C1122 H1117 0.949 . S
C1122 C1128 1.368 . S
C1123 C1107 1.349 . S
C1123 H1115 0.950 . S
C1123 C1121 1.327 . S
C1124 C1112 1.349 . S
C1124 H1118 0.950 . S
C1124 C1125 1.327 . S
C1125 H1119 0.950 . S
C1125 C1124 1.327 . S
C1125 C1129 1.429 . S
C1126 C1109 1.574 . S
C1126 H1120 0.949 . S
C1126 C1130 1.368 . S
C1127 C1108 1.429 . S
C1127 C1121 1.429 . S
C1127 C1128 1.523 . S
C1128 C1109 1.368 . S
C1128 C1122 1.368 . S
C1128 C1127 1.523 . S
C1129 C1113 1.429 . S
C1129 C1125 1.429 . S
C1129 C1130 1.523 . S
C1130 C1114 1.368 . S
C1130 C1126 1.368 . S
C1130 C1129 1.523 . S
H1131 C1106 0.950 . S
H1132 C1108 0.950 . S
H1133 C1109 0.949 . S
H1134 C1111 0.950 . S
H1135 C1113 0.950 . S
C417 C29 1.163 . S
C422 C273 1.160 . S
C447 C49 1.016 . S
C452 C313 1.085 . S
C482 C338 2.385 . S
C477 C93 2.387 . S
C507 C119 2.294 . S
C512 C378 2.284 . S
C542 C309 1.673 . S
C537 C17 1.671 . S
C572 C269 1.748 . S
C567 C61 1.600 . S
C602 C400 1.602 . S
C597 C81 1.582 . S
C632 C360 1.642 . S
C627 C125 1.629 . S
C657 C23 1.217 . S
C662 C402 1.207 . S
C692 C319 2.085 . S
C687 C87 2.069 . S
C717 C113 2.141 . S
C722 C279 2.141 . S
C747 C55 1.151 . S
C752 C362 1.240 . S
C782 C282 1.135 . S
C777 C157 1.048 . S
C807 C189 1.160 . S
C812 C322 1.149 . S
C837 C221 2.368 . S
C842 C359 2.342 . S
C867 C253 2.359 . S
C872 C399 2.363 . S
C897 C145 1.641 . S
C902 C320 1.771 . S
C932 C280 1.694 . S
C927 C183 1.692 . S
C962 C389 1.645 . S
C957 C209 1.630 . S
C992 C349 1.597 . S
C987 C247 1.581 . S
C1017 C151 1.148 . S
C1022 C393 1.223 . S
C1052 C298 2.073 . S
C1047 C215 2.079 . S
C1082 C258 2.104 . S
C1077 C241 2.086 . S
C1107 C177 1.260 . S
C1112 C353 1.248 . S
