# Generated by pormake.
# Topology ctn, (3,4)-cn, num edge types: 1
# Building blocks:
#     Node 0, Type 0, BuildingBlock: BETDIP_clean_linker_0, # of connection points: 3
#     Node 1, Type 0, BuildingBlock: BETDIP_clean_linker_0, # of connection points: 3
#     Node 2, Type 0, BuildingBlock: BETDIP_clean_linker_0, # of connection points: 3
#     Node 3, Type 0, BuildingBlock: BETDIP_clean_linker_0, # of connection points: 3
#     Node 4, Type 0, BuildingBlock: BETDIP_clean_linker_0, # of connection points: 3
#     Node 5, Type 0, BuildingBlock: BETDIP_clean_linker_0, # of connection points: 3
#     Node 6, Type 0, BuildingBlock: BETDIP_clean_linker_0, # of connection points: 3
#     Node 7, Type 0, BuildingBlock: BETDIP_clean_linker_0, # of connection points: 3
#     Node 8, Type 0, BuildingBlock: BETDIP_clean_linker_0, # of connection points: 3
#     Node 9, Type 0, BuildingBlock: BETDIP_clean_linker_0, # of connection points: 3
#     Node 10, Type 0, BuildingBlock: BETDIP_clean_linker_0, # of connection points: 3
#     Node 11, Type 0, BuildingBlock: BETDIP_clean_linker_0, # of connection points: 3
#     Node 12, Type 0, BuildingBlock: BETDIP_clean_linker_0, # of connection points: 3
#     Node 13, Type 0, BuildingBlock: BETDIP_clean_linker_0, # of connection points: 3
#     Node 14, Type 0, BuildingBlock: BETDIP_clean_linker_0, # of connection points: 3
#     Node 15, Type 0, BuildingBlock: BETDIP_clean_linker_0, # of connection points: 3
#     Node 16, Type 1, BuildingBlock: TATPOV_clean_sbu_0, # of connection points: 4
#     Node 17, Type 1, BuildingBlock: TATPOV_clean_sbu_0, # of connection points: 4
#     Node 18, Type 1, BuildingBlock: TATPOV_clean_sbu_0, # of connection points: 4
#     Node 19, Type 1, BuildingBlock: TATPOV_clean_sbu_0, # of connection points: 4
#     Node 20, Type 1, BuildingBlock: TATPOV_clean_sbu_0, # of connection points: 4
#     Node 21, Type 1, BuildingBlock: TATPOV_clean_sbu_0, # of connection points: 4
#     Node 22, Type 1, BuildingBlock: TATPOV_clean_sbu_0, # of connection points: 4
#     Node 23, Type 1, BuildingBlock: TATPOV_clean_sbu_0, # of connection points: 4
#     Node 24, Type 1, BuildingBlock: TATPOV_clean_sbu_0, # of connection points: 4
#     Node 25, Type 1, BuildingBlock: TATPOV_clean_sbu_0, # of connection points: 4
#     Node 26, Type 1, BuildingBlock: TATPOV_clean_sbu_0, # of connection points: 4
#     Node 27, Type 1, BuildingBlock: TATPOV_clean_sbu_0, # of connection points: 4
#     Edge 28, Type (0, 1), BuildingBlock: TEMPAE_clean_linker_10, # of connection points: 2
#     Edge 29, Type (0, 1), BuildingBlock: TEMPAE_clean_linker_10, # of connection points: 2
#     Edge 30, Type (0, 1), BuildingBlock: TEMPAE_clean_linker_10, # of connection points: 2
#     Edge 31, Type (0, 1), BuildingBlock: TEMPAE_clean_linker_10, # of connection points: 2
#     Edge 32, Type (0, 1), BuildingBlock: TEMPAE_clean_linker_10, # of connection points: 2
#     Edge 33, Type (0, 1), BuildingBlock: TEMPAE_clean_linker_10, # of connection points: 2
#     Edge 34, Type (0, 1), BuildingBlock: TEMPAE_clean_linker_10, # of connection points: 2
#     Edge 35, Type (0, 1), BuildingBlock: TEMPAE_clean_linker_10, # of connection points: 2
#     Edge 36, Type (0, 1), BuildingBlock: TEMPAE_clean_linker_10, # of connection points: 2
#     Edge 37, Type (0, 1), BuildingBlock: TEMPAE_clean_linker_10, # of connection points: 2
#     Edge 38, Type (0, 1), BuildingBlock: TEMPAE_clean_linker_10, # of connection points: 2
#     Edge 39, Type (0, 1), BuildingBlock: TEMPAE_clean_linker_10, # of connection points: 2
#     Edge 40, Type (0, 1), BuildingBlock: TEMPAE_clean_linker_10, # of connection points: 2
#     Edge 41, Type (0, 1), BuildingBlock: TEMPAE_clean_linker_10, # of connection points: 2
#     Edge 42, Type (0, 1), BuildingBlock: TEMPAE_clean_linker_10, # of connection points: 2
#     Edge 43, Type (0, 1), BuildingBlock: TEMPAE_clean_linker_10, # of connection points: 2
#     Edge 44, Type (0, 1), BuildingBlock: TEMPAE_clean_linker_10, # of connection points: 2
#     Edge 45, Type (0, 1), BuildingBlock: TEMPAE_clean_linker_10, # of connection points: 2
#     Edge 46, Type (0, 1), BuildingBlock: TEMPAE_clean_linker_10, # of connection points: 2
#     Edge 47, Type (0, 1), BuildingBlock: TEMPAE_clean_linker_10, # of connection points: 2
#     Edge 48, Type (0, 1), BuildingBlock: TEMPAE_clean_linker_10, # of connection points: 2
#     Edge 49, Type (0, 1), BuildingBlock: TEMPAE_clean_linker_10, # of connection points: 2
#     Edge 50, Type (0, 1), BuildingBlock: TEMPAE_clean_linker_10, # of connection points: 2
#     Edge 51, Type (0, 1), BuildingBlock: TEMPAE_clean_linker_10, # of connection points: 2
#     Edge 52, Type (0, 1), BuildingBlock: TEMPAE_clean_linker_10, # of connection points: 2
#     Edge 53, Type (0, 1), BuildingBlock: TEMPAE_clean_linker_10, # of connection points: 2
#     Edge 54, Type (0, 1), BuildingBlock: TEMPAE_clean_linker_10, # of connection points: 2
#     Edge 55, Type (0, 1), BuildingBlock: TEMPAE_clean_linker_10, # of connection points: 2
#     Edge 56, Type (0, 1), BuildingBlock: TEMPAE_clean_linker_10, # of connection points: 2
#     Edge 57, Type (0, 1), BuildingBlock: TEMPAE_clean_linker_10, # of connection points: 2
#     Edge 58, Type (0, 1), BuildingBlock: TEMPAE_clean_linker_10, # of connection points: 2
#     Edge 59, Type (0, 1), BuildingBlock: TEMPAE_clean_linker_10, # of connection points: 2
#     Edge 60, Type (0, 1), BuildingBlock: TEMPAE_clean_linker_10, # of connection points: 2
#     Edge 61, Type (0, 1), BuildingBlock: TEMPAE_clean_linker_10, # of connection points: 2
#     Edge 62, Type (0, 1), BuildingBlock: TEMPAE_clean_linker_10, # of connection points: 2
#     Edge 63, Type (0, 1), BuildingBlock: TEMPAE_clean_linker_10, # of connection points: 2
#     Edge 64, Type (0, 1), BuildingBlock: TEMPAE_clean_linker_10, # of connection points: 2
#     Edge 65, Type (0, 1), BuildingBlock: TEMPAE_clean_linker_10, # of connection points: 2
#     Edge 66, Type (0, 1), BuildingBlock: TEMPAE_clean_linker_10, # of connection points: 2
#     Edge 67, Type (0, 1), BuildingBlock: TEMPAE_clean_linker_10, # of connection points: 2
#     Edge 68, Type (0, 1), BuildingBlock: TEMPAE_clean_linker_10, # of connection points: 2
#     Edge 69, Type (0, 1), BuildingBlock: TEMPAE_clean_linker_10, # of connection points: 2
#     Edge 70, Type (0, 1), BuildingBlock: TEMPAE_clean_linker_10, # of connection points: 2
#     Edge 71, Type (0, 1), BuildingBlock: TEMPAE_clean_linker_10, # of connection points: 2
#     Edge 72, Type (0, 1), BuildingBlock: TEMPAE_clean_linker_10, # of connection points: 2
#     Edge 73, Type (0, 1), BuildingBlock: TEMPAE_clean_linker_10, # of connection points: 2
#     Edge 74, Type (0, 1), BuildingBlock: TEMPAE_clean_linker_10, # of connection points: 2
#     Edge 75, Type (0, 1), BuildingBlock: TEMPAE_clean_linker_10, # of connection points: 2
# Relax obj value: 0.069
# Max RMSD: 0.195
# Mean RMSD: 0.113
data_MOF--net-ctn--node1-TATPOV_clean_sbu_0--node2-BETDIP_clean_linker_0--edge1-TEMPAE_clean_linker_10
_symmetry_space_group_name_H-M    P1
_symmetry_Int_Tables_number       1
_symmetry_cell_setting            triclinic
loop_
_symmetry_equiv_pos_as_xyz
'x, y, z'
_cell_length_a     52.692176
_cell_length_b     52.953226
_cell_length_c     58.169675
_cell_angle_alpha  94.917314
_cell_angle_beta   94.949813
_cell_angle_gamma 94.353286
loop_
_atom_site_label
_atom_site_type_symbol
_atom_site_fract_x
_atom_site_fract_y
_atom_site_fract_z
_atom_type_partial_charge
H0 H 0.01647 0.05879 0.05369 0.0
H1 H 0.07041 0.02368 0.01281 0.0
H2 H 0.05499 0.99577 0.07791 0.0
H3 H 0.04546 0.03798 0.98331 0.0
C4 C 0.04145 0.05666 0.99063 0.0
C5 C 0.02961 0.04421 0.05128 0.0
C6 C 0.03373 0.02718 0.06828 0.0
C7 C 0.04229 0.04279 0.03108 0.0
C8 C 0.06009 0.02455 0.02811 0.0
C9 C 0.06498 0.00758 0.045 0.0
C10 C 0.05149 0.00889 0.06492 0.0
N11 N 0.03734 0.06053 0.0145 0.0
H12 H 0.24085 0.67709 0.21287 0.0
H13 H 0.31716 0.71352 0.22096 0.0
H14 H 0.29688 0.65433 0.2638 0.0
H15 H 0.23388 0.72091 0.20302 0.0
C16 C 0.24839 0.72152 0.19085 0.0
C17 C 0.2599 0.6794 0.22181 0.0
C18 C 0.26661 0.66339 0.23909 0.0
C19 C 0.2782 0.69747 0.21525 0.0
C20 C 0.30307 0.69969 0.22621 0.0
C21 C 0.30988 0.6843 0.24383 0.0
C22 C 0.29166 0.66607 0.25004 0.0
N23 N 0.27266 0.71268 0.1968 0.0
H24 H 0.97534 0.46478 0.01682 0.0
H25 H 0.01486 0.4253 0.06848 0.0
H26 H 0.97515 0.4908 0.0887 0.0
H27 H 0.03491 0.40976 0.03824 0.0
C28 C 0.01985 0.40724 0.02407 0.0
C29 C 0.98119 0.46287 0.03489 0.0
C30 C 0.97422 0.48037 0.05216 0.0
C31 C 0.99556 0.44283 0.04063 0.0
C32 C 0.00335 0.4405 0.06403 0.0
C33 C 0.99628 0.45777 0.08173 0.0
C34 C 0.98125 0.47748 0.07551 0.0
N35 N 0.00088 0.42487 0.02247 0.0
H36 H 0.75446 0.7244 0.18993 0.0
H37 H 0.76836 0.79416 0.23445 0.0
H38 H 0.80464 0.7859 0.17129 0.0
H39 H 0.75737 0.76769 0.26191 0.0
C40 C 0.7412 0.75612 0.25256 0.0
C41 C 0.76388 0.74341 0.19366 0.0
C42 C 0.78038 0.75321 0.17822 0.0
C43 C 0.7598 0.75773 0.21421 0.0
C44 C 0.77201 0.78243 0.21911 0.0
C45 C 0.78808 0.79268 0.20359 0.0
C46 C 0.79223 0.77797 0.18326 0.0
N47 N 0.74225 0.74735 0.22888 0.0
H48 H 0.06079 0.96915 0.42183 0.0
H49 H 0.13087 0.993 0.46386 0.0
H50 H 0.1145 0.025 0.39922 0.0
H51 H 0.10683 0.98203 0.49258 0.0
C52 C 0.09521 0.96506 0.48499 0.0
C53 C 0.07893 0.98059 0.42441 0.0
C54 C 0.08563 0.99739 0.40807 0.0
C55 C 0.09483 0.97923 0.44472 0.0
C56 C 0.11823 0.99423 0.4484 0.0
C57 C 0.1255 0.01087 0.43209 0.0
C58 C 0.10898 0.01243 0.41202 0.0
N59 N 0.0867 0.96249 0.46097 0.0
H60 H 0.21528 0.74908 0.80062 0.0
H61 H 0.24713 0.70028 0.74968 0.0
H62 H 0.28036 0.70884 0.82036 0.0
H63 H 0.21604 0.709 0.72545 0.0
C64 C 0.20412 0.72246 0.73333 0.0
C65 C 0.22947 0.73619 0.79608 0.0
C66 C 0.24808 0.73049 0.81311 0.0
C67 C 0.22887 0.72555 0.77318 0.0
C68 C 0.24717 0.70867 0.76726 0.0
C69 C 0.26585 0.7024 0.78416 0.0
C70 C 0.26641 0.71378 0.80704 0.0
N71 N 0.20922 0.73213 0.75699 0.0
H72 H 0.96099 0.60547 0.47207 0.0
H73 H 0.91776 0.53411 0.4527 0.0
H74 H 0.90321 0.57971 0.51455 0.0
H75 H 0.99219 0.58317 0.4563 0.0
C76 C 0.98194 0.57226 0.44122 0.0
C77 C 0.94622 0.59132 0.47552 0.0
C78 C 0.93204 0.59574 0.49465 0.0
C79 C 0.94131 0.56883 0.46075 0.0
C80 C 0.9218 0.55091 0.46484 0.0
C81 C 0.9083 0.55404 0.48462 0.0
C82 C 0.9135 0.57675 0.49936 0.0
N83 N 0.95587 0.56342 0.44177 0.0
H84 H 0.82833 0.87229 0.80085 0.0
H85 H 0.87453 0.82248 0.83714 0.0
H86 H 0.80185 0.83937 0.8605 0.0
H87 H 0.90753 0.84847 0.82025 0.0
C88 C 0.89725 0.84603 0.80309 0.0
C89 C 0.83122 0.86062 0.81513 0.0
C90 C 0.81241 0.85771 0.8306 0.0
C91 C 0.85381 0.8485 0.81768 0.0
C92 C 0.85771 0.83302 0.83589 0.0
C93 C 0.83892 0.82945 0.85134 0.0
C94 C 0.81652 0.84223 0.84879 0.0
N95 N 0.87092 0.85018 0.80024 0.0
H96 H 0.31714 0.36021 0.29445 0.0
H97 H 0.36791 0.31782 0.3341 0.0
H98 H 0.29985 0.3412 0.36244 0.0
H99 H 0.39807 0.34374 0.31355 0.0
C100 C 0.38743 0.33884 0.29671 0.0
C101 C 0.32207 0.35219 0.31059 0.0
C102 C 0.30555 0.35302 0.32837 0.0
C103 C 0.345 0.34064 0.31305 0.0
C104 C 0.35107 0.32835 0.33298 0.0
C105 C 0.33432 0.32775 0.35049 0.0
C106 C 0.31212 0.34088 0.34843 0.0
N107 N 0.36049 0.33983 0.29429 0.0
H108 H 0.49314 0.97106 0.5161 0.0
H109 H 0.52571 0.92824 0.56894 0.0
H110 H 0.49712 0.00077 0.58749 0.0
H111 H 0.52702 0.95049 0.49702 0.0
C112 C 0.5207 0.93152 0.50116 0.0
C113 C 0.499 0.96935 0.53418 0.0
C114 C 0.49366 0.98821 0.5511 0.0
C115 C 0.51058 0.9477 0.54068 0.0
C116 C 0.51709 0.9452 0.56413 0.0
C117 C 0.51291 0.96446 0.58126 0.0
C118 C 0.5007 0.98578 0.57457 0.0
N119 N 0.51489 0.92766 0.52403 0.0
H120 H 0.23981 0.23017 0.67658 0.0
H121 H 0.25541 0.29554 0.72633 0.0
H122 H 0.29721 0.2896 0.6663 0.0
H123 H 0.24379 0.26566 0.75102 0.0
C124 C 0.22692 0.2561 0.74095 0.0
C125 C 0.25075 0.24809 0.68235 0.0
C126 C 0.26914 0.2582 0.6687 0.0
C127 C 0.24614 0.26103 0.70343 0.0
C128 C 0.25941 0.28487 0.71052 0.0
C129 C 0.2778 0.29525 0.69713 0.0
C130 C 0.28281 0.28167 0.67647 0.0
N131 N 0.22732 0.2502 0.71666 0.0
H132 H 0.73372 0.18784 0.70884 0.0
H133 H 0.8124 0.21744 0.71625 0.0
H134 H 0.78551 0.16505 0.76318 0.0
H135 H 0.73134 0.23156 0.69786 0.0
C136 C 0.7457 0.23044 0.68555 0.0
C137 C 0.75263 0.189 0.718 0.0
C138 C 0.75716 0.17453 0.73689 0.0
C139 C 0.77257 0.20454 0.71063 0.0
C140 C 0.79715 0.20535 0.72204 0.0
C141 C 0.80189 0.19163 0.74139 0.0
C142 C 0.78177 0.17628 0.74871 0.0
N143 N 0.76866 0.21905 0.69141 0.0
H144 H 0.51708 0.55681 0.55247 0.0
H145 H 0.56837 0.51811 0.511 0.0
H146 H 0.54809 0.48852 0.57393 0.0
H147 H 0.57679 0.55687 0.49964 0.0
C148 C 0.55843 0.56493 0.49842 0.0
C149 C 0.52882 0.5411 0.54963 0.0
C150 C 0.5307 0.52281 0.56581 0.0
C151 C 0.54262 0.5399 0.53007 0.0
C152 C 0.55803 0.51966 0.52627 0.0
C153 C 0.56035 0.50125 0.54217 0.0
C154 C 0.54669 0.503 0.56191 0.0
N155 N 0.54033 0.55908 0.51442 0.0
H156 H 0.56616 0.4479 0.91664 0.0
H157 H 0.63335 0.47859 0.95999 0.0
H158 H 0.60912 0.51562 0.90028 0.0
H159 H 0.61669 0.45848 0.98678 0.0
C160 C 0.6034 0.44283 0.979 0.0
C161 C 0.58198 0.46237 0.92041 0.0
C162 C 0.58534 0.48196 0.90573 0.0
C163 C 0.59861 0.4614 0.9404 0.0
C164 C 0.61982 0.47943 0.94509 0.0
C165 C 0.6238 0.49889 0.93053 0.0
C166 C 0.60631 0.50022 0.91114 0.0
N167 N 0.59304 0.44236 0.95552 0.0
H168 H 0.71945 0.25664 0.29989 0.0
H169 H 0.74817 0.20713 0.24753 0.0
H170 H 0.78643 0.21788 0.31655 0.0
H171 H 0.72517 0.22834 0.22287 0.0
C172 C 0.70923 0.23491 0.23169 0.0
C173 C 0.73354 0.24394 0.29464 0.0
C174 C 0.75338 0.23884 0.31076 0.0
C175 C 0.73182 0.23319 0.27171 0.0
C176 C 0.74976 0.21626 0.265 0.0
C177 C 0.76958 0.21048 0.28105 0.0
C178 C 0.77154 0.22235 0.30386 0.0
N179 N 0.71123 0.23925 0.25626 0.0
H180 H 0.45034 0.09493 0.9698 0.0
H181 H 0.41126 0.02067 0.95639 0.0
H182 H 0.39309 0.07084 0.01377 0.0
H183 H 0.48381 0.07122 0.95899 0.0
C184 C 0.47439 0.05995 0.9437 0.0
C185 C 0.43662 0.08057 0.97469 0.0
C186 C 0.42254 0.08589 0.99377 0.0
C187 C 0.43287 0.0569 0.96156 0.0
C188 C 0.41384 0.03895 0.96658 0.0
C189 C 0.39924 0.04382 0.98535 0.0
C190 C 0.4039 0.06726 0.99899 0.0
N191 N 0.44839 0.05046 0.94351 0.0
Zn192 Zn 0.28444 0.83356 0.01745 0.0
Zn193 Zn 0.24027 0.85478 0.01348 0.0
O194 O 0.23878 0.83475 0.04276 0.0
O195 O 0.27764 0.82238 0.04857 0.0
O196 O 0.20773 0.87325 0.01318 0.0
O197 O 0.30427 0.86709 0.01548 0.0
O198 O 0.26793 0.88496 0.01503 0.0
C199 C 0.25544 0.82408 0.05494 0.0
C200 C 0.25266 0.81512 0.97547 0.0
O201 O 0.23831 0.8321 0.98233 0.0
O202 O 0.27254 0.81108 0.98803 0.0
C203 C 0.20534 0.88797 0.03123 0.0
O204 O 0.22336 0.88961 0.04852 0.0
C205 C 0.29221 0.88684 0.01506 0.0
Zn206 Zn 0.08465 0.43598 0.29121 0.0
Zn207 Zn 0.11287 0.47874 0.28271 0.0
O208 O 0.09155 0.49232 0.30799 0.0
O209 O 0.07207 0.45724 0.31816 0.0
O210 O 0.13363 0.50952 0.27441 0.0
O211 O 0.11799 0.41887 0.29548 0.0
O212 O 0.13994 0.45573 0.29378 0.0
C213 C 0.07688 0.4812 0.32097 0.0
C214 C 0.07376 0.45001 0.24527 0.0
O215 O 0.09234 0.46656 0.25182 0.0
O216 O 0.0654 0.43503 0.25925 0.0
C217 C 0.14648 0.52543 0.28939 0.0
O218 O 0.14615 0.52203 0.31148 0.0
C219 C 0.13915 0.43227 0.29712 0.0
Zn220 Zn 0.83815 0.62393 0.94179 0.0
Zn221 Zn 0.82869 0.64767 0.98244 0.0
O222 O 0.8569 0.62475 0.99219 0.0
O223 O 0.86325 0.60378 0.95911 0.0
O224 O 0.82114 0.66624 0.01248 0.0
O225 O 0.84883 0.65756 0.93022 0.0
O226 O 0.83855 0.67687 0.9627 0.0
C227 C 0.86801 0.6078 0.98089 0.0
C228 C 0.78642 0.61366 0.95248 0.0
O229 O 0.79452 0.62731 0.97116 0.0
O230 O 0.80116 0.61 0.93665 0.0
C231 C 0.8173 0.65442 0.03015 0.0
O232 O 0.81862 0.62966 0.02879 0.0
C233 C 0.84631 0.67791 0.9426 0.0
Zn234 Zn 0.88112 0.01086 0.28367 0.0
Zn235 Zn 0.90538 0.01783 0.24667 0.0
O236 O 0.88534 0.05067 0.25033 0.0
O237 O 0.86682 0.0444 0.2821 0.0
O238 O 0.92379 0.01994 0.21741 0.0
O239 O 0.91435 0.00873 0.30263 0.0
O240 O 0.93502 0.01633 0.27233 0.0
C241 C 0.87116 0.05818 0.26592 0.0
C242 C 0.86635 0.971 0.24903 0.0
O243 O 0.88317 0.98339 0.23892 0.0
O244 O 0.86083 0.97931 0.26886 0.0
C245 C 0.93754 0.03909 0.21227 0.0
O246 O 0.93996 0.06008 0.22634 0.0
C247 C 0.93523 0.01222 0.29365 0.0
Zn248 Zn 0.34868 0.12436 0.44117 0.0
Zn249 Zn 0.33901 0.14718 0.48252 0.0
O250 O 0.36932 0.12632 0.49134 0.0
O251 O 0.37593 0.1061 0.45795 0.0
O252 O 0.33098 0.16416 0.51325 0.0
O253 O 0.35625 0.15903 0.43009 0.0
O254 O 0.3464 0.17733 0.46318 0.0
C255 C 0.38128 0.11041 0.47965 0.0
C256 C 0.298 0.11086 0.45254 0.0
O257 O 0.3059 0.1249 0.47104 0.0
O258 O 0.31255 0.10786 0.43647 0.0
C259 C 0.30856 0.17046 0.51615 0.0
O260 O 0.29067 0.16614 0.49877 0.0
C261 C 0.35311 0.179 0.44278 0.0
Zn262 Zn 0.38801 0.50772 0.78658 0.0
Zn263 Zn 0.40567 0.51373 0.74593 0.0
O264 O 0.38584 0.54629 0.75169 0.0
O265 O 0.36938 0.53894 0.78424 0.0
O266 O 0.42059 0.51611 0.71496 0.0
O267 O 0.42329 0.51075 0.80275 0.0
O268 O 0.43809 0.51129 0.76845 0.0
C269 C 0.37197 0.55287 0.76784 0.0
C270 C 0.37085 0.46601 0.75329 0.0
O271 O 0.38259 0.47993 0.74006 0.0
O272 O 0.37088 0.47328 0.77459 0.0
C273 C 0.43596 0.53442 0.71057 0.0
O274 O 0.44178 0.55376 0.72633 0.0
C275 C 0.44187 0.51102 0.79038 0.0
Zn276 Zn 0.79226 0.34717 0.51588 0.0
Zn277 Zn 0.7458 0.36538 0.50946 0.0
O278 O 0.74441 0.34559 0.53887 0.0
O279 O 0.78331 0.33352 0.54548 0.0
O280 O 0.71286 0.38306 0.50813 0.0
O281 O 0.81011 0.3824 0.51746 0.0
O282 O 0.77213 0.39652 0.51089 0.0
C283 C 0.76079 0.33474 0.5512 0.0
C284 C 0.76224 0.32782 0.47214 0.0
O285 O 0.74568 0.34251 0.47889 0.0
O286 O 0.78276 0.32617 0.48485 0.0
C287 C 0.69211 0.37512 0.51584 0.0
O288 O 0.69043 0.35269 0.52391 0.0
C289 C 0.79636 0.40059 0.5143 0.0
Zn290 Zn 0.59133 0.93931 0.79275 0.0
Zn291 Zn 0.61859 0.98443 0.78853 0.0
O292 O 0.59594 0.99468 0.81397 0.0
O293 O 0.57473 0.95823 0.8187 0.0
O294 O 0.64051 0.01617 0.78429 0.0
O295 O 0.62449 0.92317 0.80018 0.0
O296 O 0.64553 0.96007 0.7972 0.0
C297 C 0.5796 0.98191 0.82421 0.0
C298 C 0.58284 0.95792 0.74762 0.0
O299 O 0.59874 0.97602 0.75682 0.0
O300 O 0.57648 0.9396 0.75918 0.0
C301 C 0.63169 0.03711 0.77996 0.0
O302 O 0.60688 0.03884 0.77884 0.0
C303 C 0.64547 0.93677 0.80115 0.0
Zn304 Zn 0.02072 0.27666 0.83283 0.0
Zn305 Zn 0.02635 0.23457 0.85405 0.0
O306 O 0.05732 0.23649 0.83402 0.0
O307 O 0.0514 0.27057 0.81573 0.0
O308 O 0.03145 0.20389 0.87218 0.0
O309 O 0.02508 0.29846 0.86306 0.0
O310 O 0.02724 0.2634 0.88064 0.0
C311 C 0.06434 0.25195 0.81963 0.0
C312 C 0.97724 0.24 0.82271 0.0
O313 O 0.99087 0.22652 0.83521 0.0
O314 O 0.98564 0.26231 0.8194 0.0
C315 C 0.01321 0.19345 0.88197 0.0
O316 O 0.99051 0.20206 0.87934 0.0
C317 C 0.02707 0.28755 0.88156 0.0
Zn318 Zn 0.52488 0.77153 0.3271 0.0
Zn319 Zn 0.5332 0.73584 0.35573 0.0
O320 O 0.56581 0.73689 0.33787 0.0
O321 O 0.5601 0.76904 0.31692 0.0
O322 O 0.53873 0.70957 0.37878 0.0
O323 O 0.51887 0.7965 0.35389 0.0
O324 O 0.53064 0.76827 0.37749 0.0
C325 C 0.57381 0.75191 0.32351 0.0
C326 C 0.48727 0.72975 0.31818 0.0
O327 O 0.49904 0.72255 0.33627 0.0
O328 O 0.49542 0.74976 0.30981 0.0
C329 C 0.53143 0.68602 0.37468 0.0
O330 O 0.52022 0.67757 0.35412 0.0
C331 C 0.5239 0.7904 0.37425 0.0
Zn332 Zn 0.9675 0.81828 0.6025 0.0
Zn333 Zn 0.01265 0.80212 0.61908 0.0
O334 O 0.02373 0.83071 0.59939 0.0
O335 O 0.98734 0.84356 0.5851 0.0
O336 O 0.0459 0.79066 0.63241 0.0
O337 O 0.95989 0.82855 0.63537 0.0
O338 O 0.99519 0.81251 0.64831 0.0
C339 C 0.01156 0.84519 0.58681 0.0
C340 C 0.97341 0.76512 0.58896 0.0
O341 O 0.9954 0.7704 0.59993 0.0
O342 O 0.9576 0.78199 0.58792 0.0
C343 C 0.04552 0.77118 0.64376 0.0
O344 O 0.02342 0.75886 0.64606 0.0
C345 C 0.97486 0.8231 0.65211 0.0
Zn346 Zn 0.46405 0.31107 0.09715 0.0
Zn347 Zn 0.50605 0.29064 0.11616 0.0
O348 O 0.52047 0.31702 0.09545 0.0
O349 O 0.48695 0.33544 0.08183 0.0
O350 O 0.53755 0.27695 0.13099 0.0
O351 O 0.45437 0.32083 0.12956 0.0
O352 O 0.48833 0.30385 0.14427 0.0
C353 C 0.51082 0.33345 0.0833 0.0
C354 C 0.46584 0.25691 0.08437 0.0
O355 O 0.48629 0.2596 0.098 0.0
O356 O 0.45323 0.27584 0.08061 0.0
C357 C 0.55613 0.29235 0.14002 0.0
O358 O 0.55445 0.31689 0.13912 0.0
C359 C 0.46822 0.31524 0.14699 0.0
C360 C 0.22551 0.73843 0.84877 0.0
C361 C 0.24772 0.74165 0.83732 0.0
C362 C 0.22447 0.74957 0.87143 0.0
C363 C 0.24597 0.76479 0.88269 0.0
C364 C 0.26843 0.76818 0.87112 0.0
C365 C 0.26913 0.75629 0.84865 0.0
C366 C 0.20044 0.74491 0.88337 0.0
C367 C 0.2916 0.78461 0.88236 0.0
C368 C 0.23727 0.81302 0.93333 0.0
C369 C 0.24768 0.80115 0.95217 0.0
C370 C 0.23623 0.80127 0.91059 0.0
C371 C 0.24522 0.77682 0.90674 0.0
C372 C 0.25448 0.76425 0.92588 0.0
C373 C 0.25592 0.7767 0.9483 0.0
C374 C 0.22663 0.81548 0.89062 0.0
C375 C 0.26356 0.73792 0.92263 0.0
H376 H 0.209 0.72697 0.83999 0.0
H377 H 0.28621 0.75894 0.83968 0.0
H378 H 0.20499 0.7362 0.89975 0.0
H379 H 0.1924 0.76323 0.888 0.0
H380 H 0.18559 0.73221 0.87237 0.0
H381 H 0.30722 0.786 0.87074 0.0
H382 H 0.28624 0.80405 0.88736 0.0
H383 H 0.299 0.77673 0.89845 0.0
H384 H 0.23116 0.83204 0.93623 0.0
H385 H 0.26388 0.76742 0.96286 0.0
H386 H 0.21108 0.80375 0.87964 0.0
H387 H 0.24235 0.81933 0.87954 0.0
H388 H 0.21938 0.83387 0.89655 0.0
H389 H 0.24875 0.72484 0.91202 0.0
H390 H 0.26813 0.72993 0.9394 0.0
H391 H 0.28095 0.73853 0.91316 0.0
C392 C 0.98427 0.55035 0.4017 0.0
C393 C 0.99671 0.56191 0.42265 0.0
C394 C 0.99814 0.53889 0.38471 0.0
C395 C 0.02498 0.53867 0.38898 0.0
C396 C 0.03768 0.55091 0.40988 0.0
C397 C 0.02337 0.56262 0.4264 0.0
C398 C 0.98397 0.52643 0.36245 0.0
C399 C 0.06624 0.5508 0.41517 0.0
C400 C 0.05418 0.48429 0.35694 0.0
C401 C 0.06479 0.49626 0.33898 0.0
C402 C 0.04175 0.49805 0.37365 0.0
C403 C 0.03949 0.52434 0.37214 0.0
C404 C 0.05039 0.53662 0.35421 0.0
C405 C 0.06311 0.52247 0.33794 0.0
C406 C 0.03076 0.48437 0.39276 0.0
C407 C 0.04803 0.56455 0.35188 0.0
H408 H 0.96366 0.55003 0.39864 0.0
H409 H 0.03295 0.57158 0.44263 0.0
H410 H 0.9927 0.53358 0.34731 0.0
H411 H 0.98548 0.50559 0.36145 0.0
H412 H 0.9634 0.52995 0.36107 0.0
H413 H 0.07335 0.5623 0.43166 0.0
H414 H 0.0713 0.53097 0.41644 0.0
H415 H 0.07635 0.55833 0.40093 0.0
H416 H 0.05559 0.46409 0.35795 0.0
H417 H 0.07118 0.53181 0.32404 0.0
H418 H 0.00968 0.48488 0.39136 0.0
H419 H 0.0383 0.49409 0.40992 0.0
H420 H 0.03529 0.46418 0.39216 0.0
H421 H 0.02756 0.56805 0.34889 0.0
H422 H 0.05821 0.5714 0.33735 0.0
H423 H 0.05584 0.57599 0.36816 0.0
C424 C 0.82084 0.79268 0.87067 0.0
C425 C 0.84149 0.81038 0.86852 0.0
C426 C 0.82341 0.77299 0.88511 0.0
C427 C 0.84722 0.77092 0.89778 0.0
C428 C 0.86789 0.78927 0.89639 0.0
C429 C 0.86481 0.80874 0.88167 0.0
C430 C 0.80092 0.75372 0.88597 0.0
C431 C 0.89348 0.78782 0.90982 0.0
C432 C 0.84414 0.72528 0.94461 0.0
C433 C 0.85017 0.70266 0.93268 0.0
C434 C 0.84445 0.74812 0.93393 0.0
C435 C 0.85083 0.74826 0.91078 0.0
C436 C 0.85828 0.72583 0.89914 0.0
C437 C 0.85792 0.70336 0.91024 0.0
C438 C 0.83669 0.77175 0.94698 0.0
C439 C 0.86524 0.72517 0.87445 0.0
H440 H 0.80288 0.79358 0.8603 0.0
H441 H 0.88076 0.82252 0.88021 0.0
H442 H 0.8055 0.73481 0.87845 0.0
H443 H 0.79697 0.75179 0.90419 0.0
H444 H 0.7833 0.75895 0.87624 0.0
H445 H 0.90672 0.80494 0.90874 0.0
H446 H 0.89099 0.78564 0.92831 0.0
H447 H 0.90248 0.77084 0.9029 0.0
H448 H 0.83826 0.72498 0.96199 0.0
H449 H 0.86283 0.68606 0.90091 0.0
H450 H 0.81767 0.77623 0.93944 0.0
H451 H 0.85042 0.78829 0.94531 0.0
H452 H 0.83556 0.76941 0.96568 0.0
H453 H 0.84813 0.72805 0.86276 0.0
H454 H 0.87259 0.70683 0.86853 0.0
H455 H 0.87996 0.74081 0.87266 0.0
C456 C 0.05467 0.9784 0.37484 0.0
C457 C 0.06758 1e-05 0.38751 0.0
C458 C 0.03539 0.98067 0.35711 0.0
C459 C 0.02877 0.00515 0.35205 0.0
C460 C 0.0427 0.02704 0.36391 0.0
C461 C 0.06197 0.0242 0.3815 0.0
C462 C 0.02115 0.95686 0.34474 0.0
C463 C 0.03616 0.05346 0.3591 0.0
C464 C 0.9831 0.0112 0.29865 0.0
C465 C 0.95957 0.01127 0.30827 0.0
C466 C 0.00594 0.00939 0.31265 0.0
C467 C 0.00516 0.00777 0.33677 0.0
C468 C 0.98152 0.00824 0.34656 0.0
C469 C 0.9591 0.00992 0.33223 0.0
C470 C 0.03082 0.00887 0.30164 0.0
C471 C 0.97983 0.00672 0.37223 0.0
H472 H 0.05926 0.95966 0.37918 0.0
H473 H 0.07178 0.04098 0.39132 0.0
H474 H 0.00146 0.95495 0.35015 0.0
H475 H 0.0195 0.95801 0.32572 0.0
H476 H 0.03063 0.93947 0.34861 0.0
H477 H 0.05081 0.06834 0.36755 0.0
H478 H 0.03421 0.05527 0.34019 0.0
H479 H 0.0175 0.05709 0.36568 0.0
H480 H 0.98364 0.0122 0.28017 0.0
H481 H 0.94107 0.01012 0.3399 0.0
H482 H 0.03927 0.99064 0.30422 0.0
H483 H 0.04475 0.02436 0.31012 0.0
H484 H 0.02831 0.01101 0.28277 0.0
H485 H 0.98673 0.98856 0.3774 0.0
H486 H 0.96002 0.00789 0.37716 0.0
H487 H 0.9923 0.02241 0.38228 0.0
C488 C 0.27807 0.25816 0.62702 0.0
C489 C 0.27405 0.24456 0.64626 0.0
C490 C 0.28362 0.2458 0.60596 0.0
C491 C 0.28488 0.21912 0.60393 0.0
C492 C 0.28044 0.20518 0.62311 0.0
C493 C 0.27517 0.21807 0.64408 0.0
C494 C 0.28826 0.26136 0.58591 0.0
C495 C 0.28145 0.17667 0.62155 0.0
C496 C 0.27712 0.18572 0.54295 0.0
C497 C 0.30256 0.18244 0.5388 0.0
C498 C 0.27107 0.19722 0.56422 0.0
C499 C 0.29094 0.20587 0.58169 0.0
C500 C 0.31665 0.20252 0.57767 0.0
C501 C 0.32215 0.19073 0.55631 0.0
C502 C 0.2434 0.20025 0.56792 0.0
C503 C 0.33838 0.21171 0.5958 0.0
H504 H 0.27676 0.27855 0.62838 0.0
H505 H 0.27236 0.20744 0.6589 0.0
H506 H 0.30756 0.25871 0.58031 0.0
H507 H 0.2742 0.25474 0.5709 0.0
H508 H 0.28679 0.28198 0.59039 0.0
H509 H 0.27689 0.16855 0.63784 0.0
H510 H 0.26774 0.16754 0.60714 0.0
H511 H 0.3008 0.17169 0.61764 0.0
H512 H 0.26185 0.17924 0.52959 0.0
H513 H 0.34185 0.18831 0.55324 0.0
H514 H 0.24037 0.22073 0.57093 0.0
H515 H 0.23834 0.19117 0.58359 0.0
H516 H 0.23016 0.19173 0.55289 0.0
H517 H 0.33859 0.2326 0.59981 0.0
H518 H 0.35727 0.20727 0.59013 0.0
H519 H 0.33562 0.20286 0.61211 0.0
C520 C 0.52733 0.51874 0.60833 0.0
C521 C 0.51617 0.52454 0.58681 0.0
C522 C 0.51391 0.52029 0.62821 0.0
C523 C 0.48873 0.52809 0.62671 0.0
C524 C 0.47736 0.53406 0.6051 0.0
C525 C 0.49113 0.5321 0.58544 0.0
C526 C 0.52673 0.51366 0.65088 0.0
C527 C 0.45061 0.54253 0.60275 0.0
C528 C 0.44596 0.51069 0.67359 0.0
C529 C 0.44845 0.53318 0.68855 0.0
C530 C 0.4588 0.50882 0.65336 0.0
C531 C 0.47436 0.53002 0.64777 0.0
C532 C 0.47655 0.55293 0.66255 0.0
C533 C 0.46369 0.5542 0.68278 0.0
C534 C 0.45608 0.48399 0.63818 0.0
C535 C 0.49272 0.57606 0.65712 0.0
H536 H 0.54677 0.51328 0.60975 0.0
H537 H 0.48212 0.53626 0.56889 0.0
H538 H 0.52824 0.53038 0.66393 0.0
H539 H 0.51501 0.49819 0.65772 0.0
H540 H 0.54619 0.50744 0.64908 0.0
H541 H 0.44462 0.54683 0.58482 0.0
H542 H 0.43685 0.5275 0.6077 0.0
H543 H 0.44942 0.55979 0.61472 0.0
H544 H 0.43433 0.4943 0.67789 0.0
H545 H 0.4657 0.57169 0.69415 0.0
H546 H 0.47506 0.4764 0.63727 0.0
H547 H 0.44882 0.4871 0.62026 0.0
H548 H 0.44291 0.46942 0.64469 0.0
H549 H 0.51295 0.57166 0.65688 0.0
H550 H 0.49179 0.59269 0.66995 0.0
H551 H 0.48634 0.58139 0.63964 0.0
C552 C 0.75657 0.23887 0.64582 0.0
C553 C 0.74373 0.24544 0.66528 0.0
C554 C 0.75598 0.25377 0.627 0.0
C555 C 0.7429 0.2762 0.62799 0.0
C556 C 0.72944 0.2826 0.64744 0.0
C557 C 0.7297 0.26688 0.66573 0.0
C558 C 0.76999 0.24587 0.60632 0.0
C559 C 0.71585 0.30667 0.64944 0.0
C560 C 0.77125 0.32541 0.59183 0.0
C561 C 0.75387 0.32275 0.572 0.0
C562 C 0.76698 0.31153 0.61079 0.0
C563 C 0.74524 0.29385 0.60953 0.0
C564 C 0.72713 0.29172 0.58982 0.0
C565 C 0.73149 0.30655 0.57136 0.0
C566 C 0.78637 0.315 0.63175 0.0
C567 C 0.70405 0.27268 0.58757 0.0
H568 H 0.76714 0.22208 0.64534 0.0
H569 H 0.71981 0.27192 0.68084 0.0
H570 H 0.75735 0.24597 0.59005 0.0
H571 H 0.78673 0.25966 0.60541 0.0
H572 H 0.77687 0.22662 0.60716 0.0
H573 H 0.70473 0.30796 0.66483 0.0
H574 H 0.73008 0.32341 0.65084 0.0
H575 H 0.7027 0.3078 0.63369 0.0
H576 H 0.7885 0.33808 0.59233 0.0
H577 H 0.7182 0.30433 0.55588 0.0
H578 H 0.79689 0.29769 0.63275 0.0
H579 H 0.77665 0.31765 0.64786 0.0
H580 H 0.80047 0.33157 0.63115 0.0
H581 H 0.71037 0.25315 0.58568 0.0
H582 H 0.69055 0.27514 0.57233 0.0
H583 H 0.69375 0.27432 0.60339 0.0
C584 C 0.50717 0.97011 0.62381 0.0
C585 C 0.52201 0.96258 0.60592 0.0
C586 C 0.51608 0.96909 0.64714 0.0
C587 C 0.54032 0.96018 0.6527 0.0
C588 C 0.55522 0.95223 0.63474 0.0
C589 C 0.54595 0.95365 0.6116 0.0
C590 C 0.49969 0.97779 0.66586 0.0
C591 C 0.58115 0.94257 0.63996 0.0
C592 C 0.57614 0.9802 0.71163 0.0
C593 C 0.57161 0.95851 0.72344 0.0
C594 C 0.56571 0.98113 0.68874 0.0
C595 C 0.55051 0.9598 0.67729 0.0
C596 C 0.54573 0.93789 0.68911 0.0
C597 C 0.55627 0.93754 0.71207 0.0
C598 C 0.57111 0.00489 0.67674 0.0
C599 C 0.52976 0.91471 0.67738 0.0
H600 H 0.48852 0.97673 0.61956 0.0
H601 H 0.55774 0.9482 0.59793 0.0
H602 H 0.49585 0.96222 0.67702 0.0
H603 H 0.51001 0.99397 0.67713 0.0
H604 H 0.48114 0.98384 0.65865 0.0
H605 H 0.58989 0.93617 0.62398 0.0
H606 H 0.59425 0.95781 0.64994 0.0
H607 H 0.57952 0.92643 0.65086 0.0
H608 H 0.58784 0.99657 0.72029 0.0
H609 H 0.55267 0.9207 0.72105 0.0
H610 H 0.5529 0.01233 0.67048 0.0
H611 H 0.58157 0.00035 0.66135 0.0
H612 H 0.58267 0.02011 0.6883 0.0
H613 H 0.51057 0.91996 0.67108 0.0
H614 H 0.52736 0.89941 0.68913 0.0
H615 H 0.53884 0.90707 0.66203 0.0
C616 C 0.84962 0.19285 0.74219 0.0
C617 C 0.82772 0.19394 0.75421 0.0
C618 C 0.87418 0.19726 0.75396 0.0
C619 C 0.8769 0.20317 0.7783 0.0
C620 C 0.85487 0.20323 0.79064 0.0
C621 C 0.83054 0.19852 0.77844 0.0
C622 C 0.89718 0.19673 0.74019 0.0
C623 C 0.85691 0.20968 0.81655 0.0
C624 C 0.94293 0.20427 0.81112 0.0
C625 C 0.9514 0.23014 0.81201 0.0
C626 C 0.91865 0.19509 0.80029 0.0
C627 C 0.90246 0.21225 0.79038 0.0
C628 C 0.91078 0.2384 0.79161 0.0
C629 C 0.93511 0.24697 0.80227 0.0
C630 C 0.91046 0.16704 0.79915 0.0
C631 C 0.89403 0.25741 0.78149 0.0
H632 H 0.84752 0.18892 0.7235 0.0
H633 H 0.81366 0.19952 0.7878 0.0
H634 H 0.9064 0.21631 0.74039 0.0
H635 H 0.91152 0.18501 0.74813 0.0
H636 H 0.89199 0.18906 0.72186 0.0
H637 H 0.83828 0.20623 0.82384 0.0
H638 H 0.87107 0.19833 0.82528 0.0
H639 H 0.86374 0.23003 0.82071 0.0
H640 H 0.9554 0.19114 0.81858 0.0
H641 H 0.94134 0.26703 0.80301 0.0
H642 H 0.90698 0.15905 0.78078 0.0
H643 H 0.89221 0.16406 0.80711 0.0
H644 H 0.92502 0.15628 0.80812 0.0
H645 H 0.88982 0.25253 0.76255 0.0
H646 H 0.90307 0.2772 0.78449 0.0
H647 H 0.87549 0.25669 0.78923 0.0
C648 C 0.50678 0.8867 0.48533 0.0
C649 C 0.52127 0.90969 0.4837 0.0
C650 C 0.50661 0.86625 0.46825 0.0
C651 C 0.52178 0.86871 0.44949 0.0
C652 C 0.53685 0.89175 0.4481 0.0
C653 C 0.53609 0.91211 0.46506 0.0
C654 C 0.48974 0.84225 0.46998 0.0
C655 C 0.55369 0.89494 0.42864 0.0
C656 C 0.53842 0.80916 0.4146 0.0
C657 C 0.52233 0.80935 0.39414 0.0
C658 C 0.53835 0.82829 0.43289 0.0
C659 C 0.52128 0.84757 0.43085 0.0
C660 C 0.50432 0.84723 0.41056 0.0
C661 C 0.50532 0.82833 0.39232 0.0
C662 C 0.55712 0.82836 0.45403 0.0
C663 C 0.48534 0.86702 0.40799 0.0
H664 H 0.49508 0.88491 0.49963 0.0
H665 H 0.54731 0.92991 0.46389 0.0
H666 H 0.47561 0.83873 0.45453 0.0
H667 H 0.50137 0.82566 0.4702 0.0
H668 H 0.47926 0.84331 0.48576 0.0
H669 H 0.5654 0.91348 0.43086 0.0
H670 H 0.56668 0.87942 0.42763 0.0
H671 H 0.54175 0.89361 0.41185 0.0
H672 H 0.5517 0.79458 0.41597 0.0
H673 H 0.49268 0.82836 0.37659 0.0
H674 H 0.54685 0.82832 0.46989 0.0
H675 H 0.57021 0.84599 0.45582 0.0
H676 H 0.56873 0.81171 0.45314 0.0
H677 H 0.47375 0.86802 0.42304 0.0
H678 H 0.47223 0.86296 0.39186 0.0
H679 H 0.49565 0.88603 0.4077 0.0
C680 C 0.2034 0.25958 0.77616 0.0
C681 C 0.2036 0.2507 0.75281 0.0
C682 C 0.18105 0.2569 0.78752 0.0
C683 C 0.15836 0.24485 0.77524 0.0
C684 C 0.15878 0.23472 0.75193 0.0
C685 C 0.1814 0.23787 0.74093 0.0
C686 C 0.18141 0.26815 0.81231 0.0
C687 C 0.13506 0.22157 0.73831 0.0
C688 C 0.10244 0.22816 0.81028 0.0
C689 C 0.08796 0.24909 0.80775 0.0
C690 C 0.12518 0.22614 0.79941 0.0
C691 C 0.13368 0.24561 0.78591 0.0
C692 C 0.11898 0.26659 0.78313 0.0
C693 C 0.09635 0.26801 0.79397 0.0
C694 C 0.14027 0.20337 0.80257 0.0
C695 C 0.12741 0.28788 0.76904 0.0
H696 H 0.22059 0.26943 0.78538 0.0
H697 H 0.18148 0.23077 0.7229 0.0
H698 H 0.16947 0.28454 0.81301 0.0
H699 H 0.17309 0.25395 0.82311 0.0
H700 H 0.20104 0.27483 0.82004 0.0
H701 H 0.13924 0.21213 0.72141 0.0
H702 H 0.12593 0.20712 0.7484 0.0
H703 H 0.12099 0.23569 0.73494 0.0
H704 H 0.0961 0.21342 0.82082 0.0
H705 H 0.08539 0.28431 0.79186 0.0
H706 H 0.15933 0.20963 0.81176 0.0
H707 H 0.1435 0.19389 0.78544 0.0
H708 H 0.13046 0.18927 0.81262 0.0
H709 H 0.14625 0.29706 0.77664 0.0
H710 H 0.11357 0.30268 0.76829 0.0
H711 H 0.12977 0.28018 0.75108 0.0
C712 C 0.53078 0.5949 0.47853 0.0
C713 C 0.55366 0.58303 0.48073 0.0
C714 C 0.52654 0.6119 0.46154 0.0
C715 C 0.5456 0.61708 0.44642 0.0
C716 C 0.56872 0.60513 0.44865 0.0
C717 C 0.57244 0.58828 0.46577 0.0
C718 C 0.50165 0.62428 0.45973 0.0
C719 C 0.58952 0.61008 0.43289 0.0
C720 C 0.52709 0.64242 0.38851 0.0
C721 C 0.53498 0.66842 0.39308 0.0
C722 C 0.53019 0.62557 0.40576 0.0
C723 C 0.54142 0.6349 0.42817 0.0
C724 C 0.54929 0.66114 0.43294 0.0
C725 C 0.54601 0.67756 0.41536 0.0
C726 C 0.5216 0.59772 0.39994 0.0
C727 C 0.56135 0.67185 0.4566 0.0
H728 H 0.51615 0.59092 0.49003 0.0
H729 H 0.59014 0.5791 0.46743 0.0
H730 H 0.50548 0.64528 0.46201 0.0
H731 H 0.4915 0.61927 0.44224 0.0
H732 H 0.48885 0.61839 0.47287 0.0
H733 H 0.6064 0.59932 0.43693 0.0
H734 H 0.58201 0.60467 0.41458 0.0
H735 H 0.59585 0.63067 0.43445 0.0
H736 H 0.51851 0.63514 0.37139 0.0
H737 H 0.55211 0.69761 0.41912 0.0
H738 H 0.50754 0.59152 0.41189 0.0
H739 H 0.53817 0.58616 0.40233 0.0
H740 H 0.51276 0.59356 0.38184 0.0
H741 H 0.5483 0.66749 0.46999 0.0
H742 H 0.5659 0.69277 0.45769 0.0
H743 H 0.57924 0.66276 0.46086 0.0
C744 C 0.93687 0.85134 0.78277 0.0
C745 C 0.91126 0.84199 0.78238 0.0
C746 C 0.94982 0.84894 0.76265 0.0
C747 C 0.937 0.83613 0.74201 0.0
C748 C 0.91142 0.82572 0.74193 0.0
C749 C 0.89874 0.82914 0.76202 0.0
C750 C 0.97684 0.86087 0.76323 0.0
C751 C 0.8973 0.81127 0.7205 0.0
C752 C 0.95415 0.84885 0.68192 0.0
C753 C 0.96788 0.82799 0.67601 0.0
C754 C 0.94537 0.85257 0.70394 0.0
C755 C 0.94967 0.83448 0.72012 0.0
C756 C 0.96414 0.81372 0.71444 0.0
C757 C 0.97343 0.81094 0.69252 0.0
C758 C 0.93069 0.87537 0.70956 0.0
C759 C 0.96854 0.79367 0.73097 0.0
H760 H 0.94646 0.8613 0.79858 0.0
H761 H 0.87901 0.82158 0.76185 0.0
H762 H 0.98967 0.84651 0.75726 0.0
H763 H 0.97743 0.87599 0.75115 0.0
H764 H 0.98441 0.86936 0.78084 0.0
H765 H 0.87826 0.80262 0.72388 0.0
H766 H 0.89453 0.82426 0.70668 0.0
H767 H 0.90869 0.79595 0.71378 0.0
H768 H 0.95007 0.86218 0.6692 0.0
H769 H 0.98392 0.7947 0.68789 0.0
H770 H 0.93825 0.88528 0.72664 0.0
H771 H 0.91032 0.86904 0.71072 0.0
H772 H 0.93165 0.88915 0.69624 0.0
H773 H 0.97637 0.8026 0.74833 0.0
H774 H 0.98186 0.77988 0.72472 0.0
H775 H 0.95003 0.78308 0.73311 0.0
C776 C 0.08805 0.95315 0.52455 0.0
C777 C 0.08509 0.94685 0.50054 0.0
C778 C 0.07746 0.93683 0.53966 0.0
C779 C 0.06392 0.91352 0.53048 0.0
C780 C 0.06158 0.90673 0.50626 0.0
C781 C 0.07208 0.92355 0.49155 0.0
C782 C 0.08014 0.94485 0.56535 0.0
C783 C 0.04756 0.88189 0.49584 0.0
C784 C 0.05129 0.86121 0.56996 0.0
C785 C 0.02553 0.86348 0.57352 0.0
C786 C 0.06418 0.87755 0.55619 0.0
C787 C 0.05107 0.89679 0.54602 0.0
C788 C 0.02529 0.8996 0.55008 0.0
C789 C 0.0128 0.88283 0.56365 0.0
C790 C 0.0916 0.87382 0.55205 0.0
C791 C 0.01075 0.9201 0.53979 0.0
H792 H 0.09816 0.97116 0.53148 0.0
H793 H 0.06997 0.91847 0.47299 0.0
H794 H 0.06097 0.9471 0.57141 0.0
H795 H 0.08874 0.92994 0.57502 0.0
H796 H 0.09215 0.96307 0.56979 0.0
H797 H 0.04876 0.87878 0.47684 0.0
H798 H 0.05554 0.86576 0.50416 0.0
H799 H 0.02712 0.88164 0.49911 0.0
H800 H 0.06124 0.84626 0.57747 0.0
H801 H 0.99295 0.88484 0.56645 0.0
H802 H 0.10382 0.89175 0.55718 0.0
H803 H 0.093 0.86888 0.5333 0.0
H804 H 0.09933 0.85852 0.56182 0.0
H805 H 0.02125 0.93902 0.54476 0.0
H806 H 0.9912 0.92051 0.54552 0.0
H807 H 0.00916 0.91698 0.5206 0.0
C808 C 0.16552 0.74715 0.72872 0.0
C809 C 0.1816 0.7299 0.71926 0.0
C810 C 0.14382 0.75376 0.71561 0.0
C811 C 0.13807 0.74286 0.69248 0.0
C812 C 0.15439 0.72564 0.68276 0.0
C813 C 0.176 0.71937 0.69629 0.0
C814 C 0.1269 0.77222 0.72659 0.0
C815 C 0.14888 0.71365 0.65816 0.0
C816 C 0.06885 0.74183 0.66788 0.0
C817 C 0.06948 0.76314 0.65512 0.0
C818 C 0.09115 0.73467 0.67968 0.0
C819 C 0.11467 0.74919 0.67872 0.0
C820 C 0.11556 0.77038 0.66545 0.0
C821 C 0.09295 0.7771 0.6538 0.0
C822 C 0.08944 0.71191 0.69361 0.0
C823 C 0.14029 0.7863 0.664 0.0
H824 H 0.16973 0.75544 0.74646 0.0
H825 H 0.18844 0.70605 0.68897 0.0
H826 H 0.1252 0.78871 0.71617 0.0
H827 H 0.10737 0.76286 0.72685 0.0
H828 H 0.13431 0.77936 0.74461 0.0
H829 H 0.16377 0.70108 0.65302 0.0
H830 H 0.13012 0.70228 0.65618 0.0
H831 H 0.14761 0.72865 0.64601 0.0
H832 H 0.05083 0.73087 0.66894 0.0
H833 H 0.09364 0.79356 0.64393 0.0
H834 H 0.09479 0.71806 0.71223 0.0
H835 H 0.10314 0.69819 0.68811 0.0
H836 H 0.06994 0.70196 0.69173 0.0
H837 H 0.14755 0.79539 0.68147 0.0
H838 H 0.13798 0.80142 0.65206 0.0
H839 H 0.15505 0.77408 0.658 0.0
C840 C 0.94139 0.64311 0.49951 0.0
C841 C 0.9368 0.62023 0.50958 0.0
C842 C 0.94691 0.66629 0.51319 0.0
C843 C 0.94737 0.66677 0.53758 0.0
C844 C 0.94216 0.6439 0.54789 0.0
C845 C 0.93712 0.62086 0.53378 0.0
C846 C 0.95254 0.69025 0.50153 0.0
C847 C 0.94218 0.64375 0.57384 0.0
C848 C 0.98558 0.72296 0.57264 0.0
C849 C 0.96652 0.73941 0.57694 0.0
C850 C 0.97955 0.69906 0.5602 0.0
C851 C 0.95378 0.69125 0.55219 0.0
C852 C 0.93435 0.70741 0.55711 0.0
C853 C 0.94098 0.73139 0.56925 0.0
C854 C 0.00084 0.6825 0.55502 0.0
C855 C 0.90662 0.69955 0.54917 0.0
H856 H 0.94064 0.64292 0.48082 0.0
H857 H 0.9339 0.60329 0.54176 0.0
H858 H 0.93869 0.70427 0.50588 0.0
H859 H 0.97189 0.6991 0.50799 0.0
H860 H 0.95161 0.68658 0.48237 0.0
H861 H 0.93653 0.62457 0.57905 0.0
H862 H 0.96153 0.65017 0.58233 0.0
H863 H 0.92885 0.65727 0.58047 0.0
H864 H 0.00537 0.72903 0.57848 0.0
H865 H 0.92612 0.7439 0.57269 0.0
H866 H 0.00181 0.67959 0.536 0.0
H867 H 0.99699 0.66349 0.56124 0.0
H868 H 0.01976 0.69096 0.5632 0.0
H869 H 0.90384 0.69752 0.52996 0.0
H870 H 0.89367 0.71354 0.55576 0.0
H871 H 0.90094 0.68075 0.55511 0.0
C872 C 0.81496 0.82646 0.22933 0.0
C873 C 0.80015 0.819 0.20836 0.0
C874 C 0.82635 0.8514 0.23416 0.0
C875 C 0.82228 0.86942 0.21784 0.0
C876 C 0.80734 0.86192 0.1966 0.0
C877 C 0.79666 0.83668 0.19201 0.0
C878 C 0.84254 0.85852 0.25683 0.0
C879 C 0.80206 0.8807 0.17902 0.0
C880 C 0.82961 0.93792 0.24408 0.0
C881 C 0.85407 0.94616 0.23855 0.0
C882 C 0.8186 0.91336 0.23652 0.0
C883 C 0.83266 0.89638 0.22361 0.0
C884 C 0.8571 0.90481 0.21741 0.0
C885 C 0.86741 0.92978 0.22473 0.0
C886 C 0.79221 0.90535 0.24298 0.0
C887 C 0.87286 0.88712 0.20402 0.0
H888 H 0.8178 0.81267 0.24186 0.0
H889 H 0.78503 0.83088 0.17585 0.0
H890 H 0.86161 0.86711 0.25357 0.0
H891 H 0.83344 0.873 0.26753 0.0
H892 H 0.84519 0.84189 0.26693 0.0
H893 H 0.79067 0.87165 0.16307 0.0
H894 H 0.79145 0.89613 0.18673 0.0
H895 H 0.82027 0.88968 0.17412 0.0
H896 H 0.81917 0.95064 0.25463 0.0
H897 H 0.88642 0.93604 0.2206 0.0
H898 H 0.79346 0.89046 0.25524 0.0
H899 H 0.77982 0.897 0.22738 0.0
H900 H 0.78293 0.9215 0.25123 0.0
H901 H 0.87785 0.8714 0.21457 0.0
H902 H 0.89081 0.897 0.1994 0.0
H903 H 0.86167 0.8784 0.18789 0.0
C904 C 0.77713 0.16779 0.2619 0.0
C905 C 0.78704 0.19074 0.27449 0.0
C906 C 0.79268 0.14786 0.25756 0.0
C907 C 0.81884 0.15084 0.26604 0.0
C908 C 0.8293 0.17445 0.27763 0.0
C909 C 0.81326 0.19408 0.2818 0.0
C910 C 0.78065 0.12298 0.24529 0.0
C911 C 0.85712 0.1785 0.28681 0.0
C912 C 0.8457 0.09065 0.28454 0.0
C913 C 0.85924 0.08277 0.26577 0.0
C914 C 0.83309 0.11297 0.28493 0.0
C915 C 0.83394 0.12812 0.2661 0.0
C916 C 0.84807 0.12077 0.2473 0.0
C917 C 0.86058 0.09812 0.24733 0.0
C918 C 0.8183 0.11999 0.30537 0.0
C919 C 0.84952 0.13656 0.22699 0.0
H920 H 0.75686 0.16489 0.25637 0.0
H921 H 0.82115 0.21189 0.29122 0.0
H922 H 0.79251 0.11594 0.23165 0.0
H923 H 0.77954 0.10844 0.2579 0.0
H924 H 0.76105 0.12473 0.23722 0.0
H925 H 0.86313 0.19886 0.29222 0.0
H926 H 0.86045 0.16751 0.30204 0.0
H927 H 0.86943 0.17146 0.27352 0.0
H928 H 0.84464 0.07916 0.29903 0.0
H929 H 0.87104 0.09227 0.23281 0.0
H930 H 0.79773 0.12022 0.29946 0.0
H931 H 0.82511 0.13937 0.31333 0.0
H932 H 0.82014 0.10651 0.31893 0.0
H933 H 0.83024 0.13644 0.21764 0.0
H934 H 0.86279 0.12936 0.2146 0.0
H935 H 0.8559 0.15663 0.23315 0.0
C936 C 0.37827 0.01865 0.01431 0.0
C937 C 0.38009 0.02382 0.99121 0.0
C938 C 0.362 0.99823 0.01979 0.0
C939 C 0.34745 0.98243 0.00174 0.0
C940 C 0.34837 0.98819 0.9785 0.0
C941 C 0.36456 0.00888 0.97353 0.0
C942 C 0.36136 0.99283 0.04481 0.0
C943 C 0.3332 0.97177 0.95873 0.0
C944 C 0.33256 0.91288 0.01011 0.0
C945 C 0.30642 0.91178 0.01331 0.0
C946 C 0.34614 0.93585 0.00676 0.0
C947 C 0.33338 0.95841 0.00681 0.0
C948 C 0.30719 0.95766 0.01072 0.0
C949 C 0.29395 0.9343 0.01382 0.0
C950 C 0.37404 0.9358 0.00251 0.0
C951 C 0.29306 0.98142 0.01118 0.0
H952 H 0.39034 0.02992 0.02807 0.0
H953 H 0.36547 0.01306 0.95569 0.0
H954 H 0.34134 0.98955 0.0491 0.0
H955 H 0.37089 0.97524 0.04769 0.0
H956 H 0.3712 0.00863 0.05692 0.0
H957 H 0.33451 0.97994 0.94187 0.0
H958 H 0.34042 0.9526 0.95736 0.0
H959 H 0.31279 0.96927 0.96204 0.0
H960 H 0.34241 0.89563 0.00968 0.0
H961 H 0.27379 0.93364 0.01637 0.0
H962 H 0.3858 0.94955 0.01534 0.0
H963 H 0.3768 0.94192 0.98506 0.0
H964 H 0.38129 0.91674 0.0036 0.0
H965 H 0.3034 0.9965 0.02371 0.0
H966 H 0.27322 0.97796 0.01598 0.0
H967 H 0.29225 0.98879 0.99387 0.0
C968 C 0.25916 0.35634 0.33526 0.0
C969 C 0.2811 0.36557 0.32541 0.0
C970 C 0.23599 0.3676 0.33204 0.0
C971 C 0.23426 0.38784 0.31776 0.0
C972 C 0.25615 0.39722 0.30768 0.0
C973 C 0.27937 0.38643 0.31209 0.0
C974 C 0.21327 0.35764 0.34375 0.0
C975 C 0.25492 0.41832 0.29181 0.0
C976 C 0.16837 0.39829 0.29005 0.0
C977 C 0.16308 0.4206 0.30277 0.0
C978 C 0.19164 0.38757 0.29458 0.0
C979 C 0.20943 0.39888 0.31292 0.0
C980 C 0.20372 0.42103 0.32627 0.0
C981 C 0.1808 0.43197 0.32067 0.0
C982 C 0.19745 0.36455 0.27937 0.0
C983 C 0.2217 0.43304 0.34654 0.0
H984 H 0.25982 0.33999 0.34519 0.0
H985 H 0.29617 0.39435 0.30489 0.0
H986 H 0.20494 0.37358 0.35331 0.0
H987 H 0.1982 0.34845 0.33055 0.0
H988 H 0.21842 0.34354 0.35608 0.0
H989 H 0.27341 0.42272 0.28457 0.0
H990 H 0.23996 0.41289 0.27722 0.0
H991 H 0.24954 0.43587 0.30131 0.0
H992 H 0.15464 0.38971 0.27608 0.0
H993 H 0.17648 0.44916 0.33056 0.0
H994 H 0.20038 0.34838 0.28994 0.0
H995 H 0.21544 0.36878 0.2713 0.0
H996 H 0.18189 0.35854 0.26541 0.0
H997 H 0.22608 0.41863 0.35876 0.0
H998 H 0.21362 0.44917 0.35609 0.0
H999 H 0.24004 0.44011 0.34042 0.0
C1000 C 0.15206 0.05209 0.43114 0.0
C1001 C 0.15037 0.02653 0.43596 0.0
C1002 C 0.17554 0.06691 0.4343 0.0
C1003 C 0.19783 0.05593 0.44257 0.0
C1004 C 0.19621 0.03027 0.44778 0.0
C1005 C 0.17252 0.01586 0.44434 0.0
C1006 C 0.17656 0.09421 0.42852 0.0
C1007 C 0.21957 0.0179 0.45664 0.0
C1008 C 0.26267 0.08364 0.42883 0.0
C1009 C 0.27196 0.09763 0.44985 0.0
C1010 C 0.23841 0.07035 0.42614 0.0
C1011 C 0.22307 0.07093 0.44495 0.0
C1012 C 0.23214 0.08527 0.46612 0.0
C1013 C 0.25648 0.09851 0.46831 0.0
C1014 C 0.22931 0.0554 0.40324 0.0
C1015 C 0.21632 0.08626 0.48657 0.0
H1016 H 0.13495 0.06056 0.42499 0.0
H1017 H 0.17143 0.99604 0.44781 0.0
H1018 H 0.18474 0.10706 0.44386 0.0
H1019 H 0.18929 0.09688 0.41454 0.0
H1020 H 0.15739 0.10005 0.42279 0.0
H1021 H 0.21487 0.99809 0.4608 0.0
H1022 H 0.23355 0.01757 0.44343 0.0
H1023 H 0.22907 0.02912 0.47245 0.0
H1024 H 0.27443 0.08294 0.41443 0.0
H1025 H 0.26348 0.10927 0.48461 0.0
H1026 H 0.21079 0.06171 0.39632 0.0
H1027 H 0.22607 0.03491 0.40575 0.0
H1028 H 0.24323 0.05756 0.3901 0.0
H1029 H 0.19741 0.09306 0.48157 0.0
H1030 H 0.22579 0.09893 0.50157 0.0
H1031 H 0.21281 0.06686 0.49212 0.0
C1032 C 0.73273 0.15526 0.76713 0.0
C1033 C 0.7366 0.15669 0.74371 0.0
C1034 C 0.71457 0.13721 0.77385 0.0
C1035 C 0.7001 0.12007 0.75673 0.0
C1036 C 0.70348 0.12187 0.73302 0.0
C1037 C 0.72164 0.1402 0.7268 0.0
C1038 C 0.71134 0.13605 0.79928 0.0
C1039 C 0.68856 0.10382 0.71427 0.0
C1040 C 0.67529 0.05571 0.77355 0.0
C1041 C 0.64925 0.0588 0.775 0.0
C1042 C 0.69204 0.07559 0.76786 0.0
C1043 C 0.6826 0.09924 0.76365 0.0
C1044 C 0.65644 0.10269 0.7655 0.0
C1045 C 0.64004 0.08238 0.77108 0.0
C1046 C 0.71979 0.07111 0.76595 0.0
C1047 C 0.64574 0.12771 0.76129 0.0
H1048 H 0.74406 0.16818 0.78023 0.0
H1049 H 0.72477 0.14104 0.70869 0.0
H1050 H 0.69093 0.13684 0.80238 0.0
H1051 H 0.71738 0.11772 0.80487 0.0
H1052 H 0.72276 0.15182 0.81027 0.0
H1053 H 0.69241 0.10863 0.69661 0.0
H1054 H 0.69364 0.08411 0.71625 0.0
H1055 H 0.66776 0.10406 0.71589 0.0
H1056 H 0.68261 0.03756 0.77653 0.0
H1057 H 0.61996 0.08496 0.77222 0.0
H1058 H 0.73226 0.08526 0.77785 0.0
H1059 H 0.72475 0.07368 0.74809 0.0
H1060 H 0.72419 0.05174 0.77012 0.0
H1061 H 0.6566 0.14336 0.77283 0.0
H1062 H 0.6252 0.12764 0.7643 0.0
H1063 H 0.64789 0.13199 0.74319 0.0
C1064 C 0.45492 0.01229 0.55066 0.0
C1065 C 0.47962 0.00983 0.54414 0.0
C1066 C 0.43997 0.03072 0.54183 0.0
C1067 C 0.45031 0.04741 0.52658 0.0
C1068 C 0.47585 0.04589 0.52107 0.0
C1069 C 0.49009 0.0268 0.52964 0.0
C1070 C 0.41264 0.03128 0.54768 0.0
C1071 C 0.48777 0.06373 0.50537 0.0
C1072 C 0.40416 0.0711 0.48126 0.0
C1073 C 0.4 0.09522 0.49146 0.0
C1074 C 0.42045 0.05544 0.49257 0.0
C1075 C 0.43351 0.06436 0.51438 0.0
C1076 C 0.42998 0.08899 0.52452 0.0
C1077 C 0.41292 0.10402 0.51308 0.0
C1078 C 0.42318 0.02907 0.48139 0.0
C1079 C 0.44413 0.09938 0.54744 0.0
H1080 H 0.44687 0.99896 0.56178 0.0
H1081 H 0.50929 0.02483 0.52474 0.0
H1082 H 0.40873 0.05084 0.55397 0.0
H1083 H 0.39952 0.02548 0.53183 0.0
H1084 H 0.40813 0.01833 0.56109 0.0
H1085 H 0.50871 0.06235 0.50536 0.0
H1086 H 0.47886 0.05912 0.48737 0.0
H1087 H 0.48428 0.08368 0.51077 0.0
H1088 H 0.39401 0.06407 0.46467 0.0
H1089 H 0.40983 0.1227 0.52096 0.0
H1090 H 0.41747 0.01463 0.49313 0.0
H1091 H 0.44344 0.02692 0.47839 0.0
H1092 H 0.41133 0.02488 0.46456 0.0
H1093 H 0.43836 0.08762 0.5613 0.0
H1094 H 0.4404 0.11941 0.55234 0.0
H1095 H 0.46501 0.09838 0.54666 0.0
C1096 C 0.57714 0.46713 0.51635 0.0
C1097 C 0.57758 0.48057 0.53827 0.0
C1098 C 0.59444 0.44874 0.51201 0.0
C1099 C 0.61282 0.44381 0.52995 0.0
C1100 C 0.613 0.45695 0.55225 0.0
C1101 C 0.59531 0.47507 0.55616 0.0
C1102 C 0.59336 0.43493 0.48809 0.0
C1103 C 0.63241 0.45244 0.5718 0.0
C1104 C 0.64768 0.38332 0.52539 0.0
C1105 C 0.6711 0.39217 0.51792 0.0
C1106 C 0.62833 0.39976 0.52895 0.0
C1107 C 0.63257 0.42576 0.52517 0.0
C1108 C 0.65599 0.4347 0.51726 0.0
C1109 C 0.67488 0.41781 0.51362 0.0
C1110 C 0.60351 0.38941 0.53711 0.0
C1111 C 0.66136 0.46229 0.51313 0.0
H1112 H 0.56328 0.47109 0.50253 0.0
H1113 H 0.59588 0.48556 0.57307 0.0
H1114 H 0.61132 0.43975 0.48018 0.0
H1115 H 0.59174 0.41406 0.48919 0.0
H1116 H 0.57702 0.43987 0.47643 0.0
H1117 H 0.62942 0.46349 0.58832 0.0
H1118 H 0.63148 0.43194 0.5746 0.0
H1119 H 0.65195 0.45788 0.56719 0.0
H1120 H 0.64452 0.36355 0.52871 0.0
H1121 H 0.6929 0.4249 0.50791 0.0
H1122 H 0.58715 0.39369 0.52516 0.0
H1123 H 0.60104 0.39882 0.55447 0.0
H1124 H 0.60272 0.36853 0.53821 0.0
H1125 H 0.64645 0.46795 0.50038 0.0
H1126 H 0.68035 0.46616 0.50662 0.0
H1127 H 0.66066 0.47452 0.5295 0.0
C1128 C 0.73432 0.24535 0.34842 0.0
C1129 C 0.75455 0.25047 0.33494 0.0
C1130 C 0.73456 0.257 0.37107 0.0
C1131 C 0.75521 0.27473 0.38018 0.0
C1132 C 0.77567 0.28001 0.36651 0.0
C1133 C 0.77524 0.26754 0.34413 0.0
C1134 C 0.71275 0.25031 0.38527 0.0
C1135 C 0.79779 0.29914 0.37538 0.0
C1136 C 0.745 0.323 0.43032 0.0
C1137 C 0.75846 0.31332 0.44899 0.0
C1138 C 0.74371 0.31062 0.40781 0.0
C1139 C 0.75556 0.28765 0.40404 0.0
C1140 C 0.76829 0.27729 0.42304 0.0
C1141 C 0.7699 0.29043 0.4452 0.0
C1142 C 0.7304 0.32254 0.38794 0.0
C1143 C 0.78054 0.2525 0.41993 0.0
H1144 H 0.71835 0.23206 0.34124 0.0
H1145 H 0.79074 0.27162 0.33354 0.0
H1146 H 0.72024 0.2433 0.40176 0.0
H1147 H 0.7028 0.26751 0.38983 0.0
H1148 H 0.69859 0.23552 0.37593 0.0
H1149 H 0.81183 0.30157 0.36238 0.0
H1150 H 0.79061 0.31787 0.38014 0.0
H1151 H 0.80782 0.29307 0.39128 0.0
H1152 H 0.73635 0.34081 0.43314 0.0
H1153 H 0.78019 0.28279 0.45963 0.0
H1154 H 0.71503 0.30897 0.37874 0.0
H1155 H 0.74423 0.32705 0.37523 0.0
H1156 H 0.7219 0.34029 0.39378 0.0
H1157 H 0.76642 0.23738 0.4111 0.0
H1158 H 0.78821 0.24618 0.43669 0.0
H1159 H 0.79644 0.25461 0.40874 0.0
C1160 C 0.47891 0.03951 0.90399 0.0
C1161 C 0.4902 0.05059 0.92555 0.0
C1162 C 0.49395 0.02973 0.88711 0.0
C1163 C 0.52081 0.03063 0.89215 0.0
C1164 C 0.53229 0.04214 0.9138 0.0
C1165 C 0.51682 0.05225 0.93015 0.0
C1166 C 0.48108 0.01807 0.86404 0.0
C1167 C 0.5608 0.04307 0.91996 0.0
C1168 C 0.55452 0.98066 0.85863 0.0
C1169 C 0.56561 0.99473 0.84219 0.0
C1170 C 0.54036 0.99226 0.87529 0.0
C1171 C 0.53674 0.01847 0.87518 0.0
C1172 C 0.54797 0.03283 0.85868 0.0
C1173 C 0.56254 0.02083 0.84251 0.0
C1174 C 0.52915 0.97643 0.89293 0.0
C1175 C 0.54412 0.06071 0.85776 0.0
H1176 H 0.45832 0.03846 0.90031 0.0
H1177 H 0.5255 0.06084 0.94686 0.0
H1178 H 0.48993 0.02687 0.8497 0.0
H1179 H 0.48379 0.99746 0.86196 0.0
H1180 H 0.46025 0.02043 0.86227 0.0
H1181 H 0.56679 0.05334 0.93727 0.0
H1182 H 0.56681 0.02343 0.91992 0.0
H1183 H 0.57113 0.05256 0.90681 0.0
H1184 H 0.557 0.96051 0.85855 0.0
H1185 H 0.57093 0.03175 0.82972 0.0
H1186 H 0.50798 0.97588 0.8908 0.0
H1187 H 0.53552 0.98516 0.91072 0.0
H1188 H 0.53473 0.95658 0.89132 0.0
H1189 H 0.52344 0.06319 0.8545 0.0
H1190 H 0.55435 0.06922 0.844 0.0
H1191 H 0.55094 0.0714 0.87467 0.0
C1192 C 0.31813 0.29398 0.37421 0.0
C1193 C 0.3384 0.31078 0.36929 0.0
C1194 C 0.32219 0.27496 0.38913 0.0
C1195 C 0.34713 0.27276 0.39954 0.0
C1196 C 0.36737 0.29068 0.39585 0.0
C1197 C 0.36281 0.3094 0.3806 0.0
C1198 C 0.30009 0.25614 0.39244 0.0
C1199 C 0.39411 0.28927 0.40698 0.0
C1200 C 0.35019 0.22636 0.44593 0.0
C1201 C 0.35505 0.20395 0.43292 0.0
C1202 C 0.34893 0.24939 0.43566 0.0
C1203 C 0.35234 0.2499 0.41181 0.0
C1204 C 0.35846 0.22764 0.39893 0.0
C1205 C 0.35988 0.20503 0.40966 0.0
C1206 C 0.34282 0.27286 0.45004 0.0
C1207 C 0.36216 0.22731 0.37343 0.0
H1208 H 0.29929 0.29473 0.36532 0.0
H1209 H 0.37848 0.32252 0.37703 0.0
H1210 H 0.3033 0.23715 0.3841 0.0
H1211 H 0.29875 0.25417 0.41113 0.0
H1212 H 0.28154 0.26179 0.38482 0.0
H1213 H 0.40667 0.30671 0.4053 0.0
H1214 H 0.39376 0.2864 0.42563 0.0
H1215 H 0.40263 0.27273 0.3986 0.0
H1216 H 0.3466 0.22578 0.46395 0.0
H1217 H 0.36381 0.1879 0.39946 0.0
H1218 H 0.32308 0.27739 0.4447 0.0
H1219 H 0.35591 0.28947 0.44714 0.0
H1220 H 0.34427 0.27029 0.46885 0.0
H1221 H 0.34396 0.23082 0.36361 0.0
H1222 H 0.36833 0.20888 0.36625 0.0
H1223 H 0.37665 0.24271 0.37048 0.0
C1224 C 0.54033 0.47749 0.88659 0.0
C1225 C 0.56646 0.48417 0.88543 0.0
C1226 C 0.52214 0.48114 0.86838 0.0
C1227 C 0.53007 0.49257 0.84876 0.0
C1228 C 0.55637 0.49887 0.84714 0.0
C1229 C 0.57427 0.49418 0.86529 0.0
C1230 C 0.49428 0.47356 0.87053 0.0
C1231 C 0.56553 0.51152 0.82672 0.0
C1232 C 0.48035 0.48735 0.79688 0.0
C1233 C 0.46751 0.50908 0.80178 0.0
C1234 C 0.50165 0.48216 0.81145 0.0
C1235 C 0.5105 0.49951 0.83092 0.0
C1236 C 0.4987 0.52247 0.83474 0.0
C1237 C 0.477 0.52673 0.82037 0.0
C1238 C 0.51326 0.4572 0.80709 0.0
C1239 C 0.50802 0.54183 0.85486 0.0
H1240 H 0.53383 0.47013 0.90207 0.0
H1241 H 0.5944 0.4988 0.86378 0.0
H1242 H 0.48375 0.49084 0.87264 0.0
H1243 H 0.48556 0.46209 0.85454 0.0
H1244 H 0.49158 0.46238 0.88557 0.0
H1245 H 0.58672 0.5138 0.82737 0.0
H1246 H 0.55792 0.50035 0.81024 0.0
H1247 H 0.5582 0.5306 0.82643 0.0
H1248 H 0.47261 0.47352 0.7827 0.0
H1249 H 0.46685 0.54344 0.82414 0.0
H1250 H 0.50786 0.44445 0.82037 0.0
H1251 H 0.53442 0.46007 0.80865 0.0
H1252 H 0.50658 0.4475 0.78969 0.0
H1253 H 0.50333 0.53424 0.87131 0.0
H1254 H 0.49911 0.56007 0.85352 0.0
H1255 H 0.5291 0.54569 0.85582 0.0
C1256 C 0.76514 0.72456 0.14231 0.0
C1257 C 0.78536 0.73771 0.15684 0.0
C1258 C 0.76966 0.71049 0.12169 0.0
C1259 C 0.79503 0.70939 0.1156 0.0
C1260 C 0.81555 0.72232 0.1304 0.0
C1261 C 0.81045 0.73639 0.15079 0.0
C1262 C 0.74728 0.69713 0.10626 0.0
C1263 C 0.84288 0.7214 0.12463 0.0
C1264 C 0.81006 0.65596 0.07224 0.0
C1265 C 0.8113 0.66838 0.05195 0.0
C1266 C 0.80465 0.66903 0.09305 0.0
C1267 C 0.80017 0.69509 0.09355 0.0
C1268 C 0.80112 0.70766 0.07309 0.0
C1269 C 0.80678 0.69419 0.05256 0.0
C1270 C 0.80398 0.65503 0.11457 0.0
C1271 C 0.79628 0.7354 0.0729 0.0
H1272 H 0.7457 0.72573 0.14684 0.0
H1273 H 0.82616 0.74627 0.16214 0.0
H1274 H 0.74643 0.7047 0.08903 0.0
H1275 H 0.74975 0.67652 0.10344 0.0
H1276 H 0.72877 0.69952 0.11366 0.0
H1277 H 0.85669 0.732 0.13826 0.0
H1278 H 0.84775 0.70137 0.12243 0.0
H1279 H 0.84526 0.72963 0.10797 0.0
H1280 H 0.81357 0.63604 0.07194 0.0
H1281 H 0.80758 0.70392 0.03696 0.0
H1282 H 0.78509 0.65604 0.12152 0.0
H1283 H 0.81858 0.66422 0.12822 0.0
H1284 H 0.80761 0.63471 0.11123 0.0
H1285 H 0.77724 0.73852 0.07888 0.0
H1286 H 0.79706 0.7422 0.05541 0.0
H1287 H 0.81072 0.74718 0.0851 0.0
C1288 C 0.03181 0.02535 0.11131 0.0
C1289 C 0.01953 0.02864 0.08949 0.0
C1290 C 0.01866 0.02689 0.13137 0.0
C1291 C 0.9926 0.03204 0.1297 0.0
C1292 C 0.98009 0.0354 0.10776 0.0
C1293 C 0.99363 0.03355 0.08797 0.0
C1294 C 0.03269 0.02309 0.1544 0.0
C1295 C 0.95235 0.04095 0.10518 0.0
C1296 C 0.95153 0.01404 0.1776 0.0
C1297 C 0.95134 0.03739 0.19097 0.0
C1298 C 0.96495 0.01201 0.15773 0.0
C1299 C 0.97839 0.03389 0.15087 0.0
C1300 C 0.97814 0.05755 0.16419 0.0
C1301 C 0.96472 0.059 0.18409 0.0
C1302 C 0.96484 0.98639 0.14413 0.0
C1303 C 0.99204 0.08137 0.15739 0.0
H1304 H 0.05187 0.02192 0.1128 0.0
H1305 H 0.9838 0.03572 0.0712 0.0
H1306 H 0.0327 0.04045 0.16652 0.0
H1307 H 0.02276 0.00724 0.1623 0.0
H1308 H 0.0528 0.0188 0.15275 0.0
H1309 H 0.94549 0.04341 0.08698 0.0
H1310 H 0.94027 0.02522 0.11122 0.0
H1311 H 0.9496 0.05852 0.11619 0.0
H1312 H 0.94136 0.99719 0.18277 0.0
H1313 H 0.96469 0.07714 0.19424 0.0
H1314 H 0.98472 0.98102 0.14338 0.0
H1315 H 0.95668 0.98738 0.12603 0.0
H1316 H 0.9536 0.97118 0.15181 0.0
H1317 H 0.0127 0.07878 0.15704 0.0
H1318 H 0.98988 0.09832 0.16948 0.0
H1319 H 0.98467 0.08512 0.13966 0.0
C1320 C 0.25785 0.73054 0.15095 0.0
C1321 C 0.24493 0.73628 0.17053 0.0
C1322 C 0.25601 0.74528 0.13205 0.0
C1323 C 0.24153 0.76677 0.13309 0.0
C1324 C 0.22799 0.77232 0.15267 0.0
C1325 C 0.22953 0.7567 0.17104 0.0
C1326 C 0.27016 0.73824 0.11124 0.0
C1327 C 0.21292 0.7954 0.15471 0.0
C1328 C 0.26662 0.81666 0.09596 0.0
C1329 C 0.24917 0.81267 0.07619 0.0
C1330 C 0.26327 0.80309 0.11529 0.0
C1331 C 0.24245 0.78437 0.11446 0.0
C1332 C 0.22419 0.78096 0.09483 0.0
C1333 C 0.22759 0.79549 0.07599 0.0
C1334 C 0.28275 0.80792 0.13612 0.0
C1335 C 0.2021 0.76079 0.09301 0.0
H1336 H 0.2695 0.71451 0.15043 0.0
H1337 H 0.21958 0.76111 0.18626 0.0
H1338 H 0.2572 0.73756 0.09507 0.0
H1339 H 0.28605 0.75294 0.1101 0.0
H1340 H 0.27826 0.71954 0.1121 0.0
H1341 H 0.2019 0.79598 0.17017 0.0
H1342 H 0.22619 0.81288 0.15602 0.0
H1343 H 0.19948 0.7958 0.13901 0.0
H1344 H 0.28328 0.83005 0.09607 0.0
H1345 H 0.21427 0.79223 0.06054 0.0
H1346 H 0.29449 0.79146 0.13718 0.0
H1347 H 0.27308 0.81 0.1523 0.0
H1348 H 0.29575 0.82528 0.13527 0.0
H1349 H 0.20949 0.74172 0.09109 0.0
H1350 H 0.18809 0.76248 0.07794 0.0
H1351 H 0.19207 0.76189 0.10901 0.0
C1352 C 0.01147 0.47752 0.12195 0.0
C1353 C 0.00526 0.4556 0.1065 0.0
C1354 C 0.02102 0.47585 0.14499 0.0
C1355 C 0.02543 0.45177 0.1526 0.0
C1356 C 0.01906 0.42955 0.13728 0.0
C1357 C 0.00857 0.43169 0.1146 0.0
C1358 C 0.02689 0.49996 0.16103 0.0
C1359 C 0.02405 0.40356 0.14462 0.0
C1360 C 0.07627 0.45294 0.20306 0.0
C1361 C 0.06144 0.44899 0.22147 0.0
C1362 C 0.06479 0.45297 0.18041 0.0
C1363 C 0.0378 0.44999 0.17629 0.0
C1364 C 0.02273 0.44606 0.19488 0.0
C1365 C 0.0348 0.44514 0.21724 0.0
C1366 C 0.08155 0.45636 0.16091 0.0
C1367 C 0.99389 0.44371 0.19131 0.0
H1368 H 0.00948 0.49615 0.11598 0.0
H1369 H 0.00322 0.41454 0.10317 0.0
H1370 H 0.01803 0.49801 0.17749 0.0
H1371 H 0.04784 0.50344 0.16543 0.0
H1372 H 0.0199 0.51683 0.15317 0.0
H1373 H 0.01793 0.38814 0.13063 0.0
H1374 H 0.04477 0.4029 0.14967 0.0
H1375 H 0.01386 0.39974 0.16002 0.0
H1376 H 0.09691 0.45576 0.20638 0.0
H1377 H 0.02336 0.44236 0.23159 0.0
H1378 H 0.07826 0.47452 0.1534 0.0
H1379 H 0.07655 0.4408 0.14685 0.0
H1380 H 0.1022 0.45653 0.16677 0.0
H1381 H 0.98716 0.46137 0.18478 0.0
H1382 H 0.98498 0.44043 0.20754 0.0
H1383 H 0.98705 0.42782 0.17803 0.0
C1384 C 0.34602 0.71171 0.26583 0.0
C1385 C 0.33595 0.6876 0.25598 0.0
C1386 C 0.37083 0.71542 0.27705 0.0
C1387 C 0.38613 0.69458 0.278 0.0
C1388 C 0.37592 0.67009 0.26831 0.0
C1389 C 0.3508 0.66684 0.25758 0.0
C1390 C 0.38082 0.74177 0.2875 0.0
C1391 C 0.39179 0.64754 0.26858 0.0
C1392 C 0.45659 0.71636 0.28367 0.0
C1393 C 0.46303 0.7162 0.30753 0.0
C1394 C 0.43205 0.7076 0.27357 0.0
C1395 C 0.4133 0.69907 0.2878 0.0
C1396 C 0.42009 0.69756 0.31173 0.0
C1397 C 0.44506 0.70591 0.3213 0.0
C1398 C 0.42582 0.70892 0.24789 0.0
C1399 C 0.40056 0.68888 0.32752 0.0
H1400 H 0.33438 0.72768 0.26482 0.0
H1401 H 0.34298 0.6482 0.24986 0.0
H1402 H 0.38834 0.74117 0.30584 0.0
H1403 H 0.39688 0.74898 0.27805 0.0
H1404 H 0.36587 0.75546 0.2868 0.0
H1405 H 0.38053 0.6295 0.26163 0.0
H1406 H 0.40809 0.65063 0.25798 0.0
H1407 H 0.39995 0.64549 0.28649 0.0
H1408 H 0.47057 0.72411 0.27297 0.0
H1409 H 0.44999 0.70593 0.33979 0.0
H1410 H 0.413 0.72428 0.24507 0.0
H1411 H 0.41557 0.69082 0.23983 0.0
H1412 H 0.44323 0.71285 0.23885 0.0
H1413 H 0.3867 0.70349 0.32958 0.0
H1414 H 0.4095 0.68581 0.34495 0.0
H1415 H 0.3896 0.67098 0.31988 0.0
C1416 C 0.04361 0.37495 0.00306 0.0
C1417 C 0.02121 0.38732 0.00488 0.0
C1418 C 0.0458 0.35698 0.98427 0.0
C1419 C 0.0249 0.35105 0.96716 0.0
C1420 C 0.00188 0.36279 0.96946 0.0
C1421 C 0.00036 0.38092 0.98822 0.0
C1422 C 0.07074 0.34507 0.98227 0.0
C1423 C 0.97904 0.35672 0.95176 0.0
C1424 C 0.03557 0.3293 0.90527 0.0
C1425 C 0.02852 0.30311 0.90409 0.0
C1426 C 0.03541 0.34488 0.92596 0.0
C1427 C 0.02762 0.33411 0.94592 0.0
C1428 C 0.02109 0.30757 0.94505 0.0
C1429 C 0.02181 0.29231 0.92414 0.0
C1430 C 0.04289 0.37303 0.92625 0.0
C1431 C 0.01242 0.29548 0.96592 0.0
H1432 H 0.05968 0.37985 0.01602 0.0
H1433 H 0.98285 0.39018 0.98974 0.0
H1434 H 0.06734 0.32404 0.9798 0.0
H1435 H 0.07957 0.35125 0.96681 0.0
H1436 H 0.08453 0.3504 0.99779 0.0
H1437 H 0.96195 0.36596 0.95704 0.0
H1438 H 0.98372 0.36325 0.93489 0.0
H1439 H 0.97418 0.33586 0.94901 0.0
H1440 H 0.04104 0.33772 0.8899 0.0
H1441 H 0.01627 0.27209 0.9233 0.0
H1442 H 0.05782 0.37925 0.94068 0.0
H1443 H 0.02609 0.38388 0.92925 0.0
H1444 H 0.05023 0.37809 0.90975 0.0
H1445 H 0.02655 0.30071 0.98117 0.0
H1446 H 0.00967 0.27441 0.96288 0.0
H1447 H 0.99407 0.30273 0.97035 0.0
C1448 C 0.69634 0.73645 0.25312 0.0
C1449 C 0.71786 0.751 0.26448 0.0
C1450 C 0.67348 0.73369 0.26378 0.0
C1451 C 0.67211 0.74588 0.28624 0.0
C1452 C 0.69417 0.75959 0.29816 0.0
C1453 C 0.71679 0.76195 0.28712 0.0
C1454 C 0.65043 0.71882 0.25053 0.0
C1455 C 0.69352 0.77293 0.32208 0.0
C1456 C 0.60794 0.76807 0.29999 0.0
C1457 C 0.59909 0.74989 0.3143 0.0
C1458 C 0.6316 0.76689 0.29086 0.0
C1459 C 0.64695 0.74696 0.29603 0.0
C1460 C 0.63825 0.72848 0.31044 0.0
C1461 C 0.61441 0.73019 0.31947 0.0
C1462 C 0.64016 0.78708 0.27567 0.0
C1463 C 0.6541 0.70693 0.31624 0.0
H1464 H 0.69708 0.72776 0.23566 0.0
H1465 H 0.73346 0.77312 0.29595 0.0
H1466 H 0.64145 0.70522 0.26152 0.0
H1467 H 0.63595 0.73205 0.24564 0.0
H1468 H 0.65536 0.70811 0.23448 0.0
H1469 H 0.71287 0.78045 0.32995 0.0
H1470 H 0.68131 0.78906 0.32107 0.0
H1471 H 0.68498 0.75979 0.33371 0.0
H1472 H 0.59637 0.78345 0.2959 0.0
H1473 H 0.60774 0.71605 0.33047 0.0
H1474 H 0.64337 0.77813 0.25833 0.0
H1475 H 0.65859 0.79713 0.28333 0.0
H1476 H 0.62598 0.80137 0.27339 0.0
H1477 H 0.65778 0.69563 0.30009 0.0
H1478 H 0.64463 0.69406 0.32762 0.0
H1479 H 0.67295 0.71462 0.32506 0.0
C1480 C 0.03678 0.0708 0.95081 0.0
C1481 C 0.03762 0.07688 0.97481 0.0
C1482 C 0.03298 0.08937 0.93528 0.0
C1483 C 0.03029 0.11475 0.94397 0.0
C1484 C 0.03143 0.12105 0.96824 0.0
C1485 C 0.03494 0.10201 0.98337 0.0
C1486 C 0.0316 0.08178 0.90955 0.0
C1487 C 0.02896 0.14794 0.97821 0.0
C1488 C 0.04263 0.16752 0.90467 0.0
C1489 C 0.01769 0.17273 0.89715 0.0
C1490 C 0.04702 0.14877 0.91994 0.0
C1491 C 0.02599 0.13463 0.92765 0.0
C1492 C 0.00079 0.13952 0.91982 0.0
C1493 C 0.99695 0.15859 0.90481 0.0
C1494 C 0.07417 0.14432 0.92806 0.0
C1495 C 0.97784 0.12465 0.92736 0.0
H1496 H 0.03887 0.05138 0.94416 0.0
H1497 H 0.03575 0.10688 0.00192 0.0
H1498 H 0.01291 0.08604 0.9011 0.0
H1499 H 0.04668 0.09302 0.90172 0.0
H1500 H 0.03396 0.06124 0.9056 0.0
H1501 H 0.03086 0.14985 0.99746 0.0
H1502 H 0.04383 0.16108 0.97213 0.0
H1503 H 0.01011 0.15411 0.97202 0.0
H1504 H 0.05877 0.17843 0.89896 0.0
H1505 H 0.97762 0.1624 0.89903 0.0
H1506 H 0.07777 0.12426 0.92331 0.0
H1507 H 0.0772 0.14767 0.94723 0.0
H1508 H 0.08842 0.15693 0.92049 0.0
H1509 H 0.97888 0.10401 0.92272 0.0
H1510 H 0.95952 0.13034 0.91928 0.0
H1511 H 0.97779 0.12752 0.94647 0.0
C1512 C 0.38924 0.32135 0.25576 0.0
C1513 C 0.40128 0.33521 0.27584 0.0
C1514 C 0.40197 0.31818 0.23565 0.0
C1515 C 0.42707 0.32977 0.23547 0.0
C1516 C 0.43934 0.34374 0.25577 0.0
C1517 C 0.42639 0.34596 0.27589 0.0
C1518 C 0.38848 0.30255 0.21455 0.0
C1519 C 0.46583 0.35687 0.25606 0.0
C1520 C 0.46573 0.3044 0.18771 0.0
C1521 C 0.46002 0.32055 0.17044 0.0
C1522 C 0.45562 0.30751 0.20923 0.0
C1523 C 0.44005 0.32768 0.21375 0.0
C1524 C 0.43536 0.34483 0.19679 0.0
C1525 C 0.44508 0.34082 0.17519 0.0
C1526 C 0.46054 0.28846 0.22664 0.0
C1527 C 0.41944 0.36699 0.2012 0.0
H1528 H 0.36991 0.31276 0.25582 0.0
H1529 H 0.43561 0.35671 0.29147 0.0
H1530 H 0.38546 0.31478 0.20017 0.0
H1531 H 0.40048 0.2874 0.20856 0.0
H1532 H 0.36963 0.29353 0.21801 0.0
H1533 H 0.4728 0.36676 0.27332 0.0
H1534 H 0.47951 0.34289 0.25115 0.0
H1535 H 0.46582 0.37104 0.24306 0.0
H1536 H 0.47714 0.2886 0.184 0.0
H1537 H 0.44083 0.35347 0.16192 0.0
H1538 H 0.44228 0.27761 0.22915 0.0
H1539 H 0.46813 0.29833 0.2437 0.0
H1540 H 0.47427 0.27478 0.22103 0.0
H1541 H 0.39931 0.35984 0.20242 0.0
H1542 H 0.41984 0.38003 0.18724 0.0
H1543 H 0.4264 0.37797 0.21796 0.0
C1544 C 0.57584 0.40388 0.98577 0.0
C1545 C 0.59295 0.42474 0.99451 0.0
C1546 C 0.56451 0.38793 0.00078 0.0
C1547 C 0.57028 0.39315 0.02505 0.0
C1548 C 0.58824 0.41367 0.03387 0.0
C1549 C 0.59945 0.42915 0.01846 0.0
C1550 C 0.54569 0.36604 0.99071 0.0
C1551 C 0.59477 0.41994 0.05962 0.0
C1552 C 0.51811 0.37173 0.06179 0.0
C1553 C 0.52711 0.34957 0.0699 0.0
C1554 C 0.53231 0.38637 0.04766 0.0
C1555 C 0.55596 0.37846 0.04117 0.0
C1556 C 0.56542 0.35635 0.04962 0.0
C1557 C 0.55096 0.34225 0.06407 0.0
C1558 C 0.52177 0.41009 0.03936 0.0
C1559 C 0.59042 0.3472 0.04285 0.0
H1560 H 0.57094 0.40024 0.96724 0.0
H1561 H 0.61276 0.44523 0.0252 0.0
H1562 H 0.55077 0.34818 0.99796 0.0
H1563 H 0.52628 0.36964 0.99552 0.0
H1564 H 0.545 0.36319 0.97151 0.0
H1565 H 0.61051 0.4353 0.0636 0.0
H1566 H 0.57766 0.42614 0.06766 0.0
H1567 H 0.60045 0.40283 0.06783 0.0
H1568 H 0.49979 0.3776 0.06638 0.0
H1569 H 0.55794 0.32506 0.07019 0.0
H1570 H 0.51808 0.40789 0.0202 0.0
H1571 H 0.53597 0.4267 0.04401 0.0
H1572 H 0.5037 0.41426 0.04687 0.0
H1573 H 0.58909 0.34224 0.02384 0.0
H1574 H 0.59561 0.33025 0.05165 0.0
H1575 H 0.60605 0.36255 0.04715 0.0
C1576 C 0.66511 0.24983 0.2283 0.0
C1577 C 0.68645 0.24195 0.21769 0.0
C1578 C 0.6438 0.25716 0.21511 0.0
C1579 C 0.64387 0.25668 0.19074 0.0
C1580 C 0.66524 0.24842 0.17991 0.0
C1581 C 0.68626 0.24107 0.19354 0.0
C1582 C 0.62132 0.26571 0.22729 0.0
C1583 C 0.66605 0.24771 0.15398 0.0
C1584 C 0.57971 0.25706 0.15546 0.0
C1585 C 0.57899 0.28294 0.1521 0.0
C1586 C 0.60087 0.24816 0.16772 0.0
C1587 C 0.62184 0.26552 0.17673 0.0
C1588 C 0.62143 0.29157 0.17301 0.0
C1589 C 0.6 0.29996 0.1608 0.0
C1590 C 0.60058 0.22026 0.1714 0.0
C1591 C 0.64349 0.31065 0.18224 0.0
H1592 H 0.66504 0.2504 0.24696 0.0
H1593 H 0.70274 0.23493 0.18532 0.0
H1594 H 0.6185 0.28577 0.22431 0.0
H1595 H 0.60358 0.25406 0.22006 0.0
H1596 H 0.62393 0.26423 0.24627 0.0
H1597 H 0.68379 0.24019 0.14819 0.0
H1598 H 0.64934 0.23569 0.14503 0.0
H1599 H 0.66483 0.26715 0.14844 0.0
H1600 H 0.56357 0.24376 0.14881 0.0
H1601 H 0.59967 0.31997 0.15821 0.0
H1602 H 0.60143 0.21788 0.19021 0.0
H1603 H 0.61767 0.21221 0.16479 0.0
H1604 H 0.5832 0.20909 0.16263 0.0
H1605 H 0.64595 0.31155 0.20144 0.0
H1606 H 0.64061 0.33004 0.17712 0.0
H1607 H 0.66151 0.30461 0.17581 0.0
C1608 C 0.4527 0.1227 0.01184 0.0
C1609 C 0.42778 0.11068 0.00833 0.0
C1610 C 0.45789 0.14651 0.02451 0.0
C1611 C 0.43792 0.15824 0.03485 0.0
C1612 C 0.41291 0.14593 0.03216 0.0
C1613 C 0.40804 0.12254 0.0186 0.0
C1614 C 0.48474 0.15928 0.02655 0.0
C1615 C 0.39128 0.15754 0.04352 0.0
C1616 C 0.46031 0.20965 0.08341 0.0
C1617 C 0.45727 0.23176 0.07222 0.0
C1618 C 0.45294 0.18556 0.07175 0.0
C1619 C 0.44329 0.18361 0.04812 0.0
C1620 C 0.44011 0.20595 0.0368 0.0
C1621 C 0.44672 0.22981 0.04914 0.0
C1622 C 0.45577 0.1622 0.08462 0.0
C1623 C 0.4307 0.20466 0.01142 0.0
H1624 H 0.46833 0.11352 0.00468 0.0
H1625 H 0.38865 0.11376 0.01583 0.0
H1626 H 0.4845 0.1784 0.02009 0.0
H1627 H 0.49258 0.16204 0.04498 0.0
H1628 H 0.49785 0.14809 0.01663 0.0
H1629 H 0.37341 0.14467 0.04118 0.0
H1630 H 0.39673 0.16217 0.06235 0.0
H1631 H 0.38734 0.1756 0.0361 0.0
H1632 H 0.46826 0.21123 0.10135 0.0
H1633 H 0.44458 0.24696 0.04047 0.0
H1634 H 0.4706 0.15092 0.07737 0.0
H1635 H 0.43757 0.14987 0.0824 0.0
H1636 H 0.46125 0.16708 0.10344 0.0
H1637 H 0.44413 0.19461 0.00093 0.0
H1638 H 0.42894 0.22381 0.00531 0.0
H1639 H 0.41181 0.19362 0.00811 0.0
C1640 C 0.27796 0.34145 0.71045 0.0
C1641 C 0.29157 0.32049 0.70451 0.0
C1642 C 0.29072 0.3655 0.7173 0.0
C1643 C 0.31776 0.36854 0.71858 0.0
C1644 C 0.33159 0.34742 0.71254 0.0
C1645 C 0.3183 0.32367 0.7054 0.0
C1646 C 0.27528 0.38763 0.72331 0.0
C1647 C 0.36044 0.34979 0.71406 0.0
C1648 C 0.3513 0.43503 0.72024 0.0
C1649 C 0.35746 0.44109 0.74411 0.0
C1650 C 0.33824 0.41152 0.71163 0.0
C1651 C 0.33161 0.39354 0.72725 0.0
C1652 C 0.33809 0.39945 0.75133 0.0
C1653 C 0.35074 0.42319 0.75946 0.0
C1654 C 0.33131 0.40601 0.68587 0.0
C1655 C 0.33171 0.38065 0.76853 0.0
H1656 H 0.25726 0.33905 0.70948 0.0
H1657 H 0.32883 0.30742 0.70093 0.0
H1658 H 0.27998 0.39479 0.74178 0.0
H1659 H 0.28023 0.40351 0.7128 0.0
H1660 H 0.25437 0.38237 0.7203 0.0
H1661 H 0.36829 0.33167 0.70827 0.0
H1662 H 0.36727 0.36475 0.70329 0.0
H1663 H 0.36828 0.35567 0.73222 0.0
H1664 H 0.35635 0.44881 0.70829 0.0
H1665 H 0.35561 0.42762 0.77793 0.0
H1666 H 0.31029 0.40209 0.68225 0.0
H1667 H 0.3401 0.38874 0.67934 0.0
H1668 H 0.33769 0.42206 0.67605 0.0
H1669 H 0.31072 0.37615 0.76756 0.0
H1670 H 0.33866 0.38795 0.78663 0.0
H1671 H 0.34036 0.36257 0.76421 0.0
C1672 C 0.30953 0.68594 0.78689 0.0
C1673 C 0.28369 0.6828 0.7782 0.0
C1674 C 0.32589 0.66656 0.78286 0.0
C1675 C 0.31614 0.64342 0.76998 0.0
C1676 C 0.29038 0.6406 0.76031 0.0
C1677 C 0.27449 0.66027 0.76456 0.0
C1678 C 0.35327 0.67039 0.79336 0.0
C1679 C 0.27912 0.6162 0.74664 0.0
C1680 C 0.36018 0.59314 0.75053 0.0
C1681 C 0.35854 0.57661 0.76806 0.0
C1682 C 0.34688 0.6153 0.75102 0.0
C1683 C 0.33159 0.62094 0.76941 0.0
C1684 C 0.33016 0.60446 0.78722 0.0
C1685 C 0.3436 0.58265 0.78633 0.0
C1686 C 0.34892 0.63252 0.73179 0.0
C1687 C 0.31407 0.60963 0.80714 0.0
H1688 H 0.31688 0.70343 0.79714 0.0
H1689 H 0.2545 0.65751 0.75799 0.0
H1690 H 0.35591 0.65814 0.80779 0.0
H1691 H 0.36644 0.66469 0.78033 0.0
H1692 H 0.35879 0.69046 0.80025 0.0
H1693 H 0.25978 0.61809 0.73805 0.0
H1694 H 0.29171 0.61017 0.73323 0.0
H1695 H 0.27763 0.60085 0.75842 0.0
H1696 H 0.3717 0.58872 0.73639 0.0
H1697 H 0.34217 0.57015 0.80006 0.0
H1698 H 0.35528 0.65224 0.73912 0.0
H1699 H 0.32986 0.63305 0.72221 0.0
H1700 H 0.36249 0.62616 0.71933 0.0
H1701 H 0.32017 0.62862 0.81635 0.0
H1702 H 0.31542 0.59516 0.81985 0.0
H1703 H 0.29373 0.60983 0.80045 0.0
C1704 C 0.86798 0.53839 0.50162 0.0
C1705 C 0.88968 0.53314 0.49014 0.0
C1706 C 0.85093 0.51865 0.50734 0.0
C1707 C 0.85508 0.49308 0.50063 0.0
C1708 C 0.87659 0.48764 0.48869 0.0
C1709 C 0.89386 0.50761 0.48412 0.0
C1710 C 0.82866 0.52512 0.52078 0.0
C1711 C 0.88146 0.46065 0.48075 0.0
C1712 C 0.82952 0.43566 0.52872 0.0
C1713 C 0.8088 0.42618 0.51285 0.0
C1714 C 0.84354 0.45862 0.52594 0.0
C1715 C 0.83735 0.47172 0.50624 0.0
C1716 C 0.81588 0.46259 0.49057 0.0
C1717 C 0.80154 0.44011 0.49433 0.0
C1718 C 0.86567 0.46823 0.54352 0.0
C1719 C 0.80917 0.47546 0.46894 0.0
H1720 H 0.86416 0.55791 0.50613 0.0
H1721 H 0.91086 0.50301 0.47599 0.0
H1722 H 0.81039 0.51827 0.51044 0.0
H1723 H 0.82931 0.51531 0.53691 0.0
H1724 H 0.82862 0.5459 0.52547 0.0
H1725 H 0.89789 0.45981 0.47003 0.0
H1726 H 0.88547 0.44986 0.49599 0.0
H1727 H 0.86424 0.45088 0.47044 0.0
H1728 H 0.83497 0.42489 0.54314 0.0
H1729 H 0.78563 0.43256 0.48196 0.0
H1730 H 0.86525 0.48893 0.5483 0.0
H1731 H 0.88395 0.46536 0.53594 0.0
H1732 H 0.86545 0.45819 0.55952 0.0
H1733 H 0.80816 0.49614 0.47319 0.0
H1734 H 0.79065 0.46734 0.45965 0.0
H1735 H 0.82439 0.47319 0.45704 0.0
C1736 C 0.77695 0.88147 0.84579 0.0
C1737 C 0.78796 0.86971 0.82699 0.0
C1738 C 0.75375 0.89268 0.84249 0.0
C1739 C 0.7413 0.89211 0.81987 0.0
C1740 C 0.7523 0.88026 0.80084 0.0
C1741 C 0.77545 0.86917 0.80463 0.0
C1742 C 0.74258 0.90517 0.8632 0.0
C1743 C 0.73957 0.87921 0.77645 0.0
C1744 C 0.67015 0.9001 0.81167 0.0
C1745 C 0.66998 0.92554 0.80662 0.0
C1746 C 0.69322 0.8891 0.81638 0.0
C1747 C 0.71671 0.90386 0.816 0.0
C1748 C 0.7167 0.92961 0.81119 0.0
C1749 C 0.69335 0.94015 0.80658 0.0
C1750 C 0.69248 0.86158 0.82149 0.0
C1751 C 0.74137 0.94593 0.81056 0.0
H1752 H 0.78664 0.88214 0.86307 0.0
H1753 H 0.7836 0.85971 0.79007 0.0
H1754 H 0.74055 0.92553 0.86093 0.0
H1755 H 0.72318 0.89609 0.86466 0.0
H1756 H 0.75457 0.90387 0.87966 0.0
H1757 H 0.75076 0.86948 0.76352 0.0
H1758 H 0.72027 0.869 0.77543 0.0
H1759 H 0.73704 0.89875 0.77164 0.0
H1760 H 0.65221 0.88867 0.81181 0.0
H1761 H 0.69345 0.95982 0.80273 0.0
H1762 H 0.70327 0.85994 0.83846 0.0
H1763 H 0.70187 0.8504 0.80814 0.0
H1764 H 0.67265 0.85294 0.82185 0.0
H1765 H 0.75333 0.94622 0.82726 0.0
H1766 H 0.73808 0.96582 0.80722 0.0
H1767 H 0.75245 0.93772 0.79679 0.0
C1768 C 0.67052 0.50962 0.94181 0.0
C1769 C 0.64639 0.51772 0.93545 0.0
C1770 C 0.69225 0.52694 0.94564 0.0
C1771 C 0.68983 0.55298 0.94288 0.0
C1772 C 0.66548 0.56139 0.9369 0.0
C1773 C 0.64401 0.54365 0.93331 0.0
C1774 C 0.71791 0.51725 0.95205 0.0
C1775 C 0.66219 0.58901 0.9338 0.0
C1776 C 0.7461 0.59856 0.96882 0.0
C1777 C 0.76034 0.60062 0.94968 0.0
C1778 C 0.72259 0.58379 0.96674 0.0
C1779 C 0.71309 0.571 0.94498 0.0
C1780 C 0.72679 0.57401 0.92539 0.0
C1781 C 0.75029 0.58871 0.92799 0.0
C1782 C 0.7085 0.58096 0.98802 0.0
C1783 C 0.71714 0.5609 0.90182 0.0
H1784 H 0.67254 0.48958 0.94322 0.0
H1785 H 0.62534 0.55008 0.92876 0.0
H1786 H 0.73059 0.52014 0.93806 0.0
H1787 H 0.72728 0.52812 0.96808 0.0
H1788 H 0.7163 0.49672 0.95482 0.0
H1789 H 0.6418 0.59266 0.93028 0.0
H1790 H 0.67046 0.60119 0.94953 0.0
H1791 H 0.6727 0.5949 0.91915 0.0
H1792 H 0.75375 0.60771 0.98564 0.0
H1793 H 0.76106 0.59041 0.91306 0.0
H1794 H 0.70862 0.56107 0.99266 0.0
H1795 H 0.68822 0.58489 0.9845 0.0
H1796 H 0.71724 0.59389 0.00315 0.0
H1797 H 0.71709 0.54 0.90227 0.0
H1798 H 0.72907 0.56675 0.88804 0.0
H1799 H 0.69716 0.56516 0.89711 0.0
C1800 C 0.22267 0.64921 0.24907 0.0
C1801 C 0.24773 0.6436 0.24562 0.0
C1802 C 0.20501 0.6308 0.25604 0.0
C1803 C 0.21263 0.60623 0.25955 0.0
C1804 C 0.2378 0.60039 0.25579 0.0
C1805 C 0.25501 0.61913 0.24886 0.0
C1806 C 0.17834 0.63771 0.2599 0.0
C1807 C 0.24659 0.57436 0.25918 0.0
C1808 C 0.17733 0.56415 0.29821 0.0
C1809 C 0.16238 0.54696 0.28186 0.0
C1810 C 0.19333 0.58393 0.2912 0.0
C1811 C 0.1944 0.58655 0.26727 0.0
C1812 C 0.17896 0.56961 0.2507 0.0
C1813 C 0.16313 0.55003 0.25819 0.0
C1814 C 0.20951 0.60167 0.30938 0.0
C1815 C 0.17958 0.5718 0.22503 0.0
H1816 H 0.21701 0.66816 0.24679 0.0
H1817 H 0.27424 0.61457 0.24585 0.0
H1818 H 0.16405 0.62448 0.24883 0.0
H1819 H 0.17466 0.6357 0.27817 0.0
H1820 H 0.17529 0.65749 0.25599 0.0
H1821 H 0.26675 0.57285 0.25537 0.0
H1822 H 0.24482 0.56999 0.27732 0.0
H1823 H 0.23425 0.55965 0.24776 0.0
H1824 H 0.17682 0.56199 0.31653 0.0
H1825 H 0.15159 0.5369 0.24541 0.0
H1826 H 0.20605 0.62171 0.30692 0.0
H1827 H 0.23005 0.59962 0.30753 0.0
H1828 H 0.20554 0.59785 0.32727 0.0
H1829 H 0.17553 0.59125 0.22091 0.0
H1830 H 0.16551 0.55787 0.21443 0.0
H1831 H 0.19895 0.56859 0.21989 0.0
C1832 C 0.93446 0.50313 0.05042 0.0
C1833 C 0.95988 0.50189 0.04553 0.0
C1834 C 0.91987 0.52204 0.04193 0.0
C1835 C 0.93127 0.5403 0.02867 0.0
C1836 C 0.95741 0.53984 0.02483 0.0
C1837 C 0.97133 0.5204 0.03306 0.0
C1838 C 0.89195 0.52158 0.04602 0.0
C1839 C 0.97039 0.55924 0.01118 0.0
C1840 C 0.88942 0.56755 0.98228 0.0
C1841 C 0.88496 0.59126 0.99318 0.0
C1842 C 0.90417 0.55076 0.9938 0.0
C1843 C 0.91526 0.55804 0.01666 0.0
C1844 C 0.91121 0.58211 0.0277 0.0
C1845 C 0.89582 0.59835 0.0159 0.0
C1846 C 0.90763 0.52508 0.98155 0.0
C1847 C 0.92321 0.59069 0.05188 0.0
H1848 H 0.92572 0.48866 0.06003 0.0
H1849 H 0.9911 0.51938 0.02947 0.0
H1850 H 0.88724 0.54065 0.05296 0.0
H1851 H 0.88007 0.51662 0.02931 0.0
H1852 H 0.88657 0.50754 0.05826 0.0
H1853 H 0.99142 0.55812 0.01217 0.0
H1854 H 0.96269 0.55607 0.99271 0.0
H1855 H 0.96643 0.57874 0.01763 0.0
H1856 H 0.88085 0.56178 0.96482 0.0
H1857 H 0.89244 0.61666 0.0244 0.0
H1858 H 0.90091 0.50973 0.99198 0.0
H1859 H 0.92819 0.5232 0.97969 0.0
H1860 H 0.89702 0.52204 0.96405 0.0
H1861 H 0.91654 0.57734 0.06421 0.0
H1862 H 0.91856 0.61015 0.05787 0.0
H1863 H 0.94429 0.59046 0.05244 0.0
C1864 C 0.08003 0.96374 0.04755 0.0
C1865 C 0.08457 0.98889 0.04201 0.0
C1866 C 0.09859 0.94617 0.04516 0.0
C1867 C 0.12229 0.95387 0.03703 0.0
C1868 C 0.12686 0.97911 0.03115 0.0
C1869 C 0.10802 0.99628 0.03376 0.0
C1870 C 0.09295 0.91944 0.05161 0.0
C1871 C 0.15189 0.98816 0.02252 0.0
C1872 C 0.18091 0.91914 0.05327 0.0
C1873 C 0.18332 0.90385 0.03275 0.0
C1874 C 0.16094 0.93511 0.05497 0.0
C1875 C 0.14282 0.93595 0.03567 0.0
C1876 C 0.14486 0.9203 0.015 0.0
C1877 C 0.16506 0.90442 0.01378 0.0
C1878 C 0.15947 0.9514 0.07737 0.0
C1879 C 0.12595 0.92068 0.99403 0.0
H1880 H 0.06187 0.95774 0.05365 0.0
H1881 H 0.11189 0.01574 0.02975 0.0
H1882 H 0.09524 0.90549 0.03674 0.0
H1883 H 0.10681 0.91561 0.0661 0.0
H1884 H 0.0733 0.91619 0.05692 0.0
H1885 H 0.15204 0.00803 0.01772 0.0
H1886 H 0.16778 0.98713 0.03613 0.0
H1887 H 0.15575 0.97561 0.00717 0.0
H1888 H 0.19483 0.91883 0.06807 0.0
H1889 H 0.16674 0.8927 0.99786 0.0
H1890 H 0.14053 0.94761 0.08395 0.0
H1891 H 0.16147 0.97181 0.07426 0.0
H1892 H 0.17457 0.94796 0.09101 0.0
H1893 H 0.10621 0.91639 0.9987 0.0
H1894 H 0.1296 0.90673 0.97956 0.0
H1895 H 0.12691 0.93995 0.98787 0.0
loop_
_geom_bond_atom_site_label_1
_geom_bond_atom_site_label_2
_geom_bond_distance
_geom_bond_site_symmetry_2
_ccdc_geom_bond_type
H0 C5 0.930 . S
H1 C8 0.930 . S
H2 C10 0.930 . S
H3 C4 0.999 1_556 S
C4 H3 0.999 1_554 S
C4 N11 1.286 . S
C5 H0 0.930 . S
C5 C6 1.397 . S
C5 C7 1.361 . S
C6 C5 1.397 . S
C6 C10 1.390 . S
C7 C5 1.361 . S
C7 C8 1.393 . S
C7 N11 1.413 . S
C8 H1 0.930 . S
C8 C7 1.393 . S
C8 C9 1.399 . S
C9 C8 1.399 . S
C9 C10 1.381 . S
C10 H2 0.930 . S
C10 C6 1.390 . S
C10 C9 1.381 . S
N11 C4 1.286 . S
N11 C7 1.413 . S
H12 C17 0.930 . S
H13 C20 0.930 . S
H14 C22 0.930 . S
H15 C16 1.016 . S
C16 H15 1.016 . S
C16 N23 1.286 . S
C17 H12 0.930 . S
C17 C18 1.397 . S
C17 C19 1.361 . S
C18 C17 1.397 . S
C18 C22 1.390 . S
C19 C17 1.361 . S
C19 C20 1.393 . S
C19 N23 1.413 . S
C20 H13 0.930 . S
C20 C19 1.393 . S
C20 C21 1.399 . S
C21 C20 1.399 . S
C21 C22 1.381 . S
C22 H14 0.930 . S
C22 C18 1.390 . S
C22 C21 1.381 . S
N23 C16 1.286 . S
N23 C19 1.413 . S
H24 C29 0.930 . S
H25 C32 0.930 . S
H26 C34 0.930 . S
H27 C28 1.016 . S
C28 H27 1.016 . S
C28 N35 1.286 . S
C29 H24 0.930 . S
C29 C30 1.397 . S
C29 C31 1.361 . S
C30 C29 1.397 . S
C30 C34 1.390 . S
C31 C29 1.361 . S
C31 C32 1.393 . S
C31 N35 1.413 . S
C32 H25 0.930 . S
C32 C31 1.393 . S
C32 C33 1.399 . S
C33 C32 1.399 . S
C33 C34 1.381 . S
C34 H26 0.930 . S
C34 C30 1.390 . S
C34 C33 1.381 . S
N35 C28 1.286 . S
N35 C31 1.413 . S
H36 C41 0.930 . S
H37 C44 0.930 . S
H38 C46 0.930 . S
H39 C40 1.016 . S
C40 H39 1.016 . S
C40 N47 1.286 . S
C41 H36 0.930 . S
C41 C42 1.397 . S
C41 C43 1.361 . S
C42 C41 1.397 . S
C42 C46 1.390 . S
C43 C41 1.361 . S
C43 C44 1.393 . S
C43 N47 1.413 . S
C44 H37 0.930 . S
C44 C43 1.393 . S
C44 C45 1.399 . S
C45 C44 1.399 . S
C45 C46 1.381 . S
C46 H38 0.930 . S
C46 C42 1.390 . S
C46 C45 1.381 . S
N47 C40 1.286 . S
N47 C43 1.413 . S
H48 C53 0.930 . S
H49 C56 0.930 . S
H50 C58 0.930 . S
H51 C52 1.016 . S
C52 H51 1.016 . S
C52 N59 1.286 . S
C53 H48 0.930 . S
C53 C54 1.397 . S
C53 C55 1.361 . S
C54 C53 1.397 . S
C54 C58 1.390 . S
C55 C53 1.361 . S
C55 C56 1.393 . S
C55 N59 1.413 . S
C56 H49 0.930 . S
C56 C55 1.393 . S
C56 C57 1.399 . S
C57 C56 1.399 . S
C57 C58 1.381 . S
C58 H50 0.930 . S
C58 C54 1.390 . S
C58 C57 1.381 . S
N59 C52 1.286 . S
N59 C55 1.413 . S
H60 C65 0.930 . S
H61 C68 0.930 . S
H62 C70 0.930 . S
H63 C64 1.016 . S
C64 H63 1.016 . S
C64 N71 1.286 . S
C65 H60 0.930 . S
C65 C66 1.397 . S
C65 C67 1.361 . S
C66 C65 1.397 . S
C66 C70 1.390 . S
C67 C65 1.361 . S
C67 C68 1.393 . S
C67 N71 1.413 . S
C68 H61 0.930 . S
C68 C67 1.393 . S
C68 C69 1.399 . S
C69 C68 1.399 . S
C69 C70 1.381 . S
C70 H62 0.930 . S
C70 C66 1.390 . S
C70 C69 1.381 . S
N71 C64 1.286 . S
N71 C67 1.413 . S
H72 C77 0.930 . S
H73 C80 0.930 . S
H74 C82 0.930 . S
H75 C76 1.026 . S
C76 H75 1.026 . S
C76 N83 1.298 . S
C77 H72 0.930 . S
C77 C78 1.397 . S
C77 C79 1.361 . S
C78 C77 1.397 . S
C78 C82 1.390 . S
C79 C77 1.361 . S
C79 C80 1.393 . S
C79 N83 1.413 . S
C80 H73 0.930 . S
C80 C79 1.393 . S
C80 C81 1.399 . S
C81 C80 1.399 . S
C81 C82 1.381 . S
C82 H74 0.930 . S
C82 C78 1.390 . S
C82 C81 1.381 . S
N83 C76 1.298 . S
N83 C79 1.413 . S
H84 C89 0.930 . S
H85 C92 0.930 . S
H86 C94 0.930 . S
H87 C88 1.016 . S
C88 H87 1.016 . S
C88 N95 1.286 . S
C89 H84 0.930 . S
C89 C90 1.397 . S
C89 C91 1.361 . S
C90 C89 1.397 . S
C90 C94 1.390 . S
C91 C89 1.361 . S
C91 C92 1.393 . S
C91 N95 1.413 . S
C92 H85 0.930 . S
C92 C91 1.393 . S
C92 C93 1.399 . S
C93 C92 1.399 . S
C93 C94 1.381 . S
C94 H86 0.930 . S
C94 C90 1.390 . S
C94 C93 1.381 . S
N95 C88 1.286 . S
N95 C91 1.413 . S
H96 C101 0.930 . S
H97 C104 0.930 . S
H98 C106 0.930 . S
H99 C100 1.016 . S
C100 H99 1.016 . S
C100 N107 1.286 . S
C101 H96 0.930 . S
C101 C102 1.397 . S
C101 C103 1.361 . S
C102 C101 1.397 . S
C102 C106 1.390 . S
C103 C101 1.361 . S
C103 C104 1.393 . S
C103 N107 1.413 . S
C104 H97 0.930 . S
C104 C103 1.393 . S
C104 C105 1.399 . S
C105 C104 1.399 . S
C105 C106 1.381 . S
C106 H98 0.930 . S
C106 C102 1.390 . S
C106 C105 1.381 . S
N107 C100 1.286 . S
N107 C103 1.413 . S
H108 C113 0.930 . S
H109 C116 0.930 . S
H110 C118 0.930 1_545 S
H111 C112 1.016 . S
C112 H111 1.016 . S
C112 N119 1.286 . S
C113 H108 0.930 . S
C113 C114 1.397 . S
C113 C115 1.361 . S
C114 C113 1.397 . S
C114 C118 1.390 . S
C115 C113 1.361 . S
C115 C116 1.393 . S
C115 N119 1.413 . S
C116 H109 0.930 . S
C116 C115 1.393 . S
C116 C117 1.399 . S
C117 C116 1.399 . S
C117 C118 1.381 . S
C118 H110 0.930 1_565 S
C118 C114 1.390 . S
C118 C117 1.381 . S
N119 C112 1.286 . S
N119 C115 1.413 . S
H120 C125 0.930 . S
H121 C128 0.930 . S
H122 C130 0.930 . S
H123 C124 1.016 . S
C124 H123 1.016 . S
C124 N131 1.286 . S
C125 H120 0.930 . S
C125 C126 1.397 . S
C125 C127 1.361 . S
C126 C125 1.397 . S
C126 C130 1.390 . S
C127 C125 1.361 . S
C127 C128 1.393 . S
C127 N131 1.413 . S
C128 H121 0.930 . S
C128 C127 1.393 . S
C128 C129 1.399 . S
C129 C128 1.399 . S
C129 C130 1.381 . S
C130 H122 0.930 . S
C130 C126 1.390 . S
C130 C129 1.381 . S
N131 C124 1.286 . S
N131 C127 1.413 . S
H132 C137 0.930 . S
H133 C140 0.930 . S
H134 C142 0.930 . S
H135 C136 1.016 . S
C136 H135 1.016 . S
C136 N143 1.286 . S
C137 H132 0.930 . S
C137 C138 1.397 . S
C137 C139 1.361 . S
C138 C137 1.397 . S
C138 C142 1.390 . S
C139 C137 1.361 . S
C139 C140 1.393 . S
C139 N143 1.413 . S
C140 H133 0.930 . S
C140 C139 1.393 . S
C140 C141 1.399 . S
C141 C140 1.399 . S
C141 C142 1.381 . S
C142 H134 0.930 . S
C142 C138 1.390 . S
C142 C141 1.381 . S
N143 C136 1.286 . S
N143 C139 1.413 . S
H144 C149 0.930 . S
H145 C152 0.930 . S
H146 C154 0.930 . S
H147 C148 1.016 . S
C148 H147 1.016 . S
C148 N155 1.286 . S
C149 H144 0.930 . S
C149 C150 1.397 . S
C149 C151 1.361 . S
C150 C149 1.397 . S
C150 C154 1.390 . S
C151 C149 1.361 . S
C151 C152 1.393 . S
C151 N155 1.413 . S
C152 H145 0.930 . S
C152 C151 1.393 . S
C152 C153 1.399 . S
C153 C152 1.399 . S
C153 C154 1.381 . S
C154 H146 0.930 . S
C154 C150 1.390 . S
C154 C153 1.381 . S
N155 C148 1.286 . S
N155 C151 1.413 . S
H156 C161 0.930 . S
H157 C164 0.930 . S
H158 C166 0.930 . S
H159 C160 1.016 1_554 S
C160 H159 1.016 1_556 S
C160 N167 1.286 . S
C161 H156 0.930 . S
C161 C162 1.397 . S
C161 C163 1.361 . S
C162 C161 1.397 . S
C162 C166 1.390 . S
C163 C161 1.361 . S
C163 C164 1.393 . S
C163 N167 1.413 . S
C164 H157 0.930 . S
C164 C163 1.393 . S
C164 C165 1.399 . S
C165 C164 1.399 . S
C165 C166 1.381 . S
C166 H158 0.930 . S
C166 C162 1.390 . S
C166 C165 1.381 . S
N167 C160 1.286 . S
N167 C163 1.413 . S
H168 C173 0.930 . S
H169 C176 0.930 . S
H170 C178 0.930 . S
H171 C172 1.016 . S
C172 H171 1.016 . S
C172 N179 1.286 . S
C173 H168 0.930 . S
C173 C174 1.397 . S
C173 C175 1.361 . S
C174 C173 1.397 . S
C174 C178 1.390 . S
C175 C173 1.361 . S
C175 C176 1.393 . S
C175 N179 1.413 . S
C176 H169 0.930 . S
C176 C175 1.393 . S
C176 C177 1.399 . S
C177 C176 1.399 . S
C177 C178 1.381 . S
C178 H170 0.930 . S
C178 C174 1.390 . S
C178 C177 1.381 . S
N179 C172 1.286 . S
N179 C175 1.413 . S
H180 C185 0.930 . S
H181 C188 0.930 . S
H182 C190 0.930 . S
H183 C184 1.016 . S
C184 H183 1.016 . S
C184 N191 1.286 . S
C185 H180 0.930 . S
C185 C186 1.397 . S
C185 C187 1.361 . S
C186 C185 1.397 . S
C186 C190 1.390 . S
C187 C185 1.361 . S
C187 C188 1.393 . S
C187 N191 1.413 . S
C188 H181 0.930 . S
C188 C187 1.393 . S
C188 C189 1.399 . S
C189 C188 1.399 . S
C189 C190 1.381 . S
C190 H182 0.930 . S
C190 C186 1.390 . S
C190 C189 1.381 . S
N191 C184 1.286 . S
N191 C187 1.413 . S
Zn192 O195 2.031 . S
Zn192 O197 2.066 . S
Zn192 O202 2.067 1_554 S
Zn193 O194 1.962 . S
Zn193 O196 1.986 . S
Zn193 O198 1.996 . S
Zn193 O201 1.943 1_554 S
O194 Zn193 1.962 . S
O194 C199 1.254 . S
O195 Zn192 2.031 . S
O195 C199 1.269 . S
O196 Zn193 1.986 . S
O196 C203 1.262 . S
O197 Zn192 2.066 . S
O197 C205 1.271 . S
O198 Zn193 1.996 . S
O198 C205 1.257 . S
C199 O194 1.254 . S
C199 O195 1.269 . S
C200 O201 1.249 . S
C200 O202 1.270 . S
O201 Zn193 1.943 1_556 S
O201 C200 1.249 . S
O202 Zn192 2.067 1_556 S
O202 C200 1.270 . S
C203 O196 1.262 . S
C203 O204 1.232 . S
O204 C203 1.232 . S
C205 O197 1.271 . S
C205 O198 1.257 . S
Zn206 O209 2.031 . S
Zn206 O211 2.049 . S
Zn206 O216 2.067 . S
Zn207 O208 1.962 . S
Zn207 O210 1.986 . S
Zn207 O212 1.996 . S
Zn207 O215 1.943 . S
O208 Zn207 1.962 . S
O208 C213 1.254 . S
O209 Zn206 2.031 . S
O209 C213 1.269 . S
O210 Zn207 1.986 . S
O210 C217 1.262 . S
O211 Zn206 2.049 . S
O211 C219 1.260 . S
O212 Zn207 1.996 . S
O212 C219 1.257 . S
C213 O208 1.254 . S
C213 O209 1.269 . S
C214 O215 1.249 . S
C214 O216 1.270 . S
O215 Zn207 1.943 . S
O215 C214 1.249 . S
O216 Zn206 2.067 . S
O216 C214 1.270 . S
C217 O210 1.262 . S
C217 O218 1.232 . S
O218 C217 1.232 . S
C219 O211 1.260 . S
C219 O212 1.257 . S
Zn220 O223 2.031 . S
Zn220 O225 2.049 . S
Zn220 O230 2.067 . S
Zn221 O222 1.962 . S
Zn221 O224 1.986 . S
Zn221 O226 1.996 1_554 S
Zn221 O229 1.943 . S
O222 Zn221 1.962 . S
O222 C227 1.254 . S
O223 Zn220 2.031 . S
O223 C227 1.269 1_556 S
O224 Zn221 1.986 . S
O224 C231 1.262 . S
O225 Zn220 2.049 . S
O225 C233 1.260 . S
O226 Zn221 1.996 1_556 S
O226 C233 1.257 . S
C227 O222 1.254 . S
C227 O223 1.269 1_554 S
C228 O229 1.249 1_556 S
C228 O230 1.270 . S
O229 Zn221 1.943 . S
O229 C228 1.249 1_554 S
O230 Zn220 2.067 . S
O230 C228 1.270 . S
C231 O224 1.262 . S
C231 O232 1.232 . S
O232 C231 1.232 . S
C233 O225 1.260 . S
C233 O226 1.257 . S
Zn234 O237 2.031 . S
Zn234 O239 2.049 . S
Zn234 O244 2.067 1_545 S
Zn235 O236 1.962 . S
Zn235 O238 1.986 . S
Zn235 O240 1.996 . S
Zn235 O243 1.943 1_545 S
O236 Zn235 1.962 . S
O236 C241 1.254 . S
O237 Zn234 2.031 . S
O237 C241 1.269 . S
O238 Zn235 1.986 . S
O238 C245 1.262 . S
O239 Zn234 2.049 . S
O239 C247 1.260 . S
O240 Zn235 1.996 . S
O240 C247 1.257 . S
C241 O236 1.254 . S
C241 O237 1.269 . S
C242 O243 1.249 . S
C242 O244 1.270 . S
O243 Zn235 1.943 1_565 S
O243 C242 1.249 . S
O244 Zn234 2.067 1_565 S
O244 C242 1.270 . S
C245 O238 1.262 . S
C245 O246 1.232 . S
O246 C245 1.232 . S
C247 O239 1.260 . S
C247 O240 1.257 . S
Zn248 O251 2.031 . S
Zn248 O253 2.049 . S
Zn248 O258 2.067 . S
Zn249 O250 1.962 . S
Zn249 O252 1.986 . S
Zn249 O254 1.996 . S
Zn249 O257 1.943 . S
O250 Zn249 1.962 . S
O250 C255 1.254 . S
O251 Zn248 2.031 . S
O251 C255 1.269 . S
O252 Zn249 1.986 . S
O252 C259 1.262 . S
O253 Zn248 2.049 . S
O253 C261 1.260 . S
O254 Zn249 1.996 . S
O254 C261 1.257 . S
C255 O250 1.254 . S
C255 O251 1.269 . S
C256 O257 1.249 . S
C256 O258 1.270 . S
O257 Zn249 1.943 . S
O257 C256 1.249 . S
O258 Zn248 2.067 . S
O258 C256 1.270 . S
C259 O252 1.262 . S
C259 O260 1.232 . S
O260 C259 1.232 . S
C261 O253 1.260 . S
C261 O254 1.257 . S
Zn262 O265 2.031 . S
Zn262 O267 2.049 . S
Zn262 O272 2.067 . S
Zn263 O264 1.962 . S
Zn263 O266 1.986 . S
Zn263 O268 1.996 . S
Zn263 O271 1.943 . S
O264 Zn263 1.962 . S
O264 C269 1.254 . S
O265 Zn262 2.031 . S
O265 C269 1.269 . S
O266 Zn263 1.986 . S
O266 C273 1.262 . S
O267 Zn262 2.049 . S
O267 C275 1.260 . S
O268 Zn263 1.996 . S
O268 C275 1.257 . S
C269 O264 1.254 . S
C269 O265 1.269 . S
C270 O271 1.249 . S
C270 O272 1.270 . S
O271 Zn263 1.943 . S
O271 C270 1.249 . S
O272 Zn262 2.067 . S
O272 C270 1.270 . S
C273 O266 1.262 . S
C273 O274 1.232 . S
O274 C273 1.232 . S
C275 O267 1.260 . S
C275 O268 1.257 . S
Zn276 O279 2.031 . S
Zn276 O281 2.049 . S
Zn276 O286 2.067 . S
Zn277 O278 1.962 . S
Zn277 O280 1.986 . S
Zn277 O282 1.996 . S
Zn277 O285 1.943 . S
O278 Zn277 1.962 . S
O278 C283 1.254 . S
O279 Zn276 2.031 . S
O279 C283 1.269 . S
O280 Zn277 1.986 . S
O280 C287 1.262 . S
O281 Zn276 2.049 . S
O281 C289 1.260 . S
O282 Zn277 1.996 . S
O282 C289 1.257 . S
C283 O278 1.254 . S
C283 O279 1.269 . S
C284 O285 1.249 . S
C284 O286 1.270 . S
O285 Zn277 1.943 . S
O285 C284 1.249 . S
O286 Zn276 2.067 . S
O286 C284 1.270 . S
C287 O280 1.262 . S
C287 O288 1.232 . S
O288 C287 1.232 . S
C289 O281 1.260 . S
C289 O282 1.257 . S
Zn290 O293 2.031 . S
Zn290 O295 2.049 . S
Zn290 O300 2.067 . S
Zn291 O292 1.962 . S
Zn291 O294 1.986 . S
Zn291 O296 1.996 1_545 S
Zn291 O299 1.943 . S
O292 Zn291 1.962 . S
O292 C297 1.254 . S
O293 Zn290 2.031 . S
O293 C297 1.269 1_565 S
O294 Zn291 1.986 . S
O294 C301 1.262 . S
O295 Zn290 2.049 . S
O295 C303 1.260 . S
O296 Zn291 1.996 1_565 S
O296 C303 1.257 . S
C297 O292 1.254 . S
C297 O293 1.269 1_545 S
C298 O299 1.249 1_565 S
C298 O300 1.270 . S
O299 Zn291 1.943 . S
O299 C298 1.249 1_545 S
O300 Zn290 2.067 . S
O300 C298 1.270 . S
C301 O294 1.262 . S
C301 O302 1.232 . S
O302 C301 1.232 . S
C303 O295 1.260 . S
C303 O296 1.257 . S
Zn304 O307 2.031 . S
Zn304 O309 2.049 1_455 S
Zn304 O314 2.067 1_455 S
Zn305 O306 1.962 . S
Zn305 O308 1.986 . S
Zn305 O310 1.996 . S
Zn305 O313 1.943 1_455 S
O306 Zn305 1.962 . S
O306 C311 1.254 . S
O307 Zn304 2.031 . S
O307 C311 1.269 . S
O308 Zn305 1.986 . S
O308 C315 1.262 . S
O309 Zn304 2.049 1_655 S
O309 C317 1.267 . S
O310 Zn305 1.996 . S
O310 C317 1.243 1_455 S
C311 O306 1.254 . S
C311 O307 1.269 . S
C312 O313 1.249 . S
C312 O314 1.270 . S
O313 Zn305 1.943 1_655 S
O313 C312 1.249 . S
O314 Zn304 2.067 1_655 S
O314 C312 1.270 . S
C315 O308 1.262 . S
C315 O316 1.232 . S
O316 C315 1.232 . S
C317 O309 1.267 . S
C317 O310 1.243 1_655 S
Zn318 O321 2.031 . S
Zn318 O323 2.049 . S
Zn318 O328 2.067 . S
Zn319 O320 1.962 . S
Zn319 O322 1.986 . S
Zn319 O324 1.996 . S
Zn319 O327 1.943 . S
O320 Zn319 1.962 . S
O320 C325 1.254 . S
O321 Zn318 2.031 . S
O321 C325 1.269 . S
O322 Zn319 1.986 . S
O322 C329 1.262 . S
O323 Zn318 2.049 . S
O323 C331 1.260 . S
O324 Zn319 1.996 . S
O324 C331 1.257 . S
C325 O320 1.254 . S
C325 O321 1.269 . S
C326 O327 1.249 . S
C326 O328 1.270 . S
O327 Zn319 1.943 . S
O327 C326 1.249 . S
O328 Zn318 2.067 . S
O328 C326 1.270 . S
C329 O322 1.262 . S
C329 O330 1.232 . S
O330 C329 1.232 . S
C331 O323 1.260 . S
C331 O324 1.257 . S
Zn332 O335 2.031 1_655 S
Zn332 O337 2.049 . S
Zn332 O342 2.067 . S
Zn333 O334 1.962 . S
Zn333 O336 1.986 . S
Zn333 O338 1.996 1_455 S
Zn333 O341 1.943 . S
O334 Zn333 1.962 . S
O334 C339 1.254 . S
O335 Zn332 2.031 1_455 S
O335 C339 1.269 . S
O336 Zn333 1.986 . S
O336 C343 1.262 . S
O337 Zn332 2.049 . S
O337 C345 1.260 . S
O338 Zn333 1.996 1_655 S
O338 C345 1.257 . S
C339 O334 1.254 . S
C339 O335 1.269 . S
C340 O341 1.249 . S
C340 O342 1.270 1_455 S
O341 Zn333 1.943 . S
O341 C340 1.249 . S
O342 Zn332 2.067 . S
O342 C340 1.270 1_655 S
C343 O336 1.262 . S
C343 O344 1.232 . S
O344 C343 1.232 . S
C345 O337 1.260 . S
C345 O338 1.257 . S
Zn346 O349 2.031 . S
Zn346 O351 2.049 . S
Zn346 O356 2.067 . S
Zn347 O348 1.962 . S
Zn347 O350 1.986 . S
Zn347 O352 1.996 . S
Zn347 O355 1.943 . S
O348 Zn347 1.962 . S
O348 C353 1.254 . S
O349 Zn346 2.031 . S
O349 C353 1.269 . S
O350 Zn347 1.986 . S
O350 C357 1.262 . S
O351 Zn346 2.049 . S
O351 C359 1.260 . S
O352 Zn347 1.996 . S
O352 C359 1.257 . S
C353 O348 1.254 . S
C353 O349 1.269 . S
C354 O355 1.249 . S
C354 O356 1.270 . S
O355 Zn347 1.943 . S
O355 C354 1.249 . S
O356 Zn346 2.067 . S
O356 C354 1.270 . S
C357 O350 1.262 . S
C357 O358 1.232 . S
O358 C357 1.232 . S
C359 O351 1.260 . S
C359 O352 1.257 . S
C360 C361 1.391 . S
C360 C362 1.394 . S
C360 H376 0.931 . S
C361 C360 1.391 . S
C361 C365 1.376 . S
C362 C360 1.394 . S
C362 C363 1.369 . S
C362 C366 1.531 . S
C363 C362 1.369 . S
C363 C364 1.410 . S
C363 C371 1.503 . S
C364 C363 1.410 . S
C364 C365 1.392 . S
C364 C367 1.511 . S
C365 C361 1.376 . S
C365 C364 1.392 . S
C365 H377 0.929 . S
C366 C362 1.531 . S
C366 H378 0.960 . S
C366 H379 0.962 . S
C366 H380 0.960 . S
C367 C364 1.511 . S
C367 H381 0.961 . S
C367 H382 0.961 . S
C367 H383 0.961 . S
C368 C369 1.370 . S
C368 C370 1.363 . S
C368 H384 0.931 . S
C369 C368 1.370 . S
C369 C373 1.408 . S
C370 C368 1.363 . S
C370 C371 1.370 . S
C370 C374 1.524 . S
C371 C363 1.503 . S
C371 C370 1.370 . S
C371 C372 1.403 . S
C372 C371 1.403 . S
C372 C373 1.404 . S
C372 C375 1.539 . S
C373 C369 1.408 . S
C373 C372 1.404 . S
C373 H385 0.930 . S
C374 C370 1.524 . S
C374 H386 0.956 . S
C374 H387 0.961 . S
C374 H388 0.961 . S
C375 C372 1.539 . S
C375 H389 0.958 . S
C375 H390 0.961 . S
C375 H391 0.960 . S
H376 C360 0.931 . S
H377 C365 0.929 . S
H378 C366 0.960 . S
H379 C366 0.962 . S
H380 C366 0.960 . S
H381 C367 0.961 . S
H382 C367 0.961 . S
H383 C367 0.961 . S
H384 C368 0.931 . S
H385 C373 0.930 . S
H386 C374 0.956 . S
H387 C374 0.961 . S
H388 C374 0.961 . S
H389 C375 0.958 . S
H390 C375 0.961 . S
H391 C375 0.960 . S
C392 C393 1.391 . S
C392 C394 1.394 . S
C392 H408 0.931 1_455 S
C393 C392 1.391 . S
C393 C397 1.376 . S
C394 C392 1.394 . S
C394 C395 1.369 . S
C394 C398 1.531 . S
C395 C394 1.369 . S
C395 C396 1.410 . S
C395 C403 1.503 . S
C396 C395 1.410 . S
C396 C397 1.392 . S
C396 C399 1.511 . S
C397 C393 1.376 . S
C397 C396 1.392 . S
C397 H409 0.929 . S
C398 C394 1.531 . S
C398 H410 0.960 . S
C398 H411 0.962 . S
C398 H412 0.959 . S
C399 C396 1.511 . S
C399 H413 0.961 . S
C399 H414 0.961 . S
C399 H415 0.961 . S
C400 C401 1.370 . S
C400 C402 1.363 . S
C400 H416 0.931 . S
C401 C400 1.370 . S
C401 C405 1.408 . S
C402 C400 1.363 . S
C402 C403 1.370 . S
C402 C406 1.524 . S
C403 C395 1.503 . S
C403 C402 1.370 . S
C403 C404 1.403 . S
C404 C403 1.403 . S
C404 C405 1.404 . S
C404 C407 1.539 . S
C405 C401 1.408 . S
C405 C404 1.404 . S
C405 H417 0.930 . S
C406 C402 1.524 . S
C406 H418 0.956 . S
C406 H419 0.961 . S
C406 H420 0.961 . S
C407 C404 1.539 . S
C407 H421 0.958 . S
C407 H422 0.961 . S
C407 H423 0.960 . S
H408 C392 0.931 1_655 S
H409 C397 0.929 . S
H410 C398 0.960 . S
H411 C398 0.962 . S
H412 C398 0.959 . S
H413 C399 0.961 . S
H414 C399 0.961 . S
H415 C399 0.961 . S
H416 C400 0.931 . S
H417 C405 0.930 . S
H418 C406 0.956 . S
H419 C406 0.961 . S
H420 C406 0.961 . S
H421 C407 0.958 . S
H422 C407 0.961 . S
H423 C407 0.960 . S
C424 C425 1.391 . S
C424 C426 1.394 . S
C424 H440 0.931 . S
C425 C424 1.391 . S
C425 C429 1.376 . S
C426 C424 1.394 . S
C426 C427 1.369 . S
C426 C430 1.531 . S
C427 C426 1.369 . S
C427 C428 1.410 . S
C427 C435 1.503 . S
C428 C427 1.410 . S
C428 C429 1.392 . S
C428 C431 1.511 . S
C429 C425 1.376 . S
C429 C428 1.392 . S
C429 H441 0.929 . S
C430 C426 1.531 . S
C430 H442 0.960 . S
C430 H443 0.962 . S
C430 H444 0.960 . S
C431 C428 1.511 . S
C431 H445 0.961 . S
C431 H446 0.961 . S
C431 H447 0.961 . S
C432 C433 1.370 . S
C432 C434 1.363 . S
C432 H448 0.931 . S
C433 C432 1.370 . S
C433 C437 1.408 . S
C434 C432 1.363 . S
C434 C435 1.370 . S
C434 C438 1.524 . S
C435 C427 1.503 . S
C435 C434 1.370 . S
C435 C436 1.403 . S
C436 C435 1.403 . S
C436 C437 1.404 . S
C436 C439 1.539 . S
C437 C433 1.408 . S
C437 C436 1.404 . S
C437 H449 0.930 . S
C438 C434 1.524 . S
C438 H450 0.956 . S
C438 H451 0.961 . S
C438 H452 0.961 . S
C439 C436 1.539 . S
C439 H453 0.958 . S
C439 H454 0.961 . S
C439 H455 0.960 . S
H440 C424 0.931 . S
H441 C429 0.929 . S
H442 C430 0.960 . S
H443 C430 0.962 . S
H444 C430 0.960 . S
H445 C431 0.961 . S
H446 C431 0.961 . S
H447 C431 0.961 . S
H448 C432 0.931 . S
H449 C437 0.930 . S
H450 C438 0.956 . S
H451 C438 0.961 . S
H452 C438 0.961 . S
H453 C439 0.958 . S
H454 C439 0.961 . S
H455 C439 0.960 . S
C456 C457 1.391 . S
C456 C458 1.394 . S
C456 H472 0.931 . S
C457 C456 1.391 . S
C457 C461 1.376 . S
C458 C456 1.394 . S
C458 C459 1.369 . S
C458 C462 1.531 . S
C459 C458 1.369 . S
C459 C460 1.410 . S
C459 C467 1.503 . S
C460 C459 1.410 . S
C460 C461 1.392 . S
C460 C463 1.511 1_455 S
C461 C457 1.376 . S
C461 C460 1.392 . S
C461 H473 0.929 . S
C462 C458 1.531 . S
C462 H474 0.960 . S
C462 H475 0.962 . S
C462 H476 0.960 . S
C463 C460 1.511 1_655 S
C463 H477 0.961 1_565 S
C463 H478 0.961 1_565 S
C463 H479 0.961 . S
C464 C465 1.370 1_455 S
C464 C466 1.363 . S
C464 H480 0.931 . S
C465 C464 1.370 1_655 S
C465 C469 1.408 1_545 S
C466 C464 1.363 . S
C466 C467 1.370 1_545 S
C466 C470 1.524 . S
C467 C459 1.503 . S
C467 C466 1.370 1_565 S
C467 C468 1.403 1_455 S
C468 C467 1.403 1_655 S
C468 C469 1.404 . S
C468 C471 1.539 . S
C469 C465 1.408 1_565 S
C469 C468 1.404 . S
C469 H481 0.930 . S
C470 C466 1.524 . S
C470 H482 0.956 . S
C470 H483 0.961 . S
C470 H484 0.961 . S
C471 C468 1.539 . S
C471 H485 0.958 . S
C471 H486 0.961 . S
C471 H487 0.960 . S
H472 C456 0.931 . S
H473 C461 0.929 . S
H474 C462 0.960 . S
H475 C462 0.962 . S
H476 C462 0.960 . S
H477 C463 0.961 1_545 S
H478 C463 0.961 1_545 S
H479 C463 0.961 . S
H480 C464 0.931 . S
H481 C469 0.930 . S
H482 C470 0.956 . S
H483 C470 0.961 . S
H484 C470 0.961 . S
H485 C471 0.958 . S
H486 C471 0.961 . S
H487 C471 0.960 . S
C488 C489 1.391 . S
C488 C490 1.394 . S
C488 H504 0.931 . S
C489 C488 1.391 . S
C489 C493 1.376 . S
C490 C488 1.394 . S
C490 C491 1.369 . S
C490 C494 1.531 . S
C491 C490 1.369 . S
C491 C492 1.410 . S
C491 C499 1.503 . S
C492 C491 1.410 . S
C492 C493 1.392 . S
C492 C495 1.511 . S
C493 C489 1.376 . S
C493 C492 1.392 . S
C493 H505 0.929 . S
C494 C490 1.531 . S
C494 H506 0.960 . S
C494 H507 0.962 . S
C494 H508 0.960 . S
C495 C492 1.511 . S
C495 H509 0.961 . S
C495 H510 0.961 . S
C495 H511 0.961 . S
C496 C497 1.370 . S
C496 C498 1.363 . S
C496 H512 0.931 . S
C497 C496 1.370 . S
C497 C501 1.408 . S
C498 C496 1.363 . S
C498 C499 1.370 . S
C498 C502 1.524 . S
C499 C491 1.503 . S
C499 C498 1.370 . S
C499 C500 1.403 . S
C500 C499 1.403 . S
C500 C501 1.404 . S
C500 C503 1.539 . S
C501 C497 1.408 . S
C501 C500 1.404 . S
C501 H513 0.930 . S
C502 C498 1.524 . S
C502 H514 0.956 . S
C502 H515 0.961 . S
C502 H516 0.961 . S
C503 C500 1.539 . S
C503 H517 0.958 . S
C503 H518 0.961 . S
C503 H519 0.960 . S
H504 C488 0.931 . S
H505 C493 0.929 . S
H506 C494 0.960 . S
H507 C494 0.962 . S
H508 C494 0.960 . S
H509 C495 0.961 . S
H510 C495 0.961 . S
H511 C495 0.961 . S
H512 C496 0.931 . S
H513 C501 0.930 . S
H514 C502 0.956 . S
H515 C502 0.961 . S
H516 C502 0.961 . S
H517 C503 0.958 . S
H518 C503 0.961 . S
H519 C503 0.960 . S
C520 C521 1.391 . S
C520 C522 1.394 . S
C520 H536 0.931 . S
C521 C520 1.391 . S
C521 C525 1.376 . S
C522 C520 1.394 . S
C522 C523 1.369 . S
C522 C526 1.531 . S
C523 C522 1.369 . S
C523 C524 1.410 . S
C523 C531 1.503 . S
C524 C523 1.410 . S
C524 C525 1.392 . S
C524 C527 1.511 . S
C525 C521 1.376 . S
C525 C524 1.392 . S
C525 H537 0.929 . S
C526 C522 1.531 . S
C526 H538 0.960 . S
C526 H539 0.962 . S
C526 H540 0.960 . S
C527 C524 1.511 . S
C527 H541 0.961 . S
C527 H542 0.961 . S
C527 H543 0.961 . S
C528 C529 1.370 . S
C528 C530 1.363 . S
C528 H544 0.931 . S
C529 C528 1.370 . S
C529 C533 1.408 . S
C530 C528 1.363 . S
C530 C531 1.370 . S
C530 C534 1.524 . S
C531 C523 1.503 . S
C531 C530 1.370 . S
C531 C532 1.403 . S
C532 C531 1.403 . S
C532 C533 1.404 . S
C532 C535 1.539 . S
C533 C529 1.408 . S
C533 C532 1.404 . S
C533 H545 0.930 . S
C534 C530 1.524 . S
C534 H546 0.956 . S
C534 H547 0.961 . S
C534 H548 0.961 . S
C535 C532 1.539 . S
C535 H549 0.958 . S
C535 H550 0.961 . S
C535 H551 0.960 . S
H536 C520 0.931 . S
H537 C525 0.929 . S
H538 C526 0.960 . S
H539 C526 0.962 . S
H540 C526 0.960 . S
H541 C527 0.961 . S
H542 C527 0.961 . S
H543 C527 0.961 . S
H544 C528 0.931 . S
H545 C533 0.930 . S
H546 C534 0.956 . S
H547 C534 0.961 . S
H548 C534 0.961 . S
H549 C535 0.958 . S
H550 C535 0.961 . S
H551 C535 0.960 . S
C552 C553 1.391 . S
C552 C554 1.394 . S
C552 H568 0.931 . S
C553 C552 1.391 . S
C553 C557 1.376 . S
C554 C552 1.394 . S
C554 C555 1.369 . S
C554 C558 1.531 . S
C555 C554 1.369 . S
C555 C556 1.410 . S
C555 C563 1.503 . S
C556 C555 1.410 . S
C556 C557 1.392 . S
C556 C559 1.511 . S
C557 C553 1.376 . S
C557 C556 1.392 . S
C557 H569 0.929 . S
C558 C554 1.531 . S
C558 H570 0.960 . S
C558 H571 0.962 . S
C558 H572 0.960 . S
C559 C556 1.511 . S
C559 H573 0.961 . S
C559 H574 0.961 . S
C559 H575 0.961 . S
C560 C561 1.370 . S
C560 C562 1.363 . S
C560 H576 0.931 . S
C561 C560 1.370 . S
C561 C565 1.408 . S
C562 C560 1.363 . S
C562 C563 1.370 . S
C562 C566 1.524 . S
C563 C555 1.503 . S
C563 C562 1.370 . S
C563 C564 1.403 . S
C564 C563 1.403 . S
C564 C565 1.404 . S
C564 C567 1.539 . S
C565 C561 1.408 . S
C565 C564 1.404 . S
C565 H577 0.930 . S
C566 C562 1.524 . S
C566 H578 0.956 . S
C566 H579 0.961 . S
C566 H580 0.961 . S
C567 C564 1.539 . S
C567 H581 0.958 . S
C567 H582 0.961 . S
C567 H583 0.960 . S
H568 C552 0.931 . S
H569 C557 0.929 . S
H570 C558 0.960 . S
H571 C558 0.962 . S
H572 C558 0.960 . S
H573 C559 0.961 . S
H574 C559 0.961 . S
H575 C559 0.961 . S
H576 C560 0.931 . S
H577 C565 0.930 . S
H578 C566 0.956 . S
H579 C566 0.961 . S
H580 C566 0.961 . S
H581 C567 0.958 . S
H582 C567 0.961 . S
H583 C567 0.960 . S
C584 C585 1.391 . S
C584 C586 1.394 . S
C584 H600 0.931 . S
C585 C584 1.391 . S
C585 C589 1.376 . S
C586 C584 1.394 . S
C586 C587 1.369 . S
C586 C590 1.531 . S
C587 C586 1.369 . S
C587 C588 1.410 . S
C587 C595 1.503 . S
C588 C587 1.410 . S
C588 C589 1.392 . S
C588 C591 1.511 1_565 S
C589 C585 1.376 . S
C589 C588 1.392 . S
C589 H601 0.929 1_565 S
C590 C586 1.531 . S
C590 H602 0.960 . S
C590 H603 0.962 . S
C590 H604 0.960 . S
C591 C588 1.511 1_545 S
C591 H605 0.961 . S
C591 H606 0.961 . S
C591 H607 0.961 . S
C592 C593 1.370 . S
C592 C594 1.363 . S
C592 H608 0.931 1_565 S
C593 C592 1.370 . S
C593 C597 1.408 . S
C594 C592 1.363 . S
C594 C595 1.370 . S
C594 C598 1.507 1_565 S
C595 C587 1.503 . S
C595 C594 1.370 . S
C595 C596 1.403 . S
C596 C595 1.403 . S
C596 C597 1.404 . S
C596 C599 1.539 . S
C597 C593 1.408 . S
C597 C596 1.404 . S
C597 H609 0.930 . S
C598 C594 1.507 1_545 S
C598 H610 0.924 1_545 S
C598 H611 0.993 . S
C598 H612 0.980 . S
C599 C596 1.539 . S
C599 H613 0.958 . S
C599 H614 0.961 . S
C599 H615 0.960 . S
H600 C584 0.931 . S
H601 C589 0.929 1_545 S
H602 C590 0.960 . S
H603 C590 0.962 . S
H604 C590 0.960 . S
H605 C591 0.961 . S
H606 C591 0.961 . S
H607 C591 0.961 . S
H608 C592 0.931 1_545 S
H609 C597 0.930 . S
H610 C598 0.924 1_565 S
H611 C598 0.993 . S
H612 C598 0.980 . S
H613 C599 0.958 . S
H614 C599 0.961 . S
H615 C599 0.960 . S
C616 C617 1.391 . S
C616 C618 1.394 . S
C616 H632 0.931 . S
C617 C616 1.391 . S
C617 C621 1.376 . S
C618 C616 1.394 . S
C618 C619 1.369 . S
C618 C622 1.531 . S
C619 C618 1.369 . S
C619 C620 1.410 . S
C619 C627 1.503 . S
C620 C619 1.410 . S
C620 C621 1.392 . S
C620 C623 1.511 . S
C621 C617 1.376 . S
C621 C620 1.392 . S
C621 H633 0.929 . S
C622 C618 1.531 . S
C622 H634 0.960 . S
C622 H635 0.962 . S
C622 H636 0.960 . S
C623 C620 1.511 . S
C623 H637 0.961 . S
C623 H638 0.961 . S
C623 H639 0.961 . S
C624 C625 1.370 . S
C624 C626 1.363 . S
C624 H640 0.931 . S
C625 C624 1.370 . S
C625 C629 1.408 . S
C626 C624 1.363 . S
C626 C627 1.370 . S
C626 C630 1.524 . S
C627 C619 1.503 . S
C627 C626 1.370 . S
C627 C628 1.403 . S
C628 C627 1.403 . S
C628 C629 1.404 . S
C628 C631 1.539 . S
C629 C625 1.408 . S
C629 C628 1.404 . S
C629 H641 0.930 . S
C630 C626 1.524 . S
C630 H642 0.956 . S
C630 H643 0.961 . S
C630 H644 0.961 . S
C631 C628 1.539 . S
C631 H645 0.958 . S
C631 H646 0.961 . S
C631 H647 0.960 . S
H632 C616 0.931 . S
H633 C621 0.929 . S
H634 C622 0.960 . S
H635 C622 0.962 . S
H636 C622 0.960 . S
H637 C623 0.961 . S
H638 C623 0.961 . S
H639 C623 0.961 . S
H640 C624 0.931 . S
H641 C629 0.930 . S
H642 C630 0.956 . S
H643 C630 0.961 . S
H644 C630 0.961 . S
H645 C631 0.958 . S
H646 C631 0.961 . S
H647 C631 0.960 . S
C648 C649 1.391 . S
C648 C650 1.394 . S
C648 H664 0.931 . S
C649 C648 1.391 . S
C649 C653 1.376 . S
C650 C648 1.394 . S
C650 C651 1.369 . S
C650 C654 1.531 . S
C651 C650 1.369 . S
C651 C652 1.410 . S
C651 C659 1.503 . S
C652 C651 1.410 . S
C652 C653 1.392 . S
C652 C655 1.511 . S
C653 C649 1.376 . S
C653 C652 1.392 . S
C653 H665 0.929 . S
C654 C650 1.531 . S
C654 H666 0.960 . S
C654 H667 0.962 . S
C654 H668 0.960 . S
C655 C652 1.511 . S
C655 H669 0.961 . S
C655 H670 0.961 . S
C655 H671 0.961 . S
C656 C657 1.370 . S
C656 C658 1.363 . S
C656 H672 0.931 . S
C657 C656 1.370 . S
C657 C661 1.408 . S
C658 C656 1.363 . S
C658 C659 1.370 . S
C658 C662 1.524 . S
C659 C651 1.503 . S
C659 C658 1.370 . S
C659 C660 1.403 . S
C660 C659 1.403 . S
C660 C661 1.404 . S
C660 C663 1.539 . S
C661 C657 1.408 . S
C661 C660 1.404 . S
C661 H673 0.930 . S
C662 C658 1.524 . S
C662 H674 0.956 . S
C662 H675 0.961 . S
C662 H676 0.961 . S
C663 C660 1.539 . S
C663 H677 0.958 . S
C663 H678 0.961 . S
C663 H679 0.960 . S
H664 C648 0.931 . S
H665 C653 0.929 . S
H666 C654 0.960 . S
H667 C654 0.962 . S
H668 C654 0.960 . S
H669 C655 0.961 . S
H670 C655 0.961 . S
H671 C655 0.961 . S
H672 C656 0.931 . S
H673 C661 0.930 . S
H674 C662 0.956 . S
H675 C662 0.961 . S
H676 C662 0.961 . S
H677 C663 0.958 . S
H678 C663 0.961 . S
H679 C663 0.960 . S
C680 C681 1.391 . S
C680 C682 1.394 . S
C680 H696 0.931 . S
C681 C680 1.391 . S
C681 C685 1.376 . S
C682 C680 1.394 . S
C682 C683 1.369 . S
C682 C686 1.531 . S
C683 C682 1.369 . S
C683 C684 1.410 . S
C683 C691 1.503 . S
C684 C683 1.410 . S
C684 C685 1.392 . S
C684 C687 1.511 . S
C685 C681 1.376 . S
C685 C684 1.392 . S
C685 H697 0.929 . S
C686 C682 1.531 . S
C686 H698 0.960 . S
C686 H699 0.962 . S
C686 H700 0.960 . S
C687 C684 1.511 . S
C687 H701 0.961 . S
C687 H702 0.961 . S
C687 H703 0.961 . S
C688 C689 1.370 . S
C688 C690 1.363 . S
C688 H704 0.931 . S
C689 C688 1.370 . S
C689 C693 1.408 . S
C690 C688 1.363 . S
C690 C691 1.370 . S
C690 C694 1.524 . S
C691 C683 1.503 . S
C691 C690 1.370 . S
C691 C692 1.403 . S
C692 C691 1.403 . S
C692 C693 1.404 . S
C692 C695 1.539 . S
C693 C689 1.408 . S
C693 C692 1.404 . S
C693 H705 0.930 . S
C694 C690 1.524 . S
C694 H706 0.956 . S
C694 H707 0.961 . S
C694 H708 0.961 . S
C695 C692 1.539 . S
C695 H709 0.958 . S
C695 H710 0.961 . S
C695 H711 0.960 . S
H696 C680 0.931 . S
H697 C685 0.929 . S
H698 C686 0.960 . S
H699 C686 0.962 . S
H700 C686 0.960 . S
H701 C687 0.961 . S
H702 C687 0.961 . S
H703 C687 0.961 . S
H704 C688 0.931 . S
H705 C693 0.930 . S
H706 C694 0.956 . S
H707 C694 0.961 . S
H708 C694 0.961 . S
H709 C695 0.958 . S
H710 C695 0.961 . S
H711 C695 0.960 . S
C712 C713 1.391 . S
C712 C714 1.394 . S
C712 H728 0.931 . S
C713 C712 1.391 . S
C713 C717 1.376 . S
C714 C712 1.394 . S
C714 C715 1.369 . S
C714 C718 1.531 . S
C715 C714 1.369 . S
C715 C716 1.410 . S
C715 C723 1.503 . S
C716 C715 1.410 . S
C716 C717 1.392 . S
C716 C719 1.511 . S
C717 C713 1.376 . S
C717 C716 1.392 . S
C717 H729 0.929 . S
C718 C714 1.531 . S
C718 H730 0.960 . S
C718 H731 0.962 . S
C718 H732 0.960 . S
C719 C716 1.511 . S
C719 H733 0.961 . S
C719 H734 0.961 . S
C719 H735 0.961 . S
C720 C721 1.370 . S
C720 C722 1.363 . S
C720 H736 0.931 . S
C721 C720 1.370 . S
C721 C725 1.408 . S
C722 C720 1.363 . S
C722 C723 1.370 . S
C722 C726 1.524 . S
C723 C715 1.503 . S
C723 C722 1.370 . S
C723 C724 1.403 . S
C724 C723 1.403 . S
C724 C725 1.404 . S
C724 C727 1.539 . S
C725 C721 1.408 . S
C725 C724 1.404 . S
C725 H737 0.930 . S
C726 C722 1.524 . S
C726 H738 0.956 . S
C726 H739 0.961 . S
C726 H740 0.961 . S
C727 C724 1.539 . S
C727 H741 0.958 . S
C727 H742 0.961 . S
C727 H743 0.960 . S
H728 C712 0.931 . S
H729 C717 0.929 . S
H730 C718 0.960 . S
H731 C718 0.962 . S
H732 C718 0.960 . S
H733 C719 0.961 . S
H734 C719 0.961 . S
H735 C719 0.961 . S
H736 C720 0.931 . S
H737 C725 0.930 . S
H738 C726 0.956 . S
H739 C726 0.961 . S
H740 C726 0.961 . S
H741 C727 0.958 . S
H742 C727 0.961 . S
H743 C727 0.960 . S
C744 C745 1.391 . S
C744 C746 1.394 . S
C744 H760 0.931 . S
C745 C744 1.391 . S
C745 C749 1.376 . S
C746 C744 1.394 . S
C746 C747 1.369 . S
C746 C750 1.531 . S
C747 C746 1.369 . S
C747 C748 1.410 . S
C747 C755 1.503 . S
C748 C747 1.410 . S
C748 C749 1.392 . S
C748 C751 1.511 . S
C749 C745 1.376 . S
C749 C748 1.392 . S
C749 H761 0.929 . S
C750 C746 1.531 . S
C750 H762 0.960 . S
C750 H763 0.962 . S
C750 H764 0.960 . S
C751 C748 1.511 . S
C751 H765 0.961 . S
C751 H766 0.961 . S
C751 H767 0.961 . S
C752 C753 1.370 . S
C752 C754 1.363 . S
C752 H768 0.931 . S
C753 C752 1.370 . S
C753 C757 1.408 . S
C754 C752 1.363 . S
C754 C755 1.370 . S
C754 C758 1.524 . S
C755 C747 1.503 . S
C755 C754 1.370 . S
C755 C756 1.403 . S
C756 C755 1.403 . S
C756 C757 1.404 . S
C756 C759 1.539 . S
C757 C753 1.408 . S
C757 C756 1.404 . S
C757 H769 0.930 . S
C758 C754 1.524 . S
C758 H770 0.956 . S
C758 H771 0.961 . S
C758 H772 0.961 . S
C759 C756 1.539 . S
C759 H773 0.958 . S
C759 H774 0.961 . S
C759 H775 0.960 . S
H760 C744 0.931 . S
H761 C749 0.929 . S
H762 C750 0.960 . S
H763 C750 0.962 . S
H764 C750 0.960 . S
H765 C751 0.961 . S
H766 C751 0.961 . S
H767 C751 0.961 . S
H768 C752 0.931 . S
H769 C757 0.930 . S
H770 C758 0.956 . S
H771 C758 0.961 . S
H772 C758 0.961 . S
H773 C759 0.958 . S
H774 C759 0.961 . S
H775 C759 0.960 . S
C776 C777 1.391 . S
C776 C778 1.394 . S
C776 H792 0.931 . S
C777 C776 1.391 . S
C777 C781 1.376 . S
C778 C776 1.394 . S
C778 C779 1.369 . S
C778 C782 1.531 . S
C779 C778 1.369 . S
C779 C780 1.410 . S
C779 C787 1.503 . S
C780 C779 1.410 . S
C780 C781 1.392 . S
C780 C783 1.511 . S
C781 C777 1.376 . S
C781 C780 1.392 . S
C781 H793 0.929 . S
C782 C778 1.531 . S
C782 H794 0.960 . S
C782 H795 0.962 . S
C782 H796 0.960 . S
C783 C780 1.511 . S
C783 H797 0.961 . S
C783 H798 0.961 . S
C783 H799 0.970 . S
C784 C785 1.370 . S
C784 C786 1.363 . S
C784 H800 0.931 . S
C785 C784 1.370 . S
C785 C789 1.408 . S
C786 C784 1.363 . S
C786 C787 1.370 . S
C786 C790 1.524 . S
C787 C779 1.503 . S
C787 C786 1.370 . S
C787 C788 1.403 . S
C788 C787 1.403 . S
C788 C789 1.404 . S
C788 C791 1.539 . S
C789 C785 1.408 . S
C789 C788 1.404 . S
C789 H801 0.930 . S
C790 C786 1.524 . S
C790 H802 0.956 . S
C790 H803 0.961 . S
C790 H804 0.961 . S
C791 C788 1.539 . S
C791 H805 0.958 . S
C791 H806 0.961 . S
C791 H807 0.960 . S
H792 C776 0.931 . S
H793 C781 0.929 . S
H794 C782 0.960 . S
H795 C782 0.962 . S
H796 C782 0.960 . S
H797 C783 0.961 . S
H798 C783 0.961 . S
H799 C783 0.970 . S
H800 C784 0.931 . S
H801 C789 0.930 . S
H802 C790 0.956 . S
H803 C790 0.961 . S
H804 C790 0.961 . S
H805 C791 0.958 . S
H806 C791 0.961 . S
H807 C791 0.960 . S
C808 C809 1.391 . S
C808 C810 1.394 . S
C808 H824 0.931 . S
C809 C808 1.391 . S
C809 C813 1.376 . S
C810 C808 1.394 . S
C810 C811 1.369 . S
C810 C814 1.531 . S
C811 C810 1.369 . S
C811 C812 1.410 . S
C811 C819 1.503 . S
C812 C811 1.410 . S
C812 C813 1.392 . S
C812 C815 1.511 . S
C813 C809 1.376 . S
C813 C812 1.392 . S
C813 H825 0.929 . S
C814 C810 1.531 . S
C814 H826 0.960 . S
C814 H827 0.962 . S
C814 H828 0.960 . S
C815 C812 1.511 . S
C815 H829 0.961 . S
C815 H830 0.961 . S
C815 H831 0.961 . S
C816 C817 1.370 . S
C816 C818 1.363 . S
C816 H832 0.931 . S
C817 C816 1.370 . S
C817 C821 1.408 . S
C818 C816 1.363 . S
C818 C819 1.370 . S
C818 C822 1.524 . S
C819 C811 1.503 . S
C819 C818 1.370 . S
C819 C820 1.403 . S
C820 C819 1.403 . S
C820 C821 1.404 . S
C820 C823 1.539 . S
C821 C817 1.408 . S
C821 C820 1.404 . S
C821 H833 0.930 . S
C822 C818 1.524 . S
C822 H834 0.956 . S
C822 H835 0.961 . S
C822 H836 0.961 . S
C823 C820 1.539 . S
C823 H837 0.958 . S
C823 H838 0.961 . S
C823 H839 0.960 . S
H824 C808 0.931 . S
H825 C813 0.929 . S
H826 C814 0.960 . S
H827 C814 0.962 . S
H828 C814 0.960 . S
H829 C815 0.961 . S
H830 C815 0.961 . S
H831 C815 0.961 . S
H832 C816 0.931 . S
H833 C821 0.930 . S
H834 C822 0.956 . S
H835 C822 0.961 . S
H836 C822 0.961 . S
H837 C823 0.958 . S
H838 C823 0.961 . S
H839 C823 0.960 . S
C840 C841 1.391 . S
C840 C842 1.394 . S
C840 H856 0.931 . S
C841 C840 1.391 . S
C841 C845 1.376 . S
C842 C840 1.394 . S
C842 C843 1.369 . S
C842 C846 1.531 . S
C843 C842 1.369 . S
C843 C844 1.410 . S
C843 C851 1.503 . S
C844 C843 1.410 . S
C844 C845 1.392 . S
C844 C847 1.511 1_655 S
C845 C841 1.376 . S
C845 C844 1.392 . S
C845 H857 0.929 . S
C846 C842 1.531 . S
C846 H858 0.960 . S
C846 H859 0.962 . S
C846 H860 0.960 . S
C847 C844 1.511 1_455 S
C847 H861 0.961 . S
C847 H862 0.961 . S
C847 H863 0.961 . S
C848 C849 1.370 . S
C848 C850 1.363 . S
C848 H864 0.931 . S
C849 C848 1.370 . S
C849 C853 1.408 1_455 S
C850 C848 1.363 . S
C850 C851 1.370 1_455 S
C850 C854 1.524 . S
C851 C843 1.503 . S
C851 C850 1.370 1_655 S
C851 C852 1.403 . S
C852 C851 1.403 . S
C852 C853 1.404 . S
C852 C855 1.539 . S
C853 C849 1.408 1_655 S
C853 C852 1.404 . S
C853 H865 0.930 . S
C854 C850 1.524 . S
C854 H866 0.956 . S
C854 H867 0.961 . S
C854 H868 0.961 . S
C855 C852 1.539 . S
C855 H869 0.958 . S
C855 H870 0.961 . S
C855 H871 0.960 . S
H856 C840 0.931 . S
H857 C845 0.929 . S
H858 C846 0.960 . S
H859 C846 0.962 . S
H860 C846 0.960 . S
H861 C847 0.961 . S
H862 C847 0.961 . S
H863 C847 0.961 . S
H864 C848 0.931 . S
H865 C853 0.930 . S
H866 C854 0.956 . S
H867 C854 0.961 . S
H868 C854 0.961 . S
H869 C855 0.958 . S
H870 C855 0.961 . S
H871 C855 0.960 . S
C872 C873 1.391 . S
C872 C874 1.394 . S
C872 H888 0.931 . S
C873 C872 1.391 . S
C873 C877 1.376 . S
C874 C872 1.394 . S
C874 C875 1.369 . S
C874 C878 1.531 . S
C875 C874 1.369 . S
C875 C876 1.410 . S
C875 C883 1.503 . S
C876 C875 1.410 . S
C876 C877 1.392 . S
C876 C879 1.511 . S
C877 C873 1.376 . S
C877 C876 1.392 . S
C877 H889 0.929 . S
C878 C874 1.531 . S
C878 H890 0.960 . S
C878 H891 0.962 . S
C878 H892 0.960 . S
C879 C876 1.511 . S
C879 H893 0.961 . S
C879 H894 0.961 . S
C879 H895 0.961 . S
C880 C881 1.370 . S
C880 C882 1.363 . S
C880 H896 0.931 . S
C881 C880 1.370 . S
C881 C885 1.408 . S
C882 C880 1.363 . S
C882 C883 1.370 . S
C882 C886 1.524 . S
C883 C875 1.503 . S
C883 C882 1.370 . S
C883 C884 1.403 . S
C884 C883 1.403 . S
C884 C885 1.404 . S
C884 C887 1.539 . S
C885 C881 1.408 . S
C885 C884 1.404 . S
C885 H897 0.930 . S
C886 C882 1.524 . S
C886 H898 0.956 . S
C886 H899 0.961 . S
C886 H900 0.961 . S
C887 C884 1.539 . S
C887 H901 0.958 . S
C887 H902 0.961 . S
C887 H903 0.960 . S
H888 C872 0.931 . S
H889 C877 0.929 . S
H890 C878 0.960 . S
H891 C878 0.962 . S
H892 C878 0.960 . S
H893 C879 0.961 . S
H894 C879 0.961 . S
H895 C879 0.961 . S
H896 C880 0.931 . S
H897 C885 0.930 . S
H898 C886 0.956 . S
H899 C886 0.961 . S
H900 C886 0.961 . S
H901 C887 0.958 . S
H902 C887 0.961 . S
H903 C887 0.960 . S
C904 C905 1.391 . S
C904 C906 1.394 . S
C904 H920 0.931 . S
C905 C904 1.391 . S
C905 C909 1.376 . S
C906 C904 1.394 . S
C906 C907 1.369 . S
C906 C910 1.531 . S
C907 C906 1.369 . S
C907 C908 1.410 . S
C907 C915 1.503 . S
C908 C907 1.410 . S
C908 C909 1.392 . S
C908 C911 1.511 . S
C909 C905 1.376 . S
C909 C908 1.392 . S
C909 H921 0.929 . S
C910 C906 1.531 . S
C910 H922 0.960 . S
C910 H923 0.962 . S
C910 H924 0.960 . S
C911 C908 1.511 . S
C911 H925 0.961 . S
C911 H926 0.961 . S
C911 H927 0.961 . S
C912 C913 1.370 . S
C912 C914 1.363 . S
C912 H928 0.931 . S
C913 C912 1.370 . S
C913 C917 1.408 . S
C914 C912 1.363 . S
C914 C915 1.370 . S
C914 C918 1.524 . S
C915 C907 1.503 . S
C915 C914 1.370 . S
C915 C916 1.403 . S
C916 C915 1.403 . S
C916 C917 1.404 . S
C916 C919 1.539 . S
C917 C913 1.408 . S
C917 C916 1.404 . S
C917 H929 0.930 . S
C918 C914 1.524 . S
C918 H930 0.956 . S
C918 H931 0.961 . S
C918 H932 0.961 . S
C919 C916 1.539 . S
C919 H933 0.958 . S
C919 H934 0.961 . S
C919 H935 0.960 . S
H920 C904 0.931 . S
H921 C909 0.929 . S
H922 C910 0.960 . S
H923 C910 0.962 . S
H924 C910 0.960 . S
H925 C911 0.961 . S
H926 C911 0.961 . S
H927 C911 0.961 . S
H928 C912 0.931 . S
H929 C917 0.930 . S
H930 C918 0.956 . S
H931 C918 0.961 . S
H932 C918 0.961 . S
H933 C919 0.958 . S
H934 C919 0.961 . S
H935 C919 0.960 . S
C936 C937 1.391 . S
C936 C938 1.410 . S
C936 H952 0.931 . S
C937 C936 1.391 . S
C937 C941 1.376 . S
C938 C936 1.410 . S
C938 C939 1.363 1_545 S
C938 C942 1.521 1_546 S
C939 C938 1.363 1_565 S
C939 C940 1.425 . S
C939 C947 1.503 . S
C940 C939 1.425 . S
C940 C941 1.370 1_565 S
C940 C943 1.519 . S
C941 C937 1.376 . S
C941 C940 1.370 1_545 S
C941 H953 0.929 . S
C942 C938 1.521 1_564 S
C942 H954 0.960 . S
C942 H955 0.962 . S
C942 H956 0.960 1_565 S
C943 C940 1.519 . S
C943 H957 0.961 . S
C943 H958 0.961 . S
C943 H959 0.961 1_565 S
C944 C945 1.344 1_556 S
C944 C946 1.363 . S
C944 H960 0.931 . S
C945 C944 1.344 1_554 S
C945 C949 1.416 . S
C946 C944 1.363 . S
C946 C947 1.370 . S
C946 C950 1.524 . S
C947 C939 1.503 . S
C947 C946 1.370 . S
C947 C948 1.403 . S
C948 C947 1.403 . S
C948 C949 1.404 1_556 S
C948 C951 1.539 1_566 S
C949 C945 1.416 . S
C949 C948 1.404 1_554 S
C949 H961 0.930 . S
C950 C946 1.524 . S
C950 H962 0.956 . S
C950 H963 0.961 . S
C950 H964 0.961 . S
C951 C948 1.539 1_544 S
C951 H965 0.958 . S
C951 H966 0.961 . S
C951 H967 0.960 1_554 S
H952 C936 0.931 . S
H953 C941 0.929 . S
H954 C942 0.960 . S
H955 C942 0.962 . S
H956 C942 0.960 1_545 S
H957 C943 0.961 . S
H958 C943 0.961 . S
H959 C943 0.961 1_545 S
H960 C944 0.931 . S
H961 C949 0.930 . S
H962 C950 0.956 . S
H963 C950 0.961 . S
H964 C950 0.961 . S
H965 C951 0.958 . S
H966 C951 0.961 . S
H967 C951 0.960 1_556 S
C968 C969 1.391 . S
C968 C970 1.394 . S
C968 H984 0.931 . S
C969 C968 1.391 . S
C969 C973 1.376 . S
C970 C968 1.394 . S
C970 C971 1.369 . S
C970 C974 1.531 . S
C971 C970 1.369 . S
C971 C972 1.410 . S
C971 C979 1.503 . S
C972 C971 1.410 . S
C972 C973 1.392 . S
C972 C975 1.511 . S
C973 C969 1.376 . S
C973 C972 1.392 . S
C973 H985 0.929 . S
C974 C970 1.531 . S
C974 H986 0.960 . S
C974 H987 0.962 . S
C974 H988 0.960 . S
C975 C972 1.511 . S
C975 H989 0.961 . S
C975 H990 0.961 . S
C975 H991 0.961 . S
C976 C977 1.370 . S
C976 C978 1.363 . S
C976 H992 0.931 . S
C977 C976 1.370 . S
C977 C981 1.408 . S
C978 C976 1.363 . S
C978 C979 1.370 . S
C978 C982 1.524 . S
C979 C971 1.503 . S
C979 C978 1.370 . S
C979 C980 1.403 . S
C980 C979 1.403 . S
C980 C981 1.404 . S
C980 C983 1.539 . S
C981 C977 1.408 . S
C981 C980 1.404 . S
C981 H993 0.930 . S
C982 C978 1.524 . S
C982 H994 0.956 . S
C982 H995 0.961 . S
C982 H996 0.961 . S
C983 C980 1.539 . S
C983 H997 0.958 . S
C983 H998 0.961 . S
C983 H999 0.960 . S
H984 C968 0.931 . S
H985 C973 0.929 . S
H986 C974 0.960 . S
H987 C974 0.962 . S
H988 C974 0.960 . S
H989 C975 0.961 . S
H990 C975 0.961 . S
H991 C975 0.961 . S
H992 C976 0.931 . S
H993 C981 0.930 . S
H994 C982 0.956 . S
H995 C982 0.961 . S
H996 C982 0.961 . S
H997 C983 0.958 . S
H998 C983 0.961 . S
H999 C983 0.960 . S
C1000 C1001 1.391 . S
C1000 C1002 1.394 . S
C1000 H1016 0.931 . S
C1001 C1000 1.391 . S
C1001 C1005 1.383 . S
C1002 C1000 1.394 . S
C1002 C1003 1.369 . S
C1002 C1006 1.531 . S
C1003 C1002 1.369 . S
C1003 C1004 1.410 . S
C1003 C1011 1.503 . S
C1004 C1003 1.410 . S
C1004 C1005 1.417 . S
C1004 C1007 1.511 . S
C1005 C1001 1.383 . S
C1005 C1004 1.417 . S
C1005 H1017 0.897 1_545 S
C1006 C1002 1.531 . S
C1006 H1018 0.960 . S
C1006 H1019 0.962 . S
C1006 H1020 0.960 . S
C1007 C1004 1.511 . S
C1007 H1021 0.961 . S
C1007 H1022 0.961 . S
C1007 H1023 0.961 . S
C1008 C1009 1.370 . S
C1008 C1010 1.363 . S
C1008 H1024 0.931 . S
C1009 C1008 1.370 . S
C1009 C1013 1.408 . S
C1010 C1008 1.363 . S
C1010 C1011 1.370 . S
C1010 C1014 1.524 . S
C1011 C1003 1.503 . S
C1011 C1010 1.370 . S
C1011 C1012 1.403 . S
C1012 C1011 1.403 . S
C1012 C1013 1.404 . S
C1012 C1015 1.539 . S
C1013 C1009 1.408 . S
C1013 C1012 1.404 . S
C1013 H1025 0.930 . S
C1014 C1010 1.524 . S
C1014 H1026 0.956 . S
C1014 H1027 0.961 . S
C1014 H1028 0.961 . S
C1015 C1012 1.539 . S
C1015 H1029 0.958 . S
C1015 H1030 0.961 . S
C1015 H1031 0.960 . S
H1016 C1000 0.931 . S
H1017 C1005 0.897 1_565 S
H1018 C1006 0.960 . S
H1019 C1006 0.962 . S
H1020 C1006 0.960 . S
H1021 C1007 0.961 . S
H1022 C1007 0.961 . S
H1023 C1007 0.961 . S
H1024 C1008 0.931 . S
H1025 C1013 0.930 . S
H1026 C1014 0.956 . S
H1027 C1014 0.961 . S
H1028 C1014 0.961 . S
H1029 C1015 0.958 . S
H1030 C1015 0.961 . S
H1031 C1015 0.960 . S
C1032 C1033 1.391 . S
C1032 C1034 1.394 . S
C1032 H1048 0.931 . S
C1033 C1032 1.391 . S
C1033 C1037 1.376 . S
C1034 C1032 1.394 . S
C1034 C1035 1.369 . S
C1034 C1038 1.531 . S
C1035 C1034 1.369 . S
C1035 C1036 1.410 . S
C1035 C1043 1.503 . S
C1036 C1035 1.410 . S
C1036 C1037 1.392 . S
C1036 C1039 1.511 . S
C1037 C1033 1.376 . S
C1037 C1036 1.392 . S
C1037 H1049 0.929 . S
C1038 C1034 1.531 . S
C1038 H1050 0.960 . S
C1038 H1051 0.962 . S
C1038 H1052 0.960 . S
C1039 C1036 1.511 . S
C1039 H1053 0.961 . S
C1039 H1054 0.961 . S
C1039 H1055 0.961 . S
C1040 C1041 1.370 . S
C1040 C1042 1.363 . S
C1040 H1056 0.931 . S
C1041 C1040 1.370 . S
C1041 C1045 1.408 . S
C1042 C1040 1.363 . S
C1042 C1043 1.370 . S
C1042 C1046 1.524 . S
C1043 C1035 1.503 . S
C1043 C1042 1.370 . S
C1043 C1044 1.403 . S
C1044 C1043 1.403 . S
C1044 C1045 1.404 . S
C1044 C1047 1.539 . S
C1045 C1041 1.408 . S
C1045 C1044 1.404 . S
C1045 H1057 0.930 . S
C1046 C1042 1.524 . S
C1046 H1058 0.956 . S
C1046 H1059 0.961 . S
C1046 H1060 0.961 . S
C1047 C1044 1.539 . S
C1047 H1061 0.958 . S
C1047 H1062 0.961 . S
C1047 H1063 0.960 . S
H1048 C1032 0.931 . S
H1049 C1037 0.929 . S
H1050 C1038 0.960 . S
H1051 C1038 0.962 . S
H1052 C1038 0.960 . S
H1053 C1039 0.961 . S
H1054 C1039 0.961 . S
H1055 C1039 0.961 . S
H1056 C1040 0.931 . S
H1057 C1045 0.930 . S
H1058 C1046 0.956 . S
H1059 C1046 0.961 . S
H1060 C1046 0.961 . S
H1061 C1047 0.958 . S
H1062 C1047 0.961 . S
H1063 C1047 0.960 . S
C1064 C1065 1.391 . S
C1064 C1066 1.394 . S
C1064 H1080 0.931 . S
C1065 C1064 1.391 . S
C1065 C1069 1.376 . S
C1066 C1064 1.394 . S
C1066 C1067 1.369 . S
C1066 C1070 1.531 . S
C1067 C1066 1.369 . S
C1067 C1068 1.410 . S
C1067 C1075 1.503 . S
C1068 C1067 1.410 . S
C1068 C1069 1.392 . S
C1068 C1071 1.511 . S
C1069 C1065 1.376 . S
C1069 C1068 1.392 . S
C1069 H1081 0.929 . S
C1070 C1066 1.531 . S
C1070 H1082 0.960 . S
C1070 H1083 0.962 . S
C1070 H1084 0.960 . S
C1071 C1068 1.511 . S
C1071 H1085 0.961 . S
C1071 H1086 0.961 . S
C1071 H1087 0.961 . S
C1072 C1073 1.370 . S
C1072 C1074 1.363 . S
C1072 H1088 0.931 . S
C1073 C1072 1.370 . S
C1073 C1077 1.408 . S
C1074 C1072 1.363 . S
C1074 C1075 1.370 . S
C1074 C1078 1.524 . S
C1075 C1067 1.503 . S
C1075 C1074 1.370 . S
C1075 C1076 1.403 . S
C1076 C1075 1.403 . S
C1076 C1077 1.404 . S
C1076 C1079 1.539 . S
C1077 C1073 1.408 . S
C1077 C1076 1.404 . S
C1077 H1089 0.930 . S
C1078 C1074 1.524 . S
C1078 H1090 0.956 . S
C1078 H1091 0.961 . S
C1078 H1092 0.961 . S
C1079 C1076 1.539 . S
C1079 H1093 0.958 . S
C1079 H1094 0.961 . S
C1079 H1095 0.960 . S
H1080 C1064 0.931 . S
H1081 C1069 0.929 . S
H1082 C1070 0.960 . S
H1083 C1070 0.962 . S
H1084 C1070 0.960 . S
H1085 C1071 0.961 . S
H1086 C1071 0.961 . S
H1087 C1071 0.961 . S
H1088 C1072 0.931 . S
H1089 C1077 0.930 . S
H1090 C1078 0.956 . S
H1091 C1078 0.961 . S
H1092 C1078 0.961 . S
H1093 C1079 0.958 . S
H1094 C1079 0.961 . S
H1095 C1079 0.960 . S
C1096 C1097 1.391 . S
C1096 C1098 1.394 . S
C1096 H1112 0.931 . S
C1097 C1096 1.391 . S
C1097 C1101 1.376 . S
C1098 C1096 1.394 . S
C1098 C1099 1.369 . S
C1098 C1102 1.531 . S
C1099 C1098 1.369 . S
C1099 C1100 1.410 . S
C1099 C1107 1.503 . S
C1100 C1099 1.410 . S
C1100 C1101 1.392 . S
C1100 C1103 1.511 . S
C1101 C1097 1.376 . S
C1101 C1100 1.392 . S
C1101 H1113 0.929 . S
C1102 C1098 1.531 . S
C1102 H1114 0.960 . S
C1102 H1115 0.962 . S
C1102 H1116 0.960 . S
C1103 C1100 1.511 . S
C1103 H1117 0.961 . S
C1103 H1118 0.961 . S
C1103 H1119 0.961 . S
C1104 C1105 1.370 . S
C1104 C1106 1.363 . S
C1104 H1120 0.931 . S
C1105 C1104 1.370 . S
C1105 C1109 1.408 . S
C1106 C1104 1.363 . S
C1106 C1107 1.370 . S
C1106 C1110 1.524 . S
C1107 C1099 1.503 . S
C1107 C1106 1.370 . S
C1107 C1108 1.403 . S
C1108 C1107 1.403 . S
C1108 C1109 1.404 . S
C1108 C1111 1.539 . S
C1109 C1105 1.408 . S
C1109 C1108 1.404 . S
C1109 H1121 0.930 . S
C1110 C1106 1.524 . S
C1110 H1122 0.956 . S
C1110 H1123 0.961 . S
C1110 H1124 0.961 . S
C1111 C1108 1.539 . S
C1111 H1125 0.958 . S
C1111 H1126 0.961 . S
C1111 H1127 0.960 . S
H1112 C1096 0.931 . S
H1113 C1101 0.929 . S
H1114 C1102 0.960 . S
H1115 C1102 0.962 . S
H1116 C1102 0.960 . S
H1117 C1103 0.961 . S
H1118 C1103 0.961 . S
H1119 C1103 0.961 . S
H1120 C1104 0.931 . S
H1121 C1109 0.930 . S
H1122 C1110 0.956 . S
H1123 C1110 0.961 . S
H1124 C1110 0.961 . S
H1125 C1111 0.958 . S
H1126 C1111 0.961 . S
H1127 C1111 0.960 . S
C1128 C1129 1.391 . S
C1128 C1130 1.394 . S
C1128 H1144 0.931 . S
C1129 C1128 1.391 . S
C1129 C1133 1.376 . S
C1130 C1128 1.394 . S
C1130 C1131 1.369 . S
C1130 C1134 1.531 . S
C1131 C1130 1.369 . S
C1131 C1132 1.410 . S
C1131 C1139 1.503 . S
C1132 C1131 1.410 . S
C1132 C1133 1.392 . S
C1132 C1135 1.511 . S
C1133 C1129 1.376 . S
C1133 C1132 1.392 . S
C1133 H1145 0.929 . S
C1134 C1130 1.531 . S
C1134 H1146 0.960 . S
C1134 H1147 0.962 . S
C1134 H1148 0.960 . S
C1135 C1132 1.511 . S
C1135 H1149 0.961 . S
C1135 H1150 0.961 . S
C1135 H1151 0.961 . S
C1136 C1137 1.370 . S
C1136 C1138 1.363 . S
C1136 H1152 0.931 . S
C1137 C1136 1.370 . S
C1137 C1141 1.408 . S
C1138 C1136 1.363 . S
C1138 C1139 1.370 . S
C1138 C1142 1.524 . S
C1139 C1131 1.503 . S
C1139 C1138 1.370 . S
C1139 C1140 1.403 . S
C1140 C1139 1.403 . S
C1140 C1141 1.404 . S
C1140 C1143 1.539 . S
C1141 C1137 1.408 . S
C1141 C1140 1.404 . S
C1141 H1153 0.930 . S
C1142 C1138 1.524 . S
C1142 H1154 0.956 . S
C1142 H1155 0.961 . S
C1142 H1156 0.961 . S
C1143 C1140 1.539 . S
C1143 H1157 0.958 . S
C1143 H1158 0.961 . S
C1143 H1159 0.960 . S
H1144 C1128 0.931 . S
H1145 C1133 0.929 . S
H1146 C1134 0.960 . S
H1147 C1134 0.962 . S
H1148 C1134 0.960 . S
H1149 C1135 0.961 . S
H1150 C1135 0.961 . S
H1151 C1135 0.961 . S
H1152 C1136 0.931 . S
H1153 C1141 0.930 . S
H1154 C1142 0.956 . S
H1155 C1142 0.961 . S
H1156 C1142 0.961 . S
H1157 C1143 0.958 . S
H1158 C1143 0.961 . S
H1159 C1143 0.960 . S
C1160 C1161 1.391 . S
C1160 C1162 1.394 . S
C1160 H1176 0.931 . S
C1161 C1160 1.391 . S
C1161 C1165 1.376 . S
C1162 C1160 1.394 . S
C1162 C1163 1.369 . S
C1162 C1166 1.531 . S
C1163 C1162 1.369 . S
C1163 C1164 1.410 . S
C1163 C1171 1.503 . S
C1164 C1163 1.410 . S
C1164 C1165 1.392 . S
C1164 C1167 1.511 . S
C1165 C1161 1.376 . S
C1165 C1164 1.392 . S
C1165 H1177 0.929 . S
C1166 C1162 1.531 . S
C1166 H1178 0.960 . S
C1166 H1179 0.962 . S
C1166 H1180 0.960 . S
C1167 C1164 1.511 . S
C1167 H1181 0.961 1_545 S
C1167 H1182 0.954 1_545 S
C1167 H1183 0.961 . S
C1168 C1169 1.370 . S
C1168 C1170 1.363 . S
C1168 H1184 0.931 1_545 S
C1169 C1168 1.370 . S
C1169 C1173 1.408 . S
C1170 C1168 1.363 . S
C1170 C1171 1.370 . S
C1170 C1174 1.524 1_545 S
C1171 C1163 1.503 . S
C1171 C1170 1.370 . S
C1171 C1172 1.403 . S
C1172 C1171 1.403 . S
C1172 C1173 1.404 . S
C1172 C1175 1.539 . S
C1173 C1169 1.408 . S
C1173 C1172 1.404 . S
C1173 H1185 0.930 . S
C1174 C1170 1.524 1_565 S
C1174 H1186 0.963 . S
C1174 H1187 0.961 . S
C1174 H1188 0.961 . S
C1175 C1172 1.539 . S
C1175 H1189 0.958 . S
C1175 H1190 0.961 . S
C1175 H1191 0.960 . S
H1176 C1160 0.931 . S
H1177 C1165 0.929 . S
H1178 C1166 0.960 . S
H1179 C1166 0.962 . S
H1180 C1166 0.960 . S
H1181 C1167 0.961 1_565 S
H1182 C1167 0.954 1_565 S
H1183 C1167 0.961 . S
H1184 C1168 0.931 1_565 S
H1185 C1173 0.930 . S
H1186 C1174 0.963 . S
H1187 C1174 0.961 . S
H1188 C1174 0.961 . S
H1189 C1175 0.958 . S
H1190 C1175 0.961 . S
H1191 C1175 0.960 . S
C1192 C1193 1.391 . S
C1192 C1194 1.394 . S
C1192 H1208 0.931 . S
C1193 C1192 1.391 . S
C1193 C1197 1.376 . S
C1194 C1192 1.394 . S
C1194 C1195 1.369 . S
C1194 C1198 1.531 . S
C1195 C1194 1.369 . S
C1195 C1196 1.410 . S
C1195 C1203 1.503 . S
C1196 C1195 1.410 . S
C1196 C1197 1.392 . S
C1196 C1199 1.511 . S
C1197 C1193 1.376 . S
C1197 C1196 1.392 . S
C1197 H1209 0.929 . S
C1198 C1194 1.531 . S
C1198 H1210 0.960 . S
C1198 H1211 0.962 . S
C1198 H1212 0.960 . S
C1199 C1196 1.511 . S
C1199 H1213 0.961 . S
C1199 H1214 0.961 . S
C1199 H1215 0.961 . S
C1200 C1201 1.370 . S
C1200 C1202 1.363 . S
C1200 H1216 0.931 . S
C1201 C1200 1.370 . S
C1201 C1205 1.408 . S
C1202 C1200 1.363 . S
C1202 C1203 1.370 . S
C1202 C1206 1.524 . S
C1203 C1195 1.503 . S
C1203 C1202 1.370 . S
C1203 C1204 1.403 . S
C1204 C1203 1.403 . S
C1204 C1205 1.404 . S
C1204 C1207 1.539 . S
C1205 C1201 1.408 . S
C1205 C1204 1.404 . S
C1205 H1217 0.930 . S
C1206 C1202 1.524 . S
C1206 H1218 0.956 . S
C1206 H1219 0.961 . S
C1206 H1220 0.961 . S
C1207 C1204 1.539 . S
C1207 H1221 0.958 . S
C1207 H1222 0.961 . S
C1207 H1223 0.960 . S
H1208 C1192 0.931 . S
H1209 C1197 0.929 . S
H1210 C1198 0.960 . S
H1211 C1198 0.962 . S
H1212 C1198 0.960 . S
H1213 C1199 0.961 . S
H1214 C1199 0.961 . S
H1215 C1199 0.961 . S
H1216 C1200 0.931 . S
H1217 C1205 0.930 . S
H1218 C1206 0.956 . S
H1219 C1206 0.961 . S
H1220 C1206 0.961 . S
H1221 C1207 0.958 . S
H1222 C1207 0.961 . S
H1223 C1207 0.960 . S
C1224 C1225 1.391 . S
C1224 C1226 1.394 . S
C1224 H1240 0.931 . S
C1225 C1224 1.391 . S
C1225 C1229 1.376 . S
C1226 C1224 1.394 . S
C1226 C1227 1.369 . S
C1226 C1230 1.531 . S
C1227 C1226 1.369 . S
C1227 C1228 1.410 . S
C1227 C1235 1.503 . S
C1228 C1227 1.410 . S
C1228 C1229 1.392 . S
C1228 C1231 1.511 . S
C1229 C1225 1.376 . S
C1229 C1228 1.392 . S
C1229 H1241 0.929 . S
C1230 C1226 1.531 . S
C1230 H1242 0.960 . S
C1230 H1243 0.962 . S
C1230 H1244 0.960 . S
C1231 C1228 1.511 . S
C1231 H1245 0.961 . S
C1231 H1246 0.961 . S
C1231 H1247 0.961 . S
C1232 C1233 1.370 . S
C1232 C1234 1.363 . S
C1232 H1248 0.931 . S
C1233 C1232 1.370 . S
C1233 C1237 1.408 . S
C1234 C1232 1.363 . S
C1234 C1235 1.370 . S
C1234 C1238 1.524 . S
C1235 C1227 1.503 . S
C1235 C1234 1.370 . S
C1235 C1236 1.403 . S
C1236 C1235 1.403 . S
C1236 C1237 1.404 . S
C1236 C1239 1.539 . S
C1237 C1233 1.408 . S
C1237 C1236 1.404 . S
C1237 H1249 0.930 . S
C1238 C1234 1.524 . S
C1238 H1250 0.956 . S
C1238 H1251 0.961 . S
C1238 H1252 0.961 . S
C1239 C1236 1.539 . S
C1239 H1253 0.958 . S
C1239 H1254 0.961 . S
C1239 H1255 0.960 . S
H1240 C1224 0.931 . S
H1241 C1229 0.929 . S
H1242 C1230 0.960 . S
H1243 C1230 0.962 . S
H1244 C1230 0.960 . S
H1245 C1231 0.961 . S
H1246 C1231 0.961 . S
H1247 C1231 0.961 . S
H1248 C1232 0.931 . S
H1249 C1237 0.930 . S
H1250 C1238 0.956 . S
H1251 C1238 0.961 . S
H1252 C1238 0.961 . S
H1253 C1239 0.958 . S
H1254 C1239 0.961 . S
H1255 C1239 0.960 . S
C1256 C1257 1.391 . S
C1256 C1258 1.394 . S
C1256 H1272 0.931 . S
C1257 C1256 1.391 . S
C1257 C1261 1.376 . S
C1258 C1256 1.394 . S
C1258 C1259 1.369 . S
C1258 C1262 1.531 . S
C1259 C1258 1.369 . S
C1259 C1260 1.410 . S
C1259 C1267 1.503 . S
C1260 C1259 1.410 . S
C1260 C1261 1.392 . S
C1260 C1263 1.511 . S
C1261 C1257 1.376 . S
C1261 C1260 1.392 . S
C1261 H1273 0.929 . S
C1262 C1258 1.531 . S
C1262 H1274 0.960 . S
C1262 H1275 0.962 . S
C1262 H1276 0.960 . S
C1263 C1260 1.511 . S
C1263 H1277 0.961 . S
C1263 H1278 0.961 . S
C1263 H1279 0.961 . S
C1264 C1265 1.370 . S
C1264 C1266 1.363 . S
C1264 H1280 0.931 . S
C1265 C1264 1.370 . S
C1265 C1269 1.408 . S
C1266 C1264 1.363 . S
C1266 C1267 1.370 . S
C1266 C1270 1.524 . S
C1267 C1259 1.503 . S
C1267 C1266 1.370 . S
C1267 C1268 1.403 . S
C1268 C1267 1.403 . S
C1268 C1269 1.404 . S
C1268 C1271 1.539 . S
C1269 C1265 1.408 . S
C1269 C1268 1.404 . S
C1269 H1281 0.930 . S
C1270 C1266 1.524 . S
C1270 H1282 0.956 . S
C1270 H1283 0.961 . S
C1270 H1284 0.961 . S
C1271 C1268 1.539 . S
C1271 H1285 0.958 . S
C1271 H1286 0.961 . S
C1271 H1287 0.960 . S
H1272 C1256 0.931 . S
H1273 C1261 0.929 . S
H1274 C1262 0.960 . S
H1275 C1262 0.962 . S
H1276 C1262 0.960 . S
H1277 C1263 0.961 . S
H1278 C1263 0.961 . S
H1279 C1263 0.961 . S
H1280 C1264 0.931 . S
H1281 C1269 0.930 . S
H1282 C1270 0.956 . S
H1283 C1270 0.961 . S
H1284 C1270 0.961 . S
H1285 C1271 0.958 . S
H1286 C1271 0.961 . S
H1287 C1271 0.960 . S
C1288 C1289 1.391 . S
C1288 C1290 1.394 . S
C1288 H1304 0.931 . S
C1289 C1288 1.391 . S
C1289 C1293 1.376 . S
C1290 C1288 1.394 . S
C1290 C1291 1.369 . S
C1290 C1294 1.531 . S
C1291 C1290 1.369 . S
C1291 C1292 1.410 1_455 S
C1291 C1299 1.523 . S
C1292 C1291 1.410 1_655 S
C1292 C1293 1.392 1_655 S
C1292 C1295 1.511 . S
C1293 C1289 1.376 . S
C1293 C1292 1.392 1_455 S
C1293 H1305 0.929 . S
C1294 C1290 1.531 . S
C1294 H1306 0.960 . S
C1294 H1307 0.962 . S
C1294 H1308 0.960 . S
C1295 C1292 1.511 . S
C1295 H1309 0.961 . S
C1295 H1310 0.961 . S
C1295 H1311 0.961 . S
C1296 C1297 1.370 . S
C1296 C1298 1.363 1_655 S
C1296 H1312 0.931 1_545 S
C1297 C1296 1.370 . S
C1297 C1301 1.408 . S
C1298 C1296 1.363 1_455 S
C1298 C1299 1.375 . S
C1298 C1302 1.524 1_545 S
C1299 C1291 1.523 . S
C1299 C1298 1.375 . S
C1299 C1300 1.380 1_455 S
C1300 C1299 1.380 1_655 S
C1300 C1301 1.404 . S
C1300 C1303 1.539 . S
C1301 C1297 1.408 . S
C1301 C1300 1.404 . S
C1301 H1313 0.930 . S
C1302 C1298 1.524 1_565 S
C1302 H1314 0.956 . S
C1302 H1315 0.961 . S
C1302 H1316 0.961 . S
C1303 C1300 1.539 . S
C1303 H1317 0.958 . S
C1303 H1318 0.961 . S
C1303 H1319 0.960 . S
H1304 C1288 0.931 . S
H1305 C1293 0.929 . S
H1306 C1294 0.960 . S
H1307 C1294 0.962 . S
H1308 C1294 0.960 . S
H1309 C1295 0.961 . S
H1310 C1295 0.961 . S
H1311 C1295 0.961 . S
H1312 C1296 0.931 1_565 S
H1313 C1301 0.930 . S
H1314 C1302 0.956 . S
H1315 C1302 0.961 . S
H1316 C1302 0.961 . S
H1317 C1303 0.958 . S
H1318 C1303 0.961 . S
H1319 C1303 0.960 . S
C1320 C1321 1.391 . S
C1320 C1322 1.394 . S
C1320 H1336 0.931 . S
C1321 C1320 1.391 . S
C1321 C1325 1.376 . S
C1322 C1320 1.394 . S
C1322 C1323 1.369 . S
C1322 C1326 1.531 . S
C1323 C1322 1.369 . S
C1323 C1324 1.410 . S
C1323 C1331 1.503 . S
C1324 C1323 1.410 . S
C1324 C1325 1.392 . S
C1324 C1327 1.511 . S
C1325 C1321 1.376 . S
C1325 C1324 1.392 . S
C1325 H1337 0.929 . S
C1326 C1322 1.531 . S
C1326 H1338 0.960 . S
C1326 H1339 0.962 . S
C1326 H1340 0.960 . S
C1327 C1324 1.511 . S
C1327 H1341 0.961 . S
C1327 H1342 0.961 . S
C1327 H1343 0.961 . S
C1328 C1329 1.370 . S
C1328 C1330 1.363 . S
C1328 H1344 0.931 . S
C1329 C1328 1.370 . S
C1329 C1333 1.408 . S
C1330 C1328 1.363 . S
C1330 C1331 1.370 . S
C1330 C1334 1.524 . S
C1331 C1323 1.503 . S
C1331 C1330 1.370 . S
C1331 C1332 1.403 . S
C1332 C1331 1.403 . S
C1332 C1333 1.404 . S
C1332 C1335 1.539 . S
C1333 C1329 1.408 . S
C1333 C1332 1.404 . S
C1333 H1345 0.930 . S
C1334 C1330 1.524 . S
C1334 H1346 0.956 . S
C1334 H1347 0.961 . S
C1334 H1348 0.961 . S
C1335 C1332 1.539 . S
C1335 H1349 0.958 . S
C1335 H1350 0.961 . S
C1335 H1351 0.960 . S
H1336 C1320 0.931 . S
H1337 C1325 0.929 . S
H1338 C1326 0.960 . S
H1339 C1326 0.962 . S
H1340 C1326 0.960 . S
H1341 C1327 0.961 . S
H1342 C1327 0.961 . S
H1343 C1327 0.961 . S
H1344 C1328 0.931 . S
H1345 C1333 0.930 . S
H1346 C1334 0.956 . S
H1347 C1334 0.961 . S
H1348 C1334 0.961 . S
H1349 C1335 0.958 . S
H1350 C1335 0.961 . S
H1351 C1335 0.960 . S
C1352 C1353 1.391 1_455 S
C1352 C1354 1.394 . S
C1352 H1368 0.931 . S
C1353 C1352 1.391 1_655 S
C1353 C1357 1.376 . S
C1354 C1352 1.394 . S
C1354 C1355 1.369 . S
C1354 C1358 1.531 . S
C1355 C1354 1.369 . S
C1355 C1356 1.410 . S
C1355 C1363 1.503 . S
C1356 C1355 1.410 . S
C1356 C1357 1.392 1_455 S
C1356 C1359 1.511 . S
C1357 C1353 1.376 . S
C1357 C1356 1.392 1_655 S
C1357 H1369 0.929 . S
C1358 C1354 1.531 . S
C1358 H1370 0.960 . S
C1358 H1371 0.962 . S
C1358 H1372 0.960 . S
C1359 C1356 1.511 . S
C1359 H1373 0.961 . S
C1359 H1374 0.961 . S
C1359 H1375 0.961 1_455 S
C1360 C1361 1.370 . S
C1360 C1362 1.363 . S
C1360 H1376 0.931 . S
C1361 C1360 1.370 . S
C1361 C1365 1.408 . S
C1362 C1360 1.363 . S
C1362 C1363 1.370 . S
C1362 C1366 1.524 . S
C1363 C1355 1.503 . S
C1363 C1362 1.370 . S
C1363 C1364 1.403 . S
C1364 C1363 1.403 . S
C1364 C1365 1.404 . S
C1364 C1367 1.539 . S
C1365 C1361 1.408 . S
C1365 C1364 1.404 . S
C1365 H1377 0.930 . S
C1366 C1362 1.524 . S
C1366 H1378 0.956 . S
C1366 H1379 0.961 . S
C1366 H1380 0.961 . S
C1367 C1364 1.539 . S
C1367 H1381 0.958 . S
C1367 H1382 0.961 . S
C1367 H1383 0.965 . S
H1368 C1352 0.931 . S
H1369 C1357 0.929 . S
H1370 C1358 0.960 . S
H1371 C1358 0.962 . S
H1372 C1358 0.960 . S
H1373 C1359 0.961 . S
H1374 C1359 0.961 . S
H1375 C1359 0.961 1_655 S
H1376 C1360 0.931 . S
H1377 C1365 0.930 . S
H1378 C1366 0.956 . S
H1379 C1366 0.961 . S
H1380 C1366 0.961 . S
H1381 C1367 0.958 . S
H1382 C1367 0.961 . S
H1383 C1367 0.965 . S
C1384 C1385 1.391 . S
C1384 C1386 1.394 . S
C1384 H1400 0.931 . S
C1385 C1384 1.391 . S
C1385 C1389 1.376 . S
C1386 C1384 1.394 . S
C1386 C1387 1.369 . S
C1386 C1390 1.531 . S
C1387 C1386 1.369 . S
C1387 C1388 1.410 . S
C1387 C1395 1.503 . S
C1388 C1387 1.410 . S
C1388 C1389 1.392 . S
C1388 C1391 1.511 . S
C1389 C1385 1.376 . S
C1389 C1388 1.392 . S
C1389 H1401 0.929 . S
C1390 C1386 1.531 . S
C1390 H1402 0.960 . S
C1390 H1403 0.962 . S
C1390 H1404 0.960 . S
C1391 C1388 1.511 . S
C1391 H1405 0.961 . S
C1391 H1406 0.961 . S
C1391 H1407 0.961 . S
C1392 C1393 1.370 . S
C1392 C1394 1.363 . S
C1392 H1408 0.931 . S
C1393 C1392 1.370 . S
C1393 C1397 1.408 . S
C1394 C1392 1.363 . S
C1394 C1395 1.370 . S
C1394 C1398 1.524 . S
C1395 C1387 1.503 . S
C1395 C1394 1.370 . S
C1395 C1396 1.403 . S
C1396 C1395 1.403 . S
C1396 C1397 1.404 . S
C1396 C1399 1.539 . S
C1397 C1393 1.408 . S
C1397 C1396 1.404 . S
C1397 H1409 0.930 . S
C1398 C1394 1.524 . S
C1398 H1410 0.956 . S
C1398 H1411 0.961 . S
C1398 H1412 0.961 . S
C1399 C1396 1.539 . S
C1399 H1413 0.958 . S
C1399 H1414 0.961 . S
C1399 H1415 0.960 . S
H1400 C1384 0.931 . S
H1401 C1389 0.929 . S
H1402 C1390 0.960 . S
H1403 C1390 0.962 . S
H1404 C1390 0.960 . S
H1405 C1391 0.961 . S
H1406 C1391 0.961 . S
H1407 C1391 0.961 . S
H1408 C1392 0.931 . S
H1409 C1397 0.930 . S
H1410 C1398 0.956 . S
H1411 C1398 0.961 . S
H1412 C1398 0.961 . S
H1413 C1399 0.958 . S
H1414 C1399 0.961 . S
H1415 C1399 0.960 . S
C1416 C1417 1.391 . S
C1416 C1418 1.394 1_554 S
C1416 H1432 0.931 1_655 S
C1417 C1416 1.391 . S
C1417 C1421 1.376 1_554 S
C1418 C1416 1.394 1_556 S
C1418 C1419 1.369 . S
C1418 C1422 1.531 1_655 S
C1419 C1418 1.369 . S
C1419 C1420 1.410 . S
C1419 C1427 1.503 . S
C1420 C1419 1.410 . S
C1420 C1421 1.392 . S
C1420 C1423 1.511 . S
C1421 C1417 1.376 1_556 S
C1421 C1420 1.392 . S
C1421 H1433 0.929 . S
C1422 C1418 1.531 1_455 S
C1422 H1434 0.960 . S
C1422 H1435 0.962 . S
C1422 H1436 0.960 1_556 S
C1423 C1420 1.511 . S
C1423 H1437 0.961 . S
C1423 H1438 0.961 . S
C1423 H1439 0.961 . S
C1424 C1425 1.368 1_455 S
C1424 C1426 1.359 1_455 S
C1424 H1440 0.938 . S
C1425 C1424 1.368 1_655 S
C1425 C1429 1.408 . S
C1426 C1424 1.359 1_655 S
C1426 C1427 1.370 . S
C1426 C1430 1.524 1_655 S
C1427 C1419 1.503 . S
C1427 C1426 1.370 . S
C1427 C1428 1.403 . S
C1428 C1427 1.403 . S
C1428 C1429 1.404 . S
C1428 C1431 1.539 . S
C1429 C1425 1.408 . S
C1429 C1428 1.404 . S
C1429 H1441 0.930 . S
C1430 C1426 1.524 1_455 S
C1430 H1442 0.956 . S
C1430 H1443 0.961 1_455 S
C1430 H1444 0.961 . S
C1431 C1428 1.539 . S
C1431 H1445 0.958 . S
C1431 H1446 0.961 . S
C1431 H1447 0.960 . S
H1432 C1416 0.931 1_455 S
H1433 C1421 0.929 . S
H1434 C1422 0.960 . S
H1435 C1422 0.962 . S
H1436 C1422 0.960 1_554 S
H1437 C1423 0.961 . S
H1438 C1423 0.961 . S
H1439 C1423 0.961 . S
H1440 C1424 0.938 . S
H1441 C1429 0.930 . S
H1442 C1430 0.956 . S
H1443 C1430 0.961 1_655 S
H1444 C1430 0.961 . S
H1445 C1431 0.958 . S
H1446 C1431 0.961 . S
H1447 C1431 0.960 . S
C1448 C1449 1.391 . S
C1448 C1450 1.394 . S
C1448 H1464 0.931 . S
C1449 C1448 1.391 . S
C1449 C1453 1.376 . S
C1450 C1448 1.394 . S
C1450 C1451 1.369 . S
C1450 C1454 1.531 . S
C1451 C1450 1.369 . S
C1451 C1452 1.410 . S
C1451 C1459 1.503 . S
C1452 C1451 1.410 . S
C1452 C1453 1.392 . S
C1452 C1455 1.511 . S
C1453 C1449 1.376 . S
C1453 C1452 1.392 . S
C1453 H1465 0.929 . S
C1454 C1450 1.531 . S
C1454 H1466 0.960 . S
C1454 H1467 0.962 . S
C1454 H1468 0.960 . S
C1455 C1452 1.511 . S
C1455 H1469 0.961 . S
C1455 H1470 0.961 . S
C1455 H1471 0.961 . S
C1456 C1457 1.370 . S
C1456 C1458 1.363 . S
C1456 H1472 0.931 . S
C1457 C1456 1.370 . S
C1457 C1461 1.408 . S
C1458 C1456 1.363 . S
C1458 C1459 1.370 . S
C1458 C1462 1.524 . S
C1459 C1451 1.503 . S
C1459 C1458 1.370 . S
C1459 C1460 1.403 . S
C1460 C1459 1.403 . S
C1460 C1461 1.404 . S
C1460 C1463 1.539 . S
C1461 C1457 1.408 . S
C1461 C1460 1.404 . S
C1461 H1473 0.930 . S
C1462 C1458 1.524 . S
C1462 H1474 0.956 . S
C1462 H1475 0.961 . S
C1462 H1476 0.961 . S
C1463 C1460 1.539 . S
C1463 H1477 0.958 . S
C1463 H1478 0.961 . S
C1463 H1479 0.960 . S
H1464 C1448 0.931 . S
H1465 C1453 0.929 . S
H1466 C1454 0.960 . S
H1467 C1454 0.962 . S
H1468 C1454 0.960 . S
H1469 C1455 0.961 . S
H1470 C1455 0.961 . S
H1471 C1455 0.961 . S
H1472 C1456 0.931 . S
H1473 C1461 0.930 . S
H1474 C1462 0.956 . S
H1475 C1462 0.961 . S
H1476 C1462 0.961 . S
H1477 C1463 0.958 . S
H1478 C1463 0.961 . S
H1479 C1463 0.960 . S
C1480 C1481 1.391 . S
C1480 C1482 1.394 . S
C1480 H1496 0.931 . S
C1481 C1480 1.391 . S
C1481 C1485 1.376 . S
C1482 C1480 1.394 . S
C1482 C1483 1.369 . S
C1482 C1486 1.531 . S
C1483 C1482 1.369 . S
C1483 C1484 1.410 . S
C1483 C1491 1.503 . S
C1484 C1483 1.410 . S
C1484 C1485 1.392 . S
C1484 C1487 1.511 . S
C1485 C1481 1.376 . S
C1485 C1484 1.392 . S
C1485 H1497 0.929 1_556 S
C1486 C1482 1.531 . S
C1486 H1498 0.960 . S
C1486 H1499 0.962 . S
C1486 H1500 0.960 . S
C1487 C1484 1.511 . S
C1487 H1501 0.961 1_556 S
C1487 H1502 0.961 . S
C1487 H1503 0.967 . S
C1488 C1489 1.370 . S
C1488 C1490 1.363 . S
C1488 H1504 0.931 . S
C1489 C1488 1.370 . S
C1489 C1493 1.408 . S
C1490 C1488 1.363 . S
C1490 C1491 1.370 . S
C1490 C1494 1.524 . S
C1491 C1483 1.503 . S
C1491 C1490 1.370 . S
C1491 C1492 1.403 . S
C1492 C1491 1.403 . S
C1492 C1493 1.404 . S
C1492 C1495 1.539 1_455 S
C1493 C1489 1.408 . S
C1493 C1492 1.404 . S
C1493 H1505 0.930 1_455 S
C1494 C1490 1.524 . S
C1494 H1506 0.956 . S
C1494 H1507 0.961 . S
C1494 H1508 0.961 . S
C1495 C1492 1.539 1_655 S
C1495 H1509 0.958 . S
C1495 H1510 0.961 . S
C1495 H1511 0.960 . S
H1496 C1480 0.931 . S
H1497 C1485 0.929 1_554 S
H1498 C1486 0.960 . S
H1499 C1486 0.962 . S
H1500 C1486 0.960 . S
H1501 C1487 0.961 1_554 S
H1502 C1487 0.961 . S
H1503 C1487 0.967 . S
H1504 C1488 0.931 . S
H1505 C1493 0.930 1_655 S
H1506 C1494 0.956 . S
H1507 C1494 0.961 . S
H1508 C1494 0.961 . S
H1509 C1495 0.958 . S
H1510 C1495 0.961 . S
H1511 C1495 0.960 . S
C1512 C1513 1.391 . S
C1512 C1514 1.394 . S
C1512 H1528 0.931 . S
C1513 C1512 1.391 . S
C1513 C1517 1.376 . S
C1514 C1512 1.394 . S
C1514 C1515 1.369 . S
C1514 C1518 1.531 . S
C1515 C1514 1.369 . S
C1515 C1516 1.410 . S
C1515 C1523 1.503 . S
C1516 C1515 1.410 . S
C1516 C1517 1.392 . S
C1516 C1519 1.511 . S
C1517 C1513 1.376 . S
C1517 C1516 1.392 . S
C1517 H1529 0.929 . S
C1518 C1514 1.531 . S
C1518 H1530 0.960 . S
C1518 H1531 0.962 . S
C1518 H1532 0.960 . S
C1519 C1516 1.511 . S
C1519 H1533 0.961 . S
C1519 H1534 0.961 . S
C1519 H1535 0.961 . S
C1520 C1521 1.370 . S
C1520 C1522 1.363 . S
C1520 H1536 0.931 . S
C1521 C1520 1.370 . S
C1521 C1525 1.408 . S
C1522 C1520 1.363 . S
C1522 C1523 1.370 . S
C1522 C1526 1.524 . S
C1523 C1515 1.503 . S
C1523 C1522 1.370 . S
C1523 C1524 1.403 . S
C1524 C1523 1.403 . S
C1524 C1525 1.404 . S
C1524 C1527 1.539 . S
C1525 C1521 1.408 . S
C1525 C1524 1.404 . S
C1525 H1537 0.930 . S
C1526 C1522 1.524 . S
C1526 H1538 0.956 . S
C1526 H1539 0.961 . S
C1526 H1540 0.961 . S
C1527 C1524 1.539 . S
C1527 H1541 0.958 . S
C1527 H1542 0.961 . S
C1527 H1543 0.960 . S
H1528 C1512 0.931 . S
H1529 C1517 0.929 . S
H1530 C1518 0.960 . S
H1531 C1518 0.962 . S
H1532 C1518 0.960 . S
H1533 C1519 0.961 . S
H1534 C1519 0.961 . S
H1535 C1519 0.961 . S
H1536 C1520 0.931 . S
H1537 C1525 0.930 . S
H1538 C1526 0.956 . S
H1539 C1526 0.961 . S
H1540 C1526 0.961 . S
H1541 C1527 0.958 . S
H1542 C1527 0.961 . S
H1543 C1527 0.960 . S
C1544 C1545 1.391 . S
C1544 C1546 1.394 . S
C1544 H1560 0.931 1_554 S
C1545 C1544 1.391 . S
C1545 C1549 1.376 . S
C1546 C1544 1.394 . S
C1546 C1547 1.369 . S
C1546 C1550 1.531 . S
C1547 C1546 1.369 . S
C1547 C1548 1.410 . S
C1547 C1555 1.503 . S
C1548 C1547 1.410 . S
C1548 C1549 1.392 . S
C1548 C1551 1.511 . S
C1549 C1545 1.376 . S
C1549 C1548 1.392 . S
C1549 H1561 0.929 . S
C1550 C1546 1.531 . S
C1550 H1562 0.960 . S
C1550 H1563 0.962 . S
C1550 H1564 0.960 1_554 S
C1551 C1548 1.511 . S
C1551 H1565 0.961 . S
C1551 H1566 0.961 . S
C1551 H1567 0.961 . S
C1552 C1553 1.370 . S
C1552 C1554 1.363 . S
C1552 H1568 0.931 . S
C1553 C1552 1.370 . S
C1553 C1557 1.408 . S
C1554 C1552 1.363 . S
C1554 C1555 1.370 . S
C1554 C1558 1.524 . S
C1555 C1547 1.503 . S
C1555 C1554 1.370 . S
C1555 C1556 1.403 . S
C1556 C1555 1.403 . S
C1556 C1557 1.404 . S
C1556 C1559 1.539 . S
C1557 C1553 1.408 . S
C1557 C1556 1.404 . S
C1557 H1569 0.930 . S
C1558 C1554 1.524 . S
C1558 H1570 0.956 . S
C1558 H1571 0.961 . S
C1558 H1572 0.961 . S
C1559 C1556 1.539 . S
C1559 H1573 0.958 . S
C1559 H1574 0.961 . S
C1559 H1575 0.960 . S
H1560 C1544 0.931 1_556 S
H1561 C1549 0.929 . S
H1562 C1550 0.960 . S
H1563 C1550 0.962 . S
H1564 C1550 0.960 1_556 S
H1565 C1551 0.961 . S
H1566 C1551 0.961 . S
H1567 C1551 0.961 . S
H1568 C1552 0.931 . S
H1569 C1557 0.930 . S
H1570 C1558 0.956 . S
H1571 C1558 0.961 . S
H1572 C1558 0.961 . S
H1573 C1559 0.958 . S
H1574 C1559 0.961 . S
H1575 C1559 0.960 . S
C1576 C1577 1.391 . S
C1576 C1578 1.394 . S
C1576 H1592 0.931 . S
C1577 C1576 1.391 . S
C1577 C1581 1.376 . S
C1578 C1576 1.394 . S
C1578 C1579 1.369 . S
C1578 C1582 1.531 . S
C1579 C1578 1.369 . S
C1579 C1580 1.410 . S
C1579 C1587 1.503 . S
C1580 C1579 1.410 . S
C1580 C1581 1.392 . S
C1580 C1583 1.511 . S
C1581 C1577 1.376 . S
C1581 C1580 1.392 . S
C1581 H1593 0.929 . S
C1582 C1578 1.531 . S
C1582 H1594 0.960 . S
C1582 H1595 0.962 . S
C1582 H1596 0.960 . S
C1583 C1580 1.511 . S
C1583 H1597 0.961 . S
C1583 H1598 0.961 . S
C1583 H1599 0.961 . S
C1584 C1585 1.370 . S
C1584 C1586 1.363 . S
C1584 H1600 0.931 . S
C1585 C1584 1.370 . S
C1585 C1589 1.408 . S
C1586 C1584 1.363 . S
C1586 C1587 1.370 . S
C1586 C1590 1.524 . S
C1587 C1579 1.503 . S
C1587 C1586 1.370 . S
C1587 C1588 1.403 . S
C1588 C1587 1.403 . S
C1588 C1589 1.404 . S
C1588 C1591 1.539 . S
C1589 C1585 1.408 . S
C1589 C1588 1.404 . S
C1589 H1601 0.930 . S
C1590 C1586 1.524 . S
C1590 H1602 0.956 . S
C1590 H1603 0.961 . S
C1590 H1604 0.961 . S
C1591 C1588 1.539 . S
C1591 H1605 0.958 . S
C1591 H1606 0.961 . S
C1591 H1607 0.960 . S
H1592 C1576 0.931 . S
H1593 C1581 0.929 . S
H1594 C1582 0.960 . S
H1595 C1582 0.962 . S
H1596 C1582 0.960 . S
H1597 C1583 0.961 . S
H1598 C1583 0.961 . S
H1599 C1583 0.961 . S
H1600 C1584 0.931 . S
H1601 C1589 0.930 . S
H1602 C1590 0.956 . S
H1603 C1590 0.961 . S
H1604 C1590 0.961 . S
H1605 C1591 0.958 . S
H1606 C1591 0.961 . S
H1607 C1591 0.960 . S
C1608 C1609 1.391 . S
C1608 C1610 1.394 1_556 S
C1608 H1624 0.931 . S
C1609 C1608 1.391 . S
C1609 C1613 1.376 1_556 S
C1610 C1608 1.394 1_554 S
C1610 C1611 1.369 . S
C1610 C1614 1.525 1_554 S
C1611 C1610 1.369 . S
C1611 C1612 1.410 . S
C1611 C1619 1.503 . S
C1612 C1611 1.410 . S
C1612 C1613 1.392 . S
C1612 C1615 1.511 . S
C1613 C1609 1.376 1_554 S
C1613 C1612 1.392 . S
C1613 H1625 0.929 . S
C1614 C1610 1.525 1_556 S
C1614 H1626 0.947 1_556 S
C1614 H1627 0.952 1_556 S
C1614 H1628 0.990 . S
C1615 C1612 1.511 . S
C1615 H1629 0.961 . S
C1615 H1630 0.961 . S
C1615 H1631 0.961 . S
C1616 C1617 1.370 . S
C1616 C1618 1.363 . S
C1616 H1632 0.931 . S
C1617 C1616 1.370 . S
C1617 C1621 1.408 . S
C1618 C1616 1.363 . S
C1618 C1619 1.370 . S
C1618 C1622 1.524 . S
C1619 C1611 1.503 . S
C1619 C1618 1.370 . S
C1619 C1620 1.403 . S
C1620 C1619 1.403 . S
C1620 C1621 1.404 . S
C1620 C1623 1.539 . S
C1621 C1617 1.408 . S
C1621 C1620 1.404 . S
C1621 H1633 0.930 . S
C1622 C1618 1.524 . S
C1622 H1634 0.956 . S
C1622 H1635 0.961 . S
C1622 H1636 0.961 . S
C1623 C1620 1.539 . S
C1623 H1637 0.958 . S
C1623 H1638 0.961 . S
C1623 H1639 0.960 . S
H1624 C1608 0.931 . S
H1625 C1613 0.929 . S
H1626 C1614 0.947 1_554 S
H1627 C1614 0.952 1_554 S
H1628 C1614 0.990 . S
H1629 C1615 0.961 . S
H1630 C1615 0.961 . S
H1631 C1615 0.961 . S
H1632 C1616 0.931 . S
H1633 C1621 0.930 . S
H1634 C1622 0.956 . S
H1635 C1622 0.961 . S
H1636 C1622 0.961 . S
H1637 C1623 0.958 . S
H1638 C1623 0.961 . S
H1639 C1623 0.960 . S
C1640 C1641 1.391 . S
C1640 C1642 1.394 . S
C1640 H1656 0.931 . S
C1641 C1640 1.391 . S
C1641 C1645 1.376 . S
C1642 C1640 1.394 . S
C1642 C1643 1.369 . S
C1642 C1646 1.531 . S
C1643 C1642 1.369 . S
C1643 C1644 1.410 . S
C1643 C1651 1.503 . S
C1644 C1643 1.410 . S
C1644 C1645 1.392 . S
C1644 C1647 1.511 . S
C1645 C1641 1.376 . S
C1645 C1644 1.392 . S
C1645 H1657 0.929 . S
C1646 C1642 1.531 . S
C1646 H1658 0.960 . S
C1646 H1659 0.962 . S
C1646 H1660 0.960 . S
C1647 C1644 1.511 . S
C1647 H1661 0.961 . S
C1647 H1662 0.961 . S
C1647 H1663 0.961 . S
C1648 C1649 1.370 . S
C1648 C1650 1.363 . S
C1648 H1664 0.931 . S
C1649 C1648 1.370 . S
C1649 C1653 1.408 . S
C1650 C1648 1.363 . S
C1650 C1651 1.370 . S
C1650 C1654 1.524 . S
C1651 C1643 1.503 . S
C1651 C1650 1.370 . S
C1651 C1652 1.403 . S
C1652 C1651 1.403 . S
C1652 C1653 1.404 . S
C1652 C1655 1.539 . S
C1653 C1649 1.408 . S
C1653 C1652 1.404 . S
C1653 H1665 0.930 . S
C1654 C1650 1.524 . S
C1654 H1666 0.956 . S
C1654 H1667 0.961 . S
C1654 H1668 0.961 . S
C1655 C1652 1.539 . S
C1655 H1669 0.958 . S
C1655 H1670 0.961 . S
C1655 H1671 0.960 . S
H1656 C1640 0.931 . S
H1657 C1645 0.929 . S
H1658 C1646 0.960 . S
H1659 C1646 0.962 . S
H1660 C1646 0.960 . S
H1661 C1647 0.961 . S
H1662 C1647 0.961 . S
H1663 C1647 0.961 . S
H1664 C1648 0.931 . S
H1665 C1653 0.930 . S
H1666 C1654 0.956 . S
H1667 C1654 0.961 . S
H1668 C1654 0.961 . S
H1669 C1655 0.958 . S
H1670 C1655 0.961 . S
H1671 C1655 0.960 . S
C1672 C1673 1.391 . S
C1672 C1674 1.394 . S
C1672 H1688 0.931 . S
C1673 C1672 1.391 . S
C1673 C1677 1.376 . S
C1674 C1672 1.394 . S
C1674 C1675 1.369 . S
C1674 C1678 1.531 . S
C1675 C1674 1.369 . S
C1675 C1676 1.410 . S
C1675 C1683 1.503 . S
C1676 C1675 1.410 . S
C1676 C1677 1.392 . S
C1676 C1679 1.511 . S
C1677 C1673 1.376 . S
C1677 C1676 1.392 . S
C1677 H1689 0.929 . S
C1678 C1674 1.531 . S
C1678 H1690 0.960 . S
C1678 H1691 0.962 . S
C1678 H1692 0.960 . S
C1679 C1676 1.511 . S
C1679 H1693 0.961 . S
C1679 H1694 0.961 . S
C1679 H1695 0.961 . S
C1680 C1681 1.370 . S
C1680 C1682 1.363 . S
C1680 H1696 0.931 . S
C1681 C1680 1.370 . S
C1681 C1685 1.408 . S
C1682 C1680 1.363 . S
C1682 C1683 1.370 . S
C1682 C1686 1.524 . S
C1683 C1675 1.503 . S
C1683 C1682 1.370 . S
C1683 C1684 1.403 . S
C1684 C1683 1.403 . S
C1684 C1685 1.404 . S
C1684 C1687 1.539 . S
C1685 C1681 1.408 . S
C1685 C1684 1.404 . S
C1685 H1697 0.930 . S
C1686 C1682 1.524 . S
C1686 H1698 0.956 . S
C1686 H1699 0.961 . S
C1686 H1700 0.961 . S
C1687 C1684 1.539 . S
C1687 H1701 0.958 . S
C1687 H1702 0.961 . S
C1687 H1703 0.960 . S
H1688 C1672 0.931 . S
H1689 C1677 0.929 . S
H1690 C1678 0.960 . S
H1691 C1678 0.962 . S
H1692 C1678 0.960 . S
H1693 C1679 0.961 . S
H1694 C1679 0.961 . S
H1695 C1679 0.961 . S
H1696 C1680 0.931 . S
H1697 C1685 0.930 . S
H1698 C1686 0.956 . S
H1699 C1686 0.961 . S
H1700 C1686 0.961 . S
H1701 C1687 0.958 . S
H1702 C1687 0.961 . S
H1703 C1687 0.960 . S
C1704 C1705 1.391 . S
C1704 C1706 1.394 . S
C1704 H1720 0.931 . S
C1705 C1704 1.391 . S
C1705 C1709 1.376 . S
C1706 C1704 1.394 . S
C1706 C1707 1.369 . S
C1706 C1710 1.531 . S
C1707 C1706 1.369 . S
C1707 C1708 1.410 . S
C1707 C1715 1.503 . S
C1708 C1707 1.410 . S
C1708 C1709 1.392 . S
C1708 C1711 1.511 . S
C1709 C1705 1.376 . S
C1709 C1708 1.392 . S
C1709 H1721 0.929 . S
C1710 C1706 1.531 . S
C1710 H1722 0.960 . S
C1710 H1723 0.962 . S
C1710 H1724 0.960 . S
C1711 C1708 1.511 . S
C1711 H1725 0.961 . S
C1711 H1726 0.961 . S
C1711 H1727 0.961 . S
C1712 C1713 1.370 . S
C1712 C1714 1.363 . S
C1712 H1728 0.931 . S
C1713 C1712 1.370 . S
C1713 C1717 1.408 . S
C1714 C1712 1.363 . S
C1714 C1715 1.370 . S
C1714 C1718 1.524 . S
C1715 C1707 1.503 . S
C1715 C1714 1.370 . S
C1715 C1716 1.403 . S
C1716 C1715 1.403 . S
C1716 C1717 1.404 . S
C1716 C1719 1.539 . S
C1717 C1713 1.408 . S
C1717 C1716 1.404 . S
C1717 H1729 0.930 . S
C1718 C1714 1.524 . S
C1718 H1730 0.956 . S
C1718 H1731 0.961 . S
C1718 H1732 0.961 . S
C1719 C1716 1.539 . S
C1719 H1733 0.958 . S
C1719 H1734 0.961 . S
C1719 H1735 0.960 . S
H1720 C1704 0.931 . S
H1721 C1709 0.929 . S
H1722 C1710 0.960 . S
H1723 C1710 0.962 . S
H1724 C1710 0.960 . S
H1725 C1711 0.961 . S
H1726 C1711 0.961 . S
H1727 C1711 0.961 . S
H1728 C1712 0.931 . S
H1729 C1717 0.930 . S
H1730 C1718 0.956 . S
H1731 C1718 0.961 . S
H1732 C1718 0.961 . S
H1733 C1719 0.958 . S
H1734 C1719 0.961 . S
H1735 C1719 0.960 . S
C1736 C1737 1.391 . S
C1736 C1738 1.394 . S
C1736 H1752 0.931 . S
C1737 C1736 1.391 . S
C1737 C1741 1.376 . S
C1738 C1736 1.394 . S
C1738 C1739 1.369 . S
C1738 C1742 1.531 . S
C1739 C1738 1.369 . S
C1739 C1740 1.410 . S
C1739 C1747 1.503 . S
C1740 C1739 1.410 . S
C1740 C1741 1.392 . S
C1740 C1743 1.511 . S
C1741 C1737 1.376 . S
C1741 C1740 1.392 . S
C1741 H1753 0.929 . S
C1742 C1738 1.531 . S
C1742 H1754 0.960 . S
C1742 H1755 0.962 . S
C1742 H1756 0.960 . S
C1743 C1740 1.511 . S
C1743 H1757 0.961 . S
C1743 H1758 0.961 . S
C1743 H1759 0.961 . S
C1744 C1745 1.370 . S
C1744 C1746 1.363 . S
C1744 H1760 0.931 . S
C1745 C1744 1.370 . S
C1745 C1749 1.408 . S
C1746 C1744 1.363 . S
C1746 C1747 1.370 . S
C1746 C1750 1.524 . S
C1747 C1739 1.503 . S
C1747 C1746 1.370 . S
C1747 C1748 1.403 . S
C1748 C1747 1.403 . S
C1748 C1749 1.404 . S
C1748 C1751 1.539 . S
C1749 C1745 1.408 . S
C1749 C1748 1.404 . S
C1749 H1761 0.930 . S
C1750 C1746 1.524 . S
C1750 H1762 0.956 . S
C1750 H1763 0.961 . S
C1750 H1764 0.961 . S
C1751 C1748 1.539 . S
C1751 H1765 0.958 . S
C1751 H1766 0.961 . S
C1751 H1767 0.960 . S
H1752 C1736 0.931 . S
H1753 C1741 0.929 . S
H1754 C1742 0.960 . S
H1755 C1742 0.962 . S
H1756 C1742 0.960 . S
H1757 C1743 0.961 . S
H1758 C1743 0.961 . S
H1759 C1743 0.961 . S
H1760 C1744 0.931 . S
H1761 C1749 0.930 . S
H1762 C1750 0.956 . S
H1763 C1750 0.961 . S
H1764 C1750 0.961 . S
H1765 C1751 0.958 . S
H1766 C1751 0.961 . S
H1767 C1751 0.960 . S
C1768 C1769 1.391 . S
C1768 C1770 1.394 . S
C1768 H1784 0.931 . S
C1769 C1768 1.391 . S
C1769 C1773 1.376 . S
C1770 C1768 1.394 . S
C1770 C1771 1.369 . S
C1770 C1774 1.531 . S
C1771 C1770 1.369 . S
C1771 C1772 1.410 . S
C1771 C1779 1.503 . S
C1772 C1771 1.410 . S
C1772 C1773 1.392 . S
C1772 C1775 1.511 . S
C1773 C1769 1.376 . S
C1773 C1772 1.392 . S
C1773 H1785 0.929 . S
C1774 C1770 1.531 . S
C1774 H1786 0.960 . S
C1774 H1787 0.962 . S
C1774 H1788 0.960 . S
C1775 C1772 1.511 . S
C1775 H1789 0.961 . S
C1775 H1790 0.961 . S
C1775 H1791 0.961 . S
C1776 C1777 1.370 1_554 S
C1776 C1778 1.363 . S
C1776 H1792 0.931 . S
C1777 C1776 1.370 1_556 S
C1777 C1781 1.408 . S
C1778 C1776 1.363 . S
C1778 C1779 1.370 1_554 S
C1778 C1782 1.524 . S
C1779 C1771 1.503 . S
C1779 C1778 1.370 1_556 S
C1779 C1780 1.403 . S
C1780 C1779 1.403 . S
C1780 C1781 1.404 . S
C1780 C1783 1.539 . S
C1781 C1777 1.408 . S
C1781 C1780 1.404 . S
C1781 H1793 0.930 . S
C1782 C1778 1.524 . S
C1782 H1794 0.956 . S
C1782 H1795 0.961 . S
C1782 H1796 0.961 . S
C1783 C1780 1.539 . S
C1783 H1797 0.958 . S
C1783 H1798 0.961 . S
C1783 H1799 0.960 . S
H1784 C1768 0.931 . S
H1785 C1773 0.929 . S
H1786 C1774 0.960 . S
H1787 C1774 0.962 . S
H1788 C1774 0.960 . S
H1789 C1775 0.961 . S
H1790 C1775 0.961 . S
H1791 C1775 0.961 . S
H1792 C1776 0.931 . S
H1793 C1781 0.930 . S
H1794 C1782 0.956 . S
H1795 C1782 0.961 . S
H1796 C1782 0.961 . S
H1797 C1783 0.958 . S
H1798 C1783 0.961 . S
H1799 C1783 0.960 . S
C1800 C1801 1.391 . S
C1800 C1802 1.394 . S
C1800 H1816 0.931 . S
C1801 C1800 1.391 . S
C1801 C1805 1.376 . S
C1802 C1800 1.394 . S
C1802 C1803 1.369 . S
C1802 C1806 1.531 . S
C1803 C1802 1.369 . S
C1803 C1804 1.410 . S
C1803 C1811 1.503 . S
C1804 C1803 1.410 . S
C1804 C1805 1.392 . S
C1804 C1807 1.511 . S
C1805 C1801 1.376 . S
C1805 C1804 1.392 . S
C1805 H1817 0.929 . S
C1806 C1802 1.531 . S
C1806 H1818 0.960 . S
C1806 H1819 0.962 . S
C1806 H1820 0.960 . S
C1807 C1804 1.511 . S
C1807 H1821 0.961 . S
C1807 H1822 0.961 . S
C1807 H1823 0.961 . S
C1808 C1809 1.370 . S
C1808 C1810 1.363 . S
C1808 H1824 0.931 . S
C1809 C1808 1.370 . S
C1809 C1813 1.408 . S
C1810 C1808 1.363 . S
C1810 C1811 1.370 . S
C1810 C1814 1.524 . S
C1811 C1803 1.503 . S
C1811 C1810 1.370 . S
C1811 C1812 1.403 . S
C1812 C1811 1.403 . S
C1812 C1813 1.404 . S
C1812 C1815 1.539 . S
C1813 C1809 1.408 . S
C1813 C1812 1.404 . S
C1813 H1825 0.930 . S
C1814 C1810 1.524 . S
C1814 H1826 0.956 . S
C1814 H1827 0.961 . S
C1814 H1828 0.961 . S
C1815 C1812 1.539 . S
C1815 H1829 0.958 . S
C1815 H1830 0.961 . S
C1815 H1831 0.960 . S
H1816 C1800 0.931 . S
H1817 C1805 0.929 . S
H1818 C1806 0.960 . S
H1819 C1806 0.962 . S
H1820 C1806 0.960 . S
H1821 C1807 0.961 . S
H1822 C1807 0.961 . S
H1823 C1807 0.961 . S
H1824 C1808 0.931 . S
H1825 C1813 0.930 . S
H1826 C1814 0.956 . S
H1827 C1814 0.961 . S
H1828 C1814 0.961 . S
H1829 C1815 0.958 . S
H1830 C1815 0.961 . S
H1831 C1815 0.960 . S
C1832 C1833 1.391 . S
C1832 C1834 1.394 . S
C1832 H1848 0.931 . S
C1833 C1832 1.391 . S
C1833 C1837 1.376 . S
C1834 C1832 1.394 . S
C1834 C1835 1.369 . S
C1834 C1838 1.531 . S
C1835 C1834 1.369 . S
C1835 C1836 1.410 . S
C1835 C1843 1.503 . S
C1836 C1835 1.410 . S
C1836 C1837 1.392 . S
C1836 C1839 1.511 . S
C1837 C1833 1.376 . S
C1837 C1836 1.392 . S
C1837 H1849 0.929 . S
C1838 C1834 1.531 . S
C1838 H1850 0.960 . S
C1838 H1851 0.962 . S
C1838 H1852 0.960 . S
C1839 C1836 1.511 . S
C1839 H1853 0.961 1_554 S
C1839 H1854 0.978 . S
C1839 H1855 0.961 . S
C1840 C1841 1.370 . S
C1840 C1842 1.363 . S
C1840 H1856 0.931 . S
C1841 C1840 1.370 . S
C1841 C1845 1.408 . S
C1842 C1840 1.363 . S
C1842 C1843 1.370 . S
C1842 C1846 1.524 . S
C1843 C1835 1.503 . S
C1843 C1842 1.370 . S
C1843 C1844 1.403 . S
C1844 C1843 1.403 . S
C1844 C1845 1.404 . S
C1844 C1847 1.539 . S
C1845 C1841 1.408 . S
C1845 C1844 1.404 . S
C1845 H1857 0.930 . S
C1846 C1842 1.524 . S
C1846 H1858 0.956 . S
C1846 H1859 0.959 1_554 S
C1846 H1860 0.961 1_554 S
C1847 C1844 1.539 . S
C1847 H1861 0.958 . S
C1847 H1862 0.961 . S
C1847 H1863 0.960 . S
H1848 C1832 0.931 . S
H1849 C1837 0.929 . S
H1850 C1838 0.960 . S
H1851 C1838 0.962 . S
H1852 C1838 0.960 . S
H1853 C1839 0.961 1_556 S
H1854 C1839 0.978 . S
H1855 C1839 0.961 . S
H1856 C1840 0.931 . S
H1857 C1845 0.930 . S
H1858 C1846 0.956 . S
H1859 C1846 0.959 1_556 S
H1860 C1846 0.961 1_556 S
H1861 C1847 0.958 . S
H1862 C1847 0.961 . S
H1863 C1847 0.960 . S
C1864 C1865 1.391 1_565 S
C1864 C1866 1.394 . S
C1864 H1880 0.931 . S
C1865 C1864 1.391 1_545 S
C1865 C1869 1.376 . S
C1866 C1864 1.394 . S
C1866 C1867 1.369 . S
C1866 C1870 1.531 . S
C1867 C1866 1.369 . S
C1867 C1868 1.410 1_565 S
C1867 C1875 1.503 . S
C1868 C1867 1.410 1_545 S
C1868 C1869 1.392 . S
C1868 C1871 1.511 . S
C1869 C1865 1.376 . S
C1869 C1868 1.392 . S
C1869 H1881 0.929 . S
C1870 C1866 1.531 . S
C1870 H1882 0.960 . S
C1870 H1883 0.962 . S
C1870 H1884 0.960 . S
C1871 C1868 1.511 . S
C1871 H1885 0.961 . S
C1871 H1886 0.961 . S
C1871 H1887 0.961 . S
C1872 C1873 1.370 . S
C1872 C1874 1.363 . S
C1872 H1888 0.931 . S
C1873 C1872 1.370 . S
C1873 C1877 1.408 . S
C1874 C1872 1.363 . S
C1874 C1875 1.370 . S
C1874 C1878 1.524 . S
C1875 C1867 1.503 . S
C1875 C1874 1.370 . S
C1875 C1876 1.403 . S
C1876 C1875 1.403 . S
C1876 C1877 1.404 . S
C1876 C1879 1.539 1_554 S
C1877 C1873 1.408 . S
C1877 C1876 1.404 . S
C1877 H1889 0.930 1_554 S
C1878 C1874 1.524 . S
C1878 H1890 0.956 . S
C1878 H1891 0.961 . S
C1878 H1892 0.961 . S
C1879 C1876 1.539 1_556 S
C1879 H1893 0.958 . S
C1879 H1894 0.961 . S
C1879 H1895 0.960 . S
H1880 C1864 0.931 . S
H1881 C1869 0.929 . S
H1882 C1870 0.960 . S
H1883 C1870 0.962 . S
H1884 C1870 0.960 . S
H1885 C1871 0.961 . S
H1886 C1871 0.961 . S
H1887 C1871 0.961 . S
H1888 C1872 0.931 . S
H1889 C1877 0.930 1_556 S
H1890 C1878 0.956 . S
H1891 C1878 0.961 . S
H1892 C1878 0.961 . S
H1893 C1879 0.958 . S
H1894 C1879 0.961 . S
H1895 C1879 0.960 . S
C369 C200 1.707 . S
C361 C66 1.774 . S
C401 C213 1.139 . S
C393 C76 1.124 1_455 S
C425 C93 1.955 . S
C433 C233 1.781 . S
C465 C247 1.297 . S
C457 C54 1.416 . S
C497 C259 1.526 . S
C489 C126 1.535 . S
C529 C273 1.739 . S
C521 C150 1.740 . S
C553 C136 1.141 . S
C561 C283 1.133 . S
C593 C298 1.790 . S
C585 C117 1.809 . S
C617 C141 1.284 . S
C625 C312 1.235 . S
C657 C331 1.220 . S
C649 C112 1.294 . S
C681 C124 1.543 . S
C689 C311 1.525 . S
C721 C329 1.237 . S
C713 C148 1.237 . S
C745 C88 1.435 . S
C753 C345 1.389 . S
C777 C52 1.591 . S
C785 C339 1.593 . S
C809 C64 1.288 . S
C817 C343 1.283 . S
C841 C78 1.227 . S
C849 C340 1.201 . S
C873 C45 1.717 . S
C881 C242 1.706 . S
C905 C177 1.821 . S
C913 C241 1.807 . S
C945 C205 1.309 . S
C937 C189 1.312 . S
C977 C219 1.624 . S
C969 C102 1.741 . S
C1001 C57 1.739 1_545 S
C1009 C256 1.722 . S
C1041 C301 1.487 . S
C1033 C138 1.487 . S
C1073 C255 1.745 . S
C1065 C114 1.750 1_545 S
C1105 C287 1.651 . S
C1097 C153 1.651 . S
C1137 C284 1.708 . S
C1129 C174 1.774 . S
C1161 C184 1.140 . S
C1169 C297 1.138 . S
C1193 C105 1.950 . S
C1201 C261 1.790 . S
C1233 C275 1.311 . S
C1225 C162 1.406 . S
C1257 C42 1.534 . S
C1265 C231 1.528 . S
C1297 C245 1.738 . S
C1289 C6 1.739 . S
C1329 C199 1.133 . S
C1321 C16 1.140 . S
C1361 C214 1.796 . S
C1353 C33 1.808 . S
C1385 C21 1.272 . S
C1393 C326 1.240 . S
C1417 C28 1.285 . S
C1425 C317 1.253 . S
C1449 C40 1.533 . S
C1457 C325 1.532 . S
C1481 C4 1.245 1_556 S
C1489 C315 1.243 . S
C1521 C359 1.361 . S
C1513 C100 1.453 . S
C1553 C353 1.597 . S
C1545 C160 1.596 1_554 S
C1585 C357 1.282 . S
C1577 C172 1.282 . S
C1609 C186 1.231 . S
C1617 C354 1.196 . S
C1641 C129 1.729 . S
C1649 C270 1.700 . S
C1681 C269 1.797 . S
C1673 C69 1.816 . S
C1713 C289 1.271 . S
C1705 C81 1.337 . S
C1745 C303 1.637 . S
C1737 C90 1.734 . S
C1769 C165 1.717 . S
C1777 C228 1.710 . S
C1809 C217 1.490 . S
C1801 C18 1.484 . S
C1833 C30 1.754 . S
C1841 C227 1.748 . S
C1873 C203 1.651 . S
C1865 C9 1.652 . S
