# Generated by pormake.
# Topology llj, (12,3)-cn, num edge types: 1
# Building blocks:
#     Node 0, Type 0, BuildingBlock: QEWDON_clean_sbu_0, # of connection points: 12
#     Node 1, Type 0, BuildingBlock: QEWDON_clean_sbu_0, # of connection points: 12
#     Node 2, Type 1, BuildingBlock: CUQRIR_clean_linker_1, # of connection points: 3
#     Node 3, Type 1, BuildingBlock: CUQRIR_clean_linker_1, # of connection points: 3
#     Node 4, Type 1, BuildingBlock: CUQRIR_clean_linker_1, # of connection points: 3
#     Node 5, Type 1, BuildingBlock: CUQRIR_clean_linker_1, # of connection points: 3
#     Node 6, Type 1, BuildingBlock: CUQRIR_clean_linker_1, # of connection points: 3
#     Node 7, Type 1, BuildingBlock: CUQRIR_clean_linker_1, # of connection points: 3
#     Node 8, Type 1, BuildingBlock: CUQRIR_clean_linker_1, # of connection points: 3
#     Node 9, Type 1, BuildingBlock: CUQRIR_clean_linker_1, # of connection points: 3
#     Edge 10, Type (0, 1), BuildingBlock: AJUNOK_clean_linker_0, # of connection points: 2
#     Edge 11, Type (0, 1), BuildingBlock: AJUNOK_clean_linker_0, # of connection points: 2
#     Edge 12, Type (0, 1), BuildingBlock: AJUNOK_clean_linker_0, # of connection points: 2
#     Edge 13, Type (0, 1), BuildingBlock: AJUNOK_clean_linker_0, # of connection points: 2
#     Edge 14, Type (0, 1), BuildingBlock: AJUNOK_clean_linker_0, # of connection points: 2
#     Edge 15, Type (0, 1), BuildingBlock: AJUNOK_clean_linker_0, # of connection points: 2
#     Edge 16, Type (0, 1), BuildingBlock: AJUNOK_clean_linker_0, # of connection points: 2
#     Edge 17, Type (0, 1), BuildingBlock: AJUNOK_clean_linker_0, # of connection points: 2
#     Edge 18, Type (0, 1), BuildingBlock: AJUNOK_clean_linker_0, # of connection points: 2
#     Edge 19, Type (0, 1), BuildingBlock: AJUNOK_clean_linker_0, # of connection points: 2
#     Edge 20, Type (0, 1), BuildingBlock: AJUNOK_clean_linker_0, # of connection points: 2
#     Edge 21, Type (0, 1), BuildingBlock: AJUNOK_clean_linker_0, # of connection points: 2
#     Edge 22, Type (0, 1), BuildingBlock: AJUNOK_clean_linker_0, # of connection points: 2
#     Edge 23, Type (0, 1), BuildingBlock: AJUNOK_clean_linker_0, # of connection points: 2
#     Edge 24, Type (0, 1), BuildingBlock: AJUNOK_clean_linker_0, # of connection points: 2
#     Edge 25, Type (0, 1), BuildingBlock: AJUNOK_clean_linker_0, # of connection points: 2
#     Edge 26, Type (0, 1), BuildingBlock: AJUNOK_clean_linker_0, # of connection points: 2
#     Edge 27, Type (0, 1), BuildingBlock: AJUNOK_clean_linker_0, # of connection points: 2
#     Edge 28, Type (0, 1), BuildingBlock: AJUNOK_clean_linker_0, # of connection points: 2
#     Edge 29, Type (0, 1), BuildingBlock: AJUNOK_clean_linker_0, # of connection points: 2
#     Edge 30, Type (0, 1), BuildingBlock: AJUNOK_clean_linker_0, # of connection points: 2
#     Edge 31, Type (0, 1), BuildingBlock: AJUNOK_clean_linker_0, # of connection points: 2
#     Edge 32, Type (0, 1), BuildingBlock: AJUNOK_clean_linker_0, # of connection points: 2
#     Edge 33, Type (0, 1), BuildingBlock: AJUNOK_clean_linker_0, # of connection points: 2
# Relax obj value: 0.011
# Max RMSD: 0.107
# Mean RMSD: 0.093
data_MOF--net-llj--node1-QEWDON_clean_sbu_0--node2-CUQRIR_clean_linker_1--edge1-AJUNOK_clean_linker_0
_symmetry_space_group_name_H-M    P1
_symmetry_Int_Tables_number       1
_symmetry_cell_setting            triclinic
loop_
_symmetry_equiv_pos_as_xyz
'x, y, z'
_cell_length_a     28.553161
_cell_length_b     29.018295
_cell_length_c     15.919023
_cell_angle_alpha  90.408541
_cell_angle_beta   89.677594
_cell_angle_gamma 90.006647
loop_
_atom_site_label
_atom_site_type_symbol
_atom_site_fract_x
_atom_site_fract_y
_atom_site_fract_z
_atom_type_partial_charge
Zn0 Zn 0.91474 0.09376 0.96364 0.0
Zn1 Zn 0.91863 0.07957 0.16425 0.0
O2 O 0.95744 0.07635 0.05943 0.0
H3 H -0.00894 0.07925 0.05521 0.0
C4 C 0.82263 0.0026 0.84013 0.0
O5 O 0.78666 0.97774 0.86458 0.0
Zn6 Zn 0.05209 0.87371 0.14214 0.0
Zn7 Zn 0.05224 0.87117 0.93775 0.0
O8 O 0.01131 0.88129 0.04083 0.0
H9 H 0.97755 0.87957 0.03893 0.0
Zn10 Zn 0.86052 0.96299 0.99332 0.0
O11 O 0.91861 0.95968 0.06462 0.0
Zn12 Zn 0.89906 0.91747 0.158 0.0
H13 H 0.95023 0.96616 0.04649 0.0
Zn14 Zn 0.11897 -0.00717 1.00279 0.0
O15 O 0.05698 -0.00033 0.06221 0.0
H16 H 0.0266 -0.00195 0.03607 0.0
Zn17 Zn 0.07479 0.03653 0.16377 0.0
C18 C 0.15736 0.95862 0.84187 0.0
O19 O 0.19449 0.98083 0.86895 0.0
O20 O 0.85633 0.1293 1.00719 0.0
O21 O 0.86272 0.12089 0.14616 0.0
O22 O 0.11656 0.84344 0.96882 0.0
O23 O 0.11128 0.839 0.1088 0.0
O24 O 0.8229 0.90281 0.99812 0.0
O25 O 0.85297 0.87016 0.11201 0.0
C26 C -0.00093 0.09137 0.26211 0.0
O27 O 0.16223 0.04826 1.02606 0.0
O28 O 0.12509 0.0835 0.13216 0.0
O29 O 0.0171 0.84598 0.83185 0.0
C30 C 0.84199 0.1372 0.08207 0.0
O31 O 0.95086 0.1162 0.85673 0.0
C32 C 0.97423 0.85551 0.24366 0.0
O33 O 0.8593 0.00296 0.88508 0.0
C34 C 0.13322 0.83163 0.03971 0.0
O35 O 0.12077 0.9582 0.88767 0.0
C36 C 0.87534 -0.00186 0.25075 0.0
O37 O 0.9569 0.10482 0.2588 0.0
O38 O 0.0142 0.06495 0.20411 0.0
C39 C 0.82528 0.86923 0.04918 0.0
O40 O 0.01601 0.84142 0.23371 0.0
O41 O 0.95912 0.88593 0.19343 0.0
C42 C 0.09261 0.95176 0.24545 0.0
O43 O 0.86801 0.95502 0.25106 0.0
O44 O 0.89987 0.01488 0.19172 0.0
C45 C 0.15852 0.08166 0.07829 0.0
O46 O 0.10112 -0.00548 0.25123 0.0
O47 O 0.06908 0.93722 0.1831 0.0
C48 C 0.98176 0.86847 0.80631 0.0
O49 O 0.97087 0.90722 0.84484 0.0
C50 C 0.98692 0.09288 0.83622 0.0
O51 O -0.00293 0.05594 0.87976 0.0
Zn52 Zn 0.44344 0.58905 0.41758 0.0
Zn53 Zn 0.43047 0.57904 0.61802 0.0
O54 O 0.47079 0.55998 0.52106 0.0
H55 H 0.49211 0.53413 0.52014 0.0
C56 C 0.371 0.50326 0.29168 0.0
O57 O 0.41443 0.49474 0.3131 0.0
Zn58 Zn 0.54006 0.38187 0.64526 0.0
Zn59 Zn 0.54235 0.38371 0.44196 0.0
O60 O 0.50603 0.40572 0.54547 0.0
H61 H 0.48837 0.43404 0.54733 0.0
Zn62 Zn 0.35166 0.44209 0.43493 0.0
O63 O 0.39721 0.45999 0.52691 0.0
Zn64 Zn 0.37858 0.42512 0.63063 0.0
H65 H 0.42349 0.48049 0.51961 0.0
Zn66 Zn 0.57663 0.53976 0.46341 0.0
O67 O 0.58151 0.49073 0.55409 0.0
H68 H 0.59598 0.46097 0.54515 0.0
Zn69 Zn 0.58759 0.53185 0.65364 0.0
C70 C 0.6227 0.50452 0.31839 0.0
O71 O 0.65663 0.52417 0.36107 0.0
O72 O 0.38621 0.63058 0.44117 0.0
O73 O 0.37827 0.62107 0.57954 0.0
O74 O 0.60188 0.34705 0.46999 0.0
O75 O 0.58942 0.33515 0.60654 0.0
O76 O 0.30635 0.38983 0.46662 0.0
O77 O 0.32895 0.37827 0.59864 0.0
C78 C 0.512 0.59506 0.7132 0.0
O79 O 0.62052 0.59523 0.49032 0.0
O80 O 0.63442 0.58162 0.62564 0.0
O81 O 0.50356 0.35343 0.34647 0.0
C82 C 0.36472 0.63835 0.51027 0.0
O83 O 0.48962 0.60363 0.32087 0.0
C84 C 0.45076 0.36431 0.73187 0.0
O85 O 0.3379 0.48561 0.33448 0.0
C86 C 0.61224 0.32742 0.53867 0.0
O87 O 0.58105 0.50919 0.34529 0.0
C88 C 0.37205 0.51042 0.71939 0.0
O89 O 0.47143 0.61174 0.70241 0.0
O90 O 0.52411 0.56012 0.66994 0.0
C91 C 0.30361 0.36795 0.53562 0.0
O92 O 0.49397 0.35402 0.72885 0.0
O93 O 0.43552 0.39165 0.67573 0.0
C94 C 0.59787 0.45309 0.75764 0.0
O95 O 0.35514 0.4701 0.7196 0.0
O96 O 0.40084 0.52068 0.66126 0.0
C97 C 0.64188 0.60449 0.55865 0.0
O98 O 0.60906 0.49538 0.75398 0.0
O99 O 0.57264 0.43714 0.69827 0.0
C100 C 0.47826 0.37603 0.29601 0.0
O101 O 0.47606 0.421 0.30415 0.0
C102 C 0.47982 0.63025 0.2605 0.0
O103 O 0.43813 0.64929 0.25801 0.0
C104 C 0.30732 0.24915 0.98311 0.0
N105 N 0.34235 0.27948 0.99856 0.0
N106 N 0.29192 0.23006 0.05555 0.0
C107 C 0.29026 0.23607 0.89688 0.0
C108 C 0.31914 0.24933 0.11546 0.0
N109 N 0.35007 0.27911 0.08076 0.0
C110 C 0.31691 0.23728 0.2071 0.0
H111 H 0.26584 0.26286 0.87418 0.0
H112 H 0.27127 0.20279 0.89651 0.0
H113 H 0.32033 0.23407 0.8527 0.0
H114 H 0.33798 0.20573 0.21756 0.0
H115 H 0.28033 0.22991 0.2266 0.0
H116 H 0.33118 0.26552 0.24673 0.0
C117 C 0.70138 0.3066 1.01366 0.0
N118 N 0.67579 0.34518 1.02739 0.0
N119 N 0.7091 0.28419 0.08655 0.0
C120 C 0.72368 0.29389 0.93058 0.0
C121 C 0.68774 0.31099 0.14532 0.0
N122 N 0.66782 0.34835 0.10951 0.0
C123 C 0.68379 0.29971 0.23724 0.0
H124 H 0.70348 0.26563 0.90064 0.0
H125 H 0.75999 0.28143 0.94016 0.0
H126 H 0.72451 0.32371 0.88736 0.0
H127 H 0.71026 0.3196 0.27309 0.0
H128 H 0.6894 0.2624 0.24823 0.0
H129 H 0.64875 0.30996 0.26151 0.0
C130 C 0.66447 0.70673 0.06822 0.0
N131 N 0.62928 0.68106 0.03595 0.0
N132 N 0.69401 0.72052 1.00647 0.0
C133 C 0.66708 0.72237 0.15857 0.0
C134 C 0.67515 0.70277 0.93545 0.0
N135 N 0.63562 0.67899 0.95328 0.0
C136 C 0.6962 0.70781 0.84913 0.0
H137 H 0.68559 0.75581 0.16466 0.0
H138 H 0.68651 0.69619 0.19498 0.0
H139 H 0.63156 0.72582 0.18653 0.0
H140 H 0.7349 0.71051 0.8531 0.0
H141 H 0.68288 0.73982 0.82006 0.0
H142 H 0.68664 0.6782 0.80816 0.0
C143 C 0.31295 0.68616 0.08279 0.0
N144 N 0.33112 0.64612 0.05286 0.0
N145 N 0.29139 0.71013 1.02126 0.0
C146 C 0.31567 0.7016 0.17313 0.0
C147 C 0.29769 0.68335 0.95197 0.0
N148 N 0.32178 0.64472 0.9712 0.0
C149 C 0.27728 0.69332 0.8668 0.0
H150 H 0.31321 0.7397 0.17804 0.0
H151 H 0.34896 0.68972 0.20143 0.0
H152 H 0.28636 0.68635 0.2095 0.0
H153 H 0.29912 0.7197 0.8352 0.0
H154 H 0.24118 0.70708 0.87312 0.0
H155 H 0.27664 0.66244 0.82568 0.0
C156 C 0.82036 0.74327 0.47463 0.0
N157 N 0.8568 0.77116 0.49418 0.0
N158 N 0.79579 0.73212 0.54472 0.0
C159 C 0.80908 0.72703 0.38696 0.0
C160 C 0.81889 0.75383 0.60769 0.0
N161 N 0.85575 0.77787 0.57685 0.0
C162 C 0.80441 0.75304 0.69888 0.0
H163 H 0.80642 0.75722 0.34483 0.0
H164 H 0.77633 0.70673 0.38394 0.0
H165 H 0.83786 0.70486 0.36303 0.0
H166 H 0.78817 0.7198 0.71617 0.0
H167 H 0.77794 0.78042 0.71013 0.0
H168 H 0.83471 0.75958 0.74061 0.0
C169 C 0.20472 0.79581 0.59092 0.0
N170 N 0.17703 0.83149 0.569 0.0
N171 N 0.2127 0.76772 0.52397 0.0
C172 C 0.22884 0.79258 0.6747 0.0
C173 C 0.18909 0.78805 0.46064 0.0
N174 N 0.16739 0.82682 0.48792 0.0
C175 C 0.1894 0.77155 0.37082 0.0
H176 H 0.25271 0.82245 0.68245 0.0
H177 H 0.24965 0.76071 0.68161 0.0
H178 H 0.20236 0.79463 0.7259 0.0
H179 H 0.15544 0.77935 0.34046 0.0
H180 H 0.19636 0.73396 0.36708 0.0
H181 H 0.21732 0.7899 0.33567 0.0
C182 C 0.1486 0.20182 0.62248 0.0
N183 N 0.11543 0.17152 0.59667 0.0
N184 N 0.1729 0.2182 0.55582 0.0
C185 C 0.15403 0.21907 0.7113 0.0
C186 C 0.15334 0.1971 0.48885 0.0
N187 N 0.11823 0.16902 0.51343 0.0
C188 C 0.16888 0.20366 0.39916 0.0
H189 H 0.16567 0.25555 0.71226 0.0
H190 H 0.18107 0.19818 0.74321 0.0
H191 H 0.12071 0.21595 0.747 0.0
H192 H 0.20656 0.2129 0.39604 0.0
H193 H 0.14836 0.23203 0.37098 0.0
H194 H 0.16272 0.17187 0.36162 0.0
C195 C 0.77668 0.16856 0.59528 0.0
N196 N 0.79974 0.13013 0.57023 0.0
N197 N 0.75801 0.19064 0.52876 0.0
C198 C 0.76974 0.18272 0.68573 0.0
C199 C 0.77118 0.16455 0.4618 0.0
N200 N 0.7961 0.12736 0.48707 0.0
C201 C 0.75787 0.17449 0.3723 0.0
H202 H 0.74681 0.15726 0.7175 0.0
H203 H 0.75401 0.21755 0.6915 0.0
H204 H 0.80389 0.18267 0.71857 0.0
H205 H 0.7541 0.21196 0.36166 0.0
H206 H 0.72366 0.158 0.35871 0.0
H207 H 0.78445 0.16072 0.32769 0.0
C208 C 0.18279 0.16348 0.1061 0.0
C209 C 0.19389 0.11901 0.0758 0.0
C210 C 0.2152 0.19973 0.10027 0.0
C211 C 0.25974 0.19245 0.06503 0.0
H212 H 0.14851 0.17061 0.13265 0.0
H213 H 0.20533 0.23379 0.12225 0.0
S214 S 0.30814 0.08249 0.98433 0.0
N215 N 0.25415 0.06969 1.01375 0.0
N216 N 0.31484 0.13793 1.00502 0.0
C217 C 0.27197 0.14817 0.03754 0.0
C218 C 0.23905 0.11141 0.04226 0.0
C219 C 0.76426 0.1694 0.04339 0.0
C220 C 0.80397 0.17072 0.09492 0.0
C221 C 0.73133 0.20516 0.04587 0.0
C222 C 0.73797 0.24407 0.09762 0.0
H223 H 0.75928 0.14117 0.99942 0.0
H224 H 0.70151 0.20348 1.00427 0.0
S225 S 0.83614 0.26349 0.24506 0.0
N226 N 0.84697 0.2125 0.20255 0.0
N227 N 0.7869 0.28137 0.20226 0.0
C228 C 0.77676 0.245 0.15139 0.0
C229 C 0.80942 0.20789 0.15105 0.0
C230 C 0.75569 0.83321 0.98101 0.0
C231 C 0.794 0.82913 0.03591 0.0
C232 C 0.72395 0.79705 0.96996 0.0
C233 C 0.72957 0.75532 1.01254 0.0
H234 H 0.74929 0.86504 0.94782 0.0
H235 H 0.69392 0.80218 0.92987 0.0
S236 S 0.8256 0.72471 0.15681 0.0
N237 N 0.83697 0.77842 0.12963 0.0
N238 N 0.7771 0.71025 0.10704 0.0
C239 C 0.76828 0.7499 0.06518 0.0
C240 C 0.80057 0.78684 0.07728 0.0
C241 C 0.18054 0.76689 0.09488 0.0
C242 C 0.17703 0.80484 0.04106 0.0
C243 C 0.21885 0.73698 0.0898 0.0
C244 C 0.25579 0.74482 0.03283 0.0
H245 H 0.15228 0.75874 0.138 0.0
H246 H 0.2185 0.70632 0.12806 0.0
S247 S 0.2663 0.84301 0.88646 0.0
N248 N 0.21496 0.85065 0.93294 0.0
N249 N 0.28876 0.79588 0.92779 0.0
C250 C 0.25411 0.78427 0.98243 0.0
C251 C 0.2143 0.81398 0.98555 0.0
C252 C 0.72141 0.63033 0.60088 0.0
C253 C 0.67937 0.63942 0.55846 0.0
C254 C 0.75929 0.66086 0.59621 0.0
C255 C 0.75584 0.70217 0.55142 0.0
H256 H 0.72571 0.59856 0.63535 0.0
H257 H 0.79182 0.65186 0.62665 0.0
S258 S 0.65245 0.74383 0.43496 0.0
N259 N 0.63608 0.69321 0.47195 0.0
N260 N 0.70661 0.75206 0.46798 0.0
C261 C 0.71353 0.71254 0.51137 0.0
C262 C 0.67541 0.68079 0.51375 0.0
C263 C 0.32346 0.70804 0.45838 0.0
C264 C 0.3238 0.66924 0.51072 0.0
C265 C 0.28655 0.73972 0.462 0.0
C266 C 0.24828 0.73295 0.51637 0.0
H267 H 0.3527 0.71488 0.41659 0.0
H268 H 0.28845 0.77036 0.42374 0.0
S269 S 0.22973 0.6343 0.6588 0.0
N270 N 0.28138 0.62436 0.61499 0.0
N271 N 0.21079 0.68308 0.61816 0.0
C272 C 0.24706 0.69325 0.56591 0.0
C273 C 0.28518 0.66158 0.56405 0.0
C274 C 0.22713 0.33154 0.50152 0.0
C275 C 0.27035 0.3295 0.54305 0.0
C276 C 0.19502 0.29535 0.50755 0.0
C277 C 0.20547 0.25573 0.55397 0.0
H278 H 0.21788 0.36148 0.46488 0.0
H279 H 0.16178 0.29814 0.47559 0.0
S280 S 0.31485 0.23193 0.66884 0.0
N281 N 0.32248 0.28408 0.63018 0.0
N282 N 0.26212 0.21537 0.63894 0.0
C283 C 0.24849 0.25301 0.5952 0.0
C284 C 0.28101 0.2901 0.59025 0.0
C285 C 0.69208 0.30099 0.49482 0.0
C286 C 0.64986 0.29276 0.53826 0.0
C287 C 0.72776 0.26771 0.49257 0.0
C288 C 0.72155 0.2248 0.53132 0.0
H289 H 0.69776 0.33354 0.4634 0.0
H290 H 0.76033 0.27543 0.4605 0.0
S291 S 0.61599 0.18492 0.64605 0.0
N292 N 0.60337 0.23822 0.61839 0.0
N293 N 0.66925 0.17475 0.60943 0.0
C294 C 0.67906 0.21581 0.57282 0.0
C295 C 0.64347 0.25005 0.57745 0.0
C296 C 0.03168 0.15749 0.34034 0.0
C297 C 0.02946 0.10962 0.3283 0.0
C298 C 0.05912 0.17648 0.40404 0.0
C299 C 0.08485 0.14822 0.45806 0.0
H300 H 0.01265 0.18043 0.29933 0.0
H301 H 0.06128 0.21361 0.41016 0.0
S302 S 0.08457 0.02088 0.46177 0.0
N303 N 0.05016 0.0342 0.38231 0.0
N304 N 0.10336 0.07039 0.50105 0.0
C305 C 0.08119 0.10034 0.44961 0.0
C306 C 0.05317 0.08086 0.38454 0.0
C307 C 0.80688 0.03825 0.31514 0.0
C308 C 0.85489 0.02799 0.31635 0.0
C309 C 0.7873 0.0692 0.37365 0.0
C310 C 0.81529 0.09126 0.43436 0.0
H311 H 0.78457 0.02305 0.26759 0.0
H312 H 0.75024 0.07669 0.37039 0.0
S313 S 0.94133 0.07019 0.47148 0.0
N314 N 0.92864 0.0371 0.38974 0.0
N315 N 0.89237 0.09734 0.49675 0.0
C316 C 0.86281 0.07929 0.43872 0.0
C317 C 0.88256 0.04727 0.38008 0.0
C318 C 0.94319 0.78666 0.31793 0.0
C319 C 0.94432 0.8348 0.30888 0.0
C320 C 0.91559 0.76609 0.38038 0.0
C321 C 0.88815 0.79297 0.43548 0.0
H322 H 0.96345 0.76477 0.27599 0.0
H323 H 0.91553 0.72893 0.38556 0.0
S324 S 0.88457 0.92042 0.4459 0.0
N325 N 0.92104 0.90879 0.36759 0.0
N326 N 0.86609 0.87004 0.4805 0.0
C327 C 0.89026 0.8411 0.42884 0.0
C328 C 0.91904 0.86206 0.3664 0.0
C329 C 0.08186 0.89428 0.3602 0.0
C330 C 0.11182 0.92033 0.30862 0.0
C331 C 0.10003 0.86509 0.42213 0.0
C332 C 0.14852 0.86179 0.43456 0.0
H333 H 0.04428 0.89693 0.35332 0.0
H334 H 0.07633 0.84425 0.45922 0.0
S335 S 0.24122 0.92498 0.32006 0.0
N336 N 0.1919 0.94278 0.27722 0.0
N337 N 0.22587 0.88775 0.39326 0.0
C338 C 0.17855 0.88877 0.3854 0.0
C339 C 0.1602 0.91831 0.32265 0.0
C340 C 0.12359 0.89934 0.74411 0.0
C341 C 0.15902 0.93175 0.76209 0.0
C342 C 0.12753 0.86899 0.67542 0.0
C343 C 0.16657 0.8705 0.62177 0.0
H344 H 0.0938 0.89567 0.78585 0.0
H345 H 0.10143 0.84228 0.66709 0.0
S346 S 0.26604 0.95178 0.63373 0.0
N347 N 0.23239 0.96601 0.71458 0.0
N348 N 0.23922 0.90861 0.58595 0.0
C349 C 0.20047 0.90455 0.63517 0.0
C350 C 0.19685 0.93528 0.70527 0.0
C351 C 0.00327 0.13789 0.70484 0.0
C352 C 0.01944 0.10934 0.76988 0.0
C353 C 0.03444 0.15647 0.64527 0.0
C354 C 0.08268 0.14739 0.6495 0.0
H355 H 0.96644 0.14651 0.70075 0.0
H356 H 0.02114 0.17946 0.59775 0.0
S357 S 0.14301 0.07519 0.8056 0.0
N358 N 0.08726 0.07273 0.83328 0.0
N359 N 0.1451 0.10761 0.72097 0.0
C360 C 0.09903 0.11807 0.71228 0.0
C361 C 0.0676 0.09902 0.77257 0.0
C362 C 0.85261 0.06661 0.74975 0.0
C363 C 0.81996 0.03096 0.76297 0.0
C364 C 0.84788 0.09729 0.68267 0.0
C365 C 0.81093 0.09279 0.62551 0.0
H366 H 0.88073 0.07219 0.79379 0.0
H367 H 0.87193 0.12601 0.67744 0.0
S368 S 0.71899 0.00306 0.62545 0.0
N369 N 0.75129 -0.00886 0.70827 0.0
N370 N 0.74313 0.04886 0.58205 0.0
C371 C 0.7798 0.05589 0.63459 0.0
C372 C 0.7841 0.02495 0.70338 0.0
C373 C 0.96568 0.81106 0.69071 0.0
C374 C 0.95075 0.84896 0.74012 0.0
C375 C 0.9352 0.78923 0.63384 0.0
C376 C 0.88882 0.8043 0.6252 0.0
H377 H 0.00078 0.79747 0.69737 0.0
H378 H 0.94724 0.75929 0.59895 0.0
S379 S 0.83292 0.90299 0.73323 0.0
N380 N 0.88657 0.90192 0.77135 0.0
N381 N 0.82996 0.86011 0.6651 0.0
C382 C 0.87401 0.84289 0.67112 0.0
C383 C 0.90482 0.86547 0.72831 0.0
C384 C 0.56648 0.59024 0.83455 0.0
C385 C 0.54436 0.6169 0.77293 0.0
C386 C 0.5959 0.61076 0.89443 0.0
C387 C 0.60411 0.65841 0.89382 0.0
H388 H 0.55994 0.55357 0.83791 0.0
H389 H 0.61257 0.58942 0.9411 0.0
S390 S 0.55237 0.74351 0.74917 0.0
N391 N 0.53104 0.69347 0.71732 0.0
N392 N 0.58641 0.73195 0.82988 0.0
C393 C 0.58161 0.68545 0.83356 0.0
C394 C 0.55152 0.6647 0.77319 0.0
C395 C 0.39175 0.57337 0.81984 0.0
C396 C 0.35803 0.54391 0.78505 0.0
C397 C 0.37971 0.60631 0.88076 0.0
C398 C 0.33423 0.6083 0.91388 0.0
H399 H 0.42791 0.56983 0.80178 0.0
H400 H 0.40607 0.63042 0.90222 0.0
S401 S 0.23358 0.53583 0.85128 0.0
N402 N 0.27711 0.51767 0.79071 0.0
N403 N 0.25553 0.57712 0.91132 0.0
C404 C 0.30052 0.57745 0.88333 0.0
C405 C 0.31228 0.54536 0.81822 0.0
C406 C 0.4426 0.31419 0.85921 0.0
C407 C 0.42136 0.34433 0.80114 0.0
C408 C 0.41714 0.29428 0.92537 0.0
C409 C 0.36946 0.30389 0.93667 0.0
H410 H 0.47926 0.30524 0.85331 0.0
H411 H 0.4345 0.27027 0.96661 0.0
S412 S 0.29675 0.38134 0.80852 0.0
N413 N 0.34895 0.38267 0.76354 0.0
N414 N 0.3021 0.34662 0.88941 0.0
C415 C 0.3479 0.33451 0.88168 0.0
C416 C 0.37355 0.35435 0.81362 0.0
C417 C 0.64266 0.44579 0.89232 0.0
C418 C 0.61572 0.42464 0.82839 0.0
C419 C 0.6618 0.42012 0.9583 0.0
C420 C 0.65392 0.37256 0.9636 0.0
H421 H 0.64982 0.48243 0.89086 0.0
H422 H 0.68353 0.43734 1.00435 0.0
S423 S 0.58559 0.30023 0.81664 0.0
N424 N 0.58351 0.35247 0.77664 0.0
N425 N 0.61599 0.30549 0.90382 0.0
C426 C 0.62607 0.35127 0.90256 0.0
C427 C 0.60784 0.37695 0.83424 0.0
C428 C 0.67959 0.45037 0.25223 0.0
C429 C 0.63409 0.46898 0.25413 0.0
C430 C 0.69023 0.41173 0.20304 0.0
C431 C 0.65598 0.39015 0.15375 0.0
H432 H 0.70694 0.46444 0.29168 0.0
H433 H 0.72541 0.39782 0.20482 0.0
S434 S 0.53414 0.42973 0.12351 0.0
N435 N 0.55602 0.46633 0.19308 0.0
N436 N 0.57648 0.39271 0.1013 0.0
C437 C 0.61121 0.40978 0.15038 0.0
C438 C 0.60016 0.44946 0.20052 0.0
C439 C 0.56079 0.62037 0.20233 0.0
C440 C 0.5161 0.64072 0.19617 0.0
C441 C 0.59693 0.63186 0.14654 0.0
C442 C 0.58972 0.66376 0.08222 0.0
H443 H 0.56848 0.59626 0.25199 0.0
H444 H 0.63132 0.61697 0.15529 0.0
S445 S 0.47926 0.72457 0.03408 0.0
N446 N 0.46631 0.69258 0.11641 0.0
N447 N 0.53496 0.71432 1.01258 0.0
C448 C 0.54508 0.68302 0.0728 0.0
C449 C 0.50809 0.67148 0.12961 0.0
C450 C 0.3159 0.55622 0.21853 0.0
C451 C 0.3606 0.53607 0.22324 0.0
C452 C 0.30625 0.59055 0.15986 0.0
C453 C 0.34094 0.60657 0.10431 0.0
H454 H 0.28841 0.54645 0.26206 0.0
H455 H 0.27164 0.60578 0.15935 0.0
S456 S 0.46097 0.55963 0.08049 0.0
N457 N 0.43793 0.53002 0.15872 0.0
N458 N 0.42026 0.59668 0.05184 0.0
C459 C 0.38498 0.58518 0.10505 0.0
C460 C 0.39471 0.54948 0.1639 0.0
C461 C 0.41328 0.37525 0.19025 0.0
C462 C 0.44917 0.3516 0.23268 0.0
C463 C 0.38219 0.35176 0.1369 0.0
C464 C 0.38613 0.30405 0.12423 0.0
H465 H 0.40803 0.41182 0.20051 0.0
H466 H 0.35376 0.37049 0.1081 0.0
S467 S 0.47706 0.22704 0.20951 0.0
N468 N 0.48926 0.27812 0.25026 0.0
N469 N 0.43042 0.23464 0.15034 0.0
C470 C 0.42312 0.2805 0.16191 0.0
C471 C 0.45479 0.30413 0.21605 0.0
loop_
_geom_bond_atom_site_label_1
_geom_bond_atom_site_label_2
_geom_bond_distance
_geom_bond_site_symmetry_2
_ccdc_geom_bond_type
Zn0 O2 1.933 1_556 S
Zn0 O20 1.985 . S
Zn0 O31 1.955 . S
Zn1 O2 1.911 . S
Zn1 O21 1.970 . S
Zn1 O37 1.945 . S
Zn1 O44 1.981 . S
O2 Zn0 1.933 1_554 S
O2 Zn1 1.911 . S
O2 H3 0.841 1_655 S
H3 O2 0.841 1_455 S
C4 O5 1.246 . S
C4 O33 1.276 1_545 S
O5 C4 1.246 . S
Zn6 O8 1.911 . S
Zn6 O23 1.970 . S
Zn6 O40 1.945 . S
Zn6 O47 1.981 . S
Zn7 O8 1.933 1_556 S
Zn7 O22 1.985 . S
Zn7 O29 1.955 . S
O8 Zn6 1.911 . S
O8 Zn7 1.933 1_554 S
O8 H9 0.841 1_455 S
H9 O8 0.841 1_655 S
Zn10 O11 1.933 1_556 S
Zn10 O24 1.985 . S
Zn10 O33 1.955 . S
O11 Zn10 1.933 1_554 S
O11 Zn12 1.911 . S
O11 H13 0.841 1_565 S
Zn12 O11 1.911 . S
Zn12 O25 1.970 . S
Zn12 O41 1.981 . S
Zn12 O43 1.945 . S
H13 O11 0.841 1_545 S
Zn14 O15 1.933 1_556 S
Zn14 O27 1.985 . S
Zn14 O35 1.955 . S
O15 Zn14 1.933 1_554 S
O15 H16 0.841 1_545 S
O15 Zn17 1.911 . S
H16 O15 0.841 1_565 S
Zn17 O15 1.911 . S
Zn17 O28 1.970 . S
Zn17 O38 1.981 . S
Zn17 O46 1.945 . S
C18 O19 1.246 . S
C18 O35 1.276 1_565 S
O19 C18 1.246 . S
O20 Zn0 1.985 . S
O20 C30 1.245 1_556 S
O21 Zn1 1.970 . S
O21 C30 1.263 . S
O22 Zn7 1.985 . S
O22 C34 1.245 1_556 S
O23 Zn6 1.970 . S
O23 C34 1.263 . S
O24 Zn10 1.985 . S
O24 C39 1.245 1_556 S
O25 Zn12 1.970 . S
O25 C39 1.263 . S
C26 O37 1.262 1_455 S
C26 O38 1.245 . S
O27 Zn14 1.985 . S
O27 C45 1.245 1_556 S
O28 Zn17 1.970 . S
O28 C45 1.263 . S
O29 Zn7 1.955 . S
O29 C48 1.276 1_455 S
C30 O20 1.245 1_554 S
C30 O21 1.263 . S
O31 Zn0 1.955 . S
O31 C50 1.276 1_655 S
C32 O40 1.262 1_655 S
C32 O41 1.245 . S
O33 C4 1.276 1_565 S
O33 Zn10 1.955 . S
C34 O22 1.245 1_554 S
C34 O23 1.263 . S
O35 Zn14 1.955 . S
O35 C18 1.276 1_545 S
C36 O43 1.262 1_545 S
C36 O44 1.245 . S
O37 Zn1 1.945 . S
O37 C26 1.262 1_655 S
O38 Zn17 1.981 . S
O38 C26 1.245 . S
C39 O24 1.245 1_554 S
C39 O25 1.263 . S
O40 Zn6 1.945 . S
O40 C32 1.262 1_455 S
O41 Zn12 1.981 . S
O41 C32 1.245 . S
C42 O46 1.262 1_565 S
C42 O47 1.245 . S
O43 Zn12 1.945 . S
O43 C36 1.262 1_565 S
O44 Zn1 1.981 . S
O44 C36 1.245 . S
C45 O27 1.245 1_554 S
C45 O28 1.263 . S
O46 Zn17 1.945 . S
O46 C42 1.262 1_545 S
O47 Zn6 1.981 . S
O47 C42 1.245 . S
C48 O29 1.276 1_655 S
C48 O49 1.246 . S
O49 C48 1.246 . S
C50 O31 1.276 1_455 S
C50 O51 1.246 . S
O51 C50 1.246 . S
Zn52 O54 1.933 . S
Zn52 O72 1.985 . S
Zn52 O83 1.955 . S
Zn53 O54 1.911 . S
Zn53 O73 1.970 . S
Zn53 O89 1.945 . S
Zn53 O96 1.981 . S
O54 Zn52 1.933 . S
O54 Zn53 1.911 . S
O54 H55 0.841 . S
H55 O54 0.841 . S
C56 O57 1.246 . S
C56 O85 1.276 . S
O57 C56 1.246 . S
Zn58 O60 1.911 . S
Zn58 O75 1.970 . S
Zn58 O92 1.945 . S
Zn58 O99 1.981 . S
Zn59 O60 1.933 . S
Zn59 O74 1.985 . S
Zn59 O81 1.955 . S
O60 Zn58 1.911 . S
O60 Zn59 1.933 . S
O60 H61 0.841 . S
H61 O60 0.841 . S
Zn62 O63 1.933 . S
Zn62 O76 1.985 . S
Zn62 O85 1.955 . S
O63 Zn62 1.933 . S
O63 Zn64 1.911 . S
O63 H65 0.841 . S
Zn64 O63 1.911 . S
Zn64 O77 1.970 . S
Zn64 O93 1.981 . S
Zn64 O95 1.945 . S
H65 O63 0.841 . S
Zn66 O67 1.933 . S
Zn66 O79 1.985 . S
Zn66 O87 1.955 . S
O67 Zn66 1.933 . S
O67 H68 0.841 . S
O67 Zn69 1.911 . S
H68 O67 0.841 . S
Zn69 O67 1.911 . S
Zn69 O80 1.970 . S
Zn69 O90 1.981 . S
Zn69 O98 1.945 . S
C70 O71 1.246 . S
C70 O87 1.276 . S
O71 C70 1.246 . S
O72 Zn52 1.985 . S
O72 C82 1.245 . S
O73 Zn53 1.970 . S
O73 C82 1.263 . S
O74 Zn59 1.985 . S
O74 C86 1.245 . S
O75 Zn58 1.970 . S
O75 C86 1.263 . S
O76 Zn62 1.985 . S
O76 C91 1.245 . S
O77 Zn64 1.970 . S
O77 C91 1.263 . S
C78 O89 1.262 . S
C78 O90 1.245 . S
O79 Zn66 1.985 . S
O79 C97 1.245 . S
O80 Zn69 1.970 . S
O80 C97 1.263 . S
O81 Zn59 1.955 . S
O81 C100 1.276 . S
C82 O72 1.245 . S
C82 O73 1.263 . S
O83 Zn52 1.955 . S
O83 C102 1.276 . S
C84 O92 1.262 . S
C84 O93 1.245 . S
O85 C56 1.276 . S
O85 Zn62 1.955 . S
C86 O74 1.245 . S
C86 O75 1.263 . S
O87 Zn66 1.955 . S
O87 C70 1.276 . S
C88 O95 1.262 . S
C88 O96 1.245 . S
O89 Zn53 1.945 . S
O89 C78 1.262 . S
O90 Zn69 1.981 . S
O90 C78 1.245 . S
C91 O76 1.245 . S
C91 O77 1.263 . S
O92 Zn58 1.945 . S
O92 C84 1.262 . S
O93 Zn64 1.981 . S
O93 C84 1.245 . S
C94 O98 1.262 . S
C94 O99 1.245 . S
O95 Zn64 1.945 . S
O95 C88 1.262 . S
O96 Zn53 1.981 . S
O96 C88 1.245 . S
C97 O79 1.245 . S
C97 O80 1.263 . S
O98 Zn69 1.945 . S
O98 C94 1.262 . S
O99 Zn58 1.981 . S
O99 C94 1.245 . S
C100 O81 1.276 . S
C100 O101 1.246 . S
O101 C100 1.246 . S
C102 O83 1.276 . S
C102 O103 1.246 . S
O103 C102 1.246 . S
C104 N105 1.317 . S
C104 N106 1.348 1_556 S
C104 C107 1.485 . S
N105 C104 1.317 . S
N105 N109 1.370 1_556 S
N106 C104 1.348 1_554 S
N106 C108 1.346 . S
C107 C104 1.485 . S
C107 H111 0.960 . S
C107 H112 0.961 . S
C107 H113 0.960 . S
C108 N106 1.346 . S
C108 N109 1.307 . S
C108 C110 1.486 . S
N109 N105 1.370 1_554 S
N109 C108 1.307 . S
C110 C108 1.486 . S
C110 H114 0.960 . S
C110 H115 0.960 . S
C110 H116 0.959 . S
H111 C107 0.960 . S
H112 C107 0.961 . S
H113 C107 0.960 . S
H114 C110 0.960 . S
H115 C110 0.960 . S
H116 C110 0.959 . S
C117 N118 1.317 . S
C117 N119 1.348 1_556 S
C117 C120 1.485 . S
N118 C117 1.317 . S
N118 N122 1.370 1_556 S
N119 C117 1.348 1_554 S
N119 C121 1.346 . S
C120 C117 1.485 . S
C120 H124 0.960 . S
C120 H125 0.961 . S
C120 H126 0.960 . S
C121 N119 1.346 . S
C121 N122 1.307 . S
C121 C123 1.486 . S
N122 N118 1.370 1_554 S
N122 C121 1.307 . S
C123 C121 1.486 . S
C123 H127 0.960 . S
C123 H128 0.960 . S
C123 H129 0.959 . S
H124 C120 0.960 . S
H125 C120 0.961 . S
H126 C120 0.960 . S
H127 C123 0.960 . S
H128 C123 0.960 . S
H129 C123 0.959 . S
C130 N131 1.317 . S
C130 N132 1.348 . S
C130 C133 1.485 . S
N131 C130 1.317 . S
N131 N135 1.370 1_554 S
N132 C130 1.348 . S
N132 C134 1.346 1_554 S
C133 C130 1.485 . S
C133 H137 0.960 . S
C133 H138 0.961 . S
C133 H139 0.960 . S
C134 N132 1.346 1_556 S
C134 N135 1.307 . S
C134 C136 1.486 . S
N135 N131 1.370 1_556 S
N135 C134 1.307 . S
C136 C134 1.486 . S
C136 H140 0.960 . S
C136 H141 0.960 . S
C136 H142 0.959 . S
H137 C133 0.960 . S
H138 C133 0.961 . S
H139 C133 0.960 . S
H140 C136 0.960 . S
H141 C136 0.960 . S
H142 C136 0.959 . S
C143 N144 1.317 . S
C143 N145 1.348 . S
C143 C146 1.485 . S
N144 C143 1.317 . S
N144 N148 1.370 1_554 S
N145 C143 1.348 . S
N145 C147 1.346 1_554 S
C146 C143 1.485 . S
C146 H150 0.960 . S
C146 H151 0.961 . S
C146 H152 0.960 . S
C147 N145 1.346 1_556 S
C147 N148 1.307 . S
C147 C149 1.486 . S
N148 N144 1.370 1_556 S
N148 C147 1.307 . S
C149 C147 1.486 . S
C149 H153 0.960 . S
C149 H154 0.960 . S
C149 H155 0.959 . S
H150 C146 0.960 . S
H151 C146 0.961 . S
H152 C146 0.960 . S
H153 C149 0.960 . S
H154 C149 0.960 . S
H155 C149 0.959 . S
C156 N157 1.317 . S
C156 N158 1.348 . S
C156 C159 1.485 . S
N157 C156 1.317 . S
N157 N161 1.370 . S
N158 C156 1.348 . S
N158 C160 1.346 . S
C159 C156 1.485 . S
C159 H163 0.960 . S
C159 H164 0.961 . S
C159 H165 0.960 . S
C160 N158 1.346 . S
C160 N161 1.307 . S
C160 C162 1.486 . S
N161 N157 1.370 . S
N161 C160 1.307 . S
C162 C160 1.486 . S
C162 H166 0.960 . S
C162 H167 0.960 . S
C162 H168 0.959 . S
H163 C159 0.960 . S
H164 C159 0.961 . S
H165 C159 0.960 . S
H166 C162 0.960 . S
H167 C162 0.960 . S
H168 C162 0.959 . S
C169 N170 1.317 . S
C169 N171 1.348 . S
C169 C172 1.485 . S
N170 C169 1.317 . S
N170 N174 1.370 . S
N171 C169 1.348 . S
N171 C173 1.346 . S
C172 C169 1.485 . S
C172 H176 0.960 . S
C172 H177 0.961 . S
C172 H178 0.960 . S
C173 N171 1.346 . S
C173 N174 1.307 . S
C173 C175 1.486 . S
N174 N170 1.370 . S
N174 C173 1.307 . S
C175 C173 1.486 . S
C175 H179 0.960 . S
C175 H180 0.960 . S
C175 H181 0.959 . S
H176 C172 0.960 . S
H177 C172 0.961 . S
H178 C172 0.960 . S
H179 C175 0.960 . S
H180 C175 0.960 . S
H181 C175 0.959 . S
C182 N183 1.317 . S
C182 N184 1.348 . S
C182 C185 1.485 . S
N183 C182 1.317 . S
N183 N187 1.370 . S
N184 C182 1.348 . S
N184 C186 1.346 . S
C185 C182 1.485 . S
C185 H189 0.960 . S
C185 H190 0.961 . S
C185 H191 0.960 . S
C186 N184 1.346 . S
C186 N187 1.307 . S
C186 C188 1.486 . S
N187 N183 1.370 . S
N187 C186 1.307 . S
C188 C186 1.486 . S
C188 H192 0.960 . S
C188 H193 0.960 . S
C188 H194 0.959 . S
H189 C185 0.960 . S
H190 C185 0.961 . S
H191 C185 0.960 . S
H192 C188 0.960 . S
H193 C188 0.960 . S
H194 C188 0.959 . S
C195 N196 1.317 . S
C195 N197 1.348 . S
C195 C198 1.485 . S
N196 C195 1.317 . S
N196 N200 1.370 . S
N197 C195 1.348 . S
N197 C199 1.346 . S
C198 C195 1.485 . S
C198 H202 0.960 . S
C198 H203 0.961 . S
C198 H204 0.960 . S
C199 N197 1.346 . S
C199 N200 1.307 . S
C199 C201 1.486 . S
N200 N196 1.370 . S
N200 C199 1.307 . S
C201 C199 1.486 . S
C201 H205 0.960 . S
C201 H206 0.960 . S
C201 H207 0.959 . S
H202 C198 0.960 . S
H203 C198 0.961 . S
H204 C198 0.960 . S
H205 C201 0.960 . S
H206 C201 0.960 . S
H207 C201 0.959 . S
C208 C209 1.369 . S
C208 C210 1.419 . S
C208 H212 0.930 . S
C209 C208 1.369 . S
C209 C218 1.429 1_554 S
C210 C208 1.419 . S
C210 C211 1.363 . S
C210 H213 0.929 . S
C211 C210 1.363 . S
C211 C217 1.428 1_554 S
H212 C208 0.930 . S
H213 C210 0.929 . S
S214 N215 1.613 . S
S214 N216 1.610 . S
N215 S214 1.613 . S
N215 C218 1.350 . S
N216 S214 1.610 . S
N216 C217 1.351 . S
C217 C211 1.428 1_556 S
C217 N216 1.351 . S
C217 C218 1.434 . S
C218 C209 1.429 1_556 S
C218 N215 1.350 . S
C218 C217 1.434 . S
C219 C220 1.369 . S
C219 C221 1.419 . S
C219 H223 0.930 1_554 S
C220 C219 1.369 . S
C220 C229 1.429 . S
C221 C219 1.419 . S
C221 C222 1.363 . S
C221 H224 0.929 . S
C222 C221 1.363 . S
C222 C228 1.428 . S
H223 C219 0.930 1_556 S
H224 C221 0.929 . S
S225 N226 1.613 . S
S225 N227 1.610 . S
N226 S225 1.613 . S
N226 C229 1.350 . S
N227 S225 1.610 . S
N227 C228 1.351 . S
C228 C222 1.428 . S
C228 N227 1.351 . S
C228 C229 1.434 . S
C229 C220 1.429 . S
C229 N226 1.350 . S
C229 C228 1.434 . S
C230 C231 1.369 1_556 S
C230 C232 1.419 . S
C230 H234 0.930 . S
C231 C230 1.369 1_554 S
C231 C240 1.429 . S
C232 C230 1.419 . S
C232 C233 1.363 1_556 S
C232 H235 0.929 . S
C233 C232 1.363 1_554 S
C233 C239 1.428 . S
H234 C230 0.930 . S
H235 C232 0.929 . S
S236 N237 1.613 . S
S236 N238 1.610 . S
N237 S236 1.613 . S
N237 C240 1.350 . S
N238 S236 1.610 . S
N238 C239 1.351 . S
C239 C233 1.428 . S
C239 N238 1.351 . S
C239 C240 1.434 . S
C240 C231 1.429 . S
C240 N237 1.350 . S
C240 C239 1.434 . S
C241 C242 1.369 . S
C241 C243 1.419 . S
C241 H245 0.930 . S
C242 C241 1.369 . S
C242 C251 1.429 1_554 S
C243 C241 1.419 . S
C243 C244 1.363 . S
C243 H246 0.929 . S
C244 C243 1.363 . S
C244 C250 1.428 1_554 S
H245 C241 0.930 . S
H246 C243 0.929 . S
S247 N248 1.613 . S
S247 N249 1.610 . S
N248 S247 1.613 . S
N248 C251 1.350 . S
N249 S247 1.610 . S
N249 C250 1.351 . S
C250 C244 1.428 1_556 S
C250 N249 1.351 . S
C250 C251 1.434 . S
C251 C242 1.429 1_556 S
C251 N248 1.350 . S
C251 C250 1.434 . S
C252 C253 1.369 . S
C252 C254 1.419 . S
C252 H256 0.930 . S
C253 C252 1.369 . S
C253 C262 1.429 . S
C254 C252 1.419 . S
C254 C255 1.363 . S
C254 H257 0.929 . S
C255 C254 1.363 . S
C255 C261 1.428 . S
H256 C252 0.930 . S
H257 C254 0.929 . S
S258 N259 1.613 . S
S258 N260 1.610 . S
N259 S258 1.613 . S
N259 C262 1.350 . S
N260 S258 1.610 . S
N260 C261 1.351 . S
C261 C255 1.428 . S
C261 N260 1.351 . S
C261 C262 1.434 . S
C262 C253 1.429 . S
C262 N259 1.350 . S
C262 C261 1.434 . S
C263 C264 1.369 . S
C263 C265 1.419 . S
C263 H267 0.930 . S
C264 C263 1.369 . S
C264 C273 1.429 . S
C265 C263 1.419 . S
C265 C266 1.363 . S
C265 H268 0.929 . S
C266 C265 1.363 . S
C266 C272 1.428 . S
H267 C263 0.930 . S
H268 C265 0.929 . S
S269 N270 1.613 . S
S269 N271 1.610 . S
N270 S269 1.613 . S
N270 C273 1.350 . S
N271 S269 1.610 . S
N271 C272 1.351 . S
C272 C266 1.428 . S
C272 N271 1.351 . S
C272 C273 1.434 . S
C273 C264 1.429 . S
C273 N270 1.350 . S
C273 C272 1.434 . S
C274 C275 1.369 . S
C274 C276 1.419 . S
C274 H278 0.930 . S
C275 C274 1.369 . S
C275 C284 1.429 . S
C276 C274 1.419 . S
C276 C277 1.363 . S
C276 H279 0.929 . S
C277 C276 1.363 . S
C277 C283 1.428 . S
H278 C274 0.930 . S
H279 C276 0.929 . S
S280 N281 1.613 . S
S280 N282 1.610 . S
N281 S280 1.613 . S
N281 C284 1.350 . S
N282 S280 1.610 . S
N282 C283 1.351 . S
C283 C277 1.428 . S
C283 N282 1.351 . S
C283 C284 1.434 . S
C284 C275 1.429 . S
C284 N281 1.350 . S
C284 C283 1.434 . S
C285 C286 1.369 . S
C285 C287 1.419 . S
C285 H289 0.930 . S
C286 C285 1.369 . S
C286 C295 1.429 . S
C287 C285 1.419 . S
C287 C288 1.363 . S
C287 H290 0.929 . S
C288 C287 1.363 . S
C288 C294 1.428 . S
H289 C285 0.930 . S
H290 C287 0.929 . S
S291 N292 1.613 . S
S291 N293 1.610 . S
N292 S291 1.613 . S
N292 C295 1.350 . S
N293 S291 1.610 . S
N293 C294 1.351 . S
C294 C288 1.428 . S
C294 N293 1.351 . S
C294 C295 1.434 . S
C295 C286 1.429 . S
C295 N292 1.350 . S
C295 C294 1.434 . S
C296 C297 1.369 . S
C296 C298 1.419 . S
C296 H300 0.930 . S
C297 C296 1.369 . S
C297 C306 1.429 . S
C298 C296 1.419 . S
C298 C299 1.363 . S
C298 H301 0.929 . S
C299 C298 1.363 . S
C299 C305 1.428 . S
H300 C296 0.930 . S
H301 C298 0.929 . S
S302 N303 1.613 . S
S302 N304 1.610 . S
N303 S302 1.613 . S
N303 C306 1.350 . S
N304 S302 1.610 . S
N304 C305 1.351 . S
C305 C299 1.428 . S
C305 N304 1.351 . S
C305 C306 1.434 . S
C306 C297 1.429 . S
C306 N303 1.350 . S
C306 C305 1.434 . S
C307 C308 1.369 . S
C307 C309 1.419 . S
C307 H311 0.930 . S
C308 C307 1.369 . S
C308 C317 1.429 . S
C309 C307 1.419 . S
C309 C310 1.363 . S
C309 H312 0.929 . S
C310 C309 1.363 . S
C310 C316 1.428 . S
H311 C307 0.930 . S
H312 C309 0.929 . S
S313 N314 1.613 . S
S313 N315 1.610 . S
N314 S313 1.613 . S
N314 C317 1.350 . S
N315 S313 1.610 . S
N315 C316 1.351 . S
C316 C310 1.428 . S
C316 N315 1.351 . S
C316 C317 1.434 . S
C317 C308 1.429 . S
C317 N314 1.350 . S
C317 C316 1.434 . S
C318 C319 1.369 . S
C318 C320 1.419 . S
C318 H322 0.930 . S
C319 C318 1.369 . S
C319 C328 1.429 . S
C320 C318 1.419 . S
C320 C321 1.363 . S
C320 H323 0.929 . S
C321 C320 1.363 . S
C321 C327 1.428 . S
H322 C318 0.930 . S
H323 C320 0.929 . S
S324 N325 1.613 . S
S324 N326 1.610 . S
N325 S324 1.613 . S
N325 C328 1.350 . S
N326 S324 1.610 . S
N326 C327 1.351 . S
C327 C321 1.428 . S
C327 N326 1.351 . S
C327 C328 1.434 . S
C328 C319 1.429 . S
C328 N325 1.350 . S
C328 C327 1.434 . S
C329 C330 1.369 . S
C329 C331 1.419 . S
C329 H333 0.930 . S
C330 C329 1.369 . S
C330 C339 1.429 . S
C331 C329 1.419 . S
C331 C332 1.363 . S
C331 H334 0.929 . S
C332 C331 1.363 . S
C332 C338 1.428 . S
H333 C329 0.930 . S
H334 C331 0.929 . S
S335 N336 1.613 . S
S335 N337 1.610 . S
N336 S335 1.613 . S
N336 C339 1.350 1_545 S
N337 S335 1.610 . S
N337 C338 1.351 1_545 S
C338 C332 1.428 . S
C338 N337 1.351 1_565 S
C338 C339 1.434 . S
C339 C330 1.429 . S
C339 N336 1.350 1_565 S
C339 C338 1.434 . S
C340 C341 1.369 . S
C340 C342 1.419 . S
C340 H344 0.930 . S
C341 C340 1.369 . S
C341 C350 1.429 . S
C342 C340 1.419 . S
C342 C343 1.363 . S
C342 H345 0.929 . S
C343 C342 1.363 . S
C343 C349 1.428 . S
H344 C340 0.930 . S
H345 C342 0.929 . S
S346 N347 1.613 . S
S346 N348 1.610 . S
N347 S346 1.613 . S
N347 C350 1.350 . S
N348 S346 1.610 . S
N348 C349 1.351 . S
C349 C343 1.428 . S
C349 N348 1.351 . S
C349 C350 1.434 . S
C350 C341 1.429 . S
C350 N347 1.350 . S
C350 C349 1.434 . S
C351 C352 1.369 . S
C351 C353 1.419 . S
C351 H355 0.930 1_455 S
C352 C351 1.369 . S
C352 C361 1.429 . S
C353 C351 1.419 . S
C353 C354 1.363 . S
C353 H356 0.929 . S
C354 C353 1.363 . S
C354 C360 1.428 . S
H355 C351 0.930 1_655 S
H356 C353 0.929 . S
S357 N358 1.613 . S
S357 N359 1.610 . S
N358 S357 1.613 . S
N358 C361 1.350 . S
N359 S357 1.610 . S
N359 C360 1.351 . S
C360 C354 1.428 . S
C360 N359 1.351 . S
C360 C361 1.434 . S
C361 C352 1.429 . S
C361 N358 1.350 . S
C361 C360 1.434 . S
C362 C363 1.369 . S
C362 C364 1.419 . S
C362 H366 0.930 . S
C363 C362 1.369 . S
C363 C372 1.429 . S
C364 C362 1.419 . S
C364 C365 1.363 . S
C364 H367 0.929 . S
C365 C364 1.363 . S
C365 C371 1.428 . S
H366 C362 0.930 . S
H367 C364 0.929 . S
S368 N369 1.613 1_565 S
S368 N370 1.610 1_565 S
N369 S368 1.613 1_545 S
N369 C372 1.350 . S
N370 S368 1.610 1_545 S
N370 C371 1.351 . S
C371 C365 1.428 . S
C371 N370 1.351 . S
C371 C372 1.434 . S
C372 C363 1.429 . S
C372 N369 1.350 . S
C372 C371 1.434 . S
C373 C374 1.369 . S
C373 C375 1.419 . S
C373 H377 0.930 . S
C374 C373 1.369 . S
C374 C383 1.429 . S
C375 C373 1.419 . S
C375 C376 1.363 . S
C375 H378 0.929 . S
C376 C375 1.363 . S
C376 C382 1.428 . S
H377 C373 0.930 . S
H378 C375 0.929 . S
S379 N380 1.613 . S
S379 N381 1.610 . S
N380 S379 1.613 . S
N380 C383 1.350 . S
N381 S379 1.610 . S
N381 C382 1.351 . S
C382 C376 1.428 . S
C382 N381 1.351 . S
C382 C383 1.434 . S
C383 C374 1.429 . S
C383 N380 1.350 . S
C383 C382 1.434 . S
C384 C385 1.369 . S
C384 C386 1.419 . S
C384 H388 0.930 . S
C385 C384 1.369 . S
C385 C394 1.429 . S
C386 C384 1.419 . S
C386 C387 1.363 . S
C386 H389 0.929 . S
C387 C386 1.363 . S
C387 C393 1.428 . S
H388 C384 0.930 . S
H389 C386 0.929 . S
S390 N391 1.613 . S
S390 N392 1.610 . S
N391 S390 1.613 . S
N391 C394 1.350 . S
N392 S390 1.610 . S
N392 C393 1.351 . S
C393 C387 1.428 . S
C393 N392 1.351 . S
C393 C394 1.434 . S
C394 C385 1.429 . S
C394 N391 1.350 . S
C394 C393 1.434 . S
C395 C396 1.369 . S
C395 C397 1.419 . S
C395 H399 0.930 . S
C396 C395 1.369 . S
C396 C405 1.429 . S
C397 C395 1.419 . S
C397 C398 1.363 . S
C397 H400 0.929 . S
C398 C397 1.363 . S
C398 C404 1.428 . S
H399 C395 0.930 . S
H400 C397 0.929 . S
S401 N402 1.613 . S
S401 N403 1.610 . S
N402 S401 1.613 . S
N402 C405 1.350 . S
N403 S401 1.610 . S
N403 C404 1.351 . S
C404 C398 1.428 . S
C404 N403 1.351 . S
C404 C405 1.434 . S
C405 C396 1.429 . S
C405 N402 1.350 . S
C405 C404 1.434 . S
C406 C407 1.369 . S
C406 C408 1.419 . S
C406 H410 0.930 . S
C407 C406 1.369 . S
C407 C416 1.429 . S
C408 C406 1.419 . S
C408 C409 1.363 . S
C408 H411 0.929 . S
C409 C408 1.363 . S
C409 C415 1.428 . S
H410 C406 0.930 . S
H411 C408 0.929 . S
S412 N413 1.613 . S
S412 N414 1.610 . S
N413 S412 1.613 . S
N413 C416 1.350 . S
N414 S412 1.610 . S
N414 C415 1.351 . S
C415 C409 1.428 . S
C415 N414 1.351 . S
C415 C416 1.434 . S
C416 C407 1.429 . S
C416 N413 1.350 . S
C416 C415 1.434 . S
C417 C418 1.369 . S
C417 C419 1.419 . S
C417 H421 0.930 . S
C418 C417 1.369 . S
C418 C427 1.429 . S
C419 C417 1.419 . S
C419 C420 1.363 . S
C419 H422 0.929 . S
C420 C419 1.363 . S
C420 C426 1.428 . S
H421 C417 0.930 . S
H422 C419 0.929 . S
S423 N424 1.613 . S
S423 N425 1.610 . S
N424 S423 1.613 . S
N424 C427 1.350 . S
N425 S423 1.610 . S
N425 C426 1.351 . S
C426 C420 1.428 . S
C426 N425 1.351 . S
C426 C427 1.434 . S
C427 C418 1.429 . S
C427 N424 1.350 . S
C427 C426 1.434 . S
C428 C429 1.369 . S
C428 C430 1.419 . S
C428 H432 0.930 . S
C429 C428 1.369 . S
C429 C438 1.429 . S
C430 C428 1.419 . S
C430 C431 1.363 . S
C430 H433 0.929 . S
C431 C430 1.363 . S
C431 C437 1.428 . S
H432 C428 0.930 . S
H433 C430 0.929 . S
S434 N435 1.613 . S
S434 N436 1.610 . S
N435 S434 1.613 . S
N435 C438 1.350 . S
N436 S434 1.610 . S
N436 C437 1.351 . S
C437 C431 1.428 . S
C437 N436 1.351 . S
C437 C438 1.434 . S
C438 C429 1.429 . S
C438 N435 1.350 . S
C438 C437 1.434 . S
C439 C440 1.369 . S
C439 C441 1.419 . S
C439 H443 0.930 . S
C440 C439 1.369 . S
C440 C449 1.429 . S
C441 C439 1.419 . S
C441 C442 1.363 . S
C441 H444 0.929 . S
C442 C441 1.363 . S
C442 C448 1.428 . S
H443 C439 0.930 . S
H444 C441 0.929 . S
S445 N446 1.613 . S
S445 N447 1.610 . S
N446 S445 1.613 . S
N446 C449 1.350 . S
N447 S445 1.610 . S
N447 C448 1.351 . S
C448 C442 1.428 . S
C448 N447 1.351 . S
C448 C449 1.434 . S
C449 C440 1.429 . S
C449 N446 1.350 . S
C449 C448 1.434 . S
C450 C451 1.369 . S
C450 C452 1.419 . S
C450 H454 0.930 . S
C451 C450 1.369 . S
C451 C460 1.429 . S
C452 C450 1.419 . S
C452 C453 1.363 . S
C452 H455 0.929 . S
C453 C452 1.363 . S
C453 C459 1.428 . S
H454 C450 0.930 . S
H455 C452 0.929 . S
S456 N457 1.613 . S
S456 N458 1.610 . S
N457 S456 1.613 . S
N457 C460 1.350 . S
N458 S456 1.610 . S
N458 C459 1.351 . S
C459 C453 1.428 . S
C459 N458 1.351 . S
C459 C460 1.434 . S
C460 C451 1.429 . S
C460 N457 1.350 . S
C460 C459 1.434 . S
C461 C462 1.369 . S
C461 C463 1.419 . S
C461 H465 0.930 . S
C462 C461 1.369 . S
C462 C471 1.429 . S
C463 C461 1.419 . S
C463 C464 1.363 . S
C463 H466 0.929 . S
C464 C463 1.363 . S
C464 C470 1.428 . S
H465 C461 0.930 . S
H466 C463 0.929 . S
S467 N468 1.613 . S
S467 N469 1.610 . S
N468 S467 1.613 . S
N468 C471 1.350 . S
N469 S467 1.610 . S
N469 C470 1.351 . S
C470 C464 1.428 . S
C470 N469 1.351 . S
C470 C471 1.434 . S
C471 C462 1.429 . S
C471 N468 1.350 . S
C471 C470 1.434 . S
C209 C45 1.530 . S
C211 N106 1.546 . S
C220 C30 1.530 . S
C222 N119 1.546 . S
C231 C39 1.534 . S
C233 N132 1.533 . S
C244 N145 1.533 . S
C242 C34 1.533 . S
C253 C97 1.535 . S
C255 N158 1.543 . S
C266 N171 1.532 . S
C264 C82 1.535 . S
C277 N184 1.533 . S
C275 C91 1.534 . S
C288 N197 1.536 . S
C286 C86 1.530 . S
C299 N187 1.519 . S
C297 C26 1.486 . S
C310 N200 1.517 . S
C308 C36 1.488 . S
C321 N157 1.527 . S
C319 C32 1.488 . S
C332 N174 1.521 . S
C330 C42 1.481 . S
C341 C18 1.520 . S
C343 N170 1.572 . S
C354 N183 1.569 . S
C352 C50 1.530 . S
C363 C4 1.522 . S
C365 N196 1.574 . S
C374 C48 1.524 . S
C376 N161 1.587 . S
C387 N135 1.519 . S
C385 C78 1.479 . S
C396 C88 1.479 . S
C398 N148 1.519 . S
C409 N105 1.526 . S
C407 C84 1.486 . S
C420 N118 1.528 . S
C418 C94 1.487 . S
C431 N122 1.588 . S
C429 C70 1.532 . S
C442 N131 1.573 . S
C440 C102 1.522 . S
C451 C56 1.527 . S
C453 N144 1.569 . S
C462 C100 1.522 . S
C464 N109 1.589 . S
