# Generated by pormake.
# Topology anh, (6,3)-cn, num edge types: 1
# Building blocks:
#     Node 0, Type 0, BuildingBlock: BETDEL_clean_sbu_0, # of connection points: 6
#     Node 1, Type 0, BuildingBlock: BETDEL_clean_sbu_0, # of connection points: 6
#     Node 2, Type 0, BuildingBlock: BETDEL_clean_sbu_0, # of connection points: 6
#     Node 3, Type 1, BuildingBlock: CUQRIR_clean_linker_1, # of connection points: 3
#     Node 4, Type 1, BuildingBlock: CUQRIR_clean_linker_1, # of connection points: 3
#     Node 5, Type 1, BuildingBlock: CUQRIR_clean_linker_1, # of connection points: 3
#     Node 6, Type 1, BuildingBlock: CUQRIR_clean_linker_1, # of connection points: 3
#     Node 7, Type 1, BuildingBlock: CUQRIR_clean_linker_1, # of connection points: 3
#     Node 8, Type 1, BuildingBlock: CUQRIR_clean_linker_1, # of connection points: 3
#     Edge 9, Type (0, 1), BuildingBlock: XUDNAN_clean_linker_2, # of connection points: 2
#     Edge 10, Type (0, 1), BuildingBlock: XUDNAN_clean_linker_2, # of connection points: 2
#     Edge 11, Type (0, 1), BuildingBlock: XUDNAN_clean_linker_2, # of connection points: 2
#     Edge 12, Type (0, 1), BuildingBlock: XUDNAN_clean_linker_2, # of connection points: 2
#     Edge 13, Type (0, 1), BuildingBlock: XUDNAN_clean_linker_2, # of connection points: 2
#     Edge 14, Type (0, 1), BuildingBlock: XUDNAN_clean_linker_2, # of connection points: 2
#     Edge 15, Type (0, 1), BuildingBlock: XUDNAN_clean_linker_2, # of connection points: 2
#     Edge 16, Type (0, 1), BuildingBlock: XUDNAN_clean_linker_2, # of connection points: 2
#     Edge 17, Type (0, 1), BuildingBlock: XUDNAN_clean_linker_2, # of connection points: 2
#     Edge 18, Type (0, 1), BuildingBlock: XUDNAN_clean_linker_2, # of connection points: 2
#     Edge 19, Type (0, 1), BuildingBlock: XUDNAN_clean_linker_2, # of connection points: 2
#     Edge 20, Type (0, 1), BuildingBlock: XUDNAN_clean_linker_2, # of connection points: 2
#     Edge 21, Type (0, 1), BuildingBlock: XUDNAN_clean_linker_2, # of connection points: 2
#     Edge 22, Type (0, 1), BuildingBlock: XUDNAN_clean_linker_2, # of connection points: 2
#     Edge 23, Type (0, 1), BuildingBlock: XUDNAN_clean_linker_2, # of connection points: 2
#     Edge 24, Type (0, 1), BuildingBlock: XUDNAN_clean_linker_2, # of connection points: 2
#     Edge 25, Type (0, 1), BuildingBlock: XUDNAN_clean_linker_2, # of connection points: 2
#     Edge 26, Type (0, 1), BuildingBlock: XUDNAN_clean_linker_2, # of connection points: 2
# Relax obj value: 0.127
# Max RMSD: 0.199
# Mean RMSD: 0.139
data_MOF--net-anh--node1-BETDEL_clean_sbu_0--node2-CUQRIR_clean_linker_1--edge1-XUDNAN_clean_linker_2
_symmetry_space_group_name_H-M    P1
_symmetry_Int_Tables_number       1
_symmetry_cell_setting            triclinic
loop_
_symmetry_equiv_pos_as_xyz
'x, y, z'
_cell_length_a     27.452252
_cell_length_b     27.31572
_cell_length_c     44.926939
_cell_angle_alpha  85.66868
_cell_angle_beta   89.758564
_cell_angle_gamma 119.89612
loop_
_atom_site_label
_atom_site_type_symbol
_atom_site_fract_x
_atom_site_fract_y
_atom_site_fract_z
_atom_type_partial_charge
Dy0 Dy 0.06815 0.48108 0.18433 0.0
C1 C 0.93518 0.57569 0.1471 0.0
C2 C 0.14226 0.44303 0.19157 0.0
Dy3 Dy 0.99981 0.52852 0.16277 0.0
O4 O 0.13518 0.47418 0.20959 0.0
O5 O 0.1094 0.43328 0.16938 0.0
O6 O 1.01609 0.44243 0.22673 0.0
O7 O 1.02675 0.51978 0.2075 0.0
C8 C 1.00152 0.48061 0.22825 0.0
C9 C 0.04047 0.49417 0.11859 0.0
O10 O 0.07946 0.61149 0.16916 0.0
O11 O 0.13517 0.57323 0.18405 0.0
O12 O 0.97651 0.57997 0.13088 0.0
O13 O 0.93101 0.54782 0.17259 0.0
O14 O 0.9888 0.48255 0.12167 0.0
O15 O 0.06662 0.52052 0.14038 0.0
O16 O 0.98846 0.40139 0.17405 0.0
O17 O 0.93081 0.43938 0.17692 0.0
C18 C 0.12873 0.61781 0.17742 0.0
C19 C 0.93718 0.39456 0.1767 0.0
Dy20 Dy 0.55673 0.05033 0.49764 0.0
C21 C 0.7817 0.21457 0.52936 0.0
C22 C 0.45652 0.98076 0.47491 0.0
Dy23 Dy 0.68802 0.13214 0.50599 0.0
O24 O 0.47396 0.96953 0.49998 0.0
O25 O 0.49393 0.02984 0.46212 0.0
O26 O 0.53594 0.06448 0.54328 0.0
O27 O 0.61417 0.07058 0.53381 0.0
C28 C 0.58547 0.07829 0.55297 0.0
C29 C 0.6626 0.1262 0.44763 0.0
O30 O 0.68387 0.04728 0.51297 0.0
O31 O 0.59142 0.98988 0.49829 0.0
O32 O 0.78202 0.18471 0.50806 0.0
O33 O 0.73026 0.19516 0.53926 0.0
O34 O 0.7132 0.15804 0.45622 0.0
O35 O 0.63157 0.10175 0.47062 0.0
O36 O 0.56199 0.13605 0.4924 0.0
O37 O 0.65191 0.1899 0.50958 0.0
C38 C 0.64101 0.99699 0.50691 0.0
C39 C 0.6033 0.18446 0.50117 0.0
Dy40 Dy 0.62578 0.70611 0.83224 0.0
C41 C 0.51515 0.47004 0.86382 0.0
C42 C 0.66788 0.81545 0.8087 0.0
Dy43 Dy 0.55521 0.58085 0.84356 0.0
O44 O 0.68552 0.7997 0.83224 0.0
O45 O 0.62778 0.77128 0.79765 0.0
O46 O 0.66183 0.71561 0.87712 0.0
O47 O 0.5791 0.64975 0.87187 0.0
C48 C 0.61884 0.66992 0.88951 0.0
C49 C 0.5684 0.61953 0.78521 0.0
O50 O 0.48742 0.60004 0.85644 0.0
O51 O 0.53653 0.69268 0.83543 0.0
O52 O 0.49208 0.48784 0.84388 0.0
O53 O 0.55911 0.51306 0.87319 0.0
O54 O 0.5232 0.57562 0.79718 0.0
O55 O 0.60546 0.6375 0.80433 0.0
O56 O 0.69572 0.68594 0.82595 0.0
O57 O 0.64263 0.59229 0.84527 0.0
C58 C 0.48905 0.64827 0.84749 0.0
C59 C 0.69179 0.63692 0.83591 0.0
C60 C 0.52901 1.0107 0.19869 0.0
N61 N 0.5658 0.04647 0.21774 0.0
N62 N 0.48037 0.97024 0.21355 0.0
C63 C 0.54126 1.01425 0.16577 0.0
C64 C 0.48896 0.98313 0.24233 0.0
N65 N 0.54093 0.0287 0.24504 0.0
C66 C 0.44416 0.95432 0.26718 0.0
H67 H 0.53095 0.04501 0.15414 0.0
H68 H 0.51544 0.97243 0.15687 0.0
H69 H 0.58655 0.02965 0.16102 0.0
H70 H 0.44689 0.91808 0.27821 0.0
H71 H 0.40159 0.93754 0.25833 0.0
H72 H 0.44953 0.98396 0.28411 0.0
C73 C 0.61901 0.58821 0.52629 0.0
N74 N 0.61863 0.62415 0.54563 0.0
N75 N 0.60732 0.53773 0.54092 0.0
C76 C 0.63186 0.60295 0.49327 0.0
C77 C 0.59933 0.54426 0.56984 0.0
N78 N 0.60587 0.59639 0.57273 0.0
C79 C 0.58585 0.49987 0.59544 0.0
H80 H 0.61262 0.62816 0.48451 0.0
H81 H 0.61661 0.56441 0.48114 0.0
H82 H 0.67809 0.62942 0.48913 0.0
H83 H 0.59679 0.46769 0.5897 0.0
H84 H 0.54006 0.47786 0.60129 0.0
H85 H 0.60858 0.51982 0.61542 0.0
C86 C 0.08608 0.63183 0.86367 0.0
N87 N 0.11853 0.62199 0.88354 0.0
N88 N 0.03634 0.62026 0.87688 0.0
C89 C 0.10188 0.65095 0.83111 0.0
C90 C 0.03908 0.60206 0.90533 0.0
N91 N 0.08835 0.60232 0.90943 0.0
C92 C 0.99394 0.58616 0.92937 0.0
H93 H 0.12328 0.69791 0.82811 0.0
H94 H 0.06386 0.63394 0.81772 0.0
H95 H 0.13093 0.63728 0.82275 0.0
H96 H 0.96404 0.53988 0.93037 0.0
H97 H 0.9699 0.6083 0.92444 0.0
H98 H 1.01227 0.59678 0.95153 0.0
C99 C 0.04407 0.64711 0.45919 0.0
N100 N 1.00421 0.60031 0.44727 0.0
N101 N 0.07686 0.68769 0.43732 0.0
C102 C 0.053 0.65187 0.49214 0.0
C103 C 0.05547 0.66393 0.41171 0.0
N104 N 1.01133 0.61096 0.41774 0.0
C105 C 0.081 0.69051 0.38085 0.0
H106 H 1.01248 0.63631 0.50475 0.0
H107 H 0.08175 0.69628 0.49701 0.0
H108 H 0.07086 0.625 0.50025 0.0
H109 H 0.12759 0.71443 0.3811 0.0
H110 H 0.06672 0.72073 0.37337 0.0
H111 H 0.06828 0.65845 0.36441 0.0
C112 C 0.61363 0.16422 0.80912 0.0
N113 N 0.63047 0.14752 0.78542 0.0
N114 N 0.58882 0.19434 0.79975 0.0
C115 C 0.61712 0.14723 0.84131 0.0
C116 C 0.59136 0.19571 0.76961 0.0
N117 N 0.61622 0.16671 0.76084 0.0
C118 C 0.57256 0.22839 0.74891 0.0
H119 H 0.61055 0.10359 0.84397 0.0
H120 H 0.58565 0.14951 0.85582 0.0
H121 H 0.65971 0.17659 0.84875 0.0
H122 H 0.59737 0.24257 0.7273 0.0
H123 H 0.57697 0.26593 0.75927 0.0
H124 H 0.52752 0.20077 0.74456 0.0
C125 C 0.51341 0.44082 0.13565 0.0
N126 N 0.55103 0.47254 0.11277 0.0
N127 N 0.46306 0.4371 0.13087 0.0
C128 C 0.5244 0.41053 0.16181 0.0
C129 C 0.4713 0.46773 0.10428 0.0
N130 N 0.52441 0.48857 0.09314 0.0
C131 C 0.42999 0.48357 0.09114 0.0
H132 H 0.48508 0.37125 0.16992 0.0
H133 H 0.53968 0.43834 0.18038 0.0
H134 H 0.55683 0.39968 0.1556 0.0
H135 H 0.4514 0.52306 0.07592 0.0
H136 H 0.40612 0.4898 0.10901 0.0
H137 H 0.39964 0.44877 0.07824 0.0
H138 H 0.16285 0.38108 0.1542 0.0
H139 H 0.21938 0.46892 0.23435 0.0
H140 H 0.3008 0.45377 0.23412 0.0
H141 H 0.21975 0.27888 0.17052 0.0
H142 H 0.23907 0.28471 0.13147 0.0
H143 H 0.17788 0.2886 0.14243 0.0
H144 H 0.21783 0.38544 0.11098 0.0
H145 H 0.2787 0.3818 0.10001 0.0
H146 H 0.28705 0.44223 0.1179 0.0
H147 H 0.38565 0.45197 0.21815 0.0
H148 H 0.46619 0.46363 0.18768 0.0
H149 H 0.35429 0.37032 0.11983 0.0
C150 C 0.1913 0.39511 0.17231 0.0
C151 C 0.18511 0.42595 0.19432 0.0
C152 C 0.22346 0.44489 0.21738 0.0
C153 C 0.26957 0.43611 0.21753 0.0
C154 C 0.27596 0.40747 0.19477 0.0
C155 C 0.23737 0.38648 0.17278 0.0
C156 C 0.25807 0.3651 0.14836 0.0
C157 C 0.22151 0.30047 0.1482 0.0
C158 C 0.26059 0.39549 0.11753 0.0
C159 C 0.31618 0.38161 0.15876 0.0
C160 C 0.32521 0.40467 0.18598 0.0
C161 C 0.37856 0.43194 0.19749 0.0
C162 C 0.42412 0.43813 0.18015 0.0
C163 C 0.41587 0.41704 0.15173 0.0
C164 C 0.36098 0.38572 0.14178 0.0
H165 H 0.88301 0.27531 0.49786 0.0
H166 H 0.77306 0.29009 0.56174 0.0
H167 H 0.8217 0.39316 0.54879 0.0
H168 H 1.01268 0.4189 0.50974 0.0
H169 H 0.03405 0.42945 0.4707 0.0
H170 H 0.99784 0.35888 0.48943 0.0
H171 H 0.92394 0.32891 0.44887 0.0
H172 H 0.95812 0.39984 0.43086 0.0
H173 H 0.885 0.36568 0.44304 0.0
H174 H 0.86465 0.48831 0.51981 0.0
H175 H 0.91903 0.57669 0.48633 0.0
H176 H 1.00878 0.50392 0.44594 0.0
C177 C 0.87126 0.30065 0.51027 0.0
C178 C 0.82417 0.27475 0.53066 0.0
C179 C 0.8092 0.30909 0.54609 0.0
C180 C 0.83624 0.3677 0.53868 0.0
C181 C 0.87929 0.39137 0.51655 0.0
C182 C 0.89857 0.35949 0.50351 0.0
C183 C 0.94372 0.39502 0.47925 0.0
C184 C 1.00045 0.40093 0.4878 0.0
C185 C 0.92661 0.37087 0.44872 0.0
C186 C 0.9446 0.45077 0.47972 0.0
C187 C 0.9067 0.44764 0.50115 0.0
C188 C 0.89591 0.49197 0.50366 0.0
C189 C 0.92639 0.54159 0.48449 0.0
C190 C 0.96749 0.54657 0.46353 0.0
C191 C 0.97656 0.50059 0.46116 0.0
H192 H 0.60952 0.85144 0.77338 0.0
H193 H 0.75649 0.9112 0.8267 0.0
H194 H 0.77005 1.00795 0.82076 0.0
H195 H 0.65913 0.98672 0.72282 0.0
H196 H 0.58943 0.97757 0.7232 0.0
H197 H 0.59849 0.91639 0.72594 0.0
H198 H 0.53597 0.87846 0.77496 0.0
H199 H 0.52724 0.93958 0.7726 0.0
H200 H 0.55474 0.92248 0.80565 0.0
H201 H 0.75898 0.09356 0.81589 0.0
H202 H 0.72489 0.16245 0.81116 0.0
H203 H 0.58333 0.04586 0.76297 0.0
C204 C 0.64584 0.88545 0.78274 0.0
C205 C 0.68245 0.87436 0.80016 0.0
C206 C 0.72842 0.91925 0.813 0.0
C207 C 0.73645 0.97426 0.80971 0.0
C208 C 0.69817 0.98347 0.79347 0.0
C209 C 0.65403 0.94042 0.77992 0.0
C210 C 0.61485 0.95962 0.76693 0.0
C211 C 0.61554 0.9601 0.73268 0.0
C212 C 0.55468 0.92286 0.78089 0.0
C213 C 0.64242 1.01921 0.77645 0.0
C214 C 0.69102 0.0326 0.79122 0.0
C215 C 0.7216 0.08395 0.80387 0.0
C216 C 0.70189 0.12252 0.80134 0.0
C217 C 0.65202 0.10913 0.78657 0.0
C218 C 0.62223 0.05714 0.77382 0.0
H219 H 0.85136 0.57984 0.17761 0.0
H220 H 0.91143 0.5775 0.08861 0.0
H221 H 0.81967 0.55591 0.06907 0.0
H222 H 0.72011 0.46885 0.17623 0.0
H223 H 0.68312 0.49729 0.19529 0.0
H224 H 0.75594 0.52199 0.20197 0.0
H225 H 0.78175 0.62581 0.18673 0.0
H226 H 0.70857 0.60178 0.18096 0.0
H227 H 0.76082 0.64316 0.15132 0.0
H228 H 0.71605 0.51226 0.06212 0.0
H229 H 0.61278 0.47192 0.06563 0.0
H230 H 0.62346 0.51653 0.15684 0.0
C231 C 0.84585 0.57725 0.15381 0.0
C232 C 0.88819 0.58039 0.13458 0.0
C233 C 0.87958 0.57587 0.10364 0.0
C234 C 0.82747 0.56318 0.09236 0.0
C235 C 0.78531 0.55704 0.1122 0.0
C236 C 0.7946 0.56619 0.14205 0.0
C237 C 0.74156 0.55488 0.15881 0.0
C238 C 0.7242 0.50797 0.18458 0.0
C239 C 0.7486 0.60968 0.17011 0.0
C240 C 0.70051 0.5351 0.13412 0.0
C241 C 0.72636 0.53609 0.10747 0.0
C242 C 0.69566 0.51337 0.08252 0.0
C243 C 0.63718 0.49045 0.0847 0.0
C244 C 0.6104 0.49181 0.11135 0.0
C245 C 0.64271 0.51457 0.13626 0.0
H246 H 0.38682 0.86857 0.49041 0.0
H247 H 0.40067 1.01228 0.43489 0.0
H248 H 0.30296 0.95285 0.41967 0.0
H249 H 0.30607 0.76383 0.43871 0.0
H250 H 0.26504 0.70961 0.46823 0.0
H251 H 0.33577 0.76387 0.47443 0.0
H252 H 0.29888 0.78971 0.52051 0.0
H253 H 0.22793 0.73609 0.51419 0.0
H254 H 0.24483 0.80852 0.51612 0.0
H255 H 0.20153 0.87889 0.41357 0.0
H256 H 0.10772 0.79263 0.41217 0.0
H257 H 0.16473 0.69664 0.46797 0.0
C258 C 0.36928 0.88733 0.47492 0.0
C259 C 0.40058 0.94477 0.46391 0.0
C260 C 0.37693 0.9681 0.44347 0.0
C261 C 0.32158 0.93483 0.43485 0.0
C262 C 0.29131 0.87835 0.44653 0.0
C263 C 0.31472 0.85453 0.46566 0.0
C264 C 0.27405 0.79249 0.47437 0.0
C265 C 0.29658 0.75526 0.46325 0.0
C266 C 0.26065 0.78107 0.50831 0.0
C267 C 0.22373 0.7853 0.45755 0.0
C268 C 0.23417 0.83536 0.44188 0.0
C269 C 0.19308 0.8393 0.42548 0.0
C270 C 0.14017 0.79043 0.4248 0.0
C271 C 0.12942 0.7386 0.4401 0.0
C272 C 0.17179 0.73614 0.45657 0.0
H273 H 0.59072 0.43803 0.8797 0.0
H274 H 0.42033 0.37345 0.85159 0.0
H275 H 0.41488 0.28294 0.84227 0.0
H276 H 0.63293 0.3967 0.82331 0.0
H277 H 0.67984 0.37805 0.84236 0.0
H278 H 0.66504 0.42895 0.85678 0.0
H279 H 0.63098 0.36911 0.90785 0.0
H280 H 0.64679 0.31817 0.89383 0.0
H281 H 0.57735 0.29539 0.90937 0.0
H282 H 0.4353 0.21167 0.82437 0.0
H283 H 0.4796 0.16408 0.80015 0.0
H284 H 0.63823 0.27579 0.83744 0.0
C285 C 0.55123 0.40356 0.87323 0.0
C286 C 0.50551 0.41193 0.86685 0.0
C287 C 0.45534 0.36717 0.85706 0.0
C288 C 0.45196 0.31569 0.85174 0.0
C289 C 0.49921 0.30998 0.85628 0.0
C290 C 0.54783 0.35255 0.86714 0.0
C291 C 0.59602 0.34069 0.86467 0.0
C292 C 0.64634 0.38893 0.84564 0.0
C293 C 0.61381 0.33019 0.89578 0.0
C294 C 0.56796 0.28679 0.84898 0.0
C295 C 0.51171 0.26895 0.84509 0.0
C296 C 0.47875 0.22419 0.82805 0.0
C297 C 0.50412 0.19768 0.81425 0.0
C298 C 0.56175 0.21631 0.81741 0.0
C299 C 0.59369 0.2603 0.83554 0.0
H300 H 0.56012 0.88483 0.52297 0.0
H301 H 0.73841 0.99317 0.50048 0.0
H302 H 0.7515 0.90979 0.5073 0.0
H303 H 0.57737 0.79623 0.58145 0.0
H304 H 0.51493 0.73207 0.57338 0.0
H305 H 0.51888 0.79965 0.56549 0.0
H306 H 0.49686 0.7787 0.5104 0.0
H307 H 0.4928 0.71104 0.51813 0.0
H308 H 0.54025 0.76087 0.48865 0.0
H309 H 0.74479 0.81318 0.51506 0.0
H310 H 0.71989 0.7129 0.52694 0.0
H311 H 0.54787 0.66726 0.54843 0.0
C312 C 0.60187 0.89095 0.51925 0.0
C313 C 0.64823 0.9459 0.51082 0.0
C314 C 0.70223 0.95186 0.50683 0.0
C315 C 0.71004 0.90456 0.51062 0.0
C316 C 0.66364 0.85117 0.51899 0.0
C317 C 0.61066 0.84419 0.52364 0.0
C318 C 0.56833 0.78251 0.53385 0.0
C319 C 0.54341 0.77733 0.56541 0.0
C320 C 0.52181 0.75677 0.51142 0.0
C321 C 0.60555 0.75577 0.53387 0.0
C322 C 0.66033 0.79613 0.52493 0.0
C323 C 0.70211 0.78148 0.52229 0.0
C324 C 0.68771 0.72449 0.52899 0.0
C325 C 0.63223 0.68257 0.53868 0.0
C326 C 0.59071 0.69863 0.54126 0.0
H327 H 0.80169 0.71144 0.85107 0.0
H328 H 0.69543 0.54345 0.82247 0.0
H329 H 0.77452 0.52481 0.82579 0.0
H330 H 0.93547 0.74013 0.81496 0.0
H331 H 0.97673 0.77392 0.84603 0.0
H332 H 0.91367 0.77683 0.83866 0.0
H333 H 0.87455 0.7335 0.89258 0.0
H334 H 0.9375 0.73061 0.9001 0.0
H335 H 0.86968 0.66714 0.90579 0.0
H336 H 0.8643 0.52227 0.83382 0.0
H337 H 0.95556 0.53373 0.84983 0.0
H338 H 1.00423 0.70051 0.8761 0.0
C339 C 0.79559 0.67129 0.84486 0.0
C340 C 0.74231 0.62931 0.83588 0.0
C341 C 0.73572 0.57655 0.82904 0.0
C342 C 0.78059 0.56556 0.83083 0.0
C343 C 0.83229 0.60737 0.83996 0.0
C344 C 0.83999 0.65905 0.84718 0.0
C345 C 0.89862 0.69463 0.85877 0.0
C346 C 0.93316 0.74965 0.83838 0.0
C347 C 0.89484 0.7072 0.89124 0.0
C348 C 0.92251 0.655 0.85691 0.0
C349 C 0.88361 0.60513 0.84564 0.0
C350 C 0.89515 0.56135 0.84244 0.0
C351 C 0.94715 0.56822 0.85139 0.0
C352 C 0.98729 0.61825 0.86356 0.0
C353 C 0.97479 0.66236 0.86618 0.0
H354 H 0.22521 0.65113 0.20932 0.0
H355 H 0.14574 0.71801 0.14862 0.0
H356 H 0.2285 0.81415 0.14934 0.0
H357 H 0.28537 0.77071 0.25433 0.0
H358 H 0.34869 0.7678 0.26066 0.0
H359 H 0.28421 0.70412 0.25446 0.0
H360 H 0.33383 0.68703 0.21063 0.0
H361 H 0.39839 0.75085 0.21659 0.0
H362 H 0.36856 0.74173 0.18038 0.0
H363 H 0.32279 0.90447 0.1559 0.0
H364 H 0.41437 0.9806 0.17173 0.0
H365 H 0.43058 0.85677 0.23021 0.0
C366 C 0.22519 0.68593 0.19609 0.0
C367 C 0.17856 0.67643 0.17872 0.0
C368 C 0.18046 0.7237 0.16213 0.0
C369 C 0.22762 0.77865 0.1623 0.0
C370 C 0.27285 0.78647 0.17951 0.0
C371 C 0.27163 0.74141 0.19645 0.0
C372 C 0.32459 0.7616 0.21409 0.0
C373 C 0.30982 0.75039 0.24789 0.0
C374 C 0.35833 0.73363 0.20486 0.0
C375 C 0.35596 0.8249 0.20436 0.0
C376 C 0.32572 0.83835 0.18412 0.0
C377 C 0.34654 0.89417 0.17179 0.0
C378 C 0.3988 0.9372 0.18072 0.0
C379 C 0.42978 0.92474 0.20204 0.0
C380 C 0.40791 0.86757 0.2138 0.0
H381 H 0.67376 0.28684 0.52412 0.0
H382 H 0.51455 0.19724 0.48166 0.0
H383 H 0.50109 0.27986 0.48471 0.0
H384 H 0.62948 0.35135 0.57586 0.0
H385 H 0.69555 0.41708 0.57377 0.0
H386 H 0.69404 0.35227 0.56686 0.0
H387 H 0.74524 0.39729 0.51512 0.0
H388 H 0.7475 0.46245 0.52215 0.0
H389 H 0.71638 0.42823 0.48898 0.0
H390 H 0.50406 0.37301 0.49352 0.0
H391 H 0.52144 0.46539 0.50937 0.0
H392 H 0.67754 0.49404 0.54661 0.0
C393 C 0.63612 0.28448 0.51521 0.0
C394 C 0.59527 0.23494 0.50247 0.0
C395 C 0.54659 0.23422 0.49146 0.0
C396 C 0.53863 0.28122 0.49305 0.0
C397 C 0.57962 0.32913 0.50577 0.0
C398 C 0.6274 0.33096 0.51674 0.0
C399 C 0.66427 0.38673 0.53024 0.0
C400 C 0.67122 0.3762 0.56367 0.0
C401 C 0.72175 0.42068 0.5131 0.0
C402 C 0.62957 0.41587 0.52551 0.0
C403 C 0.58109 0.38213 0.51109 0.0
C404 C 0.54203 0.39966 0.50469 0.0
C405 C 0.55223 0.45228 0.5136 0.0
C406 C 0.60093 0.487 0.52889 0.0
C407 C 0.64028 0.46857 0.53463 0.0
H408 H 0.38155 0.56785 0.87178 0.0
H409 H 0.47906 0.74213 0.83307 0.0
H410 H 0.39644 0.75384 0.83953 0.0
H411 H 0.25083 0.53709 0.83831 0.0
H412 H 0.20667 0.49416 0.87051 0.0
H413 H 0.27374 0.49904 0.86365 0.0
H414 H 0.30303 0.53231 0.91637 0.0
H415 H 0.23607 0.52769 0.92335 0.0
H416 H 0.30036 0.59325 0.92709 0.0
H417 H 0.30315 0.74767 0.84968 0.0
H418 H 0.20516 0.72295 0.86174 0.0
H419 H 0.16436 0.55253 0.89353 0.0
C420 C 0.38564 0.60856 0.86471 0.0
C421 C 0.43765 0.65412 0.85187 0.0
C422 C 0.44041 0.70645 0.84296 0.0
C423 C 0.39343 0.71362 0.84658 0.0
C424 C 0.34316 0.66817 0.85923 0.0
C425 C 0.33875 0.61655 0.86817 0.0
C426 C 0.27913 0.5745 0.88078 0.0
C427 C 0.25093 0.52315 0.8622 0.0
C428 C 0.2797 0.55583 0.91386 0.0
C429 C 0.25074 0.6104 0.87727 0.0
C430 C 0.28881 0.66441 0.86489 0.0
C431 C 0.27307 0.70543 0.85927 0.0
C432 C 0.21715 0.69097 0.86607 0.0
C433 C 0.17673 0.6358 0.8783 0.0
C434 C 0.19419 0.59512 0.88428 0.0
H435 H 0.8236 0.36134 0.17352 0.0
H436 H 0.93532 0.29422 0.19153 0.0
H437 H 0.85303 0.19849 0.20287 0.0
H438 H 0.71722 0.27348 0.2307 0.0
H439 H 0.65896 0.26355 0.20851 0.0
H440 H 0.72648 0.32692 0.20152 0.0
H441 H 0.72685 0.30659 0.14619 0.0
H442 H 0.65928 0.24318 0.15302 0.0
H443 H 0.71775 0.23925 0.13749 0.0
H444 H 0.75759 0.11001 0.21598 0.0
H445 H 0.65729 0.03565 0.22553 0.0
H446 H 0.60612 0.15655 0.19527 0.0
C447 C 0.83085 0.32647 0.17963 0.0
C448 C 0.88658 0.33591 0.18156 0.0
C449 C 0.89357 0.28865 0.18967 0.0
C450 C 0.84685 0.23388 0.19629 0.0
C451 C 0.79272 0.22617 0.19441 0.0
C452 C 0.78445 0.27108 0.1859 0.0
C453 C 0.72172 0.25101 0.18533 0.0
C454 C 0.70514 0.28051 0.20785 0.0
C455 C 0.70545 0.26058 0.15362 0.0
C456 C 0.69604 0.18798 0.19499 0.0
C457 C 0.73785 0.17472 0.20049 0.0
C458 C 0.72468 0.11994 0.21131 0.0
C459 C 0.66769 0.07789 0.21667 0.0
C460 C 0.62413 0.09014 0.21086 0.0
C461 C 0.63867 0.14589 0.1995 0.0
H462 H 0.99302 0.44278 0.06816 0.0
H463 H 0.14812 0.5755 0.10007 0.0
H464 H 0.18571 0.60971 0.04796 0.0
H465 H 0.06061 0.41891 1.00085 0.0
H466 H 1.00149 0.40608 0.97867 0.0
H467 H 0.99102 0.38651 0.0184 0.0
H468 H 0.94292 0.44676 0.0235 0.0
H469 H 0.95341 0.46654 0.98397 0.0
H470 H 0.98013 0.52067 0.00972 0.0
H471 H 0.19701 0.64198 0.99246 0.0
H472 H 0.18282 0.66337 0.9396 0.0
H473 H 1.02698 0.50332 0.94301 0.0
C474 C 0.03571 0.47767 0.06417 0.0
C475 C 0.06766 0.50624 0.08819 0.0
C476 C 0.12301 0.55247 0.08208 0.0
C477 C 0.14473 0.57233 0.05248 0.0
C478 C 0.11126 0.5446 0.02918 0.0
C479 C 0.05842 0.49728 0.03477 0.0
C480 C 1.0291 0.47762 0.00594 0.0
C481 C 1.02004 0.41878 1.00066 0.0
C482 C 0.97312 0.47796 0.0058 0.0
C483 C 0.07224 0.52291 0.98341 0.0
C484 C 0.11953 0.56125 0.99711 0.0
C485 C 0.16107 0.61117 0.98134 0.0
C486 C 0.153 0.62295 0.95125 0.0
C487 C 0.10407 0.58476 0.93722 0.0
C488 C 0.06497 0.53295 0.9532 0.0
H489 H 0.59883 0.03032 0.41916 0.0
H490 H 0.69094 0.21373 0.40574 0.0
H491 H 0.66825 0.20911 0.35235 0.0
H492 H 0.64981 1.01075 0.35007 0.0
H493 H 0.58537 0.94735 0.34334 0.0
H494 H 0.60365 0.96492 0.38106 0.0
H495 H 0.50847 0.96071 0.3909 0.0
H496 H 0.48979 0.94287 0.35323 0.0
H497 H 0.48939 1.0033 0.36651 0.0
H498 H 0.63211 0.184 0.30082 0.0
H499 H 0.59321 0.14061 0.25406 0.0
H500 H 0.53973 0.97426 0.29868 0.0
C501 C 0.61326 0.06933 0.40497 0.0
C502 C 0.64558 0.12247 0.41644 0.0
C503 C 0.66553 0.17275 0.39724 0.0
C504 C 0.65284 0.17049 0.36697 0.0
C505 C 0.62146 0.11748 0.3561 0.0
C506 C 0.60264 0.06777 0.3744 0.0
C507 C 0.57363 1.01647 0.35657 0.0
C508 C 0.605 0.98291 0.35784 0.0
C509 C 0.51165 0.97861 0.36745 0.0
C510 C 0.57882 0.04509 0.32549 0.0
C511 C 0.60558 0.10329 0.32582 0.0
C512 C 0.61226 0.13854 0.30016 0.0
C513 C 0.59086 0.11361 0.27351 0.0
C514 C 0.56473 0.05419 0.27237 0.0
C515 C 0.55938 1.01979 0.29878 0.0
H516 H 0.50021 0.56394 0.74047 0.0
H517 H 0.6646 0.70491 0.75606 0.0
H518 H 0.68798 0.72242 0.70159 0.0
H519 H 0.54544 0.51072 0.68519 0.0
H520 H 0.48468 0.48931 0.663 0.0
H521 H 0.47856 0.49269 0.70257 0.0
H522 H 0.4391 0.56082 0.69268 0.0
H523 H 0.44524 0.55767 0.65299 0.0
H524 H 0.47888 0.62524 0.66855 0.0
H525 H 0.6969 0.71777 0.6457 0.0
H526 H 0.69127 0.68913 0.59418 0.0
H527 H 0.52071 0.55303 0.61486 0.0
C528 C 0.54069 0.59924 0.73237 0.0
C529 C 0.58054 0.63328 0.75248 0.0
C530 C 0.63339 0.67846 0.74103 0.0
C531 C 0.64694 0.6888 0.71012 0.0
C532 C 0.60707 0.65378 0.69088 0.0
C533 C 0.55491 0.60998 0.7016 0.0
C534 C 0.52119 0.57568 0.6766 0.0
C535 C 0.50664 0.51344 0.68218 0.0
C536 C 0.46795 0.58014 0.67246 0.0
C537 C 0.56301 0.60592 0.65026 0.0
C538 C 0.61209 0.65132 0.65881 0.0
C539 C 0.65826 0.68297 0.63869 0.0
C540 C 0.65466 0.66679 0.60942 0.0
C541 C 0.60541 0.61937 0.60059 0.0
C542 C 0.55862 0.58974 0.62108 0.0
H543 H 0.52105 0.08237 0.59765 0.0
H544 H 0.68599 0.10477 0.57771 0.0
H545 H 0.71312 0.13123 0.62911 0.0
H546 H 0.56186 0.19436 0.64461 0.0
H547 H 0.50183 0.15497 0.67045 0.0
H548 H 0.4964 0.13951 0.63195 0.0
H549 H 0.46354 0.03413 0.64845 0.0
H550 H 0.46852 0.04921 0.68701 0.0
H551 H 0.5063 1.01711 0.67262 0.0
H552 H 0.72256 0.15906 0.68257 0.0
H553 H 0.71122 0.17954 0.73423 0.0
H554 H 0.53697 0.12815 0.71977 0.0
C555 C 0.56295 0.09299 0.60406 0.0
C556 C 0.60199 0.09294 0.58361 0.0
C557 C 0.65603 0.10602 0.59292 0.0
C558 C 0.67162 0.12072 0.62208 0.0
C559 C 0.63215 0.12081 0.64168 0.0
C560 C 0.57866 0.10648 0.63313 0.0
C561 C 0.54328 0.10779 0.65858 0.0
C562 C 0.52478 0.15178 0.65093 0.0
C563 C 0.49242 0.04853 0.66717 0.0
C564 C 0.58542 0.12601 0.68271 0.0
C565 C 0.63659 0.13372 0.67259 0.0
C566 C 0.68247 0.15257 0.69079 0.0
C567 C 0.6757 0.16391 0.72003 0.0
C568 C 0.62334 0.1556 0.73076 0.0
C569 C 0.57768 0.1358 0.7119 0.0
H570 H 0.53761 0.5703 0.91888 0.0
H571 H 0.68966 0.72813 0.93206 0.0
H572 H 0.6823 0.69867 0.98595 0.0
H573 H 0.46359 0.55755 0.98749 0.0
H574 H 0.43353 0.48182 0.99378 0.0
H575 H 0.45029 0.51558 0.95622 0.0
H576 H 0.51263 0.47131 0.94639 0.0
H577 H 0.49592 0.43726 0.98389 0.0
H578 H 0.56832 0.4828 0.97103 0.0
H579 H 0.65625 0.65409 0.03863 0.0
H580 H 0.61576 0.59386 0.08631 0.0
H581 H 0.4853 0.4627 0.03839 0.0
C582 C 0.56921 0.59856 0.93318 0.0
C583 C 0.61393 0.65156 0.92151 0.0
C584 C 0.65493 0.68736 0.9407 0.0
C585 C 0.65113 0.67106 0.9713 0.0
C586 C 0.60649 0.61854 0.9822 0.0
C587 C 0.56654 0.58255 0.96373 0.0
C588 C 0.52356 0.52787 0.98105 0.0
C589 C 0.46424 0.52029 0.97954 0.0
C590 C 0.52524 0.4768 0.96992 0.0
C591 C 0.54525 0.53911 0.01215 0.0
C592 C 0.59294 0.59179 0.01238 0.0
C593 C 0.61936 0.61243 0.03872 0.0
C594 C 0.5964 0.57812 0.06557 0.0
C595 C 0.54827 0.52372 0.06563 0.0
C596 C 0.52247 0.50411 0.03863 0.0
H597 H 1.02443 0.45525 0.28387 0.0
H598 H 0.936 0.52853 0.23613 0.0
H599 H 0.90913 0.54987 0.28423 0.0
H600 H 0.93557 0.40127 0.35566 0.0
H601 H 0.99724 0.42334 0.37718 0.0
H602 H 0.99623 0.40096 0.34035 0.0
H603 H 0.08718 0.49685 0.3247 0.0
H604 H 0.0878 0.51841 0.36148 0.0
H605 H 0.08794 0.56222 0.32935 0.0
H606 H 0.90257 0.57383 0.33649 0.0
H607 H 0.93008 0.61243 0.38569 0.0
H608 H 0.0315 0.53295 0.39712 0.0
C609 C 0.99771 0.47398 0.2837 0.0
C610 C 0.98104 0.4892 0.25657 0.0
C611 C 0.94837 0.51597 0.25688 0.0
C612 C 0.9326 0.52772 0.28408 0.0
C613 C 0.95056 0.51299 0.31058 0.0
C614 C 0.98318 0.48741 0.31046 0.0
C615 C 1.00621 0.48556 0.34079 0.0
C616 C 0.98235 0.42411 0.35428 0.0
C617 C 0.07108 0.5177 0.33895 0.0
C618 C 0.98329 0.51598 0.35783 0.0
C619 C 0.94947 0.52953 0.34042 0.0
C620 C 0.9278 0.56222 0.35053 0.0
C621 C 0.94313 0.58357 0.37853 0.0
C622 C 0.98051 0.5731 0.39568 0.0
C623 C 0.99967 0.53791 0.38547 0.0
loop_
_geom_bond_atom_site_label_1
_geom_bond_atom_site_label_2
_geom_bond_distance
_geom_bond_site_symmetry_2
_ccdc_geom_bond_type
Dy0 O4 2.398 . S
Dy0 O5 2.491 . S
Dy0 O6 2.403 . S
Dy0 O7 2.664 1_455 S
Dy0 O11 2.326 . S
Dy0 O15 2.310 . S
Dy0 O16 2.351 1_455 S
C1 O12 1.185 . S
C1 O13 1.355 . S
C2 O4 1.185 . S
C2 O5 1.355 . S
Dy3 O7 2.310 . S
Dy3 O10 2.351 1_655 S
Dy3 O12 2.398 . S
Dy3 O13 2.491 . S
Dy3 O14 2.403 . S
Dy3 O15 2.664 1_655 S
Dy3 O17 2.326 . S
O4 Dy0 2.398 . S
O4 C2 1.185 . S
O5 Dy0 2.491 . S
O5 C2 1.355 . S
O6 Dy0 2.403 . S
O6 C8 1.254 . S
O7 Dy0 2.664 1_655 S
O7 Dy3 2.310 . S
O7 C8 1.268 1_655 S
C8 O6 1.254 . S
C8 O7 1.268 1_455 S
C9 O14 1.254 1_455 S
C9 O15 1.268 . S
O10 Dy3 2.351 1_455 S
O10 C18 1.249 . S
O11 Dy0 2.326 . S
O11 C18 1.267 . S
O12 C1 1.185 . S
O12 Dy3 2.398 . S
O13 C1 1.355 . S
O13 Dy3 2.491 . S
O14 Dy3 2.403 . S
O14 C9 1.254 1_655 S
O15 Dy0 2.310 . S
O15 Dy3 2.664 1_455 S
O15 C9 1.268 . S
O16 Dy0 2.351 1_655 S
O16 C19 1.249 . S
O17 Dy3 2.326 . S
O17 C19 1.267 . S
C18 O10 1.249 . S
C18 O11 1.267 . S
C19 O16 1.249 . S
C19 O17 1.267 . S
Dy20 O24 2.398 1_545 S
Dy20 O25 2.491 1_545 S
Dy20 O26 2.403 . S
Dy20 O27 2.664 . S
Dy20 O31 2.326 1_545 S
Dy20 O35 2.310 . S
Dy20 O36 2.351 . S
C21 O32 1.185 . S
C21 O33 1.355 . S
C22 O24 1.185 . S
C22 O25 1.355 . S
Dy23 O27 2.310 . S
Dy23 O30 2.351 . S
Dy23 O32 2.398 . S
Dy23 O33 2.491 . S
Dy23 O34 2.403 . S
Dy23 O35 2.664 . S
Dy23 O37 2.326 . S
O24 Dy20 2.398 1_565 S
O24 C22 1.185 . S
O25 Dy20 2.491 1_565 S
O25 C22 1.355 . S
O26 Dy20 2.403 . S
O26 C28 1.254 . S
O27 Dy20 2.664 . S
O27 Dy23 2.310 . S
O27 C28 1.268 . S
C28 O26 1.254 . S
C28 O27 1.268 . S
C29 O34 1.254 . S
C29 O35 1.268 . S
O30 Dy23 2.351 . S
O30 C38 1.249 1_545 S
O31 Dy20 2.326 1_565 S
O31 C38 1.267 . S
O32 C21 1.185 . S
O32 Dy23 2.398 . S
O33 C21 1.355 . S
O33 Dy23 2.491 . S
O34 Dy23 2.403 . S
O34 C29 1.254 . S
O35 Dy20 2.310 . S
O35 Dy23 2.664 . S
O35 C29 1.268 . S
O36 Dy20 2.351 . S
O36 C39 1.249 . S
O37 Dy23 2.326 . S
O37 C39 1.267 . S
C38 O30 1.249 1_565 S
C38 O31 1.267 . S
C39 O36 1.249 . S
C39 O37 1.267 . S
Dy40 O44 2.398 . S
Dy40 O45 2.491 . S
Dy40 O46 2.403 . S
Dy40 O47 2.664 . S
Dy40 O51 2.326 . S
Dy40 O55 2.310 . S
Dy40 O56 2.351 . S
C41 O52 1.185 . S
C41 O53 1.355 . S
C42 O44 1.185 . S
C42 O45 1.355 . S
Dy43 O47 2.310 . S
Dy43 O50 2.351 . S
Dy43 O52 2.398 . S
Dy43 O53 2.491 . S
Dy43 O54 2.403 . S
Dy43 O55 2.664 . S
Dy43 O57 2.326 . S
O44 Dy40 2.398 . S
O44 C42 1.185 . S
O45 Dy40 2.491 . S
O45 C42 1.355 . S
O46 Dy40 2.403 . S
O46 C48 1.254 . S
O47 Dy40 2.664 . S
O47 Dy43 2.310 . S
O47 C48 1.268 . S
C48 O46 1.254 . S
C48 O47 1.268 . S
C49 O54 1.254 . S
C49 O55 1.268 . S
O50 Dy43 2.351 . S
O50 C58 1.249 . S
O51 Dy40 2.326 . S
O51 C58 1.267 . S
O52 C41 1.185 . S
O52 Dy43 2.398 . S
O53 C41 1.355 . S
O53 Dy43 2.491 . S
O54 Dy43 2.403 . S
O54 C49 1.254 . S
O55 Dy40 2.310 . S
O55 Dy43 2.664 . S
O55 C49 1.268 . S
O56 Dy40 2.351 . S
O56 C59 1.249 . S
O57 Dy43 2.326 . S
O57 C59 1.267 . S
C58 O50 1.249 . S
C58 O51 1.267 . S
C59 O56 1.249 . S
C59 O57 1.267 . S
C60 N61 1.317 . S
C60 N62 1.348 1_545 S
C60 C63 1.485 . S
N61 C60 1.317 . S
N61 N65 1.370 . S
N62 C60 1.348 1_565 S
N62 C64 1.346 . S
C63 C60 1.485 . S
C63 H67 0.960 . S
C63 H68 0.961 1_545 S
C63 H69 0.960 . S
C64 N62 1.346 . S
C64 N65 1.307 1_565 S
C64 C66 1.486 . S
N65 N61 1.370 . S
N65 C64 1.307 1_545 S
C66 C64 1.486 . S
C66 H70 0.960 . S
C66 H71 0.960 . S
C66 H72 0.959 . S
H67 C63 0.960 . S
H68 C63 0.961 1_565 S
H69 C63 0.960 . S
H70 C66 0.960 . S
H71 C66 0.960 . S
H72 C66 0.959 . S
C73 N74 1.317 . S
C73 N75 1.348 . S
C73 C76 1.485 . S
N74 C73 1.317 . S
N74 N78 1.370 . S
N75 C73 1.348 . S
N75 C77 1.346 . S
C76 C73 1.485 . S
C76 H80 0.960 . S
C76 H81 0.961 . S
C76 H82 0.960 . S
C77 N75 1.346 . S
C77 N78 1.307 . S
C77 C79 1.486 . S
N78 N74 1.370 . S
N78 C77 1.307 . S
C79 C77 1.486 . S
C79 H83 0.960 . S
C79 H84 0.960 . S
C79 H85 0.959 . S
H80 C76 0.960 . S
H81 C76 0.961 . S
H82 C76 0.960 . S
H83 C79 0.960 . S
H84 C79 0.960 . S
H85 C79 0.959 . S
C86 N87 1.317 . S
C86 N88 1.348 . S
C86 C89 1.485 . S
N87 C86 1.317 . S
N87 N91 1.370 . S
N88 C86 1.348 . S
N88 C90 1.346 . S
C89 C86 1.485 . S
C89 H93 0.960 . S
C89 H94 0.961 . S
C89 H95 0.960 . S
C90 N88 1.346 . S
C90 N91 1.307 . S
C90 C92 1.486 1_455 S
N91 N87 1.370 . S
N91 C90 1.307 . S
C92 C90 1.486 1_655 S
C92 H96 0.960 . S
C92 H97 0.960 . S
C92 H98 0.959 . S
H93 C89 0.960 . S
H94 C89 0.961 . S
H95 C89 0.960 . S
H96 C92 0.960 . S
H97 C92 0.960 . S
H98 C92 0.959 . S
C99 N100 1.317 . S
C99 N101 1.348 . S
C99 C102 1.485 . S
N100 C99 1.317 . S
N100 N104 1.370 . S
N101 C99 1.348 . S
N101 C103 1.346 . S
C102 C99 1.485 . S
C102 H106 0.960 . S
C102 H107 0.961 . S
C102 H108 0.960 . S
C103 N101 1.346 . S
C103 N104 1.307 . S
C103 C105 1.486 . S
N104 N100 1.370 . S
N104 C103 1.307 . S
C105 C103 1.486 . S
C105 H109 0.960 . S
C105 H110 0.960 . S
C105 H111 0.959 . S
H106 C102 0.960 . S
H107 C102 0.961 . S
H108 C102 0.960 . S
H109 C105 0.960 . S
H110 C105 0.960 . S
H111 C105 0.959 . S
C112 N113 1.317 . S
C112 N114 1.348 . S
C112 C115 1.485 . S
N113 C112 1.317 . S
N113 N117 1.370 . S
N114 C112 1.348 . S
N114 C116 1.346 . S
C115 C112 1.485 . S
C115 H119 0.960 . S
C115 H120 0.961 . S
C115 H121 0.960 . S
C116 N114 1.346 . S
C116 N117 1.307 . S
C116 C118 1.486 . S
N117 N113 1.370 . S
N117 C116 1.307 . S
C118 C116 1.486 . S
C118 H122 0.960 . S
C118 H123 0.960 . S
C118 H124 0.959 . S
H119 C115 0.960 . S
H120 C115 0.961 . S
H121 C115 0.960 . S
H122 C118 0.960 . S
H123 C118 0.960 . S
H124 C118 0.959 . S
C125 N126 1.317 . S
C125 N127 1.348 . S
C125 C128 1.485 . S
N126 C125 1.317 . S
N126 N130 1.370 . S
N127 C125 1.348 . S
N127 C129 1.346 . S
C128 C125 1.485 . S
C128 H132 0.960 . S
C128 H133 0.961 . S
C128 H134 0.960 . S
C129 N127 1.346 . S
C129 N130 1.307 . S
C129 C131 1.486 . S
N130 N126 1.370 . S
N130 C129 1.307 . S
C131 C129 1.486 . S
C131 H135 0.960 . S
C131 H136 0.960 . S
C131 H137 0.959 . S
H132 C128 0.960 . S
H133 C128 0.961 . S
H134 C128 0.960 . S
H135 C131 0.960 . S
H136 C131 0.960 . S
H137 C131 0.959 . S
H138 C150 0.930 . S
H139 C152 0.930 . S
H140 C153 0.930 . S
H141 C157 0.959 . S
H142 C157 0.959 . S
H143 C157 0.961 . S
H144 C158 0.960 . S
H145 C158 0.961 . S
H146 C158 0.959 . S
H147 C161 0.929 . S
H148 C162 0.931 . S
H149 C164 0.930 . S
C150 H138 0.930 . S
C150 C151 1.399 . S
C150 C155 1.399 . S
C151 C150 1.399 . S
C151 C152 1.376 . S
C152 H139 0.930 . S
C152 C151 1.376 . S
C152 C153 1.388 . S
C153 H140 0.930 . S
C153 C152 1.388 . S
C153 C154 1.390 . S
C154 C153 1.390 . S
C154 C155 1.394 . S
C154 C160 1.465 . S
C155 C150 1.399 . S
C155 C154 1.394 . S
C155 C156 1.516 . S
C156 C155 1.516 . S
C156 C157 1.502 . S
C156 C158 1.561 . S
C156 C159 1.526 . S
C157 H141 0.959 . S
C157 H142 0.959 . S
C157 H143 0.961 . S
C157 C156 1.502 . S
C158 H144 0.960 . S
C158 H145 0.961 . S
C158 H146 0.959 . S
C158 C156 1.561 . S
C159 C156 1.526 . S
C159 C160 1.396 . S
C159 C164 1.390 . S
C160 C154 1.465 . S
C160 C159 1.396 . S
C160 C161 1.399 . S
C161 H147 0.929 . S
C161 C160 1.399 . S
C161 C162 1.385 . S
C162 H148 0.931 . S
C162 C161 1.385 . S
C162 C163 1.389 . S
C163 C162 1.389 . S
C163 C164 1.387 . S
C164 H149 0.930 . S
C164 C159 1.390 . S
C164 C163 1.387 . S
H165 C177 0.930 . S
H166 C179 0.930 . S
H167 C180 0.930 . S
H168 C184 0.959 . S
H169 C184 0.959 . S
H170 C184 0.961 . S
H171 C185 0.960 . S
H172 C185 0.961 . S
H173 C185 0.959 . S
H174 C188 0.929 . S
H175 C189 0.931 . S
H176 C191 0.930 . S
C177 H165 0.930 . S
C177 C178 1.399 . S
C177 C182 1.399 . S
C178 C177 1.399 . S
C178 C179 1.376 . S
C179 H166 0.930 . S
C179 C178 1.376 . S
C179 C180 1.388 . S
C180 H167 0.930 . S
C180 C179 1.388 . S
C180 C181 1.390 . S
C181 C180 1.390 . S
C181 C182 1.394 . S
C181 C187 1.465 . S
C182 C177 1.399 . S
C182 C181 1.394 . S
C182 C183 1.516 . S
C183 C182 1.516 . S
C183 C184 1.502 . S
C183 C185 1.561 . S
C183 C186 1.526 . S
C184 H168 0.959 . S
C184 H169 0.959 . S
C184 H170 0.961 . S
C184 C183 1.502 . S
C185 H171 0.960 . S
C185 H172 0.961 . S
C185 H173 0.959 . S
C185 C183 1.561 . S
C186 C183 1.526 . S
C186 C187 1.396 . S
C186 C191 1.390 . S
C187 C181 1.465 . S
C187 C186 1.396 . S
C187 C188 1.399 . S
C188 H174 0.929 . S
C188 C187 1.399 . S
C188 C189 1.385 . S
C189 H175 0.931 . S
C189 C188 1.385 . S
C189 C190 1.389 . S
C190 C189 1.389 . S
C190 C191 1.387 . S
C191 H176 0.930 . S
C191 C186 1.390 . S
C191 C190 1.387 . S
H192 C204 0.930 . S
H193 C206 0.930 . S
H194 C207 0.930 . S
H195 C211 0.959 . S
H196 C211 0.959 . S
H197 C211 0.961 . S
H198 C212 0.960 . S
H199 C212 0.961 . S
H200 C212 0.959 . S
H201 C215 0.929 . S
H202 C216 0.931 . S
H203 C218 0.930 . S
C204 H192 0.930 . S
C204 C205 1.399 . S
C204 C209 1.399 . S
C205 C204 1.399 . S
C205 C206 1.376 . S
C206 H193 0.930 . S
C206 C205 1.376 . S
C206 C207 1.388 . S
C207 H194 0.930 . S
C207 C206 1.388 . S
C207 C208 1.390 . S
C208 C207 1.390 . S
C208 C209 1.394 . S
C208 C214 1.465 . S
C209 C204 1.399 . S
C209 C208 1.394 . S
C209 C210 1.516 . S
C210 C209 1.516 . S
C210 C211 1.502 . S
C210 C212 1.561 . S
C210 C213 1.526 . S
C211 H195 0.959 . S
C211 H196 0.959 . S
C211 H197 0.961 . S
C211 C210 1.502 . S
C212 H198 0.960 . S
C212 H199 0.961 . S
C212 H200 0.959 . S
C212 C210 1.561 . S
C213 C210 1.526 . S
C213 C214 1.396 . S
C213 C218 1.390 1_565 S
C214 C208 1.465 . S
C214 C213 1.396 . S
C214 C215 1.399 . S
C215 H201 0.929 . S
C215 C214 1.399 . S
C215 C216 1.385 1_565 S
C216 H202 0.931 . S
C216 C215 1.385 1_545 S
C216 C217 1.389 . S
C217 C216 1.389 . S
C217 C218 1.387 . S
C218 H203 0.930 . S
C218 C213 1.390 1_545 S
C218 C217 1.387 . S
H219 C231 0.930 . S
H220 C233 0.930 . S
H221 C234 0.930 . S
H222 C238 0.959 . S
H223 C238 0.959 . S
H224 C238 0.961 . S
H225 C239 0.960 . S
H226 C239 0.961 . S
H227 C239 0.959 . S
H228 C242 0.929 . S
H229 C243 0.931 . S
H230 C245 0.930 . S
C231 H219 0.930 . S
C231 C232 1.399 . S
C231 C236 1.399 . S
C232 C231 1.399 . S
C232 C233 1.376 . S
C233 H220 0.930 . S
C233 C232 1.376 . S
C233 C234 1.388 . S
C234 H221 0.930 . S
C234 C233 1.388 . S
C234 C235 1.390 . S
C235 C234 1.390 . S
C235 C236 1.394 . S
C235 C241 1.465 . S
C236 C231 1.399 . S
C236 C235 1.394 . S
C236 C237 1.516 . S
C237 C236 1.516 . S
C237 C238 1.502 . S
C237 C239 1.561 . S
C237 C240 1.526 . S
C238 H222 0.959 . S
C238 H223 0.959 . S
C238 H224 0.961 . S
C238 C237 1.502 . S
C239 H225 0.960 . S
C239 H226 0.961 . S
C239 H227 0.959 . S
C239 C237 1.561 . S
C240 C237 1.526 . S
C240 C241 1.396 . S
C240 C245 1.390 . S
C241 C235 1.465 . S
C241 C240 1.396 . S
C241 C242 1.399 . S
C242 H228 0.929 . S
C242 C241 1.399 . S
C242 C243 1.385 . S
C243 H229 0.931 . S
C243 C242 1.385 . S
C243 C244 1.389 . S
C244 C243 1.389 . S
C244 C245 1.387 . S
C245 H230 0.930 . S
C245 C240 1.390 . S
C245 C244 1.387 . S
H246 C258 0.930 . S
H247 C260 0.930 . S
H248 C261 0.930 . S
H249 C265 0.959 . S
H250 C265 0.959 . S
H251 C265 0.961 . S
H252 C266 0.960 . S
H253 C266 0.961 . S
H254 C266 0.959 . S
H255 C269 0.929 . S
H256 C270 0.931 . S
H257 C272 0.930 . S
C258 H246 0.930 . S
C258 C259 1.399 . S
C258 C263 1.399 . S
C259 C258 1.399 . S
C259 C260 1.376 . S
C260 H247 0.930 . S
C260 C259 1.376 . S
C260 C261 1.388 . S
C261 H248 0.930 . S
C261 C260 1.388 . S
C261 C262 1.390 . S
C262 C261 1.390 . S
C262 C263 1.394 . S
C262 C268 1.465 . S
C263 C258 1.399 . S
C263 C262 1.394 . S
C263 C264 1.516 . S
C264 C263 1.516 . S
C264 C265 1.502 . S
C264 C266 1.561 . S
C264 C267 1.526 . S
C265 H249 0.959 . S
C265 H250 0.959 . S
C265 H251 0.961 . S
C265 C264 1.502 . S
C266 H252 0.960 . S
C266 H253 0.961 . S
C266 H254 0.959 . S
C266 C264 1.561 . S
C267 C264 1.526 . S
C267 C268 1.396 . S
C267 C272 1.390 . S
C268 C262 1.465 . S
C268 C267 1.396 . S
C268 C269 1.399 . S
C269 H255 0.929 . S
C269 C268 1.399 . S
C269 C270 1.385 . S
C270 H256 0.931 . S
C270 C269 1.385 . S
C270 C271 1.389 . S
C271 C270 1.389 . S
C271 C272 1.387 . S
C272 H257 0.930 . S
C272 C267 1.390 . S
C272 C271 1.387 . S
H273 C285 0.930 . S
H274 C287 0.930 . S
H275 C288 0.930 . S
H276 C292 0.959 . S
H277 C292 0.959 . S
H278 C292 0.961 . S
H279 C293 0.960 . S
H280 C293 0.961 . S
H281 C293 0.959 . S
H282 C296 0.929 . S
H283 C297 0.931 . S
H284 C299 0.930 . S
C285 H273 0.930 . S
C285 C286 1.399 . S
C285 C290 1.399 . S
C286 C285 1.399 . S
C286 C287 1.376 . S
C287 H274 0.930 . S
C287 C286 1.376 . S
C287 C288 1.388 . S
C288 H275 0.930 . S
C288 C287 1.388 . S
C288 C289 1.390 . S
C289 C288 1.390 . S
C289 C290 1.394 . S
C289 C295 1.465 . S
C290 C285 1.399 . S
C290 C289 1.394 . S
C290 C291 1.516 . S
C291 C290 1.516 . S
C291 C292 1.502 . S
C291 C293 1.561 . S
C291 C294 1.526 . S
C292 H276 0.959 . S
C292 H277 0.959 . S
C292 H278 0.961 . S
C292 C291 1.502 . S
C293 H279 0.960 . S
C293 H280 0.961 . S
C293 H281 0.959 . S
C293 C291 1.561 . S
C294 C291 1.526 . S
C294 C295 1.396 . S
C294 C299 1.390 . S
C295 C289 1.465 . S
C295 C294 1.396 . S
C295 C296 1.399 . S
C296 H282 0.929 . S
C296 C295 1.399 . S
C296 C297 1.385 . S
C297 H283 0.931 . S
C297 C296 1.385 . S
C297 C298 1.389 . S
C298 C297 1.389 . S
C298 C299 1.387 . S
C299 H284 0.930 . S
C299 C294 1.390 . S
C299 C298 1.387 . S
H300 C312 0.930 . S
H301 C314 0.930 . S
H302 C315 0.930 . S
H303 C319 0.959 . S
H304 C319 0.959 . S
H305 C319 0.961 . S
H306 C320 0.960 . S
H307 C320 0.961 . S
H308 C320 0.959 . S
H309 C323 0.929 . S
H310 C324 0.931 . S
H311 C326 0.930 . S
C312 H300 0.930 . S
C312 C313 1.399 . S
C312 C317 1.399 . S
C313 C312 1.399 . S
C313 C314 1.376 . S
C314 H301 0.930 . S
C314 C313 1.376 . S
C314 C315 1.388 . S
C315 H302 0.930 . S
C315 C314 1.388 . S
C315 C316 1.390 . S
C316 C315 1.390 . S
C316 C317 1.394 . S
C316 C322 1.465 . S
C317 C312 1.399 . S
C317 C316 1.394 . S
C317 C318 1.516 . S
C318 C317 1.516 . S
C318 C319 1.502 . S
C318 C320 1.561 . S
C318 C321 1.526 . S
C319 H303 0.959 . S
C319 H304 0.959 . S
C319 H305 0.961 . S
C319 C318 1.502 . S
C320 H306 0.960 . S
C320 H307 0.961 . S
C320 H308 0.959 . S
C320 C318 1.561 . S
C321 C318 1.526 . S
C321 C322 1.396 . S
C321 C326 1.390 . S
C322 C316 1.465 . S
C322 C321 1.396 . S
C322 C323 1.399 . S
C323 H309 0.929 . S
C323 C322 1.399 . S
C323 C324 1.385 . S
C324 H310 0.931 . S
C324 C323 1.385 . S
C324 C325 1.389 . S
C325 C324 1.389 . S
C325 C326 1.387 . S
C326 H311 0.930 . S
C326 C321 1.390 . S
C326 C325 1.387 . S
H327 C339 0.930 . S
H328 C341 0.930 . S
H329 C342 0.930 . S
H330 C346 0.959 . S
H331 C346 0.959 . S
H332 C346 0.961 . S
H333 C347 0.960 . S
H334 C347 0.961 . S
H335 C347 0.959 . S
H336 C350 0.929 . S
H337 C351 0.931 . S
H338 C353 0.930 . S
C339 H327 0.930 . S
C339 C340 1.399 . S
C339 C344 1.399 . S
C340 C339 1.399 . S
C340 C341 1.376 . S
C341 H328 0.930 . S
C341 C340 1.376 . S
C341 C342 1.388 . S
C342 H329 0.930 . S
C342 C341 1.388 . S
C342 C343 1.390 . S
C343 C342 1.390 . S
C343 C344 1.394 . S
C343 C349 1.465 . S
C344 C339 1.399 . S
C344 C343 1.394 . S
C344 C345 1.516 . S
C345 C344 1.516 . S
C345 C346 1.502 . S
C345 C347 1.561 . S
C345 C348 1.526 . S
C346 H330 0.959 . S
C346 H331 0.959 . S
C346 H332 0.961 . S
C346 C345 1.502 . S
C347 H333 0.960 . S
C347 H334 0.961 . S
C347 H335 0.959 . S
C347 C345 1.561 . S
C348 C345 1.526 . S
C348 C349 1.396 . S
C348 C353 1.390 . S
C349 C343 1.465 . S
C349 C348 1.396 . S
C349 C350 1.399 . S
C350 H336 0.929 . S
C350 C349 1.399 . S
C350 C351 1.385 . S
C351 H337 0.931 . S
C351 C350 1.385 . S
C351 C352 1.389 . S
C352 C351 1.389 . S
C352 C353 1.387 . S
C353 H338 0.930 . S
C353 C348 1.390 . S
C353 C352 1.387 . S
H354 C366 0.930 . S
H355 C368 0.930 . S
H356 C369 0.930 . S
H357 C373 0.959 . S
H358 C373 0.959 . S
H359 C373 0.961 . S
H360 C374 0.960 . S
H361 C374 0.961 . S
H362 C374 0.959 . S
H363 C377 0.929 . S
H364 C378 0.931 . S
H365 C380 0.930 . S
C366 H354 0.930 . S
C366 C367 1.399 . S
C366 C371 1.399 . S
C367 C366 1.399 . S
C367 C368 1.376 . S
C368 H355 0.930 . S
C368 C367 1.376 . S
C368 C369 1.388 . S
C369 H356 0.930 . S
C369 C368 1.388 . S
C369 C370 1.390 . S
C370 C369 1.390 . S
C370 C371 1.394 . S
C370 C376 1.465 . S
C371 C366 1.399 . S
C371 C370 1.394 . S
C371 C372 1.516 . S
C372 C371 1.516 . S
C372 C373 1.502 . S
C372 C374 1.561 . S
C372 C375 1.526 . S
C373 H357 0.959 . S
C373 H358 0.959 . S
C373 H359 0.961 . S
C373 C372 1.502 . S
C374 H360 0.960 . S
C374 H361 0.961 . S
C374 H362 0.959 . S
C374 C372 1.561 . S
C375 C372 1.526 . S
C375 C376 1.396 . S
C375 C380 1.390 . S
C376 C370 1.465 . S
C376 C375 1.396 . S
C376 C377 1.399 . S
C377 H363 0.929 . S
C377 C376 1.399 . S
C377 C378 1.385 . S
C378 H364 0.931 . S
C378 C377 1.385 . S
C378 C379 1.389 . S
C379 C378 1.389 . S
C379 C380 1.387 . S
C380 H365 0.930 . S
C380 C375 1.390 . S
C380 C379 1.387 . S
H381 C393 0.930 . S
H382 C395 0.930 . S
H383 C396 0.930 . S
H384 C400 0.959 . S
H385 C400 0.959 . S
H386 C400 0.961 . S
H387 C401 0.960 . S
H388 C401 0.961 . S
H389 C401 0.959 . S
H390 C404 0.929 . S
H391 C405 0.931 . S
H392 C407 0.930 . S
C393 H381 0.930 . S
C393 C394 1.399 . S
C393 C398 1.399 . S
C394 C393 1.399 . S
C394 C395 1.376 . S
C395 H382 0.930 . S
C395 C394 1.376 . S
C395 C396 1.388 . S
C396 H383 0.930 . S
C396 C395 1.388 . S
C396 C397 1.390 . S
C397 C396 1.390 . S
C397 C398 1.394 . S
C397 C403 1.465 . S
C398 C393 1.399 . S
C398 C397 1.394 . S
C398 C399 1.516 . S
C399 C398 1.516 . S
C399 C400 1.502 . S
C399 C401 1.561 . S
C399 C402 1.526 . S
C400 H384 0.959 . S
C400 H385 0.959 . S
C400 H386 0.961 . S
C400 C399 1.502 . S
C401 H387 0.960 . S
C401 H388 0.961 . S
C401 H389 0.959 . S
C401 C399 1.561 . S
C402 C399 1.526 . S
C402 C403 1.396 . S
C402 C407 1.390 . S
C403 C397 1.465 . S
C403 C402 1.396 . S
C403 C404 1.399 . S
C404 H390 0.929 . S
C404 C403 1.399 . S
C404 C405 1.385 . S
C405 H391 0.931 . S
C405 C404 1.385 . S
C405 C406 1.389 . S
C406 C405 1.389 . S
C406 C407 1.387 . S
C407 H392 0.930 . S
C407 C402 1.390 . S
C407 C406 1.387 . S
H408 C420 0.930 . S
H409 C422 0.930 . S
H410 C423 0.930 . S
H411 C427 0.959 . S
H412 C427 0.959 . S
H413 C427 0.961 . S
H414 C428 0.960 . S
H415 C428 0.961 . S
H416 C428 0.959 . S
H417 C431 0.929 . S
H418 C432 0.931 . S
H419 C434 0.930 . S
C420 H408 0.930 . S
C420 C421 1.399 . S
C420 C425 1.399 . S
C421 C420 1.399 . S
C421 C422 1.376 . S
C422 H409 0.930 . S
C422 C421 1.376 . S
C422 C423 1.388 . S
C423 H410 0.930 . S
C423 C422 1.388 . S
C423 C424 1.390 . S
C424 C423 1.390 . S
C424 C425 1.394 . S
C424 C430 1.465 . S
C425 C420 1.399 . S
C425 C424 1.394 . S
C425 C426 1.516 . S
C426 C425 1.516 . S
C426 C427 1.502 . S
C426 C428 1.561 . S
C426 C429 1.526 . S
C427 H411 0.959 . S
C427 H412 0.959 . S
C427 H413 0.961 . S
C427 C426 1.502 . S
C428 H414 0.960 . S
C428 H415 0.961 . S
C428 H416 0.959 . S
C428 C426 1.561 . S
C429 C426 1.526 . S
C429 C430 1.396 . S
C429 C434 1.390 . S
C430 C424 1.465 . S
C430 C429 1.396 . S
C430 C431 1.399 . S
C431 H417 0.929 . S
C431 C430 1.399 . S
C431 C432 1.385 . S
C432 H418 0.931 . S
C432 C431 1.385 . S
C432 C433 1.389 . S
C433 C432 1.389 . S
C433 C434 1.387 . S
C434 H419 0.930 . S
C434 C429 1.390 . S
C434 C433 1.387 . S
H435 C447 0.930 . S
H436 C449 0.930 . S
H437 C450 0.930 . S
H438 C454 0.959 . S
H439 C454 0.959 . S
H440 C454 0.961 . S
H441 C455 0.960 . S
H442 C455 0.961 . S
H443 C455 0.959 . S
H444 C458 0.929 . S
H445 C459 0.931 . S
H446 C461 0.930 . S
C447 H435 0.930 . S
C447 C448 1.399 . S
C447 C452 1.399 . S
C448 C447 1.399 . S
C448 C449 1.376 . S
C449 H436 0.930 . S
C449 C448 1.376 . S
C449 C450 1.388 . S
C450 H437 0.930 . S
C450 C449 1.388 . S
C450 C451 1.390 . S
C451 C450 1.390 . S
C451 C452 1.394 . S
C451 C457 1.465 . S
C452 C447 1.399 . S
C452 C451 1.394 . S
C452 C453 1.516 . S
C453 C452 1.516 . S
C453 C454 1.502 . S
C453 C455 1.561 . S
C453 C456 1.526 . S
C454 H438 0.959 . S
C454 H439 0.959 . S
C454 H440 0.961 . S
C454 C453 1.502 . S
C455 H441 0.960 . S
C455 H442 0.961 . S
C455 H443 0.959 . S
C455 C453 1.561 . S
C456 C453 1.526 . S
C456 C457 1.396 . S
C456 C461 1.390 . S
C457 C451 1.465 . S
C457 C456 1.396 . S
C457 C458 1.399 . S
C458 H444 0.929 . S
C458 C457 1.399 . S
C458 C459 1.385 . S
C459 H445 0.931 . S
C459 C458 1.385 . S
C459 C460 1.389 . S
C460 C459 1.389 . S
C460 C461 1.387 . S
C461 H446 0.930 . S
C461 C456 1.390 . S
C461 C460 1.387 . S
H462 C474 0.930 . S
H463 C476 0.930 . S
H464 C477 0.930 . S
H465 C481 0.964 . S
H466 C481 0.925 1_556 S
H467 C481 0.990 . S
H468 C482 0.960 1_554 S
H469 C482 0.961 . S
H470 C482 0.959 . S
H471 C485 0.929 . S
H472 C486 0.931 . S
H473 C488 0.930 . S
C474 H462 0.930 . S
C474 C475 1.399 . S
C474 C479 1.399 . S
C475 C474 1.399 . S
C475 C476 1.376 . S
C476 H463 0.930 . S
C476 C475 1.376 . S
C476 C477 1.388 . S
C477 H464 0.930 . S
C477 C476 1.388 . S
C477 C478 1.390 . S
C478 C477 1.390 . S
C478 C479 1.394 . S
C478 C484 1.465 1_554 S
C479 C474 1.399 . S
C479 C478 1.394 . S
C479 C480 1.516 . S
C480 C479 1.516 . S
C480 C481 1.505 . S
C480 C482 1.561 1_454 S
C480 C483 1.526 1_554 S
C481 H465 0.964 . S
C481 H466 0.925 1_554 S
C481 H467 0.990 . S
C481 C480 1.505 . S
C482 H468 0.960 1_556 S
C482 H469 0.961 . S
C482 H470 0.959 . S
C482 C480 1.561 1_656 S
C483 C480 1.526 1_556 S
C483 C484 1.396 . S
C483 C488 1.390 . S
C484 C478 1.465 1_556 S
C484 C483 1.396 . S
C484 C485 1.399 . S
C485 H471 0.929 . S
C485 C484 1.399 . S
C485 C486 1.385 . S
C486 H472 0.931 . S
C486 C485 1.385 . S
C486 C487 1.389 . S
C487 C486 1.389 . S
C487 C488 1.387 . S
C488 H473 0.930 . S
C488 C483 1.390 . S
C488 C487 1.387 . S
H489 C501 0.930 1_565 S
H490 C503 0.930 . S
H491 C504 0.930 . S
H492 C508 0.959 . S
H493 C508 0.959 . S
H494 C508 0.961 . S
H495 C509 0.960 . S
H496 C509 0.961 . S
H497 C509 0.959 . S
H498 C512 0.929 . S
H499 C513 0.931 . S
H500 C515 0.930 . S
C501 H489 0.930 1_545 S
C501 C502 1.399 . S
C501 C506 1.399 . S
C502 C501 1.399 . S
C502 C503 1.376 . S
C503 H490 0.930 . S
C503 C502 1.376 . S
C503 C504 1.388 . S
C504 H491 0.930 . S
C504 C503 1.388 . S
C504 C505 1.390 . S
C505 C504 1.390 . S
C505 C506 1.394 . S
C505 C511 1.465 . S
C506 C501 1.399 . S
C506 C505 1.394 . S
C506 C507 1.516 1_545 S
C507 C506 1.516 1_565 S
C507 C508 1.502 . S
C507 C509 1.561 . S
C507 C510 1.526 1_565 S
C508 H492 0.959 . S
C508 H493 0.959 . S
C508 H494 0.961 . S
C508 C507 1.502 . S
C509 H495 0.960 . S
C509 H496 0.961 . S
C509 H497 0.959 . S
C509 C507 1.561 . S
C510 C507 1.526 1_545 S
C510 C511 1.396 . S
C510 C515 1.390 1_545 S
C511 C505 1.465 . S
C511 C510 1.396 . S
C511 C512 1.399 . S
C512 H498 0.929 . S
C512 C511 1.399 . S
C512 C513 1.385 . S
C513 H499 0.931 . S
C513 C512 1.385 . S
C513 C514 1.389 . S
C514 C513 1.389 . S
C514 C515 1.387 1_545 S
C515 H500 0.930 . S
C515 C510 1.390 1_565 S
C515 C514 1.387 1_565 S
H516 C528 0.930 . S
H517 C530 0.930 . S
H518 C531 0.930 . S
H519 C535 0.959 . S
H520 C535 0.959 . S
H521 C535 0.961 . S
H522 C536 0.960 . S
H523 C536 0.961 . S
H524 C536 0.959 . S
H525 C539 0.929 . S
H526 C540 0.931 . S
H527 C542 0.930 . S
C528 H516 0.930 . S
C528 C529 1.399 . S
C528 C533 1.399 . S
C529 C528 1.399 . S
C529 C530 1.376 . S
C530 H517 0.930 . S
C530 C529 1.376 . S
C530 C531 1.388 . S
C531 H518 0.930 . S
C531 C530 1.388 . S
C531 C532 1.390 . S
C532 C531 1.390 . S
C532 C533 1.394 . S
C532 C538 1.465 . S
C533 C528 1.399 . S
C533 C532 1.394 . S
C533 C534 1.516 . S
C534 C533 1.516 . S
C534 C535 1.502 . S
C534 C536 1.561 . S
C534 C537 1.526 . S
C535 H519 0.959 . S
C535 H520 0.959 . S
C535 H521 0.961 . S
C535 C534 1.502 . S
C536 H522 0.960 . S
C536 H523 0.961 . S
C536 H524 0.959 . S
C536 C534 1.561 . S
C537 C534 1.526 . S
C537 C538 1.396 . S
C537 C542 1.390 . S
C538 C532 1.465 . S
C538 C537 1.396 . S
C538 C539 1.399 . S
C539 H525 0.929 . S
C539 C538 1.399 . S
C539 C540 1.385 . S
C540 H526 0.931 . S
C540 C539 1.385 . S
C540 C541 1.389 . S
C541 C540 1.389 . S
C541 C542 1.387 . S
C542 H527 0.930 . S
C542 C537 1.390 . S
C542 C541 1.387 . S
H543 C555 0.930 . S
H544 C557 0.930 . S
H545 C558 0.930 . S
H546 C562 0.963 . S
H547 C562 0.958 1_565 S
H548 C562 0.959 1_565 S
H549 C563 0.960 . S
H550 C563 0.961 . S
H551 C563 0.959 . S
H552 C566 0.929 . S
H553 C567 0.931 . S
H554 C569 0.930 . S
C555 H543 0.930 . S
C555 C556 1.399 . S
C555 C560 1.399 . S
C556 C555 1.399 . S
C556 C557 1.376 . S
C557 H544 0.930 . S
C557 C556 1.376 . S
C557 C558 1.388 . S
C558 H545 0.930 . S
C558 C557 1.388 . S
C558 C559 1.390 . S
C559 C558 1.390 . S
C559 C560 1.394 . S
C559 C565 1.465 . S
C560 C555 1.399 . S
C560 C559 1.394 . S
C560 C561 1.516 . S
C561 C560 1.516 . S
C561 C562 1.501 . S
C561 C563 1.561 1_545 S
C561 C564 1.526 . S
C562 H546 0.963 . S
C562 H547 0.958 1_545 S
C562 H548 0.959 1_545 S
C562 C561 1.501 . S
C563 H549 0.960 . S
C563 H550 0.961 . S
C563 H551 0.959 . S
C563 C561 1.561 1_565 S
C564 C561 1.526 . S
C564 C565 1.396 . S
C564 C569 1.390 . S
C565 C559 1.465 . S
C565 C564 1.396 . S
C565 C566 1.399 . S
C566 H552 0.929 . S
C566 C565 1.399 . S
C566 C567 1.385 . S
C567 H553 0.931 . S
C567 C566 1.385 . S
C567 C568 1.389 . S
C568 C567 1.389 . S
C568 C569 1.387 . S
C569 H554 0.930 . S
C569 C564 1.390 . S
C569 C568 1.387 . S
H570 C582 0.930 . S
H571 C584 0.930 . S
H572 C585 0.930 . S
H573 C589 0.959 . S
H574 C589 0.959 1_554 S
H575 C589 0.961 . S
H576 C590 0.960 . S
H577 C590 0.961 1_554 S
H578 C590 0.959 . S
H579 C593 0.929 . S
H580 C594 0.931 . S
H581 C596 0.930 . S
C582 H570 0.930 . S
C582 C583 1.399 . S
C582 C587 1.399 . S
C583 C582 1.399 . S
C583 C584 1.376 . S
C584 H571 0.930 . S
C584 C583 1.376 . S
C584 C585 1.388 . S
C585 H572 0.930 . S
C585 C584 1.388 . S
C585 C586 1.390 . S
C586 C585 1.390 . S
C586 C587 1.394 . S
C586 C592 1.465 1_556 S
C587 C582 1.399 . S
C587 C586 1.394 . S
C587 C588 1.516 . S
C588 C587 1.516 . S
C588 C589 1.502 . S
C588 C590 1.561 . S
C588 C591 1.526 1_556 S
C589 H573 0.959 . S
C589 H574 0.959 1_556 S
C589 H575 0.961 . S
C589 C588 1.502 . S
C590 H576 0.960 . S
C590 H577 0.961 1_556 S
C590 H578 0.959 . S
C590 C588 1.561 . S
C591 C588 1.526 1_554 S
C591 C592 1.396 . S
C591 C596 1.390 . S
C592 C586 1.465 1_554 S
C592 C591 1.396 . S
C592 C593 1.399 . S
C593 H579 0.929 . S
C593 C592 1.399 . S
C593 C594 1.385 . S
C594 H580 0.931 . S
C594 C593 1.385 . S
C594 C595 1.389 . S
C595 C594 1.389 . S
C595 C596 1.387 . S
C596 H581 0.930 . S
C596 C591 1.390 . S
C596 C595 1.387 . S
H597 C609 0.930 . S
H598 C611 0.930 . S
H599 C612 0.930 . S
H600 C616 0.959 . S
H601 C616 0.959 . S
H602 C616 0.961 . S
H603 C617 0.960 . S
H604 C617 0.961 . S
H605 C617 0.959 1_455 S
H606 C620 0.929 . S
H607 C621 0.931 . S
H608 C623 0.930 . S
C609 H597 0.930 . S
C609 C610 1.399 1_655 S
C609 C614 1.399 . S
C610 C609 1.399 1_455 S
C610 C611 1.376 . S
C611 H598 0.930 . S
C611 C610 1.376 . S
C611 C612 1.388 . S
C612 H599 0.930 . S
C612 C611 1.388 . S
C612 C613 1.390 . S
C613 C612 1.390 . S
C613 C614 1.394 1_455 S
C613 C619 1.465 . S
C614 C609 1.399 . S
C614 C613 1.394 1_655 S
C614 C615 1.516 . S
C615 C614 1.516 . S
C615 C616 1.502 . S
C615 C617 1.561 . S
C615 C618 1.526 . S
C616 H600 0.959 . S
C616 H601 0.959 . S
C616 H602 0.961 . S
C616 C615 1.502 . S
C617 H603 0.960 . S
C617 H604 0.961 . S
C617 H605 0.959 1_655 S
C617 C615 1.561 . S
C618 C615 1.526 . S
C618 C619 1.396 1_655 S
C618 C623 1.390 . S
C619 C613 1.465 . S
C619 C618 1.396 1_455 S
C619 C620 1.399 . S
C620 H606 0.929 . S
C620 C619 1.399 . S
C620 C621 1.385 . S
C621 H607 0.931 . S
C621 C620 1.385 . S
C621 C622 1.389 . S
C622 C621 1.389 . S
C622 C623 1.387 1_455 S
C623 H608 0.930 . S
C623 C618 1.390 . S
C623 C622 1.387 1_655 S
C151 C2 0.840 . S
C163 N127 0.794 . S
C178 C21 0.948 . S
C190 N100 0.941 1_655 S
C205 C42 0.991 . S
C217 N113 0.983 . S
C232 C1 1.204 . S
C244 N126 1.275 . S
C271 N101 1.122 . S
C259 C22 1.095 . S
C298 N114 1.078 . S
C286 C41 1.088 . S
C313 C38 1.738 . S
C325 N74 1.756 . S
C340 C59 1.670 . S
C352 N88 1.651 1_655 S
C367 C18 1.909 . S
C379 N62 1.916 . S
C406 N75 1.956 . S
C394 C39 1.977 . S
C433 N87 2.124 . S
C421 C58 2.105 . S
C448 C19 1.828 . S
C460 N61 1.817 . S
C487 N91 1.568 . S
C475 C9 1.514 . S
C502 C29 1.558 . S
C514 N65 1.570 . S
C529 C49 1.551 . S
C541 N78 1.621 . S
C568 N117 1.419 . S
C556 C28 1.434 . S
C595 N130 1.464 . S
C583 C48 1.442 . S
C610 C8 1.444 . S
C622 N104 1.460 . S
