# Generated by pormake.
# Topology ana-f, (3,3)-cn, num edge types: 1
# Building blocks:
#     Node 0, Type 0, BuildingBlock: OLANEW_clean_sbu_2, # of connection points: 3
#     Node 1, Type 0, BuildingBlock: OLANEW_clean_sbu_2, # of connection points: 3
#     Node 2, Type 0, BuildingBlock: OLANEW_clean_sbu_2, # of connection points: 3
#     Node 3, Type 0, BuildingBlock: OLANEW_clean_sbu_2, # of connection points: 3
#     Node 4, Type 0, BuildingBlock: OLANEW_clean_sbu_2, # of connection points: 3
#     Node 5, Type 0, BuildingBlock: OLANEW_clean_sbu_2, # of connection points: 3
#     Node 6, Type 0, BuildingBlock: OLANEW_clean_sbu_2, # of connection points: 3
#     Node 7, Type 0, BuildingBlock: OLANEW_clean_sbu_2, # of connection points: 3
#     Node 8, Type 0, BuildingBlock: OLANEW_clean_sbu_2, # of connection points: 3
#     Node 9, Type 0, BuildingBlock: OLANEW_clean_sbu_2, # of connection points: 3
#     Node 10, Type 0, BuildingBlock: OLANEW_clean_sbu_2, # of connection points: 3
#     Node 11, Type 0, BuildingBlock: OLANEW_clean_sbu_2, # of connection points: 3
#     Node 12, Type 0, BuildingBlock: OLANEW_clean_sbu_2, # of connection points: 3
#     Node 13, Type 0, BuildingBlock: OLANEW_clean_sbu_2, # of connection points: 3
#     Node 14, Type 0, BuildingBlock: OLANEW_clean_sbu_2, # of connection points: 3
#     Node 15, Type 0, BuildingBlock: OLANEW_clean_sbu_2, # of connection points: 3
#     Node 16, Type 0, BuildingBlock: OLANEW_clean_sbu_2, # of connection points: 3
#     Node 17, Type 0, BuildingBlock: OLANEW_clean_sbu_2, # of connection points: 3
#     Node 18, Type 0, BuildingBlock: OLANEW_clean_sbu_2, # of connection points: 3
#     Node 19, Type 0, BuildingBlock: OLANEW_clean_sbu_2, # of connection points: 3
#     Node 20, Type 0, BuildingBlock: OLANEW_clean_sbu_2, # of connection points: 3
#     Node 21, Type 0, BuildingBlock: OLANEW_clean_sbu_2, # of connection points: 3
#     Node 22, Type 0, BuildingBlock: OLANEW_clean_sbu_2, # of connection points: 3
#     Node 23, Type 0, BuildingBlock: OLANEW_clean_sbu_2, # of connection points: 3
#     Node 24, Type 0, BuildingBlock: OLANEW_clean_sbu_2, # of connection points: 3
#     Node 25, Type 0, BuildingBlock: OLANEW_clean_sbu_2, # of connection points: 3
#     Node 26, Type 0, BuildingBlock: OLANEW_clean_sbu_2, # of connection points: 3
#     Node 27, Type 0, BuildingBlock: OLANEW_clean_sbu_2, # of connection points: 3
#     Node 28, Type 0, BuildingBlock: OLANEW_clean_sbu_2, # of connection points: 3
#     Node 29, Type 0, BuildingBlock: OLANEW_clean_sbu_2, # of connection points: 3
#     Node 30, Type 0, BuildingBlock: OLANEW_clean_sbu_2, # of connection points: 3
#     Node 31, Type 0, BuildingBlock: OLANEW_clean_sbu_2, # of connection points: 3
#     Node 32, Type 0, BuildingBlock: OLANEW_clean_sbu_2, # of connection points: 3
#     Node 33, Type 0, BuildingBlock: OLANEW_clean_sbu_2, # of connection points: 3
#     Node 34, Type 0, BuildingBlock: OLANEW_clean_sbu_2, # of connection points: 3
#     Node 35, Type 0, BuildingBlock: OLANEW_clean_sbu_2, # of connection points: 3
#     Node 36, Type 0, BuildingBlock: OLANEW_clean_sbu_2, # of connection points: 3
#     Node 37, Type 0, BuildingBlock: OLANEW_clean_sbu_2, # of connection points: 3
#     Node 38, Type 0, BuildingBlock: OLANEW_clean_sbu_2, # of connection points: 3
#     Node 39, Type 0, BuildingBlock: OLANEW_clean_sbu_2, # of connection points: 3
#     Node 40, Type 0, BuildingBlock: OLANEW_clean_sbu_2, # of connection points: 3
#     Node 41, Type 0, BuildingBlock: OLANEW_clean_sbu_2, # of connection points: 3
#     Node 42, Type 0, BuildingBlock: OLANEW_clean_sbu_2, # of connection points: 3
#     Node 43, Type 0, BuildingBlock: OLANEW_clean_sbu_2, # of connection points: 3
#     Node 44, Type 0, BuildingBlock: OLANEW_clean_sbu_2, # of connection points: 3
#     Node 45, Type 0, BuildingBlock: OLANEW_clean_sbu_2, # of connection points: 3
#     Node 46, Type 0, BuildingBlock: OLANEW_clean_sbu_2, # of connection points: 3
#     Node 47, Type 0, BuildingBlock: OLANEW_clean_sbu_2, # of connection points: 3
#     Node 48, Type 0, BuildingBlock: OLANEW_clean_sbu_2, # of connection points: 3
#     Node 49, Type 0, BuildingBlock: OLANEW_clean_sbu_2, # of connection points: 3
#     Node 50, Type 0, BuildingBlock: OLANEW_clean_sbu_2, # of connection points: 3
#     Node 51, Type 0, BuildingBlock: OLANEW_clean_sbu_2, # of connection points: 3
#     Node 52, Type 0, BuildingBlock: OLANEW_clean_sbu_2, # of connection points: 3
#     Node 53, Type 0, BuildingBlock: OLANEW_clean_sbu_2, # of connection points: 3
#     Node 54, Type 0, BuildingBlock: OLANEW_clean_sbu_2, # of connection points: 3
#     Node 55, Type 0, BuildingBlock: OLANEW_clean_sbu_2, # of connection points: 3
#     Node 56, Type 0, BuildingBlock: OLANEW_clean_sbu_2, # of connection points: 3
#     Node 57, Type 0, BuildingBlock: OLANEW_clean_sbu_2, # of connection points: 3
#     Node 58, Type 0, BuildingBlock: OLANEW_clean_sbu_2, # of connection points: 3
#     Node 59, Type 0, BuildingBlock: OLANEW_clean_sbu_2, # of connection points: 3
#     Node 60, Type 0, BuildingBlock: OLANEW_clean_sbu_2, # of connection points: 3
#     Node 61, Type 0, BuildingBlock: OLANEW_clean_sbu_2, # of connection points: 3
#     Node 62, Type 0, BuildingBlock: OLANEW_clean_sbu_2, # of connection points: 3
#     Node 63, Type 0, BuildingBlock: OLANEW_clean_sbu_2, # of connection points: 3
#     Node 64, Type 0, BuildingBlock: OLANEW_clean_sbu_2, # of connection points: 3
#     Node 65, Type 0, BuildingBlock: OLANEW_clean_sbu_2, # of connection points: 3
#     Node 66, Type 0, BuildingBlock: OLANEW_clean_sbu_2, # of connection points: 3
#     Node 67, Type 0, BuildingBlock: OLANEW_clean_sbu_2, # of connection points: 3
#     Node 68, Type 0, BuildingBlock: OLANEW_clean_sbu_2, # of connection points: 3
#     Node 69, Type 0, BuildingBlock: OLANEW_clean_sbu_2, # of connection points: 3
#     Node 70, Type 0, BuildingBlock: OLANEW_clean_sbu_2, # of connection points: 3
#     Node 71, Type 0, BuildingBlock: OLANEW_clean_sbu_2, # of connection points: 3
#     Node 72, Type 0, BuildingBlock: OLANEW_clean_sbu_2, # of connection points: 3
#     Node 73, Type 0, BuildingBlock: OLANEW_clean_sbu_2, # of connection points: 3
#     Node 74, Type 0, BuildingBlock: OLANEW_clean_sbu_2, # of connection points: 3
#     Node 75, Type 0, BuildingBlock: OLANEW_clean_sbu_2, # of connection points: 3
#     Node 76, Type 0, BuildingBlock: OLANEW_clean_sbu_2, # of connection points: 3
#     Node 77, Type 0, BuildingBlock: OLANEW_clean_sbu_2, # of connection points: 3
#     Node 78, Type 0, BuildingBlock: OLANEW_clean_sbu_2, # of connection points: 3
#     Node 79, Type 0, BuildingBlock: OLANEW_clean_sbu_2, # of connection points: 3
#     Node 80, Type 0, BuildingBlock: OLANEW_clean_sbu_2, # of connection points: 3
#     Node 81, Type 0, BuildingBlock: OLANEW_clean_sbu_2, # of connection points: 3
#     Node 82, Type 0, BuildingBlock: OLANEW_clean_sbu_2, # of connection points: 3
#     Node 83, Type 0, BuildingBlock: OLANEW_clean_sbu_2, # of connection points: 3
#     Node 84, Type 0, BuildingBlock: OLANEW_clean_sbu_2, # of connection points: 3
#     Node 85, Type 0, BuildingBlock: OLANEW_clean_sbu_2, # of connection points: 3
#     Node 86, Type 0, BuildingBlock: OLANEW_clean_sbu_2, # of connection points: 3
#     Node 87, Type 0, BuildingBlock: OLANEW_clean_sbu_2, # of connection points: 3
#     Node 88, Type 0, BuildingBlock: OLANEW_clean_sbu_2, # of connection points: 3
#     Node 89, Type 0, BuildingBlock: OLANEW_clean_sbu_2, # of connection points: 3
#     Node 90, Type 0, BuildingBlock: OLANEW_clean_sbu_2, # of connection points: 3
#     Node 91, Type 0, BuildingBlock: OLANEW_clean_sbu_2, # of connection points: 3
#     Node 92, Type 0, BuildingBlock: OLANEW_clean_sbu_2, # of connection points: 3
#     Node 93, Type 0, BuildingBlock: OLANEW_clean_sbu_2, # of connection points: 3
#     Node 94, Type 0, BuildingBlock: OLANEW_clean_sbu_2, # of connection points: 3
#     Node 95, Type 0, BuildingBlock: OLANEW_clean_sbu_2, # of connection points: 3
#     Node 96, Type 1, BuildingBlock: ESEHIV_clean_linker_0, # of connection points: 3
#     Node 97, Type 1, BuildingBlock: ESEHIV_clean_linker_0, # of connection points: 3
#     Node 98, Type 1, BuildingBlock: ESEHIV_clean_linker_0, # of connection points: 3
#     Node 99, Type 1, BuildingBlock: ESEHIV_clean_linker_0, # of connection points: 3
#     Node 100, Type 1, BuildingBlock: ESEHIV_clean_linker_0, # of connection points: 3
#     Node 101, Type 1, BuildingBlock: ESEHIV_clean_linker_0, # of connection points: 3
#     Node 102, Type 1, BuildingBlock: ESEHIV_clean_linker_0, # of connection points: 3
#     Node 103, Type 1, BuildingBlock: ESEHIV_clean_linker_0, # of connection points: 3
#     Node 104, Type 1, BuildingBlock: ESEHIV_clean_linker_0, # of connection points: 3
#     Node 105, Type 1, BuildingBlock: ESEHIV_clean_linker_0, # of connection points: 3
#     Node 106, Type 1, BuildingBlock: ESEHIV_clean_linker_0, # of connection points: 3
#     Node 107, Type 1, BuildingBlock: ESEHIV_clean_linker_0, # of connection points: 3
#     Node 108, Type 1, BuildingBlock: ESEHIV_clean_linker_0, # of connection points: 3
#     Node 109, Type 1, BuildingBlock: ESEHIV_clean_linker_0, # of connection points: 3
#     Node 110, Type 1, BuildingBlock: ESEHIV_clean_linker_0, # of connection points: 3
#     Node 111, Type 1, BuildingBlock: ESEHIV_clean_linker_0, # of connection points: 3
#     Node 112, Type 1, BuildingBlock: ESEHIV_clean_linker_0, # of connection points: 3
#     Node 113, Type 1, BuildingBlock: ESEHIV_clean_linker_0, # of connection points: 3
#     Node 114, Type 1, BuildingBlock: ESEHIV_clean_linker_0, # of connection points: 3
#     Node 115, Type 1, BuildingBlock: ESEHIV_clean_linker_0, # of connection points: 3
#     Node 116, Type 1, BuildingBlock: ESEHIV_clean_linker_0, # of connection points: 3
#     Node 117, Type 1, BuildingBlock: ESEHIV_clean_linker_0, # of connection points: 3
#     Node 118, Type 1, BuildingBlock: ESEHIV_clean_linker_0, # of connection points: 3
#     Node 119, Type 1, BuildingBlock: ESEHIV_clean_linker_0, # of connection points: 3
#     Node 120, Type 1, BuildingBlock: ESEHIV_clean_linker_0, # of connection points: 3
#     Node 121, Type 1, BuildingBlock: ESEHIV_clean_linker_0, # of connection points: 3
#     Node 122, Type 1, BuildingBlock: ESEHIV_clean_linker_0, # of connection points: 3
#     Node 123, Type 1, BuildingBlock: ESEHIV_clean_linker_0, # of connection points: 3
#     Node 124, Type 1, BuildingBlock: ESEHIV_clean_linker_0, # of connection points: 3
#     Node 125, Type 1, BuildingBlock: ESEHIV_clean_linker_0, # of connection points: 3
#     Node 126, Type 1, BuildingBlock: ESEHIV_clean_linker_0, # of connection points: 3
#     Node 127, Type 1, BuildingBlock: ESEHIV_clean_linker_0, # of connection points: 3
#     Node 128, Type 1, BuildingBlock: ESEHIV_clean_linker_0, # of connection points: 3
#     Node 129, Type 1, BuildingBlock: ESEHIV_clean_linker_0, # of connection points: 3
#     Node 130, Type 1, BuildingBlock: ESEHIV_clean_linker_0, # of connection points: 3
#     Node 131, Type 1, BuildingBlock: ESEHIV_clean_linker_0, # of connection points: 3
#     Node 132, Type 1, BuildingBlock: ESEHIV_clean_linker_0, # of connection points: 3
#     Node 133, Type 1, BuildingBlock: ESEHIV_clean_linker_0, # of connection points: 3
#     Node 134, Type 1, BuildingBlock: ESEHIV_clean_linker_0, # of connection points: 3
#     Node 135, Type 1, BuildingBlock: ESEHIV_clean_linker_0, # of connection points: 3
#     Node 136, Type 1, BuildingBlock: ESEHIV_clean_linker_0, # of connection points: 3
#     Node 137, Type 1, BuildingBlock: ESEHIV_clean_linker_0, # of connection points: 3
#     Node 138, Type 1, BuildingBlock: ESEHIV_clean_linker_0, # of connection points: 3
#     Node 139, Type 1, BuildingBlock: ESEHIV_clean_linker_0, # of connection points: 3
#     Node 140, Type 1, BuildingBlock: ESEHIV_clean_linker_0, # of connection points: 3
#     Node 141, Type 1, BuildingBlock: ESEHIV_clean_linker_0, # of connection points: 3
#     Node 142, Type 1, BuildingBlock: ESEHIV_clean_linker_0, # of connection points: 3
#     Node 143, Type 1, BuildingBlock: ESEHIV_clean_linker_0, # of connection points: 3
#     Node 144, Type 1, BuildingBlock: ESEHIV_clean_linker_0, # of connection points: 3
#     Node 145, Type 1, BuildingBlock: ESEHIV_clean_linker_0, # of connection points: 3
#     Node 146, Type 1, BuildingBlock: ESEHIV_clean_linker_0, # of connection points: 3
#     Node 147, Type 1, BuildingBlock: ESEHIV_clean_linker_0, # of connection points: 3
#     Node 148, Type 1, BuildingBlock: ESEHIV_clean_linker_0, # of connection points: 3
#     Node 149, Type 1, BuildingBlock: ESEHIV_clean_linker_0, # of connection points: 3
#     Node 150, Type 1, BuildingBlock: ESEHIV_clean_linker_0, # of connection points: 3
#     Node 151, Type 1, BuildingBlock: ESEHIV_clean_linker_0, # of connection points: 3
#     Node 152, Type 1, BuildingBlock: ESEHIV_clean_linker_0, # of connection points: 3
#     Node 153, Type 1, BuildingBlock: ESEHIV_clean_linker_0, # of connection points: 3
#     Node 154, Type 1, BuildingBlock: ESEHIV_clean_linker_0, # of connection points: 3
#     Node 155, Type 1, BuildingBlock: ESEHIV_clean_linker_0, # of connection points: 3
#     Node 156, Type 1, BuildingBlock: ESEHIV_clean_linker_0, # of connection points: 3
#     Node 157, Type 1, BuildingBlock: ESEHIV_clean_linker_0, # of connection points: 3
#     Node 158, Type 1, BuildingBlock: ESEHIV_clean_linker_0, # of connection points: 3
#     Node 159, Type 1, BuildingBlock: ESEHIV_clean_linker_0, # of connection points: 3
#     Node 160, Type 1, BuildingBlock: ESEHIV_clean_linker_0, # of connection points: 3
#     Node 161, Type 1, BuildingBlock: ESEHIV_clean_linker_0, # of connection points: 3
#     Node 162, Type 1, BuildingBlock: ESEHIV_clean_linker_0, # of connection points: 3
#     Node 163, Type 1, BuildingBlock: ESEHIV_clean_linker_0, # of connection points: 3
#     Node 164, Type 1, BuildingBlock: ESEHIV_clean_linker_0, # of connection points: 3
#     Node 165, Type 1, BuildingBlock: ESEHIV_clean_linker_0, # of connection points: 3
#     Node 166, Type 1, BuildingBlock: ESEHIV_clean_linker_0, # of connection points: 3
#     Node 167, Type 1, BuildingBlock: ESEHIV_clean_linker_0, # of connection points: 3
#     Node 168, Type 1, BuildingBlock: ESEHIV_clean_linker_0, # of connection points: 3
#     Node 169, Type 1, BuildingBlock: ESEHIV_clean_linker_0, # of connection points: 3
#     Node 170, Type 1, BuildingBlock: ESEHIV_clean_linker_0, # of connection points: 3
#     Node 171, Type 1, BuildingBlock: ESEHIV_clean_linker_0, # of connection points: 3
#     Node 172, Type 1, BuildingBlock: ESEHIV_clean_linker_0, # of connection points: 3
#     Node 173, Type 1, BuildingBlock: ESEHIV_clean_linker_0, # of connection points: 3
#     Node 174, Type 1, BuildingBlock: ESEHIV_clean_linker_0, # of connection points: 3
#     Node 175, Type 1, BuildingBlock: ESEHIV_clean_linker_0, # of connection points: 3
#     Node 176, Type 1, BuildingBlock: ESEHIV_clean_linker_0, # of connection points: 3
#     Node 177, Type 1, BuildingBlock: ESEHIV_clean_linker_0, # of connection points: 3
#     Node 178, Type 1, BuildingBlock: ESEHIV_clean_linker_0, # of connection points: 3
#     Node 179, Type 1, BuildingBlock: ESEHIV_clean_linker_0, # of connection points: 3
#     Node 180, Type 1, BuildingBlock: ESEHIV_clean_linker_0, # of connection points: 3
#     Node 181, Type 1, BuildingBlock: ESEHIV_clean_linker_0, # of connection points: 3
#     Node 182, Type 1, BuildingBlock: ESEHIV_clean_linker_0, # of connection points: 3
#     Node 183, Type 1, BuildingBlock: ESEHIV_clean_linker_0, # of connection points: 3
#     Node 184, Type 1, BuildingBlock: ESEHIV_clean_linker_0, # of connection points: 3
#     Node 185, Type 1, BuildingBlock: ESEHIV_clean_linker_0, # of connection points: 3
#     Node 186, Type 1, BuildingBlock: ESEHIV_clean_linker_0, # of connection points: 3
#     Node 187, Type 1, BuildingBlock: ESEHIV_clean_linker_0, # of connection points: 3
#     Node 188, Type 1, BuildingBlock: ESEHIV_clean_linker_0, # of connection points: 3
#     Node 189, Type 1, BuildingBlock: ESEHIV_clean_linker_0, # of connection points: 3
#     Node 190, Type 1, BuildingBlock: ESEHIV_clean_linker_0, # of connection points: 3
#     Node 191, Type 1, BuildingBlock: ESEHIV_clean_linker_0, # of connection points: 3
#     Edge 192, Type (0, 1), None
#     Edge 193, Type (0, 1), None
#     Edge 194, Type (0, 1), None
#     Edge 195, Type (0, 1), None
#     Edge 196, Type (0, 1), None
#     Edge 197, Type (0, 1), None
#     Edge 198, Type (0, 1), None
#     Edge 199, Type (0, 1), None
#     Edge 200, Type (0, 1), None
#     Edge 201, Type (0, 1), None
#     Edge 202, Type (0, 1), None
#     Edge 203, Type (0, 1), None
#     Edge 204, Type (0, 1), None
#     Edge 205, Type (0, 1), None
#     Edge 206, Type (0, 1), None
#     Edge 207, Type (0, 1), None
#     Edge 208, Type (0, 1), None
#     Edge 209, Type (0, 1), None
#     Edge 210, Type (0, 1), None
#     Edge 211, Type (0, 1), None
#     Edge 212, Type (0, 1), None
#     Edge 213, Type (0, 1), None
#     Edge 214, Type (0, 1), None
#     Edge 215, Type (0, 1), None
#     Edge 216, Type (0, 1), None
#     Edge 217, Type (0, 1), None
#     Edge 218, Type (0, 1), None
#     Edge 219, Type (0, 1), None
#     Edge 220, Type (0, 1), None
#     Edge 221, Type (0, 1), None
#     Edge 222, Type (0, 1), None
#     Edge 223, Type (0, 1), None
#     Edge 224, Type (0, 1), None
#     Edge 225, Type (0, 1), None
#     Edge 226, Type (0, 1), None
#     Edge 227, Type (0, 1), None
#     Edge 228, Type (0, 1), None
#     Edge 229, Type (0, 1), None
#     Edge 230, Type (0, 1), None
#     Edge 231, Type (0, 1), None
#     Edge 232, Type (0, 1), None
#     Edge 233, Type (0, 1), None
#     Edge 234, Type (0, 1), None
#     Edge 235, Type (0, 1), None
#     Edge 236, Type (0, 1), None
#     Edge 237, Type (0, 1), None
#     Edge 238, Type (0, 1), None
#     Edge 239, Type (0, 1), None
#     Edge 240, Type (0, 1), None
#     Edge 241, Type (0, 1), None
#     Edge 242, Type (0, 1), None
#     Edge 243, Type (0, 1), None
#     Edge 244, Type (0, 1), None
#     Edge 245, Type (0, 1), None
#     Edge 246, Type (0, 1), None
#     Edge 247, Type (0, 1), None
#     Edge 248, Type (0, 1), None
#     Edge 249, Type (0, 1), None
#     Edge 250, Type (0, 1), None
#     Edge 251, Type (0, 1), None
#     Edge 252, Type (0, 1), None
#     Edge 253, Type (0, 1), None
#     Edge 254, Type (0, 1), None
#     Edge 255, Type (0, 1), None
#     Edge 256, Type (0, 1), None
#     Edge 257, Type (0, 1), None
#     Edge 258, Type (0, 1), None
#     Edge 259, Type (0, 1), None
#     Edge 260, Type (0, 1), None
#     Edge 261, Type (0, 1), None
#     Edge 262, Type (0, 1), None
#     Edge 263, Type (0, 1), None
#     Edge 264, Type (0, 1), None
#     Edge 265, Type (0, 1), None
#     Edge 266, Type (0, 1), None
#     Edge 267, Type (0, 1), None
#     Edge 268, Type (0, 1), None
#     Edge 269, Type (0, 1), None
#     Edge 270, Type (0, 1), None
#     Edge 271, Type (0, 1), None
#     Edge 272, Type (0, 1), None
#     Edge 273, Type (0, 1), None
#     Edge 274, Type (0, 1), None
#     Edge 275, Type (0, 1), None
#     Edge 276, Type (0, 1), None
#     Edge 277, Type (0, 1), None
#     Edge 278, Type (0, 1), None
#     Edge 279, Type (0, 1), None
#     Edge 280, Type (0, 1), None
#     Edge 281, Type (0, 1), None
#     Edge 282, Type (0, 1), None
#     Edge 283, Type (0, 1), None
#     Edge 284, Type (0, 1), None
#     Edge 285, Type (0, 1), None
#     Edge 286, Type (0, 1), None
#     Edge 287, Type (0, 1), None
#     Edge 288, Type (0, 1), None
#     Edge 289, Type (0, 1), None
#     Edge 290, Type (0, 1), None
#     Edge 291, Type (0, 1), None
#     Edge 292, Type (0, 1), None
#     Edge 293, Type (0, 1), None
#     Edge 294, Type (0, 1), None
#     Edge 295, Type (0, 1), None
#     Edge 296, Type (0, 1), None
#     Edge 297, Type (0, 1), None
#     Edge 298, Type (0, 1), None
#     Edge 299, Type (0, 1), None
#     Edge 300, Type (0, 1), None
#     Edge 301, Type (0, 1), None
#     Edge 302, Type (0, 1), None
#     Edge 303, Type (0, 1), None
#     Edge 304, Type (0, 1), None
#     Edge 305, Type (0, 1), None
#     Edge 306, Type (0, 1), None
#     Edge 307, Type (0, 1), None
#     Edge 308, Type (0, 1), None
#     Edge 309, Type (0, 1), None
#     Edge 310, Type (0, 1), None
#     Edge 311, Type (0, 1), None
#     Edge 312, Type (0, 1), None
#     Edge 313, Type (0, 1), None
#     Edge 314, Type (0, 1), None
#     Edge 315, Type (0, 1), None
#     Edge 316, Type (0, 1), None
#     Edge 317, Type (0, 1), None
#     Edge 318, Type (0, 1), None
#     Edge 319, Type (0, 1), None
#     Edge 320, Type (0, 1), None
#     Edge 321, Type (0, 1), None
#     Edge 322, Type (0, 1), None
#     Edge 323, Type (0, 1), None
#     Edge 324, Type (0, 1), None
#     Edge 325, Type (0, 1), None
#     Edge 326, Type (0, 1), None
#     Edge 327, Type (0, 1), None
#     Edge 328, Type (0, 1), None
#     Edge 329, Type (0, 1), None
#     Edge 330, Type (0, 1), None
#     Edge 331, Type (0, 1), None
#     Edge 332, Type (0, 1), None
#     Edge 333, Type (0, 1), None
#     Edge 334, Type (0, 1), None
#     Edge 335, Type (0, 1), None
#     Edge 336, Type (0, 1), None
#     Edge 337, Type (0, 1), None
#     Edge 338, Type (0, 1), None
#     Edge 339, Type (0, 1), None
#     Edge 340, Type (0, 1), None
#     Edge 341, Type (0, 1), None
#     Edge 342, Type (0, 1), None
#     Edge 343, Type (0, 1), None
#     Edge 344, Type (0, 1), None
#     Edge 345, Type (0, 1), None
#     Edge 346, Type (0, 1), None
#     Edge 347, Type (0, 1), None
#     Edge 348, Type (0, 1), None
#     Edge 349, Type (0, 1), None
#     Edge 350, Type (0, 1), None
#     Edge 351, Type (0, 1), None
#     Edge 352, Type (0, 1), None
#     Edge 353, Type (0, 1), None
#     Edge 354, Type (0, 1), None
#     Edge 355, Type (0, 1), None
#     Edge 356, Type (0, 1), None
#     Edge 357, Type (0, 1), None
#     Edge 358, Type (0, 1), None
#     Edge 359, Type (0, 1), None
#     Edge 360, Type (0, 1), None
#     Edge 361, Type (0, 1), None
#     Edge 362, Type (0, 1), None
#     Edge 363, Type (0, 1), None
#     Edge 364, Type (0, 1), None
#     Edge 365, Type (0, 1), None
#     Edge 366, Type (0, 1), None
#     Edge 367, Type (0, 1), None
#     Edge 368, Type (0, 1), None
#     Edge 369, Type (0, 1), None
#     Edge 370, Type (0, 1), None
#     Edge 371, Type (0, 1), None
#     Edge 372, Type (0, 1), None
#     Edge 373, Type (0, 1), None
#     Edge 374, Type (0, 1), None
#     Edge 375, Type (0, 1), None
#     Edge 376, Type (0, 1), None
#     Edge 377, Type (0, 1), None
#     Edge 378, Type (0, 1), None
#     Edge 379, Type (0, 1), None
#     Edge 380, Type (0, 1), None
#     Edge 381, Type (0, 1), None
#     Edge 382, Type (0, 1), None
#     Edge 383, Type (0, 1), None
#     Edge 384, Type (0, 1), None
#     Edge 385, Type (0, 1), None
#     Edge 386, Type (0, 1), None
#     Edge 387, Type (0, 1), None
#     Edge 388, Type (0, 1), None
#     Edge 389, Type (0, 1), None
#     Edge 390, Type (0, 1), None
#     Edge 391, Type (0, 1), None
#     Edge 392, Type (0, 1), None
#     Edge 393, Type (0, 1), None
#     Edge 394, Type (0, 1), None
#     Edge 395, Type (0, 1), None
#     Edge 396, Type (0, 1), None
#     Edge 397, Type (0, 1), None
#     Edge 398, Type (0, 1), None
#     Edge 399, Type (0, 1), None
#     Edge 400, Type (0, 1), None
#     Edge 401, Type (0, 1), None
#     Edge 402, Type (0, 1), None
#     Edge 403, Type (0, 1), None
#     Edge 404, Type (0, 1), None
#     Edge 405, Type (0, 1), None
#     Edge 406, Type (0, 1), None
#     Edge 407, Type (0, 1), None
#     Edge 408, Type (0, 1), None
#     Edge 409, Type (0, 1), None
#     Edge 410, Type (0, 1), None
#     Edge 411, Type (0, 1), None
#     Edge 412, Type (0, 1), None
#     Edge 413, Type (0, 1), None
#     Edge 414, Type (0, 1), None
#     Edge 415, Type (0, 1), None
#     Edge 416, Type (0, 1), None
#     Edge 417, Type (0, 1), None
#     Edge 418, Type (0, 1), None
#     Edge 419, Type (0, 1), None
#     Edge 420, Type (0, 1), None
#     Edge 421, Type (0, 1), None
#     Edge 422, Type (0, 1), None
#     Edge 423, Type (0, 1), None
#     Edge 424, Type (0, 1), None
#     Edge 425, Type (0, 1), None
#     Edge 426, Type (0, 1), None
#     Edge 427, Type (0, 1), None
#     Edge 428, Type (0, 1), None
#     Edge 429, Type (0, 1), None
#     Edge 430, Type (0, 1), None
#     Edge 431, Type (0, 1), None
#     Edge 432, Type (0, 1), None
#     Edge 433, Type (0, 1), None
#     Edge 434, Type (0, 1), None
#     Edge 435, Type (0, 1), None
#     Edge 436, Type (0, 1), None
#     Edge 437, Type (0, 1), None
#     Edge 438, Type (0, 1), None
#     Edge 439, Type (0, 1), None
#     Edge 440, Type (0, 1), None
#     Edge 441, Type (0, 1), None
#     Edge 442, Type (0, 1), None
#     Edge 443, Type (0, 1), None
#     Edge 444, Type (0, 1), None
#     Edge 445, Type (0, 1), None
#     Edge 446, Type (0, 1), None
#     Edge 447, Type (0, 1), None
#     Edge 448, Type (0, 1), None
#     Edge 449, Type (0, 1), None
#     Edge 450, Type (0, 1), None
#     Edge 451, Type (0, 1), None
#     Edge 452, Type (0, 1), None
#     Edge 453, Type (0, 1), None
#     Edge 454, Type (0, 1), None
#     Edge 455, Type (0, 1), None
#     Edge 456, Type (0, 1), None
#     Edge 457, Type (0, 1), None
#     Edge 458, Type (0, 1), None
#     Edge 459, Type (0, 1), None
#     Edge 460, Type (0, 1), None
#     Edge 461, Type (0, 1), None
#     Edge 462, Type (0, 1), None
#     Edge 463, Type (0, 1), None
#     Edge 464, Type (0, 1), None
#     Edge 465, Type (0, 1), None
#     Edge 466, Type (0, 1), None
#     Edge 467, Type (0, 1), None
#     Edge 468, Type (0, 1), None
#     Edge 469, Type (0, 1), None
#     Edge 470, Type (0, 1), None
#     Edge 471, Type (0, 1), None
#     Edge 472, Type (0, 1), None
#     Edge 473, Type (0, 1), None
#     Edge 474, Type (0, 1), None
#     Edge 475, Type (0, 1), None
#     Edge 476, Type (0, 1), None
#     Edge 477, Type (0, 1), None
#     Edge 478, Type (0, 1), None
#     Edge 479, Type (0, 1), None
# Relax obj value: 0.037
# Max RMSD: 0.110
# Mean RMSD: 0.084
data_MOF--net-ana-f--node1-OLANEW_clean_sbu_2--node2-ESEHIV_clean_linker_0--edge1-none
_symmetry_space_group_name_H-M    P1
_symmetry_Int_Tables_number       1
_symmetry_cell_setting            triclinic
loop_
_symmetry_equiv_pos_as_xyz
'x, y, z'
_cell_length_a     61.155493
_cell_length_b     61.146638
_cell_length_c     61.146798
_cell_angle_alpha  89.999979
_cell_angle_beta   90.000071
_cell_angle_gamma 90.000139
loop_
_atom_site_label
_atom_site_type_symbol
_atom_site_fract_x
_atom_site_fract_y
_atom_site_fract_z
_atom_type_partial_charge
O0 O 0.03257 0.20918 0.38136 0.0
Cd1 Cd -0.00092 0.19783 0.3995 0.0
O2 O 0.04574 0.17957 0.39619 0.0
Cd3 Cd 0.06897 0.15407 0.40522 0.0
O4 O 0.09812 0.14018 0.42007 0.0
C5 C 0.09743 0.12623 0.43545 0.0
O6 O 0.0784 0.11896 0.44227 0.0
C7 C 0.04849 0.1961 0.3838 0.0
C8 C 0.97726 0.17292 0.36855 0.0
O9 O 0.97351 0.19343 0.37069 0.0
O10 O -0.00933 0.16387 0.38187 0.0
O11 O 0.01782 0.78259 0.63132 0.0
Cd12 Cd 0.02918 0.74912 0.6495 0.0
O13 O 0.04739 0.79578 0.64618 0.0
Cd14 Cd 0.07286 0.81905 0.65522 0.0
O15 O 0.08669 0.84822 0.67009 0.0
C16 C 0.1006 0.84756 0.6855 0.0
O17 O 0.10788 0.82853 0.69234 0.0
C18 C 0.03088 0.79852 0.63376 0.0
C19 C 0.05417 0.72733 0.61858 0.0
O20 O 0.03366 0.72354 0.62071 0.0
O21 O 0.06318 0.74076 0.63191 0.0
O22 O 0.44427 0.76797 0.88146 0.0
Cd23 Cd 0.47775 0.7793 0.89961 0.0
O24 O 0.4311 0.79757 0.89631 0.0
Cd25 Cd 0.40787 0.82307 0.90535 0.0
O26 O 0.37872 0.83696 0.9202 0.0
C27 C 0.37941 0.85089 0.9356 0.0
O28 O 0.39844 0.85815 0.94244 0.0
C29 C 0.42835 0.78105 0.8839 0.0
C30 C 0.49957 0.80425 0.86868 0.0
O31 O 0.50332 0.78373 0.87081 0.0
O32 O 0.48616 0.81328 0.88202 0.0
O33 O 0.45938 0.19424 0.13136 0.0
Cd34 Cd 0.44804 0.22775 0.14948 0.0
O35 O 0.42976 0.18111 0.14619 0.0
Cd36 Cd 0.40424 0.1579 0.15522 0.0
O37 O 0.39032 0.12877 0.17008 0.0
C38 C 0.37638 0.12947 0.18547 0.0
O39 O 0.36913 0.14852 0.19228 0.0
C40 C 0.44628 0.17833 0.1338 0.0
C41 C 0.42305 0.24949 0.11854 0.0
O42 O 0.44356 0.25327 0.12065 0.0
O43 O 0.41404 0.2361 0.13191 0.0
O44 O 0.03257 0.76786 0.09568 0.0
Cd45 Cd -0.00092 0.77922 0.07754 0.0
O46 O 0.04574 0.79747 0.08085 0.0
Cd47 Cd 0.06897 0.82298 0.07182 0.0
O48 O 0.09812 0.83687 0.05698 0.0
C49 C 0.09743 0.85081 0.04159 0.0
O50 O 0.0784 0.85808 0.03477 0.0
C51 C 0.04849 0.78095 0.09325 0.0
C52 C 0.97726 0.80412 0.1085 0.0
O53 O 0.97351 0.78361 0.10635 0.0
O54 O -0.00933 0.81318 0.09517 0.0
O55 O 0.45938 0.7828 0.34569 0.0
Cd56 Cd 0.44804 0.74929 0.32757 0.0
O57 O 0.42976 0.79593 0.33086 0.0
Cd58 Cd 0.40424 0.81915 0.32183 0.0
O59 O 0.39032 0.84827 0.30696 0.0
C60 C 0.37638 0.84757 0.29157 0.0
O61 O 0.36913 0.82852 0.28477 0.0
C62 C 0.44628 0.79871 0.34325 0.0
C63 C 0.42305 0.72755 0.35851 0.0
O64 O 0.44356 0.72377 0.3564 0.0
O65 O 0.41404 0.74095 0.34514 0.0
O66 O 0.44427 0.20907 0.59558 0.0
Cd67 Cd 0.47775 0.19774 0.57743 0.0
O68 O 0.4311 0.17948 0.58073 0.0
Cd69 Cd 0.40787 0.15397 0.57169 0.0
O70 O 0.37872 0.14008 0.55684 0.0
C71 C 0.37941 0.12615 0.54144 0.0
O72 O 0.39844 0.1189 0.53461 0.0
C73 C 0.42835 0.19599 0.59314 0.0
C74 C 0.49957 0.1728 0.60836 0.0
O75 O 0.50332 0.19332 0.60623 0.0
O76 O 0.48616 0.16376 0.59503 0.0
O77 O 0.01781 0.19446 0.84572 0.0
Cd78 Cd 0.02918 0.22792 0.82754 0.0
O79 O 0.04739 0.18126 0.83086 0.0
Cd80 Cd 0.07286 0.15799 0.82182 0.0
O81 O 0.08668 0.12882 0.80696 0.0
C82 C 0.10059 0.12949 0.79154 0.0
O83 O 0.10787 0.14851 0.78471 0.0
C84 C 0.03088 0.17853 0.84328 0.0
C85 C 0.05416 0.24971 0.85846 0.0
O86 O 0.03365 0.2535 0.85633 0.0
O87 O 0.06317 0.23628 0.84513 0.0
O88 O 0.38157 0.03265 0.20917 0.0
Cd89 Cd 0.3997 -0.00086 0.19784 0.0
O90 O 0.39641 0.04578 0.17955 0.0
Cd91 Cd 0.40545 0.06899 0.15402 0.0
O92 O 0.42032 0.09812 0.14011 0.0
C93 C 0.43571 0.09741 0.12618 0.0
O94 O 0.44253 0.07837 0.11893 0.0
C95 C 0.38401 0.04855 0.19607 0.0
C96 C 0.36875 0.97734 0.17292 0.0
O97 O 0.37089 0.97358 0.19344 0.0
O98 O 0.38209 -0.00926 0.16388 0.0
O99 O 0.19426 0.13147 0.45907 0.0
Cd100 Cd 0.22775 0.14963 0.44773 0.0
O101 O 0.1811 0.14632 0.42947 0.0
Cd102 Cd 0.15787 0.15535 0.40396 0.0
O103 O 0.12872 0.1702 0.39007 0.0
C104 C 0.12941 0.1856 0.37614 0.0
O105 O 0.14844 0.19243 0.36888 0.0
C106 C 0.17835 0.13391 0.44598 0.0
C107 C 0.24956 0.1187 0.42279 0.0
O108 O 0.25332 0.12083 0.44331 0.0
O109 O 0.23616 0.13203 0.41375 0.0
O110 O 0.09516 0.94439 0.70912 0.0
Cd111 Cd 0.07698 0.97784 0.69773 0.0
O112 O 0.08041 0.93121 0.67948 0.0
Cd113 Cd 0.07148 0.90796 0.65395 0.0
O114 O 0.05669 0.87879 0.64003 0.0
C115 C 0.04133 0.87945 0.62607 0.0
O116 O 0.03449 0.89848 0.6188 0.0
C117 C 0.09278 0.92847 0.69602 0.0
C118 C 0.10791 -0.00035 0.67278 0.0
O119 O 0.10576 0.00343 0.69329 0.0
O120 O 0.09459 0.98621 0.66375 0.0
O121 O 0.28257 0.84566 0.95918 0.0
Cd122 Cd 0.24908 0.82753 0.94783 0.0
O123 O 0.29574 0.83084 0.92957 0.0
Cd124 Cd 0.31897 0.82181 0.90407 0.0
O125 O 0.34812 0.80697 0.89017 0.0
C126 C 0.34743 0.79158 0.87623 0.0
O127 O 0.3284 0.78476 0.86896 0.0
C128 C 0.29849 0.84323 0.9461 0.0
C129 C 0.22727 0.85848 0.92292 0.0
O130 O 0.22351 0.85633 0.94343 0.0
O131 O 0.24067 0.84516 0.91387 0.0
O132 O 0.38157 0.94439 0.26788 0.0
Cd133 Cd 0.3997 0.9779 0.2792 0.0
O134 O 0.39641 0.93126 0.29749 0.0
Cd135 Cd 0.40546 0.90805 0.32302 0.0
O136 O 0.42032 0.87893 0.33693 0.0
C137 C 0.43571 0.87963 0.35087 0.0
O138 O 0.44253 0.89868 0.35812 0.0
C139 C 0.38401 0.92849 0.28098 0.0
C140 C 0.36875 -0.00029 0.30412 0.0
O141 O 0.37089 0.00346 0.28361 0.0
O142 O 0.38209 0.9863 0.31317 0.0
O143 O 0.28257 0.13138 0.51786 0.0
Cd144 Cd 0.24908 0.14952 0.52922 0.0
O145 O 0.29574 0.14621 0.54747 0.0
Cd146 Cd 0.31897 0.15523 0.57298 0.0
O147 O 0.34812 0.17008 0.58687 0.0
C148 C 0.34743 0.18546 0.60081 0.0
O149 O 0.3284 0.19228 0.60808 0.0
C150 C 0.29849 0.13381 0.53094 0.0
C151 C 0.22727 0.11856 0.55412 0.0
O152 O 0.22352 0.12071 0.53361 0.0
O153 O 0.24067 0.13189 0.56318 0.0
O154 O 0.09516 0.03266 0.76792 0.0
Cd155 Cd 0.07698 -0.0008 0.77932 0.0
O156 O 0.08041 0.04584 0.79756 0.0
Cd157 Cd 0.07147 0.06909 0.8231 0.0
O158 O 0.05669 0.09826 0.83701 0.0
C159 C 0.04132 0.09759 0.85097 0.0
O160 O 0.03448 0.07857 0.85824 0.0
C161 C 0.09278 0.04858 0.78102 0.0
C162 C 0.10791 0.9774 0.80427 0.0
O163 O 0.10576 0.97361 0.78376 0.0
O164 O 0.09459 -0.00917 0.81329 0.0
O165 O 0.19426 0.84557 0.01797 0.0
Cd166 Cd 0.22775 0.82742 0.02931 0.0
O167 O 0.1811 0.83072 0.04757 0.0
Cd168 Cd 0.15787 0.82169 0.07308 0.0
O169 O 0.12872 0.80684 0.08697 0.0
C170 C 0.12941 0.79144 0.1009 0.0
O171 O 0.14844 0.78461 0.10816 0.0
C172 C 0.17835 0.84313 0.03106 0.0
C173 C 0.24956 0.85835 0.05425 0.0
O174 O 0.25332 0.85622 0.03373 0.0
O175 O 0.23615 0.84501 0.06328 0.0
O176 O 0.20937 0.38135 0.0328 0.0
Cd177 Cd 0.19804 0.39947 -0.00071 0.0
O178 O 0.17976 0.39618 0.04593 0.0
Cd179 Cd 0.15423 0.40522 0.06914 0.0
O180 O 0.14032 0.42009 0.09827 0.0
C181 C 0.12638 0.43547 0.09756 0.0
O182 O 0.11913 0.44228 0.07852 0.0
C183 C 0.19628 0.38379 0.0487 0.0
C184 C 0.17305 0.36853 0.97754 0.0
O185 O 0.19356 0.37063 0.97377 0.0
O186 O 0.16404 0.38189 -0.00906 0.0
O187 O 0.70937 0.09569 0.94424 0.0
Cd188 Cd 0.69804 0.07757 0.97775 0.0
O189 O 0.67976 0.08086 0.93111 0.0
Cd190 Cd 0.65423 0.07182 0.9079 0.0
O191 O 0.64032 0.05696 0.87877 0.0
C192 C 0.62638 0.04157 0.87948 0.0
O193 O 0.61913 0.03476 0.89852 0.0
C194 C 0.69628 0.09325 0.92834 0.0
C195 C 0.67305 0.10851 -0.0005 0.0
O196 O 0.69356 0.10641 0.00327 0.0
O197 O 0.66404 0.09515 0.9861 0.0
O198 O 0.13158 0.45917 0.19439 0.0
Cd199 Cd 0.14971 0.44785 0.22789 0.0
O200 O 0.14642 0.42956 0.18126 0.0
Cd201 Cd 0.15545 0.40402 0.15805 0.0
O202 O 0.17032 0.39011 0.12892 0.0
C203 C 0.18571 0.37618 0.12963 0.0
O204 O 0.19252 0.36893 0.14867 0.0
C205 C 0.13402 0.44607 0.17848 0.0
C206 C 0.11876 0.42293 0.2497 0.0
O207 O 0.1209 0.44344 0.25345 0.0
O208 O 0.13209 0.41388 0.23629 0.0
O209 O 0.76781 0.88131 0.44446 0.0
Cd210 Cd 0.77918 0.89949 0.47793 0.0
O211 O 0.79738 0.89617 0.43126 0.0
Cd212 Cd 0.82285 0.90522 0.40799 0.0
O213 O 0.83667 0.92009 0.37882 0.0
C214 C 0.85058 0.9355 0.37948 0.0
O215 O 0.85786 0.94234 0.39851 0.0
C216 C 0.78088 0.88375 0.42852 0.0
C217 C 0.80416 0.86857 0.49971 0.0
O218 O 0.78365 0.8707 0.5035 0.0
O219 O 0.81317 0.8819 0.48628 0.0
O220 O 0.84514 0.01792 0.19438 0.0
Cd221 Cd 0.82696 0.02931 0.22784 0.0
O222 O 0.8304 0.04756 0.1812 0.0
Cd223 Cd 0.82147 0.07309 0.15795 0.0
O224 O 0.80669 0.08701 0.12878 0.0
C225 C 0.79133 0.10097 0.12945 0.0
O226 O 0.78449 0.10825 0.14847 0.0
C227 C 0.84277 0.03101 0.17846 0.0
C228 C 0.85789 0.05426 0.24964 0.0
O229 O 0.85574 0.03375 0.25342 0.0
O230 O 0.84458 0.06329 0.23621 0.0
O231 O 0.26782 0.59573 0.53259 0.0
Cd232 Cd 0.27918 0.57755 0.49912 0.0
O233 O 0.29739 0.58087 0.54578 0.0
Cd234 Cd 0.32286 0.57182 0.56905 0.0
O235 O 0.33668 0.55696 0.59822 0.0
C236 C 0.35059 0.54154 0.59756 0.0
O237 O 0.35787 0.53471 0.57853 0.0
C238 C 0.28088 0.59329 0.54852 0.0
C239 C 0.30416 0.60847 0.47733 0.0
O240 O 0.28366 0.60634 0.47354 0.0
O241 O 0.31317 0.59514 0.49076 0.0
O242 O 0.13158 0.51787 0.28265 0.0
Cd243 Cd 0.14971 0.5292 0.24915 0.0
O244 O 0.14642 0.54749 0.29578 0.0
Cd245 Cd 0.15546 0.57302 0.31899 0.0
O246 O 0.17033 0.58693 0.34812 0.0
C247 C 0.18572 0.60087 0.34741 0.0
O248 O 0.19253 0.60812 0.32837 0.0
C249 C 0.13403 0.53097 0.29856 0.0
C250 C 0.11877 0.55412 0.22734 0.0
O251 O 0.12091 0.53361 0.22358 0.0
O252 O 0.1321 0.56317 0.24074 0.0
O253 O 0.34515 0.45913 0.78266 0.0
Cd254 Cd 0.32697 0.44773 0.7492 0.0
O255 O 0.3304 0.42948 0.79584 0.0
Cd256 Cd 0.32147 0.40395 0.81909 0.0
O257 O 0.30669 0.39003 0.84826 0.0
C258 C 0.29133 0.37607 0.84759 0.0
O259 O 0.28449 0.3688 0.82857 0.0
C260 C 0.34277 0.44603 0.79858 0.0
C261 C 0.3579 0.42278 0.7274 0.0
O262 O 0.35575 0.44329 0.72362 0.0
O263 O 0.34458 0.41375 0.74083 0.0
O264 O 0.93701 0.80819 0.55908 0.0
Cd265 Cd 0.96166 0.83399 0.54164 0.0
O266 O 0.91403 0.79937 0.53269 0.0
Cd267 Cd 0.91982 0.8263 0.51 0.0
O268 O 0.88638 0.83848 0.50596 0.0
C269 C 0.87235 0.82315 0.50538 0.0
O270 O 0.87925 0.80284 0.50421 0.0
C271 C 0.92134 0.79662 0.55193 0.0
C272 C -0.00575 0.83852 0.57301 0.0
O273 O 0.97968 0.8534 0.57067 0.0
O274 O -0.00581 0.82233 0.55972 0.0
O275 O 0.91853 0.18712 0.3092 0.0
Cd276 Cd 0.89275 0.21183 0.29182 0.0
O277 O 0.92714 0.16405 0.28282 0.0
Cd278 Cd 0.9002 0.16992 0.26016 0.0
O279 O 0.88799 0.13649 0.25605 0.0
C280 C 0.90332 0.12244 0.25541 0.0
O281 O 0.92363 0.12935 0.25423 0.0
C282 C 0.93 0.17137 0.30203 0.0
C283 C 0.88829 0.24442 0.3232 0.0
O284 O 0.87339 0.22987 0.32087 0.0
O285 O 0.90447 0.24433 0.3099 0.0
O286 O 0.54023 0.16849 0.05926 0.0
Cd287 Cd 0.51559 0.14266 0.04183 0.0
O288 O 0.5631 0.17737 0.03279 0.0
Cd289 Cd 0.55731 0.15045 0.0101 0.0
O290 O 0.59078 0.13839 0.00592 0.0
C291 C 0.60476 0.15378 0.00529 0.0
O292 O 0.59778 0.17407 0.00415 0.0
C293 C 0.55585 0.18009 0.05206 0.0
C294 C 0.48295 0.13821 0.07316 0.0
O295 O 0.49751 0.12332 0.07087 0.0
O296 O 0.48304 0.15437 0.05984 0.0
O297 O 0.55832 0.79017 0.80931 0.0
Cd298 Cd 0.58409 0.7655 0.79185 0.0
O299 O 0.54953 0.81312 0.78288 0.0
Cd300 Cd 0.57645 0.80728 0.7602 0.0
O301 O 0.58864 0.84072 0.75609 0.0
C302 C 0.57331 0.85476 0.75549 0.0
O303 O 0.553 0.84785 0.75433 0.0
C304 C 0.54677 0.80585 0.80213 0.0
C305 C 0.58856 0.73284 0.82316 0.0
O306 O 0.60346 0.74739 0.82086 0.0
O307 O 0.57238 0.73295 0.80987 0.0
O308 O 0.93701 0.16885 0.91795 0.0
Cd309 Cd 0.96165 0.14305 0.93539 0.0
O310 O 0.91404 0.17768 0.94435 0.0
Cd311 Cd 0.91982 0.15076 0.96704 0.0
O312 O 0.88639 0.13857 0.97108 0.0
C313 C 0.87235 0.15391 0.97166 0.0
O314 O 0.87925 0.17422 0.97283 0.0
C315 C 0.92133 0.18043 0.9251 0.0
C316 C -0.00576 0.13853 0.90402 0.0
O317 O 0.97967 0.12365 0.90636 0.0
O318 O -0.00582 0.15471 0.91731 0.0
O319 O 0.55832 0.18688 0.66773 0.0
Cd320 Cd 0.58409 0.21155 0.68519 0.0
O321 O 0.54953 0.16393 0.69416 0.0
Cd322 Cd 0.57645 0.16976 0.71684 0.0
O323 O 0.58864 0.13633 0.72095 0.0
C324 C 0.57331 0.12229 0.72155 0.0
O325 O 0.553 0.12919 0.72271 0.0
C326 C 0.54677 0.1712 0.67491 0.0
C327 C 0.58856 0.24421 0.65388 0.0
O328 O 0.60346 0.22965 0.65618 0.0
O329 O 0.57238 0.24409 0.66717 0.0
O330 O 0.54022 0.80856 0.4178 0.0
Cd331 Cd 0.51558 0.83438 0.43522 0.0
O332 O 0.56309 0.79967 0.44426 0.0
Cd333 Cd 0.55731 0.82659 0.46696 0.0
O334 O 0.59078 0.83865 0.47113 0.0
C335 C 0.60476 0.82326 0.47176 0.0
O336 O 0.59778 0.80298 0.4729 0.0
C337 C 0.55584 0.79695 0.425 0.0
C338 C 0.48295 0.83883 0.40389 0.0
O339 O 0.49751 0.85373 0.40618 0.0
O340 O 0.48304 0.82267 0.41721 0.0
O341 O 0.91853 0.78993 0.16784 0.0
Cd342 Cd 0.89275 0.76522 0.18523 0.0
O343 O 0.92714 0.81299 0.19423 0.0
Cd344 Cd 0.90021 0.80712 0.21688 0.0
O345 O 0.888 0.84055 0.22099 0.0
C346 C 0.90333 0.8546 0.22163 0.0
O347 O 0.92363 0.8477 0.22282 0.0
C348 C 0.93 0.80567 0.17501 0.0
C349 C 0.88829 0.73263 0.15384 0.0
O350 O 0.87339 0.74718 0.15618 0.0
O351 O 0.90446 0.73271 0.16714 0.0
O352 O 0.55941 0.93703 0.80847 0.0
Cd353 Cd 0.542 0.96173 0.83425 0.0
O354 O 0.53297 0.91409 0.79968 0.0
Cd355 Cd 0.51027 0.91994 0.82658 0.0
O356 O 0.50608 0.88649 0.8387 0.0
C357 C 0.50545 0.87248 0.82333 0.0
O358 O 0.50432 0.87943 0.80304 0.0
C359 C 0.55222 0.92136 0.79692 0.0
C360 C 0.57335 -0.00565 0.83868 0.0
O361 O 0.57103 0.9798 0.85359 0.0
O362 O 0.56004 -0.00575 0.82251 0.0
O363 O 0.79021 0.80924 0.55856 0.0
Cd364 Cd 0.76558 0.79182 0.58438 0.0
O365 O 0.8131 0.78278 0.54968 0.0
Cd366 Cd 0.80731 0.76009 0.57661 0.0
O367 O 0.84079 0.75592 0.58866 0.0
C368 C 0.85476 0.75529 0.57327 0.0
O369 O 0.84778 0.75414 0.55299 0.0
C370 C 0.80584 0.80204 0.54696 0.0
C371 C 0.73294 0.82315 0.58883 0.0
O372 O 0.74751 0.82086 0.60373 0.0
O373 O 0.73303 0.80983 0.57267 0.0
O374 O 0.91731 0.04012 0.30832 0.0
Cd375 Cd 0.93478 0.01542 0.33405 0.0
O376 O 0.94371 0.06312 0.29958 0.0
Cd377 Cd 0.96646 0.05725 0.32643 0.0
O378 O 0.97068 0.0907 0.33854 0.0
C379 C 0.9713 0.10471 0.32318 0.0
O380 O 0.9724 0.09776 0.30288 0.0
C381 C 0.92447 0.05583 0.2968 0.0
C382 C 0.90346 0.98277 0.33854 0.0
O383 O 0.9058 -0.00268 0.35345 0.0
O384 O 0.91672 0.98289 0.32234 0.0
O385 O 0.68702 0.16797 0.05819 0.0
Cd386 Cd 0.71167 0.18541 0.08399 0.0
O387 O 0.66404 0.19436 0.04937 0.0
Cd388 Cd 0.66983 0.21705 0.0763 0.0
O389 O 0.63639 0.22109 0.08849 0.0
C390 C 0.62235 0.22167 0.07315 0.0
O391 O 0.62925 0.22284 0.05284 0.0
C392 C 0.67134 0.17512 0.04662 0.0
C393 C 0.74425 0.15403 0.08852 0.0
O394 O 0.72969 0.15638 0.1034 0.0
O395 O 0.74419 0.16733 0.07233 0.0
O396 O 0.55941 0.04001 0.66858 0.0
Cd397 Cd 0.542 0.01532 0.6428 0.0
O398 O 0.53297 0.06295 0.67736 0.0
Cd399 Cd 0.51027 0.05711 0.65046 0.0
O400 O 0.50608 0.09056 0.63834 0.0
C401 C 0.50545 0.10457 0.65371 0.0
O402 O 0.50432 0.09762 0.674 0.0
C403 C 0.55222 0.05569 0.68012 0.0
C404 C 0.57335 0.9827 0.63836 0.0
O405 O 0.57103 -0.00276 0.62346 0.0
O406 O 0.56004 0.9828 0.65453 0.0
O407 O 0.68701 0.80908 0.41885 0.0
Cd408 Cd 0.71165 0.79164 0.39305 0.0
O409 O 0.66404 0.78268 0.42768 0.0
Cd410 Cd 0.66982 0.75999 0.40075 0.0
O411 O 0.63638 0.75595 0.38856 0.0
C412 C 0.62235 0.75537 0.4039 0.0
O413 O 0.62925 0.7542 0.42421 0.0
C414 C 0.67133 0.80192 0.43042 0.0
C415 C 0.74424 0.82301 0.38852 0.0
O416 O 0.72967 0.82067 0.37364 0.0
O417 O 0.74418 0.80972 0.40471 0.0
O418 O 0.91731 0.93692 0.16872 0.0
Cd419 Cd 0.93478 0.96162 0.14299 0.0
O420 O 0.94371 0.91392 0.17747 0.0
Cd421 Cd 0.96646 0.91979 0.15062 0.0
O422 O 0.97069 0.88634 0.1385 0.0
C423 C 0.9713 0.87234 0.15387 0.0
O424 O 0.9724 0.87928 0.17417 0.0
C425 C 0.92447 0.92121 0.18024 0.0
C426 C 0.90346 -0.00574 0.13849 0.0
O427 O 0.9058 0.97972 0.12359 0.0
O428 O 0.91673 -0.00585 0.15469 0.0
O429 O 0.79021 0.1678 0.91848 0.0
Cd430 Cd 0.76558 0.18522 0.89266 0.0
O431 O 0.8131 0.19426 0.92735 0.0
Cd432 Cd 0.80731 0.21696 0.90043 0.0
O433 O 0.84078 0.22113 0.88837 0.0
C434 C 0.85476 0.22176 0.90376 0.0
O435 O 0.84778 0.22291 0.92405 0.0
C436 C 0.80585 0.175 0.93008 0.0
C437 C 0.73294 0.15389 0.88821 0.0
O438 O 0.7475 0.15619 0.87331 0.0
O439 O 0.73303 0.16721 0.90437 0.0
O440 O 0.80833 0.55932 0.93687 0.0
Cd441 Cd 0.83409 0.54186 0.96154 0.0
O442 O 0.79953 0.53289 0.91392 0.0
Cd443 Cd 0.82644 0.51021 0.91976 0.0
O444 O 0.83864 0.5061 0.88632 0.0
C445 C 0.8233 0.50549 0.87228 0.0
O446 O 0.803 0.50434 0.87919 0.0
C447 C 0.79677 0.55214 0.92119 0.0
C448 C 0.83856 0.57317 -0.0058 0.0
O449 O 0.85346 0.57086 0.97964 0.0
O450 O 0.82238 0.55987 -0.00591 0.0
O451 O 0.30832 0.91772 0.04017 0.0
Cd452 Cd 0.33409 0.93518 0.0155 0.0
O453 O 0.29952 0.94415 0.06312 0.0
Cd454 Cd 0.32644 0.96683 0.05728 0.0
O455 O 0.33864 0.97094 0.09071 0.0
C456 C 0.32331 0.97154 0.10475 0.0
O457 O 0.303 0.9727 0.09785 0.0
C458 C 0.29677 0.9249 0.05585 0.0
C459 C 0.33855 0.90387 0.98284 0.0
O460 O 0.35345 0.90617 -0.0026 0.0
O461 O 0.32238 0.91716 0.98295 0.0
O462 O 0.8094 0.55847 0.79 0.0
Cd463 Cd 0.79199 0.58425 0.76531 0.0
O464 O 0.78297 0.54969 0.81295 0.0
Cd465 Cd 0.76026 0.57659 0.8071 0.0
O466 O 0.75608 0.58871 0.84055 0.0
C467 C 0.75545 0.57334 0.85456 0.0
O468 O 0.75432 0.55305 0.84761 0.0
C469 C 0.80221 0.54692 0.80568 0.0
C470 C 0.82335 0.58868 0.73269 0.0
O471 O 0.82103 0.60359 0.74724 0.0
O472 O 0.81004 0.57252 0.73279 0.0
O473 O 0.16853 0.05922 0.53993 0.0
Cd474 Cd 0.14275 0.04183 0.51523 0.0
O475 O 0.17715 0.03283 0.56299 0.0
Cd476 Cd 0.15022 0.01017 0.55713 0.0
O477 O 0.13801 0.00606 0.59055 0.0
C478 C 0.15334 0.00543 0.6046 0.0
O479 O 0.17365 0.00424 0.5977 0.0
C480 C 0.18 0.05205 0.55567 0.0
C481 C 0.13829 0.07321 0.48263 0.0
O482 O 0.12339 0.07088 0.49718 0.0
O483 O 0.15447 0.05991 0.48272 0.0
O484 O 0.16733 0.91872 0.79012 0.0
Cd485 Cd 0.1848 0.89299 0.76541 0.0
O486 O 0.19372 0.92746 0.81312 0.0
Cd487 Cd 0.21647 0.90061 0.80725 0.0
O488 O 0.2207 0.88849 0.8407 0.0
C489 C 0.22131 0.90386 0.85471 0.0
O490 O 0.22241 0.92415 0.84776 0.0
C491 C 0.17449 0.93023 0.80583 0.0
C492 C 0.15347 0.8885 0.73277 0.0
O493 O 0.15581 0.87359 0.74731 0.0
O494 O 0.16674 0.9047 0.73289 0.0
O495 O 0.66853 0.41783 0.43711 0.0
Cd496 Cd 0.64275 0.43522 0.46182 0.0
O497 O 0.67715 0.44422 0.41405 0.0
Cd498 Cd 0.65022 0.46688 0.41992 0.0
O499 O 0.63801 0.47099 0.38649 0.0
C500 C 0.65334 0.47163 0.37245 0.0
O501 O 0.67365 0.47281 0.37935 0.0
C502 C 0.68001 0.42501 0.42137 0.0
C503 C 0.63829 0.40384 0.49441 0.0
O504 O 0.6234 0.40617 0.47986 0.0
O505 O 0.65447 0.41714 0.49432 0.0
O506 O 0.8094 0.41858 0.68703 0.0
Cd507 Cd 0.79199 0.3928 0.71173 0.0
O508 O 0.78296 0.42736 0.66409 0.0
Cd509 Cd 0.76026 0.40046 0.66994 0.0
O510 O 0.75607 0.38834 0.63649 0.0
C511 C 0.75545 0.4037 0.62248 0.0
O512 O 0.75431 0.424 0.62942 0.0
C513 C 0.80221 0.43013 0.67136 0.0
C514 C 0.82334 0.38837 0.74435 0.0
O515 O 0.82103 0.37346 0.7298 0.0
O516 O 0.81004 0.40453 0.74425 0.0
O517 O 0.66732 0.55833 0.18693 0.0
Cd518 Cd 0.68479 0.58406 0.21163 0.0
O519 O 0.69372 0.54959 0.16392 0.0
Cd520 Cd 0.71647 0.57644 0.16979 0.0
O521 O 0.7207 0.58855 0.13634 0.0
C522 C 0.72131 0.57319 0.12234 0.0
O523 O 0.72241 0.55289 0.12928 0.0
C524 C 0.67448 0.54681 0.17121 0.0
C525 C 0.65347 0.58855 0.24427 0.0
O526 O 0.65581 0.60346 0.22973 0.0
O527 O 0.66674 0.57235 0.24415 0.0
O528 O 0.53257 0.70918 0.88137 0.0
Cd529 Cd 0.49908 0.69783 0.8995 0.0
O530 O 0.54574 0.67957 0.8962 0.0
Cd531 Cd 0.56898 0.65407 0.90522 0.0
O532 O 0.59812 0.64018 0.92007 0.0
C533 C 0.59744 0.62623 0.93545 0.0
O534 O 0.57841 0.61896 0.94227 0.0
C535 C 0.54849 0.6961 0.8838 0.0
C536 C 0.47727 0.67292 0.86855 0.0
O537 O 0.47352 0.69343 0.87069 0.0
O538 O 0.49067 0.66387 0.88187 0.0
O539 O 0.51782 0.28258 0.13133 0.0
Cd540 Cd 0.52919 0.24912 0.1495 0.0
O541 O 0.54739 0.29578 0.14619 0.0
Cd542 Cd 0.57286 0.31905 0.15523 0.0
O543 O 0.58669 0.34822 0.17009 0.0
C544 C 0.6006 0.34756 0.18551 0.0
O545 O 0.60788 0.32853 0.19234 0.0
C546 C 0.53089 0.29852 0.13377 0.0
C547 C 0.55417 0.22733 0.11859 0.0
O548 O 0.53366 0.22354 0.12072 0.0
O549 O 0.56318 0.24076 0.13191 0.0
O550 O 0.94427 0.26798 0.38146 0.0
Cd551 Cd 0.97776 0.27931 0.39961 0.0
O552 O 0.9311 0.29758 0.39631 0.0
Cd553 Cd 0.90787 0.32308 0.40535 0.0
O554 O 0.87873 0.33697 0.4202 0.0
C555 C 0.87941 0.3509 0.4356 0.0
O556 O 0.89845 0.35816 0.44244 0.0
C557 C 0.92835 0.28106 0.3839 0.0
C558 C -0.00043 0.30425 0.36868 0.0
O559 O 0.00332 0.28374 0.37081 0.0
O560 O 0.98616 0.31329 0.38202 0.0
O561 O 0.95938 0.69425 0.63136 0.0
Cd562 Cd 0.94804 0.72775 0.64948 0.0
O563 O 0.92977 0.68111 0.64619 0.0
Cd564 Cd 0.90424 0.6579 0.65522 0.0
O565 O 0.89032 0.62877 0.67009 0.0
C566 C 0.87638 0.62948 0.68547 0.0
O567 O 0.86913 0.64852 0.69228 0.0
C568 C 0.94628 0.67834 0.6338 0.0
C569 C 0.92305 0.7495 0.61854 0.0
O570 O 0.94356 0.75327 0.62064 0.0
O571 O 0.91404 0.7361 0.6319 0.0
O572 O 0.53257 0.26787 0.59568 0.0
Cd573 Cd 0.49908 0.27922 0.57754 0.0
O574 O 0.54574 0.29747 0.58085 0.0
Cd575 Cd 0.56898 0.32298 0.57182 0.0
O576 O 0.59812 0.33687 0.55697 0.0
C577 C 0.59744 0.35081 0.54159 0.0
O578 O 0.5784 0.35808 0.53477 0.0
C579 C 0.54849 0.28095 0.59324 0.0
C580 C 0.47726 0.30413 0.6085 0.0
O581 O 0.47351 0.28361 0.60635 0.0
O582 O 0.49067 0.31318 0.59517 0.0
O583 O 0.95938 0.2828 0.84567 0.0
Cd584 Cd 0.94804 0.24929 0.82755 0.0
O585 O 0.92976 0.29593 0.83084 0.0
Cd586 Cd 0.90423 0.31915 0.82181 0.0
O587 O 0.89032 0.34827 0.80695 0.0
C588 C 0.87638 0.34757 0.79156 0.0
O589 O 0.86913 0.32852 0.78476 0.0
C590 C 0.94628 0.29871 0.84323 0.0
C591 C 0.92304 0.22755 0.85849 0.0
O592 O 0.94356 0.22377 0.85639 0.0
O593 O 0.91403 0.24095 0.84513 0.0
O594 O 0.94427 0.70907 0.09558 0.0
Cd595 Cd 0.97775 0.69773 0.07743 0.0
O596 O 0.9311 0.67947 0.08073 0.0
Cd597 Cd 0.90787 0.65396 0.07169 0.0
O598 O 0.87873 0.64007 0.05684 0.0
C599 C 0.87941 0.62614 0.04144 0.0
O600 O 0.89844 0.61889 0.03461 0.0
C601 C 0.92835 0.69598 0.09314 0.0
C602 C -0.00043 0.67279 0.10836 0.0
O603 O 0.00332 0.69331 0.10623 0.0
O604 O 0.98616 0.66376 0.09503 0.0
O605 O 0.51781 0.69446 0.34572 0.0
Cd606 Cd 0.52918 0.72793 0.32755 0.0
O607 O 0.54738 0.68126 0.33086 0.0
Cd608 Cd 0.57286 0.65799 0.32182 0.0
O609 O 0.58668 0.62882 0.30696 0.0
C610 C 0.60059 0.62949 0.29154 0.0
O611 O 0.60787 0.64851 0.28471 0.0
C612 C 0.53088 0.67853 0.34328 0.0
C613 C 0.55416 0.74971 0.35847 0.0
O614 O 0.53365 0.75351 0.35634 0.0
O615 O 0.56317 0.73628 0.34514 0.0
O616 O 0.88157 0.53265 0.70917 0.0
Cd617 Cd 0.8997 0.49915 0.69784 0.0
O618 O 0.89641 0.54578 0.67955 0.0
Cd619 Cd 0.90545 0.56899 0.65402 0.0
O620 O 0.92032 0.59812 0.64011 0.0
C621 C 0.93571 0.59741 0.62618 0.0
O622 O 0.94253 0.57837 0.61893 0.0
C623 C 0.88401 0.54856 0.69607 0.0
C624 C 0.86875 0.47734 0.67292 0.0
O625 O 0.87089 0.47359 0.69344 0.0
O626 O 0.88208 0.49075 0.66388 0.0
O627 O 0.69427 0.63147 0.95907 0.0
Cd628 Cd 0.72775 0.64962 0.94774 0.0
O629 O 0.6811 0.64632 0.92947 0.0
Cd630 Cd 0.65787 0.65536 0.90397 0.0
O631 O 0.62873 0.6702 0.89007 0.0
C632 C 0.62941 0.6856 0.87614 0.0
O633 O 0.64844 0.69244 0.86889 0.0
C634 C 0.67835 0.63391 0.94599 0.0
C635 C 0.74957 0.61869 0.92279 0.0
O636 O 0.75332 0.62082 0.94331 0.0
O637 O 0.73616 0.63203 0.91376 0.0
O638 O 0.59516 0.44439 0.20913 0.0
Cd639 Cd 0.57697 0.47784 0.19773 0.0
O640 O 0.58041 0.43121 0.17949 0.0
Cd641 Cd 0.57148 0.40796 0.15395 0.0
O642 O 0.55669 0.37879 0.14004 0.0
C643 C 0.54132 0.37945 0.12608 0.0
O644 O 0.53449 0.39847 0.1188 0.0
C645 C 0.59278 0.42847 0.19603 0.0
C646 C 0.6079 0.49965 0.17278 0.0
O647 O 0.60575 0.50343 0.19329 0.0
O648 O 0.59459 0.48621 0.16375 0.0
O649 O 0.78257 0.34567 0.45918 0.0
Cd650 Cd 0.74909 0.32754 0.44783 0.0
O651 O 0.79574 0.33085 0.42957 0.0
Cd652 Cd 0.81898 0.32182 0.40407 0.0
O653 O 0.84812 0.30698 0.39017 0.0
C654 C 0.84744 0.29159 0.37623 0.0
O655 O 0.82841 0.28477 0.36896 0.0
C656 C 0.79849 0.34324 0.4461 0.0
C657 C 0.72727 0.35849 0.42292 0.0
O658 O 0.72352 0.35634 0.44343 0.0
O659 O 0.74068 0.34517 0.41387 0.0
O660 O 0.88157 0.44439 0.76787 0.0
Cd661 Cd 0.8997 0.4779 0.77919 0.0
O662 O 0.89641 0.43126 0.79748 0.0
Cd663 Cd 0.90545 0.40805 0.82301 0.0
O664 O 0.92032 0.37892 0.83692 0.0
C665 C 0.93571 0.37963 0.85086 0.0
O666 O 0.94253 0.39867 0.8581 0.0
C667 C 0.88401 0.42849 0.78097 0.0
C668 C 0.86875 0.49971 0.80412 0.0
O669 O 0.87089 0.50346 0.7836 0.0
O670 O 0.88208 0.4863 0.81316 0.0
O671 O 0.78257 0.63137 0.01786 0.0
Cd672 Cd 0.74909 0.64951 0.02921 0.0
O673 O 0.79574 0.6462 0.04747 0.0
Cd674 Cd 0.81898 0.65522 0.07297 0.0
O675 O 0.84812 0.67007 0.08687 0.0
C676 C 0.84744 0.68545 0.10081 0.0
O677 O 0.8284 0.69227 0.10808 0.0
C678 C 0.79849 0.6338 0.03094 0.0
C679 C 0.72727 0.61856 0.05412 0.0
O680 O 0.72352 0.6207 0.03361 0.0
O681 O 0.74068 0.63188 0.06317 0.0
O682 O 0.59515 0.53266 0.26792 0.0
Cd683 Cd 0.57698 0.4992 0.27932 0.0
O684 O 0.58041 0.54584 0.29756 0.0
Cd685 Cd 0.57147 0.56909 0.32309 0.0
O686 O 0.55669 0.59826 0.33701 0.0
C687 C 0.54132 0.59759 0.35097 0.0
O688 O 0.53448 0.57857 0.35825 0.0
C689 C 0.59277 0.54858 0.28102 0.0
C690 C 0.60791 0.4774 0.30426 0.0
O691 O 0.60576 0.47362 0.28376 0.0
O692 O 0.59459 0.49083 0.31329 0.0
O693 O 0.69427 0.34558 0.51797 0.0
Cd694 Cd 0.72775 0.32742 0.5293 0.0
O695 O 0.6811 0.33073 0.54757 0.0
Cd696 Cd 0.65787 0.32169 0.57308 0.0
O697 O 0.62873 0.30684 0.58697 0.0
C698 C 0.62941 0.29144 0.6009 0.0
O699 O 0.64844 0.28461 0.60815 0.0
C700 C 0.67835 0.34314 0.53106 0.0
C701 C 0.74957 0.35835 0.55425 0.0
O702 O 0.75332 0.35622 0.53373 0.0
O703 O 0.73616 0.34502 0.56328 0.0
O704 O 0.70937 0.88135 0.5328 0.0
Cd705 Cd 0.69803 0.89947 0.49929 0.0
O706 O 0.67976 0.89619 0.54593 0.0
Cd707 Cd 0.65424 0.90522 0.56914 0.0
O708 O 0.64032 0.92009 0.59827 0.0
C709 C 0.62638 0.93548 0.59757 0.0
O710 O 0.61913 0.94228 0.57852 0.0
C711 C 0.69628 0.8838 0.54871 0.0
C712 C 0.67304 0.86853 0.47755 0.0
O713 O 0.69356 0.87063 0.47377 0.0
O714 O 0.66403 0.8819 0.49094 0.0
O715 O 0.20938 0.59569 0.44424 0.0
Cd716 Cd 0.19804 0.57757 0.47775 0.0
O717 O 0.17977 0.58086 0.43111 0.0
Cd718 Cd 0.15424 0.57182 0.4079 0.0
O719 O 0.14033 0.55696 0.37877 0.0
C720 C 0.12639 0.54157 0.37948 0.0
O721 O 0.11914 0.53476 0.39852 0.0
C722 C 0.19629 0.59325 0.42834 0.0
C723 C 0.17305 0.60851 0.4995 0.0
O724 O 0.19356 0.60641 0.50327 0.0
O725 O 0.16404 0.59515 0.4861 0.0
O726 O 0.63157 0.95917 0.69439 0.0
Cd727 Cd 0.64971 0.94785 0.7279 0.0
O728 O 0.64642 0.92956 0.68126 0.0
Cd729 Cd 0.65546 0.90403 0.65805 0.0
O730 O 0.67032 0.89011 0.62892 0.0
C731 C 0.68571 0.87618 0.62963 0.0
O732 O 0.69253 0.86893 0.64868 0.0
C733 C 0.63402 0.94607 0.67849 0.0
C734 C 0.61876 0.92293 0.7497 0.0
O735 O 0.6209 0.94344 0.75346 0.0
O736 O 0.63209 0.91388 0.7363 0.0
O737 O 0.26782 0.38132 0.94446 0.0
Cd738 Cd 0.27918 0.39949 0.97793 0.0
O739 O 0.29739 0.39618 0.93126 0.0
Cd740 Cd 0.32286 0.40522 0.90799 0.0
O741 O 0.33668 0.42009 0.87882 0.0
C742 C 0.35059 0.4355 0.87949 0.0
O743 O 0.35787 0.44234 0.89851 0.0
C744 C 0.28088 0.38376 0.92853 0.0
C745 C 0.30416 0.36857 -0.00028 0.0
O746 O 0.28366 0.3707 0.00351 0.0
O747 O 0.31317 0.3819 0.98628 0.0
O748 O 0.34515 0.51792 0.69438 0.0
Cd749 Cd 0.32697 0.52931 0.72784 0.0
O750 O 0.3304 0.54756 0.6812 0.0
Cd751 Cd 0.32147 0.57309 0.65796 0.0
O752 O 0.30669 0.58701 0.62879 0.0
C753 C 0.29132 0.60097 0.62945 0.0
O754 O 0.28448 0.60825 0.64848 0.0
C755 C 0.34277 0.53102 0.67847 0.0
C756 C 0.3579 0.55426 0.74964 0.0
O757 O 0.35575 0.53375 0.75343 0.0
O758 O 0.34458 0.56329 0.73621 0.0
O759 O 0.76782 0.09573 0.03258 0.0
Cd760 Cd 0.77919 0.07756 -0.00089 0.0
O761 O 0.79739 0.08087 0.04578 0.0
Cd762 Cd 0.82286 0.07182 0.06905 0.0
O763 O 0.83668 0.05696 0.09822 0.0
C764 C 0.85059 0.04154 0.09755 0.0
O765 O 0.85787 0.03471 0.07853 0.0
C766 C 0.78089 0.09329 0.04851 0.0
C767 C 0.80416 0.10847 0.97732 0.0
O768 O 0.78366 0.10634 0.97353 0.0
O769 O 0.81318 0.09515 -0.00924 0.0
O770 O 0.63157 0.01787 0.78265 0.0
Cd771 Cd 0.64971 0.02919 0.74915 0.0
O772 O 0.64641 0.04749 0.79578 0.0
Cd773 Cd 0.65545 0.07302 0.81899 0.0
O774 O 0.67032 0.08693 0.84812 0.0
C775 C 0.68571 0.10087 0.84741 0.0
O776 O 0.69253 0.10811 0.82837 0.0
C777 C 0.63402 0.03097 0.79856 0.0
C778 C 0.61876 0.05412 0.72734 0.0
O779 O 0.6209 0.0336 0.72359 0.0
O780 O 0.63209 0.06316 0.74075 0.0
O781 O 0.84514 0.95912 0.28266 0.0
Cd782 Cd 0.82696 0.94773 0.2492 0.0
O783 O 0.83039 0.92948 0.29584 0.0
Cd784 Cd 0.82146 0.90395 0.31908 0.0
O785 O 0.80668 0.89003 0.34825 0.0
C786 C 0.79132 0.87607 0.34759 0.0
O787 O 0.78448 0.86879 0.32857 0.0
C788 C 0.84276 0.94602 0.29857 0.0
C789 C 0.85789 0.92278 0.2274 0.0
O790 O 0.85574 0.94329 0.22361 0.0
O791 O 0.84458 0.91375 0.24083 0.0
O792 O 0.43702 0.30818 0.05909 0.0
Cd793 Cd 0.46166 0.33399 0.04165 0.0
O794 O 0.41404 0.29937 0.0327 0.0
Cd795 Cd 0.41983 0.32629 0.01 0.0
O796 O 0.38639 0.33848 0.00596 0.0
C797 C 0.37235 0.32314 0.00538 0.0
O798 O 0.37925 0.30284 0.00421 0.0
C799 C 0.42134 0.29662 0.05194 0.0
C800 C 0.49425 0.33851 0.07302 0.0
O801 O 0.47968 0.35339 0.07068 0.0
O802 O 0.49419 0.32233 0.05973 0.0
O803 O 0.41853 0.68711 0.8092 0.0
Cd804 Cd 0.39275 0.71182 0.79182 0.0
O805 O 0.42715 0.66405 0.78281 0.0
Cd806 Cd 0.40021 0.66992 0.76016 0.0
O807 O 0.388 0.63649 0.75605 0.0
C808 C 0.40333 0.62244 0.75541 0.0
O809 O 0.42364 0.62934 0.75423 0.0
C810 C 0.43 0.67137 0.80203 0.0
C811 C 0.38829 0.74441 0.8232 0.0
O812 O 0.37339 0.72986 0.82086 0.0
O813 O 0.40446 0.74433 0.8099 0.0
O814 O 0.04022 0.66849 0.55925 0.0
Cd815 Cd 0.01559 0.64266 0.54183 0.0
O816 O 0.0631 0.67737 0.53279 0.0
Cd817 Cd 0.05731 0.65045 0.51009 0.0
O818 O 0.09079 0.63839 0.50592 0.0
C819 C 0.10476 0.65378 0.50529 0.0
O820 O 0.09778 0.67406 0.50415 0.0
C821 C 0.05585 0.68009 0.55205 0.0
C822 C 0.98295 0.63821 0.57316 0.0
O823 O -0.00249 0.62332 0.57086 0.0
O824 O 0.98304 0.65437 0.55984 0.0
O825 O 0.05832 0.29017 0.30931 0.0
Cd826 Cd 0.08409 0.2655 0.29185 0.0
O827 O 0.04953 0.31312 0.28288 0.0
Cd828 Cd 0.07645 0.30728 0.2602 0.0
O829 O 0.08865 0.34072 0.25609 0.0
C830 C 0.07331 0.35476 0.25548 0.0
O831 O 0.053 0.34785 0.25433 0.0
C832 C 0.04677 0.30585 0.30213 0.0
C833 C 0.08856 0.23284 0.32316 0.0
O834 O 0.10346 0.24739 0.32085 0.0
O835 O 0.07238 0.23295 0.30986 0.0
O836 O 0.43701 0.66885 0.41796 0.0
Cd837 Cd 0.46166 0.64305 0.4354 0.0
O838 O 0.41404 0.67768 0.44435 0.0
Cd839 Cd 0.41983 0.65075 0.46705 0.0
O840 O 0.38639 0.63856 0.47109 0.0
C841 C 0.37235 0.6539 0.47167 0.0
O842 O 0.37925 0.67421 0.47284 0.0
C843 C 0.42134 0.68042 0.42512 0.0
C844 C 0.49425 0.63853 0.40403 0.0
O845 O 0.47968 0.62365 0.40637 0.0
O846 O 0.49418 0.65471 0.41732 0.0
O847 O 0.05832 0.68687 0.16773 0.0
Cd848 Cd 0.08409 0.71155 0.18519 0.0
O849 O 0.04953 0.66393 0.19416 0.0
Cd850 Cd 0.07645 0.66976 0.21685 0.0
O851 O 0.08865 0.63633 0.22095 0.0
C852 C 0.07331 0.62229 0.22156 0.0
O853 O 0.05301 0.62919 0.22271 0.0
C854 C 0.04677 0.6712 0.17492 0.0
C855 C 0.08856 0.74421 0.15388 0.0
O856 O 0.10346 0.72965 0.15619 0.0
O857 O 0.07238 0.74409 0.16718 0.0
O858 O 0.04022 0.30855 0.91779 0.0
Cd859 Cd 0.01558 0.33438 0.93521 0.0
O860 O 0.0631 0.29968 0.94425 0.0
Cd861 Cd 0.05731 0.3266 0.96694 0.0
O862 O 0.09078 0.33865 0.97112 0.0
C863 C 0.10476 0.32326 0.97175 0.0
O864 O 0.09778 0.30298 0.97289 0.0
C865 C 0.05585 0.29695 0.92499 0.0
C866 C 0.98295 0.33883 0.90388 0.0
O867 O -0.00249 0.35372 0.90617 0.0
O868 O 0.98304 0.32267 0.9172 0.0
O869 O 0.41853 0.28993 0.66784 0.0
Cd870 Cd 0.39275 0.26523 0.68523 0.0
O871 O 0.42715 0.313 0.69423 0.0
Cd872 Cd 0.40021 0.30713 0.71688 0.0
O873 O 0.388 0.34056 0.72099 0.0
C874 C 0.40333 0.3546 0.72163 0.0
O875 O 0.42364 0.3477 0.72282 0.0
C876 C 0.43 0.30567 0.67501 0.0
C877 C 0.38829 0.23263 0.65385 0.0
O878 O 0.37339 0.24719 0.65618 0.0
O879 O 0.40447 0.23272 0.66715 0.0
O880 O 0.05941 0.43704 0.30846 0.0
Cd881 Cd 0.042 0.46173 0.33424 0.0
O882 O 0.03297 0.4141 0.29968 0.0
Cd883 Cd 0.01027 0.41995 0.32658 0.0
O884 O 0.00609 0.38649 0.3387 0.0
C885 C 0.00546 0.37248 0.32333 0.0
O886 O 0.00432 0.37943 0.30304 0.0
C887 C 0.05222 0.42136 0.29691 0.0
C888 C 0.07336 0.49435 0.33868 0.0
O889 O 0.07104 0.4798 0.35358 0.0
O890 O 0.06005 0.49425 0.32251 0.0
O891 O 0.29022 0.30924 0.05856 0.0
Cd892 Cd 0.26558 0.29182 0.08438 0.0
O893 O 0.3131 0.28278 0.04969 0.0
Cd894 Cd 0.30731 0.26009 0.07661 0.0
O895 O 0.34079 0.25591 0.08866 0.0
C896 C 0.35476 0.25529 0.07327 0.0
O897 O 0.34778 0.25414 0.05299 0.0
C898 C 0.30585 0.30204 0.04696 0.0
C899 C 0.23294 0.32315 0.08883 0.0
O900 O 0.2475 0.32086 0.10372 0.0
O901 O 0.23303 0.30983 0.07267 0.0
O902 O 0.41732 0.54012 0.80832 0.0
Cd903 Cd 0.43479 0.51542 0.83406 0.0
O904 O 0.44372 0.56312 0.79957 0.0
Cd905 Cd 0.46647 0.55725 0.82643 0.0
O906 O 0.47069 0.5907 0.83854 0.0
C907 C 0.47131 0.60471 0.82317 0.0
O908 O 0.47241 0.59776 0.80288 0.0
C909 C 0.42448 0.55583 0.79681 0.0
C910 C 0.40347 0.48278 0.83855 0.0
O911 O 0.40581 0.49732 0.85346 0.0
O912 O 0.41673 0.48289 0.82235 0.0
O913 O 0.18702 0.66796 0.55819 0.0
Cd914 Cd 0.21166 0.6854 0.58399 0.0
O915 O 0.16404 0.69436 0.54937 0.0
Cd916 Cd 0.16983 0.71705 0.5763 0.0
O917 O 0.13639 0.72109 0.58849 0.0
C918 C 0.12235 0.72167 0.57315 0.0
O919 O 0.12925 0.72284 0.55284 0.0
C920 C 0.17134 0.67512 0.54662 0.0
C921 C 0.24425 0.65403 0.58852 0.0
O922 O 0.22968 0.65637 0.6034 0.0
O923 O 0.24419 0.66732 0.57234 0.0
O924 O 0.05942 0.54001 0.16857 0.0
Cd925 Cd 0.042 0.51532 0.14279 0.0
O926 O 0.03297 0.56295 0.17737 0.0
Cd927 Cd 0.01027 0.5571 0.15046 0.0
O928 O 0.00609 0.59055 0.13835 0.0
C929 C 0.00546 0.60456 0.15371 0.0
O930 O 0.00433 0.59761 0.17401 0.0
C931 C 0.05222 0.55569 0.18013 0.0
C932 C 0.07335 0.4827 0.13836 0.0
O933 O 0.07104 0.49725 0.12345 0.0
O934 O 0.06005 0.4828 0.15453 0.0
O935 O 0.18702 0.30908 0.91885 0.0
Cd936 Cd 0.21166 0.29164 0.89305 0.0
O937 O 0.16403 0.28269 0.92766 0.0
Cd938 Cd 0.16982 0.25999 0.90074 0.0
O939 O 0.13638 0.25595 0.88855 0.0
C940 C 0.12235 0.25537 0.90389 0.0
O941 O 0.12925 0.2542 0.9242 0.0
C942 C 0.17134 0.30192 0.93041 0.0
C943 C 0.24425 0.32301 0.88853 0.0
O944 O 0.22968 0.32067 0.87364 0.0
O945 O 0.24419 0.30972 0.90471 0.0
O946 O 0.41732 0.43693 0.66872 0.0
Cd947 Cd 0.43479 0.46163 0.64299 0.0
O948 O 0.44371 0.41393 0.67747 0.0
Cd949 Cd 0.46647 0.4198 0.65062 0.0
O950 O 0.47069 0.38635 0.6385 0.0
C951 C 0.47131 0.37234 0.65387 0.0
O952 O 0.47241 0.37929 0.67417 0.0
C953 C 0.42448 0.42121 0.68024 0.0
C954 C 0.40347 0.49427 0.6385 0.0
O955 O 0.40581 0.47973 0.62359 0.0
O956 O 0.41673 0.49415 0.6547 0.0
O957 O 0.29022 0.6678 0.41849 0.0
Cd958 Cd 0.26558 0.68522 0.39266 0.0
O959 O 0.3131 0.69426 0.42737 0.0
Cd960 Cd 0.30731 0.71696 0.40045 0.0
O961 O 0.34078 0.72113 0.38839 0.0
C962 C 0.35476 0.72176 0.40378 0.0
O963 O 0.34778 0.7229 0.42406 0.0
C964 C 0.30585 0.675 0.43009 0.0
C965 C 0.23295 0.65389 0.38821 0.0
O966 O 0.24751 0.65619 0.37332 0.0
O967 O 0.23304 0.66721 0.40437 0.0
O968 O 0.30832 0.05933 0.43687 0.0
Cd969 Cd 0.33409 0.04187 0.46154 0.0
O970 O 0.29952 0.03289 0.41393 0.0
Cd971 Cd 0.32644 0.01021 0.41976 0.0
O972 O 0.33864 0.0061 0.38633 0.0
C973 C 0.32331 0.0055 0.37229 0.0
O974 O 0.303 0.00434 0.37919 0.0
C975 C 0.29677 0.05214 0.4212 0.0
C976 C 0.33856 0.07318 0.4942 0.0
O977 O 0.35345 0.07087 0.47965 0.0
O978 O 0.32238 0.05988 0.49409 0.0
O979 O 0.80832 0.41773 0.54017 0.0
Cd980 Cd 0.83409 0.43519 0.5155 0.0
O981 O 0.79952 0.44416 0.56311 0.0
Cd982 Cd 0.82644 0.46684 0.55728 0.0
O983 O 0.83863 0.47095 0.59071 0.0
C984 C 0.8233 0.47155 0.60475 0.0
O985 O 0.80299 0.47271 0.59785 0.0
C986 C 0.79677 0.42491 0.55585 0.0
C987 C 0.83856 0.40388 0.48284 0.0
O988 O 0.85346 0.40618 0.4974 0.0
O989 O 0.82238 0.41717 0.48296 0.0
O990 O 0.3094 0.05847 0.29 0.0
Cd991 Cd 0.29199 0.08425 0.26531 0.0
O992 O 0.28297 0.04969 0.31295 0.0
Cd993 Cd 0.26026 0.07659 0.3071 0.0
O994 O 0.25608 0.08871 0.34055 0.0
C995 C 0.25545 0.07334 0.35456 0.0
O996 O 0.25432 0.05305 0.34762 0.0
C997 C 0.30221 0.04692 0.30568 0.0
C998 C 0.32335 0.08868 0.23269 0.0
O999 O 0.32103 0.10359 0.24723 0.0
O1000 O 0.31004 0.07251 0.23279 0.0
O1001 O 0.66854 0.55921 0.03993 0.0
Cd1002 Cd 0.64275 0.54182 0.01523 0.0
O1003 O 0.67715 0.53282 0.063 0.0
Cd1004 Cd 0.65021 0.51017 0.05713 0.0
O1005 O 0.63801 0.50606 0.09056 0.0
C1006 C 0.65334 0.50542 0.1046 0.0
O1007 O 0.67364 0.50424 0.0977 0.0
C1008 C 0.68 0.55204 0.05567 0.0
C1009 C 0.6383 0.5732 0.98263 0.0
O1010 O 0.6234 0.57087 -0.00282 0.0
O1011 O 0.65447 0.5599 0.98272 0.0
O1012 O 0.66733 0.41872 0.29012 0.0
Cd1013 Cd 0.6848 0.39299 0.26542 0.0
O1014 O 0.69372 0.42747 0.31312 0.0
Cd1015 Cd 0.71648 0.40062 0.30725 0.0
O1016 O 0.7207 0.3885 0.3407 0.0
C1017 C 0.72131 0.40387 0.35471 0.0
O1018 O 0.72241 0.42417 0.34776 0.0
C1019 C 0.67449 0.43024 0.30583 0.0
C1020 C 0.65347 0.3885 0.23278 0.0
O1021 O 0.65582 0.37359 0.24732 0.0
O1022 O 0.66674 0.4047 0.23289 0.0
O1023 O 0.16853 0.91782 0.93711 0.0
Cd1024 Cd 0.14275 0.93521 0.96181 0.0
O1025 O 0.17715 0.94421 0.91405 0.0
Cd1026 Cd 0.15022 0.96687 0.91992 0.0
O1027 O 0.13801 0.97098 0.88649 0.0
C1028 C 0.15334 0.97162 0.87245 0.0
O1029 O 0.17365 0.9728 0.87935 0.0
C1030 C 0.18 0.925 0.92137 0.0
C1031 C 0.13829 0.90383 -0.00559 0.0
O1032 O 0.12339 0.90617 0.97986 0.0
O1033 O 0.15446 0.91713 -0.00568 0.0
O1034 O 0.3094 0.91857 0.18704 0.0
Cd1035 Cd 0.29199 0.89279 0.21173 0.0
O1036 O 0.28297 0.92735 0.16409 0.0
Cd1037 Cd 0.26027 0.90045 0.16994 0.0
O1038 O 0.25608 0.88833 0.13649 0.0
C1039 C 0.25545 0.9037 0.12248 0.0
O1040 O 0.25432 0.92399 0.12943 0.0
C1041 C 0.30221 0.93012 0.17136 0.0
C1042 C 0.32335 0.88836 0.24435 0.0
O1043 O 0.32103 0.87345 0.22981 0.0
O1044 O 0.31004 0.90453 0.24425 0.0
O1045 O 0.16733 0.05833 0.68693 0.0
Cd1046 Cd 0.18479 0.08406 0.71163 0.0
O1047 O 0.19372 0.04959 0.66392 0.0
Cd1048 Cd 0.21647 0.07644 0.66979 0.0
O1049 O 0.2207 0.08855 0.63634 0.0
C1050 C 0.22131 0.07319 0.62234 0.0
O1051 O 0.22241 0.05289 0.62928 0.0
C1052 C 0.17448 0.04681 0.67121 0.0
C1053 C 0.15347 0.08855 0.74427 0.0
O1054 O 0.15581 0.10346 0.72973 0.0
O1055 O 0.16674 0.07235 0.74416 0.0
H1056 H 0.08967 0.18277 0.3948 0.0
H1057 H 0.05406 0.21973 0.34688 0.0
H1058 H 0.12373 0.21266 0.34112 0.0
C1059 C 0.0892 0.19169 0.37961 0.0
C1060 C 0.10884 0.19559 0.36829 0.0
C1061 C 0.06929 0.20011 0.37196 0.0
C1062 C 0.06929 0.21293 0.35289 0.0
C1063 C 0.08888 0.21772 0.3419 0.0
C1064 C 0.10864 0.20908 0.3497 0.0
H1065 H 0.04414 0.83972 0.64477 0.0
H1066 H 0.00733 0.80404 0.59679 0.0
H1067 H 0.01435 0.87372 0.591 0.0
C1068 C 0.03526 0.83924 0.62956 0.0
C1069 C 0.03138 0.85887 0.61822 0.0
C1070 C 0.02688 0.81931 0.62191 0.0
C1071 C 0.0141 0.81929 0.6028 0.0
C1072 C 0.00933 0.83887 0.59179 0.0
C1073 C 0.01792 0.85864 0.5996 0.0
H1074 H 0.38717 0.79437 0.89491 0.0
H1075 H 0.42279 0.75747 0.84695 0.0
H1076 H 0.35312 0.76456 0.84118 0.0
C1077 C 0.38764 0.78547 0.87971 0.0
C1078 C 0.368 0.7816 0.86838 0.0
C1079 C 0.40755 0.77706 0.87206 0.0
C1080 C 0.40755 0.76427 0.85297 0.0
C1081 C 0.38797 0.7595 0.84197 0.0
C1082 C 0.36821 0.76813 0.84977 0.0
H1083 H 0.43293 0.13717 0.14483 0.0
H1084 H 0.46989 0.17273 0.09687 0.0
H1085 H 0.46276 0.10305 0.09115 0.0
C1086 C 0.44184 0.13762 0.12963 0.0
C1087 C 0.44572 0.11797 0.11832 0.0
C1088 C 0.45027 0.15752 0.12197 0.0
C1089 C 0.46308 0.1575 0.1029 0.0
C1090 C 0.46784 0.13791 0.09191 0.0
C1091 C 0.4592 0.11816 0.09972 0.0
H1092 H 0.08967 0.79427 0.08224 0.0
H1093 H 0.05406 0.75731 0.13016 0.0
H1094 H 0.12373 0.76438 0.13592 0.0
C1095 C 0.0892 0.78535 0.09743 0.0
C1096 C 0.10884 0.78146 0.10875 0.0
C1097 C 0.06929 0.77693 0.10508 0.0
C1098 C 0.06929 0.76412 0.12415 0.0
C1099 C 0.08888 0.75933 0.13514 0.0
C1100 C 0.10864 0.76796 0.12734 0.0
H1101 H 0.43293 0.83987 0.33222 0.0
H1102 H 0.46989 0.80431 0.38018 0.0
H1103 H 0.46276 0.87399 0.3859 0.0
C1104 C 0.44184 0.83942 0.34742 0.0
C1105 C 0.44571 0.85907 0.35873 0.0
C1106 C 0.45027 0.81952 0.35507 0.0
C1107 C 0.46308 0.81954 0.37415 0.0
C1108 C 0.46784 0.83914 0.38514 0.0
C1109 C 0.4592 0.85889 0.37733 0.0
H1110 H 0.38717 0.18267 0.58213 0.0
H1111 H 0.42279 0.21957 0.63009 0.0
H1112 H 0.35312 0.21248 0.63586 0.0
C1113 C 0.38764 0.19157 0.59734 0.0
C1114 C 0.368 0.19545 0.60866 0.0
C1115 C 0.40755 0.19998 0.60498 0.0
C1116 C 0.40755 0.21278 0.62407 0.0
C1117 C 0.38797 0.21754 0.63508 0.0
C1118 C 0.36821 0.20892 0.62727 0.0
H1119 H 0.04414 0.13732 0.83227 0.0
H1120 H 0.00732 0.173 0.88025 0.0
H1121 H 0.01434 0.10332 0.88604 0.0
C1122 C 0.03526 0.13781 0.84748 0.0
C1123 C 0.03137 0.11817 0.85882 0.0
C1124 C 0.02687 0.15773 0.85513 0.0
C1125 C 0.0141 0.15776 0.87423 0.0
C1126 C 0.00932 0.13818 0.88525 0.0
C1127 C 0.01792 0.11841 0.87744 0.0
H1128 H 0.39504 0.08972 0.18271 0.0
H1129 H 0.34707 0.05416 0.21965 0.0
H1130 H 0.34134 0.12383 0.2125 0.0
C1131 C 0.37984 0.08927 0.19161 0.0
C1132 C 0.36852 0.10892 0.19547 0.0
C1133 C 0.37218 0.06937 0.20005 0.0
C1134 C 0.3531 0.06938 0.21284 0.0
C1135 C 0.34211 0.08898 0.21759 0.0
C1136 C 0.34992 0.10873 0.20895 0.0
H1137 H 0.13717 0.14492 0.43266 0.0
H1138 H 0.17279 0.09696 0.46957 0.0
H1139 H 0.10312 0.09119 0.46248 0.0
C1140 C 0.13764 0.12971 0.44156 0.0
C1141 C 0.118 0.11839 0.44544 0.0
C1142 C 0.15755 0.12207 0.44998 0.0
C1143 C 0.15755 0.10298 0.46277 0.0
C1144 C 0.13797 0.09198 0.46754 0.0
C1145 C 0.11821 0.09978 0.45891 0.0
H1146 H 0.08186 0.88727 0.68268 0.0
H1147 H 0.13559 0.85329 0.71258 0.0
H1148 H 0.12969 0.92296 0.71968 0.0
C1149 C 0.09704 0.88776 0.69161 0.0
C1150 C 0.10464 0.90768 0.70004 0.0
C1151 C 0.10839 0.86814 0.6955 0.0
C1152 C 0.12698 0.86837 0.709 0.0
C1153 C 0.13473 0.88815 0.71765 0.0
C1154 C 0.12371 0.90772 0.71287 0.0
H1155 H 0.33967 0.83223 0.93277 0.0
H1156 H 0.30406 0.88015 0.96973 0.0
H1157 H 0.37373 0.88591 0.96267 0.0
C1158 C 0.3392 0.84742 0.94169 0.0
C1159 C 0.35884 0.85874 0.94559 0.0
C1160 C 0.31929 0.85506 0.95011 0.0
C1161 C 0.31929 0.87413 0.96293 0.0
C1162 C 0.33888 0.88512 0.96772 0.0
C1163 C 0.35864 0.87733 0.95908 0.0
H1164 H 0.39504 0.88732 0.29433 0.0
H1165 H 0.34708 0.92288 0.25739 0.0
H1166 H 0.34134 0.85321 0.26454 0.0
C1167 C 0.37984 0.88777 0.28543 0.0
C1168 C 0.36852 0.86812 0.28157 0.0
C1169 C 0.37218 0.90767 0.277 0.0
C1170 C 0.3531 0.90766 0.2642 0.0
C1171 C 0.34211 0.88806 0.25945 0.0
C1172 C 0.34992 0.86831 0.2681 0.0
H1173 H 0.33967 0.14482 0.54427 0.0
H1174 H 0.30406 0.0969 0.50731 0.0
H1175 H 0.37373 0.09114 0.51438 0.0
C1176 C 0.3392 0.12962 0.53535 0.0
C1177 C 0.35884 0.11831 0.53145 0.0
C1178 C 0.3193 0.12198 0.52693 0.0
C1179 C 0.31929 0.10291 0.51411 0.0
C1180 C 0.33888 0.09192 0.50932 0.0
C1181 C 0.35864 0.09972 0.51796 0.0
H1182 H 0.08186 0.08977 0.79436 0.0
H1183 H 0.13558 0.12375 0.76446 0.0
H1184 H 0.12969 0.05408 0.75737 0.0
C1185 C 0.09704 0.08928 0.78543 0.0
C1186 C 0.10464 0.06936 0.777 0.0
C1187 C 0.10839 0.10891 0.78154 0.0
C1188 C 0.12698 0.10867 0.76804 0.0
C1189 C 0.13473 0.0889 0.75939 0.0
C1190 C 0.12371 0.06933 0.76418 0.0
H1191 H 0.13717 0.83212 0.04438 0.0
H1192 H 0.17278 0.88008 0.00747 0.0
H1193 H 0.10312 0.88586 0.01457 0.0
C1194 C 0.13764 0.84733 0.03548 0.0
C1195 C 0.118 0.85866 0.0316 0.0
C1196 C 0.15754 0.85498 0.02706 0.0
C1197 C 0.15755 0.87406 0.01427 0.0
C1198 C 0.13797 0.88507 0.0095 0.0
C1199 C 0.11821 0.87727 0.01813 0.0
H1200 H 0.18293 0.39482 0.08987 0.0
H1201 H 0.21988 0.34686 0.05431 0.0
H1202 H 0.21276 0.34114 0.12399 0.0
C1203 C 0.19184 0.37963 0.08942 0.0
C1204 C 0.19571 0.36832 0.10907 0.0
C1205 C 0.20027 0.37197 0.06952 0.0
C1206 C 0.21307 0.35289 0.06954 0.0
C1207 C 0.21783 0.3419 0.08913 0.0
C1208 C 0.20919 0.34972 0.10888 0.0
H1209 H 0.68293 0.08222 0.88717 0.0
H1210 H 0.71988 0.13018 0.92273 0.0
H1211 H 0.71276 0.1359 0.85305 0.0
C1212 C 0.69184 0.09742 0.88762 0.0
C1213 C 0.69571 0.10873 0.86797 0.0
C1214 C 0.70027 0.10508 0.90752 0.0
C1215 C 0.71307 0.12416 0.9075 0.0
C1216 C 0.71783 0.13514 0.8879 0.0
C1217 C 0.70919 0.12733 0.86816 0.0
H1218 H 0.14504 0.43271 0.13732 0.0
H1219 H 0.09708 0.46966 0.17288 0.0
H1220 H 0.09134 0.46251 0.10321 0.0
C1221 C 0.12984 0.44162 0.13777 0.0
C1222 C 0.11853 0.44548 0.11812 0.0
C1223 C 0.12219 0.45005 0.15767 0.0
C1224 C 0.1031 0.46285 0.15765 0.0
C1225 C 0.09211 0.4676 0.13806 0.0
C1226 C 0.09992 0.45895 0.11831 0.0
H1227 H 0.79414 0.89477 0.38732 0.0
H1228 H 0.75732 0.84678 0.423 0.0
H1229 H 0.76434 0.84099 0.35332 0.0
C1230 C 0.78525 0.87955 0.38781 0.0
C1231 C 0.78137 0.86821 0.36817 0.0
C1232 C 0.77687 0.8719 0.40773 0.0
C1233 C 0.7641 0.8528 0.40775 0.0
C1234 C 0.75932 0.84179 0.38818 0.0
C1235 C 0.76792 0.84959 0.3684 0.0
H1236 H 0.83185 0.04436 0.13726 0.0
H1237 H 0.88558 0.01446 0.10329 0.0
H1238 H 0.87968 0.00736 0.17296 0.0
C1239 C 0.84704 0.03543 0.13776 0.0
C1240 C 0.85463 0.027 0.15768 0.0
C1241 C 0.85839 0.03154 0.11813 0.0
C1242 C 0.87697 0.01803 0.11837 0.0
C1243 C 0.88472 0.00939 0.13814 0.0
C1244 C 0.8737 0.01417 0.15771 0.0
H1245 H 0.29414 0.58227 0.58972 0.0
H1246 H 0.25733 0.63026 0.55404 0.0
H1247 H 0.26435 0.63605 0.62373 0.0
C1248 C 0.28526 0.59749 0.58924 0.0
C1249 C 0.28137 0.60883 0.60887 0.0
C1250 C 0.27688 0.60514 0.56931 0.0
C1251 C 0.2641 0.62424 0.56929 0.0
C1252 C 0.25933 0.63526 0.58887 0.0
C1253 C 0.26792 0.62745 0.60864 0.0
H1254 H 0.14505 0.54433 0.33972 0.0
H1255 H 0.09709 0.50739 0.30416 0.0
H1256 H 0.09135 0.51454 0.37383 0.0
C1257 C 0.12985 0.53543 0.33927 0.0
C1258 C 0.11853 0.53157 0.35892 0.0
C1259 C 0.12219 0.52699 0.31937 0.0
C1260 C 0.10311 0.5142 0.31938 0.0
C1261 C 0.09212 0.50945 0.33898 0.0
C1262 C 0.09993 0.51809 0.35873 0.0
H1263 H 0.33185 0.43268 0.83978 0.0
H1264 H 0.38558 0.46259 0.87375 0.0
H1265 H 0.37968 0.46968 0.80408 0.0
C1266 C 0.34704 0.44161 0.83929 0.0
C1267 C 0.35464 0.45005 0.81936 0.0
C1268 C 0.35839 0.44551 0.85891 0.0
C1269 C 0.37697 0.45901 0.85867 0.0
C1270 C 0.38473 0.46766 0.8389 0.0
C1271 C 0.3737 0.46287 0.81933 0.0
H1272 H 0.88062 0.77997 0.54814 0.0
H1273 H 0.93803 0.7781 0.58843 0.0
H1274 H 0.88015 0.74265 0.6077 0.0
C1275 C 0.88908 0.77396 0.56252 0.0
C1276 C 0.87791 0.76056 0.57745 0.0
C1277 C 0.91056 0.78077 0.56664 0.0
C1278 C 0.92126 0.7732 0.58544 0.0
C1279 C 0.91064 0.75909 0.60016 0.0
C1280 C 0.88868 0.75327 0.59635 0.0
H1281 H 0.94658 0.13063 0.29815 0.0
H1282 H 0.94863 0.18799 0.33852 0.0
H1283 H 0.98404 0.13003 0.35762 0.0
C1284 C 0.95264 0.13906 0.31253 0.0
C1285 C 0.96606 0.12785 0.32741 0.0
C1286 C 0.94586 0.16055 0.3167 0.0
C1287 C 0.95349 0.17121 0.3355 0.0
C1288 C 0.96761 0.16055 0.35016 0.0
C1289 C 0.97341 0.13859 0.34631 0.0
H1290 H 0.59651 0.19685 0.04815 0.0
H1291 H 0.5392 0.19861 0.08859 0.0
H1292 H 0.59702 0.23427 0.10763 0.0
C1293 C 0.58808 0.20285 0.06254 0.0
C1294 C 0.59924 0.21631 0.07741 0.0
C1295 C 0.56663 0.19598 0.06673 0.0
C1296 C 0.55595 0.20354 0.08555 0.0
C1297 C 0.56657 0.21772 0.10021 0.0
C1298 C 0.5885 0.22361 0.09633 0.0
H1299 H 0.53016 0.84657 0.79828 0.0
H1300 H 0.5282 0.78921 0.83864 0.0
H1301 H 0.49277 0.84714 0.85778 0.0
C1302 C 0.52412 0.83814 0.81266 0.0
C1303 C 0.51071 0.84934 0.82755 0.0
C1304 C 0.53092 0.81665 0.81682 0.0
C1305 C 0.52333 0.80598 0.83562 0.0
C1306 C 0.5092 0.81663 0.8503 0.0
C1307 C 0.50339 0.83859 0.84646 0.0
H1308 H 0.88062 0.19708 0.92889 0.0
H1309 H 0.93803 0.19895 0.8886 0.0
H1310 H 0.88015 0.2344 0.86934 0.0
C1311 C 0.88907 0.20309 0.91452 0.0
C1312 C 0.8779 0.21649 0.89959 0.0
C1313 C 0.91056 0.19628 0.91039 0.0
C1314 C 0.92126 0.20384 0.89159 0.0
C1315 C 0.91063 0.21795 0.87688 0.0
C1316 C 0.88868 0.22378 0.88068 0.0
H1317 H 0.53016 0.13047 0.67876 0.0
H1318 H 0.5282 0.18784 0.6384 0.0
H1319 H 0.49277 0.12991 0.61926 0.0
C1320 C 0.52412 0.1389 0.66438 0.0
C1321 C 0.51071 0.12771 0.64949 0.0
C1322 C 0.53092 0.16039 0.66022 0.0
C1323 C 0.52333 0.17106 0.64142 0.0
C1324 C 0.5092 0.16041 0.62674 0.0
C1325 C 0.50339 0.13846 0.63058 0.0
H1326 H 0.59651 0.7802 0.4289 0.0
H1327 H 0.53919 0.77843 0.38847 0.0
H1328 H 0.59701 0.74277 0.36942 0.0
C1329 C 0.58807 0.77419 0.41451 0.0
C1330 C 0.59924 0.76073 0.39964 0.0
C1331 C 0.56662 0.78106 0.41032 0.0
C1332 C 0.55594 0.7735 0.39151 0.0
C1333 C 0.56656 0.75933 0.37685 0.0
C1334 C 0.58849 0.75344 0.38072 0.0
H1335 H 0.94659 0.84641 0.17889 0.0
H1336 H 0.94863 0.78905 0.13852 0.0
H1337 H 0.98404 0.84701 0.11943 0.0
C1338 C 0.95264 0.83798 0.16452 0.0
C1339 C 0.96606 0.84919 0.14964 0.0
C1340 C 0.94586 0.81649 0.16035 0.0
C1341 C 0.95349 0.80583 0.14155 0.0
C1342 C 0.96761 0.81649 0.12688 0.0
C1343 C 0.97341 0.83845 0.13074 0.0
H1344 H 0.54831 0.88066 0.78025 0.0
H1345 H 0.58875 0.93797 0.77837 0.0
H1346 H 0.6078 0.88006 0.74284 0.0
C1347 C 0.5627 0.88908 0.77422 0.0
C1348 C 0.57757 0.87788 0.76079 0.0
C1349 C 0.56689 0.91055 0.78105 0.0
C1350 C 0.58571 0.9212 0.77347 0.0
C1351 C 0.60037 0.91055 0.75933 0.0
C1352 C 0.59649 0.88861 0.75348 0.0
H1353 H 0.84651 0.79814 0.5302 0.0
H1354 H 0.78919 0.83857 0.52843 0.0
H1355 H 0.84701 0.85762 0.49277 0.0
C1356 C 0.83807 0.81253 0.52419 0.0
C1357 C 0.84924 0.8274 0.51073 0.0
C1358 C 0.81662 0.81672 0.53107 0.0
C1359 C 0.80594 0.83553 0.5235 0.0
C1360 C 0.81656 0.85019 0.50933 0.0
C1361 C 0.83849 0.84632 0.50344 0.0
H1362 H 0.92835 0.09655 0.28015 0.0
H1363 H 0.88792 0.03922 0.27828 0.0
H1364 H 0.86883 0.09714 0.24278 0.0
C1365 C 0.91395 0.08812 0.27414 0.0
C1366 C 0.89907 0.09932 0.26072 0.0
C1367 C 0.90977 0.06665 0.28096 0.0
C1368 C 0.89095 0.05599 0.27339 0.0
C1369 C 0.87628 0.06664 0.25926 0.0
C1370 C 0.88015 0.08859 0.25342 0.0
H1371 H 0.63062 0.17891 0.02997 0.0
H1372 H 0.68804 0.13862 0.02809 0.0
H1373 H 0.63015 0.11936 -0.00735 0.0
C1374 C 0.63908 0.16454 0.02396 0.0
C1375 C 0.62791 0.14961 0.01056 0.0
C1376 C 0.66056 0.16041 0.03077 0.0
C1377 C 0.67126 0.14161 0.0232 0.0
C1378 C 0.66064 0.1269 0.00909 0.0
C1379 C 0.63868 0.1307 0.00327 0.0
H1380 H 0.54831 0.09639 0.6968 0.0
H1381 H 0.58875 0.03908 0.69867 0.0
H1382 H 0.6078 0.09699 0.7342 0.0
C1383 C 0.5627 0.08797 0.70282 0.0
C1384 C 0.57757 0.09917 0.71625 0.0
C1385 C 0.56689 0.0665 0.69599 0.0
C1386 C 0.58571 0.05584 0.70357 0.0
C1387 C 0.60037 0.06649 0.71772 0.0
C1388 C 0.59649 0.08844 0.72356 0.0
H1389 H 0.63062 0.79813 0.44708 0.0
H1390 H 0.68803 0.83843 0.44895 0.0
H1391 H 0.63015 0.85769 0.48439 0.0
C1392 C 0.63907 0.81251 0.45309 0.0
C1393 C 0.6279 0.82744 0.46649 0.0
C1394 C 0.66056 0.81664 0.44628 0.0
C1395 C 0.67126 0.83544 0.45384 0.0
C1396 C 0.66063 0.85015 0.46795 0.0
C1397 C 0.63868 0.84634 0.47378 0.0
H1398 H 0.92835 0.88049 0.19689 0.0
H1399 H 0.88792 0.93782 0.19875 0.0
H1400 H 0.86883 0.8799 0.23426 0.0
C1401 C 0.91395 0.88892 0.2029 0.0
C1402 C 0.89907 0.87772 0.21632 0.0
C1403 C 0.90977 0.91039 0.19608 0.0
C1404 C 0.89095 0.92105 0.20365 0.0
C1405 C 0.87628 0.9104 0.21778 0.0
C1406 C 0.88015 0.88845 0.22362 0.0
H1407 H 0.84651 0.17891 0.94683 0.0
H1408 H 0.78919 0.13848 0.94861 0.0
H1409 H 0.84702 0.11943 0.98426 0.0
C1410 C 0.83808 0.16452 0.95284 0.0
C1411 C 0.84924 0.14965 0.9663 0.0
C1412 C 0.81662 0.16033 0.94597 0.0
C1413 C 0.80595 0.14151 0.95354 0.0
C1414 C 0.81656 0.12686 0.96771 0.0
C1415 C 0.83849 0.13073 0.9736 0.0
H1416 H 0.78015 0.54829 0.88047 0.0
H1417 H 0.7782 0.58865 0.93783 0.0
H1418 H 0.74276 0.60779 0.8799 0.0
C1419 C 0.77412 0.56267 0.8889 0.0
C1420 C 0.76071 0.57756 0.8777 0.0
C1421 C 0.78092 0.56683 0.91039 0.0
C1422 C 0.77333 0.58563 0.92106 0.0
C1423 C 0.7592 0.60031 0.91041 0.0
C1424 C 0.75339 0.59647 0.88845 0.0
H1425 H 0.28015 0.92875 0.09658 0.0
H1426 H 0.2782 0.88839 0.03921 0.0
H1427 H 0.24276 0.86925 0.09714 0.0
C1428 C 0.27412 0.91437 0.08814 0.0
C1429 C 0.26071 0.89948 0.09934 0.0
C1430 C 0.28091 0.91021 0.06665 0.0
C1431 C 0.27332 0.89141 0.05598 0.0
C1432 C 0.2592 0.87673 0.06663 0.0
C1433 C 0.25339 0.88057 0.08859 0.0
H1434 H 0.7983 0.53025 0.84638 0.0
H1435 H 0.83874 0.52837 0.78907 0.0
H1436 H 0.85779 0.49285 0.84698 0.0
C1437 C 0.81269 0.52423 0.83796 0.0
C1438 C 0.82757 0.5108 0.84916 0.0
C1439 C 0.81689 0.53106 0.81649 0.0
C1440 C 0.8357 0.52348 0.80584 0.0
C1441 C 0.85036 0.50933 0.81649 0.0
C1442 C 0.84649 0.50349 0.83843 0.0
H1443 H 0.1966 0.04817 0.59641 0.0
H1444 H 0.19863 0.08854 0.53905 0.0
H1445 H 0.23404 0.10763 0.59701 0.0
C1446 C 0.20265 0.06254 0.58798 0.0
C1447 C 0.21607 0.07742 0.59919 0.0
C1448 C 0.19587 0.06671 0.56649 0.0
C1449 C 0.20349 0.08551 0.55583 0.0
C1450 C 0.21762 0.10018 0.56649 0.0
C1451 C 0.22341 0.09632 0.58845 0.0
H1452 H 0.17836 0.94688 0.84655 0.0
H1453 H 0.13794 0.94875 0.78922 0.0
H1454 H 0.11885 0.98425 0.84714 0.0
C1455 C 0.16397 0.9529 0.83813 0.0
C1456 C 0.14908 0.96631 0.84932 0.0
C1457 C 0.15979 0.94607 0.81665 0.0
C1458 C 0.14097 0.95365 0.80599 0.0
C1459 C 0.1263 0.96778 0.81664 0.0
C1460 C 0.13016 0.97361 0.83859 0.0
H1461 H 0.6966 0.42889 0.38063 0.0
H1462 H 0.69863 0.38851 0.43799 0.0
H1463 H 0.73405 0.36942 0.38003 0.0
C1464 C 0.70265 0.41452 0.38906 0.0
C1465 C 0.71607 0.39964 0.37785 0.0
C1466 C 0.69587 0.41034 0.41055 0.0
C1467 C 0.70349 0.39154 0.42121 0.0
C1468 C 0.71762 0.37688 0.41055 0.0
C1469 C 0.72342 0.38073 0.38859 0.0
H1470 H 0.7983 0.4468 0.63065 0.0
H1471 H 0.83874 0.44868 0.68797 0.0
H1472 H 0.85779 0.4842 0.63005 0.0
C1473 C 0.81269 0.45282 0.63907 0.0
C1474 C 0.82756 0.46625 0.62788 0.0
C1475 C 0.81688 0.44599 0.66055 0.0
C1476 C 0.8357 0.45357 0.6712 0.0
C1477 C 0.85036 0.46772 0.66055 0.0
C1478 C 0.84648 0.47356 0.6386 0.0
H1479 H 0.67836 0.53016 0.1305 0.0
H1480 H 0.63793 0.52829 0.18782 0.0
H1481 H 0.61885 0.49279 0.12991 0.0
C1482 C 0.66396 0.52415 0.13892 0.0
C1483 C 0.64908 0.51073 0.12772 0.0
C1484 C 0.65978 0.53097 0.16039 0.0
C1485 C 0.64096 0.5234 0.17105 0.0
C1486 C 0.62629 0.50927 0.1604 0.0
C1487 C 0.63016 0.50343 0.13846 0.0
H1488 H 0.58967 0.68277 0.89481 0.0
H1489 H 0.55406 0.71973 0.84688 0.0
H1490 H 0.62373 0.71267 0.84113 0.0
C1491 C 0.58921 0.69169 0.87961 0.0
C1492 C 0.60885 0.69559 0.8683 0.0
C1493 C 0.5693 0.70011 0.87197 0.0
C1494 C 0.56929 0.71293 0.8529 0.0
C1495 C 0.58888 0.71772 0.84191 0.0
C1496 C 0.60864 0.70908 0.84971 0.0
H1497 H 0.54415 0.33972 0.14478 0.0
H1498 H 0.50733 0.30404 0.0968 0.0
H1499 H 0.51435 0.37372 0.09101 0.0
C1500 C 0.53526 0.33923 0.12956 0.0
C1501 C 0.53138 0.35887 0.11823 0.0
C1502 C 0.52688 0.31931 0.12191 0.0
C1503 C 0.51411 0.31928 0.10281 0.0
C1504 C 0.50933 0.33886 0.0918 0.0
C1505 C 0.51792 0.35864 0.0996 0.0
H1506 H 0.88717 0.29438 0.39491 0.0
H1507 H 0.92279 0.25748 0.34695 0.0
H1508 H 0.85312 0.26457 0.34118 0.0
C1509 C 0.88764 0.28548 0.37971 0.0
C1510 C 0.868 0.28161 0.36838 0.0
C1511 C 0.90755 0.27707 0.37206 0.0
C1512 C 0.90755 0.26428 0.35297 0.0
C1513 C 0.88797 0.25951 0.34197 0.0
C1514 C 0.86821 0.26814 0.34977 0.0
H1515 H 0.93293 0.63717 0.64483 0.0
H1516 H 0.96989 0.67273 0.59687 0.0
H1517 H 0.96276 0.60306 0.59114 0.0
C1518 C 0.94184 0.63762 0.62963 0.0
C1519 C 0.94572 0.61797 0.61832 0.0
C1520 C 0.95027 0.65752 0.62197 0.0
C1521 C 0.96308 0.65751 0.60289 0.0
C1522 C 0.96784 0.63791 0.59191 0.0
C1523 C 0.9592 0.61816 0.59972 0.0
H1524 H 0.58967 0.29427 0.58223 0.0
H1525 H 0.55406 0.25731 0.63016 0.0
H1526 H 0.62373 0.26438 0.63592 0.0
C1527 C 0.5892 0.28535 0.59743 0.0
C1528 C 0.60884 0.28146 0.60874 0.0
C1529 C 0.5693 0.27693 0.60507 0.0
C1530 C 0.56929 0.26412 0.62415 0.0
C1531 C 0.58888 0.25933 0.63513 0.0
C1532 C 0.60864 0.26796 0.62734 0.0
H1533 H 0.93293 0.33987 0.8322 0.0
H1534 H 0.96989 0.30431 0.88016 0.0
H1535 H 0.96276 0.37399 0.88589 0.0
C1536 C 0.94184 0.33942 0.8474 0.0
C1537 C 0.94571 0.35907 0.85871 0.0
C1538 C 0.95027 0.31952 0.85506 0.0
C1539 C 0.96308 0.31954 0.87414 0.0
C1540 C 0.96784 0.33913 0.88512 0.0
C1541 C 0.9592 0.35888 0.87731 0.0
H1542 H 0.88717 0.68266 0.08213 0.0
H1543 H 0.92279 0.71957 0.13009 0.0
H1544 H 0.85312 0.71247 0.13586 0.0
C1545 C 0.88764 0.69156 0.09734 0.0
C1546 C 0.868 0.69544 0.10866 0.0
C1547 C 0.90755 0.69998 0.10498 0.0
C1548 C 0.90755 0.71277 0.12407 0.0
C1549 C 0.88797 0.71754 0.13508 0.0
C1550 C 0.86821 0.70891 0.12727 0.0
H1551 H 0.54414 0.63733 0.33227 0.0
H1552 H 0.50733 0.673 0.38026 0.0
H1553 H 0.51435 0.60332 0.38605 0.0
C1554 C 0.53526 0.63781 0.34749 0.0
C1555 C 0.53137 0.61818 0.35882 0.0
C1556 C 0.52687 0.65773 0.35514 0.0
C1557 C 0.5141 0.65776 0.37424 0.0
C1558 C 0.50932 0.63818 0.38525 0.0
C1559 C 0.51792 0.61841 0.37745 0.0
H1560 H 0.89504 0.58973 0.68271 0.0
H1561 H 0.84707 0.55416 0.71965 0.0
H1562 H 0.84134 0.62384 0.7125 0.0
C1563 C 0.87984 0.58927 0.69162 0.0
C1564 C 0.86852 0.60892 0.69548 0.0
C1565 C 0.87218 0.56937 0.70005 0.0
C1566 C 0.8531 0.56939 0.71284 0.0
C1567 C 0.84211 0.58899 0.71759 0.0
C1568 C 0.84992 0.60874 0.70895 0.0
H1569 H 0.63717 0.64492 0.93266 0.0
H1570 H 0.67279 0.59696 0.96957 0.0
H1571 H 0.60312 0.59118 0.96248 0.0
C1572 C 0.63764 0.62971 0.94157 0.0
C1573 C 0.618 0.61838 0.94544 0.0
C1574 C 0.65755 0.62206 0.94998 0.0
C1575 C 0.65755 0.60298 0.96277 0.0
C1576 C 0.63797 0.59197 0.96754 0.0
C1577 C 0.61821 0.59978 0.95891 0.0
H1578 H 0.58186 0.38727 0.18269 0.0
H1579 H 0.63559 0.3533 0.21259 0.0
H1580 H 0.62969 0.42296 0.21968 0.0
C1581 C 0.59704 0.38776 0.19162 0.0
C1582 C 0.60464 0.40768 0.20005 0.0
C1583 C 0.6084 0.36814 0.19551 0.0
C1584 C 0.62698 0.36838 0.20901 0.0
C1585 C 0.63473 0.38815 0.21766 0.0
C1586 C 0.62371 0.40772 0.21287 0.0
H1587 H 0.83967 0.33224 0.43277 0.0
H1588 H 0.80406 0.38016 0.46973 0.0
H1589 H 0.87373 0.38592 0.46267 0.0
C1590 C 0.83921 0.34743 0.44169 0.0
C1591 C 0.85885 0.35875 0.44559 0.0
C1592 C 0.8193 0.35507 0.45011 0.0
C1593 C 0.81929 0.37415 0.46293 0.0
C1594 C 0.83888 0.38513 0.46772 0.0
C1595 C 0.85864 0.37734 0.45909 0.0
H1596 H 0.89504 0.38732 0.79433 0.0
H1597 H 0.84707 0.42289 0.75738 0.0
H1598 H 0.84134 0.35321 0.76453 0.0
C1599 C 0.87984 0.38777 0.78542 0.0
C1600 C 0.86852 0.36812 0.78156 0.0
C1601 C 0.87218 0.40767 0.77699 0.0
C1602 C 0.8531 0.40766 0.76419 0.0
C1603 C 0.84211 0.38806 0.75944 0.0
C1604 C 0.84992 0.36831 0.76809 0.0
H1605 H 0.83967 0.64481 0.04427 0.0
H1606 H 0.80406 0.59689 0.00731 0.0
H1607 H 0.87373 0.59113 0.01438 0.0
C1608 C 0.83921 0.62961 0.03535 0.0
C1609 C 0.85885 0.6183 0.03145 0.0
C1610 C 0.8193 0.62197 0.02693 0.0
C1611 C 0.8193 0.6029 0.01411 0.0
C1612 C 0.83888 0.59191 0.00932 0.0
C1613 C 0.85864 0.59971 0.01796 0.0
H1614 H 0.58185 0.58978 0.29436 0.0
H1615 H 0.63558 0.62375 0.26446 0.0
H1616 H 0.62968 0.55409 0.25736 0.0
C1617 C 0.59704 0.58929 0.28543 0.0
C1618 C 0.60464 0.56937 0.277 0.0
C1619 C 0.60839 0.60891 0.28154 0.0
C1620 C 0.62697 0.60867 0.26804 0.0
C1621 C 0.63473 0.5889 0.25939 0.0
C1622 C 0.6237 0.56933 0.26417 0.0
H1623 H 0.63717 0.33213 0.54438 0.0
H1624 H 0.67279 0.38009 0.50747 0.0
H1625 H 0.60312 0.38586 0.51456 0.0
C1626 C 0.63764 0.34733 0.53547 0.0
C1627 C 0.618 0.35866 0.5316 0.0
C1628 C 0.65755 0.35498 0.52706 0.0
C1629 C 0.65755 0.37407 0.51427 0.0
C1630 C 0.63797 0.38507 0.5095 0.0
C1631 C 0.61821 0.37727 0.51813 0.0
H1632 H 0.68293 0.89483 0.58987 0.0
H1633 H 0.71988 0.84687 0.55431 0.0
H1634 H 0.71276 0.84114 0.62399 0.0
C1635 C 0.69184 0.87963 0.58942 0.0
C1636 C 0.69571 0.86832 0.60907 0.0
C1637 C 0.70027 0.87197 0.56952 0.0
C1638 C 0.71307 0.85289 0.56954 0.0
C1639 C 0.71784 0.84191 0.58914 0.0
C1640 C 0.70919 0.84972 0.60889 0.0
H1641 H 0.18294 0.58222 0.38717 0.0
H1642 H 0.21989 0.63018 0.42273 0.0
H1643 H 0.21276 0.6359 0.35306 0.0
C1644 C 0.19185 0.59742 0.38762 0.0
C1645 C 0.19572 0.60873 0.36797 0.0
C1646 C 0.20028 0.60508 0.40752 0.0
C1647 C 0.21308 0.62416 0.40751 0.0
C1648 C 0.21784 0.63514 0.38791 0.0
C1649 C 0.2092 0.62733 0.36816 0.0
H1650 H 0.64504 0.93271 0.63732 0.0
H1651 H 0.59708 0.96966 0.67288 0.0
H1652 H 0.59134 0.96251 0.60321 0.0
C1653 C 0.62984 0.94162 0.63777 0.0
C1654 C 0.61853 0.94548 0.61812 0.0
C1655 C 0.62219 0.95005 0.65767 0.0
C1656 C 0.6031 0.96285 0.65766 0.0
C1657 C 0.59211 0.9676 0.63806 0.0
C1658 C 0.59992 0.95895 0.61831 0.0
H1659 H 0.29415 0.39477 0.88733 0.0
H1660 H 0.25733 0.34678 0.923 0.0
H1661 H 0.26435 0.341 0.85332 0.0
C1662 C 0.28526 0.37955 0.88781 0.0
C1663 C 0.28138 0.36822 0.86818 0.0
C1664 C 0.27688 0.3719 0.90773 0.0
C1665 C 0.26411 0.3528 0.90776 0.0
C1666 C 0.25933 0.34179 0.88818 0.0
C1667 C 0.26793 0.34959 0.86841 0.0
H1668 H 0.33185 0.54436 0.63727 0.0
H1669 H 0.38558 0.51446 0.60329 0.0
H1670 H 0.37968 0.50736 0.67296 0.0
C1671 C 0.34704 0.53543 0.63776 0.0
C1672 C 0.35464 0.527 0.65768 0.0
C1673 C 0.35839 0.53154 0.61814 0.0
C1674 C 0.37697 0.51804 0.61837 0.0
C1675 C 0.38472 0.50939 0.63815 0.0
C1676 C 0.3737 0.51417 0.65772 0.0
H1677 H 0.79415 0.08228 0.08972 0.0
H1678 H 0.75733 0.13026 0.05404 0.0
H1679 H 0.76435 0.13605 0.12372 0.0
C1680 C 0.78526 0.09749 0.08923 0.0
C1681 C 0.78138 0.10883 0.10887 0.0
C1682 C 0.77688 0.10514 0.06931 0.0
C1683 C 0.76411 0.12425 0.06928 0.0
C1684 C 0.75933 0.13526 0.08886 0.0
C1685 C 0.76793 0.12745 0.10864 0.0
H1686 H 0.64504 0.04433 0.83972 0.0
H1687 H 0.59708 0.00738 0.80416 0.0
H1688 H 0.59134 0.01454 0.87383 0.0
C1689 C 0.62984 0.03543 0.83927 0.0
C1690 C 0.61852 0.03157 0.85892 0.0
C1691 C 0.62218 0.02699 0.81937 0.0
C1692 C 0.6031 0.0142 0.81939 0.0
C1693 C 0.59211 0.00944 0.83898 0.0
C1694 C 0.59992 0.01809 0.85873 0.0
H1695 H 0.83184 0.93268 0.33977 0.0
H1696 H 0.88557 0.96258 0.37375 0.0
H1697 H 0.87967 0.96968 0.30408 0.0
C1698 C 0.84703 0.94161 0.33928 0.0
C1699 C 0.85463 0.95004 0.31936 0.0
C1700 C 0.85838 0.9455 0.3589 0.0
C1701 C 0.87696 0.95901 0.35867 0.0
C1702 C 0.88472 0.96765 0.3389 0.0
C1703 C 0.87369 0.96287 0.31933 0.0
H1704 H 0.38062 0.27997 0.04815 0.0
H1705 H 0.43803 0.27809 0.08844 0.0
H1706 H 0.38015 0.24265 0.1077 0.0
C1707 C 0.38908 0.27395 0.06252 0.0
C1708 C 0.37791 0.26056 0.07745 0.0
C1709 C 0.41056 0.28077 0.06665 0.0
C1710 C 0.42126 0.2732 0.08545 0.0
C1711 C 0.41064 0.25909 0.10016 0.0
C1712 C 0.38868 0.25326 0.09635 0.0
H1713 H 0.44659 0.63063 0.79815 0.0
H1714 H 0.44863 0.68799 0.83852 0.0
H1715 H 0.48404 0.63003 0.85762 0.0
C1716 C 0.45265 0.63906 0.81252 0.0
C1717 C 0.46607 0.62785 0.8274 0.0
C1718 C 0.44587 0.66055 0.8167 0.0
C1719 C 0.45349 0.67121 0.8355 0.0
C1720 C 0.46762 0.66055 0.85016 0.0
C1721 C 0.47341 0.63859 0.84631 0.0
H1722 H 0.09651 0.69684 0.54814 0.0
H1723 H 0.0392 0.69861 0.58858 0.0
H1724 H 0.09702 0.73427 0.60763 0.0
C1725 C 0.08808 0.70285 0.56253 0.0
C1726 C 0.09924 0.71631 0.57741 0.0
C1727 C 0.06662 0.69598 0.56673 0.0
C1728 C 0.05595 0.70355 0.58554 0.0
C1729 C 0.06656 0.71772 0.6002 0.0
C1730 C 0.08849 0.72361 0.59633 0.0
H1731 H 0.03016 0.34658 0.29828 0.0
H1732 H 0.0282 0.28921 0.33864 0.0
H1733 H -0.00723 0.34715 0.35778 0.0
C1734 C 0.02412 0.33815 0.31266 0.0
C1735 C 0.01072 0.34934 0.32755 0.0
C1736 C 0.03092 0.31666 0.31682 0.0
C1737 C 0.02333 0.30599 0.33562 0.0
C1738 C 0.00921 0.31664 0.3503 0.0
C1739 C 0.00339 0.3386 0.34646 0.0
H1740 H 0.38062 0.69708 0.4289 0.0
H1741 H 0.43803 0.69895 0.38861 0.0
H1742 H 0.38015 0.7344 0.36935 0.0
C1743 C 0.38908 0.70309 0.41453 0.0
C1744 C 0.37791 0.71649 0.3996 0.0
C1745 C 0.41056 0.69628 0.4104 0.0
C1746 C 0.42126 0.70384 0.3916 0.0
C1747 C 0.41064 0.71795 0.37689 0.0
C1748 C 0.38868 0.72378 0.3807 0.0
H1749 H 0.03016 0.63047 0.17877 0.0
H1750 H 0.0282 0.68784 0.13841 0.0
H1751 H -0.00723 0.6299 0.11926 0.0
C1752 C 0.02412 0.6389 0.16439 0.0
C1753 C 0.01072 0.6277 0.14949 0.0
C1754 C 0.03092 0.66039 0.16023 0.0
C1755 C 0.02333 0.67106 0.14142 0.0
C1756 C 0.0092 0.66041 0.12674 0.0
C1757 C 0.00339 0.63845 0.13058 0.0
H1758 H 0.09651 0.2802 0.92889 0.0
H1759 H 0.03919 0.27843 0.88846 0.0
H1760 H 0.09701 0.24277 0.86941 0.0
C1761 C 0.08807 0.27419 0.9145 0.0
C1762 C 0.09924 0.26073 0.89963 0.0
C1763 C 0.06662 0.28106 0.91031 0.0
C1764 C 0.05595 0.2735 0.8915 0.0
C1765 C 0.06656 0.25932 0.87684 0.0
C1766 C 0.08849 0.25344 0.88071 0.0
H1767 H 0.44659 0.34642 0.67889 0.0
H1768 H 0.44863 0.28906 0.63852 0.0
H1769 H 0.48404 0.34702 0.61943 0.0
C1770 C 0.45265 0.33799 0.66452 0.0
C1771 C 0.46607 0.34919 0.64964 0.0
C1772 C 0.44587 0.3165 0.66035 0.0
C1773 C 0.45349 0.30583 0.64155 0.0
C1774 C 0.46762 0.3165 0.62688 0.0
C1775 C 0.47341 0.33846 0.63074 0.0
H1776 H 0.04831 0.38066 0.28024 0.0
H1777 H 0.08875 0.43797 0.27836 0.0
H1778 H 0.1078 0.38006 0.24284 0.0
C1779 C 0.0627 0.38908 0.27422 0.0
C1780 C 0.07757 0.37788 0.26079 0.0
C1781 C 0.0669 0.41055 0.28105 0.0
C1782 C 0.08571 0.4212 0.27347 0.0
C1783 C 0.10037 0.41055 0.25932 0.0
C1784 C 0.0965 0.38861 0.25348 0.0
H1785 H 0.34651 0.29814 0.03021 0.0
H1786 H 0.28919 0.33857 0.02843 0.0
H1787 H 0.34702 0.35762 -0.00722 0.0
C1788 C 0.33808 0.31253 0.0242 0.0
C1789 C 0.34924 0.3274 0.01074 0.0
C1790 C 0.31662 0.31672 0.03107 0.0
C1791 C 0.30595 0.33553 0.0235 0.0
C1792 C 0.31656 0.35019 0.00933 0.0
C1793 C 0.33849 0.34632 0.00344 0.0
H1794 H 0.42836 0.59655 0.78015 0.0
H1795 H 0.38793 0.53922 0.77829 0.0
H1796 H 0.36884 0.59714 0.74279 0.0
C1797 C 0.41396 0.58812 0.77414 0.0
C1798 C 0.39908 0.59932 0.76072 0.0
C1799 C 0.40978 0.56665 0.78096 0.0
C1800 C 0.39096 0.55599 0.77339 0.0
C1801 C 0.37629 0.56664 0.75926 0.0
C1802 C 0.38015 0.58859 0.75342 0.0
H1803 H 0.13062 0.67891 0.52997 0.0
H1804 H 0.18804 0.63862 0.5281 0.0
H1805 H 0.13015 0.61935 0.49265 0.0
C1806 C 0.13908 0.66453 0.52396 0.0
C1807 C 0.12791 0.6496 0.51056 0.0
C1808 C 0.16056 0.66041 0.53077 0.0
C1809 C 0.17126 0.64161 0.5232 0.0
C1810 C 0.16064 0.62689 0.50909 0.0
C1811 C 0.13868 0.6307 0.50327 0.0
H1812 H 0.04831 0.59639 0.1968 0.0
H1813 H 0.08876 0.53908 0.19867 0.0
H1814 H 0.1078 0.59699 0.2342 0.0
C1815 C 0.0627 0.58797 0.20282 0.0
C1816 C 0.07758 0.59917 0.21625 0.0
C1817 C 0.0669 0.5665 0.19599 0.0
C1818 C 0.08572 0.55584 0.20357 0.0
C1819 C 0.10038 0.5665 0.21771 0.0
C1820 C 0.0965 0.58844 0.22356 0.0
H1821 H 0.13062 0.29814 0.94706 0.0
H1822 H 0.18803 0.33843 0.94894 0.0
H1823 H 0.13015 0.35769 0.98439 0.0
C1824 C 0.13907 0.31251 0.95308 0.0
C1825 C 0.12791 0.32744 0.96648 0.0
C1826 C 0.16056 0.31664 0.94627 0.0
C1827 C 0.17126 0.33544 0.95383 0.0
C1828 C 0.16064 0.35015 0.96794 0.0
C1829 C 0.13868 0.34634 0.97377 0.0
H1830 H 0.42836 0.3805 0.69689 0.0
H1831 H 0.38793 0.43782 0.69876 0.0
H1832 H 0.36884 0.37991 0.73426 0.0
C1833 C 0.41396 0.38892 0.7029 0.0
C1834 C 0.39908 0.37772 0.71632 0.0
C1835 C 0.40978 0.4104 0.69608 0.0
C1836 C 0.39096 0.42105 0.70365 0.0
C1837 C 0.37629 0.4104 0.71778 0.0
C1838 C 0.38015 0.38846 0.72362 0.0
H1839 H 0.34651 0.67891 0.44684 0.0
H1840 H 0.28919 0.63847 0.44861 0.0
H1841 H 0.34702 0.61942 0.48427 0.0
C1842 C 0.33808 0.66452 0.45285 0.0
C1843 C 0.34924 0.64964 0.46631 0.0
C1844 C 0.31662 0.66033 0.44598 0.0
C1845 C 0.30595 0.64151 0.45355 0.0
C1846 C 0.31656 0.62685 0.46772 0.0
C1847 C 0.33849 0.63072 0.4736 0.0
H1848 H 0.28015 0.04829 0.38047 0.0
H1849 H 0.2782 0.08865 0.43783 0.0
H1850 H 0.24276 0.10779 0.3799 0.0
C1851 C 0.27412 0.06267 0.3889 0.0
C1852 C 0.26071 0.07756 0.3777 0.0
C1853 C 0.28092 0.06683 0.41039 0.0
C1854 C 0.27332 0.08564 0.42106 0.0
C1855 C 0.2592 0.10032 0.41041 0.0
C1856 C 0.25339 0.09647 0.38845 0.0
H1857 H 0.78015 0.42876 0.59657 0.0
H1858 H 0.7782 0.3884 0.53921 0.0
H1859 H 0.74276 0.36926 0.59714 0.0
C1860 C 0.77412 0.41438 0.58814 0.0
C1861 C 0.76071 0.39948 0.59934 0.0
C1862 C 0.78091 0.41022 0.56665 0.0
C1863 C 0.77332 0.39141 0.55598 0.0
C1864 C 0.7592 0.37673 0.56663 0.0
C1865 C 0.75339 0.38058 0.58859 0.0
H1866 H 0.2983 0.03025 0.34639 0.0
H1867 H 0.33874 0.02837 0.28908 0.0
H1868 H 0.35779 -0.00715 0.34699 0.0
C1869 C 0.31269 0.02423 0.33797 0.0
C1870 C 0.32757 0.0108 0.34917 0.0
C1871 C 0.31689 0.03106 0.3165 0.0
C1872 C 0.3357 0.02347 0.30584 0.0
C1873 C 0.35036 0.00933 0.31649 0.0
C1874 C 0.34649 0.00349 0.33844 0.0
H1875 H 0.69659 0.54816 0.09641 0.0
H1876 H 0.69863 0.58853 0.03905 0.0
H1877 H 0.73404 0.60763 0.09701 0.0
C1878 C 0.70265 0.56253 0.08798 0.0
C1879 C 0.71607 0.57741 0.09919 0.0
C1880 C 0.69587 0.56671 0.06649 0.0
C1881 C 0.70349 0.5855 0.05583 0.0
C1882 C 0.71762 0.60017 0.06649 0.0
C1883 C 0.72342 0.59632 0.08845 0.0
H1884 H 0.67836 0.44689 0.34655 0.0
H1885 H 0.63794 0.44876 0.28922 0.0
H1886 H 0.61885 0.48426 0.34714 0.0
C1887 C 0.66397 0.4529 0.33813 0.0
C1888 C 0.64908 0.46632 0.34932 0.0
C1889 C 0.65979 0.44608 0.31665 0.0
C1890 C 0.64097 0.45365 0.30599 0.0
C1891 C 0.6263 0.46778 0.31664 0.0
C1892 C 0.63016 0.47362 0.33859 0.0
H1893 H 0.1966 0.92888 0.88063 0.0
H1894 H 0.19863 0.8885 0.93799 0.0
H1895 H 0.23404 0.86941 0.88003 0.0
C1896 C 0.20265 0.9145 0.88906 0.0
C1897 C 0.21607 0.89963 0.87785 0.0
C1898 C 0.19587 0.91033 0.91055 0.0
C1899 C 0.20349 0.89153 0.92121 0.0
C1900 C 0.21762 0.87687 0.91055 0.0
C1901 C 0.22342 0.88072 0.88859 0.0
H1902 H 0.2983 0.94679 0.13065 0.0
H1903 H 0.33875 0.94867 0.18797 0.0
H1904 H 0.35779 0.98419 0.13005 0.0
C1905 C 0.31269 0.95281 0.13907 0.0
C1906 C 0.32757 0.96624 0.12788 0.0
C1907 C 0.31689 0.94598 0.16055 0.0
C1908 C 0.3357 0.95357 0.1712 0.0
C1909 C 0.35036 0.96771 0.16055 0.0
C1910 C 0.34649 0.97355 0.13861 0.0
H1911 H 0.17836 0.03016 0.63049 0.0
H1912 H 0.13794 0.02829 0.68782 0.0
H1913 H 0.11885 -0.00721 0.6299 0.0
C1914 C 0.16397 0.02415 0.63892 0.0
C1915 C 0.14908 0.01073 0.62772 0.0
C1916 C 0.15979 0.03097 0.66039 0.0
C1917 C 0.14097 0.0234 0.67105 0.0
C1918 C 0.1263 0.00927 0.6604 0.0
C1919 C 0.13016 0.00343 0.63845 0.0
loop_
_geom_bond_atom_site_label_1
_geom_bond_atom_site_label_2
_geom_bond_distance
_geom_bond_site_symmetry_2
_ccdc_geom_bond_type
O0 Cd1 2.300 . S
O0 C7 1.275 . S
Cd1 O0 2.300 . S
Cd1 O9 2.381 . S
Cd1 O10 2.413 . S
O2 Cd3 2.385 . S
O2 C7 1.255 . S
Cd3 O2 2.385 . S
Cd3 O4 2.317 . S
O4 Cd3 2.317 . S
O4 C5 1.232 . S
C5 O4 1.232 . S
C5 O6 1.218 . S
O6 C5 1.218 . S
C7 O0 1.275 . S
C7 O2 1.255 . S
C8 O9 1.258 1_655 S
C8 O10 1.237 1_655 S
O9 Cd1 2.381 . S
O9 C8 1.258 1_455 S
O10 Cd1 2.413 . S
O10 C8 1.237 1_455 S
O11 Cd12 2.300 . S
O11 C18 1.275 . S
Cd12 O11 2.300 . S
Cd12 O20 2.381 . S
Cd12 O21 2.378 . S
O13 Cd14 2.385 . S
O13 C18 1.255 . S
Cd14 O13 2.385 . S
Cd14 O15 2.317 . S
O15 Cd14 2.317 . S
O15 C16 1.232 . S
C16 O15 1.232 . S
C16 O17 1.218 . S
O17 C16 1.218 . S
C18 O11 1.275 . S
C18 O13 1.255 . S
C19 O20 1.258 . S
C19 O21 1.256 . S
O20 Cd12 2.381 . S
O20 C19 1.258 . S
O21 Cd12 2.378 . S
O21 C19 1.256 . S
O22 Cd23 2.300 . S
O22 C29 1.275 . S
Cd23 O22 2.300 . S
Cd23 O31 2.381 . S
Cd23 O32 2.378 . S
O24 Cd25 2.385 . S
O24 C29 1.255 . S
Cd25 O24 2.385 . S
Cd25 O26 2.317 . S
O26 Cd25 2.317 . S
O26 C27 1.232 . S
C27 O26 1.232 . S
C27 O28 1.218 . S
O28 C27 1.218 . S
C29 O22 1.275 . S
C29 O24 1.255 . S
C30 O31 1.258 . S
C30 O32 1.256 . S
O31 Cd23 2.381 . S
O31 C30 1.258 . S
O32 Cd23 2.378 . S
O32 C30 1.256 . S
O33 Cd34 2.300 . S
O33 C40 1.275 . S
Cd34 O33 2.300 . S
Cd34 O42 2.381 . S
Cd34 O43 2.378 . S
O35 Cd36 2.385 . S
O35 C40 1.255 . S
Cd36 O35 2.385 . S
Cd36 O37 2.317 . S
O37 Cd36 2.317 . S
O37 C38 1.232 . S
C38 O37 1.232 . S
C38 O39 1.218 . S
O39 C38 1.218 . S
C40 O33 1.275 . S
C40 O35 1.255 . S
C41 O42 1.258 . S
C41 O43 1.256 . S
O42 Cd34 2.381 . S
O42 C41 1.258 . S
O43 Cd34 2.378 . S
O43 C41 1.256 . S
O44 Cd45 2.300 . S
O44 C51 1.275 . S
Cd45 O44 2.300 . S
Cd45 O53 2.381 . S
Cd45 O54 2.413 . S
O46 Cd47 2.385 . S
O46 C51 1.255 . S
Cd47 O46 2.385 . S
Cd47 O48 2.317 . S
O48 Cd47 2.317 . S
O48 C49 1.232 . S
C49 O48 1.232 . S
C49 O50 1.218 . S
O50 C49 1.218 . S
C51 O44 1.275 . S
C51 O46 1.255 . S
C52 O53 1.258 1_655 S
C52 O54 1.237 1_655 S
O53 Cd45 2.381 . S
O53 C52 1.258 1_455 S
O54 Cd45 2.413 . S
O54 C52 1.237 1_455 S
O55 Cd56 2.300 . S
O55 C62 1.275 . S
Cd56 O55 2.300 . S
Cd56 O64 2.381 . S
Cd56 O65 2.378 . S
O57 Cd58 2.385 . S
O57 C62 1.255 . S
Cd58 O57 2.385 . S
Cd58 O59 2.317 . S
O59 Cd58 2.317 . S
O59 C60 1.232 . S
C60 O59 1.232 . S
C60 O61 1.218 . S
O61 C60 1.218 . S
C62 O55 1.275 . S
C62 O57 1.255 . S
C63 O64 1.258 . S
C63 O65 1.256 . S
O64 Cd56 2.381 . S
O64 C63 1.258 . S
O65 Cd56 2.378 . S
O65 C63 1.256 . S
O66 Cd67 2.300 . S
O66 C73 1.275 . S
Cd67 O66 2.300 . S
Cd67 O75 2.381 . S
Cd67 O76 2.378 . S
O68 Cd69 2.385 . S
O68 C73 1.255 . S
Cd69 O68 2.385 . S
Cd69 O70 2.317 . S
O70 Cd69 2.317 . S
O70 C71 1.232 . S
C71 O70 1.232 . S
C71 O72 1.218 . S
O72 C71 1.218 . S
C73 O66 1.275 . S
C73 O68 1.255 . S
C74 O75 1.258 . S
C74 O76 1.256 . S
O75 Cd67 2.381 . S
O75 C74 1.258 . S
O76 Cd67 2.378 . S
O76 C74 1.256 . S
O77 Cd78 2.300 . S
O77 C84 1.275 . S
Cd78 O77 2.300 . S
Cd78 O86 2.381 . S
Cd78 O87 2.378 . S
O79 Cd80 2.385 . S
O79 C84 1.255 . S
Cd80 O79 2.385 . S
Cd80 O81 2.317 . S
O81 Cd80 2.317 . S
O81 C82 1.232 . S
C82 O81 1.232 . S
C82 O83 1.218 . S
O83 C82 1.218 . S
C84 O77 1.275 . S
C84 O79 1.255 . S
C85 O86 1.258 . S
C85 O87 1.256 . S
O86 Cd78 2.381 . S
O86 C85 1.258 . S
O87 Cd78 2.378 . S
O87 C85 1.256 . S
O88 Cd89 2.300 . S
O88 C95 1.275 . S
Cd89 O88 2.300 . S
Cd89 O97 2.381 . S
Cd89 O98 2.415 . S
O90 Cd91 2.385 . S
O90 C95 1.255 . S
Cd91 O90 2.385 . S
Cd91 O92 2.317 . S
O92 Cd91 2.317 . S
O92 C93 1.232 . S
C93 O92 1.232 . S
C93 O94 1.218 . S
O94 C93 1.218 . S
C95 O88 1.275 . S
C95 O90 1.255 . S
C96 O97 1.258 1_565 S
C96 O98 1.236 1_565 S
O97 Cd89 2.381 . S
O97 C96 1.258 1_545 S
O98 Cd89 2.415 . S
O98 C96 1.236 1_545 S
O99 Cd100 2.300 . S
O99 C106 1.275 . S
Cd100 O99 2.300 . S
Cd100 O108 2.381 . S
Cd100 O109 2.378 . S
O101 Cd102 2.385 . S
O101 C106 1.255 . S
Cd102 O101 2.385 . S
Cd102 O103 2.317 . S
O103 Cd102 2.317 . S
O103 C104 1.232 . S
C104 O103 1.232 . S
C104 O105 1.218 . S
O105 C104 1.218 . S
C106 O99 1.275 . S
C106 O101 1.255 . S
C107 O108 1.258 . S
C107 O109 1.256 . S
O108 Cd100 2.381 . S
O108 C107 1.258 . S
O109 Cd100 2.378 . S
O109 C107 1.256 . S
O110 Cd111 2.300 . S
O110 C117 1.275 . S
Cd111 O110 2.300 . S
Cd111 O119 2.381 . S
Cd111 O120 2.410 . S
O112 Cd113 2.385 . S
O112 C117 1.255 . S
Cd113 O112 2.385 . S
Cd113 O114 2.317 . S
O114 Cd113 2.317 . S
O114 C115 1.232 . S
C115 O114 1.232 . S
C115 O116 1.218 . S
O116 C115 1.218 . S
C117 O110 1.275 . S
C117 O112 1.255 . S
C118 O119 1.258 1_545 S
C118 O120 1.239 1_545 S
O119 Cd111 2.381 . S
O119 C118 1.258 1_565 S
O120 Cd111 2.410 . S
O120 C118 1.239 1_565 S
O121 Cd122 2.300 . S
O121 C128 1.275 . S
Cd122 O121 2.300 . S
Cd122 O130 2.381 . S
Cd122 O131 2.378 . S
O123 Cd124 2.385 . S
O123 C128 1.255 . S
Cd124 O123 2.385 . S
Cd124 O125 2.317 . S
O125 Cd124 2.317 . S
O125 C126 1.232 . S
C126 O125 1.232 . S
C126 O127 1.218 . S
O127 C126 1.218 . S
C128 O121 1.275 . S
C128 O123 1.255 . S
C129 O130 1.258 . S
C129 O131 1.256 . S
O130 Cd122 2.381 . S
O130 C129 1.258 . S
O131 Cd122 2.378 . S
O131 C129 1.256 . S
O132 Cd133 2.300 . S
O132 C139 1.275 . S
Cd133 O132 2.300 . S
Cd133 O141 2.381 . S
Cd133 O142 2.415 . S
O134 Cd135 2.385 . S
O134 C139 1.255 . S
Cd135 O134 2.385 . S
Cd135 O136 2.317 . S
O136 Cd135 2.317 . S
O136 C137 1.232 . S
C137 O136 1.232 . S
C137 O138 1.218 . S
O138 C137 1.218 . S
C139 O132 1.275 . S
C139 O134 1.255 . S
C140 O141 1.258 1_545 S
C140 O142 1.236 1_545 S
O141 Cd133 2.381 . S
O141 C140 1.258 1_565 S
O142 Cd133 2.415 . S
O142 C140 1.236 1_565 S
O143 Cd144 2.300 . S
O143 C150 1.275 . S
Cd144 O143 2.300 . S
Cd144 O152 2.381 . S
Cd144 O153 2.378 . S
O145 Cd146 2.385 . S
O145 C150 1.255 . S
Cd146 O145 2.385 . S
Cd146 O147 2.317 . S
O147 Cd146 2.317 . S
O147 C148 1.232 . S
C148 O147 1.232 . S
C148 O149 1.218 . S
O149 C148 1.218 . S
C150 O143 1.275 . S
C150 O145 1.255 . S
C151 O152 1.258 . S
C151 O153 1.256 . S
O152 Cd144 2.381 . S
O152 C151 1.258 . S
O153 Cd144 2.378 . S
O153 C151 1.256 . S
O154 Cd155 2.300 . S
O154 C161 1.275 . S
Cd155 O154 2.300 . S
Cd155 O163 2.381 . S
Cd155 O164 2.410 . S
O156 Cd157 2.385 . S
O156 C161 1.255 . S
Cd157 O156 2.385 . S
Cd157 O158 2.317 . S
O158 Cd157 2.317 . S
O158 C159 1.232 . S
C159 O158 1.232 . S
C159 O160 1.218 . S
O160 C159 1.218 . S
C161 O154 1.275 . S
C161 O156 1.255 . S
C162 O163 1.258 1_565 S
C162 O164 1.239 1_565 S
O163 Cd155 2.381 . S
O163 C162 1.258 1_545 S
O164 Cd155 2.410 . S
O164 C162 1.239 1_545 S
O165 Cd166 2.300 . S
O165 C172 1.275 . S
Cd166 O165 2.300 . S
Cd166 O174 2.381 . S
Cd166 O175 2.378 . S
O167 Cd168 2.385 . S
O167 C172 1.255 . S
Cd168 O167 2.385 . S
Cd168 O169 2.317 . S
O169 Cd168 2.317 . S
O169 C170 1.232 . S
C170 O169 1.232 . S
C170 O171 1.218 . S
O171 C170 1.218 . S
C172 O165 1.275 . S
C172 O167 1.255 . S
C173 O174 1.258 . S
C173 O175 1.256 . S
O174 Cd166 2.381 . S
O174 C173 1.258 . S
O175 Cd166 2.378 . S
O175 C173 1.256 . S
O176 Cd177 2.300 . S
O176 C183 1.275 . S
Cd177 O176 2.300 . S
Cd177 O185 2.381 . S
Cd177 O186 2.415 . S
O178 Cd179 2.385 . S
O178 C183 1.255 . S
Cd179 O178 2.385 . S
Cd179 O180 2.317 . S
O180 Cd179 2.317 . S
O180 C181 1.232 . S
C181 O180 1.232 . S
C181 O182 1.218 . S
O182 C181 1.218 . S
C183 O176 1.275 . S
C183 O178 1.255 . S
C184 O185 1.258 1_556 S
C184 O186 1.236 1_556 S
O185 Cd177 2.381 . S
O185 C184 1.258 1_554 S
O186 Cd177 2.415 . S
O186 C184 1.236 1_554 S
O187 Cd188 2.300 . S
O187 C194 1.275 . S
Cd188 O187 2.300 . S
Cd188 O196 2.381 . S
Cd188 O197 2.415 . S
O189 Cd190 2.385 . S
O189 C194 1.255 . S
Cd190 O189 2.385 . S
Cd190 O191 2.317 . S
O191 Cd190 2.317 . S
O191 C192 1.232 . S
C192 O191 1.232 . S
C192 O193 1.218 . S
O193 C192 1.218 . S
C194 O187 1.275 . S
C194 O189 1.255 . S
C195 O196 1.258 1_554 S
C195 O197 1.236 1_554 S
O196 Cd188 2.381 . S
O196 C195 1.258 1_556 S
O197 Cd188 2.415 . S
O197 C195 1.236 1_556 S
O198 Cd199 2.300 . S
O198 C205 1.275 . S
Cd199 O198 2.300 . S
Cd199 O207 2.381 . S
Cd199 O208 2.378 . S
O200 Cd201 2.385 . S
O200 C205 1.255 . S
Cd201 O200 2.385 . S
Cd201 O202 2.317 . S
O202 Cd201 2.317 . S
O202 C203 1.232 . S
C203 O202 1.232 . S
C203 O204 1.218 . S
O204 C203 1.218 . S
C205 O198 1.275 . S
C205 O200 1.255 . S
C206 O207 1.258 . S
C206 O208 1.256 . S
O207 Cd199 2.381 . S
O207 C206 1.258 . S
O208 Cd199 2.378 . S
O208 C206 1.256 . S
O209 Cd210 2.300 . S
O209 C216 1.275 . S
Cd210 O209 2.300 . S
Cd210 O218 2.381 . S
Cd210 O219 2.378 . S
O211 Cd212 2.385 . S
O211 C216 1.255 . S
Cd212 O211 2.385 . S
Cd212 O213 2.317 . S
O213 Cd212 2.317 . S
O213 C214 1.232 . S
C214 O213 1.232 . S
C214 O215 1.218 . S
O215 C214 1.218 . S
C216 O209 1.275 . S
C216 O211 1.255 . S
C217 O218 1.258 . S
C217 O219 1.256 . S
O218 Cd210 2.381 . S
O218 C217 1.258 . S
O219 Cd210 2.378 . S
O219 C217 1.256 . S
O220 Cd221 2.300 . S
O220 C227 1.275 . S
Cd221 O220 2.300 . S
Cd221 O229 2.381 . S
Cd221 O230 2.378 . S
O222 Cd223 2.385 . S
O222 C227 1.255 . S
Cd223 O222 2.385 . S
Cd223 O224 2.317 . S
O224 Cd223 2.317 . S
O224 C225 1.232 . S
C225 O224 1.232 . S
C225 O226 1.218 . S
O226 C225 1.218 . S
C227 O220 1.275 . S
C227 O222 1.255 . S
C228 O229 1.258 . S
C228 O230 1.256 . S
O229 Cd221 2.381 . S
O229 C228 1.258 . S
O230 Cd221 2.378 . S
O230 C228 1.256 . S
O231 Cd232 2.300 . S
O231 C238 1.275 . S
Cd232 O231 2.300 . S
Cd232 O240 2.381 . S
Cd232 O241 2.378 . S
O233 Cd234 2.385 . S
O233 C238 1.255 . S
Cd234 O233 2.385 . S
Cd234 O235 2.317 . S
O235 Cd234 2.317 . S
O235 C236 1.232 . S
C236 O235 1.232 . S
C236 O237 1.218 . S
O237 C236 1.218 . S
C238 O231 1.275 . S
C238 O233 1.255 . S
C239 O240 1.258 . S
C239 O241 1.256 . S
O240 Cd232 2.381 . S
O240 C239 1.258 . S
O241 Cd232 2.378 . S
O241 C239 1.256 . S
O242 Cd243 2.300 . S
O242 C249 1.275 . S
Cd243 O242 2.300 . S
Cd243 O251 2.381 . S
Cd243 O252 2.378 . S
O244 Cd245 2.385 . S
O244 C249 1.255 . S
Cd245 O244 2.385 . S
Cd245 O246 2.317 . S
O246 Cd245 2.317 . S
O246 C247 1.232 . S
C247 O246 1.232 . S
C247 O248 1.218 . S
O248 C247 1.218 . S
C249 O242 1.275 . S
C249 O244 1.255 . S
C250 O251 1.258 . S
C250 O252 1.256 . S
O251 Cd243 2.381 . S
O251 C250 1.258 . S
O252 Cd243 2.378 . S
O252 C250 1.256 . S
O253 Cd254 2.300 . S
O253 C260 1.275 . S
Cd254 O253 2.300 . S
Cd254 O262 2.381 . S
Cd254 O263 2.378 . S
O255 Cd256 2.385 . S
O255 C260 1.255 . S
Cd256 O255 2.385 . S
Cd256 O257 2.317 . S
O257 Cd256 2.317 . S
O257 C258 1.232 . S
C258 O257 1.232 . S
C258 O259 1.218 . S
O259 C258 1.218 . S
C260 O253 1.275 . S
C260 O255 1.255 . S
C261 O262 1.258 . S
C261 O263 1.256 . S
O262 Cd254 2.381 . S
O262 C261 1.258 . S
O263 Cd254 2.378 . S
O263 C261 1.256 . S
O264 Cd265 2.300 . S
O264 C271 1.275 . S
Cd265 O264 2.300 . S
Cd265 O273 2.381 . S
Cd265 O274 2.378 1_655 S
O266 Cd267 2.385 . S
O266 C271 1.255 . S
Cd267 O266 2.385 . S
Cd267 O268 2.317 . S
O268 Cd267 2.317 . S
O268 C269 1.232 . S
C269 O268 1.232 . S
C269 O270 1.218 . S
O270 C269 1.218 . S
C271 O264 1.275 . S
C271 O266 1.255 . S
C272 O273 1.258 1_455 S
C272 O274 1.256 . S
O273 Cd265 2.381 . S
O273 C272 1.258 1_655 S
O274 Cd265 2.378 1_455 S
O274 C272 1.256 . S
O275 Cd276 2.300 . S
O275 C282 1.275 . S
Cd276 O275 2.300 . S
Cd276 O284 2.381 . S
Cd276 O285 2.378 . S
O277 Cd278 2.385 . S
O277 C282 1.255 . S
Cd278 O277 2.385 . S
Cd278 O279 2.317 . S
O279 Cd278 2.317 . S
O279 C280 1.232 . S
C280 O279 1.232 . S
C280 O281 1.218 . S
O281 C280 1.218 . S
C282 O275 1.275 . S
C282 O277 1.255 . S
C283 O284 1.258 . S
C283 O285 1.256 . S
O284 Cd276 2.381 . S
O284 C283 1.258 . S
O285 Cd276 2.378 . S
O285 C283 1.256 . S
O286 Cd287 2.300 . S
O286 C293 1.275 . S
Cd287 O286 2.300 . S
Cd287 O295 2.381 . S
Cd287 O296 2.378 . S
O288 Cd289 2.385 . S
O288 C293 1.255 . S
Cd289 O288 2.385 . S
Cd289 O290 2.317 . S
O290 Cd289 2.317 . S
O290 C291 1.232 . S
C291 O290 1.232 . S
C291 O292 1.218 . S
O292 C291 1.218 . S
C293 O286 1.275 . S
C293 O288 1.255 . S
C294 O295 1.258 . S
C294 O296 1.256 . S
O295 Cd287 2.381 . S
O295 C294 1.258 . S
O296 Cd287 2.378 . S
O296 C294 1.256 . S
O297 Cd298 2.300 . S
O297 C304 1.275 . S
Cd298 O297 2.300 . S
Cd298 O306 2.381 . S
Cd298 O307 2.378 . S
O299 Cd300 2.385 . S
O299 C304 1.255 . S
Cd300 O299 2.385 . S
Cd300 O301 2.317 . S
O301 Cd300 2.317 . S
O301 C302 1.232 . S
C302 O301 1.232 . S
C302 O303 1.218 . S
O303 C302 1.218 . S
C304 O297 1.275 . S
C304 O299 1.255 . S
C305 O306 1.258 . S
C305 O307 1.256 . S
O306 Cd298 2.381 . S
O306 C305 1.258 . S
O307 Cd298 2.378 . S
O307 C305 1.256 . S
O308 Cd309 2.300 . S
O308 C315 1.275 . S
Cd309 O308 2.300 . S
Cd309 O317 2.381 . S
Cd309 O318 2.378 1_655 S
O310 Cd311 2.385 . S
O310 C315 1.255 . S
Cd311 O310 2.385 . S
Cd311 O312 2.317 . S
O312 Cd311 2.317 . S
O312 C313 1.232 . S
C313 O312 1.232 . S
C313 O314 1.218 . S
O314 C313 1.218 . S
C315 O308 1.275 . S
C315 O310 1.255 . S
C316 O317 1.258 1_455 S
C316 O318 1.256 . S
O317 Cd309 2.381 . S
O317 C316 1.258 1_655 S
O318 Cd309 2.378 1_455 S
O318 C316 1.256 . S
O319 Cd320 2.300 . S
O319 C326 1.275 . S
Cd320 O319 2.300 . S
Cd320 O328 2.381 . S
Cd320 O329 2.378 . S
O321 Cd322 2.385 . S
O321 C326 1.255 . S
Cd322 O321 2.385 . S
Cd322 O323 2.317 . S
O323 Cd322 2.317 . S
O323 C324 1.232 . S
C324 O323 1.232 . S
C324 O325 1.218 . S
O325 C324 1.218 . S
C326 O319 1.275 . S
C326 O321 1.255 . S
C327 O328 1.258 . S
C327 O329 1.256 . S
O328 Cd320 2.381 . S
O328 C327 1.258 . S
O329 Cd320 2.378 . S
O329 C327 1.256 . S
O330 Cd331 2.300 . S
O330 C337 1.275 . S
Cd331 O330 2.300 . S
Cd331 O339 2.381 . S
Cd331 O340 2.378 . S
O332 Cd333 2.385 . S
O332 C337 1.255 . S
Cd333 O332 2.385 . S
Cd333 O334 2.317 . S
O334 Cd333 2.317 . S
O334 C335 1.232 . S
C335 O334 1.232 . S
C335 O336 1.218 . S
O336 C335 1.218 . S
C337 O330 1.275 . S
C337 O332 1.255 . S
C338 O339 1.258 . S
C338 O340 1.256 . S
O339 Cd331 2.381 . S
O339 C338 1.258 . S
O340 Cd331 2.378 . S
O340 C338 1.256 . S
O341 Cd342 2.300 . S
O341 C348 1.275 . S
Cd342 O341 2.300 . S
Cd342 O350 2.381 . S
Cd342 O351 2.378 . S
O343 Cd344 2.385 . S
O343 C348 1.255 . S
Cd344 O343 2.385 . S
Cd344 O345 2.317 . S
O345 Cd344 2.317 . S
O345 C346 1.232 . S
C346 O345 1.232 . S
C346 O347 1.218 . S
O347 C346 1.218 . S
C348 O341 1.275 . S
C348 O343 1.255 . S
C349 O350 1.258 . S
C349 O351 1.256 . S
O350 Cd342 2.381 . S
O350 C349 1.258 . S
O351 Cd342 2.378 . S
O351 C349 1.256 . S
O352 Cd353 2.300 . S
O352 C359 1.275 . S
Cd353 O352 2.300 . S
Cd353 O361 2.381 . S
Cd353 O362 2.378 1_565 S
O354 Cd355 2.385 . S
O354 C359 1.255 . S
Cd355 O354 2.385 . S
Cd355 O356 2.317 . S
O356 Cd355 2.317 . S
O356 C357 1.232 . S
C357 O356 1.232 . S
C357 O358 1.218 . S
O358 C357 1.218 . S
C359 O352 1.275 . S
C359 O354 1.255 . S
C360 O361 1.258 1_545 S
C360 O362 1.256 . S
O361 Cd353 2.381 . S
O361 C360 1.258 1_565 S
O362 Cd353 2.378 1_545 S
O362 C360 1.256 . S
O363 Cd364 2.300 . S
O363 C370 1.275 . S
Cd364 O363 2.300 . S
Cd364 O372 2.381 . S
Cd364 O373 2.378 . S
O365 Cd366 2.385 . S
O365 C370 1.255 . S
Cd366 O365 2.385 . S
Cd366 O367 2.317 . S
O367 Cd366 2.317 . S
O367 C368 1.232 . S
C368 O367 1.232 . S
C368 O369 1.218 . S
O369 C368 1.218 . S
C370 O363 1.275 . S
C370 O365 1.255 . S
C371 O372 1.258 . S
C371 O373 1.256 . S
O372 Cd364 2.381 . S
O372 C371 1.258 . S
O373 Cd364 2.378 . S
O373 C371 1.256 . S
O374 Cd375 2.300 . S
O374 C381 1.275 . S
Cd375 O374 2.300 . S
Cd375 O383 2.381 . S
Cd375 O384 2.378 1_545 S
O376 Cd377 2.385 . S
O376 C381 1.255 . S
Cd377 O376 2.385 . S
Cd377 O378 2.317 . S
O378 Cd377 2.317 . S
O378 C379 1.232 . S
C379 O378 1.232 . S
C379 O380 1.218 . S
O380 C379 1.218 . S
C381 O374 1.275 . S
C381 O376 1.255 . S
C382 O383 1.258 1_565 S
C382 O384 1.256 . S
O383 Cd375 2.381 . S
O383 C382 1.258 1_545 S
O384 Cd375 2.378 1_565 S
O384 C382 1.256 . S
O385 Cd386 2.300 . S
O385 C392 1.275 . S
Cd386 O385 2.300 . S
Cd386 O394 2.381 . S
Cd386 O395 2.378 . S
O387 Cd388 2.385 . S
O387 C392 1.255 . S
Cd388 O387 2.385 . S
Cd388 O389 2.317 . S
O389 Cd388 2.317 . S
O389 C390 1.232 . S
C390 O389 1.232 . S
C390 O391 1.218 . S
O391 C390 1.218 . S
C392 O385 1.275 . S
C392 O387 1.255 . S
C393 O394 1.258 . S
C393 O395 1.256 . S
O394 Cd386 2.381 . S
O394 C393 1.258 . S
O395 Cd386 2.378 . S
O395 C393 1.256 . S
O396 Cd397 2.300 . S
O396 C403 1.275 . S
Cd397 O396 2.300 . S
Cd397 O405 2.381 . S
Cd397 O406 2.378 1_545 S
O398 Cd399 2.385 . S
O398 C403 1.255 . S
Cd399 O398 2.385 . S
Cd399 O400 2.317 . S
O400 Cd399 2.317 . S
O400 C401 1.232 . S
C401 O400 1.232 . S
C401 O402 1.218 . S
O402 C401 1.218 . S
C403 O396 1.275 . S
C403 O398 1.255 . S
C404 O405 1.258 1_565 S
C404 O406 1.256 . S
O405 Cd397 2.381 . S
O405 C404 1.258 1_545 S
O406 Cd397 2.378 1_565 S
O406 C404 1.256 . S
O407 Cd408 2.300 . S
O407 C414 1.275 . S
Cd408 O407 2.300 . S
Cd408 O416 2.381 . S
Cd408 O417 2.378 . S
O409 Cd410 2.385 . S
O409 C414 1.255 . S
Cd410 O409 2.385 . S
Cd410 O411 2.317 . S
O411 Cd410 2.317 . S
O411 C412 1.232 . S
C412 O411 1.232 . S
C412 O413 1.218 . S
O413 C412 1.218 . S
C414 O407 1.275 . S
C414 O409 1.255 . S
C415 O416 1.258 . S
C415 O417 1.256 . S
O416 Cd408 2.381 . S
O416 C415 1.258 . S
O417 Cd408 2.378 . S
O417 C415 1.256 . S
O418 Cd419 2.300 . S
O418 C425 1.275 . S
Cd419 O418 2.300 . S
Cd419 O427 2.381 . S
Cd419 O428 2.378 1_565 S
O420 Cd421 2.385 . S
O420 C425 1.255 . S
Cd421 O420 2.385 . S
Cd421 O422 2.317 . S
O422 Cd421 2.317 . S
O422 C423 1.232 . S
C423 O422 1.232 . S
C423 O424 1.218 . S
O424 C423 1.218 . S
C425 O418 1.275 . S
C425 O420 1.255 . S
C426 O427 1.258 1_545 S
C426 O428 1.256 . S
O427 Cd419 2.381 . S
O427 C426 1.258 1_565 S
O428 Cd419 2.378 1_545 S
O428 C426 1.256 . S
O429 Cd430 2.300 . S
O429 C436 1.275 . S
Cd430 O429 2.300 . S
Cd430 O438 2.381 . S
Cd430 O439 2.378 . S
O431 Cd432 2.385 . S
O431 C436 1.255 . S
Cd432 O431 2.385 . S
Cd432 O433 2.317 . S
O433 Cd432 2.317 . S
O433 C434 1.232 . S
C434 O433 1.232 . S
C434 O435 1.218 . S
O435 C434 1.218 . S
C436 O429 1.275 . S
C436 O431 1.255 . S
C437 O438 1.258 . S
C437 O439 1.256 . S
O438 Cd430 2.381 . S
O438 C437 1.258 . S
O439 Cd430 2.378 . S
O439 C437 1.256 . S
O440 Cd441 2.300 . S
O440 C447 1.275 . S
Cd441 O440 2.300 . S
Cd441 O449 2.381 . S
Cd441 O450 2.378 1_556 S
O442 Cd443 2.385 . S
O442 C447 1.255 . S
Cd443 O442 2.385 . S
Cd443 O444 2.317 . S
O444 Cd443 2.317 . S
O444 C445 1.232 . S
C445 O444 1.232 . S
C445 O446 1.218 . S
O446 C445 1.218 . S
C447 O440 1.275 . S
C447 O442 1.255 . S
C448 O449 1.258 1_554 S
C448 O450 1.256 . S
O449 Cd441 2.381 . S
O449 C448 1.258 1_556 S
O450 Cd441 2.378 1_554 S
O450 C448 1.256 . S
O451 Cd452 2.300 . S
O451 C458 1.275 . S
Cd452 O451 2.300 . S
Cd452 O460 2.381 . S
Cd452 O461 2.378 1_554 S
O453 Cd454 2.385 . S
O453 C458 1.255 . S
Cd454 O453 2.385 . S
Cd454 O455 2.317 . S
O455 Cd454 2.317 . S
O455 C456 1.232 . S
C456 O455 1.232 . S
C456 O457 1.218 . S
O457 C456 1.218 . S
C458 O451 1.275 . S
C458 O453 1.255 . S
C459 O460 1.258 1_556 S
C459 O461 1.256 . S
O460 Cd452 2.381 . S
O460 C459 1.258 1_554 S
O461 Cd452 2.378 1_556 S
O461 C459 1.256 . S
O462 Cd463 2.300 . S
O462 C469 1.275 . S
Cd463 O462 2.300 . S
Cd463 O471 2.381 . S
Cd463 O472 2.378 . S
O464 Cd465 2.385 . S
O464 C469 1.255 . S
Cd465 O464 2.385 . S
Cd465 O466 2.317 . S
O466 Cd465 2.317 . S
O466 C467 1.232 . S
C467 O466 1.232 . S
C467 O468 1.218 . S
O468 C467 1.218 . S
C469 O462 1.275 . S
C469 O464 1.255 . S
C470 O471 1.258 . S
C470 O472 1.256 . S
O471 Cd463 2.381 . S
O471 C470 1.258 . S
O472 Cd463 2.378 . S
O472 C470 1.256 . S
O473 Cd474 2.300 . S
O473 C480 1.275 . S
Cd474 O473 2.300 . S
Cd474 O482 2.381 . S
Cd474 O483 2.378 . S
O475 Cd476 2.385 . S
O475 C480 1.255 . S
Cd476 O475 2.385 . S
Cd476 O477 2.317 . S
O477 Cd476 2.317 . S
O477 C478 1.232 . S
C478 O477 1.232 . S
C478 O479 1.218 . S
O479 C478 1.218 . S
C480 O473 1.275 . S
C480 O475 1.255 . S
C481 O482 1.258 . S
C481 O483 1.256 . S
O482 Cd474 2.381 . S
O482 C481 1.258 . S
O483 Cd474 2.378 . S
O483 C481 1.256 . S
O484 Cd485 2.300 . S
O484 C491 1.275 . S
Cd485 O484 2.300 . S
Cd485 O493 2.381 . S
Cd485 O494 2.378 . S
O486 Cd487 2.385 . S
O486 C491 1.255 . S
Cd487 O486 2.385 . S
Cd487 O488 2.317 . S
O488 Cd487 2.317 . S
O488 C489 1.232 . S
C489 O488 1.232 . S
C489 O490 1.218 . S
O490 C489 1.218 . S
C491 O484 1.275 . S
C491 O486 1.255 . S
C492 O493 1.258 . S
C492 O494 1.256 . S
O493 Cd485 2.381 . S
O493 C492 1.258 . S
O494 Cd485 2.378 . S
O494 C492 1.256 . S
O495 Cd496 2.300 . S
O495 C502 1.275 . S
Cd496 O495 2.300 . S
Cd496 O504 2.381 . S
Cd496 O505 2.378 . S
O497 Cd498 2.385 . S
O497 C502 1.255 . S
Cd498 O497 2.385 . S
Cd498 O499 2.317 . S
O499 Cd498 2.317 . S
O499 C500 1.232 . S
C500 O499 1.232 . S
C500 O501 1.218 . S
O501 C500 1.218 . S
C502 O495 1.275 . S
C502 O497 1.255 . S
C503 O504 1.258 . S
C503 O505 1.256 . S
O504 Cd496 2.381 . S
O504 C503 1.258 . S
O505 Cd496 2.378 . S
O505 C503 1.256 . S
O506 Cd507 2.300 . S
O506 C513 1.275 . S
Cd507 O506 2.300 . S
Cd507 O515 2.381 . S
Cd507 O516 2.378 . S
O508 Cd509 2.385 . S
O508 C513 1.255 . S
Cd509 O508 2.385 . S
Cd509 O510 2.317 . S
O510 Cd509 2.317 . S
O510 C511 1.232 . S
C511 O510 1.232 . S
C511 O512 1.218 . S
O512 C511 1.218 . S
C513 O506 1.275 . S
C513 O508 1.255 . S
C514 O515 1.258 . S
C514 O516 1.256 . S
O515 Cd507 2.381 . S
O515 C514 1.258 . S
O516 Cd507 2.378 . S
O516 C514 1.256 . S
O517 Cd518 2.300 . S
O517 C524 1.275 . S
Cd518 O517 2.300 . S
Cd518 O526 2.381 . S
Cd518 O527 2.378 . S
O519 Cd520 2.385 . S
O519 C524 1.255 . S
Cd520 O519 2.385 . S
Cd520 O521 2.317 . S
O521 Cd520 2.317 . S
O521 C522 1.232 . S
C522 O521 1.232 . S
C522 O523 1.218 . S
O523 C522 1.218 . S
C524 O517 1.275 . S
C524 O519 1.255 . S
C525 O526 1.258 . S
C525 O527 1.256 . S
O526 Cd518 2.381 . S
O526 C525 1.258 . S
O527 Cd518 2.378 . S
O527 C525 1.256 . S
O528 Cd529 2.300 . S
O528 C535 1.275 . S
Cd529 O528 2.300 . S
Cd529 O537 2.381 . S
Cd529 O538 2.378 . S
O530 Cd531 2.385 . S
O530 C535 1.255 . S
Cd531 O530 2.385 . S
Cd531 O532 2.317 . S
O532 Cd531 2.317 . S
O532 C533 1.232 . S
C533 O532 1.232 . S
C533 O534 1.218 . S
O534 C533 1.218 . S
C535 O528 1.275 . S
C535 O530 1.255 . S
C536 O537 1.258 . S
C536 O538 1.256 . S
O537 Cd529 2.381 . S
O537 C536 1.258 . S
O538 Cd529 2.378 . S
O538 C536 1.256 . S
O539 Cd540 2.300 . S
O539 C546 1.275 . S
Cd540 O539 2.300 . S
Cd540 O548 2.381 . S
Cd540 O549 2.378 . S
O541 Cd542 2.385 . S
O541 C546 1.255 . S
Cd542 O541 2.385 . S
Cd542 O543 2.317 . S
O543 Cd542 2.317 . S
O543 C544 1.232 . S
C544 O543 1.232 . S
C544 O545 1.218 . S
O545 C544 1.218 . S
C546 O539 1.275 . S
C546 O541 1.255 . S
C547 O548 1.258 . S
C547 O549 1.256 . S
O548 Cd540 2.381 . S
O548 C547 1.258 . S
O549 Cd540 2.378 . S
O549 C547 1.256 . S
O550 Cd551 2.300 . S
O550 C557 1.275 . S
Cd551 O550 2.300 . S
Cd551 O559 2.381 . S
Cd551 O560 2.416 . S
O552 Cd553 2.385 . S
O552 C557 1.255 . S
Cd553 O552 2.385 . S
Cd553 O554 2.317 . S
O554 Cd553 2.317 . S
O554 C555 1.232 . S
C555 O554 1.232 . S
C555 O556 1.218 . S
O556 C555 1.218 . S
C557 O550 1.275 . S
C557 O552 1.255 . S
C558 O559 1.258 1_455 S
C558 O560 1.236 1_455 S
O559 Cd551 2.381 . S
O559 C558 1.258 1_655 S
O560 Cd551 2.416 . S
O560 C558 1.236 1_655 S
O561 Cd562 2.300 . S
O561 C568 1.275 . S
Cd562 O561 2.300 . S
Cd562 O570 2.381 . S
Cd562 O571 2.378 . S
O563 Cd564 2.385 . S
O563 C568 1.255 . S
Cd564 O563 2.385 . S
Cd564 O565 2.317 . S
O565 Cd564 2.317 . S
O565 C566 1.232 . S
C566 O565 1.232 . S
C566 O567 1.218 . S
O567 C566 1.218 . S
C568 O561 1.275 . S
C568 O563 1.255 . S
C569 O570 1.258 . S
C569 O571 1.256 . S
O570 Cd562 2.381 . S
O570 C569 1.258 . S
O571 Cd562 2.378 . S
O571 C569 1.256 . S
O572 Cd573 2.300 . S
O572 C579 1.275 . S
Cd573 O572 2.300 . S
Cd573 O581 2.381 . S
Cd573 O582 2.378 . S
O574 Cd575 2.385 . S
O574 C579 1.255 . S
Cd575 O574 2.385 . S
Cd575 O576 2.317 . S
O576 Cd575 2.317 . S
O576 C577 1.232 . S
C577 O576 1.232 . S
C577 O578 1.218 . S
O578 C577 1.218 . S
C579 O572 1.275 . S
C579 O574 1.255 . S
C580 O581 1.258 . S
C580 O582 1.256 . S
O581 Cd573 2.381 . S
O581 C580 1.258 . S
O582 Cd573 2.378 . S
O582 C580 1.256 . S
O583 Cd584 2.300 . S
O583 C590 1.275 . S
Cd584 O583 2.300 . S
Cd584 O592 2.381 . S
Cd584 O593 2.378 . S
O585 Cd586 2.385 . S
O585 C590 1.255 . S
Cd586 O585 2.385 . S
Cd586 O587 2.317 . S
O587 Cd586 2.317 . S
O587 C588 1.232 . S
C588 O587 1.232 . S
C588 O589 1.218 . S
O589 C588 1.218 . S
C590 O583 1.275 . S
C590 O585 1.255 . S
C591 O592 1.258 . S
C591 O593 1.256 . S
O592 Cd584 2.381 . S
O592 C591 1.258 . S
O593 Cd584 2.378 . S
O593 C591 1.256 . S
O594 Cd595 2.300 . S
O594 C601 1.275 . S
Cd595 O594 2.300 . S
Cd595 O603 2.381 . S
Cd595 O604 2.416 . S
O596 Cd597 2.385 . S
O596 C601 1.255 . S
Cd597 O596 2.385 . S
Cd597 O598 2.317 . S
O598 Cd597 2.317 . S
O598 C599 1.232 . S
C599 O598 1.232 . S
C599 O600 1.218 . S
O600 C599 1.218 . S
C601 O594 1.275 . S
C601 O596 1.255 . S
C602 O603 1.258 1_455 S
C602 O604 1.236 1_455 S
O603 Cd595 2.381 . S
O603 C602 1.258 1_655 S
O604 Cd595 2.416 . S
O604 C602 1.236 1_655 S
O605 Cd606 2.300 . S
O605 C612 1.275 . S
Cd606 O605 2.300 . S
Cd606 O614 2.381 . S
Cd606 O615 2.378 . S
O607 Cd608 2.385 . S
O607 C612 1.255 . S
Cd608 O607 2.385 . S
Cd608 O609 2.317 . S
O609 Cd608 2.317 . S
O609 C610 1.232 . S
C610 O609 1.232 . S
C610 O611 1.218 . S
O611 C610 1.218 . S
C612 O605 1.275 . S
C612 O607 1.255 . S
C613 O614 1.258 . S
C613 O615 1.256 . S
O614 Cd606 2.381 . S
O614 C613 1.258 . S
O615 Cd606 2.378 . S
O615 C613 1.256 . S
O616 Cd617 2.300 . S
O616 C623 1.275 . S
Cd617 O616 2.300 . S
Cd617 O625 2.381 . S
Cd617 O626 2.378 . S
O618 Cd619 2.385 . S
O618 C623 1.255 . S
Cd619 O618 2.385 . S
Cd619 O620 2.317 . S
O620 Cd619 2.317 . S
O620 C621 1.232 . S
C621 O620 1.232 . S
C621 O622 1.218 . S
O622 C621 1.218 . S
C623 O616 1.275 . S
C623 O618 1.255 . S
C624 O625 1.258 . S
C624 O626 1.256 . S
O625 Cd617 2.381 . S
O625 C624 1.258 . S
O626 Cd617 2.378 . S
O626 C624 1.256 . S
O627 Cd628 2.300 . S
O627 C634 1.275 . S
Cd628 O627 2.300 . S
Cd628 O636 2.381 . S
Cd628 O637 2.378 . S
O629 Cd630 2.385 . S
O629 C634 1.255 . S
Cd630 O629 2.385 . S
Cd630 O631 2.317 . S
O631 Cd630 2.317 . S
O631 C632 1.232 . S
C632 O631 1.232 . S
C632 O633 1.218 . S
O633 C632 1.218 . S
C634 O627 1.275 . S
C634 O629 1.255 . S
C635 O636 1.258 . S
C635 O637 1.256 . S
O636 Cd628 2.381 . S
O636 C635 1.258 . S
O637 Cd628 2.378 . S
O637 C635 1.256 . S
O638 Cd639 2.300 . S
O638 C645 1.275 . S
Cd639 O638 2.300 . S
Cd639 O647 2.381 . S
Cd639 O648 2.378 . S
O640 Cd641 2.385 . S
O640 C645 1.255 . S
Cd641 O640 2.385 . S
Cd641 O642 2.317 . S
O642 Cd641 2.317 . S
O642 C643 1.232 . S
C643 O642 1.232 . S
C643 O644 1.218 . S
O644 C643 1.218 . S
C645 O638 1.275 . S
C645 O640 1.255 . S
C646 O647 1.258 . S
C646 O648 1.256 . S
O647 Cd639 2.381 . S
O647 C646 1.258 . S
O648 Cd639 2.378 . S
O648 C646 1.256 . S
O649 Cd650 2.300 . S
O649 C656 1.275 . S
Cd650 O649 2.300 . S
Cd650 O658 2.381 . S
Cd650 O659 2.378 . S
O651 Cd652 2.385 . S
O651 C656 1.255 . S
Cd652 O651 2.385 . S
Cd652 O653 2.317 . S
O653 Cd652 2.317 . S
O653 C654 1.232 . S
C654 O653 1.232 . S
C654 O655 1.218 . S
O655 C654 1.218 . S
C656 O649 1.275 . S
C656 O651 1.255 . S
C657 O658 1.258 . S
C657 O659 1.256 . S
O658 Cd650 2.381 . S
O658 C657 1.258 . S
O659 Cd650 2.378 . S
O659 C657 1.256 . S
O660 Cd661 2.300 . S
O660 C667 1.275 . S
Cd661 O660 2.300 . S
Cd661 O669 2.381 . S
Cd661 O670 2.378 . S
O662 Cd663 2.385 . S
O662 C667 1.255 . S
Cd663 O662 2.385 . S
Cd663 O664 2.317 . S
O664 Cd663 2.317 . S
O664 C665 1.232 . S
C665 O664 1.232 . S
C665 O666 1.218 . S
O666 C665 1.218 . S
C667 O660 1.275 . S
C667 O662 1.255 . S
C668 O669 1.258 . S
C668 O670 1.256 . S
O669 Cd661 2.381 . S
O669 C668 1.258 . S
O670 Cd661 2.378 . S
O670 C668 1.256 . S
O671 Cd672 2.300 . S
O671 C678 1.275 . S
Cd672 O671 2.300 . S
Cd672 O680 2.381 . S
Cd672 O681 2.378 . S
O673 Cd674 2.385 . S
O673 C678 1.255 . S
Cd674 O673 2.385 . S
Cd674 O675 2.317 . S
O675 Cd674 2.317 . S
O675 C676 1.232 . S
C676 O675 1.232 . S
C676 O677 1.218 . S
O677 C676 1.218 . S
C678 O671 1.275 . S
C678 O673 1.255 . S
C679 O680 1.258 . S
C679 O681 1.256 . S
O680 Cd672 2.381 . S
O680 C679 1.258 . S
O681 Cd672 2.378 . S
O681 C679 1.256 . S
O682 Cd683 2.300 . S
O682 C689 1.275 . S
Cd683 O682 2.300 . S
Cd683 O691 2.381 . S
Cd683 O692 2.378 . S
O684 Cd685 2.385 . S
O684 C689 1.255 . S
Cd685 O684 2.385 . S
Cd685 O686 2.317 . S
O686 Cd685 2.317 . S
O686 C687 1.232 . S
C687 O686 1.232 . S
C687 O688 1.218 . S
O688 C687 1.218 . S
C689 O682 1.275 . S
C689 O684 1.255 . S
C690 O691 1.258 . S
C690 O692 1.256 . S
O691 Cd683 2.381 . S
O691 C690 1.258 . S
O692 Cd683 2.378 . S
O692 C690 1.256 . S
O693 Cd694 2.300 . S
O693 C700 1.275 . S
Cd694 O693 2.300 . S
Cd694 O702 2.381 . S
Cd694 O703 2.378 . S
O695 Cd696 2.385 . S
O695 C700 1.255 . S
Cd696 O695 2.385 . S
Cd696 O697 2.317 . S
O697 Cd696 2.317 . S
O697 C698 1.232 . S
C698 O697 1.232 . S
C698 O699 1.218 . S
O699 C698 1.218 . S
C700 O693 1.275 . S
C700 O695 1.255 . S
C701 O702 1.258 . S
C701 O703 1.256 . S
O702 Cd694 2.381 . S
O702 C701 1.258 . S
O703 Cd694 2.378 . S
O703 C701 1.256 . S
O704 Cd705 2.300 . S
O704 C711 1.275 . S
Cd705 O704 2.300 . S
Cd705 O713 2.381 . S
Cd705 O714 2.378 . S
O706 Cd707 2.385 . S
O706 C711 1.255 . S
Cd707 O706 2.385 . S
Cd707 O708 2.317 . S
O708 Cd707 2.317 . S
O708 C709 1.232 . S
C709 O708 1.232 . S
C709 O710 1.218 . S
O710 C709 1.218 . S
C711 O704 1.275 . S
C711 O706 1.255 . S
C712 O713 1.258 . S
C712 O714 1.256 . S
O713 Cd705 2.381 . S
O713 C712 1.258 . S
O714 Cd705 2.378 . S
O714 C712 1.256 . S
O715 Cd716 2.300 . S
O715 C722 1.275 . S
Cd716 O715 2.300 . S
Cd716 O724 2.381 . S
Cd716 O725 2.378 . S
O717 Cd718 2.385 . S
O717 C722 1.255 . S
Cd718 O717 2.385 . S
Cd718 O719 2.317 . S
O719 Cd718 2.317 . S
O719 C720 1.232 . S
C720 O719 1.232 . S
C720 O721 1.218 . S
O721 C720 1.218 . S
C722 O715 1.275 . S
C722 O717 1.255 . S
C723 O724 1.258 . S
C723 O725 1.256 . S
O724 Cd716 2.381 . S
O724 C723 1.258 . S
O725 Cd716 2.378 . S
O725 C723 1.256 . S
O726 Cd727 2.300 . S
O726 C733 1.275 . S
Cd727 O726 2.300 . S
Cd727 O735 2.381 . S
Cd727 O736 2.378 . S
O728 Cd729 2.385 . S
O728 C733 1.255 . S
Cd729 O728 2.385 . S
Cd729 O730 2.317 . S
O730 Cd729 2.317 . S
O730 C731 1.232 . S
C731 O730 1.232 . S
C731 O732 1.218 . S
O732 C731 1.218 . S
C733 O726 1.275 . S
C733 O728 1.255 . S
C734 O735 1.258 . S
C734 O736 1.256 . S
O735 Cd727 2.381 . S
O735 C734 1.258 . S
O736 Cd727 2.378 . S
O736 C734 1.256 . S
O737 Cd738 2.300 . S
O737 C744 1.275 . S
Cd738 O737 2.300 . S
Cd738 O746 2.381 . S
Cd738 O747 2.423 . S
O739 Cd740 2.385 . S
O739 C744 1.255 . S
Cd740 O739 2.385 . S
Cd740 O741 2.317 . S
O741 Cd740 2.317 . S
O741 C742 1.232 . S
C742 O741 1.232 . S
C742 O743 1.218 . S
O743 C742 1.218 . S
C744 O737 1.275 . S
C744 O739 1.255 . S
C745 O746 1.258 1_554 S
C745 O747 1.232 1_554 S
O746 Cd738 2.381 . S
O746 C745 1.258 1_556 S
O747 Cd738 2.423 . S
O747 C745 1.232 1_556 S
O748 Cd749 2.300 . S
O748 C755 1.275 . S
Cd749 O748 2.300 . S
Cd749 O757 2.381 . S
Cd749 O758 2.378 . S
O750 Cd751 2.385 . S
O750 C755 1.255 . S
Cd751 O750 2.385 . S
Cd751 O752 2.317 . S
O752 Cd751 2.317 . S
O752 C753 1.232 . S
C753 O752 1.232 . S
C753 O754 1.218 . S
O754 C753 1.218 . S
C755 O748 1.275 . S
C755 O750 1.255 . S
C756 O757 1.258 . S
C756 O758 1.256 . S
O757 Cd749 2.381 . S
O757 C756 1.258 . S
O758 Cd749 2.378 . S
O758 C756 1.256 . S
O759 Cd760 2.300 . S
O759 C766 1.275 . S
Cd760 O759 2.300 . S
Cd760 O768 2.381 . S
Cd760 O769 2.423 . S
O761 Cd762 2.385 . S
O761 C766 1.255 . S
Cd762 O761 2.385 . S
Cd762 O763 2.317 . S
O763 Cd762 2.317 . S
O763 C764 1.232 . S
C764 O763 1.232 . S
C764 O765 1.218 . S
O765 C764 1.218 . S
C766 O759 1.275 . S
C766 O761 1.255 . S
C767 O768 1.258 1_556 S
C767 O769 1.232 1_556 S
O768 Cd760 2.381 . S
O768 C767 1.258 1_554 S
O769 Cd760 2.423 . S
O769 C767 1.232 1_554 S
O770 Cd771 2.300 . S
O770 C777 1.275 . S
Cd771 O770 2.300 . S
Cd771 O779 2.381 . S
Cd771 O780 2.378 . S
O772 Cd773 2.385 . S
O772 C777 1.255 . S
Cd773 O772 2.385 . S
Cd773 O774 2.317 . S
O774 Cd773 2.317 . S
O774 C775 1.232 . S
C775 O774 1.232 . S
C775 O776 1.218 . S
O776 C775 1.218 . S
C777 O770 1.275 . S
C777 O772 1.255 . S
C778 O779 1.258 . S
C778 O780 1.256 . S
O779 Cd771 2.381 . S
O779 C778 1.258 . S
O780 Cd771 2.378 . S
O780 C778 1.256 . S
O781 Cd782 2.300 . S
O781 C788 1.275 . S
Cd782 O781 2.300 . S
Cd782 O790 2.381 . S
Cd782 O791 2.378 . S
O783 Cd784 2.385 . S
O783 C788 1.255 . S
Cd784 O783 2.385 . S
Cd784 O785 2.317 . S
O785 Cd784 2.317 . S
O785 C786 1.232 . S
C786 O785 1.232 . S
C786 O787 1.218 . S
O787 C786 1.218 . S
C788 O781 1.275 . S
C788 O783 1.255 . S
C789 O790 1.258 . S
C789 O791 1.256 . S
O790 Cd782 2.381 . S
O790 C789 1.258 . S
O791 Cd782 2.378 . S
O791 C789 1.256 . S
O792 Cd793 2.300 . S
O792 C799 1.275 . S
Cd793 O792 2.300 . S
Cd793 O801 2.381 . S
Cd793 O802 2.378 . S
O794 Cd795 2.385 . S
O794 C799 1.255 . S
Cd795 O794 2.385 . S
Cd795 O796 2.317 . S
O796 Cd795 2.317 . S
O796 C797 1.232 . S
C797 O796 1.232 . S
C797 O798 1.218 . S
O798 C797 1.218 . S
C799 O792 1.275 . S
C799 O794 1.255 . S
C800 O801 1.258 . S
C800 O802 1.256 . S
O801 Cd793 2.381 . S
O801 C800 1.258 . S
O802 Cd793 2.378 . S
O802 C800 1.256 . S
O803 Cd804 2.300 . S
O803 C810 1.275 . S
Cd804 O803 2.300 . S
Cd804 O812 2.381 . S
Cd804 O813 2.378 . S
O805 Cd806 2.385 . S
O805 C810 1.255 . S
Cd806 O805 2.385 . S
Cd806 O807 2.317 . S
O807 Cd806 2.317 . S
O807 C808 1.232 . S
C808 O807 1.232 . S
C808 O809 1.218 . S
O809 C808 1.218 . S
C810 O803 1.275 . S
C810 O805 1.255 . S
C811 O812 1.258 . S
C811 O813 1.256 . S
O812 Cd804 2.381 . S
O812 C811 1.258 . S
O813 Cd804 2.378 . S
O813 C811 1.256 . S
O814 Cd815 2.300 . S
O814 C821 1.275 . S
Cd815 O814 2.300 . S
Cd815 O823 2.381 . S
Cd815 O824 2.378 1_455 S
O816 Cd817 2.385 . S
O816 C821 1.255 . S
Cd817 O816 2.385 . S
Cd817 O818 2.317 . S
O818 Cd817 2.317 . S
O818 C819 1.232 . S
C819 O818 1.232 . S
C819 O820 1.218 . S
O820 C819 1.218 . S
C821 O814 1.275 . S
C821 O816 1.255 . S
C822 O823 1.258 1_655 S
C822 O824 1.256 . S
O823 Cd815 2.381 . S
O823 C822 1.258 1_455 S
O824 Cd815 2.378 1_655 S
O824 C822 1.256 . S
O825 Cd826 2.300 . S
O825 C832 1.275 . S
Cd826 O825 2.300 . S
Cd826 O834 2.381 . S
Cd826 O835 2.378 . S
O827 Cd828 2.385 . S
O827 C832 1.255 . S
Cd828 O827 2.385 . S
Cd828 O829 2.317 . S
O829 Cd828 2.317 . S
O829 C830 1.232 . S
C830 O829 1.232 . S
C830 O831 1.218 . S
O831 C830 1.218 . S
C832 O825 1.275 . S
C832 O827 1.255 . S
C833 O834 1.258 . S
C833 O835 1.256 . S
O834 Cd826 2.381 . S
O834 C833 1.258 . S
O835 Cd826 2.378 . S
O835 C833 1.256 . S
O836 Cd837 2.300 . S
O836 C843 1.275 . S
Cd837 O836 2.300 . S
Cd837 O845 2.381 . S
Cd837 O846 2.378 . S
O838 Cd839 2.385 . S
O838 C843 1.255 . S
Cd839 O838 2.385 . S
Cd839 O840 2.317 . S
O840 Cd839 2.317 . S
O840 C841 1.232 . S
C841 O840 1.232 . S
C841 O842 1.218 . S
O842 C841 1.218 . S
C843 O836 1.275 . S
C843 O838 1.255 . S
C844 O845 1.258 . S
C844 O846 1.256 . S
O845 Cd837 2.381 . S
O845 C844 1.258 . S
O846 Cd837 2.378 . S
O846 C844 1.256 . S
O847 Cd848 2.300 . S
O847 C854 1.275 . S
Cd848 O847 2.300 . S
Cd848 O856 2.381 . S
Cd848 O857 2.378 . S
O849 Cd850 2.385 . S
O849 C854 1.255 . S
Cd850 O849 2.385 . S
Cd850 O851 2.317 . S
O851 Cd850 2.317 . S
O851 C852 1.232 . S
C852 O851 1.232 . S
C852 O853 1.218 . S
O853 C852 1.218 . S
C854 O847 1.275 . S
C854 O849 1.255 . S
C855 O856 1.258 . S
C855 O857 1.256 . S
O856 Cd848 2.381 . S
O856 C855 1.258 . S
O857 Cd848 2.378 . S
O857 C855 1.256 . S
O858 Cd859 2.300 . S
O858 C865 1.275 . S
Cd859 O858 2.300 . S
Cd859 O867 2.381 . S
Cd859 O868 2.378 1_455 S
O860 Cd861 2.385 . S
O860 C865 1.255 . S
Cd861 O860 2.385 . S
Cd861 O862 2.317 . S
O862 Cd861 2.317 . S
O862 C863 1.232 . S
C863 O862 1.232 . S
C863 O864 1.218 . S
O864 C863 1.218 . S
C865 O858 1.275 . S
C865 O860 1.255 . S
C866 O867 1.258 1_655 S
C866 O868 1.256 . S
O867 Cd859 2.381 . S
O867 C866 1.258 1_455 S
O868 Cd859 2.378 1_655 S
O868 C866 1.256 . S
O869 Cd870 2.300 . S
O869 C876 1.275 . S
Cd870 O869 2.300 . S
Cd870 O878 2.381 . S
Cd870 O879 2.378 . S
O871 Cd872 2.385 . S
O871 C876 1.255 . S
Cd872 O871 2.385 . S
Cd872 O873 2.317 . S
O873 Cd872 2.317 . S
O873 C874 1.232 . S
C874 O873 1.232 . S
C874 O875 1.218 . S
O875 C874 1.218 . S
C876 O869 1.275 . S
C876 O871 1.255 . S
C877 O878 1.258 . S
C877 O879 1.256 . S
O878 Cd870 2.381 . S
O878 C877 1.258 . S
O879 Cd870 2.378 . S
O879 C877 1.256 . S
O880 Cd881 2.300 . S
O880 C887 1.275 . S
Cd881 O880 2.300 . S
Cd881 O889 2.381 . S
Cd881 O890 2.378 . S
O882 Cd883 2.385 . S
O882 C887 1.255 . S
Cd883 O882 2.385 . S
Cd883 O884 2.317 . S
O884 Cd883 2.317 . S
O884 C885 1.232 . S
C885 O884 1.232 . S
C885 O886 1.218 . S
O886 C885 1.218 . S
C887 O880 1.275 . S
C887 O882 1.255 . S
C888 O889 1.258 . S
C888 O890 1.256 . S
O889 Cd881 2.381 . S
O889 C888 1.258 . S
O890 Cd881 2.378 . S
O890 C888 1.256 . S
O891 Cd892 2.300 . S
O891 C898 1.275 . S
Cd892 O891 2.300 . S
Cd892 O900 2.381 . S
Cd892 O901 2.378 . S
O893 Cd894 2.385 . S
O893 C898 1.255 . S
Cd894 O893 2.385 . S
Cd894 O895 2.317 . S
O895 Cd894 2.317 . S
O895 C896 1.232 . S
C896 O895 1.232 . S
C896 O897 1.218 . S
O897 C896 1.218 . S
C898 O891 1.275 . S
C898 O893 1.255 . S
C899 O900 1.258 . S
C899 O901 1.256 . S
O900 Cd892 2.381 . S
O900 C899 1.258 . S
O901 Cd892 2.378 . S
O901 C899 1.256 . S
O902 Cd903 2.300 . S
O902 C909 1.275 . S
Cd903 O902 2.300 . S
Cd903 O911 2.381 . S
Cd903 O912 2.378 . S
O904 Cd905 2.385 . S
O904 C909 1.255 . S
Cd905 O904 2.385 . S
Cd905 O906 2.317 . S
O906 Cd905 2.317 . S
O906 C907 1.232 . S
C907 O906 1.232 . S
C907 O908 1.218 . S
O908 C907 1.218 . S
C909 O902 1.275 . S
C909 O904 1.255 . S
C910 O911 1.258 . S
C910 O912 1.256 . S
O911 Cd903 2.381 . S
O911 C910 1.258 . S
O912 Cd903 2.378 . S
O912 C910 1.256 . S
O913 Cd914 2.300 . S
O913 C920 1.275 . S
Cd914 O913 2.300 . S
Cd914 O922 2.381 . S
Cd914 O923 2.378 . S
O915 Cd916 2.385 . S
O915 C920 1.255 . S
Cd916 O915 2.385 . S
Cd916 O917 2.317 . S
O917 Cd916 2.317 . S
O917 C918 1.232 . S
C918 O917 1.232 . S
C918 O919 1.218 . S
O919 C918 1.218 . S
C920 O913 1.275 . S
C920 O915 1.255 . S
C921 O922 1.258 . S
C921 O923 1.256 . S
O922 Cd914 2.381 . S
O922 C921 1.258 . S
O923 Cd914 2.378 . S
O923 C921 1.256 . S
O924 Cd925 2.300 . S
O924 C931 1.275 . S
Cd925 O924 2.300 . S
Cd925 O933 2.381 . S
Cd925 O934 2.378 . S
O926 Cd927 2.385 . S
O926 C931 1.255 . S
Cd927 O926 2.385 . S
Cd927 O928 2.317 . S
O928 Cd927 2.317 . S
O928 C929 1.232 . S
C929 O928 1.232 . S
C929 O930 1.218 . S
O930 C929 1.218 . S
C931 O924 1.275 . S
C931 O926 1.255 . S
C932 O933 1.258 . S
C932 O934 1.256 . S
O933 Cd925 2.381 . S
O933 C932 1.258 . S
O934 Cd925 2.378 . S
O934 C932 1.256 . S
O935 Cd936 2.300 . S
O935 C942 1.275 . S
Cd936 O935 2.300 . S
Cd936 O944 2.381 . S
Cd936 O945 2.378 . S
O937 Cd938 2.385 . S
O937 C942 1.255 . S
Cd938 O937 2.385 . S
Cd938 O939 2.317 . S
O939 Cd938 2.317 . S
O939 C940 1.232 . S
C940 O939 1.232 . S
C940 O941 1.218 . S
O941 C940 1.218 . S
C942 O935 1.275 . S
C942 O937 1.255 . S
C943 O944 1.258 . S
C943 O945 1.256 . S
O944 Cd936 2.381 . S
O944 C943 1.258 . S
O945 Cd936 2.378 . S
O945 C943 1.256 . S
O946 Cd947 2.300 . S
O946 C953 1.275 . S
Cd947 O946 2.300 . S
Cd947 O955 2.381 . S
Cd947 O956 2.378 . S
O948 Cd949 2.385 . S
O948 C953 1.255 . S
Cd949 O948 2.385 . S
Cd949 O950 2.317 . S
O950 Cd949 2.317 . S
O950 C951 1.232 . S
C951 O950 1.232 . S
C951 O952 1.218 . S
O952 C951 1.218 . S
C953 O946 1.275 . S
C953 O948 1.255 . S
C954 O955 1.258 . S
C954 O956 1.256 . S
O955 Cd947 2.381 . S
O955 C954 1.258 . S
O956 Cd947 2.378 . S
O956 C954 1.256 . S
O957 Cd958 2.300 . S
O957 C964 1.275 . S
Cd958 O957 2.300 . S
Cd958 O966 2.381 . S
Cd958 O967 2.378 . S
O959 Cd960 2.385 . S
O959 C964 1.255 . S
Cd960 O959 2.385 . S
Cd960 O961 2.317 . S
O961 Cd960 2.317 . S
O961 C962 1.232 . S
C962 O961 1.232 . S
C962 O963 1.218 . S
O963 C962 1.218 . S
C964 O957 1.275 . S
C964 O959 1.255 . S
C965 O966 1.258 . S
C965 O967 1.256 . S
O966 Cd958 2.381 . S
O966 C965 1.258 . S
O967 Cd958 2.378 . S
O967 C965 1.256 . S
O968 Cd969 2.300 . S
O968 C975 1.275 . S
Cd969 O968 2.300 . S
Cd969 O977 2.381 . S
Cd969 O978 2.378 . S
O970 Cd971 2.385 . S
O970 C975 1.255 . S
Cd971 O970 2.385 . S
Cd971 O972 2.317 . S
O972 Cd971 2.317 . S
O972 C973 1.232 . S
C973 O972 1.232 . S
C973 O974 1.218 . S
O974 C973 1.218 . S
C975 O968 1.275 . S
C975 O970 1.255 . S
C976 O977 1.258 . S
C976 O978 1.256 . S
O977 Cd969 2.381 . S
O977 C976 1.258 . S
O978 Cd969 2.378 . S
O978 C976 1.256 . S
O979 Cd980 2.300 . S
O979 C986 1.275 . S
Cd980 O979 2.300 . S
Cd980 O988 2.381 . S
Cd980 O989 2.378 . S
O981 Cd982 2.385 . S
O981 C986 1.255 . S
Cd982 O981 2.385 . S
Cd982 O983 2.317 . S
O983 Cd982 2.317 . S
O983 C984 1.232 . S
C984 O983 1.232 . S
C984 O985 1.218 . S
O985 C984 1.218 . S
C986 O979 1.275 . S
C986 O981 1.255 . S
C987 O988 1.258 . S
C987 O989 1.256 . S
O988 Cd980 2.381 . S
O988 C987 1.258 . S
O989 Cd980 2.378 . S
O989 C987 1.256 . S
O990 Cd991 2.300 . S
O990 C997 1.275 . S
Cd991 O990 2.300 . S
Cd991 O999 2.381 . S
Cd991 O1000 2.378 . S
O992 Cd993 2.385 . S
O992 C997 1.255 . S
Cd993 O992 2.385 . S
Cd993 O994 2.317 . S
O994 Cd993 2.317 . S
O994 C995 1.232 . S
C995 O994 1.232 . S
C995 O996 1.218 . S
O996 C995 1.218 . S
C997 O990 1.275 . S
C997 O992 1.255 . S
C998 O999 1.258 . S
C998 O1000 1.256 . S
O999 Cd991 2.381 . S
O999 C998 1.258 . S
O1000 Cd991 2.378 . S
O1000 C998 1.256 . S
O1001 Cd1002 2.300 . S
O1001 C1008 1.275 . S
Cd1002 O1001 2.300 . S
Cd1002 O1010 2.381 . S
Cd1002 O1011 2.378 1_554 S
O1003 Cd1004 2.385 . S
O1003 C1008 1.255 . S
Cd1004 O1003 2.385 . S
Cd1004 O1005 2.317 . S
O1005 Cd1004 2.317 . S
O1005 C1006 1.232 . S
C1006 O1005 1.232 . S
C1006 O1007 1.218 . S
O1007 C1006 1.218 . S
C1008 O1001 1.275 . S
C1008 O1003 1.255 . S
C1009 O1010 1.258 1_556 S
C1009 O1011 1.256 . S
O1010 Cd1002 2.381 . S
O1010 C1009 1.258 1_554 S
O1011 Cd1002 2.378 1_556 S
O1011 C1009 1.256 . S
O1012 Cd1013 2.300 . S
O1012 C1019 1.275 . S
Cd1013 O1012 2.300 . S
Cd1013 O1021 2.381 . S
Cd1013 O1022 2.378 . S
O1014 Cd1015 2.385 . S
O1014 C1019 1.255 . S
Cd1015 O1014 2.385 . S
Cd1015 O1016 2.317 . S
O1016 Cd1015 2.317 . S
O1016 C1017 1.232 . S
C1017 O1016 1.232 . S
C1017 O1018 1.218 . S
O1018 C1017 1.218 . S
C1019 O1012 1.275 . S
C1019 O1014 1.255 . S
C1020 O1021 1.258 . S
C1020 O1022 1.256 . S
O1021 Cd1013 2.381 . S
O1021 C1020 1.258 . S
O1022 Cd1013 2.378 . S
O1022 C1020 1.256 . S
O1023 Cd1024 2.300 . S
O1023 C1030 1.275 . S
Cd1024 O1023 2.300 . S
Cd1024 O1032 2.381 . S
Cd1024 O1033 2.378 1_556 S
O1025 Cd1026 2.385 . S
O1025 C1030 1.255 . S
Cd1026 O1025 2.385 . S
Cd1026 O1027 2.317 . S
O1027 Cd1026 2.317 . S
O1027 C1028 1.232 . S
C1028 O1027 1.232 . S
C1028 O1029 1.218 . S
O1029 C1028 1.218 . S
C1030 O1023 1.275 . S
C1030 O1025 1.255 . S
C1031 O1032 1.258 1_554 S
C1031 O1033 1.256 . S
O1032 Cd1024 2.381 . S
O1032 C1031 1.258 1_556 S
O1033 Cd1024 2.378 1_554 S
O1033 C1031 1.256 . S
O1034 Cd1035 2.300 . S
O1034 C1041 1.275 . S
Cd1035 O1034 2.300 . S
Cd1035 O1043 2.381 . S
Cd1035 O1044 2.378 . S
O1036 Cd1037 2.385 . S
O1036 C1041 1.255 . S
Cd1037 O1036 2.385 . S
Cd1037 O1038 2.317 . S
O1038 Cd1037 2.317 . S
O1038 C1039 1.232 . S
C1039 O1038 1.232 . S
C1039 O1040 1.218 . S
O1040 C1039 1.218 . S
C1041 O1034 1.275 . S
C1041 O1036 1.255 . S
C1042 O1043 1.258 . S
C1042 O1044 1.256 . S
O1043 Cd1035 2.381 . S
O1043 C1042 1.258 . S
O1044 Cd1035 2.378 . S
O1044 C1042 1.256 . S
O1045 Cd1046 2.300 . S
O1045 C1052 1.275 . S
Cd1046 O1045 2.300 . S
Cd1046 O1054 2.381 . S
Cd1046 O1055 2.378 . S
O1047 Cd1048 2.385 . S
O1047 C1052 1.255 . S
Cd1048 O1047 2.385 . S
Cd1048 O1049 2.317 . S
O1049 Cd1048 2.317 . S
O1049 C1050 1.232 . S
C1050 O1049 1.232 . S
C1050 O1051 1.218 . S
O1051 C1050 1.218 . S
C1052 O1045 1.275 . S
C1052 O1047 1.255 . S
C1053 O1054 1.258 . S
C1053 O1055 1.256 . S
O1054 Cd1046 2.381 . S
O1054 C1053 1.258 . S
O1055 Cd1046 2.378 . S
O1055 C1053 1.256 . S
H1056 C1059 0.931 . S
H1057 C1062 0.928 . S
H1058 C1064 0.930 . S
C1059 H1056 0.931 . S
C1059 C1060 1.413 . S
C1059 C1061 1.360 . S
C1060 C1059 1.413 . S
C1060 C1064 1.429 . S
C1061 C1059 1.360 . S
C1061 C1062 1.372 . S
C1062 H1057 0.928 . S
C1062 C1061 1.372 . S
C1062 C1063 1.404 . S
C1063 C1062 1.404 . S
C1063 C1064 1.391 . S
C1064 H1058 0.930 . S
C1064 C1060 1.429 . S
C1064 C1063 1.391 . S
H1065 C1068 0.931 . S
H1066 C1071 0.928 . S
H1067 C1073 0.930 . S
C1068 H1065 0.931 . S
C1068 C1069 1.413 . S
C1068 C1070 1.360 . S
C1069 C1068 1.413 . S
C1069 C1073 1.429 . S
C1070 C1068 1.360 . S
C1070 C1071 1.372 . S
C1071 H1066 0.928 . S
C1071 C1070 1.372 . S
C1071 C1072 1.404 . S
C1072 C1071 1.404 . S
C1072 C1073 1.391 . S
C1073 H1067 0.930 . S
C1073 C1069 1.429 . S
C1073 C1072 1.391 . S
H1074 C1077 0.931 . S
H1075 C1080 0.928 . S
H1076 C1082 0.930 . S
C1077 H1074 0.931 . S
C1077 C1078 1.413 . S
C1077 C1079 1.360 . S
C1078 C1077 1.413 . S
C1078 C1082 1.429 . S
C1079 C1077 1.360 . S
C1079 C1080 1.372 . S
C1080 H1075 0.928 . S
C1080 C1079 1.372 . S
C1080 C1081 1.404 . S
C1081 C1080 1.404 . S
C1081 C1082 1.391 . S
C1082 H1076 0.930 . S
C1082 C1078 1.429 . S
C1082 C1081 1.391 . S
H1083 C1086 0.931 . S
H1084 C1089 0.928 . S
H1085 C1091 0.930 . S
C1086 H1083 0.931 . S
C1086 C1087 1.413 . S
C1086 C1088 1.360 . S
C1087 C1086 1.413 . S
C1087 C1091 1.429 . S
C1088 C1086 1.360 . S
C1088 C1089 1.372 . S
C1089 H1084 0.928 . S
C1089 C1088 1.372 . S
C1089 C1090 1.404 . S
C1090 C1089 1.404 . S
C1090 C1091 1.391 . S
C1091 H1085 0.930 . S
C1091 C1087 1.429 . S
C1091 C1090 1.391 . S
H1092 C1095 0.931 . S
H1093 C1098 0.928 . S
H1094 C1100 0.930 . S
C1095 H1092 0.931 . S
C1095 C1096 1.413 . S
C1095 C1097 1.360 . S
C1096 C1095 1.413 . S
C1096 C1100 1.429 . S
C1097 C1095 1.360 . S
C1097 C1098 1.372 . S
C1098 H1093 0.928 . S
C1098 C1097 1.372 . S
C1098 C1099 1.404 . S
C1099 C1098 1.404 . S
C1099 C1100 1.391 . S
C1100 H1094 0.930 . S
C1100 C1096 1.429 . S
C1100 C1099 1.391 . S
H1101 C1104 0.931 . S
H1102 C1107 0.928 . S
H1103 C1109 0.930 . S
C1104 H1101 0.931 . S
C1104 C1105 1.413 . S
C1104 C1106 1.360 . S
C1105 C1104 1.413 . S
C1105 C1109 1.429 . S
C1106 C1104 1.360 . S
C1106 C1107 1.372 . S
C1107 H1102 0.928 . S
C1107 C1106 1.372 . S
C1107 C1108 1.404 . S
C1108 C1107 1.404 . S
C1108 C1109 1.391 . S
C1109 H1103 0.930 . S
C1109 C1105 1.429 . S
C1109 C1108 1.391 . S
H1110 C1113 0.931 . S
H1111 C1116 0.928 . S
H1112 C1118 0.930 . S
C1113 H1110 0.931 . S
C1113 C1114 1.413 . S
C1113 C1115 1.360 . S
C1114 C1113 1.413 . S
C1114 C1118 1.429 . S
C1115 C1113 1.360 . S
C1115 C1116 1.372 . S
C1116 H1111 0.928 . S
C1116 C1115 1.372 . S
C1116 C1117 1.404 . S
C1117 C1116 1.404 . S
C1117 C1118 1.391 . S
C1118 H1112 0.930 . S
C1118 C1114 1.429 . S
C1118 C1117 1.391 . S
H1119 C1122 0.931 . S
H1120 C1125 0.928 . S
H1121 C1127 0.930 . S
C1122 H1119 0.931 . S
C1122 C1123 1.413 . S
C1122 C1124 1.360 . S
C1123 C1122 1.413 . S
C1123 C1127 1.429 . S
C1124 C1122 1.360 . S
C1124 C1125 1.372 . S
C1125 H1120 0.928 . S
C1125 C1124 1.372 . S
C1125 C1126 1.404 . S
C1126 C1125 1.404 . S
C1126 C1127 1.391 . S
C1127 H1121 0.930 . S
C1127 C1123 1.429 . S
C1127 C1126 1.391 . S
H1128 C1131 0.931 . S
H1129 C1134 0.928 . S
H1130 C1136 0.930 . S
C1131 H1128 0.931 . S
C1131 C1132 1.413 . S
C1131 C1133 1.360 . S
C1132 C1131 1.413 . S
C1132 C1136 1.429 . S
C1133 C1131 1.360 . S
C1133 C1134 1.372 . S
C1134 H1129 0.928 . S
C1134 C1133 1.372 . S
C1134 C1135 1.404 . S
C1135 C1134 1.404 . S
C1135 C1136 1.391 . S
C1136 H1130 0.930 . S
C1136 C1132 1.429 . S
C1136 C1135 1.391 . S
H1137 C1140 0.931 . S
H1138 C1143 0.928 . S
H1139 C1145 0.930 . S
C1140 H1137 0.931 . S
C1140 C1141 1.413 . S
C1140 C1142 1.360 . S
C1141 C1140 1.413 . S
C1141 C1145 1.429 . S
C1142 C1140 1.360 . S
C1142 C1143 1.372 . S
C1143 H1138 0.928 . S
C1143 C1142 1.372 . S
C1143 C1144 1.404 . S
C1144 C1143 1.404 . S
C1144 C1145 1.391 . S
C1145 H1139 0.930 . S
C1145 C1141 1.429 . S
C1145 C1144 1.391 . S
H1146 C1149 0.931 . S
H1147 C1152 0.928 . S
H1148 C1154 0.930 . S
C1149 H1146 0.931 . S
C1149 C1150 1.413 . S
C1149 C1151 1.360 . S
C1150 C1149 1.413 . S
C1150 C1154 1.429 . S
C1151 C1149 1.360 . S
C1151 C1152 1.372 . S
C1152 H1147 0.928 . S
C1152 C1151 1.372 . S
C1152 C1153 1.404 . S
C1153 C1152 1.404 . S
C1153 C1154 1.391 . S
C1154 H1148 0.930 . S
C1154 C1150 1.429 . S
C1154 C1153 1.391 . S
H1155 C1158 0.931 . S
H1156 C1161 0.928 . S
H1157 C1163 0.930 . S
C1158 H1155 0.931 . S
C1158 C1159 1.413 . S
C1158 C1160 1.360 . S
C1159 C1158 1.413 . S
C1159 C1163 1.429 . S
C1160 C1158 1.360 . S
C1160 C1161 1.372 . S
C1161 H1156 0.928 . S
C1161 C1160 1.372 . S
C1161 C1162 1.404 . S
C1162 C1161 1.404 . S
C1162 C1163 1.391 . S
C1163 H1157 0.930 . S
C1163 C1159 1.429 . S
C1163 C1162 1.391 . S
H1164 C1167 0.931 . S
H1165 C1170 0.928 . S
H1166 C1172 0.930 . S
C1167 H1164 0.931 . S
C1167 C1168 1.413 . S
C1167 C1169 1.360 . S
C1168 C1167 1.413 . S
C1168 C1172 1.429 . S
C1169 C1167 1.360 . S
C1169 C1170 1.372 . S
C1170 H1165 0.928 . S
C1170 C1169 1.372 . S
C1170 C1171 1.404 . S
C1171 C1170 1.404 . S
C1171 C1172 1.391 . S
C1172 H1166 0.930 . S
C1172 C1168 1.429 . S
C1172 C1171 1.391 . S
H1173 C1176 0.931 . S
H1174 C1179 0.928 . S
H1175 C1181 0.930 . S
C1176 H1173 0.931 . S
C1176 C1177 1.413 . S
C1176 C1178 1.360 . S
C1177 C1176 1.413 . S
C1177 C1181 1.429 . S
C1178 C1176 1.360 . S
C1178 C1179 1.372 . S
C1179 H1174 0.928 . S
C1179 C1178 1.372 . S
C1179 C1180 1.404 . S
C1180 C1179 1.404 . S
C1180 C1181 1.391 . S
C1181 H1175 0.930 . S
C1181 C1177 1.429 . S
C1181 C1180 1.391 . S
H1182 C1185 0.931 . S
H1183 C1188 0.928 . S
H1184 C1190 0.930 . S
C1185 H1182 0.931 . S
C1185 C1186 1.413 . S
C1185 C1187 1.360 . S
C1186 C1185 1.413 . S
C1186 C1190 1.429 . S
C1187 C1185 1.360 . S
C1187 C1188 1.372 . S
C1188 H1183 0.928 . S
C1188 C1187 1.372 . S
C1188 C1189 1.404 . S
C1189 C1188 1.404 . S
C1189 C1190 1.391 . S
C1190 H1184 0.930 . S
C1190 C1186 1.429 . S
C1190 C1189 1.391 . S
H1191 C1194 0.931 . S
H1192 C1197 0.928 . S
H1193 C1199 0.930 . S
C1194 H1191 0.931 . S
C1194 C1195 1.413 . S
C1194 C1196 1.360 . S
C1195 C1194 1.413 . S
C1195 C1199 1.429 . S
C1196 C1194 1.360 . S
C1196 C1197 1.372 . S
C1197 H1192 0.928 . S
C1197 C1196 1.372 . S
C1197 C1198 1.404 . S
C1198 C1197 1.404 . S
C1198 C1199 1.391 . S
C1199 H1193 0.930 . S
C1199 C1195 1.429 . S
C1199 C1198 1.391 . S
H1200 C1203 0.931 . S
H1201 C1206 0.928 . S
H1202 C1208 0.930 . S
C1203 H1200 0.931 . S
C1203 C1204 1.413 . S
C1203 C1205 1.360 . S
C1204 C1203 1.413 . S
C1204 C1208 1.429 . S
C1205 C1203 1.360 . S
C1205 C1206 1.372 . S
C1206 H1201 0.928 . S
C1206 C1205 1.372 . S
C1206 C1207 1.404 . S
C1207 C1206 1.404 . S
C1207 C1208 1.391 . S
C1208 H1202 0.930 . S
C1208 C1204 1.429 . S
C1208 C1207 1.391 . S
H1209 C1212 0.931 . S
H1210 C1215 0.928 . S
H1211 C1217 0.930 . S
C1212 H1209 0.931 . S
C1212 C1213 1.413 . S
C1212 C1214 1.360 . S
C1213 C1212 1.413 . S
C1213 C1217 1.429 . S
C1214 C1212 1.360 . S
C1214 C1215 1.372 . S
C1215 H1210 0.928 . S
C1215 C1214 1.372 . S
C1215 C1216 1.404 . S
C1216 C1215 1.404 . S
C1216 C1217 1.391 . S
C1217 H1211 0.930 . S
C1217 C1213 1.429 . S
C1217 C1216 1.391 . S
H1218 C1221 0.931 . S
H1219 C1224 0.928 . S
H1220 C1226 0.930 . S
C1221 H1218 0.931 . S
C1221 C1222 1.413 . S
C1221 C1223 1.360 . S
C1222 C1221 1.413 . S
C1222 C1226 1.429 . S
C1223 C1221 1.360 . S
C1223 C1224 1.372 . S
C1224 H1219 0.928 . S
C1224 C1223 1.372 . S
C1224 C1225 1.404 . S
C1225 C1224 1.404 . S
C1225 C1226 1.391 . S
C1226 H1220 0.930 . S
C1226 C1222 1.429 . S
C1226 C1225 1.391 . S
H1227 C1230 0.931 . S
H1228 C1233 0.928 . S
H1229 C1235 0.930 . S
C1230 H1227 0.931 . S
C1230 C1231 1.413 . S
C1230 C1232 1.360 . S
C1231 C1230 1.413 . S
C1231 C1235 1.429 . S
C1232 C1230 1.360 . S
C1232 C1233 1.372 . S
C1233 H1228 0.928 . S
C1233 C1232 1.372 . S
C1233 C1234 1.404 . S
C1234 C1233 1.404 . S
C1234 C1235 1.391 . S
C1235 H1229 0.930 . S
C1235 C1231 1.429 . S
C1235 C1234 1.391 . S
H1236 C1239 0.931 . S
H1237 C1242 0.928 . S
H1238 C1244 0.930 . S
C1239 H1236 0.931 . S
C1239 C1240 1.413 . S
C1239 C1241 1.360 . S
C1240 C1239 1.413 . S
C1240 C1244 1.429 . S
C1241 C1239 1.360 . S
C1241 C1242 1.372 . S
C1242 H1237 0.928 . S
C1242 C1241 1.372 . S
C1242 C1243 1.404 . S
C1243 C1242 1.404 . S
C1243 C1244 1.391 . S
C1244 H1238 0.930 . S
C1244 C1240 1.429 . S
C1244 C1243 1.391 . S
H1245 C1248 0.931 . S
H1246 C1251 0.928 . S
H1247 C1253 0.930 . S
C1248 H1245 0.931 . S
C1248 C1249 1.413 . S
C1248 C1250 1.360 . S
C1249 C1248 1.413 . S
C1249 C1253 1.429 . S
C1250 C1248 1.360 . S
C1250 C1251 1.372 . S
C1251 H1246 0.928 . S
C1251 C1250 1.372 . S
C1251 C1252 1.404 . S
C1252 C1251 1.404 . S
C1252 C1253 1.391 . S
C1253 H1247 0.930 . S
C1253 C1249 1.429 . S
C1253 C1252 1.391 . S
H1254 C1257 0.931 . S
H1255 C1260 0.928 . S
H1256 C1262 0.930 . S
C1257 H1254 0.931 . S
C1257 C1258 1.413 . S
C1257 C1259 1.360 . S
C1258 C1257 1.413 . S
C1258 C1262 1.429 . S
C1259 C1257 1.360 . S
C1259 C1260 1.372 . S
C1260 H1255 0.928 . S
C1260 C1259 1.372 . S
C1260 C1261 1.404 . S
C1261 C1260 1.404 . S
C1261 C1262 1.391 . S
C1262 H1256 0.930 . S
C1262 C1258 1.429 . S
C1262 C1261 1.391 . S
H1263 C1266 0.931 . S
H1264 C1269 0.928 . S
H1265 C1271 0.930 . S
C1266 H1263 0.931 . S
C1266 C1267 1.413 . S
C1266 C1268 1.360 . S
C1267 C1266 1.413 . S
C1267 C1271 1.429 . S
C1268 C1266 1.360 . S
C1268 C1269 1.372 . S
C1269 H1264 0.928 . S
C1269 C1268 1.372 . S
C1269 C1270 1.404 . S
C1270 C1269 1.404 . S
C1270 C1271 1.391 . S
C1271 H1265 0.930 . S
C1271 C1267 1.429 . S
C1271 C1270 1.391 . S
H1272 C1275 0.931 . S
H1273 C1278 0.928 . S
H1274 C1280 0.930 . S
C1275 H1272 0.931 . S
C1275 C1276 1.413 . S
C1275 C1277 1.360 . S
C1276 C1275 1.413 . S
C1276 C1280 1.429 . S
C1277 C1275 1.360 . S
C1277 C1278 1.372 . S
C1278 H1273 0.928 . S
C1278 C1277 1.372 . S
C1278 C1279 1.404 . S
C1279 C1278 1.404 . S
C1279 C1280 1.391 . S
C1280 H1274 0.930 . S
C1280 C1276 1.429 . S
C1280 C1279 1.391 . S
H1281 C1284 0.931 . S
H1282 C1287 0.928 . S
H1283 C1289 0.930 . S
C1284 H1281 0.931 . S
C1284 C1285 1.413 . S
C1284 C1286 1.360 . S
C1285 C1284 1.413 . S
C1285 C1289 1.429 . S
C1286 C1284 1.360 . S
C1286 C1287 1.372 . S
C1287 H1282 0.928 . S
C1287 C1286 1.372 . S
C1287 C1288 1.404 . S
C1288 C1287 1.404 . S
C1288 C1289 1.391 . S
C1289 H1283 0.930 . S
C1289 C1285 1.429 . S
C1289 C1288 1.391 . S
H1290 C1293 0.931 . S
H1291 C1296 0.928 . S
H1292 C1298 0.930 . S
C1293 H1290 0.931 . S
C1293 C1294 1.413 . S
C1293 C1295 1.360 . S
C1294 C1293 1.413 . S
C1294 C1298 1.429 . S
C1295 C1293 1.360 . S
C1295 C1296 1.372 . S
C1296 H1291 0.928 . S
C1296 C1295 1.372 . S
C1296 C1297 1.404 . S
C1297 C1296 1.404 . S
C1297 C1298 1.391 . S
C1298 H1292 0.930 . S
C1298 C1294 1.429 . S
C1298 C1297 1.391 . S
H1299 C1302 0.931 . S
H1300 C1305 0.928 . S
H1301 C1307 0.930 . S
C1302 H1299 0.931 . S
C1302 C1303 1.413 . S
C1302 C1304 1.360 . S
C1303 C1302 1.413 . S
C1303 C1307 1.429 . S
C1304 C1302 1.360 . S
C1304 C1305 1.372 . S
C1305 H1300 0.928 . S
C1305 C1304 1.372 . S
C1305 C1306 1.404 . S
C1306 C1305 1.404 . S
C1306 C1307 1.391 . S
C1307 H1301 0.930 . S
C1307 C1303 1.429 . S
C1307 C1306 1.391 . S
H1308 C1311 0.931 . S
H1309 C1314 0.928 . S
H1310 C1316 0.930 . S
C1311 H1308 0.931 . S
C1311 C1312 1.413 . S
C1311 C1313 1.360 . S
C1312 C1311 1.413 . S
C1312 C1316 1.429 . S
C1313 C1311 1.360 . S
C1313 C1314 1.372 . S
C1314 H1309 0.928 . S
C1314 C1313 1.372 . S
C1314 C1315 1.404 . S
C1315 C1314 1.404 . S
C1315 C1316 1.391 . S
C1316 H1310 0.930 . S
C1316 C1312 1.429 . S
C1316 C1315 1.391 . S
H1317 C1320 0.931 . S
H1318 C1323 0.928 . S
H1319 C1325 0.930 . S
C1320 H1317 0.931 . S
C1320 C1321 1.413 . S
C1320 C1322 1.360 . S
C1321 C1320 1.413 . S
C1321 C1325 1.429 . S
C1322 C1320 1.360 . S
C1322 C1323 1.372 . S
C1323 H1318 0.928 . S
C1323 C1322 1.372 . S
C1323 C1324 1.404 . S
C1324 C1323 1.404 . S
C1324 C1325 1.391 . S
C1325 H1319 0.930 . S
C1325 C1321 1.429 . S
C1325 C1324 1.391 . S
H1326 C1329 0.931 . S
H1327 C1332 0.928 . S
H1328 C1334 0.930 . S
C1329 H1326 0.931 . S
C1329 C1330 1.413 . S
C1329 C1331 1.360 . S
C1330 C1329 1.413 . S
C1330 C1334 1.429 . S
C1331 C1329 1.360 . S
C1331 C1332 1.372 . S
C1332 H1327 0.928 . S
C1332 C1331 1.372 . S
C1332 C1333 1.404 . S
C1333 C1332 1.404 . S
C1333 C1334 1.391 . S
C1334 H1328 0.930 . S
C1334 C1330 1.429 . S
C1334 C1333 1.391 . S
H1335 C1338 0.931 . S
H1336 C1341 0.928 . S
H1337 C1343 0.930 . S
C1338 H1335 0.931 . S
C1338 C1339 1.413 . S
C1338 C1340 1.360 . S
C1339 C1338 1.413 . S
C1339 C1343 1.429 . S
C1340 C1338 1.360 . S
C1340 C1341 1.372 . S
C1341 H1336 0.928 . S
C1341 C1340 1.372 . S
C1341 C1342 1.404 . S
C1342 C1341 1.404 . S
C1342 C1343 1.391 . S
C1343 H1337 0.930 . S
C1343 C1339 1.429 . S
C1343 C1342 1.391 . S
H1344 C1347 0.931 . S
H1345 C1350 0.928 . S
H1346 C1352 0.930 . S
C1347 H1344 0.931 . S
C1347 C1348 1.413 . S
C1347 C1349 1.360 . S
C1348 C1347 1.413 . S
C1348 C1352 1.429 . S
C1349 C1347 1.360 . S
C1349 C1350 1.372 . S
C1350 H1345 0.928 . S
C1350 C1349 1.372 . S
C1350 C1351 1.404 . S
C1351 C1350 1.404 . S
C1351 C1352 1.391 . S
C1352 H1346 0.930 . S
C1352 C1348 1.429 . S
C1352 C1351 1.391 . S
H1353 C1356 0.931 . S
H1354 C1359 0.928 . S
H1355 C1361 0.930 . S
C1356 H1353 0.931 . S
C1356 C1357 1.413 . S
C1356 C1358 1.360 . S
C1357 C1356 1.413 . S
C1357 C1361 1.429 . S
C1358 C1356 1.360 . S
C1358 C1359 1.372 . S
C1359 H1354 0.928 . S
C1359 C1358 1.372 . S
C1359 C1360 1.404 . S
C1360 C1359 1.404 . S
C1360 C1361 1.391 . S
C1361 H1355 0.930 . S
C1361 C1357 1.429 . S
C1361 C1360 1.391 . S
H1362 C1365 0.931 . S
H1363 C1368 0.928 . S
H1364 C1370 0.930 . S
C1365 H1362 0.931 . S
C1365 C1366 1.413 . S
C1365 C1367 1.360 . S
C1366 C1365 1.413 . S
C1366 C1370 1.429 . S
C1367 C1365 1.360 . S
C1367 C1368 1.372 . S
C1368 H1363 0.928 . S
C1368 C1367 1.372 . S
C1368 C1369 1.404 . S
C1369 C1368 1.404 . S
C1369 C1370 1.391 . S
C1370 H1364 0.930 . S
C1370 C1366 1.429 . S
C1370 C1369 1.391 . S
H1371 C1374 0.931 . S
H1372 C1377 0.928 . S
H1373 C1379 0.930 . S
C1374 H1371 0.931 . S
C1374 C1375 1.413 . S
C1374 C1376 1.360 . S
C1375 C1374 1.413 . S
C1375 C1379 1.429 . S
C1376 C1374 1.360 . S
C1376 C1377 1.372 . S
C1377 H1372 0.928 . S
C1377 C1376 1.372 . S
C1377 C1378 1.404 . S
C1378 C1377 1.404 . S
C1378 C1379 1.391 . S
C1379 H1373 0.930 . S
C1379 C1375 1.429 . S
C1379 C1378 1.391 . S
H1380 C1383 0.931 . S
H1381 C1386 0.928 . S
H1382 C1388 0.930 . S
C1383 H1380 0.931 . S
C1383 C1384 1.413 . S
C1383 C1385 1.360 . S
C1384 C1383 1.413 . S
C1384 C1388 1.429 . S
C1385 C1383 1.360 . S
C1385 C1386 1.372 . S
C1386 H1381 0.928 . S
C1386 C1385 1.372 . S
C1386 C1387 1.404 . S
C1387 C1386 1.404 . S
C1387 C1388 1.391 . S
C1388 H1382 0.930 . S
C1388 C1384 1.429 . S
C1388 C1387 1.391 . S
H1389 C1392 0.931 . S
H1390 C1395 0.928 . S
H1391 C1397 0.930 . S
C1392 H1389 0.931 . S
C1392 C1393 1.413 . S
C1392 C1394 1.360 . S
C1393 C1392 1.413 . S
C1393 C1397 1.429 . S
C1394 C1392 1.360 . S
C1394 C1395 1.372 . S
C1395 H1390 0.928 . S
C1395 C1394 1.372 . S
C1395 C1396 1.404 . S
C1396 C1395 1.404 . S
C1396 C1397 1.391 . S
C1397 H1391 0.930 . S
C1397 C1393 1.429 . S
C1397 C1396 1.391 . S
H1398 C1401 0.931 . S
H1399 C1404 0.928 . S
H1400 C1406 0.930 . S
C1401 H1398 0.931 . S
C1401 C1402 1.413 . S
C1401 C1403 1.360 . S
C1402 C1401 1.413 . S
C1402 C1406 1.429 . S
C1403 C1401 1.360 . S
C1403 C1404 1.372 . S
C1404 H1399 0.928 . S
C1404 C1403 1.372 . S
C1404 C1405 1.404 . S
C1405 C1404 1.404 . S
C1405 C1406 1.391 . S
C1406 H1400 0.930 . S
C1406 C1402 1.429 . S
C1406 C1405 1.391 . S
H1407 C1410 0.931 . S
H1408 C1413 0.928 . S
H1409 C1415 0.930 . S
C1410 H1407 0.931 . S
C1410 C1411 1.413 . S
C1410 C1412 1.360 . S
C1411 C1410 1.413 . S
C1411 C1415 1.429 . S
C1412 C1410 1.360 . S
C1412 C1413 1.372 . S
C1413 H1408 0.928 . S
C1413 C1412 1.372 . S
C1413 C1414 1.404 . S
C1414 C1413 1.404 . S
C1414 C1415 1.391 . S
C1415 H1409 0.930 . S
C1415 C1411 1.429 . S
C1415 C1414 1.391 . S
H1416 C1419 0.931 . S
H1417 C1422 0.928 . S
H1418 C1424 0.930 . S
C1419 H1416 0.931 . S
C1419 C1420 1.413 . S
C1419 C1421 1.360 . S
C1420 C1419 1.413 . S
C1420 C1424 1.429 . S
C1421 C1419 1.360 . S
C1421 C1422 1.372 . S
C1422 H1417 0.928 . S
C1422 C1421 1.372 . S
C1422 C1423 1.404 . S
C1423 C1422 1.404 . S
C1423 C1424 1.391 . S
C1424 H1418 0.930 . S
C1424 C1420 1.429 . S
C1424 C1423 1.391 . S
H1425 C1428 0.931 . S
H1426 C1431 0.928 . S
H1427 C1433 0.930 . S
C1428 H1425 0.931 . S
C1428 C1429 1.413 . S
C1428 C1430 1.360 . S
C1429 C1428 1.413 . S
C1429 C1433 1.429 . S
C1430 C1428 1.360 . S
C1430 C1431 1.372 . S
C1431 H1426 0.928 . S
C1431 C1430 1.372 . S
C1431 C1432 1.404 . S
C1432 C1431 1.404 . S
C1432 C1433 1.391 . S
C1433 H1427 0.930 . S
C1433 C1429 1.429 . S
C1433 C1432 1.391 . S
H1434 C1437 0.931 . S
H1435 C1440 0.928 . S
H1436 C1442 0.930 . S
C1437 H1434 0.931 . S
C1437 C1438 1.413 . S
C1437 C1439 1.360 . S
C1438 C1437 1.413 . S
C1438 C1442 1.429 . S
C1439 C1437 1.360 . S
C1439 C1440 1.372 . S
C1440 H1435 0.928 . S
C1440 C1439 1.372 . S
C1440 C1441 1.404 . S
C1441 C1440 1.404 . S
C1441 C1442 1.391 . S
C1442 H1436 0.930 . S
C1442 C1438 1.429 . S
C1442 C1441 1.391 . S
H1443 C1446 0.931 . S
H1444 C1449 0.928 . S
H1445 C1451 0.930 . S
C1446 H1443 0.931 . S
C1446 C1447 1.413 . S
C1446 C1448 1.360 . S
C1447 C1446 1.413 . S
C1447 C1451 1.429 . S
C1448 C1446 1.360 . S
C1448 C1449 1.372 . S
C1449 H1444 0.928 . S
C1449 C1448 1.372 . S
C1449 C1450 1.404 . S
C1450 C1449 1.404 . S
C1450 C1451 1.391 . S
C1451 H1445 0.930 . S
C1451 C1447 1.429 . S
C1451 C1450 1.391 . S
H1452 C1455 0.931 . S
H1453 C1458 0.928 . S
H1454 C1460 0.930 . S
C1455 H1452 0.931 . S
C1455 C1456 1.413 . S
C1455 C1457 1.360 . S
C1456 C1455 1.413 . S
C1456 C1460 1.429 . S
C1457 C1455 1.360 . S
C1457 C1458 1.372 . S
C1458 H1453 0.928 . S
C1458 C1457 1.372 . S
C1458 C1459 1.404 . S
C1459 C1458 1.404 . S
C1459 C1460 1.391 . S
C1460 H1454 0.930 . S
C1460 C1456 1.429 . S
C1460 C1459 1.391 . S
H1461 C1464 0.931 . S
H1462 C1467 0.928 . S
H1463 C1469 0.930 . S
C1464 H1461 0.931 . S
C1464 C1465 1.413 . S
C1464 C1466 1.360 . S
C1465 C1464 1.413 . S
C1465 C1469 1.429 . S
C1466 C1464 1.360 . S
C1466 C1467 1.372 . S
C1467 H1462 0.928 . S
C1467 C1466 1.372 . S
C1467 C1468 1.404 . S
C1468 C1467 1.404 . S
C1468 C1469 1.391 . S
C1469 H1463 0.930 . S
C1469 C1465 1.429 . S
C1469 C1468 1.391 . S
H1470 C1473 0.931 . S
H1471 C1476 0.928 . S
H1472 C1478 0.930 . S
C1473 H1470 0.931 . S
C1473 C1474 1.413 . S
C1473 C1475 1.360 . S
C1474 C1473 1.413 . S
C1474 C1478 1.429 . S
C1475 C1473 1.360 . S
C1475 C1476 1.372 . S
C1476 H1471 0.928 . S
C1476 C1475 1.372 . S
C1476 C1477 1.404 . S
C1477 C1476 1.404 . S
C1477 C1478 1.391 . S
C1478 H1472 0.930 . S
C1478 C1474 1.429 . S
C1478 C1477 1.391 . S
H1479 C1482 0.931 . S
H1480 C1485 0.928 . S
H1481 C1487 0.930 . S
C1482 H1479 0.931 . S
C1482 C1483 1.413 . S
C1482 C1484 1.360 . S
C1483 C1482 1.413 . S
C1483 C1487 1.429 . S
C1484 C1482 1.360 . S
C1484 C1485 1.372 . S
C1485 H1480 0.928 . S
C1485 C1484 1.372 . S
C1485 C1486 1.404 . S
C1486 C1485 1.404 . S
C1486 C1487 1.391 . S
C1487 H1481 0.930 . S
C1487 C1483 1.429 . S
C1487 C1486 1.391 . S
H1488 C1491 0.931 . S
H1489 C1494 0.928 . S
H1490 C1496 0.930 . S
C1491 H1488 0.931 . S
C1491 C1492 1.413 . S
C1491 C1493 1.360 . S
C1492 C1491 1.413 . S
C1492 C1496 1.429 . S
C1493 C1491 1.360 . S
C1493 C1494 1.372 . S
C1494 H1489 0.928 . S
C1494 C1493 1.372 . S
C1494 C1495 1.404 . S
C1495 C1494 1.404 . S
C1495 C1496 1.391 . S
C1496 H1490 0.930 . S
C1496 C1492 1.429 . S
C1496 C1495 1.391 . S
H1497 C1500 0.931 . S
H1498 C1503 0.928 . S
H1499 C1505 0.930 . S
C1500 H1497 0.931 . S
C1500 C1501 1.413 . S
C1500 C1502 1.360 . S
C1501 C1500 1.413 . S
C1501 C1505 1.429 . S
C1502 C1500 1.360 . S
C1502 C1503 1.372 . S
C1503 H1498 0.928 . S
C1503 C1502 1.372 . S
C1503 C1504 1.404 . S
C1504 C1503 1.404 . S
C1504 C1505 1.391 . S
C1505 H1499 0.930 . S
C1505 C1501 1.429 . S
C1505 C1504 1.391 . S
H1506 C1509 0.931 . S
H1507 C1512 0.928 . S
H1508 C1514 0.930 . S
C1509 H1506 0.931 . S
C1509 C1510 1.413 . S
C1509 C1511 1.360 . S
C1510 C1509 1.413 . S
C1510 C1514 1.429 . S
C1511 C1509 1.360 . S
C1511 C1512 1.372 . S
C1512 H1507 0.928 . S
C1512 C1511 1.372 . S
C1512 C1513 1.404 . S
C1513 C1512 1.404 . S
C1513 C1514 1.391 . S
C1514 H1508 0.930 . S
C1514 C1510 1.429 . S
C1514 C1513 1.391 . S
H1515 C1518 0.931 . S
H1516 C1521 0.928 . S
H1517 C1523 0.930 . S
C1518 H1515 0.931 . S
C1518 C1519 1.413 . S
C1518 C1520 1.360 . S
C1519 C1518 1.413 . S
C1519 C1523 1.429 . S
C1520 C1518 1.360 . S
C1520 C1521 1.372 . S
C1521 H1516 0.928 . S
C1521 C1520 1.372 . S
C1521 C1522 1.404 . S
C1522 C1521 1.404 . S
C1522 C1523 1.391 . S
C1523 H1517 0.930 . S
C1523 C1519 1.429 . S
C1523 C1522 1.391 . S
H1524 C1527 0.931 . S
H1525 C1530 0.928 . S
H1526 C1532 0.930 . S
C1527 H1524 0.931 . S
C1527 C1528 1.413 . S
C1527 C1529 1.360 . S
C1528 C1527 1.413 . S
C1528 C1532 1.429 . S
C1529 C1527 1.360 . S
C1529 C1530 1.372 . S
C1530 H1525 0.928 . S
C1530 C1529 1.372 . S
C1530 C1531 1.404 . S
C1531 C1530 1.404 . S
C1531 C1532 1.391 . S
C1532 H1526 0.930 . S
C1532 C1528 1.429 . S
C1532 C1531 1.391 . S
H1533 C1536 0.931 . S
H1534 C1539 0.928 . S
H1535 C1541 0.930 . S
C1536 H1533 0.931 . S
C1536 C1537 1.413 . S
C1536 C1538 1.360 . S
C1537 C1536 1.413 . S
C1537 C1541 1.429 . S
C1538 C1536 1.360 . S
C1538 C1539 1.372 . S
C1539 H1534 0.928 . S
C1539 C1538 1.372 . S
C1539 C1540 1.404 . S
C1540 C1539 1.404 . S
C1540 C1541 1.391 . S
C1541 H1535 0.930 . S
C1541 C1537 1.429 . S
C1541 C1540 1.391 . S
H1542 C1545 0.931 . S
H1543 C1548 0.928 . S
H1544 C1550 0.930 . S
C1545 H1542 0.931 . S
C1545 C1546 1.413 . S
C1545 C1547 1.360 . S
C1546 C1545 1.413 . S
C1546 C1550 1.429 . S
C1547 C1545 1.360 . S
C1547 C1548 1.372 . S
C1548 H1543 0.928 . S
C1548 C1547 1.372 . S
C1548 C1549 1.404 . S
C1549 C1548 1.404 . S
C1549 C1550 1.391 . S
C1550 H1544 0.930 . S
C1550 C1546 1.429 . S
C1550 C1549 1.391 . S
H1551 C1554 0.931 . S
H1552 C1557 0.928 . S
H1553 C1559 0.930 . S
C1554 H1551 0.931 . S
C1554 C1555 1.413 . S
C1554 C1556 1.360 . S
C1555 C1554 1.413 . S
C1555 C1559 1.429 . S
C1556 C1554 1.360 . S
C1556 C1557 1.372 . S
C1557 H1552 0.928 . S
C1557 C1556 1.372 . S
C1557 C1558 1.404 . S
C1558 C1557 1.404 . S
C1558 C1559 1.391 . S
C1559 H1553 0.930 . S
C1559 C1555 1.429 . S
C1559 C1558 1.391 . S
H1560 C1563 0.931 . S
H1561 C1566 0.928 . S
H1562 C1568 0.930 . S
C1563 H1560 0.931 . S
C1563 C1564 1.413 . S
C1563 C1565 1.360 . S
C1564 C1563 1.413 . S
C1564 C1568 1.429 . S
C1565 C1563 1.360 . S
C1565 C1566 1.372 . S
C1566 H1561 0.928 . S
C1566 C1565 1.372 . S
C1566 C1567 1.404 . S
C1567 C1566 1.404 . S
C1567 C1568 1.391 . S
C1568 H1562 0.930 . S
C1568 C1564 1.429 . S
C1568 C1567 1.391 . S
H1569 C1572 0.931 . S
H1570 C1575 0.928 . S
H1571 C1577 0.930 . S
C1572 H1569 0.931 . S
C1572 C1573 1.413 . S
C1572 C1574 1.360 . S
C1573 C1572 1.413 . S
C1573 C1577 1.429 . S
C1574 C1572 1.360 . S
C1574 C1575 1.372 . S
C1575 H1570 0.928 . S
C1575 C1574 1.372 . S
C1575 C1576 1.404 . S
C1576 C1575 1.404 . S
C1576 C1577 1.391 . S
C1577 H1571 0.930 . S
C1577 C1573 1.429 . S
C1577 C1576 1.391 . S
H1578 C1581 0.931 . S
H1579 C1584 0.928 . S
H1580 C1586 0.930 . S
C1581 H1578 0.931 . S
C1581 C1582 1.413 . S
C1581 C1583 1.360 . S
C1582 C1581 1.413 . S
C1582 C1586 1.429 . S
C1583 C1581 1.360 . S
C1583 C1584 1.372 . S
C1584 H1579 0.928 . S
C1584 C1583 1.372 . S
C1584 C1585 1.404 . S
C1585 C1584 1.404 . S
C1585 C1586 1.391 . S
C1586 H1580 0.930 . S
C1586 C1582 1.429 . S
C1586 C1585 1.391 . S
H1587 C1590 0.931 . S
H1588 C1593 0.928 . S
H1589 C1595 0.930 . S
C1590 H1587 0.931 . S
C1590 C1591 1.413 . S
C1590 C1592 1.360 . S
C1591 C1590 1.413 . S
C1591 C1595 1.429 . S
C1592 C1590 1.360 . S
C1592 C1593 1.372 . S
C1593 H1588 0.928 . S
C1593 C1592 1.372 . S
C1593 C1594 1.404 . S
C1594 C1593 1.404 . S
C1594 C1595 1.391 . S
C1595 H1589 0.930 . S
C1595 C1591 1.429 . S
C1595 C1594 1.391 . S
H1596 C1599 0.931 . S
H1597 C1602 0.928 . S
H1598 C1604 0.930 . S
C1599 H1596 0.931 . S
C1599 C1600 1.413 . S
C1599 C1601 1.360 . S
C1600 C1599 1.413 . S
C1600 C1604 1.429 . S
C1601 C1599 1.360 . S
C1601 C1602 1.372 . S
C1602 H1597 0.928 . S
C1602 C1601 1.372 . S
C1602 C1603 1.404 . S
C1603 C1602 1.404 . S
C1603 C1604 1.391 . S
C1604 H1598 0.930 . S
C1604 C1600 1.429 . S
C1604 C1603 1.391 . S
H1605 C1608 0.931 . S
H1606 C1611 0.928 . S
H1607 C1613 0.930 . S
C1608 H1605 0.931 . S
C1608 C1609 1.413 . S
C1608 C1610 1.360 . S
C1609 C1608 1.413 . S
C1609 C1613 1.429 . S
C1610 C1608 1.360 . S
C1610 C1611 1.372 . S
C1611 H1606 0.928 . S
C1611 C1610 1.372 . S
C1611 C1612 1.404 . S
C1612 C1611 1.404 . S
C1612 C1613 1.391 . S
C1613 H1607 0.930 . S
C1613 C1609 1.429 . S
C1613 C1612 1.391 . S
H1614 C1617 0.931 . S
H1615 C1620 0.928 . S
H1616 C1622 0.930 . S
C1617 H1614 0.931 . S
C1617 C1618 1.413 . S
C1617 C1619 1.360 . S
C1618 C1617 1.413 . S
C1618 C1622 1.429 . S
C1619 C1617 1.360 . S
C1619 C1620 1.372 . S
C1620 H1615 0.928 . S
C1620 C1619 1.372 . S
C1620 C1621 1.404 . S
C1621 C1620 1.404 . S
C1621 C1622 1.391 . S
C1622 H1616 0.930 . S
C1622 C1618 1.429 . S
C1622 C1621 1.391 . S
H1623 C1626 0.931 . S
H1624 C1629 0.928 . S
H1625 C1631 0.930 . S
C1626 H1623 0.931 . S
C1626 C1627 1.413 . S
C1626 C1628 1.360 . S
C1627 C1626 1.413 . S
C1627 C1631 1.429 . S
C1628 C1626 1.360 . S
C1628 C1629 1.372 . S
C1629 H1624 0.928 . S
C1629 C1628 1.372 . S
C1629 C1630 1.404 . S
C1630 C1629 1.404 . S
C1630 C1631 1.391 . S
C1631 H1625 0.930 . S
C1631 C1627 1.429 . S
C1631 C1630 1.391 . S
H1632 C1635 0.931 . S
H1633 C1638 0.928 . S
H1634 C1640 0.930 . S
C1635 H1632 0.931 . S
C1635 C1636 1.413 . S
C1635 C1637 1.360 . S
C1636 C1635 1.413 . S
C1636 C1640 1.429 . S
C1637 C1635 1.360 . S
C1637 C1638 1.372 . S
C1638 H1633 0.928 . S
C1638 C1637 1.372 . S
C1638 C1639 1.404 . S
C1639 C1638 1.404 . S
C1639 C1640 1.391 . S
C1640 H1634 0.930 . S
C1640 C1636 1.429 . S
C1640 C1639 1.391 . S
H1641 C1644 0.931 . S
H1642 C1647 0.928 . S
H1643 C1649 0.930 . S
C1644 H1641 0.931 . S
C1644 C1645 1.413 . S
C1644 C1646 1.360 . S
C1645 C1644 1.413 . S
C1645 C1649 1.429 . S
C1646 C1644 1.360 . S
C1646 C1647 1.372 . S
C1647 H1642 0.928 . S
C1647 C1646 1.372 . S
C1647 C1648 1.404 . S
C1648 C1647 1.404 . S
C1648 C1649 1.391 . S
C1649 H1643 0.930 . S
C1649 C1645 1.429 . S
C1649 C1648 1.391 . S
H1650 C1653 0.931 . S
H1651 C1656 0.928 . S
H1652 C1658 0.930 . S
C1653 H1650 0.931 . S
C1653 C1654 1.413 . S
C1653 C1655 1.360 . S
C1654 C1653 1.413 . S
C1654 C1658 1.429 . S
C1655 C1653 1.360 . S
C1655 C1656 1.372 . S
C1656 H1651 0.928 . S
C1656 C1655 1.372 . S
C1656 C1657 1.404 . S
C1657 C1656 1.404 . S
C1657 C1658 1.391 . S
C1658 H1652 0.930 . S
C1658 C1654 1.429 . S
C1658 C1657 1.391 . S
H1659 C1662 0.931 . S
H1660 C1665 0.928 . S
H1661 C1667 0.930 . S
C1662 H1659 0.931 . S
C1662 C1663 1.413 . S
C1662 C1664 1.360 . S
C1663 C1662 1.413 . S
C1663 C1667 1.429 . S
C1664 C1662 1.360 . S
C1664 C1665 1.372 . S
C1665 H1660 0.928 . S
C1665 C1664 1.372 . S
C1665 C1666 1.404 . S
C1666 C1665 1.404 . S
C1666 C1667 1.391 . S
C1667 H1661 0.930 . S
C1667 C1663 1.429 . S
C1667 C1666 1.391 . S
H1668 C1671 0.931 . S
H1669 C1674 0.928 . S
H1670 C1676 0.930 . S
C1671 H1668 0.931 . S
C1671 C1672 1.413 . S
C1671 C1673 1.360 . S
C1672 C1671 1.413 . S
C1672 C1676 1.429 . S
C1673 C1671 1.360 . S
C1673 C1674 1.372 . S
C1674 H1669 0.928 . S
C1674 C1673 1.372 . S
C1674 C1675 1.404 . S
C1675 C1674 1.404 . S
C1675 C1676 1.391 . S
C1676 H1670 0.930 . S
C1676 C1672 1.429 . S
C1676 C1675 1.391 . S
H1677 C1680 0.931 . S
H1678 C1683 0.928 . S
H1679 C1685 0.930 . S
C1680 H1677 0.931 . S
C1680 C1681 1.413 . S
C1680 C1682 1.360 . S
C1681 C1680 1.413 . S
C1681 C1685 1.429 . S
C1682 C1680 1.360 . S
C1682 C1683 1.372 . S
C1683 H1678 0.928 . S
C1683 C1682 1.372 . S
C1683 C1684 1.404 . S
C1684 C1683 1.404 . S
C1684 C1685 1.391 . S
C1685 H1679 0.930 . S
C1685 C1681 1.429 . S
C1685 C1684 1.391 . S
H1686 C1689 0.931 . S
H1687 C1692 0.928 . S
H1688 C1694 0.930 . S
C1689 H1686 0.931 . S
C1689 C1690 1.413 . S
C1689 C1691 1.360 . S
C1690 C1689 1.413 . S
C1690 C1694 1.429 . S
C1691 C1689 1.360 . S
C1691 C1692 1.372 . S
C1692 H1687 0.928 . S
C1692 C1691 1.372 . S
C1692 C1693 1.404 . S
C1693 C1692 1.404 . S
C1693 C1694 1.391 . S
C1694 H1688 0.930 . S
C1694 C1690 1.429 . S
C1694 C1693 1.391 . S
H1695 C1698 0.931 . S
H1696 C1701 0.928 . S
H1697 C1703 0.930 . S
C1698 H1695 0.931 . S
C1698 C1699 1.413 . S
C1698 C1700 1.360 . S
C1699 C1698 1.413 . S
C1699 C1703 1.429 . S
C1700 C1698 1.360 . S
C1700 C1701 1.372 . S
C1701 H1696 0.928 . S
C1701 C1700 1.372 . S
C1701 C1702 1.404 . S
C1702 C1701 1.404 . S
C1702 C1703 1.391 . S
C1703 H1697 0.930 . S
C1703 C1699 1.429 . S
C1703 C1702 1.391 . S
H1704 C1707 0.931 . S
H1705 C1710 0.928 . S
H1706 C1712 0.930 . S
C1707 H1704 0.931 . S
C1707 C1708 1.413 . S
C1707 C1709 1.360 . S
C1708 C1707 1.413 . S
C1708 C1712 1.429 . S
C1709 C1707 1.360 . S
C1709 C1710 1.372 . S
C1710 H1705 0.928 . S
C1710 C1709 1.372 . S
C1710 C1711 1.404 . S
C1711 C1710 1.404 . S
C1711 C1712 1.391 . S
C1712 H1706 0.930 . S
C1712 C1708 1.429 . S
C1712 C1711 1.391 . S
H1713 C1716 0.931 . S
H1714 C1719 0.928 . S
H1715 C1721 0.930 . S
C1716 H1713 0.931 . S
C1716 C1717 1.413 . S
C1716 C1718 1.360 . S
C1717 C1716 1.413 . S
C1717 C1721 1.429 . S
C1718 C1716 1.360 . S
C1718 C1719 1.372 . S
C1719 H1714 0.928 . S
C1719 C1718 1.372 . S
C1719 C1720 1.404 . S
C1720 C1719 1.404 . S
C1720 C1721 1.391 . S
C1721 H1715 0.930 . S
C1721 C1717 1.429 . S
C1721 C1720 1.391 . S
H1722 C1725 0.931 . S
H1723 C1728 0.928 . S
H1724 C1730 0.930 . S
C1725 H1722 0.931 . S
C1725 C1726 1.413 . S
C1725 C1727 1.360 . S
C1726 C1725 1.413 . S
C1726 C1730 1.429 . S
C1727 C1725 1.360 . S
C1727 C1728 1.372 . S
C1728 H1723 0.928 . S
C1728 C1727 1.372 . S
C1728 C1729 1.404 . S
C1729 C1728 1.404 . S
C1729 C1730 1.391 . S
C1730 H1724 0.930 . S
C1730 C1726 1.429 . S
C1730 C1729 1.391 . S
H1731 C1734 0.931 . S
H1732 C1737 0.928 . S
H1733 C1739 0.930 . S
C1734 H1731 0.931 . S
C1734 C1735 1.413 . S
C1734 C1736 1.360 . S
C1735 C1734 1.413 . S
C1735 C1739 1.429 . S
C1736 C1734 1.360 . S
C1736 C1737 1.372 . S
C1737 H1732 0.928 . S
C1737 C1736 1.372 . S
C1737 C1738 1.404 . S
C1738 C1737 1.404 . S
C1738 C1739 1.391 . S
C1739 H1733 0.930 . S
C1739 C1735 1.429 . S
C1739 C1738 1.391 . S
H1740 C1743 0.931 . S
H1741 C1746 0.928 . S
H1742 C1748 0.930 . S
C1743 H1740 0.931 . S
C1743 C1744 1.413 . S
C1743 C1745 1.360 . S
C1744 C1743 1.413 . S
C1744 C1748 1.429 . S
C1745 C1743 1.360 . S
C1745 C1746 1.372 . S
C1746 H1741 0.928 . S
C1746 C1745 1.372 . S
C1746 C1747 1.404 . S
C1747 C1746 1.404 . S
C1747 C1748 1.391 . S
C1748 H1742 0.930 . S
C1748 C1744 1.429 . S
C1748 C1747 1.391 . S
H1749 C1752 0.931 . S
H1750 C1755 0.928 . S
H1751 C1757 0.930 . S
C1752 H1749 0.931 . S
C1752 C1753 1.413 . S
C1752 C1754 1.360 . S
C1753 C1752 1.413 . S
C1753 C1757 1.429 . S
C1754 C1752 1.360 . S
C1754 C1755 1.372 . S
C1755 H1750 0.928 . S
C1755 C1754 1.372 . S
C1755 C1756 1.404 . S
C1756 C1755 1.404 . S
C1756 C1757 1.391 . S
C1757 H1751 0.930 . S
C1757 C1753 1.429 . S
C1757 C1756 1.391 . S
H1758 C1761 0.931 . S
H1759 C1764 0.928 . S
H1760 C1766 0.930 . S
C1761 H1758 0.931 . S
C1761 C1762 1.413 . S
C1761 C1763 1.360 . S
C1762 C1761 1.413 . S
C1762 C1766 1.429 . S
C1763 C1761 1.360 . S
C1763 C1764 1.372 . S
C1764 H1759 0.928 . S
C1764 C1763 1.372 . S
C1764 C1765 1.404 . S
C1765 C1764 1.404 . S
C1765 C1766 1.391 . S
C1766 H1760 0.930 . S
C1766 C1762 1.429 . S
C1766 C1765 1.391 . S
H1767 C1770 0.931 . S
H1768 C1773 0.928 . S
H1769 C1775 0.930 . S
C1770 H1767 0.931 . S
C1770 C1771 1.413 . S
C1770 C1772 1.360 . S
C1771 C1770 1.413 . S
C1771 C1775 1.429 . S
C1772 C1770 1.360 . S
C1772 C1773 1.372 . S
C1773 H1768 0.928 . S
C1773 C1772 1.372 . S
C1773 C1774 1.404 . S
C1774 C1773 1.404 . S
C1774 C1775 1.391 . S
C1775 H1769 0.930 . S
C1775 C1771 1.429 . S
C1775 C1774 1.391 . S
H1776 C1779 0.931 . S
H1777 C1782 0.928 . S
H1778 C1784 0.930 . S
C1779 H1776 0.931 . S
C1779 C1780 1.413 . S
C1779 C1781 1.360 . S
C1780 C1779 1.413 . S
C1780 C1784 1.429 . S
C1781 C1779 1.360 . S
C1781 C1782 1.372 . S
C1782 H1777 0.928 . S
C1782 C1781 1.372 . S
C1782 C1783 1.404 . S
C1783 C1782 1.404 . S
C1783 C1784 1.391 . S
C1784 H1778 0.930 . S
C1784 C1780 1.429 . S
C1784 C1783 1.391 . S
H1785 C1788 0.931 . S
H1786 C1791 0.928 . S
H1787 C1793 0.930 . S
C1788 H1785 0.931 . S
C1788 C1789 1.413 . S
C1788 C1790 1.360 . S
C1789 C1788 1.413 . S
C1789 C1793 1.429 . S
C1790 C1788 1.360 . S
C1790 C1791 1.372 . S
C1791 H1786 0.928 . S
C1791 C1790 1.372 . S
C1791 C1792 1.404 . S
C1792 C1791 1.404 . S
C1792 C1793 1.391 . S
C1793 H1787 0.930 . S
C1793 C1789 1.429 . S
C1793 C1792 1.391 . S
H1794 C1797 0.931 . S
H1795 C1800 0.928 . S
H1796 C1802 0.930 . S
C1797 H1794 0.931 . S
C1797 C1798 1.413 . S
C1797 C1799 1.360 . S
C1798 C1797 1.413 . S
C1798 C1802 1.429 . S
C1799 C1797 1.360 . S
C1799 C1800 1.372 . S
C1800 H1795 0.928 . S
C1800 C1799 1.372 . S
C1800 C1801 1.404 . S
C1801 C1800 1.404 . S
C1801 C1802 1.391 . S
C1802 H1796 0.930 . S
C1802 C1798 1.429 . S
C1802 C1801 1.391 . S
H1803 C1806 0.931 . S
H1804 C1809 0.928 . S
H1805 C1811 0.930 . S
C1806 H1803 0.931 . S
C1806 C1807 1.413 . S
C1806 C1808 1.360 . S
C1807 C1806 1.413 . S
C1807 C1811 1.429 . S
C1808 C1806 1.360 . S
C1808 C1809 1.372 . S
C1809 H1804 0.928 . S
C1809 C1808 1.372 . S
C1809 C1810 1.404 . S
C1810 C1809 1.404 . S
C1810 C1811 1.391 . S
C1811 H1805 0.930 . S
C1811 C1807 1.429 . S
C1811 C1810 1.391 . S
H1812 C1815 0.931 . S
H1813 C1818 0.928 . S
H1814 C1820 0.930 . S
C1815 H1812 0.931 . S
C1815 C1816 1.413 . S
C1815 C1817 1.360 . S
C1816 C1815 1.413 . S
C1816 C1820 1.429 . S
C1817 C1815 1.360 . S
C1817 C1818 1.372 . S
C1818 H1813 0.928 . S
C1818 C1817 1.372 . S
C1818 C1819 1.404 . S
C1819 C1818 1.404 . S
C1819 C1820 1.391 . S
C1820 H1814 0.930 . S
C1820 C1816 1.429 . S
C1820 C1819 1.391 . S
H1821 C1824 0.931 . S
H1822 C1827 0.928 . S
H1823 C1829 0.930 . S
C1824 H1821 0.931 . S
C1824 C1825 1.413 . S
C1824 C1826 1.360 . S
C1825 C1824 1.413 . S
C1825 C1829 1.429 . S
C1826 C1824 1.360 . S
C1826 C1827 1.372 . S
C1827 H1822 0.928 . S
C1827 C1826 1.372 . S
C1827 C1828 1.404 . S
C1828 C1827 1.404 . S
C1828 C1829 1.391 . S
C1829 H1823 0.930 . S
C1829 C1825 1.429 . S
C1829 C1828 1.391 . S
H1830 C1833 0.931 . S
H1831 C1836 0.928 . S
H1832 C1838 0.930 . S
C1833 H1830 0.931 . S
C1833 C1834 1.413 . S
C1833 C1835 1.360 . S
C1834 C1833 1.413 . S
C1834 C1838 1.429 . S
C1835 C1833 1.360 . S
C1835 C1836 1.372 . S
C1836 H1831 0.928 . S
C1836 C1835 1.372 . S
C1836 C1837 1.404 . S
C1837 C1836 1.404 . S
C1837 C1838 1.391 . S
C1838 H1832 0.930 . S
C1838 C1834 1.429 . S
C1838 C1837 1.391 . S
H1839 C1842 0.931 . S
H1840 C1845 0.928 . S
H1841 C1847 0.930 . S
C1842 H1839 0.931 . S
C1842 C1843 1.413 . S
C1842 C1844 1.360 . S
C1843 C1842 1.413 . S
C1843 C1847 1.429 . S
C1844 C1842 1.360 . S
C1844 C1845 1.372 . S
C1845 H1840 0.928 . S
C1845 C1844 1.372 . S
C1845 C1846 1.404 . S
C1846 C1845 1.404 . S
C1846 C1847 1.391 . S
C1847 H1841 0.930 . S
C1847 C1843 1.429 . S
C1847 C1846 1.391 . S
H1848 C1851 0.931 . S
H1849 C1854 0.928 . S
H1850 C1856 0.930 . S
C1851 H1848 0.931 . S
C1851 C1852 1.413 . S
C1851 C1853 1.360 . S
C1852 C1851 1.413 . S
C1852 C1856 1.429 . S
C1853 C1851 1.360 . S
C1853 C1854 1.372 . S
C1854 H1849 0.928 . S
C1854 C1853 1.372 . S
C1854 C1855 1.404 . S
C1855 C1854 1.404 . S
C1855 C1856 1.391 . S
C1856 H1850 0.930 . S
C1856 C1852 1.429 . S
C1856 C1855 1.391 . S
H1857 C1860 0.931 . S
H1858 C1863 0.928 . S
H1859 C1865 0.930 . S
C1860 H1857 0.931 . S
C1860 C1861 1.413 . S
C1860 C1862 1.360 . S
C1861 C1860 1.413 . S
C1861 C1865 1.429 . S
C1862 C1860 1.360 . S
C1862 C1863 1.372 . S
C1863 H1858 0.928 . S
C1863 C1862 1.372 . S
C1863 C1864 1.404 . S
C1864 C1863 1.404 . S
C1864 C1865 1.391 . S
C1865 H1859 0.930 . S
C1865 C1861 1.429 . S
C1865 C1864 1.391 . S
H1866 C1869 0.931 . S
H1867 C1872 0.928 . S
H1868 C1874 0.930 . S
C1869 H1866 0.931 . S
C1869 C1870 1.413 . S
C1869 C1871 1.360 . S
C1870 C1869 1.413 . S
C1870 C1874 1.429 . S
C1871 C1869 1.360 . S
C1871 C1872 1.372 . S
C1872 H1867 0.928 . S
C1872 C1871 1.372 . S
C1872 C1873 1.404 . S
C1873 C1872 1.404 . S
C1873 C1874 1.391 . S
C1874 H1868 0.930 . S
C1874 C1870 1.429 . S
C1874 C1873 1.391 . S
H1875 C1878 0.931 . S
H1876 C1881 0.928 . S
H1877 C1883 0.930 . S
C1878 H1875 0.931 . S
C1878 C1879 1.413 . S
C1878 C1880 1.360 . S
C1879 C1878 1.413 . S
C1879 C1883 1.429 . S
C1880 C1878 1.360 . S
C1880 C1881 1.372 . S
C1881 H1876 0.928 . S
C1881 C1880 1.372 . S
C1881 C1882 1.404 . S
C1882 C1881 1.404 . S
C1882 C1883 1.391 . S
C1883 H1877 0.930 . S
C1883 C1879 1.429 . S
C1883 C1882 1.391 . S
H1884 C1887 0.931 . S
H1885 C1890 0.928 . S
H1886 C1892 0.930 . S
C1887 H1884 0.931 . S
C1887 C1888 1.413 . S
C1887 C1889 1.360 . S
C1888 C1887 1.413 . S
C1888 C1892 1.429 . S
C1889 C1887 1.360 . S
C1889 C1890 1.372 . S
C1890 H1885 0.928 . S
C1890 C1889 1.372 . S
C1890 C1891 1.404 . S
C1891 C1890 1.404 . S
C1891 C1892 1.391 . S
C1892 H1886 0.930 . S
C1892 C1888 1.429 . S
C1892 C1891 1.391 . S
H1893 C1896 0.931 . S
H1894 C1899 0.928 . S
H1895 C1901 0.930 . S
C1896 H1893 0.931 . S
C1896 C1897 1.413 . S
C1896 C1898 1.360 . S
C1897 C1896 1.413 . S
C1897 C1901 1.429 . S
C1898 C1896 1.360 . S
C1898 C1899 1.372 . S
C1899 H1894 0.928 . S
C1899 C1898 1.372 . S
C1899 C1900 1.404 . S
C1900 C1899 1.404 . S
C1900 C1901 1.391 . S
C1901 H1895 0.930 . S
C1901 C1897 1.429 . S
C1901 C1900 1.391 . S
H1902 C1905 0.931 . S
H1903 C1908 0.928 . S
H1904 C1910 0.930 . S
C1905 H1902 0.931 . S
C1905 C1906 1.413 . S
C1905 C1907 1.360 . S
C1906 C1905 1.413 . S
C1906 C1910 1.429 . S
C1907 C1905 1.360 . S
C1907 C1908 1.372 . S
C1908 H1903 0.928 . S
C1908 C1907 1.372 . S
C1908 C1909 1.404 . S
C1909 C1908 1.404 . S
C1909 C1910 1.391 . S
C1910 H1904 0.930 . S
C1910 C1906 1.429 . S
C1910 C1909 1.391 . S
H1911 C1914 0.931 . S
H1912 C1917 0.928 . S
H1913 C1919 0.930 . S
C1914 H1911 0.931 . S
C1914 C1915 1.413 . S
C1914 C1916 1.360 . S
C1915 C1914 1.413 . S
C1915 C1919 1.429 . S
C1916 C1914 1.360 . S
C1916 C1917 1.372 . S
C1917 H1912 0.928 . S
C1917 C1916 1.372 . S
C1917 C1918 1.404 . S
C1918 C1917 1.404 . S
C1918 C1919 1.391 . S
C1919 H1913 0.930 . S
C1919 C1915 1.429 . S
C1919 C1918 1.391 . S
C1288 C8 1.488 . S
C1729 C19 1.490 . S
C1306 C30 1.488 . S
C1711 C41 1.488 . S
C1342 C52 1.488 . S
C63 C1747 1.488 . S
C1324 C74 1.488 . S
C1765 C85 1.490 . S
C1909 C96 1.489 . S
C107 C1855 1.488 . S
C1918 C118 1.488 . S
C129 C1900 1.488 . S
C1873 C140 1.489 . S
C1450 C151 1.488 . S
C1459 C162 1.488 . S
C173 C1432 1.488 . S
C184 C1828 1.488 . S
C1378 C195 1.488 . S
C1783 C206 1.490 . S
C1360 C217 1.490 . S
C228 C1369 1.488 . S
C1846 C239 1.490 . S
C1819 C250 1.489 . S
C261 C1837 1.488 . S
C272 C1072 1.601 . S
C283 C1513 1.600 . S
C1090 C294 1.597 . S
C305 C1495 1.599 . S
C1126 C316 1.601 . S
C327 C1531 1.599 . S
C1108 C338 1.597 . S
C1549 C349 1.600 . S
C360 C1693 1.598 . S
C1639 C371 1.598 . S
C382 C1702 1.600 . S
C1684 C393 1.602 . S
C1657 C404 1.598 . S
C415 C1234 1.602 . S
C426 C1243 1.600 . S
C1216 C437 1.598 . S
C448 C1612 1.599 . S
C1162 C459 1.599 . S
C470 C1567 1.598 . S
C1144 C481 1.600 . S
C492 C1153 1.600 . S
C1630 C503 1.600 . S
C1603 C514 1.598 . S
C1621 C525 1.600 . S
C536 C1720 1.488 . S
C1297 C547 1.490 . S
C1738 C558 1.488 . S
C1279 C569 1.488 . S
C580 C1774 1.488 . S
C1315 C591 1.488 . S
C1756 C602 1.488 . S
C1333 C613 1.490 . S
C624 C1477 1.489 . S
C1423 C635 1.488 . S
C1486 C646 1.488 . S
C657 C1468 1.488 . S
C668 C1441 1.489 . S
C679 C1882 1.488 . S
C690 C1891 1.488 . S
C1864 C701 1.488 . S
C712 C1396 1.488 . S
C1810 C723 1.488 . S
C1351 C734 1.490 . S
C1792 C745 1.490 . S
C756 C1801 1.488 . S
C767 C1414 1.490 . S
C1387 C778 1.489 . S
C789 C1405 1.488 . S
C800 C1504 1.601 . S
C1081 C811 1.600 . S
C1522 C822 1.597 . S
C833 C1063 1.599 . S
C1558 C844 1.601 . S
C1099 C855 1.599 . S
C866 C1540 1.597 . S
C877 C1117 1.600 . S
C1261 C888 1.598 . S
C899 C1207 1.598 . S
C1270 C910 1.600 . S
C1252 C921 1.602 . S
C932 C1225 1.598 . S
C943 C1666 1.602 . S
C1675 C954 1.600 . S
C965 C1648 1.598 . S
C1180 C976 1.599 . S
C1594 C987 1.599 . S
C998 C1135 1.598 . S
C1009 C1576 1.600 . S
C1020 C1585 1.600 . S
C1031 C1198 1.600 . S
C1042 C1171 1.598 . S
C1189 C1053 1.600 . S
C1141 C5 1.094 . S
C1151 C16 1.086 . S
C27 C1159 1.094 . S
C38 C1132 1.095 . S
C49 C1195 1.094 . S
C1168 C60 1.095 . S
C1177 C71 1.094 . S
C82 C1187 1.086 . S
C93 C1087 1.095 . S
C104 C1060 1.094 . S
C115 C1069 1.093 . S
C1078 C126 1.094 . S
C137 C1105 1.095 . S
C148 C1114 1.094 . S
C159 C1123 1.093 . S
C170 C1096 1.094 . S
C1222 C181 1.095 . S
C192 C1690 1.095 . S
C1204 C203 1.095 . S
C1700 C214 1.086 . S
C225 C1681 1.093 . S
C236 C1673 1.086 . S
C1645 C247 1.095 . S
C1663 C258 1.093 . S
C1357 C269 1.870 . S
C1366 C280 1.867 . S
C1375 C291 1.862 . S
C302 C1348 1.865 . S
C313 C1411 1.870 . S
C1384 C324 1.865 . S
C335 C1393 1.862 . S
C1402 C346 1.867 . S
C357 C1303 1.864 . S
C1276 C368 1.862 . S
C379 C1285 1.856 . S
C1294 C390 1.870 . S
C1321 C401 1.864 . S
C412 C1330 1.870 . S
C1339 C423 1.856 . S
C1312 C434 1.862 . S
C1438 C445 1.865 . S
C1906 C456 1.865 . S
C1420 C467 1.863 . S
C478 C1915 1.867 . S
C489 C1897 1.856 . S
C1888 C500 1.867 . S
C1861 C511 1.863 . S
C1879 C522 1.856 . S
C533 C1573 1.094 . S
C1583 C544 1.086 . S
C555 C1591 1.094 . S
C1564 C566 1.095 . S
C577 C1627 1.094 . S
C588 C1600 1.095 . S
C599 C1609 1.094 . S
C610 C1619 1.086 . S
C621 C1519 1.095 . S
C1492 C632 1.094 . S
C1501 C643 1.093 . S
C654 C1510 1.094 . S
C665 C1537 1.095 . S
C676 C1546 1.094 . S
C687 C1555 1.093 . S
C698 C1528 1.094 . S
C1654 C709 1.095 . S
C1258 C720 1.095 . S
C1636 C731 1.095 . S
C1268 C742 1.086 . S
C1249 C753 1.093 . S
C1241 C764 1.086 . S
C775 C1213 1.095 . S
C1231 C786 1.093 . S
C797 C1789 1.870 . S
C808 C1798 1.867 . S
C1807 C819 1.862 . S
C830 C1780 1.865 . S
C1843 C841 1.870 . S
C852 C1816 1.865 . S
C863 C1825 1.862 . S
C1834 C874 1.867 . S
C1735 C885 1.864 . S
C1708 C896 1.862 . S
C1717 C907 1.856 . S
C1726 C918 1.870 . S
C929 C1753 1.864 . S
C1762 C940 1.870 . S
C951 C1771 1.856 . S
C962 C1744 1.862 . S
C973 C1870 1.865 . S
C984 C1474 1.865 . S
C995 C1852 1.863 . S
C1483 C1006 1.867 . S
C1017 C1465 1.856 . S
C1028 C1456 1.867 . S
C1039 C1429 1.863 . S
C1447 C1050 1.856 . S
C7 C1061 1.593 . S
C18 C1070 1.595 . S
C29 C1079 1.593 . S
C1088 C40 1.593 . S
C1097 C51 1.593 . S
C62 C1106 1.593 . S
C73 C1115 1.593 . S
C84 C1124 1.595 . S
C1133 C95 1.594 . S
C1142 C106 1.593 . S
C117 C1150 1.579 . S
C1160 C128 1.593 . S
C139 C1169 1.594 . S
C150 C1178 1.593 . S
C161 C1186 1.579 . S
C172 C1196 1.593 . S
C183 C1205 1.593 . S
C194 C1214 1.593 . S
C1223 C205 1.594 . S
C1232 C216 1.595 . S
C1240 C227 1.579 . S
C1250 C238 1.595 . S
C249 C1259 1.594 . S
C1267 C260 1.579 . S
C271 C1277 1.852 . S
C282 C1286 1.851 . S
C293 C1295 1.849 . S
C1304 C304 1.850 . S
C315 C1313 1.852 . S
C1322 C326 1.850 . S
C337 C1331 1.849 . S
C348 C1340 1.851 . S
C1349 C359 1.848 . S
C370 C1358 1.849 . S
C1367 C381 1.843 . S
C392 C1376 1.852 . S
C1385 C403 1.848 . S
C1394 C414 1.852 . S
C1403 C425 1.843 . S
C436 C1412 1.849 . S
C447 C1421 1.850 . S
C458 C1430 1.850 . S
C469 C1439 1.848 . S
C480 C1448 1.851 . S
C491 C1457 1.843 . S
C1466 C502 1.851 . S
C513 C1475 1.848 . S
C1484 C524 1.843 . S
C535 C1493 1.593 . S
C1502 C546 1.595 . S
C1511 C557 1.593 . S
C1520 C568 1.593 . S
C579 C1529 1.593 . S
C590 C1538 1.593 . S
C1547 C601 1.593 . S
C1556 C612 1.595 . S
C623 C1565 1.594 . S
C634 C1574 1.593 . S
C645 C1582 1.579 . S
C656 C1592 1.593 . S
C667 C1601 1.594 . S
C1610 C678 1.593 . S
C1618 C689 1.579 . S
C1628 C700 1.593 . S
C1637 C711 1.593 . S
C722 C1646 1.593 . S
C733 C1655 1.594 . S
C1664 C744 1.595 . S
C755 C1672 1.579 . S
C1682 C766 1.595 . S
C1691 C777 1.594 . S
C1699 C788 1.579 . S
C799 C1709 1.852 . S
C810 C1718 1.851 . S
C821 C1727 1.849 . S
C832 C1736 1.850 . S
C1745 C843 1.852 . S
C1754 C854 1.850 . S
C1763 C865 1.849 . S
C876 C1772 1.851 . S
C887 C1781 1.848 . S
C1790 C898 1.849 . S
C1799 C909 1.843 . S
C1808 C920 1.852 . S
C1817 C931 1.848 . S
C1826 C942 1.852 . S
C1835 C953 1.843 . S
C1844 C964 1.849 . S
C1853 C975 1.850 . S
C1862 C986 1.850 . S
C1871 C997 1.848 . S
C1008 C1880 1.851 . S
C1889 C1019 1.843 . S
C1030 C1898 1.851 . S
C1907 C1041 1.848 . S
C1916 C1052 1.843 . S
