# Generated by pormake.
# Topology zzz, (3,6)-cn, num edge types: 1
# Building blocks:
#     Node 0, Type 0, BuildingBlock: KAKCAD_clean_linker_0, # of connection points: 3
#     Node 1, Type 0, BuildingBlock: KAKCAD_clean_linker_0, # of connection points: 3
#     Node 2, Type 0, BuildingBlock: KAKCAD_clean_linker_0, # of connection points: 3
#     Node 3, Type 0, BuildingBlock: KAKCAD_clean_linker_0, # of connection points: 3
#     Node 4, Type 0, BuildingBlock: KAKCAD_clean_linker_0, # of connection points: 3
#     Node 5, Type 0, BuildingBlock: KAKCAD_clean_linker_0, # of connection points: 3
#     Node 6, Type 0, BuildingBlock: KAKCAD_clean_linker_0, # of connection points: 3
#     Node 7, Type 0, BuildingBlock: KAKCAD_clean_linker_0, # of connection points: 3
#     Node 8, Type 1, BuildingBlock: BETGAK_clean_sbu_0, # of connection points: 6
#     Node 9, Type 1, BuildingBlock: BETGAK_clean_sbu_0, # of connection points: 6
#     Node 10, Type 1, BuildingBlock: BETGAK_clean_sbu_0, # of connection points: 6
#     Node 11, Type 1, BuildingBlock: BETGAK_clean_sbu_0, # of connection points: 6
#     Edge 12, Type (0, 1), BuildingBlock: AJUNOK_clean_linker_0, # of connection points: 2
#     Edge 13, Type (0, 1), BuildingBlock: AJUNOK_clean_linker_0, # of connection points: 2
#     Edge 14, Type (0, 1), BuildingBlock: AJUNOK_clean_linker_0, # of connection points: 2
#     Edge 15, Type (0, 1), BuildingBlock: AJUNOK_clean_linker_0, # of connection points: 2
#     Edge 16, Type (0, 1), BuildingBlock: AJUNOK_clean_linker_0, # of connection points: 2
#     Edge 17, Type (0, 1), BuildingBlock: AJUNOK_clean_linker_0, # of connection points: 2
#     Edge 18, Type (0, 1), BuildingBlock: AJUNOK_clean_linker_0, # of connection points: 2
#     Edge 19, Type (0, 1), BuildingBlock: AJUNOK_clean_linker_0, # of connection points: 2
#     Edge 20, Type (0, 1), BuildingBlock: AJUNOK_clean_linker_0, # of connection points: 2
#     Edge 21, Type (0, 1), BuildingBlock: AJUNOK_clean_linker_0, # of connection points: 2
#     Edge 22, Type (0, 1), BuildingBlock: AJUNOK_clean_linker_0, # of connection points: 2
#     Edge 23, Type (0, 1), BuildingBlock: AJUNOK_clean_linker_0, # of connection points: 2
#     Edge 24, Type (0, 1), BuildingBlock: AJUNOK_clean_linker_0, # of connection points: 2
#     Edge 25, Type (0, 1), BuildingBlock: AJUNOK_clean_linker_0, # of connection points: 2
#     Edge 26, Type (0, 1), BuildingBlock: AJUNOK_clean_linker_0, # of connection points: 2
#     Edge 27, Type (0, 1), BuildingBlock: AJUNOK_clean_linker_0, # of connection points: 2
#     Edge 28, Type (0, 1), BuildingBlock: AJUNOK_clean_linker_0, # of connection points: 2
#     Edge 29, Type (0, 1), BuildingBlock: AJUNOK_clean_linker_0, # of connection points: 2
#     Edge 30, Type (0, 1), BuildingBlock: AJUNOK_clean_linker_0, # of connection points: 2
#     Edge 31, Type (0, 1), BuildingBlock: AJUNOK_clean_linker_0, # of connection points: 2
#     Edge 32, Type (0, 1), BuildingBlock: AJUNOK_clean_linker_0, # of connection points: 2
#     Edge 33, Type (0, 1), BuildingBlock: AJUNOK_clean_linker_0, # of connection points: 2
#     Edge 34, Type (0, 1), BuildingBlock: AJUNOK_clean_linker_0, # of connection points: 2
#     Edge 35, Type (0, 1), BuildingBlock: AJUNOK_clean_linker_0, # of connection points: 2
# Relax obj value: 0.504
# Max RMSD: 0.263
# Mean RMSD: 0.254
data_MOF--net-zzz--node1-BETGAK_clean_sbu_0--node2-KAKCAD_clean_linker_0--edge1-AJUNOK_clean_linker_0
_symmetry_space_group_name_H-M    P1
_symmetry_Int_Tables_number       1
_symmetry_cell_setting            triclinic
loop_
_symmetry_equiv_pos_as_xyz
'x, y, z'
_cell_length_a     46.56512
_cell_length_b     46.657767
_cell_length_c     14.499908
_cell_angle_alpha  89.898841
_cell_angle_beta   89.877293
_cell_angle_gamma 90.107998
loop_
_atom_site_label
_atom_site_type_symbol
_atom_site_fract_x
_atom_site_fract_y
_atom_site_fract_z
_atom_type_partial_charge
C0 C 0.79756 0.40081 0.08095 0.0
C1 C 0.81285 0.37893 0.12651 0.0
C2 C 0.77656 0.41641 0.12729 0.0
C3 C 0.77094 0.41098 0.22062 0.0
C4 C 0.78314 0.38678 0.26255 0.0
C5 C 0.80351 0.37045 0.21499 0.0
C6 C 0.75929 0.43458 0.27698 0.0
C7 C 0.73329 0.44753 0.25375 0.0
C8 C 0.72551 0.47437 0.29019 0.0
C9 C 0.7451 0.48861 0.35021 0.0
C10 C 0.77139 0.47522 0.37525 0.0
C11 C 0.77763 0.44803 0.33967 0.0
C12 C 0.79493 0.48941 0.42864 0.0
C13 C 0.82055 0.49652 0.38228 0.0
C14 C 0.79531 0.48875 0.52562 0.0
C15 C 0.82097 0.49398 0.57464 0.0
C16 C 0.84709 0.49944 0.52781 0.0
C17 C 0.69798 0.48726 0.25592 0.0
C18 C 0.69753 0.51406 0.21146 0.0
C19 C 0.6731 0.47007 0.25118 0.0
C20 C 0.64939 0.4783 0.19798 0.0
C21 C 0.64944 0.50433 0.14863 0.0
C22 C 0.67359 0.52248 0.15852 0.0
C23 C 0.84612 0.50142 0.43082 0.0
H24 H 0.80408 0.4086 1.01381 0.0
H25 H 0.76753 0.43508 0.09364 0.0
H26 H 0.7789 0.38212 0.33453 0.0
H27 H 0.81422 0.35324 0.25138 0.0
H28 H 0.71978 0.4373 0.20253 0.0
H29 H 0.79826 0.43832 0.35492 0.0
H30 H 0.74023 0.50989 0.37549 0.0
H31 H 0.82121 0.4964 0.30757 0.0
H32 H 0.77614 0.48267 0.56336 0.0
H33 H 0.82042 0.49306 0.64919 0.0
H34 H 0.71637 0.5277 0.21257 0.0
H35 H 0.67269 0.44922 0.28424 0.0
H36 H 0.86554 0.50531 0.3915 0.0
H37 H 0.67445 0.54279 0.1224 0.0
H38 H 0.63179 0.46328 0.19115 0.0
C39 C 0.12679 0.78322 0.09555 0.0
C40 C 0.14675 0.79934 0.14649 0.0
C41 C 0.11148 0.76108 0.13772 0.0
C42 C 0.11579 0.75498 0.23148 0.0
C43 C 0.13934 0.76744 0.27686 0.0
C44 C 0.15505 0.78929 0.23394 0.0
C45 C 0.09134 0.74333 0.28518 0.0
C46 C 0.07611 0.71941 0.25402 0.0
C47 C 0.04851 0.71321 0.28777 0.0
C48 C 0.03591 0.73175 0.35438 0.0
C49 C 0.05175 0.75548 0.38929 0.0
C50 C 0.07948 0.76046 0.35469 0.0
C51 C 0.03984 0.77784 0.45334 0.0
C52 C 1.01596 0.79447 0.42803 0.0
C53 C 0.05647 0.78719 0.5288 0.0
C54 C 0.05083 0.8134 0.57284 0.0
C55 C 0.02839 0.83125 0.54279 0.0
C56 C 0.03312 0.6888 0.2432 0.0
C57 C 0.02014 0.69303 0.15687 0.0
C58 C 0.03814 0.6605 0.27261 0.0
C59 C 0.03098 0.63705 0.21597 0.0
C60 C 0.01894 0.64126 0.12773 0.0
C61 C 1.01324 0.66969 0.09994 0.0
C62 C 1.01026 0.82076 0.47235 0.0
H63 H 0.12011 0.79008 0.02749 0.0
H64 H 0.09361 0.75169 0.10069 0.0
H65 H 0.14343 0.76263 0.34876 0.0
H66 H 0.17118 0.80063 0.27342 0.0
H67 H 0.08512 0.70646 0.19905 0.0
H68 H 0.09088 0.77966 0.37582 0.0
H69 H 1.01413 0.72796 0.37779 0.0
H70 H 1.00289 0.7882 0.36974 0.0
H71 H 0.07517 0.77506 0.54982 0.0
H72 H 0.06523 0.82049 0.62677 0.0
H73 H 1.01714 0.71457 0.13063 0.0
H74 H 0.04906 0.65657 0.3373 0.0
H75 H 0.99222 0.83342 0.44889 0.0
H76 H 1.00499 0.67415 0.0317 0.0
H77 H 0.03575 0.61561 0.24015 0.0
C78 C 0.74527 0.11312 0.11281 0.0
C79 C 0.72909 0.13208 0.16746 0.0
C80 C 0.76627 0.09591 0.15295 0.0
C81 C 0.77118 0.09726 0.2483 0.0
C82 C 0.75887 0.11977 0.29899 0.0
C83 C 0.73807 0.13728 0.25849 0.0
C84 C 0.7814 0.07111 0.29603 0.0
C85 C 0.80498 0.05578 0.26258 0.0
C86 C 0.81015 0.02751 0.29127 0.0
C87 C 0.79095 1.01432 0.3551 0.0
C88 C 0.76753 0.03013 0.39217 0.0
C89 C 0.7635 0.05847 0.36239 0.0
C90 C 0.74482 0.01791 0.45486 0.0
C91 C 0.72767 0.99461 0.42732 0.0
C92 C 0.7359 0.03376 0.53251 0.0
C93 C 0.70964 0.02804 0.57668 0.0
C94 C 0.6913 1.00619 0.54494 0.0
C95 C 0.83452 1.01237 0.2455 0.0
C96 C 0.83053 1.00065 0.15724 0.0
C97 C 0.86278 1.01651 0.27691 0.0
C98 C 0.88646 1.00982 0.22037 0.0
C99 C 0.88253 0.9991 0.13033 0.0
C100 C 0.85413 0.99416 0.10048 0.0
C101 C 0.70133 0.98875 0.47202 0.0
H102 H 0.73906 0.10841 0.04254 0.0
H103 H 0.77553 0.07887 0.11188 0.0
H104 H 0.76277 0.1216 0.37238 0.0
H105 H 0.72641 0.15219 0.30173 0.0
H106 H 0.81859 0.06542 0.21015 0.0
H107 H 0.74456 0.06998 0.38527 0.0
H108 H 0.79408 0.99216 0.37501 0.0
H109 H 0.73363 0.98212 0.36741 0.0
H110 H 0.74846 0.05197 0.55543 0.0
H111 H 0.70296 0.04195 0.63242 0.0
H112 H 0.80904 0.99833 0.12965 0.0
H113 H 0.86654 0.02643 0.34329 0.0
H114 H 0.68836 0.97111 0.44721 0.0
H115 H 0.84994 0.98686 0.03097 0.0
H116 H 0.90789 1.01395 0.24611 0.0
C117 C 0.48743 0.70027 0.57241 0.0
C118 C 0.51016 0.68214 0.54636 0.0
C119 C 0.48152 0.72544 0.52291 0.0
C120 C 0.49793 0.73332 0.44509 0.0
C121 C 0.52169 0.71621 0.4219 0.0
C122 C 0.52772 0.69096 0.47186 0.0
C123 C 0.48553 0.75412 0.37709 0.0
C124 C 0.49998 0.77886 0.34291 0.0
C125 C 0.48633 0.79689 0.27692 0.0
C126 C 0.45925 0.78891 0.24257 0.0
C127 C 0.44538 0.76414 0.27366 0.0
C128 C 0.45829 0.74741 0.34203 0.0
C129 C 0.42013 0.7525 0.22448 0.0
C130 C 0.42229 0.74745 0.12943 0.0
C131 C 0.39715 0.74034 0.27388 0.0
C132 C 0.37918 0.72025 0.2317 0.0
C133 C 0.38447 0.71159 0.14033 0.0
C134 C 0.49935 0.82376 0.23845 0.0
C135 C 0.48301 0.84912 0.23833 0.0
C136 C 0.52464 0.8231 0.18535 0.0
C137 C 0.53237 0.84665 0.12933 0.0
C138 C 0.51505 0.87146 0.12533 0.0
C139 C 0.49063 0.8725 0.18257 0.0
C140 C 0.40472 0.72704 0.08773 0.0
H141 H 0.4729 0.69415 0.62742 0.0
H142 H 0.46271 0.73779 0.54157 0.0
H143 H 0.53437 0.72124 0.36128 0.0
H144 H 0.54552 0.67771 0.44981 0.0
H145 H 0.52115 0.78426 0.36835 0.0
H146 H 0.44786 0.72771 0.36388 0.0
H147 H 0.44926 0.80158 0.18871 0.0
H148 H 0.43984 0.75652 0.08971 0.0
H149 H 0.39483 0.74428 0.34713 0.0
H150 H 0.3634 0.70913 0.27356 0.0
H151 H 0.46317 0.85018 0.27739 0.0
H152 H 0.53742 0.80374 0.18252 0.0
H153 H 0.40975 0.72091 1.01759 0.0
H154 H 0.47626 0.89069 0.18024 0.0
H155 H 0.55138 0.84502 0.08654 0.0
C156 C 0.23323 0.6492 0.29257 0.0
C157 C 0.22377 0.6417 0.38187 0.0
C158 C 0.25358 0.63229 0.247 0.0
C159 C 0.26568 0.60852 0.29171 0.0
C160 C 0.25989 0.60406 0.38545 0.0
C161 C 0.23892 0.62021 0.42982 0.0
C162 C 0.27806 0.58458 0.23843 0.0
C163 C 0.30369 0.57182 0.26649 0.0
C164 C 0.31215 0.54479 0.23307 0.0
C165 C 0.29346 0.53016 0.17097 0.0
C166 C 0.26754 0.54333 0.14105 0.0
C167 C 0.2607 0.57071 0.17384 0.0
C168 C 0.24477 0.5287 0.08542 0.0
C169 C 0.24456 0.53069 0.98859 0.0
C170 C 0.21935 0.51999 0.13001 0.0
C171 C 0.1941 0.5147 0.08002 0.0
C172 C 0.19328 0.51794 0.98331 0.0
C173 C 0.33924 0.53215 0.27255 0.0
C174 C 0.36314 0.55007 0.28881 0.0
C175 C 0.34011 0.5041 0.30818 0.0
C176 C 0.36315 0.49514 0.36439 0.0
C177 C 0.38575 0.51411 0.38744 0.0
C178 C 0.38585 0.54131 0.34541 0.0
C179 C 0.21926 0.52507 0.93811 0.0
H180 H 0.22268 0.6661 0.25428 0.0
H181 H 0.25801 0.63625 0.17471 0.0
H182 H 0.26885 0.58576 0.42132 0.0
H183 H 0.23234 0.6131 0.49766 0.0
H184 H 0.31622 0.58242 0.31941 0.0
H185 H 0.24028 0.58023 0.15495 0.0
H186 H 0.29871 0.50876 0.14764 0.0
H187 H 0.26354 0.53807 0.95227 0.0
H188 H 0.2185 0.51915 0.20466 0.0
H189 H 0.17476 0.50952 0.11815 0.0
H190 H 0.36354 0.57174 0.2619 0.0
H191 H 0.32225 0.48962 0.29726 0.0
H192 H 0.21997 0.52702 0.86377 0.0
H193 H 0.40271 0.55661 0.36033 0.0
H194 H 0.36272 0.47359 0.39205 0.0
C195 C 0.88607 0.22699 0.37305 0.0
C196 C 0.89779 0.21526 0.45437 0.0
C197 C 0.9027 0.24483 0.31644 0.0
C198 C 0.93068 0.25226 0.34268 0.0
C199 C 0.94087 0.24392 0.42926 0.0
C200 C 0.92482 0.22532 0.48404 0.0
C201 C 0.95139 0.26374 0.27528 0.0
C202 C 0.96526 0.28965 0.29211 0.0
C203 C 0.98905 0.29831 0.23929 0.0
C204 C 0.99959 0.27956 0.16929 0.0
C205 C 0.98496 0.25333 0.15008 0.0
C206 C 0.96079 0.24614 0.20355 0.0
C207 C 0.99429 0.23164 0.07936 0.0
C208 C 0.97383 0.22041 1.01753 0.0
C209 C 0.02085 0.21747 0.08622 0.0
C210 C 0.02608 0.19196 0.03652 0.0
C211 C 1.00494 0.1799 0.97826 0.0
C212 C 1.00213 0.3266 0.26469 0.0
C213 C 0.98426 0.35092 0.269 0.0
C214 C 0.0291 0.32809 0.30778 0.0
C215 C 0.03703 0.35249 0.35926 0.0
C216 C 0.01814 0.37599 0.36964 0.0
C217 C 0.99199 0.37505 0.32104 0.0
C218 C 0.97898 0.19502 0.96825 0.0
H219 H 0.86514 0.22027 0.34881 0.0
H220 H 0.89446 0.25129 0.24976 0.0
H221 H 0.96254 0.24932 0.45029 0.0
H222 H 0.9353 0.21654 0.54422 0.0
H223 H 0.95801 0.30277 0.34932 0.0
H224 H 0.95025 0.22563 0.19331 0.0
H225 H 0.01843 0.28548 0.12967 0.0
H226 H 0.95293 0.23042 1.01153 0.0
H227 H 0.03688 0.22506 0.1344 0.0
H228 H 0.04642 0.18114 0.04603 0.0
H229 H 0.9631 0.35031 0.23808 0.0
H230 H 0.04313 0.3096 0.30754 0.0
H231 H 0.96179 0.18641 0.92643 0.0
H232 H 0.97636 0.39203 0.32834 0.0
H233 H 0.05749 0.35236 0.39461 0.0
C234 C 0.30175 0.10812 0.38571 0.0
C235 C 0.32652 0.11148 0.33128 0.0
C236 C 0.27497 0.10696 0.34283 0.0
C237 C 0.27352 0.10924 0.24616 0.0
C238 C 0.29654 0.12306 0.20086 0.0
C239 C 0.32362 0.12296 0.24241 0.0
C240 C 0.25804 0.08585 0.19671 0.0
C241 C 0.23155 0.07548 0.22854 0.0
C242 C 0.22179 0.04772 0.20577 0.0
C243 C 0.23946 0.03007 0.14907 0.0
C244 C 0.26542 0.04118 0.11166 0.0
C245 C 0.27378 0.06901 0.13463 0.0
C246 C 0.28706 0.02458 0.05714 0.0
C247 C 0.30718 1.00749 0.10401 0.0
C248 C 0.29428 0.03428 0.96794 0.0
C249 C 0.32164 0.02923 0.93016 0.0
C250 C 0.34278 1.01446 0.98065 0.0
C251 C 0.19423 0.03781 0.2497 0.0
C252 C 0.19298 1.01296 0.30491 0.0
C253 C 0.17033 0.05631 0.2503 0.0
C254 C 0.14699 0.05147 0.30956 0.0
C255 C 0.14664 0.02786 0.36979 0.0
C256 C 0.16936 1.008 0.36418 0.0
C257 C 0.33462 1.00242 0.06626 0.0
H258 H 0.30351 0.10057 0.45619 0.0
H259 H 0.25721 0.09824 0.38224 0.0
H260 H 0.29537 0.1273 0.12747 0.0
H261 H 0.3424 0.12694 0.20001 0.0
H262 H 0.21941 0.08835 0.27705 0.0
H263 H 0.29467 0.07625 0.11082 0.0
H264 H 0.23307 1.00825 0.13407 0.0
H265 H 0.30261 1.00018 0.17342 0.0
H266 H 0.27966 0.0482 0.931 0.0
H267 H 0.3269 0.0388 0.86414 0.0
H268 H 0.21106 0.99841 0.30699 0.0
H269 H 0.17042 0.07555 0.20836 0.0
H270 H 0.34991 0.99019 0.10631 0.0
H271 H 0.1697 0.98957 0.40969 0.0
H272 H 0.12969 0.06696 0.31116 0.0
C273 C 0.50824 0.32399 0.06374 0.0
C274 C 0.52738 0.33582 0.99803 0.0
C275 C 0.51495 0.29849 0.11146 0.0
C276 C 0.54088 0.28405 0.09425 0.0
C277 C 0.55876 0.2946 0.02318 0.0
C278 C 0.55213 0.32001 0.97586 0.0
C279 C 0.55269 0.26275 0.16206 0.0
C280 C 0.53794 0.23766 0.19239 0.0
C281 C 0.55059 0.21946 0.25994 0.0
C282 C 0.57683 0.22761 0.2998 0.0
C283 C 0.59091 0.25265 0.27267 0.0
C284 C 0.57922 0.26954 0.20252 0.0
C285 C 0.61433 0.26458 0.32939 0.0
C286 C 0.60846 0.27116 0.42165 0.0
C287 C 0.63959 0.27505 0.28852 0.0
C288 C 0.65696 0.29453 0.33615 0.0
C289 C 0.64852 0.30478 0.42349 0.0
C290 C 0.53731 0.19233 0.29538 0.0
C291 C 0.51137 0.19257 0.34524 0.0
C292 C 0.55414 0.16731 0.29815 0.0
C293 C 0.54647 0.14402 0.35413 0.0
C294 C 0.52137 0.14466 0.40844 0.0
C295 C 0.50349 0.16901 0.40104 0.0
C296 C 0.62513 0.29129 0.46791 0.0
H297 H 0.48851 0.33502 0.08092 0.0
H298 H 0.50081 0.2912 0.16609 0.0
H299 H 0.57897 0.2841 1.00825 0.0
H300 H 0.56738 0.32818 0.92578 0.0
H301 H 0.51728 0.2322 0.1631 0.0
H302 H 0.58985 0.28948 0.18431 0.0
H303 H 0.58587 0.21495 0.35546 0.0
H304 H 0.58898 0.26344 0.45445 0.0
H305 H 0.64463 0.26996 0.21745 0.0
H306 H 0.67524 0.30381 0.30062 0.0
H307 H 0.49819 0.21167 0.34605 0.0
H308 H 0.57449 0.1666 0.26183 0.0
H309 H 0.61721 0.2986 0.53393 0.0
H310 H 0.48391 0.17033 0.44124 0.0
H311 H 0.56138 0.12632 0.35915 0.0
La312 La 0.03844 1.00031 0.82618 0.0
La313 La 0.99705 1.0111 0.69178 0.0
C314 C 0.06961 0.98173 0.95541 0.0
C315 C 0.08989 0.95811 0.97007 0.0
C316 C 0.11312 0.96204 0.03009 0.0
C317 C 0.13117 0.9391 0.05167 0.0
C318 C 0.126 0.91185 1.01404 0.0
C319 C 0.10382 0.90849 0.94927 0.0
C320 C 0.08592 0.93145 0.92731 0.0
C321 C 0.06167 0.01949 0.66915 0.0
C322 C 0.02054 0.94935 0.68963 0.0
C323 C 0.96567 0.03005 0.56433 0.0
C324 C 0.94439 0.05301 0.55639 0.0
C325 C 0.92628 0.06036 0.63035 0.0
C326 C 0.90793 0.08398 0.62323 0.0
C327 C 0.90791 0.10083 0.54276 0.0
C328 C 0.9255 0.09263 0.46815 0.0
C329 C 0.94341 0.0689 0.47483 0.0
C330 C 0.97371 0.99276 0.84996 0.0
C331 C 1.01538 0.06266 0.82491 0.0
O332 O 0.07775 1.00139 0.89701 0.0
O333 O 0.04258 0.9748 0.94477 0.0
O334 O 0.06892 0.02744 0.75099 0.0
O335 O 0.04181 1.00121 0.67684 0.0
O336 O 0.03013 0.95606 0.77301 0.0
O337 O 1.01033 0.96989 0.63685 0.0
O338 O 0.9587 1.00841 0.61691 0.0
O339 O 0.99214 0.03843 0.57764 0.0
O340 O 0.96645 0.98447 0.76847 0.0
O341 O 0.99382 1.01073 0.84101 0.0
O342 O 1.005 0.05534 0.74319 0.0
O343 O 0.02621 0.04251 0.87841 0.0
H344 H 0.11674 0.98262 0.06263 0.0
H345 H 0.14835 0.94233 0.10084 0.0
H346 H 0.09921 0.88767 0.9197 0.0
H347 H 0.06836 0.92805 0.87979 0.0
H348 H 0.92679 0.04828 0.69421 0.0
H349 H 0.89433 0.08938 0.68126 0.0
H350 H 0.92651 0.10536 0.40568 0.0
H351 H 0.95731 0.06358 0.41731 0.0
La352 La 0.52728 0.02578 0.84715 0.0
La353 La 0.50725 0.99178 0.69345 0.0
C354 C 0.55049 0.04755 0.98725 0.0
C355 C 0.57323 0.06879 1.00399 0.0
C356 C 0.5693 0.0895 0.07283 0.0
C357 C 0.59106 0.10922 0.09238 0.0
C358 C 0.61718 0.10844 0.04361 0.0
C359 C 0.62053 0.08833 0.97214 0.0
C360 C 0.59867 0.06883 0.95203 0.0
C361 C 0.51165 0.05764 0.70156 0.0
C362 C 0.5737 1.00267 0.70034 0.0
C363 C 0.48046 0.97903 0.54852 0.0
C364 C 0.46105 0.99847 0.49935 0.0
C365 C 0.44633 0.99012 0.41973 0.0
C366 C 0.42698 1.0091 0.37798 0.0
C367 C 0.42207 0.03647 0.41613 0.0
C368 C 0.43801 0.04503 0.49313 0.0
C369 C 0.45723 0.02623 0.53406 0.0
C370 C 0.52363 0.9594 0.83559 0.0
C371 C 0.46235 1.01407 0.84088 0.0
O372 O 0.52727 0.05764 0.94895 0.0
O373 O 0.55825 0.02291 0.95178 0.0
O374 O 0.50833 0.0648 0.78681 0.0
O375 O 0.52468 0.03406 0.70111 0.0
O376 O 0.56902 1.01441 0.78245 0.0
O377 O 0.55203 0.99332 0.65 0.0
O378 O 0.47192 0.97138 0.63086 0.0
O379 O 0.50714 0.98744 0.54931 0.0
O380 O 0.52547 0.9521 0.74948 0.0
O381 O 0.51053 0.98303 0.83914 0.0
O382 O 0.46746 1.01081 0.75171 0.0
O383 O 0.48439 1.0151 0.8976 0.0
H384 H 0.54963 0.09 0.11288 0.0
H385 H 0.58788 0.12439 0.14792 0.0
H386 H 0.64064 0.08656 0.93495 0.0
H387 H 0.60205 0.05327 0.89775 0.0
H388 H 0.44939 0.96892 0.39102 0.0
H389 H 0.41539 1.00213 0.31738 0.0
H390 H 0.4347 0.06583 0.52452 0.0
H391 H 0.46874 0.03326 0.59437 0.0
La392 La 0.49641 0.51577 0.84044 0.0
La393 La 0.53631 0.50225 0.70308 0.0
C394 C 0.4659 0.53531 0.96981 0.0
C395 C 0.44341 0.55716 0.97866 0.0
C396 C 0.42043 0.55249 0.03948 0.0
C397 C 0.40006 0.57396 0.0542 0.0
C398 C 0.40258 0.60053 1.00903 0.0
C399 C 0.4247 0.6044 0.94387 0.0
C400 C 0.44479 0.58279 0.92824 0.0
C401 C 0.47083 0.49891 0.6839 0.0
C402 C 0.51682 0.56569 0.70563 0.0
C403 C 0.56479 0.48272 0.56918 0.0
C404 C 0.58679 0.46086 0.55254 0.0
C405 C 0.60962 0.45626 0.61416 0.0
C406 C 0.62978 0.43468 0.59681 0.0
C407 C 0.6271 0.41722 0.51836 0.0
C408 C 0.60451 0.42253 0.45618 0.0
C409 C 0.5847 0.44419 0.47294 0.0
C410 C 0.56218 0.51907 0.85923 0.0
C411 C 0.51705 0.45263 0.84212 0.0
O412 O 0.459 0.51292 0.92108 0.0
O413 O 0.4919 0.54437 0.95119 0.0
O414 O 0.46335 0.49171 0.76628 0.0
O415 O 0.49233 0.51523 0.6911 0.0
O416 O 0.50753 0.55939 0.78962 0.0
O417 O 0.52484 0.54463 0.65098 0.0
O418 O 0.57256 0.50489 0.61785 0.0
O419 O 0.53926 0.47337 0.59223 0.0
O420 O 0.57014 0.52556 0.77653 0.0
O421 O 0.54048 0.50302 0.85233 0.0
O422 O 0.52643 0.45855 0.75772 0.0
O423 O 0.50838 0.47392 0.89477 0.0
H424 H 0.41875 0.5326 0.0778 0.0
H425 H 0.38314 0.57035 0.10417 0.0
H426 H 0.42772 0.62479 0.90934 0.0
H427 H 0.46202 0.5866 0.87955 0.0
H428 H 0.6117 0.46907 0.67603 0.0
H429 H 0.64714 0.43145 0.64523 0.0
H430 H 0.60143 0.40921 0.39587 0.0
H431 H 0.56731 0.44751 0.42452 0.0
La432 La 1.01505 0.48685 0.82165 0.0
La433 La 0.02601 0.52817 0.68427 0.0
C434 C 0.99637 0.45805 0.95638 0.0
C435 C 0.97258 0.43822 0.97651 0.0
C436 C 0.96638 0.41453 0.91994 0.0
C437 C 0.94338 0.39629 0.94142 0.0
C438 C 0.9261 0.40171 0.01904 0.0
C439 C 0.93273 0.42531 0.07559 0.0
C440 C 0.95579 0.44321 0.05484 0.0
C441 C 0.03094 0.46259 0.6626 0.0
C442 C 0.963 0.50631 0.69157 0.0
C443 C 0.044 0.55769 0.55023 0.0
C444 C 0.06695 0.57849 0.53038 0.0
C445 C 0.07175 0.60271 0.58608 0.0
C446 C 0.09383 0.62202 0.56447 0.0
C447 C 0.11156 0.61719 0.48753 0.0
C448 C 0.10634 0.59306 0.43182 0.0
C449 C 0.08421 0.57406 0.45276 0.0
C450 C 1.00971 0.55185 0.84381 0.0
C451 C 0.07818 0.50881 0.81434 0.0
O452 O 1.01626 0.44908 0.89988 0.0
O453 O 0.98933 0.48475 0.94083 0.0
O454 O 0.03867 0.45442 0.74395 0.0
O455 O 1.01433 0.48378 0.67237 0.0
O456 O 0.97056 0.49491 0.77176 0.0
O457 O 0.98292 0.51738 0.63748 0.0
O458 O 0.02368 0.5659 0.60632 0.0
O459 O 0.05204 0.53127 0.56592 0.0
O460 O 1.0015 0.55987 0.76286 0.0
O461 O 0.02689 0.53122 0.83321 0.0
O462 O 0.07054 0.52059 0.73474 0.0
O463 O 0.05838 0.49714 0.86767 0.0
H464 H 0.97915 0.41017 0.85906 0.0
H465 H 0.93912 0.3781 0.89726 0.0
H466 H 0.91958 0.43047 0.13499 0.0
H467 H 0.96026 0.46129 0.09944 0.0
H468 H 0.05858 0.60667 0.64637 0.0
H469 H 0.09707 0.64056 0.60803 0.0
H470 H 0.11992 0.58836 0.37302 0.0
H471 H 0.08081 0.5556 0.4088 0.0
C472 C 0.10595 1.00188 0.45273 0.0
C473 C 0.12419 0.02592 0.44412 0.0
C474 C 0.08486 1.00027 0.52308 0.0
C475 C 0.08169 0.02235 0.58876 0.0
H476 H 0.10793 0.98427 0.40458 0.0
H477 H 0.07154 0.98125 0.5276 0.0
S478 S 0.12417 0.08965 0.59701 0.0
N479 N 0.13735 0.07226 0.50737 0.0
N480 N 0.09853 0.06897 0.63952 0.0
C481 C 0.09976 0.04641 0.58046 0.0
C482 C 0.12077 0.04826 0.50837 0.0
C483 C 0.50674 0.12855 0.56896 0.0
C484 C 0.51567 0.12141 0.47877 0.0
C485 C 0.50467 0.10773 0.63934 0.0
C486 C 0.51173 0.07879 0.62341 0.0
H487 H 0.50232 0.15065 0.58661 0.0
H488 H 0.49829 0.11461 0.70767 0.0
S489 S 0.53313 0.04791 0.39767 0.0
N490 N 0.52861 0.08234 0.37584 0.0
N491 N 0.52638 0.04387 0.50873 0.0
C492 C 0.51976 0.07114 0.53303 0.0
C493 C 0.52131 0.09221 0.46084 0.0
C494 C 0.43688 0.51597 0.44932 0.0
C495 C 0.40803 0.50691 0.45961 0.0
C496 C 0.45726 0.51253 0.52052 0.0
C497 C 0.44987 0.49969 0.60533 0.0
H498 H 0.44375 0.52629 0.38605 0.0
H499 H 0.47886 0.52055 0.50963 0.0
S500 S 0.37765 0.47168 0.66847 0.0
N501 N 0.37351 0.48439 0.56309 0.0
N502 N 0.41175 0.47697 0.69418 0.0
C503 C 0.42144 0.48962 0.61551 0.0
C504 C 0.40062 0.49342 0.54357 0.0
C505 C 0.03579 0.39272 0.52569 0.0
C506 C 0.02403 0.39956 0.43878 0.0
C507 C 0.03881 0.41341 0.59565 0.0
C508 C 0.02995 0.44204 0.58305 0.0
H509 H 0.0418 0.37085 0.54152 0.0
H510 H 0.04736 0.40655 0.66148 0.0
S511 S 1.00084 0.47246 0.36604 0.0
N512 N 1.00604 0.43826 0.34194 0.0
N513 N 1.01084 0.47667 0.47441 0.0
C514 C 0.01911 0.44957 0.49579 0.0
C515 C 1.01632 0.42852 0.42379 0.0
C516 C 0.92942 1.01638 0.05935 0.0
C517 C 0.9076 0.99534 0.0652 0.0
C518 C 0.95153 1.01483 0.9927 0.0
C519 C 0.95274 0.99225 0.92841 0.0
H520 H 0.92884 0.03487 0.10433 0.0
H521 H 0.9671 0.03208 0.98922 0.0
S522 S 0.90347 0.92969 0.921 0.0
N523 N 0.89083 0.94953 1.00604 0.0
N524 N 0.93165 0.94712 0.88005 0.0
C525 C 0.9319 0.97047 0.93596 0.0
C526 C 0.90957 0.97189 1.0042 0.0
C527 C 0.52731 0.88772 0.96341 0.0
C528 C 0.52052 0.89483 0.05543 0.0
C529 C 0.52923 0.90878 0.89388 0.0
C530 C 0.52432 0.938 0.91276 0.0
H531 H 0.53007 0.8655 0.94387 0.0
H532 H 0.53372 0.90191 0.82403 0.0
S533 S 0.50937 0.96876 0.14383 0.0
N534 N 0.51167 0.93391 0.16271 0.0
N535 N 0.51472 0.97319 0.03208 0.0
C536 C 0.51875 0.94563 1.00498 0.0
C537 C 0.51695 0.92419 0.07604 0.0
C538 C 0.63299 0.52185 0.99213 0.0
C539 C 0.62593 0.51093 0.08013 0.0
C540 C 0.61211 0.52538 0.9229 0.0
C541 C 0.58309 0.51794 0.93767 0.0
H542 H 0.65511 0.52675 0.975 0.0
H543 H 0.61906 0.53314 0.85602 0.0
S544 S 0.55221 0.49174 0.15841 0.0
N545 N 0.58682 0.49541 0.18033 0.0
N546 N 0.54797 0.50128 0.04954 0.0
C547 C 0.57541 0.50807 0.02615 0.0
C548 C 0.59666 0.50472 0.09722 0.0
C549 C 0.03556 0.59491 0.05274 0.0
C550 C 1.01451 0.61653 0.06199 0.0
C551 C 0.03333 0.57321 0.98522 0.0
C552 C 1.01005 0.57227 0.92337 0.0
H553 H 0.05457 0.59533 0.09561 0.0
H554 H 0.0506 0.55779 0.97903 0.0
S555 S 0.94722 0.62104 0.92529 0.0
N556 N 0.96793 0.63326 1.00881 0.0
N557 N 0.96435 0.59332 0.88097 0.0
C558 C 0.9883 0.59289 0.93431 0.0
C559 C 0.99037 0.61476 1.00354 0.0
C560 C 0.87791 0.16621 0.43052 0.0
C561 C 0.88653 0.18773 0.49281 0.0
C562 C 0.88067 0.13723 0.45305 0.0
C563 C 0.89274 0.12877 0.53758 0.0
H564 H 0.8725 0.17133 0.35986 0.0
H565 H 0.8766 0.1215 0.39971 0.0
S566 S 0.90673 0.17641 0.73745 0.0
N567 N 0.89741 0.19837 0.65327 0.0
N568 N 0.9052 0.14385 0.69329 0.0
C569 C 0.89619 0.14978 0.60628 0.0
C570 C 0.89239 0.17935 0.58423 0.0
C571 C 0.37932 0.1035 0.35764 0.0
C572 C 0.35131 0.09266 0.35019 0.0
C573 C 0.4025 0.08502 0.3748 0.0
C574 C 0.39838 0.05514 0.38373 0.0
H575 H 0.3832 0.12633 0.35181 0.0
H576 H 0.42374 0.0942 0.38271 0.0
S577 S 0.32927 1.01617 0.36063 0.0
N578 N 0.32098 0.05015 0.34445 0.0
N579 N 0.36417 1.01573 0.37979 0.0
C580 C 0.37056 0.04409 0.37244 0.0
C581 C 0.34713 0.06278 0.35493 0.0
C582 C 0.65937 0.35602 0.38909 0.0
C583 C 0.65765 0.33385 0.45513 0.0
C584 C 0.65358 0.38441 0.41321 0.0
C585 C 0.64535 0.39154 0.50361 0.0
H586 H 0.66149 0.35133 0.31634 0.0
H587 H 0.65223 0.40023 0.35857 0.0
S588 S 0.64968 0.3436 0.70764 0.0
N589 N 0.65741 0.32273 0.61918 0.0
N590 N 0.64394 0.37576 0.66376 0.0
C591 C 0.64886 0.37068 0.57286 0.0
C592 C 0.65573 0.34185 0.54857 0.0
C593 C 0.17175 0.64825 0.3479 0.0
C594 C 0.19416 0.64928 0.41312 0.0
C595 C 0.14367 0.64163 0.37459 0.0
C596 C 0.13703 0.63534 0.46703 0.0
H597 H 0.17618 0.649 0.27464 0.0
H598 H 0.12775 0.63838 0.32118 0.0
S599 S 0.1853 0.64625 0.66726 0.0
N600 N 0.20567 0.65294 0.57636 0.0
N601 N 0.15324 0.63813 0.62626 0.0
C602 C 0.15794 0.64122 0.53427 0.0
C603 C 0.18646 0.64883 0.50717 0.0
C604 C 0.15608 0.83678 0.02589 0.0
C605 C 0.15164 0.8297 0.11929 0.0
C606 C 0.15029 0.86444 0.9928 0.0
C607 C 0.14016 0.886 0.05217 0.0
H608 H 0.16174 0.82025 0.97678 0.0
H609 H 0.15183 0.86844 0.91932 0.0
S610 S 0.12835 0.87963 0.3044 0.0
N611 N 0.13918 0.84754 0.27209 0.0
N612 N 0.12876 0.89934 0.20991 0.0
C613 C 0.13845 0.88003 0.14701 0.0
C614 C 0.14416 0.85191 0.18067 0.0
C615 C 0.67698 0.12975 0.20262 0.0
C616 C 0.69886 0.13787 0.1405 0.0
C617 C 0.64938 0.12319 0.17159 0.0
C618 C 0.64255 0.1246 0.07733 0.0
H619 H 0.68186 0.12516 0.27415 0.0
H620 H 0.63431 0.11413 0.2207 0.0
S621 S 0.68929 0.15354 0.89178 0.0
N622 N 0.70991 0.1535 0.98439 0.0
N623 N 0.6577 0.14119 0.92573 0.0
C624 C 0.66291 0.13664 1.01674 0.0
C625 C 0.69113 0.14336 0.04848 0.0
C626 C 0.3818 0.65929 0.17105 0.0
C627 C 0.37644 0.68221 0.11006 0.0
C628 C 0.38677 0.63163 0.13808 0.0
C629 C 0.38655 0.62587 0.04297 0.0
H630 H 0.38567 0.66315 0.24359 0.0
H631 H 0.39404 0.61559 0.18679 0.0
S632 S 0.36371 0.67594 0.8586 0.0
N633 N 0.36371 0.69561 0.95325 0.0
N634 N 0.37337 0.64338 0.89089 0.0
C635 C 0.37679 0.64744 0.98298 0.0
C636 C 0.37158 0.67567 1.0167 0.0
C637 C 0.86497 0.37239 0.15919 0.0
C638 C 0.84247 0.37179 0.09427 0.0
C639 C 0.89314 0.37848 0.13226 0.0
C640 C 0.89985 0.38469 0.0398 0.0
H641 H 0.86061 0.37149 0.23248 0.0
H642 H 0.90921 0.38117 0.18553 0.0
S643 S 0.85098 0.3755 0.84009 0.0
N644 N 0.83058 0.36909 0.93115 0.0
N645 N 0.88329 0.38271 0.88078 0.0
C646 C 0.87865 0.37955 0.97277 0.0
C647 C 0.84999 0.37255 1.00013 0.0
C648 C 0.02063 0.12786 0.98601 0.0
C649 C 1.00887 0.15068 0.93453 0.0
C650 C 0.02279 0.09988 0.9498 0.0
C651 C 1.01332 0.09307 0.85996 0.0
H652 H 0.02762 0.13142 0.05625 0.0
H653 H 0.03171 0.08333 0.99362 0.0
S654 S 0.98255 0.14516 0.69306 0.0
N655 N 0.989 0.16455 0.78594 0.0
N656 N 0.99262 0.11221 0.7189 0.0
C657 C 1.00197 0.11576 0.80686 0.0
C658 C 0.99982 0.14434 0.84375 0.0
C659 C 0.37998 1.00815 0.85335 0.0
C660 C 0.37352 1.01363 0.94688 0.0
C661 C 0.40849 1.00854 0.8197 0.0
C662 C 0.43204 1.01453 0.87777 0.0
H663 H 0.36281 1.00331 0.80553 0.0
H664 H 0.41206 1.00393 0.74739 0.0
S665 S 0.42694 0.03258 0.1271 0.0
N666 N 0.39335 0.0269 0.09585 0.0
N667 N 0.4465 0.02722 0.03368 0.0
C668 C 0.42586 0.02037 0.97131 0.0
C669 C 0.39684 0.02 1.00548 0.0
C670 C 0.52832 0.37111 0.86361 0.0
C671 C 0.52301 0.36541 0.95791 0.0
C672 C 0.52615 0.39907 0.82644 0.0
C673 C 0.51864 0.42276 0.88178 0.0
H674 H 0.53427 0.35376 0.81789 0.0
H675 H 0.53054 0.40212 0.7537 0.0
S676 S 0.50422 0.41993 0.13438 0.0
N677 N 0.51117 0.3864 0.10633 0.0
N678 N 0.50658 0.43833 0.03741 0.0
C679 C 0.51331 0.41731 0.97629 0.0
C680 C 0.51559 0.38891 1.01396 0.0
C681 C 0.14517 0.49349 0.95908 0.0
C682 C 0.16508 0.51479 0.93218 0.0
C683 C 0.11767 0.49149 0.91919 0.0
C684 C 0.10856 0.51044 0.84928 0.0
H685 H 0.15073 0.47822 1.01243 0.0
H686 H 0.10329 0.47492 0.94418 0.0
S687 S 0.1519 0.57025 0.75233 0.0
N688 N 0.17315 0.55559 0.83027 0.0
N689 N 0.122 0.55116 0.75383 0.0
C690 C 0.12839 0.53139 0.81954 0.0
C691 C 0.15641 0.5337 0.86107 0.0
C692 C 0.02823 0.86721 0.67532 0.0
C693 C 0.02549 0.86138 0.58006 0.0
C694 C 0.02682 0.89548 0.71041 0.0
C695 C 0.02261 0.91931 0.65194 0.0
H696 H 0.03135 0.84973 0.72348 0.0
H697 H 0.02881 0.89862 0.78411 0.0
S698 S 1.0171 0.91624 0.39607 0.0
N699 N 0.02047 0.88243 0.42764 0.0
N700 N 1.01741 0.93493 0.49256 0.0
C701 C 0.02031 0.91376 0.55641 0.0
C702 C 0.02182 0.88508 0.52088 0.0
C703 C 0.65607 1.0061 0.67974 0.0
C704 C 0.66128 1.0032 0.58411 0.0
C705 C 0.62797 1.00558 0.71687 0.0
C706 C 0.60361 1.00196 0.66036 0.0
H707 H 0.67391 1.00896 0.72664 0.0
H708 H 0.62535 1.00813 0.79064 0.0
S709 S 0.60492 0.99527 0.40467 0.0
N710 N 0.63908 0.998 0.43348 0.0
N711 N 0.58682 0.99633 0.50255 0.0
C712 C 0.6085 0.99893 0.56463 0.0
C713 C 0.63707 0.99969 0.52685 0.0
C714 C 0.51854 0.62866 0.53537 0.0
C715 C 0.51366 0.65301 0.59065 0.0
C716 C 0.51978 0.60087 0.57336 0.0
C717 C 0.51613 0.59586 0.66873 0.0
H718 H 0.52065 0.63092 0.46132 0.0
H719 H 0.52314 0.58307 0.52675 0.0
S720 S 0.50516 0.65227 0.84572 0.0
N721 N 0.50696 0.67019 0.74754 0.0
N722 N 0.50898 0.61815 0.81835 0.0
C723 C 0.51186 0.62003 0.7253 0.0
C724 C 0.51068 0.64843 0.68656 0.0
C725 C 0.89618 0.52225 0.547 0.0
C726 C 0.87555 0.50214 0.57755 0.0
C727 C 0.92389 0.52364 0.58546 0.0
C728 C 0.93252 0.50524 0.65749 0.0
H729 H 0.891 0.53704 0.49187 0.0
H730 H 0.93879 0.53931 0.55773 0.0
S731 S 0.88718 0.44867 0.76452 0.0
N732 N 0.86622 0.46311 0.68536 0.0
N733 N 0.91784 0.46644 0.75914 0.0
C734 C 0.912 0.48553 0.69088 0.0
C735 C 0.88374 0.48384 0.65082 0.0
loop_
_geom_bond_atom_site_label_1
_geom_bond_atom_site_label_2
_geom_bond_distance
_geom_bond_site_symmetry_2
_ccdc_geom_bond_type
C0 C1 1.386 . S
C0 C2 1.397 . S
C0 H24 0.931 . S
C1 C0 1.386 . S
C1 C5 1.397 . S
C2 C0 1.397 . S
C2 C3 1.384 . S
C2 H25 0.930 . S
C3 C2 1.384 . S
C3 C4 1.377 . S
C3 C6 1.481 . S
C4 C3 1.377 . S
C4 C5 1.389 . S
C4 H26 0.929 . S
C5 C1 1.397 . S
C5 C4 1.389 . S
C5 H27 0.931 . S
C6 C3 1.481 . S
C6 C7 1.387 . S
C6 C11 1.390 . S
C7 C6 1.387 . S
C7 C8 1.401 . S
C7 H28 0.930 . S
C8 C7 1.401 . S
C8 C9 1.376 . S
C8 C17 1.511 . S
C9 C8 1.376 . S
C9 C10 1.392 . S
C9 H30 0.931 . S
C10 C9 1.392 . S
C10 C11 1.361 . S
C10 C12 1.500 . S
C11 C6 1.390 . S
C11 C10 1.361 . S
C11 H29 0.931 . S
C12 C10 1.500 . S
C12 C13 1.371 . S
C12 C14 1.365 . S
C13 C12 1.371 . S
C13 C23 1.386 . S
C13 H31 0.931 . S
C14 C12 1.365 . S
C14 C15 1.409 . S
C14 H32 0.929 . S
C15 C14 1.409 . S
C15 C16 1.380 . S
C15 H33 0.930 . S
C16 C15 1.380 . S
C16 C23 1.357 . S
C17 C8 1.511 . S
C17 C18 1.341 . S
C17 C19 1.371 . S
C18 C17 1.341 . S
C18 C22 1.394 . S
C18 H34 0.930 . S
C19 C17 1.371 . S
C19 C20 1.392 . S
C19 H35 0.931 . S
C20 C19 1.392 . S
C20 C21 1.331 . S
C20 H38 0.932 . S
C21 C20 1.331 . S
C21 C22 1.336 . S
C22 C18 1.394 . S
C22 C21 1.336 . S
C22 H37 0.929 . S
C23 C13 1.386 . S
C23 C16 1.357 . S
C23 H36 0.928 . S
H24 C0 0.931 . S
H25 C2 0.930 . S
H26 C4 0.929 . S
H27 C5 0.931 . S
H28 C7 0.930 . S
H29 C11 0.931 . S
H30 C9 0.931 . S
H31 C13 0.931 . S
H32 C14 0.929 . S
H33 C15 0.930 . S
H34 C18 0.930 . S
H35 C19 0.931 . S
H36 C23 0.928 . S
H37 C22 0.929 . S
H38 C20 0.932 . S
C39 C40 1.394 . S
C39 C41 1.397 . S
C39 H63 0.931 . S
C40 C39 1.394 . S
C40 C44 1.389 1_655 S
C41 C39 1.397 . S
C41 C42 1.389 . S
C41 H64 0.930 . S
C42 C41 1.389 . S
C42 C43 1.373 1_655 S
C42 C45 1.480 . S
C43 C42 1.373 1_455 S
C43 C44 1.389 . S
C43 H65 0.929 . S
C44 C40 1.389 1_455 S
C44 C43 1.389 . S
C44 H66 0.931 . S
C45 C42 1.480 . S
C45 C46 1.388 . S
C45 C50 1.390 . S
C46 C45 1.388 . S
C46 C47 1.402 . S
C46 H67 0.930 . S
C47 C46 1.402 . S
C47 C48 1.377 . S
C47 C56 1.513 . S
C48 C47 1.377 . S
C48 C49 1.392 . S
C48 H69 0.931 . S
C49 C48 1.392 . S
C49 C50 1.361 . S
C49 C51 1.499 1_655 S
C50 C45 1.390 . S
C50 C49 1.361 . S
C50 H68 0.931 . S
C51 C49 1.499 1_455 S
C51 C52 1.361 1_455 S
C51 C53 1.376 . S
C52 C51 1.361 1_655 S
C52 C62 1.386 . S
C52 H70 0.931 . S
C53 C51 1.376 . S
C53 C54 1.409 . S
C53 H71 0.929 . S
C54 C53 1.409 . S
C54 C55 1.380 . S
C54 H72 0.930 . S
C55 C54 1.380 . S
C55 C62 1.357 1_455 S
C56 C47 1.513 . S
C56 C57 1.341 . S
C56 C58 1.371 1_655 S
C57 C56 1.341 . S
C57 C61 1.394 . S
C57 H73 0.930 . S
C58 C56 1.371 1_455 S
C58 C59 1.392 . S
C58 H74 0.931 . S
C59 C58 1.392 . S
C59 C60 1.322 1_455 S
C59 H77 0.932 . S
C60 C59 1.322 1_655 S
C60 C61 1.345 . S
C61 C57 1.394 . S
C61 C60 1.345 . S
C61 H76 0.929 . S
C62 C52 1.386 . S
C62 C55 1.357 1_655 S
C62 H75 0.928 . S
H63 C39 0.931 . S
H64 C41 0.930 . S
H65 C43 0.929 . S
H66 C44 0.931 . S
H67 C46 0.930 . S
H68 C50 0.931 . S
H69 C48 0.931 . S
H70 C52 0.931 . S
H71 C53 0.929 . S
H72 C54 0.930 . S
H73 C57 0.930 . S
H74 C58 0.931 . S
H75 C62 0.928 . S
H76 C61 0.929 . S
H77 C59 0.932 . S
C78 C79 1.394 . S
C78 C80 1.397 . S
C78 H102 0.931 . S
C79 C78 1.394 . S
C79 C83 1.389 1_565 S
C80 C78 1.397 . S
C80 C81 1.389 . S
C80 H103 0.930 . S
C81 C80 1.389 . S
C81 C82 1.373 1_565 S
C81 C84 1.481 . S
C82 C81 1.373 1_545 S
C82 C83 1.389 . S
C82 H104 0.929 . S
C83 C79 1.389 1_545 S
C83 C82 1.389 . S
C83 H105 0.931 . S
C84 C81 1.481 . S
C84 C85 1.389 . S
C84 C89 1.390 . S
C85 C84 1.389 . S
C85 C86 1.402 . S
C85 H106 0.930 . S
C86 C85 1.402 . S
C86 C87 1.377 . S
C86 C95 1.513 . S
C87 C86 1.377 . S
C87 C88 1.392 . S
C87 H108 0.931 . S
C88 C87 1.392 . S
C88 C89 1.361 . S
C88 C90 1.499 1_565 S
C89 C84 1.390 . S
C89 C88 1.361 . S
C89 H107 0.931 . S
C90 C88 1.499 1_545 S
C90 C91 1.361 1_545 S
C90 C92 1.376 . S
C91 C90 1.361 1_565 S
C91 C101 1.386 . S
C91 H109 0.931 . S
C92 C90 1.376 . S
C92 C93 1.409 . S
C92 H110 0.929 . S
C93 C92 1.409 . S
C93 C94 1.380 . S
C93 H111 0.930 . S
C94 C93 1.380 . S
C94 C101 1.357 1_545 S
C95 C86 1.513 . S
C95 C96 1.341 . S
C95 C97 1.371 1_565 S
C96 C95 1.341 . S
C96 C100 1.394 . S
C96 H112 0.930 . S
C97 C95 1.371 1_545 S
C97 C98 1.392 . S
C97 H113 0.931 . S
C98 C97 1.392 . S
C98 C99 1.322 1_545 S
C98 H116 0.932 . S
C99 C98 1.322 1_565 S
C99 C100 1.345 . S
C100 C96 1.394 . S
C100 C99 1.345 . S
C100 H115 0.929 . S
C101 C91 1.386 . S
C101 C94 1.357 1_565 S
C101 H114 0.928 . S
H102 C78 0.931 . S
H103 C80 0.930 . S
H104 C82 0.929 . S
H105 C83 0.931 . S
H106 C85 0.930 . S
H107 C89 0.931 . S
H108 C87 0.931 . S
H109 C91 0.931 . S
H110 C92 0.929 . S
H111 C93 0.930 . S
H112 C96 0.930 . S
H113 C97 0.931 . S
H114 C101 0.928 . S
H115 C100 0.929 . S
H116 C98 0.932 . S
C117 C118 1.386 . S
C117 C119 1.397 . S
C117 H141 0.931 . S
C118 C117 1.386 . S
C118 C122 1.397 . S
C119 C117 1.397 . S
C119 C120 1.384 . S
C119 H142 0.930 . S
C120 C119 1.384 . S
C120 C121 1.377 . S
C120 C123 1.481 . S
C121 C120 1.377 . S
C121 C122 1.389 . S
C121 H143 0.929 . S
C122 C118 1.397 . S
C122 C121 1.389 . S
C122 H144 0.931 . S
C123 C120 1.481 . S
C123 C124 1.387 . S
C123 C128 1.390 . S
C124 C123 1.387 . S
C124 C125 1.401 . S
C124 H145 0.930 . S
C125 C124 1.401 . S
C125 C126 1.376 . S
C125 C134 1.511 . S
C126 C125 1.376 . S
C126 C127 1.392 . S
C126 H147 0.931 . S
C127 C126 1.392 . S
C127 C128 1.361 . S
C127 C129 1.500 . S
C128 C123 1.390 . S
C128 C127 1.361 . S
C128 H146 0.931 . S
C129 C127 1.500 . S
C129 C130 1.371 . S
C129 C131 1.365 . S
C130 C129 1.371 . S
C130 C140 1.386 . S
C130 H148 0.931 . S
C131 C129 1.365 . S
C131 C132 1.409 . S
C131 H149 0.929 . S
C132 C131 1.409 . S
C132 C133 1.380 . S
C132 H150 0.930 . S
C133 C132 1.380 . S
C133 C140 1.357 . S
C134 C125 1.511 . S
C134 C135 1.341 . S
C134 C136 1.371 . S
C135 C134 1.341 . S
C135 C139 1.394 . S
C135 H151 0.930 . S
C136 C134 1.371 . S
C136 C137 1.392 . S
C136 H152 0.931 . S
C137 C136 1.392 . S
C137 C138 1.331 . S
C137 H155 0.932 . S
C138 C137 1.331 . S
C138 C139 1.336 . S
C139 C135 1.394 . S
C139 C138 1.336 . S
C139 H154 0.929 . S
C140 C130 1.386 . S
C140 C133 1.357 . S
C140 H153 0.928 . S
H141 C117 0.931 . S
H142 C119 0.930 . S
H143 C121 0.929 . S
H144 C122 0.931 . S
H145 C124 0.930 . S
H146 C128 0.931 . S
H147 C126 0.931 . S
H148 C130 0.931 . S
H149 C131 0.929 . S
H150 C132 0.930 . S
H151 C135 0.930 . S
H152 C136 0.931 . S
H153 C140 0.928 . S
H154 C139 0.929 . S
H155 C137 0.932 . S
C156 C157 1.386 . S
C156 C158 1.397 . S
C156 H180 0.931 . S
C157 C156 1.386 . S
C157 C161 1.397 . S
C158 C156 1.397 . S
C158 C159 1.384 . S
C158 H181 0.930 . S
C159 C158 1.384 . S
C159 C160 1.377 . S
C159 C162 1.481 . S
C160 C159 1.377 . S
C160 C161 1.389 . S
C160 H182 0.929 . S
C161 C157 1.397 . S
C161 C160 1.389 . S
C161 H183 0.931 . S
C162 C159 1.481 . S
C162 C163 1.387 . S
C162 C167 1.390 . S
C163 C162 1.387 . S
C163 C164 1.401 . S
C163 H184 0.930 . S
C164 C163 1.401 . S
C164 C165 1.376 1_554 S
C164 C173 1.511 . S
C165 C164 1.376 1_556 S
C165 C166 1.392 . S
C165 H186 0.931 . S
C166 C165 1.392 . S
C166 C167 1.361 1_556 S
C166 C168 1.500 . S
C167 C162 1.390 . S
C167 C166 1.361 1_554 S
C167 H185 0.931 . S
C168 C166 1.500 . S
C168 C169 1.371 . S
C168 C170 1.365 . S
C169 C168 1.371 . S
C169 C179 1.386 . S
C169 H187 0.931 . S
C170 C168 1.365 . S
C170 C171 1.409 . S
C170 H188 0.929 . S
C171 C170 1.409 . S
C171 C172 1.380 . S
C171 H189 0.930 . S
C172 C171 1.380 . S
C172 C179 1.357 . S
C173 C164 1.511 . S
C173 C174 1.341 . S
C173 C175 1.371 . S
C174 C173 1.341 . S
C174 C178 1.394 . S
C174 H190 0.930 . S
C175 C173 1.371 . S
C175 C176 1.392 . S
C175 H191 0.931 1_554 S
C176 C175 1.392 . S
C176 C177 1.331 . S
C176 H194 0.932 . S
C177 C176 1.331 . S
C177 C178 1.336 . S
C178 C174 1.394 . S
C178 C177 1.336 . S
C178 H193 0.929 . S
C179 C169 1.386 . S
C179 C172 1.357 . S
C179 H192 0.928 . S
H180 C156 0.931 . S
H181 C158 0.930 . S
H182 C160 0.929 . S
H183 C161 0.931 . S
H184 C163 0.930 . S
H185 C167 0.931 . S
H186 C165 0.931 . S
H187 C169 0.931 . S
H188 C170 0.929 . S
H189 C171 0.930 . S
H190 C174 0.930 . S
H191 C175 0.931 1_556 S
H192 C179 0.928 . S
H193 C178 0.929 . S
H194 C176 0.932 . S
C195 C196 1.389 . S
C195 C197 1.397 . S
C195 H219 0.931 . S
C196 C195 1.389 . S
C196 C200 1.395 1_655 S
C197 C195 1.397 . S
C197 C198 1.383 . S
C197 H220 0.930 . S
C198 C197 1.383 . S
C198 C199 1.378 1_655 S
C198 C201 1.480 . S
C199 C198 1.378 1_455 S
C199 C200 1.389 . S
C199 H221 0.929 . S
C200 C196 1.395 1_455 S
C200 C199 1.389 . S
C200 H222 0.931 . S
C201 C198 1.480 . S
C201 C202 1.388 . S
C201 C206 1.390 . S
C202 C201 1.388 . S
C202 C203 1.402 . S
C202 H223 0.930 . S
C203 C202 1.402 . S
C203 C204 1.376 1_554 S
C203 C212 1.512 . S
C204 C203 1.376 1_556 S
C204 C205 1.392 1_655 S
C204 H225 0.933 . S
C205 C204 1.392 1_455 S
C205 C206 1.361 1_456 S
C205 C207 1.499 . S
C206 C201 1.390 . S
C206 C205 1.361 1_654 S
C206 H224 0.931 . S
C207 C205 1.499 . S
C207 C208 1.357 1_455 S
C207 C209 1.380 . S
C208 C207 1.357 1_655 S
C208 C218 1.386 . S
C208 H226 0.931 . S
C209 C207 1.380 . S
C209 C210 1.409 . S
C209 H227 0.929 . S
C210 C209 1.409 . S
C210 C211 1.384 . S
C210 H228 0.930 . S
C211 C210 1.384 . S
C211 C218 1.353 1_455 S
C212 C203 1.512 . S
C212 C213 1.341 . S
C212 C214 1.371 1_655 S
C213 C212 1.341 . S
C213 C217 1.394 . S
C213 H229 0.930 . S
C214 C212 1.371 1_455 S
C214 C215 1.392 . S
C214 H230 0.931 1_554 S
C215 C214 1.392 . S
C215 C216 1.325 1_455 S
C215 H233 0.932 . S
C216 C215 1.325 1_655 S
C216 C217 1.342 . S
C217 C213 1.394 . S
C217 C216 1.342 . S
C217 H232 0.929 . S
C218 C208 1.386 . S
C218 C211 1.353 1_655 S
C218 H231 0.928 . S
H219 C195 0.931 . S
H220 C197 0.930 . S
H221 C199 0.929 . S
H222 C200 0.931 . S
H223 C202 0.930 . S
H224 C206 0.931 . S
H225 C204 0.933 . S
H226 C208 0.931 . S
H227 C209 0.929 . S
H228 C210 0.930 . S
H229 C213 0.930 . S
H230 C214 0.931 1_556 S
H231 C218 0.928 . S
H232 C217 0.929 . S
H233 C215 0.932 . S
C234 C235 1.389 . S
C234 C236 1.397 . S
C234 H258 0.931 . S
C235 C234 1.389 . S
C235 C239 1.395 1_565 S
C236 C234 1.397 . S
C236 C237 1.383 . S
C236 H259 0.930 . S
C237 C236 1.383 . S
C237 C238 1.378 1_565 S
C237 C240 1.480 . S
C238 C237 1.378 1_545 S
C238 C239 1.389 . S
C238 H260 0.929 . S
C239 C235 1.395 1_545 S
C239 C238 1.389 . S
C239 H261 0.931 . S
C240 C237 1.480 . S
C240 C241 1.388 . S
C240 C245 1.390 . S
C241 C240 1.388 . S
C241 C242 1.402 . S
C241 H262 0.930 . S
C242 C241 1.402 . S
C242 C243 1.376 1_554 S
C242 C251 1.512 . S
C243 C242 1.376 1_556 S
C243 C244 1.392 1_565 S
C243 H264 0.934 . S
C244 C243 1.392 1_545 S
C244 C245 1.361 1_546 S
C244 C246 1.499 . S
C245 C240 1.390 . S
C245 C244 1.361 1_564 S
C245 H263 0.931 . S
C246 C244 1.499 . S
C246 C247 1.357 1_545 S
C246 C248 1.380 . S
C247 C246 1.357 1_565 S
C247 C257 1.386 . S
C247 H265 0.931 . S
C248 C246 1.380 . S
C248 C249 1.409 . S
C248 H266 0.929 . S
C249 C248 1.409 . S
C249 C250 1.384 . S
C249 H267 0.930 . S
C250 C249 1.384 . S
C250 C257 1.353 1_545 S
C251 C242 1.512 . S
C251 C252 1.341 . S
C251 C253 1.371 1_565 S
C252 C251 1.341 . S
C252 C256 1.394 . S
C252 H268 0.930 . S
C253 C251 1.371 1_545 S
C253 C254 1.392 . S
C253 H269 0.931 1_554 S
C254 C253 1.392 . S
C254 C255 1.325 1_545 S
C254 H272 0.932 . S
C255 C254 1.325 1_565 S
C255 C256 1.342 . S
C256 C252 1.394 . S
C256 C255 1.342 . S
C256 H271 0.929 . S
C257 C247 1.386 . S
C257 C250 1.353 1_565 S
C257 H270 0.928 . S
H258 C234 0.931 . S
H259 C236 0.930 . S
H260 C238 0.929 . S
H261 C239 0.931 . S
H262 C241 0.930 . S
H263 C245 0.931 . S
H264 C243 0.934 . S
H265 C247 0.931 . S
H266 C248 0.929 . S
H267 C249 0.930 . S
H268 C252 0.930 . S
H269 C253 0.931 1_556 S
H270 C257 0.928 . S
H271 C256 0.929 . S
H272 C254 0.932 . S
C273 C274 1.386 . S
C273 C275 1.397 . S
C273 H297 0.931 . S
C274 C273 1.386 . S
C274 C278 1.397 . S
C275 C273 1.397 . S
C275 C276 1.384 . S
C275 H298 0.930 . S
C276 C275 1.384 . S
C276 C277 1.377 . S
C276 C279 1.481 . S
C277 C276 1.377 . S
C277 C278 1.389 . S
C277 H299 0.929 . S
C278 C274 1.397 . S
C278 C277 1.389 . S
C278 H300 0.931 . S
C279 C276 1.481 . S
C279 C280 1.387 . S
C279 C284 1.390 1_556 S
C280 C279 1.387 . S
C280 C281 1.401 1_556 S
C280 H301 0.930 . S
C281 C280 1.401 1_554 S
C281 C282 1.376 . S
C281 C290 1.511 . S
C282 C281 1.376 . S
C282 C283 1.392 . S
C282 H303 0.931 . S
C283 C282 1.392 . S
C283 C284 1.361 . S
C283 C285 1.500 . S
C284 C279 1.390 1_554 S
C284 C283 1.361 . S
C284 H302 0.931 . S
C285 C283 1.500 . S
C285 C286 1.371 . S
C285 C287 1.365 . S
C286 C285 1.371 . S
C286 C296 1.386 . S
C286 H304 0.931 . S
C287 C285 1.365 . S
C287 C288 1.409 . S
C287 H305 0.929 . S
C288 C287 1.409 . S
C288 C289 1.380 . S
C288 H306 0.930 . S
C289 C288 1.380 . S
C289 C296 1.357 . S
C290 C281 1.511 . S
C290 C291 1.341 . S
C290 C292 1.371 . S
C291 C290 1.341 . S
C291 C295 1.394 . S
C291 H307 0.930 1_554 S
C292 C290 1.371 . S
C292 C293 1.392 . S
C292 H308 0.931 . S
C293 C292 1.392 . S
C293 C294 1.331 . S
C293 H311 0.932 . S
C294 C293 1.331 . S
C294 C295 1.336 . S
C295 C291 1.394 . S
C295 C294 1.336 . S
C295 H310 0.929 . S
C296 C286 1.386 . S
C296 C289 1.357 . S
C296 H309 0.928 . S
H297 C273 0.931 . S
H298 C275 0.930 . S
H299 C277 0.929 . S
H300 C278 0.931 . S
H301 C280 0.930 . S
H302 C284 0.931 . S
H303 C282 0.931 . S
H304 C286 0.931 . S
H305 C287 0.929 . S
H306 C288 0.930 . S
H307 C291 0.930 1_556 S
H308 C292 0.931 . S
H309 C296 0.928 . S
H310 C295 0.929 . S
H311 C293 0.932 . S
La312 C314 2.928 . S
La312 O332 2.521 . S
La312 O333 2.628 . S
La312 O334 2.554 . S
La312 O335 2.757 1_565 S
La312 O336 2.470 . S
La312 O341 2.482 1_455 S
La312 O343 2.503 1_565 S
La313 C323 2.928 . S
La313 O335 2.482 1_655 S
La313 O337 2.503 1_545 S
La313 O338 2.521 . S
La313 O339 2.628 . S
La313 O340 2.554 . S
La313 O341 2.757 1_545 S
La313 O342 2.470 . S
C314 La312 2.928 . S
C314 C315 1.503 . S
C314 O332 1.261 . S
C314 O333 1.243 . S
C315 C314 1.503 . S
C315 C316 1.394 . S
C315 C320 1.373 1_556 S
C316 C315 1.394 . S
C316 C317 1.380 1_556 S
C316 H344 0.930 . S
C317 C316 1.380 1_554 S
C317 C318 1.376 . S
C317 H345 0.930 . S
C318 C317 1.376 . S
C318 C319 1.370 . S
C319 C318 1.370 . S
C319 C320 1.396 . S
C319 H346 0.929 . S
C320 C315 1.373 1_554 S
C320 C319 1.396 . S
C320 H347 0.929 1_455 S
C321 O334 1.240 . S
C321 O335 1.289 1_565 S
C322 O336 1.258 1_655 S
C322 O337 1.256 . S
C323 La313 2.928 . S
C323 C324 1.503 . S
C323 O338 1.261 . S
C323 O339 1.243 . S
C324 C323 1.503 . S
C324 C325 1.394 . S
C324 C329 1.373 . S
C325 C324 1.394 . S
C325 C326 1.380 . S
C325 H348 0.930 . S
C326 C325 1.380 . S
C326 C327 1.376 . S
C326 H349 0.930 . S
C327 C326 1.376 . S
C327 C328 1.370 . S
C328 C327 1.370 . S
C328 C329 1.396 . S
C328 H350 0.929 . S
C329 C324 1.373 . S
C329 C328 1.396 . S
C329 H351 0.929 1_655 S
C330 O340 1.240 . S
C330 O341 1.289 1_545 S
C331 O342 1.258 1_455 S
C331 O343 1.256 . S
O332 La312 2.521 . S
O332 C314 1.261 . S
O333 La312 2.628 . S
O333 C314 1.243 . S
O334 La312 2.554 . S
O334 C321 1.240 . S
O335 La312 2.757 1_545 S
O335 La313 2.482 1_455 S
O335 C321 1.289 1_545 S
O336 La312 2.470 . S
O336 C322 1.258 1_455 S
O337 La313 2.503 1_565 S
O337 C322 1.256 . S
O338 La313 2.521 . S
O338 C323 1.261 . S
O339 La313 2.628 . S
O339 C323 1.243 . S
O340 La313 2.554 . S
O340 C330 1.240 . S
O341 La312 2.482 1_655 S
O341 La313 2.757 1_565 S
O341 C330 1.289 1_565 S
O342 La313 2.470 . S
O342 C331 1.258 1_655 S
O343 La312 2.503 1_545 S
O343 C331 1.256 . S
H344 C316 0.930 . S
H345 C317 0.930 . S
H346 C319 0.929 . S
H347 C320 0.929 1_655 S
H348 C325 0.930 . S
H349 C326 0.930 . S
H350 C328 0.929 . S
H351 C329 0.929 1_455 S
La352 C354 2.928 . S
La352 O372 2.521 . S
La352 O373 2.628 . S
La352 O374 2.554 . S
La352 O375 2.757 . S
La352 O376 2.470 . S
La352 O381 2.482 1_545 S
La352 O383 2.503 . S
La353 C363 2.928 . S
La353 O375 2.482 1_565 S
La353 O377 2.503 . S
La353 O378 2.521 . S
La353 O379 2.628 . S
La353 O380 2.554 . S
La353 O381 2.757 . S
La353 O382 2.470 . S
C354 La352 2.928 . S
C354 C355 1.503 . S
C354 O372 1.261 . S
C354 O373 1.243 . S
C355 C354 1.503 . S
C355 C356 1.394 . S
C355 C360 1.373 1_556 S
C356 C355 1.394 . S
C356 C357 1.380 1_556 S
C356 H384 0.930 . S
C357 C356 1.380 1_554 S
C357 C358 1.376 . S
C357 H385 0.930 . S
C358 C357 1.376 . S
C358 C359 1.370 . S
C359 C358 1.370 . S
C359 C360 1.396 . S
C359 H386 0.929 . S
C360 C355 1.373 1_554 S
C360 C359 1.396 . S
C360 H387 0.929 1_545 S
C361 O374 1.240 . S
C361 O375 1.289 . S
C362 O376 1.258 1_565 S
C362 O377 1.256 . S
C363 La353 2.928 . S
C363 C364 1.503 . S
C363 O378 1.261 . S
C363 O379 1.243 . S
C364 C363 1.503 . S
C364 C365 1.394 . S
C364 C369 1.373 . S
C365 C364 1.394 . S
C365 C366 1.380 . S
C365 H388 0.930 . S
C366 C365 1.380 . S
C366 C367 1.376 . S
C366 H389 0.930 . S
C367 C366 1.376 . S
C367 C368 1.370 . S
C368 C367 1.370 . S
C368 C369 1.396 . S
C368 H390 0.929 . S
C369 C364 1.373 . S
C369 C368 1.396 . S
C369 H391 0.929 1_565 S
C370 O380 1.240 . S
C370 O381 1.289 . S
C371 O382 1.258 1_545 S
C371 O383 1.256 . S
O372 La352 2.521 . S
O372 C354 1.261 . S
O373 La352 2.628 . S
O373 C354 1.243 . S
O374 La352 2.554 . S
O374 C361 1.240 . S
O375 La352 2.757 . S
O375 La353 2.482 1_545 S
O375 C361 1.289 . S
O376 La352 2.470 . S
O376 C362 1.258 1_545 S
O377 La353 2.503 . S
O377 C362 1.256 . S
O378 La353 2.521 . S
O378 C363 1.261 . S
O379 La353 2.628 . S
O379 C363 1.243 . S
O380 La353 2.554 . S
O380 C370 1.240 . S
O381 La352 2.482 1_565 S
O381 La353 2.757 . S
O381 C370 1.289 . S
O382 La353 2.470 . S
O382 C371 1.258 1_565 S
O383 La352 2.503 . S
O383 C371 1.256 . S
H384 C356 0.930 . S
H385 C357 0.930 . S
H386 C359 0.929 . S
H387 C360 0.929 1_565 S
H388 C365 0.930 . S
H389 C366 0.930 . S
H390 C368 0.929 . S
H391 C369 0.929 1_545 S
La392 C394 2.928 . S
La392 O412 2.521 . S
La392 O413 2.628 . S
La392 O414 2.554 . S
La392 O415 2.757 . S
La392 O416 2.470 . S
La392 O421 2.482 . S
La392 O423 2.503 . S
La393 C403 2.928 . S
La393 O415 2.482 . S
La393 O417 2.503 . S
La393 O418 2.521 . S
La393 O419 2.628 . S
La393 O420 2.554 . S
La393 O421 2.757 . S
La393 O422 2.470 . S
C394 La392 2.928 . S
C394 C395 1.503 . S
C394 O412 1.261 . S
C394 O413 1.243 . S
C395 C394 1.503 . S
C395 C396 1.394 . S
C395 C400 1.373 1_556 S
C396 C395 1.394 . S
C396 C397 1.380 1_556 S
C396 H424 0.930 . S
C397 C396 1.380 1_554 S
C397 C398 1.376 . S
C397 H425 0.930 . S
C398 C397 1.376 . S
C398 C399 1.370 . S
C399 C398 1.370 . S
C399 C400 1.396 . S
C399 H426 0.929 . S
C400 C395 1.373 1_554 S
C400 C399 1.396 . S
C400 H427 0.929 . S
C401 O414 1.240 . S
C401 O415 1.289 . S
C402 O416 1.258 . S
C402 O417 1.256 . S
C403 La393 2.928 . S
C403 C404 1.503 . S
C403 O418 1.261 . S
C403 O419 1.243 . S
C404 C403 1.503 . S
C404 C405 1.394 . S
C404 C409 1.373 . S
C405 C404 1.394 . S
C405 C406 1.380 . S
C405 H428 0.930 . S
C406 C405 1.380 . S
C406 C407 1.376 . S
C406 H429 0.930 . S
C407 C406 1.376 . S
C407 C408 1.370 . S
C408 C407 1.370 . S
C408 C409 1.396 . S
C408 H430 0.929 . S
C409 C404 1.373 . S
C409 C408 1.396 . S
C409 H431 0.929 . S
C410 O420 1.240 . S
C410 O421 1.289 . S
C411 O422 1.258 . S
C411 O423 1.256 . S
O412 La392 2.521 . S
O412 C394 1.261 . S
O413 La392 2.628 . S
O413 C394 1.243 . S
O414 La392 2.554 . S
O414 C401 1.240 . S
O415 La392 2.757 . S
O415 La393 2.482 . S
O415 C401 1.289 . S
O416 La392 2.470 . S
O416 C402 1.258 . S
O417 La393 2.503 . S
O417 C402 1.256 . S
O418 La393 2.521 . S
O418 C403 1.261 . S
O419 La393 2.628 . S
O419 C403 1.243 . S
O420 La393 2.554 . S
O420 C410 1.240 . S
O421 La392 2.482 . S
O421 La393 2.757 . S
O421 C410 1.289 . S
O422 La393 2.470 . S
O422 C411 1.258 . S
O423 La392 2.503 . S
O423 C411 1.256 . S
H424 C396 0.930 . S
H425 C397 0.930 . S
H426 C399 0.929 . S
H427 C400 0.929 . S
H428 C405 0.930 . S
H429 C406 0.930 . S
H430 C408 0.929 . S
H431 C409 0.929 . S
La432 C434 2.928 . S
La432 O452 2.521 . S
La432 O453 2.628 . S
La432 O454 2.554 . S
La432 O455 2.757 1_655 S
La432 O456 2.470 . S
La432 O461 2.482 . S
La432 O463 2.503 1_655 S
La433 C443 2.928 . S
La433 O455 2.482 . S
La433 O457 2.503 1_455 S
La433 O458 2.521 . S
La433 O459 2.628 . S
La433 O460 2.554 . S
La433 O461 2.757 1_455 S
La433 O462 2.470 . S
C434 La432 2.928 . S
C434 C435 1.503 . S
C434 O452 1.261 . S
C434 O453 1.243 . S
C435 C434 1.503 . S
C435 C436 1.394 . S
C435 C440 1.373 1_556 S
C436 C435 1.394 . S
C436 C437 1.380 1_556 S
C436 H464 0.930 . S
C437 C436 1.380 1_554 S
C437 C438 1.376 . S
C437 H465 0.930 . S
C438 C437 1.376 . S
C438 C439 1.370 . S
C439 C438 1.370 . S
C439 C440 1.396 . S
C439 H466 0.929 . S
C440 C435 1.373 1_554 S
C440 C439 1.396 . S
C440 H467 0.929 . S
C441 O454 1.245 . S
C441 O455 1.286 1_655 S
C442 O456 1.258 . S
C442 O457 1.256 . S
C443 La433 2.928 . S
C443 C444 1.503 . S
C443 O458 1.261 . S
C443 O459 1.243 . S
C444 C443 1.503 . S
C444 C445 1.394 . S
C444 C449 1.373 . S
C445 C444 1.394 . S
C445 C446 1.380 . S
C445 H468 0.930 . S
C446 C445 1.380 . S
C446 C447 1.376 . S
C446 H469 0.930 . S
C447 C446 1.376 . S
C447 C448 1.370 . S
C448 C447 1.370 . S
C448 C449 1.396 . S
C448 H470 0.929 . S
C449 C444 1.373 . S
C449 C448 1.396 . S
C449 H471 0.929 . S
C450 O460 1.250 . S
C450 O461 1.283 1_455 S
C451 O462 1.258 . S
C451 O463 1.256 . S
O452 La432 2.521 . S
O452 C434 1.261 . S
O453 La432 2.628 . S
O453 C434 1.243 . S
O454 La432 2.554 . S
O454 C441 1.245 . S
O455 La432 2.757 1_455 S
O455 La433 2.482 . S
O455 C441 1.286 1_455 S
O456 La432 2.470 . S
O456 C442 1.258 . S
O457 La433 2.503 1_655 S
O457 C442 1.256 . S
O458 La433 2.521 . S
O458 C443 1.261 . S
O459 La433 2.628 . S
O459 C443 1.243 . S
O460 La433 2.554 . S
O460 C450 1.250 . S
O461 La432 2.482 . S
O461 La433 2.757 1_655 S
O461 C450 1.283 1_655 S
O462 La433 2.470 . S
O462 C451 1.258 . S
O463 La432 2.503 1_455 S
O463 C451 1.256 . S
H464 C436 0.930 . S
H465 C437 0.930 . S
H466 C439 0.929 . S
H467 C440 0.929 . S
H468 C445 0.930 . S
H469 C446 0.930 . S
H470 C448 0.929 . S
H471 C449 0.929 . S
C472 C473 1.343 1_565 S
C472 C474 1.419 . S
C472 H476 0.930 . S
C473 C472 1.343 1_545 S
C473 C482 1.456 . S
C474 C472 1.419 . S
C474 C475 1.363 1_565 S
C474 H477 0.929 . S
C475 C474 1.363 1_545 S
C475 C481 1.428 . S
H476 C472 0.930 . S
H477 C474 0.929 . S
S478 N479 1.613 . S
S478 N480 1.610 . S
N479 S478 1.613 . S
N479 C482 1.350 . S
N480 S478 1.610 . S
N480 C481 1.351 . S
C481 C475 1.428 . S
C481 N480 1.351 . S
C481 C482 1.434 . S
C482 C473 1.456 . S
C482 N479 1.350 . S
C482 C481 1.434 . S
C483 C484 1.369 . S
C483 C485 1.419 . S
C483 H487 0.930 . S
C484 C483 1.369 . S
C484 C493 1.429 . S
C485 C483 1.419 . S
C485 C486 1.363 . S
C485 H488 0.929 . S
C486 C485 1.363 . S
C486 C492 1.428 . S
H487 C483 0.930 . S
H488 C485 0.929 . S
S489 N490 1.613 . S
S489 N491 1.610 . S
N490 S489 1.613 . S
N490 C493 1.350 . S
N491 S489 1.610 . S
N491 C492 1.351 . S
C492 C486 1.428 . S
C492 N491 1.351 . S
C492 C493 1.434 . S
C493 C484 1.429 . S
C493 N490 1.350 . S
C493 C492 1.434 . S
C494 C495 1.369 . S
C494 C496 1.419 . S
C494 H498 0.930 . S
C495 C494 1.369 . S
C495 C504 1.429 . S
C496 C494 1.419 . S
C496 C497 1.363 . S
C496 H499 0.929 . S
C497 C496 1.363 . S
C497 C503 1.428 . S
H498 C494 0.930 . S
H499 C496 0.929 . S
S500 N501 1.613 . S
S500 N502 1.610 . S
N501 S500 1.613 . S
N501 C504 1.350 . S
N502 S500 1.610 . S
N502 C503 1.351 . S
C503 C497 1.428 . S
C503 N502 1.351 . S
C503 C504 1.434 . S
C504 C495 1.429 . S
C504 N501 1.350 . S
C504 C503 1.434 . S
C505 C506 1.384 . S
C505 C507 1.419 . S
C505 H509 0.930 . S
C506 C505 1.384 . S
C506 C515 1.413 1_455 S
C507 C505 1.419 . S
C507 C508 1.363 . S
C507 H510 0.929 . S
C508 C507 1.363 . S
C508 C514 1.428 1_455 S
H509 C505 0.930 . S
H510 C507 0.929 . S
S511 N512 1.613 . S
S511 N513 1.610 . S
N512 S511 1.613 . S
N512 C515 1.350 . S
N513 S511 1.610 . S
N513 C514 1.351 . S
C514 C508 1.428 1_655 S
C514 N513 1.351 . S
C514 C515 1.434 . S
C515 C506 1.413 1_655 S
C515 N512 1.350 . S
C515 C514 1.434 . S
C516 C517 1.351 1_545 S
C516 C518 1.419 . S
C516 H520 0.930 . S
C517 C516 1.351 1_565 S
C517 C526 1.448 . S
C518 C516 1.419 . S
C518 C519 1.331 1_545 S
C518 H521 0.929 . S
C519 C518 1.331 1_565 S
C519 C525 1.461 . S
H520 C516 0.930 . S
H521 C518 0.929 . S
S522 N523 1.613 . S
S522 N524 1.610 . S
N523 S522 1.613 . S
N523 C526 1.350 . S
N524 S522 1.610 . S
N524 C525 1.351 . S
C525 C519 1.461 . S
C525 N524 1.351 . S
C525 C526 1.434 . S
C526 C517 1.448 . S
C526 N523 1.350 . S
C526 C525 1.434 . S
C527 C528 1.369 . S
C527 C529 1.419 . S
C527 H531 0.930 . S
C528 C527 1.369 . S
C528 C537 1.429 . S
C529 C527 1.419 . S
C529 C530 1.363 . S
C529 H532 0.929 . S
C530 C529 1.363 . S
C530 C536 1.428 . S
H531 C527 0.930 . S
H532 C529 0.929 . S
S533 N534 1.613 1_545 S
S533 N535 1.610 1_545 S
N534 S533 1.613 1_565 S
N534 C537 1.350 . S
N535 S533 1.610 1_565 S
N535 C536 1.351 . S
C536 C530 1.428 . S
C536 N535 1.351 . S
C536 C537 1.434 . S
C537 C528 1.429 . S
C537 N534 1.350 . S
C537 C536 1.434 . S
C538 C539 1.369 . S
C538 C540 1.419 . S
C538 H542 0.930 . S
C539 C538 1.369 . S
C539 C548 1.429 . S
C540 C538 1.419 . S
C540 C541 1.363 . S
C540 H543 0.929 . S
C541 C540 1.363 . S
C541 C547 1.428 . S
H542 C538 0.930 . S
H543 C540 0.929 . S
S544 N545 1.613 . S
S544 N546 1.610 . S
N545 S544 1.613 . S
N545 C548 1.350 . S
N546 S544 1.610 . S
N546 C547 1.351 . S
C547 C541 1.428 . S
C547 N546 1.351 . S
C547 C548 1.434 . S
C548 C539 1.429 . S
C548 N545 1.350 . S
C548 C547 1.434 . S
C549 C550 1.343 1_455 S
C549 C551 1.419 . S
C549 H553 0.930 . S
C550 C549 1.343 1_655 S
C550 C559 1.457 . S
C551 C549 1.419 . S
C551 C552 1.363 1_455 S
C551 H554 0.929 . S
C552 C551 1.363 1_655 S
C552 C558 1.428 . S
H553 C549 0.930 . S
H554 C551 0.929 . S
S555 N556 1.613 . S
S555 N557 1.610 . S
N556 S555 1.613 . S
N556 C559 1.350 . S
N557 S555 1.610 . S
N557 C558 1.351 . S
C558 C552 1.428 . S
C558 N557 1.351 . S
C558 C559 1.434 . S
C559 C550 1.457 . S
C559 N556 1.350 . S
C559 C558 1.434 . S
C560 C561 1.369 . S
C560 C562 1.419 . S
C560 H564 0.930 . S
C561 C560 1.369 . S
C561 C570 1.429 . S
C562 C560 1.419 . S
C562 C563 1.363 . S
C562 H565 0.929 . S
C563 C562 1.363 . S
C563 C569 1.428 . S
H564 C560 0.930 . S
H565 C562 0.929 . S
S566 N567 1.613 . S
S566 N568 1.610 1_455 S
N567 S566 1.613 . S
N567 C570 1.350 1_455 S
N568 S566 1.610 1_655 S
N568 C569 1.351 . S
C569 C563 1.428 . S
C569 N568 1.351 . S
C569 C570 1.434 . S
C570 C561 1.429 . S
C570 N567 1.350 1_655 S
C570 C569 1.434 . S
C571 C572 1.369 1_545 S
C571 C573 1.419 1_545 S
C571 H575 0.930 . S
C572 C571 1.369 1_565 S
C572 C581 1.429 . S
C573 C571 1.419 1_565 S
C573 C574 1.363 . S
C573 H576 0.929 . S
C574 C573 1.363 . S
C574 C580 1.428 . S
H575 C571 0.930 . S
H576 C573 0.929 . S
S577 N578 1.613 . S
S577 N579 1.610 . S
N578 S577 1.613 . S
N578 C581 1.350 . S
N579 S577 1.610 . S
N579 C580 1.351 . S
C580 C574 1.428 . S
C580 N579 1.351 . S
C580 C581 1.434 . S
C581 C572 1.429 . S
C581 N578 1.350 . S
C581 C580 1.434 . S
C582 C583 1.369 . S
C582 C584 1.419 . S
C582 H586 0.930 . S
C583 C582 1.369 . S
C583 C592 1.429 . S
C584 C582 1.419 . S
C584 C585 1.363 . S
C584 H587 0.929 . S
C585 C584 1.363 . S
C585 C591 1.428 . S
H586 C582 0.930 . S
H587 C584 0.929 . S
S588 N589 1.613 . S
S588 N590 1.610 . S
N589 S588 1.613 . S
N589 C592 1.350 . S
N590 S588 1.610 . S
N590 C591 1.351 . S
C591 C585 1.428 . S
C591 N590 1.351 . S
C591 C592 1.434 . S
C592 C583 1.429 . S
C592 N589 1.350 . S
C592 C591 1.434 . S
C593 C594 1.369 . S
C593 C595 1.419 . S
C593 H597 0.930 . S
C594 C593 1.369 . S
C594 C603 1.429 . S
C595 C593 1.419 . S
C595 C596 1.363 . S
C595 H598 0.929 . S
C596 C595 1.363 . S
C596 C602 1.428 . S
H597 C593 0.930 . S
H598 C595 0.929 . S
S599 N600 1.613 . S
S599 N601 1.610 . S
N600 S599 1.613 . S
N600 C603 1.350 . S
N601 S599 1.610 . S
N601 C602 1.351 . S
C602 C596 1.428 . S
C602 N601 1.351 . S
C602 C603 1.434 . S
C603 C594 1.429 . S
C603 N600 1.350 . S
C603 C602 1.434 . S
C604 C605 1.369 . S
C604 C606 1.419 . S
C604 H608 0.930 . S
C605 C604 1.369 . S
C605 C614 1.429 1_455 S
C606 C604 1.419 . S
C606 C607 1.363 . S
C606 H609 0.929 . S
C607 C606 1.363 . S
C607 C613 1.428 . S
H608 C604 0.930 . S
H609 C606 0.929 . S
S610 N611 1.613 . S
S610 N612 1.610 1_655 S
N611 S610 1.613 . S
N611 C614 1.350 . S
N612 S610 1.610 1_455 S
N612 C613 1.351 . S
C613 C607 1.428 . S
C613 N612 1.351 . S
C613 C614 1.434 1_455 S
C614 C605 1.429 1_655 S
C614 N611 1.350 . S
C614 C613 1.434 1_655 S
C615 C616 1.369 1_565 S
C615 C617 1.419 1_565 S
C615 H619 0.930 . S
C616 C615 1.369 1_545 S
C616 C625 1.429 . S
C617 C615 1.419 1_545 S
C617 C618 1.363 . S
C617 H620 0.929 . S
C618 C617 1.363 . S
C618 C624 1.428 . S
H619 C615 0.930 . S
H620 C617 0.929 . S
S621 N622 1.613 . S
S621 N623 1.610 . S
N622 S621 1.613 . S
N622 C625 1.350 . S
N623 S621 1.610 . S
N623 C624 1.351 . S
C624 C618 1.428 . S
C624 N623 1.351 . S
C624 C625 1.434 . S
C625 C616 1.429 . S
C625 N622 1.350 . S
C625 C624 1.434 . S
C626 C627 1.369 . S
C626 C628 1.419 . S
C626 H630 0.930 . S
C627 C626 1.369 . S
C627 C636 1.429 . S
C628 C626 1.419 . S
C628 C629 1.363 . S
C628 H631 0.929 . S
C629 C628 1.363 . S
C629 C635 1.428 . S
H630 C626 0.930 . S
H631 C628 0.929 . S
S632 N633 1.613 . S
S632 N634 1.610 . S
N633 S632 1.613 . S
N633 C636 1.350 . S
N634 S632 1.610 . S
N634 C635 1.351 . S
C635 C629 1.428 . S
C635 N634 1.351 . S
C635 C636 1.434 . S
C636 C627 1.429 . S
C636 N633 1.350 . S
C636 C635 1.434 . S
C637 C638 1.369 . S
C637 C639 1.419 . S
C637 H641 0.930 . S
C638 C637 1.369 . S
C638 C647 1.429 . S
C639 C637 1.419 . S
C639 C640 1.363 . S
C639 H642 0.929 . S
C640 C639 1.363 . S
C640 C646 1.428 . S
H641 C637 0.930 . S
H642 C639 0.929 . S
S643 N644 1.613 . S
S643 N645 1.610 . S
N644 S643 1.613 . S
N644 C647 1.350 1_556 S
N645 S643 1.610 . S
N645 C646 1.351 1_556 S
C646 C640 1.428 . S
C646 N645 1.351 1_554 S
C646 C647 1.434 . S
C647 C638 1.429 . S
C647 N644 1.350 1_554 S
C647 C646 1.434 . S
C648 C649 1.369 1_655 S
C648 C650 1.419 . S
C648 H652 0.930 . S
C649 C648 1.369 1_455 S
C649 C658 1.429 . S
C650 C648 1.419 . S
C650 C651 1.363 1_655 S
C650 H653 0.929 . S
C651 C650 1.363 1_455 S
C651 C657 1.428 . S
H652 C648 0.930 . S
H653 C650 0.929 . S
S654 N655 1.613 . S
S654 N656 1.610 . S
N655 S654 1.613 . S
N655 C658 1.350 . S
N656 S654 1.610 . S
N656 C657 1.351 . S
C657 C651 1.428 . S
C657 N656 1.351 . S
C657 C658 1.434 . S
C658 C649 1.429 . S
C658 N655 1.350 . S
C658 C657 1.434 . S
C659 C660 1.369 . S
C659 C661 1.419 . S
C659 H663 0.930 . S
C660 C659 1.369 . S
C660 C669 1.429 . S
C661 C659 1.419 . S
C661 C662 1.363 . S
C661 H664 0.929 . S
C662 C661 1.363 . S
C662 C668 1.428 . S
H663 C659 0.930 . S
H664 C661 0.929 . S
S665 N666 1.613 . S
S665 N667 1.610 . S
N666 S665 1.613 . S
N666 C669 1.350 . S
N667 S665 1.610 . S
N667 C668 1.351 . S
C668 C662 1.428 . S
C668 N667 1.351 . S
C668 C669 1.434 . S
C669 C660 1.429 . S
C669 N666 1.350 . S
C669 C668 1.434 . S
C670 C671 1.369 . S
C670 C672 1.419 . S
C670 H674 0.930 . S
C671 C670 1.369 . S
C671 C680 1.429 . S
C672 C670 1.419 . S
C672 C673 1.363 . S
C672 H675 0.929 . S
C673 C672 1.363 . S
C673 C679 1.428 . S
H674 C670 0.930 . S
H675 C672 0.929 . S
S676 N677 1.613 . S
S676 N678 1.610 . S
N677 S676 1.613 . S
N677 C680 1.350 . S
N678 S676 1.610 . S
N678 C679 1.351 . S
C679 C673 1.428 . S
C679 N678 1.351 . S
C679 C680 1.434 . S
C680 C671 1.429 . S
C680 N677 1.350 . S
C680 C679 1.434 . S
C681 C682 1.369 . S
C681 C683 1.419 . S
C681 H685 0.930 . S
C682 C681 1.369 . S
C682 C691 1.429 . S
C683 C681 1.419 . S
C683 C684 1.363 . S
C683 H686 0.929 . S
C684 C683 1.363 . S
C684 C690 1.428 . S
H685 C681 0.930 . S
H686 C683 0.929 . S
S687 N688 1.613 . S
S687 N689 1.610 . S
N688 S687 1.613 . S
N688 C691 1.350 . S
N689 S687 1.610 . S
N689 C690 1.351 . S
C690 C684 1.428 . S
C690 N689 1.351 . S
C690 C691 1.434 . S
C691 C682 1.429 . S
C691 N688 1.350 . S
C691 C690 1.434 . S
C692 C693 1.369 1_455 S
C692 C694 1.422 . S
C692 H696 0.930 . S
C693 C692 1.369 1_655 S
C693 C702 1.429 . S
C694 C692 1.422 . S
C694 C695 1.347 1_455 S
C694 H697 0.944 . S
C695 C694 1.347 1_655 S
C695 C701 1.428 . S
H696 C692 0.930 . S
H697 C694 0.944 . S
S698 N699 1.613 . S
S698 N700 1.610 . S
N699 S698 1.613 . S
N699 C702 1.350 . S
N700 S698 1.610 . S
N700 C701 1.351 . S
C701 C695 1.428 . S
C701 N700 1.351 . S
C701 C702 1.434 . S
C702 C693 1.429 . S
C702 N699 1.350 . S
C702 C701 1.434 . S
C703 C704 1.367 1_545 S
C703 C705 1.418 1_545 S
C703 H707 0.934 . S
C704 C703 1.367 1_565 S
C704 C713 1.429 . S
C705 C703 1.418 1_565 S
C705 C706 1.363 . S
C705 H708 0.929 1_565 S
C706 C705 1.363 . S
C706 C712 1.428 . S
H707 C703 0.934 . S
H708 C705 0.929 1_545 S
S709 N710 1.613 . S
S709 N711 1.610 . S
N710 S709 1.613 . S
N710 C713 1.350 . S
N711 S709 1.610 . S
N711 C712 1.351 . S
C712 C706 1.428 . S
C712 N711 1.351 . S
C712 C713 1.434 . S
C713 C704 1.429 . S
C713 N710 1.350 . S
C713 C712 1.434 . S
C714 C715 1.369 . S
C714 C716 1.419 . S
C714 H718 0.930 . S
C715 C714 1.369 . S
C715 C724 1.429 . S
C716 C714 1.419 . S
C716 C717 1.363 . S
C716 H719 0.929 . S
C717 C716 1.363 . S
C717 C723 1.428 . S
H718 C714 0.930 . S
H719 C716 0.929 . S
S720 N721 1.613 . S
S720 N722 1.610 . S
N721 S720 1.613 . S
N721 C724 1.350 . S
N722 S720 1.610 . S
N722 C723 1.351 . S
C723 C717 1.428 . S
C723 N722 1.351 . S
C723 C724 1.434 . S
C724 C715 1.429 . S
C724 N721 1.350 . S
C724 C723 1.434 . S
C725 C726 1.369 . S
C725 C727 1.419 . S
C725 H729 0.930 . S
C726 C725 1.369 . S
C726 C735 1.429 . S
C727 C725 1.419 . S
C727 C728 1.363 . S
C727 H730 0.929 . S
C728 C727 1.363 . S
C728 C734 1.428 . S
H729 C725 0.930 . S
H730 C727 0.929 . S
S731 N732 1.613 . S
S731 N733 1.610 . S
N732 S731 1.613 . S
N732 C735 1.350 . S
N733 S731 1.610 . S
N733 C734 1.351 . S
C734 C728 1.428 . S
C734 N733 1.351 . S
C734 C735 1.434 . S
C735 C726 1.429 . S
C735 N732 1.350 . S
C735 C734 1.434 . S
C473 C255 2.528 1_545 S
C475 C321 2.858 1_545 S
C486 C361 2.888 . S
C484 C294 2.526 . S
C497 C401 2.882 . S
C495 C177 2.559 . S
C508 C441 2.868 1_455 S
C506 C216 2.543 1_455 S
C519 C330 2.859 1_564 S
C517 C99 2.530 . S
C528 C138 2.532 . S
C530 C370 2.890 1_554 S
C539 C21 2.555 . S
C541 C410 2.879 1_554 S
C550 C60 2.543 . S
C552 C450 2.866 1_654 S
C563 C327 0.786 . S
C561 C196 0.815 . S
C574 C367 0.802 . S
C572 C235 0.794 . S
C585 C407 0.760 . S
C583 C289 0.767 . S
C594 C157 0.780 . S
C596 C447 0.759 . S
C605 C40 0.819 1_455 S
C607 C318 0.789 . S
C618 C358 0.804 . S
C616 C79 0.790 1_545 S
C629 C398 0.771 . S
C627 C133 0.752 . S
C638 C1 0.775 . S
C640 C438 0.772 . S
C649 C211 3.239 . S
C651 C331 3.751 . S
C660 C250 3.193 . S
C662 C371 3.720 . S
C673 C411 3.716 . S
C671 C274 3.196 . S
C684 C451 3.742 . S
C682 C172 3.213 . S
C693 C55 3.231 1_655 S
C695 C322 3.760 . S
C706 C362 3.720 . S
C704 C94 3.193 1_565 S
C717 C402 3.717 . S
C715 C118 3.209 . S
C726 C16 3.222 . S
C728 C442 3.745 . S
