# Generated by pormake.
# Topology sit, (3,6)-cn, num edge types: 1
# Building blocks:
#     Node 0, Type 0, BuildingBlock: QEWDON_clean_linker_0, # of connection points: 3
#     Node 1, Type 0, BuildingBlock: QEWDON_clean_linker_0, # of connection points: 3
#     Node 2, Type 0, BuildingBlock: QEWDON_clean_linker_0, # of connection points: 3
#     Node 3, Type 0, BuildingBlock: QEWDON_clean_linker_0, # of connection points: 3
#     Node 4, Type 1, BuildingBlock: MIDCAF_clean_sbu_0, # of connection points: 6
#     Node 5, Type 1, BuildingBlock: MIDCAF_clean_sbu_0, # of connection points: 6
#     Edge 6, Type (0, 1), BuildingBlock: FUNLAD_clean_linker_1, # of connection points: 2
#     Edge 7, Type (0, 1), BuildingBlock: FUNLAD_clean_linker_1, # of connection points: 2
#     Edge 8, Type (0, 1), BuildingBlock: FUNLAD_clean_linker_1, # of connection points: 2
#     Edge 9, Type (0, 1), BuildingBlock: FUNLAD_clean_linker_1, # of connection points: 2
#     Edge 10, Type (0, 1), BuildingBlock: FUNLAD_clean_linker_1, # of connection points: 2
#     Edge 11, Type (0, 1), BuildingBlock: FUNLAD_clean_linker_1, # of connection points: 2
#     Edge 12, Type (0, 1), BuildingBlock: FUNLAD_clean_linker_1, # of connection points: 2
#     Edge 13, Type (0, 1), BuildingBlock: FUNLAD_clean_linker_1, # of connection points: 2
#     Edge 14, Type (0, 1), BuildingBlock: FUNLAD_clean_linker_1, # of connection points: 2
#     Edge 15, Type (0, 1), BuildingBlock: FUNLAD_clean_linker_1, # of connection points: 2
#     Edge 16, Type (0, 1), BuildingBlock: FUNLAD_clean_linker_1, # of connection points: 2
#     Edge 17, Type (0, 1), BuildingBlock: FUNLAD_clean_linker_1, # of connection points: 2
# Relax obj value: 0.077
# Max RMSD: 0.184
# Mean RMSD: 0.150
data_MOF--net-sit--node1-MIDCAF_clean_sbu_0--node2-QEWDON_clean_linker_0--edge1-FUNLAD_clean_linker_1
_symmetry_space_group_name_H-M    P1
_symmetry_Int_Tables_number       1
_symmetry_cell_setting            triclinic
loop_
_symmetry_equiv_pos_as_xyz
'x, y, z'
_cell_length_a     21.868358
_cell_length_b     36.105779
_cell_length_c     41.15571
_cell_angle_alpha  89.52784
_cell_angle_beta   85.476974
_cell_angle_gamma 82.912522
loop_
_atom_site_label
_atom_site_type_symbol
_atom_site_fract_x
_atom_site_fract_y
_atom_site_fract_z
_atom_type_partial_charge
H0 H 0.20136 0.3353 0.01869 0.0
C1 C 0.15254 0.34432 0.01707 0.0
C2 C 0.13346 0.38012 0.00524 0.0
C3 C 0.10938 0.31886 0.02404 0.0
H4 H 0.0573 0.4177 0.9906 0.0
C5 C 0.07089 0.39084 1.00154 0.0
C6 C 0.02694 0.36616 0.00875 0.0
C7 C 0.04646 0.33009 0.01997 0.0
C8 C 0.1313 0.27926 0.03112 0.0
H9 H 0.01332 0.31017 0.02374 0.0
C10 C 0.10511 0.26045 0.05787 0.0
C11 C 0.12635 0.22277 0.06411 0.0
C12 C 0.17866 0.25992 0.01049 0.0
H13 H 0.19911 0.27358 0.98953 0.0
C14 C 0.19978 0.22268 0.01647 0.0
H15 H 0.06888 0.27528 0.07404 0.0
C16 C 0.17423 0.2042 0.04312 0.0
H17 H 0.19348 0.17574 0.04759 0.0
H18 H 0.2366 0.20815 1.00053 0.0
H19 H 0.10094 0.70329 0.08146 0.0
C20 C 0.06543 0.692 0.06903 0.0
C21 C 0.0817 0.67144 0.0401 0.0
C22 C 0.00375 0.69665 0.08257 0.0
H23 H 0.04672 0.64299 1.00095 0.0
C24 C 0.03545 0.6567 0.0243 0.0
C25 C 0.97393 0.66135 0.03726 0.0
C26 C 0.95821 0.6817 0.06615 0.0
C27 C -0.01321 0.71466 0.1149 0.0
H28 H 0.91038 0.68564 0.07601 0.0
C29 C 0.00593 0.74927 0.1227 0.0
C30 C -0.0119 0.76572 0.15362 0.0
C31 C 0.95061 0.69663 0.13833 0.0
H32 H 0.93601 0.66983 0.13315 0.0
C33 C 0.93358 0.71258 0.16886 0.0
H34 H 0.03409 0.76303 0.10474 0.0
C35 C 0.95213 0.74677 0.17647 0.0
H36 H 0.938 0.75855 0.20042 0.0
H37 H 0.90589 0.69836 0.18674 0.0
H38 H 0.66521 0.80478 0.51606 0.0
C39 C 0.62014 0.8213 0.51807 0.0
C40 C 0.61547 0.85998 0.51287 0.0
C41 C 0.56691 0.80329 0.52319 0.0
H42 H 0.55318 0.91054 0.50994 0.0
C43 C 0.55673 0.88087 0.51437 0.0
C44 C 0.50285 0.86317 0.51866 0.0
C45 C 0.50846 0.82433 0.52348 0.0
C46 C 0.5725 0.76208 0.52222 0.0
H47 H 0.46742 0.81012 0.5253 0.0
C48 C 0.55669 0.74111 0.54993 0.0
C49 C 0.56227 0.70173 0.54816 0.0
C50 C 0.59325 0.74365 0.49278 0.0
H51 H 0.6055 0.75938 0.4712 0.0
C52 C 0.59733 0.70489 0.49077 0.0
H53 H 0.54011 0.75549 0.57251 0.0
C54 C 0.58168 0.68406 0.5182 0.0
H55 H 0.58584 0.65393 0.51613 0.0
H56 H 0.61287 0.69092 0.46789 0.0
H57 H 0.58282 0.23394 0.56169 0.0
C58 C 0.54979 0.22306 0.54721 0.0
C59 C 0.57005 0.19319 0.52571 0.0
C60 C 0.48688 0.23811 0.55034 0.0
H61 H 0.54474 0.15726 0.48919 0.0
C62 C 0.52772 0.17875 0.50692 0.0
C63 C 0.46531 0.19355 0.50924 0.0
C64 C 0.44568 0.22349 0.53055 0.0
C65 C 0.46278 0.26863 0.57413 0.0
H66 H 0.39777 0.2357 0.53135 0.0
C67 C 0.49824 0.2972 0.58177 0.0
C68 C 0.47239 0.32675 0.6027 0.0
C69 C 0.40238 0.2695 0.58919 0.0
H70 H 0.3745 0.2474 0.58532 0.0
C71 C 0.37692 0.2987 0.6098 0.0
H72 H 0.5451 0.29709 0.57103 0.0
C73 C 0.41137 0.32725 0.61638 0.0
H74 H 0.39094 0.34903 0.63321 0.0
H75 H 0.33043 0.29895 0.62106 0.0
Zn76 Zn 0.04047 0.10603 0.34502 0.0
Zn77 Zn 0.08612 0.95525 0.34993 0.0
Zn78 Zn 0.06203 0.02955 0.34462 0.0
C79 C 0.07971 0.97341 0.28305 0.0
C80 C 0.96975 0.97713 0.38219 0.0
O81 O 0.13978 0.05211 0.3651 0.0
O82 O 0.11835 0.11373 0.36483 0.0
C83 C 0.05064 0.07898 0.27944 0.0
O84 O 0.06736 1.00697 0.29423 0.0
O85 O 0.09155 0.94646 0.3023 0.0
O86 O 0.0078 0.94833 0.37601 0.0
O87 O -0.01769 1.00941 0.37218 0.0
O88 O 0.03901 0.10824 0.29667 0.0
O89 O 0.06069 0.04675 0.29303 0.0
O90 O 0.97518 0.04849 0.37429 0.0
O91 O 0.96266 0.11029 0.37395 0.0
C92 C 0.94473 0.07988 0.38375 0.0
O93 O 0.14587 1.0135 0.3712 0.0
O94 O 0.16152 0.95186 0.37362 0.0
C95 C 0.15417 0.08478 0.37105 0.0
C96 C 0.17664 0.9832 0.38088 0.0
Zn97 Zn 0.57644 0.61876 0.84698 0.0
Zn98 Zn 0.58718 0.46795 0.83632 0.0
Zn99 Zn 0.57867 0.54294 0.84031 0.0
C100 C 0.58524 0.49551 0.7727 0.0
C101 C 0.47803 0.49442 0.87462 0.0
O102 O 0.66209 0.55553 0.86313 0.0
O103 O 0.65305 0.61682 0.86997 0.0
C104 C 0.58016 0.59965 0.77967 0.0
O105 O 0.57792 0.52699 0.78801 0.0
O106 O 0.59334 0.46524 0.78829 0.0
O107 O 0.50578 0.46493 0.86132 0.0
O108 O 0.49894 0.52588 0.86949 0.0
O109 O 0.5822 0.62649 0.79888 0.0
O110 O 0.57751 0.56626 0.79054 0.0
O111 O 0.49398 0.56508 0.86961 0.0
O112 O 0.49512 0.62617 0.87342 0.0
C113 C 0.46915 0.59735 0.88016 0.0
O114 O 0.65918 0.5167 0.86482 0.0
O115 O 0.66175 0.4554 0.86065 0.0
C116 C 0.68282 0.58492 0.87326 0.0
C117 C 0.68331 0.48336 0.87136 0.0
H118 H 0.08171 0.22215 0.11432 0.0
C119 C 0.10134 0.20438 0.09395 0.0
H120 H 0.12183 0.14847 0.07732 0.0
H121 H 0.16862 0.08934 0.21984 0.0
H122 H 0.27151 0.07921 0.19289 0.0
H123 H 0.29224 0.10066 0.13652 0.0
H124 H 0.21003 0.13275 0.10692 0.0
C125 C 0.10372 0.16705 0.09731 0.0
C126 C 0.08866 0.14977 0.1295 0.0
C127 C 0.13677 0.1297 0.14606 0.0
C128 C 0.12453 0.1167 0.17841 0.0
C129 C 0.17445 0.0989 0.19501 0.0
C130 C 0.23408 0.09306 0.17986 0.0
C131 C 0.24577 0.10517 0.14814 0.0
C132 C 0.19801 0.12349 0.1314 0.0
H133 H 0.06784 0.0577 0.22856 0.0
C134 C 0.05639 0.08263 0.24349 0.0
H135 H 0.03951 0.14153 0.24431 0.0
H136 H -0.01561 0.18146 0.1025 0.0
H137 H 0.88009 0.18966 0.12861 0.0
H138 H 0.85864 0.16719 0.18464 0.0
H139 H 0.94131 0.1362 0.21485 0.0
C140 C 0.05225 0.11663 0.22943 0.0
C141 C 0.06371 0.12302 0.1938 0.0
C142 C 0.01497 0.14095 0.17637 0.0
C143 C 0.02737 0.15421 0.14417 0.0
C144 C -0.02234 0.17161 0.12727 0.0
C145 C 0.91755 0.17628 0.14189 0.0
C146 C 0.90547 0.16362 0.17344 0.0
C147 C 0.95338 0.14606 0.19056 0.0
H148 H -0.00273 0.80873 0.18988 0.0
C149 C 0.00585 0.80207 0.16403 0.0
H150 H 0.03954 0.82322 0.11854 0.0
H151 H 0.96458 0.95504 0.23505 0.0
H152 H 0.85918 0.94953 0.22374 0.0
H153 H 0.8366 0.90578 0.18181 0.0
H154 H 0.92003 0.86668 0.15131 0.0
C155 C 0.02923 0.82786 0.1445 0.0
C156 C 0.04292 0.86324 0.1594 0.0
C157 C -0.00565 0.8876 0.17551 0.0
C158 C 0.00765 0.91362 0.19897 0.0
C159 C 0.9577 0.93532 0.21655 0.0
C160 C 0.89675 0.93244 0.21027 0.0
C161 C 0.88401 0.90776 0.1867 0.0
C162 C 0.93209 0.88543 0.16951 0.0
H163 H 0.05821 0.98727 0.23195 0.0
C164 C 0.0748 0.96504 0.24817 0.0
H165 H 0.10298 0.90749 0.25381 0.0
H166 H 0.1463 0.82769 0.12626 0.0
H167 H 0.25269 0.83733 0.13339 0.0
H168 H 0.27606 0.88365 0.17295 0.0
H169 H 0.19304 0.9206 0.20577 0.0
C170 C 0.08451 0.92934 0.23767 0.0
C171 C 0.06993 0.91589 0.20538 0.0
C172 C 0.11833 0.89576 0.18538 0.0
C173 C 0.10487 0.8693 0.16238 0.0
C174 C 0.15428 0.8482 0.14398 0.0
C175 C 0.21537 0.85352 0.14781 0.0
C176 C 0.22854 0.8796 0.17011 0.0
C177 C 0.18073 0.90046 0.18884 0.0
H178 H 0.53655 0.65018 0.57231 0.0
C179 C 0.54882 0.67788 0.57682 0.0
H180 H 0.57094 0.71421 0.61299 0.0
H181 H 0.4385 0.64056 0.73345 0.0
H182 H 0.36265 0.69424 0.7255 0.0
H183 H 0.37069 0.73293 0.67601 0.0
H184 H 0.4548 0.71831 0.63421 0.0
C185 C 0.55744 0.68715 0.60752 0.0
C186 C 0.54882 0.66096 0.63523 0.0
C187 C 0.4989 0.66951 0.65916 0.0
C188 C 0.494 0.64705 0.68759 0.0
C189 C 0.44435 0.65668 0.7114 0.0
C190 C 0.40045 0.68736 0.70711 0.0
C191 C 0.40499 0.70916 0.67924 0.0
C192 C 0.45355 0.7005 0.65548 0.0
H193 H 0.61523 0.62739 0.73586 0.0
C194 C 0.58353 0.60787 0.74462 0.0
H195 H 0.50573 0.58225 0.73401 0.0
H196 H 0.64986 0.63558 0.59381 0.0
H197 H 0.72119 0.5796 0.60042 0.0
H198 H 0.70923 0.53923 0.64861 0.0
H199 H 0.62621 0.55516 0.69083 0.0
C200 C 0.5422 0.59835 0.72482 0.0
C201 C 0.53929 0.61623 0.69214 0.0
C202 C 0.58653 0.60602 0.66717 0.0
C203 C 0.59201 0.62868 0.63887 0.0
C204 C 0.642 0.61885 0.61528 0.0
C205 C 0.6836 0.58684 0.61886 0.0
C206 C 0.67701 0.56417 0.64604 0.0
C207 C 0.62935 0.57365 0.6701 0.0
H208 H 0.55331 0.34549 0.62366 0.0
C209 C 0.51006 0.35527 0.61327 0.0
H210 H 0.44417 0.40079 0.60439 0.0
H211 H 0.46627 0.47469 0.74033 0.0
H212 H 0.35815 0.46714 0.74132 0.0
H213 H 0.31688 0.43752 0.69538 0.0
H214 H 0.38369 0.41509 0.64846 0.0
C215 C 0.4869 0.39162 0.61549 0.0
C216 C 0.50941 0.41723 0.639 0.0
C217 C 0.46865 0.43201 0.66568 0.0
C218 C 0.49225 0.44967 0.69201 0.0
C219 C 0.45124 0.46174 0.71933 0.0
C220 C 0.38874 0.45749 0.72031 0.0
C221 C 0.36554 0.4408 0.69448 0.0
C222 C 0.40474 0.42798 0.66757 0.0
H223 H 0.55404 0.51821 0.72564 0.0
C224 C 0.57602 0.49374 0.7375 0.0
H225 H 0.60737 0.43614 0.73353 0.0
H226 H 0.59579 0.40134 0.58784 0.0
H227 H 0.70324 0.4132 0.58507 0.0
H228 H 0.74399 0.4439 0.63072 0.0
H229 H 0.67745 0.46305 0.67945 0.0
C230 C 0.58433 0.46058 0.72195 0.0
C231 C 0.55623 0.45341 0.69118 0.0
C232 C 0.5952 0.44258 0.66289 0.0
C233 C 0.57181 0.42456 0.63671 0.0
C234 C 0.61178 0.41427 0.60869 0.0
C235 C 0.6733 0.42117 0.60673 0.0
C236 C 0.69626 0.43847 0.63244 0.0
C237 C 0.65784 0.44911 0.66029 0.0
H238 H 0.16717 0.41769 0.96761 0.0
C239 C 0.1783 0.404 0.99043 0.0
H240 H 0.24366 0.39496 0.02545 0.0
H241 H 0.46673 0.40531 0.91941 0.0
H242 H 0.49485 0.34603 0.94561 0.0
H243 H 0.42467 0.32221 0.98849 0.0
H244 H 0.3267 0.35779 0.0058 0.0
C245 C 0.23223 0.40815 0.00254 0.0
C246 C 0.27991 0.42605 0.98218 0.0
C247 C 0.33702 0.40466 0.97236 0.0
C248 C 0.37656 0.41784 0.94694 0.0
C249 C 0.43393 0.39619 0.93791 0.0
C250 C 0.45089 0.36216 0.95288 0.0
C251 C 0.41145 0.34879 0.97705 0.0
C252 C 0.35514 0.3696 0.98674 0.0
H253 H 0.41796 0.5126 0.91863 0.0
C254 C 0.4265 0.49168 0.89947 0.0
H255 H 0.40594 0.44047 0.88205 0.0
H256 H 0.18431 0.47874 0.00251 0.0
H257 H 0.15593 0.53873 0.97675 0.0
H258 H 0.21762 0.5583 0.92826 0.0
H259 H 0.30895 0.51914 0.9061 0.0
C260 C 0.39585 0.46164 0.90101 0.0
C261 C 0.35818 0.45185 0.93081 0.0
C262 C 0.30331 0.47462 0.94234 0.0
C263 C 0.26542 0.46223 0.96892 0.0
C264 C 0.21288 0.48625 0.98139 0.0
C265 C 0.19639 0.52074 0.967 0.0
C266 C 0.23134 0.53188 0.93982 0.0
C267 C 0.28404 0.50916 0.92745 0.0
H268 H 0.88054 0.66424 0.01971 0.0
C269 C 0.92524 0.64725 0.01946 0.0
H270 H -0.0207 0.59764 0.00243 0.0
H271 H 0.68481 0.5972 0.96369 0.0
H272 H 0.65782 0.59381 0.0219 0.0
H273 H 0.73742 0.59445 0.06113 0.0
H274 H 0.84444 0.59882 0.04231 0.0
C275 C 0.93539 0.6153 0.00209 0.0
C276 C 0.89039 0.60585 0.97911 0.0
C277 C 0.82857 0.60226 0.99048 0.0
C278 C 0.78304 0.60122 0.96786 0.0
C279 C 0.72127 0.59834 0.97985 0.0
C280 C 0.7052 0.59616 0.01318 0.0
C281 C 0.74999 0.59657 0.03527 0.0
C282 C 0.81108 0.59944 0.02418 0.0
H283 H 0.76972 0.55513 0.88971 0.0
C284 C 0.73899 0.58113 0.89122 0.0
H285 H 0.71787 0.63375 0.91399 0.0
H286 H 0.00763 0.60405 0.94916 0.0
H287 H 0.03583 0.60171 0.89107 0.0
H288 H 0.95639 0.60163 0.8518 0.0
H289 H 0.8483 0.60269 0.87045 0.0
C290 C 0.75016 0.60836 0.91113 0.0
C291 C 0.79975 0.60299 0.93396 0.0
C292 C 0.86267 0.60259 0.92252 0.0
C293 C 0.9083 0.60353 0.94521 0.0
C294 C 0.97085 0.60347 0.93317 0.0
C295 C -0.01224 0.6023 0.89982 0.0
C296 C 0.94303 0.60213 0.87771 0.0
C297 C 0.8811 0.60256 0.88876 0.0
H298 H 0.94416 0.35431 0.98539 0.0
C299 C 0.96364 0.37568 0.99829 0.0
H300 H 0.95386 0.4319 0.01303 0.0
H301 H 0.84763 0.48673 0.88055 0.0
H302 H 0.93651 0.51991 0.88295 0.0
H303 H 0.00291 0.51046 0.92874 0.0
H304 H -0.01827 0.46692 0.97176 0.0
C305 C 0.93487 0.4109 0.99948 0.0
C306 C 0.88635 0.42339 0.97693 0.0
C307 C 0.89811 0.45043 0.95266 0.0
C308 C 0.85833 0.45717 0.92695 0.0
C309 C 0.8741 0.48192 0.90158 0.0
C310 C 0.92552 0.50098 0.90245 0.0
C311 C 0.96306 0.49549 0.92813 0.0
C312 C 0.95022 0.47027 0.95276 0.0
H313 H 0.73853 0.50144 0.90946 0.0
C314 C 0.73159 0.47794 0.89453 0.0
H315 H 0.75493 0.42025 0.88585 0.0
H316 H 0.84343 0.37679 0.0237 0.0
H317 H 0.7499 0.34688 0.02366 0.0
H318 H 0.68036 0.35867 0.97933 0.0
H319 H 0.70371 0.40044 0.93493 0.0
C320 C 0.76341 0.44444 0.8996 0.0
C321 C 0.80511 0.43833 0.92655 0.0
C322 C 0.79102 0.41344 0.95215 0.0
C323 C 0.83146 0.40618 0.97748 0.0
C324 C 0.81531 0.38219 0.00329 0.0
C325 C 0.76148 0.36516 0.00373 0.0
C326 C 0.7223 0.37184 0.9788 0.0
C327 C 0.73648 0.39578 0.95334 0.0
H328 H 0.17379 0.68986 0.02739 0.0
C329 C 0.14626 0.66703 0.02523 0.0
H330 H 0.14325 0.61328 0.00578 0.0
H331 H 0.3082 0.6377 0.87774 0.0
H332 H 0.20664 0.64262 0.85731 0.0
H333 H 0.11299 0.64499 0.89509 0.0
H334 H 0.12034 0.64187 0.95344 0.0
C335 C 0.16976 0.63663 0.00753 0.0
C336 C 0.22671 0.63604 0.98534 0.0
C337 C 0.22153 0.63717 0.95118 0.0
C338 C 0.27548 0.63569 0.92939 0.0
C339 C 0.26888 0.6379 0.89542 0.0
C340 C 0.21078 0.64095 0.88333 0.0
C341 C 0.15805 0.64222 0.90459 0.0
C342 C 0.16302 0.6404 0.9381 0.0
H343 H 0.38501 0.57657 0.90288 0.0
C344 C 0.4111 0.60034 0.90122 0.0
H345 H 0.41825 0.65423 0.91912 0.0
H346 H 0.25273 0.63131 0.04933 0.0
H347 H 0.35448 0.62658 0.06981 0.0
H348 H 0.44817 0.62475 0.03201 0.0
H349 H 0.44072 0.62748 0.97349 0.0
C350 C 0.39113 0.63095 0.91921 0.0
C351 C 0.33449 0.63273 0.94182 0.0
C352 C 0.33966 0.63183 0.97596 0.0
C353 C 0.28566 0.63324 0.99778 0.0
C354 C 0.29219 0.63105 0.03171 0.0
C355 C 0.35034 0.62815 0.04378 0.0
C356 C 0.40309 0.62711 0.0225 0.0
C357 C 0.39814 0.62879 0.98896 0.0
H358 H 0.71649 0.86231 0.50802 0.0
C359 C 0.67223 0.87688 0.50206 0.0
H360 H 0.62919 0.92025 0.47325 0.0
H361 H 0.87182 1.00267 0.45924 0.0
H362 H 0.80652 0.04506 0.49638 0.0
H363 H 0.7049 0.0297 0.51902 0.0
H364 H 0.66884 0.97114 0.50536 0.0
C365 C 0.67197 0.90576 0.48108 0.0
C366 C 0.73038 0.91663 0.4651 0.0
C367 C 0.74976 0.95141 0.47252 0.0
C368 C 0.8073 0.96092 0.45847 0.0
C369 C 0.82738 0.99476 0.46798 0.0
C370 C 0.79055 1.01922 0.48954 0.0
C371 C 0.73343 1.01049 0.50239 0.0
C372 C 0.71325 0.97687 0.4943 0.0
H373 H 0.87045 0.99343 0.39651 0.0
C374 C 0.91035 0.97335 0.4006 0.0
H375 H 0.94499 0.92481 0.42521 0.0
H376 H 0.7015 0.85054 0.44143 0.0
H377 H 0.76412 0.80954 0.4023 0.0
H378 H 0.86385 0.8259 0.37784 0.0
H379 H 0.90127 0.88344 0.39229 0.0
C380 C 0.90485 0.94487 0.42139 0.0
C381 C 0.84394 0.93619 0.43599 0.0
C382 C 0.82317 0.90208 0.42755 0.0
C383 C 0.76612 0.89241 0.44194 0.0
C384 C 0.74542 0.85881 0.43213 0.0
C385 C 0.78067 0.8351 0.40942 0.0
C386 C 0.83675 0.84432 0.39563 0.0
C387 C 0.85783 0.87743 0.40433 0.0
H388 H 0.37587 0.19736 0.48709 0.0
C389 C 0.41986 0.17993 0.48857 0.0
H390 H 0.4705 0.12784 0.47392 0.0
H391 H 0.21882 0.06607 0.44729 0.0
H392 H 0.25585 1.02494 0.49019 0.0
H393 H 0.35157 0.03384 0.51547 0.0
H394 H 0.40979 0.08467 0.49851 0.0
C395 C 0.42937 0.14751 0.47184 0.0
C396 C 0.38118 0.13667 0.45149 0.0
C397 C 0.34952 0.1058 0.46069 0.0
C398 C 0.29597 0.09958 0.44503 0.0
C399 C 0.26183 0.07071 0.45684 0.0
C400 C 0.28211 0.0472 0.48184 0.0
C401 C 0.33586 0.05231 0.49616 0.0
C402 C 0.36892 0.08153 0.48612 0.0
H403 H 0.24921 0.0654 0.38382 0.0
C404 C 0.21205 0.08835 0.38612 0.0
H405 H 0.18191 0.14197 0.40556 0.0
H406 H 0.44033 0.19275 0.42322 0.0
H407 H 0.40855 0.23083 0.37722 0.0
H408 H 0.3163 0.21984 0.34958 0.0
H409 H 0.25551 0.17066 0.3677 0.0
C410 C 0.21861 0.11869 0.40354 0.0
C411 C 0.27662 0.12299 0.4189 0.0
C412 C 0.31136 0.15201 0.40808 0.0
C413 C 0.36394 0.15871 0.42426 0.0
C414 C 0.39878 0.18727 0.41246 0.0
C415 C 0.38139 0.20911 0.38588 0.0
C416 C 0.32951 0.20289 0.3703 0.0
C417 C 0.29487 0.17464 0.38106 0.0
H418 H 0.4102 0.86643 0.50077 0.0
C419 C 0.44201 0.8831 0.51117 0.0
H420 H 0.4581 0.9379 0.52274 0.0
H421 H 0.34243 0.99434 0.39214 0.0
H422 H 0.44195 1.01762 0.38765 0.0
H423 H 0.51394 1.00516 0.43078 0.0
H424 H 0.48674 0.96934 0.47861 0.0
C425 C 0.42818 0.92054 0.51182 0.0
C426 C 0.3787 0.93867 0.49202 0.0
C427 C 0.39488 0.96067 0.46466 0.0
C428 C 0.35308 0.96825 0.43993 0.0
C429 C 0.37162 0.98843 0.41199 0.0
C430 C 0.42886 1.00184 0.40902 0.0
C431 C 0.46941 0.99479 0.43328 0.0
C432 C 0.45318 0.97412 0.46065 0.0
H433 H 0.23165 1.01199 0.41324 0.0
C434 C 0.22507 0.98509 0.40361 0.0
H435 H 0.24754 0.92681 0.40683 0.0
H436 H 0.32739 0.90719 0.54633 0.0
H437 H 0.22282 0.89027 0.55418 0.0
H438 H 0.15018 0.90288 0.5113 0.0
H439 H 0.18137 0.9326 0.4605 0.0
C440 C 0.25625 0.95403 0.41515 0.0
C441 C 0.29496 0.95443 0.44321 0.0
C442 C 0.2758 0.9372 0.47272 0.0
C443 C 0.31762 0.92959 0.49727 0.0
C444 C 0.29746 0.91266 0.52665 0.0
C445 C 0.23761 0.90311 0.53151 0.0
C446 C 0.19671 0.91023 0.50738 0.0
C447 C 0.21529 0.92709 0.47827 0.0
H448 H 0.66742 0.19925 0.5114 0.0
C449 C 0.63637 0.17917 0.51954 0.0
H450 H 0.62335 0.12293 0.5258 0.0
H451 H 0.77861 0.07483 0.39444 0.0
H452 H 0.68245 0.04957 0.38975 0.0
H453 H 0.59791 0.05944 0.43325 0.0
H454 H 0.60902 0.09467 0.48144 0.0
C455 C 0.65519 0.14226 0.51702 0.0
C456 C 0.71104 0.12782 0.49551 0.0
C457 C 0.70414 0.10587 0.46779 0.0
C458 C 0.75343 0.09939 0.44296 0.0
C459 C 0.7439 0.07952 0.41461 0.0
C460 C 0.68854 0.06505 0.41143 0.0
C461 C 0.64093 0.07068 0.43587 0.0
C462 C 0.64808 0.09113 0.46355 0.0
H463 H 0.88004 0.05402 0.4184 0.0
C464 C 0.89135 0.0803 0.40812 0.0
H465 H 0.87169 0.13894 0.40991 0.0
H466 H 0.74456 0.16091 0.54968 0.0
H467 H 0.84458 0.18112 0.55698 0.0
H468 H 0.92989 0.17055 0.51385 0.0
H469 H 0.91593 0.13952 0.46336 0.0
C470 C 0.8589 0.11241 0.41907 0.0
C471 C 0.81003 0.11383 0.4465 0.0
C472 C 0.81887 0.13223 0.47578 0.0
C473 C 0.76951 0.1389 0.50043 0.0
C474 C 0.78005 0.15639 0.52978 0.0
C475 C 0.83733 0.16777 0.53438 0.0
C476 C 0.88537 0.16178 0.51011 0.0
C477 C 0.87661 0.14413 0.48116 0.0
loop_
_geom_bond_atom_site_label_1
_geom_bond_atom_site_label_2
_geom_bond_distance
_geom_bond_site_symmetry_2
_ccdc_geom_bond_type
H0 C1 0.949 . S
C1 H0 0.949 . S
C1 C2 1.395 1_554 S
C1 C3 1.391 . S
C2 C1 1.395 1_556 S
C2 C5 1.390 . S
C3 C1 1.391 . S
C3 C7 1.387 . S
C3 C8 1.491 . S
H4 C5 0.950 . S
C5 C2 1.390 . S
C5 H4 0.950 . S
C5 C6 1.378 . S
C6 C5 1.378 . S
C6 C7 1.409 1_556 S
C7 C3 1.387 . S
C7 C6 1.409 1_554 S
C7 H9 0.951 . S
C8 C3 1.491 . S
C8 C10 1.382 . S
C8 C12 1.404 . S
H9 C7 0.951 . S
C10 C8 1.382 . S
C10 C11 1.390 . S
C10 H15 0.949 . S
C11 C10 1.390 . S
C11 C16 1.399 . S
C12 C8 1.404 . S
C12 H13 0.950 . S
C12 C14 1.375 . S
H13 C12 0.950 . S
C14 C12 1.375 . S
C14 C16 1.382 . S
C14 H18 0.950 . S
H15 C10 0.949 . S
C16 C11 1.399 . S
C16 C14 1.382 . S
C16 H17 0.952 . S
H17 C16 0.952 . S
H18 C14 0.950 . S
H19 C20 0.949 . S
C20 H19 0.949 . S
C20 C21 1.395 1_554 S
C20 C22 1.391 1_455 S
C21 C20 1.395 1_556 S
C21 C24 1.390 . S
C22 C20 1.391 1_655 S
C22 C26 1.387 . S
C22 C27 1.491 . S
H23 C24 0.950 . S
C24 C21 1.390 . S
C24 H23 0.950 . S
C24 C25 1.378 1_455 S
C25 C24 1.378 1_655 S
C25 C26 1.409 1_556 S
C26 C22 1.387 . S
C26 C25 1.409 1_554 S
C26 H28 0.951 . S
C27 C22 1.491 . S
C27 C29 1.382 1_655 S
C27 C31 1.404 . S
H28 C26 0.951 . S
C29 C27 1.382 1_455 S
C29 C30 1.390 1_455 S
C29 H34 0.949 . S
C30 C29 1.390 1_655 S
C30 C35 1.399 . S
C31 C27 1.404 . S
C31 H32 0.950 . S
C31 C33 1.375 . S
H32 C31 0.950 . S
C33 C31 1.375 . S
C33 C35 1.382 . S
C33 H37 0.950 . S
H34 C29 0.949 . S
C35 C30 1.399 . S
C35 C33 1.382 . S
C35 H36 0.952 . S
H36 C35 0.952 . S
H37 C33 0.950 . S
H38 C39 0.949 . S
C39 H38 0.949 . S
C39 C40 1.395 . S
C39 C41 1.391 . S
C40 C39 1.395 . S
C40 C43 1.390 . S
C41 C39 1.391 . S
C41 C45 1.387 . S
C41 C46 1.491 . S
H42 C43 0.950 . S
C43 C40 1.390 . S
C43 H42 0.950 . S
C43 C44 1.378 . S
C44 C43 1.378 . S
C44 C45 1.409 . S
C45 C41 1.387 . S
C45 C44 1.409 . S
C45 H47 0.951 . S
C46 C41 1.491 . S
C46 C48 1.382 . S
C46 C50 1.404 . S
H47 C45 0.951 . S
C48 C46 1.382 . S
C48 C49 1.390 . S
C48 H53 0.949 . S
C49 C48 1.390 . S
C49 C54 1.399 . S
C50 C46 1.404 . S
C50 H51 0.950 . S
C50 C52 1.375 . S
H51 C50 0.950 . S
C52 C50 1.375 . S
C52 C54 1.382 . S
C52 H56 0.950 . S
H53 C48 0.949 . S
C54 C49 1.399 . S
C54 C52 1.382 . S
C54 H55 0.952 . S
H55 C54 0.952 . S
H56 C52 0.950 . S
H57 C58 0.949 . S
C58 H57 0.949 . S
C58 C59 1.395 . S
C58 C60 1.391 . S
C59 C58 1.395 . S
C59 C62 1.390 . S
C60 C58 1.391 . S
C60 C64 1.387 . S
C60 C65 1.491 . S
H61 C62 0.950 . S
C62 C59 1.390 . S
C62 H61 0.950 . S
C62 C63 1.378 . S
C63 C62 1.378 . S
C63 C64 1.409 . S
C64 C60 1.387 . S
C64 C63 1.409 . S
C64 H66 0.951 . S
C65 C60 1.491 . S
C65 C67 1.382 . S
C65 C69 1.404 . S
H66 C64 0.951 . S
C67 C65 1.382 . S
C67 C68 1.390 . S
C67 H72 0.949 . S
C68 C67 1.390 . S
C68 C73 1.399 . S
C69 C65 1.404 . S
C69 H70 0.950 . S
C69 C71 1.375 . S
H70 C69 0.950 . S
C71 C69 1.375 . S
C71 C73 1.382 . S
C71 H75 0.950 . S
H72 C67 0.949 . S
C73 C68 1.399 . S
C73 C71 1.382 . S
C73 H74 0.952 . S
H74 C73 0.952 . S
H75 C71 0.950 . S
Zn76 O82 1.920 . S
Zn76 O88 1.898 . S
Zn76 O91 1.905 1_455 S
Zn77 O85 1.905 . S
Zn77 O86 1.898 . S
Zn77 O94 1.920 . S
Zn78 O81 2.080 . S
Zn78 O84 2.114 1_545 S
Zn78 O87 2.120 1_545 S
Zn78 O89 2.120 . S
Zn78 O90 2.114 1_455 S
Zn78 O93 2.080 1_545 S
C79 O84 1.166 . S
C79 O85 1.182 . S
C80 O86 1.167 . S
C80 O87 1.299 . S
O81 Zn78 2.080 . S
O81 C95 1.305 . S
O82 Zn76 1.920 . S
O82 C95 1.234 . S
C83 O88 1.167 . S
C83 O89 1.299 . S
O84 Zn78 2.114 1_565 S
O84 C79 1.166 . S
O85 Zn77 1.905 . S
O85 C79 1.182 . S
O86 Zn77 1.898 . S
O86 C80 1.167 . S
O87 Zn78 2.120 1_565 S
O87 C80 1.299 . S
O88 Zn76 1.898 . S
O88 C83 1.167 . S
O89 Zn78 2.120 . S
O89 C83 1.299 . S
O90 Zn78 2.114 1_655 S
O90 C92 1.166 . S
O91 Zn76 1.905 1_655 S
O91 C92 1.182 . S
C92 O90 1.166 . S
C92 O91 1.182 . S
O93 Zn78 2.080 1_565 S
O93 C96 1.305 . S
O94 Zn77 1.920 . S
O94 C96 1.234 . S
C95 O81 1.305 . S
C95 O82 1.234 . S
C96 O93 1.305 . S
C96 O94 1.234 . S
Zn97 O103 1.920 . S
Zn97 O109 1.898 . S
Zn97 O112 1.905 . S
Zn98 O106 1.905 . S
Zn98 O107 1.898 . S
Zn98 O115 1.920 . S
Zn99 O102 2.080 . S
Zn99 O105 2.114 . S
Zn99 O108 2.120 . S
Zn99 O110 2.120 . S
Zn99 O111 2.114 . S
Zn99 O114 2.080 . S
C100 O105 1.166 . S
C100 O106 1.182 . S
C101 O107 1.167 . S
C101 O108 1.299 . S
O102 Zn99 2.080 . S
O102 C116 1.305 . S
O103 Zn97 1.920 . S
O103 C116 1.234 . S
C104 O109 1.167 . S
C104 O110 1.299 . S
O105 Zn99 2.114 . S
O105 C100 1.166 . S
O106 Zn98 1.905 . S
O106 C100 1.182 . S
O107 Zn98 1.898 . S
O107 C101 1.167 . S
O108 Zn99 2.120 . S
O108 C101 1.299 . S
O109 Zn97 1.898 . S
O109 C104 1.167 . S
O110 Zn99 2.120 . S
O110 C104 1.299 . S
O111 Zn99 2.114 . S
O111 C113 1.166 . S
O112 Zn97 1.905 . S
O112 C113 1.182 . S
C113 O111 1.166 . S
C113 O112 1.182 . S
O114 Zn99 2.080 . S
O114 C117 1.305 . S
O115 Zn98 1.920 . S
O115 C117 1.234 . S
C116 O102 1.305 . S
C116 O103 1.234 . S
C117 O114 1.305 . S
C117 O115 1.234 . S
H118 C119 0.951 . S
C119 H118 0.951 . S
C119 C125 1.265 . S
H120 C125 0.950 . S
H121 C129 0.949 . S
H122 C130 0.950 . S
H123 C131 0.951 . S
H124 C132 0.951 . S
C125 C119 1.265 . S
C125 H120 0.950 . S
C125 C126 1.478 . S
C126 C125 1.478 . S
C126 C127 1.397 . S
C126 C143 1.394 . S
C127 C126 1.397 . S
C127 C128 1.438 . S
C127 C132 1.429 . S
C128 C127 1.438 . S
C128 C129 1.428 . S
C128 C141 1.394 . S
C129 H121 0.949 . S
C129 C128 1.428 . S
C129 C130 1.345 . S
C130 H122 0.950 . S
C130 C129 1.345 . S
C130 C131 1.424 . S
C131 H123 0.951 . S
C131 C130 1.424 . S
C131 C132 1.347 . S
C132 H124 0.951 . S
C132 C127 1.429 . S
C132 C131 1.347 . S
H133 C134 0.951 . S
C134 H133 0.951 . S
C134 C140 1.265 . S
H135 C140 0.950 . S
H136 C144 0.949 . S
H137 C145 0.950 . S
H138 C146 0.951 . S
H139 C147 0.951 . S
C140 C134 1.265 . S
C140 H135 0.950 . S
C140 C141 1.478 . S
C141 C128 1.394 . S
C141 C140 1.478 . S
C141 C142 1.397 . S
C142 C141 1.397 . S
C142 C143 1.438 . S
C142 C147 1.429 . S
C143 C126 1.394 . S
C143 C142 1.438 . S
C143 C144 1.428 . S
C144 H136 0.949 . S
C144 C143 1.428 . S
C144 C145 1.345 . S
C145 H137 0.950 . S
C145 C144 1.345 . S
C145 C146 1.424 . S
C146 H138 0.951 . S
C146 C145 1.424 . S
C146 C147 1.347 . S
C147 H139 0.951 . S
C147 C142 1.429 . S
C147 C146 1.347 . S
H148 C149 0.949 1_655 S
C149 H148 0.949 1_455 S
C149 C155 1.265 . S
H150 C155 0.950 . S
H151 C159 0.949 . S
H152 C160 0.950 . S
H153 C161 0.951 . S
H154 C162 0.951 . S
C155 C149 1.265 . S
C155 H150 0.950 . S
C155 C156 1.478 . S
C156 C155 1.478 . S
C156 C157 1.397 1_455 S
C156 C173 1.394 . S
C157 C156 1.397 1_655 S
C157 C158 1.438 . S
C157 C162 1.429 . S
C158 C157 1.438 . S
C158 C159 1.428 . S
C158 C171 1.394 1_655 S
C159 H151 0.949 . S
C159 C158 1.428 . S
C159 C160 1.345 . S
C160 H152 0.950 . S
C160 C159 1.345 . S
C160 C161 1.424 . S
C161 H153 0.951 . S
C161 C160 1.424 . S
C161 C162 1.347 . S
C162 H154 0.951 . S
C162 C157 1.429 . S
C162 C161 1.347 . S
H163 C164 0.951 . S
C164 H163 0.951 . S
C164 C170 1.265 . S
H165 C170 0.950 . S
H166 C174 0.949 . S
H167 C175 0.950 . S
H168 C176 0.951 . S
H169 C177 0.951 . S
C170 C164 1.265 . S
C170 H165 0.950 . S
C170 C171 1.478 . S
C171 C158 1.394 1_455 S
C171 C170 1.478 . S
C171 C172 1.397 . S
C172 C171 1.397 . S
C172 C173 1.438 . S
C172 C177 1.429 . S
C173 C156 1.394 . S
C173 C172 1.438 . S
C173 C174 1.428 . S
C174 H166 0.949 . S
C174 C173 1.428 . S
C174 C175 1.345 . S
C175 H167 0.950 . S
C175 C174 1.345 . S
C175 C176 1.424 . S
C176 H168 0.951 . S
C176 C175 1.424 . S
C176 C177 1.347 . S
C177 H169 0.951 . S
C177 C172 1.429 . S
C177 C176 1.347 . S
H178 C179 0.951 . S
C179 H178 0.951 . S
C179 C185 1.265 . S
H180 C185 0.950 . S
H181 C189 0.949 . S
H182 C190 0.950 . S
H183 C191 0.951 . S
H184 C192 0.951 . S
C185 C179 1.265 . S
C185 H180 0.950 . S
C185 C186 1.478 . S
C186 C185 1.478 . S
C186 C187 1.397 . S
C186 C203 1.394 . S
C187 C186 1.397 . S
C187 C188 1.438 . S
C187 C192 1.429 . S
C188 C187 1.438 . S
C188 C189 1.428 . S
C188 C201 1.394 . S
C189 H181 0.949 . S
C189 C188 1.428 . S
C189 C190 1.345 . S
C190 H182 0.950 . S
C190 C189 1.345 . S
C190 C191 1.424 . S
C191 H183 0.951 . S
C191 C190 1.424 . S
C191 C192 1.347 . S
C192 H184 0.951 . S
C192 C187 1.429 . S
C192 C191 1.347 . S
H193 C194 0.951 . S
C194 H193 0.951 . S
C194 C200 1.265 . S
H195 C200 0.950 . S
H196 C204 0.949 . S
H197 C205 0.950 . S
H198 C206 0.951 . S
H199 C207 0.951 . S
C200 C194 1.265 . S
C200 H195 0.950 . S
C200 C201 1.478 . S
C201 C188 1.394 . S
C201 C200 1.478 . S
C201 C202 1.397 . S
C202 C201 1.397 . S
C202 C203 1.438 . S
C202 C207 1.429 . S
C203 C186 1.394 . S
C203 C202 1.438 . S
C203 C204 1.428 . S
C204 H196 0.949 . S
C204 C203 1.428 . S
C204 C205 1.345 . S
C205 H197 0.950 . S
C205 C204 1.345 . S
C205 C206 1.424 . S
C206 H198 0.951 . S
C206 C205 1.424 . S
C206 C207 1.347 . S
C207 H199 0.951 . S
C207 C202 1.429 . S
C207 C206 1.347 . S
H208 C209 0.951 . S
C209 H208 0.951 . S
C209 C215 1.265 . S
H210 C215 0.950 . S
H211 C219 0.949 . S
H212 C220 0.950 . S
H213 C221 0.951 . S
H214 C222 0.951 . S
C215 C209 1.265 . S
C215 H210 0.950 . S
C215 C216 1.478 . S
C216 C215 1.478 . S
C216 C217 1.397 . S
C216 C233 1.394 . S
C217 C216 1.397 . S
C217 C218 1.438 . S
C217 C222 1.429 . S
C218 C217 1.438 . S
C218 C219 1.428 . S
C218 C231 1.394 . S
C219 H211 0.949 . S
C219 C218 1.428 . S
C219 C220 1.345 . S
C220 H212 0.950 . S
C220 C219 1.345 . S
C220 C221 1.424 . S
C221 H213 0.951 . S
C221 C220 1.424 . S
C221 C222 1.347 . S
C222 H214 0.951 . S
C222 C217 1.429 . S
C222 C221 1.347 . S
H223 C224 0.951 . S
C224 H223 0.951 . S
C224 C230 1.265 . S
H225 C230 0.950 . S
H226 C234 0.949 . S
H227 C235 0.950 . S
H228 C236 0.951 . S
H229 C237 0.951 . S
C230 C224 1.265 . S
C230 H225 0.950 . S
C230 C231 1.478 . S
C231 C218 1.394 . S
C231 C230 1.478 . S
C231 C232 1.397 . S
C232 C231 1.397 . S
C232 C233 1.438 . S
C232 C237 1.429 . S
C233 C216 1.394 . S
C233 C232 1.438 . S
C233 C234 1.428 . S
C234 H226 0.949 . S
C234 C233 1.428 . S
C234 C235 1.345 . S
C235 H227 0.950 . S
C235 C234 1.345 . S
C235 C236 1.424 . S
C236 H228 0.951 . S
C236 C235 1.424 . S
C236 C237 1.347 . S
C237 H229 0.951 . S
C237 C232 1.429 . S
C237 C236 1.347 . S
H238 C239 0.951 . S
C239 H238 0.951 . S
C239 C245 1.265 . S
H240 C245 0.950 . S
H241 C249 0.949 . S
H242 C250 0.950 . S
H243 C251 0.951 . S
H244 C252 0.951 . S
C245 C239 1.265 . S
C245 H240 0.950 . S
C245 C246 1.478 . S
C246 C245 1.478 . S
C246 C247 1.397 . S
C246 C263 1.394 . S
C247 C246 1.397 . S
C247 C248 1.438 . S
C247 C252 1.429 . S
C248 C247 1.438 . S
C248 C249 1.428 . S
C248 C261 1.394 . S
C249 H241 0.949 . S
C249 C248 1.428 . S
C249 C250 1.345 . S
C250 H242 0.950 . S
C250 C249 1.345 . S
C250 C251 1.424 . S
C251 H243 0.951 . S
C251 C250 1.424 . S
C251 C252 1.347 . S
C252 H244 0.951 . S
C252 C247 1.429 . S
C252 C251 1.347 . S
H253 C254 0.951 . S
C254 H253 0.951 . S
C254 C260 1.265 . S
H255 C260 0.950 . S
H256 C264 0.949 . S
H257 C265 0.950 . S
H258 C266 0.951 . S
H259 C267 0.951 . S
C260 C254 1.265 . S
C260 H255 0.950 . S
C260 C261 1.478 . S
C261 C248 1.394 . S
C261 C260 1.478 . S
C261 C262 1.397 . S
C262 C261 1.397 . S
C262 C263 1.438 . S
C262 C267 1.429 . S
C263 C246 1.394 . S
C263 C262 1.438 . S
C263 C264 1.428 1_556 S
C264 H256 0.949 . S
C264 C263 1.428 1_554 S
C264 C265 1.345 . S
C265 H257 0.950 . S
C265 C264 1.345 . S
C265 C266 1.424 . S
C266 H258 0.951 . S
C266 C265 1.424 . S
C266 C267 1.347 1_554 S
C267 H259 0.951 . S
C267 C262 1.429 . S
C267 C266 1.347 1_556 S
H268 C269 0.951 . S
C269 H268 0.951 . S
C269 C275 1.265 . S
H270 C275 0.950 . S
H271 C279 0.949 . S
H272 C280 0.950 . S
H273 C281 0.951 . S
H274 C282 0.951 . S
C275 C269 1.265 . S
C275 H270 0.950 . S
C275 C276 1.478 . S
C276 C275 1.478 . S
C276 C277 1.397 . S
C276 C293 1.394 . S
C277 C276 1.397 . S
C277 C278 1.438 . S
C277 C282 1.429 . S
C278 C277 1.438 . S
C278 C279 1.428 . S
C278 C291 1.394 . S
C279 H271 0.949 . S
C279 C278 1.428 . S
C279 C280 1.345 . S
C280 H272 0.950 . S
C280 C279 1.345 . S
C280 C281 1.424 . S
C281 H273 0.951 . S
C281 C280 1.424 . S
C281 C282 1.347 . S
C282 H274 0.951 . S
C282 C277 1.429 . S
C282 C281 1.347 . S
H283 C284 0.951 . S
C284 H283 0.951 . S
C284 C290 1.265 . S
H285 C290 0.950 . S
H286 C294 0.949 1_554 S
H287 C295 0.930 1_554 S
H288 C296 0.951 . S
H289 C297 0.951 . S
C290 C284 1.265 . S
C290 H285 0.950 . S
C290 C291 1.478 . S
C291 C278 1.394 . S
C291 C290 1.478 . S
C291 C292 1.397 . S
C292 C291 1.397 . S
C292 C293 1.438 . S
C292 C297 1.429 . S
C293 C276 1.394 . S
C293 C292 1.438 . S
C293 C294 1.428 . S
C294 H286 0.949 1_556 S
C294 C293 1.428 . S
C294 C295 1.351 . S
C295 H287 0.930 1_556 S
C295 C294 1.351 . S
C295 C296 1.438 . S
C296 H288 0.951 . S
C296 C295 1.438 . S
C296 C297 1.347 . S
C297 H289 0.951 . S
C297 C292 1.429 . S
C297 C296 1.347 . S
H298 C299 0.955 . S
C299 H298 0.955 . S
C299 C305 1.265 . S
H300 C305 0.950 . S
H301 C309 0.949 . S
H302 C310 0.950 . S
H303 C311 0.951 . S
H304 C312 0.951 . S
C305 C299 1.265 . S
C305 H300 0.950 . S
C305 C306 1.478 1_455 S
C306 C305 1.478 1_655 S
C306 C307 1.397 . S
C306 C323 1.394 . S
C307 C306 1.397 . S
C307 C308 1.438 . S
C307 C312 1.429 1_655 S
C308 C307 1.438 . S
C308 C309 1.428 . S
C308 C321 1.394 . S
C309 H301 0.949 . S
C309 C308 1.428 . S
C309 C310 1.345 . S
C310 H302 0.950 . S
C310 C309 1.345 . S
C310 C311 1.424 1_655 S
C311 H303 0.951 . S
C311 C310 1.424 1_455 S
C311 C312 1.347 . S
C312 H304 0.951 . S
C312 C307 1.429 1_455 S
C312 C311 1.347 . S
H313 C314 0.951 . S
C314 H313 0.951 . S
C314 C320 1.265 . S
H315 C320 0.950 . S
H316 C324 0.945 1_554 S
H317 C325 0.950 . S
H318 C326 0.951 1_554 S
H319 C327 0.951 . S
C320 C314 1.265 . S
C320 H315 0.950 . S
C320 C321 1.478 . S
C321 C308 1.394 . S
C321 C320 1.478 . S
C321 C322 1.397 . S
C322 C321 1.397 . S
C322 C323 1.438 . S
C322 C327 1.429 . S
C323 C306 1.394 . S
C323 C322 1.438 . S
C323 C324 1.428 . S
C324 H316 0.945 1_556 S
C324 C323 1.428 . S
C324 C325 1.345 1_556 S
C325 H317 0.950 . S
C325 C324 1.345 1_554 S
C325 C326 1.424 1_554 S
C326 H318 0.951 1_556 S
C326 C325 1.424 1_556 S
C326 C327 1.347 . S
C327 H319 0.951 . S
C327 C322 1.429 . S
C327 C326 1.347 . S
H328 C329 0.951 . S
C329 H328 0.951 . S
C329 C335 1.265 . S
H330 C335 0.950 . S
H331 C339 0.949 . S
H332 C340 0.950 . S
H333 C341 0.951 . S
H334 C342 0.951 . S
C335 C329 1.265 . S
C335 H330 0.950 . S
C335 C336 1.478 . S
C336 C335 1.478 . S
C336 C337 1.397 . S
C336 C353 1.394 . S
C337 C336 1.397 . S
C337 C338 1.438 . S
C337 C342 1.429 . S
C338 C337 1.438 . S
C338 C339 1.428 . S
C338 C351 1.394 . S
C339 H331 0.949 . S
C339 C338 1.428 . S
C339 C340 1.345 . S
C340 H332 0.950 . S
C340 C339 1.345 . S
C340 C341 1.424 . S
C341 H333 0.951 . S
C341 C340 1.424 . S
C341 C342 1.347 . S
C342 H334 0.951 . S
C342 C337 1.429 . S
C342 C341 1.347 . S
H343 C344 0.951 . S
C344 H343 0.951 . S
C344 C350 1.265 . S
H345 C350 0.950 . S
H346 C354 0.949 . S
H347 C355 0.950 . S
H348 C356 0.951 . S
H349 C357 0.951 . S
C350 C344 1.265 . S
C350 H345 0.950 . S
C350 C351 1.478 . S
C351 C338 1.394 . S
C351 C350 1.478 . S
C351 C352 1.397 . S
C352 C351 1.397 . S
C352 C353 1.438 . S
C352 C357 1.429 . S
C353 C336 1.394 . S
C353 C352 1.438 . S
C353 C354 1.428 1_556 S
C354 H346 0.949 . S
C354 C353 1.428 1_554 S
C354 C355 1.345 . S
C355 H347 0.950 . S
C355 C354 1.345 . S
C355 C356 1.424 . S
C356 H348 0.951 . S
C356 C355 1.424 . S
C356 C357 1.347 1_554 S
C357 H349 0.951 . S
C357 C352 1.429 . S
C357 C356 1.347 1_556 S
H358 C359 0.951 . S
C359 H358 0.951 . S
C359 C365 1.265 . S
H360 C365 0.950 . S
H361 C369 0.949 . S
H362 C370 0.950 . S
H363 C371 0.951 . S
H364 C372 0.951 . S
C365 C359 1.265 . S
C365 H360 0.950 . S
C365 C366 1.478 . S
C366 C365 1.478 . S
C366 C367 1.397 . S
C366 C383 1.394 . S
C367 C366 1.397 . S
C367 C368 1.438 . S
C367 C372 1.429 . S
C368 C367 1.438 . S
C368 C369 1.428 . S
C368 C381 1.394 . S
C369 H361 0.949 . S
C369 C368 1.428 . S
C369 C370 1.345 . S
C370 H362 0.950 . S
C370 C369 1.345 . S
C370 C371 1.424 . S
C371 H363 0.951 . S
C371 C370 1.424 . S
C371 C372 1.347 . S
C372 H364 0.951 . S
C372 C367 1.429 . S
C372 C371 1.347 . S
H373 C374 0.951 . S
C374 H373 0.951 . S
C374 C380 1.265 . S
H375 C380 0.950 . S
H376 C384 0.949 . S
H377 C385 0.950 . S
H378 C386 0.951 . S
H379 C387 0.951 . S
C380 C374 1.265 . S
C380 H375 0.950 . S
C380 C381 1.478 . S
C381 C368 1.394 . S
C381 C380 1.478 . S
C381 C382 1.397 . S
C382 C381 1.397 . S
C382 C383 1.438 . S
C382 C387 1.429 1_655 S
C383 C366 1.394 . S
C383 C382 1.438 . S
C383 C384 1.428 . S
C384 H376 0.949 . S
C384 C383 1.428 . S
C384 C385 1.345 . S
C385 H377 0.950 . S
C385 C384 1.345 . S
C385 C386 1.424 1_655 S
C386 H378 0.951 . S
C386 C385 1.424 1_455 S
C386 C387 1.347 . S
C387 H379 0.951 . S
C387 C382 1.429 1_455 S
C387 C386 1.347 . S
H388 C389 0.951 . S
C389 H388 0.951 . S
C389 C395 1.265 . S
H390 C395 0.950 . S
H391 C399 0.949 . S
H392 C400 0.950 . S
H393 C401 0.951 . S
H394 C402 0.951 . S
C395 C389 1.265 . S
C395 H390 0.950 . S
C395 C396 1.478 . S
C396 C395 1.478 . S
C396 C397 1.397 . S
C396 C413 1.394 . S
C397 C396 1.397 . S
C397 C398 1.438 . S
C397 C402 1.429 . S
C398 C397 1.438 . S
C398 C399 1.428 . S
C398 C411 1.394 . S
C399 H391 0.949 . S
C399 C398 1.428 . S
C399 C400 1.345 . S
C400 H392 0.950 . S
C400 C399 1.345 . S
C400 C401 1.424 . S
C401 H393 0.951 . S
C401 C400 1.424 . S
C401 C402 1.347 . S
C402 H394 0.951 . S
C402 C397 1.429 . S
C402 C401 1.347 . S
H403 C404 0.951 . S
C404 H403 0.951 . S
C404 C410 1.265 . S
H405 C410 0.950 . S
H406 C414 0.949 . S
H407 C415 0.950 . S
H408 C416 0.951 . S
H409 C417 0.951 . S
C410 C404 1.265 . S
C410 H405 0.950 . S
C410 C411 1.478 . S
C411 C398 1.394 . S
C411 C410 1.478 . S
C411 C412 1.397 . S
C412 C411 1.397 . S
C412 C413 1.438 . S
C412 C417 1.429 . S
C413 C396 1.394 . S
C413 C412 1.438 . S
C413 C414 1.428 . S
C414 H406 0.949 . S
C414 C413 1.428 . S
C414 C415 1.345 . S
C415 H407 0.950 . S
C415 C414 1.345 . S
C415 C416 1.424 . S
C416 H408 0.951 . S
C416 C415 1.424 . S
C416 C417 1.347 . S
C417 H409 0.951 . S
C417 C412 1.429 . S
C417 C416 1.347 . S
H418 C419 0.951 . S
C419 H418 0.951 . S
C419 C425 1.265 . S
H420 C425 0.950 . S
H421 C429 0.949 . S
H422 C430 0.950 . S
H423 C431 0.951 . S
H424 C432 0.951 . S
C425 C419 1.265 . S
C425 H420 0.950 . S
C425 C426 1.478 . S
C426 C425 1.478 . S
C426 C427 1.397 . S
C426 C443 1.394 . S
C427 C426 1.397 . S
C427 C428 1.438 . S
C427 C432 1.429 . S
C428 C427 1.438 . S
C428 C429 1.428 . S
C428 C441 1.394 . S
C429 H421 0.949 . S
C429 C428 1.428 . S
C429 C430 1.345 . S
C430 H422 0.950 . S
C430 C429 1.345 . S
C430 C431 1.424 . S
C431 H423 0.951 . S
C431 C430 1.424 . S
C431 C432 1.347 . S
C432 H424 0.951 . S
C432 C427 1.429 . S
C432 C431 1.347 . S
H433 C434 0.951 . S
C434 H433 0.951 . S
C434 C440 1.265 . S
H435 C440 0.950 . S
H436 C444 0.949 . S
H437 C445 0.950 . S
H438 C446 0.951 . S
H439 C447 0.951 . S
C440 C434 1.265 . S
C440 H435 0.950 . S
C440 C441 1.478 . S
C441 C428 1.394 . S
C441 C440 1.478 . S
C441 C442 1.397 . S
C442 C441 1.397 . S
C442 C443 1.438 . S
C442 C447 1.429 . S
C443 C426 1.394 . S
C443 C442 1.438 . S
C443 C444 1.428 . S
C444 H436 0.949 . S
C444 C443 1.428 . S
C444 C445 1.345 . S
C445 H437 0.950 . S
C445 C444 1.345 . S
C445 C446 1.424 . S
C446 H438 0.951 . S
C446 C445 1.424 . S
C446 C447 1.347 . S
C447 H439 0.951 . S
C447 C442 1.429 . S
C447 C446 1.347 . S
H448 C449 0.951 . S
C449 H448 0.951 . S
C449 C455 1.265 . S
H450 C455 0.950 . S
H451 C459 0.949 . S
H452 C460 0.950 . S
H453 C461 0.951 . S
H454 C462 0.951 . S
C455 C449 1.265 . S
C455 H450 0.950 . S
C455 C456 1.478 . S
C456 C455 1.478 . S
C456 C457 1.397 . S
C456 C473 1.394 . S
C457 C456 1.397 . S
C457 C458 1.438 . S
C457 C462 1.429 . S
C458 C457 1.438 . S
C458 C459 1.428 . S
C458 C471 1.394 . S
C459 H451 0.949 . S
C459 C458 1.428 . S
C459 C460 1.345 . S
C460 H452 0.950 . S
C460 C459 1.345 . S
C460 C461 1.424 . S
C461 H453 0.951 . S
C461 C460 1.424 . S
C461 C462 1.347 . S
C462 H454 0.951 . S
C462 C457 1.429 . S
C462 C461 1.347 . S
H463 C464 0.951 . S
C464 H463 0.951 . S
C464 C470 1.265 . S
H465 C470 0.950 . S
H466 C474 0.949 . S
H467 C475 0.950 . S
H468 C476 0.951 . S
H469 C477 0.951 . S
C470 C464 1.265 . S
C470 H465 0.950 . S
C470 C471 1.478 . S
C471 C458 1.394 . S
C471 C470 1.478 . S
C471 C472 1.397 . S
C472 C471 1.397 . S
C472 C473 1.438 . S
C472 C477 1.429 . S
C473 C456 1.394 . S
C473 C472 1.438 . S
C473 C474 1.428 . S
C474 H466 0.949 . S
C474 C473 1.428 . S
C474 C475 1.345 . S
C475 H467 0.950 . S
C475 C474 1.345 . S
C475 C476 1.424 . S
C476 H468 0.951 . S
C476 C475 1.424 . S
C476 C477 1.347 . S
C477 H469 0.951 . S
C477 C472 1.429 . S
C477 C476 1.347 . S
C134 C83 1.395 . S
C119 C11 1.470 . S
C164 C79 1.462 . S
C149 C30 1.331 1_455 S
C194 C104 1.354 . S
C179 C49 1.393 . S
C209 C68 1.384 . S
C224 C100 1.462 . S
C239 C2 1.200 . S
C254 C101 1.055 . S
C284 C116 1.104 . S
C269 C25 1.245 . S
C299 C6 1.802 . S
C314 C117 1.696 . S
C344 C113 1.733 . S
C329 C21 1.831 . S
C374 C80 1.094 1_655 S
C359 C40 1.276 . S
C389 C63 1.294 . S
C404 C95 1.211 . S
C434 C96 1.679 . S
C419 C44 1.798 . S
C464 C92 1.731 . S
C449 C59 1.828 . S
