# Generated by pormake.
# Topology pyr, (3,6)-cn, num edge types: 1
# Building blocks:
#     Node 0, Type 0, BuildingBlock: BETDAH_clean_linker_0, # of connection points: 3
#     Node 1, Type 0, BuildingBlock: BETDAH_clean_linker_0, # of connection points: 3
#     Node 2, Type 0, BuildingBlock: BETDAH_clean_linker_0, # of connection points: 3
#     Node 3, Type 0, BuildingBlock: BETDAH_clean_linker_0, # of connection points: 3
#     Node 4, Type 0, BuildingBlock: BETDAH_clean_linker_0, # of connection points: 3
#     Node 5, Type 0, BuildingBlock: BETDAH_clean_linker_0, # of connection points: 3
#     Node 6, Type 0, BuildingBlock: BETDAH_clean_linker_0, # of connection points: 3
#     Node 7, Type 0, BuildingBlock: BETDAH_clean_linker_0, # of connection points: 3
#     Node 8, Type 1, BuildingBlock: BETDIP_clean_sbu_0, # of connection points: 6
#     Node 9, Type 1, BuildingBlock: BETDIP_clean_sbu_0, # of connection points: 6
#     Node 10, Type 1, BuildingBlock: BETDIP_clean_sbu_0, # of connection points: 6
#     Node 11, Type 1, BuildingBlock: BETDIP_clean_sbu_0, # of connection points: 6
#     Edge 12, Type (0, 1), BuildingBlock: XUDNAN_clean_linker_2, # of connection points: 2
#     Edge 13, Type (0, 1), BuildingBlock: XUDNAN_clean_linker_2, # of connection points: 2
#     Edge 14, Type (0, 1), BuildingBlock: XUDNAN_clean_linker_2, # of connection points: 2
#     Edge 15, Type (0, 1), BuildingBlock: XUDNAN_clean_linker_2, # of connection points: 2
#     Edge 16, Type (0, 1), BuildingBlock: XUDNAN_clean_linker_2, # of connection points: 2
#     Edge 17, Type (0, 1), BuildingBlock: XUDNAN_clean_linker_2, # of connection points: 2
#     Edge 18, Type (0, 1), BuildingBlock: XUDNAN_clean_linker_2, # of connection points: 2
#     Edge 19, Type (0, 1), BuildingBlock: XUDNAN_clean_linker_2, # of connection points: 2
#     Edge 20, Type (0, 1), BuildingBlock: XUDNAN_clean_linker_2, # of connection points: 2
#     Edge 21, Type (0, 1), BuildingBlock: XUDNAN_clean_linker_2, # of connection points: 2
#     Edge 22, Type (0, 1), BuildingBlock: XUDNAN_clean_linker_2, # of connection points: 2
#     Edge 23, Type (0, 1), BuildingBlock: XUDNAN_clean_linker_2, # of connection points: 2
#     Edge 24, Type (0, 1), BuildingBlock: XUDNAN_clean_linker_2, # of connection points: 2
#     Edge 25, Type (0, 1), BuildingBlock: XUDNAN_clean_linker_2, # of connection points: 2
#     Edge 26, Type (0, 1), BuildingBlock: XUDNAN_clean_linker_2, # of connection points: 2
#     Edge 27, Type (0, 1), BuildingBlock: XUDNAN_clean_linker_2, # of connection points: 2
#     Edge 28, Type (0, 1), BuildingBlock: XUDNAN_clean_linker_2, # of connection points: 2
#     Edge 29, Type (0, 1), BuildingBlock: XUDNAN_clean_linker_2, # of connection points: 2
#     Edge 30, Type (0, 1), BuildingBlock: XUDNAN_clean_linker_2, # of connection points: 2
#     Edge 31, Type (0, 1), BuildingBlock: XUDNAN_clean_linker_2, # of connection points: 2
#     Edge 32, Type (0, 1), BuildingBlock: XUDNAN_clean_linker_2, # of connection points: 2
#     Edge 33, Type (0, 1), BuildingBlock: XUDNAN_clean_linker_2, # of connection points: 2
#     Edge 34, Type (0, 1), BuildingBlock: XUDNAN_clean_linker_2, # of connection points: 2
#     Edge 35, Type (0, 1), BuildingBlock: XUDNAN_clean_linker_2, # of connection points: 2
# Relax obj value: 0.149
# Max RMSD: 0.220
# Mean RMSD: 0.134
data_MOF--net-pyr--node1-BETDIP_clean_sbu_0--node2-BETDAH_clean_linker_0--edge1-XUDNAN_clean_linker_2
_symmetry_space_group_name_H-M    P1
_symmetry_Int_Tables_number       1
_symmetry_cell_setting            triclinic
loop_
_symmetry_equiv_pos_as_xyz
'x, y, z'
_cell_length_a     34.196708
_cell_length_b     39.581584
_cell_length_c     40.287856
_cell_angle_alpha  89.065001
_cell_angle_beta   93.43107
_cell_angle_gamma 110.13422
loop_
_atom_site_label
_atom_site_type_symbol
_atom_site_fract_x
_atom_site_fract_y
_atom_site_fract_z
_atom_type_partial_charge
H0 H 0.37368 0.23312 0.26095 0.0
H1 H 0.43806 0.29999 0.18231 0.0
H2 H 0.35677 0.33447 0.23983 0.0
C3 C 0.38088 0.25796 0.24702 0.0
C4 C 0.36158 0.28313 0.25374 0.0
C5 C 0.40836 0.26402 0.22133 0.0
C6 C 0.41702 0.2954 0.20234 0.0
C7 C 0.39822 0.32067 0.20854 0.0
C8 C 0.37067 0.31456 0.23441 0.0
N9 N 0.40709 0.35163 0.18806 0.0
C10 C 0.38209 0.37281 0.18624 0.0
H11 H 0.27 0.78261 0.75388 0.0
H12 H 0.16976 0.82326 0.76319 0.0
H13 H 0.17425 0.76567 0.67501 0.0
C14 C 0.24089 0.78499 0.74399 0.0
C15 C 0.22481 0.77171 0.71202 0.0
C16 C 0.22095 0.80303 0.76288 0.0
C17 C 0.18519 0.80895 0.74909 0.0
C18 C 0.16846 0.79535 0.7174 0.0
C19 C 0.18767 0.77612 0.69938 0.0
N20 N 0.1326 0.8012 0.70302 0.0
C21 C 0.12992 0.83538 0.70156 0.0
H22 H 0.69909 0.36729 0.94688 0.0
H23 H 0.71639 0.43923 0.86247 0.0
H24 H 0.62998 0.33171 0.85401 0.0
C25 C 0.69142 0.37311 0.92152 0.0
C26 C 0.66246 0.34518 0.90241 0.0
C27 C 0.71225 0.40736 0.90767 0.0
C28 C 0.70016 0.41413 0.87455 0.0
C29 C 0.66959 0.38717 0.85551 0.0
C30 C 0.65174 0.35284 0.86946 0.0
N31 N 0.66297 0.39109 0.82049 0.0
C32 C 0.64964 0.41711 0.80414 0.0
H33 H 0.86384 0.76632 0.44414 0.0
H34 H 0.94966 0.79355 0.3665 0.0
H35 H 0.86717 0.68368 0.37653 0.0
C36 C 0.87646 0.75834 0.42273 0.0
C37 C 0.86087 0.72198 0.41225 0.0
C38 C 0.90805 0.78458 0.40646 0.0
C39 C 0.92441 0.77378 0.37874 0.0
C40 C 0.91 0.73762 0.3672 0.0
C41 C 0.87751 0.71168 0.38398 0.0
N42 N 0.93362 0.7288 0.34223 0.0
C43 C 0.92262 0.70218 0.31701 0.0
H44 H 0.76225 0.78338 0.87597 0.0
H45 H 0.66485 0.77126 0.9427 0.0
H46 H 0.65522 0.8119 0.8441 0.0
C47 C 0.73196 0.78488 0.8806 0.0
C48 C 0.71056 0.79834 0.85599 0.0
C49 C 0.71589 0.77544 0.91195 0.0
C50 C 0.67739 0.77834 0.91845 0.0
C51 C 0.65537 0.79106 0.89381 0.0
C52 C 0.67215 0.80149 0.8628 0.0
N53 N 0.61689 0.79442 0.90068 0.0
C54 C 0.61529 0.82785 0.90853 0.0
H55 H 0.89796 0.2732 0.37666 0.0
H56 H 0.93346 0.35081 0.45618 0.0
H57 H 0.87339 0.37266 0.36574 0.0
C58 C 0.90025 0.29929 0.38628 0.0
C59 C 0.8841 0.32191 0.367 0.0
C60 C 0.91769 0.30937 0.41851 0.0
C61 C 0.92044 0.34298 0.43111 0.0
C62 C 0.90447 0.3658 0.41228 0.0
C63 C 0.88626 0.35523 0.38018 0.0
N64 N 0.9061 0.39876 0.42659 0.0
C65 C 0.87406 0.41266 0.42158 0.0
H66 H 0.36663 0.76477 0.18718 0.0
H67 H 0.37262 0.69696 0.2711 0.0
H68 H 0.47378 0.79605 0.25545 0.0
C69 C 0.3824 0.75969 0.20977 0.0
C70 C 0.42176 0.78473 0.21933 0.0
C71 C 0.36369 0.72795 0.22794 0.0
C72 C 0.38579 0.7213 0.25692 0.0
C73 C 0.42563 0.74601 0.26701 0.0
C74 C 0.44292 0.77756 0.24813 0.0
N75 N 0.45137 0.73957 0.29404 0.0
C76 C 0.44109 0.71632 0.32141 0.0
H77 H 0.2124 0.37712 0.6927 0.0
H78 H 0.20944 0.44715 0.77261 0.0
H79 H 0.11312 0.34284 0.75954 0.0
C80 C 0.19739 0.38216 0.71399 0.0
C81 C 0.15994 0.35577 0.72306 0.0
C82 C 0.21573 0.41529 0.73095 0.0
C83 C 0.19598 0.42196 0.75915 0.0
C84 C 0.15915 0.39545 0.77017 0.0
C85 C 0.14171 0.36269 0.75172 0.0
N86 N 0.1381 0.39948 0.79924 0.0
C87 C 0.14481 0.42851 0.82161 0.0
Tb88 Tb 0.98435 0.05445 0.5797 0.0
Tb89 Tb 0.06765 0.08555 0.54572 0.0
C90 C 0.91471 1.00944 0.59224 0.0
C91 C 0.89517 0.98446 0.61879 0.0
C92 C 0.87312 0.9484 0.61036 0.0
C93 C 0.85424 0.92369 0.6347 0.0
C94 C 0.85683 0.93465 0.66798 0.0
C95 C 0.87887 0.97085 0.67645 0.0
C96 C 0.89809 0.99558 0.65206 0.0
C97 C 0.03405 0.11482 0.61124 0.0
C98 C 0.06387 0.03657 0.60778 0.0
C99 C 0.13319 0.12112 0.51819 0.0
C100 C 0.14966 0.15159 0.49546 0.0
C101 C 0.19171 0.17334 0.49966 0.0
C102 C 0.21077 0.19726 0.47474 0.0
C103 C 0.18818 0.19957 0.44493 0.0
C104 C 0.14515 0.17971 0.44194 0.0
C105 C 0.12602 0.15599 0.46703 0.0
C106 C 0.01801 0.01951 0.52692 0.0
C107 C 0.9925 0.11414 0.52649 0.0
O108 O 0.94302 1.00138 0.57681 0.0
O109 O 0.92512 0.04409 0.59784 0.0
O110 O 0.04054 0.0984 0.58676 0.0
O111 O 0.9974 0.09515 0.6205 0.0
O112 O 0.02268 0.02704 0.60529 0.0
O113 O 0.08855 0.06286 0.58991 0.0
O114 O 0.12563 0.128 0.5484 0.0
O115 O 0.10459 0.09244 0.50521 0.0
O116 O 1.00703 0.04634 0.53263 0.0
O117 O 0.05823 0.03005 0.53105 0.0
O118 O 0.03277 0.11918 0.52512 0.0
O119 O 0.96666 0.08723 0.54273 0.0
H120 H 0.87048 0.9393 0.58482 0.0
H121 H 0.83708 0.89609 0.62737 0.0
H122 H 0.88169 0.97993 0.70199 0.0
H123 H 0.91521 0.02323 0.65923 0.0
H124 H 0.21043 0.17046 0.52147 0.0
H125 H 0.24368 0.21283 0.47825 0.0
H126 H 0.12674 0.18067 0.41936 0.0
H127 H 0.09338 0.1396 0.4633 0.0
Tb128 Tb 0.58931 0.08063 0.07897 0.0
Tb129 Tb 0.50488 0.05333 0.04707 0.0
C130 C 0.66582 0.11199 0.09336 0.0
C131 C 0.68935 0.1382 0.11905 0.0
C132 C 0.73004 0.16098 0.11367 0.0
C133 C 0.75237 0.18665 0.13759 0.0
C134 C 0.73433 0.18982 0.16733 0.0
C135 C 0.6934 0.16698 0.17253 0.0
C136 C 0.67102 0.14149 0.14851 0.0
C137 C 0.53875 0.02072 0.10603 0.0
C138 C 0.52388 0.10556 0.11039 0.0
C139 C 0.4284 0.02235 0.03257 0.0
C140 C 0.40438 0.9928 1.01004 0.0
C141 C 0.42166 0.9676 0.99962 0.0
C142 C 0.39948 0.94091 0.97656 0.0
C143 C 0.35973 0.9391 0.96347 0.0
C144 C 0.34239 0.96416 0.97436 0.0
C145 C 0.36458 0.9908 0.99747 0.0
C146 C 0.55551 0.10952 1.01671 0.0
C147 C 0.57059 0.0275 1.01683 0.0
O148 O 0.64433 0.12382 0.07109 0.0
O149 O 0.6446 0.07983 0.10384 0.0
O150 O 0.5416 0.02871 0.0757 0.0
O151 O 0.56661 0.04654 0.12278 0.0
O152 O 0.56406 0.11165 0.10914 0.0
O153 O 0.49585 0.08276 0.08991 0.0
O154 O 0.44834 1.01373 0.05822 0.0
O155 O 0.45129 0.05163 1.01801 0.0
O156 O 0.5535 0.10561 0.048 0.0
O157 O 0.5277 0.08212 1.00197 0.0
O158 O 0.53041 0.0189 1.02122 0.0
O159 O 0.59872 0.05375 0.03427 0.0
H160 H 0.74452 0.15892 0.09095 0.0
H161 H 0.78398 0.20365 0.13306 0.0
H162 H 0.67852 0.1691 0.19501 0.0
H163 H 0.63939 0.12442 0.15291 0.0
H164 H 0.45251 0.96887 1.00892 0.0
H165 H 0.41393 0.92231 0.96834 0.0
H166 H 0.31167 0.96319 0.96498 0.0
H167 H 0.35089 1.01014 1.00521 0.0
Tb168 Tb 0.54725 0.60252 0.58714 0.0
Tb169 Tb 0.52501 0.53546 0.54983 0.0
C170 C 0.5447 0.65955 0.61165 0.0
C171 C 0.5092 0.67167 0.61578 0.0
C172 C 0.47481 0.66163 0.59255 0.0
C173 C 0.4402 0.6716 0.59737 0.0
C174 C 0.43913 0.69138 0.6257 0.0
C175 C 0.47353 0.70131 0.64897 0.0
C176 C 0.50836 0.69158 0.64398 0.0
C177 C 0.57207 0.553 0.6184 0.0
C178 C 0.45789 0.54216 0.59561 0.0
C179 C 0.53024 0.47846 0.52738 0.0
C180 C 0.55953 0.47141 0.50544 0.0
C181 C 0.5757 0.44418 0.51396 0.0
C182 C 0.6086 0.44069 0.49705 0.0
C183 C 0.62589 0.46429 0.47101 0.0
C184 C 0.60827 0.49062 0.46159 0.0
C185 C 0.57563 0.49433 0.47881 0.0
C186 C 0.49807 0.58359 0.51851 0.0
C187 C 0.61529 0.59752 0.54131 0.0
O188 O 0.55376 0.65676 0.58098 0.0
O189 O 0.54491 0.63181 0.62956 0.0
O190 O 0.53823 0.54827 0.60154 0.0
O191 O 0.59314 0.58723 0.61883 0.0
O192 O 0.47945 0.57708 0.59392 0.0
O193 O 0.47235 0.51874 0.58233 0.0
O194 O 0.54722 0.49257 0.55615 0.0
O195 O 0.50475 0.49391 0.51419 0.0
O196 O 0.53245 0.5897 0.5353 0.0
O197 O 0.47863 0.54901 0.51754 0.0
O198 O 0.58909 0.5647 0.53369 0.0
O199 O 0.60551 0.61835 0.56217 0.0
H200 H 0.47444 0.64568 0.57086 0.0
H201 H 0.41391 0.66322 0.57928 0.0
H202 H 0.4736 0.7168 0.67091 0.0
H203 H 0.53445 0.69926 0.66229 0.0
H204 H 0.56414 0.4266 0.53477 0.0
H205 H 0.62169 0.42055 0.50555 0.0
H206 H 0.62029 0.50895 0.4414 0.0
H207 H 0.56401 0.51589 0.47201 0.0
Tb208 Tb 0.04321 0.60557 0.05023 0.0
Tb209 Tb 0.03124 0.53811 0.08575 0.0
C210 C 0.0336 0.65993 1.02285 0.0
C211 C 1.00031 0.6754 1.02311 0.0
C212 C 0.96031 0.65424 0.03231 0.0
C213 C 0.92776 0.66796 0.02986 0.0
C214 C 0.93503 0.70334 1.01903 0.0
C215 C 0.97551 0.72513 1.01148 0.0
C216 C 1.00796 0.71112 1.01331 0.0
C217 C 0.11123 0.60409 0.08544 0.0
C218 C 0.99839 0.59367 0.1192 0.0
C219 C 0.04106 0.48602 0.11758 0.0
C220 C 0.07494 0.47175 0.1241 0.0
C221 C 0.10967 0.48184 0.10451 0.0
C222 C 0.14445 0.47237 0.11415 0.0
C223 C 0.145 0.45304 0.14366 0.0
C224 C 0.10951 0.44193 0.16249 0.0
C225 C 0.07474 0.45123 0.15275 0.0
C226 C 0.96269 0.53852 0.05119 0.0
C227 C 0.07303 0.54991 1.01413 0.0
O228 O 0.02319 0.62848 1.00835 0.0
O229 O 0.05497 0.66127 0.05108 0.0
O230 O 0.07398 0.59119 0.09341 0.0
O231 O 0.11129 0.62128 0.05782 0.0
O232 O 1.00143 0.60835 0.08923 0.0
O233 O 1.01219 0.56661 0.12515 0.0
O234 O 0.04826 0.5178 0.13034 0.0
O235 O 0.02448 0.48325 0.08722 0.0
O236 O 0.9998 0.5521 0.04272 0.0
O237 O 0.96339 0.52177 0.07897 0.0
O238 O 0.06859 0.53269 0.04323 0.0
O239 O 0.06204 0.57877 1.01033 0.0
H240 H 0.95402 0.62685 0.04064 0.0
H241 H 0.89676 0.65081 0.03591 0.0
H242 H 0.9816 0.75244 1.00286 0.0
H243 H 0.03873 0.72787 1.00638 0.0
H244 H 0.11054 0.49815 0.08254 0.0
H245 H 0.17153 0.48144 0.09932 0.0
H246 H 0.10894 0.4266 0.18509 0.0
H247 H 0.04824 0.44348 0.16823 0.0
H248 H 0.36552 0.25182 0.31477 0.0
H249 H 0.28886 0.29847 0.25306 0.0
H250 H 0.23865 0.28647 0.297 0.0
H251 H 0.28083 0.17958 0.34493 0.0
H252 H 0.30566 0.18005 0.38575 0.0
H253 H 0.33694 0.19496 0.35042 0.0
H254 H 0.37609 0.25602 0.37996 0.0
H255 H 0.34464 0.24138 0.4153 0.0
H256 H 0.34679 0.28251 0.39432 0.0
H257 H 0.19511 0.26702 0.34721 0.0
H258 H 0.16101 0.23975 0.39834 0.0
H259 H 0.2647 0.20316 0.42504 0.0
C260 C 0.33817 0.25947 0.31034 0.0
C261 C 0.33146 0.27635 0.28043 0.0
C262 C 0.2953 0.28618 0.27597 0.0
C263 C 0.26641 0.27931 0.30075 0.0
C264 C 0.27399 0.26251 0.32984 0.0
C265 C 0.3089 0.25258 0.33464 0.0
C266 C 0.30888 0.23332 0.36737 0.0
C267 C 0.30801 0.19469 0.36177 0.0
C268 C 0.34632 0.25459 0.39061 0.0
C269 C 0.26827 0.23361 0.38012 0.0
C270 C 0.24871 0.25082 0.35831 0.0
C271 C 0.21022 0.25355 0.36451 0.0
C272 C 0.191 0.23784 0.39355 0.0
C273 C 0.21018 0.21942 0.41592 0.0
C274 C 0.24954 0.21773 0.40902 0.0
H275 H 0.23508 0.86969 0.78986 0.0
H276 H 0.24682 0.76583 0.81186 0.0
H277 H 0.28059 0.78844 0.86692 0.0
H278 H 0.33295 0.92208 0.82655 0.0
H279 H 0.31537 0.95622 0.84276 0.0
H280 H 0.28922 0.93111 0.80616 0.0
H281 H 0.21881 0.91178 0.8345 0.0
H282 H 0.24474 0.93696 0.87119 0.0
H283 H 0.21449 0.88981 0.87435 0.0
H284 H 0.31651 0.82319 0.91802 0.0
H285 H 0.35174 0.8678 0.96211 0.0
H286 H 0.31713 0.94912 0.90654 0.0
C287 C 0.24402 0.85155 0.80657 0.0
C288 C 0.23831 0.81602 0.79673 0.0
C289 C 0.25119 0.79324 0.81893 0.0
C290 C 0.27019 0.80576 0.85026 0.0
C291 C 0.276 0.84111 0.85901 0.0
C292 C 0.26321 0.86367 0.83789 0.0
C293 C 0.27501 0.901 0.8527 0.0
C294 C 0.30492 0.92926 0.83073 0.0
C295 C 0.23593 0.91043 0.85853 0.0
C296 C 0.29681 0.89598 0.88525 0.0
C297 C 0.29688 0.86121 0.88848 0.0
C298 C 0.31644 0.85046 0.9159 0.0
C299 C 0.33657 0.87601 0.94069 0.0
C300 C 0.33703 0.91186 0.93781 0.0
C301 C 0.31665 0.92176 0.90975 0.0
H302 H 0.68766 0.48005 0.76999 0.0
H303 H 0.56914 0.39525 0.78239 0.0
H304 H 0.53682 0.42034 0.73618 0.0
H305 H 0.64354 0.55161 0.74907 0.0
H306 H 0.68162 0.57239 0.7191 0.0
H307 H 0.69503 0.54868 0.75403 0.0
H308 H 0.71642 0.50876 0.71366 0.0
H309 H 0.70259 0.53205 0.6786 0.0
H310 H 0.6793 0.48382 0.68146 0.0
H311 H 0.51835 0.45183 0.68575 0.0
H312 H 0.51302 0.49114 0.63877 0.0
H313 H 0.64223 0.55818 0.65943 0.0
C314 C 0.6547 0.46734 0.76338 0.0
C315 C 0.63064 0.43593 0.78013 0.0
C316 C 0.58791 0.41959 0.77027 0.0
C317 C 0.56936 0.43354 0.74387 0.0
C318 C 0.59386 0.46413 0.72743 0.0
C319 C 0.63548 0.48124 0.73708 0.0
C320 C 0.65463 0.5137 0.71496 0.0
C321 C 0.66959 0.54867 0.73552 0.0
C322 C 0.69036 0.50931 0.69606 0.0
C323 C 0.61748 0.51194 0.69128 0.0
C324 C 0.58287 0.48288 0.6988 0.0
C325 C 0.54519 0.47484 0.6799 0.0
C326 C 0.54251 0.4973 0.65305 0.0
C327 C 0.57708 0.52793 0.64528 0.0
C328 C 0.61515 0.5351 0.66472 0.0
H329 H 0.96461 0.65501 0.30494 0.0
H330 H 0.88435 0.70778 0.25739 0.0
H331 H 0.89288 0.6841 0.20278 0.0
H332 H 0.0364 0.67085 0.2411 0.0
H333 H 0.04372 0.62791 0.2442 0.0
H334 H 0.02936 0.6468 0.27994 0.0
H335 H 0.96501 0.58916 0.2855 0.0
H336 H 0.97933 0.56998 0.24988 0.0
H337 H 0.92818 0.57346 0.25039 0.0
H338 H 0.91506 0.65884 0.15204 0.0
H339 H 0.94469 0.6312 0.11028 0.0
H340 H 1.00907 0.59143 0.18917 0.0
C341 C 0.94793 0.66075 0.28312 0.0
C342 C 0.92287 0.68279 0.2858 0.0
C343 C 0.90282 0.69045 0.25634 0.0
C344 C 0.90778 0.67722 0.22505 0.0
C345 C 0.93294 0.656 0.22312 0.0
C346 C 0.95232 0.64737 0.25146 0.0
C347 C 0.97835 0.62457 0.24217 0.0
C348 C 0.02471 0.64368 0.25247 0.0
C349 C 0.96172 0.58706 0.25793 0.0
C350 C 0.97118 0.62221 0.20426 0.0
C351 C 0.94494 0.64071 0.1939 0.0
C352 C 0.93514 0.64394 0.16009 0.0
C353 C 0.95232 0.62806 0.13636 0.0
C354 C 0.97905 0.60849 0.14593 0.0
C355 C 0.98824 0.60549 0.18068 0.0
H356 H 0.3902 0.22139 0.16655 0.0
H357 H 0.46914 0.2473 0.25733 0.0
H358 H 0.5057 0.20649 0.24034 0.0
H359 H 0.38089 0.12581 0.16321 0.0
H360 H 0.3814 0.12582 0.11849 0.0
H361 H 0.36023 0.15523 0.13904 0.0
H362 H 0.41081 0.21007 0.10926 0.0
H363 H 0.43228 0.18091 0.0888 0.0
H364 H 0.46613 0.21835 0.11341 0.0
H365 H 0.53841 0.16849 0.20999 0.0
H366 H 0.56061 0.13152 0.17124 0.0
H367 H 0.45658 0.12733 0.10236 0.0
C368 C 0.41473 0.21785 0.18301 0.0
C369 C 0.42709 0.23709 0.21317 0.0
C370 C 0.45934 0.23235 0.23421 0.0
C371 C 0.48019 0.20939 0.22473 0.0
C372 C 0.46773 0.19111 0.19446 0.0
C373 C 0.43527 0.19464 0.17418 0.0
C374 C 0.42847 0.1727 0.14262 0.0
C375 C 0.38518 0.14313 0.14075 0.0
C376 C 0.43482 0.19696 0.11171 0.0
C377 C 0.46279 0.15689 0.14787 0.0
C378 C 0.48528 0.16796 0.17781 0.0
C379 C 0.52052 0.15905 0.18682 0.0
C380 C 0.53298 0.13823 0.16465 0.0
C381 C 0.50988 0.12623 0.13416 0.0
C382 C 0.4742 0.13546 0.1259 0.0
H383 H 0.06094 0.85321 0.69083 0.0
H384 H 0.19591 0.89665 0.69836 0.0
H385 H 0.19399 0.95657 0.6812 0.0
H386 H 0.04746 0.89718 0.61883 0.0
H387 H 1.00126 0.90531 0.63013 0.0
H388 H 1.01329 0.86775 0.64766 0.0
H389 H 1.01088 0.89093 0.7071 0.0
H390 H 0.99866 0.92858 0.68963 0.0
H391 H 0.04299 0.93622 0.71875 0.0
H392 H 0.1771 1.00899 0.65592 0.0
H393 H 0.14676 0.05003 0.62598 0.0
H394 H 0.02266 0.9722 0.63652 0.0
C395 C 0.08992 0.87573 0.68979 0.0
C396 C 0.12856 0.87097 0.69622 0.0
C397 C 0.16608 0.90036 0.69387 0.0
C398 C 0.16523 0.93433 0.68419 0.0
C399 C 0.12654 0.93822 0.67727 0.0
C400 C 0.08954 0.90977 0.68029 0.0
C401 C 0.05227 0.92012 0.66881 0.0
C402 C 0.02713 0.89618 0.63963 0.0
C403 C 0.02457 0.9189 0.69781 0.0
C404 C 0.07409 0.95837 0.65776 0.0
C405 C 0.11688 0.96851 0.66308 0.0
C406 C 0.14359 1.00162 0.65225 0.0
C407 C 0.12609 0.02472 0.63519 0.0
C408 C 0.08233 1.01454 0.62914 0.0
C409 C 0.05619 0.98119 0.64124 0.0
H410 H 0.76521 0.39491 0.95818 0.0
H411 H 0.74437 0.48218 0.90121 0.0
H412 H 0.80687 0.52503 0.93005 0.0
H413 H 0.79349 0.44529 0.03568 0.0
H414 H 0.83036 0.42376 0.04904 0.0
H415 H 0.78536 0.39998 1.0224 0.0
H416 H 0.83368 0.38894 0.9799 0.0
H417 H 0.87886 0.41301 1.00619 0.0
H418 H 0.87442 0.42677 0.96368 0.0
H419 H 0.87658 0.55816 0.96332 0.0
H420 H 0.93892 0.57846 1.00274 0.0
H421 H 0.90513 0.47103 0.04361 0.0
C422 C 0.77239 0.42296 0.95197 0.0
C423 C 0.74885 0.43442 0.92677 0.0
C424 C 0.76173 0.47185 0.91953 0.0
C425 C 0.79726 0.4967 0.93608 0.0
C426 C 0.8194 0.48416 0.96057 0.0
C427 C 0.80673 0.4482 0.96896 0.0
C428 C 0.83448 0.44145 0.99715 0.0
C429 C 0.80942 0.42676 0.02789 0.0
C430 C 0.85666 0.41604 0.98605 0.0
C431 C 0.8651 0.4792 1.00326 0.0
C432 C 0.85656 0.50348 0.98151 0.0
C433 C 0.88278 0.53946 0.98097 0.0
C434 C 0.91808 0.55085 1.00348 0.0
C435 C 0.92608 0.52668 0.02693 0.0
C436 C 0.89916 0.49041 0.02661 0.0
H437 H 0.77819 0.67633 0.39758 0.0
H438 H 0.87422 0.71028 0.47749 0.0
H439 H 0.82292 0.67901 0.51805 0.0
H440 H 0.69657 0.68638 0.44015 0.0
H441 H 0.65587 0.64663 0.42408 0.0
H442 H 0.70055 0.66829 0.4002 0.0
H443 H 0.7148 0.60858 0.39729 0.0
H444 H 0.67061 0.58632 0.42165 0.0
H445 H 0.72167 0.58591 0.43515 0.0
H446 H 0.76017 0.65275 0.55121 0.0
H447 H 0.69085 0.62585 0.57428 0.0
H448 H 0.63361 0.60283 0.47449 0.0
C449 C 0.7886 0.67603 0.42345 0.0
C450 C 0.83063 0.69571 0.4342 0.0
C451 C 0.84252 0.69533 0.46852 0.0
C452 C 0.81347 0.6777 0.49185 0.0
C453 C 0.77218 0.65976 0.4808 0.0
C454 C 0.75973 0.65796 0.44736 0.0
C455 C 0.71283 0.63741 0.44273 0.0
C456 C 0.69013 0.6611 0.42578 0.0
C457 C 0.70446 0.60247 0.42303 0.0
C458 C 0.7009 0.62934 0.47874 0.0
C459 C 0.73583 0.64266 0.50018 0.0
C460 C 0.73276 0.64143 0.53462 0.0
C461 C 0.6932 0.62619 0.54757 0.0
C462 C 0.65688 0.61161 0.52637 0.0
C463 C 0.66094 0.61293 0.49139 0.0
H464 H 0.33482 0.38087 0.13281 0.0
H465 H 0.36227 0.4046 0.23797 0.0
H466 H 0.30615 0.43095 0.23795 0.0
H467 H 0.30831 0.4616 0.11048 0.0
H468 H 0.26704 0.43738 0.08075 0.0
H469 H 0.31161 0.42339 0.08859 0.0
H470 H 0.26243 0.35928 0.1027 0.0
H471 H 0.21779 0.37314 0.09515 0.0
H472 H 0.22589 0.35365 0.13457 0.0
H473 H 0.24418 0.45014 0.2273 0.0
H474 H 0.18138 0.46303 0.20651 0.0
H475 H 0.19426 0.42685 0.10799 0.0
C476 C 0.32943 0.39239 0.15556 0.0
C477 C 0.35272 0.39142 0.18532 0.0
C478 C 0.34473 0.40578 0.21493 0.0
C479 C 0.31302 0.42066 0.21512 0.0
C480 C 0.29 0.4209 0.18541 0.0
C481 C 0.29797 0.4074 0.1561 0.0
C482 C 0.26738 0.40935 0.12801 0.0
C483 C 0.28994 0.43443 0.10032 0.0
C484 C 0.24187 0.37161 0.11432 0.0
C485 C 0.2405 0.42543 0.14623 0.0
C486 C 0.25417 0.43198 0.17927 0.0
C487 C 0.23336 0.44541 0.20142 0.0
C488 C 0.19761 0.45238 0.18947 0.0
C489 C 0.18307 0.44586 0.1557 0.0
C490 C 0.20503 0.43246 0.13382 0.0
H491 H 0.63809 0.32011 0.96617 0.0
H492 H 0.65407 0.28355 0.86846 0.0
H493 H 0.63257 0.2213 0.8887 0.0
H494 H 0.67654 0.25737 1.01363 0.0
H495 H 0.63928 0.24969 0.04521 0.0
H496 H 0.65612 0.29209 1.02363 0.0
H497 H 0.57939 0.2841 1.00615 0.0
H498 H 0.56233 0.24185 0.02787 0.0
H499 H 0.54714 0.24373 0.98445 0.0
H500 H 0.60895 0.16301 0.91822 0.0
H501 H 0.58058 0.11099 0.95482 0.0
H502 H 0.58008 0.18246 0.03515 0.0
C503 C 0.63718 0.29903 0.94904 0.0
C504 C 0.64746 0.30715 0.91537 0.0
C505 C 0.64552 0.27842 0.89399 0.0
C506 C 0.63376 0.24282 0.90539 0.0
C507 C 0.624 0.23585 0.93847 0.0
C508 C 0.62532 0.26298 0.96007 0.0
C509 C 0.61225 0.24748 0.9943 0.0
C510 C 0.64819 0.26256 1.02076 0.0
C511 C 0.57294 0.25472 1.00374 0.0
C512 C 0.60309 0.20743 0.98836 0.0
C513 C 0.61046 0.20166 0.95591 0.0
C514 C 0.60326 0.16723 0.9437 0.0
C515 C 0.58719 0.13779 0.96476 0.0
C516 C 0.57843 0.14251 0.99794 0.0
C517 C 0.58721 0.17799 1.01013 0.0
H518 H 0.9373 0.81067 0.47026 0.0
H519 H 0.914 0.84589 0.37101 0.0
H520 H 0.93487 0.90867 0.39164 0.0
H521 H 0.90298 0.87217 0.51629 0.0
H522 H 0.9437 0.88033 0.54884 0.0
H523 H 0.92547 0.83805 0.52672 0.0
H524 H 1.00081 0.84744 0.51104 0.0
H525 H 0.01919 0.88951 0.53346 0.0
H526 H 0.0301 0.88826 0.49035 0.0
H527 H 0.95538 0.96825 0.42443 0.0
H528 H 0.98398 0.01971 0.46373 0.0
H529 H 1.00076 0.94737 0.54058 0.0
C530 C 0.93665 0.83163 0.45285 0.0
C531 C 0.92368 0.82307 0.41885 0.0
C532 C 0.92384 0.85154 0.39699 0.0
C533 C 0.93541 0.88734 0.40862 0.0
C534 C 0.94758 0.89479 0.44227 0.0
C535 C 0.94911 0.86777 0.46394 0.0
C536 C 0.96554 0.88325 0.49852 0.0
C537 C 0.93245 0.8675 0.5241 0.0
C538 C 1.00634 0.87673 0.50895 0.0
C539 C 0.97311 0.92316 0.49299 0.0
C540 C 0.96164 0.92915 0.46052 0.0
C541 C 0.96462 0.96371 0.4498 0.0
C542 C 0.98057 0.99284 0.4724 0.0
C543 C 0.99422 0.98768 0.50535 0.0
C544 C 0.99023 0.9522 0.51565 0.0
H545 H 0.26965 0.72834 0.73225 0.0
H546 H 0.2354 0.78017 0.64496 0.0
H547 H 0.28167 0.75994 0.61199 0.0
H548 H 0.37535 0.75661 0.71854 0.0
H549 H 0.38329 0.7162 0.73364 0.0
H550 H 0.34233 0.72927 0.74917 0.0
H551 H 0.2879 0.66739 0.7317 0.0
H552 H 0.3288 0.65396 0.71633 0.0
H553 H 0.28416 0.65216 0.68931 0.0
H554 H 0.3369 0.73949 0.58984 0.0
H555 H 0.39716 0.72056 0.58046 0.0
H556 H 0.39802 0.68526 0.68292 0.0
C557 C 0.27145 0.73516 0.70612 0.0
C558 C 0.24859 0.75574 0.69125 0.0
C559 C 0.25179 0.7638 0.65687 0.0
C560 C 0.27825 0.75262 0.63793 0.0
C561 C 0.30132 0.73344 0.65369 0.0
C562 C 0.29807 0.72466 0.68699 0.0
C563 C 0.32887 0.7066 0.69871 0.0
C564 C 0.35925 0.72848 0.72666 0.0
C565 C 0.30606 0.66771 0.70965 0.0
C566 C 0.35079 0.70753 0.66703 0.0
C567 C 0.33401 0.72257 0.6412 0.0
C568 C 0.35 0.72731 0.60977 0.0
C569 C 0.38415 0.71648 0.60467 0.0
C570 C 0.40217 0.70154 0.63098 0.0
C571 C 0.385 0.69684 0.66244 0.0
H572 H 0.7207 0.86265 0.82522 0.0
H573 H 0.74538 0.76294 0.81577 0.0
H574 H 0.7841 0.78643 0.7656 0.0
H575 H 0.70836 0.8792 0.7359 0.0
H576 H 0.73402 0.92712 0.74053 0.0
H577 H 0.70556 0.90122 0.77405 0.0
H578 H 0.77164 0.92594 0.81375 0.0
H579 H 0.80044 0.95156 0.7803 0.0
H580 H 0.81941 0.92018 0.80304 0.0
H581 H 0.82282 0.82178 0.71831 0.0
H582 H 0.85834 0.86642 0.67649 0.0
H583 H 0.809 0.94334 0.71718 0.0
C584 C 0.73346 0.8455 0.8121 0.0
C585 C 0.72988 0.81092 0.82411 0.0
C586 C 0.74786 0.78953 0.80687 0.0
C587 C 0.76979 0.8026 0.77838 0.0
C588 C 0.7735 0.83711 0.76757 0.0
C589 C 0.75571 0.85823 0.78379 0.0
C590 C 0.76595 0.895 0.76796 0.0
C591 C 0.7261 0.90097 0.75376 0.0
C592 C 0.79084 0.92493 0.79274 0.0
C593 C 0.79264 0.89138 0.74053 0.0
C594 C 0.79638 0.85771 0.74061 0.0
C595 C 0.81987 0.84815 0.71783 0.0
C596 C 0.83983 0.87361 0.69417 0.0
C597 C 0.83633 0.90826 0.69359 0.0
C598 C 0.81251 0.91717 0.71721 0.0
H599 H 0.82707 0.25601 0.35033 0.0
H600 H 0.89421 0.36034 0.30892 0.0
H601 H 0.86139 0.33872 0.25316 0.0
H602 H 0.83646 0.2033 0.28299 0.0
H603 H 0.78511 0.17017 0.28575 0.0
H604 H 0.81242 0.19459 0.32233 0.0
H605 H 0.75007 0.21566 0.33182 0.0
H606 H 0.72252 0.19129 0.29524 0.0
H607 H 0.73144 0.23871 0.29897 0.0
H608 H 0.82389 0.30418 0.20146 0.0
H609 H 0.78269 0.26039 0.15838 0.0
H610 H 0.74053 0.17909 0.23439 0.0
C611 C 0.83492 0.27431 0.32952 0.0
C612 C 0.86334 0.30977 0.33381 0.0
C613 C 0.87232 0.33312 0.30612 0.0
C614 C 0.85396 0.32104 0.2744 0.0
C615 C 0.82647 0.28569 0.27098 0.0
C616 C 0.81679 0.26278 0.29787 0.0
C617 C 0.78678 0.22595 0.28765 0.0
C618 C 0.80638 0.19679 0.29512 0.0
C619 C 0.74524 0.21742 0.30441 0.0
C620 C 0.7815 0.23147 0.25066 0.0
C621 C 0.80458 0.26608 0.24148 0.0
C622 C 0.80552 0.27708 0.20841 0.0
C623 C 0.78225 0.252 0.18412 0.0
C624 C 0.75833 0.21643 0.19309 0.0
C625 C 0.75797 0.20625 0.22685 0.0
H626 H 0.41894 0.64453 0.3412 0.0
H627 H 0.47654 0.75457 0.37594 0.0
H628 H 0.49537 0.73285 0.4303 0.0
H629 H 0.37682 0.60715 0.42239 0.0
H630 H 0.38643 0.56564 0.41695 0.0
H631 H 0.37545 0.58956 0.38118 0.0
H632 H 0.44425 0.59096 0.3567 0.0
H633 H 0.45556 0.56729 0.39248 0.0
H634 H 0.4928 0.60993 0.38102 0.0
H635 H 0.51456 0.6997 0.47916 0.0
H636 H 0.5264 0.65725 0.52082 0.0
H637 H 0.45241 0.56762 0.45783 0.0
C638 C 0.43463 0.66391 0.36058 0.0
C639 C 0.44578 0.7014 0.35444 0.0
C640 C 0.46714 0.72584 0.3802 0.0
C641 C 0.47819 0.71372 0.41118 0.0
C642 C 0.46742 0.6768 0.41646 0.0
C643 C 0.44551 0.65212 0.39213 0.0
C644 C 0.43833 0.6139 0.40449 0.0
C645 C 0.39147 0.59281 0.40636 0.0
C646 C 0.45897 0.59438 0.38235 0.0
C647 C 0.46019 0.62104 0.43917 0.0
C648 C 0.47701 0.65758 0.44538 0.0
C649 C 0.50082 0.67101 0.47475 0.0
C650 C 0.50744 0.64664 0.49841 0.0
C651 C 0.48984 0.609 0.4932 0.0
C652 C 0.46569 0.59619 0.46304 0.0
H653 H 0.11609 0.4107 0.88462 0.0
H654 H 0.16396 0.50152 0.81899 0.0
H655 H 0.15325 0.54173 0.86147 0.0
H656 H 0.03611 0.43813 0.91779 0.0
H657 H 0.04225 0.42273 0.95948 0.0
H658 H 0.05516 0.40127 0.92474 0.0
H659 H 0.1294 0.41378 0.95157 0.0
H660 H 0.11669 0.43525 0.98643 0.0
H661 H 0.16122 0.45918 0.9631 0.0
H662 H 0.13387 0.57208 0.91059 0.0
H663 H 0.10961 0.59031 0.9614 0.0
H664 H 0.07497 0.48083 0.99793 0.0
C665 C 0.1249 0.43918 0.8794 0.0
C666 C 0.14152 0.45291 0.84827 0.0
C667 C 0.15178 0.49026 0.84247 0.0
C668 C 0.14561 0.51334 0.8666 0.0
C669 C 0.12905 0.49901 0.89686 0.0
C670 C 0.11901 0.46275 0.90345 0.0
C671 C 0.10095 0.45423 0.93783 0.0
C672 C 0.05595 0.4275 0.93477 0.0
C673 C 0.12872 0.43974 0.96111 0.0
C674 C 0.10208 0.49122 0.94953 0.0
C675 C 0.11838 0.51657 0.92534 0.0
C676 C 0.1214 0.55234 0.92963 0.0
C677 C 0.10736 0.5625 0.95888 0.0
C678 C 0.09041 0.53742 0.98443 0.0
C679 C 0.08822 0.50111 0.97949 0.0
H680 H 0.54939 0.84487 0.9261 0.0
H681 H 0.68261 0.88814 0.91469 0.0
H682 H 0.685 0.94702 0.93672 0.0
H683 H 0.52753 0.92841 0.90499 0.0
H684 H 0.48894 0.92015 0.93556 0.0
H685 H 0.49725 0.88289 0.91574 0.0
H686 H 0.51078 0.85793 0.97356 0.0
H687 H 0.50255 0.89511 0.99342 0.0
H688 H 0.55051 0.88642 1.00223 0.0
H689 H 0.67363 0.99881 0.96482 0.0
H690 H 0.64952 0.04004 0.99663 0.0
H691 H 0.52326 0.96289 0.98869 0.0
C692 C 0.57879 0.8671 0.92766 0.0
C693 C 0.6158 0.86264 0.91858 0.0
C694 C 0.654 0.89163 0.92137 0.0
C695 C 0.65558 0.92501 0.93376 0.0
C696 C 0.61856 0.92868 0.94297 0.0
C697 C 0.58081 0.90056 0.93989 0.0
C698 C 0.54606 0.91079 0.95345 0.0
C699 C 0.513 0.91055 0.92578 0.0
C700 C 0.52635 0.8861 0.98238 0.0
C701 C 0.57033 0.94866 0.96543 0.0
C702 C 0.612 0.95861 0.95894 0.0
C703 C 0.64095 0.99155 0.9696 0.0
C704 C 0.62699 1.01474 0.9877 0.0
C705 C 0.58449 1.0048 0.99496 0.0
C706 C 0.55584 0.97156 0.98314 0.0
H707 H 0.97277 0.27393 0.40885 0.0
H708 H 0.88373 0.28431 0.47672 0.0
H709 H 0.89339 0.23524 0.51106 0.0
H710 H 0.94464 0.17899 0.41173 0.0
H711 H 0.99707 0.17832 0.41159 0.0
H712 H 0.98453 0.21506 0.39248 0.0
H713 H 0.04286 0.26063 0.42951 0.0
H714 H 0.05587 0.22401 0.44844 0.0
H715 H 0.04328 0.25534 0.47405 0.0
H716 H 0.90717 0.18241 0.53477 0.0
H717 H 0.93194 0.13313 0.55218 0.0
H718 H 0.01715 0.15885 0.47227 0.0
C719 C 0.95586 0.26606 0.43122 0.0
C720 C 0.92762 0.28279 0.44039 0.0
C721 C 0.90581 0.27196 0.46964 0.0
C722 C 0.9109 0.24404 0.48912 0.0
C723 C 0.93846 0.22769 0.47924 0.0
C724 C 0.96132 0.23867 0.45145 0.0
C725 C 0.9893 0.21664 0.44696 0.0
C726 C 0.9782 0.19603 0.41371 0.0
C727 C 0.03557 0.24059 0.44993 0.0
C728 C 0.97788 0.19119 0.47621 0.0
C729 C 0.94809 0.19791 0.49414 0.0
C730 C 0.93085 0.1771 0.52123 0.0
C731 C 0.94489 0.14896 0.53071 0.0
C732 C 0.97635 0.14213 0.5135 0.0
C733 C 0.99316 0.1636 0.4859 0.0
H734 H 0.2983 0.74269 0.19435 0.0
H735 H 0.3349 0.65309 0.2298 0.0
H736 H 0.2718 0.61094 0.20032 0.0
H737 H 0.18576 0.69929 0.19268 0.0
H738 H 0.17778 0.72085 0.15439 0.0
H739 H 0.2219 0.74297 0.18252 0.0
H740 H 0.27159 0.74878 0.13499 0.0
H741 H 0.22771 0.72649 0.10678 0.0
H742 H 0.26977 0.70897 0.11289 0.0
H743 H 0.20439 0.57836 0.16353 0.0
H744 H 0.1437 0.56014 0.12225 0.0
H745 H 0.15882 0.67212 0.1056 0.0
C746 C 0.29352 0.71425 0.19607 0.0
C747 C 0.32244 0.70161 0.2145 0.0
C748 C 0.31342 0.66385 0.21644 0.0
C749 C 0.27766 0.63959 0.19944 0.0
C750 C 0.25114 0.65334 0.18026 0.0
C751 C 0.25893 0.68992 0.17851 0.0
C752 C 0.22813 0.69853 0.15414 0.0
C753 C 0.20184 0.71647 0.17201 0.0
C754 C 0.25065 0.72208 0.12551 0.0
C755 C 0.20184 0.66112 0.14201 0.0
C756 C 0.21487 0.6352 0.1578 0.0
C757 C 0.19431 0.59859 0.15099 0.0
C758 C 0.15993 0.58843 0.12749 0.0
C759 C 0.14713 0.61473 0.11041 0.0
C760 C 0.16842 0.65147 0.11791 0.0
H761 H 0.28308 0.40316 0.70459 0.0
H762 H 0.23592 0.48917 0.72397 0.0
H763 H 0.2927 0.53114 0.69239 0.0
H764 H 0.39416 0.45722 0.70703 0.0
H765 H 0.40438 0.43227 0.6736 0.0
H766 H 0.36289 0.41051 0.70056 0.0
H767 H 0.3106 0.39211 0.64931 0.0
H768 H 0.35179 0.41411 0.62221 0.0
H769 H 0.30556 0.4263 0.62099 0.0
H770 H 0.35377 0.56323 0.65482 0.0
H771 H 0.41293 0.58218 0.61812 0.0
H772 H 0.41714 0.4739 0.62053 0.0
C773 C 0.28456 0.43087 0.70247 0.0
C774 C 0.25429 0.4425 0.71696 0.0
C775 C 0.25856 0.47934 0.71372 0.0
C776 C 0.29064 0.50337 0.69543 0.0
C777 C 0.31863 0.49045 0.68033 0.0
C778 C 0.31597 0.455 0.68398 0.0
C779 C 0.34865 0.44717 0.66436 0.0
C780 C 0.37933 0.43614 0.68778 0.0
C781 C 0.3279 0.41821 0.63764 0.0
C782 C 0.37004 0.4836 0.64868 0.0
C783 C 0.35252 0.50835 0.65837 0.0
C784 C 0.36748 0.5439 0.64722 0.0
C785 C 0.40119 0.55443 0.62616 0.0
C786 C 0.41981 0.5296 0.61586 0.0
C787 C 0.40351 0.49359 0.62733 0.0
H788 H 0.73905 0.71635 0.91286 0.0
H789 H 0.75191 0.81269 0.96835 0.0
H790 H 0.80585 0.80163 1.00647 0.0
H791 H 0.7572 0.66261 0.98659 0.0
H792 H 0.78501 0.64144 0.96232 0.0
H793 H 0.7435 0.65441 0.94282 0.0
H794 H 0.79413 0.6918 0.89969 0.0
H795 H 0.83584 0.6794 0.91923 0.0
H796 H 0.84204 0.72625 0.91403 0.0
H797 H 0.86661 0.78575 0.0316 0.0
H798 H 0.92415 0.76235 0.04588 0.0
H799 H 0.86801 0.67426 0.97635 0.0
C800 C 0.7523 0.73431 0.93378 0.0
C801 C 0.74135 0.76506 0.93817 0.0
C802 C 0.75966 0.78865 0.96519 0.0
C803 C 0.79032 0.78263 0.98678 0.0
C804 C 0.80147 0.75254 0.98124 0.0
C805 C 0.7823 0.72831 0.95585 0.0
C806 C 0.80158 0.69934 0.95386 0.0
C807 C 0.76993 0.66225 0.96189 0.0
C808 C 0.81946 0.69923 0.91969 0.0
C809 C 0.83582 0.71192 0.98108 0.0
C810 C 0.83529 0.74261 0.99668 0.0
C811 C 0.86662 0.76116 1.02026 0.0
C812 C 0.8992 0.74789 0.0281 0.0
C813 C 0.89973 0.71627 1.01261 0.0
C814 C 0.86746 0.69795 0.98914 0.0
H815 H 0.46564 0.85656 0.23754 0.0
H816 H 0.42146 0.78628 0.15141 0.0
H817 H 0.44516 0.83852 0.11451 0.0
H818 H 0.43849 0.93077 0.20458 0.0
H819 H 0.48455 0.96536 0.22175 0.0
H820 H 0.46493 0.9225 0.24225 0.0
H821 H 0.53661 0.91449 0.23932 0.0
H822 H 0.55657 0.95748 0.21907 0.0
H823 H 0.55954 0.91776 0.19971 0.0
H824 H 0.46945 0.89803 0.08631 0.0
H825 H 0.49947 0.961 0.06832 0.0
H826 H 0.53273 0.99496 0.1712 0.0
C827 C 0.46146 0.85213 0.21092 0.0
C828 C 0.44075 0.81698 0.19762 0.0
C829 C 0.43606 0.81271 0.16251 0.0
C830 C 0.44967 0.84233 0.14119 0.0
C831 C 0.46868 0.8765 0.15501 0.0
C832 C 0.47527 0.88167 0.18901 0.0
C833 C 0.49699 0.92159 0.19696 0.0
C834 C 0.4696 0.93589 0.21761 0.0
C835 C 0.53998 0.92821 0.21482 0.0
C836 C 0.50118 0.93784 0.16217 0.0
C837 C 0.48427 0.91116 0.13846 0.0
C838 C 0.48315 0.91911 0.10465 0.0
C839 C 0.50022 0.95512 0.09466 0.0
C840 C 0.51876 0.98312 0.11821 0.0
C841 C 0.519 0.97423 0.15253 0.0
H842 H 0.11182 0.28407 0.74025 0.0
H843 H 0.16168 0.35019 0.65497 0.0
H844 H 0.13973 0.29655 0.61964 0.0
H845 H 0.13426 0.20525 0.71816 0.0
H846 H 0.08547 0.17326 0.73029 0.0
H847 H 0.10651 0.21666 0.75038 0.0
H848 H 0.03814 0.22888 0.73474 0.0
H849 H 0.01673 0.18535 0.71494 0.0
H850 H 0.01867 0.22524 0.69188 0.0
H851 H 0.11698 0.23484 0.59299 0.0
H852 H 0.0833 0.17123 0.57547 0.0
H853 H 0.03861 0.14401 0.67424 0.0
C854 C 0.11792 0.28746 0.71414 0.0
C855 C 0.14069 0.32208 0.70133 0.0
C856 C 0.14676 0.32446 0.66654 0.0
C857 C 0.13388 0.29389 0.64583 0.0
C858 C 0.11328 0.26037 0.65942 0.0
C859 C 0.1041 0.25696 0.69255 0.0
C860 C 0.07906 0.21768 0.69999 0.0
C861 C 0.10274 0.20231 0.72627 0.0
C862 C 0.03556 0.21408 0.71104 0.0
C863 C 0.07619 0.1998 0.66609 0.0
C864 C 0.0969 0.22498 0.64323 0.0
C865 C 0.10026 0.215 0.61064 0.0
C866 C 0.08129 0.17863 0.60091 0.0
C867 C 0.0583 0.1524 0.62331 0.0
C868 C 0.05591 0.16335 0.65643 0.0
H869 H 0.7934 0.37454 0.43045 0.0
H870 H 0.87911 0.48163 0.41164 0.0
H871 H 0.82206 0.50628 0.41641 0.0
H872 H 0.69922 0.3855 0.38698 0.0
H873 H 0.66532 0.35924 0.41763 0.0
H874 H 0.71152 0.34981 0.40851 0.0
H875 H 0.73613 0.35761 0.47091 0.0
H876 H 0.69026 0.36728 0.48018 0.0
H877 H 0.74123 0.39891 0.49193 0.0
H878 H 0.75808 0.51972 0.43003 0.0
H879 H 0.69225 0.52117 0.45046 0.0
H880 H 0.64692 0.40463 0.45798 0.0
C881 C 0.79965 0.40301 0.42648 0.0
C882 C 0.84007 0.42634 0.42026 0.0
C883 C 0.84793 0.46351 0.41598 0.0
C884 C 0.81579 0.47764 0.41866 0.0
C885 C 0.77616 0.45405 0.42543 0.0
C886 C 0.7679 0.41746 0.42901 0.0
C887 C 0.72355 0.3983 0.4386 0.0
C888 C 0.69842 0.37164 0.41129 0.0
C889 C 0.72278 0.37943 0.47241 0.0
C890 C 0.70849 0.42991 0.44082 0.0
C891 C 0.73915 0.46178 0.43289 0.0
C892 C 0.73351 0.49483 0.43556 0.0
C893 C 0.69577 0.49535 0.44699 0.0
C894 C 0.66395 0.46302 0.45559 0.0
C895 C 0.67044 0.42989 0.45178 0.0
loop_
_geom_bond_atom_site_label_1
_geom_bond_atom_site_label_2
_geom_bond_distance
_geom_bond_site_symmetry_2
_ccdc_geom_bond_type
H0 C3 0.929 . S
H1 C6 0.929 . S
H2 C8 0.930 . S
C3 H0 0.929 . S
C3 C4 1.398 . S
C3 C5 1.396 . S
C4 C3 1.398 . S
C4 C8 1.407 . S
C5 C3 1.396 . S
C5 C6 1.394 . S
C6 H1 0.929 . S
C6 C5 1.394 . S
C6 C7 1.382 . S
C7 C6 1.382 . S
C7 C8 1.392 . S
C7 N9 1.420 . S
C8 H2 0.930 . S
C8 C4 1.407 . S
C8 C7 1.392 . S
N9 C7 1.420 . S
N9 C10 1.244 . S
C10 N9 1.244 . S
H11 C14 0.929 . S
H12 C17 0.929 . S
H13 C19 0.930 . S
C14 H11 0.929 . S
C14 C15 1.398 . S
C14 C16 1.396 . S
C15 C14 1.398 . S
C15 C19 1.407 . S
C16 C14 1.396 . S
C16 C17 1.394 . S
C17 H12 0.929 . S
C17 C16 1.394 . S
C17 C18 1.382 . S
C18 C17 1.382 . S
C18 C19 1.392 . S
C18 N20 1.420 . S
C19 H13 0.930 . S
C19 C15 1.407 . S
C19 C18 1.392 . S
N20 C18 1.420 . S
N20 C21 1.244 . S
C21 N20 1.244 . S
H22 C25 0.929 . S
H23 C28 0.929 . S
H24 C30 0.930 . S
C25 H22 0.929 . S
C25 C26 1.398 . S
C25 C27 1.396 . S
C26 C25 1.398 . S
C26 C30 1.407 . S
C27 C25 1.396 . S
C27 C28 1.394 . S
C28 H23 0.929 . S
C28 C27 1.394 . S
C28 C29 1.382 . S
C29 C28 1.382 . S
C29 C30 1.392 . S
C29 N31 1.420 . S
C30 H24 0.930 . S
C30 C26 1.407 . S
C30 C29 1.392 . S
N31 C29 1.420 . S
N31 C32 1.244 . S
C32 N31 1.244 . S
H33 C36 0.929 . S
H34 C39 0.929 . S
H35 C41 0.930 . S
C36 H33 0.929 . S
C36 C37 1.398 . S
C36 C38 1.396 . S
C37 C36 1.398 . S
C37 C41 1.407 . S
C38 C36 1.396 . S
C38 C39 1.394 . S
C39 H34 0.929 . S
C39 C38 1.394 . S
C39 C40 1.382 . S
C40 C39 1.382 . S
C40 C41 1.392 . S
C40 N42 1.420 . S
C41 H35 0.930 . S
C41 C37 1.407 . S
C41 C40 1.392 . S
N42 C40 1.420 . S
N42 C43 1.244 . S
C43 N42 1.244 . S
H44 C47 0.929 . S
H45 C50 0.929 . S
H46 C52 0.930 . S
C47 H44 0.929 . S
C47 C48 1.398 . S
C47 C49 1.396 . S
C48 C47 1.398 . S
C48 C52 1.407 . S
C49 C47 1.396 . S
C49 C50 1.394 . S
C50 H45 0.929 . S
C50 C49 1.394 . S
C50 C51 1.382 . S
C51 C50 1.382 . S
C51 C52 1.392 . S
C51 N53 1.420 . S
C52 H46 0.930 . S
C52 C48 1.407 . S
C52 C51 1.392 . S
N53 C51 1.420 . S
N53 C54 1.244 . S
C54 N53 1.244 . S
H55 C58 0.929 . S
H56 C61 0.929 . S
H57 C63 0.930 . S
C58 H55 0.929 . S
C58 C59 1.398 . S
C58 C60 1.396 . S
C59 C58 1.398 . S
C59 C63 1.407 . S
C60 C58 1.396 . S
C60 C61 1.394 . S
C61 H56 0.929 . S
C61 C60 1.394 . S
C61 C62 1.382 . S
C62 C61 1.382 . S
C62 C63 1.392 . S
C62 N64 1.420 . S
C63 H57 0.930 . S
C63 C59 1.407 . S
C63 C62 1.392 . S
N64 C62 1.420 . S
N64 C65 1.244 . S
C65 N64 1.244 . S
H66 C69 0.929 . S
H67 C72 0.929 . S
H68 C74 0.930 . S
C69 H66 0.929 . S
C69 C70 1.398 . S
C69 C71 1.396 . S
C70 C69 1.398 . S
C70 C74 1.407 . S
C71 C69 1.396 . S
C71 C72 1.394 . S
C72 H67 0.929 . S
C72 C71 1.394 . S
C72 C73 1.382 . S
C73 C72 1.382 . S
C73 C74 1.392 . S
C73 N75 1.420 . S
C74 H68 0.930 . S
C74 C70 1.407 . S
C74 C73 1.392 . S
N75 C73 1.420 . S
N75 C76 1.244 . S
C76 N75 1.244 . S
H77 C80 0.929 . S
H78 C83 0.929 . S
H79 C85 0.930 . S
C80 H77 0.929 . S
C80 C81 1.398 . S
C80 C82 1.396 . S
C81 C80 1.398 . S
C81 C85 1.407 . S
C82 C80 1.396 . S
C82 C83 1.394 . S
C83 H78 0.929 . S
C83 C82 1.394 . S
C83 C84 1.382 . S
C84 C83 1.382 . S
C84 C85 1.392 . S
C84 N86 1.420 . S
C85 H79 0.930 . S
C85 C81 1.407 . S
C85 C84 1.392 . S
N86 C84 1.420 . S
N86 C87 1.244 . S
C87 N86 1.244 . S
Tb88 C90 2.809 1_545 S
Tb88 O108 2.484 1_545 S
Tb88 O109 2.440 . S
Tb88 O110 2.658 1_655 S
Tb88 O111 2.409 1_655 S
Tb88 O112 2.378 1_655 S
Tb88 O116 2.325 1_545 S
Tb88 O119 2.341 . S
Tb89 C99 2.809 . S
Tb89 O110 2.325 . S
Tb89 O113 2.343 1_545 S
Tb89 O114 2.484 . S
Tb89 O115 2.440 . S
Tb89 O116 2.658 1_445 S
Tb89 O117 2.409 1_545 S
Tb89 O118 2.378 . S
C90 Tb88 2.809 1_565 S
C90 C91 1.514 . S
C90 O108 1.248 . S
C90 O109 1.266 1_565 S
C91 C90 1.514 . S
C91 C92 1.359 . S
C91 C96 1.348 . S
C92 C91 1.359 . S
C92 C93 1.380 . S
C92 H120 0.929 . S
C93 C92 1.380 . S
C93 C94 1.347 . S
C93 H121 0.931 . S
C94 C93 1.347 . S
C94 C95 1.369 . S
C95 C94 1.369 . S
C95 C96 1.408 . S
C95 H122 0.930 . S
C96 C91 1.348 . S
C96 C95 1.408 . S
C96 H123 0.930 . S
C97 O110 1.281 . S
C97 O111 1.254 . S
C98 O112 1.236 1_565 S
C98 O113 1.266 . S
C99 Tb89 2.809 . S
C99 C100 1.514 . S
C99 O114 1.248 . S
C99 O115 1.266 . S
C100 C99 1.514 . S
C100 C101 1.359 . S
C100 C105 1.348 . S
C101 C100 1.359 . S
C101 C102 1.380 . S
C101 H124 0.929 . S
C102 C101 1.380 . S
C102 C103 1.347 . S
C102 H125 0.931 . S
C103 C102 1.347 . S
C103 C104 1.369 . S
C104 C103 1.369 . S
C104 C105 1.408 . S
C104 H126 0.930 . S
C105 C100 1.348 . S
C105 C104 1.408 . S
C105 H127 0.930 . S
C106 O116 1.281 . S
C106 O117 1.254 1_655 S
C107 O118 1.236 1_655 S
C107 O119 1.266 . S
O108 Tb88 2.484 1_565 S
O108 C90 1.248 . S
O109 Tb88 2.440 . S
O109 C90 1.266 1_545 S
O110 Tb88 2.658 1_455 S
O110 Tb89 2.325 . S
O110 C97 1.281 . S
O111 Tb88 2.409 1_455 S
O111 C97 1.254 . S
O112 Tb88 2.378 1_455 S
O112 C98 1.236 1_545 S
O113 Tb89 2.343 1_565 S
O113 C98 1.266 . S
O114 Tb89 2.484 . S
O114 C99 1.248 . S
O115 Tb89 2.440 . S
O115 C99 1.266 . S
O116 Tb88 2.325 1_565 S
O116 Tb89 2.658 1_665 S
O116 C106 1.281 . S
O117 Tb89 2.409 1_565 S
O117 C106 1.254 1_455 S
O118 Tb89 2.378 . S
O118 C107 1.236 1_455 S
O119 Tb88 2.341 . S
O119 C107 1.266 . S
H120 C92 0.929 . S
H121 C93 0.931 . S
H122 C95 0.930 . S
H123 C96 0.930 . S
H124 C101 0.929 . S
H125 C102 0.931 . S
H126 C104 0.930 . S
H127 C105 0.930 . S
Tb128 C130 2.809 . S
Tb128 O148 2.484 . S
Tb128 O149 2.440 . S
Tb128 O150 2.658 1_545 S
Tb128 O151 2.409 1_545 S
Tb128 O152 2.378 . S
Tb128 O156 2.325 . S
Tb128 O159 2.341 . S
Tb129 C139 2.809 1_544 S
Tb129 O150 2.325 1_545 S
Tb129 O153 2.341 . S
Tb129 O154 2.484 1_545 S
Tb129 O155 2.440 1_554 S
Tb129 O156 2.658 . S
Tb129 O157 2.409 1_554 S
Tb129 O158 2.397 . S
C130 Tb128 2.809 . S
C130 C131 1.514 . S
C130 O148 1.248 . S
C130 O149 1.266 . S
C131 C130 1.514 . S
C131 C132 1.359 . S
C131 C136 1.348 . S
C132 C131 1.359 . S
C132 C133 1.380 . S
C132 H160 0.929 . S
C133 C132 1.380 . S
C133 C134 1.347 . S
C133 H161 0.931 . S
C134 C133 1.347 . S
C134 C135 1.369 . S
C135 C134 1.369 . S
C135 C136 1.408 . S
C135 H162 0.930 . S
C136 C131 1.348 . S
C136 C135 1.408 . S
C136 H163 0.930 . S
C137 O150 1.281 . S
C137 O151 1.254 . S
C138 O152 1.236 . S
C138 O153 1.266 . S
C139 Tb129 2.809 1_566 S
C139 C140 1.514 . S
C139 O154 1.248 1_556 S
C139 O155 1.267 1_565 S
C140 C139 1.514 . S
C140 C141 1.359 . S
C140 C145 1.348 . S
C141 C140 1.359 . S
C141 C142 1.380 . S
C141 H164 0.929 . S
C142 C141 1.380 . S
C142 C143 1.347 . S
C142 H165 0.931 . S
C143 C142 1.347 . S
C143 C144 1.369 . S
C144 C143 1.369 . S
C144 C145 1.408 . S
C144 H166 0.930 . S
C145 C140 1.348 . S
C145 C144 1.408 . S
C145 H167 0.930 . S
C146 O156 1.281 . S
C146 O157 1.254 1_554 S
C147 O158 1.217 1_565 S
C147 O159 1.266 1_565 S
O148 Tb128 2.484 . S
O148 C130 1.248 . S
O149 Tb128 2.440 . S
O149 C130 1.266 . S
O150 Tb128 2.658 1_565 S
O150 Tb129 2.325 1_565 S
O150 C137 1.281 . S
O151 Tb128 2.409 1_565 S
O151 C137 1.254 . S
O152 Tb128 2.378 . S
O152 C138 1.236 . S
O153 Tb129 2.341 . S
O153 C138 1.266 . S
O154 Tb129 2.484 1_565 S
O154 C139 1.248 1_554 S
O155 Tb129 2.440 1_556 S
O155 C139 1.267 1_545 S
O156 Tb128 2.325 . S
O156 Tb129 2.658 . S
O156 C146 1.281 . S
O157 Tb129 2.409 1_556 S
O157 C146 1.254 1_556 S
O158 Tb129 2.397 . S
O158 C147 1.217 1_545 S
O159 Tb128 2.341 . S
O159 C147 1.266 1_545 S
H160 C132 0.929 . S
H161 C133 0.931 . S
H162 C135 0.930 . S
H163 C136 0.930 . S
H164 C141 0.929 . S
H165 C142 0.931 . S
H166 C144 0.930 . S
H167 C145 0.930 . S
Tb168 C170 2.809 . S
Tb168 O188 2.484 . S
Tb168 O189 2.440 . S
Tb168 O190 2.658 . S
Tb168 O191 2.409 . S
Tb168 O192 2.378 . S
Tb168 O196 2.325 . S
Tb168 O199 2.341 . S
Tb169 C179 2.809 . S
Tb169 O190 2.325 . S
Tb169 O193 2.341 . S
Tb169 O194 2.484 . S
Tb169 O195 2.440 . S
Tb169 O196 2.658 . S
Tb169 O197 2.409 . S
Tb169 O198 2.378 . S
C170 Tb168 2.809 . S
C170 C171 1.514 . S
C170 O188 1.248 . S
C170 O189 1.266 . S
C171 C170 1.514 . S
C171 C172 1.359 . S
C171 C176 1.348 . S
C172 C171 1.359 . S
C172 C173 1.380 . S
C172 H200 0.929 . S
C173 C172 1.380 . S
C173 C174 1.347 . S
C173 H201 0.931 . S
C174 C173 1.347 . S
C174 C175 1.369 . S
C175 C174 1.369 . S
C175 C176 1.408 . S
C175 H202 0.930 . S
C176 C171 1.348 . S
C176 C175 1.408 . S
C176 H203 0.930 . S
C177 O190 1.281 . S
C177 O191 1.254 . S
C178 O192 1.236 . S
C178 O193 1.266 . S
C179 Tb169 2.809 . S
C179 C180 1.514 . S
C179 O194 1.248 . S
C179 O195 1.266 . S
C180 C179 1.514 . S
C180 C181 1.359 . S
C180 C185 1.348 . S
C181 C180 1.359 . S
C181 C182 1.380 . S
C181 H204 0.929 . S
C182 C181 1.380 . S
C182 C183 1.347 . S
C182 H205 0.931 . S
C183 C182 1.347 . S
C183 C184 1.369 . S
C184 C183 1.369 . S
C184 C185 1.408 . S
C184 H206 0.930 . S
C185 C180 1.348 . S
C185 C184 1.408 . S
C185 H207 0.930 . S
C186 O196 1.281 . S
C186 O197 1.254 . S
C187 O198 1.236 . S
C187 O199 1.266 . S
O188 Tb168 2.484 . S
O188 C170 1.248 . S
O189 Tb168 2.440 . S
O189 C170 1.266 . S
O190 Tb168 2.658 . S
O190 Tb169 2.325 . S
O190 C177 1.281 . S
O191 Tb168 2.409 . S
O191 C177 1.254 . S
O192 Tb168 2.378 . S
O192 C178 1.236 . S
O193 Tb169 2.341 . S
O193 C178 1.266 . S
O194 Tb169 2.484 . S
O194 C179 1.248 . S
O195 Tb169 2.440 . S
O195 C179 1.266 . S
O196 Tb168 2.325 . S
O196 Tb169 2.658 . S
O196 C186 1.281 . S
O197 Tb169 2.409 . S
O197 C186 1.254 . S
O198 Tb169 2.378 . S
O198 C187 1.236 . S
O199 Tb168 2.341 . S
O199 C187 1.266 . S
H200 C172 0.929 . S
H201 C173 0.931 . S
H202 C175 0.930 . S
H203 C176 0.930 . S
H204 C181 0.929 . S
H205 C182 0.931 . S
H206 C184 0.930 . S
H207 C185 0.930 . S
Tb208 C210 2.809 1_455 S
Tb208 O228 2.484 1_455 S
Tb208 O229 2.440 . S
Tb208 O230 2.658 1_556 S
Tb208 O231 2.409 1_556 S
Tb208 O232 2.378 1_556 S
Tb208 O236 2.325 1_455 S
Tb208 O239 2.341 . S
Tb209 C219 2.809 . S
Tb209 O230 2.325 . S
Tb209 O233 2.341 . S
Tb209 O234 2.484 . S
Tb209 O235 2.440 . S
Tb209 O236 2.658 1_454 S
Tb209 O237 2.409 1_455 S
Tb209 O238 2.378 1_554 S
C210 Tb208 2.809 1_655 S
C210 C211 1.514 . S
C210 O228 1.248 . S
C210 O229 1.266 1_655 S
C211 C210 1.514 . S
C211 C212 1.359 . S
C211 C216 1.348 . S
C212 C211 1.359 . S
C212 C213 1.380 . S
C212 H240 0.929 . S
C213 C212 1.380 . S
C213 C214 1.347 . S
C213 H241 0.931 . S
C214 C213 1.347 . S
C214 C215 1.369 . S
C215 C214 1.369 . S
C215 C216 1.408 . S
C215 H242 0.930 . S
C216 C211 1.348 . S
C216 C215 1.408 . S
C216 H243 0.930 1_655 S
C217 O230 1.281 . S
C217 O231 1.254 . S
C218 O232 1.236 1_655 S
C218 O233 1.266 1_655 S
C219 Tb209 2.809 . S
C219 C220 1.514 . S
C219 O234 1.248 . S
C219 O235 1.266 . S
C220 C219 1.514 . S
C220 C221 1.359 . S
C220 C225 1.348 . S
C221 C220 1.359 . S
C221 C222 1.380 . S
C221 H244 0.929 . S
C222 C221 1.380 . S
C222 C223 1.347 . S
C222 H245 0.931 . S
C223 C222 1.347 . S
C223 C224 1.369 . S
C224 C223 1.369 . S
C224 C225 1.408 . S
C224 H246 0.930 . S
C225 C220 1.348 . S
C225 C224 1.408 . S
C225 H247 0.930 . S
C226 O236 1.281 . S
C226 O237 1.254 1_556 S
C227 O238 1.236 . S
C227 O239 1.266 . S
O228 Tb208 2.484 1_655 S
O228 C210 1.248 . S
O229 Tb208 2.440 . S
O229 C210 1.266 1_455 S
O230 Tb208 2.658 1_554 S
O230 Tb209 2.325 . S
O230 C217 1.281 . S
O231 Tb208 2.409 1_554 S
O231 C217 1.254 . S
O232 Tb208 2.378 1_554 S
O232 C218 1.236 1_455 S
O233 Tb209 2.341 . S
O233 C218 1.266 1_455 S
O234 Tb209 2.484 . S
O234 C219 1.248 . S
O235 Tb209 2.440 . S
O235 C219 1.266 . S
O236 Tb208 2.325 1_655 S
O236 Tb209 2.658 1_656 S
O236 C226 1.281 . S
O237 Tb209 2.409 1_655 S
O237 C226 1.254 1_554 S
O238 Tb209 2.378 1_556 S
O238 C227 1.236 . S
O239 Tb208 2.341 . S
O239 C227 1.266 . S
H240 C212 0.929 . S
H241 C213 0.931 . S
H242 C215 0.930 . S
H243 C216 0.930 1_455 S
H244 C221 0.929 . S
H245 C222 0.931 . S
H246 C224 0.930 . S
H247 C225 0.930 . S
H248 C260 0.930 . S
H249 C262 0.930 . S
H250 C263 0.930 . S
H251 C267 0.959 . S
H252 C267 0.959 . S
H253 C267 0.961 . S
H254 C268 0.960 . S
H255 C268 0.961 . S
H256 C268 0.959 . S
H257 C271 0.929 . S
H258 C272 0.931 . S
H259 C274 0.930 . S
C260 H248 0.930 . S
C260 C261 1.399 . S
C260 C265 1.399 . S
C261 C260 1.399 . S
C261 C262 1.376 . S
C262 H249 0.930 . S
C262 C261 1.376 . S
C262 C263 1.388 . S
C263 H250 0.930 . S
C263 C262 1.388 . S
C263 C264 1.390 . S
C264 C263 1.390 . S
C264 C265 1.394 . S
C264 C270 1.465 . S
C265 C260 1.399 . S
C265 C264 1.394 . S
C265 C266 1.516 . S
C266 C265 1.516 . S
C266 C267 1.502 . S
C266 C268 1.561 . S
C266 C269 1.526 . S
C267 H251 0.959 . S
C267 H252 0.959 . S
C267 H253 0.961 . S
C267 C266 1.502 . S
C268 H254 0.960 . S
C268 H255 0.961 . S
C268 H256 0.959 . S
C268 C266 1.561 . S
C269 C266 1.526 . S
C269 C270 1.396 . S
C269 C274 1.390 . S
C270 C264 1.465 . S
C270 C269 1.396 . S
C270 C271 1.399 . S
C271 H257 0.929 . S
C271 C270 1.399 . S
C271 C272 1.385 . S
C272 H258 0.931 . S
C272 C271 1.385 . S
C272 C273 1.389 . S
C273 C272 1.389 . S
C273 C274 1.387 . S
C274 H259 0.930 . S
C274 C269 1.390 . S
C274 C273 1.387 . S
H275 C287 0.930 . S
H276 C289 0.930 . S
H277 C290 0.930 . S
H278 C294 0.959 . S
H279 C294 0.959 . S
H280 C294 0.961 . S
H281 C295 0.960 . S
H282 C295 0.961 . S
H283 C295 0.959 . S
H284 C298 0.929 . S
H285 C299 0.931 . S
H286 C301 0.930 . S
C287 H275 0.930 . S
C287 C288 1.399 . S
C287 C292 1.399 . S
C288 C287 1.399 . S
C288 C289 1.376 . S
C289 H276 0.930 . S
C289 C288 1.376 . S
C289 C290 1.388 . S
C290 H277 0.930 . S
C290 C289 1.388 . S
C290 C291 1.390 . S
C291 C290 1.390 . S
C291 C292 1.394 . S
C291 C297 1.465 . S
C292 C287 1.399 . S
C292 C291 1.394 . S
C292 C293 1.516 . S
C293 C292 1.516 . S
C293 C294 1.502 . S
C293 C295 1.561 . S
C293 C296 1.526 . S
C294 H278 0.959 . S
C294 H279 0.959 . S
C294 H280 0.961 . S
C294 C293 1.502 . S
C295 H281 0.960 . S
C295 H282 0.961 . S
C295 H283 0.959 . S
C295 C293 1.561 . S
C296 C293 1.526 . S
C296 C297 1.396 . S
C296 C301 1.390 . S
C297 C291 1.465 . S
C297 C296 1.396 . S
C297 C298 1.399 . S
C298 H284 0.929 . S
C298 C297 1.399 . S
C298 C299 1.385 . S
C299 H285 0.931 . S
C299 C298 1.385 . S
C299 C300 1.389 . S
C300 C299 1.389 . S
C300 C301 1.387 . S
C301 H286 0.930 . S
C301 C296 1.390 . S
C301 C300 1.387 . S
H302 C314 0.930 . S
H303 C316 0.930 . S
H304 C317 0.930 . S
H305 C321 0.959 . S
H306 C321 0.959 . S
H307 C321 0.961 . S
H308 C322 0.960 . S
H309 C322 0.961 . S
H310 C322 0.959 . S
H311 C325 0.929 . S
H312 C326 0.931 . S
H313 C328 0.930 . S
C314 H302 0.930 . S
C314 C315 1.399 . S
C314 C319 1.399 . S
C315 C314 1.399 . S
C315 C316 1.376 . S
C316 H303 0.930 . S
C316 C315 1.376 . S
C316 C317 1.388 . S
C317 H304 0.930 . S
C317 C316 1.388 . S
C317 C318 1.390 . S
C318 C317 1.390 . S
C318 C319 1.394 . S
C318 C324 1.465 . S
C319 C314 1.399 . S
C319 C318 1.394 . S
C319 C320 1.516 . S
C320 C319 1.516 . S
C320 C321 1.502 . S
C320 C322 1.561 . S
C320 C323 1.526 . S
C321 H305 0.959 . S
C321 H306 0.959 . S
C321 H307 0.961 . S
C321 C320 1.502 . S
C322 H308 0.960 . S
C322 H309 0.961 . S
C322 H310 0.959 . S
C322 C320 1.561 . S
C323 C320 1.526 . S
C323 C324 1.396 . S
C323 C328 1.390 . S
C324 C318 1.465 . S
C324 C323 1.396 . S
C324 C325 1.399 . S
C325 H311 0.929 . S
C325 C324 1.399 . S
C325 C326 1.385 . S
C326 H312 0.931 . S
C326 C325 1.385 . S
C326 C327 1.389 . S
C327 C326 1.389 . S
C327 C328 1.387 . S
C328 H313 0.930 . S
C328 C323 1.390 . S
C328 C327 1.387 . S
H329 C341 0.930 . S
H330 C343 0.930 . S
H331 C344 0.930 . S
H332 C348 0.959 . S
H333 C348 0.959 . S
H334 C348 0.961 . S
H335 C349 0.960 . S
H336 C349 0.961 . S
H337 C349 0.959 . S
H338 C352 0.929 . S
H339 C353 0.931 . S
H340 C355 0.930 . S
C341 H329 0.930 . S
C341 C342 1.399 . S
C341 C346 1.399 . S
C342 C341 1.399 . S
C342 C343 1.376 . S
C343 H330 0.930 . S
C343 C342 1.376 . S
C343 C344 1.388 . S
C344 H331 0.930 . S
C344 C343 1.388 . S
C344 C345 1.390 . S
C345 C344 1.390 . S
C345 C346 1.394 . S
C345 C351 1.465 . S
C346 C341 1.399 . S
C346 C345 1.394 . S
C346 C347 1.516 . S
C347 C346 1.516 . S
C347 C348 1.502 . S
C347 C349 1.561 . S
C347 C350 1.526 . S
C348 H332 0.959 . S
C348 H333 0.959 . S
C348 H334 0.961 . S
C348 C347 1.502 . S
C349 H335 0.960 . S
C349 H336 0.961 . S
C349 H337 0.959 . S
C349 C347 1.561 . S
C350 C347 1.526 . S
C350 C351 1.396 . S
C350 C355 1.390 . S
C351 C345 1.465 . S
C351 C350 1.396 . S
C351 C352 1.399 . S
C352 H338 0.929 . S
C352 C351 1.399 . S
C352 C353 1.385 . S
C353 H339 0.931 . S
C353 C352 1.385 . S
C353 C354 1.389 . S
C354 C353 1.389 . S
C354 C355 1.387 . S
C355 H340 0.930 . S
C355 C350 1.390 . S
C355 C354 1.387 . S
H356 C368 0.930 . S
H357 C370 0.930 . S
H358 C371 0.930 . S
H359 C375 0.959 . S
H360 C375 0.959 . S
H361 C375 0.961 . S
H362 C376 0.960 . S
H363 C376 0.961 . S
H364 C376 0.959 . S
H365 C379 0.929 . S
H366 C380 0.931 . S
H367 C382 0.930 . S
C368 H356 0.930 . S
C368 C369 1.399 . S
C368 C373 1.399 . S
C369 C368 1.399 . S
C369 C370 1.376 . S
C370 H357 0.930 . S
C370 C369 1.376 . S
C370 C371 1.388 . S
C371 H358 0.930 . S
C371 C370 1.388 . S
C371 C372 1.390 . S
C372 C371 1.390 . S
C372 C373 1.394 . S
C372 C378 1.465 . S
C373 C368 1.399 . S
C373 C372 1.394 . S
C373 C374 1.516 . S
C374 C373 1.516 . S
C374 C375 1.502 . S
C374 C376 1.561 . S
C374 C377 1.526 . S
C375 H359 0.959 . S
C375 H360 0.959 . S
C375 H361 0.961 . S
C375 C374 1.502 . S
C376 H362 0.960 . S
C376 H363 0.961 . S
C376 H364 0.959 . S
C376 C374 1.561 . S
C377 C374 1.526 . S
C377 C378 1.396 . S
C377 C382 1.390 . S
C378 C372 1.465 . S
C378 C377 1.396 . S
C378 C379 1.399 . S
C379 H365 0.929 . S
C379 C378 1.399 . S
C379 C380 1.385 . S
C380 H366 0.931 . S
C380 C379 1.385 . S
C380 C381 1.389 . S
C381 C380 1.389 . S
C381 C382 1.387 . S
C382 H367 0.930 . S
C382 C377 1.390 . S
C382 C381 1.387 . S
H383 C395 0.930 . S
H384 C397 0.930 . S
H385 C398 0.930 . S
H386 C402 0.959 1_655 S
H387 C402 0.959 . S
H388 C402 0.961 . S
H389 C403 0.960 . S
H390 C403 0.961 . S
H391 C403 0.959 . S
H392 C406 0.929 . S
H393 C407 0.931 . S
H394 C409 0.930 . S
C395 H383 0.930 . S
C395 C396 1.399 . S
C395 C400 1.399 . S
C396 C395 1.399 . S
C396 C397 1.376 . S
C397 H384 0.930 . S
C397 C396 1.376 . S
C397 C398 1.388 . S
C398 H385 0.930 . S
C398 C397 1.388 . S
C398 C399 1.390 . S
C399 C398 1.390 . S
C399 C400 1.394 . S
C399 C405 1.465 . S
C400 C395 1.399 . S
C400 C399 1.394 . S
C400 C401 1.516 . S
C401 C400 1.516 . S
C401 C402 1.502 . S
C401 C403 1.561 . S
C401 C404 1.526 . S
C402 H386 0.959 1_455 S
C402 H387 0.959 . S
C402 H388 0.961 . S
C402 C401 1.502 . S
C403 H389 0.960 . S
C403 H390 0.961 . S
C403 H391 0.959 . S
C403 C401 1.561 . S
C404 C401 1.526 . S
C404 C405 1.396 . S
C404 C409 1.390 . S
C405 C399 1.465 . S
C405 C404 1.396 . S
C405 C406 1.399 . S
C406 H392 0.929 . S
C406 C405 1.399 . S
C406 C407 1.385 . S
C407 H393 0.931 . S
C407 C406 1.385 . S
C407 C408 1.389 . S
C408 C407 1.389 . S
C408 C409 1.387 . S
C409 H394 0.930 . S
C409 C404 1.390 . S
C409 C408 1.387 . S
H410 C422 0.930 . S
H411 C424 0.930 . S
H412 C425 0.930 . S
H413 C429 0.959 . S
H414 C429 0.959 . S
H415 C429 0.961 . S
H416 C430 0.960 . S
H417 C430 0.961 . S
H418 C430 0.959 . S
H419 C433 0.929 . S
H420 C434 0.931 . S
H421 C436 0.930 . S
C422 H410 0.930 . S
C422 C423 1.399 . S
C422 C427 1.399 . S
C423 C422 1.399 . S
C423 C424 1.376 . S
C424 H411 0.930 . S
C424 C423 1.376 . S
C424 C425 1.388 . S
C425 H412 0.930 . S
C425 C424 1.388 . S
C425 C426 1.390 . S
C426 C425 1.390 . S
C426 C427 1.394 . S
C426 C432 1.465 . S
C427 C422 1.399 . S
C427 C426 1.394 . S
C427 C428 1.516 . S
C428 C427 1.516 . S
C428 C429 1.502 . S
C428 C430 1.561 . S
C428 C431 1.526 . S
C429 H413 0.959 . S
C429 H414 0.959 . S
C429 H415 0.961 . S
C429 C428 1.502 . S
C430 H416 0.960 . S
C430 H417 0.961 . S
C430 H418 0.959 . S
C430 C428 1.561 . S
C431 C428 1.526 . S
C431 C432 1.396 . S
C431 C436 1.390 . S
C432 C426 1.465 . S
C432 C431 1.396 . S
C432 C433 1.399 . S
C433 H419 0.929 . S
C433 C432 1.399 . S
C433 C434 1.385 . S
C434 H420 0.931 . S
C434 C433 1.385 . S
C434 C435 1.389 . S
C435 C434 1.389 . S
C435 C436 1.387 . S
C436 H421 0.930 . S
C436 C431 1.390 . S
C436 C435 1.387 . S
H437 C449 0.930 . S
H438 C451 0.930 . S
H439 C452 0.930 . S
H440 C456 0.959 . S
H441 C456 0.959 . S
H442 C456 0.961 . S
H443 C457 0.960 . S
H444 C457 0.961 . S
H445 C457 0.959 . S
H446 C460 0.929 . S
H447 C461 0.931 . S
H448 C463 0.930 . S
C449 H437 0.930 . S
C449 C450 1.399 . S
C449 C454 1.399 . S
C450 C449 1.399 . S
C450 C451 1.376 . S
C451 H438 0.930 . S
C451 C450 1.376 . S
C451 C452 1.388 . S
C452 H439 0.930 . S
C452 C451 1.388 . S
C452 C453 1.390 . S
C453 C452 1.390 . S
C453 C454 1.394 . S
C453 C459 1.465 . S
C454 C449 1.399 . S
C454 C453 1.394 . S
C454 C455 1.516 . S
C455 C454 1.516 . S
C455 C456 1.502 . S
C455 C457 1.561 . S
C455 C458 1.526 . S
C456 H440 0.959 . S
C456 H441 0.959 . S
C456 H442 0.961 . S
C456 C455 1.502 . S
C457 H443 0.960 . S
C457 H444 0.961 . S
C457 H445 0.959 . S
C457 C455 1.561 . S
C458 C455 1.526 . S
C458 C459 1.396 . S
C458 C463 1.390 . S
C459 C453 1.465 . S
C459 C458 1.396 . S
C459 C460 1.399 . S
C460 H446 0.929 . S
C460 C459 1.399 . S
C460 C461 1.385 . S
C461 H447 0.931 . S
C461 C460 1.385 . S
C461 C462 1.389 . S
C462 C461 1.389 . S
C462 C463 1.387 . S
C463 H448 0.930 . S
C463 C458 1.390 . S
C463 C462 1.387 . S
H464 C476 0.930 . S
H465 C478 0.930 . S
H466 C479 0.930 . S
H467 C483 0.959 . S
H468 C483 0.959 . S
H469 C483 0.961 . S
H470 C484 0.960 . S
H471 C484 0.961 . S
H472 C484 0.959 . S
H473 C487 0.929 . S
H474 C488 0.931 . S
H475 C490 0.930 . S
C476 H464 0.930 . S
C476 C477 1.399 . S
C476 C481 1.399 . S
C477 C476 1.399 . S
C477 C478 1.376 . S
C478 H465 0.930 . S
C478 C477 1.376 . S
C478 C479 1.388 . S
C479 H466 0.930 . S
C479 C478 1.388 . S
C479 C480 1.390 . S
C480 C479 1.390 . S
C480 C481 1.394 . S
C480 C486 1.465 . S
C481 C476 1.399 . S
C481 C480 1.394 . S
C481 C482 1.516 . S
C482 C481 1.516 . S
C482 C483 1.502 . S
C482 C484 1.561 . S
C482 C485 1.526 . S
C483 H467 0.959 . S
C483 H468 0.959 . S
C483 H469 0.961 . S
C483 C482 1.502 . S
C484 H470 0.960 . S
C484 H471 0.961 . S
C484 H472 0.959 . S
C484 C482 1.561 . S
C485 C482 1.526 . S
C485 C486 1.396 . S
C485 C490 1.390 . S
C486 C480 1.465 . S
C486 C485 1.396 . S
C486 C487 1.399 . S
C487 H473 0.929 . S
C487 C486 1.399 . S
C487 C488 1.385 . S
C488 H474 0.931 . S
C488 C487 1.385 . S
C488 C489 1.389 . S
C489 C488 1.389 . S
C489 C490 1.387 . S
C490 H475 0.930 . S
C490 C485 1.390 . S
C490 C489 1.387 . S
H491 C503 0.930 . S
H492 C505 0.930 . S
H493 C506 0.930 . S
H494 C510 0.959 . S
H495 C510 0.959 1_554 S
H496 C510 0.961 . S
H497 C511 0.960 . S
H498 C511 0.961 1_554 S
H499 C511 0.959 . S
H500 C514 0.929 . S
H501 C515 0.931 . S
H502 C517 0.930 1_554 S
C503 H491 0.930 . S
C503 C504 1.399 . S
C503 C508 1.399 . S
C504 C503 1.399 . S
C504 C505 1.376 . S
C505 H492 0.930 . S
C505 C504 1.376 . S
C505 C506 1.388 . S
C506 H493 0.930 . S
C506 C505 1.388 . S
C506 C507 1.390 . S
C507 C506 1.390 . S
C507 C508 1.394 . S
C507 C513 1.465 . S
C508 C503 1.399 . S
C508 C507 1.394 . S
C508 C509 1.516 . S
C509 C508 1.516 . S
C509 C510 1.502 . S
C509 C511 1.561 . S
C509 C512 1.526 . S
C510 H494 0.959 . S
C510 H495 0.959 1_556 S
C510 H496 0.961 . S
C510 C509 1.502 . S
C511 H497 0.960 . S
C511 H498 0.961 1_556 S
C511 H499 0.959 . S
C511 C509 1.561 . S
C512 C509 1.526 . S
C512 C513 1.396 . S
C512 C517 1.390 . S
C513 C507 1.465 . S
C513 C512 1.396 . S
C513 C514 1.399 . S
C514 H500 0.929 . S
C514 C513 1.399 . S
C514 C515 1.385 . S
C515 H501 0.931 . S
C515 C514 1.385 . S
C515 C516 1.389 . S
C516 C515 1.389 . S
C516 C517 1.387 . S
C517 H502 0.930 1_556 S
C517 C512 1.390 . S
C517 C516 1.387 . S
H518 C530 0.930 . S
H519 C532 0.930 . S
H520 C533 0.930 . S
H521 C537 0.959 . S
H522 C537 0.959 . S
H523 C537 0.961 . S
H524 C538 0.960 . S
H525 C538 0.961 . S
H526 C538 0.959 . S
H527 C541 0.929 . S
H528 C542 0.931 . S
H529 C544 0.930 . S
C530 H518 0.930 . S
C530 C531 1.399 . S
C530 C535 1.399 . S
C531 C530 1.399 . S
C531 C532 1.376 . S
C532 H519 0.930 . S
C532 C531 1.376 . S
C532 C533 1.388 . S
C533 H520 0.930 . S
C533 C532 1.388 . S
C533 C534 1.390 . S
C534 C533 1.390 . S
C534 C535 1.394 . S
C534 C540 1.465 . S
C535 C530 1.399 . S
C535 C534 1.394 . S
C535 C536 1.516 . S
C536 C535 1.516 . S
C536 C537 1.502 . S
C536 C538 1.561 . S
C536 C539 1.526 . S
C537 H521 0.959 . S
C537 H522 0.959 . S
C537 H523 0.961 . S
C537 C536 1.502 . S
C538 H524 0.960 . S
C538 H525 0.961 . S
C538 H526 0.959 . S
C538 C536 1.561 . S
C539 C536 1.526 . S
C539 C540 1.396 . S
C539 C544 1.390 . S
C540 C534 1.465 . S
C540 C539 1.396 . S
C540 C541 1.399 . S
C541 H527 0.929 . S
C541 C540 1.399 . S
C541 C542 1.385 . S
C542 H528 0.931 . S
C542 C541 1.385 . S
C542 C543 1.389 . S
C543 C542 1.389 . S
C543 C544 1.387 . S
C544 H529 0.930 . S
C544 C539 1.390 . S
C544 C543 1.387 . S
H545 C557 0.930 . S
H546 C559 0.930 . S
H547 C560 0.930 . S
H548 C564 0.959 . S
H549 C564 0.959 . S
H550 C564 0.961 . S
H551 C565 0.960 . S
H552 C565 0.961 . S
H553 C565 0.959 . S
H554 C568 0.929 . S
H555 C569 0.931 . S
H556 C571 0.930 . S
C557 H545 0.930 . S
C557 C558 1.399 . S
C557 C562 1.399 . S
C558 C557 1.399 . S
C558 C559 1.376 . S
C559 H546 0.930 . S
C559 C558 1.376 . S
C559 C560 1.388 . S
C560 H547 0.930 . S
C560 C559 1.388 . S
C560 C561 1.390 . S
C561 C560 1.390 . S
C561 C562 1.394 . S
C561 C567 1.465 . S
C562 C557 1.399 . S
C562 C561 1.394 . S
C562 C563 1.516 . S
C563 C562 1.516 . S
C563 C564 1.502 . S
C563 C565 1.561 . S
C563 C566 1.526 . S
C564 H548 0.959 . S
C564 H549 0.959 . S
C564 H550 0.961 . S
C564 C563 1.502 . S
C565 H551 0.960 . S
C565 H552 0.961 . S
C565 H553 0.959 . S
C565 C563 1.561 . S
C566 C563 1.526 . S
C566 C567 1.396 . S
C566 C571 1.390 . S
C567 C561 1.465 . S
C567 C566 1.396 . S
C567 C568 1.399 . S
C568 H554 0.929 . S
C568 C567 1.399 . S
C568 C569 1.385 . S
C569 H555 0.931 . S
C569 C568 1.385 . S
C569 C570 1.389 . S
C570 C569 1.389 . S
C570 C571 1.387 . S
C571 H556 0.930 . S
C571 C566 1.390 . S
C571 C570 1.387 . S
H572 C584 0.930 . S
H573 C586 0.930 . S
H574 C587 0.930 . S
H575 C591 0.959 . S
H576 C591 0.959 . S
H577 C591 0.961 . S
H578 C592 0.960 . S
H579 C592 0.961 . S
H580 C592 0.959 . S
H581 C595 0.929 . S
H582 C596 0.931 . S
H583 C598 0.930 . S
C584 H572 0.930 . S
C584 C585 1.399 . S
C584 C589 1.399 . S
C585 C584 1.399 . S
C585 C586 1.376 . S
C586 H573 0.930 . S
C586 C585 1.376 . S
C586 C587 1.388 . S
C587 H574 0.930 . S
C587 C586 1.388 . S
C587 C588 1.390 . S
C588 C587 1.390 . S
C588 C589 1.394 . S
C588 C594 1.465 . S
C589 C584 1.399 . S
C589 C588 1.394 . S
C589 C590 1.516 . S
C590 C589 1.516 . S
C590 C591 1.502 . S
C590 C592 1.561 . S
C590 C593 1.526 . S
C591 H575 0.959 . S
C591 H576 0.959 . S
C591 H577 0.961 . S
C591 C590 1.502 . S
C592 H578 0.960 . S
C592 H579 0.961 . S
C592 H580 0.959 . S
C592 C590 1.561 . S
C593 C590 1.526 . S
C593 C594 1.396 . S
C593 C598 1.390 . S
C594 C588 1.465 . S
C594 C593 1.396 . S
C594 C595 1.399 . S
C595 H581 0.929 . S
C595 C594 1.399 . S
C595 C596 1.385 . S
C596 H582 0.931 . S
C596 C595 1.385 . S
C596 C597 1.389 . S
C597 C596 1.389 . S
C597 C598 1.387 . S
C598 H583 0.930 . S
C598 C593 1.390 . S
C598 C597 1.387 . S
H599 C611 0.930 . S
H600 C613 0.930 . S
H601 C614 0.930 . S
H602 C618 0.959 . S
H603 C618 0.959 . S
H604 C618 0.961 . S
H605 C619 0.960 . S
H606 C619 0.961 . S
H607 C619 0.959 . S
H608 C622 0.929 . S
H609 C623 0.931 . S
H610 C625 0.930 . S
C611 H599 0.930 . S
C611 C612 1.399 . S
C611 C616 1.399 . S
C612 C611 1.399 . S
C612 C613 1.376 . S
C613 H600 0.930 . S
C613 C612 1.376 . S
C613 C614 1.388 . S
C614 H601 0.930 . S
C614 C613 1.388 . S
C614 C615 1.390 . S
C615 C614 1.390 . S
C615 C616 1.394 . S
C615 C621 1.465 . S
C616 C611 1.399 . S
C616 C615 1.394 . S
C616 C617 1.516 . S
C617 C616 1.516 . S
C617 C618 1.502 . S
C617 C619 1.561 . S
C617 C620 1.526 . S
C618 H602 0.959 . S
C618 H603 0.959 . S
C618 H604 0.961 . S
C618 C617 1.502 . S
C619 H605 0.960 . S
C619 H606 0.961 . S
C619 H607 0.959 . S
C619 C617 1.561 . S
C620 C617 1.526 . S
C620 C621 1.396 . S
C620 C625 1.390 . S
C621 C615 1.465 . S
C621 C620 1.396 . S
C621 C622 1.399 . S
C622 H608 0.929 . S
C622 C621 1.399 . S
C622 C623 1.385 . S
C623 H609 0.931 . S
C623 C622 1.385 . S
C623 C624 1.389 . S
C624 C623 1.389 . S
C624 C625 1.387 . S
C625 H610 0.930 . S
C625 C620 1.390 . S
C625 C624 1.387 . S
H626 C638 0.930 . S
H627 C640 0.930 . S
H628 C641 0.930 . S
H629 C645 0.959 . S
H630 C645 0.959 . S
H631 C645 0.961 . S
H632 C646 0.960 . S
H633 C646 0.961 . S
H634 C646 0.959 . S
H635 C649 0.929 . S
H636 C650 0.931 . S
H637 C652 0.930 . S
C638 H626 0.930 . S
C638 C639 1.399 . S
C638 C643 1.399 . S
C639 C638 1.399 . S
C639 C640 1.376 . S
C640 H627 0.930 . S
C640 C639 1.376 . S
C640 C641 1.388 . S
C641 H628 0.930 . S
C641 C640 1.388 . S
C641 C642 1.390 . S
C642 C641 1.390 . S
C642 C643 1.394 . S
C642 C648 1.465 . S
C643 C638 1.399 . S
C643 C642 1.394 . S
C643 C644 1.516 . S
C644 C643 1.516 . S
C644 C645 1.502 . S
C644 C646 1.561 . S
C644 C647 1.526 . S
C645 H629 0.959 . S
C645 H630 0.959 . S
C645 H631 0.961 . S
C645 C644 1.502 . S
C646 H632 0.960 . S
C646 H633 0.961 . S
C646 H634 0.959 . S
C646 C644 1.561 . S
C647 C644 1.526 . S
C647 C648 1.396 . S
C647 C652 1.390 . S
C648 C642 1.465 . S
C648 C647 1.396 . S
C648 C649 1.399 . S
C649 H635 0.929 . S
C649 C648 1.399 . S
C649 C650 1.385 . S
C650 H636 0.931 . S
C650 C649 1.385 . S
C650 C651 1.389 . S
C651 C650 1.389 . S
C651 C652 1.387 . S
C652 H637 0.930 . S
C652 C647 1.390 . S
C652 C651 1.387 . S
H653 C665 0.930 . S
H654 C667 0.930 . S
H655 C668 0.930 . S
H656 C672 0.959 . S
H657 C672 0.959 . S
H658 C672 0.961 . S
H659 C673 0.960 . S
H660 C673 0.961 . S
H661 C673 0.959 . S
H662 C676 0.929 . S
H663 C677 0.931 . S
H664 C679 0.930 . S
C665 H653 0.930 . S
C665 C666 1.399 . S
C665 C670 1.399 . S
C666 C665 1.399 . S
C666 C667 1.376 . S
C667 H654 0.930 . S
C667 C666 1.376 . S
C667 C668 1.388 . S
C668 H655 0.930 . S
C668 C667 1.388 . S
C668 C669 1.390 . S
C669 C668 1.390 . S
C669 C670 1.394 . S
C669 C675 1.465 . S
C670 C665 1.399 . S
C670 C669 1.394 . S
C670 C671 1.516 . S
C671 C670 1.516 . S
C671 C672 1.502 . S
C671 C673 1.561 . S
C671 C674 1.526 . S
C672 H656 0.959 . S
C672 H657 0.959 . S
C672 H658 0.961 . S
C672 C671 1.502 . S
C673 H659 0.960 . S
C673 H660 0.961 . S
C673 H661 0.959 . S
C673 C671 1.561 . S
C674 C671 1.526 . S
C674 C675 1.396 . S
C674 C679 1.390 . S
C675 C669 1.465 . S
C675 C674 1.396 . S
C675 C676 1.399 . S
C676 H662 0.929 . S
C676 C675 1.399 . S
C676 C677 1.385 . S
C677 H663 0.931 . S
C677 C676 1.385 . S
C677 C678 1.389 . S
C678 C677 1.389 . S
C678 C679 1.387 . S
C679 H664 0.930 . S
C679 C674 1.390 . S
C679 C678 1.387 . S
H680 C692 0.930 . S
H681 C694 0.930 . S
H682 C695 0.930 . S
H683 C699 0.959 . S
H684 C699 0.959 . S
H685 C699 0.961 . S
H686 C700 0.960 . S
H687 C700 0.961 . S
H688 C700 0.959 . S
H689 C703 0.929 . S
H690 C704 0.931 . S
H691 C706 0.930 . S
C692 H680 0.930 . S
C692 C693 1.399 . S
C692 C697 1.399 . S
C693 C692 1.399 . S
C693 C694 1.376 . S
C694 H681 0.930 . S
C694 C693 1.376 . S
C694 C695 1.388 . S
C695 H682 0.930 . S
C695 C694 1.388 . S
C695 C696 1.390 . S
C696 C695 1.390 . S
C696 C697 1.394 . S
C696 C702 1.465 . S
C697 C692 1.399 . S
C697 C696 1.394 . S
C697 C698 1.516 . S
C698 C697 1.516 . S
C698 C699 1.502 . S
C698 C700 1.561 . S
C698 C701 1.526 . S
C699 H683 0.959 . S
C699 H684 0.959 . S
C699 H685 0.961 . S
C699 C698 1.502 . S
C700 H686 0.960 . S
C700 H687 0.961 . S
C700 H688 0.959 . S
C700 C698 1.561 . S
C701 C698 1.526 . S
C701 C702 1.396 . S
C701 C706 1.390 . S
C702 C696 1.465 . S
C702 C701 1.396 . S
C702 C703 1.399 1_556 S
C703 H689 0.929 . S
C703 C702 1.399 1_554 S
C703 C704 1.385 . S
C704 H690 0.931 . S
C704 C703 1.385 . S
C704 C705 1.389 . S
C705 C704 1.389 . S
C705 C706 1.387 1_554 S
C706 H691 0.930 . S
C706 C701 1.390 . S
C706 C705 1.387 1_556 S
H707 C719 0.930 . S
H708 C721 0.930 . S
H709 C722 0.930 . S
H710 C726 0.959 . S
H711 C726 0.959 . S
H712 C726 0.961 . S
H713 C727 0.960 . S
H714 C727 0.961 . S
H715 C727 0.959 . S
H716 C730 0.929 . S
H717 C731 0.931 . S
H718 C733 0.930 . S
C719 H707 0.930 . S
C719 C720 1.399 . S
C719 C724 1.399 . S
C720 C719 1.399 . S
C720 C721 1.376 . S
C721 H708 0.930 . S
C721 C720 1.376 . S
C721 C722 1.388 . S
C722 H709 0.930 . S
C722 C721 1.388 . S
C722 C723 1.390 . S
C723 C722 1.390 . S
C723 C724 1.394 . S
C723 C729 1.465 . S
C724 C719 1.399 . S
C724 C723 1.394 . S
C724 C725 1.516 . S
C725 C724 1.516 . S
C725 C726 1.502 . S
C725 C727 1.561 1_655 S
C725 C728 1.526 . S
C726 H710 0.959 . S
C726 H711 0.959 . S
C726 H712 0.961 . S
C726 C725 1.502 . S
C727 H713 0.960 . S
C727 H714 0.961 . S
C727 H715 0.959 . S
C727 C725 1.561 1_455 S
C728 C725 1.526 . S
C728 C729 1.396 . S
C728 C733 1.390 . S
C729 C723 1.465 . S
C729 C728 1.396 . S
C729 C730 1.399 . S
C730 H716 0.929 . S
C730 C729 1.399 . S
C730 C731 1.385 . S
C731 H717 0.931 . S
C731 C730 1.385 . S
C731 C732 1.389 . S
C732 C731 1.389 . S
C732 C733 1.387 . S
C733 H718 0.930 . S
C733 C728 1.390 . S
C733 C732 1.387 . S
H734 C746 0.930 . S
H735 C748 0.930 . S
H736 C749 0.930 . S
H737 C753 0.959 . S
H738 C753 0.959 . S
H739 C753 0.961 . S
H740 C754 0.960 . S
H741 C754 0.961 . S
H742 C754 0.959 . S
H743 C757 0.929 . S
H744 C758 0.931 . S
H745 C760 0.930 . S
C746 H734 0.930 . S
C746 C747 1.399 . S
C746 C751 1.399 . S
C747 C746 1.399 . S
C747 C748 1.376 . S
C748 H735 0.930 . S
C748 C747 1.376 . S
C748 C749 1.388 . S
C749 H736 0.930 . S
C749 C748 1.388 . S
C749 C750 1.390 . S
C750 C749 1.390 . S
C750 C751 1.394 . S
C750 C756 1.465 . S
C751 C746 1.399 . S
C751 C750 1.394 . S
C751 C752 1.516 . S
C752 C751 1.516 . S
C752 C753 1.502 . S
C752 C754 1.561 . S
C752 C755 1.526 . S
C753 H737 0.959 . S
C753 H738 0.959 . S
C753 H739 0.961 . S
C753 C752 1.502 . S
C754 H740 0.960 . S
C754 H741 0.961 . S
C754 H742 0.959 . S
C754 C752 1.561 . S
C755 C752 1.526 . S
C755 C756 1.396 . S
C755 C760 1.390 . S
C756 C750 1.465 . S
C756 C755 1.396 . S
C756 C757 1.399 . S
C757 H743 0.929 . S
C757 C756 1.399 . S
C757 C758 1.385 . S
C758 H744 0.931 . S
C758 C757 1.385 . S
C758 C759 1.389 . S
C759 C758 1.389 . S
C759 C760 1.387 . S
C760 H745 0.930 . S
C760 C755 1.390 . S
C760 C759 1.387 . S
H761 C773 0.930 . S
H762 C775 0.930 . S
H763 C776 0.930 . S
H764 C780 0.959 . S
H765 C780 0.959 . S
H766 C780 0.961 . S
H767 C781 0.960 . S
H768 C781 0.961 . S
H769 C781 0.959 . S
H770 C784 0.929 . S
H771 C785 0.931 . S
H772 C787 0.930 . S
C773 H761 0.930 . S
C773 C774 1.399 . S
C773 C778 1.399 . S
C774 C773 1.399 . S
C774 C775 1.376 . S
C775 H762 0.930 . S
C775 C774 1.376 . S
C775 C776 1.388 . S
C776 H763 0.930 . S
C776 C775 1.388 . S
C776 C777 1.390 . S
C777 C776 1.390 . S
C777 C778 1.394 . S
C777 C783 1.465 . S
C778 C773 1.399 . S
C778 C777 1.394 . S
C778 C779 1.516 . S
C779 C778 1.516 . S
C779 C780 1.502 . S
C779 C781 1.561 . S
C779 C782 1.526 . S
C780 H764 0.959 . S
C780 H765 0.959 . S
C780 H766 0.961 . S
C780 C779 1.502 . S
C781 H767 0.960 . S
C781 H768 0.961 . S
C781 H769 0.959 . S
C781 C779 1.561 . S
C782 C779 1.526 . S
C782 C783 1.396 . S
C782 C787 1.390 . S
C783 C777 1.465 . S
C783 C782 1.396 . S
C783 C784 1.399 . S
C784 H770 0.929 . S
C784 C783 1.399 . S
C784 C785 1.385 . S
C785 H771 0.931 . S
C785 C784 1.385 . S
C785 C786 1.389 . S
C786 C785 1.389 . S
C786 C787 1.387 . S
C787 H772 0.930 . S
C787 C782 1.390 . S
C787 C786 1.387 . S
H788 C800 0.930 . S
H789 C802 0.930 . S
H790 C803 0.930 . S
H791 C807 0.959 . S
H792 C807 0.959 . S
H793 C807 0.961 . S
H794 C808 0.960 . S
H795 C808 0.961 . S
H796 C808 0.959 . S
H797 C811 0.929 . S
H798 C812 0.931 . S
H799 C814 0.930 . S
C800 H788 0.930 . S
C800 C801 1.399 . S
C800 C805 1.399 . S
C801 C800 1.399 . S
C801 C802 1.376 . S
C802 H789 0.930 . S
C802 C801 1.376 . S
C802 C803 1.388 . S
C803 H790 0.930 . S
C803 C802 1.388 . S
C803 C804 1.390 . S
C804 C803 1.390 . S
C804 C805 1.394 . S
C804 C810 1.465 . S
C805 C800 1.399 . S
C805 C804 1.394 . S
C805 C806 1.516 . S
C806 C805 1.516 . S
C806 C807 1.502 . S
C806 C808 1.561 . S
C806 C809 1.526 . S
C807 H791 0.959 . S
C807 H792 0.959 . S
C807 H793 0.961 . S
C807 C806 1.502 . S
C808 H794 0.960 . S
C808 H795 0.961 . S
C808 H796 0.959 . S
C808 C806 1.561 . S
C809 C806 1.526 . S
C809 C810 1.396 . S
C809 C814 1.390 . S
C810 C804 1.465 . S
C810 C809 1.396 . S
C810 C811 1.399 . S
C811 H797 0.929 . S
C811 C810 1.399 . S
C811 C812 1.385 . S
C812 H798 0.931 . S
C812 C811 1.385 . S
C812 C813 1.389 . S
C813 C812 1.389 . S
C813 C814 1.387 . S
C814 H799 0.930 . S
C814 C809 1.390 . S
C814 C813 1.387 . S
H815 C827 0.930 . S
H816 C829 0.930 . S
H817 C830 0.930 . S
H818 C834 0.959 . S
H819 C834 0.959 . S
H820 C834 0.961 . S
H821 C835 0.960 . S
H822 C835 0.961 . S
H823 C835 0.959 . S
H824 C838 0.929 . S
H825 C839 0.931 . S
H826 C841 0.930 . S
C827 H815 0.930 . S
C827 C828 1.399 . S
C827 C832 1.399 . S
C828 C827 1.399 . S
C828 C829 1.376 . S
C829 H816 0.930 . S
C829 C828 1.376 . S
C829 C830 1.388 . S
C830 H817 0.930 . S
C830 C829 1.388 . S
C830 C831 1.390 . S
C831 C830 1.390 . S
C831 C832 1.394 . S
C831 C837 1.465 . S
C832 C827 1.399 . S
C832 C831 1.394 . S
C832 C833 1.516 . S
C833 C832 1.516 . S
C833 C834 1.502 . S
C833 C835 1.561 . S
C833 C836 1.526 . S
C834 H818 0.959 . S
C834 H819 0.959 . S
C834 H820 0.961 . S
C834 C833 1.502 . S
C835 H821 0.960 . S
C835 H822 0.961 . S
C835 H823 0.959 . S
C835 C833 1.561 . S
C836 C833 1.526 . S
C836 C837 1.396 . S
C836 C841 1.390 . S
C837 C831 1.465 . S
C837 C836 1.396 . S
C837 C838 1.399 . S
C838 H824 0.929 . S
C838 C837 1.399 . S
C838 C839 1.385 . S
C839 H825 0.931 . S
C839 C838 1.385 . S
C839 C840 1.389 . S
C840 C839 1.389 . S
C840 C841 1.387 . S
C841 H826 0.930 . S
C841 C836 1.390 . S
C841 C840 1.387 . S
H842 C854 0.930 . S
H843 C856 0.930 . S
H844 C857 0.930 . S
H845 C861 0.959 . S
H846 C861 0.959 . S
H847 C861 0.961 . S
H848 C862 0.960 . S
H849 C862 0.961 . S
H850 C862 0.959 . S
H851 C865 0.929 . S
H852 C866 0.931 . S
H853 C868 0.930 . S
C854 H842 0.930 . S
C854 C855 1.399 . S
C854 C859 1.399 . S
C855 C854 1.399 . S
C855 C856 1.376 . S
C856 H843 0.930 . S
C856 C855 1.376 . S
C856 C857 1.388 . S
C857 H844 0.930 . S
C857 C856 1.388 . S
C857 C858 1.390 . S
C858 C857 1.390 . S
C858 C859 1.394 . S
C858 C864 1.465 . S
C859 C854 1.399 . S
C859 C858 1.394 . S
C859 C860 1.516 . S
C860 C859 1.516 . S
C860 C861 1.502 . S
C860 C862 1.561 . S
C860 C863 1.526 . S
C861 H845 0.959 . S
C861 H846 0.959 . S
C861 H847 0.961 . S
C861 C860 1.502 . S
C862 H848 0.960 . S
C862 H849 0.961 . S
C862 H850 0.959 . S
C862 C860 1.561 . S
C863 C860 1.526 . S
C863 C864 1.396 . S
C863 C868 1.390 . S
C864 C858 1.465 . S
C864 C863 1.396 . S
C864 C865 1.399 . S
C865 H851 0.929 . S
C865 C864 1.399 . S
C865 C866 1.385 . S
C866 H852 0.931 . S
C866 C865 1.385 . S
C866 C867 1.389 . S
C867 C866 1.389 . S
C867 C868 1.387 . S
C868 H853 0.930 . S
C868 C863 1.390 . S
C868 C867 1.387 . S
H869 C881 0.930 . S
H870 C883 0.930 . S
H871 C884 0.930 . S
H872 C888 0.959 . S
H873 C888 0.959 . S
H874 C888 0.961 . S
H875 C889 0.960 . S
H876 C889 0.961 . S
H877 C889 0.959 . S
H878 C892 0.929 . S
H879 C893 0.931 . S
H880 C895 0.930 . S
C881 H869 0.930 . S
C881 C882 1.399 . S
C881 C886 1.399 . S
C882 C881 1.399 . S
C882 C883 1.376 . S
C883 H870 0.930 . S
C883 C882 1.376 . S
C883 C884 1.388 . S
C884 H871 0.930 . S
C884 C883 1.388 . S
C884 C885 1.390 . S
C885 C884 1.390 . S
C885 C886 1.394 . S
C885 C891 1.465 . S
C886 C881 1.399 . S
C886 C885 1.394 . S
C886 C887 1.516 . S
C887 C886 1.516 . S
C887 C888 1.502 . S
C887 C889 1.561 . S
C887 C890 1.526 . S
C888 H872 0.959 . S
C888 H873 0.959 . S
C888 H874 0.961 . S
C888 C887 1.502 . S
C889 H875 0.960 . S
C889 H876 0.961 . S
C889 H877 0.959 . S
C889 C887 1.561 . S
C890 C887 1.526 . S
C890 C891 1.396 . S
C890 C895 1.390 . S
C891 C885 1.465 . S
C891 C890 1.396 . S
C891 C892 1.399 . S
C892 H878 0.929 . S
C892 C891 1.399 . S
C892 C893 1.385 . S
C893 H879 0.931 . S
C893 C892 1.385 . S
C893 C894 1.389 . S
C894 C893 1.389 . S
C894 C895 1.387 . S
C895 H880 0.930 . S
C895 C890 1.390 . S
C895 C894 1.387 . S
C261 C4 1.240 . S
C273 C103 1.269 . S
C288 C16 1.257 . S
C300 C143 1.253 . S
C327 C177 1.913 . S
C315 C32 1.906 . S
C342 C43 2.540 . S
C354 C218 2.500 . S
C381 C138 1.915 . S
C369 C5 1.861 . S
C408 C98 1.725 . S
C396 C21 1.618 . S
C435 C226 1.524 . S
C423 C27 1.541 . S
C462 C187 1.741 . S
C450 C37 1.764 . S
C477 C10 1.214 . S
C489 C223 1.199 . S
C516 C146 2.178 1_556 S
C504 C26 2.266 . S
C531 C38 2.103 . S
C543 C106 2.019 . S
C558 C15 1.718 . S
C570 C174 1.737 . S
C597 C94 1.433 . S
C585 C48 1.389 . S
C612 C59 0.996 . S
C624 C134 1.010 . S
C639 C76 2.174 . S
C651 C186 2.143 . S
C666 C87 2.284 . S
C678 C227 2.258 . S
C693 C54 1.198 . S
C705 C147 1.236 . S
C732 C107 2.377 . S
C720 C60 2.309 . S
C759 C217 1.579 . S
C747 C71 1.514 . S
C786 C178 1.728 . S
C774 C82 1.720 . S
C801 C49 1.595 . S
C813 C214 1.727 . S
C840 C137 1.641 . S
C828 C70 1.679 . S
C867 C97 2.462 . S
C855 C81 2.540 . S
C882 C65 1.434 . S
C894 C183 1.440 . S
