# Generated by pormake.
# Topology tsx, (6,3)-cn, num edge types: 1
# Building blocks:
#     Node 0, Type 0, BuildingBlock: JUFBIX_clean_sbu_0, # of connection points: 6
#     Node 1, Type 0, BuildingBlock: JUFBIX_clean_sbu_0, # of connection points: 6
#     Node 2, Type 1, BuildingBlock: QEWDON_clean_linker_0, # of connection points: 3
#     Node 3, Type 1, BuildingBlock: QEWDON_clean_linker_0, # of connection points: 3
#     Node 4, Type 1, BuildingBlock: QEWDON_clean_linker_0, # of connection points: 3
#     Node 5, Type 1, BuildingBlock: QEWDON_clean_linker_0, # of connection points: 3
#     Edge 6, Type (0, 1), BuildingBlock: KIFKEQ_clean_linker_1, # of connection points: 2
#     Edge 7, Type (0, 1), BuildingBlock: KIFKEQ_clean_linker_1, # of connection points: 2
#     Edge 8, Type (0, 1), BuildingBlock: KIFKEQ_clean_linker_1, # of connection points: 2
#     Edge 9, Type (0, 1), BuildingBlock: KIFKEQ_clean_linker_1, # of connection points: 2
#     Edge 10, Type (0, 1), BuildingBlock: KIFKEQ_clean_linker_1, # of connection points: 2
#     Edge 11, Type (0, 1), BuildingBlock: KIFKEQ_clean_linker_1, # of connection points: 2
#     Edge 12, Type (0, 1), BuildingBlock: KIFKEQ_clean_linker_1, # of connection points: 2
#     Edge 13, Type (0, 1), BuildingBlock: KIFKEQ_clean_linker_1, # of connection points: 2
#     Edge 14, Type (0, 1), BuildingBlock: KIFKEQ_clean_linker_1, # of connection points: 2
#     Edge 15, Type (0, 1), BuildingBlock: KIFKEQ_clean_linker_1, # of connection points: 2
#     Edge 16, Type (0, 1), BuildingBlock: KIFKEQ_clean_linker_1, # of connection points: 2
#     Edge 17, Type (0, 1), BuildingBlock: KIFKEQ_clean_linker_1, # of connection points: 2
# Relax obj value: 0.110
# Max RMSD: 0.169
# Mean RMSD: 0.146
data_MOF--net-tsx--node1-JUFBIX_clean_sbu_0--node2-QEWDON_clean_linker_0--edge1-KIFKEQ_clean_linker_1
_symmetry_space_group_name_H-M    P1
_symmetry_Int_Tables_number       1
_symmetry_cell_setting            triclinic
loop_
_symmetry_equiv_pos_as_xyz
'x, y, z'
_cell_length_a     21.278949
_cell_length_b     26.762632
_cell_length_c     32.773336
_cell_angle_alpha  92.566882
_cell_angle_beta   102.57269
_cell_angle_gamma 99.180472
loop_
_atom_site_label
_atom_site_type_symbol
_atom_site_fract_x
_atom_site_fract_y
_atom_site_fract_z
_atom_type_partial_charge
Co0 Co 0.08273 0.96643 0.00181 0.0
C1 C 1.01227 -0.00409 0.92597 0.0
Co2 Co 1.00981 0.01546 0.00713 0.0
C3 C 0.16949 0.89061 0.01034 0.0
C4 C 0.18866 0.94631 0.96761 0.0
N5 N 0.14773 0.93124 -0.00733 0.0
N6 N 0.22287 0.88071 -0.00238 0.0
C7 C 0.23504 0.91562 0.97084 0.0
H8 H 0.14833 0.87003 0.0332 0.0
H9 H 0.18604 0.97861 0.949 0.0
C10 C 0.07963 -0.01412 0.08329 0.0
N11 N 0.9456 0.05068 0.01712 0.0
C12 C 0.92689 0.0935 0.00208 0.0
C13 C 0.90801 0.03749 0.04453 0.0
N14 N 0.87964 0.1076 0.01951 0.0
C15 C 0.86774 0.07235 0.04615 0.0
C16 C 0.96294 0.90996 -0.00383 0.0
O17 O 0.10936 0.96276 0.06077 0.0
O18 O 0.03566 0.00986 0.06567 0.0
O19 O 0.94906 0.95404 0.00038 0.0
O20 O 0.02177 0.90493 -0.00258 0.0
O21 O 0.98507 0.02104 0.94879 0.0
H22 H 0.91001 0.00458 0.06246 0.0
H23 H 0.94826 0.11434 0.97942 0.0
O24 O 0.05477 0.97012 0.94296 0.0
O25 O 0.1428 0.02871 0.00578 0.0
O26 O 0.07034 0.07635 0.0126 0.0
C27 C 0.12801 0.07256 0.00976 0.0
H28 H 0.2751 0.91886 0.95509 0.0
H29 H 0.83171 0.07141 0.06501 0.0
Co30 Co 0.58972 0.4664 0.50021 0.0
C31 C 0.5269 0.49914 0.42316 0.0
Co32 Co 0.5106 0.51054 0.50188 0.0
C33 C 0.6809 0.3929 0.50602 0.0
C34 C 0.70192 0.45591 0.47029 0.0
N35 N 0.65956 0.43575 0.49283 0.0
N36 N 0.73477 0.38578 0.49225 0.0
C37 C 0.74789 0.4257 0.47001 0.0
H38 H 0.65698 0.3673 0.52482 0.0
H39 H 0.69967 0.49076 0.45495 0.0
C40 C 0.5726 0.47757 0.57899 0.0
N41 N 0.44139 0.5416 0.50899 0.0
C42 C 0.42891 0.58842 0.50055 0.0
C43 C 0.39264 0.52077 0.52657 0.0
N44 N 0.37407 0.59727 0.51195 0.0
C45 C 0.35108 0.55471 0.52819 0.0
C46 C 0.47089 0.40464 0.48586 0.0
O47 O 0.60914 0.45896 0.55864 0.0
O48 O 0.5283 0.5004 0.55989 0.0
O49 O 0.45332 0.4474 0.48968 0.0
O50 O 0.53135 0.40244 0.49052 0.0
O51 O 0.49294 0.52008 0.444 0.0
H52 H 0.38815 0.48349 0.53822 0.0
H53 H 0.45933 0.61541 0.48628 0.0
O54 O 0.56935 0.47444 0.44186 0.0
O55 O 0.64664 0.53019 0.50969 0.0
O56 O 0.56899 0.57388 0.51299 0.0
C57 C 0.62876 0.57278 0.51385 0.0
H58 H 0.78859 0.43325 0.45501 0.0
H59 H 0.30818 0.54901 0.54126 0.0
H60 H 0.08456 0.01435 0.40611 0.0
C61 C 0.10182 0.9813 0.4189 0.0
C62 C 0.12768 0.95075 0.39316 0.0
C63 C 0.1016 0.97079 0.46074 0.0
H64 H 0.17595 0.88657 0.39005 0.0
C65 C 0.1563 0.91051 0.40991 0.0
C66 C 0.15935 0.90031 0.45179 0.0
C67 C 0.1298 0.92929 0.47662 0.0
C68 C 0.07744 0.00589 0.48822 0.0
H69 H 0.13059 0.91991 0.50841 0.0
C70 C 0.03018 0.0476 0.46533 0.0
C71 C 1.01446 0.11425 0.52226 0.0
C72 C 0.10687 0.01042 0.54121 0.0
H73 H 0.13834 -0.01574 0.55376 0.0
C74 C 0.0971 0.05363 0.5781 0.0
H75 H 1.01057 0.0419 0.43142 0.0
C76 C 0.05479 0.10226 0.57091 0.0
H77 H 0.05281 0.12602 0.59804 0.0
H78 H 0.12104 0.04957 0.61016 0.0
H79 H 0.97763 0.04209 0.60251 0.0
C80 C 0.97049 0.00299 0.5903 0.0
C81 C 0.95158 0.96504 0.61542 0.0
C82 C 0.97902 -0.00928 0.54978 0.0
H83 H 0.91934 0.88481 0.61696 0.0
C84 C 0.93503 0.91461 0.59818 0.0
C85 C 0.93503 0.90224 0.55619 0.0
C86 C 0.95787 0.94029 0.53211 0.0
C87 C 0.99841 0.03222 0.52258 0.0
H88 H 0.95781 0.93094 0.49958 0.0
C89 C 0.10503 0.0922 0.51454 0.0
C90 C 0.08711 0.13237 0.47663 0.0
C91 C 0.93203 0.04598 0.48757 0.0
H92 H 0.88391 0.02487 0.48674 0.0
C93 C 0.93954 0.09207 0.45416 0.0
H94 H 0.15636 0.09586 0.53108 0.0
C95 C 1.00907 0.13085 0.44945 0.0
H96 H 1.00224 0.15744 0.42565 0.0
H97 H 0.89468 0.09766 0.43338 0.0
H98 H 0.57426 0.51164 0.90008 0.0
C99 C 0.58697 0.477 0.91265 0.0
C100 C 0.60304 0.44122 0.88595 0.0
C101 C 0.5879 0.46811 0.95485 0.0
H102 H 0.63874 0.37131 0.88113 0.0
C103 C 0.62357 0.39752 0.90172 0.0
C104 C 0.62785 0.38869 0.94397 0.0
C105 C 0.60844 0.42349 0.97018 0.0
C106 C 0.56961 0.50614 0.98274 0.0
H107 H 0.60908 0.41516 0.00222 0.0
C108 C 0.52178 0.54808 0.96085 0.0
C109 C 0.50714 0.61351 0.01916 0.0
C110 C 0.60076 0.51003 0.03547 0.0
H111 H 0.63219 0.48345 0.04715 0.0
C112 C 0.59174 0.55246 0.07317 0.0
H113 H 0.5013 0.54268 0.927 0.0
C114 C 0.5488 0.60081 0.06724 0.0
H115 H 0.54719 0.62386 0.09485 0.0
H116 H 0.61656 0.54796 0.10494 0.0
H117 H 0.4807 0.53469 0.10105 0.0
C118 C 0.46981 0.49662 0.08606 0.0
C119 C 0.45374 0.45621 0.10966 0.0
C120 C 0.47404 0.48781 0.04412 0.0
H121 H 0.41866 0.37605 0.10736 0.0
C122 C 0.43462 0.40712 0.08978 0.0
C123 C 0.43195 0.39807 0.04695 0.0
C124 C 0.45223 0.43845 0.02419 0.0
C125 C 0.49183 0.5314 0.01848 0.0
H126 H 0.45012 0.43166 -0.00898 0.0
C127 C 0.59736 0.59223 0.00987 0.0
C128 C 0.57809 0.63307 0.97275 0.0
C129 C 0.42458 0.54536 0.98444 0.0
H130 H 0.3768 0.52373 0.98376 0.0
C131 C 0.43076 0.59213 0.95152 0.0
H132 H 0.649 0.59577 0.02568 0.0
C133 C 0.49959 0.6315 0.94648 0.0
H134 H 0.49187 0.65866 0.92323 0.0
H135 H 0.38542 0.59778 0.93133 0.0
H136 H 0.10993 0.17134 0.01117 0.0
H137 H 0.25548 0.07729 0.00487 0.0
H138 H 0.18952 0.2467 0.00872 0.0
H139 H 0.33494 0.15286 0.00187 0.0
H140 H 0.46519 0.30734 0.06861 0.0
H141 H 0.39352 0.22499 0.05182 0.0
H142 H 0.25496 0.29185 0.96371 0.0
H143 H 0.32667 0.37459 0.98125 0.0
C144 C 0.15883 0.16672 0.00912 0.0
C145 C 0.17654 0.11838 0.00869 0.0
C146 C 0.20423 0.20987 0.00712 0.0
C147 C 0.26841 0.2057 0.00472 0.0
C148 C 0.28594 0.15729 0.00382 0.0
C149 C 0.24043 0.11406 0.00567 0.0
C150 C 0.4205 0.30388 0.04452 0.0
C151 C 0.40099 0.34716 0.02647 0.0
C152 C 0.3794 0.25677 0.03489 0.0
C153 C 0.31793 0.25221 0.00712 0.0
C154 C 0.30151 0.29452 0.98587 0.0
C155 C 0.34287 0.34167 -0.00459 0.0
H156 H 0.35114 0.89719 0.03259 0.0
H157 H 0.18299 0.77943 -0.00955 0.0
H158 H 0.42175 0.83356 0.04608 0.0
H159 H 0.25331 0.71499 0.00088 0.0
H160 H 0.38916 0.60509 0.04154 0.0
H161 H 0.32095 0.66954 0.04414 0.0
H162 H 0.46917 0.78031 0.01087 0.0
H163 H 0.53853 0.71627 0.01207 0.0
C164 C 0.32956 0.85733 0.02653 0.0
C165 C 0.26204 0.84285 0.01067 0.0
C166 C 0.36992 0.82077 0.03366 0.0
C167 C 0.34387 0.76876 0.02387 0.0
C168 C 0.27549 0.75441 0.00937 0.0
C169 C 0.23496 0.79115 0.00323 0.0
C170 C 0.40643 0.64309 0.03405 0.0
C171 C 0.46651 0.65468 0.02233 0.0
C172 C 0.36735 0.68018 0.03562 0.0
C173 C 0.38796 0.73012 0.02623 0.0
C174 C 0.45066 0.74239 0.01787 0.0
C175 C 0.49003 0.70537 0.01717 0.0
H176 H 0.84516 0.90607 0.94406 0.0
H177 H 0.96009 0.81562 0.02547 0.0
H178 H 0.7531 0.83638 0.92857 0.0
H179 H 0.86625 0.74663 0.013 0.0
H180 H 0.70115 0.61802 0.97098 0.0
H181 H 0.79541 0.68204 0.97002 0.0
H182 H 0.67149 0.79659 0.95593 0.0
H183 H 0.57713 0.73177 0.95353 0.0
C184 C 0.85026 0.87111 0.95894 0.0
C185 C 0.90925 0.86612 0.98622 0.0
C186 C 0.79727 0.83118 0.95035 0.0
C187 C 0.80118 0.78568 0.96991 0.0
C188 C 0.86117 0.78053 -0.00333 0.0
C189 C 0.91499 0.82015 0.00424 0.0
C190 C 0.69414 0.65693 0.96747 0.0
C191 C 0.63214 0.67026 0.96432 0.0
C192 C 0.7484 0.69382 0.96714 0.0
C193 C 0.74215 0.74516 0.96431 0.0
C194 C 0.67898 0.75767 0.95817 0.0
C195 C 0.62447 0.72043 0.95732 0.0
H196 H 0.83456 0.1623 0.07461 0.0
H197 H 0.84951 0.14896 0.94549 0.0
H198 H 0.76975 0.22962 0.05931 0.0
H199 H 0.78517 0.21673 0.93017 0.0
H200 H 0.60437 0.29151 0.90785 0.0
H201 H 0.66749 0.22445 0.92784 0.0
H202 H 0.78145 0.31949 0.03727 0.0
H203 H 0.71899 0.38718 0.01687 0.0
C204 C 0.8241 0.17394 0.04298 0.0
C205 C 0.84658 0.15019 0.01112 0.0
C206 C 0.7874 0.21263 0.03432 0.0
C207 C 0.77185 0.22796 -0.00651 0.0
C208 C 0.79567 0.20508 0.96182 0.0
C209 C 0.83304 0.16676 0.97062 0.0
C210 C 0.6426 0.29799 0.93634 0.0
C211 C 0.65724 0.34486 0.96052 0.0
C212 C 0.67888 0.2597 0.94765 0.0
C213 C 0.73015 0.26718 0.98363 0.0
C214 C 0.74221 0.31277 0.00931 0.0
C215 C 0.70616 0.35135 -0.0022 0.0
H216 H 0.60736 0.6712 0.5161 0.0
H217 H 0.759 0.58111 0.51659 0.0
H218 H 0.687 0.74836 0.51781 0.0
H219 H 0.83792 0.65793 0.51757 0.0
H220 H 0.9651 0.81212 0.58213 0.0
H221 H 0.89205 0.73023 0.5674 0.0
H222 H 0.75642 0.79481 0.47543 0.0
H223 H 0.82963 0.87711 0.49084 0.0
C224 C 0.65758 0.66785 0.51659 0.0
C225 C 0.67687 0.62004 0.51659 0.0
C226 C 0.70305 0.71198 0.51702 0.0
C227 C 0.76874 0.70922 0.51751 0.0
C228 C 0.78785 0.66139 0.51744 0.0
C229 C 0.7425 0.61736 0.51694 0.0
C230 C 0.92076 0.80819 0.5577 0.0
C231 C 0.90287 0.85072 0.53759 0.0
C232 C 0.87875 0.76139 0.54933 0.0
C233 C 0.81784 0.75629 0.52079 0.0
C234 C 0.80247 0.79787 0.49815 0.0
C235 C 0.84481 0.84469 0.50639 0.0
H236 H 0.74429 0.32447 0.55688 0.0
H237 H 0.80972 0.3538 0.44294 0.0
H238 H 0.81416 0.25954 0.57001 0.0
H239 H 0.87996 0.29076 0.45667 0.0
H240 H 0.05051 0.21663 0.51589 0.0
H241 H 0.98206 0.28238 0.51149 0.0
H242 H 0.82485 0.17383 0.53676 0.0
H243 H 0.89337 0.10826 0.54043 0.0
C244 C 0.77313 0.31703 0.5346 0.0
C245 C 0.77208 0.34509 0.49922 0.0
C246 C 0.81333 0.28008 0.54222 0.0
C247 C 0.85349 0.27093 0.51478 0.0
C248 C 0.85098 0.29799 0.47899 0.0
C249 C 0.81061 0.33426 0.47118 0.0
C250 C 1.00077 0.20665 0.51917 0.0
C251 C 0.97488 0.15634 0.52407 0.0
C252 C 0.96189 0.24429 0.51733 0.0
C253 C 0.89728 0.23272 0.52231 0.0
C254 C 0.87395 0.18362 0.53195 0.0
C255 C 0.91279 0.14593 0.53334 0.0
H256 H 0.47105 0.3123 0.51855 0.0
H257 H 0.35505 0.39517 0.43032 0.0
H258 H 0.37772 0.24326 0.50964 0.0
H259 H 0.26322 0.32531 0.4189 0.0
H260 H 0.08878 0.23039 0.45522 0.0
H261 H 0.1838 0.29242 0.45238 0.0
H262 H 0.30415 0.1757 0.47037 0.0
H263 H 0.20932 0.11448 0.47567 0.0
C264 C 0.42608 0.3149 0.49631 0.0
C265 C 0.41979 0.35899 0.47542 0.0
C266 C 0.37246 0.27532 0.49098 0.0
C267 C 0.31202 0.27872 0.46393 0.0
C268 C 0.30786 0.32173 0.441 0.0
C269 C 0.36074 0.36162 0.44715 0.0
C270 C 0.13544 0.21794 0.45853 0.0
C271 C 0.14198 0.16805 0.46741 0.0
C272 C 0.19023 0.25351 0.45646 0.0
C273 C 0.25258 0.23959 0.46189 0.0
C274 C 0.25776 0.1885 0.46755 0.0
C275 C 0.20321 0.15328 0.47051 0.0
H276 H 0.43847 0.69405 0.51952 0.0
H277 H 0.24584 0.60311 0.49685 0.0
H278 H 0.39022 0.77102 0.51349 0.0
H279 H 0.19715 0.67949 0.48943 0.0
H280 H 0.12338 0.82588 0.50161 0.0
H281 H 0.17938 0.75502 0.52313 0.0
H282 H 0.33146 0.81277 0.46022 0.0
H283 H 0.27773 0.88435 0.44104 0.0
C284 C 0.38578 0.69061 0.51291 0.0
C285 C 0.34586 0.6427 0.50839 0.0
C286 C 0.35803 0.73461 0.5095 0.0
C287 C 0.28965 0.73156 0.50088 0.0
C288 C 0.24993 0.68349 0.49691 0.0
C289 C 0.27776 0.63963 0.50084 0.0
C290 C 0.16949 0.82383 0.49326 0.0
C291 C 0.19561 0.86014 0.46907 0.0
C292 C 0.20125 0.783 0.50514 0.0
C293 C 0.25961 0.77776 0.49297 0.0
C294 C 0.28704 0.81558 0.47052 0.0
C295 C 0.25568 0.85635 0.45897 0.0
H296 H 0.03889 0.04409 0.13904 0.0
H297 H 0.15186 0.92469 0.13187 0.0
H298 H 0.05516 0.03937 0.21429 0.0
H299 H 0.16665 0.91888 0.20755 0.0
H300 H 0.22485 0.95125 0.3503 0.0
H301 H 0.21797 0.96238 0.27601 0.0
H302 H 0.01683 0.98232 0.26113 0.0
H303 H 0.02415 0.97184 0.33537 0.0
C304 C 0.06725 0.01673 0.15356 0.0
C305 C 0.09374 -0.01552 0.12942 0.0
C306 C 0.07623 0.01384 0.19675 0.0
C307 C 0.11151 0.97834 0.21696 0.0
C308 C 0.13962 0.94695 0.19302 0.0
C309 C 0.13096 0.95009 0.14965 0.0
C310 C 0.17921 0.95804 0.33107 0.0
C311 C 0.12495 0.96059 0.34862 0.0
C312 C 0.17521 0.96426 0.28851 0.0
C313 C 0.11684 0.97313 0.26254 0.0
C314 C 0.06292 0.97637 0.28032 0.0
C315 C 0.06701 0.97034 0.32287 0.0
H316 H 1.00978 0.91786 0.87013 0.0
H317 H 0.97468 0.07218 0.87852 0.0
H318 H 0.98461 0.9164 0.79368 0.0
H319 H 0.95157 0.0711 0.80146 0.0
H320 H 0.03605 0.03658 0.6726 0.0
H321 H 0.04057 0.04978 0.74753 0.0
H322 H 0.86999 0.9339 0.73419 0.0
H323 H 0.86255 0.92235 0.6589 0.0
C324 C 0.99661 0.95142 0.85554 0.0
C325 C 0.99424 -0.00483 0.88001 0.0
C326 C 0.98195 0.95045 0.81195 0.0
C327 C 0.96614 -0.00642 0.79212 0.0
C328 C 0.9635 0.03744 0.81638 0.0
C329 C 0.97653 0.03797 0.86017 0.0
C330 C 0.99818 0.01501 0.68524 0.0
C331 C 0.94958 0.97773 0.65974 0.0
C332 C 1.00096 0.0226 0.72811 0.0
C333 C 0.95577 -0.00735 0.74621 0.0
C334 C 0.90542 0.95722 0.72067 0.0
C335 C 0.90181 0.95027 0.67773 0.0
H336 H 0.68172 0.46539 0.63744 0.0
H337 H 0.47811 0.47792 0.62246 0.0
H338 H 0.69103 0.45888 0.71313 0.0
H339 H 0.48726 0.4701 0.69733 0.0
H340 H 0.5251 0.38153 0.81968 0.0
H341 H 0.52001 0.39085 0.74503 0.0
H342 H 0.66815 0.52552 0.7771 0.0
H343 H 0.67193 0.51691 0.85208 0.0
C344 C 0.6391 0.46647 0.65027 0.0
C345 C 0.57927 0.47221 0.62423 0.0
C346 C 0.64452 0.46309 0.69339 0.0
C347 C 0.58981 0.46414 0.71067 0.0
C348 C 0.53 0.46922 0.68456 0.0
C349 C 0.52493 0.47376 0.64183 0.0
C350 C 0.55614 0.41326 0.81064 0.0
C351 C 0.59853 0.44875 0.84121 0.0
C352 C 0.55336 0.4185 0.76817 0.0
C353 C 0.59398 0.45868 0.75569 0.0
C354 C 0.63679 0.49407 0.78623 0.0
C355 C 0.63856 0.48943 0.82882 0.0
H356 H 0.4202 0.52166 0.36797 0.0
H357 H 0.61058 0.48087 0.37512 0.0
H358 H 0.3996 0.51397 0.29117 0.0
H359 H 0.59083 0.47449 0.29918 0.0
H360 H 0.50473 0.39854 0.17018 0.0
H361 H 0.51968 0.41311 0.2455 0.0
H362 H 0.43467 0.54912 0.22881 0.0
H363 H 0.41674 0.53317 0.15265 0.0
C364 C 0.45794 0.51193 0.35316 0.0
C365 C 0.51653 0.50109 0.37739 0.0
C366 C 0.44624 0.50763 0.30931 0.0
C367 C 0.49314 0.49267 0.28924 0.0
C368 C 0.55304 0.48471 0.31373 0.0
C369 C 0.56447 0.48862 0.35725 0.0
C370 C 0.48813 0.4311 0.18241 0.0
C371 C 0.45961 0.4647 0.15544 0.0
C372 C 0.49756 0.43986 0.22565 0.0
C373 C 0.47926 0.4827 0.24308 0.0
C374 C 0.44924 0.51581 0.21621 0.0
C375 C 0.43959 0.50693 0.17271 0.0
loop_
_geom_bond_atom_site_label_1
_geom_bond_atom_site_label_2
_geom_bond_distance
_geom_bond_site_symmetry_2
_ccdc_geom_bond_type
Co0 N5 2.057 . S
Co0 O17 2.021 . S
Co0 O20 2.062 . S
Co0 O24 2.117 1_554 S
Co0 O25 2.020 1_565 S
C1 O21 1.259 1_455 S
C1 O24 1.258 1_545 S
Co2 N11 2.057 . S
Co2 O18 2.117 1_655 S
Co2 O19 2.018 1_545 S
Co2 O21 2.021 1_554 S
Co2 O26 2.062 1_655 S
C3 N5 1.316 . S
C3 N6 1.347 . S
C3 H8 0.931 . S
C4 N5 1.375 1_556 S
C4 C7 1.350 . S
C4 H9 0.930 . S
N5 Co0 2.057 . S
N5 C3 1.316 . S
N5 C4 1.375 1_554 S
N6 C3 1.347 . S
N6 C7 1.373 1_554 S
C7 C4 1.350 . S
C7 N6 1.373 1_556 S
C7 H28 0.931 . S
H8 C3 0.931 . S
H9 C4 0.930 . S
C10 O17 1.263 . S
C10 O18 1.255 1_565 S
N11 Co2 2.057 . S
N11 C12 1.316 1_554 S
N11 C13 1.375 . S
C12 N11 1.316 1_556 S
C12 N14 1.347 1_556 S
C12 H23 0.931 . S
C13 N11 1.375 . S
C13 C15 1.350 . S
C13 H22 0.930 . S
N14 C12 1.347 1_554 S
N14 C15 1.373 . S
C15 C13 1.350 . S
C15 N14 1.373 . S
C15 H29 0.931 . S
C16 O19 1.257 . S
C16 O20 1.255 1_655 S
O17 Co0 2.021 . S
O17 C10 1.263 . S
O18 Co2 2.117 1_455 S
O18 C10 1.255 1_545 S
O19 Co2 2.018 1_565 S
O19 C16 1.257 . S
O20 Co0 2.062 . S
O20 C16 1.255 1_455 S
O21 C1 1.259 1_655 S
O21 Co2 2.021 1_556 S
H22 C13 0.930 . S
H23 C12 0.931 . S
O24 Co0 2.117 1_556 S
O24 C1 1.258 1_565 S
O25 Co0 2.020 1_545 S
O25 C27 1.256 . S
O26 Co2 2.062 1_455 S
O26 C27 1.255 . S
C27 O25 1.256 . S
C27 O26 1.255 . S
H28 C7 0.931 . S
H29 C15 0.931 . S
Co30 N35 2.057 . S
Co30 O47 2.021 . S
Co30 O50 2.062 . S
Co30 O54 2.117 . S
Co30 O55 2.020 . S
C31 O51 1.259 . S
C31 O54 1.258 . S
Co32 N41 2.057 . S
Co32 O48 2.117 . S
Co32 O49 2.020 . S
Co32 O51 2.021 . S
Co32 O56 2.062 . S
C33 N35 1.316 . S
C33 N36 1.347 . S
C33 H38 0.931 . S
C34 N35 1.375 . S
C34 C37 1.350 . S
C34 H39 0.930 . S
N35 Co30 2.057 . S
N35 C33 1.316 . S
N35 C34 1.375 . S
N36 C33 1.347 . S
N36 C37 1.373 . S
C37 C34 1.350 . S
C37 N36 1.373 . S
C37 H58 0.931 . S
H38 C33 0.931 . S
H39 C34 0.930 . S
C40 O47 1.259 . S
C40 O48 1.258 . S
N41 Co32 2.057 . S
N41 C42 1.316 . S
N41 C43 1.375 . S
C42 N41 1.316 . S
C42 N44 1.347 . S
C42 H53 0.931 . S
C43 N41 1.375 . S
C43 C45 1.350 . S
C43 H52 0.930 . S
N44 C42 1.347 . S
N44 C45 1.373 . S
C45 C43 1.350 . S
C45 N44 1.373 . S
C45 H59 0.931 . S
C46 O49 1.256 . S
C46 O50 1.255 . S
O47 Co30 2.021 . S
O47 C40 1.259 . S
O48 Co32 2.117 . S
O48 C40 1.258 . S
O49 Co32 2.020 . S
O49 C46 1.256 . S
O50 Co30 2.062 . S
O50 C46 1.255 . S
O51 C31 1.259 . S
O51 Co32 2.021 . S
H52 C43 0.930 . S
H53 C42 0.931 . S
O54 Co30 2.117 . S
O54 C31 1.258 . S
O55 Co30 2.020 . S
O55 C57 1.256 . S
O56 Co32 2.062 . S
O56 C57 1.255 . S
C57 O55 1.256 . S
C57 O56 1.255 . S
H58 C37 0.931 . S
H59 C45 0.931 . S
H60 C61 0.949 . S
C61 H60 0.949 . S
C61 C62 1.395 1_545 S
C61 C63 1.391 . S
C62 C61 1.395 1_565 S
C62 C65 1.390 . S
C63 C61 1.391 . S
C63 C67 1.387 1_545 S
C63 C68 1.491 . S
H64 C65 0.950 . S
C65 C62 1.390 . S
C65 H64 0.950 . S
C65 C66 1.378 . S
C66 C65 1.378 . S
C66 C67 1.409 . S
C67 C63 1.387 1_565 S
C67 C66 1.409 . S
C67 H69 0.951 . S
C68 C63 1.491 . S
C68 C70 1.382 1_455 S
C68 C72 1.404 . S
H69 C67 0.951 . S
C70 C68 1.382 1_655 S
C70 C71 1.390 . S
C70 H75 0.949 . S
C71 C70 1.390 . S
C71 C76 1.399 1_655 S
C72 C68 1.404 . S
C72 H73 0.950 . S
C72 C74 1.375 . S
H73 C72 0.950 . S
C74 C72 1.375 . S
C74 C76 1.382 . S
C74 H78 0.950 . S
H75 C70 0.949 . S
C76 C71 1.399 1_455 S
C76 C74 1.382 . S
C76 H77 0.952 . S
H77 C76 0.952 . S
H78 C74 0.950 . S
H79 C80 0.949 . S
C80 H79 0.949 . S
C80 C81 1.395 1_445 S
C80 C82 1.391 1_455 S
C81 C80 1.395 1_665 S
C81 C84 1.390 . S
C82 C80 1.391 1_655 S
C82 C86 1.387 1_545 S
C82 C87 1.491 1_655 S
H83 C84 0.950 . S
C84 C81 1.390 . S
C84 H83 0.950 . S
C84 C85 1.378 . S
C85 C84 1.378 . S
C85 C86 1.409 . S
C86 C82 1.387 1_565 S
C86 C85 1.409 . S
C86 H88 0.951 . S
C87 C82 1.491 1_455 S
C87 C89 1.382 . S
C87 C91 1.404 1_455 S
H88 C86 0.951 . S
C89 C87 1.382 . S
C89 C90 1.390 . S
C89 H94 0.949 . S
C90 C89 1.390 . S
C90 C95 1.399 . S
C91 C87 1.404 1_655 S
C91 H92 0.950 . S
C91 C93 1.375 . S
H92 C91 0.950 . S
C93 C91 1.375 . S
C93 C95 1.382 1_655 S
C93 H97 0.950 . S
H94 C89 0.949 . S
C95 C90 1.399 . S
C95 C93 1.382 1_455 S
C95 H96 0.952 . S
H96 C95 0.952 . S
H97 C93 0.950 . S
H98 C99 0.949 . S
C99 H98 0.949 . S
C99 C100 1.395 . S
C99 C101 1.391 . S
C100 C99 1.395 . S
C100 C103 1.390 . S
C101 C99 1.391 . S
C101 C105 1.387 . S
C101 C106 1.491 1_556 S
H102 C103 0.950 . S
C103 C100 1.390 . S
C103 H102 0.950 . S
C103 C104 1.378 . S
C104 C103 1.378 . S
C104 C105 1.409 . S
C105 C101 1.387 . S
C105 C104 1.409 . S
C105 H107 0.951 1_556 S
C106 C101 1.491 1_554 S
C106 C108 1.382 1_554 S
C106 C110 1.404 . S
H107 C105 0.951 1_554 S
C108 C106 1.382 1_556 S
C108 C109 1.390 1_556 S
C108 H113 0.949 . S
C109 C108 1.390 1_554 S
C109 C114 1.399 . S
C110 C106 1.404 . S
C110 H111 0.950 . S
C110 C112 1.375 . S
H111 C110 0.950 . S
C112 C110 1.375 . S
C112 C114 1.382 . S
C112 H116 0.950 . S
H113 C108 0.949 . S
C114 C109 1.399 . S
C114 C112 1.382 . S
C114 H115 0.952 . S
H115 C114 0.952 . S
H116 C112 0.950 . S
H117 C118 0.949 . S
C118 H117 0.949 . S
C118 C119 1.395 . S
C118 C120 1.391 . S
C119 C118 1.395 . S
C119 C122 1.390 . S
C120 C118 1.391 . S
C120 C124 1.387 . S
C120 C125 1.491 . S
H121 C122 0.950 . S
C122 C119 1.390 . S
C122 H121 0.950 . S
C122 C123 1.378 . S
C123 C122 1.378 . S
C123 C124 1.409 . S
C124 C120 1.387 . S
C124 C123 1.409 . S
C124 H126 0.951 1_554 S
C125 C120 1.491 . S
C125 C127 1.382 . S
C125 C129 1.404 1_554 S
H126 C124 0.951 1_556 S
C127 C125 1.382 . S
C127 C128 1.371 1_554 S
C127 H132 0.949 . S
C128 C127 1.371 1_556 S
C128 C133 1.419 . S
C129 C125 1.404 1_556 S
C129 H130 0.950 . S
C129 C131 1.375 . S
H130 C129 0.950 . S
C131 C129 1.375 . S
C131 C133 1.382 . S
C131 H135 0.950 . S
H132 C127 0.949 . S
C133 C128 1.419 . S
C133 C131 1.382 . S
C133 H134 0.952 . S
H134 C133 0.952 . S
H135 C131 0.950 . S
H136 C144 0.950 . S
H137 C149 0.950 . S
H138 C146 0.950 . S
H139 C148 0.950 . S
H140 C150 0.974 . S
H141 C152 0.950 . S
H142 C154 0.950 . S
H143 C155 0.950 . S
C144 H136 0.950 . S
C144 C145 1.386 . S
C144 C146 1.391 . S
C145 C144 1.386 . S
C145 C149 1.393 1_554 S
C146 H138 0.950 . S
C146 C144 1.391 . S
C146 C147 1.400 . S
C147 C146 1.400 . S
C147 C148 1.398 1_554 S
C147 C153 1.491 . S
C148 H139 0.950 . S
C148 C147 1.398 1_556 S
C148 C149 1.391 . S
C149 H137 0.950 . S
C149 C145 1.393 1_556 S
C149 C148 1.391 . S
C150 H140 0.974 . S
C150 C151 1.365 1_556 S
C150 C152 1.388 . S
C151 C150 1.365 1_554 S
C151 C155 1.393 . S
C152 H141 0.950 . S
C152 C150 1.388 . S
C152 C153 1.400 1_556 S
C153 C147 1.491 . S
C153 C152 1.400 1_554 S
C153 C154 1.398 . S
C154 H142 0.950 . S
C154 C153 1.398 . S
C154 C155 1.391 . S
C155 H143 0.950 . S
C155 C151 1.393 . S
C155 C154 1.391 . S
H156 C164 0.950 . S
H157 C169 0.950 1_556 S
H158 C166 0.950 . S
H159 C168 0.950 1_556 S
H160 C170 0.950 . S
H161 C172 0.950 . S
H162 C174 0.950 . S
H163 C175 0.950 . S
C164 H156 0.950 . S
C164 C165 1.386 . S
C164 C166 1.391 . S
C165 C164 1.386 . S
C165 C169 1.393 . S
C166 H158 0.950 . S
C166 C164 1.391 . S
C166 C167 1.400 . S
C167 C166 1.400 . S
C167 C168 1.398 . S
C167 C173 1.491 . S
C168 H159 0.950 1_554 S
C168 C167 1.398 . S
C168 C169 1.391 . S
C169 H157 0.950 1_554 S
C169 C165 1.393 . S
C169 C168 1.391 . S
C170 H160 0.950 . S
C170 C171 1.386 1_556 S
C170 C172 1.391 . S
C171 C170 1.386 1_554 S
C171 C175 1.393 . S
C172 H161 0.950 . S
C172 C170 1.391 . S
C172 C173 1.400 1_556 S
C173 C167 1.491 . S
C173 C172 1.400 1_554 S
C173 C174 1.398 . S
C174 H162 0.950 . S
C174 C173 1.398 . S
C174 C175 1.391 . S
C175 H163 0.950 . S
C175 C171 1.393 . S
C175 C174 1.391 . S
H176 C184 0.950 . S
H177 C189 0.950 . S
H178 C186 0.950 . S
H179 C188 0.950 . S
H180 C190 0.950 . S
H181 C192 0.950 . S
H182 C194 0.950 . S
H183 C195 0.950 . S
C184 H176 0.950 . S
C184 C185 1.386 1_556 S
C184 C186 1.391 . S
C185 C184 1.386 1_554 S
C185 C189 1.393 . S
C186 H178 0.950 . S
C186 C184 1.391 . S
C186 C187 1.400 1_556 S
C187 C186 1.400 1_554 S
C187 C188 1.398 . S
C187 C193 1.491 . S
C188 H179 0.950 . S
C188 C187 1.398 . S
C188 C189 1.391 . S
C189 H177 0.950 . S
C189 C185 1.393 . S
C189 C188 1.391 . S
C190 H180 0.950 . S
C190 C191 1.386 . S
C190 C192 1.391 . S
C191 C190 1.386 . S
C191 C195 1.393 1_554 S
C192 H181 0.950 . S
C192 C190 1.391 . S
C192 C193 1.400 . S
C193 C187 1.491 . S
C193 C192 1.400 . S
C193 C194 1.398 1_554 S
C194 H182 0.950 . S
C194 C193 1.398 1_556 S
C194 C195 1.391 . S
C195 H183 0.950 . S
C195 C191 1.393 1_556 S
C195 C194 1.391 . S
H196 C204 0.950 . S
H197 C209 0.950 . S
H198 C206 0.950 . S
H199 C208 0.950 . S
H200 C210 0.950 . S
H201 C212 0.950 . S
H202 C214 0.950 . S
H203 C215 0.950 . S
C204 H196 0.950 . S
C204 C205 1.386 1_554 S
C204 C206 1.391 . S
C205 C204 1.386 1_556 S
C205 C209 1.393 . S
C206 H198 0.950 . S
C206 C204 1.391 . S
C206 C207 1.400 1_554 S
C207 C206 1.400 1_556 S
C207 C208 1.398 . S
C207 C213 1.491 . S
C208 H199 0.950 . S
C208 C207 1.398 . S
C208 C209 1.391 . S
C209 H197 0.950 . S
C209 C205 1.393 . S
C209 C208 1.391 . S
C210 H200 0.950 . S
C210 C211 1.386 . S
C210 C212 1.391 . S
C211 C210 1.386 . S
C211 C215 1.393 1_556 S
C212 H201 0.950 . S
C212 C210 1.391 . S
C212 C213 1.400 . S
C213 C207 1.491 . S
C213 C212 1.400 . S
C213 C214 1.398 1_556 S
C214 H202 0.950 . S
C214 C213 1.398 1_554 S
C214 C215 1.391 . S
C215 H203 0.950 . S
C215 C211 1.393 1_554 S
C215 C214 1.391 . S
H216 C224 0.950 . S
H217 C229 0.950 . S
H218 C226 0.950 . S
H219 C228 0.950 . S
H220 C230 0.950 . S
H221 C232 0.950 . S
H222 C234 0.950 . S
H223 C235 0.950 . S
C224 H216 0.950 . S
C224 C225 1.386 . S
C224 C226 1.391 . S
C225 C224 1.386 . S
C225 C229 1.393 . S
C226 H218 0.950 . S
C226 C224 1.391 . S
C226 C227 1.400 . S
C227 C226 1.400 . S
C227 C228 1.398 . S
C227 C233 1.491 . S
C228 H219 0.950 . S
C228 C227 1.398 . S
C228 C229 1.391 . S
C229 H217 0.950 . S
C229 C225 1.393 . S
C229 C228 1.391 . S
C230 H220 0.950 . S
C230 C231 1.386 . S
C230 C232 1.391 . S
C231 C230 1.386 . S
C231 C235 1.393 . S
C232 H221 0.950 . S
C232 C230 1.391 . S
C232 C233 1.400 . S
C233 C227 1.491 . S
C233 C232 1.400 . S
C233 C234 1.398 . S
C234 H222 0.950 . S
C234 C233 1.398 . S
C234 C235 1.391 . S
C235 H223 0.950 . S
C235 C231 1.393 . S
C235 C234 1.391 . S
H236 C244 0.950 . S
H237 C249 0.950 . S
H238 C246 0.950 . S
H239 C248 0.950 . S
H240 C250 0.950 . S
H241 C252 0.950 . S
H242 C254 0.950 . S
H243 C255 0.950 . S
C244 H236 0.950 . S
C244 C245 1.386 . S
C244 C246 1.391 . S
C245 C244 1.386 . S
C245 C249 1.393 . S
C246 H238 0.950 . S
C246 C244 1.391 . S
C246 C247 1.400 . S
C247 C246 1.400 . S
C247 C248 1.398 . S
C247 C253 1.491 . S
C248 H239 0.950 . S
C248 C247 1.398 . S
C248 C249 1.391 . S
C249 H237 0.950 . S
C249 C245 1.393 . S
C249 C248 1.391 . S
C250 H240 0.950 . S
C250 C251 1.386 . S
C250 C252 1.391 . S
C251 C250 1.386 . S
C251 C255 1.393 . S
C252 H241 0.950 . S
C252 C250 1.391 . S
C252 C253 1.400 . S
C253 C247 1.491 . S
C253 C252 1.400 . S
C253 C254 1.398 . S
C254 H242 0.950 . S
C254 C253 1.398 . S
C254 C255 1.391 . S
C255 H243 0.950 . S
C255 C251 1.393 . S
C255 C254 1.391 . S
H256 C264 0.950 . S
H257 C269 0.950 . S
H258 C266 0.950 . S
H259 C268 0.950 . S
H260 C270 0.950 . S
H261 C272 0.950 . S
H262 C274 0.950 . S
H263 C275 0.950 . S
C264 H256 0.950 . S
C264 C265 1.386 . S
C264 C266 1.391 . S
C265 C264 1.386 . S
C265 C269 1.393 . S
C266 H258 0.950 . S
C266 C264 1.391 . S
C266 C267 1.400 . S
C267 C266 1.400 . S
C267 C268 1.398 . S
C267 C273 1.491 . S
C268 H259 0.950 . S
C268 C267 1.398 . S
C268 C269 1.391 . S
C269 H257 0.950 . S
C269 C265 1.393 . S
C269 C268 1.391 . S
C270 H260 0.950 . S
C270 C271 1.386 . S
C270 C272 1.391 . S
C271 C270 1.386 . S
C271 C275 1.393 . S
C272 H261 0.950 . S
C272 C270 1.391 . S
C272 C273 1.400 . S
C273 C267 1.491 . S
C273 C272 1.400 . S
C273 C274 1.398 . S
C274 H262 0.950 . S
C274 C273 1.398 . S
C274 C275 1.391 . S
C275 H263 0.950 . S
C275 C271 1.393 . S
C275 C274 1.391 . S
H276 C284 0.950 . S
H277 C289 0.950 . S
H278 C286 0.950 . S
H279 C288 0.950 . S
H280 C290 0.950 . S
H281 C292 0.950 . S
H282 C294 0.950 . S
H283 C295 0.950 . S
C284 H276 0.950 . S
C284 C285 1.386 . S
C284 C286 1.391 . S
C285 C284 1.386 . S
C285 C289 1.393 . S
C286 H278 0.950 . S
C286 C284 1.391 . S
C286 C287 1.400 . S
C287 C286 1.400 . S
C287 C288 1.398 . S
C287 C293 1.491 . S
C288 H279 0.950 . S
C288 C287 1.398 . S
C288 C289 1.391 . S
C289 H277 0.950 . S
C289 C285 1.393 . S
C289 C288 1.391 . S
C290 H280 0.950 . S
C290 C291 1.386 . S
C290 C292 1.391 . S
C291 C290 1.386 . S
C291 C295 1.393 . S
C292 H281 0.950 . S
C292 C290 1.391 . S
C292 C293 1.400 . S
C293 C287 1.491 . S
C293 C292 1.400 . S
C293 C294 1.398 . S
C294 H282 0.950 . S
C294 C293 1.398 . S
C294 C295 1.391 . S
C295 H283 0.950 . S
C295 C291 1.393 . S
C295 C294 1.391 . S
H296 C304 0.950 1_655 S
H297 C309 0.950 . S
H298 C306 0.955 . S
H299 C308 0.950 . S
H300 C310 0.950 . S
H301 C312 0.950 . S
H302 C314 0.950 . S
H303 C315 0.950 . S
C304 H296 0.950 1_455 S
C304 C305 1.386 1_545 S
C304 C306 1.391 . S
C305 C304 1.386 1_565 S
C305 C309 1.393 . S
C306 H298 0.955 . S
C306 C304 1.391 . S
C306 C307 1.400 1_545 S
C307 C306 1.400 1_565 S
C307 C308 1.398 . S
C307 C313 1.491 . S
C308 H299 0.950 . S
C308 C307 1.398 . S
C308 C309 1.391 . S
C309 H297 0.950 . S
C309 C305 1.393 . S
C309 C308 1.391 . S
C310 H300 0.950 . S
C310 C311 1.386 . S
C310 C312 1.391 . S
C311 C310 1.386 . S
C311 C315 1.393 1_565 S
C312 H301 0.950 . S
C312 C310 1.391 . S
C312 C313 1.400 . S
C313 C307 1.491 . S
C313 C312 1.400 . S
C313 C314 1.398 1_565 S
C314 H302 0.950 . S
C314 C313 1.398 1_545 S
C314 C315 1.391 . S
C315 H303 0.950 . S
C315 C311 1.393 1_545 S
C315 C314 1.391 . S
H316 C324 0.950 . S
H317 C329 0.950 . S
H318 C326 0.950 . S
H319 C328 0.950 . S
H320 C330 0.950 . S
H321 C332 0.950 . S
H322 C334 0.950 . S
H323 C335 0.950 . S
C324 H316 0.950 . S
C324 C325 1.386 1_665 S
C324 C326 1.391 . S
C325 C324 1.386 1_445 S
C325 C329 1.393 . S
C326 H318 0.950 . S
C326 C324 1.391 . S
C326 C327 1.397 1_565 S
C327 C326 1.397 1_545 S
C327 C328 1.402 1_655 S
C327 C333 1.491 1_545 S
C328 H319 0.950 . S
C328 C327 1.402 1_455 S
C328 C329 1.391 . S
C329 H317 0.950 . S
C329 C325 1.393 . S
C329 C328 1.391 . S
C330 H320 0.950 . S
C330 C331 1.386 1_445 S
C330 C332 1.391 . S
C331 C330 1.386 1_665 S
C331 C335 1.393 . S
C332 H321 0.950 . S
C332 C330 1.391 . S
C332 C333 1.400 1_445 S
C333 C327 1.491 1_565 S
C333 C332 1.400 1_665 S
C333 C334 1.398 . S
C334 H322 0.950 . S
C334 C333 1.398 . S
C334 C335 1.391 . S
C335 H323 0.950 . S
C335 C331 1.393 . S
C335 C334 1.391 . S
H336 C344 0.950 . S
H337 C349 0.950 . S
H338 C346 0.950 . S
H339 C348 0.950 . S
H340 C350 0.950 . S
H341 C352 0.950 . S
H342 C354 0.950 . S
H343 C355 0.950 . S
C344 H336 0.950 . S
C344 C345 1.386 . S
C344 C346 1.391 . S
C345 C344 1.386 . S
C345 C349 1.393 . S
C346 H338 0.950 . S
C346 C344 1.391 . S
C346 C347 1.400 . S
C347 C346 1.400 . S
C347 C348 1.398 . S
C347 C353 1.491 . S
C348 H339 0.950 . S
C348 C347 1.398 . S
C348 C349 1.391 . S
C349 H337 0.950 . S
C349 C345 1.393 . S
C349 C348 1.391 . S
C350 H340 0.950 . S
C350 C351 1.386 . S
C350 C352 1.391 . S
C351 C350 1.386 . S
C351 C355 1.393 . S
C352 H341 0.950 . S
C352 C350 1.391 . S
C352 C353 1.400 . S
C353 C347 1.491 . S
C353 C352 1.400 . S
C353 C354 1.398 . S
C354 H342 0.950 . S
C354 C353 1.398 . S
C354 C355 1.391 . S
C355 H343 0.950 . S
C355 C351 1.393 . S
C355 C354 1.391 . S
H356 C364 0.950 . S
H357 C369 0.950 . S
H358 C366 0.950 . S
H359 C368 0.950 . S
H360 C370 0.950 . S
H361 C372 0.950 . S
H362 C374 0.950 . S
H363 C375 0.950 . S
C364 H356 0.950 . S
C364 C365 1.386 . S
C364 C366 1.391 . S
C365 C364 1.386 . S
C365 C369 1.393 . S
C366 H358 0.950 . S
C366 C364 1.391 . S
C366 C367 1.400 . S
C367 C366 1.400 . S
C367 C368 1.398 . S
C367 C373 1.491 . S
C368 H359 0.950 . S
C368 C367 1.398 . S
C368 C369 1.391 . S
C369 H357 0.950 . S
C369 C365 1.393 . S
C369 C368 1.391 . S
C370 H360 0.950 . S
C370 C371 1.386 . S
C370 C372 1.391 . S
C371 C370 1.386 . S
C371 C375 1.393 . S
C372 H361 0.950 . S
C372 C370 1.391 . S
C372 C373 1.400 . S
C373 C367 1.491 . S
C373 C372 1.400 . S
C373 C374 1.398 . S
C374 H362 0.950 . S
C374 C373 1.398 . S
C374 C375 1.391 . S
C375 H363 0.950 . S
C375 C371 1.393 . S
C375 C374 1.391 . S
C151 C123 1.520 . S
C145 C27 1.545 . S
C165 N6 1.390 . S
C171 C109 1.392 . S
C185 C16 1.449 . S
C191 C128 1.409 1_554 S
C205 N14 1.506 1_556 S
C211 C104 1.512 . S
C225 C57 1.544 . S
C231 C85 1.525 . S
C245 N36 1.379 . S
C251 C71 1.379 . S
C271 C90 1.414 . S
C265 C46 1.442 . S
C291 C66 1.516 . S
C285 N44 1.507 . S
C305 C10 1.524 . S
C311 C62 1.519 . S
C325 C1 1.562 . S
C331 C81 1.551 . S
C351 C100 1.513 . S
C345 C40 1.526 . S
C365 C31 1.563 . S
C371 C119 1.547 . S
