# Generated by pormake.
# Topology ssa, (4,4)-cn, num edge types: 1
# Building blocks:
#     Node 0, Type 0, BuildingBlock: NAWXER_clean_sbu_0, # of connection points: 4
#     Node 1, Type 0, BuildingBlock: NAWXER_clean_sbu_0, # of connection points: 4
#     Node 2, Type 0, BuildingBlock: NAWXER_clean_sbu_0, # of connection points: 4
#     Node 3, Type 0, BuildingBlock: NAWXER_clean_sbu_0, # of connection points: 4
#     Node 4, Type 0, BuildingBlock: NAWXER_clean_sbu_0, # of connection points: 4
#     Node 5, Type 0, BuildingBlock: NAWXER_clean_sbu_0, # of connection points: 4
#     Node 6, Type 1, BuildingBlock: NAHDIM_clean_linker_0, # of connection points: 4
#     Node 7, Type 1, BuildingBlock: NAHDIM_clean_linker_0, # of connection points: 4
#     Node 8, Type 1, BuildingBlock: NAHDIM_clean_linker_0, # of connection points: 4
#     Node 9, Type 1, BuildingBlock: NAHDIM_clean_linker_0, # of connection points: 4
#     Node 10, Type 1, BuildingBlock: NAHDIM_clean_linker_0, # of connection points: 4
#     Node 11, Type 1, BuildingBlock: NAHDIM_clean_linker_0, # of connection points: 4
#     Edge 12, Type (0, 1), BuildingBlock: MIFKUJ_clean_linker_0, # of connection points: 2
#     Edge 13, Type (0, 1), BuildingBlock: MIFKUJ_clean_linker_0, # of connection points: 2
#     Edge 14, Type (0, 1), BuildingBlock: MIFKUJ_clean_linker_0, # of connection points: 2
#     Edge 15, Type (0, 1), BuildingBlock: MIFKUJ_clean_linker_0, # of connection points: 2
#     Edge 16, Type (0, 1), BuildingBlock: MIFKUJ_clean_linker_0, # of connection points: 2
#     Edge 17, Type (0, 1), BuildingBlock: MIFKUJ_clean_linker_0, # of connection points: 2
#     Edge 18, Type (0, 1), BuildingBlock: MIFKUJ_clean_linker_0, # of connection points: 2
#     Edge 19, Type (0, 1), BuildingBlock: MIFKUJ_clean_linker_0, # of connection points: 2
#     Edge 20, Type (0, 1), BuildingBlock: MIFKUJ_clean_linker_0, # of connection points: 2
#     Edge 21, Type (0, 1), BuildingBlock: MIFKUJ_clean_linker_0, # of connection points: 2
#     Edge 22, Type (0, 1), BuildingBlock: MIFKUJ_clean_linker_0, # of connection points: 2
#     Edge 23, Type (0, 1), BuildingBlock: MIFKUJ_clean_linker_0, # of connection points: 2
#     Edge 24, Type (0, 1), BuildingBlock: MIFKUJ_clean_linker_0, # of connection points: 2
#     Edge 25, Type (0, 1), BuildingBlock: MIFKUJ_clean_linker_0, # of connection points: 2
#     Edge 26, Type (0, 1), BuildingBlock: MIFKUJ_clean_linker_0, # of connection points: 2
#     Edge 27, Type (0, 1), BuildingBlock: MIFKUJ_clean_linker_0, # of connection points: 2
#     Edge 28, Type (0, 1), BuildingBlock: MIFKUJ_clean_linker_0, # of connection points: 2
#     Edge 29, Type (0, 1), BuildingBlock: MIFKUJ_clean_linker_0, # of connection points: 2
#     Edge 30, Type (0, 1), BuildingBlock: MIFKUJ_clean_linker_0, # of connection points: 2
#     Edge 31, Type (0, 1), BuildingBlock: MIFKUJ_clean_linker_0, # of connection points: 2
#     Edge 32, Type (0, 1), BuildingBlock: MIFKUJ_clean_linker_0, # of connection points: 2
#     Edge 33, Type (0, 1), BuildingBlock: MIFKUJ_clean_linker_0, # of connection points: 2
#     Edge 34, Type (0, 1), BuildingBlock: MIFKUJ_clean_linker_0, # of connection points: 2
#     Edge 35, Type (0, 1), BuildingBlock: MIFKUJ_clean_linker_0, # of connection points: 2
# Relax obj value: 0.028
# Max RMSD: 0.056
# Mean RMSD: 0.044
data_MOF--net-ssa--node1-NAWXER_clean_sbu_0--node2-NAHDIM_clean_linker_0--edge1-MIFKUJ_clean_linker_0
_symmetry_space_group_name_H-M    P1
_symmetry_Int_Tables_number       1
_symmetry_cell_setting            triclinic
loop_
_symmetry_equiv_pos_as_xyz
'x, y, z'
_cell_length_a     73.841381
_cell_length_b     73.839797
_cell_length_c     63.070504
_cell_angle_alpha  89.823754
_cell_angle_beta   90.388605
_cell_angle_gamma 119.98225
loop_
_atom_site_label
_atom_site_type_symbol
_atom_site_fract_x
_atom_site_fract_y
_atom_site_fract_z
_atom_type_partial_charge
C0 C 0.02544 0.52986 0.03907 0.0
C1 C 0.99422 0.46543 0.99776 0.0
O2 O 0.00842 0.51307 0.04286 0.0
Zn3 Zn 0.00978 0.49755 0.01906 0.0
O4 O 0.03672 0.5308 0.02324 0.0
Zn5 Zn 0.03578 0.51044 0.99811 0.0
O6 O 0.03578 0.52572 0.97304 0.0
O7 O 0.00776 0.51518 0.99293 0.0
O8 O 0.01206 0.47928 0.99065 0.0
O9 O 0.9868 0.46948 0.01401 0.0
O10 O 0.03522 0.49331 0.02866 0.0
O11 O 0.05979 0.50712 0.00427 0.0
C12 C 0.01853 0.52504 0.97665 0.0
C13 C 0.05324 0.4976 0.02182 0.0
C14 C 0.49178 0.00927 0.54489 0.0
C15 C 0.51461 0.97084 0.50004 0.0
O16 O 0.48892 0.991 0.54784 0.0
Zn17 Zn 0.50272 0.98965 0.52243 0.0
O18 O 0.50148 0.01955 0.52831 0.0
Zn19 Zn 0.51612 0.01523 0.50097 0.0
O20 O 0.49977 0.01652 0.47757 0.0
O21 O 0.4821 0.9888 0.49788 0.0
O22 O 0.51981 0.98898 0.49257 0.0
O23 O 0.50427 0.96478 0.51715 0.0
O24 O 0.53499 0.01238 0.52819 0.0
O25 O 0.54464 0.03768 0.50449 0.0
C26 C 0.48284 0.99985 0.48183 0.0
C27 C 0.54895 0.02982 0.52034 0.0
C28 C 0.48941 0.47906 0.98136 0.0
C29 C 0.52248 0.54146 0.02581 0.0
O30 O 0.48945 0.49608 0.97819 0.0
Zn31 Zn 0.50665 0.51097 0.00262 0.0
O32 O 0.49972 0.47748 0.99697 0.0
Zn33 Zn 0.51934 0.49644 0.02221 0.0
O34 O 0.50442 0.47967 0.0463 0.0
O35 O 0.48779 0.49342 0.02939 0.0
O36 O 0.52615 0.52707 0.03214 0.0
O37 O 0.51201 0.53885 0.00887 0.0
O38 O 0.53682 0.51672 0.9934 0.0
O39 O 0.54647 0.49986 0.01545 0.0
C40 C 0.48872 0.48232 0.04463 0.0
C41 C 0.5503 0.51164 0.9994 0.0
C42 C 0.00838 0.52568 0.47506 0.0
C43 C 0.97331 0.46211 0.5175 0.0
O44 O 0.01887 0.52613 0.49152 0.0
Zn45 Zn 0.01652 0.50586 0.51695 0.0
O46 O 0.99117 0.50926 0.47076 0.0
Zn47 Zn 0.99079 0.49321 0.49535 0.0
O48 O 0.98892 0.51115 0.52155 0.0
O49 O 0.01744 0.52204 0.54115 0.0
O50 O 0.96695 0.46554 0.49998 0.0
O51 O 0.99105 0.47571 0.52521 0.0
O52 O 0.03961 0.50091 0.51213 0.0
O53 O 0.01468 0.48601 0.48807 0.0
C54 C 1.00004 0.5212 0.53774 0.0
C55 C 0.0324 0.48979 0.49554 0.0
C56 C 0.53075 0.9995 0.04782 0.0
C57 C 0.50406 0.03558 0.00392 0.0
O58 O 0.53358 0.01779 0.05069 0.0
Zn59 Zn 0.5172 0.01767 0.02667 0.0
O60 O 0.5198 0.98853 0.03199 0.0
Zn61 Zn 0.50303 0.99169 0.00546 0.0
O62 O 0.51835 0.99005 0.98148 0.0
O63 O 0.53651 0.01834 0.00105 0.0
O64 O 0.49934 0.01755 0.99669 0.0
O65 O 0.51395 0.04185 0.02138 0.0
O66 O 0.48636 0.99371 0.03513 0.0
O67 O 0.47454 0.96953 0.01013 0.0
C68 C 0.53525 0.00706 0.98507 0.0
C69 C 0.47181 0.97636 0.02759 0.0
C70 C 0.54345 0.50762 0.52641 0.0
C71 C 0.48396 0.47464 0.47782 0.0
O72 O 0.52886 0.51158 0.53102 0.0
Zn73 Zn 0.49811 0.50345 0.51926 0.0
O74 O 0.54103 0.49566 0.51086 0.0
Zn75 Zn 0.5136 0.49022 0.5026 0.0
O76 O 0.52022 0.52084 0.49205 0.0
O77 O 0.50189 0.5304 0.51197 0.0
O78 O 0.49975 0.47213 0.47839 0.0
O79 O 0.48183 0.48588 0.49187 0.0
O80 O 0.4795 0.48803 0.54238 0.0
O81 O 0.49553 0.47223 0.52903 0.0
C82 C 0.51474 0.53428 0.49695 0.0
C83 C 0.48319 0.47299 0.5427 0.0
C84 C 0.13192 0.37619 0.40374 0.0
C85 C 0.13849 0.39621 0.39107 0.0
C86 C 0.14741 0.39381 0.35486 0.0
C87 C 0.16444 0.41364 0.35066 0.0
C88 C 0.1799 0.41615 0.33622 0.0
C89 C 0.1784 0.39834 0.3261 0.0
C90 C 0.16078 0.37837 0.32982 0.0
C91 C 0.14527 0.37642 0.34394 0.0
C92 C 0.19816 0.43775 0.33232 0.0
C93 C 0.15875 0.35899 0.31956 0.0
C94 C 0.32566 0.40365 0.3748 0.0
C95 C 0.30485 0.39519 0.36433 0.0
C96 C 0.2819 0.40773 0.35072 0.0
C97 C 0.26717 0.38872 0.34129 0.0
C98 C 0.25031 0.38725 0.32944 0.0
C99 C 0.24837 0.40524 0.32661 0.0
C100 C 0.26322 0.4244 0.33602 0.0
C101 C 0.27968 0.42531 0.34812 0.0
C102 C 0.23457 0.36648 0.31992 0.0
C103 C 0.26174 0.44392 0.33327 0.0
C104 C 0.28568 0.41133 0.19179 0.0
C105 C 0.26996 0.39184 0.19931 0.0
C106 C 0.25206 0.38987 0.20913 0.0
C107 C 0.25001 0.40779 0.21179 0.0
C108 C 0.26549 0.42728 0.20366 0.0
C109 C 0.28303 0.42871 0.19356 0.0
C110 C 0.23552 0.36871 0.21704 0.0
C111 C 0.26377 0.44668 0.20613 0.0
C112 C 0.09517 0.38405 0.17924 0.0
C113 C 0.1175 0.4019 0.17563 0.0
C114 C 0.14646 0.39615 0.18454 0.0
C115 C 0.14928 0.37905 0.18812 0.0
C116 C 0.16556 0.38083 0.20115 0.0
C117 C 0.17974 0.40042 0.2103 0.0
C118 C 0.17735 0.41798 0.20617 0.0
C119 C 0.16063 0.41563 0.19341 0.0
C120 C 0.16764 0.36177 0.2051 0.0
C121 C 0.19262 0.43926 0.21499 0.0
C122 C 0.19618 0.40041 0.31334 0.0
C123 C 0.21328 0.40171 0.3244 0.0
C124 C 0.23085 0.40404 0.31375 0.0
C125 C 0.23148 0.40512 0.29136 0.0
C126 C 0.24908 0.40789 0.28017 0.0
C127 C 0.24943 0.40849 0.25815 0.0
C128 C 0.23218 0.40632 0.24643 0.0
C129 C 0.23221 0.40635 0.22401 0.0
C130 C 0.21502 0.40461 0.21283 0.0
C131 C 0.19754 0.40265 0.22342 0.0
C132 C 0.19708 0.40229 0.24588 0.0
C133 C 0.1797 0.4001 0.25711 0.0
C134 C 0.17945 0.39974 0.27921 0.0
C135 C 0.1964 0.40117 0.29091 0.0
C136 C 0.21411 0.40346 0.2799 0.0
C137 C 0.21447 0.40407 0.25739 0.0
C138 C 0.31964 0.40137 0.20746 0.0
C139 C 0.31227 0.40129 0.18463 0.0
O140 O 0.13326 0.39112 0.36989 0.0
O141 O 0.13027 0.39344 0.17203 0.0
O142 O 0.30366 0.41418 0.18295 0.0
O143 O 0.29838 0.40982 0.36241 0.0
H144 H 0.15576 0.40627 0.39297 0.0
H145 H 0.14022 0.36821 0.39767 0.0
H146 H 0.11481 0.36531 0.40225 0.0
H147 H 0.13604 0.37994 0.42076 0.0
H148 H 0.16572 0.42708 0.35894 0.0
H149 H 0.13191 0.36119 0.34726 0.0
H150 H 0.21223 0.43926 0.34044 0.0
H151 H 0.19525 0.45016 0.33841 0.0
H152 H 0.20161 0.44031 0.3151 0.0
H153 H 0.14455 0.34453 0.32485 0.0
H154 H 0.17271 0.35761 0.32337 0.0
H155 H 0.15802 0.36021 0.30207 0.0
H156 H 0.29246 0.3798 0.37052 0.0
H157 H 0.32249 0.39441 0.38991 0.0
H158 H 0.32898 0.41853 0.38305 0.0
H159 H 0.34477 0.4029 0.35076 0.0
H160 H 0.26866 0.37495 0.34321 0.0
H161 H 0.29109 0.4399 0.35546 0.0
H162 H 0.21848 0.36259 0.3243 0.0
H163 H 0.23715 0.35358 0.32521 0.0
H164 H 0.23562 0.3675 0.30237 0.0
H165 H 0.27564 0.458 0.33981 0.0
H166 H 0.24762 0.4419 0.34151 0.0
H167 H 0.26007 0.44658 0.3162 0.0
H168 H 0.30045 0.38508 0.17994 0.0
H169 H 0.27156 0.37813 0.1977 0.0
H170 H 0.29513 0.44362 0.18751 0.0
H171 H 0.23575 0.36861 0.23463 0.0
H172 H 0.23801 0.35592 0.21127 0.0
H173 H 0.21976 0.36546 0.21189 0.0
H174 H 0.27755 0.46081 0.19963 0.0
H175 H 0.26218 0.44936 0.22317 0.0
H176 H 0.24951 0.44449 0.19782 0.0
H177 H 0.12239 0.4116 0.19031 0.0
H178 H 0.0846 0.39035 0.18254 0.0
H179 H 0.09485 0.37457 0.19309 0.0
H180 H 0.08927 0.37371 0.16509 0.0
H181 H 0.13839 0.36416 0.18094 0.0
H182 H 0.15888 0.42906 0.19 0.0
H183 H 0.16908 0.35976 0.22237 0.0
H184 H 0.18208 0.36394 0.19744 0.0
H185 H 0.1541 0.34728 0.19872 0.0
H186 H 0.18946 0.45161 0.20909 0.0
H187 H 0.20883 0.44352 0.21067 0.0
H188 H 0.19172 0.43885 0.23256 0.0
H189 H 0.21294 0.40094 0.34159 0.0
H190 H 0.26279 0.40956 0.28831 0.0
H191 H 0.26341 0.4106 0.25043 0.0
H192 H 0.21518 0.40464 0.19563 0.0
H193 H 0.16611 0.39867 0.24894 0.0
H194 H 0.16572 0.39814 0.28703 0.0
H195 H 0.32683 0.39131 0.20878 0.0
H196 H 0.30626 0.39518 0.21856 0.0
H197 H 0.33131 0.41754 0.21242 0.0
C198 C 0.88245 0.2558 0.89484 0.0
C199 C 0.88851 0.27341 0.87859 0.0
C200 C 0.85997 0.25649 0.85226 0.0
C201 C 0.86589 0.24251 0.84409 0.0
C202 C 0.85322 0.22718 0.82921 0.0
C203 C 0.83448 0.22605 0.82206 0.0
C204 C 0.82891 0.24062 0.82962 0.0
C205 C 0.84173 0.25561 0.84467 0.0
C206 C 0.85958 0.21185 0.82147 0.0
C207 C 0.80919 0.24005 0.82213 0.0
C208 C 0.72128 0.07165 0.84413 0.0
C209 C 0.72038 0.08896 0.8567 0.0
C210 C 0.73785 0.12094 0.83496 0.0
C211 C 0.73477 0.13603 0.82482 0.0
C212 C 0.75147 0.15382 0.81565 0.0
C213 C 0.77171 0.15615 0.81595 0.0
C214 C 0.77503 0.14104 0.82635 0.0
C215 C 0.75812 0.12371 0.83599 0.0
C216 C 0.74739 0.16997 0.80546 0.0
C217 C 0.79639 0.14302 0.827 0.0
C218 C 0.74724 0.12807 0.67972 0.0
C219 C 0.74506 0.1453 0.68517 0.0
C220 C 0.76098 0.16233 0.69624 0.0
C221 C 0.77954 0.16221 0.70167 0.0
C222 C 0.78231 0.14549 0.695 0.0
C223 C 0.76611 0.12864 0.68396 0.0
C224 C 0.75777 0.1802 0.70263 0.0
C225 C 0.8021 0.14512 0.70017 0.0
C226 C 0.91996 0.29641 0.67493 0.0
C227 C 0.90072 0.28898 0.66051 0.0
C228 C 0.87029 0.26811 0.68346 0.0
C229 C 0.85261 0.2673 0.69229 0.0
C230 C 0.83804 0.24977 0.70374 0.0
C231 C 0.84153 0.23276 0.70679 0.0
C232 C 0.85954 0.23354 0.69816 0.0
C233 C 0.87368 0.25114 0.68646 0.0
C234 C 0.81879 0.24932 0.71234 0.0
C235 C 0.86375 0.2157 0.70121 0.0
C236 C 0.82001 0.20882 0.80781 0.0
C237 C 0.80367 0.19101 0.81721 0.0
C238 C 0.78924 0.17415 0.80496 0.0
C239 C 0.79119 0.17491 0.78264 0.0
C240 C 0.77723 0.15803 0.76985 0.0
C241 C 0.77866 0.15926 0.74789 0.0
C242 C 0.79425 0.17732 0.73782 0.0
C243 C 0.7954 0.17893 0.71548 0.0
C244 C 0.81113 0.19702 0.70595 0.0
C245 C 0.82585 0.21378 0.71817 0.0
C246 C 0.82493 0.21251 0.74058 0.0
C247 C 0.83944 0.22905 0.75339 0.0
C248 C 0.83794 0.22788 0.77543 0.0
C249 C 0.82197 0.21006 0.78547 0.0
C250 C 0.80743 0.19304 0.77286 0.0
C251 C 0.80895 0.19425 0.75041 0.0
C252 C 0.70401 0.08147 0.68821 0.0
C253 C 0.71051 0.10156 0.67563 0.0
O254 O 0.87101 0.27078 0.86764 0.0
O255 O 0.88352 0.28554 0.67231 0.0
O256 O 0.73149 0.11073 0.67043 0.0
O257 O 0.7208 0.10395 0.84313 0.0
H258 H 0.89993 0.27334 0.86722 0.0
H259 H 0.89644 0.25844 0.90407 0.0
H260 H 0.8705 0.25507 0.90598 0.0
H261 H 0.87591 0.24042 0.88685 0.0
H262 H 0.88014 0.24316 0.84944 0.0
H263 H 0.83736 0.26655 0.85088 0.0
H264 H 0.84721 0.19566 0.82534 0.0
H265 H 0.87458 0.21471 0.82862 0.0
H266 H 0.86123 0.21292 0.80396 0.0
H267 H 0.80801 0.25358 0.82806 0.0
H268 H 0.79538 0.22542 0.82774 0.0
H269 H 0.80858 0.23997 0.80453 0.0
H270 H 0.73408 0.09625 0.86767 0.0
H271 H 0.71966 0.05907 0.85501 0.0
H272 H 0.73645 0.07795 0.83586 0.0
H273 H 0.70868 0.06479 0.83197 0.0
H274 H 0.71913 0.13386 0.82422 0.0
H275 H 0.76089 0.11232 0.84392 0.0
H276 H 0.74783 0.1688 0.78796 0.0
H277 H 0.75966 0.18598 0.81014 0.0
H278 H 0.73187 0.16776 0.80987 0.0
H279 H 0.79603 0.12902 0.83399 0.0
H280 H 0.80717 0.1569 0.8366 0.0
H281 H 0.80289 0.14544 0.81074 0.0
H282 H 0.70757 0.11175 0.68633 0.0
H283 H 0.73092 0.14547 0.68087 0.0
H284 H 0.7678 0.11546 0.67926 0.0
H285 H 0.75789 0.1813 0.72019 0.0
H286 H 0.74277 0.17831 0.69653 0.0
H287 H 0.77082 0.19517 0.6966 0.0
H288 H 0.80233 0.13158 0.69285 0.0
H289 H 0.80363 0.14435 0.71763 0.0
H290 H 0.81589 0.15978 0.69458 0.0
H291 H 0.89746 0.27429 0.65237 0.0
H292 H 0.93379 0.2994 0.6654 0.0
H293 H 0.91728 0.28436 0.68697 0.0
H294 H 0.92345 0.31102 0.68335 0.0
H295 H 0.85012 0.28044 0.68992 0.0
H296 H 0.8873 0.25146 0.67982 0.0
H297 H 0.81905 0.24885 0.72992 0.0
H298 H 0.80453 0.23498 0.70684 0.0
H299 H 0.8177 0.26319 0.70737 0.0
H300 H 0.87937 0.21947 0.69523 0.0
H301 H 0.85164 0.20169 0.69266 0.0
H302 H 0.86275 0.2116 0.71829 0.0
H303 H 0.80205 0.19034 0.83433 0.0
H304 H 0.7649 0.14372 0.77668 0.0
H305 H 0.76729 0.14586 0.7389 0.0
H306 H 0.81173 0.19822 0.68879 0.0
H307 H 0.85202 0.24317 0.74652 0.0
H308 H 0.84939 0.24116 0.7845 0.0
H309 H 0.68702 0.07343 0.69175 0.0
H310 H 0.71275 0.08538 0.70349 0.0
H311 H 0.70754 0.07064 0.67935 0.0
C312 C 0.61333 0.74553 0.40112 0.0
C313 C 0.59693 0.72976 0.38575 0.0
C314 C 0.6063 0.74363 0.35031 0.0
C315 C 0.58769 0.74181 0.3424 0.0
C316 C 0.58812 0.75616 0.3275 0.0
C317 C 0.60761 0.77269 0.32053 0.0
C318 C 0.62638 0.77382 0.32762 0.0
C319 C 0.62545 0.75904 0.34228 0.0
C320 C 0.56779 0.75417 0.31988 0.0
C321 C 0.6474 0.79123 0.32049 0.0
C322 C 0.59151 0.89007 0.39605 0.0
C323 C 0.60307 0.8829 0.38236 0.0
C324 C 0.59817 0.86439 0.34902 0.0
C325 C 0.61749 0.86502 0.34879 0.0
C326 C 0.62082 0.85195 0.3352 0.0
C327 C 0.60429 0.83754 0.32201 0.0
C328 C 0.58477 0.83688 0.32229 0.0
C329 C 0.5822 0.85074 0.33541 0.0
C330 C 0.64195 0.85341 0.33513 0.0
C331 C 0.56641 0.82124 0.30918 0.0
C332 C 0.60404 0.87377 0.18596 0.0
C333 C 0.62348 0.87469 0.18759 0.0
C334 C 0.62534 0.85899 0.19829 0.0
C335 C 0.60738 0.84192 0.20725 0.0
C336 C 0.58772 0.84076 0.20522 0.0
C337 C 0.58639 0.85685 0.19478 0.0
C338 C 0.64654 0.86072 0.20019 0.0
C339 C 0.56814 0.82261 0.21422 0.0
C340 C 0.62989 0.71445 0.1768 0.0
C341 C 0.60893 0.71312 0.17184 0.0
C342 C 0.61192 0.74675 0.17845 0.0
C343 C 0.62986 0.76619 0.18127 0.0
C344 C 0.62975 0.78125 0.19469 0.0
C345 C 0.61096 0.77692 0.20488 0.0
C346 C 0.59256 0.75738 0.20154 0.0
C347 C 0.59335 0.74237 0.18854 0.0
C348 C 0.64968 0.80182 0.19783 0.0
C349 C 0.57203 0.75246 0.21139 0.0
C350 C 0.60833 0.79008 0.30802 0.0
C351 C 0.60694 0.80562 0.31926 0.0
C352 C 0.60703 0.8224 0.30888 0.0
C353 C 0.60871 0.82388 0.28655 0.0
C354 C 0.60951 0.84086 0.27561 0.0
C355 C 0.60995 0.84159 0.25358 0.0
C356 C 0.60973 0.82542 0.24165 0.0
C357 C 0.60917 0.82554 0.21925 0.0
C358 C 0.60951 0.80952 0.20786 0.0
C359 C 0.6104 0.7932 0.21822 0.0
C360 C 0.61061 0.7926 0.24067 0.0
C361 C 0.61133 0.77638 0.2517 0.0
C362 C 0.61063 0.77551 0.27378 0.0
C363 C 0.60956 0.79103 0.28564 0.0
C364 C 0.60955 0.80791 0.27488 0.0
C365 C 0.61004 0.80868 0.25238 0.0
C366 C 0.60777 0.91642 0.15195 0.0
C367 C 0.61651 0.90528 0.16421 0.0
O368 O 0.60608 0.73115 0.36623 0.0
O369 O 0.61264 0.73262 0.16537 0.0
O370 O 0.60159 0.8888 0.17609 0.0
O371 O 0.59427 0.87644 0.36235 0.0
H372 H 0.58434 0.73384 0.38423 0.0
H373 H 0.6194 0.76165 0.395 0.0
H374 H 0.62667 0.74265 0.40294 0.0
H375 H 0.60628 0.74442 0.41692 0.0
H376 H 0.57286 0.72941 0.34824 0.0
H377 H 0.63971 0.76009 0.34836 0.0
H378 H 0.56605 0.76707 0.32666 0.0
H379 H 0.55406 0.73905 0.32462 0.0
H380 H 0.56785 0.75559 0.30234 0.0
H381 H 0.66051 0.78952 0.3269 0.0
H382 H 0.64947 0.80649 0.32579 0.0
H383 H 0.64816 0.79157 0.30292 0.0
H384 H 0.62035 0.8935 0.3821 0.0
H385 H 0.60286 0.9071 0.39917 0.0
H386 H 0.57962 0.86773 0.42034 0.0
H387 H 0.5812 0.8932 0.38519 0.0
H388 H 0.63006 0.87579 0.35906 0.0
H389 H 0.56735 0.8504 0.33572 0.0
H390 H 0.64709 0.85342 0.31862 0.0
H391 H 0.64082 0.83957 0.34334 0.0
H392 H 0.65405 0.8677 0.34334 0.0
H393 H 0.55149 0.82004 0.31432 0.0
H394 H 0.56485 0.80551 0.31019 0.0
H395 H 0.56892 0.82613 0.29231 0.0
H396 H 0.63111 0.91558 0.1733 0.0
H397 H 0.63728 0.88769 0.18076 0.0
H398 H 0.57146 0.85624 0.19336 0.0
H399 H 0.65 0.85914 0.21704 0.0
H400 H 0.65925 0.87581 0.19395 0.0
H401 H 0.64647 0.84779 0.1912 0.0
H402 H 0.55379 0.82271 0.20899 0.0
H403 H 0.56892 0.82334 0.2318 0.0
H404 H 0.56688 0.80757 0.20937 0.0
H405 H 0.59936 0.70817 0.18656 0.0
H406 H 0.62743 0.69917 0.18262 0.0
H407 H 0.63829 0.72632 0.18935 0.0
H408 H 0.63983 0.71903 0.16241 0.0
H409 H 0.64406 0.7694 0.17317 0.0
H410 H 0.5794 0.72737 0.18586 0.0
H411 H 0.65231 0.80597 0.21492 0.0
H412 H 0.64832 0.81433 0.18946 0.0
H413 H 0.66353 0.80148 0.19155 0.0
H414 H 0.55873 0.73779 0.205 0.0
H415 H 0.56888 0.76548 0.2086 0.0
H416 H 0.57286 0.75068 0.22879 0.0
H417 H 0.60549 0.80448 0.33639 0.0
H418 H 0.60958 0.85368 0.28396 0.0
H419 H 0.61029 0.85494 0.24602 0.0
H420 H 0.60898 0.80971 0.19066 0.0
H421 H 0.61216 0.76402 0.24338 0.0
H422 H 0.61087 0.76249 0.28144 0.0
H423 H 0.61571 0.93271 0.15873 0.0
H424 H 0.59209 0.91182 0.15906 0.0
H425 H 0.61134 0.91028 0.12024 0.0
C426 C 0.75713 0.61351 0.8937 0.0
C427 C 0.73977 0.60068 0.8775 0.0
C428 C 0.75838 0.59061 0.85197 0.0
C429 C 0.77109 0.61064 0.84331 0.0
C430 C 0.78679 0.61429 0.82865 0.0
C431 C 0.78961 0.59753 0.82221 0.0
C432 C 0.77635 0.57722 0.83026 0.0
C433 C 0.76094 0.57407 0.84508 0.0
C434 C 0.80071 0.63616 0.82039 0.0
C435 C 0.77872 0.55894 0.82352 0.0
C436 C 0.94731 0.64712 0.84079 0.0
C437 C 0.93148 0.62876 0.85434 0.0
C438 C 0.89818 0.61277 0.83436 0.0
C439 C 0.88337 0.5944 0.82434 0.0
C440 C 0.86495 0.59251 0.81573 0.0
C441 C 0.86157 0.60974 0.81661 0.0
C442 C 0.87629 0.6283 0.82707 0.0
C443 C 0.89437 0.62958 0.83605 0.0
C444 C 0.84931 0.57217 0.80535 0.0
C445 C 0.87314 0.64696 0.82832 0.0
C446 C 0.89329 0.62152 0.68229 0.0
C447 C 0.87872 0.60148 0.68953 0.0
C448 C 0.86033 0.59787 0.69962 0.0
C449 C 0.85661 0.61473 0.70269 0.0
C450 C 0.87073 0.63467 0.69432 0.0
C451 C 0.88882 0.63774 0.68396 0.0
C452 C 0.84524 0.57621 0.70764 0.0
C453 C 0.86713 0.65291 0.69712 0.0
C454 C 0.70517 0.58953 0.69559 0.0
C455 C 0.71605 0.59309 0.67408 0.0
C456 C 0.74609 0.58905 0.68464 0.0
C457 C 0.7524 0.57418 0.68671 0.0
C458 C 0.77064 0.57864 0.69792 0.0
C459 C 0.7832 0.59875 0.70682 0.0
C460 C 0.77722 0.61411 0.70434 0.0
C461 C 0.75858 0.60903 0.69351 0.0
C462 C 0.77642 0.5618 0.70027 0.0
C463 C 0.79056 0.63591 0.71308 0.0
C464 C 0.80728 0.60151 0.80814 0.0
C465 C 0.8257 0.60446 0.81774 0.0
C466 C 0.84313 0.60857 0.80566 0.0
C467 C 0.84246 0.61036 0.78338 0.0
C468 C 0.86005 0.61545 0.77086 0.0
C469 C 0.85903 0.61626 0.74891 0.0
C470 C 0.84035 0.61196 0.73858 0.0
C471 C 0.83895 0.61183 0.7162 0.0
C472 C 0.82031 0.60793 0.70642 0.0
C473 C 0.80274 0.60372 0.71841 0.0
C474 C 0.80372 0.60337 0.74084 0.0
C475 C 0.78625 0.5987 0.75343 0.0
C476 C 0.7874 0.59827 0.77548 0.0
C477 C 0.80599 0.60223 0.78578 0.0
C478 C 0.82372 0.60681 0.77338 0.0
C479 C 0.82263 0.60751 0.75092 0.0
C480 C 0.9449 0.63817 0.69079 0.0
C481 C 0.92492 0.61911 0.68263 0.0
O482 O 0.74378 0.58652 0.86714 0.0
O483 O 0.72796 0.58335 0.67395 0.0
O484 O 0.91185 0.62565 0.67392 0.0
O485 O 0.91594 0.61358 0.84168 0.0
H486 H 0.73885 0.61144 0.86571 0.0
H487 H 0.75344 0.62432 0.90242 0.0
H488 H 0.75883 0.60308 0.90528 0.0
H489 H 0.77236 0.62307 0.88571 0.0
H490 H 0.76915 0.62361 0.84811 0.0
H491 H 0.75097 0.55864 0.85165 0.0
H492 H 0.8173 0.64129 0.82415 0.0
H493 H 0.7968 0.64761 0.82726 0.0
H494 H 0.79921 0.6363 0.80288 0.0
H495 H 0.76589 0.54382 0.82957 0.0
H496 H 0.79383 0.56111 0.82957 0.0
H497 H 0.779 0.55819 0.80595 0.0
H498 H 0.92447 0.6348 0.86594 0.0
H499 H 0.96031 0.6587 0.85091 0.0
H500 H 0.93977 0.65517 0.83302 0.0
H501 H 0.95386 0.64165 0.82816 0.0
H502 H 0.88635 0.58147 0.82325 0.0
H503 H 0.90554 0.64386 0.84392 0.0
H504 H 0.84993 0.57426 0.78789 0.0
H505 H 0.83319 0.56746 0.81051 0.0
H506 H 0.85251 0.55933 0.8091 0.0
H507 H 0.8866 0.66067 0.83594 0.0
H508 H 0.85884 0.64277 0.83757 0.0
H509 H 0.8708 0.65146 0.81215 0.0
H510 H 0.91753 0.60886 0.69665 0.0
H511 H 0.88184 0.58873 0.68747 0.0
H512 H 0.90004 0.65306 0.67795 0.0
H513 H 0.84609 0.57605 0.72522 0.0
H514 H 0.84879 0.56429 0.70134 0.0
H515 H 0.82897 0.57174 0.70316 0.0
H516 H 0.87957 0.66742 0.68964 0.0
H517 H 0.86653 0.65587 0.71428 0.0
H518 H 0.85182 0.6491 0.69004 0.0
H519 H 0.72619 0.61013 0.67121 0.0
H520 H 0.69588 0.59758 0.69622 0.0
H521 H 0.71691 0.59591 0.70861 0.0
H522 H 0.69463 0.57255 0.69842 0.0
H523 H 0.74273 0.55885 0.67976 0.0
H524 H 0.75405 0.62082 0.69192 0.0
H525 H 0.77998 0.56037 0.71712 0.0
H526 H 0.7907 0.56613 0.69093 0.0
H527 H 0.76376 0.54634 0.69465 0.0
H528 H 0.785 0.64668 0.70781 0.0
H529 H 0.80704 0.64241 0.70803 0.0
H530 H 0.79033 0.63534 0.73066 0.0
H531 H 0.82639 0.60328 0.83485 0.0
H532 H 0.87482 0.61878 0.77788 0.0
H533 H 0.87307 0.62017 0.74014 0.0
H534 H 0.81934 0.60778 0.68924 0.0
H535 H 0.77147 0.59529 0.74639 0.0
H536 H 0.77348 0.59459 0.78437 0.0
H537 H 0.95567 0.63329 0.69772 0.0
H538 H 0.94093 0.64613 0.70333 0.0
H539 H 0.95302 0.64952 0.67778 0.0
C540 C 0.14907 0.73419 0.39326 0.0
C541 C 0.1315 0.72402 0.37656 0.0
C542 C 0.1529 0.74062 0.34502 0.0
C543 C 0.15195 0.75916 0.345 0.0
C544 C 0.16543 0.77617 0.33221 0.0
C545 C 0.18048 0.77479 0.31959 0.0
C546 C 0.18161 0.75619 0.31982 0.0
C547 C 0.16745 0.73919 0.33216 0.0
C548 C 0.16354 0.7956 0.33222 0.0
C549 C 0.19781 0.7542 0.30714 0.0
C550 C 0.29453 0.92959 0.33911 0.0
C551 C 0.2956 0.91357 0.3539 0.0
C552 C 0.27789 0.88018 0.33434 0.0
C553 C 0.28084 0.86471 0.32504 0.0
C554 C 0.2641 0.84684 0.31585 0.0
C555 C 0.24397 0.84472 0.31543 0.0
C556 C 0.24074 0.86012 0.32515 0.0
C557 C 0.25766 0.87756 0.33474 0.0
C558 C 0.26806 0.83044 0.30627 0.0
C559 C 0.21946 0.85833 0.32509 0.0
C560 C 0.26833 0.87442 0.17845 0.0
C561 C 0.27125 0.85811 0.18585 0.0
C562 C 0.25538 0.84122 0.19701 0.0
C563 C 0.23626 0.8407 0.20085 0.0
C564 C 0.23296 0.85666 0.19256 0.0
C565 C 0.24902 0.87322 0.18122 0.0
C566 C 0.25918 0.82412 0.20506 0.0
C567 C 0.21271 0.85649 0.19618 0.0
C568 C 0.08755 0.71368 0.18318 0.0
C569 C 0.10421 0.71542 0.16754 0.0
C570 C 0.13787 0.73608 0.18629 0.0
C571 C 0.15505 0.73535 0.19466 0.0
C572 C 0.17197 0.75308 0.20378 0.0
C573 C 0.17137 0.7719 0.20511 0.0
C574 C 0.15422 0.77292 0.19632 0.0
C575 C 0.13775 0.75507 0.18677 0.0
C576 C 0.19031 0.75154 0.21232 0.0
C577 C 0.15311 0.79276 0.19736 0.0
C578 C 0.19498 0.79271 0.30609 0.0
C579 C 0.21188 0.80987 0.31589 0.0
C580 C 0.2265 0.82691 0.30403 0.0
C581 C 0.22454 0.82674 0.28168 0.0
C582 C 0.23902 0.84353 0.26922 0.0
C583 C 0.23752 0.84278 0.24721 0.0
C584 C 0.22136 0.8253 0.23679 0.0
C585 C 0.22014 0.82403 0.2144 0.0
C586 C 0.20371 0.80653 0.20456 0.0
C587 C 0.18823 0.79022 0.21651 0.0
C588 C 0.18919 0.79122 0.23892 0.0
C589 C 0.17372 0.77525 0.25145 0.0
C590 C 0.17538 0.77587 0.27345 0.0
C591 C 0.19255 0.79249 0.2838 0.0
C592 C 0.20768 0.80932 0.27154 0.0
C593 C 0.20603 0.80865 0.24907 0.0
C594 C 0.31017 0.92348 0.18309 0.0
C595 C 0.30463 0.90199 0.17441 0.0
O596 O 0.1402 0.72381 0.35719 0.0
O597 O 0.12178 0.71806 0.17831 0.0
O598 O 0.28372 0.89138 0.16844 0.0
O599 O 0.295 0.89736 0.34232 0.0
H600 H 0.12319 0.73303 0.37533 0.0
H601 H 0.1611 0.75008 0.38808 0.0
H602 H 0.15672 0.72463 0.39557 0.0
H603 H 0.14301 0.73597 0.40868 0.0
H604 H 0.14058 0.76042 0.35464 0.0
H605 H 0.16804 0.72482 0.33228 0.0
H606 H 0.17719 0.80829 0.34068 0.0
H607 H 0.14908 0.79304 0.3402 0.0
H608 H 0.1636 0.80096 0.31573 0.0
H609 H 0.19925 0.74056 0.31226 0.0
H610 H 0.21334 0.76857 0.30867 0.0
H611 H 0.19331 0.75215 0.29013 0.0
H612 H 0.28205 0.90734 0.36486 0.0
H613 H 0.29652 0.94324 0.34839 0.0
H614 H 0.27917 0.92259 0.33092 0.0
H615 H 0.30682 0.93511 0.32678 0.0
H616 H 0.29642 0.86673 0.32495 0.0
H617 H 0.25494 0.88916 0.34212 0.0
H618 H 0.26737 0.83117 0.28872 0.0
H619 H 0.25581 0.81457 0.31127 0.0
H620 H 0.28362 0.83273 0.31086 0.0
H621 H 0.21986 0.87243 0.33179 0.0
H622 H 0.20852 0.84454 0.33462 0.0
H623 H 0.21316 0.85588 0.30866 0.0
H624 H 0.30771 0.89367 0.18746 0.0
H625 H 0.28589 0.85854 0.18287 0.0
H626 H 0.24682 0.88572 0.17508 0.0
H627 H 0.26006 0.82468 0.22264 0.0
H628 H 0.27393 0.82566 0.19887 0.0
H629 H 0.24596 0.80857 0.20045 0.0
H630 H 0.21282 0.87037 0.18919 0.0
H631 H 0.20971 0.85607 0.21346 0.0
H632 H 0.19958 0.84217 0.18907 0.0
H633 H 0.1085 0.72904 0.15693 0.0
H634 H 0.07309 0.7104 0.17448 0.0
H635 H 0.09319 0.72849 0.19206 0.0
H636 H 0.08368 0.70102 0.1949 0.0
H637 H 0.15512 0.72071 0.19407 0.0
H638 H 0.12476 0.75608 0.18011 0.0
H639 H 0.18992 0.75135 0.2299 0.0
H640 H 0.20528 0.76534 0.20737 0.0
H641 H 0.19004 0.73712 0.20684 0.0
H642 H 0.13794 0.79053 0.19141 0.0
H643 H 0.16585 0.80503 0.18767 0.0
H644 H 0.15546 0.79854 0.21395 0.0
H645 H 0.21373 0.80992 0.33298 0.0
H646 H 0.25185 0.85737 0.27631 0.0
H647 H 0.2493 0.85606 0.23848 0.0
H648 H 0.20301 0.80556 0.18738 0.0
H649 H 0.16025 0.76197 0.2444 0.0
H650 H 0.1631 0.76304 0.28224 0.0
H651 H 0.32688 0.93229 0.18799 0.0
H652 H 0.30043 0.92158 0.19718 0.0
H653 H 0.30726 0.93269 0.17095 0.0
C654 C 0.38862 0.11539 0.63137 0.0
C655 C 0.40725 0.12175 0.64632 0.0
C656 C 0.40336 0.13508 0.67998 0.0
C657 C 0.42324 0.15257 0.68304 0.0
C658 C 0.42589 0.16949 0.69543 0.0
C659 C 0.40823 0.16893 0.70475 0.0
C660 C 0.38823 0.15096 0.70223 0.0
C661 C 0.38612 0.13408 0.6901 0.0
C662 C 0.44751 0.18813 0.69822 0.0
C663 C 0.36905 0.14983 0.71187 0.0
C664 C 0.41274 0.31343 0.64667 0.0
C665 C 0.40434 0.29354 0.65877 0.0
C666 C 0.41673 0.27085 0.67351 0.0
C667 C 0.39797 0.2569 0.68373 0.0
C668 C 0.39668 0.24064 0.69646 0.0
C669 C 0.41461 0.23861 0.6994 0.0
C670 C 0.4335 0.2527 0.68918 0.0
C671 C 0.43422 0.2685 0.67619 0.0
C672 C 0.37617 0.22568 0.70682 0.0
C673 C 0.45298 0.25113 0.69203 0.0
C674 C 0.42849 0.28596 0.83287 0.0
C675 C 0.40858 0.26822 0.83025 0.0
C676 C 0.40624 0.25002 0.8207 0.0
C677 C 0.42414 0.24949 0.81373 0.0
C678 C 0.44421 0.2672 0.81664 0.0
C679 C 0.44609 0.28524 0.82609 0.0
C680 C 0.3846 0.2314 0.81778 0.0
C681 C 0.46363 0.26711 0.80951 0.0
C682 C 0.40268 0.09751 0.84669 0.0
C683 C 0.4215 0.11854 0.85297 0.0
C684 C 0.41603 0.14788 0.84569 0.0
C685 C 0.39854 0.15028 0.84333 0.0
C686 C 0.3991 0.16589 0.83015 0.0
C687 C 0.41788 0.1798 0.81961 0.0
C688 C 0.43591 0.17796 0.82265 0.0
C689 C 0.43476 0.16191 0.8356 0.0
C690 C 0.3796 0.16743 0.8274 0.0
C691 C 0.45639 0.19297 0.81227 0.0
C692 C 0.41055 0.18757 0.71613 0.0
C693 C 0.41109 0.20369 0.70395 0.0
C694 C 0.41373 0.22196 0.7134 0.0
C695 C 0.41585 0.2243 0.73568 0.0
C696 C 0.41874 0.24255 0.74568 0.0
C697 C 0.42061 0.24465 0.76761 0.0
C698 C 0.41991 0.22867 0.78039 0.0
C699 C 0.42179 0.2307 0.8027 0.0
C700 C 0.42122 0.21462 0.81494 0.0
C701 C 0.41865 0.19634 0.80553 0.0
C702 C 0.41658 0.19396 0.78322 0.0
C703 C 0.41382 0.17575 0.77319 0.0
C704 C 0.41199 0.17366 0.75122 0.0
C705 C 0.41252 0.18957 0.73846 0.0
C706 C 0.41516 0.20801 0.74824 0.0
C707 C 0.41724 0.21022 0.77063 0.0
C708 C 0.42483 0.32689 0.86323 0.0
C709 C 0.41615 0.30703 0.85101 0.0
O710 O 0.40044 0.11914 0.66714 0.0
O711 O 0.41454 0.13225 0.85825 0.0
O712 O 0.43142 0.30398 0.84178 0.0
O713 O 0.41867 0.2867 0.66095 0.0
H714 H 0.41863 0.13851 0.64301 0.0
H715 H 0.38169 0.1255 0.63422 0.0
H716 H 0.37638 0.09885 0.63406 0.0
H717 H 0.39374 0.11732 0.61458 0.0
H718 H 0.43665 0.15298 0.67566 0.0
H719 H 0.37088 0.12035 0.68779 0.0
H720 H 0.44854 0.20164 0.68941 0.0
H721 H 0.45986 0.18507 0.69227 0.0
H722 H 0.45062 0.19259 0.71522 0.0
H723 H 0.35454 0.13506 0.70779 0.0
H724 H 0.36742 0.16323 0.70628 0.0
H725 H 0.37075 0.15102 0.72939 0.0
H726 H 0.38851 0.28099 0.65366 0.0
H727 H 0.40278 0.30927 0.63191 0.0
H728 H 0.42703 0.3155 0.63824 0.0
H729 H 0.41394 0.33488 0.6691 0.0
H730 H 0.38427 0.2585 0.68174 0.0
H731 H 0.4486 0.27932 0.66823 0.0
H732 H 0.37202 0.20929 0.70348 0.0
H733 H 0.36319 0.22805 0.70128 0.0
H734 H 0.37774 0.22788 0.72427 0.0
H735 H 0.46691 0.26451 0.68473 0.0
H736 H 0.45053 0.23646 0.68459 0.0
H737 H 0.45618 0.25045 0.70916 0.0
H738 H 0.40309 0.30396 0.83992 0.0
H739 H 0.3948 0.26852 0.83546 0.0
H740 H 0.46139 0.29896 0.82824 0.0
H741 H 0.38158 0.22739 0.80069 0.0
H742 H 0.37222 0.23431 0.82394 0.0
H743 H 0.38355 0.21765 0.82612 0.0
H744 H 0.47816 0.28176 0.81383 0.0
H745 H 0.46314 0.26512 0.79203 0.0
H746 H 0.46419 0.25366 0.81674 0.0
H747 H 0.43213 0.12439 0.83907 0.0
H748 H 0.40785 0.08628 0.84209 0.0
H749 H 0.39448 0.09965 0.83291 0.0
H750 H 0.3915 0.09082 0.86005 0.0
H751 H 0.38427 0.13953 0.8515 0.0
H752 H 0.44855 0.16053 0.83812 0.0
H753 H 0.37614 0.16773 0.81028 0.0
H754 H 0.38217 0.18227 0.83452 0.0
H755 H 0.36578 0.15422 0.83504 0.0
H756 H 0.4694 0.19063 0.81778 0.0
H757 H 0.46049 0.20934 0.81565 0.0
H758 H 0.4548 0.19079 0.79482 0.0
H759 H 0.40957 0.20206 0.68684 0.0
H760 H 0.41952 0.25543 0.73669 0.0
H761 H 0.42267 0.25901 0.7744 0.0
H762 H 0.4227 0.2163 0.83205 0.0
H763 H 0.41312 0.16292 0.78221 0.0
H764 H 0.41005 0.15937 0.74437 0.0
H765 H 0.41884 0.33622 0.85462 0.0
H766 H 0.44151 0.33706 0.85798 0.0
H767 H 0.41674 0.31689 0.89459 0.0
H768 H 0.08006 0.48446 0.00837 0.0
H769 H 0.09817 0.47093 0.03073 0.0
H770 H 0.07354 0.48411 0.0867 0.0
H771 H 0.05502 0.49692 0.06459 0.0
H772 H 0.11881 0.49588 0.08782 0.0
H773 H 0.04796 0.43861 0.07156 0.0
H774 H 0.02011 0.41589 0.04641 0.0
H775 H 0.06069 0.39632 0.01909 0.0
H776 H 0.0889 0.41922 0.0439 0.0
H777 H 0.1123 0.43592 0.17642 0.0
H778 H 0.10845 0.45488 0.14661 0.0
H779 H 0.11896 0.41622 0.10294 0.0
H780 H 0.12198 0.39662 0.13285 0.0
H781 H 0.08736 0.41875 0.08992 0.0
H782 H 0.15574 0.46969 0.11043 0.0
H783 H 0.18472 0.4927 0.13432 0.0
H784 H 0.15215 0.525 0.15154 0.0
H785 H 0.12281 0.50199 0.128 0.0
C786 C 0.0788 0.4847 0.02545 0.0
C787 C 0.06608 0.49158 0.0348 0.0
C788 C 0.08909 0.47698 0.03816 0.0
C789 C 0.08716 0.47658 0.06033 0.0
C790 C 0.07528 0.48439 0.06964 0.0
C791 C 0.06463 0.49158 0.05699 0.0
C792 C 0.09602 0.46659 0.07402 0.0
C793 C 0.11205 0.47903 0.08834 0.0
C794 C 0.0876 0.4447 0.0741 0.0
C795 C 0.0706 0.43082 0.05936 0.0
C796 C 0.051 0.42962 0.06005 0.0
C797 C 0.03514 0.41668 0.04589 0.0
C798 C 0.03865 0.40472 0.03111 0.0
C799 C 0.05801 0.40563 0.03051 0.0
C800 C 0.07393 0.41859 0.04461 0.0
C801 C 0.11422 0.43176 0.16047 0.0
C802 C 0.11792 0.41512 0.15701 0.0
C803 C 0.11211 0.44267 0.1434 0.0
C804 C 0.11386 0.43733 0.12244 0.0
C805 C 0.11774 0.42079 0.11893 0.0
C806 C 0.11963 0.40971 0.13604 0.0
C807 C 0.10992 0.44797 0.10438 0.0
C808 C 0.0947 0.43565 0.08921 0.0
C809 C 0.11937 0.47004 0.10333 0.0
C810 C 0.137 0.48401 0.11751 0.0
C811 C 0.15468 0.48161 0.11942 0.0
C812 C 0.17119 0.49467 0.13289 0.0
C813 C 0.17027 0.51029 0.14446 0.0
C814 C 0.15285 0.5129 0.14256 0.0
C815 C 0.13628 0.49987 0.12913 0.0
H816 H 0.18307 0.52039 0.15488 0.0
H817 H 0.02636 0.39471 0.02016 0.0
H818 H 0.57472 0.01425 0.52683 0.0
H819 H 0.60666 0.02963 0.54835 0.0
H820 H 0.60058 0.08402 0.55955 0.0
H821 H 0.56937 0.06916 0.53669 0.0
H822 H 0.63988 0.09592 0.55893 0.0
H823 H 0.58108 0.04117 0.59486 0.0
H824 H 0.55082 0.00579 0.59974 0.0
H825 H 0.59118 0.97958 0.59645 0.0
H826 H 0.62165 0.01481 0.59126 0.0
H827 H 0.68554 0.11773 0.66403 0.0
H828 H 0.66234 0.10869 0.6331 0.0
H829 H 0.6828 0.06653 0.61147 0.0
H830 H 0.7065 0.07596 0.64203 0.0
H831 H 0.6378 0.04903 0.61659 0.0
H832 H 0.69754 0.10724 0.58405 0.0
H833 H 0.72615 0.14384 0.58203 0.0
H834 H 0.68157 0.16503 0.58302 0.0
H835 H 0.65269 0.12854 0.58537 0.0
C836 C 0.58058 0.02972 0.53349 0.0
C837 C 0.56973 0.04058 0.53028 0.0
C838 C 0.59869 0.03843 0.54591 0.0
C839 C 0.60568 0.0577 0.55617 0.0
C840 C 0.59546 0.06909 0.55193 0.0
C841 C 0.57766 0.06064 0.53891 0.0
C842 C 0.62249 0.06508 0.57252 0.0
C843 C 0.63932 0.0857 0.57161 0.0
C844 C 0.62187 0.05178 0.58913 0.0
C845 C 0.60361 0.03059 0.59246 0.0
C846 C 0.58348 0.02785 0.59506 0.0
C847 C 0.5663 0.00783 0.59789 0.0
C848 C 0.56907 0.99044 0.59835 0.0
C849 C 0.58905 0.99306 0.59605 0.0
C850 C 0.60629 0.01304 0.59318 0.0
C851 C 0.68526 0.10671 0.65255 0.0
C852 C 0.69748 0.0972 0.65567 0.0
C853 C 0.67208 0.10164 0.63488 0.0
C854 C 0.67086 0.08692 0.6201 0.0
C855 C 0.68352 0.07789 0.62278 0.0
C856 C 0.69695 0.0832 0.64026 0.0
C857 C 0.65515 0.0797 0.60282 0.0
C858 C 0.63843 0.05913 0.60373 0.0
C859 C 0.65562 0.09322 0.58665 0.0
C860 C 0.67296 0.11516 0.58508 0.0
C861 C 0.69384 0.11971 0.58402 0.0
C862 C 0.7101 0.14043 0.58278 0.0
C863 C 0.70568 0.15675 0.58245 0.0
C864 C 0.68497 0.15237 0.5833 0.0
C865 C 0.66865 0.13167 0.58456 0.0
H866 H 0.7183 0.17279 0.58149 0.0
H867 H 0.55574 0.97495 0.60053 0.0
H868 H 0.53422 0.54646 0.06726 0.0
H869 H 0.54621 0.57755 0.08925 0.0
H870 H 0.53983 0.61086 0.03612 0.0
H871 H 0.52739 0.57949 0.01389 0.0
H872 H 0.57968 0.63236 0.06053 0.0
H873 H 0.50538 0.59768 0.07018 0.0
H874 H 0.47064 0.56744 0.07771 0.0
H875 H 0.49159 0.56172 0.13973 0.0
H876 H 0.52659 0.59161 0.1324 0.0
H877 H 0.60494 0.71837 0.12853 0.0
H878 H 0.58751 0.69121 0.10167 0.0
H879 H 0.57099 0.64376 0.14966 0.0
H880 H 0.58731 0.67089 0.17676 0.0
H881 H 0.5401 0.63132 0.12422 0.0
H882 H 0.61424 0.66075 0.11436 0.0
H883 H 0.65046 0.68878 0.10785 0.0
H884 H 0.63173 0.70232 0.04802 0.0
H885 H 0.59532 0.67453 0.05432 0.0
C886 C 0.53537 0.56038 0.06018 0.0
C887 C 0.52988 0.56054 0.03882 0.0
C888 C 0.54215 0.5781 0.07281 0.0
C889 C 0.54378 0.59641 0.06431 0.0
C890 C 0.53861 0.59681 0.04293 0.0
C891 C 0.53147 0.5789 0.03031 0.0
C892 C 0.55111 0.61506 0.07799 0.0
C893 C 0.57088 0.63241 0.07422 0.0
C894 C 0.53981 0.61472 0.09613 0.0
C895 C 0.51868 0.59682 0.10067 0.0
C896 C 0.50264 0.58986 0.08535 0.0
C897 C 0.48289 0.57277 0.08959 0.0
C898 C 0.47892 0.5626 0.10915 0.0
C899 C 0.49469 0.56954 0.12455 0.0
C900 C 0.51449 0.58657 0.12037 0.0
C901 C 0.59728 0.70216 0.13345 0.0
C902 C 0.59728 0.69675 0.15488 0.0
C903 C 0.5875 0.68661 0.118 0.0
C904 C 0.57817 0.66537 0.12353 0.0
C905 C 0.57798 0.65999 0.14494 0.0
C906 C 0.58736 0.6755 0.16042 0.0
C907 C 0.56901 0.64864 0.10712 0.0
C908 C 0.54885 0.63156 0.11038 0.0
C909 C 0.58016 0.64904 0.08873 0.0
C910 C 0.60203 0.66575 0.08493 0.0
C911 C 0.61782 0.66982 0.0999 0.0
C912 C 0.63839 0.68564 0.09623 0.0
C913 C 0.64338 0.69737 0.07757 0.0
C914 C 0.62783 0.69326 0.0625 0.0
C915 C 0.60723 0.67747 0.0661 0.0
H916 H 0.65931 0.70961 0.07475 0.0
H917 H 0.46361 0.5494 0.11239 0.0
H918 H 0.01676 0.53984 0.57598 0.0
H919 H 0.00319 0.55585 0.60041 0.0
H920 H 0.95286 0.5425 0.55666 0.0
H921 H 0.96601 0.5261 0.53243 0.0
H922 H 0.99732 0.5885 0.59734 0.0
H923 H 0.90921 0.53115 0.58365 0.0
H924 H 0.886 0.49437 0.57321 0.0
H925 H 0.93033 0.47812 0.59799 0.0
H926 H 0.95366 0.51474 0.60882 0.0
H927 H 0.93853 0.63082 0.64167 0.0
H928 H 0.95033 0.61357 0.61664 0.0
H929 H 0.93546 0.56436 0.66208 0.0
H930 H 0.92365 0.58153 0.68711 0.0
H931 H 0.9238 0.54894 0.6219 0.0
H932 H 0.98446 0.60254 0.65758 0.0
H933 H 0.00851 0.6384 0.67008 0.0
H934 H 0.02079 0.66017 0.60572 0.0
H935 H 0.99653 0.62447 0.59284 0.0
C936 C 0.00281 0.54032 0.57156 0.0
C937 C 0.99238 0.53155 0.55233 0.0
C938 C 0.99511 0.54953 0.58551 0.0
C939 C 0.97686 0.55013 0.58049 0.0
C940 C 0.96673 0.54185 0.56106 0.0
C941 C 0.97432 0.53253 0.54719 0.0
C942 C 0.96829 0.55925 0.59564 0.0
C943 C 0.98124 0.57985 0.60267 0.0
C944 C 0.94738 0.54788 0.60286 0.0
C945 C 0.93325 0.52572 0.59687 0.0
C946 C 0.91394 0.5197 0.58697 0.0
C947 C 0.90078 0.49889 0.58097 0.0
C948 C 0.90671 0.48393 0.58489 0.0
C949 C 0.92578 0.48974 0.59491 0.0
C950 C 0.93899 0.51052 0.60096 0.0
C951 C 0.93754 0.61618 0.64616 0.0
C952 C 0.93014 0.60747 0.66629 0.0
C953 C 0.94435 0.6064 0.63192 0.0
C954 C 0.94394 0.58779 0.6376 0.0
C955 C 0.93588 0.5787 0.65739 0.0
C956 C 0.92916 0.58852 0.67166 0.0
C957 C 0.95275 0.57826 0.62331 0.0
C958 C 0.93984 0.5576 0.61646 0.0
C959 C 0.97381 0.58943 0.61658 0.0
C960 C 0.98852 0.61088 0.62426 0.0
C961 C 0.99216 0.61501 0.6461 0.0
C962 C 0.00585 0.6353 0.65325 0.0
C963 C 0.01613 0.65156 0.6387 0.0
C964 C 0.01279 0.64756 0.61697 0.0
C965 C 0.99908 0.6273 0.60973 0.0
H966 H 0.02673 0.66726 0.64427 0.0
H967 H 0.89651 0.46784 0.58019 0.0
H968 H 0.46719 0.97644 0.07012 0.0
H969 H 0.43482 0.95862 0.09042 0.0
H970 H 0.39974 0.93257 0.03273 0.0
H971 H 0.43236 0.94982 0.01225 0.0
H972 H 0.396 0.96432 0.07651 0.0
H973 H 0.38322 0.89648 0.04525 0.0
H974 H 0.39632 0.87276 0.03549 0.0
H975 H 0.41865 0.87566 0.09915 0.0
H976 H 0.40599 0.89973 0.10913 0.0
H977 H 0.30108 0.91241 0.13321 0.0
H978 H 0.32568 0.92025 0.10406 0.0
H979 H 0.36429 0.90618 0.14468 0.0
H980 H 0.33957 0.89802 0.17372 0.0
H981 H 0.36324 0.89211 0.10504 0.0
H982 H 0.3753 0.95564 0.13813 0.0
H983 H 0.36603 0.98139 0.15118 0.0
H984 H 0.34927 0.98952 0.08799 0.0
H985 H 0.35814 0.96354 0.0746 0.0
C986 C 0.45261 0.96673 0.06176 0.0
C987 C 0.45224 0.9645 0.03962 0.0
C988 C 0.43418 0.95653 0.07337 0.0
C989 C 0.41501 0.94413 0.06307 0.0
C990 C 0.41449 0.94174 0.04097 0.0
C991 C 0.43307 0.95163 0.02932 0.0
C992 C 0.39563 0.93502 0.07565 0.0
C993 C 0.38837 0.94834 0.08229 0.0
C994 C 0.38636 0.91449 0.08377 0.0
C995 C 0.39399 0.90012 0.07781 0.0
C996 C 0.39119 0.89228 0.05706 0.0
C997 C 0.39846 0.87873 0.05151 0.0
C998 C 0.4084 0.87278 0.06666 0.0
C999 C 0.41102 0.88034 0.08741 0.0
C1000 C 0.40381 0.89394 0.09301 0.0
C1001 C 0.31459 0.91057 0.13574 0.0
C1002 C 0.31833 0.90442 0.15566 0.0
C1003 C 0.32867 0.91514 0.11914 0.0
C1004 C 0.34689 0.91394 0.12225 0.0
C1005 C 0.35028 0.9071 0.14189 0.0
C1006 C 0.33619 0.90249 0.15847 0.0
C1007 C 0.36322 0.9213 0.10567 0.0
C1008 C 0.37023 0.90783 0.09866 0.0
C1009 C 0.37249 0.94187 0.09741 0.0
C1010 C 0.3671 0.95744 0.10541 0.0
C1011 C 0.36944 0.96277 0.12705 0.0
C1012 C 0.3643 0.97743 0.1345 0.0
C1013 C 0.35699 0.98703 0.12043 0.0
C1014 C 0.35487 0.98203 0.09887 0.0
C1015 C 0.35995 0.96733 0.09134 0.0
H1016 H 0.35304 0.9984 0.12623 0.0
H1017 H 0.41399 0.86226 0.06235 0.0
H1018 H 0.44241 0.45072 0.55508 0.0
H1019 H 0.42705 0.42089 0.57949 0.0
H1020 H 0.48851 0.42961 0.59211 0.0
H1021 H 0.50344 0.4582 0.56649 0.0
H1022 H 0.46504 0.39177 0.58714 0.0
H1023 H 0.45746 0.442 0.62873 0.0
H1024 H 0.44634 0.4677 0.63643 0.0
H1025 H 0.38217 0.42059 0.62657 0.0
H1026 H 0.39293 0.39465 0.61856 0.0
H1027 H 0.44459 0.32255 0.68492 0.0
H1028 H 0.45864 0.35739 0.65583 0.0
H1029 H 0.38483 0.33742 0.63769 0.0
H1030 H 0.36869 0.3019 0.66613 0.0
H1031 H 0.41305 0.38006 0.64264 0.0
H1032 H 0.42256 0.33196 0.59695 0.0
H1033 H 0.43436 0.30665 0.58965 0.0
H1034 H 0.49659 0.35168 0.60969 0.0
H1035 H 0.48509 0.3772 0.61711 0.0
C1036 C 0.45255 0.44628 0.56329 0.0
C1037 C 0.47403 0.45662 0.55901 0.0
C1038 C 0.44382 0.42933 0.57734 0.0
C1039 C 0.4566 0.42303 0.58797 0.0
C1040 C 0.47823 0.43396 0.58409 0.0
C1041 C 0.48679 0.45037 0.56954 0.0
C1042 C 0.44754 0.4044 0.60219 0.0
C1043 C 0.45397 0.38956 0.5995 0.0
C1044 C 0.43253 0.40089 0.61799 0.0
C1045 C 0.42603 0.41644 0.62284 0.0
C1046 C 0.44099 0.43716 0.62806 0.0
C1047 C 0.43475 0.45176 0.63251 0.0
C1048 C 0.41357 0.4458 0.63193 0.0
C1049 C 0.39857 0.4252 0.62698 0.0
C1050 C 0.40473 0.41053 0.62251 0.0
C1051 C 0.43355 0.32575 0.67676 0.0
C1052 C 0.40504 0.3063 0.67558 0.0
C1053 C 0.4421 0.34671 0.65783 0.0
C1054 C 0.42333 0.35025 0.64251 0.0
C1055 C 0.3955 0.33417 0.6465 0.0
C1056 C 0.38531 0.31272 0.66498 0.0
C1057 C 0.43104 0.36808 0.62775 0.0
C1058 C 0.42422 0.38256 0.63028 0.0
C1059 C 0.44599 0.37157 0.61211 0.0
C1060 C 0.45292 0.3563 0.60786 0.0
C1061 C 0.43873 0.33638 0.59986 0.0
C1062 C 0.44537 0.32203 0.59567 0.0
C1063 C 0.46619 0.32752 0.59929 0.0
C1064 C 0.48045 0.34742 0.60698 0.0
C1065 C 0.4739 0.36183 0.61115 0.0
H1066 H 0.47129 0.31638 0.59608 0.0
H1067 H 0.40876 0.45713 0.63538 0.0
H1068 H 0.51235 0.93464 0.51424 0.0
H1069 H 0.52586 0.91426 0.49682 0.0
H1070 H 0.54517 0.95634 0.44339 0.0
H1071 H 0.53223 0.97704 0.46087 0.0
H1072 H 0.51743 0.89278 0.46152 0.0
H1073 H 0.59043 0.96291 0.42353 0.0
H1074 H 0.61465 0.00029 0.4308 0.0
H1075 H 0.60105 0.98984 0.49726 0.0
H1076 H 0.57703 0.95237 0.49045 0.0
H1077 H 0.55826 0.84422 0.38072 0.0
H1078 H 0.5399 0.86449 0.40409 0.0
H1079 H 0.60589 0.90589 0.44638 0.0
H1080 H 0.62622 0.88719 0.42352 0.0
H1081 H 0.59068 0.92869 0.43615 0.0
H1082 H 0.54934 0.85906 0.46159 0.0
H1083 H 0.52651 0.82078 0.45958 0.0
H1084 H 0.47953 0.82857 0.42715 0.0
H1085 H 0.50218 0.8669 0.42874 0.0
C1086 C 0.51939 0.9395 0.49874 0.0
C1087 C 0.52138 0.95757 0.48903 0.0
C1088 C 0.52707 0.92781 0.48879 0.0
C1089 C 0.53682 0.93395 0.46894 0.0
C1090 C 0.53811 0.95154 0.45889 0.0
C1091 C 0.53062 0.96332 0.46889 0.0
C1092 C 0.54604 0.92225 0.45891 0.0
C1093 C 0.53343 0.90062 0.45591 0.0
C1094 C 0.5671 0.93238 0.45213 0.0
C1095 C 0.58176 0.95487 0.45642 0.0
C1096 C 0.59268 0.96858 0.4397 0.0
C1097 C 0.60637 0.98979 0.44375 0.0
C1098 C 0.60934 0.99745 0.46447 0.0
C1099 C 0.59869 0.98391 0.48121 0.0
C1100 C 0.58502 0.96268 0.47726 0.0
C1101 C 0.56673 0.85489 0.39353 0.0
C1102 C 0.5955 0.86645 0.39712 0.0
C1103 C 0.55571 0.86819 0.40771 0.0
C1104 C 0.57111 0.8881 0.42715 0.0
C1105 C 0.59745 0.8945 0.4341 0.0
C1106 C 0.6099 0.88216 0.42076 0.0
C1107 C 0.56198 0.89919 0.43839 0.0
C1108 C 0.57466 0.92078 0.44167 0.0
C1109 C 0.54121 0.88888 0.44605 0.0
C1110 C 0.52756 0.86585 0.44507 0.0
C1111 C 0.5342 0.8526 0.4539 0.0
C1112 C 0.52128 0.8309 0.45286 0.0
C1113 C 0.50161 0.82225 0.44318 0.0
C1114 C 0.49478 0.83529 0.43461 0.0
C1115 C 0.50764 0.857 0.4356 0.0
H1116 H 0.49164 0.80544 0.44238 0.0
H1117 H 0.61992 0.01387 0.46756 0.0
H1118 H 0.56533 0.54174 0.96893 0.0
H1119 H 0.5971 0.55435 0.94826 0.0
H1120 H 0.61155 0.51186 0.98136 0.0
H1121 H 0.57982 0.49944 0.00264 0.0
H1122 H 0.64579 0.54913 0.97695 0.0
H1123 H 0.59172 0.50156 0.93041 0.0
H1124 H 0.55797 0.48616 0.91137 0.0
H1125 H 0.57811 0.54412 0.87855 0.0
H1126 H 0.61187 0.55998 0.89762 0.0
H1127 H 0.72546 0.56596 0.90306 0.0
H1128 H 0.69296 0.54858 0.92343 0.0
H1129 H 0.67527 0.59201 0.89843 0.0
H1130 H 0.70773 0.60944 0.87806 0.0
H1131 H 0.64242 0.55121 0.89841 0.0
H1132 H 0.69551 0.59909 0.94691 0.0
H1133 H 0.72918 0.61435 0.96607 0.0
H1134 H 0.71063 0.55494 0.99507 0.0
H1135 H 0.67695 0.53925 0.97581 0.0
C1136 C 0.57522 0.53503 0.97186 0.0
C1137 C 0.56996 0.51947 0.98735 0.0
C1138 C 0.59336 0.5422 0.95993 0.0
C1139 C 0.60651 0.53375 0.96293 0.0
C1140 C 0.60156 0.51851 0.97868 0.0
C1141 C 0.58343 0.51142 0.99081 0.0
C1142 C 0.62547 0.5411 0.94968 0.0
C1143 C 0.645 0.54921 0.95976 0.0
C1144 C 0.62451 0.54155 0.92725 0.0
C1145 C 0.60428 0.532 0.91557 0.0
C1146 C 0.58891 0.51107 0.91923 0.0
C1147 C 0.56978 0.50225 0.90842 0.0
C1148 C 0.56589 0.51417 0.89379 0.0
C1149 C 0.58114 0.53491 0.8899 0.0
C1150 C 0.60029 0.54381 0.90068 0.0
C1151 C 0.7145 0.57163 0.90176 0.0
C1152 C 0.71902 0.58893 0.88882 0.0
C1153 C 0.69603 0.56177 0.91345 0.0
C1154 C 0.68178 0.56909 0.91252 0.0
C1155 C 0.68603 0.58608 0.89931 0.0
C1156 C 0.70456 0.59601 0.88769 0.0
C1157 C 0.66266 0.55942 0.92571 0.0
C1158 C 0.64313 0.5509 0.91559 0.0
C1159 C 0.66362 0.5585 0.94808 0.0
C1160 C 0.68381 0.56794 0.95974 0.0
C1161 C 0.69869 0.58924 0.95723 0.0
C1162 C 0.71776 0.59797 0.96813 0.0
C1163 C 0.72207 0.58561 0.98173 0.0
C1164 C 0.70729 0.56449 0.9845 0.0
C1165 C 0.6882 0.55567 0.9736 0.0
H1166 H 0.73684 0.5924 0.99016 0.0
H1167 H 0.55106 0.50732 0.88544 0.0
H1168 H 0.0322 0.56583 0.48779 0.0
H1169 H 0.04781 0.5973 0.46585 0.0
H1170 H 0.01942 0.55979 0.4101 0.0
H1171 H 0.00309 0.52802 0.43221 0.0
H1172 H 0.06839 0.5919 0.41303 0.0
H1173 H 0.99974 0.58454 0.41777 0.0
H1174 H 0.96841 0.57885 0.4371 0.0
H1175 H 0.00603 0.63358 0.47476 0.0
H1176 H 0.03764 0.6394 0.45587 0.0
H1177 H 0.11686 0.68623 0.35462 0.0
H1178 H 0.0913 0.65125 0.36624 0.0
H1179 H 0.08402 0.6764 0.42519 0.0
H1180 H 0.10815 0.71162 0.4129 0.0
H1181 H 0.04885 0.64711 0.41536 0.0
H1182 H 0.11662 0.6525 0.41777 0.0
H1183 H 0.15029 0.65875 0.4035 0.0
H1184 H 0.11784 0.60912 0.35844 0.0
H1185 H 0.08396 0.60275 0.3723 0.0
C1186 C 0.02911 0.56427 0.47088 0.0
C1187 C 0.0165 0.54451 0.46165 0.0
C1188 C 0.03797 0.58225 0.45841 0.0
C1189 C 0.0347 0.58079 0.43644 0.0
C1190 C 0.022 0.56114 0.42709 0.0
C1191 C 0.01268 0.54309 0.43969 0.0
C1192 C 0.04564 0.59993 0.42346 0.0
C1193 C 0.06391 0.60384 0.413 0.0
C1194 C 0.04011 0.61565 0.42427 0.0
C1195 C 0.02108 0.61231 0.43549 0.0
C1196 C 0.00136 0.59526 0.43029 0.0
C1197 C 0.98354 0.59203 0.44114 0.0
C1198 C 0.98523 0.60582 0.45717 0.0
C1199 C 0.00474 0.6229 0.46234 0.0
C1200 C 0.02261 0.62619 0.45154 0.0
C1201 C 0.10987 0.68446 0.37006 0.0
C1202 C 0.11532 0.7019 0.38319 0.0
C1203 C 0.09525 0.66429 0.37675 0.0
C1204 C 0.08615 0.66098 0.39692 0.0
C1205 C 0.09092 0.6784 0.40964 0.0
C1206 C 0.10503 0.69859 0.40272 0.0
C1207 C 0.07207 0.63947 0.40511 0.0
C1208 C 0.05324 0.63512 0.41484 0.0
C1209 C 0.07745 0.62353 0.40421 0.0
C1210 C 0.09778 0.62733 0.39588 0.0
C1211 C 0.11668 0.64303 0.40472 0.0
C1212 C 0.13579 0.64658 0.39672 0.0
C1213 C 0.1362 0.63439 0.38003 0.0
C1214 C 0.11749 0.61858 0.37134 0.0
C1215 C 0.09834 0.61499 0.37926 0.0
H1216 H 0.15102 0.63716 0.37386 0.0
H1217 H 0.97142 0.60329 0.46557 0.0
H1218 H 0.50009 0.03575 0.9613 0.0
H1219 H 0.48873 0.05602 0.94006 0.0
H1220 H 0.48269 0.085 0.99675 0.0
H1221 H 0.49476 0.06507 0.01826 0.0
H1222 H 0.44514 0.06172 0.9624 0.0
H1223 H 0.51654 0.11703 0.97382 0.0
H1224 H 0.55457 0.13065 0.97514 0.0
H1225 H 0.55398 0.11584 0.90927 0.0
H1226 H 0.51587 0.10185 0.90763 0.0
H1227 H 0.41472 0.11948 0.89602 0.0
H1228 H 0.43134 0.11135 0.92535 0.0
H1229 H 0.46921 0.10082 0.88076 0.0
H1230 H 0.45323 0.10976 0.8515 0.0
H1231 H 0.49185 0.1192 0.91409 0.0
H1232 H 0.42352 0.06049 0.9018 0.0
H1233 H 0.38514 0.04174 0.89795 0.0
H1234 H 0.3792 0.05749 0.96202 0.0
H1235 H 0.41761 0.07661 0.96615 0.0
C1236 C 0.4965 0.04655 0.96927 0.0
C1237 C 0.49824 0.04883 0.99142 0.0
C1238 C 0.49007 0.05812 0.95711 0.0
C1239 C 0.48492 0.07194 0.96689 0.0
C1240 C 0.48669 0.0744 0.989 0.0
C1241 C 0.49362 0.06311 0.0012 0.0
C1242 C 0.47698 0.08303 0.95367 0.0
C1243 C 0.45531 0.07472 0.95225 0.0
C1244 C 0.49032 0.09932 0.93989 0.0
C1245 C 0.51332 0.10826 0.94065 0.0
C1246 C 0.5245 0.11655 0.95965 0.0
C1247 C 0.54608 0.12436 0.96045 0.0
C1248 C 0.55668 0.12406 0.94231 0.0
C1249 C 0.54574 0.11606 0.92331 0.0
C1250 C 0.52416 0.10822 0.92243 0.0
C1251 C 0.42695 0.11591 0.89253 0.0
C1252 C 0.43296 0.11561 0.87147 0.0
C1253 C 0.4363 0.11108 0.90929 0.0
C1254 C 0.4514 0.10526 0.90528 0.0
C1255 C 0.45771 0.10539 0.8843 0.0
C1256 C 0.44856 0.11045 0.86758 0.0
C1257 C 0.45983 0.09789 0.92267 0.0
C1258 C 0.4816 0.10669 0.92467 0.0
C1259 C 0.44652 0.08162 0.93664 0.0
C1260 C 0.42344 0.07023 0.93419 0.0
C1261 C 0.41404 0.06012 0.915 0.0
C1262 C 0.39228 0.0494 0.91278 0.0
C1263 C 0.37974 0.04849 0.9297 0.0
C1264 C 0.38894 0.05826 0.94891 0.0
C1265 C 0.4107 0.06905 0.9512 0.0
H1266 H 0.3629 0.04016 0.92796 0.0
H1267 H 0.57338 0.13005 0.94298 0.0
H1268 H 0.47057 0.49487 0.45222 0.0
H1269 H 0.44194 0.47964 0.42644 0.0
H1270 H 0.43189 0.41809 0.44099 0.0
H1271 H 0.46175 0.43369 0.4657 0.0
H1272 H 0.42441 0.41868 0.40184 0.0
H1273 H 0.40132 0.43925 0.46286 0.0
H1274 H 0.40254 0.46291 0.49105 0.0
H1275 H 0.39971 0.50379 0.44424 0.0
H1276 H 0.39874 0.4805 0.41574 0.0
H1277 H 0.31117 0.35828 0.35692 0.0
H1278 H 0.34877 0.3749 0.3825 0.0
H1279 H 0.36925 0.44826 0.36207 0.0
H1280 H 0.33228 0.43365 0.3357 0.0
H1281 H 0.37129 0.4409 0.40668 0.0
H1282 H 0.39343 0.41788 0.34594 0.0
H1283 H 0.39061 0.39232 0.31917 0.0
H1284 H 0.3925 0.35294 0.36834 0.0
H1285 H 0.39505 0.37815 0.39545 0.0
C1286 C 0.46241 0.47812 0.44961 0.0
C1287 C 0.46818 0.46538 0.46087 0.0
C1288 C 0.4459 0.46938 0.43507 0.0
C1289 C 0.43419 0.44759 0.43225 0.0
C1290 C 0.44053 0.43491 0.44297 0.0
C1291 C 0.45755 0.44378 0.45705 0.0
C1292 C 0.41513 0.43815 0.41854 0.0
C1293 C 0.41264 0.42329 0.40321 0.0
C1294 C 0.39975 0.44426 0.42005 0.0
C1295 C 0.40013 0.45821 0.43716 0.0
C1296 C 0.40107 0.45335 0.45857 0.0
C1297 C 0.40171 0.46668 0.47461 0.0
C1298 C 0.40125 0.48486 0.46944 0.0
C1299 C 0.40008 0.48971 0.44822 0.0
C1300 C 0.39946 0.47644 0.43212 0.0
C1301 C 0.32247 0.37483 0.35693 0.0
C1302 C 0.31593 0.39454 0.34661 0.0
C1303 C 0.34538 0.3854 0.3736 0.0
C1304 C 0.36242 0.41333 0.37597 0.0
C1305 C 0.35823 0.4317 0.36078 0.0
C1306 C 0.33581 0.42275 0.34361 0.0
C1307 C 0.38076 0.4216 0.39016 0.0
C1308 C 0.38306 0.43625 0.40551 0.0
C1309 C 0.3956 0.41489 0.38903 0.0
C1310 C 0.39421 0.3998 0.37274 0.0
C1311 C 0.39308 0.40369 0.35106 0.0
C1312 C 0.39156 0.38928 0.33582 0.0
C1313 C 0.39132 0.37098 0.34206 0.0
C1314 C 0.39266 0.3671 0.36354 0.0
C1315 C 0.39417 0.38145 0.37884 0.0
H1316 H 0.39013 0.35984 0.33024 0.0
H1317 H 0.40175 0.49518 0.48187 0.0
H1318 H 0.00931 0.44902 0.96896 0.0
H1319 H 0.99 0.41652 0.94912 0.0
H1320 H 0.93318 0.40357 0.98086 0.0
H1321 H 0.95265 0.43596 0.00137 0.0
H1322 H 0.93511 0.36895 0.97746 0.0
H1323 H 0.94375 0.42277 0.92938 0.0
H1324 H 0.96303 0.45602 0.90987 0.0
H1325 H 0.9998 0.43357 0.87924 0.0
H1326 H 0.98094 0.40029 0.89881 0.0
H1327 H 0.86977 0.28987 0.90344 0.0
H1328 H 0.88648 0.32259 0.92368 0.0
H1329 H 0.94673 0.33626 0.90015 0.0
H1330 H 0.9301 0.30355 0.87991 0.0
H1331 H 0.94102 0.37069 0.89905 0.0
H1332 H 0.93266 0.31722 0.94868 0.0
H1333 H 0.91266 0.28397 0.96803 0.0
H1334 H 0.87408 0.306 0.99533 0.0
H1335 H 0.89368 0.33929 0.97588 0.0
C1336 C 0.9927 0.43926 0.97179 0.0
C1337 C 0.98246 0.44515 0.98662 0.0
C1338 C 0.98166 0.42071 0.96034 0.0
C1339 C 0.96003 0.40782 0.96312 0.0
C1340 C 0.94983 0.41334 0.97835 0.0
C1341 C 0.96096 0.43184 0.99005 0.0
C1342 C 0.94821 0.38865 0.95004 0.0
C1343 C 0.93612 0.3694 0.9603 0.0
C1344 C 0.94976 0.38915 0.92763 0.0
C1345 C 0.96103 0.40909 0.9157 0.0
C1346 C 0.95604 0.42497 0.91859 0.0
C1347 C 0.96689 0.44382 0.90751 0.0
C1348 C 0.98266 0.44692 0.89336 0.0
C1349 C 0.98759 0.43115 0.89022 0.0
C1350 C 0.97681 0.41228 0.90129 0.0
C1351 C 0.88656 0.29997 0.90246 0.0
C1352 C 0.89863 0.29426 0.88997 0.0
C1353 C 0.89608 0.31857 0.91408 0.0
C1354 C 0.91785 0.33176 0.91351 0.0
C1355 C 0.9299 0.32631 0.90076 0.0
C1356 C 0.9204 0.30765 0.88922 0.0
C1357 C 0.92816 0.35107 0.9265 0.0
C1358 C 0.93992 0.37032 0.91621 0.0
C1359 C 0.92617 0.35059 0.94883 0.0
C1360 C 0.91449 0.33065 0.96065 0.0
C1361 C 0.91981 0.31491 0.95867 0.0
C1362 C 0.90856 0.29607 0.96968 0.0
C1363 C 0.89207 0.29285 0.98285 0.0
C1364 C 0.88684 0.3085 0.98509 0.0
C1365 C 0.89801 0.32736 0.97409 0.0
H1366 H 0.88339 0.27825 0.99136 0.0
H1367 H 0.99104 0.46152 0.88479 0.0
H1368 H 0.0276 0.53609 0.93479 0.0
H1369 H 0.01378 0.55367 0.91235 0.0
H1370 H 0.97951 0.55752 0.9657 0.0
H1371 H 0.99238 0.53917 0.98769 0.0
H1372 H 0.9555 0.54644 0.93386 0.0
H1373 H 0.02673 0.60068 0.94532 0.0
H1374 H 0.06512 0.61685 0.94488 0.0
H1375 H 0.06361 0.60952 0.87726 0.0
H1376 H 0.02516 0.59306 0.87734 0.0
H1377 H 0.93473 0.62548 0.89751 0.0
H1378 H 0.95061 0.60798 0.91677 0.0
H1379 H 0.96805 0.59213 0.85751 0.0
H1380 H 0.95178 0.60918 0.83812 0.0
H1381 H 0.00053 0.60862 0.88992 0.0
H1382 H 0.92819 0.55575 0.8799 0.0
H1383 H 0.89012 0.54168 0.88193 0.0
H1384 H 0.8946 0.54899 0.94961 0.0
H1385 H 0.93276 0.56342 0.94794 0.0
C1386 C 0.01714 0.54074 0.94165 0.0
C1387 C 0.01099 0.53619 0.96293 0.0
C1388 C 0.00933 0.55089 0.92888 0.0
C1389 C 0.99573 0.55716 0.93735 0.0
C1390 C 0.98985 0.55277 0.9587 0.0
C1391 C 0.99726 0.54228 0.97128 0.0
C1392 C 0.98714 0.56787 0.92412 0.0
C1393 C 0.96546 0.56018 0.92448 0.0
C1394 C 0.99996 0.58557 0.91144 0.0
C1395 C 0.02306 0.59543 0.91137 0.0
C1396 C 0.03457 0.60237 0.93038 0.0
C1397 C 0.05635 0.61161 0.93019 0.0
C1398 C 0.06679 0.61415 0.91106 0.0
C1399 C 0.05549 0.60751 0.89207 0.0
C1400 C 0.03371 0.59823 0.89217 0.0
C1401 C 0.94205 0.61837 0.8886 0.0
C1402 C 0.94216 0.61885 0.86631 0.0
C1403 C 0.95109 0.60838 0.8996 0.0
C1404 C 0.96047 0.59879 0.88852 0.0
C1405 C 0.96098 0.59956 0.86631 0.0
C1406 C 0.95171 0.60931 0.85529 0.0
C1407 C 0.96915 0.58736 0.90014 0.0
C1408 C 0.99072 0.59486 0.89934 0.0
C1409 C 0.95633 0.56972 0.91273 0.0
C1410 C 0.93335 0.56084 0.91377 0.0
C1411 C 0.92108 0.55451 0.8952 0.0
C1412 C 0.89948 0.54645 0.89628 0.0
C1413 C 0.88995 0.54449 0.91588 0.0
C1414 C 0.902 0.55054 0.93444 0.0
C1415 C 0.92361 0.55864 0.93343 0.0
H1416 H 0.87323 0.53824 0.91669 0.0
H1417 H 0.08365 0.62132 0.91095 0.0
H1418 H 0.4805 0.01055 0.44067 0.0
H1419 H 0.44915 0.99705 0.41832 0.0
H1420 H 0.41127 0.96052 0.47094 0.0
H1421 H 0.44255 0.97322 0.49293 0.0
H1422 H 0.39942 0.93743 0.43821 0.0
H1423 H 0.41305 0.00688 0.45211 0.0
H1424 H 0.43377 0.04537 0.45347 0.0
H1425 H 0.44154 0.04766 0.38592 0.0
H1426 H 0.42109 0.00914 0.38419 0.0
H1427 H 0.29996 0.91546 0.39732 0.0
H1428 H 0.33231 0.93113 0.41834 0.0
H1429 H 0.36859 0.95018 0.36097 0.0
H1430 H 0.33635 0.93396 0.33981 0.0
H1431 H 0.38126 0.98233 0.39482 0.0
H1432 H 0.36607 0.91148 0.38246 0.0
H1433 H 0.34359 0.87312 0.38273 0.0
H1434 H 0.33684 0.87414 0.45022 0.0
H1435 H 0.35902 0.91257 0.4503 0.0
C1436 C 0.46545 0.99974 0.44746 0.0
C1437 C 0.46397 0.9929 0.46851 0.0
C1438 C 0.44752 0.9921 0.43471 0.0
C1439 C 0.42775 0.97789 0.44297 0.0
C1440 C 0.4263 0.97137 0.46413 0.0
C1441 C 0.44421 0.97869 0.47672 0.0
C1442 C 0.4086 0.96915 0.4295 0.0
C1443 C 0.39538 0.94734 0.42897 0.0
C1444 C 0.40341 0.98196 0.41707 0.0
C1445 C 0.41573 0.00512 0.41805 0.0
C1446 C 0.41932 0.01558 0.43756 0.0
C1447 C 0.43099 0.03741 0.4384 0.0
C1448 C 0.43902 0.04895 0.4198 0.0
C1449 C 0.43535 0.0387 0.40032 0.0
C1450 C 0.42371 0.01687 0.3994 0.0
C1451 C 0.31482 0.92306 0.38919 0.0
C1452 C 0.31559 0.92378 0.36691 0.0
C1453 C 0.33325 0.93198 0.4012 0.0
C1454 C 0.35275 0.94188 0.39115 0.0
C1455 C 0.35364 0.94277 0.36896 0.0
C1456 C 0.33523 0.93355 0.35693 0.0
C1457 C 0.37224 0.95082 0.40385 0.0
C1458 C 0.38545 0.97257 0.40413 0.0
C1459 C 0.37727 0.93804 0.41636 0.0
C1460 C 0.36402 0.91492 0.41635 0.0
C1461 C 0.35963 0.90355 0.39733 0.0
C1462 C 0.34698 0.88179 0.39743 0.0
C1463 C 0.33874 0.87121 0.41647 0.0
C1464 C 0.3432 0.88236 0.43547 0.0
C1465 C 0.35582 0.90413 0.43546 0.0
H1466 H 0.32896 0.85436 0.41652 0.0
H1467 H 0.44804 0.06585 0.42048 0.0
H1468 H 0.4644 0.43915 0.99362 0.0
H1469 H 0.44905 0.4079 0.97139 0.0
H1470 H 0.47429 0.44646 0.91569 0.0
H1471 H 0.4886 0.47796 0.93801 0.0
H1472 H 0.43894 0.41387 0.9055 0.0
H1473 H 0.5001 0.42345 0.9411 0.0
H1474 H 0.5236 0.42959 0.97156 0.0
H1475 H 0.47732 0.3722 1.00009 0.0
H1476 H 0.45341 0.36586 0.96994 0.0
H1477 H 0.44614 0.30193 0.88216 0.0
H1478 H 0.46299 0.3433 0.90003 0.0
H1479 H 0.39427 0.34078 0.89021 0.0
H1480 H 0.37586 0.29962 0.87144 0.0
H1481 H 0.45635 0.36024 0.92924 0.0
H1482 H 0.40024 0.3861 0.89254 0.0
H1483 H 0.38215 0.38321 0.85859 0.0
H1484 H 0.428 0.37468 0.82555 0.0
H1485 H 0.44646 0.37774 0.85926 0.0
C1486 C 0.46628 0.44093 0.97657 0.0
C1487 C 0.47774 0.46083 0.96745 0.0
C1488 C 0.45765 0.42309 0.96389 0.0
C1489 C 0.46109 0.42477 0.94192 0.0
C1490 C 0.47156 0.44475 0.93262 0.0
C1491 C 0.47972 0.46271 0.94533 0.0
C1492 C 0.45485 0.40566 0.92907 0.0
C1493 C 0.44276 0.40214 0.91065 0.0
C1494 C 0.46048 0.39066 0.93526 0.0
C1495 C 0.47491 0.39426 0.95332 0.0
C1496 C 0.49489 0.41219 0.95392 0.0
C1497 C 0.50829 0.41571 0.97113 0.0
C1498 C 0.50194 0.40131 0.98777 0.0
C1499 C 0.48221 0.38334 0.9872 0.0
C1500 C 0.46874 0.37977 0.97004 0.0
C1501 C 0.43639 0.30888 0.88429 0.0
C1502 C 0.4103 0.29808 0.87126 0.0
C1503 C 0.44698 0.33501 0.89446 0.0
C1504 C 0.43108 0.34733 0.89555 0.0
C1505 C 0.40373 0.33356 0.88796 0.0
C1506 C 0.39171 0.30739 0.8775 0.0
C1507 C 0.44003 0.36812 0.90579 0.0
C1508 C 0.45264 0.37196 0.92382 0.0
C1509 C 0.43558 0.38371 0.89872 0.0
C1510 C 0.42452 0.3818 0.87845 0.0
C1511 C 0.40646 0.38363 0.87802 0.0
C1512 C 0.39614 0.38196 0.85882 0.0
C1513 C 0.40387 0.37866 0.83994 0.0
C1514 C 0.42198 0.37713 0.84019 0.0
C1515 C 0.43234 0.37879 0.85934 0.0
H1516 H 0.39585 0.37736 0.8251 0.0
H1517 H 0.51233 0.40407 0.00108 0.0
H1518 H 0.01825 0.46091 0.4638 0.0
H1519 H 0.03695 0.44602 0.44586 0.0
H1520 H 0.09145 0.48353 0.48457 0.0
H1521 H 0.07276 0.49861 0.50277 0.0
H1522 H 0.10024 0.48369 0.44092 0.0
H1523 H 0.06275 0.43391 0.49598 0.0
H1524 H 0.03155 0.41021 0.51673 0.0
H1525 H 0.00199 0.37432 0.46073 0.0
H1526 H 0.03291 0.398 0.43956 0.0
H1527 H 0.15505 0.4299 0.41781 0.0
H1528 H 0.13744 0.44671 0.43452 0.0
H1529 H 0.08035 0.40461 0.4014 0.0
H1530 H 0.0979 0.38753 0.38488 0.0
H1531 H 0.07299 0.40716 0.44222 0.0
H1532 H 0.1093 0.45596 0.3869 0.0
H1533 H 0.13952 0.47971 0.36501 0.0
H1534 H 0.1702 0.5174 0.41972 0.0
H1535 H 0.14027 0.49369 0.44203 0.0
C1536 C 0.03422 0.46605 0.46855 0.0
C1537 C 0.04401 0.48093 0.48478 0.0
C1538 C 0.04486 0.45746 0.45829 0.0
C1539 C 0.06551 0.46356 0.464 0.0
C1540 C 0.07549 0.47861 0.47997 0.0
C1541 C 0.06477 0.48714 0.4904 0.0
C1542 C 0.07654 0.45407 0.45323 0.0
C1543 C 0.09451 0.46701 0.44145 0.0
C1544 C 0.06862 0.43222 0.45342 0.0
C1545 C 0.05007 0.41785 0.46615 0.0
C1546 C 0.04953 0.42106 0.48805 0.0
C1547 C 0.03191 0.40761 0.4999 0.0
C1548 C 0.01478 0.3908 0.49005 0.0
C1549 C 0.01526 0.38736 0.46833 0.0
C1550 C 0.03284 0.40078 0.45641 0.0
C1551 C 0.13883 0.42446 0.41385 0.0
C1552 C 0.12794 0.40767 0.39974 0.0
C1553 C 0.12879 0.43408 0.42338 0.0
C1554 C 0.10764 0.4271 0.41901 0.0
C1555 C 0.09671 0.41032 0.40492 0.0
C1556 C 0.10675 0.40068 0.39539 0.0
C1557 C 0.09676 0.43677 0.42985 0.0
C1558 C 0.07879 0.42386 0.44167 0.0
C1559 C 0.10458 0.45862 0.42953 0.0
C1560 C 0.12263 0.47292 0.41618 0.0
C1561 C 0.12257 0.46921 0.39431 0.0
C1562 C 0.13963 0.48268 0.38181 0.0
C1563 C 0.1568 0.50002 0.39098 0.0
C1564 C 0.15691 0.50394 0.41265 0.0
C1565 C 0.13989 0.4905 0.42523 0.0
H1566 H 0.16999 0.51044 0.38128 0.0
H1567 H 0.00115 0.38041 0.49924 0.0
H1568 H 0.57572 0.03472 0.99484 0.0
H1569 H 0.6061 0.04782 0.97192 0.0
H1570 H 0.56682 0.00932 0.92067 0.0
H1571 H 0.53627 0.99545 0.94398 0.0
H1572 H 0.6016 0.0085 0.92074 0.0
H1573 H 0.58536 0.06319 0.92283 0.0
H1574 H 0.57702 0.08852 0.93897 0.0
H1575 H 0.63647 0.11841 0.97096 0.0
H1576 H 0.64507 0.09311 0.95521 0.0
H1577 H 0.67955 0.06806 0.84252 0.0
H1578 H 0.64749 0.05336 0.86351 0.0
H1579 H 0.68426 0.0761 0.92077 0.0
H1580 H 0.71644 0.0903 0.89995 0.0
H1581 H 0.64983 0.08507 0.91545 0.0
H1582 H 0.66438 0.02796 0.91248 0.0
H1583 H 0.67169 0.00299 0.89389 0.0
H1584 H 0.61341 0.97832 0.86011 0.0
H1585 H 0.60591 0.00338 0.87829 0.0
C1586 C 0.57351 0.029 0.97869 0.0
C1587 C 0.55358 0.01419 0.97113 0.0
C1588 C 0.5909 0.0366 0.96555 0.0
C1589 C 0.5887 0.02998 0.94439 0.0
C1590 C 0.56888 0.01478 0.93691 0.0
C1591 C 0.55145 0.00687 0.95021 0.0
C1592 C 0.60721 0.03892 0.93025 0.0
C1593 C 0.61192 0.02526 0.91934 0.0
C1594 C 0.62085 0.0608 0.9285 0.0
C1595 C 0.61579 0.07613 0.93796 0.0
C1596 C 0.5966 0.07508 0.93342 0.0
C1597 C 0.59183 0.08944 0.94248 0.0
C1598 C 0.60619 0.10503 0.95602 0.0
C1599 C 0.62536 0.10632 0.96048 0.0
C1600 C 0.6302 0.09199 0.95146 0.0
C1601 C 0.6808 0.06968 0.8596 0.0
C1602 C 0.70052 0.07997 0.86963 0.0
C1603 C 0.6625 0.06138 0.87153 0.0
C1604 C 0.66358 0.06355 0.89365 0.0
C1605 C 0.68317 0.07424 0.9037 0.0
C1606 C 0.7015 0.08226 0.89181 0.0
C1607 C 0.64422 0.05464 0.90631 0.0
C1608 C 0.63937 0.06834 0.91686 0.0
C1609 C 0.63026 0.03285 0.90737 0.0
C1610 C 0.63469 0.01769 0.89657 0.0
C1611 C 0.65322 0.01734 0.90095 0.0
C1612 C 0.65737 0.00314 0.89051 0.0
C1613 C 0.64305 0.98912 0.87578 0.0
C1614 C 0.62451 0.98922 0.8715 0.0
C1615 C 0.62029 0.0034 0.88187 0.0
H1616 H 0.64629 0.97814 0.86772 0.0
H1617 H 0.60247 0.11614 0.96302 0.0
H1618 H 0.49876 0.56055 0.49354 0.0
H1619 H 0.51285 0.5929 0.47281 0.0
H1620 H 0.56442 0.58525 0.45305 0.0
H1621 H 0.55028 0.55274 0.47339 0.0
H1622 H 0.57568 0.62658 0.46798 0.0
H1623 H 0.52949 0.574 0.41887 0.0
H1624 H 0.49608 0.54396 0.40709 0.0
H1625 H 0.4657 0.58022 0.41445 0.0
H1626 H 0.4989 0.61039 0.42665 0.0
H1627 H 0.61498 0.70499 0.38852 0.0
H1628 H 0.60095 0.6708 0.40577 0.0
H1629 H 0.54435 0.67148 0.42062 0.0
H1630 H 0.55826 0.70555 0.40335 0.0
H1631 H 0.53606 0.63294 0.40729 0.0
H1632 H 0.58131 0.68493 0.45743 0.0
H1633 H 0.61423 0.71498 0.47023 0.0
H1634 H 0.64584 0.68001 0.46194 0.0
H1635 H 0.61315 0.64983 0.44876 0.0
C1636 C 0.51313 0.5658 0.48483 0.0
C1637 C 0.52339 0.5541 0.48502 0.0
C1638 C 0.5211 0.58421 0.47296 0.0
C1639 C 0.5396 0.59134 0.46137 0.0
C1640 C 0.55011 0.57994 0.46189 0.0
C1641 C 0.54196 0.56136 0.47344 0.0
C1642 C 0.54795 0.61069 0.44863 0.0
C1643 C 0.5672 0.62791 0.45451 0.0
C1644 C 0.5366 0.61244 0.43137 0.0
C1645 C 0.51664 0.59438 0.42391 0.0
C1646 C 0.51565 0.57551 0.41818 0.0
C1647 C 0.49675 0.55847 0.41139 0.0
C1648 C 0.47876 0.56016 0.41008 0.0
C1649 C 0.47965 0.57892 0.41551 0.0
C1650 C 0.4985 0.596 0.42236 0.0
C1651 C 0.59944 0.69767 0.39522 0.0
C1652 C 0.58765 0.70784 0.3945 0.0
C1653 C 0.59149 0.67823 0.40514 0.0
C1654 C 0.57168 0.66871 0.41463 0.0
C1655 C 0.55964 0.67854 0.41336 0.0
C1656 C 0.5676 0.69799 0.40352 0.0
C1657 C 0.56382 0.64893 0.42665 0.0
C1658 C 0.54462 0.6316 0.42067 0.0
C1659 C 0.57517 0.64711 0.44391 0.0
C1660 C 0.59484 0.66521 0.45187 0.0
C1661 C 0.59532 0.68371 0.45815 0.0
C1662 C 0.61393 0.70076 0.46551 0.0
C1663 C 0.63213 0.69943 0.46684 0.0
C1664 C 0.63174 0.68103 0.46086 0.0
C1665 C 0.61317 0.66395 0.45345 0.0
H1666 H 0.64652 0.71264 0.47255 0.0
H1667 H 0.46415 0.54695 0.40481 0.0
H1668 H 0.50353 0.0504 0.54842 0.0
H1669 H 0.48948 0.06632 0.57211 0.0
H1670 H 0.44789 0.00597 0.59941 0.0
H1671 H 0.46207 0.9898 0.5757 0.0
H1672 H 0.42805 0.02851 0.58712 0.0
H1673 H 0.48643 0.03929 0.62893 0.0
H1674 H 0.52322 0.04967 0.63613 0.0
H1675 H 0.54235 0.11299 0.61881 0.0
H1676 H 0.5057 0.10293 0.61118 0.0
H1677 H 0.39325 0.08053 0.6567 0.0
H1678 H 0.40794 0.05868 0.64573 0.0
H1679 H 0.45826 0.11172 0.61417 0.0
H1680 H 0.44376 0.13356 0.62522 0.0
H1681 H 0.47229 0.08848 0.63432 0.0
H1682 H 0.41565 0.07677 0.58699 0.0
H1683 H 0.37932 0.06699 0.5781 0.0
H1684 H 0.35744 0.00588 0.60447 0.0
H1685 H 0.39366 0.01543 0.61382 0.0
C1686 C 0.49149 0.04048 0.55955 0.0
C1687 C 0.48387 0.01882 0.56016 0.0
C1688 C 0.48356 0.04964 0.57316 0.0
C1689 C 0.46777 0.03735 0.58762 0.0
C1690 C 0.46015 0.01572 0.58841 0.0
C1691 C 0.4683 0.00654 0.57492 0.0
C1692 C 0.45864 0.0472 0.60099 0.0
C1693 C 0.43757 0.04127 0.59788 0.0
C1694 C 0.47121 0.06412 0.61465 0.0
C1695 C 0.4933 0.07031 0.61935 0.0
C1696 C 0.49849 0.0554 0.6265 0.0
C1697 C 0.51932 0.06123 0.63069 0.0
C1698 C 0.53511 0.08197 0.6279 0.0
C1699 C 0.5301 0.09693 0.62096 0.0
C1700 C 0.50929 0.09118 0.61673 0.0
C1701 C 0.40765 0.08756 0.64776 0.0
C1702 C 0.41745 0.10876 0.64191 0.0
C1703 C 0.41597 0.07507 0.64143 0.0
C1704 C 0.43411 0.08354 0.629 0.0
C1705 C 0.4443 0.10488 0.62383 0.0
C1706 C 0.436 0.11733 0.63011 0.0
C1707 C 0.44182 0.07007 0.6201 0.0
C1708 C 0.46264 0.07538 0.62398 0.0
C1709 C 0.42907 0.05266 0.60702 0.0
C1710 C 0.40732 0.0469 0.60136 0.0
C1711 C 0.40307 0.06131 0.59106 0.0
C1712 C 0.38251 0.0558 0.58591 0.0
C1713 C 0.36607 0.03585 0.59078 0.0
C1714 C 0.37018 0.02135 0.60076 0.0
C1715 C 0.39072 0.02679 0.60599 0.0
H1716 H 0.35016 0.03161 0.58677 0.0
H1717 H 0.55123 0.08646 0.63115 0.0
H1718 H 0.46234 0.49636 0.05541 0.0
H1719 H 0.43361 0.48095 0.0808 0.0
H1720 H 0.44715 0.43158 0.0939 0.0
H1721 H 0.47643 0.44728 0.06883 0.0
H1722 H 0.40197 0.42017 0.0834 0.0
H1723 H 0.46061 0.46213 0.12923 0.0
H1724 H 0.49223 0.49447 0.14051 0.0
H1725 H 0.45659 0.52572 0.14548 0.0
H1726 H 0.42488 0.49376 0.1336 0.0
H1727 H 0.32869 0.37857 0.1678 0.0
H1728 H 0.35958 0.39065 0.14542 0.0
H1729 H 0.36831 0.45299 0.14584 0.0
H1730 H 0.3383 0.44126 0.16913 0.0
H1731 H 0.40383 0.45594 0.15053 0.0
H1732 H 0.34686 0.4177 0.10199 0.0
H1733 H 0.3146 0.38729 0.08848 0.0
H1734 H 0.3456 0.35124 0.08637 0.0
H1735 H 0.37799 0.38138 0.10013 0.0
C1736 C 0.45924 0.48224 0.06372 0.0
C1737 C 0.4716 0.47299 0.06018 0.0
C1738 C 0.44287 0.47351 0.07822 0.0
C1739 C 0.43835 0.45519 0.08916 0.0
C1740 C 0.45049 0.44575 0.08556 0.0
C1741 C 0.4672 0.45476 0.07135 0.0
C1742 C 0.42076 0.44596 0.10422 0.0
C1743 C 0.40241 0.4277 0.0983 0.0
C1744 C 0.4213 0.45628 0.12323 0.0
C1745 C 0.4404 0.47558 0.13027 0.0
C1746 C 0.45957 0.47598 0.13243 0.0
C1747 C 0.47751 0.49425 0.13895 0.0
C1748 C 0.47645 0.51218 0.14359 0.0
C1749 C 0.45743 0.51187 0.14175 0.0
C1750 C 0.43947 0.49367 0.13511 0.0
C1751 C 0.33715 0.39481 0.16294 0.0
C1752 C 0.33069 0.40879 0.16976 0.0
C1753 C 0.35475 0.40169 0.1501 0.0
C1754 C 0.36607 0.42266 0.14353 0.0
C1755 C 0.35979 0.43671 0.15056 0.0
C1756 C 0.34246 0.42993 0.16372 0.0
C1757 C 0.38468 0.43017 0.12966 0.0
C1758 C 0.40329 0.44818 0.13577 0.0
C1759 C 0.38423 0.41985 0.11058 0.0
C1760 C 0.36477 0.40171 0.10232 0.0
C1761 C 0.34675 0.40323 0.09881 0.0
C1762 C 0.32845 0.38606 0.09107 0.0
C1763 C 0.32803 0.36732 0.08663 0.0
C1764 C 0.34593 0.36575 0.08986 0.0
C1765 C 0.36427 0.38287 0.09761 0.0
H1766 H 0.31385 0.35404 0.08064 0.0
H1767 H 0.49035 0.52629 0.14869 0.0
H1768 H 0.95927 0.42205 0.50463 0.0
H1769 H 0.94384 0.39077 0.52716 0.0
H1770 H 0.94325 0.4278 0.57978 0.0
H1771 H 0.95991 0.45911 0.55761 0.0
H1772 H 0.95917 0.40667 0.59261 0.0
H1773 H 0.89708 0.38839 0.5515 0.0
H1774 H 0.87617 0.3816 0.51878 0.0
H1775 H 0.88846 0.33246 0.50199 0.0
H1776 H 0.90966 0.33913 0.53449 0.0
H1777 H 0.90064 0.32595 0.66512 0.0
H1778 H 0.90973 0.35358 0.63883 0.0
H1779 H 0.92047 0.31725 0.59241 0.0
H1780 H 0.91117 0.28941 0.61866 0.0
H1781 H 0.89922 0.3366 0.5756 0.0
H1782 H 0.96097 0.35522 0.61729 0.0
H1783 H 0.98106 0.36178 0.65056 0.0
H1784 H 0.96825 0.41074 0.66663 0.0
H1785 H 0.94782 0.40425 0.6336 0.0
C1786 C 0.95538 0.42328 0.52089 0.0
C1787 C 0.96058 0.44279 0.52948 0.0
C1788 C 0.94651 0.40543 0.53376 0.0
C1789 C 0.94219 0.40681 0.55522 0.0
C1790 C 0.94651 0.42628 0.56337 0.0
C1791 C 0.95588 0.44413 0.5507 0.0
C1792 C 0.93489 0.38857 0.56977 0.0
C1793 C 0.9458 0.39148 0.58896 0.0
C1794 C 0.91792 0.36846 0.56483 0.0
C1795 C 0.90511 0.36439 0.54533 0.0
C1796 C 0.89544 0.37623 0.54075 0.0
C1797 C 0.88351 0.37239 0.52226 0.0
C1798 C 0.88103 0.35664 0.50829 0.0
C1799 C 0.89041 0.34467 0.51281 0.0
C1800 C 0.90237 0.34846 0.53128 0.0
C1801 C 0.90466 0.32375 0.64922 0.0
C1802 C 0.90499 0.30544 0.64386 0.0
C1803 C 0.90992 0.33955 0.63426 0.0
C1804 C 0.91588 0.33749 0.61372 0.0
C1805 C 0.91582 0.31908 0.60815 0.0
C1806 C 0.91056 0.30324 0.62314 0.0
C1807 C 0.92318 0.35504 0.59846 0.0
C1808 C 0.91245 0.35191 0.57915 0.0
C1809 C 0.94021 0.37504 0.60331 0.0
C1810 C 0.95272 0.37913 0.62306 0.0
C1811 C 0.96232 0.36729 0.62799 0.0
C1812 C 0.97378 0.37101 0.64679 0.0
C1813 C 0.97589 0.38664 0.66072 0.0
C1814 C 0.96659 0.39862 0.65584 0.0
C1815 C 0.95508 0.39495 0.63707 0.0
H1816 H 0.98477 0.38949 0.67527 0.0
H1817 H 0.87179 0.3537 0.49398 0.0
H1818 H 0.51598 0.95868 0.0573 0.0
H1819 H 0.53345 0.94363 0.07782 0.0
H1820 H 0.5853 0.00542 0.09009 0.0
H1821 H 0.56756 0.0207 0.06992 0.0
H1822 H 0.59502 0.97456 0.0714 0.0
H1823 H 0.55958 0.98344 0.12991 0.0
H1824 H 0.52954 0.981 0.14923 0.0
H1825 H 0.49784 0.91403 0.14494 0.0
H1826 H 0.52758 0.91607 0.12528 0.0
H1827 H 0.65481 0.93327 0.13827 0.0
H1828 H 0.63709 0.95696 0.11998 0.0
H1829 H 0.56526 0.894 0.12042 0.0
H1830 H 0.58107 0.86851 0.1386 0.0
H1831 H 0.56696 0.93018 0.13551 0.0
H1832 H 0.59908 0.92039 0.07494 0.0
H1833 H 0.62721 0.92102 0.05356 0.0
H1834 H 0.66324 0.98782 0.05965 0.0
H1835 H 0.63543 0.98756 0.08135 0.0
C1836 C 0.53096 0.96908 0.06463 0.0
C1837 C 0.54046 0.99084 0.06203 0.0
C1838 C 0.54088 0.96047 0.07638 0.0
C1839 C 0.56061 0.97344 0.08545 0.0
C1840 C 0.57002 0.99521 0.08323 0.0
C1841 C 0.55987 0.00389 0.07182 0.0
C1842 C 0.5718 0.96392 0.09593 0.0
C1843 C 0.58929 0.96533 0.08576 0.0
C1844 C 0.56372 0.95126 0.11416 0.0
C1845 C 0.54575 0.94992 0.12593 0.0
C1846 C 0.54612 0.96819 0.13289 0.0
C1847 C 0.52916 0.96688 0.14395 0.0
C1848 C 0.51177 0.94738 0.14826 0.0
C1849 C 0.51132 0.92913 0.14156 0.0
C1850 C 0.52823 0.93036 0.13048 0.0
C1851 C 0.63844 0.92573 0.13394 0.0
C1852 C 0.61914 0.89927 0.14388 0.0
C1853 C 0.62708 0.94056 0.12351 0.0
C1854 C 0.59917 0.92839 0.11937 0.0
C1855 C 0.58175 0.90085 0.12393 0.0
C1856 C 0.59153 0.88464 0.13431 0.0
C1857 C 0.59023 0.94089 0.11101 0.0
C1858 C 0.57302 0.93981 0.12143 0.0
C1859 C 0.59844 0.95371 0.09289 0.0
C1860 C 0.61531 0.95393 0.08005 0.0
C1861 C 0.6131 0.9352 0.07193 0.0
C1862 C 0.62897 0.93549 0.05971 0.0
C1863 C 0.64704 0.95444 0.05533 0.0
C1864 C 0.64926 0.97315 0.06312 0.0
C1865 C 0.63345 0.97294 0.07537 0.0
H1866 H 0.6593 0.95464 0.04584 0.0
H1867 H 0.49866 0.94639 0.15684 0.0
H1868 H 0.5743 0.4972 0.52698 0.0
H1869 H 0.60559 0.51208 0.54964 0.0
H1870 H 0.58767 0.55402 0.57754 0.0
H1871 H 0.55642 0.53924 0.55515 0.0
H1872 H 0.63036 0.57344 0.56685 0.0
H1873 H 0.57788 0.51167 0.60358 0.0
H1874 H 0.55227 0.47402 0.6064 0.0
H1875 H 0.60073 0.45935 0.59465 0.0
H1876 H 0.62658 0.49693 0.59145 0.0
H1877 H 0.69139 0.60856 0.66011 0.0
H1878 H 0.6638 0.59437 0.63322 0.0
H1879 H 0.67724 0.54492 0.62031 0.0
H1880 H 0.70365 0.55805 0.64823 0.0
H1881 H 0.63829 0.52879 0.62074 0.0
H1882 H 0.69152 0.58949 0.58589 0.0
H1883 H 0.71782 0.62675 0.58142 0.0
H1884 H 0.66995 0.64327 0.58713 0.0
H1885 H 0.6434 0.60613 0.59191 0.0
C1886 C 0.57709 0.50966 0.53787 0.0
C1887 C 0.56282 0.51696 0.53935 0.0
C1888 C 0.59493 0.51811 0.55081 0.0
C1889 C 0.59885 0.53407 0.56532 0.0
C1890 C 0.58493 0.54172 0.56643 0.0
C1891 C 0.56702 0.53317 0.55369 0.0
C1892 C 0.6171 0.54246 0.57987 0.0
C1893 C 0.6321 0.56377 0.57875 0.0
C1894 C 0.61961 0.52965 0.59491 0.0
C1895 C 0.60411 0.50708 0.59705 0.0
C1896 C 0.58304 0.5004 0.60143 0.0
C1897 C 0.56849 0.47908 0.60313 0.0
C1898 C 0.57486 0.4643 0.60065 0.0
C1899 C 0.59581 0.47081 0.59653 0.0
C1900 C 0.61042 0.49212 0.59479 0.0
C1901 C 0.68843 0.59465 0.65153 0.0
C1902 C 0.69985 0.58458 0.65635 0.0
C1903 C 0.6728 0.58666 0.63596 0.0
C1904 C 0.66865 0.56878 0.62431 0.0
C1905 C 0.68013 0.55877 0.62898 0.0
C1906 C 0.6954 0.56643 0.64493 0.0
C1907 C 0.65175 0.56 0.60796 0.0
C1908 C 0.63688 0.53856 0.60873 0.0
C1909 C 0.64956 0.57267 0.59236 0.0
C1910 C 0.66549 0.59503 0.58943 0.0
C1911 C 0.68662 0.60108 0.58633 0.0
C1912 C 0.70157 0.62218 0.58372 0.0
C1913 C 0.69557 0.63737 0.58403 0.0
C1914 C 0.67459 0.63149 0.5869 0.0
C1915 C 0.65958 0.61041 0.58954 0.0
H1916 H 0.70716 0.65369 0.58201 0.0
H1917 H 0.56357 0.4478 0.60196 0.0
H1918 H 0.04697 0.57038 0.02671 0.0
H1919 H 0.0594 0.6015 0.04875 0.0
H1920 H 0.03295 0.56251 0.10399 0.0
H1921 H 0.01929 0.53125 0.08158 0.0
H1922 H 0.02706 0.59328 0.10748 0.0
H1923 H 0.08766 0.58875 0.09108 0.0
H1924 H 0.1129 0.58545 0.06834 0.0
H1925 H 0.1277 0.64284 0.03688 0.0
H1926 H 0.10234 0.64634 0.05925 0.0
H1927 H 0.09106 0.67517 0.18067 0.0
H1928 H 0.0769 0.64341 0.15907 0.0
H1929 H 0.08508 0.67981 0.10267 0.0
H1930 H 0.09873 0.7116 0.12424 0.0
H1931 H 0.10071 0.6504 0.10095 0.0
H1932 H 0.03875 0.65351 0.11957 0.0
H1933 H 0.01479 0.65605 0.14485 0.0
H1934 H 0.00457 0.59976 0.17559 0.0
H1935 H 0.02873 0.59706 0.15067 0.0
C1936 C 0.04377 0.56848 0.04356 0.0
C1937 C 0.03235 0.54847 0.05252 0.0
C1938 C 0.05101 0.58627 0.05618 0.0
C1939 C 0.04767 0.58443 0.07818 0.0
C1940 C 0.03585 0.56438 0.08709 0.0
C1941 C 0.02808 0.54654 0.07432 0.0
C1942 C 0.05647 0.60342 0.0918 0.0
C1943 C 0.04326 0.60558 0.10622 0.0
C1944 C 0.07758 0.61969 0.09012 0.0
C1945 C 0.09296 0.61771 0.07673 0.0
C1946 C 0.09621 0.6006 0.07923 0.0
C1947 C 0.11054 0.5987 0.06641 0.0
C1948 C 0.12186 0.6139 0.05114 0.0
C1949 C 0.1189 0.63107 0.0487 0.0
C1950 C 0.10457 0.63303 0.06146 0.0
C1951 C 0.08963 0.67636 0.1637 0.0
C1952 C 0.0957 0.69583 0.15417 0.0
C1953 C 0.08162 0.65825 0.1514 0.0
C1954 C 0.07984 0.65931 0.12935 0.0
C1955 C 0.0863 0.67872 0.11971 0.0
C1956 C 0.09404 0.69682 0.13203 0.0
C1957 C 0.07125 0.64013 0.11633 0.0
C1958 C 0.08455 0.63798 0.10212 0.0
C1959 C 0.0504 0.6237 0.11856 0.0
C1960 C 0.0357 0.6252 0.13338 0.0
C1961 C 0.03153 0.64177 0.13182 0.0
C1962 C 0.01788 0.64322 0.14607 0.0
C1963 C 0.0082 0.6281 0.16185 0.0
C1964 C 0.01209 0.61147 0.16337 0.0
C1965 C 0.02575 0.60996 0.14918 0.0
H1966 H 0.99765 0.62926 0.17287 0.0
H1967 H 0.13294 0.6124 0.04123 0.0
loop_
_geom_bond_atom_site_label_1
_geom_bond_atom_site_label_2
_geom_bond_distance
_geom_bond_site_symmetry_2
_ccdc_geom_bond_type
C0 O2 1.247 . S
C0 O4 1.258 . S
C1 O8 1.247 . S
C1 O9 1.258 1_455 S
O2 C0 1.247 . S
O2 Zn3 2.028 . S
Zn3 O2 2.028 . S
Zn3 O7 2.035 1_454 S
Zn3 O9 2.035 1_454 S
Zn3 O10 2.028 . S
O4 C0 1.258 . S
O4 Zn5 2.035 1_554 S
Zn5 O4 2.035 1_556 S
Zn5 O6 2.028 . S
Zn5 O8 2.028 . S
Zn5 O11 2.035 1_556 S
O6 Zn5 2.028 . S
O6 C12 1.247 . S
O7 Zn3 2.035 1_656 S
O7 C12 1.258 1_655 S
O8 C1 1.247 . S
O8 Zn5 2.028 . S
O9 C1 1.258 1_655 S
O9 Zn3 2.035 1_656 S
O10 Zn3 2.028 . S
O10 C13 1.247 . S
O11 Zn5 2.035 1_554 S
O11 C13 1.258 . S
C12 O6 1.247 . S
C12 O7 1.258 1_455 S
C13 O10 1.247 . S
C13 O11 1.258 . S
C14 O16 1.247 . S
C14 O18 1.258 . S
C15 O22 1.247 1_565 S
C15 O23 1.258 . S
O16 C14 1.247 . S
O16 Zn17 2.028 1_545 S
Zn17 O16 2.028 1_565 S
Zn17 O21 2.035 . S
Zn17 O23 2.035 . S
Zn17 O24 2.028 1_565 S
O18 C14 1.258 . S
O18 Zn19 2.035 . S
Zn19 O18 2.035 . S
Zn19 O20 2.028 . S
Zn19 O22 2.028 . S
Zn19 O25 2.035 . S
O20 Zn19 2.028 . S
O20 C26 1.247 1_545 S
O21 Zn17 2.035 . S
O21 C26 1.258 . S
O22 C15 1.247 1_545 S
O22 Zn19 2.028 . S
O23 C15 1.258 . S
O23 Zn17 2.035 . S
O24 Zn17 2.028 1_545 S
O24 C27 1.247 . S
O25 Zn19 2.035 . S
O25 C27 1.258 . S
C26 O20 1.247 1_565 S
C26 O21 1.258 . S
C27 O24 1.247 . S
C27 O25 1.258 . S
C28 O30 1.247 . S
C28 O32 1.258 1_556 S
C29 O36 1.247 . S
C29 O37 1.258 . S
O30 C28 1.247 . S
O30 Zn31 2.028 1_556 S
Zn31 O30 2.028 1_554 S
Zn31 O35 2.035 . S
Zn31 O37 2.035 . S
Zn31 O38 2.028 1_554 S
O32 C28 1.258 1_554 S
O32 Zn33 2.035 . S
Zn33 O32 2.035 . S
Zn33 O34 2.028 . S
Zn33 O36 2.028 . S
Zn33 O39 2.035 . S
O34 Zn33 2.028 . S
O34 C40 1.247 . S
O35 Zn31 2.035 . S
O35 C40 1.258 . S
O36 C29 1.247 . S
O36 Zn33 2.028 . S
O37 C29 1.258 . S
O37 Zn31 2.035 . S
O38 Zn31 2.028 1_556 S
O38 C41 1.247 . S
O39 Zn33 2.035 . S
O39 C41 1.258 1_554 S
C40 O34 1.247 . S
C40 O35 1.258 . S
C41 O38 1.247 . S
C41 O39 1.258 1_556 S
C42 O44 1.247 . S
C42 O46 1.258 . S
C43 O50 1.247 . S
C43 O51 1.258 1_655 S
O44 C42 1.247 . S
O44 Zn45 2.028 . S
Zn45 O44 2.028 . S
Zn45 O49 2.035 . S
Zn45 O51 2.035 . S
Zn45 O52 2.028 . S
O46 C42 1.258 . S
O46 Zn47 2.035 1_455 S
Zn47 O46 2.035 1_655 S
Zn47 O48 2.028 . S
Zn47 O50 2.028 . S
Zn47 O53 2.035 1_655 S
O48 Zn47 2.028 . S
O48 C54 1.247 . S
O49 Zn45 2.035 . S
O49 C54 1.258 1_455 S
O50 C43 1.247 . S
O50 Zn47 2.028 . S
O51 C43 1.258 1_455 S
O51 Zn45 2.035 . S
O52 Zn45 2.028 . S
O52 C55 1.247 . S
O53 Zn47 2.035 1_455 S
O53 C55 1.258 . S
C54 O48 1.247 . S
C54 O49 1.258 1_655 S
C55 O52 1.247 . S
C55 O53 1.258 . S
C56 O58 1.247 1_565 S
C56 O60 1.258 . S
C57 O64 1.247 . S
C57 O65 1.258 1_556 S
O58 C56 1.247 1_545 S
O58 Zn59 2.028 . S
Zn59 O58 2.028 . S
Zn59 O63 2.035 . S
Zn59 O65 2.035 . S
Zn59 O66 2.028 . S
O60 C56 1.258 . S
O60 Zn61 2.035 . S
Zn61 O60 2.035 . S
Zn61 O62 2.028 1_564 S
Zn61 O64 2.028 1_564 S
Zn61 O67 2.035 . S
O62 Zn61 2.028 1_546 S
O62 C68 1.247 . S
O63 Zn59 2.035 . S
O63 C68 1.258 1_554 S
O64 C57 1.247 . S
O64 Zn61 2.028 1_546 S
O65 C57 1.258 1_554 S
O65 Zn59 2.035 . S
O66 Zn59 2.028 . S
O66 C69 1.247 1_545 S
O67 Zn61 2.035 . S
O67 C69 1.258 . S
C68 O62 1.247 . S
C68 O63 1.258 1_556 S
C69 O66 1.247 1_565 S
C69 O67 1.258 . S
C70 O72 1.247 . S
C70 O74 1.258 . S
C71 O78 1.247 . S
C71 O79 1.258 . S
O72 C70 1.247 . S
O72 Zn73 2.028 . S
Zn73 O72 2.028 . S
Zn73 O77 2.035 . S
Zn73 O79 2.035 . S
Zn73 O80 2.028 . S
O74 C70 1.258 . S
O74 Zn75 2.035 . S
Zn75 O74 2.035 . S
Zn75 O76 2.028 . S
Zn75 O78 2.028 . S
Zn75 O81 2.035 . S
O76 Zn75 2.028 . S
O76 C82 1.247 . S
O77 Zn73 2.035 . S
O77 C82 1.258 . S
O78 C71 1.247 . S
O78 Zn75 2.028 . S
O79 C71 1.258 . S
O79 Zn73 2.035 . S
O80 Zn73 2.028 . S
O80 C83 1.247 . S
O81 Zn75 2.035 . S
O81 C83 1.258 . S
C82 O76 1.247 . S
C82 O77 1.258 . S
C83 O80 1.247 . S
C83 O81 1.258 . S
C84 C85 1.560 . S
C84 H145 0.959 . S
C84 H146 0.959 . S
C84 H147 0.960 . S
C85 C84 1.560 . S
C85 O140 1.426 . S
C85 H144 0.980 . S
C86 C87 1.407 . S
C86 C91 1.418 . S
C86 O140 1.334 . S
C87 C86 1.407 . S
C87 C88 1.360 . S
C87 H148 0.929 . S
C88 C87 1.360 . S
C88 C89 1.401 . S
C88 C92 1.527 . S
C89 C88 1.401 . S
C89 C90 1.405 . S
C89 C122 1.587 . S
C90 C89 1.405 . S
C90 C91 1.332 . S
C90 C93 1.496 . S
C91 C86 1.418 . S
C91 C90 1.332 . S
C91 H149 0.929 . S
C92 C88 1.527 . S
C92 H150 0.959 . S
C92 H151 0.961 . S
C92 H152 0.961 . S
C93 C90 1.496 . S
C93 H153 0.960 . S
C93 H154 0.960 . S
C93 H155 0.961 . S
C94 C95 1.517 . S
C94 H157 0.961 . S
C94 H158 0.960 . S
C94 H159 0.959 . S
C95 C94 1.517 . S
C95 O143 1.468 . S
C95 H156 0.980 . S
C96 C97 1.349 . S
C96 C101 1.367 . S
C96 O143 1.408 . S
C97 C96 1.349 . S
C97 C98 1.407 . S
C97 H160 0.930 . S
C98 C97 1.407 . S
C98 C99 1.449 . S
C98 C102 1.535 . S
C99 C98 1.449 . S
C99 C100 1.384 . S
C99 C124 1.553 . S
C100 C99 1.384 . S
C100 C101 1.364 . S
C100 C103 1.450 . S
C101 C96 1.367 . S
C101 C100 1.364 . S
C101 H161 0.931 . S
C102 C98 1.535 . S
C102 H162 0.959 . S
C102 H163 0.961 . S
C102 H164 0.959 . S
C103 C100 1.450 . S
C103 H165 0.960 . S
C103 H166 0.960 . S
C103 H167 0.960 . S
C104 C105 1.309 . S
C104 C109 1.304 . S
C104 O142 1.435 . S
C105 C104 1.309 . S
C105 C106 1.476 . S
C105 H169 0.930 . S
C106 C105 1.476 . S
C106 C107 1.400 . S
C106 C110 1.567 . S
C107 C106 1.400 . S
C107 C108 1.373 . S
C107 C129 1.432 . S
C108 C107 1.373 . S
C108 C109 1.339 . S
C108 C111 1.530 . S
C109 C104 1.304 . S
C109 C108 1.339 . S
C109 H170 0.930 . S
C110 C106 1.567 . S
C110 H171 0.961 . S
C110 H172 0.960 . S
C110 H173 0.958 . S
C111 C108 1.530 . S
C111 H174 0.961 . S
C111 H175 0.960 . S
C111 H176 0.960 . S
C112 C113 1.530 . S
C112 H178 0.961 . S
C112 H179 0.961 . S
C112 H180 0.959 . S
C113 C112 1.530 . S
C113 O141 1.412 . S
C113 H177 0.980 . S
C114 C115 1.288 . S
C114 C119 1.377 . S
C114 O141 1.393 . S
C115 C114 1.288 . S
C115 C116 1.369 . S
C115 H181 0.932 . S
C116 C115 1.369 . S
C116 C117 1.398 . S
C116 C120 1.527 . S
C117 C116 1.398 . S
C117 C118 1.380 . S
C117 C131 1.497 . S
C118 C117 1.380 . S
C118 C119 1.383 . S
C118 C121 1.603 . S
C119 C114 1.377 . S
C119 C118 1.383 . S
C119 H182 0.929 . S
C120 C116 1.527 . S
C120 H183 0.961 . S
C120 H184 0.959 . S
C120 H185 0.959 . S
C121 C118 1.603 . S
C121 H186 0.960 . S
C121 H187 0.962 . S
C121 H188 0.961 . S
C122 C89 1.587 . S
C122 C123 1.360 . S
C122 C135 1.412 . S
C123 C122 1.360 . S
C123 C124 1.365 . S
C123 H189 0.929 . S
C124 C99 1.553 . S
C124 C123 1.365 . S
C124 C125 1.404 . S
C125 C124 1.404 . S
C125 C126 1.395 . S
C125 C136 1.451 . S
C126 C125 1.395 . S
C126 C127 1.322 . S
C126 H190 0.930 . S
C127 C126 1.322 . S
C127 C128 1.459 . S
C127 H191 0.929 . S
C128 C127 1.459 . S
C128 C129 1.445 . S
C128 C137 1.395 . S
C129 C107 1.432 . S
C129 C128 1.445 . S
C129 C130 1.370 . S
C130 C129 1.370 . S
C130 C131 1.438 . S
C130 H192 0.930 . S
C131 C117 1.497 . S
C131 C130 1.438 . S
C131 C132 1.360 . S
C132 C131 1.360 . S
C132 C133 1.401 . S
C132 C137 1.446 . S
C133 C132 1.401 . S
C133 C134 1.347 . S
C133 H193 0.929 . S
C134 C133 1.347 . S
C134 C135 1.455 . S
C134 H194 0.930 . S
C135 C122 1.412 . S
C135 C134 1.455 . S
C135 C136 1.331 . S
C136 C125 1.451 . S
C136 C135 1.331 . S
C136 C137 1.497 . S
C137 C128 1.395 . S
C137 C132 1.446 . S
C137 C136 1.497 . S
C138 C139 1.582 . S
C138 H195 0.962 . S
C138 H196 0.959 . S
C138 H197 0.958 . S
C139 C138 1.582 . S
C139 O142 1.458 . S
C139 H168 0.980 . S
O140 C85 1.426 . S
O140 C86 1.334 . S
O141 C113 1.412 . S
O141 C114 1.393 . S
O142 C104 1.435 . S
O142 C139 1.458 . S
O143 C95 1.468 . S
O143 C96 1.408 . S
H144 C85 0.980 . S
H145 C84 0.959 . S
H146 C84 0.959 . S
H147 C84 0.960 . S
H148 C87 0.929 . S
H149 C91 0.929 . S
H150 C92 0.959 . S
H151 C92 0.961 . S
H152 C92 0.961 . S
H153 C93 0.960 . S
H154 C93 0.960 . S
H155 C93 0.961 . S
H156 C95 0.980 . S
H157 C94 0.961 . S
H158 C94 0.960 . S
H159 C94 0.959 . S
H160 C97 0.930 . S
H161 C101 0.931 . S
H162 C102 0.959 . S
H163 C102 0.961 . S
H164 C102 0.959 . S
H165 C103 0.960 . S
H166 C103 0.960 . S
H167 C103 0.960 . S
H168 C139 0.980 . S
H169 C105 0.930 . S
H170 C109 0.930 . S
H171 C110 0.961 . S
H172 C110 0.960 . S
H173 C110 0.958 . S
H174 C111 0.961 . S
H175 C111 0.960 . S
H176 C111 0.960 . S
H177 C113 0.980 . S
H178 C112 0.961 . S
H179 C112 0.961 . S
H180 C112 0.959 . S
H181 C115 0.932 . S
H182 C119 0.929 . S
H183 C120 0.961 . S
H184 C120 0.959 . S
H185 C120 0.959 . S
H186 C121 0.960 . S
H187 C121 0.962 . S
H188 C121 0.961 . S
H189 C123 0.929 . S
H190 C126 0.930 . S
H191 C127 0.929 . S
H192 C130 0.930 . S
H193 C133 0.929 . S
H194 C134 0.930 . S
H195 C138 0.962 . S
H196 C138 0.959 . S
H197 C138 0.958 . S
C198 C199 1.560 . S
C198 H259 0.959 . S
C198 H260 0.959 . S
C198 H261 0.960 . S
C199 C198 1.560 . S
C199 O254 1.426 . S
C199 H258 0.980 . S
C200 C201 1.407 . S
C200 C205 1.418 . S
C200 O254 1.334 . S
C201 C200 1.407 . S
C201 C202 1.360 . S
C201 H262 0.929 . S
C202 C201 1.360 . S
C202 C203 1.401 . S
C202 C206 1.527 . S
C203 C202 1.401 . S
C203 C204 1.405 . S
C203 C236 1.587 . S
C204 C203 1.405 . S
C204 C205 1.332 . S
C204 C207 1.496 . S
C205 C200 1.418 . S
C205 C204 1.332 . S
C205 H263 0.929 . S
C206 C202 1.527 . S
C206 H264 0.959 . S
C206 H265 0.961 . S
C206 H266 0.961 . S
C207 C204 1.496 . S
C207 H267 0.960 . S
C207 H268 0.960 . S
C207 H269 0.961 . S
C208 C209 1.517 . S
C208 H271 0.961 . S
C208 H272 0.960 . S
C208 H273 0.959 . S
C209 C208 1.517 . S
C209 O257 1.468 . S
C209 H270 0.980 . S
C210 C211 1.349 . S
C210 C215 1.367 . S
C210 O257 1.408 . S
C211 C210 1.349 . S
C211 C212 1.407 . S
C211 H274 0.930 . S
C212 C211 1.407 . S
C212 C213 1.449 . S
C212 C216 1.535 . S
C213 C212 1.449 . S
C213 C214 1.384 . S
C213 C238 1.553 . S
C214 C213 1.384 . S
C214 C215 1.364 . S
C214 C217 1.450 . S
C215 C210 1.367 . S
C215 C214 1.364 . S
C215 H275 0.931 . S
C216 C212 1.535 . S
C216 H276 0.959 . S
C216 H277 0.961 . S
C216 H278 0.959 . S
C217 C214 1.450 . S
C217 H279 0.960 . S
C217 H280 0.960 . S
C217 H281 0.960 . S
C218 C219 1.309 . S
C218 C223 1.304 . S
C218 O256 1.435 . S
C219 C218 1.309 . S
C219 C220 1.476 . S
C219 H283 0.930 . S
C220 C219 1.476 . S
C220 C221 1.400 . S
C220 C224 1.567 . S
C221 C220 1.400 . S
C221 C222 1.373 . S
C221 C243 1.432 . S
C222 C221 1.373 . S
C222 C223 1.339 . S
C222 C225 1.530 . S
C223 C218 1.304 . S
C223 C222 1.339 . S
C223 H284 0.930 . S
C224 C220 1.567 . S
C224 H285 0.961 . S
C224 H286 0.960 . S
C224 H287 0.958 . S
C225 C222 1.530 . S
C225 H288 0.961 . S
C225 H289 0.960 . S
C225 H290 0.960 . S
C226 C227 1.530 . S
C226 H292 0.961 . S
C226 H293 0.961 . S
C226 H294 0.959 . S
C227 C226 1.530 . S
C227 O255 1.412 . S
C227 H291 0.980 . S
C228 C229 1.288 . S
C228 C233 1.377 . S
C228 O255 1.393 . S
C229 C228 1.288 . S
C229 C230 1.369 . S
C229 H295 0.932 . S
C230 C229 1.369 . S
C230 C231 1.398 . S
C230 C234 1.527 . S
C231 C230 1.398 . S
C231 C232 1.380 . S
C231 C245 1.497 . S
C232 C231 1.380 . S
C232 C233 1.383 . S
C232 C235 1.603 . S
C233 C228 1.377 . S
C233 C232 1.383 . S
C233 H296 0.929 . S
C234 C230 1.527 . S
C234 H297 0.961 . S
C234 H298 0.959 . S
C234 H299 0.959 . S
C235 C232 1.603 . S
C235 H300 0.960 . S
C235 H301 0.962 . S
C235 H302 0.961 . S
C236 C203 1.587 . S
C236 C237 1.360 . S
C236 C249 1.412 . S
C237 C236 1.360 . S
C237 C238 1.365 . S
C237 H303 0.929 . S
C238 C213 1.553 . S
C238 C237 1.365 . S
C238 C239 1.404 . S
C239 C238 1.404 . S
C239 C240 1.395 . S
C239 C250 1.451 . S
C240 C239 1.395 . S
C240 C241 1.322 . S
C240 H304 0.930 . S
C241 C240 1.322 . S
C241 C242 1.459 . S
C241 H305 0.929 . S
C242 C241 1.459 . S
C242 C243 1.445 . S
C242 C251 1.395 . S
C243 C221 1.432 . S
C243 C242 1.445 . S
C243 C244 1.370 . S
C244 C243 1.370 . S
C244 C245 1.438 . S
C244 H306 0.930 . S
C245 C231 1.497 . S
C245 C244 1.438 . S
C245 C246 1.360 . S
C246 C245 1.360 . S
C246 C247 1.401 . S
C246 C251 1.446 . S
C247 C246 1.401 . S
C247 C248 1.347 . S
C247 H307 0.929 . S
C248 C247 1.347 . S
C248 C249 1.455 . S
C248 H308 0.930 . S
C249 C236 1.412 . S
C249 C248 1.455 . S
C249 C250 1.331 . S
C250 C239 1.451 . S
C250 C249 1.331 . S
C250 C251 1.497 . S
C251 C242 1.395 . S
C251 C246 1.446 . S
C251 C250 1.497 . S
C252 C253 1.582 . S
C252 H309 0.962 . S
C252 H310 0.959 . S
C252 H311 0.958 . S
C253 C252 1.582 . S
C253 O256 1.458 . S
C253 H282 0.980 . S
O254 C199 1.426 . S
O254 C200 1.334 . S
O255 C227 1.412 . S
O255 C228 1.393 . S
O256 C218 1.435 . S
O256 C253 1.458 . S
O257 C209 1.468 . S
O257 C210 1.408 . S
H258 C199 0.980 . S
H259 C198 0.959 . S
H260 C198 0.959 . S
H261 C198 0.960 . S
H262 C201 0.929 . S
H263 C205 0.929 . S
H264 C206 0.959 . S
H265 C206 0.961 . S
H266 C206 0.961 . S
H267 C207 0.960 . S
H268 C207 0.960 . S
H269 C207 0.961 . S
H270 C209 0.980 . S
H271 C208 0.961 . S
H272 C208 0.960 . S
H273 C208 0.959 . S
H274 C211 0.930 . S
H275 C215 0.931 . S
H276 C216 0.959 . S
H277 C216 0.961 . S
H278 C216 0.959 . S
H279 C217 0.960 . S
H280 C217 0.960 . S
H281 C217 0.960 . S
H282 C253 0.980 . S
H283 C219 0.930 . S
H284 C223 0.930 . S
H285 C224 0.961 . S
H286 C224 0.960 . S
H287 C224 0.958 . S
H288 C225 0.961 . S
H289 C225 0.960 . S
H290 C225 0.960 . S
H291 C227 0.980 . S
H292 C226 0.961 . S
H293 C226 0.961 . S
H294 C226 0.959 . S
H295 C229 0.932 . S
H296 C233 0.929 . S
H297 C234 0.961 . S
H298 C234 0.959 . S
H299 C234 0.959 . S
H300 C235 0.960 . S
H301 C235 0.962 . S
H302 C235 0.961 . S
H303 C237 0.929 . S
H304 C240 0.930 . S
H305 C241 0.929 . S
H306 C244 0.930 . S
H307 C247 0.929 . S
H308 C248 0.930 . S
H309 C252 0.962 . S
H310 C252 0.959 . S
H311 C252 0.958 . S
C312 C313 1.560 . S
C312 H373 0.959 . S
C312 H374 0.959 . S
C312 H375 0.960 . S
C313 C312 1.560 . S
C313 O368 1.426 . S
C313 H372 0.980 . S
C314 C315 1.407 . S
C314 C319 1.418 . S
C314 O368 1.334 . S
C315 C314 1.407 . S
C315 C316 1.360 . S
C315 H376 0.929 . S
C316 C315 1.360 . S
C316 C317 1.401 . S
C316 C320 1.527 . S
C317 C316 1.401 . S
C317 C318 1.405 . S
C317 C350 1.587 . S
C318 C317 1.405 . S
C318 C319 1.332 . S
C318 C321 1.496 . S
C319 C314 1.418 . S
C319 C318 1.332 . S
C319 H377 0.929 . S
C320 C316 1.527 . S
C320 H378 0.959 . S
C320 H379 0.961 . S
C320 H380 0.961 . S
C321 C318 1.496 . S
C321 H381 0.960 . S
C321 H382 0.960 . S
C321 H383 0.961 . S
C322 C323 1.517 . S
C322 H385 0.961 . S
C322 H386 0.960 . S
C322 H387 0.959 . S
C323 C322 1.517 . S
C323 O371 1.468 . S
C323 H384 0.980 . S
C324 C325 1.349 . S
C324 C329 1.367 . S
C324 O371 1.408 . S
C325 C324 1.349 . S
C325 C326 1.407 . S
C325 H388 0.930 . S
C326 C325 1.407 . S
C326 C327 1.449 . S
C326 C330 1.535 . S
C327 C326 1.449 . S
C327 C328 1.384 . S
C327 C352 1.553 . S
C328 C327 1.384 . S
C328 C329 1.364 . S
C328 C331 1.450 . S
C329 C324 1.367 . S
C329 C328 1.364 . S
C329 H389 0.931 . S
C330 C326 1.535 . S
C330 H390 0.959 . S
C330 H391 0.961 . S
C330 H392 0.959 . S
C331 C328 1.450 . S
C331 H393 0.960 . S
C331 H394 0.960 . S
C331 H395 0.960 . S
C332 C333 1.309 . S
C332 C337 1.304 . S
C332 O370 1.435 . S
C333 C332 1.309 . S
C333 C334 1.476 . S
C333 H397 0.930 . S
C334 C333 1.476 . S
C334 C335 1.400 . S
C334 C338 1.567 . S
C335 C334 1.400 . S
C335 C336 1.373 . S
C335 C357 1.432 . S
C336 C335 1.373 . S
C336 C337 1.339 . S
C336 C339 1.530 . S
C337 C332 1.304 . S
C337 C336 1.339 . S
C337 H398 0.930 . S
C338 C334 1.567 . S
C338 H399 0.961 . S
C338 H400 0.960 . S
C338 H401 0.958 . S
C339 C336 1.530 . S
C339 H402 0.961 . S
C339 H403 0.960 . S
C339 H404 0.960 . S
C340 C341 1.530 . S
C340 H406 0.961 . S
C340 H407 0.961 . S
C340 H408 0.959 . S
C341 C340 1.530 . S
C341 O369 1.412 . S
C341 H405 0.980 . S
C342 C343 1.288 . S
C342 C347 1.377 . S
C342 O369 1.393 . S
C343 C342 1.288 . S
C343 C344 1.369 . S
C343 H409 0.932 . S
C344 C343 1.369 . S
C344 C345 1.398 . S
C344 C348 1.527 . S
C345 C344 1.398 . S
C345 C346 1.380 . S
C345 C359 1.497 . S
C346 C345 1.380 . S
C346 C347 1.383 . S
C346 C349 1.603 . S
C347 C342 1.377 . S
C347 C346 1.383 . S
C347 H410 0.929 . S
C348 C344 1.527 . S
C348 H411 0.961 . S
C348 H412 0.959 . S
C348 H413 0.959 . S
C349 C346 1.603 . S
C349 H414 0.960 . S
C349 H415 0.962 . S
C349 H416 0.961 . S
C350 C317 1.587 . S
C350 C351 1.360 . S
C350 C363 1.412 . S
C351 C350 1.360 . S
C351 C352 1.365 . S
C351 H417 0.929 . S
C352 C327 1.553 . S
C352 C351 1.365 . S
C352 C353 1.404 . S
C353 C352 1.404 . S
C353 C354 1.395 . S
C353 C364 1.451 . S
C354 C353 1.395 . S
C354 C355 1.322 . S
C354 H418 0.930 . S
C355 C354 1.322 . S
C355 C356 1.459 . S
C355 H419 0.929 . S
C356 C355 1.459 . S
C356 C357 1.445 . S
C356 C365 1.395 . S
C357 C335 1.432 . S
C357 C356 1.445 . S
C357 C358 1.370 . S
C358 C357 1.370 . S
C358 C359 1.438 . S
C358 H420 0.930 . S
C359 C345 1.497 . S
C359 C358 1.438 . S
C359 C360 1.360 . S
C360 C359 1.360 . S
C360 C361 1.401 . S
C360 C365 1.446 . S
C361 C360 1.401 . S
C361 C362 1.347 . S
C361 H421 0.929 . S
C362 C361 1.347 . S
C362 C363 1.455 . S
C362 H422 0.930 . S
C363 C350 1.412 . S
C363 C362 1.455 . S
C363 C364 1.331 . S
C364 C353 1.451 . S
C364 C363 1.331 . S
C364 C365 1.497 . S
C365 C356 1.395 . S
C365 C360 1.446 . S
C365 C364 1.497 . S
C366 C367 1.582 . S
C366 H423 0.962 . S
C366 H424 0.959 . S
C366 H425 0.958 . S
C367 C366 1.582 . S
C367 O370 1.458 . S
C367 H396 0.980 . S
O368 C313 1.426 . S
O368 C314 1.334 . S
O369 C341 1.412 . S
O369 C342 1.393 . S
O370 C332 1.435 . S
O370 C367 1.458 . S
O371 C323 1.468 . S
O371 C324 1.408 . S
H372 C313 0.980 . S
H373 C312 0.959 . S
H374 C312 0.959 . S
H375 C312 0.960 . S
H376 C315 0.929 . S
H377 C319 0.929 . S
H378 C320 0.959 . S
H379 C320 0.961 . S
H380 C320 0.961 . S
H381 C321 0.960 . S
H382 C321 0.960 . S
H383 C321 0.961 . S
H384 C323 0.980 . S
H385 C322 0.961 . S
H386 C322 0.960 . S
H387 C322 0.959 . S
H388 C325 0.930 . S
H389 C329 0.931 . S
H390 C330 0.959 . S
H391 C330 0.961 . S
H392 C330 0.959 . S
H393 C331 0.960 . S
H394 C331 0.960 . S
H395 C331 0.960 . S
H396 C367 0.980 . S
H397 C333 0.930 . S
H398 C337 0.930 . S
H399 C338 0.961 . S
H400 C338 0.960 . S
H401 C338 0.958 . S
H402 C339 0.961 . S
H403 C339 0.960 . S
H404 C339 0.960 . S
H405 C341 0.980 . S
H406 C340 0.961 . S
H407 C340 0.961 . S
H408 C340 0.959 . S
H409 C343 0.932 . S
H410 C347 0.929 . S
H411 C348 0.961 . S
H412 C348 0.959 . S
H413 C348 0.959 . S
H414 C349 0.960 . S
H415 C349 0.962 . S
H416 C349 0.961 . S
H417 C351 0.929 . S
H418 C354 0.930 . S
H419 C355 0.929 . S
H420 C358 0.930 . S
H421 C361 0.929 . S
H422 C362 0.930 . S
H423 C366 0.962 . S
H424 C366 0.959 . S
H425 C366 0.958 . S
C426 C427 1.560 . S
C426 H487 0.959 . S
C426 H488 0.959 . S
C426 H489 0.960 . S
C427 C426 1.560 . S
C427 O482 1.426 . S
C427 H486 0.980 . S
C428 C429 1.407 . S
C428 C433 1.418 . S
C428 O482 1.334 . S
C429 C428 1.407 . S
C429 C430 1.360 . S
C429 H490 0.929 . S
C430 C429 1.360 . S
C430 C431 1.401 . S
C430 C434 1.527 . S
C431 C430 1.401 . S
C431 C432 1.405 . S
C431 C464 1.587 . S
C432 C431 1.405 . S
C432 C433 1.332 . S
C432 C435 1.496 . S
C433 C428 1.418 . S
C433 C432 1.332 . S
C433 H491 0.929 . S
C434 C430 1.527 . S
C434 H492 0.959 . S
C434 H493 0.961 . S
C434 H494 0.961 . S
C435 C432 1.496 . S
C435 H495 0.960 . S
C435 H496 0.960 . S
C435 H497 0.961 . S
C436 C437 1.517 . S
C436 H499 0.961 . S
C436 H500 0.960 . S
C436 H501 0.959 . S
C437 C436 1.517 . S
C437 O485 1.468 . S
C437 H498 0.980 . S
C438 C439 1.349 . S
C438 C443 1.367 . S
C438 O485 1.408 . S
C439 C438 1.349 . S
C439 C440 1.407 . S
C439 H502 0.930 . S
C440 C439 1.407 . S
C440 C441 1.449 . S
C440 C444 1.535 . S
C441 C440 1.449 . S
C441 C442 1.384 . S
C441 C466 1.553 . S
C442 C441 1.384 . S
C442 C443 1.364 . S
C442 C445 1.450 . S
C443 C438 1.367 . S
C443 C442 1.364 . S
C443 H503 0.931 . S
C444 C440 1.535 . S
C444 H504 0.959 . S
C444 H505 0.961 . S
C444 H506 0.959 . S
C445 C442 1.450 . S
C445 H507 0.960 . S
C445 H508 0.960 . S
C445 H509 0.960 . S
C446 C447 1.309 . S
C446 C451 1.304 . S
C446 O484 1.435 . S
C447 C446 1.309 . S
C447 C448 1.476 . S
C447 H511 0.930 . S
C448 C447 1.476 . S
C448 C449 1.400 . S
C448 C452 1.567 . S
C449 C448 1.400 . S
C449 C450 1.373 . S
C449 C471 1.432 . S
C450 C449 1.373 . S
C450 C451 1.339 . S
C450 C453 1.530 . S
C451 C446 1.304 . S
C451 C450 1.339 . S
C451 H512 0.930 . S
C452 C448 1.567 . S
C452 H513 0.961 . S
C452 H514 0.960 . S
C452 H515 0.958 . S
C453 C450 1.530 . S
C453 H516 0.961 . S
C453 H517 0.960 . S
C453 H518 0.960 . S
C454 C455 1.530 . S
C454 H520 0.961 . S
C454 H521 0.961 . S
C454 H522 0.959 . S
C455 C454 1.530 . S
C455 O483 1.412 . S
C455 H519 0.980 . S
C456 C457 1.288 . S
C456 C461 1.377 . S
C456 O483 1.393 . S
C457 C456 1.288 . S
C457 C458 1.369 . S
C457 H523 0.932 . S
C458 C457 1.369 . S
C458 C459 1.398 . S
C458 C462 1.527 . S
C459 C458 1.398 . S
C459 C460 1.380 . S
C459 C473 1.497 . S
C460 C459 1.380 . S
C460 C461 1.383 . S
C460 C463 1.603 . S
C461 C456 1.377 . S
C461 C460 1.383 . S
C461 H524 0.929 . S
C462 C458 1.527 . S
C462 H525 0.961 . S
C462 H526 0.959 . S
C462 H527 0.959 . S
C463 C460 1.603 . S
C463 H528 0.960 . S
C463 H529 0.962 . S
C463 H530 0.961 . S
C464 C431 1.587 . S
C464 C465 1.360 . S
C464 C477 1.412 . S
C465 C464 1.360 . S
C465 C466 1.365 . S
C465 H531 0.929 . S
C466 C441 1.553 . S
C466 C465 1.365 . S
C466 C467 1.404 . S
C467 C466 1.404 . S
C467 C468 1.395 . S
C467 C478 1.451 . S
C468 C467 1.395 . S
C468 C469 1.322 . S
C468 H532 0.930 . S
C469 C468 1.322 . S
C469 C470 1.459 . S
C469 H533 0.929 . S
C470 C469 1.459 . S
C470 C471 1.445 . S
C470 C479 1.395 . S
C471 C449 1.432 . S
C471 C470 1.445 . S
C471 C472 1.370 . S
C472 C471 1.370 . S
C472 C473 1.438 . S
C472 H534 0.930 . S
C473 C459 1.497 . S
C473 C472 1.438 . S
C473 C474 1.360 . S
C474 C473 1.360 . S
C474 C475 1.401 . S
C474 C479 1.446 . S
C475 C474 1.401 . S
C475 C476 1.347 . S
C475 H535 0.929 . S
C476 C475 1.347 . S
C476 C477 1.455 . S
C476 H536 0.930 . S
C477 C464 1.412 . S
C477 C476 1.455 . S
C477 C478 1.331 . S
C478 C467 1.451 . S
C478 C477 1.331 . S
C478 C479 1.497 . S
C479 C470 1.395 . S
C479 C474 1.446 . S
C479 C478 1.497 . S
C480 C481 1.582 . S
C480 H537 0.962 . S
C480 H538 0.959 . S
C480 H539 0.958 . S
C481 C480 1.582 . S
C481 O484 1.458 . S
C481 H510 0.980 . S
O482 C427 1.426 . S
O482 C428 1.334 . S
O483 C455 1.412 . S
O483 C456 1.393 . S
O484 C446 1.435 . S
O484 C481 1.458 . S
O485 C437 1.468 . S
O485 C438 1.408 . S
H486 C427 0.980 . S
H487 C426 0.959 . S
H488 C426 0.959 . S
H489 C426 0.960 . S
H490 C429 0.929 . S
H491 C433 0.929 . S
H492 C434 0.959 . S
H493 C434 0.961 . S
H494 C434 0.961 . S
H495 C435 0.960 . S
H496 C435 0.960 . S
H497 C435 0.961 . S
H498 C437 0.980 . S
H499 C436 0.961 . S
H500 C436 0.960 . S
H501 C436 0.959 . S
H502 C439 0.930 . S
H503 C443 0.931 . S
H504 C444 0.959 . S
H505 C444 0.961 . S
H506 C444 0.959 . S
H507 C445 0.960 . S
H508 C445 0.960 . S
H509 C445 0.960 . S
H510 C481 0.980 . S
H511 C447 0.930 . S
H512 C451 0.930 . S
H513 C452 0.961 . S
H514 C452 0.960 . S
H515 C452 0.958 . S
H516 C453 0.961 . S
H517 C453 0.960 . S
H518 C453 0.960 . S
H519 C455 0.980 . S
H520 C454 0.961 . S
H521 C454 0.961 . S
H522 C454 0.959 . S
H523 C457 0.932 . S
H524 C461 0.929 . S
H525 C462 0.961 . S
H526 C462 0.959 . S
H527 C462 0.959 . S
H528 C463 0.960 . S
H529 C463 0.962 . S
H530 C463 0.961 . S
H531 C465 0.929 . S
H532 C468 0.930 . S
H533 C469 0.929 . S
H534 C472 0.930 . S
H535 C475 0.929 . S
H536 C476 0.930 . S
H537 C480 0.962 . S
H538 C480 0.959 . S
H539 C480 0.958 . S
C540 C541 1.560 . S
C540 H601 0.959 . S
C540 H602 0.959 . S
C540 H603 0.960 . S
C541 C540 1.560 . S
C541 O596 1.426 . S
C541 H600 0.980 . S
C542 C543 1.407 . S
C542 C547 1.418 . S
C542 O596 1.334 . S
C543 C542 1.407 . S
C543 C544 1.360 . S
C543 H604 0.929 . S
C544 C543 1.360 . S
C544 C545 1.401 . S
C544 C548 1.527 . S
C545 C544 1.401 . S
C545 C546 1.405 . S
C545 C578 1.587 . S
C546 C545 1.405 . S
C546 C547 1.332 . S
C546 C549 1.496 . S
C547 C542 1.418 . S
C547 C546 1.332 . S
C547 H605 0.929 . S
C548 C544 1.527 . S
C548 H606 0.959 . S
C548 H607 0.961 . S
C548 H608 0.961 . S
C549 C546 1.496 . S
C549 H609 0.960 . S
C549 H610 0.960 . S
C549 H611 0.961 . S
C550 C551 1.517 . S
C550 H613 0.961 . S
C550 H614 0.960 . S
C550 H615 0.959 . S
C551 C550 1.517 . S
C551 O599 1.468 . S
C551 H612 0.980 . S
C552 C553 1.349 . S
C552 C557 1.367 . S
C552 O599 1.408 . S
C553 C552 1.349 . S
C553 C554 1.407 . S
C553 H616 0.930 . S
C554 C553 1.407 . S
C554 C555 1.449 . S
C554 C558 1.535 . S
C555 C554 1.449 . S
C555 C556 1.384 . S
C555 C580 1.553 . S
C556 C555 1.384 . S
C556 C557 1.364 . S
C556 C559 1.450 . S
C557 C552 1.367 . S
C557 C556 1.364 . S
C557 H617 0.931 . S
C558 C554 1.535 . S
C558 H618 0.959 . S
C558 H619 0.961 . S
C558 H620 0.959 . S
C559 C556 1.450 . S
C559 H621 0.960 . S
C559 H622 0.960 . S
C559 H623 0.960 . S
C560 C561 1.309 . S
C560 C565 1.304 . S
C560 O598 1.435 . S
C561 C560 1.309 . S
C561 C562 1.476 . S
C561 H625 0.930 . S
C562 C561 1.476 . S
C562 C563 1.400 . S
C562 C566 1.567 . S
C563 C562 1.400 . S
C563 C564 1.373 . S
C563 C585 1.432 . S
C564 C563 1.373 . S
C564 C565 1.339 . S
C564 C567 1.530 . S
C565 C560 1.304 . S
C565 C564 1.339 . S
C565 H626 0.930 . S
C566 C562 1.567 . S
C566 H627 0.961 . S
C566 H628 0.960 . S
C566 H629 0.958 . S
C567 C564 1.530 . S
C567 H630 0.961 . S
C567 H631 0.960 . S
C567 H632 0.960 . S
C568 C569 1.530 . S
C568 H634 0.961 . S
C568 H635 0.961 . S
C568 H636 0.959 . S
C569 C568 1.530 . S
C569 O597 1.412 . S
C569 H633 0.980 . S
C570 C571 1.288 . S
C570 C575 1.377 . S
C570 O597 1.393 . S
C571 C570 1.288 . S
C571 C572 1.369 . S
C571 H637 0.932 . S
C572 C571 1.369 . S
C572 C573 1.398 . S
C572 C576 1.527 . S
C573 C572 1.398 . S
C573 C574 1.380 . S
C573 C587 1.497 . S
C574 C573 1.380 . S
C574 C575 1.383 . S
C574 C577 1.603 . S
C575 C570 1.377 . S
C575 C574 1.383 . S
C575 H638 0.929 . S
C576 C572 1.527 . S
C576 H639 0.961 . S
C576 H640 0.959 . S
C576 H641 0.959 . S
C577 C574 1.603 . S
C577 H642 0.960 . S
C577 H643 0.962 . S
C577 H644 0.961 . S
C578 C545 1.587 . S
C578 C579 1.360 . S
C578 C591 1.412 . S
C579 C578 1.360 . S
C579 C580 1.365 . S
C579 H645 0.929 . S
C580 C555 1.553 . S
C580 C579 1.365 . S
C580 C581 1.404 . S
C581 C580 1.404 . S
C581 C582 1.395 . S
C581 C592 1.451 . S
C582 C581 1.395 . S
C582 C583 1.322 . S
C582 H646 0.930 . S
C583 C582 1.322 . S
C583 C584 1.459 . S
C583 H647 0.929 . S
C584 C583 1.459 . S
C584 C585 1.445 . S
C584 C593 1.395 . S
C585 C563 1.432 . S
C585 C584 1.445 . S
C585 C586 1.370 . S
C586 C585 1.370 . S
C586 C587 1.438 . S
C586 H648 0.930 . S
C587 C573 1.497 . S
C587 C586 1.438 . S
C587 C588 1.360 . S
C588 C587 1.360 . S
C588 C589 1.401 . S
C588 C593 1.446 . S
C589 C588 1.401 . S
C589 C590 1.347 . S
C589 H649 0.929 . S
C590 C589 1.347 . S
C590 C591 1.455 . S
C590 H650 0.930 . S
C591 C578 1.412 . S
C591 C590 1.455 . S
C591 C592 1.331 . S
C592 C581 1.451 . S
C592 C591 1.331 . S
C592 C593 1.497 . S
C593 C584 1.395 . S
C593 C588 1.446 . S
C593 C592 1.497 . S
C594 C595 1.582 . S
C594 H651 0.962 . S
C594 H652 0.959 . S
C594 H653 0.958 . S
C595 C594 1.582 . S
C595 O598 1.458 . S
C595 H624 0.980 . S
O596 C541 1.426 . S
O596 C542 1.334 . S
O597 C569 1.412 . S
O597 C570 1.393 . S
O598 C560 1.435 . S
O598 C595 1.458 . S
O599 C551 1.468 . S
O599 C552 1.408 . S
H600 C541 0.980 . S
H601 C540 0.959 . S
H602 C540 0.959 . S
H603 C540 0.960 . S
H604 C543 0.929 . S
H605 C547 0.929 . S
H606 C548 0.959 . S
H607 C548 0.961 . S
H608 C548 0.961 . S
H609 C549 0.960 . S
H610 C549 0.960 . S
H611 C549 0.961 . S
H612 C551 0.980 . S
H613 C550 0.961 . S
H614 C550 0.960 . S
H615 C550 0.959 . S
H616 C553 0.930 . S
H617 C557 0.931 . S
H618 C558 0.959 . S
H619 C558 0.961 . S
H620 C558 0.959 . S
H621 C559 0.960 . S
H622 C559 0.960 . S
H623 C559 0.960 . S
H624 C595 0.980 . S
H625 C561 0.930 . S
H626 C565 0.930 . S
H627 C566 0.961 . S
H628 C566 0.960 . S
H629 C566 0.958 . S
H630 C567 0.961 . S
H631 C567 0.960 . S
H632 C567 0.960 . S
H633 C569 0.980 . S
H634 C568 0.961 . S
H635 C568 0.961 . S
H636 C568 0.959 . S
H637 C571 0.932 . S
H638 C575 0.929 . S
H639 C576 0.961 . S
H640 C576 0.959 . S
H641 C576 0.959 . S
H642 C577 0.960 . S
H643 C577 0.962 . S
H644 C577 0.961 . S
H645 C579 0.929 . S
H646 C582 0.930 . S
H647 C583 0.929 . S
H648 C586 0.930 . S
H649 C589 0.929 . S
H650 C590 0.930 . S
H651 C594 0.962 . S
H652 C594 0.959 . S
H653 C594 0.958 . S
C654 C655 1.560 . S
C654 H715 0.959 . S
C654 H716 0.959 . S
C654 H717 0.960 . S
C655 C654 1.560 . S
C655 O710 1.426 . S
C655 H714 0.980 . S
C656 C657 1.407 . S
C656 C661 1.418 . S
C656 O710 1.334 . S
C657 C656 1.407 . S
C657 C658 1.360 . S
C657 H718 0.929 . S
C658 C657 1.360 . S
C658 C659 1.401 . S
C658 C662 1.527 . S
C659 C658 1.401 . S
C659 C660 1.405 . S
C659 C692 1.587 . S
C660 C659 1.405 . S
C660 C661 1.332 . S
C660 C663 1.496 . S
C661 C656 1.418 . S
C661 C660 1.332 . S
C661 H719 0.929 . S
C662 C658 1.527 . S
C662 H720 0.959 . S
C662 H721 0.961 . S
C662 H722 0.961 . S
C663 C660 1.496 . S
C663 H723 0.960 . S
C663 H724 0.960 . S
C663 H725 0.961 . S
C664 C665 1.517 . S
C664 H727 0.961 . S
C664 H728 0.960 . S
C664 H729 0.959 . S
C665 C664 1.517 . S
C665 O713 1.468 . S
C665 H726 0.980 . S
C666 C667 1.349 . S
C666 C671 1.367 . S
C666 O713 1.408 . S
C667 C666 1.349 . S
C667 C668 1.407 . S
C667 H730 0.930 . S
C668 C667 1.407 . S
C668 C669 1.449 . S
C668 C672 1.535 . S
C669 C668 1.449 . S
C669 C670 1.384 . S
C669 C694 1.553 . S
C670 C669 1.384 . S
C670 C671 1.364 . S
C670 C673 1.450 . S
C671 C666 1.367 . S
C671 C670 1.364 . S
C671 H731 0.931 . S
C672 C668 1.535 . S
C672 H732 0.959 . S
C672 H733 0.961 . S
C672 H734 0.959 . S
C673 C670 1.450 . S
C673 H735 0.960 . S
C673 H736 0.960 . S
C673 H737 0.960 . S
C674 C675 1.309 . S
C674 C679 1.304 . S
C674 O712 1.435 . S
C675 C674 1.309 . S
C675 C676 1.476 . S
C675 H739 0.930 . S
C676 C675 1.476 . S
C676 C677 1.400 . S
C676 C680 1.567 . S
C677 C676 1.400 . S
C677 C678 1.373 . S
C677 C699 1.432 . S
C678 C677 1.373 . S
C678 C679 1.339 . S
C678 C681 1.530 . S
C679 C674 1.304 . S
C679 C678 1.339 . S
C679 H740 0.930 . S
C680 C676 1.567 . S
C680 H741 0.961 . S
C680 H742 0.960 . S
C680 H743 0.958 . S
C681 C678 1.530 . S
C681 H744 0.961 . S
C681 H745 0.960 . S
C681 H746 0.960 . S
C682 C683 1.530 . S
C682 H748 0.961 . S
C682 H749 0.961 . S
C682 H750 0.959 . S
C683 C682 1.530 . S
C683 O711 1.412 . S
C683 H747 0.980 . S
C684 C685 1.288 . S
C684 C689 1.377 . S
C684 O711 1.393 . S
C685 C684 1.288 . S
C685 C686 1.369 . S
C685 H751 0.932 . S
C686 C685 1.369 . S
C686 C687 1.398 . S
C686 C690 1.527 . S
C687 C686 1.398 . S
C687 C688 1.380 . S
C687 C701 1.497 . S
C688 C687 1.380 . S
C688 C689 1.383 . S
C688 C691 1.603 . S
C689 C684 1.377 . S
C689 C688 1.383 . S
C689 H752 0.929 . S
C690 C686 1.527 . S
C690 H753 0.961 . S
C690 H754 0.959 . S
C690 H755 0.959 . S
C691 C688 1.603 . S
C691 H756 0.960 . S
C691 H757 0.962 . S
C691 H758 0.961 . S
C692 C659 1.587 . S
C692 C693 1.360 . S
C692 C705 1.412 . S
C693 C692 1.360 . S
C693 C694 1.365 . S
C693 H759 0.929 . S
C694 C669 1.553 . S
C694 C693 1.365 . S
C694 C695 1.404 . S
C695 C694 1.404 . S
C695 C696 1.395 . S
C695 C706 1.451 . S
C696 C695 1.395 . S
C696 C697 1.322 . S
C696 H760 0.930 . S
C697 C696 1.322 . S
C697 C698 1.459 . S
C697 H761 0.929 . S
C698 C697 1.459 . S
C698 C699 1.445 . S
C698 C707 1.395 . S
C699 C677 1.432 . S
C699 C698 1.445 . S
C699 C700 1.370 . S
C700 C699 1.370 . S
C700 C701 1.438 . S
C700 H762 0.930 . S
C701 C687 1.497 . S
C701 C700 1.438 . S
C701 C702 1.360 . S
C702 C701 1.360 . S
C702 C703 1.401 . S
C702 C707 1.446 . S
C703 C702 1.401 . S
C703 C704 1.347 . S
C703 H763 0.929 . S
C704 C703 1.347 . S
C704 C705 1.455 . S
C704 H764 0.930 . S
C705 C692 1.412 . S
C705 C704 1.455 . S
C705 C706 1.331 . S
C706 C695 1.451 . S
C706 C705 1.331 . S
C706 C707 1.497 . S
C707 C698 1.395 . S
C707 C702 1.446 . S
C707 C706 1.497 . S
C708 C709 1.582 . S
C708 H765 0.962 . S
C708 H766 0.959 . S
C708 H767 0.958 . S
C709 C708 1.582 . S
C709 O712 1.458 . S
C709 H738 0.980 . S
O710 C655 1.426 . S
O710 C656 1.334 . S
O711 C683 1.412 . S
O711 C684 1.393 . S
O712 C674 1.435 . S
O712 C709 1.458 . S
O713 C665 1.468 . S
O713 C666 1.408 . S
H714 C655 0.980 . S
H715 C654 0.959 . S
H716 C654 0.959 . S
H717 C654 0.960 . S
H718 C657 0.929 . S
H719 C661 0.929 . S
H720 C662 0.959 . S
H721 C662 0.961 . S
H722 C662 0.961 . S
H723 C663 0.960 . S
H724 C663 0.960 . S
H725 C663 0.961 . S
H726 C665 0.980 . S
H727 C664 0.961 . S
H728 C664 0.960 . S
H729 C664 0.959 . S
H730 C667 0.930 . S
H731 C671 0.931 . S
H732 C672 0.959 . S
H733 C672 0.961 . S
H734 C672 0.959 . S
H735 C673 0.960 . S
H736 C673 0.960 . S
H737 C673 0.960 . S
H738 C709 0.980 . S
H739 C675 0.930 . S
H740 C679 0.930 . S
H741 C680 0.961 . S
H742 C680 0.960 . S
H743 C680 0.958 . S
H744 C681 0.961 . S
H745 C681 0.960 . S
H746 C681 0.960 . S
H747 C683 0.980 . S
H748 C682 0.961 . S
H749 C682 0.961 . S
H750 C682 0.959 . S
H751 C685 0.932 . S
H752 C689 0.929 . S
H753 C690 0.961 . S
H754 C690 0.959 . S
H755 C690 0.959 . S
H756 C691 0.960 . S
H757 C691 0.962 . S
H758 C691 0.961 . S
H759 C693 0.929 . S
H760 C696 0.930 . S
H761 C697 0.929 . S
H762 C700 0.930 . S
H763 C703 0.929 . S
H764 C704 0.930 . S
H765 C708 0.962 . S
H766 C708 0.959 . S
H767 C708 0.958 . S
H768 C786 0.951 . S
H769 C788 0.951 . S
H770 C790 0.950 . S
H771 C791 0.950 . S
H772 C793 0.950 . S
H773 C796 0.950 . S
H774 C797 0.950 1_655 S
H775 C799 0.950 . S
H776 C800 0.950 . S
H777 C801 0.951 . S
H778 C803 0.951 . S
H779 C805 0.950 . S
H780 C806 0.950 . S
H781 C808 0.950 . S
H782 C811 0.950 . S
H783 C812 0.950 . S
H784 C814 0.950 . S
H785 C815 0.950 . S
C786 H768 0.951 . S
C786 C787 1.366 . S
C786 C788 1.388 . S
C787 C786 1.366 . S
C787 C791 1.385 . S
C788 H769 0.951 . S
C788 C786 1.388 . S
C788 C789 1.366 . S
C789 C788 1.366 . S
C789 C790 1.414 . S
C789 C792 1.499 . S
C790 H770 0.950 . S
C790 C789 1.414 . S
C790 C791 1.374 . S
C791 H771 0.950 . S
C791 C787 1.385 . S
C791 C790 1.374 . S
C792 C789 1.499 . S
C792 C793 1.373 . S
C792 C794 1.389 . S
C793 H772 0.950 . S
C793 C792 1.373 . S
C793 C809 1.377 . S
C794 C792 1.389 . S
C794 C795 1.524 . S
C794 C808 1.377 . S
C795 C794 1.524 . S
C795 C796 1.397 . S
C795 C800 1.363 . S
C796 H773 0.950 . S
C796 C795 1.397 . S
C796 C797 1.334 . S
C797 H774 0.950 1_455 S
C797 C796 1.334 . S
C797 C798 1.287 . S
C798 C797 1.287 . S
C798 C799 1.524 . S
C798 H817 0.913 1_455 S
C799 H775 0.950 . S
C799 C798 1.524 . S
C799 C800 1.415 . S
C800 H776 0.950 . S
C800 C795 1.363 . S
C800 C799 1.415 . S
C801 H777 0.951 . S
C801 C802 1.366 . S
C801 C803 1.388 . S
C802 C801 1.366 . S
C802 C806 1.385 . S
C803 H778 0.951 . S
C803 C801 1.388 . S
C803 C804 1.366 . S
C804 C803 1.366 . S
C804 C805 1.414 . S
C804 C807 1.499 . S
C805 H779 0.950 . S
C805 C804 1.414 . S
C805 C806 1.374 . S
C806 H780 0.950 . S
C806 C802 1.385 . S
C806 C805 1.374 . S
C807 C804 1.499 . S
C807 C808 1.373 . S
C807 C809 1.389 . S
C808 H781 0.950 . S
C808 C794 1.377 . S
C808 C807 1.373 . S
C809 C793 1.377 . S
C809 C807 1.389 . S
C809 C810 1.524 . S
C810 C809 1.524 . S
C810 C811 1.397 . S
C810 C815 1.363 . S
C811 H782 0.950 . S
C811 C810 1.397 . S
C811 C812 1.334 . S
C812 H783 0.950 . S
C812 C811 1.334 . S
C812 C813 1.287 . S
C813 C812 1.287 . S
C813 C814 1.524 . S
C813 H816 0.999 . S
C814 H784 0.950 . S
C814 C813 1.524 . S
C814 C815 1.415 . S
C815 H785 0.950 . S
C815 C810 1.363 . S
C815 C814 1.415 . S
H816 C813 0.999 . S
H817 C798 0.913 1_655 S
H818 C836 0.951 . S
H819 C838 0.951 . S
H820 C840 0.950 . S
H821 C841 0.950 . S
H822 C843 0.950 . S
H823 C846 0.950 . S
H824 C847 0.950 . S
H825 C849 0.950 . S
H826 C850 0.950 . S
H827 C851 0.951 . S
H828 C853 0.951 . S
H829 C855 0.950 . S
H830 C856 0.950 . S
H831 C858 0.950 . S
H832 C861 0.950 . S
H833 C862 0.950 . S
H834 C864 0.950 . S
H835 C865 0.950 . S
C836 H818 0.951 . S
C836 C837 1.366 . S
C836 C838 1.388 . S
C837 C836 1.366 . S
C837 C841 1.385 . S
C838 H819 0.951 . S
C838 C836 1.388 . S
C838 C839 1.366 . S
C839 C838 1.366 . S
C839 C840 1.414 . S
C839 C842 1.499 . S
C840 H820 0.950 . S
C840 C839 1.414 . S
C840 C841 1.374 . S
C841 H821 0.950 . S
C841 C837 1.385 . S
C841 C840 1.374 . S
C842 C839 1.499 . S
C842 C843 1.373 . S
C842 C844 1.389 . S
C843 H822 0.950 . S
C843 C842 1.373 . S
C843 C859 1.377 . S
C844 C842 1.389 . S
C844 C845 1.524 . S
C844 C858 1.377 . S
C845 C844 1.524 . S
C845 C846 1.397 . S
C845 C850 1.363 . S
C846 H823 0.950 . S
C846 C845 1.397 . S
C846 C847 1.334 1_545 S
C847 H824 0.950 . S
C847 C846 1.334 1_565 S
C847 C848 1.287 . S
C848 C847 1.287 . S
C848 C849 1.524 . S
C848 H867 0.913 . S
C849 H825 0.950 . S
C849 C848 1.524 . S
C849 C850 1.415 1_565 S
C850 H826 0.950 . S
C850 C845 1.363 . S
C850 C849 1.415 1_545 S
C851 H827 0.951 . S
C851 C852 1.366 . S
C851 C853 1.388 . S
C852 C851 1.366 . S
C852 C856 1.385 . S
C853 H828 0.951 . S
C853 C851 1.388 . S
C853 C854 1.366 . S
C854 C853 1.366 . S
C854 C855 1.414 . S
C854 C857 1.499 . S
C855 H829 0.950 . S
C855 C854 1.414 . S
C855 C856 1.374 . S
C856 H830 0.950 . S
C856 C852 1.385 . S
C856 C855 1.374 . S
C857 C854 1.499 . S
C857 C858 1.373 . S
C857 C859 1.389 . S
C858 H831 0.950 . S
C858 C844 1.377 . S
C858 C857 1.373 . S
C859 C843 1.377 . S
C859 C857 1.389 . S
C859 C860 1.524 . S
C860 C859 1.524 . S
C860 C861 1.397 . S
C860 C865 1.363 . S
C861 H832 0.950 . S
C861 C860 1.397 . S
C861 C862 1.334 . S
C862 H833 0.950 . S
C862 C861 1.334 . S
C862 C863 1.287 . S
C863 C862 1.287 . S
C863 C864 1.524 . S
C863 H866 0.999 . S
C864 H834 0.950 . S
C864 C863 1.524 . S
C864 C865 1.415 . S
C865 H835 0.950 . S
C865 C860 1.363 . S
C865 C864 1.415 . S
H866 C863 0.999 . S
H867 C848 0.913 . S
H868 C886 0.951 . S
H869 C888 0.951 . S
H870 C890 0.950 . S
H871 C891 0.950 . S
H872 C893 0.950 . S
H873 C896 0.950 . S
H874 C897 0.950 . S
H875 C899 0.950 . S
H876 C900 0.950 . S
H877 C901 0.951 . S
H878 C903 0.951 . S
H879 C905 0.950 . S
H880 C906 0.950 . S
H881 C908 0.950 . S
H882 C911 0.950 . S
H883 C912 0.950 . S
H884 C914 0.950 . S
H885 C915 0.950 . S
C886 H868 0.951 . S
C886 C887 1.366 . S
C886 C888 1.388 . S
C887 C886 1.366 . S
C887 C891 1.385 . S
C888 H869 0.951 . S
C888 C886 1.388 . S
C888 C889 1.366 . S
C889 C888 1.366 . S
C889 C890 1.414 . S
C889 C892 1.499 . S
C890 H870 0.950 . S
C890 C889 1.414 . S
C890 C891 1.374 . S
C891 H871 0.950 . S
C891 C887 1.385 . S
C891 C890 1.374 . S
C892 C889 1.499 . S
C892 C893 1.373 . S
C892 C894 1.389 . S
C893 H872 0.950 . S
C893 C892 1.373 . S
C893 C909 1.377 . S
C894 C892 1.389 . S
C894 C895 1.524 . S
C894 C908 1.377 . S
C895 C894 1.524 . S
C895 C896 1.397 . S
C895 C900 1.363 . S
C896 H873 0.950 . S
C896 C895 1.397 . S
C896 C897 1.334 . S
C897 H874 0.950 . S
C897 C896 1.334 . S
C897 C898 1.287 . S
C898 C897 1.287 . S
C898 C899 1.524 . S
C898 H917 0.913 . S
C899 H875 0.950 . S
C899 C898 1.524 . S
C899 C900 1.415 . S
C900 H876 0.950 . S
C900 C895 1.363 . S
C900 C899 1.415 . S
C901 H877 0.951 . S
C901 C902 1.366 . S
C901 C903 1.388 . S
C902 C901 1.366 . S
C902 C906 1.385 . S
C903 H878 0.951 . S
C903 C901 1.388 . S
C903 C904 1.366 . S
C904 C903 1.366 . S
C904 C905 1.414 . S
C904 C907 1.499 . S
C905 H879 0.950 . S
C905 C904 1.414 . S
C905 C906 1.374 . S
C906 H880 0.950 . S
C906 C902 1.385 . S
C906 C905 1.374 . S
C907 C904 1.499 . S
C907 C908 1.373 . S
C907 C909 1.389 . S
C908 H881 0.950 . S
C908 C894 1.377 . S
C908 C907 1.373 . S
C909 C893 1.377 . S
C909 C907 1.389 . S
C909 C910 1.524 . S
C910 C909 1.524 . S
C910 C911 1.397 . S
C910 C915 1.363 . S
C911 H882 0.950 . S
C911 C910 1.397 . S
C911 C912 1.334 . S
C912 H883 0.950 . S
C912 C911 1.334 . S
C912 C913 1.287 . S
C913 C912 1.287 . S
C913 C914 1.524 . S
C913 H916 0.999 . S
C914 H884 0.950 . S
C914 C913 1.524 . S
C914 C915 1.415 . S
C915 H885 0.950 . S
C915 C910 1.363 . S
C915 C914 1.415 . S
H916 C913 0.999 . S
H917 C898 0.913 . S
H918 C936 0.951 . S
H919 C938 0.951 . S
H920 C940 0.950 . S
H921 C941 0.950 . S
H922 C943 0.950 . S
H923 C946 0.950 . S
H924 C947 0.950 . S
H925 C949 0.950 . S
H926 C950 0.950 . S
H927 C951 0.951 . S
H928 C953 0.951 . S
H929 C955 0.950 . S
H930 C956 0.950 . S
H931 C958 0.950 . S
H932 C961 0.950 . S
H933 C962 0.950 . S
H934 C964 0.950 . S
H935 C965 0.950 . S
C936 H918 0.951 . S
C936 C937 1.366 . S
C936 C938 1.388 . S
C937 C936 1.366 . S
C937 C941 1.385 . S
C938 H919 0.951 . S
C938 C936 1.388 . S
C938 C939 1.366 . S
C939 C938 1.366 . S
C939 C940 1.414 . S
C939 C942 1.499 . S
C940 H920 0.950 . S
C940 C939 1.414 . S
C940 C941 1.374 . S
C941 H921 0.950 . S
C941 C937 1.385 . S
C941 C940 1.374 . S
C942 C939 1.499 . S
C942 C943 1.373 . S
C942 C944 1.389 . S
C943 H922 0.950 . S
C943 C942 1.373 . S
C943 C959 1.377 . S
C944 C942 1.389 . S
C944 C945 1.524 . S
C944 C958 1.377 . S
C945 C944 1.524 . S
C945 C946 1.397 . S
C945 C950 1.363 . S
C946 H923 0.950 . S
C946 C945 1.397 . S
C946 C947 1.334 . S
C947 H924 0.950 . S
C947 C946 1.334 . S
C947 C948 1.287 . S
C948 C947 1.287 . S
C948 C949 1.524 . S
C948 H967 0.913 . S
C949 H925 0.950 . S
C949 C948 1.524 . S
C949 C950 1.415 . S
C950 H926 0.950 . S
C950 C945 1.363 . S
C950 C949 1.415 . S
C951 H927 0.951 . S
C951 C952 1.366 . S
C951 C953 1.388 . S
C952 C951 1.366 . S
C952 C956 1.385 . S
C953 H928 0.951 . S
C953 C951 1.388 . S
C953 C954 1.366 . S
C954 C953 1.366 . S
C954 C955 1.414 . S
C954 C957 1.499 . S
C955 H929 0.950 . S
C955 C954 1.414 . S
C955 C956 1.374 . S
C956 H930 0.950 . S
C956 C952 1.385 . S
C956 C955 1.374 . S
C957 C954 1.499 . S
C957 C958 1.373 . S
C957 C959 1.389 . S
C958 H931 0.950 . S
C958 C944 1.377 . S
C958 C957 1.373 . S
C959 C943 1.377 . S
C959 C957 1.389 . S
C959 C960 1.524 . S
C960 C959 1.524 . S
C960 C961 1.397 . S
C960 C965 1.363 . S
C961 H932 0.950 . S
C961 C960 1.397 . S
C961 C962 1.334 . S
C962 H933 0.950 . S
C962 C961 1.334 . S
C962 C963 1.287 1_655 S
C963 C962 1.287 1_455 S
C963 C964 1.524 . S
C963 H966 0.999 . S
C964 H934 0.950 . S
C964 C963 1.524 . S
C964 C965 1.415 1_455 S
C965 H935 0.950 . S
C965 C960 1.363 . S
C965 C964 1.415 1_655 S
H966 C963 0.999 . S
H967 C948 0.913 . S
H968 C986 0.951 . S
H969 C988 0.951 . S
H970 C990 0.950 . S
H971 C991 0.950 . S
H972 C993 0.950 . S
H973 C996 0.950 . S
H974 C997 0.950 . S
H975 C999 0.950 . S
H976 C1000 0.950 . S
H977 C1001 0.951 . S
H978 C1003 0.951 . S
H979 C1005 0.950 . S
H980 C1006 0.950 . S
H981 C1008 0.950 . S
H982 C1011 0.950 . S
H983 C1012 0.950 . S
H984 C1014 0.950 . S
H985 C1015 0.950 . S
C986 H968 0.951 . S
C986 C987 1.366 . S
C986 C988 1.388 . S
C987 C986 1.366 . S
C987 C991 1.385 . S
C988 H969 0.951 . S
C988 C986 1.388 . S
C988 C989 1.366 . S
C989 C988 1.366 . S
C989 C990 1.414 . S
C989 C992 1.499 . S
C990 H970 0.950 . S
C990 C989 1.414 . S
C990 C991 1.374 . S
C991 H971 0.950 . S
C991 C987 1.385 . S
C991 C990 1.374 . S
C992 C989 1.499 . S
C992 C993 1.373 . S
C992 C994 1.389 . S
C993 H972 0.950 . S
C993 C992 1.373 . S
C993 C1009 1.377 . S
C994 C992 1.389 . S
C994 C995 1.524 . S
C994 C1008 1.377 . S
C995 C994 1.524 . S
C995 C996 1.397 . S
C995 C1000 1.363 . S
C996 H973 0.950 . S
C996 C995 1.397 . S
C996 C997 1.334 . S
C997 H974 0.950 . S
C997 C996 1.334 . S
C997 C998 1.287 . S
C998 C997 1.287 . S
C998 C999 1.524 . S
C998 H1017 0.913 . S
C999 H975 0.950 . S
C999 C998 1.524 . S
C999 C1000 1.415 . S
C1000 H976 0.950 . S
C1000 C995 1.363 . S
C1000 C999 1.415 . S
C1001 H977 0.951 . S
C1001 C1002 1.366 . S
C1001 C1003 1.388 . S
C1002 C1001 1.366 . S
C1002 C1006 1.385 . S
C1003 H978 0.951 . S
C1003 C1001 1.388 . S
C1003 C1004 1.366 . S
C1004 C1003 1.366 . S
C1004 C1005 1.414 . S
C1004 C1007 1.499 . S
C1005 H979 0.950 . S
C1005 C1004 1.414 . S
C1005 C1006 1.374 . S
C1006 H980 0.950 . S
C1006 C1002 1.385 . S
C1006 C1005 1.374 . S
C1007 C1004 1.499 . S
C1007 C1008 1.373 . S
C1007 C1009 1.389 . S
C1008 H981 0.950 . S
C1008 C994 1.377 . S
C1008 C1007 1.373 . S
C1009 C993 1.377 . S
C1009 C1007 1.389 . S
C1009 C1010 1.524 . S
C1010 C1009 1.524 . S
C1010 C1011 1.397 . S
C1010 C1015 1.363 . S
C1011 H982 0.950 . S
C1011 C1010 1.397 . S
C1011 C1012 1.334 . S
C1012 H983 0.950 . S
C1012 C1011 1.334 . S
C1012 C1013 1.287 1_565 S
C1013 C1012 1.287 1_545 S
C1013 C1014 1.524 . S
C1013 H1016 0.999 . S
C1014 H984 0.950 . S
C1014 C1013 1.524 . S
C1014 C1015 1.415 1_545 S
C1015 H985 0.950 . S
C1015 C1010 1.363 . S
C1015 C1014 1.415 1_565 S
H1016 C1013 0.999 . S
H1017 C998 0.913 . S
H1018 C1036 0.951 . S
H1019 C1038 0.951 . S
H1020 C1040 0.950 . S
H1021 C1041 0.950 . S
H1022 C1043 0.950 . S
H1023 C1046 0.950 . S
H1024 C1047 0.950 . S
H1025 C1049 0.950 . S
H1026 C1050 0.950 . S
H1027 C1051 0.951 . S
H1028 C1053 0.951 . S
H1029 C1055 0.950 . S
H1030 C1056 0.950 . S
H1031 C1058 0.950 . S
H1032 C1061 0.950 . S
H1033 C1062 0.950 . S
H1034 C1064 0.950 . S
H1035 C1065 0.950 . S
C1036 H1018 0.951 . S
C1036 C1037 1.366 . S
C1036 C1038 1.388 . S
C1037 C1036 1.366 . S
C1037 C1041 1.385 . S
C1038 H1019 0.951 . S
C1038 C1036 1.388 . S
C1038 C1039 1.366 . S
C1039 C1038 1.366 . S
C1039 C1040 1.414 . S
C1039 C1042 1.499 . S
C1040 H1020 0.950 . S
C1040 C1039 1.414 . S
C1040 C1041 1.374 . S
C1041 H1021 0.950 . S
C1041 C1037 1.385 . S
C1041 C1040 1.374 . S
C1042 C1039 1.499 . S
C1042 C1043 1.373 . S
C1042 C1044 1.389 . S
C1043 H1022 0.950 . S
C1043 C1042 1.373 . S
C1043 C1059 1.377 . S
C1044 C1042 1.389 . S
C1044 C1045 1.524 . S
C1044 C1058 1.377 . S
C1045 C1044 1.524 . S
C1045 C1046 1.397 . S
C1045 C1050 1.363 . S
C1046 H1023 0.950 . S
C1046 C1045 1.397 . S
C1046 C1047 1.334 . S
C1047 H1024 0.950 . S
C1047 C1046 1.334 . S
C1047 C1048 1.287 . S
C1048 C1047 1.287 . S
C1048 C1049 1.524 . S
C1048 H1067 0.913 . S
C1049 H1025 0.950 . S
C1049 C1048 1.524 . S
C1049 C1050 1.415 . S
C1050 H1026 0.950 . S
C1050 C1045 1.363 . S
C1050 C1049 1.415 . S
C1051 H1027 0.951 . S
C1051 C1052 1.366 . S
C1051 C1053 1.388 . S
C1052 C1051 1.366 . S
C1052 C1056 1.385 . S
C1053 H1028 0.951 . S
C1053 C1051 1.388 . S
C1053 C1054 1.366 . S
C1054 C1053 1.366 . S
C1054 C1055 1.414 . S
C1054 C1057 1.499 . S
C1055 H1029 0.950 . S
C1055 C1054 1.414 . S
C1055 C1056 1.374 . S
C1056 H1030 0.950 . S
C1056 C1052 1.385 . S
C1056 C1055 1.374 . S
C1057 C1054 1.499 . S
C1057 C1058 1.373 . S
C1057 C1059 1.389 . S
C1058 H1031 0.950 . S
C1058 C1044 1.377 . S
C1058 C1057 1.373 . S
C1059 C1043 1.377 . S
C1059 C1057 1.389 . S
C1059 C1060 1.524 . S
C1060 C1059 1.524 . S
C1060 C1061 1.397 . S
C1060 C1065 1.363 . S
C1061 H1032 0.950 . S
C1061 C1060 1.397 . S
C1061 C1062 1.334 . S
C1062 H1033 0.950 . S
C1062 C1061 1.334 . S
C1062 C1063 1.287 . S
C1063 C1062 1.287 . S
C1063 C1064 1.524 . S
C1063 H1066 0.999 . S
C1064 H1034 0.950 . S
C1064 C1063 1.524 . S
C1064 C1065 1.415 . S
C1065 H1035 0.950 . S
C1065 C1060 1.363 . S
C1065 C1064 1.415 . S
H1066 C1063 0.999 . S
H1067 C1048 0.913 . S
H1068 C1086 0.951 . S
H1069 C1088 0.951 . S
H1070 C1090 0.950 . S
H1071 C1091 0.950 . S
H1072 C1093 0.950 . S
H1073 C1096 0.950 . S
H1074 C1097 0.950 . S
H1075 C1099 0.950 . S
H1076 C1100 0.950 . S
H1077 C1101 0.951 . S
H1078 C1103 0.951 . S
H1079 C1105 0.950 . S
H1080 C1106 0.950 . S
H1081 C1108 0.950 . S
H1082 C1111 0.950 . S
H1083 C1112 0.950 . S
H1084 C1114 0.950 . S
H1085 C1115 0.950 . S
C1086 H1068 0.951 . S
C1086 C1087 1.366 . S
C1086 C1088 1.388 . S
C1087 C1086 1.366 . S
C1087 C1091 1.385 . S
C1088 H1069 0.951 . S
C1088 C1086 1.388 . S
C1088 C1089 1.366 . S
C1089 C1088 1.366 . S
C1089 C1090 1.414 . S
C1089 C1092 1.499 . S
C1090 H1070 0.950 . S
C1090 C1089 1.414 . S
C1090 C1091 1.374 . S
C1091 H1071 0.950 . S
C1091 C1087 1.385 . S
C1091 C1090 1.374 . S
C1092 C1089 1.499 . S
C1092 C1093 1.373 . S
C1092 C1094 1.389 . S
C1093 H1072 0.950 . S
C1093 C1092 1.373 . S
C1093 C1109 1.377 . S
C1094 C1092 1.389 . S
C1094 C1095 1.524 . S
C1094 C1108 1.377 . S
C1095 C1094 1.524 . S
C1095 C1096 1.397 . S
C1095 C1100 1.363 . S
C1096 H1073 0.950 . S
C1096 C1095 1.397 . S
C1096 C1097 1.334 1_565 S
C1097 H1074 0.950 . S
C1097 C1096 1.334 1_545 S
C1097 C1098 1.287 . S
C1098 C1097 1.287 . S
C1098 C1099 1.524 . S
C1098 H1117 0.913 . S
C1099 H1075 0.950 . S
C1099 C1098 1.524 . S
C1099 C1100 1.415 1_545 S
C1100 H1076 0.950 . S
C1100 C1095 1.363 . S
C1100 C1099 1.415 1_565 S
C1101 H1077 0.951 . S
C1101 C1102 1.366 . S
C1101 C1103 1.388 . S
C1102 C1101 1.366 . S
C1102 C1106 1.385 . S
C1103 H1078 0.951 . S
C1103 C1101 1.388 . S
C1103 C1104 1.366 . S
C1104 C1103 1.366 . S
C1104 C1105 1.414 . S
C1104 C1107 1.499 . S
C1105 H1079 0.950 . S
C1105 C1104 1.414 . S
C1105 C1106 1.374 . S
C1106 H1080 0.950 . S
C1106 C1102 1.385 . S
C1106 C1105 1.374 . S
C1107 C1104 1.499 . S
C1107 C1108 1.373 . S
C1107 C1109 1.389 . S
C1108 H1081 0.950 . S
C1108 C1094 1.377 . S
C1108 C1107 1.373 . S
C1109 C1093 1.377 . S
C1109 C1107 1.389 . S
C1109 C1110 1.524 . S
C1110 C1109 1.524 . S
C1110 C1111 1.397 . S
C1110 C1115 1.363 . S
C1111 H1082 0.950 . S
C1111 C1110 1.397 . S
C1111 C1112 1.334 . S
C1112 H1083 0.950 . S
C1112 C1111 1.334 . S
C1112 C1113 1.287 . S
C1113 C1112 1.287 . S
C1113 C1114 1.524 . S
C1113 H1116 0.999 . S
C1114 H1084 0.950 . S
C1114 C1113 1.524 . S
C1114 C1115 1.415 . S
C1115 H1085 0.950 . S
C1115 C1110 1.363 . S
C1115 C1114 1.415 . S
H1116 C1113 0.999 . S
H1117 C1098 0.913 . S
H1118 C1136 0.951 . S
H1119 C1138 0.951 . S
H1120 C1140 0.950 . S
H1121 C1141 0.950 . S
H1122 C1143 0.950 . S
H1123 C1146 0.950 . S
H1124 C1147 0.950 . S
H1125 C1149 0.950 . S
H1126 C1150 0.950 . S
H1127 C1151 0.951 . S
H1128 C1153 0.951 . S
H1129 C1155 0.950 . S
H1130 C1156 0.950 . S
H1131 C1158 0.950 . S
H1132 C1161 0.950 . S
H1133 C1162 0.950 . S
H1134 C1164 0.950 . S
H1135 C1165 0.950 . S
C1136 H1118 0.951 . S
C1136 C1137 1.366 . S
C1136 C1138 1.388 . S
C1137 C1136 1.366 . S
C1137 C1141 1.385 . S
C1138 H1119 0.951 . S
C1138 C1136 1.388 . S
C1138 C1139 1.366 . S
C1139 C1138 1.366 . S
C1139 C1140 1.414 . S
C1139 C1142 1.499 . S
C1140 H1120 0.950 . S
C1140 C1139 1.414 . S
C1140 C1141 1.374 . S
C1141 H1121 0.950 . S
C1141 C1137 1.385 . S
C1141 C1140 1.374 . S
C1142 C1139 1.499 . S
C1142 C1143 1.373 . S
C1142 C1144 1.389 . S
C1143 H1122 0.950 . S
C1143 C1142 1.373 . S
C1143 C1159 1.377 . S
C1144 C1142 1.389 . S
C1144 C1145 1.524 . S
C1144 C1158 1.377 . S
C1145 C1144 1.524 . S
C1145 C1146 1.397 . S
C1145 C1150 1.363 . S
C1146 H1123 0.950 . S
C1146 C1145 1.397 . S
C1146 C1147 1.334 . S
C1147 H1124 0.950 . S
C1147 C1146 1.334 . S
C1147 C1148 1.287 . S
C1148 C1147 1.287 . S
C1148 C1149 1.524 . S
C1148 H1167 0.913 . S
C1149 H1125 0.950 . S
C1149 C1148 1.524 . S
C1149 C1150 1.415 . S
C1150 H1126 0.950 . S
C1150 C1145 1.363 . S
C1150 C1149 1.415 . S
C1151 H1127 0.951 . S
C1151 C1152 1.366 . S
C1151 C1153 1.388 . S
C1152 C1151 1.366 . S
C1152 C1156 1.385 . S
C1153 H1128 0.951 . S
C1153 C1151 1.388 . S
C1153 C1154 1.366 . S
C1154 C1153 1.366 . S
C1154 C1155 1.414 . S
C1154 C1157 1.499 . S
C1155 H1129 0.950 . S
C1155 C1154 1.414 . S
C1155 C1156 1.374 . S
C1156 H1130 0.950 . S
C1156 C1152 1.385 . S
C1156 C1155 1.374 . S
C1157 C1154 1.499 . S
C1157 C1158 1.373 . S
C1157 C1159 1.389 . S
C1158 H1131 0.950 . S
C1158 C1144 1.377 . S
C1158 C1157 1.373 . S
C1159 C1143 1.377 . S
C1159 C1157 1.389 . S
C1159 C1160 1.524 . S
C1160 C1159 1.524 . S
C1160 C1161 1.397 . S
C1160 C1165 1.363 . S
C1161 H1132 0.950 . S
C1161 C1160 1.397 . S
C1161 C1162 1.334 . S
C1162 H1133 0.950 . S
C1162 C1161 1.334 . S
C1162 C1163 1.287 . S
C1163 C1162 1.287 . S
C1163 C1164 1.524 . S
C1163 H1166 0.999 . S
C1164 H1134 0.950 . S
C1164 C1163 1.524 . S
C1164 C1165 1.415 . S
C1165 H1135 0.950 . S
C1165 C1160 1.363 . S
C1165 C1164 1.415 . S
H1166 C1163 0.999 . S
H1167 C1148 0.913 . S
H1168 C1186 0.951 . S
H1169 C1188 0.951 . S
H1170 C1190 0.950 . S
H1171 C1191 0.950 . S
H1172 C1193 0.950 . S
H1173 C1196 0.950 . S
H1174 C1197 0.950 . S
H1175 C1199 0.950 . S
H1176 C1200 0.950 . S
H1177 C1201 0.951 . S
H1178 C1203 0.951 . S
H1179 C1205 0.950 . S
H1180 C1206 0.950 . S
H1181 C1208 0.950 . S
H1182 C1211 0.950 . S
H1183 C1212 0.950 . S
H1184 C1214 0.950 . S
H1185 C1215 0.950 . S
C1186 H1168 0.951 . S
C1186 C1187 1.366 . S
C1186 C1188 1.388 . S
C1187 C1186 1.366 . S
C1187 C1191 1.385 . S
C1188 H1169 0.951 . S
C1188 C1186 1.388 . S
C1188 C1189 1.366 . S
C1189 C1188 1.366 . S
C1189 C1190 1.414 . S
C1189 C1192 1.499 . S
C1190 H1170 0.950 . S
C1190 C1189 1.414 . S
C1190 C1191 1.374 . S
C1191 H1171 0.950 . S
C1191 C1187 1.385 . S
C1191 C1190 1.374 . S
C1192 C1189 1.499 . S
C1192 C1193 1.373 . S
C1192 C1194 1.389 . S
C1193 H1172 0.950 . S
C1193 C1192 1.373 . S
C1193 C1209 1.377 . S
C1194 C1192 1.389 . S
C1194 C1195 1.524 . S
C1194 C1208 1.377 . S
C1195 C1194 1.524 . S
C1195 C1196 1.397 . S
C1195 C1200 1.363 . S
C1196 H1173 0.950 . S
C1196 C1195 1.397 . S
C1196 C1197 1.334 1_455 S
C1197 H1174 0.950 . S
C1197 C1196 1.334 1_655 S
C1197 C1198 1.287 . S
C1198 C1197 1.287 . S
C1198 C1199 1.524 1_655 S
C1198 H1217 0.913 . S
C1199 H1175 0.950 . S
C1199 C1198 1.524 1_455 S
C1199 C1200 1.415 . S
C1200 H1176 0.950 . S
C1200 C1195 1.363 . S
C1200 C1199 1.415 . S
C1201 H1177 0.951 . S
C1201 C1202 1.366 . S
C1201 C1203 1.388 . S
C1202 C1201 1.366 . S
C1202 C1206 1.385 . S
C1203 H1178 0.951 . S
C1203 C1201 1.388 . S
C1203 C1204 1.366 . S
C1204 C1203 1.366 . S
C1204 C1205 1.414 . S
C1204 C1207 1.499 . S
C1205 H1179 0.950 . S
C1205 C1204 1.414 . S
C1205 C1206 1.374 . S
C1206 H1180 0.950 . S
C1206 C1202 1.385 . S
C1206 C1205 1.374 . S
C1207 C1204 1.499 . S
C1207 C1208 1.373 . S
C1207 C1209 1.389 . S
C1208 H1181 0.950 . S
C1208 C1194 1.377 . S
C1208 C1207 1.373 . S
C1209 C1193 1.377 . S
C1209 C1207 1.389 . S
C1209 C1210 1.524 . S
C1210 C1209 1.524 . S
C1210 C1211 1.397 . S
C1210 C1215 1.363 . S
C1211 H1182 0.950 . S
C1211 C1210 1.397 . S
C1211 C1212 1.334 . S
C1212 H1183 0.950 . S
C1212 C1211 1.334 . S
C1212 C1213 1.287 . S
C1213 C1212 1.287 . S
C1213 C1214 1.524 . S
C1213 H1216 0.999 . S
C1214 H1184 0.950 . S
C1214 C1213 1.524 . S
C1214 C1215 1.415 . S
C1215 H1185 0.950 . S
C1215 C1210 1.363 . S
C1215 C1214 1.415 . S
H1216 C1213 0.999 . S
H1217 C1198 0.913 . S
H1218 C1236 0.951 . S
H1219 C1238 0.951 . S
H1220 C1240 0.950 . S
H1221 C1241 0.950 . S
H1222 C1243 0.950 . S
H1223 C1246 0.950 . S
H1224 C1247 0.950 . S
H1225 C1249 0.950 . S
H1226 C1250 0.950 . S
H1227 C1251 0.951 . S
H1228 C1253 0.951 . S
H1229 C1255 0.950 . S
H1230 C1256 0.950 . S
H1231 C1258 0.950 . S
H1232 C1261 0.950 . S
H1233 C1262 0.950 . S
H1234 C1264 0.950 . S
H1235 C1265 0.950 . S
C1236 H1218 0.951 . S
C1236 C1237 1.366 . S
C1236 C1238 1.388 . S
C1237 C1236 1.366 . S
C1237 C1241 1.385 . S
C1238 H1219 0.951 . S
C1238 C1236 1.388 . S
C1238 C1239 1.366 . S
C1239 C1238 1.366 . S
C1239 C1240 1.414 . S
C1239 C1242 1.499 . S
C1240 H1220 0.950 . S
C1240 C1239 1.414 . S
C1240 C1241 1.374 . S
C1241 H1221 0.950 . S
C1241 C1237 1.385 . S
C1241 C1240 1.374 . S
C1242 C1239 1.499 . S
C1242 C1243 1.373 . S
C1242 C1244 1.389 . S
C1243 H1222 0.950 . S
C1243 C1242 1.373 . S
C1243 C1259 1.377 . S
C1244 C1242 1.389 . S
C1244 C1245 1.524 . S
C1244 C1258 1.377 . S
C1245 C1244 1.524 . S
C1245 C1246 1.397 . S
C1245 C1250 1.363 . S
C1246 H1223 0.950 . S
C1246 C1245 1.397 . S
C1246 C1247 1.334 . S
C1247 H1224 0.950 . S
C1247 C1246 1.334 . S
C1247 C1248 1.287 . S
C1248 C1247 1.287 . S
C1248 C1249 1.524 . S
C1248 H1267 0.913 . S
C1249 H1225 0.950 . S
C1249 C1248 1.524 . S
C1249 C1250 1.415 . S
C1250 H1226 0.950 . S
C1250 C1245 1.363 . S
C1250 C1249 1.415 . S
C1251 H1227 0.951 . S
C1251 C1252 1.366 . S
C1251 C1253 1.388 . S
C1252 C1251 1.366 . S
C1252 C1256 1.385 . S
C1253 H1228 0.951 . S
C1253 C1251 1.388 . S
C1253 C1254 1.366 . S
C1254 C1253 1.366 . S
C1254 C1255 1.414 . S
C1254 C1257 1.499 . S
C1255 H1229 0.950 . S
C1255 C1254 1.414 . S
C1255 C1256 1.374 . S
C1256 H1230 0.950 . S
C1256 C1252 1.385 . S
C1256 C1255 1.374 . S
C1257 C1254 1.499 . S
C1257 C1258 1.373 . S
C1257 C1259 1.389 . S
C1258 H1231 0.950 . S
C1258 C1244 1.377 . S
C1258 C1257 1.373 . S
C1259 C1243 1.377 . S
C1259 C1257 1.389 . S
C1259 C1260 1.524 . S
C1260 C1259 1.524 . S
C1260 C1261 1.397 . S
C1260 C1265 1.363 . S
C1261 H1232 0.950 . S
C1261 C1260 1.397 . S
C1261 C1262 1.334 . S
C1262 H1233 0.950 . S
C1262 C1261 1.334 . S
C1262 C1263 1.287 . S
C1263 C1262 1.287 . S
C1263 C1264 1.524 . S
C1263 H1266 0.987 1_545 S
C1264 H1234 0.950 . S
C1264 C1263 1.524 . S
C1264 C1265 1.415 . S
C1265 H1235 0.950 . S
C1265 C1260 1.363 . S
C1265 C1264 1.415 . S
H1266 C1263 0.987 1_565 S
H1267 C1248 0.913 . S
H1268 C1286 0.951 . S
H1269 C1288 0.951 . S
H1270 C1290 0.950 . S
H1271 C1291 0.950 . S
H1272 C1293 0.950 . S
H1273 C1296 0.950 . S
H1274 C1297 0.950 . S
H1275 C1299 0.950 . S
H1276 C1300 0.950 . S
H1277 C1301 0.951 . S
H1278 C1303 0.951 . S
H1279 C1305 0.950 . S
H1280 C1306 0.950 . S
H1281 C1308 0.950 . S
H1282 C1311 0.950 . S
H1283 C1312 0.950 . S
H1284 C1314 0.950 . S
H1285 C1315 0.950 . S
C1286 H1268 0.951 . S
C1286 C1287 1.366 . S
C1286 C1288 1.388 . S
C1287 C1286 1.366 . S
C1287 C1291 1.385 . S
C1288 H1269 0.951 . S
C1288 C1286 1.388 . S
C1288 C1289 1.366 . S
C1289 C1288 1.366 . S
C1289 C1290 1.414 . S
C1289 C1292 1.499 . S
C1290 H1270 0.950 . S
C1290 C1289 1.414 . S
C1290 C1291 1.374 . S
C1291 H1271 0.950 . S
C1291 C1287 1.385 . S
C1291 C1290 1.374 . S
C1292 C1289 1.499 . S
C1292 C1293 1.373 . S
C1292 C1294 1.389 . S
C1293 H1272 0.950 . S
C1293 C1292 1.373 . S
C1293 C1309 1.377 . S
C1294 C1292 1.389 . S
C1294 C1295 1.524 . S
C1294 C1308 1.377 . S
C1295 C1294 1.524 . S
C1295 C1296 1.397 . S
C1295 C1300 1.363 . S
C1296 H1273 0.950 . S
C1296 C1295 1.397 . S
C1296 C1297 1.334 . S
C1297 H1274 0.950 . S
C1297 C1296 1.334 . S
C1297 C1298 1.287 . S
C1298 C1297 1.287 . S
C1298 C1299 1.524 . S
C1298 H1317 0.913 . S
C1299 H1275 0.950 . S
C1299 C1298 1.524 . S
C1299 C1300 1.415 . S
C1300 H1276 0.950 . S
C1300 C1295 1.363 . S
C1300 C1299 1.415 . S
C1301 H1277 0.951 . S
C1301 C1302 1.366 . S
C1301 C1303 1.388 . S
C1302 C1301 1.366 . S
C1302 C1306 1.385 . S
C1303 H1278 0.951 . S
C1303 C1301 1.388 . S
C1303 C1304 1.366 . S
C1304 C1303 1.366 . S
C1304 C1305 1.414 . S
C1304 C1307 1.499 . S
C1305 H1279 0.950 . S
C1305 C1304 1.414 . S
C1305 C1306 1.374 . S
C1306 H1280 0.950 . S
C1306 C1302 1.385 . S
C1306 C1305 1.374 . S
C1307 C1304 1.499 . S
C1307 C1308 1.373 . S
C1307 C1309 1.389 . S
C1308 H1281 0.950 . S
C1308 C1294 1.377 . S
C1308 C1307 1.373 . S
C1309 C1293 1.377 . S
C1309 C1307 1.389 . S
C1309 C1310 1.524 . S
C1310 C1309 1.524 . S
C1310 C1311 1.397 . S
C1310 C1315 1.363 . S
C1311 H1282 0.950 . S
C1311 C1310 1.397 . S
C1311 C1312 1.334 . S
C1312 H1283 0.950 . S
C1312 C1311 1.334 . S
C1312 C1313 1.287 . S
C1313 C1312 1.287 . S
C1313 C1314 1.524 . S
C1313 H1316 0.999 . S
C1314 H1284 0.950 . S
C1314 C1313 1.524 . S
C1314 C1315 1.415 . S
C1315 H1285 0.950 . S
C1315 C1310 1.363 . S
C1315 C1314 1.415 . S
H1316 C1313 0.999 . S
H1317 C1298 0.913 . S
H1318 C1336 0.951 . S
H1319 C1338 0.951 1_455 S
H1320 C1340 0.950 . S
H1321 C1341 0.950 . S
H1322 C1343 0.950 . S
H1323 C1346 0.950 . S
H1324 C1347 0.950 . S
H1325 C1349 0.950 . S
H1326 C1350 0.950 . S
H1327 C1351 0.951 . S
H1328 C1353 0.951 . S
H1329 C1355 0.950 . S
H1330 C1356 0.950 . S
H1331 C1358 0.950 . S
H1332 C1361 0.950 . S
H1333 C1362 0.950 . S
H1334 C1364 0.950 . S
H1335 C1365 0.950 . S
C1336 H1318 0.951 . S
C1336 C1337 1.366 1_455 S
C1336 C1338 1.388 1_455 S
C1337 C1336 1.366 1_655 S
C1337 C1341 1.385 . S
C1338 H1319 0.951 1_655 S
C1338 C1336 1.388 1_655 S
C1338 C1339 1.366 . S
C1339 C1338 1.366 . S
C1339 C1340 1.414 . S
C1339 C1342 1.499 . S
C1340 H1320 0.950 . S
C1340 C1339 1.414 . S
C1340 C1341 1.374 . S
C1341 H1321 0.950 . S
C1341 C1337 1.385 . S
C1341 C1340 1.374 . S
C1342 C1339 1.499 . S
C1342 C1343 1.373 . S
C1342 C1344 1.389 . S
C1343 H1322 0.950 . S
C1343 C1342 1.373 . S
C1343 C1359 1.377 . S
C1344 C1342 1.389 . S
C1344 C1345 1.524 . S
C1344 C1358 1.377 . S
C1345 C1344 1.524 . S
C1345 C1346 1.397 . S
C1345 C1350 1.363 1_655 S
C1346 H1323 0.950 . S
C1346 C1345 1.397 . S
C1346 C1347 1.334 . S
C1347 H1324 0.950 . S
C1347 C1346 1.334 . S
C1347 C1348 1.287 1_655 S
C1348 C1347 1.287 1_455 S
C1348 C1349 1.524 . S
C1348 H1367 0.913 . S
C1349 H1325 0.950 . S
C1349 C1348 1.524 . S
C1349 C1350 1.415 . S
C1350 H1326 0.950 . S
C1350 C1345 1.363 1_455 S
C1350 C1349 1.415 . S
C1351 H1327 0.951 . S
C1351 C1352 1.366 . S
C1351 C1353 1.388 . S
C1352 C1351 1.366 . S
C1352 C1356 1.385 . S
C1353 H1328 0.951 . S
C1353 C1351 1.388 . S
C1353 C1354 1.366 . S
C1354 C1353 1.366 . S
C1354 C1355 1.414 . S
C1354 C1357 1.499 . S
C1355 H1329 0.950 . S
C1355 C1354 1.414 . S
C1355 C1356 1.374 . S
C1356 H1330 0.950 . S
C1356 C1352 1.385 . S
C1356 C1355 1.374 . S
C1357 C1354 1.499 . S
C1357 C1358 1.373 . S
C1357 C1359 1.389 . S
C1358 H1331 0.950 . S
C1358 C1344 1.377 . S
C1358 C1357 1.373 . S
C1359 C1343 1.377 . S
C1359 C1357 1.389 . S
C1359 C1360 1.524 . S
C1360 C1359 1.524 . S
C1360 C1361 1.397 . S
C1360 C1365 1.363 . S
C1361 H1332 0.950 . S
C1361 C1360 1.397 . S
C1361 C1362 1.334 . S
C1362 H1333 0.950 . S
C1362 C1361 1.334 . S
C1362 C1363 1.287 . S
C1363 C1362 1.287 . S
C1363 C1364 1.524 . S
C1363 H1366 0.999 . S
C1364 H1334 0.950 . S
C1364 C1363 1.524 . S
C1364 C1365 1.415 . S
C1365 H1335 0.950 . S
C1365 C1360 1.363 . S
C1365 C1364 1.415 . S
H1366 C1363 0.999 . S
H1367 C1348 0.913 . S
H1368 C1386 0.950 . S
H1369 C1388 0.951 . S
H1370 C1390 0.950 . S
H1371 C1391 0.950 . S
H1372 C1393 0.950 . S
H1373 C1396 0.950 . S
H1374 C1397 0.950 . S
H1375 C1399 0.950 . S
H1376 C1400 0.932 1_655 S
H1377 C1401 0.951 . S
H1378 C1403 0.951 . S
H1379 C1405 0.950 . S
H1380 C1406 0.950 . S
H1381 C1408 0.950 . S
H1382 C1411 0.950 . S
H1383 C1412 0.950 . S
H1384 C1414 0.950 . S
H1385 C1415 0.950 . S
C1386 H1368 0.950 . S
C1386 C1387 1.366 . S
C1386 C1388 1.388 . S
C1387 C1386 1.366 . S
C1387 C1391 1.385 . S
C1388 H1369 0.951 . S
C1388 C1386 1.388 . S
C1388 C1389 1.366 . S
C1389 C1388 1.366 . S
C1389 C1390 1.414 . S
C1389 C1392 1.499 . S
C1390 H1370 0.950 . S
C1390 C1389 1.414 . S
C1390 C1391 1.374 . S
C1391 H1371 0.950 . S
C1391 C1387 1.385 . S
C1391 C1390 1.374 . S
C1392 C1389 1.499 . S
C1392 C1393 1.373 . S
C1392 C1394 1.389 . S
C1393 H1372 0.950 . S
C1393 C1392 1.373 . S
C1393 C1409 1.377 . S
C1394 C1392 1.389 . S
C1394 C1395 1.524 1_655 S
C1394 C1408 1.377 . S
C1395 C1394 1.524 1_455 S
C1395 C1396 1.397 . S
C1395 C1400 1.363 . S
C1396 H1373 0.950 . S
C1396 C1395 1.397 . S
C1396 C1397 1.334 . S
C1397 H1374 0.950 . S
C1397 C1396 1.334 . S
C1397 C1398 1.287 . S
C1398 C1397 1.287 . S
C1398 C1399 1.524 . S
C1398 H1417 0.913 . S
C1399 H1375 0.950 . S
C1399 C1398 1.524 . S
C1399 C1400 1.415 . S
C1400 H1376 0.932 1_455 S
C1400 C1395 1.363 . S
C1400 C1399 1.415 . S
C1401 H1377 0.951 . S
C1401 C1402 1.366 . S
C1401 C1403 1.388 . S
C1402 C1401 1.366 . S
C1402 C1406 1.385 . S
C1403 H1378 0.951 . S
C1403 C1401 1.388 . S
C1403 C1404 1.366 . S
C1404 C1403 1.366 . S
C1404 C1405 1.414 . S
C1404 C1407 1.499 . S
C1405 H1379 0.950 . S
C1405 C1404 1.414 . S
C1405 C1406 1.374 . S
C1406 H1380 0.950 . S
C1406 C1402 1.385 . S
C1406 C1405 1.374 . S
C1407 C1404 1.499 . S
C1407 C1408 1.373 . S
C1407 C1409 1.389 . S
C1408 H1381 0.950 . S
C1408 C1394 1.377 . S
C1408 C1407 1.373 . S
C1409 C1393 1.377 . S
C1409 C1407 1.389 . S
C1409 C1410 1.524 . S
C1410 C1409 1.524 . S
C1410 C1411 1.397 . S
C1410 C1415 1.363 . S
C1411 H1382 0.950 . S
C1411 C1410 1.397 . S
C1411 C1412 1.334 . S
C1412 H1383 0.950 . S
C1412 C1411 1.334 . S
C1412 C1413 1.287 . S
C1413 C1412 1.287 . S
C1413 C1414 1.524 . S
C1413 H1416 0.999 . S
C1414 H1384 0.950 . S
C1414 C1413 1.524 . S
C1414 C1415 1.415 . S
C1415 H1385 0.950 . S
C1415 C1410 1.363 . S
C1415 C1414 1.415 . S
H1416 C1413 0.999 . S
H1417 C1398 0.913 . S
H1418 C1436 0.951 . S
H1419 C1438 0.951 . S
H1420 C1440 0.950 . S
H1421 C1441 0.950 . S
H1422 C1443 0.950 . S
H1423 C1446 0.950 . S
H1424 C1447 0.950 . S
H1425 C1449 0.950 . S
H1426 C1450 0.950 . S
H1427 C1451 0.951 . S
H1428 C1453 0.951 . S
H1429 C1455 0.950 . S
H1430 C1456 0.950 . S
H1431 C1458 0.950 . S
H1432 C1461 0.950 . S
H1433 C1462 0.950 . S
H1434 C1464 0.950 . S
H1435 C1465 0.950 . S
C1436 H1418 0.951 . S
C1436 C1437 1.366 . S
C1436 C1438 1.388 . S
C1437 C1436 1.366 . S
C1437 C1441 1.385 . S
C1438 H1419 0.951 . S
C1438 C1436 1.388 . S
C1438 C1439 1.366 . S
C1439 C1438 1.366 . S
C1439 C1440 1.414 . S
C1439 C1442 1.499 . S
C1440 H1420 0.950 . S
C1440 C1439 1.414 . S
C1440 C1441 1.374 . S
C1441 H1421 0.950 . S
C1441 C1437 1.385 . S
C1441 C1440 1.374 . S
C1442 C1439 1.499 . S
C1442 C1443 1.373 . S
C1442 C1444 1.389 . S
C1443 H1422 0.950 . S
C1443 C1442 1.373 . S
C1443 C1459 1.377 . S
C1444 C1442 1.389 . S
C1444 C1445 1.524 . S
C1444 C1458 1.377 . S
C1445 C1444 1.524 . S
C1445 C1446 1.397 . S
C1445 C1450 1.363 . S
C1446 H1423 0.950 . S
C1446 C1445 1.397 . S
C1446 C1447 1.334 1_565 S
C1447 H1424 0.950 . S
C1447 C1446 1.334 1_545 S
C1447 C1448 1.287 . S
C1448 C1447 1.287 . S
C1448 C1449 1.524 . S
C1448 H1467 0.913 . S
C1449 H1425 0.950 . S
C1449 C1448 1.524 . S
C1449 C1450 1.415 1_545 S
C1450 H1426 0.950 . S
C1450 C1445 1.363 . S
C1450 C1449 1.415 1_565 S
C1451 H1427 0.951 . S
C1451 C1452 1.366 . S
C1451 C1453 1.388 . S
C1452 C1451 1.366 . S
C1452 C1456 1.385 . S
C1453 H1428 0.951 . S
C1453 C1451 1.388 . S
C1453 C1454 1.366 . S
C1454 C1453 1.366 . S
C1454 C1455 1.414 . S
C1454 C1457 1.499 . S
C1455 H1429 0.950 . S
C1455 C1454 1.414 . S
C1455 C1456 1.374 . S
C1456 H1430 0.950 . S
C1456 C1452 1.385 . S
C1456 C1455 1.374 . S
C1457 C1454 1.499 . S
C1457 C1458 1.373 . S
C1457 C1459 1.389 . S
C1458 H1431 0.950 . S
C1458 C1444 1.377 . S
C1458 C1457 1.373 . S
C1459 C1443 1.377 . S
C1459 C1457 1.389 . S
C1459 C1460 1.524 . S
C1460 C1459 1.524 . S
C1460 C1461 1.397 . S
C1460 C1465 1.363 . S
C1461 H1432 0.950 . S
C1461 C1460 1.397 . S
C1461 C1462 1.334 . S
C1462 H1433 0.950 . S
C1462 C1461 1.334 . S
C1462 C1463 1.287 . S
C1463 C1462 1.287 . S
C1463 C1464 1.524 . S
C1463 H1466 0.999 . S
C1464 H1434 0.950 . S
C1464 C1463 1.524 . S
C1464 C1465 1.415 . S
C1465 H1435 0.950 . S
C1465 C1460 1.363 . S
C1465 C1464 1.415 . S
H1466 C1463 0.999 . S
H1467 C1448 0.913 . S
H1468 C1486 0.951 . S
H1469 C1488 0.951 . S
H1470 C1490 0.950 . S
H1471 C1491 0.950 . S
H1472 C1493 0.950 . S
H1473 C1496 0.950 . S
H1474 C1497 0.950 . S
H1475 C1499 0.950 1_554 S
H1476 C1500 0.950 . S
H1477 C1501 0.951 . S
H1478 C1503 0.951 . S
H1479 C1505 0.950 . S
H1480 C1506 0.950 . S
H1481 C1508 0.950 . S
H1482 C1511 0.950 . S
H1483 C1512 0.950 . S
H1484 C1514 0.950 . S
H1485 C1515 0.950 . S
C1486 H1468 0.951 . S
C1486 C1487 1.366 . S
C1486 C1488 1.388 . S
C1487 C1486 1.366 . S
C1487 C1491 1.385 . S
C1488 H1469 0.951 . S
C1488 C1486 1.388 . S
C1488 C1489 1.366 . S
C1489 C1488 1.366 . S
C1489 C1490 1.414 . S
C1489 C1492 1.499 . S
C1490 H1470 0.950 . S
C1490 C1489 1.414 . S
C1490 C1491 1.374 . S
C1491 H1471 0.950 . S
C1491 C1487 1.385 . S
C1491 C1490 1.374 . S
C1492 C1489 1.499 . S
C1492 C1493 1.373 . S
C1492 C1494 1.389 . S
C1493 H1472 0.950 . S
C1493 C1492 1.373 . S
C1493 C1509 1.377 . S
C1494 C1492 1.389 . S
C1494 C1495 1.524 . S
C1494 C1508 1.377 . S
C1495 C1494 1.524 . S
C1495 C1496 1.397 . S
C1495 C1500 1.363 . S
C1496 H1473 0.950 . S
C1496 C1495 1.397 . S
C1496 C1497 1.334 . S
C1497 H1474 0.950 . S
C1497 C1496 1.334 . S
C1497 C1498 1.287 . S
C1498 C1497 1.287 . S
C1498 C1499 1.524 . S
C1498 H1517 0.913 1_556 S
C1499 H1475 0.950 1_556 S
C1499 C1498 1.524 . S
C1499 C1500 1.415 . S
C1500 H1476 0.950 . S
C1500 C1495 1.363 . S
C1500 C1499 1.415 . S
C1501 H1477 0.951 . S
C1501 C1502 1.366 . S
C1501 C1503 1.388 . S
C1502 C1501 1.366 . S
C1502 C1506 1.385 . S
C1503 H1478 0.951 . S
C1503 C1501 1.388 . S
C1503 C1504 1.366 . S
C1504 C1503 1.366 . S
C1504 C1505 1.414 . S
C1504 C1507 1.499 . S
C1505 H1479 0.950 . S
C1505 C1504 1.414 . S
C1505 C1506 1.374 . S
C1506 H1480 0.950 . S
C1506 C1502 1.385 . S
C1506 C1505 1.374 . S
C1507 C1504 1.499 . S
C1507 C1508 1.373 . S
C1507 C1509 1.389 . S
C1508 H1481 0.950 . S
C1508 C1494 1.377 . S
C1508 C1507 1.373 . S
C1509 C1493 1.377 . S
C1509 C1507 1.389 . S
C1509 C1510 1.524 . S
C1510 C1509 1.524 . S
C1510 C1511 1.397 . S
C1510 C1515 1.363 . S
C1511 H1482 0.950 . S
C1511 C1510 1.397 . S
C1511 C1512 1.334 . S
C1512 H1483 0.950 . S
C1512 C1511 1.334 . S
C1512 C1513 1.287 . S
C1513 C1512 1.287 . S
C1513 C1514 1.524 . S
C1513 H1516 0.999 . S
C1514 H1484 0.950 . S
C1514 C1513 1.524 . S
C1514 C1515 1.415 . S
C1515 H1485 0.950 . S
C1515 C1510 1.363 . S
C1515 C1514 1.415 . S
H1516 C1513 0.999 . S
H1517 C1498 0.913 1_554 S
H1518 C1536 0.951 . S
H1519 C1538 0.951 . S
H1520 C1540 0.950 . S
H1521 C1541 0.950 . S
H1522 C1543 0.950 . S
H1523 C1546 0.950 . S
H1524 C1547 0.950 . S
H1525 C1549 0.950 1_655 S
H1526 C1550 0.950 . S
H1527 C1551 0.951 . S
H1528 C1553 0.951 . S
H1529 C1555 0.950 . S
H1530 C1556 0.950 . S
H1531 C1558 0.950 . S
H1532 C1561 0.950 . S
H1533 C1562 0.950 . S
H1534 C1564 0.950 . S
H1535 C1565 0.950 . S
C1536 H1518 0.951 . S
C1536 C1537 1.366 . S
C1536 C1538 1.388 . S
C1537 C1536 1.366 . S
C1537 C1541 1.385 . S
C1538 H1519 0.951 . S
C1538 C1536 1.388 . S
C1538 C1539 1.366 . S
C1539 C1538 1.366 . S
C1539 C1540 1.414 . S
C1539 C1542 1.499 . S
C1540 H1520 0.950 . S
C1540 C1539 1.414 . S
C1540 C1541 1.374 . S
C1541 H1521 0.950 . S
C1541 C1537 1.385 . S
C1541 C1540 1.374 . S
C1542 C1539 1.499 . S
C1542 C1543 1.373 . S
C1542 C1544 1.389 . S
C1543 H1522 0.950 . S
C1543 C1542 1.373 . S
C1543 C1559 1.377 . S
C1544 C1542 1.389 . S
C1544 C1545 1.524 . S
C1544 C1558 1.377 . S
C1545 C1544 1.524 . S
C1545 C1546 1.397 . S
C1545 C1550 1.363 . S
C1546 H1523 0.950 . S
C1546 C1545 1.397 . S
C1546 C1547 1.334 . S
C1547 H1524 0.950 . S
C1547 C1546 1.334 . S
C1547 C1548 1.287 . S
C1548 C1547 1.287 . S
C1548 C1549 1.524 . S
C1548 H1567 0.913 . S
C1549 H1525 0.950 1_455 S
C1549 C1548 1.524 . S
C1549 C1550 1.415 . S
C1550 H1526 0.950 . S
C1550 C1545 1.363 . S
C1550 C1549 1.415 . S
C1551 H1527 0.951 . S
C1551 C1552 1.366 . S
C1551 C1553 1.388 . S
C1552 C1551 1.366 . S
C1552 C1556 1.385 . S
C1553 H1528 0.951 . S
C1553 C1551 1.388 . S
C1553 C1554 1.366 . S
C1554 C1553 1.366 . S
C1554 C1555 1.414 . S
C1554 C1557 1.499 . S
C1555 H1529 0.950 . S
C1555 C1554 1.414 . S
C1555 C1556 1.374 . S
C1556 H1530 0.950 . S
C1556 C1552 1.385 . S
C1556 C1555 1.374 . S
C1557 C1554 1.499 . S
C1557 C1558 1.373 . S
C1557 C1559 1.389 . S
C1558 H1531 0.950 . S
C1558 C1544 1.377 . S
C1558 C1557 1.373 . S
C1559 C1543 1.377 . S
C1559 C1557 1.389 . S
C1559 C1560 1.524 . S
C1560 C1559 1.524 . S
C1560 C1561 1.397 . S
C1560 C1565 1.363 . S
C1561 H1532 0.950 . S
C1561 C1560 1.397 . S
C1561 C1562 1.334 . S
C1562 H1533 0.950 . S
C1562 C1561 1.334 . S
C1562 C1563 1.287 . S
C1563 C1562 1.287 . S
C1563 C1564 1.524 . S
C1563 H1566 0.999 . S
C1564 H1534 0.950 . S
C1564 C1563 1.524 . S
C1564 C1565 1.415 . S
C1565 H1535 0.950 . S
C1565 C1560 1.363 . S
C1565 C1564 1.415 . S
H1566 C1563 0.999 . S
H1567 C1548 0.913 . S
H1568 C1586 0.951 . S
H1569 C1588 0.951 . S
H1570 C1590 0.950 . S
H1571 C1591 0.950 . S
H1572 C1593 0.950 . S
H1573 C1596 0.950 . S
H1574 C1597 0.950 . S
H1575 C1599 0.950 . S
H1576 C1600 0.950 . S
H1577 C1601 0.951 . S
H1578 C1603 0.951 . S
H1579 C1605 0.950 . S
H1580 C1606 0.950 . S
H1581 C1608 0.950 . S
H1582 C1611 0.950 . S
H1583 C1612 0.950 . S
H1584 C1614 0.950 1_565 S
H1585 C1615 0.950 . S
C1586 H1568 0.951 . S
C1586 C1587 1.366 . S
C1586 C1588 1.388 . S
C1587 C1586 1.366 . S
C1587 C1591 1.385 . S
C1588 H1569 0.951 . S
C1588 C1586 1.388 . S
C1588 C1589 1.366 . S
C1589 C1588 1.366 . S
C1589 C1590 1.414 . S
C1589 C1592 1.499 . S
C1590 H1570 0.950 . S
C1590 C1589 1.414 . S
C1590 C1591 1.374 . S
C1591 H1571 0.950 . S
C1591 C1587 1.385 . S
C1591 C1590 1.374 . S
C1592 C1589 1.499 . S
C1592 C1593 1.373 . S
C1592 C1594 1.389 . S
C1593 H1572 0.950 . S
C1593 C1592 1.373 . S
C1593 C1609 1.377 . S
C1594 C1592 1.389 . S
C1594 C1595 1.524 . S
C1594 C1608 1.377 . S
C1595 C1594 1.524 . S
C1595 C1596 1.397 . S
C1595 C1600 1.363 . S
C1596 H1573 0.950 . S
C1596 C1595 1.397 . S
C1596 C1597 1.334 . S
C1597 H1574 0.950 . S
C1597 C1596 1.334 . S
C1597 C1598 1.287 . S
C1598 C1597 1.287 . S
C1598 C1599 1.524 . S
C1598 H1617 0.913 . S
C1599 H1575 0.950 . S
C1599 C1598 1.524 . S
C1599 C1600 1.415 . S
C1600 H1576 0.950 . S
C1600 C1595 1.363 . S
C1600 C1599 1.415 . S
C1601 H1577 0.951 . S
C1601 C1602 1.366 . S
C1601 C1603 1.388 . S
C1602 C1601 1.366 . S
C1602 C1606 1.385 . S
C1603 H1578 0.951 . S
C1603 C1601 1.388 . S
C1603 C1604 1.366 . S
C1604 C1603 1.366 . S
C1604 C1605 1.414 . S
C1604 C1607 1.499 . S
C1605 H1579 0.950 . S
C1605 C1604 1.414 . S
C1605 C1606 1.374 . S
C1606 H1580 0.950 . S
C1606 C1602 1.385 . S
C1606 C1605 1.374 . S
C1607 C1604 1.499 . S
C1607 C1608 1.373 . S
C1607 C1609 1.389 . S
C1608 H1581 0.950 . S
C1608 C1594 1.377 . S
C1608 C1607 1.373 . S
C1609 C1593 1.377 . S
C1609 C1607 1.389 . S
C1609 C1610 1.524 . S
C1610 C1609 1.524 . S
C1610 C1611 1.397 . S
C1610 C1615 1.363 . S
C1611 H1582 0.950 . S
C1611 C1610 1.397 . S
C1611 C1612 1.334 . S
C1612 H1583 0.950 . S
C1612 C1611 1.334 . S
C1612 C1613 1.284 1_545 S
C1613 C1612 1.284 1_565 S
C1613 C1614 1.515 1_565 S
C1613 H1616 1.011 . S
C1614 H1584 0.950 1_545 S
C1614 C1613 1.515 1_545 S
C1614 C1615 1.415 . S
C1615 H1585 0.950 . S
C1615 C1610 1.363 . S
C1615 C1614 1.415 . S
H1616 C1613 1.011 . S
H1617 C1598 0.913 . S
H1618 C1636 0.951 . S
H1619 C1638 0.951 . S
H1620 C1640 0.950 . S
H1621 C1641 0.950 . S
H1622 C1643 0.950 . S
H1623 C1646 0.950 . S
H1624 C1647 0.950 . S
H1625 C1649 0.950 . S
H1626 C1650 0.950 . S
H1627 C1651 0.951 . S
H1628 C1653 0.951 . S
H1629 C1655 0.950 . S
H1630 C1656 0.950 . S
H1631 C1658 0.950 . S
H1632 C1661 0.950 . S
H1633 C1662 0.950 . S
H1634 C1664 0.950 . S
H1635 C1665 0.950 . S
C1636 H1618 0.951 . S
C1636 C1637 1.366 . S
C1636 C1638 1.388 . S
C1637 C1636 1.366 . S
C1637 C1641 1.385 . S
C1638 H1619 0.951 . S
C1638 C1636 1.388 . S
C1638 C1639 1.366 . S
C1639 C1638 1.366 . S
C1639 C1640 1.414 . S
C1639 C1642 1.499 . S
C1640 H1620 0.950 . S
C1640 C1639 1.414 . S
C1640 C1641 1.374 . S
C1641 H1621 0.950 . S
C1641 C1637 1.385 . S
C1641 C1640 1.374 . S
C1642 C1639 1.499 . S
C1642 C1643 1.373 . S
C1642 C1644 1.389 . S
C1643 H1622 0.950 . S
C1643 C1642 1.373 . S
C1643 C1659 1.377 . S
C1644 C1642 1.389 . S
C1644 C1645 1.524 . S
C1644 C1658 1.377 . S
C1645 C1644 1.524 . S
C1645 C1646 1.397 . S
C1645 C1650 1.363 . S
C1646 H1623 0.950 . S
C1646 C1645 1.397 . S
C1646 C1647 1.334 . S
C1647 H1624 0.950 . S
C1647 C1646 1.334 . S
C1647 C1648 1.287 . S
C1648 C1647 1.287 . S
C1648 C1649 1.524 . S
C1648 H1667 0.913 . S
C1649 H1625 0.950 . S
C1649 C1648 1.524 . S
C1649 C1650 1.415 . S
C1650 H1626 0.950 . S
C1650 C1645 1.363 . S
C1650 C1649 1.415 . S
C1651 H1627 0.951 . S
C1651 C1652 1.366 . S
C1651 C1653 1.388 . S
C1652 C1651 1.366 . S
C1652 C1656 1.385 . S
C1653 H1628 0.951 . S
C1653 C1651 1.388 . S
C1653 C1654 1.366 . S
C1654 C1653 1.366 . S
C1654 C1655 1.414 . S
C1654 C1657 1.499 . S
C1655 H1629 0.950 . S
C1655 C1654 1.414 . S
C1655 C1656 1.374 . S
C1656 H1630 0.950 . S
C1656 C1652 1.385 . S
C1656 C1655 1.374 . S
C1657 C1654 1.499 . S
C1657 C1658 1.373 . S
C1657 C1659 1.389 . S
C1658 H1631 0.950 . S
C1658 C1644 1.377 . S
C1658 C1657 1.373 . S
C1659 C1643 1.377 . S
C1659 C1657 1.389 . S
C1659 C1660 1.524 . S
C1660 C1659 1.524 . S
C1660 C1661 1.397 . S
C1660 C1665 1.363 . S
C1661 H1632 0.950 . S
C1661 C1660 1.397 . S
C1661 C1662 1.334 . S
C1662 H1633 0.950 . S
C1662 C1661 1.334 . S
C1662 C1663 1.287 . S
C1663 C1662 1.287 . S
C1663 C1664 1.524 . S
C1663 H1666 0.999 . S
C1664 H1634 0.950 . S
C1664 C1663 1.524 . S
C1664 C1665 1.415 . S
C1665 H1635 0.950 . S
C1665 C1660 1.363 . S
C1665 C1664 1.415 . S
H1666 C1663 0.999 . S
H1667 C1648 0.913 . S
H1668 C1686 0.951 . S
H1669 C1688 0.951 . S
H1670 C1690 0.950 . S
H1671 C1691 0.950 . S
H1672 C1693 0.950 . S
H1673 C1696 0.950 . S
H1674 C1697 0.950 . S
H1675 C1699 0.950 . S
H1676 C1700 0.950 . S
H1677 C1701 0.951 . S
H1678 C1703 0.951 . S
H1679 C1705 0.950 . S
H1680 C1706 0.950 . S
H1681 C1708 0.950 . S
H1682 C1711 0.950 . S
H1683 C1712 0.950 . S
H1684 C1714 0.950 . S
H1685 C1715 0.950 . S
C1686 H1668 0.951 . S
C1686 C1687 1.366 . S
C1686 C1688 1.388 . S
C1687 C1686 1.366 . S
C1687 C1691 1.385 . S
C1688 H1669 0.951 . S
C1688 C1686 1.388 . S
C1688 C1689 1.366 . S
C1689 C1688 1.366 . S
C1689 C1690 1.414 . S
C1689 C1692 1.499 . S
C1690 H1670 0.950 . S
C1690 C1689 1.414 . S
C1690 C1691 1.374 . S
C1691 H1671 0.950 . S
C1691 C1687 1.385 . S
C1691 C1690 1.374 . S
C1692 C1689 1.499 . S
C1692 C1693 1.373 . S
C1692 C1694 1.389 . S
C1693 H1672 0.950 . S
C1693 C1692 1.373 . S
C1693 C1709 1.377 . S
C1694 C1692 1.389 . S
C1694 C1695 1.524 . S
C1694 C1708 1.377 . S
C1695 C1694 1.524 . S
C1695 C1696 1.397 . S
C1695 C1700 1.363 . S
C1696 H1673 0.950 . S
C1696 C1695 1.397 . S
C1696 C1697 1.334 . S
C1697 H1674 0.950 . S
C1697 C1696 1.334 . S
C1697 C1698 1.287 . S
C1698 C1697 1.287 . S
C1698 C1699 1.524 . S
C1698 H1717 0.913 . S
C1699 H1675 0.950 . S
C1699 C1698 1.524 . S
C1699 C1700 1.415 . S
C1700 H1676 0.950 . S
C1700 C1695 1.363 . S
C1700 C1699 1.415 . S
C1701 H1677 0.951 . S
C1701 C1702 1.366 . S
C1701 C1703 1.388 . S
C1702 C1701 1.366 . S
C1702 C1706 1.385 . S
C1703 H1678 0.951 . S
C1703 C1701 1.388 . S
C1703 C1704 1.366 . S
C1704 C1703 1.366 . S
C1704 C1705 1.414 . S
C1704 C1707 1.499 . S
C1705 H1679 0.950 . S
C1705 C1704 1.414 . S
C1705 C1706 1.374 . S
C1706 H1680 0.950 . S
C1706 C1702 1.385 . S
C1706 C1705 1.374 . S
C1707 C1704 1.499 . S
C1707 C1708 1.373 . S
C1707 C1709 1.389 . S
C1708 H1681 0.950 . S
C1708 C1694 1.377 . S
C1708 C1707 1.373 . S
C1709 C1693 1.377 . S
C1709 C1707 1.389 . S
C1709 C1710 1.524 . S
C1710 C1709 1.524 . S
C1710 C1711 1.397 . S
C1710 C1715 1.363 . S
C1711 H1682 0.950 . S
C1711 C1710 1.397 . S
C1711 C1712 1.334 . S
C1712 H1683 0.950 . S
C1712 C1711 1.334 . S
C1712 C1713 1.287 . S
C1713 C1712 1.287 . S
C1713 C1714 1.524 . S
C1713 H1716 0.999 . S
C1714 H1684 0.950 . S
C1714 C1713 1.524 . S
C1714 C1715 1.415 . S
C1715 H1685 0.950 . S
C1715 C1710 1.363 . S
C1715 C1714 1.415 . S
H1716 C1713 0.999 . S
H1717 C1698 0.913 . S
H1718 C1736 0.951 . S
H1719 C1738 0.951 . S
H1720 C1740 0.950 . S
H1721 C1741 0.950 . S
H1722 C1743 0.950 . S
H1723 C1746 0.950 . S
H1724 C1747 0.950 . S
H1725 C1749 0.950 . S
H1726 C1750 0.950 . S
H1727 C1751 0.951 . S
H1728 C1753 0.951 . S
H1729 C1755 0.950 . S
H1730 C1756 0.950 . S
H1731 C1758 0.950 . S
H1732 C1761 0.950 . S
H1733 C1762 0.950 . S
H1734 C1764 0.950 . S
H1735 C1765 0.950 . S
C1736 H1718 0.951 . S
C1736 C1737 1.366 . S
C1736 C1738 1.388 . S
C1737 C1736 1.366 . S
C1737 C1741 1.385 . S
C1738 H1719 0.951 . S
C1738 C1736 1.388 . S
C1738 C1739 1.366 . S
C1739 C1738 1.366 . S
C1739 C1740 1.414 . S
C1739 C1742 1.499 . S
C1740 H1720 0.950 . S
C1740 C1739 1.414 . S
C1740 C1741 1.374 . S
C1741 H1721 0.950 . S
C1741 C1737 1.385 . S
C1741 C1740 1.374 . S
C1742 C1739 1.499 . S
C1742 C1743 1.373 . S
C1742 C1744 1.389 . S
C1743 H1722 0.950 . S
C1743 C1742 1.373 . S
C1743 C1759 1.377 . S
C1744 C1742 1.389 . S
C1744 C1745 1.524 . S
C1744 C1758 1.377 . S
C1745 C1744 1.524 . S
C1745 C1746 1.397 . S
C1745 C1750 1.363 . S
C1746 H1723 0.950 . S
C1746 C1745 1.397 . S
C1746 C1747 1.334 . S
C1747 H1724 0.950 . S
C1747 C1746 1.334 . S
C1747 C1748 1.287 . S
C1748 C1747 1.287 . S
C1748 C1749 1.524 . S
C1748 H1767 0.913 . S
C1749 H1725 0.950 . S
C1749 C1748 1.524 . S
C1749 C1750 1.415 . S
C1750 H1726 0.950 . S
C1750 C1745 1.363 . S
C1750 C1749 1.415 . S
C1751 H1727 0.951 . S
C1751 C1752 1.366 . S
C1751 C1753 1.388 . S
C1752 C1751 1.366 . S
C1752 C1756 1.385 . S
C1753 H1728 0.951 . S
C1753 C1751 1.388 . S
C1753 C1754 1.366 . S
C1754 C1753 1.366 . S
C1754 C1755 1.414 . S
C1754 C1757 1.499 . S
C1755 H1729 0.950 . S
C1755 C1754 1.414 . S
C1755 C1756 1.374 . S
C1756 H1730 0.950 . S
C1756 C1752 1.385 . S
C1756 C1755 1.374 . S
C1757 C1754 1.499 . S
C1757 C1758 1.373 . S
C1757 C1759 1.389 . S
C1758 H1731 0.950 . S
C1758 C1744 1.377 . S
C1758 C1757 1.373 . S
C1759 C1743 1.377 . S
C1759 C1757 1.389 . S
C1759 C1760 1.524 . S
C1760 C1759 1.524 . S
C1760 C1761 1.397 . S
C1760 C1765 1.363 . S
C1761 H1732 0.950 . S
C1761 C1760 1.397 . S
C1761 C1762 1.334 . S
C1762 H1733 0.950 . S
C1762 C1761 1.334 . S
C1762 C1763 1.287 . S
C1763 C1762 1.287 . S
C1763 C1764 1.524 . S
C1763 H1766 0.999 . S
C1764 H1734 0.950 . S
C1764 C1763 1.524 . S
C1764 C1765 1.415 . S
C1765 H1735 0.950 . S
C1765 C1760 1.363 . S
C1765 C1764 1.415 . S
H1766 C1763 0.999 . S
H1767 C1748 0.913 . S
H1768 C1786 0.951 . S
H1769 C1788 0.951 . S
H1770 C1790 0.950 . S
H1771 C1791 0.950 . S
H1772 C1793 0.950 . S
H1773 C1796 0.950 . S
H1774 C1797 0.950 . S
H1775 C1799 0.950 . S
H1776 C1800 0.950 . S
H1777 C1801 0.951 . S
H1778 C1803 0.951 . S
H1779 C1805 0.950 . S
H1780 C1806 0.950 . S
H1781 C1808 0.950 . S
H1782 C1811 0.950 . S
H1783 C1812 0.950 . S
H1784 C1814 0.950 . S
H1785 C1815 0.950 . S
C1786 H1768 0.951 . S
C1786 C1787 1.366 . S
C1786 C1788 1.388 . S
C1787 C1786 1.366 . S
C1787 C1791 1.385 . S
C1788 H1769 0.951 . S
C1788 C1786 1.388 . S
C1788 C1789 1.366 . S
C1789 C1788 1.366 . S
C1789 C1790 1.414 . S
C1789 C1792 1.499 . S
C1790 H1770 0.950 . S
C1790 C1789 1.414 . S
C1790 C1791 1.374 . S
C1791 H1771 0.950 . S
C1791 C1787 1.385 . S
C1791 C1790 1.374 . S
C1792 C1789 1.499 . S
C1792 C1793 1.373 . S
C1792 C1794 1.389 . S
C1793 H1772 0.950 . S
C1793 C1792 1.373 . S
C1793 C1809 1.377 . S
C1794 C1792 1.389 . S
C1794 C1795 1.524 . S
C1794 C1808 1.377 . S
C1795 C1794 1.524 . S
C1795 C1796 1.397 . S
C1795 C1800 1.363 . S
C1796 H1773 0.950 . S
C1796 C1795 1.397 . S
C1796 C1797 1.334 . S
C1797 H1774 0.950 . S
C1797 C1796 1.334 . S
C1797 C1798 1.287 . S
C1798 C1797 1.287 . S
C1798 C1799 1.524 . S
C1798 H1817 0.913 . S
C1799 H1775 0.950 . S
C1799 C1798 1.524 . S
C1799 C1800 1.415 . S
C1800 H1776 0.950 . S
C1800 C1795 1.363 . S
C1800 C1799 1.415 . S
C1801 H1777 0.951 . S
C1801 C1802 1.366 . S
C1801 C1803 1.388 . S
C1802 C1801 1.366 . S
C1802 C1806 1.385 . S
C1803 H1778 0.951 . S
C1803 C1801 1.388 . S
C1803 C1804 1.366 . S
C1804 C1803 1.366 . S
C1804 C1805 1.414 . S
C1804 C1807 1.499 . S
C1805 H1779 0.950 . S
C1805 C1804 1.414 . S
C1805 C1806 1.374 . S
C1806 H1780 0.950 . S
C1806 C1802 1.385 . S
C1806 C1805 1.374 . S
C1807 C1804 1.499 . S
C1807 C1808 1.373 . S
C1807 C1809 1.389 . S
C1808 H1781 0.950 . S
C1808 C1794 1.377 . S
C1808 C1807 1.373 . S
C1809 C1793 1.377 . S
C1809 C1807 1.389 . S
C1809 C1810 1.524 . S
C1810 C1809 1.524 . S
C1810 C1811 1.397 . S
C1810 C1815 1.363 . S
C1811 H1782 0.950 . S
C1811 C1810 1.397 . S
C1811 C1812 1.334 . S
C1812 H1783 0.950 . S
C1812 C1811 1.334 . S
C1812 C1813 1.287 . S
C1813 C1812 1.287 . S
C1813 C1814 1.524 . S
C1813 H1816 0.999 . S
C1814 H1784 0.950 . S
C1814 C1813 1.524 . S
C1814 C1815 1.415 . S
C1815 H1785 0.950 . S
C1815 C1810 1.363 . S
C1815 C1814 1.415 . S
H1816 C1813 0.999 . S
H1817 C1798 0.913 . S
H1818 C1836 0.951 . S
H1819 C1838 0.951 . S
H1820 C1840 0.950 . S
H1821 C1841 0.950 . S
H1822 C1843 0.950 . S
H1823 C1846 0.950 . S
H1824 C1847 0.948 1_545 S
H1825 C1849 0.950 . S
H1826 C1850 0.950 . S
H1827 C1851 0.951 . S
H1828 C1853 0.951 . S
H1829 C1855 0.950 . S
H1830 C1856 0.950 . S
H1831 C1858 0.950 . S
H1832 C1861 0.950 . S
H1833 C1862 0.950 . S
H1834 C1864 0.950 . S
H1835 C1865 0.950 . S
C1836 H1818 0.951 . S
C1836 C1837 1.366 . S
C1836 C1838 1.388 . S
C1837 C1836 1.366 . S
C1837 C1841 1.385 . S
C1838 H1819 0.951 . S
C1838 C1836 1.388 . S
C1838 C1839 1.366 . S
C1839 C1838 1.366 . S
C1839 C1840 1.414 . S
C1839 C1842 1.499 . S
C1840 H1820 0.950 . S
C1840 C1839 1.414 . S
C1840 C1841 1.374 . S
C1841 H1821 0.950 . S
C1841 C1837 1.385 . S
C1841 C1840 1.374 . S
C1842 C1839 1.499 . S
C1842 C1843 1.373 . S
C1842 C1844 1.389 . S
C1843 H1822 0.950 . S
C1843 C1842 1.373 . S
C1843 C1859 1.377 . S
C1844 C1842 1.389 . S
C1844 C1845 1.524 . S
C1844 C1858 1.377 . S
C1845 C1844 1.524 . S
C1845 C1846 1.397 . S
C1845 C1850 1.363 . S
C1846 H1823 0.950 . S
C1846 C1845 1.397 . S
C1846 C1847 1.336 . S
C1847 H1824 0.948 1_565 S
C1847 C1846 1.336 . S
C1847 C1848 1.287 . S
C1848 C1847 1.287 . S
C1848 C1849 1.524 . S
C1848 H1867 0.884 1_565 S
C1849 H1825 0.950 . S
C1849 C1848 1.524 . S
C1849 C1850 1.415 . S
C1850 H1826 0.950 . S
C1850 C1845 1.363 . S
C1850 C1849 1.415 . S
C1851 H1827 0.951 . S
C1851 C1852 1.366 . S
C1851 C1853 1.388 . S
C1852 C1851 1.366 . S
C1852 C1856 1.385 . S
C1853 H1828 0.951 . S
C1853 C1851 1.388 . S
C1853 C1854 1.366 . S
C1854 C1853 1.366 . S
C1854 C1855 1.414 . S
C1854 C1857 1.499 . S
C1855 H1829 0.950 . S
C1855 C1854 1.414 . S
C1855 C1856 1.374 . S
C1856 H1830 0.950 . S
C1856 C1852 1.385 . S
C1856 C1855 1.374 . S
C1857 C1854 1.499 . S
C1857 C1858 1.373 . S
C1857 C1859 1.389 . S
C1858 H1831 0.950 . S
C1858 C1844 1.377 . S
C1858 C1857 1.373 . S
C1859 C1843 1.377 . S
C1859 C1857 1.389 . S
C1859 C1860 1.524 . S
C1860 C1859 1.524 . S
C1860 C1861 1.397 . S
C1860 C1865 1.363 . S
C1861 H1832 0.950 . S
C1861 C1860 1.397 . S
C1861 C1862 1.334 . S
C1862 H1833 0.950 . S
C1862 C1861 1.334 . S
C1862 C1863 1.287 . S
C1863 C1862 1.287 . S
C1863 C1864 1.524 . S
C1863 H1866 0.999 . S
C1864 H1834 0.950 . S
C1864 C1863 1.524 . S
C1864 C1865 1.415 . S
C1865 H1835 0.950 . S
C1865 C1860 1.363 . S
C1865 C1864 1.415 . S
H1866 C1863 0.999 . S
H1867 C1848 0.884 1_545 S
H1868 C1886 0.951 . S
H1869 C1888 0.951 . S
H1870 C1890 0.950 . S
H1871 C1891 0.950 . S
H1872 C1893 0.950 . S
H1873 C1896 0.950 . S
H1874 C1897 0.950 . S
H1875 C1899 0.950 . S
H1876 C1900 0.950 . S
H1877 C1901 0.951 . S
H1878 C1903 0.951 . S
H1879 C1905 0.950 . S
H1880 C1906 0.950 . S
H1881 C1908 0.950 . S
H1882 C1911 0.950 . S
H1883 C1912 0.950 . S
H1884 C1914 0.950 . S
H1885 C1915 0.950 . S
C1886 H1868 0.951 . S
C1886 C1887 1.366 . S
C1886 C1888 1.388 . S
C1887 C1886 1.366 . S
C1887 C1891 1.385 . S
C1888 H1869 0.951 . S
C1888 C1886 1.388 . S
C1888 C1889 1.366 . S
C1889 C1888 1.366 . S
C1889 C1890 1.414 . S
C1889 C1892 1.499 . S
C1890 H1870 0.950 . S
C1890 C1889 1.414 . S
C1890 C1891 1.374 . S
C1891 H1871 0.950 . S
C1891 C1887 1.385 . S
C1891 C1890 1.374 . S
C1892 C1889 1.499 . S
C1892 C1893 1.373 . S
C1892 C1894 1.389 . S
C1893 H1872 0.950 . S
C1893 C1892 1.373 . S
C1893 C1909 1.377 . S
C1894 C1892 1.389 . S
C1894 C1895 1.524 . S
C1894 C1908 1.377 . S
C1895 C1894 1.524 . S
C1895 C1896 1.397 . S
C1895 C1900 1.363 . S
C1896 H1873 0.950 . S
C1896 C1895 1.397 . S
C1896 C1897 1.334 . S
C1897 H1874 0.950 . S
C1897 C1896 1.334 . S
C1897 C1898 1.287 . S
C1898 C1897 1.287 . S
C1898 C1899 1.524 . S
C1898 H1917 0.913 . S
C1899 H1875 0.950 . S
C1899 C1898 1.524 . S
C1899 C1900 1.415 . S
C1900 H1876 0.950 . S
C1900 C1895 1.363 . S
C1900 C1899 1.415 . S
C1901 H1877 0.951 . S
C1901 C1902 1.366 . S
C1901 C1903 1.388 . S
C1902 C1901 1.366 . S
C1902 C1906 1.385 . S
C1903 H1878 0.951 . S
C1903 C1901 1.388 . S
C1903 C1904 1.366 . S
C1904 C1903 1.366 . S
C1904 C1905 1.414 . S
C1904 C1907 1.499 . S
C1905 H1879 0.950 . S
C1905 C1904 1.414 . S
C1905 C1906 1.374 . S
C1906 H1880 0.950 . S
C1906 C1902 1.385 . S
C1906 C1905 1.374 . S
C1907 C1904 1.499 . S
C1907 C1908 1.373 . S
C1907 C1909 1.389 . S
C1908 H1881 0.950 . S
C1908 C1894 1.377 . S
C1908 C1907 1.373 . S
C1909 C1893 1.377 . S
C1909 C1907 1.389 . S
C1909 C1910 1.524 . S
C1910 C1909 1.524 . S
C1910 C1911 1.397 . S
C1910 C1915 1.363 . S
C1911 H1882 0.950 . S
C1911 C1910 1.397 . S
C1911 C1912 1.334 . S
C1912 H1883 0.950 . S
C1912 C1911 1.334 . S
C1912 C1913 1.287 . S
C1913 C1912 1.287 . S
C1913 C1914 1.524 . S
C1913 H1916 0.999 . S
C1914 H1884 0.950 . S
C1914 C1913 1.524 . S
C1914 C1915 1.415 . S
C1915 H1885 0.950 . S
C1915 C1910 1.363 . S
C1915 C1914 1.415 . S
H1916 C1913 0.999 . S
H1917 C1898 0.913 . S
H1918 C1936 0.951 . S
H1919 C1938 0.951 . S
H1920 C1940 0.950 . S
H1921 C1941 0.950 . S
H1922 C1943 0.950 . S
H1923 C1946 0.950 . S
H1924 C1947 0.950 . S
H1925 C1949 0.950 . S
H1926 C1950 0.950 . S
H1927 C1951 0.951 . S
H1928 C1953 0.951 . S
H1929 C1955 0.950 . S
H1930 C1956 0.950 . S
H1931 C1958 0.950 . S
H1932 C1961 0.950 . S
H1933 C1962 0.950 . S
H1934 C1964 0.950 . S
H1935 C1965 0.950 . S
C1936 H1918 0.951 . S
C1936 C1937 1.366 . S
C1936 C1938 1.388 . S
C1937 C1936 1.366 . S
C1937 C1941 1.385 . S
C1938 H1919 0.951 . S
C1938 C1936 1.388 . S
C1938 C1939 1.366 . S
C1939 C1938 1.366 . S
C1939 C1940 1.414 . S
C1939 C1942 1.499 . S
C1940 H1920 0.950 . S
C1940 C1939 1.414 . S
C1940 C1941 1.374 . S
C1941 H1921 0.950 . S
C1941 C1937 1.385 . S
C1941 C1940 1.374 . S
C1942 C1939 1.499 . S
C1942 C1943 1.373 . S
C1942 C1944 1.389 . S
C1943 H1922 0.950 . S
C1943 C1942 1.373 . S
C1943 C1959 1.377 . S
C1944 C1942 1.389 . S
C1944 C1945 1.524 . S
C1944 C1958 1.377 . S
C1945 C1944 1.524 . S
C1945 C1946 1.397 . S
C1945 C1950 1.363 . S
C1946 H1923 0.950 . S
C1946 C1945 1.397 . S
C1946 C1947 1.334 . S
C1947 H1924 0.950 . S
C1947 C1946 1.334 . S
C1947 C1948 1.287 . S
C1948 C1947 1.287 . S
C1948 C1949 1.524 . S
C1948 H1967 0.913 . S
C1949 H1925 0.950 . S
C1949 C1948 1.524 . S
C1949 C1950 1.415 . S
C1950 H1926 0.950 . S
C1950 C1945 1.363 . S
C1950 C1949 1.415 . S
C1951 H1927 0.951 . S
C1951 C1952 1.366 . S
C1951 C1953 1.388 . S
C1952 C1951 1.366 . S
C1952 C1956 1.385 . S
C1953 H1928 0.951 . S
C1953 C1951 1.388 . S
C1953 C1954 1.366 . S
C1954 C1953 1.366 . S
C1954 C1955 1.414 . S
C1954 C1957 1.499 . S
C1955 H1929 0.950 . S
C1955 C1954 1.414 . S
C1955 C1956 1.374 . S
C1956 H1930 0.950 . S
C1956 C1952 1.385 . S
C1956 C1955 1.374 . S
C1957 C1954 1.499 . S
C1957 C1958 1.373 . S
C1957 C1959 1.389 . S
C1958 H1931 0.950 . S
C1958 C1944 1.377 . S
C1958 C1957 1.373 . S
C1959 C1943 1.377 . S
C1959 C1957 1.389 . S
C1959 C1960 1.524 . S
C1960 C1959 1.524 . S
C1960 C1961 1.397 . S
C1960 C1965 1.363 . S
C1961 H1932 0.950 . S
C1961 C1960 1.397 . S
C1961 C1962 1.334 . S
C1962 H1933 0.950 . S
C1962 C1961 1.334 . S
C1962 C1963 1.287 . S
C1963 C1962 1.287 . S
C1963 C1964 1.524 . S
C1963 H1966 0.999 . S
C1964 H1934 0.950 . S
C1964 C1963 1.524 . S
C1964 C1965 1.415 . S
C1965 H1935 0.950 . S
C1965 C1960 1.363 . S
C1965 C1964 1.415 . S
H1966 C1963 0.999 . S
H1967 C1948 0.913 . S
C787 C13 1.896 . S
C802 C113 1.720 . S
C837 C27 1.933 . S
C852 C253 1.672 . S
C902 C341 1.655 . S
C887 C29 1.851 . S
C952 C481 1.669 . S
C937 C54 1.927 . S
C1002 C595 1.637 . S
C987 C69 1.908 . S
C1052 C665 1.032 . S
C1037 C83 1.917 . S
C1087 C15 1.912 . S
C1102 C323 1.040 . S
C1137 C41 1.790 . S
C1152 C427 1.277 . S
C1202 C541 1.314 . S
C1187 C42 1.835 . S
C1252 C683 1.667 . S
C1237 C57 1.852 . S
C1287 C71 1.996 . S
C1302 C95 1.103 . S
C1352 C199 1.267 . S
C1337 C1 1.751 1_655 S
C1402 C437 1.553 . S
C1387 C12 2.026 1_655 S
C1437 C26 2.026 . S
C1452 C551 1.563 . S
C1502 C709 1.349 . S
C1487 C28 2.115 . S
C1537 C55 1.900 . S
C1552 C85 1.656 . S
C1587 C68 2.143 . S
C1602 C209 1.644 . S
C1637 C82 1.868 . S
C1652 C313 1.630 . S
C1687 C14 1.941 . S
C1702 C655 1.688 . S
C1752 C139 1.290 . S
C1737 C40 2.033 . S
C1787 C43 1.948 . S
C1802 C227 1.368 . S
C1837 C56 2.040 . S
C1852 C367 1.272 . S
C1887 C70 1.921 . S
C1902 C455 1.362 . S
C1937 C0 1.986 . S
C1952 C569 1.422 . S
