# Generated by pormake.
# Topology rtl, (3,6)-cn, num edge types: 1
# Building blocks:
#     Node 0, Type 0, BuildingBlock: CUQRIR_clean_linker_1, # of connection points: 3
#     Node 1, Type 0, BuildingBlock: CUQRIR_clean_linker_1, # of connection points: 3
#     Node 2, Type 0, BuildingBlock: CUQRIR_clean_linker_1, # of connection points: 3
#     Node 3, Type 0, BuildingBlock: CUQRIR_clean_linker_1, # of connection points: 3
#     Node 4, Type 1, BuildingBlock: FUNLAD_clean_sbu_0, # of connection points: 6
#     Node 5, Type 1, BuildingBlock: FUNLAD_clean_sbu_0, # of connection points: 6
#     Edge 6, Type (0, 1), BuildingBlock: FUNLAD_clean_linker_0, # of connection points: 2
#     Edge 7, Type (0, 1), BuildingBlock: FUNLAD_clean_linker_0, # of connection points: 2
#     Edge 8, Type (0, 1), BuildingBlock: FUNLAD_clean_linker_0, # of connection points: 2
#     Edge 9, Type (0, 1), BuildingBlock: FUNLAD_clean_linker_0, # of connection points: 2
#     Edge 10, Type (0, 1), BuildingBlock: FUNLAD_clean_linker_0, # of connection points: 2
#     Edge 11, Type (0, 1), BuildingBlock: FUNLAD_clean_linker_0, # of connection points: 2
#     Edge 12, Type (0, 1), BuildingBlock: FUNLAD_clean_linker_0, # of connection points: 2
#     Edge 13, Type (0, 1), BuildingBlock: FUNLAD_clean_linker_0, # of connection points: 2
#     Edge 14, Type (0, 1), BuildingBlock: FUNLAD_clean_linker_0, # of connection points: 2
#     Edge 15, Type (0, 1), BuildingBlock: FUNLAD_clean_linker_0, # of connection points: 2
#     Edge 16, Type (0, 1), BuildingBlock: FUNLAD_clean_linker_0, # of connection points: 2
#     Edge 17, Type (0, 1), BuildingBlock: FUNLAD_clean_linker_0, # of connection points: 2
# Relax obj value: 0.002
# Max RMSD: 0.047
# Mean RMSD: 0.038
data_MOF--net-rtl--node1-FUNLAD_clean_sbu_0--node2-CUQRIR_clean_linker_1--edge1-FUNLAD_clean_linker_0
_symmetry_space_group_name_H-M    P1
_symmetry_Int_Tables_number       1
_symmetry_cell_setting            triclinic
loop_
_symmetry_equiv_pos_as_xyz
'x, y, z'
_cell_length_a     43.898892
_cell_length_b     43.892569
_cell_length_c     22.697833
_cell_angle_alpha  90.029205
_cell_angle_beta   91.031883
_cell_angle_gamma 89.963668
loop_
_atom_site_label
_atom_site_type_symbol
_atom_site_fract_x
_atom_site_fract_y
_atom_site_fract_z
_atom_type_partial_charge
C0 C 0.17862 0.79539 0.96749 0.0
N1 N 0.15864 0.8168 0.98546 0.0
N2 N 0.19473 0.7842 0.01401 0.0
C3 C 0.18221 0.78539 0.9046 0.0
C4 C 0.18398 0.79964 0.06091 0.0
N5 N 0.1622 0.81976 0.04345 0.0
C6 C 0.1945 0.79479 0.12367 0.0
H7 H 0.16337 0.76961 0.89266 0.0
H8 H 0.2041 0.7734 0.89796 0.0
H9 H 0.18069 0.80533 0.87464 0.0
H10 H 0.21191 0.81221 0.13519 0.0
H11 H 0.20494 0.77201 0.13001 0.0
H12 H 0.1752 0.79738 0.15417 0.0
C13 C 0.69827 0.69069 0.57243 0.0
N14 N 0.67689 0.67069 0.5531 0.0
N15 N 0.71107 0.7052 0.52641 0.0
C16 C 0.70507 0.69765 0.63624 0.0
C17 C 0.69657 0.69339 0.47841 0.0
N18 N 0.67564 0.67253 0.49471 0.0
C19 C 0.70445 0.70053 0.41569 0.0
H20 H 0.71337 0.72137 0.64181 0.0
H21 H 0.72304 0.68186 0.65268 0.0
H22 H 0.68452 0.69437 0.66326 0.0
H23 H 0.72851 0.70799 0.4125 0.0
H24 H 0.68952 0.71924 0.39946 0.0
H25 H 0.70072 0.68039 0.3869 0.0
C26 C 0.81437 0.19904 0.0491 0.0
N27 N 0.8333 0.17623 0.03318 0.0
N28 N 0.79596 0.20711 0.00326 0.0
C29 C 0.8139 0.21341 0.10924 0.0
C30 C 0.80418 0.18832 0.95901 0.0
N31 N 0.82667 0.16928 0.97743 0.0
C32 C 0.79061 0.18878 0.89769 0.0
H33 H 0.7919 0.22492 0.11746 0.0
H34 H 0.83229 0.23069 0.11241 0.0
H35 H 0.8182 0.19602 0.14387 0.0
H36 H 0.80877 0.186 0.86472 0.0
H37 H 0.77785 0.21011 0.8886 0.0
H38 H 0.77463 0.16935 0.89264 0.0
C39 C 0.29996 0.32143 0.46687 0.0
N40 N 0.32364 0.33932 0.48391 0.0
N41 N 0.29167 0.30298 0.51152 0.0
C42 C 0.28506 0.32188 0.40667 0.0
C43 C 0.31124 0.31005 0.55618 0.0
N44 N 0.33095 0.33191 0.53915 0.0
C45 C 0.31087 0.29593 0.61654 0.0
H46 H 0.2686 0.34105 0.40444 0.0
H47 H 0.27251 0.30048 0.39727 0.0
H48 H 0.30234 0.32554 0.3723 0.0
H49 H 0.28886 0.2846 0.62531 0.0
H50 H 0.31541 0.31349 0.65079 0.0
H51 H 0.32921 0.27858 0.6198 0.0
C52 C 0.03363 0.97187 0.42549 0.0
N53 N 0.05348 0.05364 0.51246 0.0
C54 C 0.0831 0.0445 0.51408 0.0
C55 C 0.10654 0.06592 0.51335 0.0
C56 C 0.0995 0.09713 0.5108 0.0
C57 C 0.0687 0.10592 0.5096 0.0
C58 C 0.04595 0.0837 0.51047 0.0
Zn59 Zn 0.02013 0.02122 0.51176 0.0
C60 C 0.97103 0.03427 0.4232 0.0
N61 N 0.95141 0.95254 0.50948 0.0
C62 C 0.95939 0.9226 0.50841 0.0
C63 C 0.92165 0.96123 0.50922 0.0
C64 C 0.89853 0.93941 0.50768 0.0
C65 C 0.90607 0.9083 0.50631 0.0
C66 C 0.937 0.90002 0.50678 0.0
Zn67 Zn 0.9846 0.98513 0.51063 0.0
O68 O 0.04372 0.99678 0.44658 0.0
C69 C 0.03333 0.97175 0.59926 0.0
O70 O 0.00883 0.96106 0.44461 0.0
H71 H 0.91581 0.98517 0.51016 0.0
H72 H 0.08859 0.02049 0.51575 0.0
H73 H 0.98318 0.9162 0.50851 0.0
O74 O 0.04372 0.99675 0.57972 0.0
O75 O 0.00865 0.96119 0.57747 0.0
H76 H 0.02225 0.09045 0.50909 0.0
O77 O 0.96101 0.00983 0.57678 0.0
O78 O 0.99619 0.04532 0.57679 0.0
O79 O 0.96092 0.00941 0.44375 0.0
O80 O 0.99586 0.0451 0.44393 0.0
C81 C 0.97148 0.03485 0.59691 0.0
H82 H 0.12994 0.0581 0.51526 0.0
H83 H 0.06223 0.1297 0.507 0.0
H84 H 0.87501 0.94684 0.50818 0.0
H85 H 0.94388 0.87634 0.50498 0.0
C86 C 0.47059 0.47087 0.92963 0.0
N87 N 0.55157 0.45035 0.02367 0.0
C88 C 0.54258 0.42069 0.02259 0.0
C89 C 0.56415 0.39732 0.02461 0.0
C90 C 0.59533 0.40448 0.02779 0.0
C91 C 0.60394 0.43532 0.02899 0.0
C92 C 0.58159 0.45797 0.02687 0.0
Zn93 Zn 0.51935 0.48395 0.01996 0.0
C94 C 0.535 0.53163 0.93254 0.0
N95 N 0.45189 0.55395 0.01142 0.0
C96 C 0.42188 0.5462 0.01018 0.0
C97 C 0.46077 0.58364 0.01082 0.0
C98 C 0.43908 0.60692 0.00925 0.0
C99 C 0.40791 0.59962 0.00816 0.0
C100 C 0.39944 0.56875 0.00846 0.0
Zn101 Zn 0.48416 0.5204 0.01507 0.0
O102 O 0.49531 0.46008 0.95113 0.0
C103 C 0.46926 0.47225 0.10312 0.0
O104 O 0.46044 0.49588 0.94939 0.0
H105 H 0.48474 0.5893 0.01197 0.0
H106 H 0.5186 0.41513 0.0199 0.0
H107 H 0.41532 0.52246 0.01057 0.0
O108 O 0.49392 0.4612 0.08395 0.0
O109 O 0.45938 0.49733 0.08211 0.0
H110 H 0.58825 0.48169 0.02779 0.0
O111 O 0.50835 0.54476 0.08053 0.0
O112 O 0.54269 0.50859 0.08843 0.0
O113 O 0.50962 0.54271 0.9483 0.0
O114 O 0.5446 0.50714 0.95617 0.0
C115 C 0.53252 0.53437 0.10461 0.0
H116 H 0.55648 0.37388 0.02282 0.0
H117 H 0.62768 0.4419 0.03221 0.0
H118 H 0.44668 0.63039 0.00987 0.0
H119 H 0.3757 0.56203 0.00685 0.0
C120 C 0.27027 0.25365 0.48106 0.0
C121 C 0.26742 0.28114 0.51172 0.0
C122 C 0.24671 0.23225 0.48136 0.0
C123 C 0.21994 0.238 0.513 0.0
C124 C 0.21715 0.26588 0.54294 0.0
C125 C 0.24074 0.28723 0.54245 0.0
C126 C 0.19418 0.21602 0.51481 0.0
C127 C 0.19713 0.18596 0.50403 0.0
C128 C 0.1714 0.164 0.50601 0.0
C129 C 0.17367 0.13665 0.47433 0.0
C130 C 0.1503 0.1151 0.47553 0.0
C131 C 0.12417 0.12026 0.50903 0.0
H132 H 0.14309 0.18938 0.56664 0.0
C133 C 0.12196 0.14753 0.5412 0.0
C134 C 0.14533 0.16913 0.53991 0.0
H135 H 0.10242 0.15192 0.56842 0.0
H136 H 0.29074 0.24889 0.45676 0.0
H137 H 0.24951 0.21164 0.45597 0.0
H138 H 0.19675 0.27107 0.56718 0.0
H139 H 0.23828 0.30852 0.56602 0.0
H140 H 0.17209 0.22515 0.52627 0.0
H141 H 0.21916 0.17674 0.49247 0.0
H142 H 0.19353 0.13201 0.4481 0.0
H143 H 0.15261 0.09451 0.44969 0.0
C144 C 0.24661 0.76777 0.99053 0.0
C145 C 0.21801 0.76127 0.01366 0.0
C146 C 0.26934 0.74546 0.98996 0.0
C147 C 0.26381 0.71618 0.01313 0.0
C148 C 0.23488 0.70986 0.03578 0.0
C149 C 0.21219 0.7322 0.03607 0.0
C150 C 0.28705 0.6914 0.01386 0.0
C151 C 0.31697 0.69561 0.004 0.0
C152 C 0.33965 0.67044 0.00537 0.0
C153 C 0.36633 0.67348 0.97272 0.0
C154 C 0.38838 0.65049 0.9733 0.0
C155 C 0.38439 0.62402 0.00714 0.0
H156 H 0.31611 0.64134 0.06732 0.0
C157 C 0.35785 0.62115 0.04048 0.0
C158 C 0.33577 0.6441 0.03977 0.0
H159 H 0.35439 0.6014 0.06814 0.0
H160 H 0.25122 0.79016 0.97272 0.0
H161 H 0.29083 0.75137 0.97062 0.0
H162 H 0.2298 0.68756 0.05355 0.0
H163 H 0.19007 0.7269 0.05374 0.0
H164 H 0.2789 0.66859 0.02321 0.0
H165 H 0.32553 0.71806 0.99342 0.0
H166 H 0.37001 0.69361 0.94616 0.0
H167 H 0.4084 0.65335 0.94666 0.0
C168 C 0.73078 0.75579 0.49971 0.0
C169 C 0.73485 0.72771 0.52818 0.0
C170 C 0.75379 0.77778 0.50179 0.0
C171 C 0.78142 0.77194 0.53229 0.0
C172 C 0.7852 0.74388 0.56125 0.0
C173 C 0.76221 0.72191 0.55894 0.0
C174 C 0.80638 0.79475 0.53663 0.0
C175 C 0.81061 0.81689 0.49645 0.0
C176 C 0.83552 0.83985 0.5004 0.0
C177 C 0.83262 0.86673 0.46725 0.0
C178 C 0.85541 0.88893 0.46922 0.0
C179 C 0.88182 0.88469 0.5042 0.0
H180 H 0.86593 0.81473 0.55978 0.0
C181 C 0.88495 0.85763 0.53687 0.0
C182 C 0.86216 0.83541 0.53487 0.0
H183 H 0.90494 0.85369 0.56448 0.0
H184 H 0.70957 0.76082 0.47664 0.0
H185 H 0.74948 0.79946 0.48061 0.0
H186 H 0.80613 0.73883 0.58537 0.0
H187 H 0.76579 0.70028 0.58091 0.0
H188 H 0.82191 0.79265 0.5741 0.0
H189 H 0.79505 0.81869 0.45892 0.0
H190 H 0.81256 0.87066 0.43979 0.0
H191 H 0.8525 0.90925 0.44266 0.0
C192 C 0.74593 0.22729 0.03056 0.0
C193 C 0.77355 0.2309 1.00149 0.0
C194 C 0.7241 0.25049 0.02898 0.0
C195 C 0.72971 0.2778 0.99836 0.0
C196 C 0.75733 0.281 0.96861 0.0
C197 C 0.77914 0.2578 0.97043 0.0
C198 C 0.70712 0.30303 0.99484 0.0
C199 C 0.68552 0.30773 0.03537 0.0
C200 C 0.66289 0.33297 0.03217 0.0
C201 C 0.63607 0.33037 0.06459 0.0
C202 C 0.61418 0.3535 0.06318 0.0
C203 C 0.6187 0.37995 0.02959 0.0
H204 H 0.68831 0.36318 0.97495 0.0
C205 C 0.64572 0.3828 0.99777 0.0
C206 C 0.66762 0.35967 0.99916 0.0
H207 H 0.64987 0.40282 0.97124 0.0
H208 H 0.74131 0.2064 0.05414 0.0
H209 H 0.70276 0.24659 0.0508 0.0
H210 H 0.76216 0.30162 0.94428 0.0
H211 H 0.8004 0.26075 0.94767 0.0
H212 H 0.70891 0.3184 0.95767 0.0
H213 H 0.68392 0.29232 0.07256 0.0
H214 H 0.63194 0.31027 0.09096 0.0
H215 H 0.59386 0.35079 0.08904 0.0
C216 C 0.159 0.85897 0.12078 0.0
C217 C 0.14449 0.83918 0.08081 0.0
C218 C 0.14205 0.87573 0.16101 0.0
C219 C 0.11001 0.87337 0.16142 0.0
C220 C 0.09557 0.85407 0.12006 0.0
C221 C 0.11263 0.83716 0.08014 0.0
C222 C 0.09095 0.88914 0.20592 0.0
C223 C 0.10108 0.91197 0.24093 0.0
C224 C 0.08265 0.92679 0.28743 0.0
C225 C 0.09262 0.95488 0.31024 0.0
C226 C 0.07676 0.96939 0.35504 0.0
C227 C 0.05047 0.95611 0.3784 0.0
H228 H 0.04841 0.89126 0.2965 0.0
C229 C 0.0405 0.9279 0.35604 0.0
C230 C 0.05646 0.91329 0.31124 0.0
H231 H 0.02046 0.91695 0.37341 0.0
H232 H 0.18358 0.86098 0.12156 0.0
H233 H 0.15446 0.88964 0.19249 0.0
H234 H 0.07101 0.8516 0.11933 0.0
H235 H 0.10105 0.82176 0.04995 0.0
H236 H 0.06748 0.8817 0.20901 0.0
H237 H 0.12374 0.9211 0.23478 0.0
H238 H 0.11282 0.96573 0.2933 0.0
H239 H 0.08514 0.99109 0.37125 0.0
C240 C 0.67067 0.63145 0.62907 0.0
C241 C 0.65767 0.65212 0.58897 0.0
C242 C 0.6523 0.61501 0.66727 0.0
C243 C 0.62045 0.61935 0.66665 0.0
C244 C 0.6075 0.63927 0.62462 0.0
C245 C 0.62596 0.65552 0.5861 0.0
C246 C 0.60001 0.60379 0.70892 0.0
C247 C 0.60996 0.59084 0.75957 0.0
C248 C 0.58964 0.57567 0.8021 0.0
C249 C 0.60173 0.55222 0.83734 0.0
C250 C 0.58385 0.53782 0.87918 0.0
C251 C 0.55354 0.54694 0.88755 0.0
H252 H 0.54946 0.60348 0.78503 0.0
C253 C 0.54144 0.5707 0.8528 0.0
C254 C 0.55928 0.58489 0.81028 0.0
H255 H 0.51819 0.57832 0.85843 0.0
H256 H 0.69513 0.62823 0.63095 0.0
H257 H 0.66337 0.59903 0.69682 0.0
H258 H 0.58308 0.64283 0.62248 0.0
H259 H 0.61562 0.67143 0.55524 0.0
H260 H 0.57579 0.6036 0.69825 0.0
H261 H 0.63405 0.59067 0.7708 0.0
H262 H 0.62512 0.54488 0.83231 0.0
H263 H 0.59396 0.51972 0.90545 0.0
C264 C 0.85211 0.12923 0.08037 0.0
C265 C 0.85496 0.16061 0.07065 0.0
C266 C 0.87138 0.11448 0.12095 0.0
C267 C 0.89385 0.13098 0.15253 0.0
C268 C 0.89756 0.16211 0.14034 0.0
C269 C 0.87815 0.17685 0.10003 0.0
C270 C 0.91358 0.11659 0.1986 0.0
C271 C 0.90407 0.09322 0.23216 0.0
C272 C 0.92228 0.07888 0.28084 0.0
C273 C 0.91148 0.05161 0.30511 0.0
C274 C 0.92722 0.03728 0.35137 0.0
C275 C 0.95422 0.04994 0.37481 0.0
H276 H 0.95821 0.11302 0.28862 0.0
C277 C 0.96503 0.07735 0.35104 0.0
C278 C 0.94924 0.09174 0.30467 0.0
H279 H 0.9857 0.08777 0.36831 0.0
H280 H 0.83442 0.11637 0.05769 0.0
H281 H 0.86854 0.09023 0.1275 0.0
H282 H 0.91495 0.17526 0.16333 0.0
H283 H 0.88092 0.20101 0.09224 0.0
H284 H 0.93579 0.1267 0.20644 0.0
H285 H 0.88135 0.08411 0.22428 0.0
H286 H 0.89074 0.0412 0.28812 0.0
H287 H 0.91818 0.0162 0.36862 0.0
C288 C 0.35153 0.37833 0.58565 0.0
C289 C 0.35341 0.34689 0.57582 0.0
C290 C 0.37136 0.39248 0.62599 0.0
C291 C 0.39337 0.37527 0.65738 0.0
C292 C 0.39621 0.34407 0.64493 0.0
C293 C 0.37627 0.32995 0.60474 0.0
C294 C 0.4133 0.38905 0.70385 0.0
C295 C 0.40394 0.41233 0.73786 0.0
C296 C 0.42212 0.4264 0.78681 0.0
C297 C 0.41107 0.4534 0.81182 0.0
C298 C 0.42673 0.4676 0.85823 0.0
C299 C 0.45393 0.45511 0.88118 0.0
H300 H 0.45849 0.39263 0.79327 0.0
C301 C 0.46502 0.42794 0.85673 0.0
C302 C 0.44929 0.41367 0.81008 0.0
H303 H 0.48586 0.41769 0.87358 0.0
H304 H 0.3341 0.39172 0.56338 0.0
H305 H 0.36922 0.41679 0.63271 0.0
H306 H 0.41325 0.3304 0.66775 0.0
H307 H 0.37829 0.30572 0.59686 0.0
H308 H 0.43536 0.37858 0.71165 0.0
H309 H 0.38127 0.42161 0.73009 0.0
H310 H 0.39018 0.46372 0.79525 0.0
H311 H 0.41746 0.48849 0.87599 0.0
C312 C 0.63731 0.66769 0.41494 0.0
C313 C 0.65704 0.654 0.45621 0.0
C314 C 0.62062 0.64988 0.3749 0.0
C315 C 0.62371 0.61787 0.3749 0.0
C316 C 0.64281 0.60428 0.41782 0.0
C317 C 0.65933 0.62219 0.4581 0.0
C318 C 0.60759 0.59786 0.33132 0.0
C319 C 0.59476 0.60808 0.28066 0.0
C320 C 0.57885 0.5881 0.23722 0.0
C321 C 0.55559 0.60076 0.20186 0.0
C322 C 0.54045 0.58317 0.15934 0.0
C323 C 0.5486 0.55256 0.15041 0.0
H324 H 0.60553 0.54716 0.25377 0.0
C325 C 0.57217 0.53988 0.18526 0.0
C326 C 0.58712 0.55745 0.22844 0.0
H327 H 0.57907 0.5164 0.17919 0.0
H328 H 0.63497 0.69224 0.41371 0.0
H329 H 0.60537 0.6615 0.34455 0.0
H330 H 0.64544 0.57975 0.41947 0.0
H331 H 0.67453 0.6113 0.48976 0.0
H332 H 0.60671 0.57367 0.3412 0.0
H333 H 0.59517 0.63216 0.2702 0.0
H334 H 0.54897 0.62437 0.20733 0.0
H335 H 0.52253 0.59374 0.13301 0.0
C336 C 0.87417 0.15135 0.9331 0.0
C337 C 0.84284 0.14784 0.94166 0.0
C338 C 0.88939 0.13244 0.89373 0.0
C339 C 0.8734 0.10966 0.86221 0.0
C340 C 0.84234 0.10527 0.87329 0.0
C341 C 0.82714 0.12434 0.91238 0.0
C342 C 0.88827 0.09032 0.81723 0.0
C343 C 0.91141 0.10041 0.78418 0.0
C344 C 0.92608 0.08259 0.73644 0.0
C345 C 0.95327 0.09382 0.71304 0.0
C346 C 0.96785 0.07843 0.66765 0.0
C347 C 0.95556 0.05137 0.64426 0.0
H348 H 0.89236 0.04632 0.72791 0.0
C349 C 0.92822 0.04015 0.66713 0.0
C350 C 0.91357 0.05559 0.71259 0.0
H351 H 0.91806 0.01944 0.64986 0.0
H352 H 0.8866 0.16933 0.95567 0.0
H353 H 0.91357 0.1358 0.88801 0.0
H354 H 0.82959 0.08764 0.85031 0.0
H355 H 0.80301 0.12109 0.91924 0.0
H356 H 0.87865 0.0679 0.80971 0.0
H357 H 0.92005 0.12329 0.79174 0.0
H358 H 0.9634 0.11462 0.73006 0.0
H359 H 0.98887 0.08777 0.65107 0.0
C360 C 0.37094 0.35662 0.4381 0.0
C361 C 0.33976 0.36056 0.4477 0.0
C362 C 0.3861 0.37553 0.39871 0.0
C363 C 0.3702 0.3987 0.36812 0.0
C364 C 0.33931 0.40351 0.38024 0.0
C365 C 0.32417 0.38448 0.41943 0.0
C366 C 0.38501 0.41798 0.32306 0.0
C367 C 0.4077 0.40754 0.28924 0.0
C368 C 0.42265 0.42526 0.24182 0.0
C369 C 0.44945 0.41338 0.21798 0.0
C370 C 0.46438 0.42858 0.17293 0.0
C371 C 0.45283 0.45613 0.15023 0.0
H372 H 0.38997 0.46256 0.23462 0.0
C373 C 0.42587 0.46804 0.17353 0.0
C374 C 0.41087 0.45277 0.21878 0.0
H375 H 0.41631 0.48915 0.15679 0.0
H376 H 0.38331 0.33837 0.45993 0.0
H377 H 0.41019 0.37184 0.39227 0.0
H378 H 0.32664 0.42146 0.35803 0.0
H379 H 0.30018 0.38811 0.4272 0.0
H380 H 0.37582 0.44065 0.31623 0.0
H381 H 0.41581 0.3844 0.29604 0.0
H382 H 0.45903 0.39219 0.2344 0.0
H383 H 0.48507 0.41868 0.15602 0.0
C384 C 0.14257 0.8661 0.94363 0.0
C385 C 0.13861 0.83453 0.94829 0.0
C386 C 0.12498 0.88292 0.90318 0.0
C387 C 0.10303 0.86829 0.86705 0.0
C388 C 0.09823 0.83688 0.87404 0.0
C389 C 0.11606 0.8201 0.91394 0.0
C390 C 0.08481 0.88485 0.82152 0.0
C391 C 0.09563 0.90896 0.79155 0.0
C392 C 0.07884 0.92454 0.74238 0.0
C393 C 0.08966 0.95281 0.72261 0.0
C394 C 0.07508 0.96809 0.67595 0.0
C395 C 0.04931 0.95538 0.64779 0.0
H396 H 0.04447 0.88957 0.72552 0.0
C397 C 0.03862 0.92698 0.66702 0.0
C398 C 0.05323 0.91165 0.7135 0.0
H399 H 0.01896 0.91641 0.64597 0.0
H400 H 0.15984 0.87751 0.97019 0.0
H401 H 0.12863 0.90725 0.90033 0.0
H402 H 0.08123 0.82513 0.84733 0.0
H403 H 0.11257 0.79576 0.91762 0.0
H404 H 0.06253 0.87558 0.81072 0.0
H405 H 0.11821 0.91754 0.80267 0.0
H406 H 0.10946 0.96322 0.74348 0.0
H407 H 0.08395 0.98993 0.66219 0.0
loop_
_geom_bond_atom_site_label_1
_geom_bond_atom_site_label_2
_geom_bond_distance
_geom_bond_site_symmetry_2
_ccdc_geom_bond_type
C0 N1 1.317 . S
C0 N2 1.348 1_556 S
C0 C3 1.485 . S
N1 C0 1.317 . S
N1 N5 1.370 1_556 S
N2 C0 1.348 1_554 S
N2 C4 1.346 . S
C3 C0 1.485 . S
C3 H7 0.960 . S
C3 H8 0.961 . S
C3 H9 0.960 . S
C4 N2 1.346 . S
C4 N5 1.307 . S
C4 C6 1.486 . S
N5 N1 1.370 1_554 S
N5 C4 1.307 . S
C6 C4 1.486 . S
C6 H10 0.960 . S
C6 H11 0.960 . S
C6 H12 0.959 . S
H7 C3 0.960 . S
H8 C3 0.961 . S
H9 C3 0.960 . S
H10 C6 0.960 . S
H11 C6 0.960 . S
H12 C6 0.959 . S
C13 N14 1.317 . S
C13 N15 1.348 . S
C13 C16 1.485 . S
N14 C13 1.317 . S
N14 N18 1.370 . S
N15 C13 1.348 . S
N15 C17 1.346 . S
C16 C13 1.485 . S
C16 H20 0.960 . S
C16 H21 0.961 . S
C16 H22 0.960 . S
C17 N15 1.346 . S
C17 N18 1.307 . S
C17 C19 1.486 . S
N18 N14 1.370 . S
N18 C17 1.307 . S
C19 C17 1.486 . S
C19 H23 0.960 . S
C19 H24 0.960 . S
C19 H25 0.959 . S
H20 C16 0.960 . S
H21 C16 0.961 . S
H22 C16 0.960 . S
H23 C19 0.960 . S
H24 C19 0.960 . S
H25 C19 0.959 . S
C26 N27 1.317 . S
C26 N28 1.348 . S
C26 C29 1.485 . S
N27 C26 1.317 . S
N27 N31 1.370 1_554 S
N28 C26 1.348 . S
N28 C30 1.346 1_554 S
C29 C26 1.485 . S
C29 H33 0.960 . S
C29 H34 0.961 . S
C29 H35 0.960 . S
C30 N28 1.346 1_556 S
C30 N31 1.307 . S
C30 C32 1.486 . S
N31 N27 1.370 1_556 S
N31 C30 1.307 . S
C32 C30 1.486 . S
C32 H36 0.960 . S
C32 H37 0.960 . S
C32 H38 0.959 . S
H33 C29 0.960 . S
H34 C29 0.961 . S
H35 C29 0.960 . S
H36 C32 0.960 . S
H37 C32 0.960 . S
H38 C32 0.959 . S
C39 N40 1.317 . S
C39 N41 1.348 . S
C39 C42 1.485 . S
N40 C39 1.317 . S
N40 N44 1.370 . S
N41 C39 1.348 . S
N41 C43 1.346 . S
C42 C39 1.485 . S
C42 H46 0.960 . S
C42 H47 0.961 . S
C42 H48 0.960 . S
C43 N41 1.346 . S
C43 N44 1.307 . S
C43 C45 1.486 . S
N44 N40 1.370 . S
N44 C43 1.307 . S
C45 C43 1.486 . S
C45 H49 0.960 . S
C45 H50 0.960 . S
C45 H51 0.959 . S
H46 C42 0.960 . S
H47 C42 0.961 . S
H48 C42 0.960 . S
H49 C45 0.960 . S
H50 C45 0.960 . S
H51 C45 0.959 . S
C52 O68 1.270 . S
C52 O70 1.254 . S
N53 C54 1.333 . S
N53 C58 1.307 . S
N53 Zn59 2.020 . S
C54 N53 1.333 . S
C54 C55 1.379 . S
C54 H72 0.952 . S
C55 C54 1.379 . S
C55 C56 1.390 . S
C55 H82 0.949 . S
C56 C55 1.390 . S
C56 C57 1.357 . S
C57 C56 1.357 . S
C57 C58 1.370 . S
C57 H83 0.950 . S
C58 N53 1.307 . S
C58 C57 1.370 . S
C58 H76 0.948 . S
Zn59 N53 2.020 . S
Zn59 O68 2.026 1_545 S
Zn59 O74 2.034 1_545 S
Zn59 O78 2.025 1_455 S
Zn59 O80 2.024 1_455 S
C60 O79 1.246 . S
C60 O80 1.249 . S
N61 C62 1.307 . S
N61 C63 1.333 . S
N61 Zn67 2.020 . S
C62 N61 1.307 . S
C62 C66 1.370 . S
C62 H73 0.948 . S
C63 N61 1.333 . S
C63 C64 1.379 . S
C63 H71 0.952 . S
C64 C63 1.379 . S
C64 C65 1.390 . S
C64 H84 0.949 . S
C65 C64 1.390 . S
C65 C66 1.357 . S
C66 C62 1.370 . S
C66 C65 1.357 . S
C66 H85 0.950 . S
Zn67 N61 2.020 . S
Zn67 O70 2.025 1_655 S
Zn67 O75 2.024 1_655 S
Zn67 O77 2.039 1_565 S
Zn67 O79 2.034 1_565 S
O68 C52 1.270 . S
O68 Zn59 2.026 1_565 S
C69 O74 1.246 . S
C69 O75 1.249 . S
O70 C52 1.254 . S
O70 Zn67 2.025 1_455 S
H71 C63 0.952 . S
H72 C54 0.952 . S
H73 C62 0.948 . S
O74 Zn59 2.034 1_565 S
O74 C69 1.246 . S
O75 Zn67 2.024 1_455 S
O75 C69 1.249 . S
H76 C58 0.948 . S
O77 Zn67 2.039 1_545 S
O77 C81 1.251 . S
O78 Zn59 2.025 1_655 S
O78 C81 1.254 . S
O79 C60 1.246 . S
O79 Zn67 2.034 1_545 S
O80 Zn59 2.024 1_655 S
O80 C60 1.249 . S
C81 O77 1.251 . S
C81 O78 1.254 . S
H82 C55 0.949 . S
H83 C57 0.950 . S
H84 C64 0.949 . S
H85 C66 0.950 . S
C86 O102 1.251 . S
C86 O104 1.254 . S
N87 C88 1.333 1_554 S
N87 C92 1.307 . S
N87 Zn93 2.020 . S
C88 N87 1.333 1_556 S
C88 C89 1.379 . S
C88 H106 0.952 . S
C89 C88 1.379 . S
C89 C90 1.390 1_556 S
C89 H116 0.949 . S
C90 C89 1.390 1_554 S
C90 C91 1.357 . S
C91 C90 1.357 . S
C91 C92 1.370 . S
C91 H117 0.950 . S
C92 N87 1.307 . S
C92 C91 1.370 . S
C92 H110 0.948 . S
Zn93 N87 2.020 . S
Zn93 O102 2.039 1_554 S
Zn93 O108 2.034 . S
Zn93 O112 2.025 . S
Zn93 O114 2.024 1_554 S
C94 O113 1.246 . S
C94 O114 1.249 . S
N95 C96 1.307 1_554 S
N95 C97 1.333 . S
N95 Zn101 2.020 . S
C96 N95 1.307 1_556 S
C96 C100 1.370 . S
C96 H107 0.948 . S
C97 N95 1.333 . S
C97 C98 1.379 . S
C97 H105 0.952 . S
C98 C97 1.379 . S
C98 C99 1.390 . S
C98 H118 0.949 . S
C99 C98 1.390 . S
C99 C100 1.357 1_554 S
C100 C96 1.370 . S
C100 C99 1.357 1_556 S
C100 H119 0.950 . S
Zn101 N95 2.020 . S
Zn101 O104 2.025 1_554 S
Zn101 O109 2.024 . S
Zn101 O111 2.039 . S
Zn101 O113 2.034 1_554 S
O102 C86 1.251 . S
O102 Zn93 2.039 1_556 S
C103 O108 1.246 . S
C103 O109 1.249 . S
O104 C86 1.254 . S
O104 Zn101 2.025 1_556 S
H105 C97 0.952 . S
H106 C88 0.952 . S
H107 C96 0.948 . S
O108 Zn93 2.034 . S
O108 C103 1.246 . S
O109 Zn101 2.024 . S
O109 C103 1.249 . S
H110 C92 0.948 . S
O111 Zn101 2.039 . S
O111 C115 1.251 . S
O112 Zn93 2.025 . S
O112 C115 1.254 . S
O113 C94 1.246 . S
O113 Zn101 2.034 1_556 S
O114 Zn93 2.024 1_556 S
O114 C94 1.249 . S
C115 O111 1.251 . S
C115 O112 1.254 . S
H116 C89 0.949 . S
H117 C91 0.950 . S
H118 C98 0.949 . S
H119 C100 0.950 . S
C120 C121 1.386 . S
C120 C122 1.383 . S
C120 H136 0.951 . S
C121 C120 1.386 . S
C121 C125 1.383 . S
C122 C120 1.383 . S
C122 C123 1.402 . S
C122 H137 0.951 . S
C123 C122 1.402 . S
C123 C124 1.375 . S
C123 C126 1.481 . S
C124 C123 1.375 . S
C124 C125 1.367 . S
C124 H138 0.951 . S
C125 C121 1.383 . S
C125 C124 1.367 . S
C125 H139 0.950 . S
C126 C123 1.481 . S
C126 C127 1.297 . S
C126 H140 0.950 . S
C127 C126 1.297 . S
C127 C128 1.479 . S
C127 H141 0.950 . S
C128 C127 1.479 . S
C128 C129 1.375 . S
C128 C134 1.404 . S
C129 C128 1.375 . S
C129 C130 1.369 . S
C129 H142 0.950 . S
C130 C129 1.369 . S
C130 C131 1.392 . S
C130 H143 0.951 . S
C131 C130 1.392 . S
C131 C133 1.384 . S
H132 C134 0.949 . S
C133 C131 1.384 . S
C133 C134 1.385 . S
C133 H135 0.950 . S
C134 C128 1.404 . S
C134 H132 0.949 . S
C134 C133 1.385 . S
H135 C133 0.950 . S
H136 C120 0.951 . S
H137 C122 0.951 . S
H138 C124 0.951 . S
H139 C125 0.950 . S
H140 C126 0.950 . S
H141 C127 0.950 . S
H142 C129 0.950 . S
H143 C130 0.951 . S
C144 C145 1.386 . S
C144 C146 1.383 . S
C144 H160 0.951 1_554 S
C145 C144 1.386 . S
C145 C149 1.383 . S
C146 C144 1.383 . S
C146 C147 1.402 . S
C146 H161 0.951 . S
C147 C146 1.402 . S
C147 C148 1.375 . S
C147 C150 1.481 . S
C148 C147 1.375 . S
C148 C149 1.367 . S
C148 H162 0.951 . S
C149 C145 1.383 . S
C149 C148 1.367 . S
C149 H163 0.950 . S
C150 C147 1.481 . S
C150 C151 1.297 . S
C150 H164 0.950 . S
C151 C150 1.297 . S
C151 C152 1.479 . S
C151 H165 0.950 . S
C152 C151 1.479 . S
C152 C153 1.375 . S
C152 C158 1.404 . S
C153 C152 1.375 . S
C153 C154 1.369 . S
C153 H166 0.950 . S
C154 C153 1.369 . S
C154 C155 1.392 . S
C154 H167 0.951 1_554 S
C155 C154 1.392 . S
C155 C157 1.384 . S
H156 C158 0.949 . S
C157 C155 1.384 . S
C157 C158 1.385 . S
C157 H159 0.950 . S
C158 C152 1.404 . S
C158 H156 0.949 . S
C158 C157 1.385 . S
H159 C157 0.950 . S
H160 C144 0.951 1_556 S
H161 C146 0.951 . S
H162 C148 0.951 . S
H163 C149 0.950 . S
H164 C150 0.950 . S
H165 C151 0.950 . S
H166 C153 0.950 . S
H167 C154 0.951 1_556 S
C168 C169 1.386 . S
C168 C170 1.383 . S
C168 H184 0.951 . S
C169 C168 1.386 . S
C169 C173 1.383 . S
C170 C168 1.383 . S
C170 C171 1.402 . S
C170 H185 0.951 . S
C171 C170 1.402 . S
C171 C172 1.375 . S
C171 C174 1.481 . S
C172 C171 1.375 . S
C172 C173 1.367 . S
C172 H186 0.951 . S
C173 C169 1.383 . S
C173 C172 1.367 . S
C173 H187 0.950 . S
C174 C171 1.481 . S
C174 C175 1.297 . S
C174 H188 0.950 . S
C175 C174 1.297 . S
C175 C176 1.479 . S
C175 H189 0.950 . S
C176 C175 1.479 . S
C176 C177 1.375 . S
C176 C182 1.404 . S
C177 C176 1.375 . S
C177 C178 1.369 . S
C177 H190 0.950 . S
C178 C177 1.369 . S
C178 C179 1.392 . S
C178 H191 0.951 . S
C179 C178 1.392 . S
C179 C181 1.384 . S
H180 C182 0.949 . S
C181 C179 1.384 . S
C181 C182 1.385 . S
C181 H183 0.950 . S
C182 C176 1.404 . S
C182 H180 0.949 . S
C182 C181 1.385 . S
H183 C181 0.950 . S
H184 C168 0.951 . S
H185 C170 0.951 . S
H186 C172 0.951 . S
H187 C173 0.950 . S
H188 C174 0.950 . S
H189 C175 0.950 . S
H190 C177 0.950 . S
H191 C178 0.951 . S
C192 C193 1.386 . S
C192 C194 1.383 . S
C192 H208 0.951 . S
C193 C192 1.386 . S
C193 C197 1.383 1_554 S
C194 C192 1.383 . S
C194 C195 1.402 . S
C194 H209 0.951 . S
C195 C194 1.402 . S
C195 C196 1.375 1_554 S
C195 C198 1.481 . S
C196 C195 1.375 1_556 S
C196 C197 1.367 . S
C196 H210 0.951 . S
C197 C193 1.383 1_556 S
C197 C196 1.367 . S
C197 H211 0.950 . S
C198 C195 1.481 . S
C198 C199 1.297 . S
C198 H212 0.950 1_554 S
C199 C198 1.297 . S
C199 C200 1.479 . S
C199 H213 0.950 . S
C200 C199 1.479 . S
C200 C201 1.375 . S
C200 C206 1.404 1_554 S
C201 C200 1.375 . S
C201 C202 1.369 . S
C201 H214 0.950 . S
C202 C201 1.369 . S
C202 C203 1.392 . S
C202 H215 0.951 . S
C203 C202 1.392 . S
C203 C205 1.384 1_554 S
H204 C206 0.949 . S
C205 C203 1.384 1_556 S
C205 C206 1.385 . S
C205 H207 0.950 . S
C206 C200 1.404 1_556 S
C206 H204 0.949 . S
C206 C205 1.385 . S
H207 C205 0.950 . S
H208 C192 0.951 . S
H209 C194 0.951 . S
H210 C196 0.951 . S
H211 C197 0.950 . S
H212 C198 0.950 1_556 S
H213 C199 0.950 . S
H214 C201 0.950 . S
H215 C202 0.951 . S
C216 C217 1.386 . S
C216 C218 1.383 . S
C216 H232 0.951 . S
C217 C216 1.386 . S
C217 C221 1.383 . S
C218 C216 1.383 . S
C218 C219 1.402 . S
C218 H233 0.951 . S
C219 C218 1.402 . S
C219 C220 1.375 . S
C219 C222 1.481 . S
C220 C219 1.375 . S
C220 C221 1.367 . S
C220 H234 0.951 . S
C221 C217 1.383 . S
C221 C220 1.367 . S
C221 H235 0.950 . S
C222 C219 1.481 . S
C222 C223 1.297 . S
C222 H236 0.950 . S
C223 C222 1.297 . S
C223 C224 1.479 . S
C223 H237 0.950 . S
C224 C223 1.479 . S
C224 C225 1.375 . S
C224 C230 1.404 . S
C225 C224 1.375 . S
C225 C226 1.369 . S
C225 H238 0.950 . S
C226 C225 1.369 . S
C226 C227 1.392 . S
C226 H239 0.951 . S
C227 C226 1.392 . S
C227 C229 1.384 . S
H228 C230 0.949 . S
C229 C227 1.384 . S
C229 C230 1.385 . S
C229 H231 0.950 . S
C230 C224 1.404 . S
C230 H228 0.949 . S
C230 C229 1.385 . S
H231 C229 0.950 . S
H232 C216 0.951 . S
H233 C218 0.951 . S
H234 C220 0.951 . S
H235 C221 0.950 . S
H236 C222 0.950 . S
H237 C223 0.950 . S
H238 C225 0.950 . S
H239 C226 0.951 . S
C240 C241 1.386 . S
C240 C242 1.383 . S
C240 H256 0.951 . S
C241 C240 1.386 . S
C241 C245 1.383 . S
C242 C240 1.383 . S
C242 C243 1.402 . S
C242 H257 0.951 . S
C243 C242 1.402 . S
C243 C244 1.375 . S
C243 C246 1.481 . S
C244 C243 1.375 . S
C244 C245 1.367 . S
C244 H258 0.951 . S
C245 C241 1.383 . S
C245 C244 1.367 . S
C245 H259 0.950 . S
C246 C243 1.481 . S
C246 C247 1.297 . S
C246 H260 0.950 . S
C247 C246 1.297 . S
C247 C248 1.479 . S
C247 H261 0.950 . S
C248 C247 1.479 . S
C248 C249 1.375 . S
C248 C254 1.404 . S
C249 C248 1.375 . S
C249 C250 1.369 . S
C249 H262 0.950 . S
C250 C249 1.369 . S
C250 C251 1.392 . S
C250 H263 0.951 . S
C251 C250 1.392 . S
C251 C253 1.384 . S
H252 C254 0.949 . S
C253 C251 1.384 . S
C253 C254 1.385 . S
C253 H255 0.950 . S
C254 C248 1.404 . S
C254 H252 0.949 . S
C254 C253 1.385 . S
H255 C253 0.950 . S
H256 C240 0.951 . S
H257 C242 0.951 . S
H258 C244 0.951 . S
H259 C245 0.950 . S
H260 C246 0.950 . S
H261 C247 0.950 . S
H262 C249 0.950 . S
H263 C250 0.951 . S
C264 C265 1.386 . S
C264 C266 1.383 . S
C264 H280 0.951 . S
C265 C264 1.386 . S
C265 C269 1.383 . S
C266 C264 1.383 . S
C266 C267 1.402 . S
C266 H281 0.951 . S
C267 C266 1.402 . S
C267 C268 1.375 . S
C267 C270 1.481 . S
C268 C267 1.375 . S
C268 C269 1.367 . S
C268 H282 0.951 . S
C269 C265 1.383 . S
C269 C268 1.367 . S
C269 H283 0.950 . S
C270 C267 1.481 . S
C270 C271 1.297 . S
C270 H284 0.950 . S
C271 C270 1.297 . S
C271 C272 1.479 . S
C271 H285 0.950 . S
C272 C271 1.479 . S
C272 C273 1.375 . S
C272 C278 1.404 . S
C273 C272 1.375 . S
C273 C274 1.369 . S
C273 H286 0.950 . S
C274 C273 1.369 . S
C274 C275 1.392 . S
C274 H287 0.951 . S
C275 C274 1.392 . S
C275 C277 1.384 . S
H276 C278 0.949 . S
C277 C275 1.384 . S
C277 C278 1.385 . S
C277 H279 0.950 . S
C278 C272 1.404 . S
C278 H276 0.949 . S
C278 C277 1.385 . S
H279 C277 0.950 . S
H280 C264 0.951 . S
H281 C266 0.951 . S
H282 C268 0.951 . S
H283 C269 0.950 . S
H284 C270 0.950 . S
H285 C271 0.950 . S
H286 C273 0.950 . S
H287 C274 0.951 . S
C288 C289 1.386 . S
C288 C290 1.383 . S
C288 H304 0.951 . S
C289 C288 1.386 . S
C289 C293 1.383 . S
C290 C288 1.383 . S
C290 C291 1.402 . S
C290 H305 0.951 . S
C291 C290 1.402 . S
C291 C292 1.375 . S
C291 C294 1.481 . S
C292 C291 1.375 . S
C292 C293 1.367 . S
C292 H306 0.951 . S
C293 C289 1.383 . S
C293 C292 1.367 . S
C293 H307 0.950 . S
C294 C291 1.481 . S
C294 C295 1.297 . S
C294 H308 0.950 . S
C295 C294 1.297 . S
C295 C296 1.479 . S
C295 H309 0.950 . S
C296 C295 1.479 . S
C296 C297 1.375 . S
C296 C302 1.404 . S
C297 C296 1.375 . S
C297 C298 1.369 . S
C297 H310 0.950 . S
C298 C297 1.369 . S
C298 C299 1.392 . S
C298 H311 0.951 . S
C299 C298 1.392 . S
C299 C301 1.384 . S
H300 C302 0.949 . S
C301 C299 1.384 . S
C301 C302 1.385 . S
C301 H303 0.950 . S
C302 C296 1.404 . S
C302 H300 0.949 . S
C302 C301 1.385 . S
H303 C301 0.950 . S
H304 C288 0.951 . S
H305 C290 0.951 . S
H306 C292 0.951 . S
H307 C293 0.950 . S
H308 C294 0.950 . S
H309 C295 0.950 . S
H310 C297 0.950 . S
H311 C298 0.951 . S
C312 C313 1.386 . S
C312 C314 1.383 . S
C312 H328 0.951 . S
C313 C312 1.386 . S
C313 C317 1.383 . S
C314 C312 1.383 . S
C314 C315 1.402 . S
C314 H329 0.951 . S
C315 C314 1.402 . S
C315 C316 1.375 . S
C315 C318 1.481 . S
C316 C315 1.375 . S
C316 C317 1.367 . S
C316 H330 0.951 . S
C317 C313 1.383 . S
C317 C316 1.367 . S
C317 H331 0.950 . S
C318 C315 1.481 . S
C318 C319 1.297 . S
C318 H332 0.950 . S
C319 C318 1.297 . S
C319 C320 1.479 . S
C319 H333 0.950 . S
C320 C319 1.479 . S
C320 C321 1.375 . S
C320 C326 1.404 . S
C321 C320 1.375 . S
C321 C322 1.369 . S
C321 H334 0.950 . S
C322 C321 1.369 . S
C322 C323 1.392 . S
C322 H335 0.951 . S
C323 C322 1.392 . S
C323 C325 1.384 . S
H324 C326 0.949 . S
C325 C323 1.384 . S
C325 C326 1.385 . S
C325 H327 0.950 . S
C326 C320 1.404 . S
C326 H324 0.949 . S
C326 C325 1.385 . S
H327 C325 0.950 . S
H328 C312 0.951 . S
H329 C314 0.951 . S
H330 C316 0.951 . S
H331 C317 0.950 . S
H332 C318 0.950 . S
H333 C319 0.950 . S
H334 C321 0.950 . S
H335 C322 0.951 . S
C336 C337 1.386 . S
C336 C338 1.383 . S
C336 H352 0.951 . S
C337 C336 1.386 . S
C337 C341 1.383 . S
C338 C336 1.383 . S
C338 C339 1.402 . S
C338 H353 0.951 . S
C339 C338 1.402 . S
C339 C340 1.375 . S
C339 C342 1.481 . S
C340 C339 1.375 . S
C340 C341 1.367 . S
C340 H354 0.951 . S
C341 C337 1.383 . S
C341 C340 1.367 . S
C341 H355 0.950 . S
C342 C339 1.481 . S
C342 C343 1.297 . S
C342 H356 0.950 . S
C343 C342 1.297 . S
C343 C344 1.479 . S
C343 H357 0.950 . S
C344 C343 1.479 . S
C344 C345 1.375 . S
C344 C350 1.404 . S
C345 C344 1.375 . S
C345 C346 1.369 . S
C345 H358 0.950 . S
C346 C345 1.369 . S
C346 C347 1.392 . S
C346 H359 0.951 . S
C347 C346 1.392 . S
C347 C349 1.384 . S
H348 C350 0.949 . S
C349 C347 1.384 . S
C349 C350 1.385 . S
C349 H351 0.950 . S
C350 C344 1.404 . S
C350 H348 0.949 . S
C350 C349 1.385 . S
H351 C349 0.950 . S
H352 C336 0.951 . S
H353 C338 0.951 . S
H354 C340 0.951 . S
H355 C341 0.950 . S
H356 C342 0.950 . S
H357 C343 0.950 . S
H358 C345 0.950 . S
H359 C346 0.951 . S
C360 C361 1.386 . S
C360 C362 1.383 . S
C360 H376 0.951 . S
C361 C360 1.386 . S
C361 C365 1.383 . S
C362 C360 1.383 . S
C362 C363 1.402 . S
C362 H377 0.951 . S
C363 C362 1.402 . S
C363 C364 1.375 . S
C363 C366 1.481 . S
C364 C363 1.375 . S
C364 C365 1.367 . S
C364 H378 0.951 . S
C365 C361 1.383 . S
C365 C364 1.367 . S
C365 H379 0.950 . S
C366 C363 1.481 . S
C366 C367 1.297 . S
C366 H380 0.950 . S
C367 C366 1.297 . S
C367 C368 1.479 . S
C367 H381 0.950 . S
C368 C367 1.479 . S
C368 C369 1.375 . S
C368 C374 1.404 . S
C369 C368 1.375 . S
C369 C370 1.369 . S
C369 H382 0.950 . S
C370 C369 1.369 . S
C370 C371 1.392 . S
C370 H383 0.951 . S
C371 C370 1.392 . S
C371 C373 1.384 . S
H372 C374 0.949 . S
C373 C371 1.384 . S
C373 C374 1.385 . S
C373 H375 0.950 . S
C374 C368 1.404 . S
C374 H372 0.949 . S
C374 C373 1.385 . S
H375 C373 0.950 . S
H376 C360 0.951 . S
H377 C362 0.951 . S
H378 C364 0.951 . S
H379 C365 0.950 . S
H380 C366 0.950 . S
H381 C367 0.950 . S
H382 C369 0.950 . S
H383 C370 0.951 . S
C384 C385 1.386 . S
C384 C386 1.383 . S
C384 H400 0.951 . S
C385 C384 1.386 . S
C385 C389 1.383 . S
C386 C384 1.383 . S
C386 C387 1.402 . S
C386 H401 0.951 . S
C387 C386 1.402 . S
C387 C388 1.375 . S
C387 C390 1.481 . S
C388 C387 1.375 . S
C388 C389 1.367 . S
C388 H402 0.951 . S
C389 C385 1.383 . S
C389 C388 1.367 . S
C389 H403 0.950 . S
C390 C387 1.481 . S
C390 C391 1.297 . S
C390 H404 0.950 . S
C391 C390 1.297 . S
C391 C392 1.479 . S
C391 H405 0.950 . S
C392 C391 1.479 . S
C392 C393 1.375 . S
C392 C398 1.404 . S
C393 C392 1.375 . S
C393 C394 1.369 . S
C393 H406 0.950 . S
C394 C393 1.369 . S
C394 C395 1.392 . S
C394 H407 0.951 . S
C395 C394 1.392 . S
C395 C397 1.384 . S
H396 C398 0.949 . S
C397 C395 1.384 . S
C397 C398 1.385 . S
C397 H399 0.950 . S
C398 C392 1.404 . S
C398 H396 0.949 . S
C398 C397 1.385 . S
H399 C397 0.950 . S
H400 C384 0.951 . S
H401 C386 0.951 . S
H402 C388 0.951 . S
H403 C389 0.950 . S
H404 C390 0.950 . S
H405 C391 0.950 . S
H406 C393 0.950 . S
H407 C394 0.951 . S
C131 C56 1.500 . S
C121 N41 1.516 . S
C145 N2 1.517 . S
C155 C99 1.514 . S
C169 N15 1.514 . S
C179 C65 1.512 . S
C193 N28 1.509 . S
C203 C90 1.495 . S
C227 C52 1.514 . S
C217 N5 1.520 . S
C251 C94 1.493 . S
C241 N14 1.506 . S
C265 N27 1.496 . S
C275 C60 1.506 . S
C289 N44 1.503 . S
C299 C86 1.503 . S
C323 C115 1.503 . S
C313 N18 1.503 . S
C347 C81 1.512 . S
C337 N31 1.521 . S
C371 C103 1.495 . S
C361 N40 1.507 . S
C385 N1 1.506 . S
C395 C69 1.493 . S
