# Generated by pormake.
# Topology pyr, (3,6)-cn, num edge types: 1
# Building blocks:
#     Node 0, Type 0, BuildingBlock: BETDIP_clean_linker_0, # of connection points: 3
#     Node 1, Type 0, BuildingBlock: BETDIP_clean_linker_0, # of connection points: 3
#     Node 2, Type 0, BuildingBlock: BETDIP_clean_linker_0, # of connection points: 3
#     Node 3, Type 0, BuildingBlock: BETDIP_clean_linker_0, # of connection points: 3
#     Node 4, Type 0, BuildingBlock: BETDIP_clean_linker_0, # of connection points: 3
#     Node 5, Type 0, BuildingBlock: BETDIP_clean_linker_0, # of connection points: 3
#     Node 6, Type 0, BuildingBlock: BETDIP_clean_linker_0, # of connection points: 3
#     Node 7, Type 0, BuildingBlock: BETDIP_clean_linker_0, # of connection points: 3
#     Node 8, Type 1, BuildingBlock: INOVEN_clean_sbu_0, # of connection points: 6
#     Node 9, Type 1, BuildingBlock: INOVEN_clean_sbu_0, # of connection points: 6
#     Node 10, Type 1, BuildingBlock: INOVEN_clean_sbu_0, # of connection points: 6
#     Node 11, Type 1, BuildingBlock: INOVEN_clean_sbu_0, # of connection points: 6
#     Edge 12, Type (0, 1), BuildingBlock: TEMPAE_clean_linker_10, # of connection points: 2
#     Edge 13, Type (0, 1), BuildingBlock: TEMPAE_clean_linker_10, # of connection points: 2
#     Edge 14, Type (0, 1), BuildingBlock: TEMPAE_clean_linker_10, # of connection points: 2
#     Edge 15, Type (0, 1), BuildingBlock: TEMPAE_clean_linker_10, # of connection points: 2
#     Edge 16, Type (0, 1), BuildingBlock: TEMPAE_clean_linker_10, # of connection points: 2
#     Edge 17, Type (0, 1), BuildingBlock: TEMPAE_clean_linker_10, # of connection points: 2
#     Edge 18, Type (0, 1), BuildingBlock: TEMPAE_clean_linker_10, # of connection points: 2
#     Edge 19, Type (0, 1), BuildingBlock: TEMPAE_clean_linker_10, # of connection points: 2
#     Edge 20, Type (0, 1), BuildingBlock: TEMPAE_clean_linker_10, # of connection points: 2
#     Edge 21, Type (0, 1), BuildingBlock: TEMPAE_clean_linker_10, # of connection points: 2
#     Edge 22, Type (0, 1), BuildingBlock: TEMPAE_clean_linker_10, # of connection points: 2
#     Edge 23, Type (0, 1), BuildingBlock: TEMPAE_clean_linker_10, # of connection points: 2
#     Edge 24, Type (0, 1), BuildingBlock: TEMPAE_clean_linker_10, # of connection points: 2
#     Edge 25, Type (0, 1), BuildingBlock: TEMPAE_clean_linker_10, # of connection points: 2
#     Edge 26, Type (0, 1), BuildingBlock: TEMPAE_clean_linker_10, # of connection points: 2
#     Edge 27, Type (0, 1), BuildingBlock: TEMPAE_clean_linker_10, # of connection points: 2
#     Edge 28, Type (0, 1), BuildingBlock: TEMPAE_clean_linker_10, # of connection points: 2
#     Edge 29, Type (0, 1), BuildingBlock: TEMPAE_clean_linker_10, # of connection points: 2
#     Edge 30, Type (0, 1), BuildingBlock: TEMPAE_clean_linker_10, # of connection points: 2
#     Edge 31, Type (0, 1), BuildingBlock: TEMPAE_clean_linker_10, # of connection points: 2
#     Edge 32, Type (0, 1), BuildingBlock: TEMPAE_clean_linker_10, # of connection points: 2
#     Edge 33, Type (0, 1), BuildingBlock: TEMPAE_clean_linker_10, # of connection points: 2
#     Edge 34, Type (0, 1), BuildingBlock: TEMPAE_clean_linker_10, # of connection points: 2
#     Edge 35, Type (0, 1), BuildingBlock: TEMPAE_clean_linker_10, # of connection points: 2
# Relax obj value: 0.124
# Max RMSD: 0.169
# Mean RMSD: 0.138
data_MOF--net-pyr--node1-INOVEN_clean_sbu_0--node2-BETDIP_clean_linker_0--edge1-TEMPAE_clean_linker_10
_symmetry_space_group_name_H-M    P1
_symmetry_Int_Tables_number       1
_symmetry_cell_setting            triclinic
loop_
_symmetry_equiv_pos_as_xyz
'x, y, z'
_cell_length_a     38.325506
_cell_length_b     40.067824
_cell_length_c     37.764402
_cell_angle_alpha  92.779507
_cell_angle_beta   86.721838
_cell_angle_gamma 106.24547
loop_
_atom_site_label
_atom_site_type_symbol
_atom_site_fract_x
_atom_site_fract_y
_atom_site_fract_z
_atom_type_partial_charge
H0 H 0.3268 0.32487 0.24284 0.0
H1 H 0.40638 0.3114 0.16327 0.0
H2 H 0.37128 0.23787 0.24661 0.0
H3 H 0.36431 0.33349 0.13022 0.0
C4 C 0.35555 0.35142 0.14881 0.0
C5 C 0.34577 0.31066 0.23286 0.0
C6 C 0.34657 0.28004 0.24884 0.0
C7 C 0.36672 0.32166 0.20194 0.0
C8 C 0.39006 0.30264 0.18718 0.0
C9 C 0.39247 0.27255 0.20361 0.0
C10 C 0.37061 0.26161 0.23446 0.0
N11 N 0.36175 0.35088 0.18543 0.0
H12 H 0.16795 0.84544 0.71986 0.0
H13 H 0.20162 0.79171 0.62805 0.0
H14 H 0.27331 0.82705 0.71337 0.0
H15 H 0.15455 0.79768 0.60336 0.0
C16 C 0.14138 0.81404 0.61965 0.0
C17 C 0.18776 0.83434 0.70583 0.0
C18 C 0.22148 0.83796 0.72043 0.0
C19 C 0.1804 0.81847 0.67209 0.0
C20 C 0.20657 0.80453 0.65382 0.0
C21 C 0.24014 0.80765 0.66857 0.0
C22 C 0.24745 0.82463 0.70172 0.0
N23 N 0.14796 0.8198 0.6564 0.0
H24 H 0.71411 0.42477 0.85292 0.0
H25 H 0.62326 0.33264 0.84655 0.0
H26 H 0.70324 0.34236 0.92506 0.0
H27 H 0.60236 0.36214 0.8063 0.0
C28 C 0.62268 0.38562 0.79819 0.0
C29 C 0.69944 0.39937 0.86246 0.0
C30 C 0.71277 0.38597 0.89117 0.0
C31 C 0.66698 0.381 0.84617 0.0
C32 C 0.64773 0.34763 0.85896 0.0
C33 C 0.6609 0.33297 0.88734 0.0
C34 C 0.69312 0.35288 0.90318 0.0
N35 N 0.65572 0.39721 0.81703 0.0
H36 H 0.82704 0.63673 0.36831 0.0
H37 H 0.90774 0.73333 0.34852 0.0
H38 H 0.82772 0.72734 0.43453 0.0
H39 H 0.89393 0.70712 0.28789 0.0
C40 C 0.89671 0.68159 0.29321 0.0
C41 C 0.83844 0.66405 0.37514 0.0
C42 C 0.82295 0.67978 0.40362 0.0
C43 C 0.86835 0.68329 0.35477 0.0
C44 C 0.88421 0.71862 0.36387 0.0
C45 C 0.87001 0.73472 0.39312 0.0
C46 C 0.83916 0.71506 0.4124 0.0
N47 N 0.8824 0.66601 0.32592 0.0
H48 H 0.62825 0.77421 0.92179 0.0
H49 H 0.71642 0.76015 0.85317 0.0
H50 H 0.67488 0.84769 0.84056 0.0
H51 H 0.67712 0.69843 0.86285 0.0
C52 C 0.68295 0.70518 0.89056 0.0
C53 C 0.6474 0.78276 0.89962 0.0
C54 C 0.64836 0.81339 0.88232 0.0
C55 C 0.67101 0.76286 0.88833 0.0
C56 C 0.69659 0.77427 0.86025 0.0
C57 C 0.69833 0.80488 0.84283 0.0
C58 C 0.67364 0.82393 0.85369 0.0
N59 N 0.67074 0.73282 0.907 0.0
H60 H 0.83176 0.21119 0.36913 0.0
H61 H 0.82475 0.27352 0.4637 0.0
H62 H 0.77338 0.28852 0.36983 0.0
H63 H 0.88237 0.26012 0.47158 0.0
C64 C 0.87106 0.23251 0.46565 0.0
C65 C 0.82342 0.23251 0.38239 0.0
C66 C 0.80234 0.24947 0.36485 0.0
C67 C 0.83225 0.2415 0.41767 0.0
C68 C 0.81964 0.2676 0.43586 0.0
C69 C 0.79856 0.28479 0.41858 0.0
C70 C 0.79054 0.27598 0.38295 0.0
N71 N 0.85042 0.22122 0.43517 0.0
H72 H 0.32737 0.66324 0.22613 0.0
H73 H 0.4174 0.75604 0.23328 0.0
H74 H 0.33848 0.74526 0.15347 0.0
H75 H 0.43868 0.72578 0.27324 0.0
C76 C 0.41785 0.70285 0.28187 0.0
C77 C 0.34196 0.68867 0.21661 0.0
C78 C 0.32893 0.70176 0.18751 0.0
C79 C 0.37403 0.70738 0.23334 0.0
C80 C 0.39322 0.7408 0.22055 0.0
C81 C 0.38025 0.75516 0.1918 0.0
C82 C 0.34843 0.73492 0.17559 0.0
N83 N 0.38484 0.69149 0.26298 0.0
H84 H 0.1349 0.33097 0.73443 0.0
H85 H 0.21571 0.42913 0.72253 0.0
H86 H 0.21608 0.34427 0.64856 0.0
H87 H 0.16119 0.44656 0.74194 0.0
C88 C 0.15482 0.43036 0.76501 0.0
C89 C 0.1583 0.34702 0.7199 0.0
C90 C 0.17373 0.333 0.69002 0.0
C91 C 0.17263 0.38188 0.73112 0.0
C92 C 0.20364 0.40269 0.71303 0.0
C93 C 0.22009 0.38898 0.68372 0.0
C94 C 0.20449 0.35438 0.67213 0.0
N95 N 0.15612 0.39519 0.7613 0.0
Gd96 Gd 0.03058 0.05019 0.50487 0.0
Gd97 Gd 0.01786 1.01672 0.57731 0.0
C98 C 0.064 0.09526 0.57572 0.0
C99 C 0.0388 0.09124 0.45257 0.0
C100 C 0.07106 0.11609 0.43692 0.0
C101 C 0.10518 0.10959 0.43687 0.0
C102 C 0.06822 0.1469 0.42288 0.0
C103 C 0.13326 0.16379 0.40729 0.0
C104 C 0.0991 0.17064 0.40821 0.0
C105 C 0.13588 0.13303 0.42196 0.0
C106 C 0.07944 1.01615 0.52031 0.0
C107 C 0.98459 0.97169 0.50622 0.0
C108 C 1.01019 0.97611 0.62992 0.0
C109 C 0.97772 0.95239 0.64656 0.0
C110 C 0.94363 0.95839 0.64403 0.0
C111 C 0.98046 0.92399 0.6653 0.0
C112 C 0.91536 0.90889 0.68072 0.0
C113 C 0.94949 0.90227 0.68213 0.0
C114 C 0.91286 0.9371 0.66119 0.0
C115 C 0.96795 0.0493 0.56122 0.0
O116 O 0.05112 0.09533 0.54395 0.0
O117 O 0.0605 0.06581 0.59174 0.0
O118 O 0.03801 0.05843 0.44851 0.0
O119 O 0.02869 0.09945 0.48468 0.0
O120 O 0.06956 1.01857 0.48858 0.0
O121 O 0.06574 0.03468 0.5414 0.0
O122 O 0.99727 0.97154 0.53811 0.0
O123 O 0.98787 1.00121 0.49036 0.0
O124 O 1.01196 1.00915 0.63377 0.0
O125 O 0.01918 0.96728 0.59761 0.0
O126 O 0.97708 0.04699 0.59327 0.0
O127 O 0.98274 0.03152 0.54042 0.0
H128 H 0.10808 0.08615 0.44804 0.0
H129 H 0.04216 0.15255 0.42323 0.0
H130 H 0.09622 0.1943 0.39759 0.0
H131 H 0.16151 0.12654 0.4212 0.0
H132 H 0.94091 0.98006 0.62939 0.0
H133 H 1.00655 0.91886 0.66726 0.0
H134 H 0.95235 0.88047 0.69642 0.0
H135 H 0.88734 0.94351 0.65996 0.0
Gd136 Gd 0.55114 0.04886 0.05467 0.0
Gd137 Gd 0.48632 0.03841 1.02086 0.0
C138 C 0.50035 0.09051 0.08944 0.0
C139 C 0.61784 0.0605 0.07292 0.0
C140 C 0.64389 0.08587 0.09453 0.0
C141 C 0.67523 0.07783 0.10424 0.0
C142 C 0.63644 0.11652 0.10799 0.0
C143 C 0.69021 0.1295 0.14307 0.0
C144 C 0.65958 0.1383 0.13203 0.0
C145 C 0.69825 0.09947 0.12833 0.0
C146 C 0.49817 0.99443 0.08338 0.0
C147 C 0.53707 0.9967 0.98608 0.0
C148 C 0.41987 1.02789 1.00218 0.0
C149 C 0.39225 1.00426 0.9803 0.0
C150 C 0.37455 1.01879 0.95633 0.0
C151 C 0.38343 0.96793 0.98247 0.0
C152 C 0.34018 0.96109 0.93588 0.0
C153 C 0.3575 0.94652 0.96049 0.0
C154 C 0.34896 0.99751 0.93425 0.0
C155 C 0.53963 0.0929 0.99263 0.0
O156 O 0.53497 0.09264 0.08345 0.0
O157 O 0.47577 0.06677 0.07203 0.0
O158 O 0.58993 0.04098 0.09049 0.0
O159 O 0.60896 0.07143 0.04364 0.0
O160 O 0.51938 1.01957 0.10141 0.0
O161 O 0.50465 1.00007 0.05055 0.0
O162 O 0.50242 0.99464 0.99184 0.0
O163 O 0.56158 1.02033 1.00368 0.0
O164 O 0.44808 0.04735 0.98495 0.0
O165 O 0.42833 1.01615 0.03125 0.0
O166 O 0.51866 0.06782 0.97433 0.0
O167 O 0.53265 0.08711 1.02534 0.0
H168 H 0.68126 0.0542 0.09406 0.0
H169 H 0.61215 0.12293 0.10086 0.0
H170 H 0.65256 0.16111 0.14326 0.0
H171 H 0.72185 0.09227 0.13616 0.0
H172 H 0.38101 0.04677 0.95425 0.0
H173 H 0.39674 0.9561 1.00084 0.0
H174 H 0.35117 0.91859 0.96265 0.0
H175 H 0.33686 1.00969 0.91515 0.0
Gd176 Gd 0.51769 0.51479 0.51681 0.0
Gd177 Gd 0.51783 0.5735 0.56672 0.0
C178 C 0.54548 0.5132 0.59777 0.0
C179 C 0.53494 0.46607 0.47887 0.0
C180 C 0.56279 0.4475 0.4813 0.0
C181 C 0.55275 0.4111 0.47879 0.0
C182 C 0.59929 0.4657 0.48656 0.0
C183 C 0.61576 0.41126 0.48452 0.0
C184 C 0.62554 0.44777 0.48797 0.0
C185 C 0.57894 0.3931 0.48056 0.0
C186 C 0.45188 0.51064 0.54914 0.0
C187 C 0.49068 0.57536 0.48522 0.0
C188 C 0.50302 0.62233 0.60686 0.0
C189 C 0.47999 0.64583 0.6057 0.0
C190 C 0.484 0.67327 0.63086 0.0
C191 C 0.45294 0.64021 0.58081 0.0
C192 C 0.43233 0.68798 0.608 0.0
C193 C 0.42932 0.66124 0.58187 0.0
C194 C 0.46035 0.69422 0.63202 0.0
C195 C 0.58361 0.57591 0.53505 0.0
O196 O 0.5477 0.50294 0.56389 0.0
O197 O 0.5309 0.53888 0.60656 0.0
O198 O 0.50888 0.45983 0.50361 0.0
O199 O 0.54675 0.49897 0.47135 0.0
O200 O 0.45657 0.50166 0.51613 0.0
O201 O 0.48209 0.52018 0.56359 0.0
O202 O 0.48975 0.58675 0.51888 0.0
O203 O 0.50364 0.54855 0.47677 0.0
O204 O 0.53084 0.62777 0.58409 0.0
O205 O 0.48573 0.58938 0.60968 0.0
O206 O 0.57896 0.58515 0.56795 0.0
O207 O 0.55366 0.56787 0.5203 0.0
H208 H 0.52466 0.39658 0.47523 0.0
H209 H 0.60773 0.49383 0.48904 0.0
H210 H 0.65366 0.46261 0.49064 0.0
H211 H 0.57039 0.36496 0.47849 0.0
H212 H 0.50488 0.67798 0.65013 0.0
H213 H 0.44943 0.61898 0.56128 0.0
H214 H 0.40781 0.65569 0.56322 0.0
H215 H 0.46356 0.71494 0.65213 0.0
Gd216 Gd 0.02298 0.50848 0.0502 0.0
Gd217 Gd 0.02199 0.57743 1.02385 0.0
C218 C 0.09204 0.57783 0.06557 0.0
C219 C 0.04067 0.45266 0.06326 0.0
C220 C 0.07352 0.44415 0.07352 0.0
C221 C 0.10111 0.46882 0.09116 0.0
C222 C 0.07816 0.41141 0.06392 0.0
C223 C 0.13794 0.42805 0.08908 0.0
C224 C 0.11002 0.40337 0.0717 0.0
C225 C 0.13312 0.46087 0.0988 0.0
C226 C 0.98762 0.54464 0.09417 0.0
C227 C 0.95253 0.50845 1.00922 0.0
C228 C 1.00309 0.63207 1.00933 0.0
C229 C 0.96907 0.63841 0.99873 0.0
C230 C 0.96975 0.65861 0.9693 0.0
C231 C 0.93576 0.62405 1.01726 0.0
C232 C 0.90434 0.65058 0.97728 0.0
C233 C 0.9038 0.63023 1.00676 0.0
C234 C 0.93774 0.66452 0.95856 0.0
C235 C 0.05808 0.54164 0.98031 0.0
O236 O 0.08024 0.54335 0.06198 0.0
O237 O 0.07215 0.59754 0.05546 0.0
O238 O 0.02509 0.46933 0.08703 0.0
O239 O 0.04246 0.46472 0.03145 0.0
O240 O 0.97625 0.51112 0.08892 0.0
O241 O 0.01723 0.55674 0.077 0.0
O242 O 0.96449 0.54289 1.01283 0.0
O243 O 0.97244 0.48865 1.01903 0.0
O244 O 0.01914 0.61551 0.9859 0.0
O245 O 1.00316 0.62173 0.04168 0.0
O246 O 0.06924 0.57512 0.98597 0.0
O247 O 0.02811 0.52928 0.99691 0.0
H248 H 0.09798 0.49423 0.09887 0.0
H249 H 0.05727 0.39217 0.05002 0.0
H250 H 0.1131 0.37802 0.0635 0.0
H251 H 0.15394 0.48028 0.11258 0.0
H252 H 0.99507 0.66967 0.95444 0.0
H253 H 0.93433 0.60808 0.03994 0.0
H254 H 0.87876 0.61939 1.02209 0.0
H255 H 0.93915 0.67972 0.93532 0.0
C256 C 0.3018 0.2297 0.27772 0.0
C257 C 0.31942 0.26548 0.27784 0.0
C258 C 0.27326 0.21585 0.3023 0.0
C259 C 0.26149 0.23838 0.32724 0.0
C260 C 0.27978 0.27433 0.32835 0.0
C261 C 0.30874 0.28743 0.30379 0.0
C262 C 0.25472 0.17724 0.30058 0.0
C263 C 0.26779 0.29914 0.35444 0.0
C264 C 0.16273 0.20225 0.35729 0.0
C265 C 0.1658 0.18741 0.38945 0.0
C266 C 0.19373 0.22085 0.33782 0.0
C267 C 0.22863 0.22424 0.35054 0.0
C268 C 0.23188 0.21093 0.38382 0.0
C269 C 0.2004 0.19292 0.40302 0.0
C270 C 0.18915 0.23517 0.30264 0.0
C271 C 0.26864 0.21393 0.3982 0.0
H272 H 0.30924 0.21254 0.25744 0.0
H273 H 0.32252 0.31503 0.30442 0.0
H274 H 0.25326 0.16618 0.32717 0.0
H275 H 0.2264 0.17261 0.29228 0.0
H276 H 0.26904 0.16296 0.28157 0.0
H277 H 0.28668 0.32581 0.35383 0.0
H278 H 0.2403 0.30048 0.34814 0.0
H279 H 0.26579 0.28966 0.3818 0.0
H280 H 0.13622 0.19795 0.34641 0.0
H281 H 0.20297 0.18227 0.42827 0.0
H282 H 0.19879 0.22001 0.28074 0.0
H283 H 0.20586 0.2626 0.30083 0.0
H284 H 0.16034 0.23394 0.29853 0.0
H285 H 0.28242 0.19732 0.38163 0.0
H286 H 0.26647 0.20566 0.42609 0.0
H287 H 0.28621 0.24106 0.39688 0.0
C288 C 0.21299 0.84398 0.78627 0.0
C289 C 0.23104 0.85703 0.75446 0.0
C290 C 0.22575 0.85928 0.81906 0.0
C291 C 0.2569 0.88839 0.81967 0.0
C292 C 0.27394 0.90263 0.78739 0.0
C293 C 0.26095 0.88656 0.75517 0.0
C294 C 0.20711 0.84326 0.85292 0.0
C295 C 0.30686 0.93398 0.78685 0.0
C296 C 0.28459 0.94852 0.89988 0.0
C297 C 0.3149 0.93881 0.91024 0.0
C298 C 0.26397 0.93103 0.87163 0.0
C299 C 0.27357 0.90286 0.85367 0.0
C300 C 0.30237 0.89127 0.8657 0.0
C301 C 0.32285 0.90952 0.89369 0.0
C302 C 0.23349 0.9442 0.85955 0.0
C303 C 0.31314 0.86099 0.84751 0.0
H304 H 0.19002 0.82091 0.78549 0.0
H305 H 0.27474 0.89654 0.73038 0.0
H306 H 0.22528 0.8309 0.86603 0.0
H307 H 0.2016 0.86353 0.87171 0.0
H308 H 0.18106 0.8232 0.84801 0.0
H309 H 0.31513 0.94334 0.75959 0.0
H310 H 0.30123 0.95557 0.8036 0.0
H311 H 0.3301 0.92733 0.79808 0.0
H312 H 0.2777 0.9706 0.91309 0.0
H313 H 0.3463 0.9019 0.90126 0.0
H314 H 0.20883 0.92232 0.85512 0.0
H315 H 0.24187 0.95712 0.83388 0.0
H316 H 0.22635 0.96319 0.87903 0.0
H317 H 0.28882 0.8386 0.84358 0.0
H318 H 0.33281 0.85244 0.86283 0.0
H319 H 0.32585 0.86863 0.8209 0.0
C320 C 0.57969 0.39351 0.75291 0.0
C321 C 0.61381 0.40544 0.76821 0.0
C322 C 0.56975 0.411 0.72504 0.0
C323 C 0.59444 0.44155 0.71132 0.0
C324 C 0.62914 0.45366 0.72648 0.0
C325 C 0.63833 0.43567 0.75458 0.0
C326 C 0.53245 0.3968 0.71041 0.0
C327 C 0.65665 0.48582 0.713 0.0
C328 C 0.57696 0.46946 0.61843 0.0
C329 C 0.55927 0.49553 0.62656 0.0
C330 C 0.5891 0.45233 0.64539 0.0
C331 C 0.58345 0.46099 0.68188 0.0
C332 C 0.56588 0.48747 0.69017 0.0
C333 C 0.55423 0.50428 0.66273 0.0
C334 C 0.60771 0.42459 0.63472 0.0
C335 C 0.55881 0.49779 0.72828 0.0
H336 H 0.5604 0.37027 0.76298 0.0
H337 H 0.6648 0.44534 0.76584 0.0
H338 H 0.51716 0.4166 0.71398 0.0
H339 H 0.53493 0.39101 0.6815 0.0
H340 H 0.5164 0.37272 0.72352 0.0
H341 H 0.68267 0.49162 0.7267 0.0
H342 H 0.66231 0.48257 0.68409 0.0
H343 H 0.64547 0.50853 0.71688 0.0
H344 H 0.58127 0.46223 0.59084 0.0
H345 H 0.54066 0.52419 0.66981 0.0
H346 H 0.59128 0.3992 0.6449 0.0
H347 H 0.63462 0.43076 0.64676 0.0
H348 H 0.6117 0.42183 0.60547 0.0
H349 H 0.54082 0.47512 0.74219 0.0
H350 H 0.54581 0.5194 0.73059 0.0
H351 H 0.58471 0.50594 0.74222 0.0
C352 C 0.90833 0.67005 0.22864 0.0
C353 C 0.90921 0.66104 0.2639 0.0
C354 C 0.91943 0.65069 0.20031 0.0
C355 C 0.93282 0.62223 0.20748 0.0
C356 C 0.93415 0.6133 0.24315 0.0
C357 C 0.92188 0.63252 0.27091 0.0
C358 C 0.91673 0.66061 0.16271 0.0
C359 C 0.94913 0.58381 0.25204 0.0
C360 C 0.93688 0.55293 0.13548 0.0
C361 C 0.97301 0.56465 0.1224 0.0
C362 C 0.92316 0.57178 0.16264 0.0
C363 C 0.94646 0.60249 0.17775 0.0
C364 C 0.98305 0.61425 0.16464 0.0
C365 C 0.99568 0.59551 0.13679 0.0
C366 C 0.88372 0.55891 0.17508 0.0
C367 C 1.00909 0.64633 0.18046 0.0
H368 H 0.89838 0.69201 0.22319 0.0
H369 H 0.92288 0.62562 0.29816 0.0
H370 H 0.94423 0.66871 0.14948 0.0
H371 H 0.90053 0.6378 0.14729 0.0
H372 H 0.90393 0.6822 0.16156 0.0
H373 H 0.94867 0.58038 0.28109 0.0
H374 H 0.93314 0.55912 0.23942 0.0
H375 H 0.97761 0.58873 0.24127 0.0
H376 H 0.91925 0.52922 0.12419 0.0
H377 H 0.02371 0.60459 0.12684 0.0
H378 H 0.87006 0.57972 0.17285 0.0
H379 H 0.88173 0.5524 0.20347 0.0
H380 H 0.86879 0.53553 0.15956 0.0
H381 H 0.999 0.66936 0.17747 0.0
H382 H 0.0369 0.65154 0.16781 0.0
H383 H 1.01077 0.64327 0.20931 0.0
C384 C 0.43371 0.23439 0.20942 0.0
C385 C 0.41539 0.25071 0.18761 0.0
C386 C 0.45098 0.20974 0.19538 0.0
C387 C 0.45046 0.20157 0.15852 0.0
C388 C 0.43396 0.21945 0.13605 0.0
C389 C 0.41644 0.24365 0.15087 0.0
C390 C 0.46818 0.1912 0.22024 0.0
C391 C 0.43328 0.21182 0.0965 0.0
C392 C 0.51319 0.15102 0.11549 0.0
C393 C 0.48904 0.11775 0.11106 0.0
C394 C 0.50125 0.17855 0.13144 0.0
C395 C 0.46449 0.17242 0.14378 0.0
C396 C 0.44047 0.13847 0.14082 0.0
C397 C 0.45295 0.11163 0.12419 0.0
C398 C 0.52755 0.21446 0.13365 0.0
C399 C 0.40124 0.13068 0.15427 0.0
H400 H 0.43371 0.24021 0.23775 0.0
H401 H 0.40214 0.25583 0.1338 0.0
H402 H 0.45261 0.16333 0.22083 0.0
H403 H 0.49639 0.19237 0.21069 0.0
H404 H 0.4688 0.20245 0.24775 0.0
H405 H 0.42272 0.23037 0.08234 0.0
H406 H 0.461 0.21292 0.08541 0.0
H407 H 0.41572 0.18511 0.0911 0.0
H408 H 0.54104 0.15598 0.105 0.0
H409 H 0.43424 0.08592 0.12089 0.0
H410 H 0.52776 0.22536 0.16123 0.0
H411 H 0.51863 0.23208 0.11667 0.0
H412 H 0.55572 0.21446 0.1249 0.0
H413 H 0.39968 0.13951 0.18247 0.0
H414 H 0.38677 0.10252 0.15202 0.0
H415 H 0.38675 0.14516 0.1389 0.0
C416 C 0.14582 0.85328 0.56992 0.0
C417 C 0.12804 0.8394 0.60151 0.0
C418 C 0.13743 0.88118 0.55479 0.0
C419 C 0.1096 0.89443 0.57101 0.0
C420 C 0.09002 0.87896 0.60177 0.0
C421 C 0.10006 0.85203 0.61715 0.0
C422 C 0.15964 0.89768 0.52263 0.0
C423 C 0.05919 0.89148 0.61895 0.0
C424 C 0.1123 0.98861 0.55953 0.0
C425 C 0.08918 0.98556 0.53156 0.0
C426 C 0.12 0.95915 0.57195 0.0
C427 C 0.1026 0.92584 0.55714 0.0
C428 C 0.07862 0.92268 0.52925 0.0
C429 C 0.07295 0.95277 0.51614 0.0
C430 C 0.14666 0.96366 0.60094 0.0
C431 C 0.05811 0.88757 0.51403 0.0
H432 H 0.16773 0.84357 0.55816 0.0
H433 H 0.08628 0.84104 0.64155 0.0
H434 H 0.14161 0.89829 0.50088 0.0
H435 H 0.17454 0.92503 0.52944 0.0
H436 H 0.17969 0.88366 0.5127 0.0
H437 H 0.04395 0.87399 0.63997 0.0
H438 H 0.07006 0.91789 0.63104 0.0
H439 H 0.03994 0.89336 0.59876 0.0
H440 H 0.12456 1.01409 0.57143 0.0
H441 H 0.05455 0.95051 0.49483 0.0
H442 H 0.1682 0.95091 0.59261 0.0
H443 H 0.13251 0.95092 0.62523 0.0
H444 H 0.15975 0.99148 0.60772 0.0
H445 H 0.07745 0.8734 0.50274 0.0
H446 H 0.03982 0.88968 0.49296 0.0
H447 H 0.04147 0.87162 0.53544 0.0
C448 C 0.77859 0.42348 0.88832 0.0
C449 C 0.74737 0.40622 0.90862 0.0
C450 C 0.81155 0.44114 0.90434 0.0
C451 C 0.81372 0.44221 0.94184 0.0
C452 C 0.78206 0.42552 0.9625 0.0
C453 C 0.74962 0.40771 0.94578 0.0
C454 C 0.8444 0.45804 0.88098 0.0
C455 C 0.78252 0.42621 1.00246 0.0
C456 C 0.90676 0.45608 0.98261 0.0
C457 C 0.91664 0.49167 0.99259 0.0
C458 C 0.87379 0.43995 0.96602 0.0
C459 C 0.8493 0.45951 0.95933 0.0
C460 C 0.85894 0.49542 0.96959 0.0
C461 C 0.89237 0.51102 0.98578 0.0
C462 C 0.86527 0.40182 0.95539 0.0
C463 C 0.83385 0.51746 0.96353 0.0
H464 H 0.77758 0.4224 0.85966 0.0
H465 H 0.72576 0.39504 0.96197 0.0
H466 H 0.8549 0.48598 0.88872 0.0
H467 H 0.86647 0.44572 0.88462 0.0
H468 H 0.83826 0.45582 0.85242 0.0
H469 H 0.75539 0.41347 1.01494 0.0
H470 H 0.80227 0.41275 1.01066 0.0
H471 H 0.7916 0.45348 1.0129 0.0
H472 H 0.92512 0.4407 0.98735 0.0
H473 H 0.8994 0.53847 0.99325 0.0
H474 H 0.86118 0.39823 0.92645 0.0
H475 H 0.83956 0.38725 0.96916 0.0
H476 H 0.88723 0.39026 0.96181 0.0
H477 H 0.82951 0.51771 0.93476 0.0
H478 H 0.84476 0.54471 0.97359 0.0
H479 H 0.80686 0.50613 0.97692 0.0
C480 C 0.76125 0.63584 0.40579 0.0
C481 C 0.78929 0.65991 0.42359 0.0
C482 C 0.72834 0.61898 0.42373 0.0
C483 C 0.72287 0.62688 0.46021 0.0
C484 C 0.75132 0.65033 0.47859 0.0
C485 C 0.78427 0.66616 0.46021 0.0
C486 C 0.69895 0.59358 0.40333 0.0
C487 C 0.74649 0.65975 0.51741 0.0
C488 C 0.62593 0.61797 0.49552 0.0
C489 C 0.6187 0.58799 0.51528 0.0
C490 C 0.65975 0.63085 0.47748 0.0
C491 C 0.68655 0.61271 0.47856 0.0
C492 C 0.67882 0.58176 0.49782 0.0
C493 C 0.64506 0.57005 0.51649 0.0
C494 C 0.66701 0.66422 0.45781 0.0
C495 C 0.7062 0.56114 0.49881 0.0
H496 H 0.76447 0.63095 0.3775 0.0
H497 H 0.80596 0.68392 0.47455 0.0
H498 H 0.68833 0.5691 0.41784 0.0
H499 H 0.67585 0.60477 0.40074 0.0
H500 H 0.70887 0.58727 0.37631 0.0
H501 H 0.77166 0.67752 0.52815 0.0
H502 H 0.72433 0.67262 0.52114 0.0
H503 H 0.73838 0.63595 0.5332 0.0
H504 H 0.60533 0.63175 0.49484 0.0
H505 H 0.63913 0.54674 0.53179 0.0
H506 H 0.67371 0.65959 0.42937 0.0
H507 H 0.69086 0.68385 0.46867 0.0
H508 H 0.64337 0.67523 0.45977 0.0
H509 H 0.71547 0.5553 0.47142 0.0
H510 H 0.69488 0.53626 0.51257 0.0
H511 H 0.73049 0.57671 0.51269 0.0
C512 C 0.3159 0.36278 0.10331 0.0
C513 C 0.32853 0.36862 0.13776 0.0
C514 C 0.28687 0.37498 0.09368 0.0
C515 C 0.27009 0.3933 0.11922 0.0
C516 C 0.28389 0.40065 0.15356 0.0
C517 C 0.31303 0.38834 0.16238 0.0
C518 C 0.27313 0.36691 0.05669 0.0
C519 C 0.26675 0.42006 0.18158 0.0
C520 C 0.20602 0.44334 0.09054 0.0
C521 C 0.17192 0.41945 0.09695 0.0
C522 C 0.23829 0.43514 0.09732 0.0
C523 C 0.23636 0.40237 0.11104 0.0
C524 C 0.202 0.37825 0.11772 0.0
C525 C 0.17024 0.38705 0.11052 0.0
C526 C 0.27442 0.46145 0.08971 0.0
C527 C 0.19873 0.34318 0.13273 0.0
H528 H 0.32788 0.3476 0.08423 0.0
H529 H 0.32277 0.39322 0.18904 0.0
H530 H 0.24557 0.34829 0.05791 0.0
H531 H 0.27073 0.39086 0.04471 0.0
H532 H 0.29121 0.35538 0.03903 0.0
H533 H 0.28242 0.42599 0.20606 0.0
H534 H 0.26461 0.4448 0.1712 0.0
H535 H 0.23873 0.40421 0.18871 0.0
H536 H 0.20748 0.46828 0.07969 0.0
H537 H 0.14395 0.36868 0.11597 0.0
H538 H 0.29114 0.45012 0.0703 0.0
H539 H 0.28971 0.46821 0.11434 0.0
H540 H 0.27125 0.48571 0.07897 0.0
H541 H 0.21361 0.32847 0.11492 0.0
H542 H 0.16999 0.32733 0.1362 0.0
H543 H 0.21136 0.34667 0.15886 0.0
C544 C 0.60404 0.28498 0.90654 0.0
C545 C 0.64207 0.29687 0.90085 0.0
C546 C 0.58694 0.25226 0.92165 0.0
C547 C 0.60804 0.23023 0.93122 0.0
C548 C 0.64631 0.24183 0.92485 0.0
C549 C 0.66265 0.27461 0.90995 0.0
C550 C 0.54617 0.24145 0.92789 0.0
C551 C 0.67024 0.21954 0.93389 0.0
C552 C 0.57007 0.15807 0.99926 0.0
C553 C 0.55829 0.12797 0.97743 0.0
C554 C 0.58574 0.1913 0.98475 0.0
C555 C 0.59033 0.19496 0.94732 0.0
C556 C 0.57877 0.16451 0.92527 0.0
C557 C 0.56289 0.13174 0.94046 0.0
C558 C 0.59725 0.22263 1.0096 0.0
C559 C 0.58324 0.1665 0.8854 0.0
H560 H 0.58762 0.30169 0.90005 0.0
H561 H 0.69192 0.28283 0.90529 0.0
H562 H 0.53421 0.21642 0.91347 0.0
H563 H 0.53916 0.23721 0.95654 0.0
H564 H 0.53343 0.26118 0.91908 0.0
H565 H 0.69947 0.23196 0.9272 0.0
H566 H 0.66697 0.21432 0.96264 0.0
H567 H 0.66187 0.19404 0.91934 0.0
H568 H 0.56656 0.15576 0.02781 0.0
H569 H 0.55397 0.10887 0.92318 0.0
H570 H 0.58333 0.24234 1.00339 0.0
H571 H 0.62693 0.23485 1.00585 0.0
H572 H 0.59095 0.21588 0.03789 0.0
H573 H 0.56841 0.18428 0.87601 0.0
H574 H 0.57299 0.14066 0.8718 0.0
H575 H 0.61239 0.17739 0.8774 0.0
C576 C 0.86618 0.79328 0.41752 0.0
C577 C 0.88758 0.77159 0.40468 0.0
C578 C 0.88197 0.8265 0.43252 0.0
C579 C 0.92026 0.83888 0.43413 0.0
C580 C 0.94219 0.81789 0.41969 0.0
C581 C 0.92562 0.78447 0.40534 0.0
C582 C 0.85753 0.84785 0.44778 0.0
C583 C 0.98316 0.83034 0.42039 0.0
C584 C 0.9608 0.93632 0.45149 0.0
C585 C 0.96728 0.93793 0.48783 0.0
C586 C 0.94609 0.90428 0.43352 0.0
C587 C 0.93712 0.87308 0.45241 0.0
C588 C 0.94347 0.87458 0.48913 0.0
C589 C 0.95869 0.90688 0.50629 0.0
C590 C 0.94039 0.90377 0.39425 0.0
C591 C 0.93399 0.84204 0.5104 0.0
H592 H 0.83684 0.78404 0.41642 0.0
H593 H 0.94247 0.76796 0.39579 0.0
H594 H 0.86122 0.85242 0.47672 0.0
H595 H 0.865 0.87368 0.43559 0.0
H596 H 0.82833 0.83494 0.44355 0.0
H597 H 0.99642 0.81222 0.40555 0.0
H598 H 0.99333 0.8564 0.40878 0.0
H599 H 0.99159 0.83301 0.44824 0.0
H600 H 0.96777 0.96009 0.43687 0.0
H601 H 0.96373 0.90776 0.53432 0.0
H602 H 0.91115 0.89252 0.38913 0.0
H603 H 0.95541 0.88693 0.37977 0.0
H604 H 0.94964 0.93016 0.38321 0.0
H605 H 0.90458 0.82846 0.50875 0.0
H606 H 0.94027 0.84767 0.5388 0.0
H607 H 0.94927 0.8239 0.49921 0.0
C608 C 0.30418 0.81233 0.64748 0.0
C609 C 0.26765 0.79269 0.65007 0.0
C610 C 0.33145 0.79698 0.6352 0.0
C611 C 0.32185 0.76111 0.62558 0.0
C612 C 0.28475 0.74176 0.6258 0.0
C613 C 0.258 0.75786 0.638 0.0
C614 C 0.37067 0.81859 0.63491 0.0
C615 C 0.27348 0.70344 0.61577 0.0
C616 C 0.39305 0.7206 0.5824 0.0
C617 C 0.40477 0.70759 0.61199 0.0
C618 C 0.36618 0.73839 0.58627 0.0
C619 C 0.35062 0.74286 0.62046 0.0
C620 C 0.36241 0.72975 0.65035 0.0
C621 C 0.38936 0.71233 0.64573 0.0
C622 C 0.35446 0.75237 0.55392 0.0
C623 C 0.34632 0.73382 0.68725 0.0
H624 H 0.31155 0.83946 0.6563 0.0
H625 H 0.22974 0.74266 0.64007 0.0
H626 H 0.38441 0.81103 0.65704 0.0
H627 H 0.38532 0.81379 0.60984 0.0
H628 H 0.37316 0.84686 0.63804 0.0
H629 H 0.24366 0.69334 0.61277 0.0
H630 H 0.28769 0.69824 0.59058 0.0
H631 H 0.28131 0.68874 0.63668 0.0
H632 H 0.40511 0.71709 0.55631 0.0
H633 H 0.39789 0.70174 0.66856 0.0
H634 H 0.35894 0.78089 0.55735 0.0
H635 H 0.32491 0.74063 0.55069 0.0
H636 H 0.36947 0.74694 0.52927 0.0
H637 H 0.35061 0.7618 0.69447 0.0
H638 H 0.35849 0.72199 0.70762 0.0
H639 H 0.31653 0.72143 0.68802 0.0
C640 C 0.74541 0.85375 0.81373 0.0
C641 C 0.72769 0.81805 0.81519 0.0
C642 C 0.77478 0.86636 0.78956 0.0
C643 C 0.7874 0.84267 0.76682 0.0
C644 C 0.76943 0.80669 0.76769 0.0
C645 C 0.73952 0.79486 0.79155 0.0
C646 C 0.79289 0.90503 0.78899 0.0
C647 C 0.78245 0.78061 0.74418 0.0
C648 C 0.84798 0.88119 0.68757 0.0
C649 C 0.88279 0.88797 0.70105 0.0
C650 C 0.81665 0.86557 0.70831 0.0
C651 C 0.82021 0.85569 0.74308 0.0
C652 C 0.85524 0.86052 0.7561 0.0
C653 C 0.88609 0.87691 0.73509 0.0
C654 C 0.77973 0.86115 0.69362 0.0
C655 C 0.86014 0.84968 0.79283 0.0
H656 H 0.7371 0.87191 0.83222 0.0
H657 H 0.72568 0.7673 0.79198 0.0
H658 H 0.82117 0.91063 0.7977 0.0
H659 H 0.79444 0.9143 0.76158 0.0
H660 H 0.7782 0.92015 0.80658 0.0
H661 H 0.76482 0.75363 0.74734 0.0
H662 H 0.78328 0.78731 0.71593 0.0
H663 H 0.81058 0.78146 0.75061 0.0
H664 H 0.84512 0.88883 0.661 0.0
H665 H 0.91271 0.88229 0.74601 0.0
H666 H 0.76549 0.87801 0.70922 0.0
H667 H 0.76269 0.83393 0.69613 0.0
H668 H 0.78164 0.86805 0.6653 0.0
H669 H 0.8502 0.86635 0.813 0.0
H670 H 0.88905 0.85187 0.79754 0.0
H671 H 0.84382 0.82243 0.79695 0.0
C672 C 0.75201 0.22929 0.32316 0.0
C673 C 0.78919 0.23679 0.32921 0.0
C674 C 0.73826 0.21432 0.29076 0.0
C675 C 0.76236 0.20693 0.26367 0.0
C676 C 0.80014 0.21564 0.26912 0.0
C677 C 0.81311 0.23026 0.30202 0.0
C678 C 0.69773 0.20497 0.28616 0.0
C679 C 0.82665 0.20853 0.24063 0.0
C680 C 0.71953 0.13224 0.20073 0.0
C681 C 0.71176 0.14971 0.17222 0.0
C682 C 0.73709 0.15064 0.23014 0.0
C683 C 0.74739 0.18745 0.23094 0.0
C684 C 0.74083 0.20528 0.20167 0.0
C685 C 0.72279 0.18615 0.17269 0.0
C686 C 0.74318 0.13065 0.26104 0.0
C687 C 0.75189 0.24451 0.20145 0.0
H688 H 0.73339 0.23386 0.34433 0.0
H689 H 0.8419 0.23627 0.30666 0.0
H690 H 0.69192 0.2163 0.26169 0.0
H691 H 0.68674 0.17631 0.28317 0.0
H692 H 0.683 0.21424 0.30905 0.0
H693 H 0.85538 0.21995 0.24774 0.0
H694 H 0.82178 0.18004 0.23627 0.0
H695 H 0.82248 0.21919 0.21513 0.0
H696 H 0.71057 0.10406 0.20066 0.0
H697 H 0.71702 0.19967 0.15051 0.0
H698 H 0.72699 0.13617 0.28477 0.0
H699 H 0.7722 0.13909 0.26778 0.0
H700 H 0.73529 0.10211 0.25541 0.0
H701 H 0.7355 0.25481 0.2221 0.0
H702 H 0.74798 0.25432 0.17537 0.0
H703 H 0.78087 0.25503 0.20798 0.0
C704 C 0.46059 0.69418 0.32709 0.0
C705 C 0.42614 0.68319 0.31233 0.0
C706 C 0.46996 0.67676 0.35537 0.0
C707 C 0.44432 0.64733 0.37013 0.0
C708 C 0.40929 0.63622 0.35555 0.0
C709 C 0.4007 0.65405 0.32697 0.0
C710 C 0.50769 0.68981 0.36928 0.0
C711 C 0.38075 0.60532 0.37016 0.0
C712 C 0.48141 0.5832 0.4201 0.0
C713 C 0.47752 0.59321 0.4561 0.0
C714 C 0.47041 0.60008 0.39231 0.0
C715 C 0.45465 0.62793 0.40003 0.0
C716 C 0.45015 0.63789 0.43635 0.0
C717 C 0.46165 0.62067 0.46367 0.0
C718 C 0.47626 0.58835 0.35441 0.0
C719 C 0.43342 0.66709 0.44644 0.0
H720 H 0.48059 0.71657 0.31624 0.0
H721 H 0.37395 0.64514 0.31617 0.0
H722 H 0.50599 0.69656 0.39805 0.0
H723 H 0.52171 0.66901 0.36615 0.0
H724 H 0.52452 0.71307 0.35534 0.0
H725 H 0.35457 0.60031 0.35688 0.0
H726 H 0.39054 0.58175 0.36678 0.0
H727 H 0.37582 0.60961 0.39904 0.0
H728 H 0.49359 0.56221 0.41342 0.0
H729 H 0.45827 0.62892 0.49109 0.0
H730 H 0.49489 0.61011 0.33972 0.0
H731 H 0.45008 0.58091 0.34094 0.0
H732 H 0.48799 0.56588 0.35256 0.0
H733 H 0.45076 0.69173 0.43541 0.0
H734 H 0.43012 0.67082 0.47566 0.0
H735 H 0.40638 0.6618 0.43483 0.0
C736 C 0.14126 0.42996 0.83108 0.0
C737 C 0.1403 0.4442 0.79807 0.0
C738 C 0.12883 0.44437 0.86245 0.0
C739 C 0.1142 0.47305 0.86057 0.0
C740 C 0.11262 0.48699 0.82712 0.0
C741 C 0.12621 0.47275 0.79642 0.0
C742 C 0.13195 0.42935 0.89763 0.0
C743 C 0.09645 0.51694 0.8237 0.0
C744 C 0.05097 0.4925 0.93543 0.0
C745 C 0.07325 0.52254 0.95164 0.0
C746 C 0.06407 0.47577 0.90613 0.0
C747 C 0.10069 0.48878 0.89341 0.0
C748 C 0.12373 0.5182 0.91083 0.0
C749 C 0.10956 0.53506 0.93937 0.0
C750 C 0.03829 0.44508 0.88789 0.0
C751 C 0.16318 0.53232 0.89886 0.0
H752 H 0.15253 0.40811 0.8325 0.0
H753 H 0.12543 0.48375 0.7709 0.0
H754 H 0.1488 0.44985 0.91521 0.0
H755 H 0.10469 0.42009 0.91114 0.0
H756 H 0.14433 0.40734 0.89465 0.0
H757 H 0.09567 0.52369 0.79562 0.0
H758 H 0.06833 0.51035 0.83567 0.0
H759 H 0.11258 0.54028 0.8384 0.0
H760 H 0.02281 0.48281 0.9448 0.0
H761 H 0.12691 0.55811 0.95209 0.0
H762 H 0.04959 0.42239 0.88631 0.0
H763 H 0.03499 0.4516 0.86027 0.0
H764 H 1.01103 0.43741 0.90177 0.0
H765 H 0.17668 0.51111 0.89677 0.0
H766 H 0.17831 0.55312 0.91728 0.0
H767 H 0.16509 0.54315 0.87211 0.0
C768 C 0.60938 0.85262 0.87138 0.0
C769 C 0.62501 0.83594 0.8954 0.0
C770 C 0.59128 0.87739 0.8832 0.0
C771 C 0.58849 0.88551 0.91995 0.0
C772 C 0.6025 0.86744 0.94445 0.0
C773 C 0.62067 0.84298 0.93188 0.0
C774 C 0.57662 0.89599 0.85626 0.0
C775 C 0.59987 0.87518 0.98389 0.0
C776 C 0.58526 0.97554 0.9529 0.0
C777 C 0.54868 0.96967 0.96434 0.0
C778 C 0.59815 0.94867 0.93697 0.0
C779 C 0.57395 0.91495 0.93274 0.0
C780 C 0.53663 0.9092 0.94285 0.0
C781 C 0.52437 0.93673 0.95838 0.0
C782 C 0.63806 0.95604 0.92609 0.0
C783 C 0.51003 0.8736 0.93898 0.0
H784 H 0.61204 0.84688 0.84317 0.0
H785 H 0.63293 0.83052 0.95063 0.0
H786 H 0.54798 0.8953 0.86354 0.0
H787 H 0.59264 0.92374 0.85603 0.0
H788 H 0.57794 0.88445 0.82904 0.0
H789 H 0.60908 0.8567 0.99954 0.0
H790 H 0.61692 0.90192 0.99008 0.0
H791 H 0.57143 0.87405 0.99261 0.0
H792 H 0.60412 1.001 0.95727 0.0
H793 H 0.4961 0.93196 0.96744 0.0
H794 H 0.64144 0.9471 0.89817 0.0
H795 H 0.65111 0.94144 0.94289 0.0
H796 H 0.65266 0.98415 0.92872 0.0
H797 H 0.51238 0.86252 0.91175 0.0
H798 H 0.48145 0.87418 0.94473 0.0
H799 H 0.51651 0.8558 0.95758 0.0
C800 C 0.85936 0.17329 0.48895 0.0
C801 C 0.88278 0.20677 0.48488 0.0
C802 C 0.87092 0.14759 0.5048 0.0
C803 C 0.90712 0.15538 0.51567 0.0
C804 C 0.93061 0.18949 0.5124 0.0
C805 C 0.91784 0.21506 0.49755 0.0
C806 C 0.84476 0.11184 0.5089 0.0
C807 C 0.96969 0.19848 0.52284 0.0
C808 C 0.93575 0.09483 0.57504 0.0
C809 C 0.94982 0.07458 0.54992 0.0
C810 C 0.92089 0.1208 0.5643 0.0
C811 C 0.92123 0.12715 0.52771 0.0
C812 C 0.93511 0.10644 0.50229 0.0
C813 C 0.94845 0.07986 0.51373 0.0
C814 C 0.90516 0.1416 0.59203 0.0
C815 C 0.93674 0.11291 0.46307 0.0
H816 H 0.832 0.16715 0.47952 0.0
H817 H 0.93582 0.24105 0.49425 0.0
H818 H 0.85355 0.0929 0.49065 0.0
H819 H 0.84473 0.10305 0.53632 0.0
H820 H 0.81652 0.11123 0.50296 0.0
H821 H 0.98388 0.22655 0.52008 0.0
H822 H 0.97107 0.19152 0.55069 0.0
H823 H 0.98457 0.18311 0.50585 0.0
H824 H 0.93655 0.09051 0.60306 0.0
H825 H 0.95886 0.06383 0.49428 0.0
H826 H 0.87689 0.14053 0.58587 0.0
H827 H 0.92125 0.16931 0.59181 0.0
H828 H 0.90496 0.13197 0.61916 0.0
H829 H 0.90894 0.10941 0.45387 0.0
H830 H 0.94953 0.09518 0.44693 0.0
H831 H 0.95257 0.14015 0.45801 0.0
C832 C 0.26349 0.66329 0.18934 0.0
C833 C 0.29479 0.68117 0.16952 0.0
C834 C 0.23093 0.64536 0.17279 0.0
C835 C 0.22925 0.64475 0.13526 0.0
C836 C 0.261 0.66208 0.11509 0.0
C837 C 0.29306 0.68004 0.13232 0.0
C838 C 0.19796 0.62767 0.19563 0.0
C839 C 0.26103 0.66196 0.07512 0.0
C840 C 0.15224 0.57583 0.08936 0.0
C841 C 0.12756 0.59479 0.08276 0.0
C842 C 0.18525 0.59157 0.10619 0.0
C843 C 0.19407 0.62727 0.11722 0.0
C844 C 0.16922 0.64647 0.11066 0.0
C845 C 0.13664 0.63018 0.09351 0.0
C846 C 0.21073 0.56991 0.11219 0.0
C847 C 0.17696 0.68439 0.12197 0.0
H848 H 0.26409 0.66407 0.21802 0.0
H849 H 0.31701 0.69315 0.11648 0.0
H850 H 0.17567 0.63973 0.19204 0.0
H851 H 0.18793 0.59983 0.18733 0.0
H852 H 0.20377 0.62946 0.22425 0.0
H853 H 0.28818 0.67527 0.06305 0.0
H854 H 0.25255 0.63482 0.06424 0.0
H855 H 0.24104 0.67514 0.06693 0.0
H856 H 0.14591 0.5486 0.08115 0.0
H857 H 0.11796 0.64526 0.08892 0.0
H858 H 0.21411 0.56875 0.14104 0.0
H859 H 0.23802 0.58215 0.09984 0.0
H860 H 0.20073 0.54293 0.10106 0.0
H861 H 0.18056 0.68753 0.151 0.0
H862 H 0.15482 0.69568 0.11549 0.0
H863 H 0.20271 0.69953 0.10872 0.0
C864 C 0.25807 0.44517 0.65777 0.0
C865 C 0.25395 0.41029 0.66541 0.0
C866 C 0.2896 0.46493 0.63956 0.0
C867 C 0.31769 0.44945 0.62876 0.0
C868 C 0.31388 0.41444 0.6369 0.0
C869 C 0.28219 0.39538 0.65512 0.0
C870 C 0.29265 0.50217 0.63141 0.0
C871 C 0.34321 0.39695 0.62606 0.0
C872 C 0.38483 0.4824 0.55166 0.0
C873 C 0.41656 0.49909 0.56931 0.0
C874 C 0.35199 0.46748 0.57069 0.0
C875 C 0.35085 0.46933 0.60829 0.0
C876 C 0.38241 0.48768 0.62618 0.0
C877 C 0.41489 0.50236 0.60647 0.0
C878 C 0.31896 0.44831 0.55057 0.0
C879 C 0.38235 0.49042 0.66619 0.0
H880 H 0.2363 0.45683 0.66538 0.0
H881 H 0.27957 0.36867 0.66149 0.0
H882 H 0.31797 0.51967 0.64203 0.0
H883 H 0.29438 0.50514 0.60225 0.0
H884 H 0.26911 0.51079 0.64279 0.0
H885 H 0.33629 0.36972 0.63485 0.0
H886 H 0.3476 0.39678 0.59677 0.0
H887 H 0.36931 0.41173 0.6375 0.0
H888 H 0.38592 0.47999 0.52293 0.0
H889 H 0.43932 0.51539 0.62024 0.0
H890 H 0.29509 0.45738 0.55993 0.0
H891 H 0.31215 0.42011 0.5556 0.0
H892 H 0.32338 0.45182 0.52149 0.0
H893 H 0.35906 0.49966 0.67706 0.0
H894 H 0.40793 0.50835 0.67594 0.0
H895 H 0.37903 0.46433 0.67684 0.0
C896 C 0.73325 0.67726 0.88324 0.0
C897 C 0.71224 0.69367 0.90565 0.0
C898 C 0.76349 0.66893 0.89563 0.0
C899 C 0.77252 0.67666 0.9315 0.0
C900 C 0.75053 0.69206 0.95463 0.0
C901 C 0.72075 0.70068 0.94133 0.0
C902 C 0.78653 0.65302 0.86998 0.0
C903 C 0.75893 0.70013 0.99319 0.0
C904 C 0.83702 0.63132 0.96805 0.0
C905 C 0.87031 0.65736 0.96613 0.0
C906 C 0.80484 0.63741 0.95753 0.0
C907 C 0.80599 0.67015 0.94426 0.0
C908 C 0.83942 0.69654 0.94224 0.0
C909 C 0.87106 0.68993 0.95346 0.0
C910 C 0.76966 0.6087 0.96034 0.0
C911 C 0.84187 0.7317 0.92786 0.0
H912 H 0.72672 0.67198 0.8556 0.0
H913 H 0.70441 0.71321 0.95877 0.0
H914 H 0.81436 0.67097 0.8672 0.0
H915 H 0.78912 0.62842 0.8803 0.0
H916 H 0.77506 0.64751 0.84327 0.0
H917 H 0.73776 0.70984 1.00821 0.0
H918 H 0.76131 0.67652 1.00592 0.0
H919 H 0.78548 0.72013 0.99527 0.0
H920 H 0.83613 0.60592 0.97732 0.0
H921 H 0.89641 0.71047 0.95249 0.0
H922 H 0.75885 0.60123 0.9336 0.0
H923 H 0.74893 0.61801 0.97652 0.0
H924 H 0.77311 0.58519 0.9725 0.0
H925 H 0.83259 0.72852 0.90029 0.0
H926 H 0.86998 0.74934 0.92786 0.0
H927 H 0.82367 0.74429 0.94397 0.0
C928 C 0.37778 0.8132 0.16907 0.0
C929 C 0.39873 0.79129 0.1782 0.0
C930 C 0.39366 0.84582 0.15367 0.0
C931 C 0.43185 0.85762 0.14679 0.0
C932 C 0.45334 0.83597 0.15645 0.0
C933 C 0.43669 0.8034 0.17209 0.0
C934 C 0.36932 0.86769 0.14459 0.0
C935 C 0.49404 0.84701 0.14972 0.0
C936 C 0.46819 0.92903 0.0776 0.0
C937 C 0.47995 0.95943 0.099 0.0
C938 C 0.45307 0.89593 0.09261 0.0
C939 C 0.44905 0.89272 0.13012 0.0
C940 C 0.46057 0.92347 0.15173 0.0
C941 C 0.47588 0.95609 0.13605 0.0
C942 C 0.44154 0.86426 0.06821 0.0
C943 C 0.45667 0.92198 0.19166 0.0
H944 H 0.34855 0.80477 0.174 0.0
H945 H 0.45337 0.78694 0.17861 0.0
H946 H 0.3777 0.89342 0.1587 0.0
H947 H 0.37211 0.87244 0.11573 0.0
H948 H 0.34022 0.85518 0.15175 0.0
H949 H 0.50713 0.82761 0.1587 0.0
H950 H 0.50065 0.85082 0.12094 0.0
H951 H 0.50599 0.87231 0.16367 0.0
H952 H 0.4713 0.93099 0.049 0.0
H953 H 0.48479 0.97919 0.15302 0.0
H954 H 0.41196 0.85179 0.07242 0.0
H955 H 0.45587 0.84488 0.07446 0.0
H956 H 0.44734 0.87068 0.03979 0.0
H957 H 0.42765 0.91096 0.20007 0.0
H958 H 0.46687 0.94801 0.20489 0.0
H959 H 0.47186 0.90452 0.20108 0.0
C960 C 0.18033 0.27608 0.66342 0.0
C961 C 0.15768 0.29639 0.67678 0.0
C962 C 0.16585 0.24268 0.64822 0.0
C963 C 0.12767 0.22883 0.64668 0.0
C964 C 0.10457 0.24863 0.66118 0.0
C965 C 0.11982 0.28217 0.67591 0.0
C966 C 0.19148 0.22255 0.63299 0.0
C967 C 0.06371 0.23475 0.6603 0.0
C968 C 0.09044 0.15997 0.57493 0.0
C969 C 0.08183 0.1291 0.59371 0.0
C970 C 0.10557 0.19245 0.59178 0.0
C971 C 0.11202 0.19432 0.62848 0.0
C972 C 0.1036 0.16327 0.64759 0.0
C973 C 0.08879 0.13104 0.62996 0.0
C974 C 0.11449 0.22482 0.57028 0.0
C975 C 0.10975 0.16415 0.68679 0.0
H976 H 0.20958 0.28645 0.66456 0.0
H977 H 0.10202 0.29765 0.68579 0.0
H978 H 0.18506 0.19678 0.6452 0.0
H979 H 0.18793 0.2178 0.60405 0.0
H980 H 0.22043 0.23649 0.63726 0.0
H981 H 0.04948 0.25232 0.67474 0.0
H982 H 0.05543 0.23139 0.63238 0.0
H983 H 0.05448 0.20879 0.67223 0.0
H984 H 0.08526 0.15884 0.54691 0.0
H985 H 0.082 0.10741 0.64479 0.0
H986 H 0.14372 0.23902 0.57209 0.0
H987 H 0.09858 0.24254 0.58118 0.0
H988 H 0.10851 0.21889 0.54185 0.0
H989 H 0.13881 0.17674 0.69176 0.0
H990 H 0.10195 0.13773 0.69782 0.0
H991 H 0.09367 0.17996 0.70141 0.0
C992 C 0.78144 0.3404 0.42427 0.0
C993 C 0.78046 0.30846 0.43836 0.0
C994 C 0.75775 0.3594 0.43781 0.0
C995 C 0.73225 0.34576 0.46574 0.0
C996 C 0.73328 0.31498 0.48199 0.0
C997 C 0.75756 0.29668 0.46812 0.0
C998 C 0.7579 0.39244 0.42014 0.0
C999 C 0.70651 0.29959 0.51176 0.0
C1000 C 0.67444 0.40309 0.50388 0.0
C1001 C 0.64418 0.39245 0.48255 0.0
C1002 C 0.70302 0.38746 0.4996 0.0
C1003 C 0.70107 0.36047 0.47358 0.0
C1004 C 0.66993 0.34868 0.45303 0.0
C1005 C 0.64202 0.36495 0.45762 0.0
C1006 C 0.73579 0.40061 0.52199 0.0
C1007 C 0.66666 0.31972 0.42517 0.0
H1008 H 0.79939 0.34954 0.40138 0.0
H1009 H 0.75665 0.27181 0.47885 0.0
H1010 H 0.7337 0.38749 0.40379 0.0
H1011 H 0.75626 0.4131 0.44029 0.0
H1012 H 0.78264 0.40216 0.40264 0.0
H1013 H 0.71502 0.27951 0.5256 0.0
H1014 H 0.7032 0.32007 0.53144 0.0
H1015 H 0.6795 0.28724 0.50076 0.0
H1016 H 0.67603 0.42397 0.5236 0.0
H1017 H 0.61908 0.3569 0.44063 0.0
H1018 H 0.75975 0.41377 0.50492 0.0
H1019 H 0.7424 0.37861 0.5342 0.0
H1020 H 0.73155 0.41931 0.54337 0.0
H1021 H 0.68791 0.3281 0.4037 0.0
H1022 H 0.63964 0.31209 0.41317 0.0
H1023 H 0.67108 0.29645 0.43691 0.0
loop_
_geom_bond_atom_site_label_1
_geom_bond_atom_site_label_2
_geom_bond_distance
_geom_bond_site_symmetry_2
_ccdc_geom_bond_type
H0 C5 0.930 . S
H1 C8 0.930 . S
H2 C10 0.930 . S
H3 C4 1.016 . S
C4 H3 1.016 . S
C4 N11 1.286 . S
C5 H0 0.930 . S
C5 C6 1.397 . S
C5 C7 1.361 . S
C6 C5 1.397 . S
C6 C10 1.390 . S
C7 C5 1.361 . S
C7 C8 1.393 . S
C7 N11 1.413 . S
C8 H1 0.930 . S
C8 C7 1.393 . S
C8 C9 1.399 . S
C9 C8 1.399 . S
C9 C10 1.381 . S
C10 H2 0.930 . S
C10 C6 1.390 . S
C10 C9 1.381 . S
N11 C4 1.286 . S
N11 C7 1.413 . S
H12 C17 0.930 . S
H13 C20 0.930 . S
H14 C22 0.930 . S
H15 C16 1.016 . S
C16 H15 1.016 . S
C16 N23 1.286 . S
C17 H12 0.930 . S
C17 C18 1.397 . S
C17 C19 1.361 . S
C18 C17 1.397 . S
C18 C22 1.390 . S
C19 C17 1.361 . S
C19 C20 1.393 . S
C19 N23 1.413 . S
C20 H13 0.930 . S
C20 C19 1.393 . S
C20 C21 1.399 . S
C21 C20 1.399 . S
C21 C22 1.381 . S
C22 H14 0.930 . S
C22 C18 1.390 . S
C22 C21 1.381 . S
N23 C16 1.286 . S
N23 C19 1.413 . S
H24 C29 0.930 . S
H25 C32 0.930 . S
H26 C34 0.930 . S
H27 C28 1.016 . S
C28 H27 1.016 . S
C28 N35 1.286 . S
C29 H24 0.930 . S
C29 C30 1.397 . S
C29 C31 1.361 . S
C30 C29 1.397 . S
C30 C34 1.390 . S
C31 C29 1.361 . S
C31 C32 1.393 . S
C31 N35 1.413 . S
C32 H25 0.930 . S
C32 C31 1.393 . S
C32 C33 1.399 . S
C33 C32 1.399 . S
C33 C34 1.381 . S
C34 H26 0.930 . S
C34 C30 1.390 . S
C34 C33 1.381 . S
N35 C28 1.286 . S
N35 C31 1.413 . S
H36 C41 0.930 . S
H37 C44 0.930 . S
H38 C46 0.930 . S
H39 C40 1.016 . S
C40 H39 1.016 . S
C40 N47 1.286 . S
C41 H36 0.930 . S
C41 C42 1.397 . S
C41 C43 1.361 . S
C42 C41 1.397 . S
C42 C46 1.390 . S
C43 C41 1.361 . S
C43 C44 1.393 . S
C43 N47 1.413 . S
C44 H37 0.930 . S
C44 C43 1.393 . S
C44 C45 1.399 . S
C45 C44 1.399 . S
C45 C46 1.381 . S
C46 H38 0.930 . S
C46 C42 1.390 . S
C46 C45 1.381 . S
N47 C40 1.286 . S
N47 C43 1.413 . S
H48 C53 0.930 . S
H49 C56 0.930 . S
H50 C58 0.930 . S
H51 C52 1.016 . S
C52 H51 1.016 . S
C52 N59 1.286 . S
C53 H48 0.930 . S
C53 C54 1.397 . S
C53 C55 1.361 . S
C54 C53 1.397 . S
C54 C58 1.390 . S
C55 C53 1.361 . S
C55 C56 1.393 . S
C55 N59 1.413 . S
C56 H49 0.930 . S
C56 C55 1.393 . S
C56 C57 1.399 . S
C57 C56 1.399 . S
C57 C58 1.381 . S
C58 H50 0.930 . S
C58 C54 1.390 . S
C58 C57 1.381 . S
N59 C52 1.286 . S
N59 C55 1.413 . S
H60 C65 0.930 . S
H61 C68 0.930 . S
H62 C70 0.930 . S
H63 C64 1.016 . S
C64 H63 1.016 . S
C64 N71 1.286 . S
C65 H60 0.930 . S
C65 C66 1.397 . S
C65 C67 1.361 . S
C66 C65 1.397 . S
C66 C70 1.390 . S
C67 C65 1.361 . S
C67 C68 1.393 . S
C67 N71 1.413 . S
C68 H61 0.930 . S
C68 C67 1.393 . S
C68 C69 1.399 . S
C69 C68 1.399 . S
C69 C70 1.381 . S
C70 H62 0.930 . S
C70 C66 1.390 . S
C70 C69 1.381 . S
N71 C64 1.286 . S
N71 C67 1.413 . S
H72 C77 0.930 . S
H73 C80 0.930 . S
H74 C82 0.930 . S
H75 C76 1.016 . S
C76 H75 1.016 . S
C76 N83 1.286 . S
C77 H72 0.930 . S
C77 C78 1.397 . S
C77 C79 1.361 . S
C78 C77 1.397 . S
C78 C82 1.390 . S
C79 C77 1.361 . S
C79 C80 1.393 . S
C79 N83 1.413 . S
C80 H73 0.930 . S
C80 C79 1.393 . S
C80 C81 1.399 . S
C81 C80 1.399 . S
C81 C82 1.381 . S
C82 H74 0.930 . S
C82 C78 1.390 . S
C82 C81 1.381 . S
N83 C76 1.286 . S
N83 C79 1.413 . S
H84 C89 0.930 . S
H85 C92 0.930 . S
H86 C94 0.930 . S
H87 C88 1.016 . S
C88 H87 1.016 . S
C88 N95 1.286 . S
C89 H84 0.930 . S
C89 C90 1.397 . S
C89 C91 1.361 . S
C90 C89 1.397 . S
C90 C94 1.390 . S
C91 C89 1.361 . S
C91 C92 1.393 . S
C91 N95 1.413 . S
C92 H85 0.930 . S
C92 C91 1.393 . S
C92 C93 1.399 . S
C93 C92 1.399 . S
C93 C94 1.381 . S
C94 H86 0.930 . S
C94 C90 1.390 . S
C94 C93 1.381 . S
N95 C88 1.286 . S
N95 C91 1.413 . S
Gd96 C99 2.818 . S
Gd96 O116 2.377 . S
Gd96 O118 2.448 . S
Gd96 O119 2.506 . S
Gd96 O120 2.435 1_545 S
Gd96 O121 2.717 1_545 S
Gd96 O123 2.395 1_445 S
Gd96 O127 2.327 1_455 S
Gd97 C108 2.817 . S
Gd97 O117 2.396 1_665 S
Gd97 O121 2.327 1_655 S
Gd97 O122 2.376 . S
Gd97 O124 2.448 . S
Gd97 O125 2.505 . S
Gd97 O126 2.436 1_565 S
Gd97 O127 2.718 1_565 S
C98 O116 1.240 . S
C98 O117 1.240 . S
C99 Gd96 2.818 . S
C99 C100 1.510 . S
C99 O118 1.249 . S
C99 O119 1.252 . S
C100 C99 1.510 . S
C100 C101 1.404 . S
C100 C102 1.352 . S
C101 C100 1.404 . S
C101 C105 1.389 . S
C101 H128 0.930 . S
C102 C100 1.352 . S
C102 C104 1.374 . S
C102 H129 0.931 . S
C103 C104 1.359 . S
C103 C105 1.364 . S
C104 C102 1.374 . S
C104 C103 1.359 . S
C104 H130 0.931 . S
C105 C101 1.389 . S
C105 C103 1.364 . S
C105 H131 0.931 . S
C106 O120 1.256 . S
C106 O121 1.257 . S
C107 O122 1.240 . S
C107 O123 1.240 . S
C108 Gd97 2.817 . S
C108 C109 1.510 . S
C108 O124 1.249 . S
C108 O125 1.252 . S
C109 C108 1.510 . S
C109 C110 1.404 . S
C109 C111 1.352 . S
C110 C109 1.404 . S
C110 C114 1.389 . S
C110 H132 0.930 . S
C111 C109 1.352 . S
C111 C113 1.374 . S
C111 H133 0.931 . S
C112 C113 1.359 . S
C112 C114 1.364 . S
C113 C111 1.374 . S
C113 C112 1.359 . S
C113 H134 0.931 . S
C114 C110 1.389 . S
C114 C112 1.364 . S
C114 H135 0.931 . S
C115 O126 1.256 . S
C115 O127 1.257 . S
O116 Gd96 2.377 . S
O116 C98 1.240 . S
O117 Gd97 2.396 1_445 S
O117 C98 1.240 . S
O118 Gd96 2.448 . S
O118 C99 1.249 . S
O119 Gd96 2.506 . S
O119 C99 1.252 . S
O120 Gd96 2.435 1_565 S
O120 C106 1.256 . S
O121 Gd96 2.717 1_565 S
O121 Gd97 2.327 1_455 S
O121 C106 1.257 . S
O122 Gd97 2.376 . S
O122 C107 1.240 . S
O123 Gd96 2.395 1_665 S
O123 C107 1.240 . S
O124 Gd97 2.448 . S
O124 C108 1.249 . S
O125 Gd97 2.505 . S
O125 C108 1.252 . S
O126 Gd97 2.436 1_545 S
O126 C115 1.256 . S
O127 Gd96 2.327 1_655 S
O127 Gd97 2.718 1_545 S
O127 C115 1.257 . S
H128 C101 0.930 . S
H129 C102 0.931 . S
H130 C104 0.931 . S
H131 C105 0.931 . S
H132 C110 0.930 . S
H133 C111 0.931 . S
H134 C113 0.931 . S
H135 C114 0.931 . S
Gd136 C139 2.818 . S
Gd136 O156 2.377 . S
Gd136 O158 2.448 . S
Gd136 O159 2.506 . S
Gd136 O160 2.435 1_545 S
Gd136 O161 2.717 1_545 S
Gd136 O163 2.395 1_544 S
Gd136 O167 2.327 . S
Gd137 C148 2.818 1_545 S
Gd137 O157 2.395 1_556 S
Gd137 O161 2.327 1_546 S
Gd137 O162 2.377 1_545 S
Gd137 O164 2.448 1_545 S
Gd137 O165 2.506 1_545 S
Gd137 O166 2.435 . S
Gd137 O167 2.717 1_556 S
C138 O156 1.240 . S
C138 O157 1.240 . S
C139 Gd136 2.818 . S
C139 C140 1.510 . S
C139 O158 1.249 . S
C139 O159 1.252 . S
C140 C139 1.510 . S
C140 C141 1.404 . S
C140 C142 1.352 . S
C141 C140 1.404 . S
C141 C145 1.389 . S
C141 H168 0.930 . S
C142 C140 1.352 . S
C142 C144 1.374 . S
C142 H169 0.931 . S
C143 C144 1.359 . S
C143 C145 1.364 . S
C144 C142 1.374 . S
C144 C143 1.359 . S
C144 H170 0.931 . S
C145 C141 1.389 . S
C145 C143 1.364 . S
C145 H171 0.931 . S
C146 O160 1.256 . S
C146 O161 1.257 . S
C147 O162 1.240 . S
C147 O163 1.240 . S
C148 Gd137 2.818 1_565 S
C148 C149 1.510 . S
C148 O164 1.249 . S
C148 O165 1.252 . S
C149 C148 1.510 . S
C149 C150 1.404 . S
C149 C151 1.352 . S
C150 C149 1.404 . S
C150 C154 1.389 . S
C150 H172 0.930 . S
C151 C149 1.352 . S
C151 C153 1.374 . S
C151 H173 0.931 . S
C152 C153 1.359 . S
C152 C154 1.364 . S
C153 C151 1.374 . S
C153 C152 1.359 . S
C153 H174 0.931 . S
C154 C150 1.389 . S
C154 C152 1.364 . S
C154 H175 0.931 . S
C155 O166 1.256 . S
C155 O167 1.257 1_556 S
O156 Gd136 2.377 . S
O156 C138 1.240 . S
O157 Gd137 2.395 1_554 S
O157 C138 1.240 . S
O158 Gd136 2.448 . S
O158 C139 1.249 . S
O159 Gd136 2.506 . S
O159 C139 1.252 . S
O160 Gd136 2.435 1_565 S
O160 C146 1.256 . S
O161 Gd136 2.717 1_565 S
O161 Gd137 2.327 1_564 S
O161 C146 1.257 . S
O162 Gd137 2.377 1_565 S
O162 C147 1.240 . S
O163 Gd136 2.395 1_566 S
O163 C147 1.240 . S
O164 Gd137 2.448 1_565 S
O164 C148 1.249 . S
O165 Gd137 2.506 1_565 S
O165 C148 1.252 . S
O166 Gd137 2.435 . S
O166 C155 1.256 . S
O167 Gd136 2.327 . S
O167 Gd137 2.717 1_554 S
O167 C155 1.257 1_554 S
H168 C141 0.930 . S
H169 C142 0.931 . S
H170 C144 0.931 . S
H171 C145 0.931 . S
H172 C150 0.930 . S
H173 C151 0.931 . S
H174 C153 0.931 . S
H175 C154 0.931 . S
Gd176 C179 2.818 . S
Gd176 O196 2.377 . S
Gd176 O198 2.448 . S
Gd176 O199 2.506 . S
Gd176 O200 2.435 . S
Gd176 O201 2.717 . S
Gd176 O203 2.395 . S
Gd176 O207 2.327 . S
Gd177 C188 2.818 . S
Gd177 O197 2.395 . S
Gd177 O201 2.327 . S
Gd177 O202 2.377 . S
Gd177 O204 2.448 . S
Gd177 O205 2.506 . S
Gd177 O206 2.435 . S
Gd177 O207 2.717 . S
C178 O196 1.240 . S
C178 O197 1.240 . S
C179 Gd176 2.818 . S
C179 C180 1.510 . S
C179 O198 1.249 . S
C179 O199 1.252 . S
C180 C179 1.510 . S
C180 C181 1.404 . S
C180 C182 1.352 . S
C181 C180 1.404 . S
C181 C185 1.389 . S
C181 H208 0.930 . S
C182 C180 1.352 . S
C182 C184 1.374 . S
C182 H209 0.931 . S
C183 C184 1.359 . S
C183 C185 1.364 . S
C184 C182 1.374 . S
C184 C183 1.359 . S
C184 H210 0.931 . S
C185 C181 1.389 . S
C185 C183 1.364 . S
C185 H211 0.931 . S
C186 O200 1.256 . S
C186 O201 1.257 . S
C187 O202 1.240 . S
C187 O203 1.240 . S
C188 Gd177 2.818 . S
C188 C189 1.510 . S
C188 O204 1.249 . S
C188 O205 1.252 . S
C189 C188 1.510 . S
C189 C190 1.404 . S
C189 C191 1.352 . S
C190 C189 1.404 . S
C190 C194 1.389 . S
C190 H212 0.930 . S
C191 C189 1.352 . S
C191 C193 1.374 . S
C191 H213 0.931 . S
C192 C193 1.359 . S
C192 C194 1.364 . S
C193 C191 1.374 . S
C193 C192 1.359 . S
C193 H214 0.931 . S
C194 C190 1.389 . S
C194 C192 1.364 . S
C194 H215 0.931 . S
C195 O206 1.256 . S
C195 O207 1.257 . S
O196 Gd176 2.377 . S
O196 C178 1.240 . S
O197 Gd177 2.395 . S
O197 C178 1.240 . S
O198 Gd176 2.448 . S
O198 C179 1.249 . S
O199 Gd176 2.506 . S
O199 C179 1.252 . S
O200 Gd176 2.435 . S
O200 C186 1.256 . S
O201 Gd176 2.717 . S
O201 Gd177 2.327 . S
O201 C186 1.257 . S
O202 Gd177 2.377 . S
O202 C187 1.240 . S
O203 Gd176 2.395 . S
O203 C187 1.240 . S
O204 Gd177 2.448 . S
O204 C188 1.249 . S
O205 Gd177 2.506 . S
O205 C188 1.252 . S
O206 Gd177 2.435 . S
O206 C195 1.256 . S
O207 Gd176 2.327 . S
O207 Gd177 2.717 . S
O207 C195 1.257 . S
H208 C181 0.930 . S
H209 C182 0.931 . S
H210 C184 0.931 . S
H211 C185 0.931 . S
H212 C190 0.930 . S
H213 C191 0.931 . S
H214 C193 0.931 . S
H215 C194 0.931 . S
Gd216 C219 2.818 . S
Gd216 O236 2.377 . S
Gd216 O238 2.448 . S
Gd216 O239 2.506 . S
Gd216 O240 2.435 1_455 S
Gd216 O241 2.717 1_455 S
Gd216 O243 2.395 1_455 S
Gd216 O247 2.327 1_554 S
Gd217 C228 2.818 1_455 S
Gd217 O237 2.395 1_556 S
Gd217 O241 2.327 1_456 S
Gd217 O242 2.377 1_455 S
Gd217 O244 2.448 1_455 S
Gd217 O245 2.506 1_455 S
Gd217 O246 2.435 . S
Gd217 O247 2.717 . S
C218 O236 1.240 . S
C218 O237 1.240 . S
C219 Gd216 2.818 . S
C219 C220 1.510 . S
C219 O238 1.249 . S
C219 O239 1.252 . S
C220 C219 1.510 . S
C220 C221 1.404 . S
C220 C222 1.352 . S
C221 C220 1.404 . S
C221 C225 1.389 . S
C221 H248 0.930 . S
C222 C220 1.352 . S
C222 C224 1.374 . S
C222 H249 0.931 . S
C223 C224 1.359 . S
C223 C225 1.364 . S
C224 C222 1.374 . S
C224 C223 1.359 . S
C224 H250 0.931 . S
C225 C221 1.389 . S
C225 C223 1.364 . S
C225 H251 0.931 . S
C226 O240 1.256 . S
C226 O241 1.257 . S
C227 O242 1.240 . S
C227 O243 1.240 1_556 S
C228 Gd217 2.818 1_655 S
C228 C229 1.510 . S
C228 O244 1.249 . S
C228 O245 1.252 . S
C229 C228 1.510 . S
C229 C230 1.404 . S
C229 C231 1.352 . S
C230 C229 1.404 . S
C230 C234 1.389 . S
C230 H252 0.930 . S
C231 C229 1.352 . S
C231 C233 1.374 . S
C231 H253 0.931 . S
C232 C233 1.359 . S
C232 C234 1.364 . S
C233 C231 1.374 . S
C233 C232 1.359 . S
C233 H254 0.931 . S
C234 C230 1.389 . S
C234 C232 1.364 . S
C234 H255 0.931 . S
C235 O246 1.256 . S
C235 O247 1.257 . S
O236 Gd216 2.377 . S
O236 C218 1.240 . S
O237 Gd217 2.395 1_554 S
O237 C218 1.240 . S
O238 Gd216 2.448 . S
O238 C219 1.249 . S
O239 Gd216 2.506 . S
O239 C219 1.252 . S
O240 Gd216 2.435 1_655 S
O240 C226 1.256 . S
O241 Gd216 2.717 1_655 S
O241 Gd217 2.327 1_654 S
O241 C226 1.257 . S
O242 Gd217 2.377 1_655 S
O242 C227 1.240 . S
O243 Gd216 2.395 1_655 S
O243 C227 1.240 1_554 S
O244 Gd217 2.448 1_655 S
O244 C228 1.249 . S
O245 Gd217 2.506 1_655 S
O245 C228 1.252 . S
O246 Gd217 2.435 . S
O246 C235 1.256 . S
O247 Gd216 2.327 1_556 S
O247 Gd217 2.717 . S
O247 C235 1.257 . S
H248 C221 0.930 . S
H249 C222 0.931 . S
H250 C224 0.931 . S
H251 C225 0.931 . S
H252 C230 0.930 . S
H253 C231 0.931 . S
H254 C233 0.931 . S
H255 C234 0.931 . S
C256 C257 1.391 . S
C256 C258 1.394 . S
C256 H272 0.931 . S
C257 C256 1.391 . S
C257 C261 1.376 . S
C258 C256 1.394 . S
C258 C259 1.369 . S
C258 C262 1.531 . S
C259 C258 1.369 . S
C259 C260 1.410 . S
C259 C267 1.503 . S
C260 C259 1.410 . S
C260 C261 1.392 . S
C260 C263 1.511 . S
C261 C257 1.376 . S
C261 C260 1.392 . S
C261 H273 0.929 . S
C262 C258 1.531 . S
C262 H274 0.960 . S
C262 H275 0.962 . S
C262 H276 0.960 . S
C263 C260 1.511 . S
C263 H277 0.961 . S
C263 H278 0.961 . S
C263 H279 0.961 . S
C264 C265 1.370 . S
C264 C266 1.363 . S
C264 H280 0.931 . S
C265 C264 1.370 . S
C265 C269 1.408 . S
C266 C264 1.363 . S
C266 C267 1.370 . S
C266 C270 1.524 . S
C267 C259 1.503 . S
C267 C266 1.370 . S
C267 C268 1.403 . S
C268 C267 1.403 . S
C268 C269 1.404 . S
C268 C271 1.539 . S
C269 C265 1.408 . S
C269 C268 1.404 . S
C269 H281 0.930 . S
C270 C266 1.524 . S
C270 H282 0.956 . S
C270 H283 0.961 . S
C270 H284 0.961 . S
C271 C268 1.539 . S
C271 H285 0.958 . S
C271 H286 0.961 . S
C271 H287 0.960 . S
H272 C256 0.931 . S
H273 C261 0.929 . S
H274 C262 0.960 . S
H275 C262 0.962 . S
H276 C262 0.960 . S
H277 C263 0.961 . S
H278 C263 0.961 . S
H279 C263 0.961 . S
H280 C264 0.931 . S
H281 C269 0.930 . S
H282 C270 0.956 . S
H283 C270 0.961 . S
H284 C270 0.961 . S
H285 C271 0.958 . S
H286 C271 0.961 . S
H287 C271 0.960 . S
C288 C289 1.391 . S
C288 C290 1.394 . S
C288 H304 0.931 . S
C289 C288 1.391 . S
C289 C293 1.376 . S
C290 C288 1.394 . S
C290 C291 1.369 . S
C290 C294 1.531 . S
C291 C290 1.369 . S
C291 C292 1.410 . S
C291 C299 1.503 . S
C292 C291 1.410 . S
C292 C293 1.392 . S
C292 C295 1.511 . S
C293 C289 1.376 . S
C293 C292 1.392 . S
C293 H305 0.929 . S
C294 C290 1.531 . S
C294 H306 0.960 . S
C294 H307 0.962 . S
C294 H308 0.960 . S
C295 C292 1.511 . S
C295 H309 0.961 . S
C295 H310 0.961 . S
C295 H311 0.961 . S
C296 C297 1.370 . S
C296 C298 1.363 . S
C296 H312 0.931 . S
C297 C296 1.370 . S
C297 C301 1.408 . S
C298 C296 1.363 . S
C298 C299 1.370 . S
C298 C302 1.524 . S
C299 C291 1.503 . S
C299 C298 1.370 . S
C299 C300 1.403 . S
C300 C299 1.403 . S
C300 C301 1.404 . S
C300 C303 1.539 . S
C301 C297 1.408 . S
C301 C300 1.404 . S
C301 H313 0.930 . S
C302 C298 1.524 . S
C302 H314 0.956 . S
C302 H315 0.961 . S
C302 H316 0.961 . S
C303 C300 1.539 . S
C303 H317 0.958 . S
C303 H318 0.961 . S
C303 H319 0.960 . S
H304 C288 0.931 . S
H305 C293 0.929 . S
H306 C294 0.960 . S
H307 C294 0.962 . S
H308 C294 0.960 . S
H309 C295 0.961 . S
H310 C295 0.961 . S
H311 C295 0.961 . S
H312 C296 0.931 . S
H313 C301 0.930 . S
H314 C302 0.956 . S
H315 C302 0.961 . S
H316 C302 0.961 . S
H317 C303 0.958 . S
H318 C303 0.961 . S
H319 C303 0.960 . S
C320 C321 1.391 . S
C320 C322 1.394 . S
C320 H336 0.931 . S
C321 C320 1.391 . S
C321 C325 1.376 . S
C322 C320 1.394 . S
C322 C323 1.369 . S
C322 C326 1.531 . S
C323 C322 1.369 . S
C323 C324 1.410 . S
C323 C331 1.503 . S
C324 C323 1.410 . S
C324 C325 1.392 . S
C324 C327 1.511 . S
C325 C321 1.376 . S
C325 C324 1.392 . S
C325 H337 0.929 . S
C326 C322 1.531 . S
C326 H338 0.960 . S
C326 H339 0.962 . S
C326 H340 0.960 . S
C327 C324 1.511 . S
C327 H341 0.961 . S
C327 H342 0.961 . S
C327 H343 0.961 . S
C328 C329 1.370 . S
C328 C330 1.363 . S
C328 H344 0.931 . S
C329 C328 1.370 . S
C329 C333 1.408 . S
C330 C328 1.363 . S
C330 C331 1.370 . S
C330 C334 1.524 . S
C331 C323 1.503 . S
C331 C330 1.370 . S
C331 C332 1.403 . S
C332 C331 1.403 . S
C332 C333 1.404 . S
C332 C335 1.539 . S
C333 C329 1.408 . S
C333 C332 1.404 . S
C333 H345 0.930 . S
C334 C330 1.524 . S
C334 H346 0.956 . S
C334 H347 0.961 . S
C334 H348 0.961 . S
C335 C332 1.539 . S
C335 H349 0.958 . S
C335 H350 0.961 . S
C335 H351 0.960 . S
H336 C320 0.931 . S
H337 C325 0.929 . S
H338 C326 0.960 . S
H339 C326 0.962 . S
H340 C326 0.960 . S
H341 C327 0.961 . S
H342 C327 0.961 . S
H343 C327 0.961 . S
H344 C328 0.931 . S
H345 C333 0.930 . S
H346 C334 0.956 . S
H347 C334 0.961 . S
H348 C334 0.961 . S
H349 C335 0.958 . S
H350 C335 0.961 . S
H351 C335 0.960 . S
C352 C353 1.391 . S
C352 C354 1.394 . S
C352 H368 0.931 . S
C353 C352 1.391 . S
C353 C357 1.376 . S
C354 C352 1.394 . S
C354 C355 1.369 . S
C354 C358 1.531 . S
C355 C354 1.369 . S
C355 C356 1.410 . S
C355 C363 1.503 . S
C356 C355 1.410 . S
C356 C357 1.392 . S
C356 C359 1.511 . S
C357 C353 1.376 . S
C357 C356 1.392 . S
C357 H369 0.929 . S
C358 C354 1.531 . S
C358 H370 0.960 . S
C358 H371 0.962 . S
C358 H372 0.960 . S
C359 C356 1.511 . S
C359 H373 0.961 . S
C359 H374 0.961 . S
C359 H375 0.961 . S
C360 C361 1.370 . S
C360 C362 1.363 . S
C360 H376 0.931 . S
C361 C360 1.370 . S
C361 C365 1.408 . S
C362 C360 1.363 . S
C362 C363 1.370 . S
C362 C366 1.524 . S
C363 C355 1.503 . S
C363 C362 1.370 . S
C363 C364 1.403 . S
C364 C363 1.403 . S
C364 C365 1.404 . S
C364 C367 1.539 . S
C365 C361 1.408 . S
C365 C364 1.404 . S
C365 H377 0.930 1_655 S
C366 C362 1.524 . S
C366 H378 0.956 . S
C366 H379 0.961 . S
C366 H380 0.961 . S
C367 C364 1.539 . S
C367 H381 0.958 1_655 S
C367 H382 0.961 1_655 S
C367 H383 0.960 . S
H368 C352 0.931 . S
H369 C357 0.929 . S
H370 C358 0.960 . S
H371 C358 0.962 . S
H372 C358 0.960 . S
H373 C359 0.961 . S
H374 C359 0.961 . S
H375 C359 0.961 . S
H376 C360 0.931 . S
H377 C365 0.930 1_455 S
H378 C366 0.956 . S
H379 C366 0.961 . S
H380 C366 0.961 . S
H381 C367 0.958 1_455 S
H382 C367 0.961 1_455 S
H383 C367 0.960 . S
C384 C385 1.391 . S
C384 C386 1.394 . S
C384 H400 0.931 . S
C385 C384 1.391 . S
C385 C389 1.376 . S
C386 C384 1.394 . S
C386 C387 1.369 . S
C386 C390 1.531 . S
C387 C386 1.369 . S
C387 C388 1.410 . S
C387 C395 1.503 . S
C388 C387 1.410 . S
C388 C389 1.392 . S
C388 C391 1.511 . S
C389 C385 1.376 . S
C389 C388 1.392 . S
C389 H401 0.929 . S
C390 C386 1.531 . S
C390 H402 0.960 . S
C390 H403 0.962 . S
C390 H404 0.960 . S
C391 C388 1.511 . S
C391 H405 0.961 . S
C391 H406 0.961 . S
C391 H407 0.961 . S
C392 C393 1.370 . S
C392 C394 1.363 . S
C392 H408 0.931 . S
C393 C392 1.370 . S
C393 C397 1.408 . S
C394 C392 1.363 . S
C394 C395 1.370 . S
C394 C398 1.524 . S
C395 C387 1.503 . S
C395 C394 1.370 . S
C395 C396 1.403 . S
C396 C395 1.403 . S
C396 C397 1.404 . S
C396 C399 1.539 . S
C397 C393 1.408 . S
C397 C396 1.404 . S
C397 H409 0.930 . S
C398 C394 1.524 . S
C398 H410 0.956 . S
C398 H411 0.961 . S
C398 H412 0.961 . S
C399 C396 1.539 . S
C399 H413 0.958 . S
C399 H414 0.961 . S
C399 H415 0.960 . S
H400 C384 0.931 . S
H401 C389 0.929 . S
H402 C390 0.960 . S
H403 C390 0.962 . S
H404 C390 0.960 . S
H405 C391 0.961 . S
H406 C391 0.961 . S
H407 C391 0.961 . S
H408 C392 0.931 . S
H409 C397 0.930 . S
H410 C398 0.956 . S
H411 C398 0.961 . S
H412 C398 0.961 . S
H413 C399 0.958 . S
H414 C399 0.961 . S
H415 C399 0.960 . S
C416 C417 1.391 . S
C416 C418 1.394 . S
C416 H432 0.931 . S
C417 C416 1.391 . S
C417 C421 1.376 . S
C418 C416 1.394 . S
C418 C419 1.369 . S
C418 C422 1.531 . S
C419 C418 1.369 . S
C419 C420 1.410 . S
C419 C427 1.503 . S
C420 C419 1.410 . S
C420 C421 1.392 . S
C420 C423 1.511 . S
C421 C417 1.376 . S
C421 C420 1.392 . S
C421 H433 0.929 . S
C422 C418 1.531 . S
C422 H434 0.960 . S
C422 H435 0.962 . S
C422 H436 0.960 . S
C423 C420 1.511 . S
C423 H437 0.961 . S
C423 H438 0.961 . S
C423 H439 0.961 . S
C424 C425 1.370 . S
C424 C426 1.363 . S
C424 H440 0.931 . S
C425 C424 1.370 . S
C425 C429 1.408 . S
C426 C424 1.363 . S
C426 C427 1.370 . S
C426 C430 1.524 . S
C427 C419 1.503 . S
C427 C426 1.370 . S
C427 C428 1.403 . S
C428 C427 1.403 . S
C428 C429 1.404 . S
C428 C431 1.539 . S
C429 C425 1.408 . S
C429 C428 1.404 . S
C429 H441 0.930 . S
C430 C426 1.524 . S
C430 H442 0.956 . S
C430 H443 0.961 . S
C430 H444 0.961 . S
C431 C428 1.539 . S
C431 H445 0.958 . S
C431 H446 0.961 . S
C431 H447 0.960 . S
H432 C416 0.931 . S
H433 C421 0.929 . S
H434 C422 0.960 . S
H435 C422 0.962 . S
H436 C422 0.960 . S
H437 C423 0.961 . S
H438 C423 0.961 . S
H439 C423 0.961 . S
H440 C424 0.931 . S
H441 C429 0.930 . S
H442 C430 0.956 . S
H443 C430 0.961 . S
H444 C430 0.961 . S
H445 C431 0.958 . S
H446 C431 0.961 . S
H447 C431 0.960 . S
C448 C449 1.391 . S
C448 C450 1.394 . S
C448 H464 0.931 . S
C449 C448 1.391 . S
C449 C453 1.376 . S
C450 C448 1.394 . S
C450 C451 1.369 . S
C450 C454 1.531 . S
C451 C450 1.369 . S
C451 C452 1.410 . S
C451 C459 1.503 . S
C452 C451 1.410 . S
C452 C453 1.392 . S
C452 C455 1.511 . S
C453 C449 1.376 . S
C453 C452 1.392 . S
C453 H465 0.929 . S
C454 C450 1.531 . S
C454 H466 0.960 . S
C454 H467 0.962 . S
C454 H468 0.960 . S
C455 C452 1.511 . S
C455 H469 0.961 . S
C455 H470 0.961 . S
C455 H471 0.961 . S
C456 C457 1.370 . S
C456 C458 1.363 . S
C456 H472 0.931 . S
C457 C456 1.370 . S
C457 C461 1.408 . S
C458 C456 1.363 . S
C458 C459 1.370 . S
C458 C462 1.524 . S
C459 C451 1.503 . S
C459 C458 1.370 . S
C459 C460 1.403 . S
C460 C459 1.403 . S
C460 C461 1.404 . S
C460 C463 1.539 . S
C461 C457 1.408 . S
C461 C460 1.404 . S
C461 H473 0.930 . S
C462 C458 1.524 . S
C462 H474 0.956 . S
C462 H475 0.961 . S
C462 H476 0.961 . S
C463 C460 1.539 . S
C463 H477 0.958 . S
C463 H478 0.961 1_556 S
C463 H479 0.960 . S
H464 C448 0.931 . S
H465 C453 0.929 . S
H466 C454 0.960 . S
H467 C454 0.962 . S
H468 C454 0.960 . S
H469 C455 0.961 . S
H470 C455 0.961 . S
H471 C455 0.961 . S
H472 C456 0.931 . S
H473 C461 0.930 . S
H474 C462 0.956 . S
H475 C462 0.961 . S
H476 C462 0.961 . S
H477 C463 0.958 . S
H478 C463 0.961 1_554 S
H479 C463 0.960 . S
C480 C481 1.391 . S
C480 C482 1.394 . S
C480 H496 0.931 . S
C481 C480 1.391 . S
C481 C485 1.376 . S
C482 C480 1.394 . S
C482 C483 1.369 . S
C482 C486 1.531 . S
C483 C482 1.369 . S
C483 C484 1.410 . S
C483 C491 1.503 . S
C484 C483 1.410 . S
C484 C485 1.392 . S
C484 C487 1.511 . S
C485 C481 1.376 . S
C485 C484 1.392 . S
C485 H497 0.929 . S
C486 C482 1.531 . S
C486 H498 0.960 . S
C486 H499 0.962 . S
C486 H500 0.960 . S
C487 C484 1.511 . S
C487 H501 0.961 . S
C487 H502 0.961 . S
C487 H503 0.961 . S
C488 C489 1.370 . S
C488 C490 1.363 . S
C488 H504 0.931 . S
C489 C488 1.370 . S
C489 C493 1.408 . S
C490 C488 1.363 . S
C490 C491 1.370 . S
C490 C494 1.524 . S
C491 C483 1.503 . S
C491 C490 1.370 . S
C491 C492 1.403 . S
C492 C491 1.403 . S
C492 C493 1.404 . S
C492 C495 1.539 . S
C493 C489 1.408 . S
C493 C492 1.404 . S
C493 H505 0.930 . S
C494 C490 1.524 . S
C494 H506 0.956 . S
C494 H507 0.961 . S
C494 H508 0.961 . S
C495 C492 1.539 . S
C495 H509 0.958 . S
C495 H510 0.961 . S
C495 H511 0.960 . S
H496 C480 0.931 . S
H497 C485 0.929 . S
H498 C486 0.960 . S
H499 C486 0.962 . S
H500 C486 0.960 . S
H501 C487 0.961 . S
H502 C487 0.961 . S
H503 C487 0.961 . S
H504 C488 0.931 . S
H505 C493 0.930 . S
H506 C494 0.956 . S
H507 C494 0.961 . S
H508 C494 0.961 . S
H509 C495 0.958 . S
H510 C495 0.961 . S
H511 C495 0.960 . S
C512 C513 1.391 . S
C512 C514 1.394 . S
C512 H528 0.931 . S
C513 C512 1.391 . S
C513 C517 1.376 . S
C514 C512 1.394 . S
C514 C515 1.369 . S
C514 C518 1.531 . S
C515 C514 1.369 . S
C515 C516 1.410 . S
C515 C523 1.503 . S
C516 C515 1.410 . S
C516 C517 1.392 . S
C516 C519 1.511 . S
C517 C513 1.376 . S
C517 C516 1.392 . S
C517 H529 0.929 . S
C518 C514 1.531 . S
C518 H530 0.960 . S
C518 H531 0.962 . S
C518 H532 0.960 . S
C519 C516 1.511 . S
C519 H533 0.961 . S
C519 H534 0.961 . S
C519 H535 0.961 . S
C520 C521 1.370 . S
C520 C522 1.363 . S
C520 H536 0.931 . S
C521 C520 1.370 . S
C521 C525 1.408 . S
C522 C520 1.363 . S
C522 C523 1.370 . S
C522 C526 1.524 . S
C523 C515 1.503 . S
C523 C522 1.370 . S
C523 C524 1.403 . S
C524 C523 1.403 . S
C524 C525 1.404 . S
C524 C527 1.539 . S
C525 C521 1.408 . S
C525 C524 1.404 . S
C525 H537 0.930 . S
C526 C522 1.524 . S
C526 H538 0.956 . S
C526 H539 0.961 . S
C526 H540 0.961 . S
C527 C524 1.539 . S
C527 H541 0.958 . S
C527 H542 0.961 . S
C527 H543 0.960 . S
H528 C512 0.931 . S
H529 C517 0.929 . S
H530 C518 0.960 . S
H531 C518 0.962 . S
H532 C518 0.960 . S
H533 C519 0.961 . S
H534 C519 0.961 . S
H535 C519 0.961 . S
H536 C520 0.931 . S
H537 C525 0.930 . S
H538 C526 0.956 . S
H539 C526 0.961 . S
H540 C526 0.961 . S
H541 C527 0.958 . S
H542 C527 0.961 . S
H543 C527 0.960 . S
C544 C545 1.391 . S
C544 C546 1.394 . S
C544 H560 0.931 . S
C545 C544 1.391 . S
C545 C549 1.376 . S
C546 C544 1.394 . S
C546 C547 1.369 . S
C546 C550 1.531 . S
C547 C546 1.369 . S
C547 C548 1.410 . S
C547 C555 1.503 . S
C548 C547 1.410 . S
C548 C549 1.392 . S
C548 C551 1.511 . S
C549 C545 1.376 . S
C549 C548 1.392 . S
C549 H561 0.929 . S
C550 C546 1.531 . S
C550 H562 0.960 . S
C550 H563 0.962 . S
C550 H564 0.960 . S
C551 C548 1.511 . S
C551 H565 0.961 . S
C551 H566 0.961 . S
C551 H567 0.961 . S
C552 C553 1.370 . S
C552 C554 1.363 . S
C552 H568 0.931 . S
C553 C552 1.370 . S
C553 C557 1.408 . S
C554 C552 1.363 . S
C554 C555 1.370 . S
C554 C558 1.524 . S
C555 C547 1.503 . S
C555 C554 1.370 . S
C555 C556 1.403 . S
C556 C555 1.403 . S
C556 C557 1.404 . S
C556 C559 1.539 . S
C557 C553 1.408 . S
C557 C556 1.404 . S
C557 H569 0.930 . S
C558 C554 1.524 . S
C558 H570 0.956 . S
C558 H571 0.961 . S
C558 H572 0.961 . S
C559 C556 1.539 . S
C559 H573 0.958 . S
C559 H574 0.961 . S
C559 H575 0.960 . S
H560 C544 0.931 . S
H561 C549 0.929 . S
H562 C550 0.960 . S
H563 C550 0.962 . S
H564 C550 0.960 . S
H565 C551 0.961 . S
H566 C551 0.961 . S
H567 C551 0.961 . S
H568 C552 0.931 . S
H569 C557 0.930 . S
H570 C558 0.956 . S
H571 C558 0.961 . S
H572 C558 0.961 . S
H573 C559 0.958 . S
H574 C559 0.961 . S
H575 C559 0.960 . S
C576 C577 1.391 . S
C576 C578 1.394 . S
C576 H592 0.931 . S
C577 C576 1.391 . S
C577 C581 1.376 . S
C578 C576 1.394 . S
C578 C579 1.369 . S
C578 C582 1.531 . S
C579 C578 1.369 . S
C579 C580 1.410 . S
C579 C587 1.503 . S
C580 C579 1.410 . S
C580 C581 1.392 . S
C580 C583 1.511 . S
C581 C577 1.376 . S
C581 C580 1.392 . S
C581 H593 0.929 . S
C582 C578 1.531 . S
C582 H594 0.960 . S
C582 H595 0.962 . S
C582 H596 0.960 . S
C583 C580 1.511 . S
C583 H597 0.961 . S
C583 H598 0.961 . S
C583 H599 0.961 . S
C584 C585 1.370 . S
C584 C586 1.363 . S
C584 H600 0.931 . S
C585 C584 1.370 . S
C585 C589 1.408 . S
C586 C584 1.363 . S
C586 C587 1.370 . S
C586 C590 1.524 . S
C587 C579 1.503 . S
C587 C586 1.370 . S
C587 C588 1.403 . S
C588 C587 1.403 . S
C588 C589 1.404 . S
C588 C591 1.539 . S
C589 C585 1.408 . S
C589 C588 1.404 . S
C589 H601 0.930 . S
C590 C586 1.524 . S
C590 H602 0.956 . S
C590 H603 0.961 . S
C590 H604 0.961 . S
C591 C588 1.539 . S
C591 H605 0.958 . S
C591 H606 0.961 . S
C591 H607 0.960 . S
H592 C576 0.931 . S
H593 C581 0.929 . S
H594 C582 0.960 . S
H595 C582 0.962 . S
H596 C582 0.960 . S
H597 C583 0.961 . S
H598 C583 0.961 . S
H599 C583 0.961 . S
H600 C584 0.931 . S
H601 C589 0.930 . S
H602 C590 0.956 . S
H603 C590 0.961 . S
H604 C590 0.961 . S
H605 C591 0.958 . S
H606 C591 0.961 . S
H607 C591 0.960 . S
C608 C609 1.391 . S
C608 C610 1.394 . S
C608 H624 0.931 . S
C609 C608 1.391 . S
C609 C613 1.376 . S
C610 C608 1.394 . S
C610 C611 1.369 . S
C610 C614 1.531 . S
C611 C610 1.369 . S
C611 C612 1.410 . S
C611 C619 1.503 . S
C612 C611 1.410 . S
C612 C613 1.392 . S
C612 C615 1.511 . S
C613 C609 1.376 . S
C613 C612 1.392 . S
C613 H625 0.929 . S
C614 C610 1.531 . S
C614 H626 0.960 . S
C614 H627 0.962 . S
C614 H628 0.960 . S
C615 C612 1.511 . S
C615 H629 0.961 . S
C615 H630 0.961 . S
C615 H631 0.961 . S
C616 C617 1.370 . S
C616 C618 1.363 . S
C616 H632 0.931 . S
C617 C616 1.370 . S
C617 C621 1.408 . S
C618 C616 1.363 . S
C618 C619 1.370 . S
C618 C622 1.524 . S
C619 C611 1.503 . S
C619 C618 1.370 . S
C619 C620 1.403 . S
C620 C619 1.403 . S
C620 C621 1.404 . S
C620 C623 1.539 . S
C621 C617 1.408 . S
C621 C620 1.404 . S
C621 H633 0.930 . S
C622 C618 1.524 . S
C622 H634 0.956 . S
C622 H635 0.961 . S
C622 H636 0.961 . S
C623 C620 1.539 . S
C623 H637 0.958 . S
C623 H638 0.961 . S
C623 H639 0.960 . S
H624 C608 0.931 . S
H625 C613 0.929 . S
H626 C614 0.960 . S
H627 C614 0.962 . S
H628 C614 0.960 . S
H629 C615 0.961 . S
H630 C615 0.961 . S
H631 C615 0.961 . S
H632 C616 0.931 . S
H633 C621 0.930 . S
H634 C622 0.956 . S
H635 C622 0.961 . S
H636 C622 0.961 . S
H637 C623 0.958 . S
H638 C623 0.961 . S
H639 C623 0.960 . S
C640 C641 1.391 . S
C640 C642 1.394 . S
C640 H656 0.931 . S
C641 C640 1.391 . S
C641 C645 1.376 . S
C642 C640 1.394 . S
C642 C643 1.369 . S
C642 C646 1.531 . S
C643 C642 1.369 . S
C643 C644 1.410 . S
C643 C651 1.503 . S
C644 C643 1.410 . S
C644 C645 1.392 . S
C644 C647 1.511 . S
C645 C641 1.376 . S
C645 C644 1.392 . S
C645 H657 0.929 . S
C646 C642 1.531 . S
C646 H658 0.960 . S
C646 H659 0.962 . S
C646 H660 0.960 . S
C647 C644 1.511 . S
C647 H661 0.961 . S
C647 H662 0.961 . S
C647 H663 0.961 . S
C648 C649 1.370 . S
C648 C650 1.363 . S
C648 H664 0.931 . S
C649 C648 1.370 . S
C649 C653 1.408 . S
C650 C648 1.363 . S
C650 C651 1.370 . S
C650 C654 1.524 . S
C651 C643 1.503 . S
C651 C650 1.370 . S
C651 C652 1.403 . S
C652 C651 1.403 . S
C652 C653 1.404 . S
C652 C655 1.539 . S
C653 C649 1.408 . S
C653 C652 1.404 . S
C653 H665 0.930 . S
C654 C650 1.524 . S
C654 H666 0.956 . S
C654 H667 0.961 . S
C654 H668 0.961 . S
C655 C652 1.539 . S
C655 H669 0.958 . S
C655 H670 0.961 . S
C655 H671 0.960 . S
H656 C640 0.931 . S
H657 C645 0.929 . S
H658 C646 0.960 . S
H659 C646 0.962 . S
H660 C646 0.960 . S
H661 C647 0.961 . S
H662 C647 0.961 . S
H663 C647 0.961 . S
H664 C648 0.931 . S
H665 C653 0.930 . S
H666 C654 0.956 . S
H667 C654 0.961 . S
H668 C654 0.961 . S
H669 C655 0.958 . S
H670 C655 0.961 . S
H671 C655 0.960 . S
C672 C673 1.391 . S
C672 C674 1.394 . S
C672 H688 0.931 . S
C673 C672 1.391 . S
C673 C677 1.376 . S
C674 C672 1.394 . S
C674 C675 1.369 . S
C674 C678 1.531 . S
C675 C674 1.369 . S
C675 C676 1.410 . S
C675 C683 1.503 . S
C676 C675 1.410 . S
C676 C677 1.392 . S
C676 C679 1.511 . S
C677 C673 1.376 . S
C677 C676 1.392 . S
C677 H689 0.929 . S
C678 C674 1.531 . S
C678 H690 0.960 . S
C678 H691 0.962 . S
C678 H692 0.960 . S
C679 C676 1.511 . S
C679 H693 0.961 . S
C679 H694 0.961 . S
C679 H695 0.961 . S
C680 C681 1.370 . S
C680 C682 1.363 . S
C680 H696 0.931 . S
C681 C680 1.370 . S
C681 C685 1.408 . S
C682 C680 1.363 . S
C682 C683 1.370 . S
C682 C686 1.524 . S
C683 C675 1.503 . S
C683 C682 1.370 . S
C683 C684 1.403 . S
C684 C683 1.403 . S
C684 C685 1.404 . S
C684 C687 1.539 . S
C685 C681 1.408 . S
C685 C684 1.404 . S
C685 H697 0.930 . S
C686 C682 1.524 . S
C686 H698 0.956 . S
C686 H699 0.961 . S
C686 H700 0.961 . S
C687 C684 1.539 . S
C687 H701 0.958 . S
C687 H702 0.961 . S
C687 H703 0.960 . S
H688 C672 0.931 . S
H689 C677 0.929 . S
H690 C678 0.960 . S
H691 C678 0.962 . S
H692 C678 0.960 . S
H693 C679 0.961 . S
H694 C679 0.961 . S
H695 C679 0.961 . S
H696 C680 0.931 . S
H697 C685 0.930 . S
H698 C686 0.956 . S
H699 C686 0.961 . S
H700 C686 0.961 . S
H701 C687 0.958 . S
H702 C687 0.961 . S
H703 C687 0.960 . S
C704 C705 1.391 . S
C704 C706 1.394 . S
C704 H720 0.931 . S
C705 C704 1.391 . S
C705 C709 1.376 . S
C706 C704 1.394 . S
C706 C707 1.369 . S
C706 C710 1.531 . S
C707 C706 1.369 . S
C707 C708 1.410 . S
C707 C715 1.503 . S
C708 C707 1.410 . S
C708 C709 1.392 . S
C708 C711 1.511 . S
C709 C705 1.376 . S
C709 C708 1.392 . S
C709 H721 0.929 . S
C710 C706 1.531 . S
C710 H722 0.960 . S
C710 H723 0.962 . S
C710 H724 0.960 . S
C711 C708 1.511 . S
C711 H725 0.961 . S
C711 H726 0.961 . S
C711 H727 0.961 . S
C712 C713 1.370 . S
C712 C714 1.363 . S
C712 H728 0.931 . S
C713 C712 1.370 . S
C713 C717 1.408 . S
C714 C712 1.363 . S
C714 C715 1.370 . S
C714 C718 1.524 . S
C715 C707 1.503 . S
C715 C714 1.370 . S
C715 C716 1.403 . S
C716 C715 1.403 . S
C716 C717 1.404 . S
C716 C719 1.539 . S
C717 C713 1.408 . S
C717 C716 1.404 . S
C717 H729 0.930 . S
C718 C714 1.524 . S
C718 H730 0.956 . S
C718 H731 0.961 . S
C718 H732 0.961 . S
C719 C716 1.539 . S
C719 H733 0.958 . S
C719 H734 0.961 . S
C719 H735 0.960 . S
H720 C704 0.931 . S
H721 C709 0.929 . S
H722 C710 0.960 . S
H723 C710 0.962 . S
H724 C710 0.960 . S
H725 C711 0.961 . S
H726 C711 0.961 . S
H727 C711 0.961 . S
H728 C712 0.931 . S
H729 C717 0.930 . S
H730 C718 0.956 . S
H731 C718 0.961 . S
H732 C718 0.961 . S
H733 C719 0.958 . S
H734 C719 0.961 . S
H735 C719 0.960 . S
C736 C737 1.391 . S
C736 C738 1.394 . S
C736 H752 0.931 . S
C737 C736 1.391 . S
C737 C741 1.376 . S
C738 C736 1.394 . S
C738 C739 1.369 . S
C738 C742 1.531 . S
C739 C738 1.369 . S
C739 C740 1.410 . S
C739 C747 1.503 . S
C740 C739 1.410 . S
C740 C741 1.392 . S
C740 C743 1.511 . S
C741 C737 1.376 . S
C741 C740 1.392 . S
C741 H753 0.929 . S
C742 C738 1.531 . S
C742 H754 0.960 . S
C742 H755 0.962 . S
C742 H756 0.960 . S
C743 C740 1.511 . S
C743 H757 0.961 . S
C743 H758 0.961 . S
C743 H759 0.961 . S
C744 C745 1.370 . S
C744 C746 1.363 . S
C744 H760 0.931 . S
C745 C744 1.370 . S
C745 C749 1.408 . S
C746 C744 1.363 . S
C746 C747 1.370 . S
C746 C750 1.524 . S
C747 C739 1.503 . S
C747 C746 1.370 . S
C747 C748 1.403 . S
C748 C747 1.403 . S
C748 C749 1.404 . S
C748 C751 1.539 . S
C749 C745 1.408 . S
C749 C748 1.404 . S
C749 H761 0.930 . S
C750 C746 1.524 . S
C750 H762 0.956 . S
C750 H763 0.961 . S
C750 H764 0.961 . S
C751 C748 1.539 . S
C751 H765 0.958 . S
C751 H766 0.961 . S
C751 H767 0.960 . S
H752 C736 0.931 . S
H753 C741 0.929 . S
H754 C742 0.960 . S
H755 C742 0.962 . S
H756 C742 0.960 . S
H757 C743 0.961 . S
H758 C743 0.961 . S
H759 C743 0.961 . S
H760 C744 0.931 . S
H761 C749 0.930 . S
H762 C750 0.956 . S
H763 C750 0.961 . S
H764 C750 0.961 . S
H765 C751 0.958 . S
H766 C751 0.961 . S
H767 C751 0.960 . S
C768 C769 1.391 . S
C768 C770 1.394 . S
C768 H784 0.931 . S
C769 C768 1.391 . S
C769 C773 1.376 . S
C770 C768 1.394 . S
C770 C771 1.369 . S
C770 C774 1.531 . S
C771 C770 1.369 . S
C771 C772 1.410 . S
C771 C779 1.503 . S
C772 C771 1.410 . S
C772 C773 1.392 . S
C772 C775 1.511 . S
C773 C769 1.376 . S
C773 C772 1.392 . S
C773 H785 0.929 . S
C774 C770 1.531 . S
C774 H786 0.960 . S
C774 H787 0.962 . S
C774 H788 0.960 . S
C775 C772 1.511 . S
C775 H789 0.961 . S
C775 H790 0.961 . S
C775 H791 0.961 . S
C776 C777 1.370 . S
C776 C778 1.363 . S
C776 H792 0.931 . S
C777 C776 1.370 . S
C777 C781 1.408 . S
C778 C776 1.363 . S
C778 C779 1.370 . S
C778 C782 1.524 . S
C779 C771 1.503 . S
C779 C778 1.370 . S
C779 C780 1.403 . S
C780 C779 1.403 . S
C780 C781 1.404 . S
C780 C783 1.539 . S
C781 C777 1.408 . S
C781 C780 1.404 . S
C781 H793 0.930 . S
C782 C778 1.524 . S
C782 H794 0.956 . S
C782 H795 0.961 . S
C782 H796 0.961 . S
C783 C780 1.539 . S
C783 H797 0.958 . S
C783 H798 0.961 . S
C783 H799 0.960 . S
H784 C768 0.931 . S
H785 C773 0.929 . S
H786 C774 0.960 . S
H787 C774 0.962 . S
H788 C774 0.960 . S
H789 C775 0.961 . S
H790 C775 0.961 . S
H791 C775 0.961 . S
H792 C776 0.931 . S
H793 C781 0.930 . S
H794 C782 0.956 . S
H795 C782 0.961 . S
H796 C782 0.961 . S
H797 C783 0.958 . S
H798 C783 0.961 . S
H799 C783 0.960 . S
C800 C801 1.391 . S
C800 C802 1.394 . S
C800 H816 0.931 . S
C801 C800 1.391 . S
C801 C805 1.376 . S
C802 C800 1.394 . S
C802 C803 1.369 . S
C802 C806 1.531 . S
C803 C802 1.369 . S
C803 C804 1.410 . S
C803 C811 1.503 . S
C804 C803 1.410 . S
C804 C805 1.392 . S
C804 C807 1.511 . S
C805 C801 1.376 . S
C805 C804 1.392 . S
C805 H817 0.929 . S
C806 C802 1.531 . S
C806 H818 0.960 . S
C806 H819 0.962 . S
C806 H820 0.960 . S
C807 C804 1.511 . S
C807 H821 0.961 . S
C807 H822 0.961 . S
C807 H823 0.961 . S
C808 C809 1.370 . S
C808 C810 1.363 . S
C808 H824 0.931 . S
C809 C808 1.370 . S
C809 C813 1.408 . S
C810 C808 1.363 . S
C810 C811 1.370 . S
C810 C814 1.524 . S
C811 C803 1.503 . S
C811 C810 1.370 . S
C811 C812 1.403 . S
C812 C811 1.403 . S
C812 C813 1.404 . S
C812 C815 1.539 . S
C813 C809 1.408 . S
C813 C812 1.404 . S
C813 H825 0.930 . S
C814 C810 1.524 . S
C814 H826 0.956 . S
C814 H827 0.961 . S
C814 H828 0.961 . S
C815 C812 1.539 . S
C815 H829 0.958 . S
C815 H830 0.961 . S
C815 H831 0.960 . S
H816 C800 0.931 . S
H817 C805 0.929 . S
H818 C806 0.960 . S
H819 C806 0.962 . S
H820 C806 0.960 . S
H821 C807 0.961 . S
H822 C807 0.961 . S
H823 C807 0.961 . S
H824 C808 0.931 . S
H825 C813 0.930 . S
H826 C814 0.956 . S
H827 C814 0.961 . S
H828 C814 0.961 . S
H829 C815 0.958 . S
H830 C815 0.961 . S
H831 C815 0.960 . S
C832 C833 1.391 . S
C832 C834 1.394 . S
C832 H848 0.931 . S
C833 C832 1.391 . S
C833 C837 1.376 . S
C834 C832 1.394 . S
C834 C835 1.369 . S
C834 C838 1.531 . S
C835 C834 1.369 . S
C835 C836 1.410 . S
C835 C843 1.503 . S
C836 C835 1.410 . S
C836 C837 1.392 . S
C836 C839 1.511 . S
C837 C833 1.376 . S
C837 C836 1.392 . S
C837 H849 0.929 . S
C838 C834 1.531 . S
C838 H850 0.960 . S
C838 H851 0.962 . S
C838 H852 0.960 . S
C839 C836 1.511 . S
C839 H853 0.961 . S
C839 H854 0.961 . S
C839 H855 0.961 . S
C840 C841 1.370 . S
C840 C842 1.363 . S
C840 H856 0.931 . S
C841 C840 1.370 . S
C841 C845 1.408 . S
C842 C840 1.363 . S
C842 C843 1.370 . S
C842 C846 1.524 . S
C843 C835 1.503 . S
C843 C842 1.370 . S
C843 C844 1.403 . S
C844 C843 1.403 . S
C844 C845 1.404 . S
C844 C847 1.539 . S
C845 C841 1.408 . S
C845 C844 1.404 . S
C845 H857 0.930 . S
C846 C842 1.524 . S
C846 H858 0.956 . S
C846 H859 0.961 . S
C846 H860 0.961 . S
C847 C844 1.539 . S
C847 H861 0.958 . S
C847 H862 0.961 . S
C847 H863 0.960 . S
H848 C832 0.931 . S
H849 C837 0.929 . S
H850 C838 0.960 . S
H851 C838 0.962 . S
H852 C838 0.960 . S
H853 C839 0.961 . S
H854 C839 0.961 . S
H855 C839 0.961 . S
H856 C840 0.931 . S
H857 C845 0.930 . S
H858 C846 0.956 . S
H859 C846 0.961 . S
H860 C846 0.961 . S
H861 C847 0.958 . S
H862 C847 0.961 . S
H863 C847 0.960 . S
C864 C865 1.391 . S
C864 C866 1.394 . S
C864 H880 0.931 . S
C865 C864 1.391 . S
C865 C869 1.376 . S
C866 C864 1.394 . S
C866 C867 1.369 . S
C866 C870 1.531 . S
C867 C866 1.369 . S
C867 C868 1.410 . S
C867 C875 1.503 . S
C868 C867 1.410 . S
C868 C869 1.392 . S
C868 C871 1.511 . S
C869 C865 1.376 . S
C869 C868 1.392 . S
C869 H881 0.929 . S
C870 C866 1.531 . S
C870 H882 0.960 . S
C870 H883 0.962 . S
C870 H884 0.960 . S
C871 C868 1.511 . S
C871 H885 0.961 . S
C871 H886 0.961 . S
C871 H887 0.961 . S
C872 C873 1.370 . S
C872 C874 1.363 . S
C872 H888 0.931 . S
C873 C872 1.370 . S
C873 C877 1.408 . S
C874 C872 1.363 . S
C874 C875 1.370 . S
C874 C878 1.524 . S
C875 C867 1.503 . S
C875 C874 1.370 . S
C875 C876 1.403 . S
C876 C875 1.403 . S
C876 C877 1.404 . S
C876 C879 1.539 . S
C877 C873 1.408 . S
C877 C876 1.404 . S
C877 H889 0.930 . S
C878 C874 1.524 . S
C878 H890 0.956 . S
C878 H891 0.961 . S
C878 H892 0.961 . S
C879 C876 1.539 . S
C879 H893 0.958 . S
C879 H894 0.961 . S
C879 H895 0.960 . S
H880 C864 0.931 . S
H881 C869 0.929 . S
H882 C870 0.960 . S
H883 C870 0.962 . S
H884 C870 0.960 . S
H885 C871 0.961 . S
H886 C871 0.961 . S
H887 C871 0.961 . S
H888 C872 0.931 . S
H889 C877 0.930 . S
H890 C878 0.956 . S
H891 C878 0.961 . S
H892 C878 0.961 . S
H893 C879 0.958 . S
H894 C879 0.961 . S
H895 C879 0.960 . S
C896 C897 1.391 . S
C896 C898 1.394 . S
C896 H912 0.931 . S
C897 C896 1.391 . S
C897 C901 1.376 . S
C898 C896 1.394 . S
C898 C899 1.369 . S
C898 C902 1.531 . S
C899 C898 1.369 . S
C899 C900 1.410 . S
C899 C907 1.503 . S
C900 C899 1.410 . S
C900 C901 1.392 . S
C900 C903 1.511 . S
C901 C897 1.376 . S
C901 C900 1.392 . S
C901 H913 0.929 . S
C902 C898 1.531 . S
C902 H914 0.960 . S
C902 H915 0.962 . S
C902 H916 0.960 . S
C903 C900 1.511 . S
C903 H917 0.961 . S
C903 H918 0.961 . S
C903 H919 0.961 . S
C904 C905 1.370 . S
C904 C906 1.363 . S
C904 H920 0.931 . S
C905 C904 1.370 . S
C905 C909 1.408 . S
C906 C904 1.363 . S
C906 C907 1.370 . S
C906 C910 1.524 . S
C907 C899 1.503 . S
C907 C906 1.370 . S
C907 C908 1.403 . S
C908 C907 1.403 . S
C908 C909 1.404 . S
C908 C911 1.539 . S
C909 C905 1.408 . S
C909 C908 1.404 . S
C909 H921 0.930 . S
C910 C906 1.524 . S
C910 H922 0.956 . S
C910 H923 0.961 . S
C910 H924 0.961 . S
C911 C908 1.539 . S
C911 H925 0.958 . S
C911 H926 0.961 . S
C911 H927 0.960 . S
H912 C896 0.931 . S
H913 C901 0.929 . S
H914 C902 0.960 . S
H915 C902 0.962 . S
H916 C902 0.960 . S
H917 C903 0.961 . S
H918 C903 0.961 . S
H919 C903 0.961 . S
H920 C904 0.931 . S
H921 C909 0.930 . S
H922 C910 0.956 . S
H923 C910 0.961 . S
H924 C910 0.961 . S
H925 C911 0.958 . S
H926 C911 0.961 . S
H927 C911 0.960 . S
C928 C929 1.391 . S
C928 C930 1.394 . S
C928 H944 0.931 . S
C929 C928 1.391 . S
C929 C933 1.376 . S
C930 C928 1.394 . S
C930 C931 1.369 . S
C930 C934 1.531 . S
C931 C930 1.369 . S
C931 C932 1.410 . S
C931 C939 1.503 . S
C932 C931 1.410 . S
C932 C933 1.392 . S
C932 C935 1.511 . S
C933 C929 1.376 . S
C933 C932 1.392 . S
C933 H945 0.929 . S
C934 C930 1.531 . S
C934 H946 0.960 . S
C934 H947 0.962 . S
C934 H948 0.960 . S
C935 C932 1.511 . S
C935 H949 0.961 . S
C935 H950 0.961 . S
C935 H951 0.961 . S
C936 C937 1.370 . S
C936 C938 1.363 . S
C936 H952 0.931 . S
C937 C936 1.370 . S
C937 C941 1.408 . S
C938 C936 1.363 . S
C938 C939 1.370 . S
C938 C942 1.524 . S
C939 C931 1.503 . S
C939 C938 1.370 . S
C939 C940 1.403 . S
C940 C939 1.403 . S
C940 C941 1.404 . S
C940 C943 1.539 . S
C941 C937 1.408 . S
C941 C940 1.404 . S
C941 H953 0.930 . S
C942 C938 1.524 . S
C942 H954 0.956 . S
C942 H955 0.961 . S
C942 H956 0.961 . S
C943 C940 1.539 . S
C943 H957 0.958 . S
C943 H958 0.961 . S
C943 H959 0.960 . S
H944 C928 0.931 . S
H945 C933 0.929 . S
H946 C934 0.960 . S
H947 C934 0.962 . S
H948 C934 0.960 . S
H949 C935 0.961 . S
H950 C935 0.961 . S
H951 C935 0.961 . S
H952 C936 0.931 . S
H953 C941 0.930 . S
H954 C942 0.956 . S
H955 C942 0.961 . S
H956 C942 0.961 . S
H957 C943 0.958 . S
H958 C943 0.961 . S
H959 C943 0.960 . S
C960 C961 1.391 . S
C960 C962 1.394 . S
C960 H976 0.931 . S
C961 C960 1.391 . S
C961 C965 1.376 . S
C962 C960 1.394 . S
C962 C963 1.369 . S
C962 C966 1.531 . S
C963 C962 1.369 . S
C963 C964 1.410 . S
C963 C971 1.503 . S
C964 C963 1.410 . S
C964 C965 1.392 . S
C964 C967 1.511 . S
C965 C961 1.376 . S
C965 C964 1.392 . S
C965 H977 0.929 . S
C966 C962 1.531 . S
C966 H978 0.960 . S
C966 H979 0.962 . S
C966 H980 0.960 . S
C967 C964 1.511 . S
C967 H981 0.961 . S
C967 H982 0.961 . S
C967 H983 0.961 . S
C968 C969 1.370 . S
C968 C970 1.363 . S
C968 H984 0.931 . S
C969 C968 1.370 . S
C969 C973 1.408 . S
C970 C968 1.363 . S
C970 C971 1.370 . S
C970 C974 1.524 . S
C971 C963 1.503 . S
C971 C970 1.370 . S
C971 C972 1.403 . S
C972 C971 1.403 . S
C972 C973 1.404 . S
C972 C975 1.539 . S
C973 C969 1.408 . S
C973 C972 1.404 . S
C973 H985 0.930 . S
C974 C970 1.524 . S
C974 H986 0.956 . S
C974 H987 0.961 . S
C974 H988 0.961 . S
C975 C972 1.539 . S
C975 H989 0.958 . S
C975 H990 0.961 . S
C975 H991 0.960 . S
H976 C960 0.931 . S
H977 C965 0.929 . S
H978 C966 0.960 . S
H979 C966 0.962 . S
H980 C966 0.960 . S
H981 C967 0.961 . S
H982 C967 0.961 . S
H983 C967 0.961 . S
H984 C968 0.931 . S
H985 C973 0.930 . S
H986 C974 0.956 . S
H987 C974 0.961 . S
H988 C974 0.961 . S
H989 C975 0.958 . S
H990 C975 0.961 . S
H991 C975 0.960 . S
C992 C993 1.391 . S
C992 C994 1.394 . S
C992 H1008 0.931 . S
C993 C992 1.391 . S
C993 C997 1.376 . S
C994 C992 1.394 . S
C994 C995 1.369 . S
C994 C998 1.531 . S
C995 C994 1.369 . S
C995 C996 1.410 . S
C995 C1003 1.503 . S
C996 C995 1.410 . S
C996 C997 1.392 . S
C996 C999 1.511 . S
C997 C993 1.376 . S
C997 C996 1.392 . S
C997 H1009 0.929 . S
C998 C994 1.531 . S
C998 H1010 0.960 . S
C998 H1011 0.962 . S
C998 H1012 0.960 . S
C999 C996 1.511 . S
C999 H1013 0.961 . S
C999 H1014 0.961 . S
C999 H1015 0.961 . S
C1000 C1001 1.370 . S
C1000 C1002 1.363 . S
C1000 H1016 0.931 . S
C1001 C1000 1.370 . S
C1001 C1005 1.408 . S
C1002 C1000 1.363 . S
C1002 C1003 1.370 . S
C1002 C1006 1.524 . S
C1003 C995 1.503 . S
C1003 C1002 1.370 . S
C1003 C1004 1.403 . S
C1004 C1003 1.403 . S
C1004 C1005 1.404 . S
C1004 C1007 1.539 . S
C1005 C1001 1.408 . S
C1005 C1004 1.404 . S
C1005 H1017 0.930 . S
C1006 C1002 1.524 . S
C1006 H1018 0.956 . S
C1006 H1019 0.961 . S
C1006 H1020 0.961 . S
C1007 C1004 1.539 . S
C1007 H1021 0.958 . S
C1007 H1022 0.961 . S
C1007 H1023 0.960 . S
H1008 C992 0.931 . S
H1009 C997 0.929 . S
H1010 C998 0.960 . S
H1011 C998 0.962 . S
H1012 C998 0.960 . S
H1013 C999 0.961 . S
H1014 C999 0.961 . S
H1015 C999 0.961 . S
H1016 C1000 0.931 . S
H1017 C1005 0.930 . S
H1018 C1006 0.956 . S
H1019 C1006 0.961 . S
H1020 C1006 0.961 . S
H1021 C1007 0.958 . S
H1022 C1007 0.961 . S
H1023 C1007 0.960 . S
C257 C6 1.094 . S
C265 C103 1.090 . S
C289 C18 1.252 . S
C297 C152 1.274 . S
C329 C178 2.551 . S
C321 C28 2.583 . S
C353 C40 1.775 . S
C361 C226 1.738 . S
C393 C138 2.340 . S
C385 C9 2.210 . S
C425 C106 0.898 . S
C417 C16 0.934 . S
C457 C227 1.888 . S
C449 C30 1.888 . S
C489 C195 1.275 . S
C481 C42 1.281 . S
C513 C4 1.467 . S
C521 C223 1.521 . S
C553 C155 2.506 . S
C545 C33 2.571 . S
C577 C45 2.060 . S
C585 C107 2.065 . S
C609 C21 1.040 . S
C617 C192 1.069 . S
C649 C112 1.102 . S
C641 C57 1.054 . S
C673 C66 1.283 . S
C681 C143 1.288 . S
C705 C76 2.635 . S
C713 C187 2.605 . S
C737 C88 1.704 . S
C745 C235 1.690 . S
C769 C54 2.226 . S
C777 C147 2.322 . S
C809 C115 1.031 . S
C801 C64 1.025 . S
C841 C218 1.792 . S
C833 C78 1.813 . S
C873 C186 1.300 . S
C865 C93 1.330 . S
C897 C52 1.410 . S
C905 C232 1.528 . S
C937 C146 2.484 . S
C929 C81 2.566 . S
C969 C98 2.041 . S
C961 C90 2.034 . S
C993 C69 1.014 . S
C1001 C183 1.092 . S
