# Generated by pormake.
# Topology zzz, (3,6)-cn, num edge types: 1
# Building blocks:
#     Node 0, Type 0, BuildingBlock: BELTOD_clean_linker_0, # of connection points: 3
#     Node 1, Type 0, BuildingBlock: BELTOD_clean_linker_0, # of connection points: 3
#     Node 2, Type 0, BuildingBlock: BELTOD_clean_linker_0, # of connection points: 3
#     Node 3, Type 0, BuildingBlock: BELTOD_clean_linker_0, # of connection points: 3
#     Node 4, Type 0, BuildingBlock: BELTOD_clean_linker_0, # of connection points: 3
#     Node 5, Type 0, BuildingBlock: BELTOD_clean_linker_0, # of connection points: 3
#     Node 6, Type 0, BuildingBlock: BELTOD_clean_linker_0, # of connection points: 3
#     Node 7, Type 0, BuildingBlock: BELTOD_clean_linker_0, # of connection points: 3
#     Node 8, Type 1, BuildingBlock: CIFDUS_clean_sbu_1, # of connection points: 6
#     Node 9, Type 1, BuildingBlock: CIFDUS_clean_sbu_1, # of connection points: 6
#     Node 10, Type 1, BuildingBlock: CIFDUS_clean_sbu_1, # of connection points: 6
#     Node 11, Type 1, BuildingBlock: CIFDUS_clean_sbu_1, # of connection points: 6
#     Edge 12, Type (0, 1), BuildingBlock: XIVTED_clean_linker_0, # of connection points: 2
#     Edge 13, Type (0, 1), BuildingBlock: XIVTED_clean_linker_0, # of connection points: 2
#     Edge 14, Type (0, 1), BuildingBlock: XIVTED_clean_linker_0, # of connection points: 2
#     Edge 15, Type (0, 1), BuildingBlock: XIVTED_clean_linker_0, # of connection points: 2
#     Edge 16, Type (0, 1), BuildingBlock: XIVTED_clean_linker_0, # of connection points: 2
#     Edge 17, Type (0, 1), BuildingBlock: XIVTED_clean_linker_0, # of connection points: 2
#     Edge 18, Type (0, 1), BuildingBlock: XIVTED_clean_linker_0, # of connection points: 2
#     Edge 19, Type (0, 1), BuildingBlock: XIVTED_clean_linker_0, # of connection points: 2
#     Edge 20, Type (0, 1), BuildingBlock: XIVTED_clean_linker_0, # of connection points: 2
#     Edge 21, Type (0, 1), BuildingBlock: XIVTED_clean_linker_0, # of connection points: 2
#     Edge 22, Type (0, 1), BuildingBlock: XIVTED_clean_linker_0, # of connection points: 2
#     Edge 23, Type (0, 1), BuildingBlock: XIVTED_clean_linker_0, # of connection points: 2
#     Edge 24, Type (0, 1), BuildingBlock: XIVTED_clean_linker_0, # of connection points: 2
#     Edge 25, Type (0, 1), BuildingBlock: XIVTED_clean_linker_0, # of connection points: 2
#     Edge 26, Type (0, 1), BuildingBlock: XIVTED_clean_linker_0, # of connection points: 2
#     Edge 27, Type (0, 1), BuildingBlock: XIVTED_clean_linker_0, # of connection points: 2
#     Edge 28, Type (0, 1), BuildingBlock: XIVTED_clean_linker_0, # of connection points: 2
#     Edge 29, Type (0, 1), BuildingBlock: XIVTED_clean_linker_0, # of connection points: 2
#     Edge 30, Type (0, 1), BuildingBlock: XIVTED_clean_linker_0, # of connection points: 2
#     Edge 31, Type (0, 1), BuildingBlock: XIVTED_clean_linker_0, # of connection points: 2
#     Edge 32, Type (0, 1), BuildingBlock: XIVTED_clean_linker_0, # of connection points: 2
#     Edge 33, Type (0, 1), BuildingBlock: XIVTED_clean_linker_0, # of connection points: 2
#     Edge 34, Type (0, 1), BuildingBlock: XIVTED_clean_linker_0, # of connection points: 2
#     Edge 35, Type (0, 1), BuildingBlock: XIVTED_clean_linker_0, # of connection points: 2
# Relax obj value: 0.285
# Max RMSD: 0.216
# Mean RMSD: 0.196
data_MOF--net-zzz--node1-CIFDUS_clean_sbu_1--node2-BELTOD_clean_linker_0--edge1-XIVTED_clean_linker_0
_symmetry_space_group_name_H-M    P1
_symmetry_Int_Tables_number       1
_symmetry_cell_setting            triclinic
loop_
_symmetry_equiv_pos_as_xyz
'x, y, z'
_cell_length_a     50.774051
_cell_length_b     54.316198
_cell_length_c     19.469885
_cell_angle_alpha  89.96424
_cell_angle_beta   90.10781
_cell_angle_gamma 89.114033
loop_
_atom_site_label
_atom_site_type_symbol
_atom_site_fract_x
_atom_site_fract_y
_atom_site_fract_z
_atom_type_partial_charge
P0 P 0.75235 0.5232 0.19736 0.0
H1 H 0.75438 0.4977 0.32911 0.0
H2 H 0.78329 0.50451 0.42611 0.0
H3 H 0.79989 0.57738 0.35029 0.0
H4 H 0.77035 0.57047 0.25287 0.0
H5 H 0.74712 0.53581 0.05244 0.0
H6 H 0.70904 0.54543 0.98214 0.0
H7 H 0.66123 0.55254 0.1647 0.0
H8 H 0.7 0.54252 0.23547 0.0
H9 H 0.79385 0.48634 0.17662 0.0
H10 H 0.78078 0.56323 0.1308 0.0
O11 O 0.74324 0.49383 0.201 0.0
H12 H 0.83904 0.48915 0.13611 0.0
H13 H 0.82643 0.56657 0.09302 0.0
C14 C 0.76034 0.53344 0.28294 0.0
C15 C 0.7631 0.51565 0.33476 0.0
C16 C 0.77989 0.51955 0.39047 0.0
C17 C 0.79448 0.54129 0.39522 0.0
C18 C 0.78937 0.56022 0.34739 0.0
C19 C 0.77219 0.55639 0.29203 0.0
C20 C 0.72672 0.53909 0.14966 0.0
C21 C 0.72883 0.54055 0.07796 0.0
C22 C 0.70679 0.54601 0.03741 0.0
C23 C 0.68185 0.54974 0.06739 0.0
C24 C 0.68004 0.54957 0.13967 0.0
C25 C 0.70227 0.54419 0.18037 0.0
C26 C 0.78376 0.52441 0.15501 0.0
C27 C 0.8006 0.50376 0.15676 0.0
C28 C 0.82664 0.50554 0.13485 0.0
C29 C 0.83654 0.52817 0.11199 0.0
C30 C 0.81945 0.5488 0.1096 0.0
C31 C 0.7933 0.54691 0.13102 0.0
P32 P 0.02954 0.74669 0.22191 0.0
H33 H 0.03536 0.74801 0.37139 0.0
H34 H 0.02286 0.78029 0.45099 0.0
H35 H 0.96818 0.81025 0.30121 0.0
H36 H 0.98154 0.77794 0.2205 0.0
H37 H 0.05393 0.69924 0.19023 0.0
H38 H 0.04217 0.66543 0.11595 0.0
H39 H 0.96759 0.70126 0.0712 0.0
H40 H 0.97949 0.73548 0.14786 0.0
H41 H 0.06188 0.78902 0.24367 0.0
H42 H 0.01019 0.76283 0.08457 0.0
O43 O 0.05834 0.73838 0.2572 0.0
H44 H 0.06279 0.82923 0.1892 0.0
H45 H 0.01164 0.80288 0.02828 0.0
C46 C 0.00971 0.76057 0.28928 0.0
C47 C 0.01986 0.76083 0.35631 0.0
C48 C 0.01268 0.77958 0.40217 0.0
C49 C 0.99494 0.7985 0.38232 0.0
C50 C 0.98245 0.79648 0.31786 0.0
C51 C 0.98968 0.77762 0.27195 0.0
C52 C 0.01763 0.7201 0.17511 0.0
C53 C 0.03475 0.69982 0.16595 0.0
C54 C 0.02795 0.68027 0.12322 0.0
C55 C 1.00389 0.68047 0.0874 0.0
C56 C 0.98635 0.70054 0.09772 0.0
C57 C 0.99307 0.72007 0.14177 0.0
C58 C 0.03627 0.77273 0.16789 0.0
C59 C 0.05153 0.79162 0.19545 0.0
C60 C 0.05193 0.81473 0.1643 0.0
C61 C 0.03708 0.81943 0.10459 0.0
C62 C 0.02288 0.80004 0.07501 0.0
C63 C 0.02234 0.77692 0.10669 0.0
P64 P 0.76689 0.97329 0.21751 0.0
H65 H 0.76206 0.00282 0.34181 0.0
H66 H 0.73325 -0.00197 0.43976 0.0
H67 H 0.71895 0.92279 0.38072 0.0
H68 H 0.74891 0.92746 0.28306 0.0
H69 H 0.82306 0.97247 0.24307 0.0
H70 H 0.85994 0.96106 0.1701 0.0
H71 H 0.80673 0.92323 0.03365 0.0
H72 H 0.76988 0.93669 0.10374 0.0
H73 H 0.73207 0.93328 0.17295 0.0
H74 H 0.73287 0.01267 0.1639 0.0
O75 O 0.77733 0.00231 0.21772 0.0
H76 H 0.68673 0.9337 0.13135 0.0
H77 H 0.68785 0.01313 0.12113 0.0
C78 C 0.75742 0.96562 0.3041 0.0
C79 C 0.75384 0.98487 0.35129 0.0
C80 C 0.73714 0.98214 0.40754 0.0
C81 C 0.72334 0.96018 0.41725 0.0
C82 C 0.72896 0.94008 0.37384 0.0
C83 C 0.7462 0.94271 0.31819 0.0
C84 C 0.79354 0.95572 0.179 0.0
C85 C 0.81941 0.96112 0.19841 0.0
C86 C 0.84066 0.95444 0.15626 0.0
C87 C 0.83654 0.94171 0.09417 0.0
C88 C 0.81079 0.93386 0.07935 0.0
C89 C 0.78949 0.94117 0.12058 0.0
C90 C 0.73619 0.97292 0.17073 0.0
C91 C 0.72282 0.95078 0.16048 0.0
C92 C 0.6968 0.95102 0.13689 0.0
C93 C 0.68358 0.97346 0.12386 0.0
C94 C 0.69731 -0.00445 0.13204 0.0
C95 C 0.72329 -0.00473 0.15551 0.0
P96 P 0.48331 0.75499 0.21216 0.0
H97 H 0.46121 0.75147 0.3505 0.0
H98 H 0.46865 0.7203 0.43768 0.0
H99 H 0.54101 0.69801 0.33739 0.0
H100 H 0.53319 0.72938 0.24921 0.0
H101 H 0.45642 0.80065 0.17336 0.0
H102 H 0.46947 0.83673 0.1099 0.0
H103 H 0.54977 0.80958 0.10541 0.0
H104 H 0.5367 0.77337 0.17296 0.0
H105 H 0.45015 0.71307 0.18786 0.0
H106 H 0.52492 0.73881 0.11413 0.0
O107 O 0.45096 0.7592 0.2239 0.0
H108 H 0.45892 0.6731 0.13632 0.0
H109 H 0.53429 0.69849 0.06471 0.0
C110 C 0.49632 0.74261 0.29206 0.0
C111 C 0.47926 0.74063 0.34835 0.0
C112 C 0.48354 0.72254 0.39854 0.0
C113 C 0.5051 0.706 0.39388 0.0
C114 C 0.52378 0.7099 0.34169 0.0
C115 C 0.51953 0.72818 0.29162 0.0
C116 C 0.49541 0.78376 0.17722 0.0
C117 C 0.47702 0.80241 0.16044 0.0
C118 C 0.48452 0.82327 0.12393 0.0
C119 C 0.51063 0.82604 0.10201 0.0
C120 C 0.52941 0.80786 0.12092 0.0
C121 C 0.52193 0.78708 0.15926 0.0
C122 C 0.48665 0.72925 0.15427 0.0
C123 C 0.46816 0.71044 0.15891 0.0
C124 C 0.47346 0.68734 0.13058 0.0
C125 C 0.49761 0.6824 0.09785 0.0
C126 C 0.51549 0.70168 0.08957 0.0
C127 C 0.51005 0.72491 0.11767 0.0
P128 P 0.25405 0.39429 0.22227 0.0
H129 H 0.252 0.38224 0.07567 0.0
H130 H 0.22855 0.40276 0.98167 0.0
H131 H 0.21611 0.46674 0.10978 0.0
H132 H 0.2394 0.44607 0.20367 0.0
H133 H 0.28117 0.36972 0.33465 0.0
H134 H 0.31579 0.38203 0.414 0.0
H135 H 0.31983 0.45257 0.31184 0.0
H136 H 0.28596 0.43962 0.23093 0.0
H137 H 0.20175 0.37953 0.18153 0.0
H138 H 0.23739 0.41514 0.35585 0.0
O139 O 0.25952 0.36505 0.19938 0.0
H140 H 0.15802 0.3921 0.22289 0.0
H141 H 0.19362 0.42676 0.3985 0.0
C142 C 0.24789 0.41272 0.14661 0.0
C143 C 0.24526 0.40107 0.08275 0.0
C144 C 0.23152 0.41271 0.0292 0.0
C145 C 0.22016 0.43624 0.03857 0.0
C146 C 0.22481 0.44871 0.10061 0.0
C147 C 0.23841 0.43698 0.15426 0.0
C148 C 0.28094 0.40369 0.27677 0.0
C149 C 0.28975 0.38773 0.32884 0.0
C150 C 0.30943 0.39491 0.37464 0.0
C151 C 0.3206 0.41841 0.36989 0.0
C152 C 0.31197 0.43424 0.31674 0.0
C153 C 0.29233 0.42694 0.27063 0.0
C154 C 0.22285 0.39623 0.2658 0.0
C155 C 0.20014 0.38913 0.23013 0.0
C156 C 0.1752 0.39637 0.25344 0.0
C157 C 0.17265 0.41026 0.31373 0.0
C158 C 0.19523 0.41579 0.35219 0.0
C159 C 0.22023 0.40907 0.32793 0.0
P160 P 0.09912 0.24933 0.23755 0.0
H161 H 0.12691 0.22265 0.12962 0.0
H162 H 0.11174 0.19314 0.04628 0.0
H163 H 0.03136 0.21688 0.08298 0.0
H164 H 0.0468 0.24579 0.16917 0.0
H165 H 0.12914 0.28909 0.29886 0.0
H166 H 0.11702 0.32682 0.35781 0.0
H167 H 0.03515 0.31425 0.31006 0.0
H168 H 0.04771 0.27731 0.24677 0.0
H169 H 0.1258 0.20697 0.30196 0.0
H170 H 0.04764 0.23913 0.29737 0.0
O171 O 0.13203 0.24847 0.23696 0.0
H172 H 0.10882 0.17091 0.36101 0.0
H173 H 0.03038 0.20301 0.35256 0.0
C174 C 0.08817 0.23697 0.15586 0.0
C175 C 0.10605 0.22234 0.1182 0.0
C176 C 0.09725 0.20517 0.07014 0.0
C177 C 0.07017 0.20208 0.05807 0.0
C178 C 0.05234 0.21818 0.0918 0.0
C179 C 0.06123 0.23527 0.14044 0.0
C180 C 0.08943 0.27991 0.26795 0.0
C181 C 0.10857 0.2946 0.29934 0.0
C182 C 0.10153 0.31621 0.33439 0.0
C183 C 0.07497 0.32363 0.34054 0.0
C184 C 0.05586 0.30943 0.30653 0.0
C185 C 0.06304 0.28794 0.27039 0.0
C186 C 0.08814 0.22615 0.29657 0.0
C187 C 0.1051 0.20661 0.31509 0.0
C188 C 0.09526 0.18575 0.34781 0.0
C189 C 0.06815 0.18387 0.36137 0.0
C190 C 0.05143 0.20387 0.34444 0.0
C191 C 0.06135 0.22476 0.31268 0.0
P192 P 0.26188 0.12111 0.22955 0.0
H193 H 0.27386 0.1375 0.08967 0.0
H194 H 0.29847 0.11747 0.99706 0.0
H195 H 0.29772 0.04893 0.1095 0.0
H196 H 0.27324 0.06897 0.20163 0.0
H197 H 0.22857 0.14623 0.32898 0.0
H198 H 0.18977 0.13421 0.39373 0.0
H199 H 0.19031 0.06414 0.28829 0.0
H200 H 0.22808 0.07698 0.22114 0.0
H201 H 0.3131 0.14415 0.24824 0.0
H202 H 0.27107 0.08264 0.3315 0.0
O203 O 0.26053 0.15129 0.21335 0.0
H204 H 0.3532 0.13015 0.3073 0.0
H205 H 0.31087 0.06778 0.38707 0.0
C206 C 0.27124 0.10472 0.15245 0.0
C207 C 0.27814 0.11796 0.09344 0.0
C208 C 0.29251 0.10655 0.04075 0.0
C209 C 0.30031 0.08165 0.04616 0.0
C210 C 0.29181 0.06804 0.10321 0.0
C211 C 0.27757 0.0795 0.15597 0.0
C212 C 0.23125 0.11261 0.26986 0.0
C213 C 0.21999 0.12846 0.31884 0.0
C214 C 0.19791 0.12141 0.35652 0.0
C215 C 0.18682 0.09806 0.34702 0.0
C216 C 0.19791 0.08241 0.29664 0.0
C217 C 0.21984 0.08964 0.25837 0.0
C218 C 0.28894 0.11478 0.28687 0.0
C219 C 0.31234 0.12799 0.28077 0.0
C220 C 0.33537 0.11971 0.31366 0.0
C221 C 0.3355 0.09775 0.35212 0.0
C222 C 0.31164 0.08508 0.3596 0.0
C223 C 0.28867 0.09356 0.32758 0.0
P224 P 0.4227 0.253 0.2229 0.0
H225 H 0.41897 0.25672 0.07257 0.0
H226 H 0.43915 0.28592 0.99384 0.0
H227 H 0.49339 0.30725 0.15312 0.0
H228 H 0.4736 0.27746 0.2313 0.0
H229 H 0.40039 0.22925 0.34224 0.0
H230 H 0.41266 0.193 0.40952 0.0
H231 H 0.47901 0.17987 0.27471 0.0
H232 H 0.46694 0.21695 0.20919 0.0
H233 H 0.39654 0.3001 0.20014 0.0
H234 H 0.44125 0.26495 0.36242 0.0
O235 O 0.3938 0.24663 0.18661 0.0
H236 H 0.40008 0.33973 0.25928 0.0
H237 H 0.44397 0.30423 0.42256 0.0
C238 C 0.44468 0.26485 0.15811 0.0
C239 C 0.43597 0.26679 0.08982 0.0
C240 C 0.44742 0.28369 0.04484 0.0
C241 C 0.4675 0.29925 0.06775 0.0
C242 C 0.4777 0.29576 0.13433 0.0
C243 C 0.46662 0.27847 0.17877 0.0
C244 C 0.43304 0.2261 0.27156 0.0
C245 C 0.4177 0.21864 0.32745 0.0
C246 C 0.4246 0.19763 0.36548 0.0
C247 C 0.44689 0.18325 0.348 0.0
C248 C 0.46197 0.1906 0.29077 0.0
C249 C 0.45509 0.21181 0.25294 0.0
C250 C 0.41805 0.27941 0.2776 0.0
C251 C 0.40613 0.30069 0.24985 0.0
C252 C 0.40839 0.32334 0.28316 0.0
C253 C 0.42226 0.32494 0.34534 0.0
C254 C 0.43287 0.30338 0.37506 0.0
C255 C 0.43112 0.28085 0.34094 0.0
O256 O 0.02159 0.03659 0.77335 0.0
Mn257 Mn 0.01615 0.0042 0.71533 0.0
O258 O 0.98222 0.05645 0.77476 0.0
Mn259 Mn 0.96509 0.03603 0.71302 0.0
O260 O 0.01117 0.97177 0.65815 0.0
O261 O 0.05511 0.00197 0.69784 0.0
Mn262 Mn 0.06772 0.97335 0.72561 0.0
O263 O 0.01919 0.98271 0.805 0.0
O264 O 0.04885 0.94993 0.67623 0.0
O265 O 0.01312 0.02571 0.62619 0.0
O266 O 0.97232 0.0421 0.62173 0.0
O267 O 0.09544 0.98954 0.68486 0.0
O268 O 0.06185 0.97289 0.81894 0.0
C269 C 0.95334 0.00089 0.7507 0.0
C270 C 1.0064 0.05456 0.79275 0.0
C271 C 0.02561 0.95216 0.65104 0.0
C272 C 0.07798 0.00655 0.67246 0.0
C273 C 0.0383 0.97365 0.84099 0.0
C274 C 0.99513 0.03872 0.59604 0.0
O275 O 0.97701 0.00618 0.73184 0.0
O276 O 0.93625 0.01847 0.74107 0.0
O277 O 0.51881 -0.00202 0.81225 0.0
Mn278 Mn 0.50239 0.00425 0.71493 0.0
O279 O 0.5335 0.03395 0.85083 0.0
Mn280 Mn 0.54094 0.04414 0.76254 0.0
O281 O 0.48591 0.01044 0.61772 0.0
O282 O 0.49275 0.96841 0.71441 0.0
Mn283 Mn 0.46188 0.96464 0.67468 0.0
O284 O 0.46615 0.01301 0.75928 0.0
O285 O 0.46511 0.97622 0.58569 0.0
O286 O 0.53907 -0.00417 0.67172 0.0
O287 O 0.5659 0.02449 0.7169 0.0
O288 O 0.47298 0.93367 0.70367 0.0
O289 O 0.43837 0.98283 0.72933 0.0
C290 C 0.51292 0.06291 0.69673 0.0
C291 C 0.5282 0.01141 0.86043 0.0
C292 C 0.47292 -0.00203 0.57336 0.0
C293 C 0.49259 0.94528 0.73014 0.0
C294 C 0.44336 0.00298 0.76054 0.0
C295 C 0.56201 0.00524 0.6804 0.0
O296 O 0.51176 0.04011 0.71545 0.0
O297 O 0.53186 0.0746 0.72611 0.0
O298 O 0.50219 0.51949 0.81201 0.0
Mn299 Mn 0.4937 0.49947 0.72306 0.0
O300 O 0.4635 0.52894 0.86156 0.0
Mn301 Mn 0.44607 0.53055 0.77811 0.0
O302 O 0.48488 0.47935 0.63531 0.0
O303 O 0.53223 0.49584 0.70568 0.0
Mn304 Mn 0.54063 0.46722 0.66861 0.0
O305 O 0.49498 0.46638 0.77841 0.0
O306 O 0.52226 0.46584 0.58604 0.0
O307 O 0.49247 0.53283 0.66859 0.0
O308 O 0.45913 0.55448 0.71818 0.0
O309 O 0.57191 0.48387 0.68575 0.0
O310 O 0.5289 0.44428 0.73325 0.0
C311 C 0.43069 0.49826 0.72763 0.0
C312 C 0.4886 0.52788 0.86276 0.0
C313 C 0.49725 0.46835 0.58645 0.0
C314 C 0.5568 0.50027 0.71422 0.0
C315 C 0.50954 0.44673 0.77508 0.0
C316 C 0.47834 0.55265 0.67562 0.0
O317 O 0.45508 0.50275 0.7388 0.0
O318 O 0.41504 0.51427 0.75572 0.0
O319 O 0.0526 0.4955 0.74202 0.0
Mn320 Mn 0.01566 0.50315 0.69942 0.0
O321 O 0.07932 0.52597 0.70803 0.0
Mn322 Mn 0.05496 0.5429 0.65268 0.0
O323 O 0.97834 0.51056 0.65791 0.0
O324 O 1.00708 0.46702 0.70323 0.0
Mn325 Mn 0.97822 0.46299 0.75144 0.0
O326 O 1.00022 0.50995 0.79734 0.0
O327 O 0.95249 0.48154 0.70494 0.0
O328 O 0.03082 0.49648 0.60139 0.0
O329 O 0.05134 0.53025 0.56475 0.0
O330 O 0.98782 0.43222 0.71823 0.0
O331 O 0.98586 0.47421 0.83869 0.0
C332 C 0.0246 0.56256 0.70841 0.0
C333 C 0.07509 0.50612 0.74146 0.0
C334 C 0.9557 0.50067 0.66748 0.0
C335 C 1.00653 0.44386 0.6878 0.0
C336 C 0.99121 0.49683 0.84666 0.0
C337 C 0.04297 0.50855 0.55464 0.0
O338 O 0.02459 0.5392 0.69522 0.0
O339 O 0.04363 0.57407 0.67902 0.0
H340 H 0.17804 0.10836 0.48395 0.0
H341 H 0.08052 -0.00077 0.53652 0.0
H342 H 0.14527 0.06805 0.3136 0.0
H343 H 0.09089 0.0549 0.69099 0.0
H344 H 0.10187 0.02567 0.45244 0.0
H345 H 0.14465 0.09106 0.5589 0.0
C346 C 0.16361 0.09624 0.46172 0.0
C347 C 0.16487 0.08951 0.39196 0.0
C348 C 0.09892 0.03249 0.50415 0.0
C349 C 0.12676 0.06912 0.47874 0.0
C350 C 0.08656 0.01747 0.55196 0.0
C351 C 0.08337 0.02526 0.62003 0.0
C352 C 0.10918 0.05513 0.52522 0.0
C353 C 0.09236 0.04861 0.63836 0.0
C354 C 0.14454 0.08628 0.50492 0.0
C355 C 0.14569 0.07334 0.36715 0.0
N356 N 0.10525 0.06263 0.59141 0.0
N357 N 0.12772 0.06348 0.41058 0.0
H358 H 0.41518 0.14979 0.41554 0.0
H359 H 0.53802 0.07764 0.58377 0.0
H360 H 0.4969 0.16655 0.37974 0.0
H361 H 0.46025 0.07398 0.67078 0.0
H362 H 0.52078 0.10352 0.49128 0.0
H363 H 0.42919 0.11648 0.49331 0.0
C364 C 0.43605 0.14658 0.42382 0.0
C365 C 0.45485 0.16141 0.39105 0.0
C366 C 0.50729 0.09688 0.52988 0.0
C367 C 0.47091 0.12285 0.47941 0.0
C368 C 0.5171 0.08192 0.58241 0.0
C369 C 0.5005 0.07356 0.63457 0.0
C370 C 0.48061 0.10398 0.52961 0.0
C371 C 0.47361 0.07985 0.63094 0.0
C372 C 0.44397 0.12743 0.46808 0.0
C373 C 0.48157 0.15569 0.40277 0.0
N374 N 0.46448 0.09495 0.57956 0.0
N375 N 0.4887 0.13705 0.44593 0.0
H376 H 0.32171 0.40869 0.50845 0.0
H377 H 0.43797 0.50177 0.59011 0.0
H378 H 0.36437 0.4472 0.35082 0.0
H379 H 0.39882 0.45896 0.74433 0.0
H380 H 0.41391 0.47959 0.5006 0.0
H381 H 0.35236 0.42414 0.59394 0.0
C382 C 0.3377 0.42014 0.49146 0.0
C383 C 0.34024 0.42671 0.42195 0.0
C384 C 0.41092 0.47467 0.55388 0.0
C385 C 0.37533 0.44498 0.52064 0.0
C386 C 0.4249 0.4871 0.60483 0.0
C387 C 0.42089 0.48155 0.6743 0.0
C388 C 0.39258 0.45675 0.57275 0.0
C389 C 0.4029 0.46325 0.69111 0.0
C390 C 0.35517 0.4291 0.54061 0.0
C391 C 0.36123 0.44199 0.40379 0.0
N392 N 0.38938 0.45151 0.64073 0.0
N393 N 0.37783 0.45072 0.4528 0.0
H394 H 0.03348 0.35681 0.3237 0.0
H395 H 0.05948 0.43268 0.67124 0.0
H396 H 0.09871 0.34023 0.45976 0.0
H397 H 0.98372 0.42694 0.57316 0.0
H398 H 0.07863 0.406 0.58061 0.0
H399 H 0.01937 0.38959 0.40184 0.0
C400 C 0.04491 0.35994 0.36976 0.0
C401 C 0.06724 0.34525 0.38491 0.0
C402 C 0.0579 0.41094 0.57854 0.0
C403 C 0.05131 0.38345 0.47447 0.0
C404 C 0.04709 0.42631 0.62974 0.0
C405 C 0.0201 0.4322 0.6289 0.0
C406 C 0.04156 0.40166 0.52626 0.0
C407 C 1.00468 0.42299 0.57512 0.0
C408 C 0.0369 0.37885 0.41423 0.0
C409 C 0.08153 0.351 0.44493 0.0
N410 N 0.01559 0.40827 0.52608 0.0
N411 N 0.07328 0.3695 0.48747 0.0
H412 H 0.89086 0.93806 0.11295 0.0
H413 H 0.91742 0.96675 0.7173 0.0
H414 H 0.83169 0.94163 0.95304 0.0
H415 H 0.96955 0.98892 0.87964 0.0
H416 H 0.8921 0.943 0.80037 0.0
H417 H 0.92483 0.94362 0.02544 0.0
C418 C 0.88486 0.93969 0.05977 0.0
C419 C 0.85799 0.93984 0.04133 0.0
C420 C 0.90961 0.95235 0.81758 0.0
C421 C 0.89713 0.94544 0.9406 0.0
C422 C 0.92427 0.96559 0.76998 0.0
C423 C 0.94584 0.97937 0.79157 0.0
C424 C 0.91628 0.95332 0.88758 0.0
C425 C 0.95337 0.97804 0.86082 0.0
C426 C 0.90439 0.94267 0.00979 0.0
C427 C 0.85188 0.94119 0.97081 0.0
N428 N 0.93836 0.96557 0.90674 0.0
N429 N 0.87119 0.94417 0.92348 0.0
H430 H 0.49691 0.87483 0.11626 0.0
H431 H 0.52478 0.90491 0.72391 0.0
H432 H 0.53847 0.82497 0.98099 0.0
H433 H 0.49093 0.95728 0.86544 0.0
H434 H 0.53655 0.878 0.82072 0.0
H435 H 0.5006 0.90737 0.03006 0.0
C436 C 0.50717 0.87083 0.06873 0.0
C437 C 0.51717 0.84702 0.05567 0.0
C438 C 0.52728 0.89569 0.83104 0.0
C439 C 0.5212 0.88425 0.95584 0.0
C440 C 0.52085 0.91119 0.77576 0.0
C441 C 0.50757 0.93365 0.7869 0.0
C442 C 0.51962 0.90237 0.89796 0.0
C443 C 0.50188 0.94044 0.85482 0.0
C444 C 0.5093 0.88945 0.01945 0.0
C445 C 0.53051 0.84302 0.9934 0.0
N446 N 0.50761 0.92475 0.90763 0.0
N447 N 0.53175 0.86129 0.94544 0.0
H448 H 0.63374 0.52865 0.09069 0.0
H449 H 0.59258 0.53657 0.69765 0.0
H450 H 0.67507 0.57217 0.94117 0.0
H451 H 0.54759 0.49884 0.85124 0.0
H452 H 0.61879 0.55546 0.78892 0.0
H453 H 0.59794 0.52356 0.00849 0.0
C454 C 0.6351 0.53765 0.04122 0.0
C455 C 0.65782 0.55056 0.02279 0.0
C456 C 0.60269 0.54363 0.80294 0.0
C457 C 0.61693 0.54417 0.9272 0.0
C458 C 0.58762 0.53303 0.75081 0.0
C459 C 0.56744 0.51676 0.76717 0.0
C460 C 0.59805 0.53727 0.87189 0.0
C461 C 0.56238 0.51199 0.83665 0.0
C462 C 0.61466 0.53453 0.99391 0.0
C463 C 0.65834 0.56152 0.95729 0.0
N464 N 0.57778 0.52194 0.8864 0.0
N465 N 0.63846 0.55776 0.91165 0.0
H466 H 0.01279 0.63063 0.10128 0.0
H467 H 0.99425 0.60408 0.70071 0.0
H468 H 0.98303 0.68457 0.95699 0.0
H469 H 0.02534 0.55083 0.84437 0.0
H470 H 0.98247 0.63125 0.79677 0.0
H471 H 0.01045 0.59916 0.01184 0.0
C472 C 1.00551 0.63584 0.05092 0.0
C473 C 0.99843 0.66046 0.03663 0.0
C474 C 0.99117 0.61334 0.80764 0.0
C475 C 0.99574 0.62429 0.9333 0.0
C476 C 0.99759 0.5977 0.75279 0.0
C477 C 0.00999 0.57484 0.76473 0.0
C478 C 0.99784 0.60636 0.87511 0.0
C479 C 0.01495 0.56791 0.83302 0.0
C480 C 1.00412 0.6178 0.99981 0.0
C481 C 0.98867 0.6659 0.97062 0.0
N482 N 0.00912 0.58368 0.8855 0.0
N483 N 0.98796 0.64808 0.9213 0.0
H484 H 0.02686 0.17941 0.4509 0.0
H485 H 0.03988 0.03698 0.5168 0.0
H486 H 0.08375 0.13568 0.33741 0.0
H487 H 0.96768 0.0784 0.54528 0.0
H488 H 0.05767 0.07158 0.45093 0.0
H489 H 1.00674 0.14179 0.49107 0.0
C490 C 0.03507 0.16194 0.43388 0.0
C491 C 0.05695 0.16087 0.39 0.0
C492 C 0.03779 0.07282 0.47076 0.0
C493 C 0.03414 0.11749 0.43729 0.0
C494 C 0.02772 0.05314 0.50835 0.0
C495 C 1.00276 0.0551 0.53881 0.0
C496 C 0.02271 0.09458 0.4643 0.0
C497 C 0.98727 0.07612 0.52413 0.0
C498 C 0.02353 0.14042 0.45695 0.0
C499 C 0.06711 0.1375 0.37177 0.0
N500 N 0.99772 0.09523 0.4893 0.0
N501 N 0.0557 0.1167 0.39583 0.0
H502 H 0.38589 0.09931 0.29768 0.0
H503 H 0.43174 0.98293 0.49415 0.0
H504 H 0.34245 0.07106 0.47073 0.0
H505 H 0.48463 0.04367 0.5203 0.0
H506 H 0.40152 0.01007 0.43184 0.0
H507 H 0.42486 0.07582 0.33717 0.0
C508 C 0.3845 0.08855 0.34431 0.0
C509 C 0.36045 0.08682 0.38003 0.0
C510 C 0.4201 0.01723 0.44987 0.0
C511 C 0.40454 0.05941 0.42292 0.0
C512 C 0.43752 0.00177 0.48507 0.0
C513 C 0.46037 0.01132 0.51511 0.0
C514 C 0.42576 0.04224 0.44331 0.0
C515 C 0.46676 0.03587 0.50028 0.0
C516 C 0.40671 0.07506 0.36619 0.0
C517 C 0.36006 0.07235 0.43984 0.0
N518 N 0.4492 0.05079 0.46651 0.0
N519 N 0.38156 0.05885 0.45852 0.0
H520 H 0.41401 0.33964 0.47757 0.0
H521 H 0.50494 0.45685 0.44968 0.0
H522 H 0.44401 0.36482 0.28327 0.0
H523 H 0.45609 0.44098 0.62459 0.0
H524 H 0.48232 0.42438 0.38501 0.0
H525 H 0.42835 0.37793 0.53077 0.0
C526 C 0.42339 0.35342 0.4461 0.0
C527 C 0.4279 0.34916 0.37619 0.0
C528 C 0.47617 0.42848 0.43704 0.0
C529 C 0.44487 0.39277 0.43658 0.0
C530 C 0.48904 0.44697 0.47372 0.0
C531 C 0.48184 0.45203 0.54179 0.0
C532 C 0.45657 0.41465 0.46959 0.0
C533 C 0.46164 0.43828 0.57144 0.0
C534 C 0.43155 0.37528 0.47628 0.0
C535 C 0.44007 0.36757 0.33738 0.0
N536 N 0.44987 0.42016 0.53542 0.0
N537 N 0.44851 0.38847 0.36831 0.0
H538 H 0.14606 0.44533 0.24163 0.0
H539 H 0.07442 0.52538 0.45009 0.0
H540 H 0.14211 0.40204 0.42678 0.0
H541 H 0.03419 0.46069 0.51914 0.0
H542 H 0.10086 0.49961 0.37315 0.0
H543 H 0.10739 0.4694 0.27995 0.0
C544 C 0.13664 0.44063 0.28968 0.0
C545 C 0.14719 0.42193 0.33162 0.0
C546 C 0.08573 0.49113 0.40387 0.0
C547 C 0.10336 0.44912 0.3753 0.0
C548 C 0.0706 0.50583 0.44796 0.0
C549 C 0.05266 0.49498 0.4933 0.0
C550 C 0.08313 0.46544 0.40598 0.0
C551 C 0.04849 0.46959 0.48729 0.0
C552 C 0.11479 0.45439 0.31154 0.0
C553 C 0.13453 0.41649 0.3935 0.0
N554 N 0.06426 0.4555 0.44638 0.0
N555 N 0.11322 0.43009 0.41366 0.0
H556 H 0.07633 0.85355 0.09569 0.0
H557 H 0.99498 0.94563 0.86127 0.0
H558 H 0.99408 0.84333 0.04833 0.0
H559 H 0.06996 0.96347 0.95109 0.0
H560 H 0.99189 0.91058 0.93879 0.0
H561 H 0.07309 0.89516 0.04943 0.0
C562 C 0.05752 0.86007 0.07605 0.0
C563 C 0.03551 0.84474 0.0755 0.0
C564 C 0.00868 0.92254 0.94302 0.0
C565 C 0.03174 0.89247 0.02161 0.0
C566 C 0.01017 0.94293 0.89965 0.0
C567 C 0.03258 0.95771 0.90031 0.0
C568 C 0.03005 0.91662 0.98621 0.0
C569 C 0.05234 0.9525 0.94888 0.0
C570 C 0.05568 0.8839 0.04963 0.0
C571 C 0.01175 0.85422 0.04842 0.0
N572 N 0.05085 0.93212 0.98903 0.0
N573 N 0.01056 0.87739 0.02208 0.0
H574 H 0.64431 0.00465 0.16812 0.0
H575 H 0.54887 0.96492 0.86717 0.0
H576 H 0.65882 0.94343 0.03145 0.0
H577 H 0.53831 0.0311 0.98692 0.0
H578 H 0.58153 0.95018 0.94951 0.0
H579 H 0.59958 0.00851 0.12263 0.0
C580 C 0.63804 0.99194 0.12871 0.0
C581 C 0.65553 0.97407 0.10232 0.0
C582 C 0.57156 0.96762 0.95899 0.0
C583 C 0.60424 0.9782 0.05064 0.0
C584 C 0.55243 0.97585 0.91258 0.0
C585 C 0.54074 -0.00072 0.92023 0.0
C586 C 0.57937 0.98311 0.01273 0.0
C587 C 0.547 0.01301 0.97887 0.0
C588 C 0.61242 0.99402 0.10321 0.0
C589 C 0.64607 0.95759 0.05294 0.0
N590 N 0.56629 0.00494 0.02218 0.0
N591 N 0.62119 0.96029 0.02796 0.0
H592 H 0.48774 0.63918 0.16477 0.0
H593 H 0.53099 0.55724 0.84462 0.0
H594 H 0.52333 0.66753 0.98026 0.0
H595 H 0.47426 0.53509 0.99635 0.0
H596 H 0.54149 0.59296 0.91503 0.0
H597 H 0.49473 0.59738 0.12188 0.0
C598 C 0.49706 0.63664 0.11524 0.0
C599 C 0.50428 0.65696 0.07514 0.0
C600 C 0.52732 0.57988 0.93388 0.0
C601 C 0.51294 0.60907 0.02674 0.0
C602 C 0.52162 0.55924 0.89428 0.0
C603 C 0.50159 0.54328 0.91461 0.0
C604 C 0.51285 0.58451 0.99397 0.0
C605 C 0.48967 0.54711 0.97868 0.0
C606 C 0.50129 0.61275 0.09122 0.0
C607 C 0.51724 0.65246 0.01266 0.0
N608 N 0.49514 0.5676 0.0156 0.0
N609 N 0.52085 0.62899 0.98995 0.0
H610 H 0.88035 0.50551 0.16819 0.0
H611 H 0.96867 0.54252 0.84969 0.0
H612 H 0.85659 0.55517 0.00535 0.0
H613 H 0.98376 0.47861 0.97619 0.0
H614 H 0.93605 0.55695 0.93225 0.0
H615 H 0.92494 0.50439 0.12105 0.0
C616 C 0.88449 0.5163 0.12279 0.0
C617 C 0.86444 0.52996 0.08969 0.0
C618 C 0.94706 0.54015 0.94311 0.0
C619 C 0.91562 0.52921 0.03671 0.0
C620 C 0.96615 0.53212 0.89659 0.0
C621 C 0.97904 0.50933 0.90615 0.0
C622 C 0.94057 0.52511 0.999 0.0
C623 C 0.9741 0.49621 0.96673 0.0
C624 C 0.91002 0.51583 0.09641 0.0
C625 C 0.87128 0.54429 0.03256 0.0
N626 N 0.95485 0.50404 0.0103 0.0
N627 N 0.8962 0.54328 0.0074 0.0
H628 H 0.09334 0.18028 0.94374 0.0
H629 H 0.97924 0.08315 0.88397 0.0
H630 H 0.02555 0.17446 0.07622 0.0
H631 H 0.05709 0.07241 0.79979 0.0
H632 H 0.9948 0.1188 0.94744 0.0
H633 H 0.07925 0.14335 0.88276 0.0
C634 C 0.07552 0.17136 0.96028 0.0
C635 C 0.06071 0.1808 0.01578 0.0
C636 C 0.00858 0.10861 0.91551 0.0
C637 C 0.04427 0.13844 0.94483 0.0
C638 C 0.99971 0.0882 0.87914 0.0
C639 C 0.01688 0.07468 0.83642 0.0
C640 C 0.0348 0.11602 0.90857 0.0
C641 C 0.04322 0.08215 0.8325 0.0
C642 C 0.0675 0.15022 0.92517 0.0
C643 C 0.03749 0.16843 0.03326 0.0
N644 N 0.05132 0.10248 0.86754 0.0
N645 N 0.03004 0.14805 0.99798 0.0
H646 H 0.30033 0.03532 0.98896 0.0
H647 H 0.44296 0.04897 0.81935 0.0
H648 H 0.34442 0.10258 0.99233 0.0
H649 H 0.39438 0.98519 0.79087 0.0
H650 H 0.40721 0.0687 0.88384 0.0
H651 H 0.33453 0.01648 0.91667 0.0
C652 C 0.31711 0.04617 0.97415 0.0
C653 C 0.31944 0.0706 0.99671 0.0
C654 C 0.40435 0.05041 0.86332 0.0
C655 C 0.35879 0.04911 0.9143 0.0
C656 C 0.42482 0.03907 0.82666 0.0
C657 C 0.4218 0.0153 0.79968 0.0
C658 C 0.38066 0.03789 0.87366 0.0
C659 C 0.39769 0.00351 0.8106 0.0
C660 C 0.33661 0.03543 0.93276 0.0
C661 C 0.34157 0.08383 0.97547 0.0
N662 N 0.37814 0.01487 0.84692 0.0
N663 N 0.36042 0.07288 0.93595 0.0
H664 H 0.48164 0.29971 0.93151 0.0
H665 H 0.48189 0.44625 0.89702 0.0
H666 H 0.47111 0.34749 0.10638 0.0
H667 H 0.52332 0.39835 0.75571 0.0
H668 H 0.47266 0.41035 0.96957 0.0
H669 H 0.49217 0.33575 0.86101 0.0
C670 C 0.48169 0.31777 0.95509 0.0
C671 C 0.47573 0.32057 0.02503 0.0
C672 C 0.48383 0.40778 0.92272 0.0
C673 C 0.48721 0.36194 0.94447 0.0
C674 C 0.48901 0.42824 0.88116 0.0
C675 C 0.50352 0.4254 0.82023 0.0
C676 C 0.49274 0.38423 0.90255 0.0
C677 C 0.51225 0.40153 0.80242 0.0
C678 C 0.48772 0.33831 0.91493 0.0
C679 C 0.47598 0.34445 0.05291 0.0
N680 N 0.50659 0.38192 0.84301 0.0
N681 N 0.48138 0.36421 0.01249 0.0
H682 H 0.21538 0.48375 0.99028 0.0
H683 H 0.07841 0.46005 0.79965 0.0
H684 H 0.18053 0.41207 0.97326 0.0
H685 H 0.12217 0.52704 0.77567 0.0
H686 H 0.11482 0.44268 0.8674 0.0
H687 H 0.18073 0.50053 0.91501 0.0
C688 C 0.20056 0.47152 0.97028 0.0
C689 C 0.20095 0.44645 0.98781 0.0
C690 C 0.11648 0.46115 0.84707 0.0
C691 C 0.16108 0.46554 0.90236 0.0
C692 C 0.09564 0.47113 0.80858 0.0
C693 C 0.09714 0.49509 0.78189 0.0
C694 C 0.13894 0.47529 0.8597 0.0
C695 C 0.1201 0.50848 0.79498 0.0
C696 C 0.18082 0.48108 0.92726 0.0
C697 C 0.18127 0.43143 0.9603 0.0
N698 N 0.13999 0.49846 0.83322 0.0
N699 N 0.16205 0.44123 0.91946 0.0
H700 H 0.9954 0.80281 0.52376 0.0
H701 H 0.99418 0.95052 0.53473 0.0
H702 H 0.98855 0.84679 0.33949 0.0
H703 H 0.03363 0.90411 0.68368 0.0
H704 H 0.98156 0.91327 0.47052 0.0
H705 H 0.99857 0.84057 0.59107 0.0
C706 C 0.99435 0.82033 0.49724 0.0
C707 C 0.99213 0.82135 0.42527 0.0
C708 C 0.99277 0.91135 0.51765 0.0
C709 C 0.9953 0.86493 0.50294 0.0
C710 C 0.99984 0.93254 0.55437 0.0
C711 C 0.01518 0.9304 0.61425 0.0
C712 C 1.00055 0.88793 0.54206 0.0
C713 C 0.02208 0.90664 0.63733 0.0
C714 C 0.99608 0.84192 0.53592 0.0
C715 C 0.9901 0.84486 0.39466 0.0
N716 N 0.01471 0.88644 0.60141 0.0
N717 N 0.99193 0.86566 0.43351 0.0
H718 H 0.7215 0.97777 0.54915 0.0
H719 H 0.5641 0.97156 0.57384 0.0
H720 H 0.67365 0.94269 0.39553 0.0
H721 H 0.61365 0.01243 0.71196 0.0
H722 H 0.60388 0.9554 0.51657 0.0
H723 H 0.68221 0.98458 0.61915 0.0
C724 C 0.70276 0.97117 0.53064 0.0
C725 C 0.70086 0.95983 0.46615 0.0
C726 C 0.60596 0.96777 0.55977 0.0
C727 C 0.65556 0.96787 0.54565 0.0
C728 C 0.58327 0.97698 0.59249 0.0
C729 C 0.58546 0.99367 0.64724 0.0
C730 C 0.63096 0.97516 0.58239 0.0
C731 C 0.61086 -5e-05 0.66932 0.0
C732 C 0.68028 0.97511 0.57052 0.0
C733 C 0.67607 0.9514 0.4451 0.0
N734 N 0.63248 0.99081 0.63674 0.0
N735 N 0.65432 0.95588 0.48428 0.0
H736 H 0.52111 0.65878 0.35957 0.0
H737 H 0.4621 0.59994 0.70042 0.0
H738 H 0.49116 0.70144 0.53019 0.0
H739 H 0.50934 0.55706 0.55886 0.0
H740 H 0.47184 0.63686 0.63542 0.0
H741 H 0.51734 0.62139 0.42904 0.0
C742 C 0.5142 0.66045 0.41197 0.0
C743 C 0.50629 0.68351 0.43861 0.0
C744 C 0.4802 0.61944 0.61843 0.0
C745 C 0.50131 0.64043 0.51796 0.0
C746 C 0.4745 0.59819 0.65542 0.0
C747 C 0.48473 0.57512 0.63504 0.0
C748 C 0.49608 0.61791 0.55965 0.0
C749 C 0.50095 0.57436 0.57653 0.0
C750 C 0.51186 0.63897 0.45142 0.0
C751 C 0.49704 0.68418 0.50662 0.0
N752 N 0.50595 0.59539 0.54057 0.0
N753 N 0.4946 0.66304 0.54345 0.0
H754 H 0.844 0.55871 0.36993 0.0
H755 H 0.90446 0.49381 0.70326 0.0
H756 H 0.7975 0.52546 0.52931 0.0
H757 H 0.95224 0.53212 0.55582 0.0
H758 H 0.86506 0.50859 0.64437 0.0
H759 H 0.8833 0.55322 0.44155 0.0
C760 C 0.84189 0.5508 0.42066 0.0
C761 C 0.81733 0.54238 0.44334 0.0
C762 C 0.8841 0.51395 0.62491 0.0
C763 C 0.8625 0.53551 0.52501 0.0
C764 C 0.90671 0.50541 0.65845 0.0
C765 C 0.93183 0.51143 0.63401 0.0
C766 C 0.88636 0.52851 0.5657 0.0
C767 C 0.93333 0.5269 0.57631 0.0
C768 C 0.86444 0.54746 0.46128 0.0
C769 C 0.81602 0.53189 0.50916 0.0
N770 N 0.9109 0.53467 0.54361 0.0
N771 N 0.83827 0.52854 0.54721 0.0
loop_
_geom_bond_atom_site_label_1
_geom_bond_atom_site_label_2
_geom_bond_distance
_geom_bond_site_symmetry_2
_ccdc_geom_bond_type
P0 O11 1.490 . S
P0 C14 1.812 . S
P0 C20 1.803 . S
P0 C26 1.819 . S
H1 C15 0.941 . S
H2 C16 0.939 . S
H3 C18 0.940 . S
H4 C19 0.940 . S
H5 C21 0.939 . S
H6 C22 0.942 1_556 S
H7 C24 0.940 . S
H8 C25 0.939 . S
H9 C27 0.941 . S
H10 C31 0.939 . S
O11 P0 1.490 . S
H12 C28 0.939 . S
H13 C30 0.940 . S
C14 P0 1.812 . S
C14 C15 1.389 . S
C14 C19 1.391 . S
C15 H1 0.941 . S
C15 C14 1.389 . S
C15 C16 1.397 . S
C16 H2 0.939 . S
C16 C15 1.397 . S
C16 C17 1.378 . S
C17 C16 1.378 . S
C17 C18 1.378 . S
C18 H3 0.940 . S
C18 C17 1.378 . S
C18 C19 1.396 . S
C19 H4 0.940 . S
C19 C14 1.391 . S
C19 C18 1.396 . S
C20 P0 1.803 . S
C20 C21 1.378 . S
C20 C25 1.400 . S
C21 H5 0.939 . S
C21 C20 1.378 . S
C21 C22 1.361 . S
C22 H6 0.942 1_554 S
C22 C21 1.361 . S
C22 C23 1.369 . S
C23 C22 1.369 . S
C23 C24 1.404 . S
C24 H7 0.940 . S
C24 C23 1.404 . S
C24 C25 1.389 . S
C25 H8 0.939 . S
C25 C20 1.400 . S
C25 C24 1.389 . S
C26 P0 1.819 . S
C26 C27 1.391 . S
C26 C31 1.391 1_554 S
C27 H9 0.941 . S
C27 C26 1.391 . S
C27 C28 1.396 1_554 S
C28 H12 0.939 . S
C28 C27 1.396 1_556 S
C28 C29 1.397 . S
C29 C28 1.397 . S
C29 C30 1.385 . S
C30 H13 0.940 . S
C30 C29 1.385 . S
C30 C31 1.388 . S
C31 H10 0.939 . S
C31 C26 1.391 1_556 S
C31 C30 1.388 . S
P32 O43 1.490 . S
P32 C46 1.812 . S
P32 C52 1.803 . S
P32 C58 1.819 . S
H33 C47 0.941 . S
H34 C48 0.939 . S
H35 C50 0.940 . S
H36 C51 0.950 . S
H37 C53 0.939 . S
H38 C54 0.942 . S
H39 C56 0.940 . S
H40 C57 0.958 . S
H41 C59 0.941 . S
H42 C63 0.928 1_655 S
O43 P32 1.490 . S
H44 C60 0.939 . S
H45 C62 0.940 . S
C46 P32 1.812 . S
C46 C47 1.389 . S
C46 C51 1.375 1_455 S
C47 H33 0.941 . S
C47 C46 1.389 . S
C47 C48 1.397 . S
C48 H34 0.939 . S
C48 C47 1.397 . S
C48 C49 1.378 . S
C49 C48 1.378 . S
C49 C50 1.378 1_455 S
C50 H35 0.940 . S
C50 C49 1.378 1_655 S
C50 C51 1.402 . S
C51 H36 0.950 . S
C51 C46 1.375 1_655 S
C51 C50 1.402 . S
C52 P32 1.803 . S
C52 C53 1.378 . S
C52 C57 1.368 1_455 S
C53 H37 0.939 . S
C53 C52 1.378 . S
C53 C54 1.361 . S
C54 H38 0.942 . S
C54 C53 1.361 . S
C54 C55 1.369 . S
C55 C54 1.369 . S
C55 C56 1.404 1_455 S
C56 H39 0.940 . S
C56 C55 1.404 1_655 S
C56 C57 1.403 . S
C57 H40 0.958 . S
C57 C52 1.368 1_655 S
C57 C56 1.403 . S
C58 P32 1.819 . S
C58 C59 1.391 . S
C58 C63 1.391 . S
C59 H41 0.941 . S
C59 C58 1.391 . S
C59 C60 1.396 . S
C60 H44 0.939 . S
C60 C59 1.396 . S
C60 C61 1.397 1_554 S
C61 C60 1.397 1_556 S
C61 C62 1.385 1_455 S
C62 H45 0.940 . S
C62 C61 1.385 1_655 S
C62 C63 1.388 1_656 S
C63 H42 0.928 1_455 S
C63 C58 1.391 . S
C63 C62 1.388 1_454 S
P64 O75 1.490 . S
P64 C78 1.812 . S
P64 C84 1.803 . S
P64 C90 1.819 . S
H65 C79 0.941 . S
H66 C80 0.939 . S
H67 C82 0.940 . S
H68 C83 0.940 . S
H69 C85 0.939 . S
H70 C86 0.942 . S
H71 C88 0.940 . S
H72 C89 0.939 . S
H73 C91 0.941 . S
H74 C95 0.939 . S
O75 P64 1.490 . S
H76 C92 0.939 . S
H77 C94 0.940 . S
C78 P64 1.812 . S
C78 C79 1.389 . S
C78 C83 1.391 . S
C79 H65 0.941 . S
C79 C78 1.389 . S
C79 C80 1.397 . S
C80 H66 0.939 . S
C80 C79 1.397 . S
C80 C81 1.378 . S
C81 C80 1.378 . S
C81 C82 1.378 . S
C82 H67 0.940 . S
C82 C81 1.378 . S
C82 C83 1.396 . S
C83 H68 0.940 . S
C83 C78 1.391 . S
C83 C82 1.396 . S
C84 P64 1.803 . S
C84 C85 1.378 . S
C84 C89 1.400 . S
C85 H69 0.939 . S
C85 C84 1.378 . S
C85 C86 1.361 . S
C86 H70 0.942 . S
C86 C85 1.361 . S
C86 C87 1.369 . S
C87 C86 1.369 . S
C87 C88 1.404 . S
C88 H71 0.940 . S
C88 C87 1.404 . S
C88 C89 1.389 . S
C89 H72 0.939 . S
C89 C84 1.400 . S
C89 C88 1.389 . S
C90 P64 1.819 . S
C90 C91 1.391 . S
C90 C95 1.391 1_554 S
C91 H73 0.941 . S
C91 C90 1.391 . S
C91 C92 1.396 1_554 S
C92 H76 0.939 . S
C92 C91 1.396 1_556 S
C92 C93 1.397 . S
C93 C92 1.397 . S
C93 C94 1.385 . S
C94 H77 0.940 . S
C94 C93 1.385 . S
C94 C95 1.388 . S
C95 H74 0.939 . S
C95 C90 1.391 1_556 S
C95 C94 1.388 . S
P96 O107 1.490 . S
P96 C110 1.812 . S
P96 C116 1.803 . S
P96 C122 1.819 . S
H97 C111 0.941 . S
H98 C112 0.939 . S
H99 C114 0.940 . S
H100 C115 0.940 . S
H101 C117 0.939 . S
H102 C118 0.942 . S
H103 C120 0.940 . S
H104 C121 0.939 . S
H105 C123 0.941 . S
H106 C127 0.939 . S
O107 P96 1.490 . S
H108 C124 0.939 . S
H109 C126 0.940 . S
C110 P96 1.812 . S
C110 C111 1.389 . S
C110 C115 1.391 . S
C111 H97 0.941 . S
C111 C110 1.389 . S
C111 C112 1.397 . S
C112 H98 0.939 . S
C112 C111 1.397 . S
C112 C113 1.378 . S
C113 C112 1.378 . S
C113 C114 1.378 . S
C114 H99 0.940 . S
C114 C113 1.378 . S
C114 C115 1.396 . S
C115 H100 0.940 . S
C115 C110 1.391 . S
C115 C114 1.396 . S
C116 P96 1.803 . S
C116 C117 1.378 . S
C116 C121 1.400 . S
C117 H101 0.939 . S
C117 C116 1.378 . S
C117 C118 1.361 . S
C118 H102 0.942 . S
C118 C117 1.361 . S
C118 C119 1.369 . S
C119 C118 1.369 . S
C119 C120 1.404 . S
C120 H103 0.940 . S
C120 C119 1.404 . S
C120 C121 1.389 . S
C121 H104 0.939 . S
C121 C116 1.400 . S
C121 C120 1.389 . S
C122 P96 1.819 . S
C122 C123 1.391 . S
C122 C127 1.391 . S
C123 H105 0.941 . S
C123 C122 1.391 . S
C123 C124 1.396 . S
C124 H108 0.939 . S
C124 C123 1.396 . S
C124 C125 1.397 1_554 S
C125 C124 1.397 1_556 S
C125 C126 1.385 . S
C126 H109 0.940 . S
C126 C125 1.385 . S
C126 C127 1.388 1_556 S
C127 H106 0.939 . S
C127 C122 1.391 . S
C127 C126 1.388 1_554 S
P128 O139 1.490 . S
P128 C142 1.812 . S
P128 C148 1.803 . S
P128 C154 1.819 . S
H129 C143 0.941 . S
H130 C144 0.939 . S
H131 C146 0.940 . S
H132 C147 0.940 . S
H133 C149 0.939 . S
H134 C150 0.942 . S
H135 C152 0.940 . S
H136 C153 0.939 . S
H137 C155 0.941 . S
H138 C159 0.939 . S
O139 P128 1.490 . S
H140 C156 0.939 . S
H141 C158 0.940 . S
C142 P128 1.812 . S
C142 C143 1.389 . S
C142 C147 1.391 . S
C143 H129 0.941 . S
C143 C142 1.389 . S
C143 C144 1.397 . S
C144 H130 0.939 . S
C144 C143 1.397 . S
C144 C145 1.378 . S
C145 C144 1.378 . S
C145 C146 1.378 . S
C146 H131 0.940 . S
C146 C145 1.378 . S
C146 C147 1.396 . S
C147 H132 0.940 . S
C147 C142 1.391 . S
C147 C146 1.396 . S
C148 P128 1.803 . S
C148 C149 1.378 . S
C148 C153 1.400 . S
C149 H133 0.939 . S
C149 C148 1.378 . S
C149 C150 1.361 . S
C150 H134 0.942 . S
C150 C149 1.361 . S
C150 C151 1.369 . S
C151 C150 1.369 . S
C151 C152 1.404 . S
C152 H135 0.940 . S
C152 C151 1.404 . S
C152 C153 1.389 . S
C153 H136 0.939 . S
C153 C148 1.400 . S
C153 C152 1.389 . S
C154 P128 1.819 . S
C154 C155 1.391 . S
C154 C159 1.391 . S
C155 H137 0.941 . S
C155 C154 1.391 . S
C155 C156 1.396 . S
C156 H140 0.939 . S
C156 C155 1.396 . S
C156 C157 1.397 . S
C157 C156 1.397 . S
C157 C158 1.385 . S
C158 H141 0.940 . S
C158 C157 1.385 . S
C158 C159 1.388 . S
C159 H138 0.939 . S
C159 C154 1.391 . S
C159 C158 1.388 . S
P160 O171 1.490 . S
P160 C174 1.812 . S
P160 C180 1.803 . S
P160 C186 1.819 . S
H161 C175 0.941 . S
H162 C176 0.939 . S
H163 C178 0.940 . S
H164 C179 0.944 . S
H165 C181 0.939 . S
H166 C182 0.942 . S
H167 C184 0.940 . S
H168 C185 0.953 . S
H169 C187 0.941 . S
H170 C191 0.933 1_655 S
O171 P160 1.490 . S
H172 C188 0.939 . S
H173 C190 0.940 . S
C174 P160 1.812 . S
C174 C175 1.389 . S
C174 C179 1.384 1_455 S
C175 H161 0.941 . S
C175 C174 1.389 . S
C175 C176 1.397 . S
C176 H162 0.939 . S
C176 C175 1.397 . S
C176 C177 1.378 . S
C177 C176 1.378 . S
C177 C178 1.378 1_455 S
C178 H163 0.940 . S
C178 C177 1.378 1_655 S
C178 C179 1.399 . S
C179 H164 0.944 . S
C179 C174 1.384 1_655 S
C179 C178 1.399 . S
C180 P160 1.803 . S
C180 C181 1.378 . S
C180 C185 1.378 1_455 S
C181 H165 0.939 . S
C181 C180 1.378 . S
C181 C182 1.361 . S
C182 H166 0.942 . S
C182 C181 1.361 . S
C182 C183 1.369 . S
C183 C182 1.369 . S
C183 C184 1.404 1_455 S
C184 H167 0.940 . S
C184 C183 1.404 1_655 S
C184 C185 1.397 . S
C185 H168 0.953 . S
C185 C180 1.378 1_655 S
C185 C184 1.397 . S
C186 P160 1.819 . S
C186 C187 1.391 . S
C186 C191 1.391 . S
C187 H169 0.941 . S
C187 C186 1.391 . S
C187 C188 1.396 . S
C188 H172 0.939 . S
C188 C187 1.396 . S
C188 C189 1.397 . S
C189 C188 1.397 . S
C189 C190 1.385 1_455 S
C190 H173 0.940 . S
C190 C189 1.385 1_655 S
C190 C191 1.388 1_655 S
C191 H170 0.933 1_455 S
C191 C186 1.391 . S
C191 C190 1.388 1_455 S
P192 O203 1.490 . S
P192 C206 1.812 . S
P192 C212 1.803 . S
P192 C218 1.819 . S
H193 C207 0.941 . S
H194 C208 0.939 . S
H195 C210 0.940 . S
H196 C211 0.940 . S
H197 C213 0.939 . S
H198 C214 0.942 . S
H199 C216 0.940 . S
H200 C217 0.939 . S
H201 C219 0.941 . S
H202 C223 0.939 . S
O203 P192 1.490 . S
H204 C220 0.939 . S
H205 C222 0.940 . S
C206 P192 1.812 . S
C206 C207 1.389 . S
C206 C211 1.391 . S
C207 H193 0.941 . S
C207 C206 1.389 . S
C207 C208 1.397 . S
C208 H194 0.939 . S
C208 C207 1.397 . S
C208 C209 1.378 . S
C209 C208 1.378 . S
C209 C210 1.378 . S
C210 H195 0.940 . S
C210 C209 1.378 . S
C210 C211 1.396 . S
C211 H196 0.940 . S
C211 C206 1.391 . S
C211 C210 1.396 . S
C212 P192 1.803 . S
C212 C213 1.378 . S
C212 C217 1.400 . S
C213 H197 0.939 . S
C213 C212 1.378 . S
C213 C214 1.361 . S
C214 H198 0.942 . S
C214 C213 1.361 . S
C214 C215 1.369 . S
C215 C214 1.369 . S
C215 C216 1.404 . S
C216 H199 0.940 . S
C216 C215 1.404 . S
C216 C217 1.389 . S
C217 H200 0.939 . S
C217 C212 1.400 . S
C217 C216 1.389 . S
C218 P192 1.819 . S
C218 C219 1.391 . S
C218 C223 1.391 . S
C219 H201 0.941 . S
C219 C218 1.391 . S
C219 C220 1.396 . S
C220 H204 0.939 . S
C220 C219 1.396 . S
C220 C221 1.397 . S
C221 C220 1.397 . S
C221 C222 1.385 . S
C222 H205 0.940 . S
C222 C221 1.385 . S
C222 C223 1.388 . S
C223 H202 0.939 . S
C223 C218 1.391 . S
C223 C222 1.388 . S
P224 O235 1.490 . S
P224 C238 1.812 . S
P224 C244 1.803 . S
P224 C250 1.819 . S
H225 C239 0.941 . S
H226 C240 0.939 . S
H227 C242 0.940 . S
H228 C243 0.940 . S
H229 C245 0.939 . S
H230 C246 0.942 . S
H231 C248 0.940 . S
H232 C249 0.939 . S
H233 C251 0.941 . S
H234 C255 0.939 . S
O235 P224 1.490 . S
H236 C252 0.939 . S
H237 C254 0.940 . S
C238 P224 1.812 . S
C238 C239 1.389 . S
C238 C243 1.391 . S
C239 H225 0.941 . S
C239 C238 1.389 . S
C239 C240 1.397 . S
C240 H226 0.939 . S
C240 C239 1.397 . S
C240 C241 1.378 . S
C241 C240 1.378 . S
C241 C242 1.378 . S
C242 H227 0.940 . S
C242 C241 1.378 . S
C242 C243 1.396 . S
C243 H228 0.940 . S
C243 C238 1.391 . S
C243 C242 1.396 . S
C244 P224 1.803 . S
C244 C245 1.378 . S
C244 C249 1.400 . S
C245 H229 0.939 . S
C245 C244 1.378 . S
C245 C246 1.361 . S
C246 H230 0.942 . S
C246 C245 1.361 . S
C246 C247 1.369 . S
C247 C246 1.369 . S
C247 C248 1.404 . S
C248 H231 0.940 . S
C248 C247 1.404 . S
C248 C249 1.389 . S
C249 H232 0.939 . S
C249 C244 1.400 . S
C249 C248 1.389 . S
C250 P224 1.819 . S
C250 C251 1.391 . S
C250 C255 1.391 . S
C251 H233 0.941 . S
C251 C250 1.391 . S
C251 C252 1.396 . S
C252 H236 0.939 . S
C252 C251 1.396 . S
C252 C253 1.397 . S
C253 C252 1.397 . S
C253 C254 1.385 . S
C254 H237 0.940 . S
C254 C253 1.385 . S
C254 C255 1.388 . S
C255 H234 0.939 . S
C255 C250 1.391 . S
C255 C254 1.388 . S
O256 Mn257 2.163 1_455 S
O256 C270 1.244 . S
Mn257 O256 2.163 1_655 S
Mn257 O260 2.160 1_545 S
Mn257 O261 2.221 1_655 S
Mn257 O263 2.163 1_645 S
Mn257 O265 2.160 . S
Mn257 O275 2.221 . S
O258 Mn259 2.087 . S
O258 C270 1.256 1_655 S
Mn259 O258 2.087 . S
Mn259 O266 2.089 . S
Mn259 O275 2.290 . S
Mn259 O276 2.251 . S
O260 Mn257 2.160 1_565 S
O260 C271 1.239 . S
O261 Mn257 2.221 1_455 S
O261 Mn262 2.290 1_545 S
O261 C272 1.278 . S
Mn262 O261 2.290 1_565 S
Mn262 O264 2.089 . S
Mn262 O267 2.251 . S
Mn262 O268 2.087 . S
O263 Mn257 2.163 1_465 S
O263 C273 1.244 . S
O264 Mn262 2.089 . S
O264 C271 1.256 1_455 S
O265 Mn257 2.160 . S
O265 C274 1.239 . S
O266 Mn259 2.089 . S
O266 C274 1.256 . S
O267 Mn262 2.251 . S
O267 C272 1.241 1_565 S
O268 Mn262 2.087 . S
O268 C273 1.256 . S
C269 O275 1.278 . S
C269 O276 1.241 . S
C270 O256 1.244 . S
C270 O258 1.256 1_455 S
C271 O260 1.239 . S
C271 O264 1.256 1_655 S
C272 O261 1.278 . S
C272 O267 1.241 1_545 S
C273 O263 1.244 . S
C273 O268 1.256 . S
C274 O265 1.239 . S
C274 O266 1.256 . S
O275 Mn257 2.221 . S
O275 Mn259 2.290 . S
O275 C269 1.278 . S
O276 Mn259 2.251 . S
O276 C269 1.241 . S
O277 Mn278 2.163 1_565 S
O277 C291 1.244 1_565 S
Mn278 O277 2.163 1_545 S
Mn278 O281 2.160 . S
Mn278 O282 2.221 1_545 S
Mn278 O284 2.163 . S
Mn278 O286 2.160 1_545 S
Mn278 O296 2.221 . S
O279 Mn280 2.087 . S
O279 C291 1.256 . S
Mn280 O279 2.087 . S
Mn280 O287 2.130 . S
Mn280 O296 2.290 . S
Mn280 O297 2.251 . S
O281 Mn278 2.160 . S
O281 C292 1.239 . S
O282 Mn278 2.221 1_565 S
O282 Mn283 2.290 . S
O282 C293 1.278 . S
Mn283 O282 2.290 . S
Mn283 O285 2.089 1_565 S
Mn283 O288 2.251 . S
Mn283 O289 2.087 1_565 S
O284 Mn278 2.163 . S
O284 C294 1.244 . S
O285 Mn283 2.089 1_545 S
O285 C292 1.256 . S
O286 Mn278 2.160 1_565 S
O286 C295 1.239 . S
O287 Mn280 2.130 . S
O287 C295 1.227 1_545 S
O288 Mn283 2.251 . S
O288 C293 1.241 . S
O289 Mn283 2.087 1_545 S
O289 C294 1.256 . S
C290 O296 1.278 . S
C290 O297 1.241 . S
C291 O277 1.244 1_545 S
C291 O279 1.256 . S
C292 O281 1.239 . S
C292 O285 1.256 . S
C293 O282 1.278 . S
C293 O288 1.241 . S
C294 O284 1.244 . S
C294 O289 1.256 . S
C295 O286 1.239 . S
C295 O287 1.227 1_565 S
O296 Mn278 2.221 . S
O296 Mn280 2.290 . S
O296 C290 1.278 . S
O297 Mn280 2.251 . S
O297 C290 1.241 . S
O298 Mn299 2.163 . S
O298 C312 1.244 . S
Mn299 O298 2.163 . S
Mn299 O302 2.160 . S
Mn299 O303 2.221 . S
Mn299 O305 2.163 . S
Mn299 O307 2.160 . S
Mn299 O317 2.221 . S
O300 Mn301 2.087 . S
O300 C312 1.256 . S
Mn301 O300 2.087 . S
Mn301 O308 2.089 . S
Mn301 O317 2.290 . S
Mn301 O318 2.251 . S
O302 Mn299 2.160 . S
O302 C313 1.239 . S
O303 Mn299 2.221 . S
O303 Mn304 2.290 . S
O303 C314 1.278 . S
Mn304 O303 2.290 . S
Mn304 O306 2.089 . S
Mn304 O309 2.251 . S
Mn304 O310 2.087 . S
O305 Mn299 2.163 . S
O305 C315 1.244 . S
O306 Mn304 2.089 . S
O306 C313 1.256 . S
O307 Mn299 2.160 . S
O307 C316 1.239 . S
O308 Mn301 2.089 . S
O308 C316 1.256 . S
O309 Mn304 2.251 . S
O309 C314 1.241 . S
O310 Mn304 2.087 . S
O310 C315 1.256 . S
C311 O317 1.278 . S
C311 O318 1.241 . S
C312 O298 1.244 . S
C312 O300 1.256 . S
C313 O302 1.239 . S
C313 O306 1.256 . S
C314 O303 1.278 . S
C314 O309 1.241 . S
C315 O305 1.244 . S
C315 O310 1.256 . S
C316 O307 1.239 . S
C316 O308 1.256 . S
O317 Mn299 2.221 . S
O317 Mn301 2.290 . S
O317 C311 1.278 . S
O318 Mn301 2.251 . S
O318 C311 1.241 . S
O319 Mn320 2.184 . S
O319 C333 1.244 . S
Mn320 O319 2.184 . S
Mn320 O323 2.139 1_455 S
Mn320 O324 2.204 1_455 S
Mn320 O326 2.131 1_455 S
Mn320 O328 2.193 . S
Mn320 O338 2.240 . S
O321 Mn322 2.087 . S
O321 C333 1.256 . S
Mn322 O321 2.087 . S
Mn322 O329 2.089 . S
Mn322 O338 2.290 . S
Mn322 O339 2.251 . S
O323 Mn320 2.139 1_655 S
O323 C334 1.239 . S
O324 Mn320 2.204 1_655 S
O324 Mn325 2.290 . S
O324 C335 1.278 . S
Mn325 O324 2.290 . S
Mn325 O327 2.089 . S
Mn325 O330 2.251 . S
Mn325 O331 2.087 . S
O326 Mn320 2.131 1_655 S
O326 C336 1.244 . S
O327 Mn325 2.089 . S
O327 C334 1.256 . S
O328 Mn320 2.193 . S
O328 C337 1.239 . S
O329 Mn322 2.089 . S
O329 C337 1.256 . S
O330 Mn325 2.251 . S
O330 C335 1.241 . S
O331 Mn325 2.087 . S
O331 C336 1.256 . S
C332 O338 1.278 . S
C332 O339 1.241 . S
C333 O319 1.244 . S
C333 O321 1.256 . S
C334 O323 1.239 . S
C334 O327 1.256 . S
C335 O324 1.278 . S
C335 O330 1.241 . S
C336 O326 1.244 . S
C336 O331 1.256 . S
C337 O328 1.239 . S
C337 O329 1.256 . S
O338 Mn320 2.240 . S
O338 Mn322 2.290 . S
O338 C332 1.278 . S
O339 Mn322 2.251 . S
O339 C332 1.241 . S
H340 C346 0.930 . S
H341 C350 0.930 . S
H342 C355 0.929 . S
H343 C353 0.929 . S
H344 C348 0.929 . S
H345 C354 0.929 . S
C346 H340 0.930 . S
C346 C347 1.367 . S
C346 C354 1.378 . S
C347 C346 1.367 . S
C347 C355 1.433 . S
C348 H344 0.929 . S
C348 C350 1.378 . S
C348 C352 1.350 . S
C349 C352 1.463 . S
C349 C354 1.350 . S
C349 N357 1.427 . S
C350 H341 0.930 . S
C350 C348 1.378 . S
C350 C351 1.367 . S
C351 C350 1.367 . S
C351 C353 1.433 . S
C352 C348 1.350 . S
C352 C349 1.463 . S
C352 N356 1.427 . S
C353 H343 0.929 . S
C353 C351 1.433 . S
C353 N356 1.384 . S
C354 H345 0.929 . S
C354 C346 1.378 . S
C354 C349 1.350 . S
C355 H342 0.929 . S
C355 C347 1.433 . S
C355 N357 1.384 . S
N356 C352 1.427 . S
N356 C353 1.384 . S
N357 C349 1.427 . S
N357 C355 1.384 . S
H358 C364 0.930 . S
H359 C368 0.930 . S
H360 C373 0.929 . S
H361 C371 0.929 . S
H362 C366 0.929 . S
H363 C372 0.929 . S
C364 H358 0.930 . S
C364 C365 1.367 . S
C364 C372 1.378 . S
C365 C364 1.367 . S
C365 C373 1.433 . S
C366 H362 0.929 . S
C366 C368 1.378 . S
C366 C370 1.350 . S
C367 C370 1.463 . S
C367 C372 1.350 . S
C367 N375 1.427 . S
C368 H359 0.930 . S
C368 C366 1.378 . S
C368 C369 1.367 . S
C369 C368 1.367 . S
C369 C371 1.433 . S
C370 C366 1.350 . S
C370 C367 1.463 . S
C370 N374 1.427 . S
C371 H361 0.929 . S
C371 C369 1.433 . S
C371 N374 1.384 . S
C372 H363 0.929 . S
C372 C364 1.378 . S
C372 C367 1.350 . S
C373 H360 0.929 . S
C373 C365 1.433 . S
C373 N375 1.384 . S
N374 C370 1.427 . S
N374 C371 1.384 . S
N375 C367 1.427 . S
N375 C373 1.384 . S
H376 C382 0.930 . S
H377 C386 0.930 . S
H378 C391 0.929 . S
H379 C389 0.929 . S
H380 C384 0.929 . S
H381 C390 0.929 . S
C382 H376 0.930 . S
C382 C383 1.367 . S
C382 C390 1.378 . S
C383 C382 1.367 . S
C383 C391 1.433 . S
C384 H380 0.929 . S
C384 C386 1.378 . S
C384 C388 1.350 . S
C385 C388 1.463 . S
C385 C390 1.350 . S
C385 N393 1.427 . S
C386 H377 0.930 . S
C386 C384 1.378 . S
C386 C387 1.367 . S
C387 C386 1.367 . S
C387 C389 1.433 . S
C388 C384 1.350 . S
C388 C385 1.463 . S
C388 N392 1.427 . S
C389 H379 0.929 . S
C389 C387 1.433 . S
C389 N392 1.384 . S
C390 H381 0.929 . S
C390 C382 1.378 . S
C390 C385 1.350 . S
C391 H378 0.929 . S
C391 C383 1.433 . S
C391 N393 1.384 . S
N392 C388 1.427 . S
N392 C389 1.384 . S
N393 C385 1.427 . S
N393 C391 1.384 . S
H394 C400 0.930 . S
H395 C404 0.930 . S
H396 C409 0.929 . S
H397 C407 0.929 . S
H398 C402 0.929 . S
H399 C408 0.929 . S
C400 H394 0.930 . S
C400 C401 1.367 . S
C400 C408 1.378 . S
C401 C400 1.367 . S
C401 C409 1.433 1_655 S
C402 H398 0.929 . S
C402 C404 1.378 . S
C402 C406 1.350 1_455 S
C403 C406 1.463 . S
C403 C408 1.350 . S
C403 N411 1.427 1_655 S
C404 H395 0.930 . S
C404 C402 1.378 . S
C404 C405 1.367 1_455 S
C405 C404 1.367 1_655 S
C405 C407 1.433 . S
C406 C402 1.350 1_655 S
C406 C403 1.463 . S
C406 N410 1.427 . S
C407 H397 0.929 . S
C407 C405 1.433 . S
C407 N410 1.384 . S
C408 H399 0.929 . S
C408 C400 1.378 . S
C408 C403 1.350 . S
C409 H396 0.929 . S
C409 C401 1.433 1_455 S
C409 N411 1.384 . S
N410 C406 1.427 . S
N410 C407 1.384 . S
N411 C403 1.427 1_455 S
N411 C409 1.384 . S
H412 C418 0.930 . S
H413 C422 0.930 . S
H414 C427 0.929 . S
H415 C425 0.929 1_545 S
H416 C420 0.929 . S
H417 C426 0.929 1_554 S
C418 H412 0.930 . S
C418 C419 1.367 . S
C418 C426 1.378 1_554 S
C419 C418 1.367 . S
C419 C427 1.433 1_554 S
C420 H416 0.929 . S
C420 C422 1.378 . S
C420 C424 1.350 . S
C421 C424 1.463 . S
C421 C426 1.350 . S
C421 N429 1.427 . S
C422 H413 0.930 . S
C422 C420 1.378 . S
C422 C423 1.367 . S
C423 C422 1.367 . S
C423 C425 1.433 . S
C424 C420 1.350 . S
C424 C421 1.463 . S
C424 N428 1.427 . S
C425 H415 0.929 1_565 S
C425 C423 1.433 . S
C425 N428 1.384 . S
C426 H417 0.929 1_556 S
C426 C418 1.378 1_556 S
C426 C421 1.350 . S
C427 H414 0.929 . S
C427 C419 1.433 1_556 S
C427 N429 1.384 . S
N428 C424 1.427 . S
N428 C425 1.384 . S
N429 C421 1.427 . S
N429 C427 1.384 . S
H430 C436 0.930 . S
H431 C440 0.930 . S
H432 C445 0.929 . S
H433 C443 0.929 . S
H434 C438 0.929 . S
H435 C444 0.929 . S
C436 H430 0.930 . S
C436 C437 1.367 . S
C436 C444 1.378 . S
C437 C436 1.367 . S
C437 C445 1.433 1_554 S
C438 H434 0.929 . S
C438 C440 1.378 . S
C438 C442 1.350 . S
C439 C442 1.463 . S
C439 C444 1.350 1_556 S
C439 N447 1.427 . S
C440 H431 0.930 . S
C440 C438 1.378 . S
C440 C441 1.367 . S
C441 C440 1.367 . S
C441 C443 1.433 . S
C442 C438 1.350 . S
C442 C439 1.463 . S
C442 N446 1.427 . S
C443 H433 0.929 . S
C443 C441 1.433 . S
C443 N446 1.384 . S
C444 H435 0.929 . S
C444 C436 1.378 . S
C444 C439 1.350 1_554 S
C445 H432 0.929 . S
C445 C437 1.433 1_556 S
C445 N447 1.384 . S
N446 C442 1.427 . S
N446 C443 1.384 . S
N447 C439 1.427 . S
N447 C445 1.384 . S
H448 C454 0.930 . S
H449 C458 0.930 . S
H450 C463 0.929 . S
H451 C461 0.929 . S
H452 C456 0.929 . S
H453 C462 0.929 . S
C454 H448 0.930 . S
C454 C455 1.367 . S
C454 C462 1.378 1_554 S
C455 C454 1.367 . S
C455 C463 1.433 1_554 S
C456 H452 0.929 . S
C456 C458 1.378 . S
C456 C460 1.350 . S
C457 C460 1.463 . S
C457 C462 1.350 . S
C457 N465 1.427 . S
C458 H449 0.930 . S
C458 C456 1.378 . S
C458 C459 1.367 . S
C459 C458 1.367 . S
C459 C461 1.433 . S
C460 C456 1.350 . S
C460 C457 1.463 . S
C460 N464 1.427 . S
C461 H451 0.929 . S
C461 C459 1.433 . S
C461 N464 1.384 . S
C462 H453 0.929 . S
C462 C454 1.378 1_556 S
C462 C457 1.350 . S
C463 H450 0.929 . S
C463 C455 1.433 1_556 S
C463 N465 1.384 . S
N464 C460 1.427 . S
N464 C461 1.384 . S
N465 C457 1.427 . S
N465 C463 1.384 . S
H466 C472 0.930 . S
H467 C476 0.930 . S
H468 C481 0.929 . S
H469 C479 0.929 . S
H470 C474 0.929 . S
H471 C480 0.929 . S
C472 H466 0.930 . S
C472 C473 1.365 . S
C472 C480 1.378 1_554 S
C473 C472 1.365 . S
C473 C481 1.435 1_654 S
C474 H470 0.929 . S
C474 C476 1.378 . S
C474 C478 1.350 . S
C475 C478 1.463 . S
C475 C480 1.350 1_455 S
C475 N483 1.427 . S
C476 H467 0.930 . S
C476 C474 1.378 . S
C476 C477 1.367 . S
C477 C476 1.367 . S
C477 C479 1.433 1_455 S
C478 C474 1.350 . S
C478 C475 1.463 . S
C478 N482 1.427 1_455 S
C479 H469 0.929 . S
C479 C477 1.433 1_655 S
C479 N482 1.384 . S
C480 H471 0.929 . S
C480 C472 1.378 1_556 S
C480 C475 1.350 1_655 S
C481 H468 0.929 . S
C481 C473 1.435 1_456 S
C481 N483 1.384 . S
N482 C478 1.427 1_655 S
N482 C479 1.384 . S
N483 C475 1.427 . S
N483 C481 1.384 . S
H484 C490 0.930 . S
H485 C494 0.939 . S
H486 C499 0.929 . S
H487 C497 0.929 . S
H488 C492 0.929 1_455 S
H489 C498 0.929 . S
C490 H484 0.930 . S
C490 C491 1.367 1_655 S
C490 C498 1.378 . S
C491 C490 1.367 1_455 S
C491 C499 1.433 . S
C492 H488 0.929 1_655 S
C492 C494 1.378 . S
C492 C496 1.350 . S
C493 C496 1.463 . S
C493 C498 1.350 . S
C493 N501 1.427 1_655 S
C494 H485 0.939 . S
C494 C492 1.378 . S
C494 C495 1.367 . S
C495 C494 1.367 . S
C495 C497 1.433 . S
C496 C492 1.350 . S
C496 C493 1.463 . S
C496 N500 1.427 . S
C497 H487 0.929 . S
C497 C495 1.433 . S
C497 N500 1.384 . S
C498 H489 0.929 . S
C498 C490 1.378 . S
C498 C493 1.350 . S
C499 H486 0.929 . S
C499 C491 1.433 . S
C499 N501 1.384 . S
N500 C496 1.427 . S
N500 C497 1.384 . S
N501 C493 1.427 1_455 S
N501 C499 1.384 . S
H502 C508 0.930 . S
H503 C512 0.930 1_565 S
H504 C517 0.929 . S
H505 C515 0.929 . S
H506 C510 0.929 . S
H507 C516 0.929 . S
C508 H502 0.930 . S
C508 C509 1.367 . S
C508 C516 1.378 . S
C509 C508 1.367 . S
C509 C517 1.433 . S
C510 H506 0.929 . S
C510 C512 1.378 . S
C510 C514 1.350 . S
C511 C514 1.463 . S
C511 C516 1.350 . S
C511 N519 1.427 . S
C512 H503 0.930 1_545 S
C512 C510 1.378 . S
C512 C513 1.367 . S
C513 C512 1.367 . S
C513 C515 1.433 . S
C514 C510 1.350 . S
C514 C511 1.463 . S
C514 N518 1.427 . S
C515 H505 0.929 . S
C515 C513 1.433 . S
C515 N518 1.384 . S
C516 H507 0.929 . S
C516 C508 1.378 . S
C516 C511 1.350 . S
C517 H504 0.929 . S
C517 C509 1.433 . S
C517 N519 1.384 . S
N518 C514 1.427 . S
N518 C515 1.384 . S
N519 C511 1.427 . S
N519 C517 1.384 . S
H520 C526 0.930 . S
H521 C530 0.930 . S
H522 C535 0.929 . S
H523 C533 0.929 . S
H524 C528 0.929 . S
H525 C534 0.929 . S
C526 H520 0.930 . S
C526 C527 1.367 . S
C526 C534 1.378 . S
C527 C526 1.367 . S
C527 C535 1.433 . S
C528 H524 0.929 . S
C528 C530 1.378 . S
C528 C532 1.350 . S
C529 C532 1.463 . S
C529 C534 1.350 . S
C529 N537 1.427 . S
C530 H521 0.930 . S
C530 C528 1.378 . S
C530 C531 1.367 . S
C531 C530 1.367 . S
C531 C533 1.433 . S
C532 C528 1.350 . S
C532 C529 1.463 . S
C532 N536 1.427 . S
C533 H523 0.929 . S
C533 C531 1.433 . S
C533 N536 1.384 . S
C534 H525 0.929 . S
C534 C526 1.378 . S
C534 C529 1.350 . S
C535 H522 0.929 . S
C535 C527 1.433 . S
C535 N537 1.384 . S
N536 C532 1.427 . S
N536 C533 1.384 . S
N537 C529 1.427 . S
N537 C535 1.384 . S
H538 C544 0.930 . S
H539 C548 0.930 . S
H540 C553 0.929 . S
H541 C551 0.929 . S
H542 C546 0.929 . S
H543 C552 0.929 . S
C544 H538 0.930 . S
C544 C545 1.367 . S
C544 C552 1.378 . S
C545 C544 1.367 . S
C545 C553 1.433 . S
C546 H542 0.929 . S
C546 C548 1.378 . S
C546 C550 1.350 . S
C547 C550 1.463 . S
C547 C552 1.350 . S
C547 N555 1.427 . S
C548 H539 0.930 . S
C548 C546 1.378 . S
C548 C549 1.367 . S
C549 C548 1.367 . S
C549 C551 1.433 . S
C550 C546 1.350 . S
C550 C547 1.463 . S
C550 N554 1.427 . S
C551 H541 0.929 . S
C551 C549 1.433 . S
C551 N554 1.384 . S
C552 H543 0.929 . S
C552 C544 1.378 . S
C552 C547 1.350 . S
C553 H540 0.929 . S
C553 C545 1.433 . S
C553 N555 1.384 . S
N554 C550 1.427 . S
N554 C551 1.384 . S
N555 C547 1.427 . S
N555 C553 1.384 . S
H556 C562 0.930 . S
H557 C566 0.930 . S
H558 C571 0.929 . S
H559 C569 0.929 . S
H560 C564 0.929 . S
H561 C570 0.929 . S
C562 H556 0.930 . S
C562 C563 1.354 1_455 S
C562 C570 1.378 . S
C563 C562 1.354 1_655 S
C563 C571 1.444 . S
C564 H560 0.929 . S
C564 C566 1.378 . S
C564 C568 1.350 1_655 S
C565 C568 1.463 . S
C565 C570 1.350 . S
C565 N573 1.427 1_455 S
C566 H557 0.930 . S
C566 C564 1.378 . S
C566 C567 1.367 1_655 S
C567 C566 1.367 1_455 S
C567 C569 1.433 . S
C568 C564 1.350 1_455 S
C568 C565 1.463 . S
C568 N572 1.427 . S
C569 H559 0.929 . S
C569 C567 1.433 . S
C569 N572 1.384 . S
C570 H561 0.929 . S
C570 C562 1.378 . S
C570 C565 1.350 . S
C571 H558 0.929 . S
C571 C563 1.444 . S
C571 N573 1.384 . S
N572 C568 1.427 . S
N572 C569 1.384 . S
N573 C565 1.427 1_655 S
N573 C571 1.384 . S
H574 C580 0.930 . S
H575 C584 0.930 . S
H576 C589 0.929 . S
H577 C587 0.929 . S
H578 C582 0.929 . S
H579 C588 0.929 . S
C580 H574 0.930 . S
C580 C581 1.367 . S
C580 C588 1.378 . S
C581 C580 1.367 . S
C581 C589 1.433 . S
C582 H578 0.929 . S
C582 C584 1.378 . S
C582 C586 1.350 . S
C583 C586 1.463 . S
C583 C588 1.350 . S
C583 N591 1.427 . S
C584 H575 0.930 . S
C584 C582 1.378 . S
C584 C585 1.367 . S
C585 C584 1.367 . S
C585 C587 1.433 1_565 S
C586 C582 1.350 . S
C586 C583 1.463 . S
C586 N590 1.427 . S
C587 H577 0.929 . S
C587 C585 1.433 1_545 S
C587 N590 1.384 1_545 S
C588 H579 0.929 . S
C588 C580 1.378 . S
C588 C583 1.350 . S
C589 H576 0.929 . S
C589 C581 1.433 . S
C589 N591 1.384 . S
N590 C586 1.427 . S
N590 C587 1.384 1_565 S
N591 C583 1.427 . S
N591 C589 1.384 . S
H592 C598 0.930 1_554 S
H593 C602 0.930 . S
H594 C607 0.929 . S
H595 C605 0.929 . S
H596 C600 0.929 . S
H597 C606 0.929 . S
C598 H592 0.930 1_556 S
C598 C599 1.367 . S
C598 C606 1.378 . S
C599 C598 1.367 . S
C599 C607 1.433 . S
C600 H596 0.929 . S
C600 C602 1.378 . S
C600 C604 1.350 . S
C601 C604 1.463 . S
C601 C606 1.350 . S
C601 N609 1.427 . S
C602 H593 0.930 . S
C602 C600 1.378 . S
C602 C603 1.367 . S
C603 C602 1.367 . S
C603 C605 1.433 . S
C604 C600 1.350 . S
C604 C601 1.463 . S
C604 N608 1.427 . S
C605 H595 0.929 . S
C605 C603 1.433 . S
C605 N608 1.384 . S
C606 H597 0.929 . S
C606 C598 1.378 . S
C606 C601 1.350 . S
C607 H594 0.929 . S
C607 C599 1.433 . S
C607 N609 1.384 . S
N608 C604 1.427 . S
N608 C605 1.384 . S
N609 C601 1.427 . S
N609 C607 1.384 . S
H610 C616 0.930 1_554 S
H611 C620 0.930 . S
H612 C625 0.929 . S
H613 C623 0.929 . S
H614 C618 0.929 . S
H615 C624 0.929 . S
C616 H610 0.930 1_556 S
C616 C617 1.367 . S
C616 C624 1.378 . S
C617 C616 1.367 . S
C617 C625 1.433 . S
C618 H614 0.929 . S
C618 C620 1.378 . S
C618 C622 1.350 . S
C619 C622 1.463 . S
C619 C624 1.350 . S
C619 N627 1.427 . S
C620 H611 0.930 . S
C620 C618 1.378 . S
C620 C621 1.367 . S
C621 C620 1.367 . S
C621 C623 1.433 . S
C622 C618 1.350 . S
C622 C619 1.463 . S
C622 N626 1.427 . S
C623 H613 0.929 . S
C623 C621 1.433 . S
C623 N626 1.384 . S
C624 H615 0.929 . S
C624 C616 1.378 . S
C624 C619 1.350 . S
C625 H612 0.929 . S
C625 C617 1.433 . S
C625 N627 1.384 . S
N626 C622 1.427 . S
N626 C623 1.384 . S
N627 C619 1.427 . S
N627 C625 1.384 . S
H628 C634 0.930 . S
H629 C638 0.930 . S
H630 C643 0.929 . S
H631 C641 0.929 . S
H632 C636 0.929 1_554 S
H633 C642 0.929 . S
C634 H628 0.930 . S
C634 C635 1.367 1_556 S
C634 C642 1.378 . S
C635 C634 1.367 1_554 S
C635 C643 1.433 1_455 S
C636 H632 0.929 1_556 S
C636 C638 1.378 . S
C636 C640 1.350 1_655 S
C637 C640 1.463 . S
C637 C642 1.350 . S
C637 N645 1.427 1_456 S
C638 H629 0.930 . S
C638 C636 1.378 . S
C638 C639 1.367 1_655 S
C639 C638 1.367 1_455 S
C639 C641 1.433 . S
C640 C636 1.350 1_455 S
C640 C637 1.463 . S
C640 N644 1.427 . S
C641 H631 0.929 . S
C641 C639 1.433 . S
C641 N644 1.384 . S
C642 H633 0.929 . S
C642 C634 1.378 . S
C642 C637 1.350 . S
C643 H630 0.929 . S
C643 C635 1.433 1_655 S
C643 N645 1.384 . S
N644 C640 1.427 . S
N644 C641 1.384 . S
N645 C637 1.427 1_654 S
N645 C643 1.384 . S
H646 C652 0.930 . S
H647 C656 0.930 . S
H648 C661 0.929 . S
H649 C659 0.929 . S
H650 C654 0.929 . S
H651 C660 0.929 . S
C652 H646 0.930 . S
C652 C653 1.367 . S
C652 C660 1.378 1_554 S
C653 C652 1.367 . S
C653 C661 1.433 . S
C654 H650 0.929 . S
C654 C656 1.378 . S
C654 C658 1.350 . S
C655 C658 1.463 . S
C655 C660 1.350 . S
C655 N663 1.427 1_556 S
C656 H647 0.930 . S
C656 C654 1.378 . S
C656 C657 1.367 . S
C657 C656 1.367 . S
C657 C659 1.433 . S
C658 C654 1.350 . S
C658 C655 1.463 . S
C658 N662 1.427 . S
C659 H649 0.929 . S
C659 C657 1.433 . S
C659 N662 1.384 . S
C660 H651 0.929 . S
C660 C652 1.378 1_556 S
C660 C655 1.350 . S
C661 H648 0.929 . S
C661 C653 1.433 . S
C661 N663 1.384 . S
N662 C658 1.427 . S
N662 C659 1.384 . S
N663 C655 1.427 1_554 S
N663 C661 1.384 . S
H664 C670 0.930 . S
H665 C674 0.930 . S
H666 C679 0.929 . S
H667 C677 0.929 . S
H668 C672 0.929 1_554 S
H669 C678 0.929 . S
C670 H664 0.930 . S
C670 C671 1.367 1_556 S
C670 C678 1.378 . S
C671 C670 1.367 1_554 S
C671 C679 1.433 . S
C672 H668 0.929 1_556 S
C672 C674 1.378 . S
C672 C676 1.350 . S
C673 C676 1.463 . S
C673 C678 1.350 . S
C673 N681 1.427 1_556 S
C674 H665 0.930 . S
C674 C672 1.378 . S
C674 C675 1.367 . S
C675 C674 1.367 . S
C675 C677 1.433 . S
C676 C672 1.350 . S
C676 C673 1.463 . S
C676 N680 1.427 . S
C677 H667 0.929 . S
C677 C675 1.433 . S
C677 N680 1.384 . S
C678 H669 0.929 . S
C678 C670 1.378 . S
C678 C673 1.350 . S
C679 H666 0.929 . S
C679 C671 1.433 . S
C679 N681 1.384 . S
N680 C676 1.427 . S
N680 C677 1.384 . S
N681 C673 1.427 1_554 S
N681 C679 1.384 . S
H682 C688 0.930 . S
H683 C692 0.930 . S
H684 C697 0.929 . S
H685 C695 0.929 . S
H686 C690 0.929 . S
H687 C696 0.931 . S
C688 H682 0.930 . S
C688 C689 1.367 . S
C688 C696 1.378 . S
C689 C688 1.367 . S
C689 C697 1.433 . S
C690 H686 0.929 . S
C690 C692 1.378 . S
C690 C694 1.350 . S
C691 C694 1.463 . S
C691 C696 1.350 1_556 S
C691 N699 1.427 1_556 S
C692 H683 0.930 . S
C692 C690 1.378 . S
C692 C693 1.367 . S
C693 C692 1.367 . S
C693 C695 1.433 . S
C694 C690 1.350 . S
C694 C691 1.463 . S
C694 N698 1.427 . S
C695 H685 0.929 . S
C695 C693 1.433 . S
C695 N698 1.384 . S
C696 H687 0.931 . S
C696 C688 1.378 . S
C696 C691 1.350 1_554 S
C697 H684 0.929 . S
C697 C689 1.433 . S
C697 N699 1.384 . S
N698 C694 1.427 . S
N698 C695 1.384 . S
N699 C691 1.427 1_554 S
N699 C697 1.384 . S
H700 C706 0.930 . S
H701 C710 0.930 . S
H702 C715 0.929 . S
H703 C713 0.929 . S
H704 C708 0.929 . S
H705 C714 0.929 . S
C706 H700 0.930 . S
C706 C707 1.367 1_455 S
C706 C714 1.378 . S
C707 C706 1.367 1_655 S
C707 C715 1.433 . S
C708 H704 0.929 . S
C708 C710 1.378 . S
C708 C712 1.350 . S
C709 C712 1.463 . S
C709 C714 1.350 1_655 S
C709 N717 1.427 . S
C710 H701 0.930 . S
C710 C708 1.378 . S
C710 C711 1.367 . S
C711 C710 1.367 . S
C711 C713 1.433 1_655 S
C712 C708 1.350 . S
C712 C709 1.463 . S
C712 N716 1.427 1_655 S
C713 H703 0.929 . S
C713 C711 1.433 1_455 S
C713 N716 1.384 . S
C714 H705 0.929 . S
C714 C706 1.378 . S
C714 C709 1.350 1_455 S
C715 H702 0.929 . S
C715 C707 1.433 . S
C715 N717 1.384 . S
N716 C712 1.427 1_455 S
N716 C713 1.384 . S
N717 C709 1.427 . S
N717 C715 1.384 . S
H718 C724 0.930 . S
H719 C728 0.930 . S
H720 C733 0.929 . S
H721 C731 0.929 . S
H722 C726 0.929 . S
H723 C732 0.929 . S
C724 H718 0.930 . S
C724 C725 1.367 . S
C724 C732 1.378 . S
C725 C724 1.367 . S
C725 C733 1.433 . S
C726 H722 0.929 . S
C726 C728 1.378 . S
C726 C730 1.350 . S
C727 C730 1.463 . S
C727 C732 1.350 . S
C727 N735 1.427 . S
C728 H719 0.930 . S
C728 C726 1.378 . S
C728 C729 1.367 . S
C729 C728 1.367 . S
C729 C731 1.433 . S
C730 C726 1.350 . S
C730 C727 1.463 . S
C730 N734 1.427 . S
C731 H721 0.929 . S
C731 C729 1.433 . S
C731 N734 1.384 . S
C732 H723 0.929 . S
C732 C724 1.378 . S
C732 C727 1.350 . S
C733 H720 0.929 . S
C733 C725 1.433 . S
C733 N735 1.384 . S
N734 C730 1.427 . S
N734 C731 1.384 . S
N735 C727 1.427 . S
N735 C733 1.384 . S
H736 C742 0.930 . S
H737 C746 0.930 . S
H738 C751 0.929 . S
H739 C749 0.929 . S
H740 C744 0.929 . S
H741 C750 0.929 . S
C742 H736 0.930 . S
C742 C743 1.367 . S
C742 C750 1.378 . S
C743 C742 1.367 . S
C743 C751 1.433 . S
C744 H740 0.929 . S
C744 C746 1.378 . S
C744 C748 1.350 . S
C745 C748 1.463 . S
C745 C750 1.350 . S
C745 N753 1.427 . S
C746 H737 0.930 . S
C746 C744 1.378 . S
C746 C747 1.367 . S
C747 C746 1.367 . S
C747 C749 1.433 . S
C748 C744 1.350 . S
C748 C745 1.463 . S
C748 N752 1.427 . S
C749 H739 0.929 . S
C749 C747 1.433 . S
C749 N752 1.384 . S
C750 H741 0.929 . S
C750 C742 1.378 . S
C750 C745 1.350 . S
C751 H738 0.929 . S
C751 C743 1.433 . S
C751 N753 1.384 . S
N752 C748 1.427 . S
N752 C749 1.384 . S
N753 C745 1.427 . S
N753 C751 1.384 . S
H754 C760 0.930 . S
H755 C764 0.930 . S
H756 C769 0.929 . S
H757 C767 0.929 . S
H758 C762 0.929 . S
H759 C768 0.929 . S
C760 H754 0.930 . S
C760 C761 1.367 . S
C760 C768 1.378 . S
C761 C760 1.367 . S
C761 C769 1.433 . S
C762 H758 0.929 . S
C762 C764 1.378 . S
C762 C766 1.350 . S
C763 C766 1.463 . S
C763 C768 1.350 . S
C763 N771 1.427 . S
C764 H755 0.930 . S
C764 C762 1.378 . S
C764 C765 1.367 . S
C765 C764 1.367 . S
C765 C767 1.433 . S
C766 C762 1.350 . S
C766 C763 1.463 . S
C766 N770 1.427 . S
C767 H757 0.929 . S
C767 C765 1.433 . S
C767 N770 1.384 . S
C768 H759 0.929 . S
C768 C760 1.378 . S
C768 C763 1.350 . S
C769 H756 0.929 . S
C769 C761 1.433 . S
C769 N771 1.384 . S
N770 C766 1.427 . S
N770 C767 1.384 . S
N771 C763 1.427 . S
N771 C769 1.384 . S
C347 C215 1.909 . S
C351 C272 1.760 . S
C369 C290 1.357 . S
C365 C247 1.535 . S
C387 C311 1.743 . S
C383 C151 1.898 . S
C405 C335 1.402 . S
C401 C183 1.563 1_655 S
C423 C269 1.665 1_565 S
C419 C87 1.634 . S
C437 C119 1.419 . S
C441 C293 1.256 . S
C455 C23 1.617 . S
C459 C314 1.649 . S
C473 C55 1.422 1_655 S
C477 C332 1.271 . S
C495 C274 0.467 . S
C491 C189 0.412 . S
C513 C292 0.670 . S
C509 C221 0.665 . S
C531 C313 0.471 . S
C527 C253 0.429 . S
C545 C157 0.649 . S
C549 C337 0.652 . S
C563 C61 0.467 1_655 S
C567 C273 0.450 . S
C585 C291 0.717 1_565 S
C581 C93 0.713 . S
C603 C312 0.452 . S
C599 C125 0.474 . S
C617 C29 0.715 . S
C621 C336 0.709 . S
C635 C177 1.727 . S
C639 C270 1.723 . S
C653 C209 1.991 . S
C657 C294 1.955 . S
C675 C315 1.713 . S
C671 C241 1.713 . S
C693 C333 1.968 . S
C689 C145 1.998 . S
C707 C49 1.626 1_655 S
C711 C271 1.604 . S
C729 C295 1.814 . S
C725 C81 1.751 . S
C747 C316 1.569 . S
C743 C113 1.610 . S
C761 C17 1.746 . S
C765 C334 1.822 . S
