# Generated by pormake.
# Topology eea, (3,6)-cn, num edge types: 1
# Building blocks:
#     Node 0, Type 0, BuildingBlock: BETDAH_clean_linker_0, # of connection points: 3
#     Node 1, Type 0, BuildingBlock: BETDAH_clean_linker_0, # of connection points: 3
#     Node 2, Type 0, BuildingBlock: BETDAH_clean_linker_0, # of connection points: 3
#     Node 3, Type 0, BuildingBlock: BETDAH_clean_linker_0, # of connection points: 3
#     Node 4, Type 0, BuildingBlock: BETDAH_clean_linker_0, # of connection points: 3
#     Node 5, Type 0, BuildingBlock: BETDAH_clean_linker_0, # of connection points: 3
#     Node 6, Type 0, BuildingBlock: BETDAH_clean_linker_0, # of connection points: 3
#     Node 7, Type 0, BuildingBlock: BETDAH_clean_linker_0, # of connection points: 3
#     Node 8, Type 0, BuildingBlock: BETDAH_clean_linker_0, # of connection points: 3
#     Node 9, Type 0, BuildingBlock: BETDAH_clean_linker_0, # of connection points: 3
#     Node 10, Type 0, BuildingBlock: BETDAH_clean_linker_0, # of connection points: 3
#     Node 11, Type 0, BuildingBlock: BETDAH_clean_linker_0, # of connection points: 3
#     Node 12, Type 0, BuildingBlock: BETDAH_clean_linker_0, # of connection points: 3
#     Node 13, Type 0, BuildingBlock: BETDAH_clean_linker_0, # of connection points: 3
#     Node 14, Type 0, BuildingBlock: BETDAH_clean_linker_0, # of connection points: 3
#     Node 15, Type 0, BuildingBlock: BETDAH_clean_linker_0, # of connection points: 3
#     Node 16, Type 0, BuildingBlock: BETDAH_clean_linker_0, # of connection points: 3
#     Node 17, Type 0, BuildingBlock: BETDAH_clean_linker_0, # of connection points: 3
#     Node 18, Type 1, BuildingBlock: KUMBOL_clean_sbu_0, # of connection points: 6
#     Node 19, Type 1, BuildingBlock: KUMBOL_clean_sbu_0, # of connection points: 6
#     Node 20, Type 1, BuildingBlock: KUMBOL_clean_sbu_0, # of connection points: 6
#     Node 21, Type 1, BuildingBlock: KUMBOL_clean_sbu_0, # of connection points: 6
#     Node 22, Type 1, BuildingBlock: KUMBOL_clean_sbu_0, # of connection points: 6
#     Node 23, Type 1, BuildingBlock: KUMBOL_clean_sbu_0, # of connection points: 6
#     Node 24, Type 1, BuildingBlock: KUMBOL_clean_sbu_0, # of connection points: 6
#     Node 25, Type 1, BuildingBlock: KUMBOL_clean_sbu_0, # of connection points: 6
#     Node 26, Type 1, BuildingBlock: KUMBOL_clean_sbu_0, # of connection points: 6
#     Edge 27, Type (0, 1), BuildingBlock: UVAHIK_clean_linker_0, # of connection points: 2
#     Edge 28, Type (0, 1), BuildingBlock: UVAHIK_clean_linker_0, # of connection points: 2
#     Edge 29, Type (0, 1), BuildingBlock: UVAHIK_clean_linker_0, # of connection points: 2
#     Edge 30, Type (0, 1), BuildingBlock: UVAHIK_clean_linker_0, # of connection points: 2
#     Edge 31, Type (0, 1), BuildingBlock: UVAHIK_clean_linker_0, # of connection points: 2
#     Edge 32, Type (0, 1), BuildingBlock: UVAHIK_clean_linker_0, # of connection points: 2
#     Edge 33, Type (0, 1), BuildingBlock: UVAHIK_clean_linker_0, # of connection points: 2
#     Edge 34, Type (0, 1), BuildingBlock: UVAHIK_clean_linker_0, # of connection points: 2
#     Edge 35, Type (0, 1), BuildingBlock: UVAHIK_clean_linker_0, # of connection points: 2
#     Edge 36, Type (0, 1), BuildingBlock: UVAHIK_clean_linker_0, # of connection points: 2
#     Edge 37, Type (0, 1), BuildingBlock: UVAHIK_clean_linker_0, # of connection points: 2
#     Edge 38, Type (0, 1), BuildingBlock: UVAHIK_clean_linker_0, # of connection points: 2
#     Edge 39, Type (0, 1), BuildingBlock: UVAHIK_clean_linker_0, # of connection points: 2
#     Edge 40, Type (0, 1), BuildingBlock: UVAHIK_clean_linker_0, # of connection points: 2
#     Edge 41, Type (0, 1), BuildingBlock: UVAHIK_clean_linker_0, # of connection points: 2
#     Edge 42, Type (0, 1), BuildingBlock: UVAHIK_clean_linker_0, # of connection points: 2
#     Edge 43, Type (0, 1), BuildingBlock: UVAHIK_clean_linker_0, # of connection points: 2
#     Edge 44, Type (0, 1), BuildingBlock: UVAHIK_clean_linker_0, # of connection points: 2
#     Edge 45, Type (0, 1), BuildingBlock: UVAHIK_clean_linker_0, # of connection points: 2
#     Edge 46, Type (0, 1), BuildingBlock: UVAHIK_clean_linker_0, # of connection points: 2
#     Edge 47, Type (0, 1), BuildingBlock: UVAHIK_clean_linker_0, # of connection points: 2
#     Edge 48, Type (0, 1), BuildingBlock: UVAHIK_clean_linker_0, # of connection points: 2
#     Edge 49, Type (0, 1), BuildingBlock: UVAHIK_clean_linker_0, # of connection points: 2
#     Edge 50, Type (0, 1), BuildingBlock: UVAHIK_clean_linker_0, # of connection points: 2
#     Edge 51, Type (0, 1), BuildingBlock: UVAHIK_clean_linker_0, # of connection points: 2
#     Edge 52, Type (0, 1), BuildingBlock: UVAHIK_clean_linker_0, # of connection points: 2
#     Edge 53, Type (0, 1), BuildingBlock: UVAHIK_clean_linker_0, # of connection points: 2
#     Edge 54, Type (0, 1), BuildingBlock: UVAHIK_clean_linker_0, # of connection points: 2
#     Edge 55, Type (0, 1), BuildingBlock: UVAHIK_clean_linker_0, # of connection points: 2
#     Edge 56, Type (0, 1), BuildingBlock: UVAHIK_clean_linker_0, # of connection points: 2
#     Edge 57, Type (0, 1), BuildingBlock: UVAHIK_clean_linker_0, # of connection points: 2
#     Edge 58, Type (0, 1), BuildingBlock: UVAHIK_clean_linker_0, # of connection points: 2
#     Edge 59, Type (0, 1), BuildingBlock: UVAHIK_clean_linker_0, # of connection points: 2
#     Edge 60, Type (0, 1), BuildingBlock: UVAHIK_clean_linker_0, # of connection points: 2
#     Edge 61, Type (0, 1), BuildingBlock: UVAHIK_clean_linker_0, # of connection points: 2
#     Edge 62, Type (0, 1), BuildingBlock: UVAHIK_clean_linker_0, # of connection points: 2
#     Edge 63, Type (0, 1), BuildingBlock: UVAHIK_clean_linker_0, # of connection points: 2
#     Edge 64, Type (0, 1), BuildingBlock: UVAHIK_clean_linker_0, # of connection points: 2
#     Edge 65, Type (0, 1), BuildingBlock: UVAHIK_clean_linker_0, # of connection points: 2
#     Edge 66, Type (0, 1), BuildingBlock: UVAHIK_clean_linker_0, # of connection points: 2
#     Edge 67, Type (0, 1), BuildingBlock: UVAHIK_clean_linker_0, # of connection points: 2
#     Edge 68, Type (0, 1), BuildingBlock: UVAHIK_clean_linker_0, # of connection points: 2
#     Edge 69, Type (0, 1), BuildingBlock: UVAHIK_clean_linker_0, # of connection points: 2
#     Edge 70, Type (0, 1), BuildingBlock: UVAHIK_clean_linker_0, # of connection points: 2
#     Edge 71, Type (0, 1), BuildingBlock: UVAHIK_clean_linker_0, # of connection points: 2
#     Edge 72, Type (0, 1), BuildingBlock: UVAHIK_clean_linker_0, # of connection points: 2
#     Edge 73, Type (0, 1), BuildingBlock: UVAHIK_clean_linker_0, # of connection points: 2
#     Edge 74, Type (0, 1), BuildingBlock: UVAHIK_clean_linker_0, # of connection points: 2
#     Edge 75, Type (0, 1), BuildingBlock: UVAHIK_clean_linker_0, # of connection points: 2
#     Edge 76, Type (0, 1), BuildingBlock: UVAHIK_clean_linker_0, # of connection points: 2
#     Edge 77, Type (0, 1), BuildingBlock: UVAHIK_clean_linker_0, # of connection points: 2
#     Edge 78, Type (0, 1), BuildingBlock: UVAHIK_clean_linker_0, # of connection points: 2
#     Edge 79, Type (0, 1), BuildingBlock: UVAHIK_clean_linker_0, # of connection points: 2
#     Edge 80, Type (0, 1), BuildingBlock: UVAHIK_clean_linker_0, # of connection points: 2
# Relax obj value: 0.022
# Max RMSD: 0.151
# Mean RMSD: 0.112
data_MOF--net-eea--node1-KUMBOL_clean_sbu_0--node2-BETDAH_clean_linker_0--edge1-UVAHIK_clean_linker_0
_symmetry_space_group_name_H-M    P1
_symmetry_Int_Tables_number       1
_symmetry_cell_setting            triclinic
loop_
_symmetry_equiv_pos_as_xyz
'x, y, z'
_cell_length_a     71.217911
_cell_length_b     72.491248
_cell_length_c     82.317152
_cell_angle_alpha  90.139878
_cell_angle_beta   90.216042
_cell_angle_gamma 119.91818
loop_
_atom_site_label
_atom_site_type_symbol
_atom_site_fract_x
_atom_site_fract_y
_atom_site_fract_z
_atom_type_partial_charge
H0 H 0.25674 0.08956 0.42754 0.0
H1 H 0.28592 0.15685 0.41882 0.0
H2 H 0.25617 0.11263 0.37948 0.0
C3 C 0.26046 0.10262 0.41935 0.0
C4 C 0.25465 0.09834 0.40286 0.0
C5 C 0.27178 0.12363 0.4253 0.0
C6 C 0.27672 0.14052 0.41459 0.0
C7 C 0.27105 0.13644 0.39811 0.0
C8 C 0.26019 0.11548 0.3923 0.0
N9 N 0.27834 0.15339 0.38696 0.0
C10 C 0.26806 0.16525 0.3852 0.0
H11 H 0.92908 0.16952 0.4296 0.0
H12 H 0.86874 0.11198 0.4197 0.0
H13 H 0.91604 0.14116 0.38201 0.0
C14 C 0.9184 0.15698 0.4213 0.0
C15 C 0.92502 0.15719 0.40524 0.0
C16 C 0.89796 0.14089 0.42663 0.0
C17 C 0.88455 0.12439 0.4158 0.0
C18 C 0.89113 0.12457 0.39967 0.0
C19 C 0.91109 0.14115 0.39446 0.0
N20 N 0.87795 0.10874 0.38815 0.0
C21 C 0.86148 0.08842 0.39202 0.0
H22 H 0.84789 0.77461 0.43759 0.0
H23 H 0.90963 0.77968 0.42719 0.0
H24 H 0.87941 0.80061 0.39216 0.0
C25 C 0.8615 0.77924 0.42953 0.0
C26 C 0.86158 0.78813 0.41437 0.0
C27 C 0.87876 0.77617 0.43435 0.0
C28 C 0.8963 0.78201 0.42365 0.0
C29 C 0.89654 0.791 0.40843 0.0
C30 C 0.87921 0.79397 0.40398 0.0
N31 N 0.91353 0.79708 0.39699 0.0
C32 C 0.93308 0.79742 0.39932 0.0
H33 H 0.07918 0.23153 0.58943 0.0
H34 H 0.13431 0.22327 0.59831 0.0
H35 H 0.0846 0.20435 0.6343 0.0
C36 C 0.08794 0.2263 0.59717 0.0
C37 C 0.07929 0.21747 0.61241 0.0
C38 C 0.10776 0.22844 0.59186 0.0
C39 C 0.11912 0.22181 0.60222 0.0
C40 C 0.11066 0.21304 0.61754 0.0
C41 C 0.09085 0.21092 0.62242 0.0
N42 N 0.12136 0.20621 0.62857 0.0
C43 C 0.14068 0.20617 0.62604 0.0
H44 H 0.75343 0.83896 0.59603 0.0
H45 H 0.76084 0.9003 0.60763 0.0
H46 H 0.77867 0.86802 0.6426 0.0
C47 C 0.75847 0.85222 0.60435 0.0
C48 C 0.76653 0.85134 0.61977 0.0
C49 C 0.75628 0.8698 0.5998 0.0
C50 C 0.76227 0.88662 0.61097 0.0
C51 C 0.77008 0.8857 0.62649 0.0
C52 C 0.7721 0.86815 0.63073 0.0
N53 N 0.77594 0.90194 0.63831 0.0
C54 C 0.77987 0.92234 0.63516 0.0
H55 H 0.15818 0.91808 0.59219 0.0
H56 H 0.09017 0.87122 0.59197 0.0
H57 H 0.11438 0.92489 0.62416 0.0
C58 C 0.14205 0.91215 0.59698 0.0
C59 C 0.13875 0.92362 0.60936 0.0
C60 C 0.12465 0.89342 0.59037 0.0
C61 C 0.10373 0.88563 0.59684 0.0
C62 C 0.10026 0.89698 0.60923 0.0
C63 C 0.11761 0.91599 0.61509 0.0
N64 N 0.07938 0.89063 0.61546 0.0
C65 C 0.06258 0.86975 0.61681 0.0
H66 H 0.91722 0.41764 0.76781 0.0
H67 H 0.93605 0.48343 0.76012 0.0
H68 H 0.91185 0.43923 0.72031 0.0
C69 C 0.91887 0.43025 0.75986 0.0
C70 C 0.91315 0.42572 0.74339 0.0
C71 C 0.92737 0.45104 0.76607 0.0
C72 C 0.92921 0.46724 0.75567 0.0
C73 C 0.92367 0.46285 0.73916 0.0
C74 C 0.91597 0.44229 0.73309 0.0
N75 N 0.92736 0.4792 0.72811 0.0
C76 C 0.91877 0.49251 0.7302 0.0
H77 H 0.5972 0.49967 0.7657 0.0
H78 H 0.54524 0.43518 0.75868 0.0
H79 H 0.5953 0.46439 0.72305 0.0
C80 C 0.58956 0.4851 0.75861 0.0
C81 C 0.59876 0.48427 0.74373 0.0
C82 C 0.57022 0.46749 0.76418 0.0
C83 C 0.55999 0.4489 0.75452 0.0
C84 C 0.56907 0.44798 0.7396 0.0
C85 C 0.58831 0.46556 0.73441 0.0
N86 N 0.55957 0.42974 0.72936 0.0
C87 C 0.54092 0.41059 0.73262 0.0
H88 H 0.51644 0.10878 0.7697 0.0
H89 H 0.5788 0.11435 0.76113 0.0
H90 H 0.54869 0.13298 0.72423 0.0
C91 C 0.53025 0.1132 0.76188 0.0
C92 C 0.53047 0.12131 0.74637 0.0
C93 C 0.54762 0.11072 0.76744 0.0
C94 C 0.56539 0.11624 0.75705 0.0
C95 C 0.56578 0.12442 0.74144 0.0
C96 C 0.54836 0.1269 0.73631 0.0
N97 N 0.58303 0.13019 0.73029 0.0
C98 C 0.60259 0.13068 0.73309 0.0
H99 H 0.74645 0.56584 0.92628 0.0
H100 H 0.80078 0.5564 0.93543 0.0
H101 H 0.7501 0.53676 0.97069 0.0
C102 C 0.75485 0.56019 0.934 0.0
C103 C 0.74569 0.55087 0.949 0.0
C104 C 0.77469 0.56222 0.92886 0.0
C105 C 0.7856 0.55505 0.9392 0.0
C106 C 0.77663 0.54581 0.95431 0.0
C107 C 0.75677 0.54374 0.95899 0.0
N108 N 0.78682 0.53834 0.96529 0.0
C109 C 0.80632 0.53859 0.96306 0.0
H110 H 0.41974 0.17192 0.92724 0.0
H111 H 0.42634 0.23289 0.93898 0.0
H112 H 0.44398 0.20059 0.97408 0.0
C113 C 0.42452 0.18508 0.93563 0.0
C114 C 0.43238 0.18413 0.9511 0.0
C115 C 0.42222 0.20258 0.93108 0.0
C116 C 0.42786 0.21925 0.94232 0.0
C117 C 0.43542 0.21824 0.95791 0.0
C118 C 0.43757 0.20077 0.96215 0.0
N119 N 0.44091 0.23434 0.96979 0.0
C120 C 0.44491 0.25477 0.96662 0.0
H121 H 0.82924 0.25757 0.92829 0.0
H122 H 0.7806 0.19196 0.93536 0.0
H123 H 0.7986 0.23632 0.9748 0.0
C124 C 0.81738 0.24516 0.93598 0.0
C125 C 0.81534 0.24984 0.95225 0.0
C126 C 0.80497 0.22438 0.92967 0.0
C127 C 0.78975 0.2082 0.93977 0.0
C128 C 0.78765 0.21267 0.95605 0.0
C129 C 0.80037 0.23332 0.96216 0.0
N130 N 0.7755 0.1961 0.96715 0.0
C131 C 0.75312 0.1834 0.96651 0.0
H132 H 0.58631 0.75216 0.09944 0.0
H133 H 0.60115 0.81663 0.09059 0.0
H134 H 0.57614 0.7705 0.05203 0.0
C135 C 0.58673 0.76412 0.09134 0.0
C136 C 0.57993 0.75861 0.07514 0.0
C137 C 0.59467 0.78505 0.09706 0.0
C138 C 0.59483 0.80037 0.08649 0.0
C139 C 0.58824 0.79501 0.07022 0.0
C140 C 0.58115 0.77435 0.06462 0.0
N141 N 0.58999 0.81041 0.05888 0.0
C142 C 0.58283 0.82471 0.06192 0.0
H143 H 0.26694 0.83347 0.09978 0.0
H144 H 0.21584 0.7683 0.09456 0.0
H145 H 0.26665 0.79565 0.05932 0.0
C146 C 0.25964 0.81846 0.09326 0.0
C147 C 0.26923 0.81682 0.07882 0.0
C148 C 0.24038 0.80104 0.09911 0.0
C149 C 0.23051 0.78188 0.09013 0.0
C150 C 0.24001 0.78009 0.0757 0.0
C151 C 0.2593 0.79744 0.07028 0.0
N152 N 0.23101 0.76106 0.06635 0.0
C153 C 0.21067 0.74335 0.06862 0.0
H154 H 0.18103 0.43628 0.10505 0.0
H155 H 0.24218 0.44037 0.09412 0.0
H156 H 0.21189 0.4615 0.05927 0.0
C157 C 0.19445 0.44065 0.09684 0.0
C158 C 0.19436 0.44942 0.08165 0.0
C159 C 0.21161 0.43734 0.10151 0.0
C160 C 0.22895 0.44291 0.09068 0.0
C161 C 0.22909 0.45184 0.07545 0.0
C162 C 0.21181 0.45495 0.07112 0.0
N163 N 0.24587 0.4576 0.06386 0.0
C164 C 0.26568 0.45844 0.06617 0.0
H165 H 0.41145 0.90074 0.25979 0.0
H166 H 0.46511 0.88977 0.2673 0.0
H167 H 0.41566 0.87082 0.30353 0.0
C168 C 0.41987 0.89476 0.26717 0.0
C169 C 0.41104 0.88541 0.28222 0.0
C170 C 0.4393 0.89633 0.26151 0.0
C171 C 0.45023 0.88878 0.27146 0.0
C172 C 0.44162 0.87956 0.28664 0.0
C173 C 0.42209 0.87786 0.29179 0.0
N174 N 0.45179 0.87164 0.29721 0.0
C175 C 0.47132 0.87206 0.29466 0.0
H176 H 0.08482 0.50574 0.26792 0.0
H177 H 0.10099 0.57081 0.27575 0.0
H178 H 0.12088 0.53971 0.31047 0.0
C179 C 0.09232 0.52008 0.2753 0.0
C180 C 0.10282 0.5204 0.28986 0.0
C181 C 0.09158 0.53819 0.2701 0.0
C182 C 0.10157 0.55684 0.27965 0.0
C183 C 0.11193 0.55721 0.29434 0.0
C184 C 0.11244 0.53904 0.2993 0.0
N185 N 0.12215 0.57545 0.30453 0.0
C186 C 0.12402 0.59505 0.30118 0.0
H187 H 0.50044 0.58611 0.26016 0.0
H188 H 0.43908 0.52887 0.26723 0.0
H189 H 0.46353 0.5784 0.30332 0.0
C190 C 0.48616 0.57672 0.26746 0.0
C191 C 0.48409 0.58483 0.28242 0.0
C192 C 0.4701 0.55655 0.26182 0.0
C193 C 0.45146 0.54449 0.27132 0.0
C194 C 0.44938 0.55244 0.28644 0.0
C195 C 0.46563 0.57242 0.29179 0.0
N196 N 0.43167 0.54084 0.29703 0.0
C197 C 0.41211 0.52283 0.29314 0.0
Gd198 Gd 0.51542 0.01894 0.03517 0.0
Gd199 Gd 0.49588 0.99065 0.99543 0.0
C200 C 0.42879 0.93198 0.98933 0.0
C201 C 0.43758 0.9041 0.9843 0.0
C202 C 0.4663 0.9407 0.98833 0.0
C203 C 0.45109 0.94698 0.99052 0.0
C204 C 0.45976 0.91929 0.9848 0.0
C205 C 0.42212 0.91043 0.9866 0.0
C206 C 0.41391 0.93918 0.99052 0.0
C207 C 0.42144 0.96092 0.99224 0.0
N208 N 0.45814 0.96794 0.99305 0.0
C209 C 0.44373 0.97519 0.99326 0.0
H210 H 0.44924 0.99192 0.99468 0.0
C211 C 0.50311 0.95091 0.98462 0.0
N212 N 0.48754 0.95581 0.98877 0.0
C213 C 0.49747 0.92987 0.98112 0.0
C214 C 0.47571 0.91393 0.98142 0.0
H215 H 0.51997 0.96318 0.98449 0.0
H216 H 0.40506 0.89864 0.98582 0.0
H217 H 0.56279 0.01903 0.0346 0.0
H218 H 0.39664 0.92816 0.98974 0.0
H219 H 0.41009 0.96671 0.99285 0.0
H220 H 0.43223 0.88752 0.98177 0.0
H221 H 0.49142 0.04462 0.0501 0.0
H222 H 0.61457 0.08327 0.03878 0.0
H223 H 0.6018 0.04486 0.03553 0.0
H224 H 0.57784 0.12213 0.0499 0.0
H225 H 0.50989 0.92596 0.97822 0.0
H226 H 0.47136 0.89765 0.97865 0.0
H227 H 0.60544 0.11213 0.04383 0.0
H228 H 0.50081 0.08132 0.05756 0.0
N229 N 0.5532 0.04245 0.03681 0.0
C230 C 0.59735 0.07196 0.03839 0.0
C231 C 0.5902 0.0503 0.03661 0.0
C232 C 0.58216 0.07866 0.04028 0.0
C233 C 0.55994 0.06328 0.03957 0.0
C234 C 0.56797 0.03566 0.0361 0.0
N235 N 0.52352 0.0533 0.04324 0.0
C236 C 0.54453 0.06892 0.04288 0.0
C237 C 0.51327 0.07809 0.05333 0.0
C238 C 0.53468 0.09462 0.05205 0.0
C239 C 0.50801 0.05734 0.04912 0.0
C240 C 0.55073 0.09007 0.0471 0.0
H241 H 0.53875 0.11066 0.05541 0.0
O242 O 0.4986 0.01086 0.05833 0.0
O243 O 0.48879 0.99247 0.02137 0.0
O244 O 0.48734 0.01674 0.99855 0.0
O245 O 0.50901 0.04044 0.01916 0.0
O246 O 0.47981 0.00772 0.0382 0.0
O247 O 0.52693 0.00767 0.05523 0.0
O248 O 0.51244 0.99621 0.97229 0.0
O249 O 0.52237 0.01761 0.009 0.0
O250 O 0.52487 0.99363 0.03088 0.0
O251 O 0.49945 0.96866 0.0129 0.0
O252 O 0.53146 0.00176 0.99274 0.0
O253 O 0.48556 0.002 0.97473 0.0
C254 C 0.47269 0.99246 0.0277 0.0
C255 C 0.57275 0.10573 0.04689 0.0
C256 C 0.58846 0.10004 0.04345 0.0
C257 C 0.5123 0.00645 0.06531 0.0
C258 C 0.51994 0.01567 0.08159 0.0
C259 C 0.53503 0.03737 0.08346 0.0
C260 C 0.51168 0.00275 0.09544 0.0
C261 C 0.51824 0.01154 0.11114 0.0
C262 C 0.54168 0.04614 0.09896 0.0
C263 C 0.53332 0.03339 0.11271 0.0
C264 C 0.49577 0.03518 0.00645 0.0
C265 C 0.53848 0.01759 1.00271 0.0
C266 C 0.49974 0.00168 0.96493 0.0
C267 C 0.49179 0.99234 0.94872 0.0
C268 C 0.4767 0.97063 0.94698 0.0
C269 C 0.49935 0.00528 0.93482 0.0
C270 C 0.49175 0.99662 0.9192 0.0
C271 C 0.46922 0.9619 0.93157 0.0
C272 C 0.47664 0.97473 0.91779 0.0
C273 C 0.51429 0.97422 0.02449 0.0
H274 H 0.54161 0.04752 0.07297 0.0
H275 H 0.49987 0.98601 0.09399 0.0
H276 H 0.55334 0.06292 0.10032 0.0
H277 H 0.53884 0.04058 0.12459 0.0
H278 H 0.4707 0.96045 0.9575 0.0
H279 H 0.51084 0.02212 0.93622 0.0
H280 H 0.45762 0.9451 0.93031 0.0
H281 H 0.4707 0.96745 0.90599 0.0
Gd282 Gd 0.98745 0.49538 0.04007 0.0
Gd283 Gd 0.0178 0.50089 1.00207 0.0
C284 C 0.07644 0.49123 1.0008 0.0
C285 C 0.10582 0.52699 0.99528 0.0
C286 C 0.06878 0.52 0.99733 0.0
C287 C 0.06165 0.49882 1.00052 0.0
C288 C 0.09087 0.53424 0.99428 0.0
C289 C 0.09861 0.50553 0.99855 0.0
C290 C 0.06843 0.46943 0.00294 0.0
C291 C 0.04613 0.45573 0.00421 0.0
N292 N 0.0401 0.48544 1.00255 0.0
C293 C 0.0321 0.46401 0.00378 0.0
H294 H 0.01494 0.45319 0.00487 0.0
C295 C 0.0597 0.54642 0.99106 0.0
N296 N 0.05389 0.52639 0.99628 0.0
C297 C 0.08143 0.56118 0.98801 0.0
C298 C 0.09714 0.55515 0.98983 0.0
H299 H 0.04758 0.55114 0.98974 0.0
H300 H 0.11025 0.50004 0.99892 0.0
H301 H 0.98898 0.54236 0.03613 0.0
H302 H 0.07926 0.46298 0.0033 0.0
H303 H 0.03973 0.43879 0.0056 0.0
H304 H 0.12289 0.53774 0.99314 0.0
H305 H 0.95905 0.44698 0.05604 0.0
H306 H 0.92406 0.53103 0.03597 0.0
H307 H 0.96351 0.55586 0.03412 0.0
H308 H 0.88191 0.45686 0.04874 0.0
H309 H 0.08605 0.57719 0.98427 0.0
H310 H 0.11395 0.56659 0.98739 0.0
H311 H 0.8936 0.49385 0.0411 0.0
H312 H 0.92088 0.42063 0.06214 0.0
N313 N 0.96432 0.50994 0.03865 0.0
C314 C 0.93519 0.52497 0.03688 0.0
C315 C 0.95744 0.53904 0.03588 0.0
C316 C 0.92763 0.50336 0.03964 0.0
C317 C 0.94283 0.49631 0.04063 0.0
C318 C 0.97187 0.53126 0.03703 0.0
N319 N 0.95164 0.47002 0.04691 0.0
C320 C 0.93625 0.47559 0.04486 0.0
C321 C 0.92495 0.43598 0.05718 0.0
C322 C 0.90871 0.44102 0.05418 0.0
C323 C 0.94652 0.45092 0.05374 0.0
C324 C 0.91431 0.46121 0.04828 0.0
H325 H 0.89203 0.42949 0.05696 0.0
O326 O 0.99247 0.4878 0.06467 0.0
O327 O 0.01482 0.49415 0.02844 0.0
O328 O 0.99029 0.46691 0.00547 0.0
O329 O 0.96582 0.46687 0.02455 0.0
O330 O 0.99863 0.47186 0.04614 0.0
O331 O 0.99818 0.51934 0.05912 0.0
O332 O 0.01466 0.51068 0.97776 0.0
O333 O 0.98996 0.50149 0.01351 0.0
O334 O 0.01433 0.52946 0.03541 0.0
O335 O 0.03984 0.52706 0.01924 0.0
O336 O 0.007 0.52481 0.99661 0.0
O337 O 0.00721 0.47821 0.98214 0.0
C338 C 0.01458 0.47902 0.03614 0.0
C339 C 0.89889 0.46775 0.04636 0.0
C340 C 0.90555 0.48881 0.04203 0.0
C341 C 0.99712 0.50634 0.07045 0.0
C342 C 0.98588 0.50617 0.08543 0.0
C343 C 0.96432 0.50169 0.08494 0.0
C344 C 0.99672 0.51022 0.10042 0.0
C345 C 0.98604 0.5096 0.11495 0.0
C346 C 0.95364 0.50108 0.09928 0.0
C347 C 0.96437 0.50494 0.11421 0.0
C348 C 0.97121 0.45786 0.01283 0.0
C349 C 0.99039 0.51684 0.00602 0.0
C350 C 0.00931 0.49224 0.97132 0.0
C351 C 0.02055 0.49267 0.95627 0.0
C352 C 0.04177 0.49622 0.95669 0.0
C353 C 0.00983 0.48939 0.94129 0.0
C354 C 0.02018 0.48949 0.92672 0.0
C355 C 0.0522 0.49649 0.94231 0.0
C356 C 0.04152 0.49314 0.9274 0.0
C357 C 0.03432 0.5373 0.0298 0.0
H358 H 0.95576 0.49866 0.07353 0.0
H359 H 0.01333 0.5135 0.10079 0.0
H360 H 0.937 0.49761 0.09882 0.0
H361 H 0.9558 0.50455 0.12516 0.0
H362 H 0.05024 0.4987 0.96809 0.0
H363 H 0.99331 0.48638 0.94103 0.0
H364 H 0.06861 0.49929 0.94271 0.0
H365 H 0.05002 0.49357 0.9164 0.0
Gd366 Gd 0.49554 0.51117 0.99059 0.0
Gd367 Gd 0.51857 0.50411 0.02908 0.0
C368 C 0.5857 0.51062 0.03191 0.0
C369 C 0.57696 0.47416 0.03689 0.0
C370 C 0.54824 0.48288 0.03444 0.0
C371 C 0.5634 0.50394 0.03174 0.0
C372 C 0.55484 0.4678 0.03741 0.0
C373 C 0.59237 0.49554 0.03413 0.0
C374 C 0.60062 0.53231 0.0302 0.0
C375 C 0.59317 0.54678 0.02889 0.0
N376 N 0.55637 0.51807 0.02969 0.0
C377 C 0.57088 0.53938 0.02885 0.0
H378 H 0.56542 0.55076 0.02771 0.0
C379 C 0.51168 0.45732 0.03957 0.0
N380 N 0.52705 0.47735 0.03499 0.0
C381 C 0.51739 0.44174 0.0425 0.0
C382 C 0.53904 0.44693 0.04122 0.0
H383 H 0.49491 0.45319 0.04047 0.0
H384 H 0.60942 0.50032 0.0341 0.0
H385 H 0.44832 0.46506 0.99246 0.0
H386 H 0.61789 0.53808 0.03018 0.0
H387 H 0.60458 0.56363 0.02781 0.0
H388 H 0.58235 0.46277 0.03897 0.0
H389 H 0.51981 0.5616 0.97795 0.0
H390 H 0.39653 0.47873 0.98964 0.0
H391 H 0.40927 0.45277 0.99247 0.0
H392 H 0.43308 0.55369 0.97908 0.0
H393 H 0.5051 0.42575 0.04572 0.0
H394 H 0.54343 0.43487 0.04355 0.0
H395 H 0.4056 0.51653 0.98485 0.0
H396 H 0.51019 0.58921 0.97173 0.0
N397 N 0.45785 0.49781 0.99006 0.0
C398 C 0.41375 0.48424 0.9896 0.0
C399 C 0.42087 0.46954 0.99116 0.0
C400 C 0.42892 0.50579 0.9875 0.0
C401 C 0.45113 0.51212 0.98765 0.0
C402 C 0.44309 0.4766 0.99114 0.0
N403 N 0.48757 0.53806 0.98385 0.0
C404 C 0.46651 0.53294 0.98443 0.0
C405 C 0.49775 0.57346 0.97535 0.0
C406 C 0.47624 0.56871 0.97662 0.0
C407 C 0.50313 0.55778 0.97883 0.0
C408 C 0.46024 0.54815 0.98097 0.0
H409 H 0.47209 0.58086 0.97388 0.0
O410 O 0.50965 0.51945 0.96651 0.0
O411 O 0.52352 0.51165 0.00286 0.0
O412 O 0.52711 0.53847 0.02488 0.0
O413 O 0.50051 0.53757 0.00766 0.0
O414 O 0.53094 0.53467 0.9856 0.0
O415 O 0.48268 0.48785 0.97106 0.0
O416 O 0.50402 0.49484 0.05295 0.0
O417 O 0.49059 0.50388 0.01692 0.0
O418 O 0.4867 0.47672 0.99507 0.0
O419 O 0.51426 0.47847 0.01155 0.0
O420 O 0.48323 0.48034 0.03377 0.0
O421 O 0.5313 0.5265 0.04925 0.0
C422 C 0.53906 0.52691 0.99565 0.0
C423 C 0.43822 0.54219 0.98154 0.0
C424 C 0.42257 0.52104 0.98482 0.0
C425 C 0.49584 0.50104 0.96025 0.0
C426 C 0.48625 0.50152 0.94453 0.0
C427 C 0.46964 0.50652 0.9436 0.0
C428 C 0.49401 0.49708 0.93023 0.0
C429 C 0.48525 0.49759 0.91496 0.0
C430 C 0.46087 0.50707 0.92854 0.0
C431 C 0.46858 0.50266 0.91431 0.0
C432 C 0.51606 0.54712 0.01869 0.0
C433 C 0.47509 0.48837 0.02399 0.0
C434 C 0.51799 0.51279 0.05974 0.0
C435 C 0.52746 0.51109 0.07518 0.0
C436 C 0.54363 0.50546 0.07535 0.0
C437 C 0.51991 0.51471 0.08992 0.0
C438 C 0.52846 0.51271 0.10487 0.0
C439 C 0.55211 0.50333 0.09007 0.0
C440 C 0.54459 0.50687 0.10473 0.0
C441 C 0.49841 0.46855 1.00083 0.0
H442 H 0.4635 0.51001 0.95447 0.0
H443 H 0.50669 0.49299 0.93106 0.0
H444 H 0.44809 0.51102 0.92788 0.0
H445 H 0.46169 0.50354 0.90279 0.0
H446 H 0.54964 0.50264 0.06415 0.0
H447 H 0.50759 0.51933 0.08971 0.0
H448 H 0.56451 0.49884 0.09012 0.0
H449 H 0.55126 0.50479 0.11597 0.0
Gd450 Gd 0.17871 0.34384 0.36246 0.0
Gd451 Gd 0.16021 0.32063 0.32164 0.0
C452 C 0.09191 0.29622 0.30155 0.0
C453 C 0.07203 0.26091 0.31331 0.0
C454 C 0.11057 0.28348 0.31884 0.0
C455 C 0.11082 0.29949 0.30966 0.0
C456 C 0.09122 0.26383 0.32057 0.0
C457 C 0.07239 0.27706 0.30378 0.0
C458 C 0.09343 0.31191 0.29088 0.0
C459 C 0.11366 0.32972 0.2879 0.0
N460 N 0.12994 0.31772 0.30772 0.0
C461 C 0.13193 0.33206 0.29614 0.0
H462 H 0.14769 0.34544 0.29345 0.0
C463 C 0.13019 0.27086 0.3338 0.0
N464 N 0.1294 0.28688 0.32569 0.0
C465 C 0.11145 0.25107 0.33579 0.0
C466 C 0.09181 0.24762 0.32932 0.0
H467 H 0.14508 0.27324 0.33907 0.0
H468 H 0.05763 0.27436 0.29782 0.0
H469 H 0.22511 0.34319 0.35799 0.0
H470 H 0.07931 0.31 0.28438 0.0
H471 H 0.11522 0.3415 0.27913 0.0
H472 H 0.05696 0.24603 0.31467 0.0
H473 H 0.1568 0.37014 0.37983 0.0
H474 H 0.27811 0.4069 0.36198 0.0
H475 H 0.26435 0.36842 0.35785 0.0
H476 H 0.24353 0.44694 0.37618 0.0
H477 H 0.11214 0.23857 0.34245 0.0
H478 H 0.0773 0.23234 0.33096 0.0
H479 H 0.27011 0.43628 0.36829 0.0
H480 H 0.16734 0.40711 0.38761 0.0
N481 N 0.21649 0.367 0.36218 0.0
C482 C 0.26082 0.39585 0.36218 0.0
C483 C 0.25312 0.37414 0.35989 0.0
C484 C 0.24613 0.40294 0.36516 0.0
C485 C 0.22381 0.38787 0.36527 0.0
C486 C 0.23079 0.35985 0.35999 0.0
N487 N 0.18792 0.3785 0.37073 0.0
C488 C 0.20896 0.39387 0.36956 0.0
C489 C 0.17918 0.40366 0.38239 0.0
C490 C 0.20051 0.41998 0.38013 0.0
C491 C 0.17326 0.3828 0.37797 0.0
C492 C 0.21586 0.41509 0.37404 0.0
H493 H 0.20513 0.43609 0.38372 0.0
O494 O 0.1621 0.33482 0.38577 0.0
O495 O 0.15289 0.31685 0.34807 0.0
O496 O 0.14773 0.34343 0.32643 0.0
O497 O 0.16825 0.36446 0.3487 0.0
O498 O 0.14327 0.33201 0.36496 0.0
O499 O 0.19215 0.33501 0.3828 0.0
O500 O 0.16258 0.29816 0.30537 0.0
O501 O 0.18865 0.34271 0.33702 0.0
O502 O 0.18638 0.31749 0.35899 0.0
O503 O 0.17837 0.30526 0.33222 0.0
O504 O 0.18403 0.35425 0.31501 0.0
O505 O 0.17619 0.33091 0.29825 0.0
C506 C 0.13668 0.31701 0.35429 0.0
C507 C 0.23792 0.43048 0.37301 0.0
C508 C 0.25306 0.4244 0.36855 0.0
C509 C 0.17698 0.33231 0.39286 0.0
C510 C 0.18407 0.34199 0.40911 0.0
C511 C 0.1984 0.3639 0.41078 0.0
C512 C 0.17669 0.32917 0.42309 0.0
C513 C 0.1837 0.33818 0.43871 0.0
C514 C 0.2052 0.37297 0.42617 0.0
C515 C 0.19795 0.36027 0.44002 0.0
C516 C 0.15477 0.36025 0.33621 0.0
C517 C 0.19633 0.35864 0.32761 0.0
C518 C 0.17063 0.31177 0.29351 0.0
C519 C 0.1598 0.3053 0.27739 0.0
C520 C 0.14107 0.28536 0.27523 0.0
C521 C 0.16783 0.31945 0.26412 0.0
C522 C 0.15717 0.31384 0.24888 0.0
C523 C 0.13064 0.2796 0.26017 0.0
C524 C 0.13858 0.29364 0.24711 0.0
C525 C 0.18605 0.30533 0.34689 0.0
H526 H 0.20439 0.37397 0.40021 0.0
H527 H 0.16585 0.31218 0.42176 0.0
H528 H 0.21618 0.38992 0.42736 0.0
H529 H 0.20337 0.36783 0.4518 0.0
H530 H 0.13435 0.27419 0.28517 0.0
H531 H 0.18205 0.335 0.26578 0.0
H532 H 0.11627 0.26417 0.25861 0.0
H533 H 0.13019 0.28855 0.23555 0.0
Gd534 Gd 0.65344 0.8306 0.36947 0.0
Gd535 Gd 0.68571 0.838 0.33215 0.0
C536 C 0.74599 0.83102 0.33191 0.0
C537 C 0.77467 0.86743 0.32742 0.0
C538 C 0.7371 0.85898 0.32863 0.0
C539 C 0.73059 0.83785 0.33142 0.0
C540 C 0.75915 0.87394 0.32622 0.0
C541 C 0.7681 0.846 0.33028 0.0
C542 C 0.73866 0.80928 0.33365 0.0
C543 C 0.71645 0.79492 0.33434 0.0
N544 N 0.70909 0.82379 0.33289 0.0
C545 C 0.7018 0.80245 0.33374 0.0
H546 H 0.68471 0.79113 0.33437 0.0
C547 C 0.72699 0.88472 0.32254 0.0
N548 N 0.72168 0.86467 0.32737 0.0
C549 C 0.74867 0.90019 0.32015 0.0
C550 C 0.76486 0.89485 0.3222 0.0
H551 H 0.7145 0.8889 0.32104 0.0
H552 H 0.78018 0.8411 0.33081 0.0
H553 H 0.65331 0.87682 0.36562 0.0
H554 H 0.74997 0.8034 0.33415 0.0
H555 H 0.71059 0.77804 0.33542 0.0
H556 H 0.79172 0.87873 0.32577 0.0
H557 H 0.6261 0.78203 0.38518 0.0
H558 H 0.58771 0.86347 0.3651 0.0
H559 H 0.62697 0.88923 0.36353 0.0
H560 H 0.54736 0.78907 0.37747 0.0
H561 H 0.75287 0.9162 0.31674 0.0
H562 H 0.78164 0.90683 0.32027 0.0
H563 H 0.558 0.82587 0.36996 0.0
H564 H 0.5882 0.75482 0.39111 0.0
N565 N 0.62937 0.8441 0.36789 0.0
C566 C 0.59924 0.85789 0.36603 0.0
C567 C 0.62137 0.87247 0.3652 0.0
C568 C 0.59229 0.83638 0.36868 0.0
C569 C 0.60798 0.82996 0.36972 0.0
C570 C 0.6363 0.86532 0.3664 0.0
N571 N 0.61783 0.80443 0.37599 0.0
C572 C 0.60199 0.80937 0.37386 0.0
C573 C 0.59182 0.77005 0.38615 0.0
C574 C 0.57514 0.77442 0.38304 0.0
C575 C 0.61325 0.78548 0.3828 0.0
C576 C 0.58016 0.79447 0.37717 0.0
H577 H 0.55857 0.76252 0.38575 0.0
O578 O 0.65864 0.82313 0.39403 0.0
O579 O 0.68166 0.83048 0.35837 0.0
O580 O 0.65896 0.80358 0.33498 0.0
O581 O 0.63316 0.80205 0.3535 0.0
O582 O 0.66521 0.80759 0.37566 0.0
O583 O 0.66325 0.85431 0.38863 0.0
O584 O 0.68291 0.84809 0.30788 0.0
O585 O 0.65685 0.83724 0.34298 0.0
O586 O 0.67951 0.8651 0.36515 0.0
O587 O 0.70641 0.86383 0.35002 0.0
O588 O 0.67399 0.86115 0.32647 0.0
O589 O 0.67682 0.81598 0.31188 0.0
C590 C 0.68153 0.81535 0.36598 0.0
C591 C 0.56426 0.80036 0.37519 0.0
C592 C 0.57032 0.82131 0.37093 0.0
C593 C 0.66269 0.84145 0.39989 0.0
C594 C 0.65139 0.84082 0.41493 0.0
C595 C 0.62957 0.83546 0.41467 0.0
C596 C 0.66258 0.84541 0.42978 0.0
C597 C 0.65207 0.84455 0.44446 0.0
C598 C 0.61901 0.8346 0.42914 0.0
C599 C 0.63012 0.83906 0.44395 0.0
C600 C 0.63956 0.79373 0.34188 0.0
C601 C 0.65701 0.85248 0.33551 0.0
C602 C 0.67861 0.83005 0.30121 0.0
C603 C 0.69057 0.83147 0.28634 0.0
C604 C 0.71219 0.83621 0.28704 0.0
C605 C 0.68015 0.82802 0.27121 0.0
C606 C 0.69119 0.82915 0.25677 0.0
C607 C 0.7233 0.83748 0.27278 0.0
C608 C 0.71291 0.83397 0.25773 0.0
C609 C 0.69986 0.87357 0.36021 0.0
H610 H 0.62072 0.83194 0.40334 0.0
H611 H 0.67954 0.84984 0.42984 0.0
H612 H 0.60213 0.83035 0.42888 0.0
H613 H 0.62141 0.8379 0.45501 0.0
H614 H 0.72045 0.83886 0.29856 0.0
H615 H 0.66333 0.82409 0.27074 0.0
H616 H 0.74001 0.8412 0.2734 0.0
H617 H 0.72194 0.8352 0.24683 0.0
Gd618 Gd 0.16198 0.8472 0.3235 0.0
Gd619 Gd 0.18437 0.84028 0.36236 0.0
C620 C 0.25149 0.84688 0.36572 0.0
C621 C 0.24275 0.81045 0.37084 0.0
C622 C 0.21401 0.81911 0.36808 0.0
C623 C 0.22919 0.84018 0.3654 0.0
C624 C 0.22061 0.80407 0.37122 0.0
C625 C 0.25817 0.83182 0.36808 0.0
C626 C 0.26641 0.86858 0.36404 0.0
C627 C 0.25895 0.88303 0.36261 0.0
N628 N 0.22216 0.85429 0.36322 0.0
C629 C 0.23666 0.8756 0.36242 0.0
H630 H 0.23118 0.88696 0.3612 0.0
C631 C 0.17743 0.79357 0.37319 0.0
N632 N 0.19281 0.81356 0.36851 0.0
C633 C 0.18314 0.77804 0.37629 0.0
C634 C 0.2048 0.78323 0.3751 0.0
H635 H 0.16066 0.78946 0.37402 0.0
H636 H 0.27522 0.83663 0.36817 0.0
H637 H 0.11471 0.80114 0.32543 0.0
H638 H 0.28368 0.87437 0.36414 0.0
H639 H 0.27035 0.89988 0.36156 0.0
H640 H 0.24814 0.79909 0.37306 0.0
H641 H 0.18642 0.89738 0.31031 0.0
H642 H 0.06299 0.81478 0.32156 0.0
H643 H 0.07567 0.78887 0.32506 0.0
H644 H 0.0997 0.88954 0.31018 0.0
H645 H 0.17085 0.76208 0.37959 0.0
H646 H 0.2092 0.77119 0.37758 0.0
H647 H 0.07214 0.8525 0.31619 0.0
H648 H 0.1769 0.92487 0.30339 0.0
N649 N 0.1243 0.83386 0.32266 0.0
C650 C 0.0802 0.82029 0.32172 0.0
C651 C 0.0873 0.80562 0.32365 0.0
C652 C 0.09541 0.84181 0.31949 0.0
C653 C 0.11762 0.84813 0.3199 0.0
C654 C 0.10951 0.81267 0.32385 0.0
N655 N 0.15411 0.87398 0.31619 0.0
C656 C 0.13304 0.86889 0.31653 0.0
C657 C 0.1644 0.90921 0.30713 0.0
C658 C 0.14288 0.90449 0.30815 0.0
C659 C 0.16973 0.8936 0.31102 0.0
C660 C 0.12683 0.88403 0.31266 0.0
H661 H 0.13878 0.91659 0.30509 0.0
O662 O 0.17655 0.85523 0.29955 0.0
O663 O 0.18975 0.84775 0.33616 0.0
O664 O 0.19278 0.87465 0.35815 0.0
O665 O 0.16682 0.87385 0.34023 0.0
O666 O 0.19743 0.87073 0.31882 0.0
O667 O 0.14938 0.82374 0.30405 0.0
O668 O 0.16915 0.83109 0.38602 0.0
O669 O 0.15668 0.84014 0.34984 0.0
O670 O 0.15304 0.81277 0.32817 0.0
O671 O 0.18021 0.81444 0.34506 0.0
O672 O 0.14894 0.81656 0.36674 0.0
O673 O 0.19719 0.86236 0.38274 0.0
C674 C 0.20539 0.86303 0.32906 0.0
C675 C 0.1048 0.87809 0.31297 0.0
C676 C 0.08911 0.857 0.31639 0.0
C677 C 0.16276 0.83681 0.29329 0.0
C678 C 0.15345 0.83724 0.27743 0.0
C679 C 0.13678 0.84213 0.27622 0.0
C680 C 0.16151 0.83283 0.26328 0.0
C681 C 0.15299 0.83325 0.24789 0.0
C682 C 0.12824 0.84259 0.26104 0.0
C683 C 0.13625 0.8382 0.24696 0.0
C684 C 0.18204 0.88339 0.3515 0.0
C685 C 0.14104 0.82467 0.35681 0.0
C686 C 0.18336 0.84875 0.39304 0.0
C687 C 0.19217 0.84636 0.40858 0.0
C688 C 0.20771 0.8399 0.40891 0.0
C689 C 0.18439 0.84987 0.42327 0.0
C690 C 0.19193 0.84674 0.43832 0.0
C691 C 0.21522 0.8367 0.4237 0.0
C692 C 0.20735 0.83996 0.4383 0.0
C693 C 0.16462 0.80457 0.33413 0.0
H694 H 0.1304 0.84558 0.28698 0.0
H695 H 0.17424 0.82883 0.26432 0.0
H696 H 0.11542 0.84645 0.26016 0.0
H697 H 0.12953 0.83898 0.23533 0.0
H698 H 0.21393 0.83721 0.39777 0.0
H699 H 0.17262 0.85518 0.4229 0.0
H700 H 0.22708 0.83151 0.42386 0.0
H701 H 0.21319 0.83689 0.44956 0.0
Gd702 Gd 0.8477 0.68341 0.70161 0.0
Gd703 Gd 0.82775 0.65541 0.6618 0.0
C704 C 0.76086 0.59657 0.65553 0.0
C705 C 0.76987 0.56894 0.65005 0.0
C706 C 0.79843 0.60555 0.65436 0.0
C707 C 0.78313 0.61166 0.65676 0.0
C708 C 0.79202 0.58423 0.65057 0.0
C709 C 0.75431 0.5751 0.65255 0.0
C710 C 0.74587 0.60362 0.65689 0.0
C711 C 0.75327 0.62532 0.65882 0.0
N712 N 0.79004 0.63255 0.65949 0.0
C713 C 0.77554 0.63968 0.65986 0.0
H714 H 0.78096 0.65637 0.66142 0.0
C715 C 0.8353 0.61605 0.65044 0.0
N716 N 0.81965 0.62074 0.65483 0.0
C717 C 0.82977 0.59511 0.64668 0.0
C718 C 0.80805 0.57906 0.64695 0.0
H719 H 0.85212 0.6284 0.65032 0.0
H720 H 0.73728 0.56324 0.65174 0.0
H721 H 0.89476 0.68285 0.70008 0.0
H722 H 0.72862 0.59253 0.6561 0.0
H723 H 0.74184 0.631 0.65957 0.0
H724 H 0.76461 0.55243 0.64732 0.0
H725 H 0.82472 0.70968 0.71718 0.0
H726 H 0.94716 0.74684 0.70359 0.0
H727 H 0.93385 0.70833 0.70032 0.0
H728 H 0.91159 0.78655 0.71573 0.0
H729 H 0.84225 0.59135 0.64359 0.0
H730 H 0.80379 0.56286 0.64398 0.0
H731 H 0.93866 0.77606 0.70903 0.0
H732 H 0.83476 0.74656 0.72465 0.0
N733 N 0.88561 0.70655 0.70275 0.0
C734 C 0.9299 0.73569 0.70352 0.0
C735 C 0.92245 0.71397 0.70172 0.0
C736 C 0.91498 0.74265 0.70582 0.0
C737 C 0.89268 0.72745 0.70552 0.0
C738 C 0.90015 0.69952 0.70162 0.0
N739 N 0.85651 0.71793 0.70982 0.0
C740 C 0.87758 0.73336 0.70915 0.0
C741 C 0.84697 0.74311 0.7202 0.0
C742 C 0.86842 0.75945 0.7186 0.0
C743 C 0.84134 0.72226 0.71599 0.0
C744 C 0.88415 0.7546 0.71335 0.0
H745 H 0.87279 0.77557 0.72195 0.0
O746 O 0.83163 0.67602 0.72508 0.0
O747 O 0.82083 0.65713 0.68784 0.0
O748 O 0.81914 0.68143 0.66518 0.0
O749 O 0.84081 0.70486 0.68593 0.0
O750 O 0.81222 0.67241 0.70494 0.0
O751 O 0.85886 0.67122 0.72127 0.0
O752 O 0.8446 0.66185 0.63874 0.0
O753 O 0.85424 0.68231 0.67536 0.0
O754 O 0.85682 0.65794 0.69697 0.0
O755 O 0.83128 0.63313 0.67898 0.0
O756 O 0.86342 0.6668 0.65893 0.0
O757 O 0.81674 0.66612 0.64109 0.0
C758 C 0.80489 0.65726 0.69435 0.0
C759 C 0.90622 0.77008 0.71276 0.0
C760 C 0.92163 0.76411 0.70897 0.0
C761 C 0.8449 0.67074 0.73168 0.0
C762 C 0.85342 0.67978 0.74788 0.0
C763 C 0.86893 0.70137 0.74963 0.0
C764 C 0.84598 0.66673 0.76172 0.0
C765 C 0.85405 0.67518 0.77733 0.0
C766 C 0.8769 0.70988 0.765 0.0
C767 C 0.86955 0.69697 0.77874 0.0
C768 C 0.82752 0.69975 0.67326 0.0
C769 C 0.87043 0.6826 0.66893 0.0
C770 C 0.83137 0.66659 0.63134 0.0
C771 C 0.82395 0.65722 0.61506 0.0
C772 C 0.80897 0.63549 0.61322 0.0
C773 C 0.83235 0.67006 0.60118 0.0
C774 C 0.82604 0.66118 0.58548 0.0
C775 C 0.80255 0.62662 0.59772 0.0
C776 C 0.81104 0.6393 0.58395 0.0
C777 C 0.84615 0.63858 0.69052 0.0
H778 H 0.87488 0.71161 0.73914 0.0
H779 H 0.83417 0.64999 0.76028 0.0
H780 H 0.8888 0.7266 0.76628 0.0
H781 H 0.87582 0.70414 0.79052 0.0
H782 H 0.8023 0.6254 0.62372 0.0
H783 H 0.84407 0.68683 0.60263 0.0
H784 H 0.79096 0.60982 0.59638 0.0
H785 H 0.80564 0.63202 0.57208 0.0
Gd786 Gd 0.32155 0.16218 0.70009 0.0
Gd787 Gd 0.3532 0.16821 0.66277 0.0
C788 C 0.413 0.16038 0.66294 0.0
C789 C 0.44197 0.19656 0.65808 0.0
C790 C 0.40453 0.18855 0.65915 0.0
C791 C 0.3978 0.16745 0.66227 0.0
C792 C 0.42664 0.20329 0.65667 0.0
C793 C 0.43516 0.17514 0.66121 0.0
C794 C 0.40543 0.13864 0.66497 0.0
C795 C 0.38317 0.1245 0.66576 0.0
N796 N 0.37626 0.15363 0.66383 0.0
C797 C 0.36873 0.13227 0.66497 0.0
H798 H 0.3516 0.12112 0.66567 0.0
C799 C 0.39483 0.21448 0.65269 0.0
N800 N 0.38928 0.19444 0.65772 0.0
C801 C 0.41656 0.22973 0.65024 0.0
C802 C 0.43258 0.22418 0.65243 0.0
H803 H 0.38247 0.21884 0.65109 0.0
H804 H 0.4471 0.17005 0.66189 0.0
H805 H 0.32068 0.20785 0.69604 0.0
H806 H 0.41658 0.13258 0.66562 0.0
H807 H 0.37712 0.10761 0.66706 0.0
H808 H 0.45906 0.20768 0.65637 0.0
H809 H 0.29484 0.11264 0.71452 0.0
H810 H 0.25475 0.19363 0.69674 0.0
H811 H 0.29383 0.21976 0.6944 0.0
H812 H 0.21557 0.11925 0.70937 0.0
H813 H 0.42095 0.24573 0.64666 0.0
H814 H 0.4494 0.23599 0.65044 0.0
H815 H 0.22557 0.15593 0.70204 0.0
H816 H 0.25723 0.08522 0.72089 0.0
N817 N 0.2971 0.17513 0.69882 0.0
C818 C 0.26648 0.18829 0.69748 0.0
C819 C 0.28852 0.20309 0.6962 0.0
C820 C 0.2599 0.16688 0.70023 0.0
C821 C 0.27584 0.16076 0.70099 0.0
C822 C 0.30372 0.19624 0.69713 0.0
N823 N 0.28623 0.13539 0.70666 0.0
C824 C 0.27021 0.1402 0.70506 0.0
C825 C 0.26064 0.10058 0.71637 0.0
C826 C 0.2438 0.10494 0.714 0.0
C827 C 0.28192 0.11616 0.71278 0.0
C828 C 0.24851 0.12506 0.70853 0.0
H829 H 0.22734 0.09286 0.71682 0.0
O830 O 0.32677 0.15521 0.7248 0.0
O831 O 0.3495 0.16141 0.6891 0.0
O832 O 0.32618 0.13396 0.66661 0.0
O833 O 0.30024 0.13503 0.68334 0.0
O834 O 0.33306 0.13901 0.70663 0.0
O835 O 0.33125 0.18628 0.71893 0.0
O836 O 0.35082 0.17762 0.63815 0.0
O837 O 0.32506 0.1687 0.67363 0.0
O838 O 0.34773 0.19654 0.6954 0.0
O839 O 0.37419 0.19435 0.68035 0.0
O840 O 0.34185 0.19156 0.65642 0.0
O841 O 0.34309 0.1452 0.6431 0.0
C842 C 0.34932 0.14641 0.69692 0.0
C843 C 0.23238 0.13072 0.70695 0.0
C844 C 0.23807 0.1516 0.70278 0.0
C845 C 0.33075 0.17365 0.73039 0.0
C846 C 0.3195 0.17331 0.74539 0.0
C847 C 0.29767 0.16793 0.74509 0.0
C848 C 0.33072 0.17817 0.76024 0.0
C849 C 0.32023 0.17756 0.77488 0.0
C850 C 0.28714 0.16732 0.75951 0.0
C851 C 0.29827 0.17204 0.77432 0.0
C852 C 0.3062 0.12545 0.67246 0.0
C853 C 0.32526 0.18374 0.66584 0.0
C854 C 0.34566 0.15908 0.632 0.0
C855 C 0.35745 0.15926 0.61734 0.0
C856 C 0.3783 0.16189 0.61845 0.0
C857 C 0.34765 0.15664 0.60204 0.0
C858 C 0.3585 0.1564 0.58784 0.0
C859 C 0.38921 0.16181 0.60443 0.0
C860 C 0.3794 0.15904 0.58921 0.0
C861 C 0.36802 0.20452 0.69045 0.0
H862 H 0.28879 0.16419 0.73378 0.0
H863 H 0.34768 0.18261 0.76033 0.0
H864 H 0.27025 0.16305 0.75922 0.0
H865 H 0.28957 0.17105 0.78534 0.0
H866 H 0.38609 0.16391 0.63009 0.0
H867 H 0.33144 0.15439 0.60122 0.0
H868 H 0.40531 0.16387 0.60537 0.0
H869 H 0.38825 0.15916 0.5785 0.0
Gd870 Gd 0.83053 0.17872 0.65779 0.0
Gd871 Gd 0.85451 0.1733 0.69634 0.0
C872 C 0.92181 0.18015 0.69895 0.0
C873 C 0.91333 0.14402 0.70506 0.0
C874 C 0.88447 0.15252 0.70237 0.0
C875 C 0.89949 0.17342 0.699 0.0
C876 C 0.8912 0.13765 0.70578 0.0
C877 C 0.92861 0.16524 0.70164 0.0
C878 C 0.93662 0.20174 0.69656 0.0
C879 C 0.92907 0.21608 0.69483 0.0
N880 N 0.89234 0.18738 0.6965 0.0
C881 C 0.90678 0.20863 0.69504 0.0
H882 H 0.90125 0.21992 0.69358 0.0
C883 C 0.84807 0.12714 0.70818 0.0
N884 N 0.86329 0.14696 0.70306 0.0
C885 C 0.85392 0.11178 0.71158 0.0
C886 C 0.87555 0.11697 0.71019 0.0
H887 H 0.8313 0.12302 0.70915 0.0
H888 H 0.94566 0.17007 0.70146 0.0
H889 H 0.78325 0.13289 0.66092 0.0
H890 H 0.95389 0.20754 0.69636 0.0
H891 H 0.9404 0.23286 0.69324 0.0
H892 H 0.91882 0.13279 0.70749 0.0
H893 H 0.85474 0.22863 0.64395 0.0
H894 H 0.73162 0.14673 0.65765 0.0
H895 H 0.74424 0.12078 0.66121 0.0
H896 H 0.76822 0.22118 0.64519 0.0
H897 H 0.84174 0.09594 0.71524 0.0
H898 H 0.88006 0.10506 0.71288 0.0
H899 H 0.74075 0.18434 0.65186 0.0
H900 H 0.84515 0.25606 0.63704 0.0
N901 N 0.79287 0.16555 0.65768 0.0
C902 C 0.74881 0.15216 0.65751 0.0
C903 C 0.75587 0.13746 0.65948 0.0
C904 C 0.76401 0.17359 0.65487 0.0
C905 C 0.7862 0.17982 0.6549 0.0
C906 C 0.77806 0.14442 0.6593 0.0
N907 N 0.8226 0.20547 0.65046 0.0
C908 C 0.80158 0.20047 0.65115 0.0
C909 C 0.83274 0.24051 0.64105 0.0
C910 C 0.81129 0.23591 0.64242 0.0
C911 C 0.83811 0.22493 0.64494 0.0
C912 C 0.79532 0.21558 0.64729 0.0
H913 H 0.80715 0.24798 0.63936 0.0
O914 O 0.84425 0.18578 0.63356 0.0
O915 O 0.8588 0.17955 0.66991 0.0
O916 O 0.86295 0.20743 0.69122 0.0
O917 O 0.83579 0.20576 0.67424 0.0
O918 O 0.86578 0.20197 0.6522 0.0
O919 O 0.81673 0.15475 0.63874 0.0
O920 O 0.84109 0.16504 0.72063 0.0
O921 O 0.82624 0.17249 0.68426 0.0
O922 O 0.82172 0.14447 0.66308 0.0
O923 O 0.84956 0.14676 0.67952 0.0
O924 O 0.81927 0.14985 0.7018 0.0
O925 O 0.86726 0.19694 0.71564 0.0
C926 C 0.87414 0.19454 0.66233 0.0
C927 C 0.77334 0.20974 0.64797 0.0
C928 C 0.7577 0.18878 0.65177 0.0
C929 C 0.82988 0.16735 0.62766 0.0
C930 C 0.82016 0.16775 0.61199 0.0
C931 C 0.80372 0.173 0.61111 0.0
C932 C 0.82779 0.16324 0.59767 0.0
C933 C 0.81923 0.16409 0.5824 0.0
C934 C 0.79508 0.17382 0.59607 0.0
C935 C 0.80277 0.16948 0.58181 0.0
C936 C 0.8516 0.21575 0.68501 0.0
C937 C 0.8109 0.15741 0.69179 0.0
C938 C 0.85474 0.18365 0.72668 0.0
C939 C 0.86511 0.18361 0.74214 0.0
C940 C 0.88276 0.1801 0.74247 0.0
C941 C 0.85719 0.18706 0.75676 0.0
C942 C 0.86692 0.18716 0.77172 0.0
C943 C 0.89243 0.18008 0.75723 0.0
C944 C 0.88462 0.1836 0.77177 0.0
C945 C 0.83346 0.13645 0.66905 0.0
H946 H 0.79766 0.17652 0.622 0.0
H947 H 0.84032 0.15894 0.59849 0.0
H948 H 0.78247 0.17801 0.59545 0.0
H949 H 0.79606 0.1707 0.5703 0.0
H950 H 0.88906 0.1774 0.73135 0.0
H951 H 0.84367 0.18998 0.75644 0.0
H952 H 0.90603 0.1773 0.75742 0.0
H953 H 0.8923 0.1833 0.78307 0.0
C954 C 0.30651 0.84832 0.08335 0.0
C955 C 0.28962 0.83518 0.07263 0.0
C956 C 0.32584 0.86521 0.07745 0.0
C957 C 0.35932 0.88472 0.04053 0.0
H958 H 0.38605 0.93893 0.06322 0.0
C959 C 0.44734 0.95309 0.02922 0.0
C960 C 0.45078 0.97392 0.0293 0.0
C961 C 0.42694 0.93588 0.03296 0.0
C962 C 0.37871 0.92395 0.05665 0.0
H963 H 0.27974 0.82992 0.04729 0.0
H964 H 0.31352 0.85924 0.03703 0.0
H965 H 0.35195 0.90966 0.07303 0.0
H966 H 0.43587 0.99322 0.03341 0.0
H967 H 0.40022 0.96321 0.0399 0.0
H968 H 0.38618 0.89916 0.02411 0.0
C969 C 0.3119 0.85628 0.04998 0.0
C970 C 0.35929 0.9071 0.06239 0.0
C971 C 0.29253 0.83946 0.05588 0.0
C972 C 0.43351 0.97726 0.0331 0.0
C973 C 0.41318 0.96011 0.0369 0.0
C974 C 0.37887 0.90158 0.03483 0.0
C975 C 0.32879 0.86934 0.06069 0.0
C976 C 0.34938 0.88727 0.05443 0.0
C977 C 0.40976 0.93927 0.03717 0.0
C978 C 0.38876 0.92139 0.04284 0.0
H979 H 0.30498 0.84531 0.0963 0.0
H980 H 0.33866 0.87482 0.08601 0.0
H981 H 0.35217 0.86959 0.03419 0.0
H982 H 0.46054 0.95015 0.02678 0.0
H983 H 0.42487 0.92004 0.03323 0.0
C984 C 0.17982 0.47154 0.06915 0.0
C985 C 0.17597 0.45258 0.07668 0.0
C986 C 0.16256 0.47447 0.0644 0.0
C987 C 0.10342 0.45307 0.07125 0.0
H988 H 0.10758 0.4846 0.03214 0.0
C989 C 0.02987 0.45606 0.04424 0.0
C990 C 0.03338 0.47602 0.03921 0.0
C991 C 0.04734 0.45319 0.04834 0.0
C992 C 0.10624 0.47589 0.04316 0.0
H993 H 0.15086 0.42164 0.08481 0.0
H994 H 0.12079 0.42647 0.07628 0.0
H995 H 0.13771 0.47942 0.04006 0.0
H996 H 0.05788 0.50895 0.03549 0.0
H997 H 0.08848 0.50389 0.04229 0.0
H998 H 0.0718 0.44928 0.07417 0.0
C999 C 0.13714 0.4394 0.07439 0.0
C1000 C 0.12356 0.47296 0.04776 0.0
C1001 C 0.15441 0.43657 0.07927 0.0
C1002 C 0.05471 0.49321 0.03874 0.0
C1003 C 0.07223 0.49032 0.04272 0.0
C1004 C 0.08606 0.45583 0.06657 0.0
C1005 C 0.14093 0.45842 0.06692 0.0
C1006 C 0.12243 0.46152 0.0619 0.0
C1007 C 0.06874 0.47028 0.04765 0.0
C1008 C 0.08725 0.46729 0.05249 0.0
H1009 H 0.19624 0.4843 0.06714 0.0
H1010 H 0.16624 0.48948 0.05898 0.0
H1011 H 0.10201 0.44457 0.08239 0.0
H1012 H 0.01356 0.44263 0.04498 0.0
H1013 H 0.04408 0.43753 0.05202 0.0
C1014 C 0.57834 0.73301 0.05383 0.0
C1015 C 0.57204 0.73659 0.06915 0.0
C1016 C 0.57113 0.71231 0.04828 0.0
C1017 C 0.55061 0.65776 0.06288 0.0
H1018 H 0.53292 0.64214 0.01798 0.0
C1019 C 0.53981 0.58044 0.03443 0.0
C1020 C 0.5217 0.5687 0.0243 0.0
C1021 C 0.54512 0.60072 0.03987 0.0
C1022 C 0.53765 0.64622 0.03058 0.0
H1023 H 0.55283 0.7212 0.09048 0.0
H1024 H 0.54037 0.68504 0.08081 0.0
H1025 H 0.54324 0.67791 0.02757 0.0
H1026 H 0.49469 0.56901 0.01224 0.0
H1027 H 0.50413 0.60455 0.02163 0.0
H1028 H 0.54494 0.62608 0.06593 0.0
C1029 C 0.55109 0.69828 0.0732 0.0
C1030 C 0.54377 0.66675 0.03603 0.0
C1031 C 0.55826 0.71899 0.07874 0.0
C1032 C 0.50897 0.57773 0.01979 0.0
C1033 C 0.51435 0.59809 0.02518 0.0
C1034 C 0.5446 0.63728 0.05742 0.0
C1035 C 0.5575 0.69472 0.05793 0.0
C1036 C 0.5504 0.67276 0.05222 0.0
C1037 C 0.53245 0.60977 0.03533 0.0
C1038 C 0.53818 0.63133 0.0412 0.0
H1039 H 0.58922 0.74622 0.04625 0.0
H1040 H 0.57661 0.71008 0.03656 0.0
H1041 H 0.55583 0.66196 0.07539 0.0
H1042 H 0.55001 0.57403 0.03815 0.0
H1043 H 0.55932 0.60944 0.04751 0.0
C1044 C 0.8364 0.28983 0.94955 0.0
C1045 C 0.82982 0.27156 0.95909 0.0
C1046 C 0.85099 0.31005 0.95568 0.0
C1047 C 0.89173 0.33655 0.98889 0.0
H1048 H 0.88932 0.3864 0.97495 0.0
C1049 C 0.94275 0.42018 0.01806 0.0
C1050 C 0.95471 0.43662 0.00705 0.0
C1051 C 0.92711 0.40005 0.01245 0.0
C1052 C 0.89018 0.37259 0.97889 0.0
H1053 H 0.83344 0.26056 0.9828 0.0
H1054 H 0.85756 0.29567 0.99376 0.0
H1055 H 0.86207 0.35126 0.96513 0.0
H1056 H 0.95986 0.44515 0.98161 0.0
H1057 H 0.93208 0.41 0.97176 0.0
H1058 H 0.91951 0.35803 0.00304 0.0
C1059 C 0.85206 0.2944 0.98132 0.0
C1060 C 0.87466 0.35244 0.9732 0.0
C1061 C 0.83779 0.27417 0.9751 0.0
C1062 C 0.95081 0.43267 0.99032 0.0
C1063 C 0.93487 0.41267 0.98471 0.0
C1064 C 0.90698 0.35665 0.9948 0.0
C1065 C 0.85914 0.31263 0.97163 0.0
C1066 C 0.87529 0.33412 0.97803 0.0
C1067 C 0.92295 0.39617 0.99573 0.0
C1068 C 0.90643 0.37485 0.98976 0.0
H1069 H 0.83038 0.28856 0.93726 0.0
H1070 H 0.85619 0.32359 0.94773 0.0
H1071 H 0.89315 0.323 0.99263 0.0
H1072 H 0.94582 0.42271 0.03097 0.0
H1073 H 0.91814 0.38756 0.02118 0.0
C1074 C 0.70864 0.52957 0.96139 0.0
C1075 C 0.72461 0.54858 0.9543 0.0
C1076 C 0.68889 0.52742 0.96646 0.0
C1077 C 0.6535 0.55136 0.9611 0.0
H1078 H 0.62524 0.51882 0.99967 0.0
C1079 C 0.57796 0.54959 0.98841 0.0
C1080 C 0.56084 0.52962 0.993 0.0
C1081 C 0.59821 0.55215 0.98444 0.0
C1082 C 0.63287 0.52783 0.98881 0.0
H1083 H 0.73239 0.58039 0.94726 0.0
H1084 H 0.69817 0.57683 0.95631 0.0
H1085 H 0.66003 0.52298 0.99135 0.0
H1086 H 0.5512 0.49642 0.99625 0.0
H1087 H 0.58669 0.50092 0.98966 0.0
H1088 H 0.62641 0.55637 0.95868 0.0
C1089 C 0.70064 0.56333 0.95763 0.0
C1090 C 0.65281 0.53018 0.98398 0.0
C1091 C 0.72033 0.56542 0.95245 0.0
C1092 C 0.56428 0.51215 0.99331 0.0
C1093 C 0.5846 0.51472 0.98946 0.0
C1094 C 0.63367 0.54914 0.96599 0.0
C1095 C 0.68458 0.54427 0.96468 0.0
C1096 C 0.66341 0.54194 0.97001 0.0
C1097 C 0.60177 0.53473 0.98483 0.0
C1098 C 0.62307 0.53731 0.97987 0.0
H1099 H 0.71128 0.51619 0.9628 0.0
H1100 H 0.67685 0.51236 0.97153 0.0
H1101 H 0.66084 0.56017 0.95011 0.0
H1102 H 0.57562 0.56324 0.98782 0.0
H1103 H 0.61111 0.56779 0.98103 0.0
C1104 C 0.44443 0.15774 0.94449 0.0
C1105 C 0.43587 0.16622 0.9557 0.0
C1106 C 0.44952 0.14225 0.94927 0.0
C1107 C 0.44156 0.10435 0.98271 0.0
H1108 H 0.49451 0.10911 0.96571 0.0
C1109 C 0.48409 0.06202 0.01132 0.0
C1110 C 0.48963 0.05058 1.00048 0.0
C1111 C 0.47706 0.07566 0.00548 0.0
C1112 C 0.47961 0.10753 0.97046 0.0
H1113 H 0.42492 0.16418 0.98055 0.0
H1114 H 0.4347 0.13805 0.98905 0.0
H1115 H 0.4823 0.13313 0.95597 0.0
H1116 H 0.49244 0.04445 0.97509 0.0
H1117 H 0.48054 0.06863 0.96483 0.0
H1118 H 0.4394 0.07917 0.99761 0.0
C1119 C 0.4372 0.14304 0.97648 0.0
C1120 C 0.47251 0.12118 0.96482 0.0
C1121 C 0.43187 0.15831 0.97165 0.0
C1122 C 0.48827 0.05315 0.9837 0.0
C1123 C 0.48158 0.06702 0.97784 0.0
C1124 C 0.44885 0.09092 0.98851 0.0
C1125 C 0.44638 0.13501 0.96541 0.0
C1126 C 0.45341 0.11982 0.9709 0.0
C1127 C 0.47572 0.07825 0.98868 0.0
C1128 C 0.46796 0.09243 0.98247 0.0
H1129 H 0.44785 0.16353 0.93213 0.0
H1130 H 0.45617 0.13614 0.94032 0.0
H1131 H 0.42657 0.10253 0.98746 0.0
H1132 H 0.48444 0.05992 0.02427 0.0
H1133 H 0.47268 0.08419 0.01408 0.0
C1134 C 0.71604 0.15877 0.95631 0.0
C1135 C 0.73027 0.16957 0.96919 0.0
C1136 C 0.69423 0.14415 0.95944 0.0
C1137 C 0.65193 0.12573 0.99173 0.0
H1138 H 0.62693 0.0725 0.96782 0.0
C1139 C 0.5775 0.03331 0.99653 0.0
C1140 C 0.5601 0.03635 1.00046 0.0
C1141 C 0.59769 0.05062 0.99273 0.0
C1142 C 0.63371 0.08723 0.97468 0.0
H1143 H 0.73334 0.17418 0.99523 0.0
H1144 H 0.69548 0.1485 1.00079 0.0
H1145 H 0.66289 0.10112 0.96084 0.0
H1146 H 0.54982 0.05973 0.00308 0.0
H1147 H 0.58528 0.09021 0.99644 0.0
H1148 H 0.62296 0.11139 0.00599 0.0
C1149 C 0.70077 0.15143 0.98828 0.0
C1150 C 0.65423 0.10379 0.97051 0.0
C1151 C 0.72248 0.16603 0.98513 0.0
C1152 C 0.56317 0.05705 1.00046 0.0
C1153 C 0.58343 0.07445 0.99663 0.0
C1154 C 0.63138 0.10911 0.99594 0.0
C1155 C 0.68639 0.14007 0.9755 0.0
C1156 C 0.66375 0.12317 0.9791 0.0
C1157 C 0.60085 0.07138 0.9925 0.0
C1158 C 0.62217 0.08955 0.9876 0.0
H1159 H 0.72185 0.16135 0.94392 0.0
H1160 H 0.68355 0.1359 0.94929 0.0
H1161 H 0.65865 0.14053 0.99848 0.0
H1162 H 0.57543 0.01745 0.99632 0.0
H1163 H 0.61083 0.04771 0.98991 0.0
C1164 C 0.82315 0.51641 0.96696 0.0
C1165 C 0.82548 0.53652 0.96424 0.0
C1166 C 0.84123 0.51433 0.97056 0.0
C1167 C 0.8973 0.54543 0.98691 0.0
H1168 H 0.9015 0.49666 0.97246 0.0
C1169 C 0.97424 0.53876 0.99704 0.0
C1170 C 0.97128 0.51899 1.00203 0.0
C1171 C 0.95649 0.5409 0.9924 0.0
C1172 C 0.90046 0.51026 0.97674 0.0
H1173 H 0.8483 0.57024 0.96285 0.0
H1174 H 0.88016 0.56672 0.96872 0.0
H1175 H 0.87109 0.50072 0.96346 0.0
H1176 H 0.94762 0.48567 0.00524 0.0
H1177 H 0.91651 0.48936 0.99721 0.0
H1178 H 0.92677 0.55499 1.00012 0.0
C1179 C 0.86437 0.55249 0.96832 0.0
C1180 C 0.88301 0.51262 0.97157 0.0
C1181 C 0.8462 0.55454 0.96475 0.0
C1182 C 0.95029 0.50121 1.00183 0.0
C1183 C 0.93253 0.5033 0.99705 0.0
C1184 C 0.9148 0.54311 0.99202 0.0
C1185 C 0.86209 0.53237 0.97156 0.0
C1186 C 0.88113 0.53022 0.9766 0.0
C1187 C 0.93541 0.5232 0.9923 0.0
C1188 C 0.9166 0.52549 0.98702 0.0
H1189 H 0.80721 0.50233 0.96687 0.0
H1190 H 0.83869 0.49862 0.97319 0.0
H1191 H 0.89625 0.55896 0.99133 0.0
H1192 H 0.99032 0.55262 0.99681 0.0
H1193 H 0.95936 0.55637 0.98857 0.0
C1194 C 0.47231 0.29224 0.96988 0.0
C1195 C 0.45102 0.27686 0.96591 0.0
C1196 C 0.47791 0.31351 0.97167 0.0
C1197 C 0.46125 0.35311 0.9631 0.0
H1198 H 0.49239 0.37905 0.00309 0.0
C1199 C 0.47351 0.43342 0.9876 0.0
C1200 C 0.4933 0.44712 0.99536 0.0
C1201 C 0.46855 0.41292 0.9829 0.0
C1202 C 0.48401 0.37222 0.99174 0.0
H1203 H 0.41892 0.27118 0.96011 0.0
H1204 H 0.4287 0.30868 0.96314 0.0
H1205 H 0.48379 0.34307 0.99611 0.0
H1206 H 0.52379 0.45041 0.00365 0.0
H1207 H 0.51534 0.41495 0.99524 0.0
H1208 H 0.46162 0.3824 0.95869 0.0
C1209 C 0.44111 0.30435 0.96477 0.0
C1210 C 0.47904 0.35157 0.98776 0.0
C1211 C 0.4355 0.28298 0.96306 0.0
C1212 C 0.50823 0.44011 0.99797 0.0
C1213 C 0.50335 0.41973 0.99317 0.0
C1214 C 0.46639 0.37391 0.96702 0.0
C1215 C 0.46225 0.31971 0.96952 0.0
C1216 C 0.46766 0.3418 0.9734 0.0
C1217 C 0.48336 0.40578 0.98575 0.0
C1218 C 0.47786 0.38372 0.98139 0.0
H1219 H 0.48445 0.28769 0.97218 0.0
H1220 H 0.49437 0.32506 0.97512 0.0
H1221 H 0.45254 0.34597 0.95191 0.0
H1222 H 0.46165 0.43835 0.98543 0.0
H1223 H 0.45291 0.40253 0.97738 0.0
C1224 C 0.1749 0.72049 0.05636 0.0
C1225 C 0.19017 0.72382 0.06844 0.0
C1226 C 0.15641 0.70049 0.05444 0.0
C1227 C 0.13773 0.64396 0.06214 0.0
H1228 H 0.08242 0.63621 0.04752 0.0
C1229 C 0.07319 0.56609 0.03195 0.0
C1230 C 0.05128 0.55859 0.03554 0.0
C1231 C 0.08924 0.58611 0.03737 0.0
C1232 C 0.09767 0.63804 0.05177 0.0
H1233 H 0.19823 0.70956 0.08834 0.0
H1234 H 0.16563 0.67454 0.08526 0.0
H1235 H 0.11122 0.67156 0.05553 0.0
H1236 H 0.02913 0.56621 0.04794 0.0
H1237 H 0.05721 0.60102 0.05761 0.0
H1238 H 0.12417 0.61046 0.0585 0.0
C1239 C 0.16795 0.68721 0.07711 0.0
C1240 C 0.11427 0.65836 0.05621 0.0
C1241 C 0.18647 0.70724 0.079 0.0
C1242 C 0.04583 0.57152 0.04486 0.0
C1243 C 0.06192 0.59155 0.05033 0.0
C1244 C 0.12114 0.62367 0.05774 0.0
C1245 C 0.15293 0.68346 0.06456 0.0
C1246 C 0.1346 0.66162 0.06124 0.0
C1247 C 0.08383 0.59909 0.04665 0.0
C1248 C 0.101 0.62049 0.05227 0.0
H1249 H 0.17768 0.7331 0.04798 0.0
H1250 H 0.14539 0.69815 0.04452 0.0
H1251 H 0.15324 0.64589 0.06578 0.0
H1252 H 0.07804 0.55647 0.02501 0.0
H1253 H 0.1059 0.5915 0.03412 0.0
C1254 C 0.29093 0.44431 0.06427 0.0
C1255 C 0.28738 0.46165 0.06474 0.0
C1256 C 0.31147 0.44736 0.06036 0.0
C1257 C 0.36159 0.48489 0.03857 0.0
H1258 H 0.38619 0.45438 0.06025 0.0
C1259 C 0.44958 0.50274 0.02689 0.0
C1260 C 0.45325 0.48541 0.0268 0.0
C1261 C 0.42926 0.49989 0.03118 0.0
C1262 C 0.37946 0.46283 0.05389 0.0
H1263 H 0.30217 0.4957 0.06173 0.0
H1264 H 0.33808 0.50118 0.05513 0.0
H1265 H 0.35128 0.44934 0.06899 0.0
H1266 H 0.43877 0.45168 0.03136 0.0
H1267 H 0.40324 0.44653 0.03853 0.0
H1268 H 0.38966 0.49823 0.02335 0.0
C1269 C 0.32513 0.4852 0.05764 0.0
C1270 C 0.35942 0.45996 0.05896 0.0
C1271 C 0.30466 0.48212 0.06161 0.0
C1272 C 0.43629 0.46525 0.03117 0.0
C1273 C 0.41599 0.46237 0.03541 0.0
C1274 C 0.3816 0.48769 0.03344 0.0
C1275 C 0.32874 0.46782 0.05669 0.0
C1276 C 0.35021 0.47097 0.05139 0.0
C1277 C 0.41223 0.47968 0.03567 0.0
C1278 C 0.39083 0.47669 0.04103 0.0
H1279 H 0.2777 0.42832 0.06638 0.0
H1280 H 0.31358 0.43359 0.05961 0.0
H1281 H 0.35484 0.49337 0.03226 0.0
H1282 H 0.46254 0.51857 0.024 0.0
H1283 H 0.42711 0.51366 0.03142 0.0
C1284 C 0.58652 0.85965 0.06819 0.0
C1285 C 0.57417 0.83888 0.06219 0.0
C1286 C 0.57907 0.87413 0.06637 0.0
C1287 C 0.53039 0.87825 0.05567 0.0
H1288 H 0.57314 0.93455 0.04103 0.0
C1289 C 0.50775 0.93684 0.02571 0.0
C1290 C 0.52018 0.9584 0.03018 0.0
C1291 C 0.51369 0.92211 0.03095 0.0
C1292 C 0.56104 0.91899 0.0453 0.0
H1293 H 0.54447 0.81645 0.04998 0.0
H1294 H 0.53147 0.84166 0.0466 0.0
H1295 H 0.58455 0.9092 0.04861 0.0
H1296 H 0.54831 0.98124 0.04403 0.0
H1297 H 0.55851 0.9556 0.05317 0.0
H1298 H 0.50682 0.88802 0.05199 0.0
C1299 C 0.54664 0.84686 0.05296 0.0
C1300 C 0.56759 0.90446 0.04971 0.0
C1301 C 0.55408 0.83243 0.05483 0.0
C1302 C 0.53843 0.96481 0.04023 0.0
C1303 C 0.54438 0.95013 0.04542 0.0
C1304 C 0.52382 0.89278 0.05119 0.0
C1305 C 0.55924 0.86801 0.05843 0.0
C1306 C 0.55234 0.88386 0.05485 0.0
C1307 C 0.53218 0.92864 0.04077 0.0
C1308 C 0.53907 0.91327 0.04588 0.0
H1309 H 0.60215 0.86486 0.07384 0.0
H1310 H 0.58903 0.8902 0.07092 0.0
H1311 H 0.51826 0.86261 0.05977 0.0
H1312 H 0.49341 0.93129 0.01819 0.0
H1313 H 0.50404 0.90567 0.02708 0.0
C1314 C 0.96537 0.17791 0.40811 0.0
C1315 C 0.94658 0.17395 0.39965 0.0
C1316 C 0.98581 0.19288 0.40233 0.0
C1317 C 0.01379 0.22387 0.36514 0.0
H1318 H 0.06029 0.25627 0.39587 0.0
C1319 C 0.09676 0.29937 0.35052 0.0
C1320 C 0.11497 0.2985 0.356 0.0
C1321 C 0.07592 0.28316 0.35452 0.0
C1322 C 0.04746 0.24721 0.38717 0.0
H1323 H 0.93425 0.18279 0.37879 0.0
H1324 H 0.96981 0.20964 0.36906 0.0
H1325 H 0.02443 0.23086 0.40586 0.0
H1326 H 0.1261 0.28108 0.37065 0.0
H1327 H 0.08963 0.25288 0.37797 0.0
H1328 H 0.037 0.24113 0.34649 0.0
C1329 C 0.96896 0.20073 0.37983 0.0
C1330 C 0.0269 0.23253 0.39286 0.0
C1331 C 0.94855 0.18548 0.38547 0.0
C1332 C 0.11217 0.28158 0.36585 0.0
C1333 C 0.09141 0.26562 0.37012 0.0
C1334 C 0.03431 0.23888 0.35946 0.0
C1335 C 0.98792 0.20453 0.3881 0.0
C1336 C 0.00977 0.22051 0.38195 0.0
C1337 C 0.07312 0.26639 0.36463 0.0
C1338 C 0.05133 0.25054 0.37044 0.0
H1339 H 0.96426 0.16901 0.41896 0.0
H1340 H 0.99994 0.19495 0.40889 0.0
H1341 H 1.0012 0.2147 0.35632 0.0
H1342 H 0.09871 0.31274 0.34337 0.0
H1343 H 0.06205 0.28419 0.35032 0.0
C1344 C 0.82164 0.77479 0.41137 0.0
C1345 C 0.84316 0.79112 0.40924 0.0
C1346 C 0.80435 0.77742 0.40623 0.0
C1347 C 0.79109 0.8111 0.37952 0.0
H1348 H 0.7383 0.78607 0.4048 0.0
C1349 C 0.72162 0.83015 0.36943 0.0
C1350 C 0.70045 0.81266 0.36928 0.0
C1351 C 0.7392 0.82752 0.37371 0.0
C1352 C 0.75287 0.793 0.39752 0.0
H1353 H 0.86339 0.82317 0.40031 0.0
H1354 H 0.83333 0.82802 0.39171 0.0
H1355 H 0.76855 0.78176 0.41361 0.0
H1356 H 0.6809 0.77899 0.37424 0.0
H1357 H 0.71156 0.77435 0.3818 0.0
H1358 H 0.77536 0.82272 0.36365 0.0
C1359 C 0.82971 0.81292 0.39695 0.0
C1360 C 0.77024 0.79047 0.40254 0.0
C1361 C 0.84699 0.8102 0.40195 0.0
C1362 C 0.69712 0.79265 0.37397 0.0
C1363 C 0.71464 0.79003 0.37838 0.0
C1364 C 0.77376 0.8138 0.3746 0.0
C1365 C 0.80811 0.79655 0.39896 0.0
C1366 C 0.78961 0.79941 0.3936 0.0
C1367 C 0.73589 0.80744 0.37832 0.0
C1368 C 0.75441 0.80471 0.38351 0.0
H1369 H 0.81815 0.75979 0.41673 0.0
H1370 H 0.78803 0.76427 0.40773 0.0
H1371 H 0.80554 0.81793 0.37213 0.0
H1372 H 0.72459 0.8459 0.36645 0.0
H1373 H 0.75533 0.84129 0.37377 0.0
C1374 C 0.25053 0.07134 0.38183 0.0
C1375 C 0.24402 0.07608 0.39663 0.0
C1376 C 0.24173 0.05026 0.37658 0.0
C1377 C 0.21704 0.9961 0.39259 0.0
H1378 H 0.20191 0.97906 0.34756 0.0
C1379 C 0.20546 0.9169 0.36721 0.0
C1380 C 0.18775 0.90515 0.35674 0.0
C1381 C 0.21098 0.93748 0.37208 0.0
C1382 C 0.20592 0.98356 0.3602 0.0
H1383 H 0.22241 0.06239 0.41714 0.0
H1384 H 0.20728 0.02558 0.40806 0.0
H1385 H 0.21324 0.0156 0.35581 0.0
H1386 H 0.16155 0.9057 0.34358 0.0
H1387 H 0.17148 0.94177 0.35184 0.0
H1388 H 0.20987 0.96415 0.39697 0.0
C1389 C 0.21938 0.0382 0.40062 0.0
C1390 C 0.21257 0.0045 0.36489 0.0
C1391 C 0.22808 0.05927 0.40583 0.0
C1392 C 0.17557 0.91442 0.35137 0.0
C1393 C 0.18121 0.93508 0.35613 0.0
C1394 C 0.21057 0.97524 0.38787 0.0
C1395 C 0.22632 0.03344 0.38605 0.0
C1396 C 0.2183 0.01101 0.38112 0.0
C1397 C 0.19897 0.94682 0.36654 0.0
C1398 C 0.20507 0.96878 0.37161 0.0
H1399 H 0.26299 0.08384 0.37455 0.0
H1400 H 0.24758 0.04708 0.36538 0.0
H1401 H 0.22155 0.0007 0.40515 0.0
H1402 H 0.21521 0.91031 0.37162 0.0
H1403 H 0.22488 0.94621 0.37999 0.0
C1404 C 0.50659 0.60978 0.30491 0.0
C1405 C 0.50109 0.60621 0.2883 0.0
C1406 C 0.52189 0.62999 0.31056 0.0
C1407 C 0.56834 0.68056 0.29827 0.0
H1408 H 0.55336 0.70394 0.33517 0.0
C1409 C 0.62267 0.76778 0.3191 0.0
C1410 C 0.62406 0.77224 0.3358 0.0
C1411 C 0.60781 0.74754 0.31318 0.0
C1412 C 0.558 0.69757 0.32502 0.0
H1413 H 0.50766 0.62128 0.26463 0.0
H1414 H 0.53487 0.65642 0.2745 0.0
H1415 H 0.52758 0.66845 0.32518 0.0
H1416 H 0.6119 0.7588 0.35944 0.0
H1417 H 0.58627 0.72342 0.34931 0.0
H1418 H 0.59895 0.70935 0.2983 0.0
C1419 C 0.52721 0.64348 0.2831 0.0
C1420 C 0.54316 0.67725 0.31927 0.0
C1421 C 0.51168 0.62331 0.27745 0.0
C1422 C 0.61066 0.75601 0.34651 0.0
C1423 C 0.596 0.73568 0.34064 0.0
C1424 C 0.58333 0.70078 0.30416 0.0
C1425 C 0.53229 0.64705 0.29972 0.0
C1426 C 0.54816 0.66857 0.30582 0.0
C1427 C 0.59425 0.73119 0.32387 0.0
C1428 C 0.57835 0.70959 0.31761 0.0
H1429 H 0.49915 0.59692 0.31358 0.0
H1430 H 0.52574 0.63225 0.32341 0.0
H1431 H 0.57267 0.67413 0.28798 0.0
H1432 H 0.63279 0.78008 0.31056 0.0
H1433 H 0.60675 0.74485 0.30018 0.0
C1434 C 0.38633 0.90055 0.28641 0.0
C1435 C 0.39027 0.88346 0.28794 0.0
C1436 C 0.36682 0.89868 0.29177 0.0
C1437 C 0.31885 0.86565 0.31795 0.0
H1438 H 0.29288 0.89229 0.29268 0.0
C1439 C 0.23047 0.84812 0.32695 0.0
C1440 C 0.22715 0.86566 0.3266 0.0
C1441 C 0.25078 0.85061 0.32323 0.0
C1442 C 0.30003 0.88495 0.29998 0.0
H1443 H 0.3766 0.8509 0.29615 0.0
H1444 H 0.34245 0.84747 0.30521 0.0
H1445 H 0.32723 0.89588 0.28416 0.0
H1446 H 0.24212 0.89932 0.32152 0.0
H1447 H 0.27762 0.90373 0.31498 0.0
H1448 H 0.29124 0.85438 0.33358 0.0
C1449 C 0.35462 0.86253 0.30022 0.0
C1450 C 0.3198 0.88704 0.29512 0.0
C1451 C 0.3742 0.86446 0.29497 0.0
C1452 C 0.24438 0.88562 0.32213 0.0
C1453 C 0.26463 0.8881 0.31831 0.0
C1454 C 0.29896 0.86343 0.32275 0.0
C1455 C 0.35061 0.87961 0.29868 0.0
C1456 C 0.32954 0.87745 0.30402 0.0
C1457 C 0.26806 0.8706 0.31872 0.0
C1458 C 0.28933 0.87308 0.31382 0.0
H1459 H 0.39849 0.91551 0.28128 0.0
H1460 H 0.36456 0.91233 0.29063 0.0
H1461 H 0.32595 0.85831 0.32529 0.0
H1462 H 0.2173 0.8324 0.32981 0.0
H1463 H 0.25279 0.83675 0.32344 0.0
C1464 C 0.10191 0.49553 0.31144 0.0
C1465 C 0.1045 0.50165 0.29503 0.0
C1466 C 0.10509 0.4789 0.31651 0.0
C1467 C 0.10878 0.43261 0.3015 0.0
H1468 H 0.14319 0.44178 0.34048 0.0
C1469 C 0.14804 0.382 0.31623 0.0
C1470 C 0.1478 0.37576 0.33237 0.0
C1471 C 0.14119 0.39642 0.31232 0.0
C1472 C 0.13329 0.43883 0.32971 0.0
H1473 H 0.11218 0.49491 0.27106 0.0
H1474 H 0.1177 0.46589 0.27989 0.0
H1475 H 0.13349 0.4683 0.33236 0.0
H1476 H 0.1402 0.37963 0.35712 0.0
H1477 H 0.1284 0.40516 0.35038 0.0
H1478 H 0.10884 0.40329 0.29873 0.0
C1479 C 0.11294 0.47377 0.28881 0.0
C1480 C 0.12772 0.45402 0.32505 0.0
C1481 C 0.10977 0.4904 0.28374 0.0
C1482 C 0.14085 0.38443 0.34462 0.0
C1483 C 0.13401 0.39895 0.34073 0.0
C1484 C 0.11435 0.41744 0.30616 0.0
C1485 C 0.1109 0.468 0.30529 0.0
C1486 C 0.11562 0.45121 0.31078 0.0
C1487 C 0.13401 0.40502 0.3245 0.0
C1488 C 0.12691 0.4205 0.32019 0.0
H1489 H 0.09751 0.50367 0.32039 0.0
H1490 H 0.10304 0.47461 0.32923 0.0
H1491 H 0.09912 0.4298 0.29061 0.0
H1492 H 0.15402 0.37612 0.30665 0.0
H1493 H 0.14191 0.40115 0.29976 0.0
C1494 C 0.38587 0.48432 0.29429 0.0
C1495 C 0.39016 0.50533 0.29298 0.0
C1496 C 0.36475 0.46784 0.29734 0.0
C1497 C 0.31482 0.4593 0.31681 0.0
H1498 H 0.28785 0.4042 0.29548 0.0
C1499 C 0.2247 0.39666 0.32589 0.0
C1500 C 0.21914 0.37522 0.32648 0.0
C1501 C 0.24592 0.41235 0.32229 0.0
C1502 C 0.29527 0.41939 0.30175 0.0
H1503 H 0.37626 0.52589 0.2934 0.0
H1504 H 0.33932 0.49716 0.29859 0.0
H1505 H 0.32402 0.43171 0.28732 0.0
H1506 H 0.23062 0.35297 0.32285 0.0
H1507 H 0.26791 0.38034 0.31694 0.0
H1508 H 0.28632 0.447 0.33142 0.0
C1509 C 0.35211 0.4933 0.29734 0.0
C1510 C 0.31596 0.43517 0.297 0.0
C1511 C 0.37314 0.50968 0.29419 0.0
C1512 C 0.23486 0.36955 0.323 0.0
C1513 C 0.25607 0.3852 0.31938 0.0
C1514 C 0.29423 0.44349 0.32166 0.0
C1515 C 0.34777 0.47228 0.29935 0.0
C1516 C 0.32588 0.45535 0.30439 0.0
C1517 C 0.26184 0.40679 0.31884 0.0
C1518 C 0.28411 0.42337 0.31411 0.0
H1519 H 0.39894 0.48077 0.29365 0.0
H1520 H 0.36192 0.45182 0.29891 0.0
H1521 H 0.32223 0.47458 0.32296 0.0
H1522 H 0.21254 0.40121 0.32797 0.0
H1523 H 0.24964 0.42875 0.32167 0.0
C1524 C 0.51122 0.8884 0.296 0.0
C1525 C 0.49061 0.87022 0.29544 0.0
C1526 C 0.52956 0.88655 0.29923 0.0
C1527 C 0.549 0.84726 0.3014 0.0
H1528 H 0.59236 0.88915 0.33046 0.0
C1529 C 0.61694 0.83631 0.331 0.0
C1530 C 0.63777 0.85431 0.33143 0.0
C1531 C 0.59902 0.83817 0.32629 0.0
C1532 C 0.58051 0.87743 0.32221 0.0
H1533 H 0.47273 0.83596 0.29763 0.0
H1534 H 0.50456 0.8326 0.30337 0.0
H1535 H 0.56152 0.89282 0.32208 0.0
H1536 H 0.65642 0.88808 0.32661 0.0
H1537 H 0.62519 0.89142 0.31849 0.0
H1538 H 0.56793 0.83174 0.30175 0.0
C1539 C 0.50684 0.84828 0.30103 0.0
C1540 C 0.56283 0.87957 0.31734 0.0
C1541 C 0.48857 0.85016 0.29776 0.0
C1542 C 0.64045 0.87405 0.32667 0.0
C1543 C 0.62256 0.87595 0.32209 0.0
C1544 C 0.56664 0.84507 0.30634 0.0
C1545 C 0.52758 0.86648 0.30209 0.0
C1546 C 0.54681 0.86452 0.30685 0.0
C1547 C 0.60161 0.85805 0.32183 0.0
C1548 C 0.58263 0.86015 0.31678 0.0
H1549 H 0.51307 0.90406 0.2944 0.0
H1550 H 0.54527 0.90089 0.2997 0.0
H1551 H 0.53718 0.8355 0.29316 0.0
H1552 H 0.61451 0.8208 0.33424 0.0
H1553 H 0.58311 0.82408 0.32631 0.0
C1554 C 0.11143 0.62059 0.29562 0.0
C1555 C 0.12797 0.6165 0.30012 0.0
C1556 C 0.11491 0.64138 0.29644 0.0
C1557 C 0.15844 0.69808 0.30091 0.0
H1558 H 0.11296 0.70506 0.32059 0.0
C1559 C 0.17457 0.77615 0.3314 0.0
C1560 C 0.15979 0.78328 0.32844 0.0
C1561 C 0.17019 0.75613 0.32598 0.0
C1562 C 0.1257 0.70337 0.31487 0.0
H1563 H 0.161 0.63027 0.3087 0.0
H1564 H 0.16713 0.66646 0.31038 0.0
H1565 H 0.10621 0.66944 0.31397 0.0
H1566 H 0.12883 0.77497 0.31738 0.0
H1567 H 0.12114 0.73987 0.30799 0.0
H1568 H 0.17814 0.732 0.30236 0.0
C1569 C 0.15163 0.65397 0.3059 0.0
C1570 C 0.12183 0.68297 0.31102 0.0
C1571 C 0.14813 0.63327 0.30503 0.0
C1572 C 0.14054 0.76995 0.31989 0.0
C1573 C 0.13608 0.74982 0.31456 0.0
C1574 C 0.16235 0.71845 0.30487 0.0
C1575 C 0.13497 0.65827 0.30185 0.0
C1576 C 0.13828 0.68004 0.30426 0.0
C1577 C 0.15089 0.74273 0.31753 0.0
C1578 C 0.14615 0.72128 0.31214 0.0
H1579 H 0.09571 0.60771 0.29186 0.0
H1580 H 0.10183 0.64416 0.29306 0.0
H1581 H 0.17133 0.69646 0.29542 0.0
H1582 H 0.18965 0.78608 0.33783 0.0
H1583 H 0.18179 0.751 0.32861 0.0
C1584 C 0.8238 0.06061 0.39758 0.0
C1585 C 0.84508 0.06638 0.39346 0.0
C1586 C 0.80743 0.03924 0.39685 0.0
C1587 C 0.79791 0.98389 0.39314 0.0
H1588 H 0.74425 0.97278 0.37242 0.0
C1589 C 0.73818 0.90306 0.36378 0.0
C1590 C 0.71589 0.89516 0.366 0.0
C1591 C 0.75333 0.92353 0.36906 0.0
C1592 C 0.75901 0.97559 0.37843 0.0
H1593 H 0.86641 0.05492 0.38569 0.0
H1594 H 0.83796 0.01766 0.3842 0.0
H1595 H 0.77178 0.00926 0.37885 0.0
H1596 H 0.69209 0.90249 0.3758 0.0
H1597 H 0.71859 0.93824 0.385 0.0
H1598 H 0.78531 0.9502 0.39224 0.0
C1599 C 0.83375 0.02933 0.3883 0.0
C1600 C 0.77479 0.99652 0.38217 0.0
C1601 C 0.85005 0.05065 0.38908 0.0
C1602 C 0.70912 0.9081 0.37382 0.0
C1603 C 0.72429 0.92863 0.37904 0.0
C1604 C 0.78217 0.96298 0.38931 0.0
C1605 C 0.81215 0.02337 0.39188 0.0
C1606 C 0.79457 0.00097 0.38937 0.0
C1607 C 0.74655 0.93659 0.37667 0.0
C1608 C 0.76267 0.95863 0.38171 0.0
H1609 H 0.81972 0.07266 0.40092 0.0
H1610 H 0.79104 0.03518 0.39989 0.0
H1611 H 0.8128 0.9867 0.39893 0.0
H1612 H 0.74398 0.89344 0.35798 0.0
H1613 H 0.77035 0.92928 0.36691 0.0
C1614 C 0.97224 0.82052 0.39538 0.0
C1615 C 0.95456 0.80013 0.39798 0.0
C1616 C 0.99256 0.82323 0.3914 0.0
C1617 C 0.01778 0.79359 0.37376 0.0
H1618 H 0.07125 0.84269 0.38833 0.0
C1619 C 0.10212 0.80193 0.36383 0.0
C1620 C 0.1193 0.82198 0.35948 0.0
C1621 C 0.08191 0.79934 0.36793 0.0
C1622 C 0.05646 0.82903 0.38399 0.0
H1623 H 0.94399 0.76655 0.39878 0.0
H1624 H 0.97967 0.77117 0.39229 0.0
H1625 H 0.03663 0.8377 0.39784 0.0
H1626 H 0.12903 0.85524 0.3565 0.0
H1627 H 0.09362 0.85075 0.36354 0.0
H1628 H 0.0377 0.78486 0.36004 0.0
C1629 C 0.9779 0.78513 0.39307 0.0
C1630 C 0.03656 0.82613 0.38946 0.0
C1631 C 0.95754 0.78246 0.397 0.0
C1632 C 0.11594 0.83951 0.35945 0.0
C1633 C 0.09573 0.83696 0.36367 0.0
C1634 C 0.03768 0.79645 0.36835 0.0
C1635 C 0.99562 0.80554 0.3899 0.0
C1636 C 0.01691 0.80836 0.38444 0.0
C1637 C 0.0785 0.81686 0.36808 0.0
C1638 C 0.05728 0.81419 0.3734 0.0
H1639 H 0.97016 0.83434 0.3958 0.0
H1640 H 0.00563 0.83914 0.38885 0.0
H1641 H 0.00304 0.77996 0.36932 0.0
H1642 H 0.10442 0.78824 0.3642 0.0
H1643 H 0.06912 0.7837 0.37147 0.0
C1644 C 0.25953 0.19304 0.39316 0.0
C1645 C 0.25815 0.17797 0.38185 0.0
C1646 C 0.25113 0.20633 0.38936 0.0
C1647 C 0.21368 0.21219 0.36119 0.0
H1648 H 0.24789 0.27183 0.37302 0.0
C1649 C 0.1929 0.27572 0.33869 0.0
C1650 C 0.19466 0.29084 0.35025 0.0
C1651 C 0.20059 0.26177 0.34222 0.0
C1652 C 0.23803 0.25519 0.36976 0.0
H1653 H 0.24699 0.16449 0.35791 0.0
H1654 H 0.23238 0.18776 0.35112 0.0
H1655 H 0.26075 0.24746 0.38026 0.0
H1656 H 0.20606 0.30312 0.37459 0.0
H1657 H 0.21919 0.27881 0.3807 0.0
H1658 H 0.19095 0.21998 0.35068 0.0
C1659 C 0.23963 0.18925 0.36299 0.0
C1660 C 0.24538 0.2412 0.37395 0.0
C1661 C 0.24804 0.176 0.36682 0.0
C1662 C 0.20442 0.29174 0.36535 0.0
C1663 C 0.21211 0.27786 0.36885 0.0
C1664 C 0.20631 0.2262 0.357 0.0
C1665 C 0.24127 0.20473 0.37415 0.0
C1666 C 0.23327 0.21952 0.36977 0.0
C1667 C 0.21028 0.26269 0.35736 0.0
C1668 C 0.21837 0.24785 0.3613 0.0
H1669 H 0.26734 0.19474 0.40483 0.0
H1670 H 0.25239 0.21786 0.39831 0.0
H1671 H 0.20383 0.19554 0.35794 0.0
H1672 H 0.18545 0.27455 0.32695 0.0
H1673 H 0.19912 0.25038 0.33305 0.0
C1674 C 0.63653 0.51477 0.74874 0.0
C1675 C 0.61936 0.50272 0.73789 0.0
C1676 C 0.65617 0.53147 0.74309 0.0
C1677 C 0.68966 0.55139 0.7063 0.0
H1678 H 0.71845 0.60481 0.73003 0.0
C1679 C 0.76586 0.64285 0.69971 0.0
C1680 C 0.78278 0.63903 0.69581 0.0
C1681 C 0.74535 0.626 0.70346 0.0
C1682 C 0.71054 0.59004 0.7232 0.0
H1683 H 0.60927 0.49933 0.71262 0.0
H1684 H 0.64361 0.52826 0.70279 0.0
H1685 H 0.68379 0.57609 0.73962 0.0
H1686 H 0.79174 0.61471 0.69301 0.0
H1687 H 0.75565 0.58506 0.69933 0.0
H1688 H 0.71654 0.56545 0.68987 0.0
C1689 C 0.64194 0.52457 0.71563 0.0
C1690 C 0.6908 0.57351 0.72879 0.0
C1691 C 0.62226 0.50798 0.72129 0.0
C1692 C 0.7788 0.61801 0.69554 0.0
C1693 C 0.75818 0.60108 0.69921 0.0
C1694 C 0.70955 0.56789 0.70077 0.0
C1695 C 0.65915 0.53645 0.72645 0.0
C1696 C 0.68013 0.554 0.72042 0.0
C1697 C 0.74137 0.60497 0.70355 0.0
C1698 C 0.72015 0.58741 0.70915 0.0
H1699 H 0.63499 0.51098 0.76156 0.0
H1700 H 0.66921 0.5402 0.75171 0.0
H1701 H 0.6819 0.53646 0.69965 0.0
H1702 H 0.76865 0.65897 0.70017 0.0
H1703 H 0.73266 0.62947 0.70658 0.0
C1704 C 0.51562 0.14254 0.73285 0.0
C1705 C 0.51196 0.12381 0.74065 0.0
C1706 C 0.49821 0.14498 0.72766 0.0
C1707 C 0.43878 0.12254 0.73375 0.0
H1708 H 0.4431 0.15382 0.69446 0.0
C1709 C 0.36502 0.12394 0.70543 0.0
C1710 C 0.36827 0.14381 0.7004 0.0
C1711 C 0.38262 0.12145 0.70986 0.0
C1712 C 0.44172 0.14516 0.70552 0.0
H1713 H 0.48711 0.09271 0.74871 0.0
H1714 H 0.4568 0.09666 0.73936 0.0
H1715 H 0.4735 0.14931 0.70287 0.0
H1716 H 0.39238 0.17696 0.69707 0.0
H1717 H 0.42322 0.17257 0.70443 0.0
H1718 H 0.40685 0.11811 0.7362 0.0
C1719 C 0.47308 0.10981 0.73763 0.0
C1720 C 0.45918 0.14263 0.7104 0.0
C1721 C 0.49048 0.10747 0.74296 0.0
C1722 C 0.38944 0.1613 0.7003 0.0
C1723 C 0.4071 0.15879 0.7046 0.0
C1724 C 0.42127 0.12489 0.72878 0.0
C1725 C 0.47665 0.12865 0.72998 0.0
C1726 C 0.458 0.1313 0.72462 0.0
C1727 C 0.40388 0.13884 0.7095 0.0
C1728 C 0.42253 0.13625 0.71463 0.0
H1729 H 0.53197 0.15552 0.73103 0.0
H1730 H 0.50171 0.15987 0.72209 0.0
H1731 H 0.43731 0.11412 0.74494 0.0
H1732 H 0.34881 0.11029 0.70591 0.0
H1733 H 0.3796 0.10586 0.71352 0.0
C1734 C 0.91206 0.40071 0.72174 0.0
C1735 C 0.90495 0.40387 0.73686 0.0
C1736 C 0.90483 0.38016 0.71581 0.0
C1737 C 0.88337 0.32529 0.72959 0.0
H1738 H 0.86799 0.31084 0.68422 0.0
C1739 C 0.87497 0.24923 0.70069 0.0
C1740 C 0.85706 0.23736 0.69041 0.0
C1741 C 0.87989 0.26938 0.70616 0.0
C1742 C 0.87209 0.31461 0.69694 0.0
H1743 H 0.88417 0.38789 0.75739 0.0
H1744 H 0.87175 0.352 0.74711 0.0
H1745 H 0.87764 0.34633 0.69416 0.0
H1746 H 0.83011 0.23738 0.67801 0.0
H1747 H 0.83895 0.27277 0.68741 0.0
H1748 H 0.87787 0.29364 0.7324 0.0
C1749 C 0.88309 0.36545 0.73993 0.0
C1750 C 0.87779 0.33496 0.7026 0.0
C1751 C 0.89024 0.386 0.74583 0.0
C1752 C 0.84423 0.2462 0.68569 0.0
C1753 C 0.84926 0.26646 0.69109 0.0
C1754 C 0.87782 0.30502 0.72393 0.0
C1755 C 0.89041 0.36232 0.72491 0.0
C1756 C 0.88359 0.34053 0.71897 0.0
C1757 C 0.86707 0.27819 0.70147 0.0
C1758 C 0.87226 0.29951 0.70752 0.0
H1759 H 0.92365 0.4141 0.71464 0.0
H1760 H 0.91098 0.37824 0.7043 0.0
H1761 H 0.88795 0.32917 0.74224 0.0
H1762 H 0.88525 0.24298 0.70458 0.0
H1763 H 0.89389 0.27817 0.71399 0.0
C1764 C 0.17432 0.95789 0.60601 0.0
C1765 C 0.15712 0.9438 0.61603 0.0
C1766 C 0.19118 0.97701 0.61225 0.0
C1767 C 0.2026 0.01829 0.64068 0.0
H1768 H 0.26225 0.03086 0.64217 0.0
C1769 C 0.26835 0.09423 0.67228 0.0
C1770 C 0.28962 0.10417 0.66632 0.0
C1771 C 0.25265 0.07432 0.66641 0.0
C1772 C 0.24577 0.02786 0.6416 0.0
H1773 H 0.1448 0.9388 0.64071 0.0
H1774 H 0.17362 0.97272 0.65123 0.0
H1775 H 0.23421 0.99693 0.63093 0.0
H1776 H 0.31083 0.10103 0.64904 0.0
H1777 H 0.28325 0.06699 0.63815 0.0
H1778 H 0.21386 0.04933 0.65051 0.0
C1779 C 0.17398 0.9687 0.63859 0.0
C1780 C 0.22973 0.00833 0.63527 0.0
C1781 C 0.15739 0.94937 0.63248 0.0
C1782 C 0.29469 0.0938 0.65409 0.0
C1783 C 0.27883 0.07408 0.64792 0.0
C1784 C 0.21865 0.03799 0.64665 0.0
C1785 C 0.19095 0.98265 0.62852 0.0
C1786 C 0.20803 0.00337 0.6349 0.0
C1787 C 0.25755 0.064 0.65401 0.0
C1788 C 0.24048 0.04304 0.64734 0.0
H1789 H 0.17458 0.95448 0.59323 0.0
H1790 H 0.20408 0.98768 0.60426 0.0
H1791 H 0.18593 0.01482 0.64034 0.0
H1792 H 0.26366 0.10184 0.68142 0.0
H1793 H 0.23666 0.06704 0.67171 0.0
C1794 C 0.04274 0.19643 0.62564 0.0
C1795 C 0.05828 0.21517 0.61797 0.0
C1796 C 0.02313 0.19431 0.63103 0.0
C1797 C 0.98708 0.21753 0.62577 0.0
H1798 H 0.96081 0.18686 0.66546 0.0
C1799 C 0.91274 0.21688 0.65422 0.0
C1800 C 0.89586 0.19715 0.65949 0.0
C1801 C 0.93284 0.21928 0.64996 0.0
C1802 C 0.96787 0.19534 0.65429 0.0
H1803 H 0.06543 0.24654 0.61022 0.0
H1804 H 0.03146 0.24306 0.61981 0.0
H1805 H 0.99528 0.19081 0.65647 0.0
H1806 H 0.8865 0.16421 0.66376 0.0
H1807 H 0.92176 0.16844 0.65665 0.0
H1808 H 0.95977 0.22224 0.62371 0.0
C1809 C 0.03415 0.22973 0.62135 0.0
C1810 C 0.98763 0.19757 0.64908 0.0
C1811 C 0.0537 0.23177 0.61585 0.0
C1812 C 0.89941 0.17977 0.66026 0.0
C1813 C 0.91959 0.18219 0.65611 0.0
C1814 C 0.96744 0.21544 0.63104 0.0
C1815 C 0.01853 0.21095 0.62901 0.0
C1816 C 0.99752 0.20867 0.63471 0.0
C1817 C 0.93649 0.20193 0.65073 0.0
C1818 C 0.95756 0.2043 0.64534 0.0
H1819 H 0.04561 0.18321 0.62728 0.0
H1820 H 0.01142 0.17946 0.63658 0.0
H1821 H 0.99386 0.22582 0.6145 0.0
H1822 H 0.91032 0.23046 0.65329 0.0
H1823 H 0.94553 0.23474 0.646 0.0
C1824 C 0.77807 0.82453 0.61318 0.0
C1825 C 0.7698 0.83331 0.62441 0.0
C1826 C 0.78307 0.80899 0.61804 0.0
C1827 C 0.80018 0.79182 0.65377 0.0
H1828 H 0.78247 0.73942 0.62997 0.0
C1829 C 0.81645 0.72691 0.67869 0.0
C1830 C 0.82131 0.71522 0.6676 0.0
C1831 C 0.80979 0.74096 0.6732 0.0
C1832 C 0.78787 0.75413 0.63663 0.0
H1833 H 0.75908 0.83161 0.6493 0.0
H1834 H 0.76842 0.805 0.65782 0.0
H1835 H 0.77105 0.76421 0.62047 0.0
H1836 H 0.82322 0.70906 0.64207 0.0
H1837 H 0.81237 0.73415 0.6324 0.0
H1838 H 0.81754 0.7823 0.66966 0.0
C1839 C 0.77119 0.81032 0.64532 0.0
C1840 C 0.7812 0.76824 0.63121 0.0
C1841 C 0.76593 0.82561 0.64043 0.0
C1842 C 0.81948 0.71787 0.65089 0.0
C1843 C 0.81312 0.73214 0.64537 0.0
C1844 C 0.80711 0.7779 0.65906 0.0
C1845 C 0.78012 0.80212 0.63424 0.0
C1846 C 0.78718 0.78713 0.63981 0.0
C1847 C 0.80807 0.74382 0.65646 0.0
C1848 C 0.80095 0.7588 0.65062 0.0
H1849 H 0.78146 0.83022 0.6008 0.0
H1850 H 0.79004 0.80297 0.60929 0.0
H1851 H 0.8053 0.80647 0.66047 0.0
H1852 H 0.81705 0.72467 0.6916 0.0
H1853 H 0.80555 0.74925 0.68213 0.0
C1854 C 0.02476 0.85026 0.62547 0.0
C1855 C 0.04352 0.84995 0.62091 0.0
C1856 C 0.00676 0.83182 0.63119 0.0
C1857 C 0.9806 0.7734 0.6318 0.0
H1858 H 0.95107 0.77872 0.66951 0.0
C1859 C 0.90933 0.69992 0.66144 0.0
C1860 C 0.8915 0.70191 0.66612 0.0
C1861 C 0.92883 0.71786 0.65709 0.0
C1862 C 0.959 0.77698 0.65888 0.0
H1863 H 0.05853 0.8305 0.61849 0.0
H1864 H 0.02682 0.7979 0.6284 0.0
H1865 H 0.98307 0.81004 0.65905 0.0
H1866 H 0.87977 0.72405 0.66951 0.0
H1867 H 0.91374 0.75543 0.66185 0.0
H1868 H 0.95632 0.74044 0.63141 0.0
C1869 C 0.02593 0.81235 0.62747 0.0
C1870 C 0.97735 0.79493 0.65289 0.0
C1871 C 0.04404 0.83091 0.62181 0.0
C1872 C 0.89345 0.72215 0.66634 0.0
C1873 C 0.91294 0.74012 0.66195 0.0
C1874 C 0.96217 0.75546 0.63773 0.0
C1875 C 0.00721 0.81271 0.63247 0.0
C1876 C 0.98825 0.79339 0.63919 0.0
C1877 C 0.9308 0.73816 0.65706 0.0
C1878 C 0.95103 0.75706 0.65127 0.0
H1879 H 0.02417 0.8649 0.62493 0.0
H1880 H 0.9925 0.83256 0.63467 0.0
H1881 H 0.9885 0.77173 0.62113 0.0
H1882 H 0.90811 0.68442 0.66104 0.0
H1883 H 0.94232 0.7158 0.65362 0.0
C1884 C 0.18056 0.22171 0.62693 0.0
C1885 C 0.1597 0.20385 0.62698 0.0
C1886 C 0.19868 0.2195 0.63028 0.0
C1887 C 0.2136 0.18366 0.65156 0.0
H1888 H 0.26782 0.215 0.62845 0.0
C1889 C 0.28517 0.16833 0.662 0.0
C1890 C 0.3062 0.18603 0.66208 0.0
C1891 C 0.26738 0.17054 0.65755 0.0
C1892 C 0.25289 0.20632 0.63519 0.0
H1893 H 0.14116 0.16976 0.63027 0.0
H1894 H 0.1727 0.16576 0.63591 0.0
H1895 H 0.23688 0.21882 0.62054 0.0
H1896 H 0.32526 0.21968 0.65696 0.0
H1897 H 0.29426 0.22373 0.6495 0.0
H1898 H 0.22962 0.17135 0.66634 0.0
C1899 C 0.17522 0.1815 0.63344 0.0
C1900 C 0.23511 0.20849 0.63061 0.0
C1901 C 0.15718 0.18373 0.63002 0.0
C1902 C 0.30916 0.20585 0.65722 0.0
C1903 C 0.2914 0.2081 0.65282 0.0
C1904 C 0.23139 0.18157 0.65619 0.0
C1905 C 0.19619 0.1994 0.63389 0.0
C1906 C 0.2152 0.19713 0.6387 0.0
C1907 C 0.27024 0.19047 0.65291 0.0
C1908 C 0.25129 0.19283 0.64805 0.0
H1909 H 0.18279 0.23743 0.62485 0.0
H1910 H 0.21455 0.23364 0.63065 0.0
H1911 H 0.19865 0.17497 0.65827 0.0
H1912 H 0.28247 0.15272 0.6652 0.0
H1913 H 0.25143 0.15651 0.6575 0.0
C1914 C 0.7705 0.95059 0.6316 0.0
C1915 C 0.78597 0.94445 0.6346 0.0
C1916 C 0.77605 0.97193 0.63345 0.0
C1917 C 0.81356 0.01897 0.65688 0.0
H1918 H 0.79672 0.05004 0.62757 0.0
C1919 C 0.84295 0.10768 0.66691 0.0
C1920 C 0.82817 0.11481 0.66399 0.0
C1921 C 0.83798 0.08719 0.66232 0.0
C1922 C 0.80132 0.04149 0.63597 0.0
H1923 H 0.81925 0.95521 0.64129 0.0
H1924 H 0.82907 0.99252 0.64447 0.0
H1925 H 0.7877 0.01364 0.62077 0.0
H1926 H 0.79667 0.10609 0.65379 0.0
H1927 H 0.78779 0.07014 0.64608 0.0
H1928 H 0.82671 0.04638 0.67229 0.0
C1929 C 0.81269 0.98102 0.6408 0.0
C1930 C 0.79621 0.02069 0.63203 0.0
C1931 C 0.80716 0.95977 0.63888 0.0
C1932 C 0.80842 0.10108 0.6562 0.0
C1933 C 0.80338 0.08051 0.65169 0.0
C1934 C 0.8185 0.03962 0.66087 0.0
C1935 C 0.79707 0.98724 0.63849 0.0
C1936 C 0.80241 0.0093 0.64242 0.0
C1937 C 0.81807 0.07327 0.65477 0.0
C1938 C 0.81256 0.0512 0.65044 0.0
H1939 H 0.75399 0.93883 0.62842 0.0
H1940 H 0.76367 0.97627 0.63168 0.0
H1941 H 0.81815 0.01041 0.66529 0.0
H1942 H 0.85847 0.11797 0.67265 0.0
H1943 H 0.84988 0.08234 0.66458 0.0
C1944 C 0.50162 0.38592 0.73569 0.0
C1945 C 0.52254 0.38937 0.73306 0.0
C1946 C 0.48365 0.36547 0.73381 0.0
C1947 C 0.46801 0.30824 0.7292 0.0
H1948 H 0.41896 0.30417 0.70542 0.0
C1949 C 0.40677 0.23234 0.695 0.0
C1950 C 0.38465 0.22567 0.69661 0.0
C1951 C 0.42255 0.25203 0.70117 0.0
C1952 C 0.43242 0.30504 0.71225 0.0
H1953 H 0.54153 0.3747 0.72673 0.0
H1954 H 0.51039 0.33914 0.72322 0.0
H1955 H 0.44835 0.339 0.7139 0.0
H1956 H 0.36176 0.23454 0.70591 0.0
H1957 H 0.38943 0.2691 0.71655 0.0
H1958 H 0.45238 0.2743 0.72699 0.0
C1959 C 0.50759 0.35185 0.72707 0.0
C1960 C 0.44924 0.325 0.71718 0.0
C1961 C 0.52545 0.37222 0.72901 0.0
C1962 C 0.37866 0.2392 0.70446 0.0
C1963 C 0.39448 0.25902 0.7105 0.0
C1964 C 0.4513 0.28833 0.72414 0.0
C1965 C 0.48641 0.34824 0.72917 0.0
C1966 C 0.46744 0.32689 0.72548 0.0
C1967 C 0.41659 0.26557 0.709 0.0
C1968 C 0.4335 0.28655 0.71538 0.0
H1969 H 0.49912 0.3991 0.73872 0.0
H1970 H 0.46761 0.36323 0.73573 0.0
H1971 H 0.48153 0.30901 0.73586 0.0
H1972 H 0.41197 0.22226 0.68914 0.0
H1973 H 0.43946 0.25676 0.69966 0.0
C1974 C 0.64182 0.15374 0.72926 0.0
C1975 C 0.62413 0.13341 0.73206 0.0
C1976 C 0.66219 0.15638 0.72554 0.0
C1977 C 0.68764 0.12635 0.70897 0.0
H1978 H 0.74098 0.17601 0.723 0.0
C1979 C 0.77215 0.1348 0.6994 0.0
C1980 C 0.78919 0.15474 0.69468 0.0
C1981 C 0.75195 0.13224 0.70355 0.0
C1982 C 0.72624 0.16217 0.71881 0.0
H1983 H 0.61362 0.09988 0.73345 0.0
H1984 H 0.64937 0.10439 0.7274 0.0
H1985 H 0.7063 0.17118 0.73217 0.0
H1986 H 0.79876 0.18789 0.69124 0.0
H1987 H 0.7634 0.18347 0.69836 0.0
H1988 H 0.70767 0.11729 0.69572 0.0
C1989 C 0.64758 0.11836 0.72784 0.0
C1990 C 0.70629 0.15937 0.7241 0.0
C1991 C 0.62716 0.11575 0.73152 0.0
C1992 C 0.78576 0.17222 0.69445 0.0
C1993 C 0.76558 0.16972 0.69872 0.0
C1994 C 0.70759 0.12911 0.70376 0.0
C1995 C 0.66531 0.13869 0.72448 0.0
C1996 C 0.68667 0.14141 0.71925 0.0
C1997 C 0.74843 0.1497 0.70341 0.0
C1998 C 0.72716 0.14705 0.70861 0.0
H1999 H 0.63971 0.16755 0.72934 0.0
H2000 H 0.67525 0.17224 0.72283 0.0
H2001 H 0.67294 0.11255 0.70467 0.0
H2002 H 0.77451 0.12116 0.69995 0.0
H2003 H 0.73925 0.11668 0.70732 0.0
C2004 C 0.88962 0.49891 0.72143 0.0
C2005 C 0.90925 0.50594 0.7297 0.0
C2006 C 0.88152 0.51272 0.71897 0.0
C2007 C 0.90062 0.56995 0.71587 0.0
H2008 H 0.83935 0.55181 0.71643 0.0
C2009 C 0.87009 0.62904 0.70638 0.0
C2010 C 0.8521 0.62273 0.69606 0.0
C2011 C 0.87617 0.61441 0.71143 0.0
C2012 C 0.85649 0.55704 0.71609 0.0
H2013 H 0.93569 0.5323 0.74237 0.0
H2014 H 0.92142 0.55655 0.73836 0.0
H2015 H 0.85142 0.52694 0.72447 0.0
H2016 H 0.8259 0.5958 0.68347 0.0
H2017 H 0.83683 0.57029 0.69206 0.0
H2018 H 0.90572 0.59994 0.70737 0.0
C2019 C 0.91234 0.5405 0.73357 0.0
C2020 C 0.86342 0.54282 0.72072 0.0
C2021 C 0.92043 0.52665 0.73599 0.0
C2022 C 0.84005 0.60128 0.69119 0.0
C2023 C 0.84616 0.58661 0.69627 0.0
C2024 C 0.89371 0.58414 0.71127 0.0
C2025 C 0.89301 0.53382 0.72473 0.0
C2026 C 0.88557 0.54911 0.72062 0.0
C2027 C 0.86443 0.59308 0.70633 0.0
C2028 C 0.87158 0.57785 0.7113 0.0
H2029 H 0.88091 0.48297 0.71636 0.0
H2030 H 0.86675 0.50712 0.71195 0.0
H2031 H 0.91775 0.57519 0.7153 0.0
H2032 H 0.87966 0.64535 0.71053 0.0
H2033 H 0.89008 0.61983 0.71942 0.0
C2034 C 0.47016 0.91962 0.24275 0.0
C2035 C 0.44786 0.90586 0.24523 0.0
C2036 C 0.47781 0.92966 0.22772 0.0
C2037 C 0.45979 0.94725 0.192 0.0
H2038 H 0.51146 0.9533 0.17142 0.0
C2039 C 0.50246 0.00557 0.13916 0.0
C2040 C 0.50933 0.99817 0.12592 0.0
C2041 C 0.49468 0.99344 0.15329 0.0
C2042 C 0.49693 0.95163 0.17698 0.0
H2043 H 0.41634 0.89097 0.23341 0.0
H2044 H 0.42961 0.90872 0.20747 0.0
H2045 H 0.49871 0.93341 0.19685 0.0
H2046 H 0.51342 0.97219 0.11718 0.0
H2047 H 0.4999 0.95097 0.14197 0.0
H2048 H 0.45804 0.96555 0.17227 0.0
C2049 C 0.44115 0.91202 0.21721 0.0
C2050 C 0.48975 0.9404 0.19161 0.0
C2051 C 0.43355 0.90188 0.23213 0.0
C2052 C 0.50812 0.97826 0.12713 0.0
C2053 C 0.50057 0.96621 0.14137 0.0
C2054 C 0.4671 0.95865 0.17751 0.0
C2055 C 0.46332 0.92627 0.21487 0.0
C2056 C 0.47107 0.93806 0.19928 0.0
C2057 C 0.49376 0.97367 0.15462 0.0
C2058 C 0.48576 0.96102 0.16983 0.0
H2059 H 0.48166 0.9232 0.25256 0.0
H2060 H 0.49498 0.94065 0.22634 0.0
H2061 H 0.44547 0.94592 0.19766 0.0
H2062 H 0.50302 0.02077 0.13858 0.0
H2063 H 0.48971 -0.00028 0.1633 0.0
C2064 C 0.05992 0.52003 0.25107 0.0
C2065 C 0.08048 0.53746 0.25462 0.0
C2066 C 0.04986 0.51866 0.23616 0.0
C2067 C 0.06181 0.5362 0.19394 0.0
H2068 H 1.00059 0.51788 0.19155 0.0
C2069 C 0.01856 0.53078 0.13288 0.0
C2070 C 0.99736 0.51367 0.13087 0.0
C2071 C 0.02898 0.53484 0.148 0.0
C2072 C 0.01764 0.52277 0.19196 0.0
H2073 H 0.10654 0.56721 0.24542 0.0
H2074 H 0.08893 0.56476 0.21924 0.0
H2075 H 0.0181 0.52313 0.21798 0.0
H2076 H 0.97068 0.48705 0.14298 0.0
H2077 H 0.98891 0.4938 0.16922 0.0
H2078 H 0.0613 0.53533 0.16795 0.0
C2079 C 0.08065 0.55217 0.22802 0.0
C2080 C 0.02768 0.52586 0.20713 0.0
C2081 C 0.09063 0.55366 0.24303 0.0
C2082 C 0.9869 0.50056 0.14423 0.0
C2083 C 0.99735 0.5045 0.15929 0.0
C2084 C 0.05173 0.53294 0.17875 0.0
C2085 C 0.0602 0.53459 0.22441 0.0
C2086 C 0.04984 0.53245 0.20829 0.0
C2087 C 0.01848 0.52177 0.16142 0.0
C2088 C 0.02946 0.526 0.17756 0.0
H2089 H 0.05165 0.50739 0.25982 0.0
H2090 H 0.03418 0.50484 0.23369 0.0
H2091 H 0.07886 0.54105 0.19445 0.0
H2092 H 0.02695 0.5413 0.12284 0.0
H2093 H 0.04512 0.54844 0.14922 0.0
C2094 C 0.49391 0.55144 0.2422 0.0
C2095 C 0.47336 0.54843 0.24607 0.0
C2096 C 0.49809 0.54642 0.22676 0.0
C2097 C 0.47376 0.51587 0.18935 0.0
H2098 H 0.52693 0.55967 0.16995 0.0
C2099 C 0.49874 0.50996 0.12311 0.0
C2100 C 0.52079 0.51679 0.12058 0.0
C2101 C 0.49167 0.51355 0.13804 0.0
C2102 C 0.51215 0.54714 0.17522 0.0
H2103 H 0.44071 0.53662 0.23699 0.0
H2104 H 0.448 0.52752 0.20988 0.0
H2105 H 0.51666 0.56534 0.19684 0.0
H2106 H 0.5527 0.53314 0.13176 0.0
H2107 H 0.54038 0.53882 0.15776 0.0
H2108 H 0.46949 0.49749 0.16778 0.0
C2109 C 0.46088 0.53394 0.21887 0.0
C2110 C 0.50624 0.55043 0.19064 0.0
C2111 C 0.4567 0.5391 0.23438 0.0
C2112 C 0.53557 0.5274 0.13331 0.0
C2113 C 0.52852 0.53093 0.14819 0.0
C2114 C 0.47977 0.5125 0.1739 0.0
C2115 C 0.4818 0.5381 0.21479 0.0
C2116 C 0.48716 0.53473 0.198 0.0
C2117 C 0.50649 0.5241 0.15078 0.0
C2118 C 0.49922 0.52799 0.16675 0.0
H2119 H 0.50697 0.5581 0.25105 0.0
H2120 H 0.51423 0.54931 0.22412 0.0
H2121 H 0.45899 0.50346 0.19473 0.0
H2122 H 0.48687 0.50156 0.11364 0.0
H2123 H 0.47462 0.50823 0.13954 0.0
C2124 C 0.94755 0.44675 0.78935 0.0
C2125 C 0.9356 0.4558 0.78308 0.0
C2126 C 0.95498 0.45057 0.80537 0.0
C2127 C 0.96824 0.48759 0.83979 0.0
H2128 H 0.9649 0.44032 0.86417 0.0
C2129 C 0.99626 0.49509 0.90713 0.0
C2130 C 0.00872 0.48551 0.91085 0.0
C2131 C 0.98578 0.49148 0.89206 0.0
C2132 C 0.96608 0.45372 0.8575 0.0
H2133 H 0.92249 0.47638 0.78868 0.0
H2134 H 0.93561 0.48315 0.81686 0.0
H2135 H 0.9494 0.43423 0.83694 0.0
H2136 H 0.01961 0.46432 0.9018 0.0
H2137 H 0.00159 0.45823 0.87552 0.0
H2138 H 0.98518 0.5071 0.86037 0.0
C2139 C 0.9392 0.47308 0.80927 0.0
C2140 C 0.9572 0.45024 0.84189 0.0
C2141 C 0.93169 0.46921 0.79315 0.0
C2142 C 0.01032 0.47212 0.89925 0.0
C2143 C 0.99978 0.46844 0.88425 0.0
C2144 C 0.97713 0.49108 0.85546 0.0
C2145 C 0.95074 0.4636 0.81559 0.0
C2146 C 0.95854 0.46718 0.83272 0.0
C2147 C 0.9874 0.47808 0.88046 0.0
C2148 C 0.9765 0.47424 0.86437 0.0
H2149 H 0.95137 0.43681 0.78181 0.0
H2150 H 0.9643 0.44346 0.80971 0.0
H2151 H 0.96967 0.501 0.833 0.0
H2152 H 0.99485 0.50562 0.91578 0.0
H2153 H 0.97625 0.49904 0.88954 0.0
C2154 C 0.57432 0.47881 0.79351 0.0
C2155 C 0.56081 0.4687 0.78003 0.0
C2156 C 0.56567 0.48068 0.80823 0.0
C2157 C 0.51735 0.47998 0.82541 0.0
H2158 H 0.54104 0.47454 0.86645 0.0
C2159 C 0.47926 0.48117 0.88706 0.0
C2160 C 0.49355 0.49303 0.89975 0.0
C2161 C 0.48706 0.47728 0.87264 0.0
C2162 C 0.53437 0.4763 0.85509 0.0
H2163 H 0.52745 0.45244 0.7716 0.0
H2164 H 0.51229 0.45528 0.79739 0.0
H2165 H 0.55514 0.46907 0.84104 0.0
H2166 H 0.52736 0.51018 0.90707 0.0
H2167 H 0.54094 0.50331 0.88196 0.0
H2168 H 0.49662 0.48725 0.83947 0.0
C2169 C 0.52966 0.46204 0.7965 0.0
C2170 C 0.54246 0.47317 0.84051 0.0
C2171 C 0.53834 0.46019 0.78175 0.0
C2172 C 0.51584 0.50071 0.89768 0.0
C2173 C 0.52364 0.49679 0.88326 0.0
C2174 C 0.50923 0.48306 0.83999 0.0
C2175 C 0.54323 0.47244 0.80991 0.0
C2176 C 0.53414 0.47508 0.82547 0.0
C2177 C 0.50935 0.48511 0.87052 0.0
C2178 C 0.51771 0.48136 0.85502 0.0
H2179 H 0.59167 0.4853 0.7927 0.0
H2180 H 0.57665 0.48897 0.81822 0.0
H2181 H 0.51079 0.48193 0.81408 0.0
H2182 H 0.46196 0.47468 0.88833 0.0
H2183 H 0.47557 0.46794 0.86319 0.0
C2184 C 0.53936 0.10932 0.79718 0.0
C2185 C 0.54661 0.10211 0.78405 0.0
C2186 C 0.53577 0.09964 0.81239 0.0
C2187 C 0.5461 0.06325 0.83789 0.0
H2188 H 0.49302 0.05264 0.85895 0.0
C2189 C 0.52121 0.02567 0.90232 0.0
C2190 C 0.49927 0.01019 0.90436 0.0
C2191 C 0.52819 0.03781 0.88807 0.0
C2192 C 0.50785 0.05537 0.85323 0.0
H2193 H 0.5567 0.07961 0.77688 0.0
H2194 H 0.55035 0.06256 0.80351 0.0
H2195 H 0.50354 0.07196 0.83344 0.0
H2196 H 0.46746 0.99581 0.8931 0.0
H2197 H 0.4796 0.01669 0.86833 0.0
H2198 H 0.55005 0.04613 0.85761 0.0
C2199 C 0.54755 0.07584 0.80203 0.0
C2200 C 0.51405 0.0667 0.83866 0.0
C2201 C 0.55121 0.08561 0.78675 0.0
C2202 C 0.4845 0.00739 0.89189 0.0
C2203 C 0.49144 0.01955 0.87773 0.0
C2204 C 0.53991 0.05193 0.85255 0.0
C2205 C 0.53928 0.08241 0.81494 0.0
C2206 C 0.53321 0.07076 0.83073 0.0
C2207 C 0.51338 0.0349 0.87558 0.0
C2208 C 0.5206 0.0477 0.86034 0.0
H2209 H 0.53608 0.12228 0.7956 0.0
H2210 H 0.52994 0.10551 0.82213 0.0
H2211 H 0.56103 0.0662 0.83221 0.0
H2212 H 0.53305 0.02814 0.91161 0.0
H2213 H 0.54517 0.04961 0.8869 0.0
C2214 C 0.10245 0.23257 0.56207 0.0
C2215 C 0.11644 0.23778 0.57556 0.0
C2216 C 0.11023 0.24221 0.54699 0.0
C2217 C 0.15564 0.29029 0.52855 0.0
H2218 H 0.13318 0.25903 0.48819 0.0
C2219 C 0.191 0.32875 0.46654 0.0
C2220 C 0.17638 0.32484 0.45369 0.0
C2221 C 0.18406 0.31723 0.48101 0.0
C2222 C 0.13948 0.26805 0.49934 0.0
H2223 H 0.14979 0.25703 0.58354 0.0
H2224 H 0.16347 0.27356 0.55716 0.0
H2225 H 0.12077 0.24056 0.51407 0.0
H2226 H 0.14295 0.30533 0.44597 0.0
H2227 H 0.13078 0.28521 0.47125 0.0
H2228 H 0.17422 0.3178 0.51387 0.0
C2229 C 0.14636 0.26221 0.55832 0.0
C2230 C 0.13237 0.25745 0.51421 0.0
C2231 C 0.13856 0.25253 0.57342 0.0
C2232 C 0.1547 0.30865 0.45555 0.0
C2233 C 0.14772 0.29711 0.47006 0.0
C2234 C 0.16275 0.30088 0.5137 0.0
C2235 C 0.13226 0.25735 0.54493 0.0
C2236 C 0.14031 0.26843 0.52903 0.0
C2237 C 0.16227 0.30143 0.48308 0.0
C2238 C 0.15476 0.28994 0.49888 0.0
H2239 H 0.08537 0.22106 0.56317 0.0
H2240 H 0.09883 0.23816 0.53704 0.0
H2241 H 0.16182 0.2994 0.53967 0.0
H2242 H 0.20792 0.34076 0.46544 0.0
H2243 H 0.19584 0.32069 0.49059 0.0
C2244 C 0.75309 0.86263 0.56974 0.0
C2245 C 0.7474 0.87025 0.5835 0.0
C2246 C 0.74381 0.86185 0.55459 0.0
C2247 C 0.69585 0.86056 0.53591 0.0
H2248 H 0.72871 0.87091 0.4962 0.0
C2249 C 0.66026 0.86046 0.4726 0.0
C2250 C 0.66389 0.84916 0.46025 0.0
C2251 C 0.67109 0.86447 0.48751 0.0
C2252 C 0.7193 0.86785 0.50719 0.0
H2253 H 0.72773 0.88345 0.59199 0.0
H2254 H 0.71205 0.88271 0.56546 0.0
H2255 H 0.7468 0.87601 0.52241 0.0
H2256 H 0.68174 0.83309 0.45406 0.0
H2257 H 0.70084 0.84037 0.47998 0.0
H2258 H 0.66838 0.85245 0.52063 0.0
C2259 C 0.7234 0.87694 0.56645 0.0
C2260 C 0.72964 0.87073 0.52222 0.0
C2261 C 0.73261 0.87763 0.58164 0.0
C2262 C 0.6788 0.84216 0.46316 0.0
C2263 C 0.68974 0.84629 0.47804 0.0
C2264 C 0.68556 0.85782 0.52088 0.0
C2265 C 0.72869 0.86881 0.55277 0.0
C2266 C 0.718 0.86691 0.53678 0.0
C2267 C 0.68593 0.8574 0.4904 0.0
C2268 C 0.69712 0.86123 0.50636 0.0
H2269 H 0.76467 0.85712 0.57067 0.0
H2270 H 0.74813 0.85529 0.54438 0.0
H2271 H 0.68628 0.85713 0.54684 0.0
H2272 H 0.64918 0.86642 0.4707 0.0
H2273 H 0.66802 0.8733 0.49674 0.0
C2274 C 0.14759 0.88226 0.57466 0.0
C2275 C 0.12842 0.88327 0.57592 0.0
C2276 C 0.15304 0.87624 0.56008 0.0
C2277 C 0.13259 0.84968 0.52059 0.0
H2278 H 0.19055 0.88966 0.50583 0.0
C2279 C 0.16208 0.84527 0.45577 0.0
C2280 C 0.18382 0.85045 0.45401 0.0
C2281 C 0.15457 0.84854 0.47061 0.0
C2282 C 0.17444 0.87809 0.50982 0.0
H2283 H 0.09932 0.87742 0.56302 0.0
H2284 H 0.10866 0.86638 0.53764 0.0
H2285 H 0.17843 0.89502 0.53207 0.0
H2286 H 0.21473 0.86351 0.46659 0.0
H2287 H 0.2015 0.86823 0.49245 0.0
H2288 H 0.1287 0.83249 0.49847 0.0
C2289 C 0.1195 0.87044 0.54796 0.0
C2290 C 0.16748 0.88123 0.52488 0.0
C2291 C 0.11412 0.87667 0.56254 0.0
C2292 C 0.19781 0.859 0.46748 0.0
C2293 C 0.19027 0.86205 0.48232 0.0
C2294 C 0.13965 0.84636 0.50556 0.0
C2295 C 0.13935 0.87082 0.54644 0.0
C2296 C 0.14652 0.86705 0.53047 0.0
C2297 C 0.16856 0.85694 0.48411 0.0
C2298 C 0.16072 0.86051 0.49999 0.0
H2299 H 0.15875 0.88675 0.58483 0.0
H2300 H 0.16824 0.87627 0.55936 0.0
H2301 H 0.11636 0.83846 0.52462 0.0
H2302 H 0.15073 0.83842 0.44576 0.0
H2303 H 0.13782 0.84465 0.47141 0.0
C2304 C 0.59948 0.80377 0.12394 0.0
C2305 C 0.60395 0.79087 0.11373 0.0
C2306 C 0.60776 0.80838 0.13984 0.0
C2307 C 0.62921 0.78796 0.17182 0.0
H2308 H 0.65418 0.84465 0.19032 0.0
C2309 C 0.68284 0.81247 0.22903 0.0
C2310 C 0.68004 0.825 0.24076 0.0
C2311 C 0.67237 0.80845 0.21398 0.0
C2312 C 0.64701 0.82867 0.1854 0.0
H2313 H 0.62157 0.77369 0.11191 0.0
H2314 H 0.6359 0.78167 0.13942 0.0
H2315 H 0.63802 0.83761 0.16313 0.0
H2316 H 0.6642 0.84332 0.2458 0.0
H2317 H 0.64572 0.83612 0.21948 0.0
H2318 H 0.63836 0.77902 0.19392 0.0
C2319 C 0.62554 0.78777 0.13539 0.0
C2320 C 0.63774 0.82464 0.16983 0.0
C2321 C 0.61732 0.7832 0.11959 0.0
C2322 C 0.66654 0.83345 0.23706 0.0
C2323 C 0.65612 0.8295 0.22195 0.0
C2324 C 0.63846 0.79198 0.18732 0.0
C2325 C 0.62066 0.80018 0.14579 0.0
C2326 C 0.62907 0.80431 0.16276 0.0
C2327 C 0.65886 0.81688 0.21026 0.0
C2328 C 0.64779 0.81245 0.1942 0.0
H2329 H 0.58919 0.80988 0.11978 0.0
H2330 H 0.60365 0.81794 0.14758 0.0
H2331 H 0.62222 0.77199 0.16689 0.0
H2332 H 0.69295 0.80556 0.23154 0.0
H2333 H 0.67504 0.79888 0.20517 0.0
C2334 C 0.24417 0.81378 0.12803 0.0
C2335 C 0.23078 0.80296 0.11465 0.0
C2336 C 0.23532 0.81601 0.14253 0.0
C2337 C 0.18651 0.81489 0.15905 0.0
H2338 H 0.21009 0.81063 0.20051 0.0
C2339 C 0.14751 0.8166 0.22013 0.0
C2340 C 0.16158 0.82868 0.23285 0.0
C2341 C 0.15558 0.81267 0.20586 0.0
C2342 C 0.20345 0.81207 0.18903 0.0
H2343 H 0.19748 0.78591 0.10614 0.0
H2344 H 0.18198 0.78945 0.13156 0.0
H2345 H 0.22463 0.80497 0.17541 0.0
H2346 H 0.19528 0.84617 0.24042 0.0
H2347 H 0.20934 0.83926 0.21557 0.0
H2348 H 0.16538 0.82205 0.17268 0.0
C2349 C 0.19939 0.79645 0.13075 0.0
C2350 C 0.2118 0.80883 0.17463 0.0
C2351 C 0.20826 0.79421 0.11622 0.0
C2352 C 0.18393 0.83655 0.23098 0.0
C2353 C 0.192 0.83259 0.21672 0.0
C2354 C 0.17815 0.8181 0.17345 0.0
C2355 C 0.21282 0.80745 0.14407 0.0
C2356 C 0.20351 0.81029 0.15944 0.0
C2357 C 0.17794 0.82067 0.20395 0.0
C2358 C 0.18657 0.81683 0.18863 0.0
H2359 H 0.26155 0.82048 0.12733 0.0
H2360 H 0.24619 0.82477 0.15246 0.0
H2361 H 0.17996 0.81647 0.14758 0.0
H2362 H 0.13017 0.80998 0.22124 0.0
H2363 H 0.14425 0.80314 0.19639 0.0
C2364 C 0.21389 0.41009 0.11912 0.0
C2365 C 0.21084 0.42773 0.11767 0.0
C2366 C 0.21052 0.39957 0.13404 0.0
C2367 C 0.18139 0.39232 0.17307 0.0
H2368 H 0.21279 0.36396 0.18644 0.0
C2369 C 0.15009 0.33021 0.22435 0.0
C2370 C 0.16502 0.32889 0.23485 0.0
C2371 C 0.15711 0.34345 0.21075 0.0
C2372 C 0.204 0.37198 0.18301 0.0
H2373 H 0.20326 0.449 0.13094 0.0
H2374 H 0.19802 0.43118 0.15695 0.0
H2375 H 0.22347 0.38541 0.1618 0.0
H2376 H 0.19923 0.34091 0.23924 0.0
H2377 H 0.21154 0.36448 0.21569 0.0
H2378 H 0.16222 0.37934 0.19437 0.0
C2379 C 0.20225 0.4249 0.14652 0.0
C2380 C 0.20996 0.38409 0.16872 0.0
C2381 C 0.20539 0.43524 0.13161 0.0
C2382 C 0.18726 0.34158 0.2315 0.0
C2383 C 0.19431 0.35492 0.21786 0.0
C2384 C 0.17552 0.38034 0.18734 0.0
C2385 C 0.20422 0.40657 0.1479 0.0
C2386 C 0.19863 0.39432 0.16347 0.0
C2387 C 0.17931 0.35596 0.20724 0.0
C2388 C 0.18655 0.36977 0.19245 0.0
H2389 H 0.21794 0.40385 0.10856 0.0
H2390 H 0.21203 0.38544 0.13452 0.0
H2391 H 0.17201 0.39964 0.1694 0.0
H2392 H 0.13286 0.32097 0.22663 0.0
H2393 H 0.14499 0.34354 0.20281 0.0
C2394 C 0.80606 0.58632 0.91085 0.0
C2395 C 0.7838 0.57191 0.91273 0.0
C2396 C 0.81427 0.5963 0.8959 0.0
C2397 C 0.80075 0.59306 0.85171 0.0
H2398 H 0.84427 0.65292 0.85221 0.0
C2399 C 0.82443 0.64618 0.79412 0.0
C2400 C 0.8464 0.66158 0.79216 0.0
C2401 C 0.81721 0.63432 0.80847 0.0
C2402 C 0.83231 0.63614 0.85182 0.0
H2403 H 0.75291 0.55611 0.90003 0.0
H2404 H 0.76705 0.57382 0.87422 0.0
H2405 H 0.83126 0.63397 0.87776 0.0
H2406 H 0.87812 0.67577 0.8036 0.0
H2407 H 0.86555 0.65523 0.82853 0.0
H2408 H 0.80163 0.59538 0.82573 0.0
C2409 C 0.77827 0.57734 0.88423 0.0
C2410 C 0.82486 0.62522 0.86651 0.0
C2411 C 0.77009 0.56736 0.89914 0.0
C2412 C 0.86101 0.66441 0.80478 0.0
C2413 C 0.8538 0.6526 0.81911 0.0
C2414 C 0.80817 0.604 0.83701 0.0
C2415 C 0.80044 0.59213 0.88242 0.0
C2416 C 0.80892 0.60354 0.86669 0.0
C2417 C 0.83177 0.63756 0.82124 0.0
C2418 C 0.82402 0.62571 0.83686 0.0
H2419 H 0.8171 0.5903 0.92104 0.0
H2420 H 0.83148 0.60735 0.89493 0.0
H2421 H 0.78872 0.5763 0.85132 0.0
H2422 H 0.81267 0.64371 0.78475 0.0
H2423 H 0.80009 0.62303 0.80973 0.0
C2424 C 0.3988 0.21044 0.91266 0.0
C2425 C 0.41362 0.20315 0.91468 0.0
C2426 C 0.38988 0.20988 0.89737 0.0
C2427 C 0.397 0.20407 0.8532 0.0
H2428 H 0.33574 0.18569 0.85099 0.0
C2429 C 0.34695 0.17543 0.79377 0.0
C2430 C 0.33205 0.1824 0.79068 0.0
C2431 C 0.35775 0.17965 0.8087 0.0
C2432 C 0.35292 0.19109 0.85141 0.0
H2433 H 0.43127 0.19028 0.90204 0.0
H2434 H 0.41522 0.18863 0.87558 0.0
H2435 H 0.35317 0.19022 0.87737 0.0
H2436 H 0.31727 0.19975 0.80086 0.0
H2437 H 0.33587 0.20676 0.82701 0.0
H2438 H 0.39651 0.20438 0.82718 0.0
C2439 C 0.41066 0.19505 0.88573 0.0
C2440 C 0.36295 0.19375 0.86654 0.0
C2441 C 0.41965 0.19572 0.90098 0.0
C2442 C 0.32833 0.1938 0.8029 0.0
C2443 C 0.33903 0.19788 0.81788 0.0
C2444 C 0.38692 0.20125 0.83807 0.0
C2445 C 0.3955 0.20193 0.88374 0.0
C2446 C 0.38509 0.20014 0.86764 0.0
C2447 C 0.35381 0.1908 0.82095 0.0
C2448 C 0.36474 0.1946 0.83701 0.0
H2449 H 0.39366 0.21612 0.92295 0.0
H2450 H 0.3785 0.2156 0.89626 0.0
H2451 H 0.41415 0.20937 0.85357 0.0
H2452 H 0.34995 0.1663 0.78477 0.0
H2453 H 0.36883 0.17373 0.8108 0.0
C2454 C 0.83086 0.22842 0.90759 0.0
C2455 C 0.80937 0.21953 0.91298 0.0
C2456 C 0.83535 0.22469 0.89183 0.0
C2457 C 0.81284 0.18829 0.85675 0.0
H2458 H 0.85924 0.23572 0.83382 0.0
C2459 C 0.83649 0.18158 0.79031 0.0
C2460 C 0.85884 0.19114 0.78724 0.0
C2461 C 0.82904 0.18504 0.8051 0.0
C2462 C 0.84634 0.22227 0.84009 0.0
H2463 H 0.77572 0.19923 0.90609 0.0
H2464 H 0.78361 0.19262 0.87839 0.0
H2465 H 0.84858 0.24143 0.8606 0.0
H2466 H 0.89082 0.21219 0.79721 0.0
H2467 H 0.87788 0.21801 0.82298 0.0
H2468 H 0.81082 0.16909 0.83622 0.0
C2469 C 0.79697 0.20251 0.88646 0.0
C2470 C 0.84023 0.22553 0.85545 0.0
C2471 C 0.79245 0.20629 0.90231 0.0
C2472 C 0.87351 0.2044 0.79923 0.0
C2473 C 0.86608 0.20793 0.81395 0.0
C2474 C 0.81897 0.18501 0.84133 0.0
C2475 C 0.8185 0.2119 0.88099 0.0
C2476 C 0.82367 0.20853 0.86411 0.0
C2477 C 0.84376 0.19827 0.8171 0.0
C2478 C 0.83606 0.20191 0.83294 0.0
H2479 H 0.84432 0.2382 0.91561 0.0
H2480 H 0.85213 0.23171 0.88819 0.0
H2481 H 0.80012 0.17483 0.86312 0.0
H2482 H 0.82476 0.17115 0.78138 0.0
H2483 H 0.81174 0.17749 0.80709 0.0
C2484 C 0.28912 0.11649 0.44912 0.0
C2485 C 0.27967 0.12776 0.44239 0.0
C2486 C 0.2963 0.11988 0.46521 0.0
C2487 C 0.31289 0.15833 0.49919 0.0
H2488 H 0.30406 0.10955 0.52444 0.0
C2489 C 0.33696 0.16397 0.56734 0.0
C2490 C 0.348 0.15313 0.57165 0.0
C2491 C 0.32739 0.16104 0.55196 0.0
C2492 C 0.30676 0.12334 0.51752 0.0
H2493 H 0.2706 0.15167 0.44725 0.0
H2494 H 0.28308 0.15755 0.47556 0.0
H2495 H 0.28948 0.1043 0.49694 0.0
H2496 H 0.35729 0.13042 0.56334 0.0
H2497 H 0.34071 0.12538 0.53654 0.0
H2498 H 0.33024 0.17734 0.51987 0.0
C2499 C 0.28505 0.14617 0.46828 0.0
C2500 C 0.29844 0.12035 0.50174 0.0
C2501 C 0.27789 0.1428 0.45209 0.0
C2502 C 0.34908 0.13916 0.56033 0.0
C2503 C 0.33939 0.13611 0.54503 0.0
C2504 C 0.32115 0.16131 0.51504 0.0
C2505 C 0.2942 0.13462 0.47506 0.0
C2506 C 0.30172 0.13783 0.49227 0.0
C2507 C 0.32847 0.14704 0.54066 0.0
C2508 C 0.31847 0.14387 0.52427 0.0
H2509 H 0.29121 0.10517 0.44186 0.0
H2510 H 0.30377 0.1111 0.46988 0.0
H2511 H 0.31588 0.17215 0.49219 0.0
H2512 H 0.33599 0.17495 0.57577 0.0
H2513 H 0.31897 0.16958 0.54897 0.0
C2514 C 0.89336 0.16144 0.44926 0.0
C2515 C 0.89037 0.14201 0.44321 0.0
C2516 C 0.88612 0.16272 0.46473 0.0
C2517 C 0.84827 0.12978 0.49717 0.0
H2518 H 0.88191 0.18098 0.52282 0.0
C2519 C 0.81359 0.14894 0.55405 0.0
C2520 C 0.82763 0.15976 0.56713 0.0
C2521 C 0.82157 0.14563 0.5395 0.0
C2522 C 0.87241 0.16643 0.51596 0.0
H2523 H 0.8775 0.10865 0.44875 0.0
H2524 H 0.86512 0.1109 0.47597 0.0
H2525 H 0.89561 0.1772 0.49679 0.0
H2526 H 0.86121 0.17536 0.57508 0.0
H2527 H 0.87497 0.1689 0.54999 0.0
H2528 H 0.82532 0.1188 0.51656 0.0
C2529 C 0.87277 0.12512 0.46861 0.0
C2530 C 0.88013 0.16439 0.50087 0.0
C2531 C 0.8799 0.12382 0.45303 0.0
C2532 C 0.84983 0.16678 0.56536 0.0
C2533 C 0.8578 0.16333 0.55085 0.0
C2534 C 0.8406 0.13176 0.51233 0.0
C2535 C 0.8758 0.14461 0.47467 0.0
C2536 C 0.86805 0.14616 0.49116 0.0
C2537 C 0.84382 0.1529 0.53765 0.0
C2538 C 0.85245 0.15022 0.52186 0.0
H2539 H 0.90098 0.17566 0.44188 0.0
H2540 H 0.8883 0.17789 0.46879 0.0
H2541 H 0.83842 0.11558 0.49001 0.0
H2542 H 0.79635 0.14301 0.55502 0.0
H2543 H 0.81031 0.13774 0.52958 0.0
C2544 C 0.87163 0.77337 0.46437 0.0
C2545 C 0.87795 0.76651 0.45049 0.0
C2546 C 0.86884 0.76312 0.47928 0.0
C2547 C 0.85584 0.7113 0.49631 0.0
H2548 H 0.87323 0.74207 0.53723 0.0
C2549 C 0.84142 0.66699 0.55728 0.0
C2550 C 0.83492 0.67452 0.57065 0.0
C2551 C 0.84869 0.6789 0.543 0.0
C2552 C 0.86802 0.73319 0.52595 0.0
H2553 H 0.88682 0.7438 0.44153 0.0
H2554 H 0.88194 0.72581 0.46763 0.0
H2555 H 0.88264 0.7617 0.51172 0.0
H2556 H 0.83119 0.70067 0.57951 0.0
H2557 H 0.84346 0.72132 0.55451 0.0
H2558 H 0.84071 0.68282 0.51041 0.0
C2559 C 0.87904 0.7391 0.46692 0.0
C2560 C 0.87351 0.74447 0.5113 0.0
C2561 C 0.88204 0.74952 0.452 0.0
C2562 C 0.83627 0.69449 0.56949 0.0
C2563 C 0.84337 0.70636 0.55513 0.0
C2564 C 0.85021 0.70002 0.51094 0.0
C2565 C 0.87214 0.74561 0.4807 0.0
C2566 C 0.8674 0.73367 0.49629 0.0
C2567 C 0.8495 0.69864 0.54161 0.0
C2568 C 0.85612 0.71078 0.526 0.0
H2569 H 0.86853 0.78654 0.46364 0.0
H2570 H 0.86338 0.76848 0.48958 0.0
H2571 H 0.85055 0.70246 0.485 0.0
H2572 H 0.84093 0.65183 0.55786 0.0
H2573 H 0.85372 0.6726 0.53305 0.0
loop_
_geom_bond_atom_site_label_1
_geom_bond_atom_site_label_2
_geom_bond_distance
_geom_bond_site_symmetry_2
_ccdc_geom_bond_type
H0 C3 0.929 . S
H1 C6 0.929 . S
H2 C8 0.930 . S
C3 H0 0.929 . S
C3 C4 1.398 . S
C3 C5 1.396 . S
C4 C3 1.398 . S
C4 C8 1.407 . S
C5 C3 1.396 . S
C5 C6 1.394 . S
C6 H1 0.929 . S
C6 C5 1.394 . S
C6 C7 1.382 . S
C7 C6 1.382 . S
C7 C8 1.392 . S
C7 N9 1.420 . S
C8 H2 0.930 . S
C8 C4 1.407 . S
C8 C7 1.392 . S
N9 C7 1.420 . S
N9 C10 1.244 . S
C10 N9 1.244 . S
H11 C14 0.929 . S
H12 C17 0.929 . S
H13 C19 0.930 . S
C14 H11 0.929 . S
C14 C15 1.398 . S
C14 C16 1.396 . S
C15 C14 1.398 . S
C15 C19 1.407 . S
C16 C14 1.396 . S
C16 C17 1.394 . S
C17 H12 0.929 . S
C17 C16 1.394 . S
C17 C18 1.382 . S
C18 C17 1.382 . S
C18 C19 1.392 . S
C18 N20 1.420 . S
C19 H13 0.930 . S
C19 C15 1.407 . S
C19 C18 1.392 . S
N20 C18 1.420 . S
N20 C21 1.244 . S
C21 N20 1.244 . S
H22 C25 0.929 . S
H23 C28 0.929 . S
H24 C30 0.930 . S
C25 H22 0.929 . S
C25 C26 1.398 . S
C25 C27 1.396 . S
C26 C25 1.398 . S
C26 C30 1.407 . S
C27 C25 1.396 . S
C27 C28 1.394 . S
C28 H23 0.929 . S
C28 C27 1.394 . S
C28 C29 1.382 . S
C29 C28 1.382 . S
C29 C30 1.392 . S
C29 N31 1.420 . S
C30 H24 0.930 . S
C30 C26 1.407 . S
C30 C29 1.392 . S
N31 C29 1.420 . S
N31 C32 1.244 . S
C32 N31 1.244 . S
H33 C36 0.929 . S
H34 C39 0.929 . S
H35 C41 0.930 . S
C36 H33 0.929 . S
C36 C37 1.398 . S
C36 C38 1.396 . S
C37 C36 1.398 . S
C37 C41 1.407 . S
C38 C36 1.396 . S
C38 C39 1.394 . S
C39 H34 0.929 . S
C39 C38 1.394 . S
C39 C40 1.382 . S
C40 C39 1.382 . S
C40 C41 1.392 . S
C40 N42 1.420 . S
C41 H35 0.930 . S
C41 C37 1.407 . S
C41 C40 1.392 . S
N42 C40 1.420 . S
N42 C43 1.244 . S
C43 N42 1.244 . S
H44 C47 0.929 . S
H45 C50 0.929 . S
H46 C52 0.930 . S
C47 H44 0.929 . S
C47 C48 1.398 . S
C47 C49 1.396 . S
C48 C47 1.398 . S
C48 C52 1.407 . S
C49 C47 1.396 . S
C49 C50 1.394 . S
C50 H45 0.929 . S
C50 C49 1.394 . S
C50 C51 1.382 . S
C51 C50 1.382 . S
C51 C52 1.392 . S
C51 N53 1.420 . S
C52 H46 0.930 . S
C52 C48 1.407 . S
C52 C51 1.392 . S
N53 C51 1.420 . S
N53 C54 1.244 . S
C54 N53 1.244 . S
H55 C58 0.929 . S
H56 C61 0.929 . S
H57 C63 0.930 . S
C58 H55 0.929 . S
C58 C59 1.398 . S
C58 C60 1.396 . S
C59 C58 1.398 . S
C59 C63 1.407 . S
C60 C58 1.396 . S
C60 C61 1.394 . S
C61 H56 0.929 . S
C61 C60 1.394 . S
C61 C62 1.382 . S
C62 C61 1.382 . S
C62 C63 1.392 . S
C62 N64 1.420 . S
C63 H57 0.930 . S
C63 C59 1.407 . S
C63 C62 1.392 . S
N64 C62 1.420 . S
N64 C65 1.244 . S
C65 N64 1.244 . S
H66 C69 0.929 . S
H67 C72 0.929 . S
H68 C74 0.930 . S
C69 H66 0.929 . S
C69 C70 1.398 . S
C69 C71 1.396 . S
C70 C69 1.398 . S
C70 C74 1.407 . S
C71 C69 1.396 . S
C71 C72 1.394 . S
C72 H67 0.929 . S
C72 C71 1.394 . S
C72 C73 1.382 . S
C73 C72 1.382 . S
C73 C74 1.392 . S
C73 N75 1.420 . S
C74 H68 0.930 . S
C74 C70 1.407 . S
C74 C73 1.392 . S
N75 C73 1.420 . S
N75 C76 1.244 . S
C76 N75 1.244 . S
H77 C80 0.929 . S
H78 C83 0.929 . S
H79 C85 0.930 . S
C80 H77 0.929 . S
C80 C81 1.398 . S
C80 C82 1.396 . S
C81 C80 1.398 . S
C81 C85 1.407 . S
C82 C80 1.396 . S
C82 C83 1.394 . S
C83 H78 0.929 . S
C83 C82 1.394 . S
C83 C84 1.382 . S
C84 C83 1.382 . S
C84 C85 1.392 . S
C84 N86 1.420 . S
C85 H79 0.930 . S
C85 C81 1.407 . S
C85 C84 1.392 . S
N86 C84 1.420 . S
N86 C87 1.244 . S
C87 N86 1.244 . S
H88 C91 0.929 . S
H89 C94 0.929 . S
H90 C96 0.930 . S
C91 H88 0.929 . S
C91 C92 1.398 . S
C91 C93 1.396 . S
C92 C91 1.398 . S
C92 C96 1.407 . S
C93 C91 1.396 . S
C93 C94 1.394 . S
C94 H89 0.929 . S
C94 C93 1.394 . S
C94 C95 1.382 . S
C95 C94 1.382 . S
C95 C96 1.392 . S
C95 N97 1.420 . S
C96 H90 0.930 . S
C96 C92 1.407 . S
C96 C95 1.392 . S
N97 C95 1.420 . S
N97 C98 1.244 . S
C98 N97 1.244 . S
H99 C102 0.929 . S
H100 C105 0.929 . S
H101 C107 0.930 . S
C102 H99 0.929 . S
C102 C103 1.398 . S
C102 C104 1.396 . S
C103 C102 1.398 . S
C103 C107 1.407 . S
C104 C102 1.396 . S
C104 C105 1.394 . S
C105 H100 0.929 . S
C105 C104 1.394 . S
C105 C106 1.382 . S
C106 C105 1.382 . S
C106 C107 1.392 . S
C106 N108 1.420 . S
C107 H101 0.930 . S
C107 C103 1.407 . S
C107 C106 1.392 . S
N108 C106 1.420 . S
N108 C109 1.244 . S
C109 N108 1.244 . S
H110 C113 0.929 . S
H111 C116 0.929 . S
H112 C118 0.930 . S
C113 H110 0.929 . S
C113 C114 1.398 . S
C113 C115 1.396 . S
C114 C113 1.398 . S
C114 C118 1.407 . S
C115 C113 1.396 . S
C115 C116 1.394 . S
C116 H111 0.929 . S
C116 C115 1.394 . S
C116 C117 1.382 . S
C117 C116 1.382 . S
C117 C118 1.392 . S
C117 N119 1.420 . S
C118 H112 0.930 . S
C118 C114 1.407 . S
C118 C117 1.392 . S
N119 C117 1.420 . S
N119 C120 1.244 . S
C120 N119 1.244 . S
H121 C124 0.929 . S
H122 C127 0.929 . S
H123 C129 0.930 . S
C124 H121 0.929 . S
C124 C125 1.398 . S
C124 C126 1.396 . S
C125 C124 1.398 . S
C125 C129 1.407 . S
C126 C124 1.396 . S
C126 C127 1.394 . S
C127 H122 0.929 . S
C127 C126 1.394 . S
C127 C128 1.382 . S
C128 C127 1.382 . S
C128 C129 1.392 . S
C128 N130 1.420 . S
C129 H123 0.930 . S
C129 C125 1.407 . S
C129 C128 1.392 . S
N130 C128 1.420 . S
N130 C131 1.244 . S
C131 N130 1.244 . S
H132 C135 0.929 . S
H133 C138 0.929 . S
H134 C140 0.930 . S
C135 H132 0.929 . S
C135 C136 1.398 . S
C135 C137 1.396 . S
C136 C135 1.398 . S
C136 C140 1.407 . S
C137 C135 1.396 . S
C137 C138 1.394 . S
C138 H133 0.929 . S
C138 C137 1.394 . S
C138 C139 1.382 . S
C139 C138 1.382 . S
C139 C140 1.392 . S
C139 N141 1.420 . S
C140 H134 0.930 . S
C140 C136 1.407 . S
C140 C139 1.392 . S
N141 C139 1.420 . S
N141 C142 1.244 . S
C142 N141 1.244 . S
H143 C146 0.929 . S
H144 C149 0.929 . S
H145 C151 0.930 . S
C146 H143 0.929 . S
C146 C147 1.398 . S
C146 C148 1.396 . S
C147 C146 1.398 . S
C147 C151 1.407 . S
C148 C146 1.396 . S
C148 C149 1.394 . S
C149 H144 0.929 . S
C149 C148 1.394 . S
C149 C150 1.382 . S
C150 C149 1.382 . S
C150 C151 1.392 . S
C150 N152 1.420 . S
C151 H145 0.930 . S
C151 C147 1.407 . S
C151 C150 1.392 . S
N152 C150 1.420 . S
N152 C153 1.244 . S
C153 N152 1.244 . S
H154 C157 0.929 . S
H155 C160 0.929 . S
H156 C162 0.930 . S
C157 H154 0.929 . S
C157 C158 1.398 . S
C157 C159 1.396 . S
C158 C157 1.398 . S
C158 C162 1.407 . S
C159 C157 1.396 . S
C159 C160 1.394 . S
C160 H155 0.929 . S
C160 C159 1.394 . S
C160 C161 1.382 . S
C161 C160 1.382 . S
C161 C162 1.392 . S
C161 N163 1.420 . S
C162 H156 0.930 . S
C162 C158 1.407 . S
C162 C161 1.392 . S
N163 C161 1.420 . S
N163 C164 1.244 . S
C164 N163 1.244 . S
H165 C168 0.929 . S
H166 C171 0.929 . S
H167 C173 0.930 . S
C168 H165 0.929 . S
C168 C169 1.398 . S
C168 C170 1.396 . S
C169 C168 1.398 . S
C169 C173 1.407 . S
C170 C168 1.396 . S
C170 C171 1.394 . S
C171 H166 0.929 . S
C171 C170 1.394 . S
C171 C172 1.382 . S
C172 C171 1.382 . S
C172 C173 1.392 . S
C172 N174 1.420 . S
C173 H167 0.930 . S
C173 C169 1.407 . S
C173 C172 1.392 . S
N174 C172 1.420 . S
N174 C175 1.244 . S
C175 N174 1.244 . S
H176 C179 0.929 . S
H177 C182 0.929 . S
H178 C184 0.930 . S
C179 H176 0.929 . S
C179 C180 1.398 . S
C179 C181 1.396 . S
C180 C179 1.398 . S
C180 C184 1.407 . S
C181 C179 1.396 . S
C181 C182 1.394 . S
C182 H177 0.929 . S
C182 C181 1.394 . S
C182 C183 1.382 . S
C183 C182 1.382 . S
C183 C184 1.392 . S
C183 N185 1.420 . S
C184 H178 0.930 . S
C184 C180 1.407 . S
C184 C183 1.392 . S
N185 C183 1.420 . S
N185 C186 1.244 . S
C186 N185 1.244 . S
H187 C190 0.929 . S
H188 C193 0.929 . S
H189 C195 0.930 . S
C190 H187 0.929 . S
C190 C191 1.398 . S
C190 C192 1.396 . S
C191 C190 1.398 . S
C191 C195 1.407 . S
C192 C190 1.396 . S
C192 C193 1.394 . S
C193 H188 0.929 . S
C193 C192 1.394 . S
C193 C194 1.382 . S
C194 C193 1.382 . S
C194 C195 1.392 . S
C194 N196 1.420 . S
C195 H189 0.930 . S
C195 C191 1.407 . S
C195 C194 1.392 . S
N196 C194 1.420 . S
N196 C197 1.244 . S
C197 N196 1.244 . S
Gd198 N229 2.661 . S
Gd198 N235 2.601 . S
Gd198 O242 2.545 . S
Gd198 O243 2.606 1_545 S
Gd198 O245 2.429 . S
Gd198 O246 2.545 1_545 S
Gd198 O247 2.412 1_545 S
Gd198 O249 2.362 . S
Gd198 O250 2.324 1_545 S
Gd198 C257 2.828 . S
Gd199 N208 2.661 . S
Gd199 N212 2.601 . S
Gd199 O243 2.362 1_556 S
Gd199 O244 2.324 1_565 S
Gd199 O248 2.545 . S
Gd199 O249 2.606 1_566 S
Gd199 O251 2.429 1_556 S
Gd199 O252 2.545 1_565 S
Gd199 O253 2.412 1_565 S
Gd199 C266 2.828 1_565 S
C200 C203 1.417 . S
C200 C205 1.431 . S
C200 C206 1.412 . S
C201 C204 1.437 . S
C201 C205 1.317 . S
C201 H220 0.929 . S
C202 C203 1.426 . S
C202 C204 1.413 . S
C202 N212 1.359 . S
C203 C200 1.417 . S
C203 C202 1.426 . S
C203 N208 1.350 . S
C204 C201 1.437 . S
C204 C202 1.413 . S
C204 C214 1.391 . S
C205 C200 1.431 . S
C205 C201 1.317 . S
C205 H216 0.930 . S
C206 C200 1.412 . S
C206 C207 1.355 . S
C206 H218 0.930 . S
C207 C206 1.355 . S
C207 C209 1.402 . S
C207 H219 0.930 . S
N208 Gd199 2.661 . S
N208 C203 1.350 . S
N208 C209 1.307 . S
C209 C207 1.402 . S
C209 N208 1.307 . S
C209 H210 0.947 . S
H210 C209 0.947 . S
C211 N212 1.334 . S
C211 C213 1.394 . S
C211 H215 0.930 . S
N212 Gd199 2.601 . S
N212 C202 1.359 . S
N212 C211 1.334 . S
C213 C211 1.394 . S
C213 C214 1.359 . S
C213 H225 0.930 . S
C214 C204 1.391 . S
C214 C213 1.359 . S
C214 H226 0.929 . S
H215 C211 0.930 . S
H216 C205 0.930 . S
H217 C234 0.930 . S
H218 C206 0.930 . S
H219 C207 0.930 . S
H220 C201 0.929 . S
H221 C239 0.930 . S
H222 C230 0.930 . S
H223 C231 0.930 . S
H224 C255 0.929 . S
H225 C213 0.930 . S
H226 C214 0.929 . S
H227 C256 0.930 . S
H228 C237 0.930 . S
N229 Gd198 2.661 . S
N229 C233 1.350 . S
N229 C234 1.307 . S
C230 H222 0.930 . S
C230 C231 1.355 . S
C230 C232 1.412 . S
C231 H223 0.930 . S
C231 C230 1.355 . S
C231 C234 1.402 . S
C232 C230 1.412 . S
C232 C233 1.417 . S
C232 C256 1.431 . S
C233 N229 1.350 . S
C233 C232 1.417 . S
C233 C236 1.426 . S
C234 H217 0.930 . S
C234 N229 1.307 . S
C234 C231 1.402 . S
N235 Gd198 2.601 . S
N235 C236 1.359 . S
N235 C239 1.334 . S
C236 C233 1.426 . S
C236 N235 1.359 . S
C236 C240 1.413 . S
C237 H228 0.930 . S
C237 C238 1.359 . S
C237 C239 1.394 . S
C238 C237 1.359 . S
C238 C240 1.391 . S
C238 H241 0.929 . S
C239 H221 0.930 . S
C239 N235 1.334 . S
C239 C237 1.394 . S
C240 C236 1.413 . S
C240 C238 1.391 . S
C240 C255 1.437 . S
H241 C238 0.929 . S
O242 Gd198 2.545 . S
O242 C257 1.258 . S
O243 Gd198 2.606 1_565 S
O243 Gd199 2.362 1_554 S
O243 C254 1.284 . S
O244 Gd199 2.324 1_545 S
O244 C264 1.254 1_556 S
O245 Gd198 2.429 . S
O245 C264 1.268 . S
O246 Gd198 2.545 1_565 S
O246 C254 1.250 . S
O247 Gd198 2.412 1_565 S
O247 C257 1.252 1_565 S
O248 Gd199 2.545 . S
O248 C266 1.258 1_565 S
O249 Gd198 2.362 . S
O249 Gd199 2.606 1_544 S
O249 C265 1.284 1_554 S
O250 Gd198 2.324 1_565 S
O250 C273 1.254 . S
O251 Gd199 2.429 1_554 S
O251 C273 1.268 . S
O252 Gd199 2.545 1_545 S
O252 C265 1.250 . S
O253 Gd199 2.412 1_545 S
O253 C266 1.252 . S
C254 O243 1.284 . S
C254 O246 1.250 . S
C255 H224 0.929 . S
C255 C240 1.437 . S
C255 C256 1.317 . S
C256 H227 0.930 . S
C256 C232 1.431 . S
C256 C255 1.317 . S
C257 Gd198 2.828 . S
C257 O242 1.258 . S
C257 O247 1.252 1_545 S
C257 C258 1.503 . S
C258 C257 1.503 . S
C258 C259 1.425 . S
C258 C260 1.344 1_545 S
C259 C258 1.425 . S
C259 C262 1.398 . S
C259 H274 0.930 . S
C260 C258 1.344 1_565 S
C260 C261 1.391 . S
C260 H275 0.930 . S
C261 C260 1.391 . S
C261 C263 1.387 . S
C262 C259 1.398 . S
C262 C263 1.380 1_545 S
C262 H276 0.930 . S
C263 C261 1.387 . S
C263 C262 1.380 1_565 S
C263 H277 0.930 . S
C264 O244 1.254 1_554 S
C264 O245 1.268 . S
C265 O249 1.284 1_556 S
C265 O252 1.250 . S
C266 Gd199 2.828 1_545 S
C266 O248 1.258 1_545 S
C266 O253 1.252 . S
C266 C267 1.497 . S
C267 C266 1.497 . S
C267 C268 1.395 1_545 S
C267 C269 1.380 . S
C268 C267 1.395 1_565 S
C268 C271 1.408 . S
C268 H278 0.930 . S
C269 C267 1.380 . S
C269 C270 1.391 . S
C269 H279 0.930 . S
C270 C269 1.391 . S
C270 C272 1.387 . S
C271 C268 1.408 . S
C271 C272 1.329 1_565 S
C271 H280 0.973 . S
C272 C270 1.387 . S
C272 C271 1.329 1_545 S
C272 H281 0.930 . S
C273 O250 1.254 . S
C273 O251 1.268 . S
H274 C259 0.930 . S
H275 C260 0.930 . S
H276 C262 0.930 . S
H277 C263 0.930 . S
H278 C268 0.930 . S
H279 C269 0.930 . S
H280 C271 0.973 . S
H281 C272 0.930 . S
Gd282 N313 2.661 . S
Gd282 N319 2.601 . S
Gd282 O326 2.545 . S
Gd282 O327 2.606 1_655 S
Gd282 O329 2.429 . S
Gd282 O330 2.545 1_655 S
Gd282 O331 2.412 1_655 S
Gd282 O333 2.362 . S
Gd282 O334 2.324 1_655 S
Gd282 C341 2.820 1_655 S
Gd283 N292 2.661 . S
Gd283 N296 2.601 . S
Gd283 O327 2.362 1_556 S
Gd283 O328 2.324 1_455 S
Gd283 O332 2.545 . S
Gd283 O333 2.606 1_456 S
Gd283 O335 2.429 1_556 S
Gd283 O336 2.545 1_455 S
Gd283 O337 2.420 . S
Gd283 C350 2.828 . S
C284 C287 1.417 . S
C284 C289 1.431 . S
C284 C290 1.412 . S
C285 C288 1.437 . S
C285 C289 1.317 . S
C285 H304 0.929 . S
C286 C287 1.426 . S
C286 C288 1.413 . S
C286 N296 1.359 . S
C287 C284 1.417 . S
C287 C286 1.426 . S
C287 N292 1.350 . S
C288 C285 1.437 . S
C288 C286 1.413 . S
C288 C298 1.391 . S
C289 C284 1.431 . S
C289 C285 1.317 . S
C289 H300 0.930 . S
C290 C284 1.412 . S
C290 C291 1.355 . S
C290 H302 0.930 . S
C291 C290 1.355 . S
C291 C293 1.402 . S
C291 H303 0.930 . S
N292 Gd283 2.661 . S
N292 C287 1.350 . S
N292 C293 1.307 . S
C293 C291 1.402 . S
C293 N292 1.307 . S
C293 H294 0.930 . S
H294 C293 0.930 . S
C295 N296 1.334 . S
C295 C297 1.394 . S
C295 H299 0.930 . S
N296 Gd283 2.601 . S
N296 C286 1.359 . S
N296 C295 1.334 . S
C297 C295 1.394 . S
C297 C298 1.359 . S
C297 H309 0.930 . S
C298 C288 1.391 . S
C298 C297 1.359 . S
C298 H310 0.929 . S
H299 C295 0.930 . S
H300 C289 0.930 . S
H301 C318 0.938 . S
H302 C290 0.930 . S
H303 C291 0.930 . S
H304 C285 0.929 . S
H305 C323 0.930 . S
H306 C314 0.930 . S
H307 C315 0.930 . S
H308 C339 0.929 . S
H309 C297 0.930 . S
H310 C298 0.929 . S
H311 C340 0.930 . S
H312 C321 0.930 . S
N313 Gd282 2.661 . S
N313 C317 1.350 . S
N313 C318 1.307 . S
C314 H306 0.930 . S
C314 C315 1.355 . S
C314 C316 1.412 . S
C315 H307 0.930 . S
C315 C314 1.355 . S
C315 C318 1.402 . S
C316 C314 1.412 . S
C316 C317 1.417 . S
C316 C340 1.431 . S
C317 N313 1.350 . S
C317 C316 1.417 . S
C317 C320 1.426 . S
C318 H301 0.938 . S
C318 N313 1.307 . S
C318 C315 1.402 . S
N319 Gd282 2.601 . S
N319 C320 1.359 . S
N319 C323 1.334 . S
C320 C317 1.426 . S
C320 N319 1.359 . S
C320 C324 1.413 . S
C321 H312 0.930 . S
C321 C322 1.359 . S
C321 C323 1.394 . S
C322 C321 1.359 . S
C322 C324 1.391 . S
C322 H325 0.929 . S
C323 H305 0.930 . S
C323 N319 1.334 . S
C323 C321 1.394 . S
C324 C320 1.413 . S
C324 C322 1.391 . S
C324 C339 1.437 . S
H325 C322 0.929 . S
O326 Gd282 2.545 . S
O326 C341 1.251 1_655 S
O327 Gd282 2.606 1_455 S
O327 Gd283 2.362 1_554 S
O327 C338 1.284 . S
O328 Gd283 2.324 1_655 S
O328 C348 1.254 1_556 S
O329 Gd282 2.429 . S
O329 C348 1.268 . S
O330 Gd282 2.545 1_455 S
O330 C338 1.250 . S
O331 Gd282 2.412 1_455 S
O331 C341 1.250 . S
O332 Gd283 2.545 . S
O332 C350 1.258 . S
O333 Gd282 2.362 . S
O333 Gd283 2.606 1_654 S
O333 C349 1.284 1_554 S
O334 Gd282 2.324 1_455 S
O334 C357 1.254 . S
O335 Gd283 2.429 1_554 S
O335 C357 1.268 . S
O336 Gd283 2.545 1_655 S
O336 C349 1.250 . S
O337 Gd283 2.420 . S
O337 C350 1.250 . S
C338 O327 1.284 . S
C338 O330 1.250 . S
C339 H308 0.929 . S
C339 C324 1.437 . S
C339 C340 1.317 . S
C340 H311 0.930 . S
C340 C316 1.431 . S
C340 C339 1.317 . S
C341 Gd282 2.820 1_455 S
C341 O326 1.251 1_455 S
C341 O331 1.250 . S
C341 C342 1.509 . S
C342 C341 1.509 . S
C342 C343 1.395 1_455 S
C342 C344 1.380 . S
C343 C342 1.395 1_655 S
C343 C346 1.398 . S
C343 H358 0.930 . S
C344 C342 1.380 . S
C344 C345 1.391 . S
C344 H359 0.930 . S
C345 C344 1.391 . S
C345 C347 1.387 . S
C346 C343 1.398 . S
C346 C347 1.380 1_655 S
C346 H360 0.930 . S
C347 C345 1.387 . S
C347 C346 1.380 1_455 S
C347 H361 0.930 . S
C348 O328 1.254 1_554 S
C348 O329 1.268 . S
C349 O333 1.284 1_556 S
C349 O336 1.250 . S
C350 Gd283 2.828 . S
C350 O332 1.258 . S
C350 O337 1.250 . S
C350 C351 1.497 . S
C351 C350 1.497 . S
C351 C352 1.395 . S
C351 C353 1.380 1_455 S
C352 C351 1.395 . S
C352 C355 1.398 . S
C352 H362 0.930 . S
C353 C351 1.380 1_655 S
C353 C354 1.391 . S
C353 H363 0.930 . S
C354 C353 1.391 . S
C354 C356 1.387 . S
C355 C352 1.398 . S
C355 C356 1.380 1_455 S
C355 H364 0.930 . S
C356 C354 1.387 . S
C356 C355 1.380 1_655 S
C356 H365 0.930 . S
C357 O334 1.254 . S
C357 O335 1.268 . S
H358 C343 0.930 . S
H359 C344 0.930 . S
H360 C346 0.930 . S
H361 C347 0.930 . S
H362 C352 0.930 . S
H363 C353 0.930 . S
H364 C355 0.930 . S
H365 C356 0.930 . S
Gd366 N397 2.661 . S
Gd366 N403 2.601 . S
Gd366 O410 2.545 . S
Gd366 O411 2.606 1_556 S
Gd366 O413 2.429 1_556 S
Gd366 O414 2.545 . S
Gd366 O415 2.412 . S
Gd366 O417 2.362 1_556 S
Gd366 O418 2.324 . S
Gd366 C425 2.828 . S
Gd367 N376 2.661 . S
Gd367 N380 2.601 . S
Gd367 O411 2.362 . S
Gd367 O412 2.324 . S
Gd367 O416 2.545 . S
Gd367 O417 2.606 . S
Gd367 O419 2.429 . S
Gd367 O420 2.545 . S
Gd367 O421 2.412 . S
Gd367 C434 2.828 . S
C368 C371 1.417 . S
C368 C373 1.431 . S
C368 C374 1.412 . S
C369 C372 1.437 . S
C369 C373 1.317 . S
C369 H388 0.929 . S
C370 C371 1.426 . S
C370 C372 1.413 . S
C370 N380 1.359 . S
C371 C368 1.417 . S
C371 C370 1.426 . S
C371 N376 1.350 . S
C372 C369 1.437 . S
C372 C370 1.413 . S
C372 C382 1.391 . S
C373 C368 1.431 . S
C373 C369 1.317 . S
C373 H384 0.930 . S
C374 C368 1.412 . S
C374 C375 1.355 . S
C374 H386 0.930 . S
C375 C374 1.355 . S
C375 C377 1.402 . S
C375 H387 0.930 . S
N376 Gd367 2.661 . S
N376 C371 1.350 . S
N376 C377 1.307 . S
C377 C375 1.402 . S
C377 N376 1.307 . S
C377 H378 0.930 . S
H378 C377 0.930 . S
C379 N380 1.334 . S
C379 C381 1.394 . S
C379 H383 0.930 . S
N380 Gd367 2.601 . S
N380 C370 1.359 . S
N380 C379 1.334 . S
C381 C379 1.394 . S
C381 C382 1.359 . S
C381 H393 0.930 . S
C382 C372 1.391 . S
C382 C381 1.359 . S
C382 H394 0.929 . S
H383 C379 0.930 . S
H384 C373 0.930 . S
H385 C402 0.930 . S
H386 C374 0.930 . S
H387 C375 0.930 . S
H388 C369 0.929 . S
H389 C407 0.930 . S
H390 C398 0.930 . S
H391 C399 0.930 . S
H392 C423 0.929 . S
H393 C381 0.930 . S
H394 C382 0.929 . S
H395 C424 0.930 . S
H396 C405 0.930 . S
N397 Gd366 2.661 . S
N397 C401 1.350 . S
N397 C402 1.307 . S
C398 H390 0.930 . S
C398 C399 1.355 . S
C398 C400 1.412 . S
C399 H391 0.930 . S
C399 C398 1.355 . S
C399 C402 1.402 . S
C400 C398 1.412 . S
C400 C401 1.417 . S
C400 C424 1.431 . S
C401 N397 1.350 . S
C401 C400 1.417 . S
C401 C404 1.426 . S
C402 H385 0.930 . S
C402 N397 1.307 . S
C402 C399 1.402 . S
N403 Gd366 2.601 . S
N403 C404 1.359 . S
N403 C407 1.334 . S
C404 C401 1.426 . S
C404 N403 1.359 . S
C404 C408 1.413 . S
C405 H396 0.930 . S
C405 C406 1.359 . S
C405 C407 1.394 . S
C406 C405 1.359 . S
C406 C408 1.391 . S
C406 H409 0.929 . S
C407 H389 0.930 . S
C407 N403 1.334 . S
C407 C405 1.394 . S
C408 C404 1.413 . S
C408 C406 1.391 . S
C408 C423 1.437 . S
H409 C406 0.929 . S
O410 Gd366 2.545 . S
O410 C425 1.258 . S
O411 Gd366 2.606 1_554 S
O411 Gd367 2.362 . S
O411 C422 1.284 1_554 S
O412 Gd367 2.324 . S
O412 C432 1.254 . S
O413 Gd366 2.429 1_554 S
O413 C432 1.268 . S
O414 Gd366 2.545 . S
O414 C422 1.250 . S
O415 Gd366 2.412 . S
O415 C425 1.252 . S
O416 Gd367 2.545 . S
O416 C434 1.258 . S
O417 Gd366 2.362 1_554 S
O417 Gd367 2.606 . S
O417 C433 1.284 . S
O418 Gd366 2.324 . S
O418 C441 1.254 1_556 S
O419 Gd367 2.429 . S
O419 C441 1.268 . S
O420 Gd367 2.545 . S
O420 C433 1.250 . S
O421 Gd367 2.412 . S
O421 C434 1.252 . S
C422 O411 1.284 1_556 S
C422 O414 1.250 . S
C423 H392 0.929 . S
C423 C408 1.437 . S
C423 C424 1.317 . S
C424 H395 0.930 . S
C424 C400 1.431 . S
C424 C423 1.317 . S
C425 Gd366 2.828 . S
C425 O410 1.258 . S
C425 O415 1.252 . S
C425 C426 1.497 . S
C426 C425 1.497 . S
C426 C427 1.395 . S
C426 C428 1.380 . S
C427 C426 1.395 . S
C427 C430 1.398 . S
C427 H442 0.930 . S
C428 C426 1.380 . S
C428 C429 1.391 . S
C428 H443 0.930 . S
C429 C428 1.391 . S
C429 C431 1.387 . S
C430 C427 1.398 . S
C430 C431 1.380 . S
C430 H444 0.930 . S
C431 C429 1.387 . S
C431 C430 1.380 . S
C431 H445 0.930 . S
C432 O412 1.254 . S
C432 O413 1.268 . S
C433 O417 1.284 . S
C433 O420 1.250 . S
C434 Gd367 2.828 . S
C434 O416 1.258 . S
C434 O421 1.252 . S
C434 C435 1.497 . S
C435 C434 1.497 . S
C435 C436 1.395 . S
C435 C437 1.380 . S
C436 C435 1.395 . S
C436 C439 1.398 . S
C436 H446 0.930 . S
C437 C435 1.380 . S
C437 C438 1.391 . S
C437 H447 0.930 . S
C438 C437 1.391 . S
C438 C440 1.387 . S
C439 C436 1.398 . S
C439 C440 1.380 . S
C439 H448 0.930 . S
C440 C438 1.387 . S
C440 C439 1.380 . S
C440 H449 0.930 . S
C441 O418 1.254 1_554 S
C441 O419 1.268 . S
H442 C427 0.930 . S
H443 C428 0.930 . S
H444 C430 0.930 . S
H445 C431 0.930 . S
H446 C436 0.930 . S
H447 C437 0.930 . S
H448 C439 0.930 . S
H449 C440 0.930 . S
Gd450 N481 2.661 . S
Gd450 N487 2.601 . S
Gd450 O494 2.545 . S
Gd450 O495 2.606 . S
Gd450 O497 2.429 . S
Gd450 O498 2.545 . S
Gd450 O499 2.412 . S
Gd450 O501 2.362 . S
Gd450 O502 2.324 . S
Gd450 C509 2.828 . S
Gd451 N460 2.661 . S
Gd451 N464 2.601 . S
Gd451 O495 2.362 . S
Gd451 O496 2.324 . S
Gd451 O500 2.545 . S
Gd451 O501 2.606 . S
Gd451 O503 2.429 . S
Gd451 O504 2.545 . S
Gd451 O505 2.412 . S
Gd451 C518 2.828 . S
C452 C455 1.417 . S
C452 C457 1.431 . S
C452 C458 1.412 . S
C453 C456 1.437 . S
C453 C457 1.317 . S
C453 H472 0.929 . S
C454 C455 1.426 . S
C454 C456 1.413 . S
C454 N464 1.359 . S
C455 C452 1.417 . S
C455 C454 1.426 . S
C455 N460 1.350 . S
C456 C453 1.437 . S
C456 C454 1.413 . S
C456 C466 1.391 . S
C457 C452 1.431 . S
C457 C453 1.317 . S
C457 H468 0.930 . S
C458 C452 1.412 . S
C458 C459 1.355 . S
C458 H470 0.930 . S
C459 C458 1.355 . S
C459 C461 1.402 . S
C459 H471 0.930 . S
N460 Gd451 2.661 . S
N460 C455 1.350 . S
N460 C461 1.307 . S
C461 C459 1.402 . S
C461 N460 1.307 . S
C461 H462 0.930 . S
H462 C461 0.930 . S
C463 N464 1.334 . S
C463 C465 1.394 . S
C463 H467 0.930 . S
N464 Gd451 2.601 . S
N464 C454 1.359 . S
N464 C463 1.334 . S
C465 C463 1.394 . S
C465 C466 1.359 . S
C465 H477 0.930 . S
C466 C456 1.391 . S
C466 C465 1.359 . S
C466 H478 0.929 . S
H467 C463 0.930 . S
H468 C457 0.930 . S
H469 C486 0.930 . S
H470 C458 0.930 . S
H471 C459 0.930 . S
H472 C453 0.929 . S
H473 C491 0.930 . S
H474 C482 0.930 . S
H475 C483 0.930 . S
H476 C507 0.929 . S
H477 C465 0.930 . S
H478 C466 0.929 . S
H479 C508 0.930 . S
H480 C489 0.930 . S
N481 Gd450 2.661 . S
N481 C485 1.350 . S
N481 C486 1.307 . S
C482 H474 0.930 . S
C482 C483 1.355 . S
C482 C484 1.412 . S
C483 H475 0.930 . S
C483 C482 1.355 . S
C483 C486 1.402 . S
C484 C482 1.412 . S
C484 C485 1.417 . S
C484 C508 1.431 . S
C485 N481 1.350 . S
C485 C484 1.417 . S
C485 C488 1.426 . S
C486 H469 0.930 . S
C486 N481 1.307 . S
C486 C483 1.402 . S
N487 Gd450 2.601 . S
N487 C488 1.359 . S
N487 C491 1.334 . S
C488 C485 1.426 . S
C488 N487 1.359 . S
C488 C492 1.413 . S
C489 H480 0.930 . S
C489 C490 1.359 . S
C489 C491 1.394 . S
C490 C489 1.359 . S
C490 C492 1.391 . S
C490 H493 0.929 . S
C491 H473 0.930 . S
C491 N487 1.334 . S
C491 C489 1.394 . S
C492 C488 1.413 . S
C492 C490 1.391 . S
C492 C507 1.437 . S
H493 C490 0.929 . S
O494 Gd450 2.545 . S
O494 C509 1.258 . S
O495 Gd450 2.606 . S
O495 Gd451 2.362 . S
O495 C506 1.284 . S
O496 Gd451 2.324 . S
O496 C516 1.254 . S
O497 Gd450 2.429 . S
O497 C516 1.268 . S
O498 Gd450 2.545 . S
O498 C506 1.250 . S
O499 Gd450 2.412 . S
O499 C509 1.252 . S
O500 Gd451 2.545 . S
O500 C518 1.258 . S
O501 Gd450 2.362 . S
O501 Gd451 2.606 . S
O501 C517 1.284 . S
O502 Gd450 2.324 . S
O502 C525 1.254 . S
O503 Gd451 2.429 . S
O503 C525 1.268 . S
O504 Gd451 2.545 . S
O504 C517 1.250 . S
O505 Gd451 2.412 . S
O505 C518 1.252 . S
C506 O495 1.284 . S
C506 O498 1.250 . S
C507 H476 0.929 . S
C507 C492 1.437 . S
C507 C508 1.317 . S
C508 H479 0.930 . S
C508 C484 1.431 . S
C508 C507 1.317 . S
C509 Gd450 2.828 . S
C509 O494 1.258 . S
C509 O499 1.252 . S
C509 C510 1.497 . S
C510 C509 1.497 . S
C510 C511 1.395 . S
C510 C512 1.380 . S
C511 C510 1.395 . S
C511 C514 1.398 . S
C511 H526 0.930 . S
C512 C510 1.380 . S
C512 C513 1.391 . S
C512 H527 0.930 . S
C513 C512 1.391 . S
C513 C515 1.387 . S
C514 C511 1.398 . S
C514 C515 1.380 . S
C514 H528 0.930 . S
C515 C513 1.387 . S
C515 C514 1.380 . S
C515 H529 0.930 . S
C516 O496 1.254 . S
C516 O497 1.268 . S
C517 O501 1.284 . S
C517 O504 1.250 . S
C518 Gd451 2.828 . S
C518 O500 1.258 . S
C518 O505 1.252 . S
C518 C519 1.497 . S
C519 C518 1.497 . S
C519 C520 1.395 . S
C519 C521 1.380 . S
C520 C519 1.395 . S
C520 C523 1.398 . S
C520 H530 0.930 . S
C521 C519 1.380 . S
C521 C522 1.391 . S
C521 H531 0.930 . S
C522 C521 1.391 . S
C522 C524 1.387 . S
C523 C520 1.398 . S
C523 C524 1.380 . S
C523 H532 0.930 . S
C524 C522 1.387 . S
C524 C523 1.380 . S
C524 H533 0.930 . S
C525 O502 1.254 . S
C525 O503 1.268 . S
H526 C511 0.930 . S
H527 C512 0.930 . S
H528 C514 0.930 . S
H529 C515 0.930 . S
H530 C520 0.930 . S
H531 C521 0.930 . S
H532 C523 0.930 . S
H533 C524 0.930 . S
Gd534 N565 2.661 . S
Gd534 N571 2.601 . S
Gd534 O578 2.545 . S
Gd534 O579 2.606 . S
Gd534 O581 2.429 . S
Gd534 O582 2.545 . S
Gd534 O583 2.412 . S
Gd534 O585 2.362 . S
Gd534 O586 2.324 . S
Gd534 C593 2.828 . S
Gd535 N544 2.661 . S
Gd535 N548 2.601 . S
Gd535 O579 2.362 . S
Gd535 O580 2.324 . S
Gd535 O584 2.545 . S
Gd535 O585 2.606 . S
Gd535 O587 2.429 . S
Gd535 O588 2.545 . S
Gd535 O589 2.412 . S
Gd535 C602 2.828 . S
C536 C539 1.417 . S
C536 C541 1.431 . S
C536 C542 1.412 . S
C537 C540 1.437 . S
C537 C541 1.317 . S
C537 H556 0.929 . S
C538 C539 1.426 . S
C538 C540 1.413 . S
C538 N548 1.359 . S
C539 C536 1.417 . S
C539 C538 1.426 . S
C539 N544 1.350 . S
C540 C537 1.437 . S
C540 C538 1.413 . S
C540 C550 1.391 . S
C541 C536 1.431 . S
C541 C537 1.317 . S
C541 H552 0.930 . S
C542 C536 1.412 . S
C542 C543 1.355 . S
C542 H554 0.930 . S
C543 C542 1.355 . S
C543 C545 1.402 . S
C543 H555 0.930 . S
N544 Gd535 2.661 . S
N544 C539 1.350 . S
N544 C545 1.307 . S
C545 C543 1.402 . S
C545 N544 1.307 . S
C545 H546 0.930 . S
H546 C545 0.930 . S
C547 N548 1.334 . S
C547 C549 1.394 . S
C547 H551 0.930 . S
N548 Gd535 2.601 . S
N548 C538 1.359 . S
N548 C547 1.334 . S
C549 C547 1.394 . S
C549 C550 1.359 . S
C549 H561 0.930 . S
C550 C540 1.391 . S
C550 C549 1.359 . S
C550 H562 0.929 . S
H551 C547 0.930 . S
H552 C541 0.930 . S
H553 C570 0.930 . S
H554 C542 0.930 . S
H555 C543 0.930 . S
H556 C537 0.929 . S
H557 C575 0.930 . S
H558 C566 0.930 . S
H559 C567 0.930 . S
H560 C591 0.929 . S
H561 C549 0.930 . S
H562 C550 0.929 . S
H563 C592 0.930 . S
H564 C573 0.930 . S
N565 Gd534 2.661 . S
N565 C569 1.350 . S
N565 C570 1.307 . S
C566 H558 0.930 . S
C566 C567 1.355 . S
C566 C568 1.412 . S
C567 H559 0.930 . S
C567 C566 1.355 . S
C567 C570 1.402 . S
C568 C566 1.412 . S
C568 C569 1.417 . S
C568 C592 1.431 . S
C569 N565 1.350 . S
C569 C568 1.417 . S
C569 C572 1.426 . S
C570 H553 0.930 . S
C570 N565 1.307 . S
C570 C567 1.402 . S
N571 Gd534 2.601 . S
N571 C572 1.359 . S
N571 C575 1.334 . S
C572 C569 1.426 . S
C572 N571 1.359 . S
C572 C576 1.413 . S
C573 H564 0.930 . S
C573 C574 1.359 . S
C573 C575 1.394 . S
C574 C573 1.359 . S
C574 C576 1.391 . S
C574 H577 0.929 . S
C575 H557 0.930 . S
C575 N571 1.334 . S
C575 C573 1.394 . S
C576 C572 1.413 . S
C576 C574 1.391 . S
C576 C591 1.437 . S
H577 C574 0.929 . S
O578 Gd534 2.545 . S
O578 C593 1.258 . S
O579 Gd534 2.606 . S
O579 Gd535 2.362 . S
O579 C590 1.284 . S
O580 Gd535 2.324 . S
O580 C600 1.254 . S
O581 Gd534 2.429 . S
O581 C600 1.268 . S
O582 Gd534 2.545 . S
O582 C590 1.250 . S
O583 Gd534 2.412 . S
O583 C593 1.252 . S
O584 Gd535 2.545 . S
O584 C602 1.258 . S
O585 Gd534 2.362 . S
O585 Gd535 2.606 . S
O585 C601 1.284 . S
O586 Gd534 2.324 . S
O586 C609 1.254 . S
O587 Gd535 2.429 . S
O587 C609 1.268 . S
O588 Gd535 2.545 . S
O588 C601 1.250 . S
O589 Gd535 2.412 . S
O589 C602 1.252 . S
C590 O579 1.284 . S
C590 O582 1.250 . S
C591 H560 0.929 . S
C591 C576 1.437 . S
C591 C592 1.317 . S
C592 H563 0.930 . S
C592 C568 1.431 . S
C592 C591 1.317 . S
C593 Gd534 2.828 . S
C593 O578 1.258 . S
C593 O583 1.252 . S
C593 C594 1.497 . S
C594 C593 1.497 . S
C594 C595 1.395 . S
C594 C596 1.380 . S
C595 C594 1.395 . S
C595 C598 1.398 . S
C595 H610 0.930 . S
C596 C594 1.380 . S
C596 C597 1.391 . S
C596 H611 0.930 . S
C597 C596 1.391 . S
C597 C599 1.387 . S
C598 C595 1.398 . S
C598 C599 1.380 . S
C598 H612 0.930 . S
C599 C597 1.387 . S
C599 C598 1.380 . S
C599 H613 0.930 . S
C600 O580 1.254 . S
C600 O581 1.268 . S
C601 O585 1.284 . S
C601 O588 1.250 . S
C602 Gd535 2.828 . S
C602 O584 1.258 . S
C602 O589 1.252 . S
C602 C603 1.497 . S
C603 C602 1.497 . S
C603 C604 1.395 . S
C603 C605 1.380 . S
C604 C603 1.395 . S
C604 C607 1.398 . S
C604 H614 0.930 . S
C605 C603 1.380 . S
C605 C606 1.391 . S
C605 H615 0.930 . S
C606 C605 1.391 . S
C606 C608 1.387 . S
C607 C604 1.398 . S
C607 C608 1.380 . S
C607 H616 0.930 . S
C608 C606 1.387 . S
C608 C607 1.380 . S
C608 H617 0.930 . S
C609 O586 1.254 . S
C609 O587 1.268 . S
H610 C595 0.930 . S
H611 C596 0.930 . S
H612 C598 0.930 . S
H613 C599 0.930 . S
H614 C604 0.930 . S
H615 C605 0.930 . S
H616 C607 0.930 . S
H617 C608 0.930 . S
Gd618 N649 2.661 . S
Gd618 N655 2.601 . S
Gd618 O662 2.545 . S
Gd618 O663 2.606 . S
Gd618 O665 2.429 . S
Gd618 O666 2.545 . S
Gd618 O667 2.412 . S
Gd618 O669 2.362 . S
Gd618 O670 2.324 . S
Gd618 C677 2.828 . S
Gd619 N628 2.661 . S
Gd619 N632 2.601 . S
Gd619 O663 2.362 . S
Gd619 O664 2.324 . S
Gd619 O668 2.545 . S
Gd619 O669 2.606 . S
Gd619 O671 2.429 . S
Gd619 O672 2.545 . S
Gd619 O673 2.412 . S
Gd619 C686 2.828 . S
C620 C623 1.417 . S
C620 C625 1.431 . S
C620 C626 1.412 . S
C621 C624 1.437 . S
C621 C625 1.317 . S
C621 H640 0.929 . S
C622 C623 1.426 . S
C622 C624 1.413 . S
C622 N632 1.359 . S
C623 C620 1.417 . S
C623 C622 1.426 . S
C623 N628 1.350 . S
C624 C621 1.437 . S
C624 C622 1.413 . S
C624 C634 1.391 . S
C625 C620 1.431 . S
C625 C621 1.317 . S
C625 H636 0.930 . S
C626 C620 1.412 . S
C626 C627 1.355 . S
C626 H638 0.930 . S
C627 C626 1.355 . S
C627 C629 1.402 . S
C627 H639 0.930 . S
N628 Gd619 2.661 . S
N628 C623 1.350 . S
N628 C629 1.307 . S
C629 C627 1.402 . S
C629 N628 1.307 . S
C629 H630 0.930 . S
H630 C629 0.930 . S
C631 N632 1.334 . S
C631 C633 1.394 . S
C631 H635 0.930 . S
N632 Gd619 2.601 . S
N632 C622 1.359 . S
N632 C631 1.334 . S
C633 C631 1.394 . S
C633 C634 1.359 . S
C633 H645 0.930 . S
C634 C624 1.391 . S
C634 C633 1.359 . S
C634 H646 0.929 . S
H635 C631 0.930 . S
H636 C625 0.930 . S
H637 C654 0.930 . S
H638 C626 0.930 . S
H639 C627 0.930 . S
H640 C621 0.929 . S
H641 C659 0.930 . S
H642 C650 0.930 . S
H643 C651 0.930 . S
H644 C675 0.929 . S
H645 C633 0.930 . S
H646 C634 0.929 . S
H647 C676 0.930 . S
H648 C657 0.930 . S
N649 Gd618 2.661 . S
N649 C653 1.350 . S
N649 C654 1.307 . S
C650 H642 0.930 . S
C650 C651 1.355 . S
C650 C652 1.412 . S
C651 H643 0.930 . S
C651 C650 1.355 . S
C651 C654 1.402 . S
C652 C650 1.412 . S
C652 C653 1.417 . S
C652 C676 1.431 . S
C653 N649 1.350 . S
C653 C652 1.417 . S
C653 C656 1.426 . S
C654 H637 0.930 . S
C654 N649 1.307 . S
C654 C651 1.402 . S
N655 Gd618 2.601 . S
N655 C656 1.359 . S
N655 C659 1.334 . S
C656 C653 1.426 . S
C656 N655 1.359 . S
C656 C660 1.413 . S
C657 H648 0.930 . S
C657 C658 1.359 . S
C657 C659 1.394 . S
C658 C657 1.359 . S
C658 C660 1.391 . S
C658 H661 0.929 . S
C659 H641 0.930 . S
C659 N655 1.334 . S
C659 C657 1.394 . S
C660 C656 1.413 . S
C660 C658 1.391 . S
C660 C675 1.437 . S
H661 C658 0.929 . S
O662 Gd618 2.545 . S
O662 C677 1.258 . S
O663 Gd618 2.606 . S
O663 Gd619 2.362 . S
O663 C674 1.284 . S
O664 Gd619 2.324 . S
O664 C684 1.254 . S
O665 Gd618 2.429 . S
O665 C684 1.268 . S
O666 Gd618 2.545 . S
O666 C674 1.250 . S
O667 Gd618 2.412 . S
O667 C677 1.252 . S
O668 Gd619 2.545 . S
O668 C686 1.258 . S
O669 Gd618 2.362 . S
O669 Gd619 2.606 . S
O669 C685 1.284 . S
O670 Gd618 2.324 . S
O670 C693 1.254 . S
O671 Gd619 2.429 . S
O671 C693 1.268 . S
O672 Gd619 2.545 . S
O672 C685 1.250 . S
O673 Gd619 2.412 . S
O673 C686 1.252 . S
C674 O663 1.284 . S
C674 O666 1.250 . S
C675 H644 0.929 . S
C675 C660 1.437 . S
C675 C676 1.317 . S
C676 H647 0.930 . S
C676 C652 1.431 . S
C676 C675 1.317 . S
C677 Gd618 2.828 . S
C677 O662 1.258 . S
C677 O667 1.252 . S
C677 C678 1.497 . S
C678 C677 1.497 . S
C678 C679 1.395 . S
C678 C680 1.380 . S
C679 C678 1.395 . S
C679 C682 1.398 . S
C679 H694 0.930 . S
C680 C678 1.380 . S
C680 C681 1.391 . S
C680 H695 0.930 . S
C681 C680 1.391 . S
C681 C683 1.387 . S
C682 C679 1.398 . S
C682 C683 1.380 . S
C682 H696 0.930 . S
C683 C681 1.387 . S
C683 C682 1.380 . S
C683 H697 0.930 . S
C684 O664 1.254 . S
C684 O665 1.268 . S
C685 O669 1.284 . S
C685 O672 1.250 . S
C686 Gd619 2.828 . S
C686 O668 1.258 . S
C686 O673 1.252 . S
C686 C687 1.497 . S
C687 C686 1.497 . S
C687 C688 1.395 . S
C687 C689 1.380 . S
C688 C687 1.395 . S
C688 C691 1.398 . S
C688 H698 0.930 . S
C689 C687 1.380 . S
C689 C690 1.391 . S
C689 H699 0.930 . S
C690 C689 1.391 . S
C690 C692 1.387 . S
C691 C688 1.398 . S
C691 C692 1.380 . S
C691 H700 0.930 . S
C692 C690 1.387 . S
C692 C691 1.380 . S
C692 H701 0.930 . S
C693 O670 1.254 . S
C693 O671 1.268 . S
H694 C679 0.930 . S
H695 C680 0.930 . S
H696 C682 0.930 . S
H697 C683 0.930 . S
H698 C688 0.930 . S
H699 C689 0.930 . S
H700 C691 0.930 . S
H701 C692 0.930 . S
Gd702 N733 2.661 . S
Gd702 N739 2.601 . S
Gd702 O746 2.545 . S
Gd702 O747 2.606 . S
Gd702 O749 2.429 . S
Gd702 O750 2.545 . S
Gd702 O751 2.412 . S
Gd702 O753 2.362 . S
Gd702 O754 2.324 . S
Gd702 C761 2.828 . S
Gd703 N712 2.661 . S
Gd703 N716 2.601 . S
Gd703 O747 2.362 . S
Gd703 O748 2.324 . S
Gd703 O752 2.545 . S
Gd703 O753 2.606 . S
Gd703 O755 2.429 . S
Gd703 O756 2.545 . S
Gd703 O757 2.412 . S
Gd703 C770 2.828 . S
C704 C707 1.417 . S
C704 C709 1.431 . S
C704 C710 1.412 . S
C705 C708 1.437 . S
C705 C709 1.317 . S
C705 H724 0.929 . S
C706 C707 1.426 . S
C706 C708 1.413 . S
C706 N716 1.359 . S
C707 C704 1.417 . S
C707 C706 1.426 . S
C707 N712 1.350 . S
C708 C705 1.437 . S
C708 C706 1.413 . S
C708 C718 1.391 . S
C709 C704 1.431 . S
C709 C705 1.317 . S
C709 H720 0.930 . S
C710 C704 1.412 . S
C710 C711 1.355 . S
C710 H722 0.930 . S
C711 C710 1.355 . S
C711 C713 1.402 . S
C711 H723 0.930 . S
N712 Gd703 2.661 . S
N712 C707 1.350 . S
N712 C713 1.307 . S
C713 C711 1.402 . S
C713 N712 1.307 . S
C713 H714 0.930 . S
H714 C713 0.930 . S
C715 N716 1.334 . S
C715 C717 1.394 . S
C715 H719 0.930 . S
N716 Gd703 2.601 . S
N716 C706 1.359 . S
N716 C715 1.334 . S
C717 C715 1.394 . S
C717 C718 1.359 . S
C717 H729 0.930 . S
C718 C708 1.391 . S
C718 C717 1.359 . S
C718 H730 0.929 . S
H719 C715 0.930 . S
H720 C709 0.930 . S
H721 C738 0.930 . S
H722 C710 0.930 . S
H723 C711 0.930 . S
H724 C705 0.929 . S
H725 C743 0.930 . S
H726 C734 0.930 . S
H727 C735 0.930 . S
H728 C759 0.929 . S
H729 C717 0.930 . S
H730 C718 0.929 . S
H731 C760 0.930 . S
H732 C741 0.930 . S
N733 Gd702 2.661 . S
N733 C737 1.350 . S
N733 C738 1.307 . S
C734 H726 0.930 . S
C734 C735 1.355 . S
C734 C736 1.412 . S
C735 H727 0.930 . S
C735 C734 1.355 . S
C735 C738 1.402 . S
C736 C734 1.412 . S
C736 C737 1.417 . S
C736 C760 1.431 . S
C737 N733 1.350 . S
C737 C736 1.417 . S
C737 C740 1.426 . S
C738 H721 0.930 . S
C738 N733 1.307 . S
C738 C735 1.402 . S
N739 Gd702 2.601 . S
N739 C740 1.359 . S
N739 C743 1.334 . S
C740 C737 1.426 . S
C740 N739 1.359 . S
C740 C744 1.413 . S
C741 H732 0.930 . S
C741 C742 1.359 . S
C741 C743 1.394 . S
C742 C741 1.359 . S
C742 C744 1.391 . S
C742 H745 0.929 . S
C743 H725 0.930 . S
C743 N739 1.334 . S
C743 C741 1.394 . S
C744 C740 1.413 . S
C744 C742 1.391 . S
C744 C759 1.437 . S
H745 C742 0.929 . S
O746 Gd702 2.545 . S
O746 C761 1.258 . S
O747 Gd702 2.606 . S
O747 Gd703 2.362 . S
O747 C758 1.284 . S
O748 Gd703 2.324 . S
O748 C768 1.254 . S
O749 Gd702 2.429 . S
O749 C768 1.268 . S
O750 Gd702 2.545 . S
O750 C758 1.250 . S
O751 Gd702 2.412 . S
O751 C761 1.252 . S
O752 Gd703 2.545 . S
O752 C770 1.258 . S
O753 Gd702 2.362 . S
O753 Gd703 2.606 . S
O753 C769 1.284 . S
O754 Gd702 2.324 . S
O754 C777 1.254 . S
O755 Gd703 2.429 . S
O755 C777 1.268 . S
O756 Gd703 2.545 . S
O756 C769 1.250 . S
O757 Gd703 2.412 . S
O757 C770 1.252 . S
C758 O747 1.284 . S
C758 O750 1.250 . S
C759 H728 0.929 . S
C759 C744 1.437 . S
C759 C760 1.317 . S
C760 H731 0.930 . S
C760 C736 1.431 . S
C760 C759 1.317 . S
C761 Gd702 2.828 . S
C761 O746 1.258 . S
C761 O751 1.252 . S
C761 C762 1.497 . S
C762 C761 1.497 . S
C762 C763 1.395 . S
C762 C764 1.380 . S
C763 C762 1.395 . S
C763 C766 1.398 . S
C763 H778 0.930 . S
C764 C762 1.380 . S
C764 C765 1.391 . S
C764 H779 0.930 . S
C765 C764 1.391 . S
C765 C767 1.387 . S
C766 C763 1.398 . S
C766 C767 1.380 . S
C766 H780 0.930 . S
C767 C765 1.387 . S
C767 C766 1.380 . S
C767 H781 0.930 . S
C768 O748 1.254 . S
C768 O749 1.268 . S
C769 O753 1.284 . S
C769 O756 1.250 . S
C770 Gd703 2.828 . S
C770 O752 1.258 . S
C770 O757 1.252 . S
C770 C771 1.497 . S
C771 C770 1.497 . S
C771 C772 1.395 . S
C771 C773 1.380 . S
C772 C771 1.395 . S
C772 C775 1.398 . S
C772 H782 0.930 . S
C773 C771 1.380 . S
C773 C774 1.391 . S
C773 H783 0.930 . S
C774 C773 1.391 . S
C774 C776 1.387 . S
C775 C772 1.398 . S
C775 C776 1.380 . S
C775 H784 0.930 . S
C776 C774 1.387 . S
C776 C775 1.380 . S
C776 H785 0.930 . S
C777 O754 1.254 . S
C777 O755 1.268 . S
H778 C763 0.930 . S
H779 C764 0.930 . S
H780 C766 0.930 . S
H781 C767 0.930 . S
H782 C772 0.930 . S
H783 C773 0.930 . S
H784 C775 0.930 . S
H785 C776 0.930 . S
Gd786 N817 2.661 . S
Gd786 N823 2.601 . S
Gd786 O830 2.545 . S
Gd786 O831 2.606 . S
Gd786 O833 2.429 . S
Gd786 O834 2.545 . S
Gd786 O835 2.412 . S
Gd786 O837 2.362 . S
Gd786 O838 2.324 . S
Gd786 C845 2.828 . S
Gd787 N796 2.661 . S
Gd787 N800 2.601 . S
Gd787 O831 2.362 . S
Gd787 O832 2.324 . S
Gd787 O836 2.545 . S
Gd787 O837 2.606 . S
Gd787 O839 2.429 . S
Gd787 O840 2.545 . S
Gd787 O841 2.412 . S
Gd787 C854 2.828 . S
C788 C791 1.417 . S
C788 C793 1.431 . S
C788 C794 1.412 . S
C789 C792 1.437 . S
C789 C793 1.317 . S
C789 H808 0.929 . S
C790 C791 1.426 . S
C790 C792 1.413 . S
C790 N800 1.359 . S
C791 C788 1.417 . S
C791 C790 1.426 . S
C791 N796 1.350 . S
C792 C789 1.437 . S
C792 C790 1.413 . S
C792 C802 1.391 . S
C793 C788 1.431 . S
C793 C789 1.317 . S
C793 H804 0.930 . S
C794 C788 1.412 . S
C794 C795 1.355 . S
C794 H806 0.930 . S
C795 C794 1.355 . S
C795 C797 1.402 . S
C795 H807 0.930 . S
N796 Gd787 2.661 . S
N796 C791 1.350 . S
N796 C797 1.307 . S
C797 C795 1.402 . S
C797 N796 1.307 . S
C797 H798 0.930 . S
H798 C797 0.930 . S
C799 N800 1.334 . S
C799 C801 1.394 . S
C799 H803 0.930 . S
N800 Gd787 2.601 . S
N800 C790 1.359 . S
N800 C799 1.334 . S
C801 C799 1.394 . S
C801 C802 1.359 . S
C801 H813 0.930 . S
C802 C792 1.391 . S
C802 C801 1.359 . S
C802 H814 0.929 . S
H803 C799 0.930 . S
H804 C793 0.930 . S
H805 C822 0.930 . S
H806 C794 0.930 . S
H807 C795 0.930 . S
H808 C789 0.929 . S
H809 C827 0.930 . S
H810 C818 0.930 . S
H811 C819 0.930 . S
H812 C843 0.929 . S
H813 C801 0.930 . S
H814 C802 0.929 . S
H815 C844 0.930 . S
H816 C825 0.930 . S
N817 Gd786 2.661 . S
N817 C821 1.350 . S
N817 C822 1.307 . S
C818 H810 0.930 . S
C818 C819 1.355 . S
C818 C820 1.412 . S
C819 H811 0.930 . S
C819 C818 1.355 . S
C819 C822 1.402 . S
C820 C818 1.412 . S
C820 C821 1.417 . S
C820 C844 1.431 . S
C821 N817 1.350 . S
C821 C820 1.417 . S
C821 C824 1.426 . S
C822 H805 0.930 . S
C822 N817 1.307 . S
C822 C819 1.402 . S
N823 Gd786 2.601 . S
N823 C824 1.359 . S
N823 C827 1.334 . S
C824 C821 1.426 . S
C824 N823 1.359 . S
C824 C828 1.413 . S
C825 H816 0.930 . S
C825 C826 1.359 . S
C825 C827 1.394 . S
C826 C825 1.359 . S
C826 C828 1.391 . S
C826 H829 0.929 . S
C827 H809 0.930 . S
C827 N823 1.334 . S
C827 C825 1.394 . S
C828 C824 1.413 . S
C828 C826 1.391 . S
C828 C843 1.437 . S
H829 C826 0.929 . S
O830 Gd786 2.545 . S
O830 C845 1.258 . S
O831 Gd786 2.606 . S
O831 Gd787 2.362 . S
O831 C842 1.284 . S
O832 Gd787 2.324 . S
O832 C852 1.254 . S
O833 Gd786 2.429 . S
O833 C852 1.268 . S
O834 Gd786 2.545 . S
O834 C842 1.250 . S
O835 Gd786 2.412 . S
O835 C845 1.252 . S
O836 Gd787 2.545 . S
O836 C854 1.258 . S
O837 Gd786 2.362 . S
O837 Gd787 2.606 . S
O837 C853 1.284 . S
O838 Gd786 2.324 . S
O838 C861 1.254 . S
O839 Gd787 2.429 . S
O839 C861 1.268 . S
O840 Gd787 2.545 . S
O840 C853 1.250 . S
O841 Gd787 2.412 . S
O841 C854 1.252 . S
C842 O831 1.284 . S
C842 O834 1.250 . S
C843 H812 0.929 . S
C843 C828 1.437 . S
C843 C844 1.317 . S
C844 H815 0.930 . S
C844 C820 1.431 . S
C844 C843 1.317 . S
C845 Gd786 2.828 . S
C845 O830 1.258 . S
C845 O835 1.252 . S
C845 C846 1.497 . S
C846 C845 1.497 . S
C846 C847 1.395 . S
C846 C848 1.380 . S
C847 C846 1.395 . S
C847 C850 1.398 . S
C847 H862 0.930 . S
C848 C846 1.380 . S
C848 C849 1.391 . S
C848 H863 0.930 . S
C849 C848 1.391 . S
C849 C851 1.387 . S
C850 C847 1.398 . S
C850 C851 1.380 . S
C850 H864 0.930 . S
C851 C849 1.387 . S
C851 C850 1.380 . S
C851 H865 0.930 . S
C852 O832 1.254 . S
C852 O833 1.268 . S
C853 O837 1.284 . S
C853 O840 1.250 . S
C854 Gd787 2.828 . S
C854 O836 1.258 . S
C854 O841 1.252 . S
C854 C855 1.497 . S
C855 C854 1.497 . S
C855 C856 1.395 . S
C855 C857 1.380 . S
C856 C855 1.395 . S
C856 C859 1.398 . S
C856 H866 0.930 . S
C857 C855 1.380 . S
C857 C858 1.391 . S
C857 H867 0.930 . S
C858 C857 1.391 . S
C858 C860 1.387 . S
C859 C856 1.398 . S
C859 C860 1.380 . S
C859 H868 0.930 . S
C860 C858 1.387 . S
C860 C859 1.380 . S
C860 H869 0.930 . S
C861 O838 1.254 . S
C861 O839 1.268 . S
H862 C847 0.930 . S
H863 C848 0.930 . S
H864 C850 0.930 . S
H865 C851 0.930 . S
H866 C856 0.930 . S
H867 C857 0.930 . S
H868 C859 0.930 . S
H869 C860 0.930 . S
Gd870 N901 2.661 . S
Gd870 N907 2.601 . S
Gd870 O914 2.545 . S
Gd870 O915 2.606 . S
Gd870 O917 2.429 . S
Gd870 O918 2.545 . S
Gd870 O919 2.412 . S
Gd870 O921 2.362 . S
Gd870 O922 2.324 . S
Gd870 C929 2.828 . S
Gd871 N880 2.661 . S
Gd871 N884 2.601 . S
Gd871 O915 2.362 . S
Gd871 O916 2.324 . S
Gd871 O920 2.545 . S
Gd871 O921 2.606 . S
Gd871 O923 2.429 . S
Gd871 O924 2.545 . S
Gd871 O925 2.412 . S
Gd871 C938 2.828 . S
C872 C875 1.417 . S
C872 C877 1.431 . S
C872 C878 1.412 . S
C873 C876 1.437 . S
C873 C877 1.317 . S
C873 H892 0.929 . S
C874 C875 1.426 . S
C874 C876 1.413 . S
C874 N884 1.359 . S
C875 C872 1.417 . S
C875 C874 1.426 . S
C875 N880 1.350 . S
C876 C873 1.437 . S
C876 C874 1.413 . S
C876 C886 1.391 . S
C877 C872 1.431 . S
C877 C873 1.317 . S
C877 H888 0.930 . S
C878 C872 1.412 . S
C878 C879 1.355 . S
C878 H890 0.930 . S
C879 C878 1.355 . S
C879 C881 1.402 . S
C879 H891 0.930 . S
N880 Gd871 2.661 . S
N880 C875 1.350 . S
N880 C881 1.307 . S
C881 C879 1.402 . S
C881 N880 1.307 . S
C881 H882 0.930 . S
H882 C881 0.930 . S
C883 N884 1.334 . S
C883 C885 1.394 . S
C883 H887 0.930 . S
N884 Gd871 2.601 . S
N884 C874 1.359 . S
N884 C883 1.334 . S
C885 C883 1.394 . S
C885 C886 1.359 . S
C885 H897 0.930 . S
C886 C876 1.391 . S
C886 C885 1.359 . S
C886 H898 0.929 . S
H887 C883 0.930 . S
H888 C877 0.930 . S
H889 C906 0.930 . S
H890 C878 0.930 . S
H891 C879 0.930 . S
H892 C873 0.929 . S
H893 C911 0.930 . S
H894 C902 0.930 . S
H895 C903 0.930 . S
H896 C927 0.929 . S
H897 C885 0.930 . S
H898 C886 0.929 . S
H899 C928 0.930 . S
H900 C909 0.930 . S
N901 Gd870 2.661 . S
N901 C905 1.350 . S
N901 C906 1.307 . S
C902 H894 0.930 . S
C902 C903 1.355 . S
C902 C904 1.412 . S
C903 H895 0.930 . S
C903 C902 1.355 . S
C903 C906 1.402 . S
C904 C902 1.412 . S
C904 C905 1.417 . S
C904 C928 1.431 . S
C905 N901 1.350 . S
C905 C904 1.417 . S
C905 C908 1.426 . S
C906 H889 0.930 . S
C906 N901 1.307 . S
C906 C903 1.402 . S
N907 Gd870 2.601 . S
N907 C908 1.359 . S
N907 C911 1.334 . S
C908 C905 1.426 . S
C908 N907 1.359 . S
C908 C912 1.413 . S
C909 H900 0.930 . S
C909 C910 1.359 . S
C909 C911 1.394 . S
C910 C909 1.359 . S
C910 C912 1.391 . S
C910 H913 0.929 . S
C911 H893 0.930 . S
C911 N907 1.334 . S
C911 C909 1.394 . S
C912 C908 1.413 . S
C912 C910 1.391 . S
C912 C927 1.437 . S
H913 C910 0.929 . S
O914 Gd870 2.545 . S
O914 C929 1.258 . S
O915 Gd870 2.606 . S
O915 Gd871 2.362 . S
O915 C926 1.284 . S
O916 Gd871 2.324 . S
O916 C936 1.254 . S
O917 Gd870 2.429 . S
O917 C936 1.268 . S
O918 Gd870 2.545 . S
O918 C926 1.250 . S
O919 Gd870 2.412 . S
O919 C929 1.252 . S
O920 Gd871 2.545 . S
O920 C938 1.258 . S
O921 Gd870 2.362 . S
O921 Gd871 2.606 . S
O921 C937 1.284 . S
O922 Gd870 2.324 . S
O922 C945 1.254 . S
O923 Gd871 2.429 . S
O923 C945 1.268 . S
O924 Gd871 2.545 . S
O924 C937 1.250 . S
O925 Gd871 2.412 . S
O925 C938 1.252 . S
C926 O915 1.284 . S
C926 O918 1.250 . S
C927 H896 0.929 . S
C927 C912 1.437 . S
C927 C928 1.317 . S
C928 H899 0.930 . S
C928 C904 1.431 . S
C928 C927 1.317 . S
C929 Gd870 2.828 . S
C929 O914 1.258 . S
C929 O919 1.252 . S
C929 C930 1.497 . S
C930 C929 1.497 . S
C930 C931 1.395 . S
C930 C932 1.380 . S
C931 C930 1.395 . S
C931 C934 1.398 . S
C931 H946 0.930 . S
C932 C930 1.380 . S
C932 C933 1.391 . S
C932 H947 0.930 . S
C933 C932 1.391 . S
C933 C935 1.387 . S
C934 C931 1.398 . S
C934 C935 1.380 . S
C934 H948 0.930 . S
C935 C933 1.387 . S
C935 C934 1.380 . S
C935 H949 0.930 . S
C936 O916 1.254 . S
C936 O917 1.268 . S
C937 O921 1.284 . S
C937 O924 1.250 . S
C938 Gd871 2.828 . S
C938 O920 1.258 . S
C938 O925 1.252 . S
C938 C939 1.497 . S
C939 C938 1.497 . S
C939 C940 1.395 . S
C939 C941 1.380 . S
C940 C939 1.395 . S
C940 C943 1.398 . S
C940 H950 0.930 . S
C941 C939 1.380 . S
C941 C942 1.391 . S
C941 H951 0.930 . S
C942 C941 1.391 . S
C942 C944 1.387 . S
C943 C940 1.398 . S
C943 C944 1.380 . S
C943 H952 0.930 . S
C944 C942 1.387 . S
C944 C943 1.380 . S
C944 H953 0.930 . S
C945 O922 1.254 . S
C945 O923 1.268 . S
H946 C931 0.930 . S
H947 C932 0.930 . S
H948 C934 0.930 . S
H949 C935 0.930 . S
H950 C940 0.930 . S
H951 C941 0.930 . S
H952 C943 0.930 . S
H953 C944 0.930 . S
C954 C955 1.349 . S
C954 C956 1.327 . S
C954 H979 0.950 . S
C955 C954 1.349 . S
C955 C971 1.349 . S
C956 C954 1.327 . S
C956 C975 1.429 . S
C956 H980 0.950 . S
C957 C974 1.574 . S
C957 C976 1.368 . S
C957 H981 0.949 . S
H958 C962 0.949 . S
C959 C960 1.349 . S
C959 C961 1.327 . S
C959 H982 1.006 . S
C960 C959 1.349 . S
C960 C972 1.349 . S
C961 C959 1.327 . S
C961 C977 1.429 . S
C961 H983 0.950 . S
C962 H958 0.949 . S
C962 C970 1.574 . S
C962 C978 1.368 . S
H963 C971 0.950 . S
H964 C969 0.950 . S
H965 C970 0.949 . S
H966 C972 0.950 . S
H967 C973 0.950 . S
H968 C974 0.949 . S
C969 H964 0.950 . S
C969 C971 1.327 . S
C969 C975 1.429 . S
C970 C962 1.574 . S
C970 H965 0.949 . S
C970 C976 1.368 . S
C971 C955 1.349 . S
C971 H963 0.950 . S
C971 C969 1.327 . S
C972 C960 1.349 . S
C972 H966 0.950 . S
C972 C973 1.327 . S
C973 H967 0.950 . S
C973 C972 1.327 . S
C973 C977 1.429 . S
C974 C957 1.574 . S
C974 H968 0.949 . S
C974 C978 1.368 . S
C975 C956 1.429 . S
C975 C969 1.429 . S
C975 C976 1.523 . S
C976 C957 1.368 . S
C976 C970 1.368 . S
C976 C975 1.523 . S
C977 C961 1.429 . S
C977 C973 1.429 . S
C977 C978 1.523 . S
C978 C962 1.368 . S
C978 C974 1.368 . S
C978 C977 1.523 . S
H979 C954 0.950 . S
H980 C956 0.950 . S
H981 C957 0.949 . S
H982 C959 1.006 . S
H983 C961 0.950 . S
C984 C985 1.349 . S
C984 C986 1.327 . S
C984 H1009 0.950 . S
C985 C984 1.349 . S
C985 C1001 1.349 . S
C986 C984 1.327 . S
C986 C1005 1.429 . S
C986 H1010 0.950 . S
C987 C1004 1.574 . S
C987 C1006 1.368 . S
C987 H1011 0.949 . S
H988 C992 0.949 . S
C989 C990 1.349 . S
C989 C991 1.327 . S
C989 H1012 0.950 . S
C990 C989 1.349 . S
C990 C1002 1.349 . S
C991 C989 1.327 . S
C991 C1007 1.429 . S
C991 H1013 0.950 . S
C992 H988 0.949 . S
C992 C1000 1.574 . S
C992 C1008 1.368 . S
H993 C1001 0.950 . S
H994 C999 0.950 . S
H995 C1000 0.949 . S
H996 C1002 0.950 . S
H997 C1003 0.950 . S
H998 C1004 0.949 . S
C999 H994 0.950 . S
C999 C1001 1.327 . S
C999 C1005 1.429 . S
C1000 C992 1.574 . S
C1000 H995 0.949 . S
C1000 C1006 1.368 . S
C1001 C985 1.349 . S
C1001 H993 0.950 . S
C1001 C999 1.327 . S
C1002 C990 1.349 . S
C1002 H996 0.950 . S
C1002 C1003 1.327 . S
C1003 H997 0.950 . S
C1003 C1002 1.327 . S
C1003 C1007 1.429 . S
C1004 C987 1.574 . S
C1004 H998 0.949 . S
C1004 C1008 1.368 . S
C1005 C986 1.429 . S
C1005 C999 1.429 . S
C1005 C1006 1.523 . S
C1006 C987 1.368 . S
C1006 C1000 1.368 . S
C1006 C1005 1.523 . S
C1007 C991 1.429 . S
C1007 C1003 1.429 . S
C1007 C1008 1.523 . S
C1008 C992 1.368 . S
C1008 C1004 1.368 . S
C1008 C1007 1.523 . S
H1009 C984 0.950 . S
H1010 C986 0.950 . S
H1011 C987 0.949 . S
H1012 C989 0.950 . S
H1013 C991 0.950 . S
C1014 C1015 1.349 . S
C1014 C1016 1.327 . S
C1014 H1039 0.950 . S
C1015 C1014 1.349 . S
C1015 C1031 1.349 . S
C1016 C1014 1.327 . S
C1016 C1035 1.429 . S
C1016 H1040 0.950 . S
C1017 C1034 1.574 . S
C1017 C1036 1.368 . S
C1017 H1041 0.949 . S
H1018 C1022 0.949 . S
C1019 C1020 1.349 . S
C1019 C1021 1.327 . S
C1019 H1042 0.950 . S
C1020 C1019 1.349 . S
C1020 C1032 1.349 . S
C1021 C1019 1.327 . S
C1021 C1037 1.429 . S
C1021 H1043 0.950 . S
C1022 H1018 0.949 . S
C1022 C1030 1.574 . S
C1022 C1038 1.368 . S
H1023 C1031 0.950 . S
H1024 C1029 0.950 . S
H1025 C1030 0.949 . S
H1026 C1032 0.950 . S
H1027 C1033 0.950 . S
H1028 C1034 0.949 . S
C1029 H1024 0.950 . S
C1029 C1031 1.327 . S
C1029 C1035 1.429 . S
C1030 C1022 1.574 . S
C1030 H1025 0.949 . S
C1030 C1036 1.368 . S
C1031 C1015 1.349 . S
C1031 H1023 0.950 . S
C1031 C1029 1.327 . S
C1032 C1020 1.349 . S
C1032 H1026 0.950 . S
C1032 C1033 1.327 . S
C1033 H1027 0.950 . S
C1033 C1032 1.327 . S
C1033 C1037 1.429 . S
C1034 C1017 1.574 . S
C1034 H1028 0.949 . S
C1034 C1038 1.368 . S
C1035 C1016 1.429 . S
C1035 C1029 1.429 . S
C1035 C1036 1.523 . S
C1036 C1017 1.368 . S
C1036 C1030 1.368 . S
C1036 C1035 1.523 . S
C1037 C1021 1.429 . S
C1037 C1033 1.429 . S
C1037 C1038 1.523 . S
C1038 C1022 1.368 . S
C1038 C1034 1.368 . S
C1038 C1037 1.523 . S
H1039 C1014 0.950 . S
H1040 C1016 0.950 . S
H1041 C1017 0.949 . S
H1042 C1019 0.950 . S
H1043 C1021 0.950 . S
C1044 C1045 1.349 . S
C1044 C1046 1.327 . S
C1044 H1069 0.950 . S
C1045 C1044 1.349 . S
C1045 C1061 1.349 . S
C1046 C1044 1.327 . S
C1046 C1065 1.429 . S
C1046 H1070 0.950 . S
C1047 C1064 1.574 . S
C1047 C1066 1.368 . S
C1047 H1071 0.949 . S
H1048 C1052 0.949 . S
C1049 C1050 1.349 1_554 S
C1049 C1051 1.327 1_554 S
C1049 H1072 0.950 . S
C1050 C1049 1.349 1_556 S
C1050 C1062 1.349 . S
C1051 C1049 1.327 1_556 S
C1051 C1067 1.429 . S
C1051 H1073 0.950 1_556 S
C1052 H1048 0.949 . S
C1052 C1060 1.574 . S
C1052 C1068 1.368 . S
H1053 C1061 0.950 . S
H1054 C1059 0.950 . S
H1055 C1060 0.949 . S
H1056 C1062 0.950 . S
H1057 C1063 0.950 . S
H1058 C1064 0.949 . S
C1059 H1054 0.950 . S
C1059 C1061 1.327 . S
C1059 C1065 1.429 . S
C1060 C1052 1.574 . S
C1060 H1055 0.949 . S
C1060 C1066 1.368 . S
C1061 C1045 1.349 . S
C1061 H1053 0.950 . S
C1061 C1059 1.327 . S
C1062 C1050 1.349 . S
C1062 H1056 0.950 . S
C1062 C1063 1.327 . S
C1063 H1057 0.950 . S
C1063 C1062 1.327 . S
C1063 C1067 1.429 . S
C1064 C1047 1.574 . S
C1064 H1058 0.949 . S
C1064 C1068 1.368 . S
C1065 C1046 1.429 . S
C1065 C1059 1.429 . S
C1065 C1066 1.523 . S
C1066 C1047 1.368 . S
C1066 C1060 1.368 . S
C1066 C1065 1.523 . S
C1067 C1051 1.429 . S
C1067 C1063 1.429 . S
C1067 C1068 1.523 . S
C1068 C1052 1.368 . S
C1068 C1064 1.368 . S
C1068 C1067 1.523 . S
H1069 C1044 0.950 . S
H1070 C1046 0.950 . S
H1071 C1047 0.949 . S
H1072 C1049 0.950 . S
H1073 C1051 0.950 1_554 S
C1074 C1075 1.349 . S
C1074 C1076 1.327 . S
C1074 H1099 0.950 . S
C1075 C1074 1.349 . S
C1075 C1091 1.349 . S
C1076 C1074 1.327 . S
C1076 C1095 1.429 . S
C1076 H1100 0.950 . S
C1077 C1094 1.574 . S
C1077 C1096 1.368 . S
C1077 H1101 0.949 . S
H1078 C1082 0.949 . S
C1079 C1080 1.349 . S
C1079 C1081 1.327 . S
C1079 H1102 0.950 . S
C1080 C1079 1.349 . S
C1080 C1092 1.355 . S
C1081 C1079 1.327 . S
C1081 C1097 1.429 . S
C1081 H1103 0.950 . S
C1082 H1078 0.949 . S
C1082 C1090 1.574 . S
C1082 C1098 1.368 . S
H1083 C1091 0.950 . S
H1084 C1089 0.950 . S
H1085 C1090 0.949 . S
H1086 C1092 0.925 1_554 S
H1087 C1093 0.950 . S
H1088 C1094 0.949 . S
C1089 H1084 0.950 . S
C1089 C1091 1.327 . S
C1089 C1095 1.429 . S
C1090 C1082 1.574 . S
C1090 H1085 0.949 . S
C1090 C1096 1.368 . S
C1091 C1075 1.349 . S
C1091 H1083 0.950 . S
C1091 C1089 1.327 . S
C1092 C1080 1.355 . S
C1092 H1086 0.925 1_556 S
C1092 C1093 1.350 . S
C1093 H1087 0.950 . S
C1093 C1092 1.350 . S
C1093 C1097 1.429 . S
C1094 C1077 1.574 . S
C1094 H1088 0.949 . S
C1094 C1098 1.368 . S
C1095 C1076 1.429 . S
C1095 C1089 1.429 . S
C1095 C1096 1.523 . S
C1096 C1077 1.368 . S
C1096 C1090 1.368 . S
C1096 C1095 1.523 . S
C1097 C1081 1.429 . S
C1097 C1093 1.429 . S
C1097 C1098 1.523 . S
C1098 C1082 1.368 . S
C1098 C1094 1.368 . S
C1098 C1097 1.523 . S
H1099 C1074 0.950 . S
H1100 C1076 0.950 . S
H1101 C1077 0.949 . S
H1102 C1079 0.950 . S
H1103 C1081 0.950 . S
C1104 C1105 1.349 . S
C1104 C1106 1.327 . S
C1104 H1129 0.950 . S
C1105 C1104 1.349 . S
C1105 C1121 1.349 . S
C1106 C1104 1.327 . S
C1106 C1125 1.429 . S
C1106 H1130 0.950 . S
C1107 C1124 1.574 . S
C1107 C1126 1.368 . S
C1107 H1131 0.949 . S
H1108 C1112 0.949 . S
C1109 C1110 1.349 1_554 S
C1109 C1111 1.327 . S
C1109 H1132 0.950 . S
C1110 C1109 1.349 1_556 S
C1110 C1122 1.349 . S
C1111 C1109 1.327 . S
C1111 C1127 1.429 1_554 S
C1111 H1133 0.950 . S
C1112 H1108 0.949 . S
C1112 C1120 1.574 . S
C1112 C1128 1.368 . S
H1113 C1121 0.950 . S
H1114 C1119 0.950 . S
H1115 C1120 0.949 . S
H1116 C1122 0.950 . S
H1117 C1123 0.950 . S
H1118 C1124 0.949 1_554 S
C1119 H1114 0.950 . S
C1119 C1121 1.327 . S
C1119 C1125 1.429 . S
C1120 C1112 1.574 . S
C1120 H1115 0.949 . S
C1120 C1126 1.368 . S
C1121 C1105 1.349 . S
C1121 H1113 0.950 . S
C1121 C1119 1.327 . S
C1122 C1110 1.349 . S
C1122 H1116 0.950 . S
C1122 C1123 1.327 . S
C1123 H1117 0.950 . S
C1123 C1122 1.327 . S
C1123 C1127 1.429 . S
C1124 C1107 1.574 . S
C1124 H1118 0.949 1_556 S
C1124 C1128 1.368 . S
C1125 C1106 1.429 . S
C1125 C1119 1.429 . S
C1125 C1126 1.523 . S
C1126 C1107 1.368 . S
C1126 C1120 1.368 . S
C1126 C1125 1.523 . S
C1127 C1111 1.429 1_556 S
C1127 C1123 1.429 . S
C1127 C1128 1.523 . S
C1128 C1112 1.368 . S
C1128 C1124 1.368 . S
C1128 C1127 1.523 . S
H1129 C1104 0.950 . S
H1130 C1106 0.950 . S
H1131 C1107 0.949 . S
H1132 C1109 0.950 . S
H1133 C1111 0.950 . S
C1134 C1135 1.349 . S
C1134 C1136 1.327 . S
C1134 H1159 0.950 . S
C1135 C1134 1.349 . S
C1135 C1151 1.349 . S
C1136 C1134 1.327 . S
C1136 C1155 1.429 . S
C1136 H1160 0.950 . S
C1137 C1154 1.574 . S
C1137 C1156 1.368 . S
C1137 H1161 0.949 . S
H1138 C1142 0.949 . S
C1139 C1140 1.349 1_554 S
C1139 C1141 1.327 . S
C1139 H1162 0.950 . S
C1140 C1139 1.349 1_556 S
C1140 C1152 1.349 . S
C1141 C1139 1.327 . S
C1141 C1157 1.429 1_554 S
C1141 H1163 0.950 . S
C1142 H1138 0.949 . S
C1142 C1150 1.574 . S
C1142 C1158 1.368 . S
H1143 C1151 0.950 . S
H1144 C1149 0.950 . S
H1145 C1150 0.949 . S
H1146 C1152 0.950 . S
H1147 C1153 0.950 . S
H1148 C1154 0.949 1_554 S
C1149 H1144 0.950 . S
C1149 C1151 1.327 . S
C1149 C1155 1.429 . S
C1150 C1142 1.574 . S
C1150 H1145 0.949 . S
C1150 C1156 1.368 . S
C1151 C1135 1.349 . S
C1151 H1143 0.950 . S
C1151 C1149 1.327 . S
C1152 C1140 1.349 . S
C1152 H1146 0.950 . S
C1152 C1153 1.327 . S
C1153 H1147 0.950 . S
C1153 C1152 1.327 . S
C1153 C1157 1.429 . S
C1154 C1137 1.574 . S
C1154 H1148 0.949 1_556 S
C1154 C1158 1.368 . S
C1155 C1136 1.429 . S
C1155 C1149 1.429 . S
C1155 C1156 1.523 . S
C1156 C1137 1.368 . S
C1156 C1150 1.368 . S
C1156 C1155 1.523 . S
C1157 C1141 1.429 1_556 S
C1157 C1153 1.429 . S
C1157 C1158 1.523 . S
C1158 C1142 1.368 . S
C1158 C1154 1.368 . S
C1158 C1157 1.523 . S
H1159 C1134 0.950 . S
H1160 C1136 0.950 . S
H1161 C1137 0.949 . S
H1162 C1139 0.950 . S
H1163 C1141 0.950 . S
C1164 C1165 1.349 . S
C1164 C1166 1.327 . S
C1164 H1189 0.950 . S
C1165 C1164 1.349 . S
C1165 C1181 1.349 . S
C1166 C1164 1.327 . S
C1166 C1185 1.429 . S
C1166 H1190 0.950 . S
C1167 C1184 1.574 . S
C1167 C1186 1.368 . S
C1167 H1191 0.949 . S
H1168 C1172 0.949 . S
C1169 C1170 1.349 1_554 S
C1169 C1171 1.327 . S
C1169 H1192 0.950 . S
C1170 C1169 1.349 1_556 S
C1170 C1182 1.349 . S
C1171 C1169 1.327 . S
C1171 C1187 1.429 1_554 S
C1171 H1193 0.950 . S
C1172 H1168 0.949 . S
C1172 C1180 1.574 . S
C1172 C1188 1.368 . S
H1173 C1181 0.950 . S
H1174 C1179 0.950 . S
H1175 C1180 0.949 . S
H1176 C1182 0.950 . S
H1177 C1183 0.950 . S
H1178 C1184 0.949 1_554 S
C1179 H1174 0.950 . S
C1179 C1181 1.327 . S
C1179 C1185 1.429 . S
C1180 C1172 1.574 . S
C1180 H1175 0.949 . S
C1180 C1186 1.368 . S
C1181 C1165 1.349 . S
C1181 H1173 0.950 . S
C1181 C1179 1.327 . S
C1182 C1170 1.349 . S
C1182 H1176 0.950 . S
C1182 C1183 1.327 . S
C1183 H1177 0.950 . S
C1183 C1182 1.327 . S
C1183 C1187 1.429 . S
C1184 C1167 1.574 . S
C1184 H1178 0.949 1_556 S
C1184 C1188 1.368 . S
C1185 C1166 1.429 . S
C1185 C1179 1.429 . S
C1185 C1186 1.523 . S
C1186 C1167 1.368 . S
C1186 C1180 1.368 . S
C1186 C1185 1.523 . S
C1187 C1171 1.429 1_556 S
C1187 C1183 1.429 . S
C1187 C1188 1.523 . S
C1188 C1172 1.368 . S
C1188 C1184 1.368 . S
C1188 C1187 1.523 . S
H1189 C1164 0.950 . S
H1190 C1166 0.950 . S
H1191 C1167 0.949 . S
H1192 C1169 0.950 . S
H1193 C1171 0.950 . S
C1194 C1195 1.349 . S
C1194 C1196 1.327 . S
C1194 H1219 0.950 . S
C1195 C1194 1.349 . S
C1195 C1211 1.349 . S
C1196 C1194 1.327 . S
C1196 C1215 1.429 . S
C1196 H1220 0.950 . S
C1197 C1214 1.574 . S
C1197 C1216 1.368 . S
C1197 H1221 0.949 . S
H1198 C1202 0.949 1_554 S
C1199 C1200 1.391 . S
C1199 C1201 1.327 . S
C1199 H1222 0.950 . S
C1200 C1199 1.391 . S
C1200 C1212 1.319 1_556 S
C1201 C1199 1.327 . S
C1201 C1217 1.429 . S
C1201 H1223 0.950 . S
C1202 H1198 0.949 1_556 S
C1202 C1210 1.574 . S
C1202 C1218 1.368 . S
H1203 C1211 0.950 . S
H1204 C1209 0.950 . S
H1205 C1210 0.914 1_554 S
H1206 C1212 0.950 . S
H1207 C1213 0.950 . S
H1208 C1214 0.949 . S
C1209 H1204 0.950 . S
C1209 C1211 1.327 . S
C1209 C1215 1.429 . S
C1210 C1202 1.574 . S
C1210 H1205 0.914 1_556 S
C1210 C1216 1.368 . S
C1211 C1195 1.349 . S
C1211 H1203 0.950 . S
C1211 C1209 1.327 . S
C1212 C1200 1.319 1_554 S
C1212 H1206 0.950 . S
C1212 C1213 1.327 . S
C1213 H1207 0.950 . S
C1213 C1212 1.327 . S
C1213 C1217 1.429 1_554 S
C1214 C1197 1.574 . S
C1214 H1208 0.949 . S
C1214 C1218 1.368 . S
C1215 C1196 1.429 . S
C1215 C1209 1.429 . S
C1215 C1216 1.523 . S
C1216 C1197 1.368 . S
C1216 C1210 1.368 . S
C1216 C1215 1.523 . S
C1217 C1201 1.429 . S
C1217 C1213 1.429 1_556 S
C1217 C1218 1.523 . S
C1218 C1202 1.368 . S
C1218 C1214 1.368 . S
C1218 C1217 1.523 . S
H1219 C1194 0.950 . S
H1220 C1196 0.950 . S
H1221 C1197 0.949 . S
H1222 C1199 0.950 . S
H1223 C1201 0.950 . S
C1224 C1225 1.349 . S
C1224 C1226 1.327 . S
C1224 H1249 0.950 . S
C1225 C1224 1.349 . S
C1225 C1241 1.349 . S
C1226 C1224 1.327 . S
C1226 C1245 1.429 . S
C1226 H1250 0.950 . S
C1227 C1244 1.574 . S
C1227 C1246 1.368 . S
C1227 H1251 0.949 . S
H1228 C1232 0.949 . S
C1229 C1230 1.349 . S
C1229 C1231 1.327 . S
C1229 H1252 0.950 . S
C1230 C1229 1.349 . S
C1230 C1242 1.349 . S
C1231 C1229 1.327 . S
C1231 C1247 1.429 . S
C1231 H1253 0.950 . S
C1232 H1228 0.949 . S
C1232 C1240 1.574 . S
C1232 C1248 1.368 . S
H1233 C1241 0.950 . S
H1234 C1239 0.950 . S
H1235 C1240 0.949 . S
H1236 C1242 0.950 . S
H1237 C1243 0.950 . S
H1238 C1244 0.949 . S
C1239 H1234 0.950 . S
C1239 C1241 1.327 . S
C1239 C1245 1.429 . S
C1240 C1232 1.574 . S
C1240 H1235 0.949 . S
C1240 C1246 1.368 . S
C1241 C1225 1.349 . S
C1241 H1233 0.950 . S
C1241 C1239 1.327 . S
C1242 C1230 1.349 . S
C1242 H1236 0.950 . S
C1242 C1243 1.327 . S
C1243 H1237 0.950 . S
C1243 C1242 1.327 . S
C1243 C1247 1.429 . S
C1244 C1227 1.574 . S
C1244 H1238 0.949 . S
C1244 C1248 1.368 . S
C1245 C1226 1.429 . S
C1245 C1239 1.429 . S
C1245 C1246 1.523 . S
C1246 C1227 1.368 . S
C1246 C1240 1.368 . S
C1246 C1245 1.523 . S
C1247 C1231 1.429 . S
C1247 C1243 1.429 . S
C1247 C1248 1.523 . S
C1248 C1232 1.368 . S
C1248 C1244 1.368 . S
C1248 C1247 1.523 . S
H1249 C1224 0.950 . S
H1250 C1226 0.950 . S
H1251 C1227 0.949 . S
H1252 C1229 0.950 . S
H1253 C1231 0.950 . S
C1254 C1255 1.349 . S
C1254 C1256 1.327 . S
C1254 H1279 0.950 . S
C1255 C1254 1.349 . S
C1255 C1271 1.349 . S
C1256 C1254 1.327 . S
C1256 C1275 1.429 . S
C1256 H1280 0.950 . S
C1257 C1274 1.574 . S
C1257 C1276 1.368 . S
C1257 H1281 0.949 . S
H1258 C1262 0.949 . S
C1259 C1260 1.349 . S
C1259 C1261 1.327 . S
C1259 H1282 0.950 . S
C1260 C1259 1.349 . S
C1260 C1272 1.349 . S
C1261 C1259 1.327 . S
C1261 C1277 1.429 . S
C1261 H1283 0.950 . S
C1262 H1258 0.949 . S
C1262 C1270 1.574 . S
C1262 C1278 1.368 . S
H1263 C1271 0.950 . S
H1264 C1269 0.950 . S
H1265 C1270 0.949 . S
H1266 C1272 0.950 . S
H1267 C1273 0.950 . S
H1268 C1274 0.949 . S
C1269 H1264 0.950 . S
C1269 C1271 1.327 . S
C1269 C1275 1.429 . S
C1270 C1262 1.574 . S
C1270 H1265 0.949 . S
C1270 C1276 1.368 . S
C1271 C1255 1.349 . S
C1271 H1263 0.950 . S
C1271 C1269 1.327 . S
C1272 C1260 1.349 . S
C1272 H1266 0.950 . S
C1272 C1273 1.327 . S
C1273 H1267 0.950 . S
C1273 C1272 1.327 . S
C1273 C1277 1.429 . S
C1274 C1257 1.574 . S
C1274 H1268 0.949 . S
C1274 C1278 1.368 . S
C1275 C1256 1.429 . S
C1275 C1269 1.429 . S
C1275 C1276 1.523 . S
C1276 C1257 1.368 . S
C1276 C1270 1.368 . S
C1276 C1275 1.523 . S
C1277 C1261 1.429 . S
C1277 C1273 1.429 . S
C1277 C1278 1.523 . S
C1278 C1262 1.368 . S
C1278 C1274 1.368 . S
C1278 C1277 1.523 . S
H1279 C1254 0.950 . S
H1280 C1256 0.950 . S
H1281 C1257 0.949 . S
H1282 C1259 0.950 . S
H1283 C1261 0.950 . S
C1284 C1285 1.349 . S
C1284 C1286 1.327 . S
C1284 H1309 0.950 . S
C1285 C1284 1.349 . S
C1285 C1301 1.349 . S
C1286 C1284 1.327 . S
C1286 C1305 1.429 . S
C1286 H1310 0.950 . S
C1287 C1304 1.574 . S
C1287 C1306 1.368 . S
C1287 H1311 0.949 . S
H1288 C1292 0.949 . S
C1289 C1290 1.349 . S
C1289 C1291 1.327 . S
C1289 H1312 0.950 . S
C1290 C1289 1.349 . S
C1290 C1302 1.349 . S
C1291 C1289 1.327 . S
C1291 C1307 1.429 . S
C1291 H1313 0.950 . S
C1292 H1288 0.949 . S
C1292 C1300 1.574 . S
C1292 C1308 1.368 . S
H1293 C1301 0.950 . S
H1294 C1299 0.950 . S
H1295 C1300 0.949 . S
H1296 C1302 0.950 . S
H1297 C1303 0.950 . S
H1298 C1304 0.949 . S
C1299 H1294 0.950 . S
C1299 C1301 1.327 . S
C1299 C1305 1.429 . S
C1300 C1292 1.574 . S
C1300 H1295 0.949 . S
C1300 C1306 1.368 . S
C1301 C1285 1.349 . S
C1301 H1293 0.950 . S
C1301 C1299 1.327 . S
C1302 C1290 1.349 . S
C1302 H1296 0.950 . S
C1302 C1303 1.327 . S
C1303 H1297 0.950 . S
C1303 C1302 1.327 . S
C1303 C1307 1.429 . S
C1304 C1287 1.574 . S
C1304 H1298 0.949 . S
C1304 C1308 1.368 . S
C1305 C1286 1.429 . S
C1305 C1299 1.429 . S
C1305 C1306 1.523 . S
C1306 C1287 1.368 . S
C1306 C1300 1.368 . S
C1306 C1305 1.523 . S
C1307 C1291 1.429 . S
C1307 C1303 1.429 . S
C1307 C1308 1.523 . S
C1308 C1292 1.368 . S
C1308 C1304 1.368 . S
C1308 C1307 1.523 . S
H1309 C1284 0.950 . S
H1310 C1286 0.950 . S
H1311 C1287 0.949 . S
H1312 C1289 0.950 . S
H1313 C1291 0.950 . S
C1314 C1315 1.349 . S
C1314 C1316 1.327 . S
C1314 H1339 0.950 . S
C1315 C1314 1.349 . S
C1315 C1331 1.349 . S
C1316 C1314 1.327 . S
C1316 C1335 1.429 . S
C1316 H1340 0.950 . S
C1317 C1334 1.574 1_655 S
C1317 C1336 1.368 . S
C1317 H1341 0.949 . S
H1318 C1322 0.949 . S
C1319 C1320 1.349 . S
C1319 C1321 1.327 . S
C1319 H1342 0.950 . S
C1320 C1319 1.349 . S
C1320 C1332 1.349 . S
C1321 C1319 1.327 . S
C1321 C1337 1.429 . S
C1321 H1343 0.950 . S
C1322 H1318 0.949 . S
C1322 C1330 1.574 . S
C1322 C1338 1.368 . S
H1323 C1331 0.950 . S
H1324 C1329 0.950 . S
H1325 C1330 0.949 . S
H1326 C1332 0.950 . S
H1327 C1333 0.950 . S
H1328 C1334 0.949 . S
C1329 H1324 0.950 . S
C1329 C1331 1.327 . S
C1329 C1335 1.429 . S
C1330 C1322 1.574 . S
C1330 H1325 0.949 . S
C1330 C1336 1.368 1_455 S
C1331 C1315 1.349 . S
C1331 H1323 0.950 . S
C1331 C1329 1.327 . S
C1332 C1320 1.349 . S
C1332 H1326 0.950 . S
C1332 C1333 1.327 . S
C1333 H1327 0.950 . S
C1333 C1332 1.327 . S
C1333 C1337 1.429 . S
C1334 C1317 1.574 1_455 S
C1334 H1328 0.949 . S
C1334 C1338 1.368 . S
C1335 C1316 1.429 . S
C1335 C1329 1.429 . S
C1335 C1336 1.523 . S
C1336 C1317 1.368 . S
C1336 C1330 1.368 1_655 S
C1336 C1335 1.523 . S
C1337 C1321 1.429 . S
C1337 C1333 1.429 . S
C1337 C1338 1.523 . S
C1338 C1322 1.368 . S
C1338 C1334 1.368 . S
C1338 C1337 1.523 . S
H1339 C1314 0.950 . S
H1340 C1316 0.950 . S
H1341 C1317 0.949 . S
H1342 C1319 0.950 . S
H1343 C1321 0.950 . S
C1344 C1345 1.349 . S
C1344 C1346 1.327 . S
C1344 H1369 0.950 . S
C1345 C1344 1.349 . S
C1345 C1361 1.349 . S
C1346 C1344 1.327 . S
C1346 C1365 1.429 . S
C1346 H1370 0.950 . S
C1347 C1364 1.574 . S
C1347 C1366 1.368 . S
C1347 H1371 0.949 . S
H1348 C1352 0.949 . S
C1349 C1350 1.349 . S
C1349 C1351 1.327 . S
C1349 H1372 0.950 . S
C1350 C1349 1.349 . S
C1350 C1362 1.349 . S
C1351 C1349 1.327 . S
C1351 C1367 1.429 . S
C1351 H1373 0.950 . S
C1352 H1348 0.949 . S
C1352 C1360 1.574 . S
C1352 C1368 1.368 . S
H1353 C1361 0.950 . S
H1354 C1359 0.950 . S
H1355 C1360 0.949 . S
H1356 C1362 0.950 . S
H1357 C1363 0.950 . S
H1358 C1364 0.949 . S
C1359 H1354 0.950 . S
C1359 C1361 1.327 . S
C1359 C1365 1.429 . S
C1360 C1352 1.574 . S
C1360 H1355 0.949 . S
C1360 C1366 1.368 . S
C1361 C1345 1.349 . S
C1361 H1353 0.950 . S
C1361 C1359 1.327 . S
C1362 C1350 1.349 . S
C1362 H1356 0.950 . S
C1362 C1363 1.327 . S
C1363 H1357 0.950 . S
C1363 C1362 1.327 . S
C1363 C1367 1.429 . S
C1364 C1347 1.574 . S
C1364 H1358 0.949 . S
C1364 C1368 1.368 . S
C1365 C1346 1.429 . S
C1365 C1359 1.429 . S
C1365 C1366 1.523 . S
C1366 C1347 1.368 . S
C1366 C1360 1.368 . S
C1366 C1365 1.523 . S
C1367 C1351 1.429 . S
C1367 C1363 1.429 . S
C1367 C1368 1.523 . S
C1368 C1352 1.368 . S
C1368 C1364 1.368 . S
C1368 C1367 1.523 . S
H1369 C1344 0.950 . S
H1370 C1346 0.950 . S
H1371 C1347 0.949 . S
H1372 C1349 0.950 . S
H1373 C1351 0.950 . S
C1374 C1375 1.349 . S
C1374 C1376 1.327 . S
C1374 H1399 0.950 . S
C1375 C1374 1.349 . S
C1375 C1391 1.349 . S
C1376 C1374 1.327 . S
C1376 C1395 1.429 . S
C1376 H1400 0.950 . S
C1377 C1394 1.574 1_545 S
C1377 C1396 1.368 . S
C1377 H1401 0.949 . S
H1378 C1382 0.949 . S
C1379 C1380 1.349 . S
C1379 C1381 1.327 . S
C1379 H1402 0.950 . S
C1380 C1379 1.349 . S
C1380 C1392 1.349 . S
C1381 C1379 1.327 . S
C1381 C1397 1.429 . S
C1381 H1403 0.950 . S
C1382 H1378 0.949 . S
C1382 C1390 1.574 . S
C1382 C1398 1.368 1_545 S
H1383 C1391 0.950 . S
H1384 C1389 0.950 . S
H1385 C1390 0.949 . S
H1386 C1392 0.950 . S
H1387 C1393 0.950 . S
H1388 C1394 0.949 . S
C1389 H1384 0.950 . S
C1389 C1391 1.327 . S
C1389 C1395 1.429 . S
C1390 C1382 1.574 . S
C1390 H1385 0.949 . S
C1390 C1396 1.368 . S
C1391 C1375 1.349 . S
C1391 H1383 0.950 . S
C1391 C1389 1.327 . S
C1392 C1380 1.349 . S
C1392 H1386 0.950 . S
C1392 C1393 1.327 . S
C1393 H1387 0.950 . S
C1393 C1392 1.327 . S
C1393 C1397 1.429 . S
C1394 C1377 1.574 1_565 S
C1394 H1388 0.949 . S
C1394 C1398 1.368 . S
C1395 C1376 1.429 . S
C1395 C1389 1.429 . S
C1395 C1396 1.523 . S
C1396 C1377 1.368 . S
C1396 C1390 1.368 . S
C1396 C1395 1.523 . S
C1397 C1381 1.429 . S
C1397 C1393 1.429 . S
C1397 C1398 1.523 . S
C1398 C1382 1.368 1_565 S
C1398 C1394 1.368 . S
C1398 C1397 1.523 . S
H1399 C1374 0.950 . S
H1400 C1376 0.950 . S
H1401 C1377 0.949 . S
H1402 C1379 0.950 . S
H1403 C1381 0.950 . S
C1404 C1405 1.349 . S
C1404 C1406 1.327 . S
C1404 H1429 0.950 . S
C1405 C1404 1.349 . S
C1405 C1421 1.349 . S
C1406 C1404 1.327 . S
C1406 C1425 1.429 . S
C1406 H1430 0.950 . S
C1407 C1424 1.574 . S
C1407 C1426 1.368 . S
C1407 H1431 0.949 . S
H1408 C1412 0.949 . S
C1409 C1410 1.349 . S
C1409 C1411 1.327 . S
C1409 H1432 0.950 . S
C1410 C1409 1.349 . S
C1410 C1422 1.349 . S
C1411 C1409 1.327 . S
C1411 C1427 1.429 . S
C1411 H1433 0.950 . S
C1412 H1408 0.949 . S
C1412 C1420 1.574 . S
C1412 C1428 1.368 . S
H1413 C1421 0.950 . S
H1414 C1419 0.950 . S
H1415 C1420 0.949 . S
H1416 C1422 0.950 . S
H1417 C1423 0.950 . S
H1418 C1424 0.949 . S
C1419 H1414 0.950 . S
C1419 C1421 1.327 . S
C1419 C1425 1.429 . S
C1420 C1412 1.574 . S
C1420 H1415 0.949 . S
C1420 C1426 1.368 . S
C1421 C1405 1.349 . S
C1421 H1413 0.950 . S
C1421 C1419 1.327 . S
C1422 C1410 1.349 . S
C1422 H1416 0.950 . S
C1422 C1423 1.327 . S
C1423 H1417 0.950 . S
C1423 C1422 1.327 . S
C1423 C1427 1.429 . S
C1424 C1407 1.574 . S
C1424 H1418 0.949 . S
C1424 C1428 1.368 . S
C1425 C1406 1.429 . S
C1425 C1419 1.429 . S
C1425 C1426 1.523 . S
C1426 C1407 1.368 . S
C1426 C1420 1.368 . S
C1426 C1425 1.523 . S
C1427 C1411 1.429 . S
C1427 C1423 1.429 . S
C1427 C1428 1.523 . S
C1428 C1412 1.368 . S
C1428 C1424 1.368 . S
C1428 C1427 1.523 . S
H1429 C1404 0.950 . S
H1430 C1406 0.950 . S
H1431 C1407 0.949 . S
H1432 C1409 0.950 . S
H1433 C1411 0.950 . S
C1434 C1435 1.349 . S
C1434 C1436 1.327 . S
C1434 H1459 0.950 . S
C1435 C1434 1.349 . S
C1435 C1451 1.349 . S
C1436 C1434 1.327 . S
C1436 C1455 1.429 . S
C1436 H1460 0.950 . S
C1437 C1454 1.574 . S
C1437 C1456 1.368 . S
C1437 H1461 0.949 . S
H1438 C1442 0.949 . S
C1439 C1440 1.349 . S
C1439 C1441 1.327 . S
C1439 H1462 0.950 . S
C1440 C1439 1.349 . S
C1440 C1452 1.349 . S
C1441 C1439 1.327 . S
C1441 C1457 1.429 . S
C1441 H1463 0.950 . S
C1442 H1438 0.949 . S
C1442 C1450 1.574 . S
C1442 C1458 1.368 . S
H1443 C1451 0.950 . S
H1444 C1449 0.950 . S
H1445 C1450 0.949 . S
H1446 C1452 0.950 . S
H1447 C1453 0.950 . S
H1448 C1454 0.949 . S
C1449 H1444 0.950 . S
C1449 C1451 1.327 . S
C1449 C1455 1.429 . S
C1450 C1442 1.574 . S
C1450 H1445 0.949 . S
C1450 C1456 1.368 . S
C1451 C1435 1.349 . S
C1451 H1443 0.950 . S
C1451 C1449 1.327 . S
C1452 C1440 1.349 . S
C1452 H1446 0.950 . S
C1452 C1453 1.327 . S
C1453 H1447 0.950 . S
C1453 C1452 1.327 . S
C1453 C1457 1.429 . S
C1454 C1437 1.574 . S
C1454 H1448 0.949 . S
C1454 C1458 1.368 . S
C1455 C1436 1.429 . S
C1455 C1449 1.429 . S
C1455 C1456 1.523 . S
C1456 C1437 1.368 . S
C1456 C1450 1.368 . S
C1456 C1455 1.523 . S
C1457 C1441 1.429 . S
C1457 C1453 1.429 . S
C1457 C1458 1.523 . S
C1458 C1442 1.368 . S
C1458 C1454 1.368 . S
C1458 C1457 1.523 . S
H1459 C1434 0.950 . S
H1460 C1436 0.950 . S
H1461 C1437 0.949 . S
H1462 C1439 0.950 . S
H1463 C1441 0.950 . S
C1464 C1465 1.349 . S
C1464 C1466 1.327 . S
C1464 H1489 0.950 . S
C1465 C1464 1.349 . S
C1465 C1481 1.349 . S
C1466 C1464 1.327 . S
C1466 C1485 1.429 . S
C1466 H1490 0.950 . S
C1467 C1484 1.574 . S
C1467 C1486 1.368 . S
C1467 H1491 0.949 . S
H1468 C1472 0.949 . S
C1469 C1470 1.349 . S
C1469 C1471 1.327 . S
C1469 H1492 0.950 . S
C1470 C1469 1.349 . S
C1470 C1482 1.349 . S
C1471 C1469 1.327 . S
C1471 C1487 1.429 . S
C1471 H1493 0.950 . S
C1472 H1468 0.949 . S
C1472 C1480 1.574 . S
C1472 C1488 1.368 . S
H1473 C1481 0.950 . S
H1474 C1479 0.950 . S
H1475 C1480 0.949 . S
H1476 C1482 0.950 . S
H1477 C1483 0.950 . S
H1478 C1484 0.949 . S
C1479 H1474 0.950 . S
C1479 C1481 1.327 . S
C1479 C1485 1.429 . S
C1480 C1472 1.574 . S
C1480 H1475 0.949 . S
C1480 C1486 1.368 . S
C1481 C1465 1.349 . S
C1481 H1473 0.950 . S
C1481 C1479 1.327 . S
C1482 C1470 1.349 . S
C1482 H1476 0.950 . S
C1482 C1483 1.327 . S
C1483 H1477 0.950 . S
C1483 C1482 1.327 . S
C1483 C1487 1.429 . S
C1484 C1467 1.574 . S
C1484 H1478 0.949 . S
C1484 C1488 1.368 . S
C1485 C1466 1.429 . S
C1485 C1479 1.429 . S
C1485 C1486 1.523 . S
C1486 C1467 1.368 . S
C1486 C1480 1.368 . S
C1486 C1485 1.523 . S
C1487 C1471 1.429 . S
C1487 C1483 1.429 . S
C1487 C1488 1.523 . S
C1488 C1472 1.368 . S
C1488 C1484 1.368 . S
C1488 C1487 1.523 . S
H1489 C1464 0.950 . S
H1490 C1466 0.950 . S
H1491 C1467 0.949 . S
H1492 C1469 0.950 . S
H1493 C1471 0.950 . S
C1494 C1495 1.349 . S
C1494 C1496 1.327 . S
C1494 H1519 0.950 . S
C1495 C1494 1.349 . S
C1495 C1511 1.349 . S
C1496 C1494 1.327 . S
C1496 C1515 1.429 . S
C1496 H1520 0.950 . S
C1497 C1514 1.574 . S
C1497 C1516 1.368 . S
C1497 H1521 0.949 . S
H1498 C1502 0.949 . S
C1499 C1500 1.349 . S
C1499 C1501 1.327 . S
C1499 H1522 0.950 . S
C1500 C1499 1.349 . S
C1500 C1512 1.349 . S
C1501 C1499 1.327 . S
C1501 C1517 1.429 . S
C1501 H1523 0.950 . S
C1502 H1498 0.949 . S
C1502 C1510 1.574 . S
C1502 C1518 1.368 . S
H1503 C1511 0.950 . S
H1504 C1509 0.950 . S
H1505 C1510 0.949 . S
H1506 C1512 0.950 . S
H1507 C1513 0.950 . S
H1508 C1514 0.949 . S
C1509 H1504 0.950 . S
C1509 C1511 1.327 . S
C1509 C1515 1.429 . S
C1510 C1502 1.574 . S
C1510 H1505 0.949 . S
C1510 C1516 1.368 . S
C1511 C1495 1.349 . S
C1511 H1503 0.950 . S
C1511 C1509 1.327 . S
C1512 C1500 1.349 . S
C1512 H1506 0.950 . S
C1512 C1513 1.327 . S
C1513 H1507 0.950 . S
C1513 C1512 1.327 . S
C1513 C1517 1.429 . S
C1514 C1497 1.574 . S
C1514 H1508 0.949 . S
C1514 C1518 1.368 . S
C1515 C1496 1.429 . S
C1515 C1509 1.429 . S
C1515 C1516 1.523 . S
C1516 C1497 1.368 . S
C1516 C1510 1.368 . S
C1516 C1515 1.523 . S
C1517 C1501 1.429 . S
C1517 C1513 1.429 . S
C1517 C1518 1.523 . S
C1518 C1502 1.368 . S
C1518 C1514 1.368 . S
C1518 C1517 1.523 . S
H1519 C1494 0.950 . S
H1520 C1496 0.950 . S
H1521 C1497 0.949 . S
H1522 C1499 0.950 . S
H1523 C1501 0.950 . S
C1524 C1525 1.349 . S
C1524 C1526 1.327 . S
C1524 H1549 0.950 . S
C1525 C1524 1.349 . S
C1525 C1541 1.349 . S
C1526 C1524 1.327 . S
C1526 C1545 1.429 . S
C1526 H1550 0.950 . S
C1527 C1544 1.574 . S
C1527 C1546 1.368 . S
C1527 H1551 0.949 . S
H1528 C1532 0.949 . S
C1529 C1530 1.349 . S
C1529 C1531 1.327 . S
C1529 H1552 0.950 . S
C1530 C1529 1.349 . S
C1530 C1542 1.349 . S
C1531 C1529 1.327 . S
C1531 C1547 1.429 . S
C1531 H1553 0.950 . S
C1532 H1528 0.949 . S
C1532 C1540 1.574 . S
C1532 C1548 1.368 . S
H1533 C1541 0.950 . S
H1534 C1539 0.950 . S
H1535 C1540 0.949 . S
H1536 C1542 0.950 . S
H1537 C1543 0.950 . S
H1538 C1544 0.949 . S
C1539 H1534 0.950 . S
C1539 C1541 1.327 . S
C1539 C1545 1.429 . S
C1540 C1532 1.574 . S
C1540 H1535 0.949 . S
C1540 C1546 1.368 . S
C1541 C1525 1.349 . S
C1541 H1533 0.950 . S
C1541 C1539 1.327 . S
C1542 C1530 1.349 . S
C1542 H1536 0.950 . S
C1542 C1543 1.327 . S
C1543 H1537 0.950 . S
C1543 C1542 1.327 . S
C1543 C1547 1.429 . S
C1544 C1527 1.574 . S
C1544 H1538 0.949 . S
C1544 C1548 1.368 . S
C1545 C1526 1.429 . S
C1545 C1539 1.429 . S
C1545 C1546 1.523 . S
C1546 C1527 1.368 . S
C1546 C1540 1.368 . S
C1546 C1545 1.523 . S
C1547 C1531 1.429 . S
C1547 C1543 1.429 . S
C1547 C1548 1.523 . S
C1548 C1532 1.368 . S
C1548 C1544 1.368 . S
C1548 C1547 1.523 . S
H1549 C1524 0.950 . S
H1550 C1526 0.950 . S
H1551 C1527 0.949 . S
H1552 C1529 0.950 . S
H1553 C1531 0.950 . S
C1554 C1555 1.349 . S
C1554 C1556 1.327 . S
C1554 H1579 0.950 . S
C1555 C1554 1.349 . S
C1555 C1571 1.349 . S
C1556 C1554 1.327 . S
C1556 C1575 1.429 . S
C1556 H1580 0.950 . S
C1557 C1574 1.574 . S
C1557 C1576 1.368 . S
C1557 H1581 0.949 . S
H1558 C1562 0.949 . S
C1559 C1560 1.349 . S
C1559 C1561 1.327 . S
C1559 H1582 0.950 . S
C1560 C1559 1.349 . S
C1560 C1572 1.349 . S
C1561 C1559 1.327 . S
C1561 C1577 1.429 . S
C1561 H1583 0.950 . S
C1562 H1558 0.949 . S
C1562 C1570 1.574 . S
C1562 C1578 1.368 . S
H1563 C1571 0.950 . S
H1564 C1569 0.950 . S
H1565 C1570 0.949 . S
H1566 C1572 0.950 . S
H1567 C1573 0.950 . S
H1568 C1574 0.949 . S
C1569 H1564 0.950 . S
C1569 C1571 1.327 . S
C1569 C1575 1.429 . S
C1570 C1562 1.574 . S
C1570 H1565 0.949 . S
C1570 C1576 1.368 . S
C1571 C1555 1.349 . S
C1571 H1563 0.950 . S
C1571 C1569 1.327 . S
C1572 C1560 1.349 . S
C1572 H1566 0.950 . S
C1572 C1573 1.327 . S
C1573 H1567 0.950 . S
C1573 C1572 1.327 . S
C1573 C1577 1.429 . S
C1574 C1557 1.574 . S
C1574 H1568 0.949 . S
C1574 C1578 1.368 . S
C1575 C1556 1.429 . S
C1575 C1569 1.429 . S
C1575 C1576 1.523 . S
C1576 C1557 1.368 . S
C1576 C1570 1.368 . S
C1576 C1575 1.523 . S
C1577 C1561 1.429 . S
C1577 C1573 1.429 . S
C1577 C1578 1.523 . S
C1578 C1562 1.368 . S
C1578 C1574 1.368 . S
C1578 C1577 1.523 . S
H1579 C1554 0.950 . S
H1580 C1556 0.950 . S
H1581 C1557 0.949 . S
H1582 C1559 0.950 . S
H1583 C1561 0.950 . S
C1584 C1585 1.349 . S
C1584 C1586 1.327 . S
C1584 H1609 0.950 . S
C1585 C1584 1.349 . S
C1585 C1601 1.349 . S
C1586 C1584 1.327 . S
C1586 C1605 1.429 1_545 S
C1586 H1610 0.948 1_545 S
C1587 C1604 1.574 . S
C1587 C1606 1.368 . S
C1587 H1611 0.949 . S
H1588 C1592 0.949 . S
C1589 C1590 1.349 . S
C1589 C1591 1.327 . S
C1589 H1612 0.950 . S
C1590 C1589 1.349 . S
C1590 C1602 1.349 . S
C1591 C1589 1.327 . S
C1591 C1607 1.429 . S
C1591 H1613 0.950 . S
C1592 H1588 0.949 . S
C1592 C1600 1.574 . S
C1592 C1608 1.368 . S
H1593 C1601 0.950 . S
H1594 C1599 0.950 . S
H1595 C1600 0.949 . S
H1596 C1602 0.950 . S
H1597 C1603 0.950 . S
H1598 C1604 0.949 . S
C1599 H1594 0.950 . S
C1599 C1601 1.327 . S
C1599 C1605 1.429 1_545 S
C1600 C1592 1.574 . S
C1600 H1595 0.949 . S
C1600 C1606 1.368 . S
C1601 C1585 1.349 . S
C1601 H1593 0.950 . S
C1601 C1599 1.327 . S
C1602 C1590 1.349 . S
C1602 H1596 0.950 . S
C1602 C1603 1.327 . S
C1603 H1597 0.950 . S
C1603 C1602 1.327 . S
C1603 C1607 1.429 . S
C1604 C1587 1.574 . S
C1604 H1598 0.949 . S
C1604 C1608 1.368 . S
C1605 C1586 1.429 1_565 S
C1605 C1599 1.429 1_565 S
C1605 C1606 1.523 . S
C1606 C1587 1.368 . S
C1606 C1600 1.368 . S
C1606 C1605 1.523 . S
C1607 C1591 1.429 . S
C1607 C1603 1.429 . S
C1607 C1608 1.523 . S
C1608 C1592 1.368 . S
C1608 C1604 1.368 . S
C1608 C1607 1.523 . S
H1609 C1584 0.950 . S
H1610 C1586 0.948 1_565 S
H1611 C1587 0.949 . S
H1612 C1589 0.950 . S
H1613 C1591 0.950 . S
C1614 C1615 1.349 . S
C1614 C1616 1.327 1_655 S
C1614 H1639 0.950 . S
C1615 C1614 1.349 . S
C1615 C1631 1.349 . S
C1616 C1614 1.327 1_455 S
C1616 C1635 1.429 . S
C1616 H1640 0.950 . S
C1617 C1634 1.574 . S
C1617 C1636 1.368 . S
C1617 H1641 0.949 . S
H1618 C1622 0.949 . S
C1619 C1620 1.349 . S
C1619 C1621 1.327 . S
C1619 H1642 0.950 . S
C1620 C1619 1.349 . S
C1620 C1632 1.349 . S
C1621 C1619 1.327 . S
C1621 C1637 1.429 . S
C1621 H1643 0.950 . S
C1622 H1618 0.949 . S
C1622 C1630 1.574 . S
C1622 C1638 1.368 . S
H1623 C1631 0.950 . S
H1624 C1629 0.919 1_455 S
H1625 C1630 0.949 . S
H1626 C1632 0.950 . S
H1627 C1633 0.950 . S
H1628 C1634 0.949 . S
C1629 H1624 0.919 1_655 S
C1629 C1631 1.379 . S
C1629 C1635 1.395 1_655 S
C1630 C1622 1.574 . S
C1630 H1625 0.949 . S
C1630 C1636 1.368 . S
C1631 C1615 1.349 . S
C1631 H1623 0.950 . S
C1631 C1629 1.379 . S
C1632 C1620 1.349 . S
C1632 H1626 0.950 . S
C1632 C1633 1.327 . S
C1633 H1627 0.950 . S
C1633 C1632 1.327 . S
C1633 C1637 1.429 . S
C1634 C1617 1.574 . S
C1634 H1628 0.949 . S
C1634 C1638 1.368 . S
C1635 C1616 1.429 . S
C1635 C1629 1.395 1_455 S
C1635 C1636 1.523 . S
C1636 C1617 1.368 . S
C1636 C1630 1.368 . S
C1636 C1635 1.523 . S
C1637 C1621 1.429 . S
C1637 C1633 1.429 . S
C1637 C1638 1.523 . S
C1638 C1622 1.368 . S
C1638 C1634 1.368 . S
C1638 C1637 1.523 . S
H1639 C1614 0.950 . S
H1640 C1616 0.950 . S
H1641 C1617 0.949 . S
H1642 C1619 0.950 . S
H1643 C1621 0.950 . S
C1644 C1645 1.349 . S
C1644 C1646 1.327 . S
C1644 H1669 0.950 . S
C1645 C1644 1.349 . S
C1645 C1661 1.349 . S
C1646 C1644 1.327 . S
C1646 C1665 1.429 . S
C1646 H1670 0.950 . S
C1647 C1664 1.574 . S
C1647 C1666 1.368 . S
C1647 H1671 0.949 . S
H1648 C1652 0.949 . S
C1649 C1650 1.349 . S
C1649 C1651 1.327 . S
C1649 H1672 0.950 . S
C1650 C1649 1.349 . S
C1650 C1662 1.349 . S
C1651 C1649 1.327 . S
C1651 C1667 1.429 . S
C1651 H1673 0.950 . S
C1652 H1648 0.949 . S
C1652 C1660 1.574 . S
C1652 C1668 1.368 . S
H1653 C1661 0.950 . S
H1654 C1659 0.950 . S
H1655 C1660 0.949 . S
H1656 C1662 0.950 . S
H1657 C1663 0.950 . S
H1658 C1664 0.949 . S
C1659 H1654 0.950 . S
C1659 C1661 1.327 . S
C1659 C1665 1.429 . S
C1660 C1652 1.574 . S
C1660 H1655 0.949 . S
C1660 C1666 1.368 . S
C1661 C1645 1.349 . S
C1661 H1653 0.950 . S
C1661 C1659 1.327 . S
C1662 C1650 1.349 . S
C1662 H1656 0.950 . S
C1662 C1663 1.327 . S
C1663 H1657 0.950 . S
C1663 C1662 1.327 . S
C1663 C1667 1.429 . S
C1664 C1647 1.574 . S
C1664 H1658 0.949 . S
C1664 C1668 1.368 . S
C1665 C1646 1.429 . S
C1665 C1659 1.429 . S
C1665 C1666 1.523 . S
C1666 C1647 1.368 . S
C1666 C1660 1.368 . S
C1666 C1665 1.523 . S
C1667 C1651 1.429 . S
C1667 C1663 1.429 . S
C1667 C1668 1.523 . S
C1668 C1652 1.368 . S
C1668 C1664 1.368 . S
C1668 C1667 1.523 . S
H1669 C1644 0.950 . S
H1670 C1646 0.950 . S
H1671 C1647 0.949 . S
H1672 C1649 0.950 . S
H1673 C1651 0.950 . S
C1674 C1675 1.349 . S
C1674 C1676 1.327 . S
C1674 H1699 0.950 . S
C1675 C1674 1.349 . S
C1675 C1691 1.349 . S
C1676 C1674 1.327 . S
C1676 C1695 1.429 . S
C1676 H1700 0.950 . S
C1677 C1694 1.574 . S
C1677 C1696 1.368 . S
C1677 H1701 0.949 . S
H1678 C1682 0.949 . S
C1679 C1680 1.349 . S
C1679 C1681 1.327 . S
C1679 H1702 0.950 . S
C1680 C1679 1.349 . S
C1680 C1692 1.349 . S
C1681 C1679 1.327 . S
C1681 C1697 1.429 . S
C1681 H1703 0.950 . S
C1682 H1678 0.949 . S
C1682 C1690 1.574 . S
C1682 C1698 1.368 . S
H1683 C1691 0.950 . S
H1684 C1689 0.950 . S
H1685 C1690 0.949 . S
H1686 C1692 0.950 . S
H1687 C1693 0.950 . S
H1688 C1694 0.949 . S
C1689 H1684 0.950 . S
C1689 C1691 1.327 . S
C1689 C1695 1.429 . S
C1690 C1682 1.574 . S
C1690 H1685 0.949 . S
C1690 C1696 1.368 . S
C1691 C1675 1.349 . S
C1691 H1683 0.950 . S
C1691 C1689 1.327 . S
C1692 C1680 1.349 . S
C1692 H1686 0.950 . S
C1692 C1693 1.327 . S
C1693 H1687 0.950 . S
C1693 C1692 1.327 . S
C1693 C1697 1.429 . S
C1694 C1677 1.574 . S
C1694 H1688 0.949 . S
C1694 C1698 1.368 . S
C1695 C1676 1.429 . S
C1695 C1689 1.429 . S
C1695 C1696 1.523 . S
C1696 C1677 1.368 . S
C1696 C1690 1.368 . S
C1696 C1695 1.523 . S
C1697 C1681 1.429 . S
C1697 C1693 1.429 . S
C1697 C1698 1.523 . S
C1698 C1682 1.368 . S
C1698 C1694 1.368 . S
C1698 C1697 1.523 . S
H1699 C1674 0.950 . S
H1700 C1676 0.950 . S
H1701 C1677 0.949 . S
H1702 C1679 0.950 . S
H1703 C1681 0.950 . S
C1704 C1705 1.349 . S
C1704 C1706 1.327 . S
C1704 H1729 0.950 . S
C1705 C1704 1.349 . S
C1705 C1721 1.349 . S
C1706 C1704 1.327 . S
C1706 C1725 1.429 . S
C1706 H1730 0.950 . S
C1707 C1724 1.574 . S
C1707 C1726 1.368 . S
C1707 H1731 0.949 . S
H1708 C1712 0.949 . S
C1709 C1710 1.349 . S
C1709 C1711 1.327 . S
C1709 H1732 0.950 . S
C1710 C1709 1.349 . S
C1710 C1722 1.349 . S
C1711 C1709 1.327 . S
C1711 C1727 1.429 . S
C1711 H1733 0.950 . S
C1712 H1708 0.949 . S
C1712 C1720 1.574 . S
C1712 C1728 1.368 . S
H1713 C1721 0.950 . S
H1714 C1719 0.950 . S
H1715 C1720 0.949 . S
H1716 C1722 0.950 . S
H1717 C1723 0.950 . S
H1718 C1724 0.949 . S
C1719 H1714 0.950 . S
C1719 C1721 1.327 . S
C1719 C1725 1.429 . S
C1720 C1712 1.574 . S
C1720 H1715 0.949 . S
C1720 C1726 1.368 . S
C1721 C1705 1.349 . S
C1721 H1713 0.950 . S
C1721 C1719 1.327 . S
C1722 C1710 1.349 . S
C1722 H1716 0.950 . S
C1722 C1723 1.327 . S
C1723 H1717 0.950 . S
C1723 C1722 1.327 . S
C1723 C1727 1.429 . S
C1724 C1707 1.574 . S
C1724 H1718 0.949 . S
C1724 C1728 1.368 . S
C1725 C1706 1.429 . S
C1725 C1719 1.429 . S
C1725 C1726 1.523 . S
C1726 C1707 1.368 . S
C1726 C1720 1.368 . S
C1726 C1725 1.523 . S
C1727 C1711 1.429 . S
C1727 C1723 1.429 . S
C1727 C1728 1.523 . S
C1728 C1712 1.368 . S
C1728 C1724 1.368 . S
C1728 C1727 1.523 . S
H1729 C1704 0.950 . S
H1730 C1706 0.950 . S
H1731 C1707 0.949 . S
H1732 C1709 0.950 . S
H1733 C1711 0.950 . S
C1734 C1735 1.349 . S
C1734 C1736 1.327 . S
C1734 H1759 0.950 . S
C1735 C1734 1.349 . S
C1735 C1751 1.349 . S
C1736 C1734 1.327 . S
C1736 C1755 1.429 . S
C1736 H1760 0.950 . S
C1737 C1754 1.574 . S
C1737 C1756 1.368 . S
C1737 H1761 0.949 . S
H1738 C1742 0.949 . S
C1739 C1740 1.349 . S
C1739 C1741 1.327 . S
C1739 H1762 0.950 . S
C1740 C1739 1.349 . S
C1740 C1752 1.349 . S
C1741 C1739 1.327 . S
C1741 C1757 1.429 . S
C1741 H1763 0.950 . S
C1742 H1738 0.949 . S
C1742 C1750 1.574 . S
C1742 C1758 1.368 . S
H1743 C1751 0.950 . S
H1744 C1749 0.950 . S
H1745 C1750 0.949 . S
H1746 C1752 0.950 . S
H1747 C1753 0.950 . S
H1748 C1754 0.949 . S
C1749 H1744 0.950 . S
C1749 C1751 1.327 . S
C1749 C1755 1.429 . S
C1750 C1742 1.574 . S
C1750 H1745 0.949 . S
C1750 C1756 1.368 . S
C1751 C1735 1.349 . S
C1751 H1743 0.950 . S
C1751 C1749 1.327 . S
C1752 C1740 1.349 . S
C1752 H1746 0.950 . S
C1752 C1753 1.327 . S
C1753 H1747 0.950 . S
C1753 C1752 1.327 . S
C1753 C1757 1.429 . S
C1754 C1737 1.574 . S
C1754 H1748 0.949 . S
C1754 C1758 1.368 . S
C1755 C1736 1.429 . S
C1755 C1749 1.429 . S
C1755 C1756 1.523 . S
C1756 C1737 1.368 . S
C1756 C1750 1.368 . S
C1756 C1755 1.523 . S
C1757 C1741 1.429 . S
C1757 C1753 1.429 . S
C1757 C1758 1.523 . S
C1758 C1742 1.368 . S
C1758 C1754 1.368 . S
C1758 C1757 1.523 . S
H1759 C1734 0.950 . S
H1760 C1736 0.950 . S
H1761 C1737 0.949 . S
H1762 C1739 0.950 . S
H1763 C1741 0.950 . S
C1764 C1765 1.349 . S
C1764 C1766 1.327 . S
C1764 H1789 0.950 . S
C1765 C1764 1.349 . S
C1765 C1781 1.349 . S
C1766 C1764 1.327 . S
C1766 C1785 1.429 . S
C1766 H1790 0.950 . S
C1767 C1784 1.574 1_565 S
C1767 C1786 1.368 . S
C1767 H1791 0.949 . S
H1768 C1772 0.949 . S
C1769 C1770 1.349 . S
C1769 C1771 1.327 . S
C1769 H1792 0.950 . S
C1770 C1769 1.349 . S
C1770 C1782 1.349 . S
C1771 C1769 1.327 . S
C1771 C1787 1.429 . S
C1771 H1793 0.950 . S
C1772 H1768 0.949 . S
C1772 C1780 1.574 . S
C1772 C1788 1.368 . S
H1773 C1781 0.950 . S
H1774 C1779 0.950 . S
H1775 C1780 0.949 . S
H1776 C1782 0.950 . S
H1777 C1783 0.950 . S
H1778 C1784 0.949 . S
C1779 H1774 0.950 . S
C1779 C1781 1.327 . S
C1779 C1785 1.429 . S
C1780 C1772 1.574 . S
C1780 H1775 0.949 . S
C1780 C1786 1.368 1_545 S
C1781 C1765 1.349 . S
C1781 H1773 0.950 . S
C1781 C1779 1.327 . S
C1782 C1770 1.349 . S
C1782 H1776 0.950 . S
C1782 C1783 1.327 . S
C1783 H1777 0.950 . S
C1783 C1782 1.327 . S
C1783 C1787 1.429 . S
C1784 C1767 1.574 1_545 S
C1784 H1778 0.949 . S
C1784 C1788 1.368 . S
C1785 C1766 1.429 . S
C1785 C1779 1.429 . S
C1785 C1786 1.523 . S
C1786 C1767 1.368 . S
C1786 C1780 1.368 1_565 S
C1786 C1785 1.523 . S
C1787 C1771 1.429 . S
C1787 C1783 1.429 . S
C1787 C1788 1.523 . S
C1788 C1772 1.368 . S
C1788 C1784 1.368 . S
C1788 C1787 1.523 . S
H1789 C1764 0.950 . S
H1790 C1766 0.950 . S
H1791 C1767 0.949 . S
H1792 C1769 0.950 . S
H1793 C1771 0.950 . S
C1794 C1795 1.349 . S
C1794 C1796 1.327 . S
C1794 H1819 0.950 . S
C1795 C1794 1.349 . S
C1795 C1811 1.349 . S
C1796 C1794 1.327 . S
C1796 C1815 1.429 . S
C1796 H1820 0.950 . S
C1797 C1814 1.574 1_455 S
C1797 C1816 1.368 . S
C1797 H1821 0.949 . S
H1798 C1802 0.949 . S
C1799 C1800 1.349 . S
C1799 C1801 1.327 . S
C1799 H1822 0.950 . S
C1800 C1799 1.349 . S
C1800 C1812 1.349 . S
C1801 C1799 1.327 . S
C1801 C1817 1.429 . S
C1801 H1823 0.950 . S
C1802 H1798 0.949 . S
C1802 C1810 1.574 1_655 S
C1802 C1818 1.368 . S
H1803 C1811 0.950 . S
H1804 C1809 0.950 . S
H1805 C1810 0.949 . S
H1806 C1812 0.950 . S
H1807 C1813 0.950 . S
H1808 C1814 0.949 . S
C1809 H1804 0.950 . S
C1809 C1811 1.327 . S
C1809 C1815 1.429 . S
C1810 C1802 1.574 1_455 S
C1810 H1805 0.949 . S
C1810 C1816 1.368 . S
C1811 C1795 1.349 . S
C1811 H1803 0.950 . S
C1811 C1809 1.327 . S
C1812 C1800 1.349 . S
C1812 H1806 0.950 . S
C1812 C1813 1.327 . S
C1813 H1807 0.950 . S
C1813 C1812 1.327 . S
C1813 C1817 1.429 . S
C1814 C1797 1.574 1_655 S
C1814 H1808 0.949 . S
C1814 C1818 1.368 . S
C1815 C1796 1.429 . S
C1815 C1809 1.429 . S
C1815 C1816 1.523 . S
C1816 C1797 1.368 . S
C1816 C1810 1.368 . S
C1816 C1815 1.523 . S
C1817 C1801 1.429 . S
C1817 C1813 1.429 . S
C1817 C1818 1.523 . S
C1818 C1802 1.368 . S
C1818 C1814 1.368 . S
C1818 C1817 1.523 . S
H1819 C1794 0.950 . S
H1820 C1796 0.950 . S
H1821 C1797 0.949 . S
H1822 C1799 0.950 . S
H1823 C1801 0.950 . S
C1824 C1825 1.349 . S
C1824 C1826 1.327 . S
C1824 H1849 0.950 . S
C1825 C1824 1.349 . S
C1825 C1841 1.349 . S
C1826 C1824 1.327 . S
C1826 C1845 1.429 . S
C1826 H1850 0.950 . S
C1827 C1844 1.574 . S
C1827 C1846 1.368 . S
C1827 H1851 0.949 . S
H1828 C1832 0.949 . S
C1829 C1830 1.349 . S
C1829 C1831 1.327 . S
C1829 H1852 0.950 . S
C1830 C1829 1.349 . S
C1830 C1842 1.349 . S
C1831 C1829 1.327 . S
C1831 C1847 1.429 . S
C1831 H1853 0.950 . S
C1832 H1828 0.949 . S
C1832 C1840 1.574 . S
C1832 C1848 1.368 . S
H1833 C1841 0.950 . S
H1834 C1839 0.950 . S
H1835 C1840 0.949 . S
H1836 C1842 0.950 . S
H1837 C1843 0.950 . S
H1838 C1844 0.949 . S
C1839 H1834 0.950 . S
C1839 C1841 1.327 . S
C1839 C1845 1.429 . S
C1840 C1832 1.574 . S
C1840 H1835 0.949 . S
C1840 C1846 1.368 . S
C1841 C1825 1.349 . S
C1841 H1833 0.950 . S
C1841 C1839 1.327 . S
C1842 C1830 1.349 . S
C1842 H1836 0.950 . S
C1842 C1843 1.327 . S
C1843 H1837 0.950 . S
C1843 C1842 1.327 . S
C1843 C1847 1.429 . S
C1844 C1827 1.574 . S
C1844 H1838 0.949 . S
C1844 C1848 1.368 . S
C1845 C1826 1.429 . S
C1845 C1839 1.429 . S
C1845 C1846 1.523 . S
C1846 C1827 1.368 . S
C1846 C1840 1.368 . S
C1846 C1845 1.523 . S
C1847 C1831 1.429 . S
C1847 C1843 1.429 . S
C1847 C1848 1.523 . S
C1848 C1832 1.368 . S
C1848 C1844 1.368 . S
C1848 C1847 1.523 . S
H1849 C1824 0.950 . S
H1850 C1826 0.950 . S
H1851 C1827 0.949 . S
H1852 C1829 0.950 . S
H1853 C1831 0.950 . S
C1854 C1855 1.349 . S
C1854 C1856 1.327 . S
C1854 H1879 0.950 . S
C1855 C1854 1.349 . S
C1855 C1871 1.349 . S
C1856 C1854 1.327 . S
C1856 C1875 1.429 1_455 S
C1856 H1880 0.950 . S
C1857 C1874 1.574 . S
C1857 C1876 1.368 . S
C1857 H1881 0.949 . S
H1858 C1862 0.949 . S
C1859 C1860 1.349 . S
C1859 C1861 1.327 . S
C1859 H1882 0.950 . S
C1860 C1859 1.349 . S
C1860 C1872 1.349 . S
C1861 C1859 1.327 . S
C1861 C1877 1.429 . S
C1861 H1883 0.950 . S
C1862 H1858 0.949 . S
C1862 C1870 1.574 . S
C1862 C1878 1.368 . S
H1863 C1871 0.950 . S
H1864 C1869 0.939 1_655 S
H1865 C1870 0.949 . S
H1866 C1872 0.950 . S
H1867 C1873 0.950 . S
H1868 C1874 0.949 . S
C1869 H1864 0.939 1_455 S
C1869 C1871 1.350 . S
C1869 C1875 1.417 1_455 S
C1870 C1862 1.574 . S
C1870 H1865 0.949 . S
C1870 C1876 1.368 . S
C1871 C1855 1.349 . S
C1871 H1863 0.950 . S
C1871 C1869 1.350 . S
C1872 C1860 1.349 . S
C1872 H1866 0.950 . S
C1872 C1873 1.327 . S
C1873 H1867 0.950 . S
C1873 C1872 1.327 . S
C1873 C1877 1.429 . S
C1874 C1857 1.574 . S
C1874 H1868 0.949 . S
C1874 C1878 1.368 . S
C1875 C1856 1.429 1_655 S
C1875 C1869 1.417 1_655 S
C1875 C1876 1.523 . S
C1876 C1857 1.368 . S
C1876 C1870 1.368 . S
C1876 C1875 1.523 . S
C1877 C1861 1.429 . S
C1877 C1873 1.429 . S
C1877 C1878 1.523 . S
C1878 C1862 1.368 . S
C1878 C1874 1.368 . S
C1878 C1877 1.523 . S
H1879 C1854 0.950 . S
H1880 C1856 0.950 . S
H1881 C1857 0.949 . S
H1882 C1859 0.950 . S
H1883 C1861 0.950 . S
C1884 C1885 1.349 . S
C1884 C1886 1.327 . S
C1884 H1909 0.950 . S
C1885 C1884 1.349 . S
C1885 C1901 1.349 . S
C1886 C1884 1.327 . S
C1886 C1905 1.429 . S
C1886 H1910 0.950 . S
C1887 C1904 1.574 . S
C1887 C1906 1.368 . S
C1887 H1911 0.949 . S
H1888 C1892 0.949 . S
C1889 C1890 1.349 . S
C1889 C1891 1.327 . S
C1889 H1912 0.950 . S
C1890 C1889 1.349 . S
C1890 C1902 1.349 . S
C1891 C1889 1.327 . S
C1891 C1907 1.429 . S
C1891 H1913 0.950 . S
C1892 H1888 0.949 . S
C1892 C1900 1.574 . S
C1892 C1908 1.368 . S
H1893 C1901 0.950 . S
H1894 C1899 0.950 . S
H1895 C1900 0.949 . S
H1896 C1902 0.950 . S
H1897 C1903 0.950 . S
H1898 C1904 0.949 . S
C1899 H1894 0.950 . S
C1899 C1901 1.327 . S
C1899 C1905 1.429 . S
C1900 C1892 1.574 . S
C1900 H1895 0.949 . S
C1900 C1906 1.368 . S
C1901 C1885 1.349 . S
C1901 H1893 0.950 . S
C1901 C1899 1.327 . S
C1902 C1890 1.349 . S
C1902 H1896 0.950 . S
C1902 C1903 1.327 . S
C1903 H1897 0.950 . S
C1903 C1902 1.327 . S
C1903 C1907 1.429 . S
C1904 C1887 1.574 . S
C1904 H1898 0.949 . S
C1904 C1908 1.368 . S
C1905 C1886 1.429 . S
C1905 C1899 1.429 . S
C1905 C1906 1.523 . S
C1906 C1887 1.368 . S
C1906 C1900 1.368 . S
C1906 C1905 1.523 . S
C1907 C1891 1.429 . S
C1907 C1903 1.429 . S
C1907 C1908 1.523 . S
C1908 C1892 1.368 . S
C1908 C1904 1.368 . S
C1908 C1907 1.523 . S
H1909 C1884 0.950 . S
H1910 C1886 0.950 . S
H1911 C1887 0.949 . S
H1912 C1889 0.950 . S
H1913 C1891 0.950 . S
C1914 C1915 1.349 . S
C1914 C1916 1.327 1_565 S
C1914 H1939 0.950 . S
C1915 C1914 1.349 . S
C1915 C1931 1.349 . S
C1916 C1914 1.327 1_545 S
C1916 C1935 1.429 . S
C1916 H1940 0.950 . S
C1917 C1934 1.574 . S
C1917 C1936 1.368 . S
C1917 H1941 0.949 . S
H1918 C1922 0.949 . S
C1919 C1920 1.349 . S
C1919 C1921 1.327 . S
C1919 H1942 0.950 . S
C1920 C1919 1.349 . S
C1920 C1932 1.349 . S
C1921 C1919 1.327 . S
C1921 C1937 1.429 . S
C1921 H1943 0.950 . S
C1922 H1918 0.949 . S
C1922 C1930 1.574 . S
C1922 C1938 1.368 . S
H1923 C1931 0.950 . S
H1924 C1929 0.950 . S
H1925 C1930 0.949 . S
H1926 C1932 0.950 . S
H1927 C1933 0.950 . S
H1928 C1934 0.949 . S
C1929 H1924 0.950 . S
C1929 C1931 1.327 . S
C1929 C1935 1.429 1_565 S
C1930 C1922 1.574 . S
C1930 H1925 0.949 . S
C1930 C1936 1.368 . S
C1931 C1915 1.349 . S
C1931 H1923 0.950 . S
C1931 C1929 1.327 . S
C1932 C1920 1.349 . S
C1932 H1926 0.950 . S
C1932 C1933 1.327 . S
C1933 H1927 0.950 . S
C1933 C1932 1.327 . S
C1933 C1937 1.429 . S
C1934 C1917 1.574 . S
C1934 H1928 0.949 . S
C1934 C1938 1.368 . S
C1935 C1916 1.429 . S
C1935 C1929 1.429 1_545 S
C1935 C1936 1.523 . S
C1936 C1917 1.368 . S
C1936 C1930 1.368 . S
C1936 C1935 1.523 . S
C1937 C1921 1.429 . S
C1937 C1933 1.429 . S
C1937 C1938 1.523 . S
C1938 C1922 1.368 . S
C1938 C1934 1.368 . S
C1938 C1937 1.523 . S
H1939 C1914 0.950 . S
H1940 C1916 0.950 . S
H1941 C1917 0.949 . S
H1942 C1919 0.950 . S
H1943 C1921 0.950 . S
C1944 C1945 1.349 . S
C1944 C1946 1.327 . S
C1944 H1969 0.950 . S
C1945 C1944 1.349 . S
C1945 C1961 1.349 . S
C1946 C1944 1.327 . S
C1946 C1965 1.429 . S
C1946 H1970 0.950 . S
C1947 C1964 1.574 . S
C1947 C1966 1.368 . S
C1947 H1971 0.949 . S
H1948 C1952 0.949 . S
C1949 C1950 1.349 . S
C1949 C1951 1.327 . S
C1949 H1972 0.950 . S
C1950 C1949 1.349 . S
C1950 C1962 1.349 . S
C1951 C1949 1.327 . S
C1951 C1967 1.429 . S
C1951 H1973 0.950 . S
C1952 H1948 0.949 . S
C1952 C1960 1.574 . S
C1952 C1968 1.368 . S
H1953 C1961 0.950 . S
H1954 C1959 0.950 . S
H1955 C1960 0.949 . S
H1956 C1962 0.950 . S
H1957 C1963 0.950 . S
H1958 C1964 0.949 . S
C1959 H1954 0.950 . S
C1959 C1961 1.327 . S
C1959 C1965 1.429 . S
C1960 C1952 1.574 . S
C1960 H1955 0.949 . S
C1960 C1966 1.368 . S
C1961 C1945 1.349 . S
C1961 H1953 0.950 . S
C1961 C1959 1.327 . S
C1962 C1950 1.349 . S
C1962 H1956 0.950 . S
C1962 C1963 1.327 . S
C1963 H1957 0.950 . S
C1963 C1962 1.327 . S
C1963 C1967 1.429 . S
C1964 C1947 1.574 . S
C1964 H1958 0.949 . S
C1964 C1968 1.368 . S
C1965 C1946 1.429 . S
C1965 C1959 1.429 . S
C1965 C1966 1.523 . S
C1966 C1947 1.368 . S
C1966 C1960 1.368 . S
C1966 C1965 1.523 . S
C1967 C1951 1.429 . S
C1967 C1963 1.429 . S
C1967 C1968 1.523 . S
C1968 C1952 1.368 . S
C1968 C1964 1.368 . S
C1968 C1967 1.523 . S
H1969 C1944 0.950 . S
H1970 C1946 0.950 . S
H1971 C1947 0.949 . S
H1972 C1949 0.950 . S
H1973 C1951 0.950 . S
C1974 C1975 1.349 . S
C1974 C1976 1.327 . S
C1974 H1999 0.950 . S
C1975 C1974 1.349 . S
C1975 C1991 1.349 . S
C1976 C1974 1.327 . S
C1976 C1995 1.429 . S
C1976 H2000 0.950 . S
C1977 C1994 1.574 . S
C1977 C1996 1.368 . S
C1977 H2001 0.949 . S
H1978 C1982 0.949 . S
C1979 C1980 1.349 . S
C1979 C1981 1.327 . S
C1979 H2002 0.950 . S
C1980 C1979 1.349 . S
C1980 C1992 1.349 . S
C1981 C1979 1.327 . S
C1981 C1997 1.429 . S
C1981 H2003 0.950 . S
C1982 H1978 0.949 . S
C1982 C1990 1.574 . S
C1982 C1998 1.368 . S
H1983 C1991 0.950 . S
H1984 C1989 0.950 . S
H1985 C1990 0.949 . S
H1986 C1992 0.950 . S
H1987 C1993 0.950 . S
H1988 C1994 0.949 . S
C1989 H1984 0.950 . S
C1989 C1991 1.327 . S
C1989 C1995 1.429 . S
C1990 C1982 1.574 . S
C1990 H1985 0.949 . S
C1990 C1996 1.368 . S
C1991 C1975 1.349 . S
C1991 H1983 0.950 . S
C1991 C1989 1.327 . S
C1992 C1980 1.349 . S
C1992 H1986 0.950 . S
C1992 C1993 1.327 . S
C1993 H1987 0.950 . S
C1993 C1992 1.327 . S
C1993 C1997 1.429 . S
C1994 C1977 1.574 . S
C1994 H1988 0.949 . S
C1994 C1998 1.368 . S
C1995 C1976 1.429 . S
C1995 C1989 1.429 . S
C1995 C1996 1.523 . S
C1996 C1977 1.368 . S
C1996 C1990 1.368 . S
C1996 C1995 1.523 . S
C1997 C1981 1.429 . S
C1997 C1993 1.429 . S
C1997 C1998 1.523 . S
C1998 C1982 1.368 . S
C1998 C1994 1.368 . S
C1998 C1997 1.523 . S
H1999 C1974 0.950 . S
H2000 C1976 0.950 . S
H2001 C1977 0.949 . S
H2002 C1979 0.950 . S
H2003 C1981 0.950 . S
C2004 C2005 1.349 . S
C2004 C2006 1.327 . S
C2004 H2029 0.950 . S
C2005 C2004 1.349 . S
C2005 C2021 1.349 . S
C2006 C2004 1.327 . S
C2006 C2025 1.429 . S
C2006 H2030 0.950 . S
C2007 C2024 1.574 . S
C2007 C2026 1.368 . S
C2007 H2031 0.949 . S
H2008 C2012 0.949 . S
C2009 C2010 1.349 . S
C2009 C2011 1.327 . S
C2009 H2032 0.950 . S
C2010 C2009 1.349 . S
C2010 C2022 1.349 . S
C2011 C2009 1.327 . S
C2011 C2027 1.429 . S
C2011 H2033 0.950 . S
C2012 H2008 0.949 . S
C2012 C2020 1.574 . S
C2012 C2028 1.368 . S
H2013 C2021 0.950 . S
H2014 C2019 0.950 . S
H2015 C2020 0.949 . S
H2016 C2022 0.950 . S
H2017 C2023 0.950 . S
H2018 C2024 0.949 . S
C2019 H2014 0.950 . S
C2019 C2021 1.327 . S
C2019 C2025 1.429 . S
C2020 C2012 1.574 . S
C2020 H2015 0.949 . S
C2020 C2026 1.368 . S
C2021 C2005 1.349 . S
C2021 H2013 0.950 . S
C2021 C2019 1.327 . S
C2022 C2010 1.349 . S
C2022 H2016 0.950 . S
C2022 C2023 1.327 . S
C2023 H2017 0.950 . S
C2023 C2022 1.327 . S
C2023 C2027 1.429 . S
C2024 C2007 1.574 . S
C2024 H2018 0.949 . S
C2024 C2028 1.368 . S
C2025 C2006 1.429 . S
C2025 C2019 1.429 . S
C2025 C2026 1.523 . S
C2026 C2007 1.368 . S
C2026 C2020 1.368 . S
C2026 C2025 1.523 . S
C2027 C2011 1.429 . S
C2027 C2023 1.429 . S
C2027 C2028 1.523 . S
C2028 C2012 1.368 . S
C2028 C2024 1.368 . S
C2028 C2027 1.523 . S
H2029 C2004 0.950 . S
H2030 C2006 0.950 . S
H2031 C2007 0.949 . S
H2032 C2009 0.950 . S
H2033 C2011 0.950 . S
C2034 C2035 1.349 . S
C2034 C2036 1.327 . S
C2034 H2059 0.950 . S
C2035 C2034 1.349 . S
C2035 C2051 1.349 . S
C2036 C2034 1.327 . S
C2036 C2055 1.429 . S
C2036 H2060 0.950 . S
C2037 C2054 1.574 . S
C2037 C2056 1.368 . S
C2037 H2061 0.949 . S
H2038 C2042 0.949 . S
C2039 C2040 1.349 . S
C2039 C2041 1.327 . S
C2039 H2062 0.950 . S
C2040 C2039 1.349 . S
C2040 C2052 1.349 . S
C2041 C2039 1.327 . S
C2041 C2057 1.429 . S
C2041 H2063 0.950 . S
C2042 H2038 0.949 . S
C2042 C2050 1.574 . S
C2042 C2058 1.368 . S
H2043 C2051 0.950 . S
H2044 C2049 0.950 . S
H2045 C2050 0.949 . S
H2046 C2052 0.950 . S
H2047 C2053 0.950 . S
H2048 C2054 0.949 . S
C2049 H2044 0.950 . S
C2049 C2051 1.327 . S
C2049 C2055 1.429 . S
C2050 C2042 1.574 . S
C2050 H2045 0.949 . S
C2050 C2056 1.368 . S
C2051 C2035 1.349 . S
C2051 H2043 0.950 . S
C2051 C2049 1.327 . S
C2052 C2040 1.349 . S
C2052 H2046 0.950 . S
C2052 C2053 1.327 . S
C2053 H2047 0.950 . S
C2053 C2052 1.327 . S
C2053 C2057 1.429 . S
C2054 C2037 1.574 . S
C2054 H2048 0.949 . S
C2054 C2058 1.368 . S
C2055 C2036 1.429 . S
C2055 C2049 1.429 . S
C2055 C2056 1.523 . S
C2056 C2037 1.368 . S
C2056 C2050 1.368 . S
C2056 C2055 1.523 . S
C2057 C2041 1.429 . S
C2057 C2053 1.429 . S
C2057 C2058 1.523 . S
C2058 C2042 1.368 . S
C2058 C2054 1.368 . S
C2058 C2057 1.523 . S
H2059 C2034 0.950 . S
H2060 C2036 0.950 . S
H2061 C2037 0.949 . S
H2062 C2039 0.950 . S
H2063 C2041 0.950 . S
C2064 C2065 1.349 . S
C2064 C2066 1.327 . S
C2064 H2089 0.950 . S
C2065 C2064 1.349 . S
C2065 C2081 1.349 . S
C2066 C2064 1.327 . S
C2066 C2085 1.429 . S
C2066 H2090 0.950 . S
C2067 C2084 1.574 . S
C2067 C2086 1.368 . S
C2067 H2091 0.949 . S
H2068 C2072 0.949 . S
C2069 C2070 1.349 . S
C2069 C2071 1.327 . S
C2069 H2092 0.950 . S
C2070 C2069 1.349 . S
C2070 C2082 1.349 . S
C2071 C2069 1.327 . S
C2071 C2087 1.429 . S
C2071 H2093 0.950 . S
C2072 H2068 0.949 . S
C2072 C2080 1.574 . S
C2072 C2088 1.368 . S
H2073 C2081 0.950 . S
H2074 C2079 0.950 . S
H2075 C2080 0.949 . S
H2076 C2082 0.950 . S
H2077 C2083 0.950 . S
H2078 C2084 0.949 . S
C2079 H2074 0.950 . S
C2079 C2081 1.327 . S
C2079 C2085 1.429 . S
C2080 C2072 1.574 . S
C2080 H2075 0.949 . S
C2080 C2086 1.368 . S
C2081 C2065 1.349 . S
C2081 H2073 0.950 . S
C2081 C2079 1.327 . S
C2082 C2070 1.349 . S
C2082 H2076 0.950 . S
C2082 C2083 1.327 . S
C2083 H2077 0.950 . S
C2083 C2082 1.327 . S
C2083 C2087 1.429 . S
C2084 C2067 1.574 . S
C2084 H2078 0.949 . S
C2084 C2088 1.368 . S
C2085 C2066 1.429 . S
C2085 C2079 1.429 . S
C2085 C2086 1.523 . S
C2086 C2067 1.368 . S
C2086 C2080 1.368 . S
C2086 C2085 1.523 . S
C2087 C2071 1.429 . S
C2087 C2083 1.429 . S
C2087 C2088 1.523 . S
C2088 C2072 1.368 . S
C2088 C2084 1.368 . S
C2088 C2087 1.523 . S
H2089 C2064 0.950 . S
H2090 C2066 0.950 . S
H2091 C2067 0.949 . S
H2092 C2069 0.950 . S
H2093 C2071 0.950 . S
C2094 C2095 1.349 . S
C2094 C2096 1.327 . S
C2094 H2119 0.950 . S
C2095 C2094 1.349 . S
C2095 C2111 1.349 . S
C2096 C2094 1.327 . S
C2096 C2115 1.429 . S
C2096 H2120 0.950 . S
C2097 C2114 1.574 . S
C2097 C2116 1.368 . S
C2097 H2121 0.949 . S
H2098 C2102 0.949 . S
C2099 C2100 1.349 . S
C2099 C2101 1.327 . S
C2099 H2122 0.950 . S
C2100 C2099 1.349 . S
C2100 C2112 1.349 . S
C2101 C2099 1.327 . S
C2101 C2117 1.429 . S
C2101 H2123 0.950 . S
C2102 H2098 0.949 . S
C2102 C2110 1.574 . S
C2102 C2118 1.368 . S
H2103 C2111 0.950 . S
H2104 C2109 0.950 . S
H2105 C2110 0.949 . S
H2106 C2112 0.950 . S
H2107 C2113 0.950 . S
H2108 C2114 0.949 . S
C2109 H2104 0.950 . S
C2109 C2111 1.327 . S
C2109 C2115 1.429 . S
C2110 C2102 1.574 . S
C2110 H2105 0.949 . S
C2110 C2116 1.368 . S
C2111 C2095 1.349 . S
C2111 H2103 0.950 . S
C2111 C2109 1.327 . S
C2112 C2100 1.349 . S
C2112 H2106 0.950 . S
C2112 C2113 1.327 . S
C2113 H2107 0.950 . S
C2113 C2112 1.327 . S
C2113 C2117 1.429 . S
C2114 C2097 1.574 . S
C2114 H2108 0.949 . S
C2114 C2118 1.368 . S
C2115 C2096 1.429 . S
C2115 C2109 1.429 . S
C2115 C2116 1.523 . S
C2116 C2097 1.368 . S
C2116 C2110 1.368 . S
C2116 C2115 1.523 . S
C2117 C2101 1.429 . S
C2117 C2113 1.429 . S
C2117 C2118 1.523 . S
C2118 C2102 1.368 . S
C2118 C2114 1.368 . S
C2118 C2117 1.523 . S
H2119 C2094 0.950 . S
H2120 C2096 0.950 . S
H2121 C2097 0.949 . S
H2122 C2099 0.950 . S
H2123 C2101 0.950 . S
C2124 C2125 1.349 . S
C2124 C2126 1.327 . S
C2124 H2149 0.950 . S
C2125 C2124 1.349 . S
C2125 C2141 1.349 . S
C2126 C2124 1.327 . S
C2126 C2145 1.429 . S
C2126 H2150 0.950 . S
C2127 C2144 1.574 . S
C2127 C2146 1.368 . S
C2127 H2151 0.949 . S
H2128 C2132 0.949 . S
C2129 C2130 1.349 . S
C2129 C2131 1.327 . S
C2129 H2152 0.950 . S
C2130 C2129 1.349 . S
C2130 C2142 1.349 . S
C2131 C2129 1.327 . S
C2131 C2147 1.429 . S
C2131 H2153 0.950 . S
C2132 H2128 0.949 . S
C2132 C2140 1.574 . S
C2132 C2148 1.368 . S
H2133 C2141 0.950 . S
H2134 C2139 0.950 . S
H2135 C2140 0.949 . S
H2136 C2142 0.950 . S
H2137 C2143 0.950 . S
H2138 C2144 0.949 . S
C2139 H2134 0.950 . S
C2139 C2141 1.327 . S
C2139 C2145 1.429 . S
C2140 C2132 1.574 . S
C2140 H2135 0.949 . S
C2140 C2146 1.368 . S
C2141 C2125 1.349 . S
C2141 H2133 0.950 . S
C2141 C2139 1.327 . S
C2142 C2130 1.349 . S
C2142 H2136 0.950 . S
C2142 C2143 1.327 . S
C2143 H2137 0.950 . S
C2143 C2142 1.327 . S
C2143 C2147 1.429 . S
C2144 C2127 1.574 . S
C2144 H2138 0.949 . S
C2144 C2148 1.368 . S
C2145 C2126 1.429 . S
C2145 C2139 1.429 . S
C2145 C2146 1.523 . S
C2146 C2127 1.368 . S
C2146 C2140 1.368 . S
C2146 C2145 1.523 . S
C2147 C2131 1.429 . S
C2147 C2143 1.429 . S
C2147 C2148 1.523 . S
C2148 C2132 1.368 . S
C2148 C2144 1.368 . S
C2148 C2147 1.523 . S
H2149 C2124 0.950 . S
H2150 C2126 0.950 . S
H2151 C2127 0.949 . S
H2152 C2129 0.950 . S
H2153 C2131 0.950 . S
C2154 C2155 1.349 . S
C2154 C2156 1.327 . S
C2154 H2179 0.950 . S
C2155 C2154 1.349 . S
C2155 C2171 1.349 . S
C2156 C2154 1.327 . S
C2156 C2175 1.429 . S
C2156 H2180 0.950 . S
C2157 C2174 1.574 . S
C2157 C2176 1.368 . S
C2157 H2181 0.949 . S
H2158 C2162 0.949 . S
C2159 C2160 1.349 . S
C2159 C2161 1.327 . S
C2159 H2182 0.950 . S
C2160 C2159 1.349 . S
C2160 C2172 1.349 . S
C2161 C2159 1.327 . S
C2161 C2177 1.429 . S
C2161 H2183 0.950 . S
C2162 H2158 0.949 . S
C2162 C2170 1.574 . S
C2162 C2178 1.368 . S
H2163 C2171 0.950 . S
H2164 C2169 0.950 . S
H2165 C2170 0.949 . S
H2166 C2172 0.950 . S
H2167 C2173 0.950 . S
H2168 C2174 0.949 . S
C2169 H2164 0.950 . S
C2169 C2171 1.327 . S
C2169 C2175 1.429 . S
C2170 C2162 1.574 . S
C2170 H2165 0.949 . S
C2170 C2176 1.368 . S
C2171 C2155 1.349 . S
C2171 H2163 0.950 . S
C2171 C2169 1.327 . S
C2172 C2160 1.349 . S
C2172 H2166 0.950 . S
C2172 C2173 1.327 . S
C2173 H2167 0.950 . S
C2173 C2172 1.327 . S
C2173 C2177 1.429 . S
C2174 C2157 1.574 . S
C2174 H2168 0.949 . S
C2174 C2178 1.368 . S
C2175 C2156 1.429 . S
C2175 C2169 1.429 . S
C2175 C2176 1.523 . S
C2176 C2157 1.368 . S
C2176 C2170 1.368 . S
C2176 C2175 1.523 . S
C2177 C2161 1.429 . S
C2177 C2173 1.429 . S
C2177 C2178 1.523 . S
C2178 C2162 1.368 . S
C2178 C2174 1.368 . S
C2178 C2177 1.523 . S
H2179 C2154 0.950 . S
H2180 C2156 0.950 . S
H2181 C2157 0.949 . S
H2182 C2159 0.950 . S
H2183 C2161 0.950 . S
C2184 C2185 1.349 . S
C2184 C2186 1.327 . S
C2184 H2209 0.950 . S
C2185 C2184 1.349 . S
C2185 C2201 1.349 . S
C2186 C2184 1.327 . S
C2186 C2205 1.429 . S
C2186 H2210 0.950 . S
C2187 C2204 1.574 . S
C2187 C2206 1.368 . S
C2187 H2211 0.949 . S
H2188 C2192 0.949 . S
C2189 C2190 1.349 . S
C2189 C2191 1.327 . S
C2189 H2212 0.950 . S
C2190 C2189 1.349 . S
C2190 C2202 1.349 . S
C2191 C2189 1.327 . S
C2191 C2207 1.429 . S
C2191 H2213 0.950 . S
C2192 H2188 0.949 . S
C2192 C2200 1.574 . S
C2192 C2208 1.368 . S
H2193 C2201 0.950 . S
H2194 C2199 0.950 . S
H2195 C2200 0.949 . S
H2196 C2202 0.950 . S
H2197 C2203 0.950 . S
H2198 C2204 0.949 . S
C2199 H2194 0.950 . S
C2199 C2201 1.327 . S
C2199 C2205 1.429 . S
C2200 C2192 1.574 . S
C2200 H2195 0.949 . S
C2200 C2206 1.368 . S
C2201 C2185 1.349 . S
C2201 H2193 0.950 . S
C2201 C2199 1.327 . S
C2202 C2190 1.349 . S
C2202 H2196 0.950 . S
C2202 C2203 1.327 . S
C2203 H2197 0.950 . S
C2203 C2202 1.327 . S
C2203 C2207 1.429 . S
C2204 C2187 1.574 . S
C2204 H2198 0.949 . S
C2204 C2208 1.368 . S
C2205 C2186 1.429 . S
C2205 C2199 1.429 . S
C2205 C2206 1.523 . S
C2206 C2187 1.368 . S
C2206 C2200 1.368 . S
C2206 C2205 1.523 . S
C2207 C2191 1.429 . S
C2207 C2203 1.429 . S
C2207 C2208 1.523 . S
C2208 C2192 1.368 . S
C2208 C2204 1.368 . S
C2208 C2207 1.523 . S
H2209 C2184 0.950 . S
H2210 C2186 0.950 . S
H2211 C2187 0.949 . S
H2212 C2189 0.950 . S
H2213 C2191 0.950 . S
C2214 C2215 1.349 . S
C2214 C2216 1.327 . S
C2214 H2239 0.950 . S
C2215 C2214 1.349 . S
C2215 C2231 1.349 . S
C2216 C2214 1.327 . S
C2216 C2235 1.429 . S
C2216 H2240 0.950 . S
C2217 C2234 1.574 . S
C2217 C2236 1.368 . S
C2217 H2241 0.949 . S
H2218 C2222 0.949 . S
C2219 C2220 1.349 . S
C2219 C2221 1.327 . S
C2219 H2242 0.950 . S
C2220 C2219 1.349 . S
C2220 C2232 1.349 . S
C2221 C2219 1.327 . S
C2221 C2237 1.429 . S
C2221 H2243 0.950 . S
C2222 H2218 0.949 . S
C2222 C2230 1.574 . S
C2222 C2238 1.368 . S
H2223 C2231 0.950 . S
H2224 C2229 0.950 . S
H2225 C2230 0.949 . S
H2226 C2232 0.950 . S
H2227 C2233 0.950 . S
H2228 C2234 0.949 . S
C2229 H2224 0.950 . S
C2229 C2231 1.327 . S
C2229 C2235 1.429 . S
C2230 C2222 1.574 . S
C2230 H2225 0.949 . S
C2230 C2236 1.368 . S
C2231 C2215 1.349 . S
C2231 H2223 0.950 . S
C2231 C2229 1.327 . S
C2232 C2220 1.349 . S
C2232 H2226 0.950 . S
C2232 C2233 1.327 . S
C2233 H2227 0.950 . S
C2233 C2232 1.327 . S
C2233 C2237 1.429 . S
C2234 C2217 1.574 . S
C2234 H2228 0.949 . S
C2234 C2238 1.368 . S
C2235 C2216 1.429 . S
C2235 C2229 1.429 . S
C2235 C2236 1.523 . S
C2236 C2217 1.368 . S
C2236 C2230 1.368 . S
C2236 C2235 1.523 . S
C2237 C2221 1.429 . S
C2237 C2233 1.429 . S
C2237 C2238 1.523 . S
C2238 C2222 1.368 . S
C2238 C2234 1.368 . S
C2238 C2237 1.523 . S
H2239 C2214 0.950 . S
H2240 C2216 0.950 . S
H2241 C2217 0.949 . S
H2242 C2219 0.950 . S
H2243 C2221 0.950 . S
C2244 C2245 1.349 . S
C2244 C2246 1.327 . S
C2244 H2269 0.950 . S
C2245 C2244 1.349 . S
C2245 C2261 1.349 . S
C2246 C2244 1.327 . S
C2246 C2265 1.429 . S
C2246 H2270 0.950 . S
C2247 C2264 1.574 . S
C2247 C2266 1.368 . S
C2247 H2271 0.949 . S
H2248 C2252 0.949 . S
C2249 C2250 1.349 . S
C2249 C2251 1.327 . S
C2249 H2272 0.950 . S
C2250 C2249 1.349 . S
C2250 C2262 1.349 . S
C2251 C2249 1.327 . S
C2251 C2267 1.429 . S
C2251 H2273 0.950 . S
C2252 H2248 0.949 . S
C2252 C2260 1.574 . S
C2252 C2268 1.368 . S
H2253 C2261 0.950 . S
H2254 C2259 0.950 . S
H2255 C2260 0.949 . S
H2256 C2262 0.950 . S
H2257 C2263 0.950 . S
H2258 C2264 0.949 . S
C2259 H2254 0.950 . S
C2259 C2261 1.327 . S
C2259 C2265 1.429 . S
C2260 C2252 1.574 . S
C2260 H2255 0.949 . S
C2260 C2266 1.368 . S
C2261 C2245 1.349 . S
C2261 H2253 0.950 . S
C2261 C2259 1.327 . S
C2262 C2250 1.349 . S
C2262 H2256 0.950 . S
C2262 C2263 1.327 . S
C2263 H2257 0.950 . S
C2263 C2262 1.327 . S
C2263 C2267 1.429 . S
C2264 C2247 1.574 . S
C2264 H2258 0.949 . S
C2264 C2268 1.368 . S
C2265 C2246 1.429 . S
C2265 C2259 1.429 . S
C2265 C2266 1.523 . S
C2266 C2247 1.368 . S
C2266 C2260 1.368 . S
C2266 C2265 1.523 . S
C2267 C2251 1.429 . S
C2267 C2263 1.429 . S
C2267 C2268 1.523 . S
C2268 C2252 1.368 . S
C2268 C2264 1.368 . S
C2268 C2267 1.523 . S
H2269 C2244 0.950 . S
H2270 C2246 0.950 . S
H2271 C2247 0.949 . S
H2272 C2249 0.950 . S
H2273 C2251 0.950 . S
C2274 C2275 1.349 . S
C2274 C2276 1.327 . S
C2274 H2299 0.950 . S
C2275 C2274 1.349 . S
C2275 C2291 1.349 . S
C2276 C2274 1.327 . S
C2276 C2295 1.429 . S
C2276 H2300 0.950 . S
C2277 C2294 1.574 . S
C2277 C2296 1.368 . S
C2277 H2301 0.949 . S
H2278 C2282 0.949 . S
C2279 C2280 1.349 . S
C2279 C2281 1.327 . S
C2279 H2302 0.950 . S
C2280 C2279 1.349 . S
C2280 C2292 1.349 . S
C2281 C2279 1.327 . S
C2281 C2297 1.429 . S
C2281 H2303 0.950 . S
C2282 H2278 0.949 . S
C2282 C2290 1.574 . S
C2282 C2298 1.368 . S
H2283 C2291 0.950 . S
H2284 C2289 0.950 . S
H2285 C2290 0.949 . S
H2286 C2292 0.950 . S
H2287 C2293 0.950 . S
H2288 C2294 0.949 . S
C2289 H2284 0.950 . S
C2289 C2291 1.327 . S
C2289 C2295 1.429 . S
C2290 C2282 1.574 . S
C2290 H2285 0.949 . S
C2290 C2296 1.368 . S
C2291 C2275 1.349 . S
C2291 H2283 0.950 . S
C2291 C2289 1.327 . S
C2292 C2280 1.349 . S
C2292 H2286 0.950 . S
C2292 C2293 1.327 . S
C2293 H2287 0.950 . S
C2293 C2292 1.327 . S
C2293 C2297 1.429 . S
C2294 C2277 1.574 . S
C2294 H2288 0.949 . S
C2294 C2298 1.368 . S
C2295 C2276 1.429 . S
C2295 C2289 1.429 . S
C2295 C2296 1.523 . S
C2296 C2277 1.368 . S
C2296 C2290 1.368 . S
C2296 C2295 1.523 . S
C2297 C2281 1.429 . S
C2297 C2293 1.429 . S
C2297 C2298 1.523 . S
C2298 C2282 1.368 . S
C2298 C2294 1.368 . S
C2298 C2297 1.523 . S
H2299 C2274 0.950 . S
H2300 C2276 0.950 . S
H2301 C2277 0.949 . S
H2302 C2279 0.950 . S
H2303 C2281 0.950 . S
C2304 C2305 1.349 . S
C2304 C2306 1.327 . S
C2304 H2329 0.950 . S
C2305 C2304 1.349 . S
C2305 C2321 1.349 . S
C2306 C2304 1.327 . S
C2306 C2325 1.429 . S
C2306 H2330 0.950 . S
C2307 C2324 1.574 . S
C2307 C2326 1.368 . S
C2307 H2331 0.949 . S
H2308 C2312 0.949 . S
C2309 C2310 1.349 . S
C2309 C2311 1.327 . S
C2309 H2332 0.950 . S
C2310 C2309 1.349 . S
C2310 C2322 1.349 . S
C2311 C2309 1.327 . S
C2311 C2327 1.429 . S
C2311 H2333 0.950 . S
C2312 H2308 0.949 . S
C2312 C2320 1.574 . S
C2312 C2328 1.368 . S
H2313 C2321 0.950 . S
H2314 C2319 0.950 . S
H2315 C2320 0.949 . S
H2316 C2322 0.950 . S
H2317 C2323 0.950 . S
H2318 C2324 0.949 . S
C2319 H2314 0.950 . S
C2319 C2321 1.327 . S
C2319 C2325 1.429 . S
C2320 C2312 1.574 . S
C2320 H2315 0.949 . S
C2320 C2326 1.368 . S
C2321 C2305 1.349 . S
C2321 H2313 0.950 . S
C2321 C2319 1.327 . S
C2322 C2310 1.349 . S
C2322 H2316 0.950 . S
C2322 C2323 1.327 . S
C2323 H2317 0.950 . S
C2323 C2322 1.327 . S
C2323 C2327 1.429 . S
C2324 C2307 1.574 . S
C2324 H2318 0.949 . S
C2324 C2328 1.368 . S
C2325 C2306 1.429 . S
C2325 C2319 1.429 . S
C2325 C2326 1.523 . S
C2326 C2307 1.368 . S
C2326 C2320 1.368 . S
C2326 C2325 1.523 . S
C2327 C2311 1.429 . S
C2327 C2323 1.429 . S
C2327 C2328 1.523 . S
C2328 C2312 1.368 . S
C2328 C2324 1.368 . S
C2328 C2327 1.523 . S
H2329 C2304 0.950 . S
H2330 C2306 0.950 . S
H2331 C2307 0.949 . S
H2332 C2309 0.950 . S
H2333 C2311 0.950 . S
C2334 C2335 1.349 . S
C2334 C2336 1.327 . S
C2334 H2359 0.950 . S
C2335 C2334 1.349 . S
C2335 C2351 1.349 . S
C2336 C2334 1.327 . S
C2336 C2355 1.429 . S
C2336 H2360 0.950 . S
C2337 C2354 1.574 . S
C2337 C2356 1.368 . S
C2337 H2361 0.949 . S
H2338 C2342 0.949 . S
C2339 C2340 1.349 . S
C2339 C2341 1.327 . S
C2339 H2362 0.950 . S
C2340 C2339 1.349 . S
C2340 C2352 1.349 . S
C2341 C2339 1.327 . S
C2341 C2357 1.429 . S
C2341 H2363 0.950 . S
C2342 H2338 0.949 . S
C2342 C2350 1.574 . S
C2342 C2358 1.368 . S
H2343 C2351 0.950 . S
H2344 C2349 0.950 . S
H2345 C2350 0.949 . S
H2346 C2352 0.950 . S
H2347 C2353 0.950 . S
H2348 C2354 0.949 . S
C2349 H2344 0.950 . S
C2349 C2351 1.327 . S
C2349 C2355 1.429 . S
C2350 C2342 1.574 . S
C2350 H2345 0.949 . S
C2350 C2356 1.368 . S
C2351 C2335 1.349 . S
C2351 H2343 0.950 . S
C2351 C2349 1.327 . S
C2352 C2340 1.349 . S
C2352 H2346 0.950 . S
C2352 C2353 1.327 . S
C2353 H2347 0.950 . S
C2353 C2352 1.327 . S
C2353 C2357 1.429 . S
C2354 C2337 1.574 . S
C2354 H2348 0.949 . S
C2354 C2358 1.368 . S
C2355 C2336 1.429 . S
C2355 C2349 1.429 . S
C2355 C2356 1.523 . S
C2356 C2337 1.368 . S
C2356 C2350 1.368 . S
C2356 C2355 1.523 . S
C2357 C2341 1.429 . S
C2357 C2353 1.429 . S
C2357 C2358 1.523 . S
C2358 C2342 1.368 . S
C2358 C2354 1.368 . S
C2358 C2357 1.523 . S
H2359 C2334 0.950 . S
H2360 C2336 0.950 . S
H2361 C2337 0.949 . S
H2362 C2339 0.950 . S
H2363 C2341 0.950 . S
C2364 C2365 1.349 . S
C2364 C2366 1.327 . S
C2364 H2389 0.950 . S
C2365 C2364 1.349 . S
C2365 C2381 1.349 . S
C2366 C2364 1.327 . S
C2366 C2385 1.429 . S
C2366 H2390 0.950 . S
C2367 C2384 1.574 . S
C2367 C2386 1.368 . S
C2367 H2391 0.949 . S
H2368 C2372 0.949 . S
C2369 C2370 1.349 . S
C2369 C2371 1.327 . S
C2369 H2392 0.950 . S
C2370 C2369 1.349 . S
C2370 C2382 1.349 . S
C2371 C2369 1.327 . S
C2371 C2387 1.429 . S
C2371 H2393 0.950 . S
C2372 H2368 0.949 . S
C2372 C2380 1.574 . S
C2372 C2388 1.368 . S
H2373 C2381 0.950 . S
H2374 C2379 0.950 . S
H2375 C2380 0.949 . S
H2376 C2382 0.950 . S
H2377 C2383 0.950 . S
H2378 C2384 0.949 . S
C2379 H2374 0.950 . S
C2379 C2381 1.327 . S
C2379 C2385 1.429 . S
C2380 C2372 1.574 . S
C2380 H2375 0.949 . S
C2380 C2386 1.368 . S
C2381 C2365 1.349 . S
C2381 H2373 0.950 . S
C2381 C2379 1.327 . S
C2382 C2370 1.349 . S
C2382 H2376 0.950 . S
C2382 C2383 1.327 . S
C2383 H2377 0.950 . S
C2383 C2382 1.327 . S
C2383 C2387 1.429 . S
C2384 C2367 1.574 . S
C2384 H2378 0.949 . S
C2384 C2388 1.368 . S
C2385 C2366 1.429 . S
C2385 C2379 1.429 . S
C2385 C2386 1.523 . S
C2386 C2367 1.368 . S
C2386 C2380 1.368 . S
C2386 C2385 1.523 . S
C2387 C2371 1.429 . S
C2387 C2383 1.429 . S
C2387 C2388 1.523 . S
C2388 C2372 1.368 . S
C2388 C2384 1.368 . S
C2388 C2387 1.523 . S
H2389 C2364 0.950 . S
H2390 C2366 0.950 . S
H2391 C2367 0.949 . S
H2392 C2369 0.950 . S
H2393 C2371 0.950 . S
C2394 C2395 1.349 . S
C2394 C2396 1.327 . S
C2394 H2419 0.950 . S
C2395 C2394 1.349 . S
C2395 C2411 1.349 . S
C2396 C2394 1.327 . S
C2396 C2415 1.429 . S
C2396 H2420 0.950 . S
C2397 C2414 1.574 . S
C2397 C2416 1.368 . S
C2397 H2421 0.949 . S
H2398 C2402 0.949 . S
C2399 C2400 1.349 . S
C2399 C2401 1.327 . S
C2399 H2422 0.950 . S
C2400 C2399 1.349 . S
C2400 C2412 1.349 . S
C2401 C2399 1.327 . S
C2401 C2417 1.429 . S
C2401 H2423 0.950 . S
C2402 H2398 0.949 . S
C2402 C2410 1.574 . S
C2402 C2418 1.368 . S
H2403 C2411 0.950 . S
H2404 C2409 0.950 . S
H2405 C2410 0.949 . S
H2406 C2412 0.950 . S
H2407 C2413 0.950 . S
H2408 C2414 0.949 . S
C2409 H2404 0.950 . S
C2409 C2411 1.327 . S
C2409 C2415 1.429 . S
C2410 C2402 1.574 . S
C2410 H2405 0.949 . S
C2410 C2416 1.368 . S
C2411 C2395 1.349 . S
C2411 H2403 0.950 . S
C2411 C2409 1.327 . S
C2412 C2400 1.349 . S
C2412 H2406 0.950 . S
C2412 C2413 1.327 . S
C2413 H2407 0.950 . S
C2413 C2412 1.327 . S
C2413 C2417 1.429 . S
C2414 C2397 1.574 . S
C2414 H2408 0.949 . S
C2414 C2418 1.368 . S
C2415 C2396 1.429 . S
C2415 C2409 1.429 . S
C2415 C2416 1.523 . S
C2416 C2397 1.368 . S
C2416 C2410 1.368 . S
C2416 C2415 1.523 . S
C2417 C2401 1.429 . S
C2417 C2413 1.429 . S
C2417 C2418 1.523 . S
C2418 C2402 1.368 . S
C2418 C2414 1.368 . S
C2418 C2417 1.523 . S
H2419 C2394 0.950 . S
H2420 C2396 0.950 . S
H2421 C2397 0.949 . S
H2422 C2399 0.950 . S
H2423 C2401 0.950 . S
C2424 C2425 1.349 . S
C2424 C2426 1.327 . S
C2424 H2449 0.950 . S
C2425 C2424 1.349 . S
C2425 C2441 1.349 . S
C2426 C2424 1.327 . S
C2426 C2445 1.429 . S
C2426 H2450 0.950 . S
C2427 C2444 1.574 . S
C2427 C2446 1.368 . S
C2427 H2451 0.949 . S
H2428 C2432 0.949 . S
C2429 C2430 1.349 . S
C2429 C2431 1.327 . S
C2429 H2452 0.950 . S
C2430 C2429 1.349 . S
C2430 C2442 1.349 . S
C2431 C2429 1.327 . S
C2431 C2447 1.429 . S
C2431 H2453 0.950 . S
C2432 H2428 0.949 . S
C2432 C2440 1.574 . S
C2432 C2448 1.368 . S
H2433 C2441 0.950 . S
H2434 C2439 0.950 . S
H2435 C2440 0.949 . S
H2436 C2442 0.950 . S
H2437 C2443 0.950 . S
H2438 C2444 0.949 . S
C2439 H2434 0.950 . S
C2439 C2441 1.327 . S
C2439 C2445 1.429 . S
C2440 C2432 1.574 . S
C2440 H2435 0.949 . S
C2440 C2446 1.368 . S
C2441 C2425 1.349 . S
C2441 H2433 0.950 . S
C2441 C2439 1.327 . S
C2442 C2430 1.349 . S
C2442 H2436 0.950 . S
C2442 C2443 1.327 . S
C2443 H2437 0.950 . S
C2443 C2442 1.327 . S
C2443 C2447 1.429 . S
C2444 C2427 1.574 . S
C2444 H2438 0.949 . S
C2444 C2448 1.368 . S
C2445 C2426 1.429 . S
C2445 C2439 1.429 . S
C2445 C2446 1.523 . S
C2446 C2427 1.368 . S
C2446 C2440 1.368 . S
C2446 C2445 1.523 . S
C2447 C2431 1.429 . S
C2447 C2443 1.429 . S
C2447 C2448 1.523 . S
C2448 C2432 1.368 . S
C2448 C2444 1.368 . S
C2448 C2447 1.523 . S
H2449 C2424 0.950 . S
H2450 C2426 0.950 . S
H2451 C2427 0.949 . S
H2452 C2429 0.950 . S
H2453 C2431 0.950 . S
C2454 C2455 1.349 . S
C2454 C2456 1.327 . S
C2454 H2479 0.950 . S
C2455 C2454 1.349 . S
C2455 C2471 1.349 . S
C2456 C2454 1.327 . S
C2456 C2475 1.429 . S
C2456 H2480 0.950 . S
C2457 C2474 1.574 . S
C2457 C2476 1.368 . S
C2457 H2481 0.949 . S
H2458 C2462 0.949 . S
C2459 C2460 1.349 . S
C2459 C2461 1.327 . S
C2459 H2482 0.950 . S
C2460 C2459 1.349 . S
C2460 C2472 1.349 . S
C2461 C2459 1.327 . S
C2461 C2477 1.429 . S
C2461 H2483 0.950 . S
C2462 H2458 0.949 . S
C2462 C2470 1.574 . S
C2462 C2478 1.368 . S
H2463 C2471 0.950 . S
H2464 C2469 0.950 . S
H2465 C2470 0.949 . S
H2466 C2472 0.950 . S
H2467 C2473 0.950 . S
H2468 C2474 0.949 . S
C2469 H2464 0.950 . S
C2469 C2471 1.327 . S
C2469 C2475 1.429 . S
C2470 C2462 1.574 . S
C2470 H2465 0.949 . S
C2470 C2476 1.368 . S
C2471 C2455 1.349 . S
C2471 H2463 0.950 . S
C2471 C2469 1.327 . S
C2472 C2460 1.349 . S
C2472 H2466 0.950 . S
C2472 C2473 1.327 . S
C2473 H2467 0.950 . S
C2473 C2472 1.327 . S
C2473 C2477 1.429 . S
C2474 C2457 1.574 . S
C2474 H2468 0.949 . S
C2474 C2478 1.368 . S
C2475 C2456 1.429 . S
C2475 C2469 1.429 . S
C2475 C2476 1.523 . S
C2476 C2457 1.368 . S
C2476 C2470 1.368 . S
C2476 C2475 1.523 . S
C2477 C2461 1.429 . S
C2477 C2473 1.429 . S
C2477 C2478 1.523 . S
C2478 C2462 1.368 . S
C2478 C2474 1.368 . S
C2478 C2477 1.523 . S
H2479 C2454 0.950 . S
H2480 C2456 0.950 . S
H2481 C2457 0.949 . S
H2482 C2459 0.950 . S
H2483 C2461 0.950 . S
C2484 C2485 1.349 . S
C2484 C2486 1.327 . S
C2484 H2509 0.950 . S
C2485 C2484 1.349 . S
C2485 C2501 1.349 . S
C2486 C2484 1.327 . S
C2486 C2505 1.429 . S
C2486 H2510 0.950 . S
C2487 C2504 1.574 . S
C2487 C2506 1.368 . S
C2487 H2511 0.949 . S
H2488 C2492 0.949 . S
C2489 C2490 1.349 . S
C2489 C2491 1.327 . S
C2489 H2512 0.950 . S
C2490 C2489 1.349 . S
C2490 C2502 1.349 . S
C2491 C2489 1.327 . S
C2491 C2507 1.429 . S
C2491 H2513 0.950 . S
C2492 H2488 0.949 . S
C2492 C2500 1.574 . S
C2492 C2508 1.368 . S
H2493 C2501 0.950 . S
H2494 C2499 0.950 . S
H2495 C2500 0.949 . S
H2496 C2502 0.950 . S
H2497 C2503 0.950 . S
H2498 C2504 0.949 . S
C2499 H2494 0.950 . S
C2499 C2501 1.327 . S
C2499 C2505 1.429 . S
C2500 C2492 1.574 . S
C2500 H2495 0.949 . S
C2500 C2506 1.368 . S
C2501 C2485 1.349 . S
C2501 H2493 0.950 . S
C2501 C2499 1.327 . S
C2502 C2490 1.349 . S
C2502 H2496 0.950 . S
C2502 C2503 1.327 . S
C2503 H2497 0.950 . S
C2503 C2502 1.327 . S
C2503 C2507 1.429 . S
C2504 C2487 1.574 . S
C2504 H2498 0.949 . S
C2504 C2508 1.368 . S
C2505 C2486 1.429 . S
C2505 C2499 1.429 . S
C2505 C2506 1.523 . S
C2506 C2487 1.368 . S
C2506 C2500 1.368 . S
C2506 C2505 1.523 . S
C2507 C2491 1.429 . S
C2507 C2503 1.429 . S
C2507 C2508 1.523 . S
C2508 C2492 1.368 . S
C2508 C2504 1.368 . S
C2508 C2507 1.523 . S
H2509 C2484 0.950 . S
H2510 C2486 0.950 . S
H2511 C2487 0.949 . S
H2512 C2489 0.950 . S
H2513 C2491 0.950 . S
C2514 C2515 1.349 . S
C2514 C2516 1.327 . S
C2514 H2539 0.950 . S
C2515 C2514 1.349 . S
C2515 C2531 1.349 . S
C2516 C2514 1.327 . S
C2516 C2535 1.429 . S
C2516 H2540 0.950 . S
C2517 C2534 1.574 . S
C2517 C2536 1.368 . S
C2517 H2541 0.949 . S
H2518 C2522 0.949 . S
C2519 C2520 1.349 . S
C2519 C2521 1.327 . S
C2519 H2542 0.950 . S
C2520 C2519 1.349 . S
C2520 C2532 1.349 . S
C2521 C2519 1.327 . S
C2521 C2537 1.429 . S
C2521 H2543 0.950 . S
C2522 H2518 0.949 . S
C2522 C2530 1.574 . S
C2522 C2538 1.368 . S
H2523 C2531 0.950 . S
H2524 C2529 0.950 . S
H2525 C2530 0.949 . S
H2526 C2532 0.950 . S
H2527 C2533 0.950 . S
H2528 C2534 0.949 . S
C2529 H2524 0.950 . S
C2529 C2531 1.327 . S
C2529 C2535 1.429 . S
C2530 C2522 1.574 . S
C2530 H2525 0.949 . S
C2530 C2536 1.368 . S
C2531 C2515 1.349 . S
C2531 H2523 0.950 . S
C2531 C2529 1.327 . S
C2532 C2520 1.349 . S
C2532 H2526 0.950 . S
C2532 C2533 1.327 . S
C2533 H2527 0.950 . S
C2533 C2532 1.327 . S
C2533 C2537 1.429 . S
C2534 C2517 1.574 . S
C2534 H2528 0.949 . S
C2534 C2538 1.368 . S
C2535 C2516 1.429 . S
C2535 C2529 1.429 . S
C2535 C2536 1.523 . S
C2536 C2517 1.368 . S
C2536 C2530 1.368 . S
C2536 C2535 1.523 . S
C2537 C2521 1.429 . S
C2537 C2533 1.429 . S
C2537 C2538 1.523 . S
C2538 C2522 1.368 . S
C2538 C2534 1.368 . S
C2538 C2537 1.523 . S
H2539 C2514 0.950 . S
H2540 C2516 0.950 . S
H2541 C2517 0.949 . S
H2542 C2519 0.950 . S
H2543 C2521 0.950 . S
C2544 C2545 1.349 . S
C2544 C2546 1.327 . S
C2544 H2569 0.950 . S
C2545 C2544 1.349 . S
C2545 C2561 1.349 . S
C2546 C2544 1.327 . S
C2546 C2565 1.429 . S
C2546 H2570 0.950 . S
C2547 C2564 1.574 . S
C2547 C2566 1.368 . S
C2547 H2571 0.949 . S
H2548 C2552 0.949 . S
C2549 C2550 1.349 . S
C2549 C2551 1.327 . S
C2549 H2572 0.950 . S
C2550 C2549 1.349 . S
C2550 C2562 1.349 . S
C2551 C2549 1.327 . S
C2551 C2567 1.429 . S
C2551 H2573 0.950 . S
C2552 H2548 0.949 . S
C2552 C2560 1.574 . S
C2552 C2568 1.368 . S
H2553 C2561 0.950 . S
H2554 C2559 0.950 . S
H2555 C2560 0.949 . S
H2556 C2562 0.950 . S
H2557 C2563 0.950 . S
H2558 C2564 0.949 . S
C2559 H2554 0.950 . S
C2559 C2561 1.327 . S
C2559 C2565 1.429 . S
C2560 C2552 1.574 . S
C2560 H2555 0.949 . S
C2560 C2566 1.368 . S
C2561 C2545 1.349 . S
C2561 H2553 0.950 . S
C2561 C2559 1.327 . S
C2562 C2550 1.349 . S
C2562 H2556 0.950 . S
C2562 C2563 1.327 . S
C2563 H2557 0.950 . S
C2563 C2562 1.327 . S
C2563 C2567 1.429 . S
C2564 C2547 1.574 . S
C2564 H2558 0.949 . S
C2564 C2568 1.368 . S
C2565 C2546 1.429 . S
C2565 C2559 1.429 . S
C2565 C2566 1.523 . S
C2566 C2547 1.368 . S
C2566 C2560 1.368 . S
C2566 C2565 1.523 . S
C2567 C2551 1.429 . S
C2567 C2563 1.429 . S
C2567 C2568 1.523 . S
C2568 C2552 1.368 . S
C2568 C2564 1.368 . S
C2568 C2567 1.523 . S
H2569 C2544 0.950 . S
H2570 C2546 0.950 . S
H2571 C2547 0.949 . S
H2572 C2549 0.950 . S
H2573 C2551 0.950 . S
C955 C147 1.432 . S
C960 C254 1.374 . S
C985 C158 1.459 . S
C990 C338 1.404 . S
C1015 C136 1.427 . S
C1020 C432 1.419 . S
C1045 C125 1.404 . S
C1050 C348 1.397 1_556 S
C1080 C422 1.353 . S
C1075 C103 1.410 . S
C1105 C114 1.379 . S
C1110 C264 1.371 1_556 S
C1140 C265 1.430 . S
C1135 C131 1.491 . S
C1170 C349 1.457 . S
C1165 C109 1.516 . S
C1195 C120 1.508 . S
C1200 C441 1.461 1_556 S
C1225 C153 1.477 . S
C1230 C357 1.444 . S
C1255 C164 1.461 . S
C1260 C433 1.399 . S
C1290 C273 1.421 . S
C1285 C142 1.453 . S
C1320 C506 1.374 . S
C1315 C15 1.432 . S
C1345 C26 1.459 . S
C1350 C590 1.404 . S
C1375 C4 1.427 . S
C1380 C684 1.419 . S
C1405 C191 1.404 . S
C1410 C600 1.397 . S
C1435 C169 1.410 . S
C1440 C674 1.352 . S
C1465 C180 1.379 . S
C1470 C516 1.371 . S
C1495 C197 1.491 . S
C1500 C517 1.429 . S
C1525 C175 1.517 . S
C1530 C601 1.457 . S
C1560 C693 1.476 . S
C1555 C186 1.509 . S
C1585 C21 1.476 . S
C1590 C609 1.444 . S
C1620 C685 1.399 . S
C1615 C32 1.462 . S
C1645 C10 1.453 . S
C1650 C525 1.420 . S
C1680 C758 1.374 . S
C1675 C81 1.432 . S
C1705 C92 1.459 . S
C1710 C842 1.404 . S
C1740 C936 1.419 . S
C1735 C70 1.427 . S
C1770 C852 1.397 . S
C1765 C59 1.404 . S
C1800 C926 1.352 . S
C1795 C37 1.410 . S
C1825 C48 1.379 . S
C1830 C768 1.371 . S
C1855 C65 1.491 . S
C1860 C769 1.429 . S
C1885 C43 1.516 . S
C1890 C853 1.457 . S
C1920 C945 1.476 . S
C1915 C54 1.509 . S
C1945 C87 1.476 . S
C1950 C861 1.444 . S
C1975 C98 1.462 . S
C1980 C937 1.400 . S
C2005 C76 1.453 . S
C2010 C777 1.421 . S
C2035 C170 1.547 . S
C2040 C261 1.423 . S
C2070 C345 1.476 . S
C2065 C181 1.621 . S
C2095 C192 1.562 . S
C2100 C438 1.386 . S
C2125 C71 1.593 . S
C2130 C354 1.406 . S
C2155 C82 1.577 . S
C2160 C429 1.440 . S
C2190 C270 1.357 . S
C2185 C93 1.520 . S
C2215 C38 1.547 . S
C2220 C513 1.423 . S
C2245 C49 1.621 . S
C2250 C597 1.476 . S
C2275 C60 1.562 . S
C2280 C690 1.386 . S
C2305 C137 1.593 . S
C2310 C606 1.406 . S
C2340 C681 1.440 . S
C2335 C148 1.577 . S
C2365 C159 1.520 . S
C2370 C522 1.357 . S
C2395 C104 1.547 . S
C2400 C765 1.424 . S
C2425 C115 1.621 . S
C2430 C849 1.476 . S
C2460 C942 1.386 . S
C2455 C126 1.562 . S
C2485 C5 1.593 . S
C2490 C858 1.407 . S
C2515 C16 1.577 . S
C2520 C933 1.440 . S
C2545 C27 1.520 . S
C2550 C774 1.357 . S
