# Generated by pormake.
# Topology cml, (3,6)-cn, num edge types: 1
# Building blocks:
#     Node 0, Type 0, BuildingBlock: BETDAH_clean_linker_0, # of connection points: 3
#     Node 1, Type 0, BuildingBlock: BETDAH_clean_linker_0, # of connection points: 3
#     Node 2, Type 0, BuildingBlock: BETDAH_clean_linker_0, # of connection points: 3
#     Node 3, Type 0, BuildingBlock: BETDAH_clean_linker_0, # of connection points: 3
#     Node 4, Type 0, BuildingBlock: BETDAH_clean_linker_0, # of connection points: 3
#     Node 5, Type 0, BuildingBlock: BETDAH_clean_linker_0, # of connection points: 3
#     Node 6, Type 0, BuildingBlock: BETDAH_clean_linker_0, # of connection points: 3
#     Node 7, Type 0, BuildingBlock: BETDAH_clean_linker_0, # of connection points: 3
#     Node 8, Type 1, BuildingBlock: OJICUG_clean_sbu_0, # of connection points: 6
#     Node 9, Type 1, BuildingBlock: OJICUG_clean_sbu_0, # of connection points: 6
#     Node 10, Type 1, BuildingBlock: OJICUG_clean_sbu_0, # of connection points: 6
#     Node 11, Type 1, BuildingBlock: OJICUG_clean_sbu_0, # of connection points: 6
#     Edge 12, Type (0, 1), BuildingBlock: TEMPAE_clean_linker_10, # of connection points: 2
#     Edge 13, Type (0, 1), BuildingBlock: TEMPAE_clean_linker_10, # of connection points: 2
#     Edge 14, Type (0, 1), BuildingBlock: TEMPAE_clean_linker_10, # of connection points: 2
#     Edge 15, Type (0, 1), BuildingBlock: TEMPAE_clean_linker_10, # of connection points: 2
#     Edge 16, Type (0, 1), BuildingBlock: TEMPAE_clean_linker_10, # of connection points: 2
#     Edge 17, Type (0, 1), BuildingBlock: TEMPAE_clean_linker_10, # of connection points: 2
#     Edge 18, Type (0, 1), BuildingBlock: TEMPAE_clean_linker_10, # of connection points: 2
#     Edge 19, Type (0, 1), BuildingBlock: TEMPAE_clean_linker_10, # of connection points: 2
#     Edge 20, Type (0, 1), BuildingBlock: TEMPAE_clean_linker_10, # of connection points: 2
#     Edge 21, Type (0, 1), BuildingBlock: TEMPAE_clean_linker_10, # of connection points: 2
#     Edge 22, Type (0, 1), BuildingBlock: TEMPAE_clean_linker_10, # of connection points: 2
#     Edge 23, Type (0, 1), BuildingBlock: TEMPAE_clean_linker_10, # of connection points: 2
#     Edge 24, Type (0, 1), BuildingBlock: TEMPAE_clean_linker_10, # of connection points: 2
#     Edge 25, Type (0, 1), BuildingBlock: TEMPAE_clean_linker_10, # of connection points: 2
#     Edge 26, Type (0, 1), BuildingBlock: TEMPAE_clean_linker_10, # of connection points: 2
#     Edge 27, Type (0, 1), BuildingBlock: TEMPAE_clean_linker_10, # of connection points: 2
#     Edge 28, Type (0, 1), BuildingBlock: TEMPAE_clean_linker_10, # of connection points: 2
#     Edge 29, Type (0, 1), BuildingBlock: TEMPAE_clean_linker_10, # of connection points: 2
#     Edge 30, Type (0, 1), BuildingBlock: TEMPAE_clean_linker_10, # of connection points: 2
#     Edge 31, Type (0, 1), BuildingBlock: TEMPAE_clean_linker_10, # of connection points: 2
#     Edge 32, Type (0, 1), BuildingBlock: TEMPAE_clean_linker_10, # of connection points: 2
#     Edge 33, Type (0, 1), BuildingBlock: TEMPAE_clean_linker_10, # of connection points: 2
#     Edge 34, Type (0, 1), BuildingBlock: TEMPAE_clean_linker_10, # of connection points: 2
#     Edge 35, Type (0, 1), BuildingBlock: TEMPAE_clean_linker_10, # of connection points: 2
# Relax obj value: 0.007
# Max RMSD: 0.051
# Mean RMSD: 0.043
data_MOF--net-cml--node1-OJICUG_clean_sbu_0--node2-BETDAH_clean_linker_0--edge1-TEMPAE_clean_linker_10
_symmetry_space_group_name_H-M    P1
_symmetry_Int_Tables_number       1
_symmetry_cell_setting            triclinic
loop_
_symmetry_equiv_pos_as_xyz
'x, y, z'
_cell_length_a     41.002703
_cell_length_b     39.980779
_cell_length_c     35.597025
_cell_angle_alpha  89.348439
_cell_angle_beta   90.836286
_cell_angle_gamma 90.69757
loop_
_atom_site_label
_atom_site_type_symbol
_atom_site_fract_x
_atom_site_fract_y
_atom_site_fract_z
_atom_type_partial_charge
H0 H 0.35367 0.41567 0.01147 0.0
H1 H 0.26734 0.44465 0.94998 0.0
H2 H 0.26338 0.3619 0.0279 0.0
C3 C 0.32822 0.41146 0.00408 0.0
C4 C 0.31062 0.38578 0.02231 0.0
C5 C 0.31305 0.43279 0.97776 0.0
C6 C 0.27958 0.42856 0.97028 0.0
C7 C 0.26171 0.40298 0.98786 0.0
C8 C 0.27725 0.38145 0.01385 0.0
N9 N 0.22796 0.40015 0.9793 0.0
C10 C 0.21051 0.37026 0.9811 0.0
H11 H 0.65404 0.58209 0.50878 0.0
H12 H 0.73504 0.57348 0.43439 0.0
H13 H 0.73592 0.65009 0.51807 0.0
C14 C 0.67736 0.5912 0.49869 0.0
C15 C 0.69275 0.61852 0.51649 0.0
C16 C 0.69225 0.5747 0.46899 0.0
C17 C 0.72319 0.58562 0.45749 0.0
C18 C 0.73901 0.61261 0.47488 0.0
C19 C 0.72377 0.6292 0.50444 0.0
N20 N 0.77045 0.62173 0.46194 0.0
C21 C 0.78729 0.651 0.47069 0.0
H22 H 0.65828 0.40771 0.00546 0.0
H23 H 0.74635 0.44185 0.95213 0.0
H24 H 0.74763 0.35412 0.02268 0.0
C25 C 0.68395 0.40482 -0.0002 0.0
C26 C 0.70105 0.37851 0.01741 0.0
C27 C 0.69978 0.42795 0.97599 0.0
C28 C 0.73323 0.42398 0.96953 0.0
C29 C 0.75031 0.39705 0.98534 0.0
C30 C 0.73423 0.37437 0.00945 0.0
N31 N 0.78394 0.39427 0.97734 0.0
C32 C 0.80093 0.36445 0.97909 0.0
H33 H 0.37047 0.58465 0.50219 0.0
H34 H 0.29404 0.65744 0.49648 0.0
H35 H 0.29857 0.58056 0.41329 0.0
C36 C 0.34921 0.59498 0.48804 0.0
C37 C 0.33665 0.5793 0.4558 0.0
C38 C 0.33418 0.62329 0.50283 0.0
C39 C 0.30574 0.63562 0.48529 0.0
C40 C 0.29286 0.61996 0.45299 0.0
C41 C 0.30841 0.59204 0.43853 0.0
N42 N 0.2645 0.63147 0.43388 0.0
C43 C 0.24632 0.65885 0.44417 0.0
H44 H 0.83882 0.90695 0.04829 0.0
H45 H 0.74839 0.92033 0.9876 0.0
H46 H 0.7489 0.87174 0.09602 0.0
C47 C 0.81271 0.90271 0.04578 0.0
C48 C 0.79621 0.88674 0.07532 0.0
C49 C 0.79582 0.91508 0.01411 0.0
C50 C 0.7618 0.91085 0.01184 0.0
C51 C 0.74496 0.89521 0.04151 0.0
C52 C 0.76213 0.88374 0.07333 0.0
N53 N 0.71065 0.89127 0.04023 0.0
C54 C 0.6944 0.87992 0.00833 0.0
H55 H 0.17179 0.09354 0.54231 0.0
H56 H 0.26342 0.094 0.48554 0.0
H57 H 0.25901 0.12729 0.59975 0.0
C58 C 0.19775 0.09892 0.54249 0.0
C59 C 0.21288 0.11135 0.57518 0.0
C60 C 0.21579 0.0919 0.5104 0.0
C61 C 0.2493 0.09942 0.51019 0.0
C62 C 0.26467 0.11297 0.54229 0.0
C63 C 0.24658 0.1181 0.57479 0.0
N64 N 0.29849 0.1207 0.54314 0.0
C65 C 0.31565 0.13048 0.51145 0.0
H66 H 0.17306 0.90525 0.04414 0.0
H67 H 0.26189 0.91399 0.98177 0.0
H68 H 0.2612 0.86211 0.08835 0.0
C69 C 0.19855 0.89915 0.04081 0.0
C70 C 0.21469 0.88117 0.06936 0.0
C71 C 0.21521 0.91124 0.00922 0.0
C72 C 0.24863 0.90455 0.00584 0.0
C73 C 0.26511 0.88661 0.03443 0.0
C74 C 0.24822 0.87558 0.0663 0.0
N75 N 0.29903 0.88076 0.03286 0.0
C76 C 0.31438 0.87004 0.00072 0.0
H77 H 0.84141 0.0869 0.54317 0.0
H78 H 0.7505 0.11929 0.58799 0.0
H79 H 0.75229 0.07255 0.47983 0.0
C80 C 0.81537 0.09061 0.53984 0.0
C81 C 0.79917 0.07841 0.50773 0.0
C82 C 0.79824 0.10569 0.5688 0.0
C83 C 0.76421 0.10804 0.56572 0.0
C84 C 0.74773 0.09679 0.53342 0.0
C85 C 0.7652 0.08198 0.50437 0.0
N86 N 0.71342 0.09967 0.53131 0.0
C87 C 0.69755 0.11239 0.49968 0.0
Sc88 Sc 0.00986 0.8238 0.334 0.0
Sc89 Sc 0.01109 0.9116 0.32741 0.0
Sc90 Sc 0.01348 0.87195 0.41651 0.0
O91 O 0.01149 0.86912 0.35936 0.0
C92 C 0.9633 0.81107 0.40401 0.0
C93 C 0.96019 0.86536 0.28273 0.0
C94 C 0.96374 0.93018 0.39422 0.0
C95 C 0.05816 0.86518 0.28084 0.0
C96 C 0.06139 0.81147 0.40091 0.0
C97 C 0.06192 0.93145 0.39225 0.0
O98 O 0.97318 0.80472 0.37121 0.0
O99 O 0.97254 0.89355 0.29142 0.0
O100 O 0.97568 0.90908 0.4175 0.0
O101 O 0.04676 0.83781 0.29399 0.0
O102 O 0.05168 0.83517 0.42139 0.0
O103 O 0.04981 0.93478 0.35942 0.0
O104 O 0.0483 0.80465 0.36929 0.0
O105 O 0.04765 0.89359 0.29033 0.0
O106 O 0.05123 0.91006 0.41593 0.0
O107 O 0.97089 0.83786 0.2959 0.0
O108 O 0.97566 0.83433 0.42395 0.0
O109 O 0.97419 0.93397 0.36098 0.0
Sc110 Sc 0.00402 0.17678 0.83313 0.0
Sc111 Sc 0.00679 0.08905 0.83094 0.0
Sc112 Sc 0.00608 0.13002 0.91803 0.0
O113 O 0.0056 0.13199 0.86078 0.0
C114 C 0.05349 0.19232 0.90103 0.0
C115 C 0.05447 0.13613 0.78422 0.0
C116 C 0.05607 0.0723 0.89861 0.0
C117 C 0.95643 0.13283 0.78221 0.0
C118 C 0.95606 0.18922 0.90167 0.0
C119 C 0.95766 0.06953 0.89623 0.0
O120 O 0.04238 0.19746 0.86793 0.0
O121 O 0.04565 0.10755 0.79648 0.0
O122 O 0.0453 0.09427 0.92066 0.0
O123 O 0.96518 0.16082 0.79583 0.0
O124 O 0.96712 0.16574 0.92246 0.0
O125 O 0.96818 0.06641 0.86305 0.0
O126 O 0.96736 0.19591 0.86936 0.0
O127 O 0.9701 0.10552 0.79137 0.0
O128 O 0.96956 0.09064 0.91936 0.0
O129 O 0.04073 0.16315 0.79327 0.0
O130 O 0.04253 0.16927 0.92253 0.0
O131 O 0.04387 0.06727 0.86618 0.0
Sc132 Sc 0.50869 0.2842 0.28249 0.0
Sc133 Sc 0.51218 0.37262 0.28215 0.0
Sc134 Sc 0.51157 0.32879 0.36785 0.0
O135 O 0.51085 0.32846 0.3108 0.0
C136 C 0.46083 0.26937 0.35105 0.0
C137 C 0.46082 0.32997 0.23316 0.0
C138 C 0.46505 0.39043 0.34938 0.0
C139 C 0.55813 0.32758 0.23225 0.0
C140 C 0.5579 0.26718 0.35026 0.0
C141 C 0.56161 0.38837 0.34993 0.0
O142 O 0.47118 0.26314 0.31834 0.0
O143 O 0.4738 0.35718 0.24439 0.0
O144 O 0.47544 0.36736 0.37116 0.0
O145 O 0.54609 0.29965 0.24312 0.0
O146 O 0.54771 0.29035 0.37112 0.0
O147 O 0.5507 0.39353 0.31678 0.0
O148 O 0.54642 0.26197 0.31738 0.0
O149 O 0.54852 0.35542 0.24458 0.0
O150 O 0.55021 0.36556 0.37133 0.0
O151 O 0.47046 0.3014 0.24456 0.0
O152 O 0.47291 0.29244 0.37136 0.0
O153 O 0.47581 0.39501 0.3164 0.0
Sc154 Sc 0.50889 0.70976 0.78734 0.0
Sc155 Sc 0.5059 0.62134 0.78982 0.0
Sc156 Sc 0.51134 0.66572 0.87397 0.0
O157 O 0.50873 0.66568 0.81699 0.0
C158 C 0.55957 0.72638 0.85357 0.0
C159 C 0.55549 0.66355 0.73895 0.0
C160 C 0.55629 0.60397 0.85663 0.0
C161 C 0.45834 0.66635 0.73881 0.0
C162 C 0.46254 0.72592 0.8563 0.0
C163 C 0.45966 0.60645 0.85873 0.0
O164 O 0.54804 0.73143 0.82068 0.0
O165 O 0.54416 0.63615 0.75222 0.0
O166 O 0.54934 0.62895 0.87662 0.0
O167 O 0.46967 0.69433 0.74993 0.0
O168 O 0.47384 0.70267 0.87726 0.0
O169 O 0.46725 0.6024 0.82461 0.0
O170 O 0.47283 0.73174 0.82321 0.0
O171 O 0.46936 0.63859 0.75072 0.0
O172 O 0.47417 0.62747 0.8799 0.0
O173 O 0.545 0.69207 0.74854 0.0
O174 O 0.54865 0.70367 0.87537 0.0
O175 O 0.54192 0.59763 0.8256 0.0
C176 C 0.15724 0.34238 0.9854 0.0
C177 C 0.1905 0.34065 0.97792 0.0
C178 C 0.13619 0.31564 0.9765 0.0
C179 C 0.14893 0.28675 0.95961 0.0
C180 C 0.18296 0.28433 0.95394 0.0
C181 C 0.20342 0.31154 0.96308 0.0
C182 C 0.10009 0.31917 0.98301 0.0
C183 C 0.19745 0.25391 0.9362 0.0
C184 C 0.09245 0.21097 0.95203 0.0
C185 C 0.07954 0.21505 0.9155 0.0
C186 C 0.11574 0.2336 0.96656 0.0
C187 C 0.12625 0.26098 0.9441 0.0
C188 C 0.11395 0.26476 0.90695 0.0
C189 C 0.09085 0.24176 0.89311 0.0
C190 C 0.12853 0.22869 0.00619 0.0
C191 C 0.12458 0.29365 0.88207 0.0
H192 H 0.14748 0.36521 0.99671 0.0
H193 H 0.22927 0.31059 0.95718 0.0
H194 H 0.08704 0.32119 0.95556 0.0
H195 H 0.09029 0.29673 0.99779 0.0
H196 H 0.09458 0.34165 -0.00026 0.0
H197 H 0.22453 0.25415 0.93813 0.0
H198 H 0.18808 0.23069 0.94981 0.0
H199 H 0.19012 0.25303 0.90609 0.0
H200 H 0.08404 0.19035 0.96954 0.0
H201 H 0.08121 0.24516 0.86483 0.0
H202 H 0.12084 0.24978 0.02386 0.0
H203 H 0.15559 0.22867 0.00653 0.0
H204 H 0.11957 0.20494 0.01911 0.0
H205 H 0.11752 0.31763 0.89487 0.0
H206 H 0.11354 0.29235 0.85343 0.0
H207 H 0.15151 0.29404 0.87954 0.0
C208 C 0.84036 0.6752 0.48821 0.0
C209 C 0.80904 0.67943 0.47309 0.0
C210 C 0.86468 0.69968 0.48267 0.0
C211 C 0.85728 0.72881 0.46133 0.0
C212 C 0.82483 0.73422 0.44861 0.0
C213 C 0.80103 0.70923 0.45449 0.0
C214 C 0.8989 0.69293 0.49675 0.0
C215 C 0.81587 0.76502 0.426 0.0
C216 C 0.92145 0.79817 0.45341 0.0
C217 C 0.93614 0.79034 0.41925 0.0
C218 C 0.89555 0.77859 0.46752 0.0
C219 C 0.88423 0.75049 0.44708 0.0
C220 C 0.89896 0.74249 0.41265 0.0
C221 C 0.92459 0.76248 0.39918 0.0
C222 C 0.88027 0.78794 0.5042 0.0
C223 C 0.88772 0.71264 0.38998 0.0
H224 H 0.84641 0.65184 0.50231 0.0
H225 H 0.77671 0.71216 0.44258 0.0
H226 H 0.91441 0.68638 0.47269 0.0
H227 H 0.90976 0.71554 0.50993 0.0
H228 H 0.89958 0.67195 0.51749 0.0
H229 H 0.78903 0.76809 0.4236 0.0
H230 H 0.82674 0.78779 0.43885 0.0
H231 H 0.82578 0.76303 0.39728 0.0
H232 H 0.93006 0.81971 0.46908 0.0
H233 H 0.9357 0.75608 0.37281 0.0
H234 H 0.88255 0.76698 0.52472 0.0
H235 H 0.85384 0.79246 0.49982 0.0
H236 H 0.89172 0.81069 0.51658 0.0
H237 H 0.8903 0.6894 0.40705 0.0
H238 H 0.90178 0.70986 0.36378 0.0
H239 H 0.86153 0.71506 0.38231 0.0
C240 C 0.85452 0.33815 0.98204 0.0
C241 C 0.82086 0.3352 0.97627 0.0
C242 C 0.87516 0.31158 0.9737 0.0
C243 C 0.8616 0.28154 0.95915 0.0
C244 C 0.82728 0.27798 0.95523 0.0
C245 C 0.80724 0.30506 0.96372 0.0
C246 C 0.91157 0.31645 0.97825 0.0
C247 C 0.81189 0.24633 0.94004 0.0
C248 C 0.91655 0.23593 0.89267 0.0
C249 C 0.92982 0.21082 0.91595 0.0
C250 C 0.89364 0.25839 0.90618 0.0
C251 C 0.88355 0.25574 0.94396 0.0
C252 C 0.89587 0.22979 0.96732 0.0
C253 C 0.9189 0.20762 0.95306 0.0
C254 C 0.88104 0.28565 0.88026 0.0
C255 C 0.88546 0.22607 0.00766 0.0
H256 H 0.86485 0.36173 0.99158 0.0
H257 H 0.78107 0.30311 0.95916 0.0
H258 H 0.92236 0.29502 0.99387 0.0
H259 H 0.92295 0.31749 0.95015 0.0
H260 H 0.91796 0.33988 0.99331 0.0
H261 H 0.78499 0.24585 0.94342 0.0
H262 H 0.81726 0.24431 0.9097 0.0
H263 H 0.8223 0.22404 0.9544 0.0
H264 H 0.92451 0.23856 0.86388 0.0
H265 H 0.92887 0.18828 0.97129 0.0
H266 H 0.88866 0.31048 0.89118 0.0
H267 H 0.85399 0.28501 0.8792 0.0
H268 H 0.89019 0.28334 0.85119 0.0
H269 H 0.89437 0.24792 0.02396 0.0
H270 H 0.89509 0.20295 0.02116 0.0
H271 H 0.85846 0.2256 0.00932 0.0
C272 C 0.19543 0.68017 0.46939 0.0
C273 C 0.224 0.68584 0.4493 0.0
C274 C 0.17004 0.70339 0.46776 0.0
C275 C 0.17351 0.73263 0.44522 0.0
C276 C 0.20351 0.73949 0.42724 0.0
C277 C 0.22846 0.7158 0.42939 0.0
C278 C 0.13855 0.6952 0.48747 0.0
C279 C 0.20826 0.77038 0.40307 0.0
C280 C 0.09809 0.76273 0.39316 0.0
C281 C 0.08952 0.79101 0.41366 0.0
C282 C 0.12514 0.74353 0.40349 0.0
C283 C 0.14432 0.75273 0.43518 0.0
C284 C 0.13575 0.78097 0.45637 0.0
C285 C 0.10838 0.7998 0.44539 0.0
C286 C 0.13335 0.7135 0.38014 0.0
C287 C 0.15573 0.79149 0.49025 0.0
H288 H 0.19216 0.65672 0.48459 0.0
H289 H 0.25069 0.71986 0.41372 0.0
H290 H 0.12916 0.71754 0.50178 0.0
H291 H 0.11985 0.68729 0.46643 0.0
H292 H 0.14155 0.67468 0.5085 0.0
H293 H 0.23429 0.77463 0.39598 0.0
H294 H 0.19404 0.7676 0.3765 0.0
H295 H 0.19913 0.79283 0.41741 0.0
H296 H 0.0837 0.75553 0.36872 0.0
H297 H 0.10205 0.82164 0.46137 0.0
H298 H 0.13375 0.69062 0.39805 0.0
H299 H 0.15802 0.71679 0.36815 0.0
H300 H 0.11562 0.70947 0.35668 0.0
H301 H 0.15764 0.77041 0.51066 0.0
H302 H 0.14512 0.81328 0.50459 0.0
H303 H 0.18089 0.79817 0.4816 0.0
C304 C 0.69444 0.84663 0.95085 0.0
C305 C 0.67718 0.86394 0.97788 0.0
C306 C 0.67791 0.82625 0.92475 0.0
C307 C 0.6435 0.82311 0.92631 0.0
C308 C 0.62601 0.84221 0.95241 0.0
C309 C 0.64317 0.86242 0.97803 0.0
C310 C 0.69737 0.80651 0.8972 0.0
C311 C 0.58933 0.83958 0.95498 0.0
C312 C 0.59115 0.7806 0.85155 0.0
C313 C 0.58498 0.74942 0.86874 0.0
C314 C 0.61156 0.80446 0.86902 0.0
C315 C 0.62604 0.79687 0.90438 0.0
C316 C 0.62147 0.76474 0.92069 0.0
C317 C 0.60106 0.74144 0.90267 0.0
C318 C 0.61618 0.83835 0.85063 0.0
C319 C 0.63671 0.75553 0.95826 0.0
H320 H 0.72089 0.8479 0.95115 0.0
H321 H 0.63008 0.87584 -0.00071 0.0
H322 H 0.69743 0.77978 0.90593 0.0
H323 H 0.68613 0.80794 0.8687 0.0
H324 H 0.72306 0.81553 0.8957 0.0
H325 H 0.57925 0.85849 0.97412 0.0
H326 H 0.57784 0.8428 0.9268 0.0
H327 H 0.58235 0.81432 0.96559 0.0
H328 H 0.57892 0.78697 0.82528 0.0
H329 H 0.59684 0.71727 0.91594 0.0
H330 H 0.64232 0.84584 0.85108 0.0
H331 H 0.60277 0.85735 0.86658 0.0
H332 H 0.60708 0.83876 0.82108 0.0
H333 H 0.66333 0.76075 0.95811 0.0
H334 H 0.63272 0.72874 0.96571 0.0
H335 H 0.62608 0.77101 0.98056 0.0
C336 C 0.31885 0.16208 0.45198 0.0
C337 C 0.33437 0.14425 0.48096 0.0
C338 C 0.33719 0.18006 0.42533 0.0
C339 C 0.37169 0.18024 0.42825 0.0
C340 C 0.38732 0.1606 0.45645 0.0
C341 C 0.36836 0.14284 0.4826 0.0
C342 C 0.31964 0.20048 0.39559 0.0
C343 C 0.42401 0.1601 0.46057 0.0
C344 C 0.42683 0.21653 0.35253 0.0
C345 C 0.43492 0.24787 0.36768 0.0
C346 C 0.40519 0.19456 0.3711 0.0
C347 C 0.39137 0.20426 0.40548 0.0
C348 C 0.39822 0.23648 0.41986 0.0
C349 C 0.41982 0.25783 0.40081 0.0
C350 C 0.39822 0.1605 0.35479 0.0
C351 C 0.38384 0.24794 0.45632 0.0
H352 H 0.29242 0.16308 0.45106 0.0
H353 H 0.38014 0.12902 0.50531 0.0
H354 H 0.32193 0.22742 0.40242 0.0
H355 H 0.33078 0.19696 0.36773 0.0
H356 H 0.29329 0.19381 0.39361 0.0
H357 H 0.43234 0.1409 0.48125 0.0
H358 H 0.43537 0.15513 0.43313 0.0
H359 H 0.43299 0.18496 0.47003 0.0
H360 H 0.43832 0.20861 0.32694 0.0
H361 H 0.42552 0.28215 0.41254 0.0
H362 H 0.37159 0.15522 0.35418 0.0
H363 H 0.40975 0.14104 0.37286 0.0
H364 H 0.40773 0.15823 0.32588 0.0
H365 H 0.3569 0.24513 0.4554 0.0
H366 H 0.39009 0.27445 0.46248 0.0
H367 H 0.39304 0.23209 0.47988 0.0
C368 C 0.36657 0.86084 0.97014 0.0
C369 C 0.33297 0.85493 0.97153 0.0
C370 C 0.38624 0.84189 0.94671 0.0
C371 C 0.37178 0.81643 0.92439 0.0
C372 C 0.33744 0.81184 0.92418 0.0
C373 C 0.31838 0.83113 0.94804 0.0
C374 C 0.42271 0.84759 0.94783 0.0
C375 C 0.32107 0.78514 0.90065 0.0
C376 C 0.42586 0.776 0.85203 0.0
C377 C 0.4373 0.74793 0.87211 0.0
C378 C 0.40375 0.79812 0.86818 0.0
C379 C 0.39293 0.79207 0.90526 0.0
C380 C 0.40363 0.76331 0.92519 0.0
C381 C 0.42555 0.74163 0.9084 0.0
C382 C 0.39267 0.8284 0.84599 0.0
C383 C 0.39265 0.75588 0.9648 0.0
H384 H 0.37768 0.8792 0.98871 0.0
H385 H 0.2923 0.82656 0.94953 0.0
H386 H 0.43465 0.8259 0.96178 0.0
H387 H 0.43237 0.84961 0.91893 0.0
H388 H 0.42971 0.87058 0.96338 0.0
H389 H 0.29414 0.7879 0.89956 0.0
H390 H 0.33044 0.78591 0.87157 0.0
H391 H 0.32675 0.76014 0.91271 0.0
H392 H 0.43464 0.78111 0.82396 0.0
H393 H 0.43397 0.71998 0.92419 0.0
H394 H 0.40215 0.85146 0.85959 0.0
H395 H 0.36566 0.82976 0.84572 0.0
H396 H 0.40122 0.82815 0.81653 0.0
H397 H 0.40105 0.77621 0.98371 0.0
H398 H 0.40226 0.7318 0.97591 0.0
H399 H 0.36563 0.7549 0.96579 0.0
C400 C 0.64572 0.12727 0.46934 0.0
C401 C 0.67972 0.12937 0.47022 0.0
C402 C 0.62748 0.1479 0.44505 0.0
C403 C 0.64387 0.17114 0.42135 0.0
C404 C 0.67842 0.17188 0.42079 0.0
C405 C 0.69602 0.15098 0.44551 0.0
C406 C 0.59071 0.14632 0.44653 0.0
C407 C 0.69675 0.19611 0.3958 0.0
C408 C 0.59122 0.21485 0.3474 0.0
C409 C 0.58278 0.24414 0.36621 0.0
C410 C 0.61214 0.1913 0.36434 0.0
C411 C 0.62482 0.19719 0.40089 0.0
C412 C 0.61752 0.22732 0.4193 0.0
C413 C 0.59669 0.25039 0.40175 0.0
C414 C 0.61964 0.15958 0.34374 0.0
C415 C 0.63066 0.23464 0.45828 0.0
H416 H 0.63333 0.11055 0.48882 0.0
H417 H 0.72245 0.15252 0.44661 0.0
H418 H 0.58153 0.16965 0.45901 0.0
H419 H 0.58007 0.14448 0.41779 0.0
H420 H 0.58181 0.12472 0.46358 0.0
H421 H 0.72316 0.19036 0.3948 0.0
H422 H 0.68649 0.19578 0.36679 0.0
H423 H 0.6941 0.22188 0.40651 0.0
H424 H 0.58074 0.20978 0.31989 0.0
H425 H 0.59065 0.27303 0.41646 0.0
H426 H 0.60792 0.13794 0.3582 0.0
H427 H 0.64631 0.15515 0.34405 0.0
H428 H 0.61075 0.16033 0.31412 0.0
H429 H 0.62078 0.21597 0.47856 0.0
H430 H 0.62412 0.26002 0.46784 0.0
H431 H 0.6576 0.23252 0.45903 0.0
C432 C 0.31915 0.49138 0.9522 0.0
C433 C 0.33226 0.45948 0.95842 0.0
C434 C 0.33748 0.51688 0.93473 0.0
C435 C 0.36979 0.51043 0.92368 0.0
C436 C 0.38305 0.47824 0.92954 0.0
C437 C 0.36406 0.45313 0.94657 0.0
C438 C 0.32247 0.55084 0.92862 0.0
C439 C 0.4175 0.47043 0.9183 0.0
C440 C 0.41391 0.56468 0.85203 0.0
C441 C 0.43427 0.58429 0.8752 0.0
C442 C 0.39178 0.54145 0.86746 0.0
C443 C 0.39027 0.53747 0.90695 0.0
C444 C 0.40997 0.5579 0.93051 0.0
C445 C 0.43158 0.58121 0.91436 0.0
C446 C 0.37077 0.52044 0.84148 0.0
C447 C 0.40925 0.55418 0.97276 0.0
H448 H 0.29475 0.49665 0.96163 0.0
H449 H 0.37416 0.42839 0.95058 0.0
H450 H 0.33617 0.56983 0.9452 0.0
H451 H 0.32412 0.5584 0.89861 0.0
H452 H 0.29647 0.55126 0.93693 0.0
H453 H 0.42408 0.44408 0.92468 0.0
H454 H 0.42051 0.47512 0.88776 0.0
H455 H 0.43497 0.48716 0.9333 0.0
H456 H 0.41559 0.56709 0.82176 0.0
H457 H 0.44722 0.59617 0.93253 0.0
H458 H 0.34482 0.52164 0.84973 0.0
H459 H 0.37814 0.49388 0.84379 0.0
H460 H 0.37279 0.5286 0.81166 0.0
H461 H 0.3839 0.55623 0.98287 0.0
H462 H 0.42469 0.57328 0.98715 0.0
H463 H 0.41807 0.529 0.98113 0.0
C464 C 0.69309 0.51792 0.43936 0.0
C465 C 0.67551 0.54609 0.45011 0.0
C466 C 0.67746 0.49079 0.42165 0.0
C467 C 0.64338 0.49166 0.41495 0.0
C468 C 0.6255 0.52001 0.42563 0.0
C469 C 0.6418 0.54693 0.44284 0.0
C470 C 0.69734 0.46107 0.41042 0.0
C471 C 0.58907 0.52182 0.41913 0.0
C472 C 0.60067 0.43675 0.34271 0.0
C473 C 0.58632 0.412 0.36562 0.0
C474 C 0.62058 0.46203 0.35819 0.0
C475 C 0.62607 0.46273 0.39753 0.0
C476 C 0.61296 0.43698 0.42058 0.0
C477 C 0.5934 0.41185 0.40434 0.0
C478 C 0.63457 0.48881 0.33264 0.0
C479 C 0.61817 0.43692 0.46268 0.0
H480 H 0.71905 0.51682 0.44529 0.0
H481 H 0.6281 0.56881 0.4504 0.0
H482 H 0.68899 0.43841 0.42595 0.0
H483 H 0.69371 0.4561 0.38003 0.0
H484 H 0.72382 0.46488 0.41616 0.0
H485 H 0.57876 0.54562 0.42917 0.0
H486 H 0.58326 0.51941 0.38874 0.0
H487 H 0.57674 0.5007 0.43388 0.0
H488 H 0.5956 0.43699 0.31274 0.0
H489 H 0.58253 0.39288 0.42237 0.0
H490 H 0.66109 0.49214 0.33826 0.0
H491 H 0.62279 0.51304 0.3383 0.0
H492 H 0.63079 0.48287 0.30247 0.0
H493 H 0.64452 0.43936 0.46975 0.0
H494 H 0.60846 0.4138 0.47628 0.0
H495 H 0.60582 0.45876 0.47483 0.0
C496 C 0.65585 0.47144 0.97737 0.0
C497 C 0.68138 0.45622 0.95823 0.0
C498 C 0.63691 0.49644 0.96016 0.0
C499 C 0.64436 0.50754 0.92335 0.0
C500 C 0.67094 0.49348 0.90443 0.0
C501 C 0.68877 0.46766 0.92181 0.0
C502 C 0.60835 0.51032 0.98104 0.0
C503 C 0.68018 0.50528 0.86552 0.0
C504 C 0.57568 0.54554 0.86506 0.0
C505 C 0.58038 0.5798 0.87144 0.0
C506 C 0.59648 0.5218 0.88159 0.0
C507 C 0.62325 0.53265 0.90408 0.0
C508 C 0.62888 0.56733 0.9094 0.0
C509 C 0.607 0.5905 0.89354 0.0
C510 C 0.58907 0.48506 0.8761 0.0
C511 C 0.65775 0.57989 0.93219 0.0
H512 H 0.65041 0.46373 0.00588 0.0
H513 H 0.70809 0.45599 0.90641 0.0
H514 H 0.61127 0.53776 0.98417 0.0
H515 H 0.58547 0.50584 0.96474 0.0
H516 H 0.60568 0.49883 0.00941 0.0
H517 H 0.7034 0.49424 0.85621 0.0
H518 H 0.66063 0.49835 0.84511 0.0
H519 H 0.6827 0.53295 0.86473 0.0
H520 H 0.55488 0.53719 0.84833 0.0
H521 H 0.61076 0.61702 0.89831 0.0
H522 H 0.58451 0.47285 0.90372 0.0
H523 H 0.6103 0.47255 0.8637 0.0
H524 H 0.56742 0.48079 0.85756 0.0
H525 H 0.65517 0.57202 0.96198 0.0
H526 H 0.66021 0.60759 0.93098 0.0
H527 H 0.68057 0.56879 0.92185 0.0
C528 C 0.33522 0.52223 0.42703 0.0
C529 C 0.3533 0.54991 0.44002 0.0
C530 C 0.35078 0.49445 0.41192 0.0
C531 C 0.38522 0.49435 0.40985 0.0
C532 C 0.4036 0.52215 0.42303 0.0
C533 C 0.38742 0.5496 0.43785 0.0
C534 C 0.33042 0.46523 0.39813 0.0
C535 C 0.4404 0.52301 0.42124 0.0
C536 C 0.43251 0.41382 0.40191 0.0
C537 C 0.44127 0.41463 0.36392 0.0
C538 C 0.41318 0.43896 0.41698 0.0
C539 C 0.40228 0.46547 0.39349 0.0
C540 C 0.40968 0.46559 0.35479 0.0
C541 C 0.42908 0.4402 0.34048 0.0
C542 C 0.40569 0.43796 0.45839 0.0
C543 C 0.39828 0.49333 0.32879 0.0
H544 H 0.30887 0.52214 0.42905 0.0
H545 H 0.40151 0.57111 0.4473 0.0
H546 H 0.33501 0.46105 0.36792 0.0
H547 H 0.33748 0.44209 0.41352 0.0
H548 H 0.30389 0.46919 0.4018 0.0
H549 H 0.45108 0.54628 0.43327 0.0
H550 H 0.45064 0.50125 0.4368 0.0
H551 H 0.44817 0.5211 0.39163 0.0
H552 H 0.44166 0.39416 0.42029 0.0
H553 H 0.43543 0.44098 0.31103 0.0
H554 H 0.37916 0.44097 0.46273 0.0
H555 H 0.41838 0.45908 0.4726 0.0
H556 H 0.41353 0.41422 0.47211 0.0
H557 H 0.37161 0.49684 0.33136 0.0
H558 H 0.4038 0.48832 0.29893 0.0
H559 H 0.41041 0.51721 0.33686 0.0
C560 C 0.84468 0.92388 0.97403 0.0
C561 C 0.81408 0.93477 0.98561 0.0
C562 C 0.86584 0.94536 0.95447 0.0
C563 C 0.85596 0.9784 0.94589 0.0
C564 C 0.82395 0.98851 0.95443 0.0
C565 C 0.80335 0.96655 0.97437 0.0
C566 C 0.89972 0.93353 0.94578 0.0
C567 C 0.81232 0.02334 0.94512 0.0
C568 C 0.9239 0.0435 0.94695 0.0
C569 C 0.93058 0.04732 0.90861 0.0
C570 C 0.89924 0.0216 0.95927 0.0
C571 C 0.88048 0.00334 0.9326 0.0
C572 C 0.88641 0.00776 0.89381 0.0
C573 C 0.91156 0.02953 0.88227 0.0
C574 C 0.89384 0.01736 0.00097 0.0
C575 C 0.86656 0.9891 0.86459 0.0
H576 H 0.8528 0.89908 0.98214 0.0
H577 H 0.77975 0.97512 0.98334 0.0
H578 H 0.90596 0.9396 0.91625 0.0
H579 H 0.91775 0.94668 0.9641 0.0
H580 H 0.90231 0.90616 0.95043 0.0
H581 H 0.78546 0.02544 0.94783 0.0
H582 H 0.8242 0.04141 0.96457 0.0
H583 H 0.81918 0.03073 0.91613 0.0
H584 H 0.93846 0.05709 0.9675 0.0
H585 H 0.91631 0.03259 0.85254 0.0
H586 H 0.89841 0.99104 0.00957 0.0
H587 H 0.86814 0.02285 0.00768 0.0
H588 H 0.91003 0.03397 0.01797 0.0
H589 H 0.87106 0.96188 0.86737 0.0
H590 H 0.87257 0.99722 0.83553 0.0
H591 H 0.84014 0.99288 0.86905 0.0
C592 C 0.16823 0.08213 0.46727 0.0
C593 C 0.19958 0.07312 0.47957 0.0
C594 C 0.14844 0.0597 0.44703 0.0
C595 C 0.16052 0.02769 0.43852 0.0
C596 C 0.1934 0.01993 0.44723 0.0
C597 C 0.21258 0.04277 0.46783 0.0
C598 C 0.1136 0.0691 0.43808 0.0
C599 C 0.2074 0.98635 0.43789 0.0
C600 C 0.09703 0.95812 0.44182 0.0
C601 C 0.08892 0.95429 0.40371 0.0
C602 C 0.1209 0.98137 0.45332 0.0
C603 C 0.13741 0.00101 0.42602 0.0
C604 C 0.13031 0.99638 0.38742 0.0
C605 C 0.10596 0.97324 0.37672 0.0
C606 C 0.12766 0.98569 0.49484 0.0
C607 C 0.14781 0.01644 0.35754 0.0
H608 H 0.15834 0.10584 0.47587 0.0
H609 H 0.2368 0.03567 0.47733 0.0
H610 H 0.10697 0.06257 0.40873 0.0
H611 H 0.09699 0.05478 0.45682 0.0
H612 H 0.10933 0.09621 0.44205 0.0
H613 H 0.23447 0.9866 0.43986 0.0
H614 H 0.198 0.96718 0.45788 0.0
H615 H 0.19983 0.97863 0.40919 0.0
H616 H 0.08403 0.94363 0.46286 0.0
H617 H 0.10011 0.9702 0.34715 0.0
H618 H 0.12157 0.01152 0.50317 0.0
H619 H 0.15397 0.98209 0.50112 0.0
H620 H 0.11337 0.96782 0.51238 0.0
H621 H 0.14078 0.04308 0.35913 0.0
H622 H 0.14198 0.00736 0.3288 0.0
H623 H 0.17459 0.01537 0.36224 0.0
C624 C 0.16584 0.92428 0.97038 0.0
C625 C 0.19747 0.93322 0.98225 0.0
C626 C 0.1453 0.94768 0.95292 0.0
C627 C 0.15684 0.98077 0.94677 0.0
C628 C 0.18968 0.98918 0.95578 0.0
C629 C 0.20966 0.96526 0.97358 0.0
C630 C 0.11052 0.93758 0.94358 0.0
C631 C 0.20305 0.02402 0.94897 0.0
C632 C 0.10227 0.03437 0.88436 0.0
C633 C 0.08373 0.05114 0.91099 0.0
C634 C 0.12726 0.01257 0.8955 0.0
C635 C 0.13354 0.00699 0.93421 0.0
C636 C 0.11562 0.02463 0.96122 0.0
C637 C 0.09109 0.0467 0.94927 0.0
C638 C 0.14621 0.99473 0.86587 0.0
C639 C 0.12146 0.01917 0.00282 0.0
H640 H 0.15652 0.89937 0.97672 0.0
H641 H 0.23404 0.97232 0.98291 0.0
H642 H 0.09368 0.95108 0.96207 0.0
H643 H 0.10425 0.94463 0.91416 0.0
H644 H 0.10618 0.91027 0.94734 0.0
H645 H 0.23003 0.02513 0.95214 0.0
H646 H 0.19618 0.0331 0.9204 0.0
H647 H 0.19238 0.04139 0.9694 0.0
H648 H 0.09707 0.03805 0.85466 0.0
H649 H 0.07692 0.05958 0.96999 0.0
H650 H 0.13991 0.96767 0.86655 0.0
H651 H 0.1728 0.99709 0.87163 0.0
H652 H 0.14093 0.00464 0.83716 0.0
H653 H 0.11535 0.99288 0.01051 0.0
H654 H 0.1066 0.036 0.02014 0.0
H655 H 0.14759 0.02338 0.01 0.0
C656 C 0.84888 0.07139 0.46913 0.0
C657 C 0.81808 0.05949 0.48003 0.0
C658 C 0.87057 0.0507 0.45053 0.0
C659 C 0.86106 0.01742 0.44224 0.0
C660 C 0.82896 0.00623 0.45019 0.0
C661 C 0.80781 0.02743 0.46914 0.0
C662 C 0.90453 0.06368 0.44244 0.0
C663 C 0.81775 0.97109 0.44119 0.0
C664 C 0.91758 0.96905 0.37965 0.0
C665 C 0.93652 0.95145 0.4063 0.0
C666 C 0.89221 0.98985 0.39077 0.0
C667 C 0.88591 0.99347 0.42946 0.0
C668 C 0.9046 0.97541 0.45645 0.0
C669 C 0.92952 0.95448 0.44453 0.0
C670 C 0.87248 0.00832 0.36121 0.0
C671 C 0.8988 0.97882 0.49804 0.0
H672 H 0.85668 0.09638 0.47705 0.0
H673 H 0.78408 0.01807 0.47764 0.0
H674 H 0.92235 0.05077 0.46115 0.0
H675 H 0.91121 0.05828 0.41307 0.0
H676 H 0.90693 0.09106 0.44699 0.0
H677 H 0.7909 0.968 0.44363 0.0
H678 H 0.82492 0.96428 0.41236 0.0
H679 H 0.82967 0.95323 0.46096 0.0
H680 H 0.92256 0.96658 0.34999 0.0
H681 H 0.944 0.94102 0.46531 0.0
H682 H 0.87662 0.03566 0.364 0.0
H683 H 0.84606 0.00347 0.36526 0.0
H684 H 0.87892 0.00098 0.33226 0.0
H685 H 0.90313 0.00515 0.50653 0.0
H686 H 0.91493 0.96245 0.51533 0.0
H687 H 0.87306 0.97243 0.50447 0.0
C688 C 0.3131 0.36116 0.08736 0.0
C689 C 0.32721 0.36551 0.05196 0.0
C690 C 0.3315 0.34877 0.11797 0.0
C691 C 0.36472 0.34088 0.11297 0.0
C692 C 0.37805 0.34221 0.07651 0.0
C693 C 0.35906 0.35437 0.04642 0.0
C694 C 0.31619 0.34705 0.15625 0.0
C695 C 0.41331 0.33391 0.06983 0.0
C696 C 0.42524 0.36361 0.18997 0.0
C697 C 0.43425 0.33218 0.20444 0.0
C698 C 0.40201 0.36661 0.161 0.0
C699 C 0.387 0.33748 0.14611 0.0
C700 C 0.39492 0.30571 0.16141 0.0
C701 C 0.41862 0.30339 0.19031 0.0
C702 C 0.39437 0.40104 0.14546 0.0
C703 C 0.37905 0.27417 0.14659 0.0
H704 H 0.28847 0.36965 0.09182 0.0
H705 H 0.3698 0.357 0.01887 0.0
H706 H 0.32383 0.32415 0.17175 0.0
H707 H 0.32448 0.36892 0.17292 0.0
H708 H 0.28913 0.34735 0.15429 0.0
H709 H 0.41856 0.33157 0.03945 0.0
H710 H 0.4292 0.35403 0.08153 0.0
H711 H 0.41995 0.31023 0.08437 0.0
H712 H 0.43692 0.38609 0.20068 0.0
H713 H 0.42521 0.279 0.2014 0.0
H714 H 0.3678 0.40566 0.14687 0.0
H715 H 0.40128 0.40268 0.11546 0.0
H716 H 0.40749 0.42121 0.16094 0.0
H717 H 0.3522 0.27702 0.14456 0.0
H718 H 0.38461 0.25203 0.16459 0.0
H719 H 0.38786 0.26936 0.11785 0.0
C720 C 0.69343 0.64054 0.58232 0.0
C721 C 0.67641 0.6345 0.54856 0.0
C722 C 0.67686 0.65026 0.61467 0.0
C723 C 0.64252 0.6538 0.61313 0.0
C724 C 0.62564 0.65002 0.57844 0.0
C725 C 0.64281 0.64057 0.54659 0.0
C726 C 0.6958 0.65455 0.65099 0.0
C727 C 0.58906 0.65365 0.57546 0.0
C728 C 0.59143 0.63045 0.69742 0.0
C729 C 0.58069 0.66173 0.70942 0.0
C730 C 0.61258 0.62774 0.66708 0.0
C731 C 0.6236 0.65703 0.64825 0.0
C732 C 0.61423 0.68879 0.66125 0.0
C733 C 0.59278 0.69079 0.69162 0.0
C734 C 0.62194 0.59333 0.65412 0.0
C735 C 0.62583 0.72058 0.64219 0.0
H736 H 0.7194 0.63587 0.58405 0.0
H737 H 0.62966 0.6366 0.52033 0.0
H738 H 0.68785 0.67725 0.66581 0.0
H739 H 0.69101 0.63276 0.66977 0.0
H740 H 0.72249 0.65643 0.64631 0.0
H741 H 0.58009 0.65315 0.54587 0.0
H742 H 0.57704 0.63289 0.59117 0.0
H743 H 0.58141 0.6774 0.58829 0.0
H744 H 0.58255 0.60779 0.71102 0.0
H745 H 0.58487 0.71511 0.70075 0.0
H746 H 0.64885 0.59146 0.65251 0.0
H747 H 0.6118 0.58898 0.62549 0.0
H748 H 0.61281 0.57316 0.67309 0.0
H749 H 0.65259 0.72002 0.63806 0.0
H750 H 0.61987 0.74317 0.65852 0.0
H751 H 0.61413 0.7228 0.61399 0.0
C752 C 0.65194 0.34777 0.04176 0.0
C753 C 0.68458 0.35789 0.04676 0.0
C754 C 0.63351 0.33598 0.07215 0.0
C755 C 0.64822 0.33387 0.10832 0.0
C756 C 0.68206 0.34046 0.11265 0.0
C757 C 0.69985 0.3526 0.08182 0.0
C758 C 0.59754 0.32908 0.06616 0.0
C759 C 0.69886 0.33783 0.15055 0.0
C760 C 0.59345 0.35936 0.18741 0.0
C761 C 0.58317 0.32842 0.20244 0.0
C762 C 0.61504 0.36124 0.15738 0.0
C763 C 0.62718 0.33146 0.14199 0.0
C764 C 0.61797 0.30011 0.15775 0.0
C765 C 0.59586 0.29893 0.18768 0.0
C766 C 0.6241 0.39526 0.1414 0.0
C767 C 0.63084 0.26788 0.14246 0.0
H768 H 0.64022 0.351 0.01448 0.0
H769 H 0.72507 0.36028 0.086 0.0
H770 H 0.58998 0.30578 0.081 0.0
H771 H 0.5834 0.3499 0.07796 0.0
H772 H 0.59098 0.3268 0.0359 0.0
H773 H 0.7258 0.33696 0.14797 0.0
H774 H 0.69275 0.35995 0.16753 0.0
H775 H 0.6904 0.31522 0.1661 0.0
H776 H 0.58398 0.38237 0.1985 0.0
H777 H 0.58825 0.2749 0.19915 0.0
H778 H 0.61604 0.39704 0.11155 0.0
H779 H 0.65096 0.39884 0.1422 0.0
H780 H 0.6129 0.41601 0.157 0.0
H781 H 0.6203 0.26354 0.11403 0.0
H782 H 0.62466 0.24602 0.16065 0.0
H783 H 0.65773 0.26944 0.13957 0.0
C784 C 0.38229 0.6433 0.54039 0.0
C785 C 0.34839 0.63909 0.53699 0.0
C786 C 0.3969 0.65283 0.57447 0.0
C787 C 0.37708 0.6587 0.60589 0.0
C788 C 0.34268 0.65712 0.60185 0.0
C789 C 0.32868 0.64717 0.56739 0.0
C790 C 0.43368 0.65434 0.57746 0.0
C791 C 0.32074 0.66382 0.63451 0.0
C792 C 0.41979 0.63483 0.69685 0.0
C793 C 0.43309 0.6656 0.70848 0.0
C794 C 0.39986 0.63263 0.66468 0.0
C795 C 0.39275 0.66195 0.64364 0.0
C796 C 0.40405 0.69342 0.65664 0.0
C797 C 0.42422 0.69489 0.6889 0.0
C798 C 0.38823 0.59855 0.65189 0.0
C799 C 0.39646 0.72529 0.63533 0.0
H800 H 0.39756 0.63784 0.51666 0.0
H801 H 0.30245 0.64402 0.5649 0.0
H802 H 0.44188 0.67823 0.59022 0.0
H803 H 0.44241 0.63375 0.59606 0.0
H804 H 0.44542 0.65195 0.5497 0.0
H805 H 0.29505 0.66761 0.62522 0.0
H806 H 0.32138 0.64223 0.65434 0.0
H807 H 0.3293 0.68621 0.65012 0.0
H808 H 0.42602 0.61208 0.71202 0.0
H809 H 0.43409 0.71884 0.69777 0.0
H810 H 0.40039 0.59216 0.62531 0.0
H811 H 0.36157 0.59865 0.64614 0.0
H812 H 0.39356 0.57861 0.67302 0.0
H813 H 0.41132 0.72666 0.60955 0.0
H814 H 0.40194 0.74784 0.65235 0.0
H815 H 0.37042 0.7257 0.62641 0.0
C816 C 0.845 0.85905 0.10381 0.0
C817 C 0.81504 0.87488 0.10866 0.0
C818 C 0.86613 0.85316 0.13433 0.0
C819 C 0.85683 0.86291 0.17068 0.0
C820 C 0.82543 0.8762 0.17626 0.0
C821 C 0.8049 0.8822 0.14507 0.0
C822 C 0.89941 0.83897 0.12715 0.0
C823 C 0.81447 0.88634 0.21474 0.0
C824 C 0.9128 0.83615 0.25126 0.0
C825 C 0.93265 0.86477 0.25541 0.0
C826 C 0.88715 0.83544 0.22467 0.0
C827 C 0.88168 0.8638 0.20138 0.0
C828 C 0.90133 0.89287 0.20583 0.0
C829 C 0.92639 0.89307 0.23293 0.0
C830 C 0.86628 0.80425 0.22106 0.0
C831 C 0.89651 0.92354 0.18124 0.0
H832 H 0.85258 0.85264 0.07576 0.0
H833 H 0.78176 0.89442 0.149 0.0
H834 H 0.91825 0.85884 0.13116 0.0
H835 H 0.90498 0.8185 0.14742 0.0
H836 H 0.90142 0.82921 0.09819 0.0
H837 H 0.78777 0.89071 0.21538 0.0
H838 H 0.82076 0.8669 0.23603 0.0
H839 H 0.82728 0.90979 0.22299 0.0
H840 H 0.91729 0.8143 0.26881 0.0
H841 H 0.94162 0.91527 0.23584 0.0
H842 H 0.87017 0.79272 0.19331 0.0
H843 H 0.84008 0.81064 0.22249 0.0
H844 H 0.87193 0.78543 0.24335 0.0
H845 H 0.90043 0.91713 0.1514 0.0
H846 H 0.91346 0.94434 0.18889 0.0
H847 H 0.87113 0.9325 0.18345 0.0
C848 C 0.16747 0.09417 0.61796 0.0
C849 C 0.19325 0.11635 0.60955 0.0
C850 C 0.14671 0.09989 0.648 0.0
C851 C 0.15265 0.12767 0.67147 0.0
C852 C 0.17959 0.14923 0.66454 0.0
C853 C 0.1993 0.14362 0.6333 0.0
C854 C 0.11797 0.07651 0.65407 0.0
C855 C 0.18729 0.17843 0.68981 0.0
C856 C 0.07873 0.15654 0.7244 0.0
C857 C 0.0815 0.13759 0.75755 0.0
C858 C 0.10248 0.15459 0.69654 0.0
C859 C 0.13005 0.13411 0.70274 0.0
C860 C 0.13395 0.11677 0.73738 0.0
C861 C 0.10925 0.11818 0.76411 0.0
C862 C 0.09694 0.17265 0.65955 0.0
C863 C 0.16353 0.09562 0.7456 0.0
H864 H 0.1632 0.07231 0.60078 0.0
H865 H 0.21901 0.16102 0.6271 0.0
H866 H 0.12008 0.06411 0.682 0.0
H867 H 0.09498 0.0909 0.65367 0.0
H868 H 0.11605 0.05686 0.6323 0.0
H869 H 0.21075 0.19097 0.68261 0.0
H870 H 0.16756 0.1971 0.68749 0.0
H871 H 0.18855 0.16991 0.71957 0.0
H872 H 0.0571 0.17137 0.71939 0.0
H873 H 0.11144 0.10382 0.79004 0.0
H874 H 0.0929 0.15406 0.63698 0.0
H875 H 0.11876 0.18778 0.652 0.0
H876 H 0.07551 0.18935 0.66018 0.0
H877 H 0.16237 0.07272 0.72831 0.0
H878 H 0.16517 0.08793 0.77565 0.0
H879 H 0.18616 0.10947 0.73808 0.0
C880 C 0.16475 0.85666 0.0986 0.0
C881 C 0.19626 0.87023 0.10297 0.0
C882 C 0.14445 0.85186 0.12952 0.0
C883 C 0.15609 0.86051 0.16578 0.0
C884 C 0.18876 0.87167 0.17079 0.0
C885 C 0.20849 0.87654 0.13922 0.0
C886 C 0.10977 0.83988 0.12294 0.0
C887 C 0.20218 0.88064 0.20912 0.0
C888 C 0.09162 0.89255 0.23086 0.0
C889 C 0.08442 0.86409 0.25274 0.0
C890 C 0.11541 0.8918 0.20308 0.0
C891 C 0.13279 0.86197 0.19727 0.0
C892 C 0.12642 0.83341 0.21995 0.0
C893 C 0.1021 0.83472 0.24728 0.0
C894 C 0.12128 0.92274 0.17921 0.0
C895 C 0.14485 0.80136 0.21489 0.0
H896 H 0.15546 0.85112 0.07064 0.0
H897 H 0.23281 0.88708 0.14276 0.0
H898 H 0.10355 0.81927 0.14277 0.0
H899 H 0.09278 0.86066 0.12814 0.0
H900 H 0.10559 0.831 0.09378 0.0
H901 H 0.22914 0.8837 0.20913 0.0
H902 H 0.1914 0.90451 0.21817 0.0
H903 H 0.19549 0.86119 0.2302 0.0
H904 H 0.07809 0.91534 0.23481 0.0
H905 H 0.09694 0.81271 0.26434 0.0
H906 H 0.11536 0.91729 0.14936 0.0
H907 H 0.14739 0.93027 0.18076 0.0
H908 H 0.10634 0.94419 0.18805 0.0
H909 H 0.13885 0.7907 0.18696 0.0
H910 H 0.13893 0.78234 0.23682 0.0
H911 H 0.17152 0.80642 0.21571 0.0
C912 C 0.84636 0.13407 0.59873 0.0
C913 C 0.81634 0.11732 0.60269 0.0
C914 C 0.86665 0.14023 0.62991 0.0
C915 C 0.85646 0.12974 0.66602 0.0
C916 C 0.82508 0.11521 0.6706 0.0
C917 C 0.80537 0.10902 0.63877 0.0
C918 C 0.89993 0.15579 0.6238 0.0
C919 C 0.8132 0.10417 0.70876 0.0
C920 C 0.92484 0.1032 0.73191 0.0
C921 C 0.92964 0.13181 0.75386 0.0
C922 C 0.90059 0.10205 0.70385 0.0
C923 C 0.88031 0.13005 0.69781 0.0
C924 C 0.88427 0.15865 0.72055 0.0
C925 C 0.90909 0.15931 0.74818 0.0
C926 C 0.89734 0.07117 0.67992 0.0
C927 C 0.86272 0.18873 0.71523 0.0
H928 H 0.8546 0.14117 0.57092 0.0
H929 H 0.7822 0.09604 0.642 0.0
H930 H 0.90443 0.17656 0.64366 0.0
H931 H 0.91896 0.13677 0.6293 0.0
H932 H 0.90281 0.16555 0.59467 0.0
H933 H 0.78663 0.09835 0.70841 0.0
H934 H 0.82642 0.08139 0.71798 0.0
H935 H 0.81828 0.12379 0.72992 0.0
H936 H 0.94058 0.08185 0.73601 0.0
H937 H 0.91241 0.18139 0.76528 0.0
H938 H 0.90223 0.07776 0.65014 0.0
H939 H 0.87209 0.061 0.68113 0.0
H940 H 0.91444 0.0512 0.68896 0.0
H941 H 0.8672 0.20045 0.68736 0.0
H942 H 0.86716 0.20783 0.73721 0.0
H943 H 0.83666 0.18098 0.71574 0.0
loop_
_geom_bond_atom_site_label_1
_geom_bond_atom_site_label_2
_geom_bond_distance
_geom_bond_site_symmetry_2
_ccdc_geom_bond_type
H0 C3 0.929 . S
H1 C6 0.929 . S
H2 C8 0.930 . S
C3 H0 0.929 . S
C3 C4 1.398 . S
C3 C5 1.396 1_554 S
C4 C3 1.398 . S
C4 C8 1.407 . S
C5 C3 1.396 1_556 S
C5 C6 1.394 . S
C6 H1 0.929 . S
C6 C5 1.394 . S
C6 C7 1.382 1_556 S
C7 C6 1.382 1_554 S
C7 C8 1.392 . S
C7 N9 1.420 1_554 S
C8 H2 0.930 . S
C8 C4 1.407 . S
C8 C7 1.392 . S
N9 C7 1.420 1_556 S
N9 C10 1.244 . S
C10 N9 1.244 . S
H11 C14 0.929 . S
H12 C17 0.929 . S
H13 C19 0.930 . S
C14 H11 0.929 . S
C14 C15 1.398 . S
C14 C16 1.396 . S
C15 C14 1.398 . S
C15 C19 1.407 . S
C16 C14 1.396 . S
C16 C17 1.394 . S
C17 H12 0.929 . S
C17 C16 1.394 . S
C17 C18 1.382 . S
C18 C17 1.382 . S
C18 C19 1.392 . S
C18 N20 1.420 . S
C19 H13 0.930 . S
C19 C15 1.407 . S
C19 C18 1.392 . S
N20 C18 1.420 . S
N20 C21 1.244 . S
C21 N20 1.244 . S
H22 C25 0.929 . S
H23 C28 0.929 . S
H24 C30 0.930 . S
C25 H22 0.929 . S
C25 C26 1.398 . S
C25 C27 1.396 1_554 S
C26 C25 1.398 . S
C26 C30 1.407 . S
C27 C25 1.396 1_556 S
C27 C28 1.394 . S
C28 H23 0.929 . S
C28 C27 1.394 . S
C28 C29 1.382 1_556 S
C29 C28 1.382 1_554 S
C29 C30 1.392 . S
C29 N31 1.420 . S
C30 H24 0.930 . S
C30 C26 1.407 . S
C30 C29 1.392 . S
N31 C29 1.420 . S
N31 C32 1.244 1_554 S
C32 N31 1.244 1_556 S
H33 C36 0.929 . S
H34 C39 0.929 . S
H35 C41 0.930 . S
C36 H33 0.929 . S
C36 C37 1.398 . S
C36 C38 1.396 . S
C37 C36 1.398 . S
C37 C41 1.407 . S
C38 C36 1.396 . S
C38 C39 1.394 . S
C39 H34 0.929 . S
C39 C38 1.394 . S
C39 C40 1.382 . S
C40 C39 1.382 . S
C40 C41 1.392 . S
C40 N42 1.420 . S
C41 H35 0.930 . S
C41 C37 1.407 . S
C41 C40 1.392 . S
N42 C40 1.420 . S
N42 C43 1.244 . S
C43 N42 1.244 . S
H44 C47 0.929 . S
H45 C50 0.929 . S
H46 C52 0.930 . S
C47 H44 0.929 . S
C47 C48 1.398 . S
C47 C49 1.396 1_554 S
C48 C47 1.398 . S
C48 C52 1.407 . S
C49 C47 1.396 1_556 S
C49 C50 1.394 . S
C50 H45 0.929 . S
C50 C49 1.394 . S
C50 C51 1.382 1_556 S
C51 C50 1.382 1_554 S
C51 C52 1.392 . S
C51 N53 1.420 1_554 S
C52 H46 0.930 . S
C52 C48 1.407 . S
C52 C51 1.392 . S
N53 C51 1.420 1_556 S
N53 C54 1.244 . S
C54 N53 1.244 . S
H55 C58 0.929 . S
H56 C61 0.929 . S
H57 C63 0.930 . S
C58 H55 0.929 . S
C58 C59 1.398 . S
C58 C60 1.396 . S
C59 C58 1.398 . S
C59 C63 1.407 . S
C60 C58 1.396 . S
C60 C61 1.394 . S
C61 H56 0.929 . S
C61 C60 1.394 . S
C61 C62 1.382 . S
C62 C61 1.382 . S
C62 C63 1.392 . S
C62 N64 1.420 . S
C63 H57 0.930 . S
C63 C59 1.407 . S
C63 C62 1.392 . S
N64 C62 1.420 . S
N64 C65 1.244 . S
C65 N64 1.244 . S
H66 C69 0.929 . S
H67 C72 0.929 . S
H68 C74 0.930 . S
C69 H66 0.929 . S
C69 C70 1.398 . S
C69 C71 1.396 1_554 S
C70 C69 1.398 . S
C70 C74 1.407 . S
C71 C69 1.396 1_556 S
C71 C72 1.394 . S
C72 H67 0.929 . S
C72 C71 1.394 . S
C72 C73 1.382 1_556 S
C73 C72 1.382 1_554 S
C73 C74 1.392 . S
C73 N75 1.420 . S
C74 H68 0.930 . S
C74 C70 1.407 . S
C74 C73 1.392 . S
N75 C73 1.420 . S
N75 C76 1.244 1_554 S
C76 N75 1.244 1_556 S
H77 C80 0.929 . S
H78 C83 0.929 . S
H79 C85 0.930 . S
C80 H77 0.929 . S
C80 C81 1.398 . S
C80 C82 1.396 . S
C81 C80 1.398 . S
C81 C85 1.407 . S
C82 C80 1.396 . S
C82 C83 1.394 . S
C83 H78 0.929 . S
C83 C82 1.394 . S
C83 C84 1.382 . S
C84 C83 1.382 . S
C84 C85 1.392 . S
C84 N86 1.420 . S
C85 H79 0.930 . S
C85 C81 1.407 . S
C85 C84 1.392 . S
N86 C84 1.420 . S
N86 C87 1.244 . S
C87 N86 1.244 . S
Sc88 O91 2.025 . S
Sc88 O98 2.105 1_455 S
Sc88 O101 2.105 . S
Sc88 O104 2.105 . S
Sc88 O107 2.105 1_455 S
Sc89 O91 2.025 . S
Sc89 O99 2.105 1_455 S
Sc89 O103 2.105 . S
Sc89 O105 2.105 . S
Sc89 O109 2.105 1_455 S
Sc90 O91 2.025 . S
Sc90 O100 2.105 1_455 S
Sc90 O102 2.105 . S
Sc90 O106 2.105 . S
Sc90 O108 2.105 1_455 S
O91 Sc88 2.025 . S
O91 Sc89 2.025 . S
O91 Sc90 2.025 . S
C92 O98 1.268 . S
C92 O108 1.268 . S
C93 O99 1.268 . S
C93 O107 1.268 . S
C94 O100 1.268 . S
C94 O109 1.268 . S
C95 O101 1.268 . S
C95 O105 1.268 . S
C96 O102 1.268 . S
C96 O104 1.268 . S
C97 O103 1.268 . S
C97 O106 1.268 . S
O98 Sc88 2.105 1_655 S
O98 C92 1.268 . S
O99 Sc89 2.105 1_655 S
O99 C93 1.268 . S
O100 Sc90 2.105 1_655 S
O100 C94 1.268 . S
O101 Sc88 2.105 . S
O101 C95 1.268 . S
O102 Sc90 2.105 . S
O102 C96 1.268 . S
O103 Sc89 2.105 . S
O103 C97 1.268 . S
O104 Sc88 2.105 . S
O104 C96 1.268 . S
O105 Sc89 2.105 . S
O105 C95 1.268 . S
O106 Sc90 2.105 . S
O106 C97 1.268 . S
O107 Sc88 2.105 1_655 S
O107 C93 1.268 . S
O108 Sc90 2.105 1_655 S
O108 C92 1.268 . S
O109 Sc89 2.105 1_655 S
O109 C94 1.268 . S
Sc110 O113 2.025 . S
Sc110 O120 2.105 . S
Sc110 O123 2.105 1_455 S
Sc110 O126 2.105 1_455 S
Sc110 O129 2.105 . S
Sc111 O113 2.025 . S
Sc111 O121 2.105 . S
Sc111 O125 2.105 1_455 S
Sc111 O127 2.105 1_455 S
Sc111 O131 2.105 . S
Sc112 O113 2.025 . S
Sc112 O122 2.105 . S
Sc112 O124 2.105 1_455 S
Sc112 O128 2.105 1_455 S
Sc112 O130 2.105 . S
O113 Sc110 2.025 . S
O113 Sc111 2.025 . S
O113 Sc112 2.025 . S
C114 O120 1.268 . S
C114 O130 1.268 . S
C115 O121 1.268 . S
C115 O129 1.268 . S
C116 O122 1.268 . S
C116 O131 1.268 . S
C117 O123 1.268 . S
C117 O127 1.268 . S
C118 O124 1.268 . S
C118 O126 1.268 . S
C119 O125 1.268 . S
C119 O128 1.268 . S
O120 Sc110 2.105 . S
O120 C114 1.268 . S
O121 Sc111 2.105 . S
O121 C115 1.268 . S
O122 Sc112 2.105 . S
O122 C116 1.268 . S
O123 Sc110 2.105 1_655 S
O123 C117 1.268 . S
O124 Sc112 2.105 1_655 S
O124 C118 1.268 . S
O125 Sc111 2.105 1_655 S
O125 C119 1.268 . S
O126 Sc110 2.105 1_655 S
O126 C118 1.268 . S
O127 Sc111 2.105 1_655 S
O127 C117 1.268 . S
O128 Sc112 2.105 1_655 S
O128 C119 1.268 . S
O129 Sc110 2.105 . S
O129 C115 1.268 . S
O130 Sc112 2.105 . S
O130 C114 1.268 . S
O131 Sc111 2.105 . S
O131 C116 1.268 . S
Sc132 O135 2.025 . S
Sc132 O142 2.105 . S
Sc132 O145 2.105 . S
Sc132 O148 2.105 . S
Sc132 O151 2.105 . S
Sc133 O135 2.025 . S
Sc133 O143 2.105 . S
Sc133 O147 2.105 . S
Sc133 O149 2.105 . S
Sc133 O153 2.105 . S
Sc134 O135 2.025 . S
Sc134 O144 2.105 . S
Sc134 O146 2.105 . S
Sc134 O150 2.105 . S
Sc134 O152 2.105 . S
O135 Sc132 2.025 . S
O135 Sc133 2.025 . S
O135 Sc134 2.025 . S
C136 O142 1.268 . S
C136 O152 1.268 . S
C137 O143 1.268 . S
C137 O151 1.268 . S
C138 O144 1.268 . S
C138 O153 1.268 . S
C139 O145 1.268 . S
C139 O149 1.268 . S
C140 O146 1.268 . S
C140 O148 1.268 . S
C141 O147 1.268 . S
C141 O150 1.268 . S
O142 Sc132 2.105 . S
O142 C136 1.268 . S
O143 Sc133 2.105 . S
O143 C137 1.268 . S
O144 Sc134 2.105 . S
O144 C138 1.268 . S
O145 Sc132 2.105 . S
O145 C139 1.268 . S
O146 Sc134 2.105 . S
O146 C140 1.268 . S
O147 Sc133 2.105 . S
O147 C141 1.268 . S
O148 Sc132 2.105 . S
O148 C140 1.268 . S
O149 Sc133 2.105 . S
O149 C139 1.268 . S
O150 Sc134 2.105 . S
O150 C141 1.268 . S
O151 Sc132 2.105 . S
O151 C137 1.268 . S
O152 Sc134 2.105 . S
O152 C136 1.268 . S
O153 Sc133 2.105 . S
O153 C138 1.268 . S
Sc154 O157 2.025 . S
Sc154 O164 2.105 . S
Sc154 O167 2.105 . S
Sc154 O170 2.105 . S
Sc154 O173 2.105 . S
Sc155 O157 2.025 . S
Sc155 O165 2.105 . S
Sc155 O169 2.105 . S
Sc155 O171 2.105 . S
Sc155 O175 2.105 . S
Sc156 O157 2.025 . S
Sc156 O166 2.105 . S
Sc156 O168 2.105 . S
Sc156 O172 2.105 . S
Sc156 O174 2.105 . S
O157 Sc154 2.025 . S
O157 Sc155 2.025 . S
O157 Sc156 2.025 . S
C158 O164 1.268 . S
C158 O174 1.268 . S
C159 O165 1.268 . S
C159 O173 1.268 . S
C160 O166 1.268 . S
C160 O175 1.268 . S
C161 O167 1.268 . S
C161 O171 1.268 . S
C162 O168 1.268 . S
C162 O170 1.268 . S
C163 O169 1.268 . S
C163 O172 1.268 . S
O164 Sc154 2.105 . S
O164 C158 1.268 . S
O165 Sc155 2.105 . S
O165 C159 1.268 . S
O166 Sc156 2.105 . S
O166 C160 1.268 . S
O167 Sc154 2.105 . S
O167 C161 1.268 . S
O168 Sc156 2.105 . S
O168 C162 1.268 . S
O169 Sc155 2.105 . S
O169 C163 1.268 . S
O170 Sc154 2.105 . S
O170 C162 1.268 . S
O171 Sc155 2.105 . S
O171 C161 1.268 . S
O172 Sc156 2.105 . S
O172 C163 1.268 . S
O173 Sc154 2.105 . S
O173 C159 1.268 . S
O174 Sc156 2.105 . S
O174 C158 1.268 . S
O175 Sc155 2.105 . S
O175 C160 1.268 . S
C176 C177 1.391 . S
C176 C178 1.394 . S
C176 H192 0.931 . S
C177 C176 1.391 . S
C177 C181 1.376 . S
C178 C176 1.394 . S
C178 C179 1.369 . S
C178 C182 1.531 . S
C179 C178 1.369 . S
C179 C180 1.410 . S
C179 C187 1.503 . S
C180 C179 1.410 . S
C180 C181 1.392 . S
C180 C183 1.511 . S
C181 C177 1.376 . S
C181 C180 1.392 . S
C181 H193 0.929 . S
C182 C178 1.531 . S
C182 H194 0.960 . S
C182 H195 0.962 . S
C182 H196 0.960 . S
C183 C180 1.511 . S
C183 H197 0.961 . S
C183 H198 0.961 . S
C183 H199 0.961 . S
C184 C185 1.370 . S
C184 C186 1.363 . S
C184 H200 0.931 . S
C185 C184 1.370 . S
C185 C189 1.408 . S
C186 C184 1.363 . S
C186 C187 1.370 . S
C186 C190 1.524 . S
C187 C179 1.503 . S
C187 C186 1.370 . S
C187 C188 1.403 . S
C188 C187 1.403 . S
C188 C189 1.404 . S
C188 C191 1.539 . S
C189 C185 1.408 . S
C189 C188 1.404 . S
C189 H201 0.930 . S
C190 C186 1.524 . S
C190 H202 0.956 . S
C190 H203 0.961 . S
C190 H204 0.961 . S
C191 C188 1.539 . S
C191 H205 0.958 . S
C191 H206 0.961 . S
C191 H207 0.960 . S
H192 C176 0.931 . S
H193 C181 0.929 . S
H194 C182 0.960 . S
H195 C182 0.962 . S
H196 C182 0.960 . S
H197 C183 0.961 . S
H198 C183 0.961 . S
H199 C183 0.961 . S
H200 C184 0.931 . S
H201 C189 0.930 . S
H202 C190 0.956 . S
H203 C190 0.961 . S
H204 C190 0.961 . S
H205 C191 0.958 . S
H206 C191 0.961 . S
H207 C191 0.960 . S
C208 C209 1.391 . S
C208 C210 1.394 . S
C208 H224 0.931 . S
C209 C208 1.391 . S
C209 C213 1.376 . S
C210 C208 1.394 . S
C210 C211 1.369 . S
C210 C214 1.531 . S
C211 C210 1.369 . S
C211 C212 1.410 . S
C211 C219 1.503 . S
C212 C211 1.410 . S
C212 C213 1.392 . S
C212 C215 1.511 . S
C213 C209 1.376 . S
C213 C212 1.392 . S
C213 H225 0.929 . S
C214 C210 1.531 . S
C214 H226 0.960 . S
C214 H227 0.962 . S
C214 H228 0.960 . S
C215 C212 1.511 . S
C215 H229 0.961 . S
C215 H230 0.961 . S
C215 H231 0.961 . S
C216 C217 1.370 . S
C216 C218 1.363 . S
C216 H232 0.931 . S
C217 C216 1.370 . S
C217 C221 1.408 . S
C218 C216 1.363 . S
C218 C219 1.370 . S
C218 C222 1.524 . S
C219 C211 1.503 . S
C219 C218 1.370 . S
C219 C220 1.403 . S
C220 C219 1.403 . S
C220 C221 1.404 . S
C220 C223 1.539 . S
C221 C217 1.408 . S
C221 C220 1.404 . S
C221 H233 0.930 . S
C222 C218 1.524 . S
C222 H234 0.956 . S
C222 H235 0.961 . S
C222 H236 0.961 . S
C223 C220 1.539 . S
C223 H237 0.958 . S
C223 H238 0.961 . S
C223 H239 0.960 . S
H224 C208 0.931 . S
H225 C213 0.929 . S
H226 C214 0.960 . S
H227 C214 0.962 . S
H228 C214 0.960 . S
H229 C215 0.961 . S
H230 C215 0.961 . S
H231 C215 0.961 . S
H232 C216 0.931 . S
H233 C221 0.930 . S
H234 C222 0.956 . S
H235 C222 0.961 . S
H236 C222 0.961 . S
H237 C223 0.958 . S
H238 C223 0.961 . S
H239 C223 0.960 . S
C240 C241 1.391 . S
C240 C242 1.394 . S
C240 H256 0.931 . S
C241 C240 1.391 . S
C241 C245 1.376 . S
C242 C240 1.394 . S
C242 C243 1.369 . S
C242 C246 1.531 . S
C243 C242 1.369 . S
C243 C244 1.410 . S
C243 C251 1.503 . S
C244 C243 1.410 . S
C244 C245 1.392 . S
C244 C247 1.511 . S
C245 C241 1.376 . S
C245 C244 1.392 . S
C245 H257 0.929 . S
C246 C242 1.531 . S
C246 H258 0.960 . S
C246 H259 0.962 . S
C246 H260 0.960 . S
C247 C244 1.511 . S
C247 H261 0.961 . S
C247 H262 0.961 . S
C247 H263 0.961 . S
C248 C249 1.370 . S
C248 C250 1.363 . S
C248 H264 0.931 . S
C249 C248 1.370 . S
C249 C253 1.408 . S
C250 C248 1.363 . S
C250 C251 1.370 . S
C250 C254 1.524 . S
C251 C243 1.503 . S
C251 C250 1.370 . S
C251 C252 1.403 . S
C252 C251 1.403 . S
C252 C253 1.404 . S
C252 C255 1.539 . S
C253 C249 1.408 . S
C253 C252 1.404 . S
C253 H265 0.930 . S
C254 C250 1.524 . S
C254 H266 0.956 . S
C254 H267 0.961 . S
C254 H268 0.961 . S
C255 C252 1.539 . S
C255 H269 0.958 . S
C255 H270 0.961 . S
C255 H271 0.960 . S
H256 C240 0.931 . S
H257 C245 0.929 . S
H258 C246 0.960 . S
H259 C246 0.962 . S
H260 C246 0.960 . S
H261 C247 0.961 . S
H262 C247 0.961 . S
H263 C247 0.961 . S
H264 C248 0.931 . S
H265 C253 0.930 . S
H266 C254 0.956 . S
H267 C254 0.961 . S
H268 C254 0.961 . S
H269 C255 0.958 . S
H270 C255 0.961 . S
H271 C255 0.960 . S
C272 C273 1.391 . S
C272 C274 1.394 . S
C272 H288 0.931 . S
C273 C272 1.391 . S
C273 C277 1.376 . S
C274 C272 1.394 . S
C274 C275 1.369 . S
C274 C278 1.531 . S
C275 C274 1.369 . S
C275 C276 1.410 . S
C275 C283 1.503 . S
C276 C275 1.410 . S
C276 C277 1.392 . S
C276 C279 1.511 . S
C277 C273 1.376 . S
C277 C276 1.392 . S
C277 H289 0.929 . S
C278 C274 1.531 . S
C278 H290 0.960 . S
C278 H291 0.962 . S
C278 H292 0.960 . S
C279 C276 1.511 . S
C279 H293 0.961 . S
C279 H294 0.961 . S
C279 H295 0.961 . S
C280 C281 1.370 . S
C280 C282 1.363 . S
C280 H296 0.931 . S
C281 C280 1.370 . S
C281 C285 1.408 . S
C282 C280 1.363 . S
C282 C283 1.370 . S
C282 C286 1.524 . S
C283 C275 1.503 . S
C283 C282 1.370 . S
C283 C284 1.403 . S
C284 C283 1.403 . S
C284 C285 1.404 . S
C284 C287 1.539 . S
C285 C281 1.408 . S
C285 C284 1.404 . S
C285 H297 0.930 . S
C286 C282 1.524 . S
C286 H298 0.956 . S
C286 H299 0.961 . S
C286 H300 0.961 . S
C287 C284 1.539 . S
C287 H301 0.958 . S
C287 H302 0.961 . S
C287 H303 0.960 . S
H288 C272 0.931 . S
H289 C277 0.929 . S
H290 C278 0.960 . S
H291 C278 0.962 . S
H292 C278 0.960 . S
H293 C279 0.961 . S
H294 C279 0.961 . S
H295 C279 0.961 . S
H296 C280 0.931 . S
H297 C285 0.930 . S
H298 C286 0.956 . S
H299 C286 0.961 . S
H300 C286 0.961 . S
H301 C287 0.958 . S
H302 C287 0.961 . S
H303 C287 0.960 . S
C304 C305 1.391 . S
C304 C306 1.394 . S
C304 H320 0.931 . S
C305 C304 1.391 . S
C305 C309 1.376 . S
C306 C304 1.394 . S
C306 C307 1.369 . S
C306 C310 1.531 . S
C307 C306 1.369 . S
C307 C308 1.410 . S
C307 C315 1.503 . S
C308 C307 1.410 . S
C308 C309 1.392 . S
C308 C311 1.511 . S
C309 C305 1.376 . S
C309 C308 1.392 . S
C309 H321 0.929 1_556 S
C310 C306 1.531 . S
C310 H322 0.960 . S
C310 H323 0.962 . S
C310 H324 0.960 . S
C311 C308 1.511 . S
C311 H325 0.961 1_556 S
C311 H326 0.961 . S
C311 H327 0.961 1_556 S
C312 C313 1.370 . S
C312 C314 1.363 . S
C312 H328 0.931 . S
C313 C312 1.370 . S
C313 C317 1.408 . S
C314 C312 1.363 . S
C314 C315 1.370 . S
C314 C318 1.524 . S
C315 C307 1.503 . S
C315 C314 1.370 . S
C315 C316 1.403 . S
C316 C315 1.403 . S
C316 C317 1.404 . S
C316 C319 1.539 . S
C317 C313 1.408 . S
C317 C316 1.404 . S
C317 H329 0.930 . S
C318 C314 1.524 . S
C318 H330 0.956 . S
C318 H331 0.961 . S
C318 H332 0.961 . S
C319 C316 1.539 . S
C319 H333 0.958 . S
C319 H334 0.961 . S
C319 H335 0.960 . S
H320 C304 0.931 . S
H321 C309 0.929 1_554 S
H322 C310 0.960 . S
H323 C310 0.962 . S
H324 C310 0.960 . S
H325 C311 0.961 1_554 S
H326 C311 0.961 . S
H327 C311 0.961 1_554 S
H328 C312 0.931 . S
H329 C317 0.930 . S
H330 C318 0.956 . S
H331 C318 0.961 . S
H332 C318 0.961 . S
H333 C319 0.958 . S
H334 C319 0.961 . S
H335 C319 0.960 . S
C336 C337 1.391 . S
C336 C338 1.394 . S
C336 H352 0.931 . S
C337 C336 1.391 . S
C337 C341 1.376 . S
C338 C336 1.394 . S
C338 C339 1.369 . S
C338 C342 1.531 . S
C339 C338 1.369 . S
C339 C340 1.410 . S
C339 C347 1.503 . S
C340 C339 1.410 . S
C340 C341 1.392 . S
C340 C343 1.511 . S
C341 C337 1.376 . S
C341 C340 1.392 . S
C341 H353 0.929 . S
C342 C338 1.531 . S
C342 H354 0.960 . S
C342 H355 0.962 . S
C342 H356 0.960 . S
C343 C340 1.511 . S
C343 H357 0.961 . S
C343 H358 0.961 . S
C343 H359 0.961 . S
C344 C345 1.370 . S
C344 C346 1.363 . S
C344 H360 0.931 . S
C345 C344 1.370 . S
C345 C349 1.408 . S
C346 C344 1.363 . S
C346 C347 1.370 . S
C346 C350 1.524 . S
C347 C339 1.503 . S
C347 C346 1.370 . S
C347 C348 1.403 . S
C348 C347 1.403 . S
C348 C349 1.404 . S
C348 C351 1.539 . S
C349 C345 1.408 . S
C349 C348 1.404 . S
C349 H361 0.930 . S
C350 C346 1.524 . S
C350 H362 0.956 . S
C350 H363 0.961 . S
C350 H364 0.961 . S
C351 C348 1.539 . S
C351 H365 0.958 . S
C351 H366 0.961 . S
C351 H367 0.960 . S
H352 C336 0.931 . S
H353 C341 0.929 . S
H354 C342 0.960 . S
H355 C342 0.962 . S
H356 C342 0.960 . S
H357 C343 0.961 . S
H358 C343 0.961 . S
H359 C343 0.961 . S
H360 C344 0.931 . S
H361 C349 0.930 . S
H362 C350 0.956 . S
H363 C350 0.961 . S
H364 C350 0.961 . S
H365 C351 0.958 . S
H366 C351 0.961 . S
H367 C351 0.960 . S
C368 C369 1.391 . S
C368 C370 1.394 . S
C368 H384 0.931 1_556 S
C369 C368 1.391 . S
C369 C373 1.376 . S
C370 C368 1.394 . S
C370 C371 1.369 . S
C370 C374 1.531 . S
C371 C370 1.369 . S
C371 C372 1.410 . S
C371 C379 1.503 . S
C372 C371 1.410 . S
C372 C373 1.392 . S
C372 C375 1.511 . S
C373 C369 1.376 . S
C373 C372 1.392 . S
C373 H385 0.929 . S
C374 C370 1.531 . S
C374 H386 0.960 . S
C374 H387 0.962 . S
C374 H388 0.960 1_556 S
C375 C372 1.511 . S
C375 H389 0.961 . S
C375 H390 0.961 . S
C375 H391 0.961 . S
C376 C377 1.370 . S
C376 C378 1.363 . S
C376 H392 0.931 . S
C377 C376 1.370 . S
C377 C381 1.408 . S
C378 C376 1.363 . S
C378 C379 1.370 . S
C378 C382 1.524 . S
C379 C371 1.503 . S
C379 C378 1.370 . S
C379 C380 1.403 . S
C380 C379 1.403 . S
C380 C381 1.404 . S
C380 C383 1.539 . S
C381 C377 1.408 . S
C381 C380 1.404 . S
C381 H393 0.930 . S
C382 C378 1.524 . S
C382 H394 0.956 . S
C382 H395 0.961 . S
C382 H396 0.961 . S
C383 C380 1.539 . S
C383 H397 0.958 . S
C383 H398 0.961 . S
C383 H399 0.960 . S
H384 C368 0.931 1_554 S
H385 C373 0.929 . S
H386 C374 0.960 . S
H387 C374 0.962 . S
H388 C374 0.960 1_554 S
H389 C375 0.961 . S
H390 C375 0.961 . S
H391 C375 0.961 . S
H392 C376 0.931 . S
H393 C381 0.930 . S
H394 C382 0.956 . S
H395 C382 0.961 . S
H396 C382 0.961 . S
H397 C383 0.958 . S
H398 C383 0.961 . S
H399 C383 0.960 . S
C400 C401 1.391 . S
C400 C402 1.394 . S
C400 H416 0.931 . S
C401 C400 1.391 . S
C401 C405 1.376 . S
C402 C400 1.394 . S
C402 C403 1.369 . S
C402 C406 1.531 . S
C403 C402 1.369 . S
C403 C404 1.410 . S
C403 C411 1.503 . S
C404 C403 1.410 . S
C404 C405 1.392 . S
C404 C407 1.511 . S
C405 C401 1.376 . S
C405 C404 1.392 . S
C405 H417 0.929 . S
C406 C402 1.531 . S
C406 H418 0.960 . S
C406 H419 0.962 . S
C406 H420 0.960 . S
C407 C404 1.511 . S
C407 H421 0.961 . S
C407 H422 0.961 . S
C407 H423 0.961 . S
C408 C409 1.370 . S
C408 C410 1.363 . S
C408 H424 0.931 . S
C409 C408 1.370 . S
C409 C413 1.408 . S
C410 C408 1.363 . S
C410 C411 1.370 . S
C410 C414 1.524 . S
C411 C403 1.503 . S
C411 C410 1.370 . S
C411 C412 1.403 . S
C412 C411 1.403 . S
C412 C413 1.404 . S
C412 C415 1.539 . S
C413 C409 1.408 . S
C413 C412 1.404 . S
C413 H425 0.930 . S
C414 C410 1.524 . S
C414 H426 0.956 . S
C414 H427 0.961 . S
C414 H428 0.961 . S
C415 C412 1.539 . S
C415 H429 0.958 . S
C415 H430 0.961 . S
C415 H431 0.960 . S
H416 C400 0.931 . S
H417 C405 0.929 . S
H418 C406 0.960 . S
H419 C406 0.962 . S
H420 C406 0.960 . S
H421 C407 0.961 . S
H422 C407 0.961 . S
H423 C407 0.961 . S
H424 C408 0.931 . S
H425 C413 0.930 . S
H426 C414 0.956 . S
H427 C414 0.961 . S
H428 C414 0.961 . S
H429 C415 0.958 . S
H430 C415 0.961 . S
H431 C415 0.960 . S
C432 C433 1.391 . S
C432 C434 1.394 . S
C432 H448 0.931 . S
C433 C432 1.391 . S
C433 C437 1.376 . S
C434 C432 1.394 . S
C434 C435 1.369 . S
C434 C438 1.531 . S
C435 C434 1.369 . S
C435 C436 1.410 . S
C435 C443 1.503 . S
C436 C435 1.410 . S
C436 C437 1.392 . S
C436 C439 1.497 1_556 S
C437 C433 1.376 . S
C437 C436 1.392 . S
C437 H449 0.929 1_556 S
C438 C434 1.531 . S
C438 H450 0.960 . S
C438 H451 0.962 . S
C438 H452 0.960 . S
C439 C436 1.497 1_554 S
C439 H453 0.980 . S
C439 H454 0.947 1_554 S
C439 H455 0.971 . S
C440 C441 1.370 . S
C440 C442 1.363 . S
C440 H456 0.931 . S
C441 C440 1.370 . S
C441 C445 1.408 . S
C442 C440 1.363 . S
C442 C443 1.370 . S
C442 C446 1.524 . S
C443 C435 1.503 . S
C443 C442 1.370 . S
C443 C444 1.403 . S
C444 C443 1.403 . S
C444 C445 1.404 . S
C444 C447 1.539 . S
C445 C441 1.408 . S
C445 C444 1.404 . S
C445 H457 0.930 . S
C446 C442 1.524 . S
C446 H458 0.956 . S
C446 H459 0.961 . S
C446 H460 0.961 . S
C447 C444 1.539 . S
C447 H461 0.958 . S
C447 H462 0.961 . S
C447 H463 0.960 . S
H448 C432 0.931 . S
H449 C437 0.929 1_554 S
H450 C438 0.960 . S
H451 C438 0.962 . S
H452 C438 0.960 . S
H453 C439 0.980 . S
H454 C439 0.947 1_556 S
H455 C439 0.971 . S
H456 C440 0.931 . S
H457 C445 0.930 . S
H458 C446 0.956 . S
H459 C446 0.961 . S
H460 C446 0.961 . S
H461 C447 0.958 . S
H462 C447 0.961 . S
H463 C447 0.960 . S
C464 C465 1.391 . S
C464 C466 1.394 . S
C464 H480 0.931 . S
C465 C464 1.391 . S
C465 C469 1.376 . S
C466 C464 1.394 . S
C466 C467 1.369 . S
C466 C470 1.531 . S
C467 C466 1.369 . S
C467 C468 1.410 . S
C467 C475 1.503 . S
C468 C467 1.410 . S
C468 C469 1.392 . S
C468 C471 1.511 . S
C469 C465 1.376 . S
C469 C468 1.392 . S
C469 H481 0.929 . S
C470 C466 1.531 . S
C470 H482 0.960 . S
C470 H483 0.962 . S
C470 H484 0.960 . S
C471 C468 1.511 . S
C471 H485 0.961 . S
C471 H486 0.961 . S
C471 H487 0.961 . S
C472 C473 1.370 . S
C472 C474 1.363 . S
C472 H488 0.931 . S
C473 C472 1.370 . S
C473 C477 1.408 . S
C474 C472 1.363 . S
C474 C475 1.370 . S
C474 C478 1.524 . S
C475 C467 1.503 . S
C475 C474 1.370 . S
C475 C476 1.403 . S
C476 C475 1.403 . S
C476 C477 1.404 . S
C476 C479 1.539 . S
C477 C473 1.408 . S
C477 C476 1.404 . S
C477 H489 0.930 . S
C478 C474 1.524 . S
C478 H490 0.956 . S
C478 H491 0.961 . S
C478 H492 0.961 . S
C479 C476 1.539 . S
C479 H493 0.958 . S
C479 H494 0.961 . S
C479 H495 0.960 . S
H480 C464 0.931 . S
H481 C469 0.929 . S
H482 C470 0.960 . S
H483 C470 0.962 . S
H484 C470 0.960 . S
H485 C471 0.961 . S
H486 C471 0.961 . S
H487 C471 0.961 . S
H488 C472 0.931 . S
H489 C477 0.930 . S
H490 C478 0.956 . S
H491 C478 0.961 . S
H492 C478 0.961 . S
H493 C479 0.958 . S
H494 C479 0.961 . S
H495 C479 0.960 . S
C496 C497 1.391 . S
C496 C498 1.394 . S
C496 H512 0.931 1_556 S
C497 C496 1.391 . S
C497 C501 1.376 . S
C498 C496 1.394 . S
C498 C499 1.369 . S
C498 C502 1.515 1_556 S
C499 C498 1.369 . S
C499 C500 1.410 . S
C499 C507 1.503 . S
C500 C499 1.410 . S
C500 C501 1.392 . S
C500 C503 1.511 . S
C501 C497 1.376 . S
C501 C500 1.392 . S
C501 H513 0.929 . S
C502 C498 1.515 1_554 S
C502 H514 0.949 1_554 S
C502 H515 0.966 . S
C502 H516 0.983 . S
C503 C500 1.511 . S
C503 H517 0.961 . S
C503 H518 0.961 . S
C503 H519 0.961 . S
C504 C505 1.370 . S
C504 C506 1.363 . S
C504 H520 0.931 . S
C505 C504 1.370 . S
C505 C509 1.408 . S
C506 C504 1.363 . S
C506 C507 1.370 . S
C506 C510 1.524 . S
C507 C499 1.503 . S
C507 C506 1.370 . S
C507 C508 1.403 . S
C508 C507 1.403 . S
C508 C509 1.404 . S
C508 C511 1.539 . S
C509 C505 1.408 . S
C509 C508 1.404 . S
C509 H521 0.930 . S
C510 C506 1.524 . S
C510 H522 0.956 . S
C510 H523 0.961 . S
C510 H524 0.961 . S
C511 C508 1.539 . S
C511 H525 0.958 . S
C511 H526 0.961 . S
C511 H527 0.960 . S
H512 C496 0.931 1_554 S
H513 C501 0.929 . S
H514 C502 0.949 1_556 S
H515 C502 0.966 . S
H516 C502 0.983 . S
H517 C503 0.961 . S
H518 C503 0.961 . S
H519 C503 0.961 . S
H520 C504 0.931 . S
H521 C509 0.930 . S
H522 C510 0.956 . S
H523 C510 0.961 . S
H524 C510 0.961 . S
H525 C511 0.958 . S
H526 C511 0.961 . S
H527 C511 0.960 . S
C528 C529 1.391 . S
C528 C530 1.394 . S
C528 H544 0.931 . S
C529 C528 1.391 . S
C529 C533 1.376 . S
C530 C528 1.394 . S
C530 C531 1.369 . S
C530 C534 1.531 . S
C531 C530 1.369 . S
C531 C532 1.410 . S
C531 C539 1.503 . S
C532 C531 1.410 . S
C532 C533 1.392 . S
C532 C535 1.511 . S
C533 C529 1.376 . S
C533 C532 1.392 . S
C533 H545 0.929 . S
C534 C530 1.531 . S
C534 H546 0.960 . S
C534 H547 0.962 . S
C534 H548 0.960 . S
C535 C532 1.511 . S
C535 H549 0.961 . S
C535 H550 0.961 . S
C535 H551 0.961 . S
C536 C537 1.370 . S
C536 C538 1.363 . S
C536 H552 0.931 . S
C537 C536 1.370 . S
C537 C541 1.408 . S
C538 C536 1.363 . S
C538 C539 1.370 . S
C538 C542 1.524 . S
C539 C531 1.503 . S
C539 C538 1.370 . S
C539 C540 1.403 . S
C540 C539 1.403 . S
C540 C541 1.404 . S
C540 C543 1.539 . S
C541 C537 1.408 . S
C541 C540 1.404 . S
C541 H553 0.930 . S
C542 C538 1.524 . S
C542 H554 0.956 . S
C542 H555 0.961 . S
C542 H556 0.961 . S
C543 C540 1.539 . S
C543 H557 0.958 . S
C543 H558 0.961 . S
C543 H559 0.960 . S
H544 C528 0.931 . S
H545 C533 0.929 . S
H546 C534 0.960 . S
H547 C534 0.962 . S
H548 C534 0.960 . S
H549 C535 0.961 . S
H550 C535 0.961 . S
H551 C535 0.961 . S
H552 C536 0.931 . S
H553 C541 0.930 . S
H554 C542 0.956 . S
H555 C542 0.961 . S
H556 C542 0.961 . S
H557 C543 0.958 . S
H558 C543 0.961 . S
H559 C543 0.960 . S
C560 C561 1.391 . S
C560 C562 1.394 . S
C560 H576 0.931 . S
C561 C560 1.391 . S
C561 C565 1.376 . S
C562 C560 1.394 . S
C562 C563 1.369 . S
C562 C566 1.531 . S
C563 C562 1.369 . S
C563 C564 1.411 . S
C563 C571 1.503 1_565 S
C564 C563 1.411 . S
C564 C565 1.394 . S
C564 C567 1.509 1_565 S
C565 C561 1.376 . S
C565 C564 1.394 . S
C565 H577 0.929 . S
C566 C562 1.531 . S
C566 H578 0.960 . S
C566 H579 0.962 . S
C566 H580 0.960 . S
C567 C564 1.509 1_545 S
C567 H581 0.961 . S
C567 H582 0.961 . S
C567 H583 0.961 . S
C568 C569 1.370 . S
C568 C570 1.363 . S
C568 H584 0.931 . S
C569 C568 1.370 . S
C569 C573 1.408 . S
C570 C568 1.363 . S
C570 C571 1.370 . S
C570 C574 1.524 . S
C571 C563 1.503 1_545 S
C571 C570 1.370 . S
C571 C572 1.403 . S
C572 C571 1.403 . S
C572 C573 1.404 . S
C572 C575 1.539 . S
C573 C569 1.408 . S
C573 C572 1.404 . S
C573 H585 0.930 . S
C574 C570 1.524 . S
C574 H586 0.956 1_545 S
C574 H587 0.961 . S
C574 H588 0.961 . S
C575 C572 1.539 . S
C575 H589 0.958 1_545 S
C575 H590 0.961 . S
C575 H591 0.960 . S
H576 C560 0.931 . S
H577 C565 0.929 . S
H578 C566 0.960 . S
H579 C566 0.962 . S
H580 C566 0.960 . S
H581 C567 0.961 . S
H582 C567 0.961 . S
H583 C567 0.961 . S
H584 C568 0.931 . S
H585 C573 0.930 . S
H586 C574 0.956 1_565 S
H587 C574 0.961 . S
H588 C574 0.961 . S
H589 C575 0.958 1_565 S
H590 C575 0.961 . S
H591 C575 0.960 . S
C592 C593 1.391 . S
C592 C594 1.394 . S
C592 H608 0.931 . S
C593 C592 1.391 . S
C593 C597 1.376 . S
C594 C592 1.394 . S
C594 C595 1.369 . S
C594 C598 1.531 . S
C595 C594 1.369 . S
C595 C596 1.410 . S
C595 C603 1.503 1_545 S
C596 C595 1.410 . S
C596 C597 1.392 . S
C596 C599 1.511 . S
C597 C593 1.376 . S
C597 C596 1.392 . S
C597 H609 0.929 . S
C598 C594 1.531 . S
C598 H610 0.960 . S
C598 H611 0.962 1_545 S
C598 H612 0.960 . S
C599 C596 1.511 . S
C599 H613 0.961 . S
C599 H614 0.961 . S
C599 H615 0.961 . S
C600 C601 1.370 . S
C600 C602 1.363 . S
C600 H616 0.931 . S
C601 C600 1.370 . S
C601 C605 1.408 . S
C602 C600 1.363 . S
C602 C603 1.370 . S
C602 C606 1.524 . S
C603 C595 1.503 1_565 S
C603 C602 1.370 . S
C603 C604 1.403 1_565 S
C604 C603 1.403 1_545 S
C604 C605 1.404 1_545 S
C604 C607 1.539 . S
C605 C601 1.408 . S
C605 C604 1.404 1_565 S
C605 H617 0.930 . S
C606 C602 1.524 . S
C606 H618 0.956 . S
C606 H619 0.961 . S
C606 H620 0.961 . S
C607 C604 1.539 . S
C607 H621 0.958 . S
C607 H622 0.961 . S
C607 H623 0.960 . S
H608 C592 0.931 . S
H609 C597 0.929 . S
H610 C598 0.960 . S
H611 C598 0.962 1_565 S
H612 C598 0.960 . S
H613 C599 0.961 . S
H614 C599 0.961 . S
H615 C599 0.961 . S
H616 C600 0.931 . S
H617 C605 0.930 . S
H618 C606 0.956 . S
H619 C606 0.961 . S
H620 C606 0.961 . S
H621 C607 0.958 . S
H622 C607 0.961 . S
H623 C607 0.960 . S
C624 C625 1.391 . S
C624 C626 1.394 . S
C624 H640 0.931 . S
C625 C624 1.391 . S
C625 C629 1.376 . S
C626 C624 1.394 . S
C626 C627 1.369 . S
C626 C630 1.531 . S
C627 C626 1.369 . S
C627 C628 1.410 1_565 S
C627 C635 1.503 1_565 S
C628 C627 1.410 1_545 S
C628 C629 1.392 1_545 S
C628 C631 1.511 . S
C629 C625 1.376 . S
C629 C628 1.392 1_565 S
C629 H641 0.929 . S
C630 C626 1.531 . S
C630 H642 0.960 . S
C630 H643 0.962 . S
C630 H644 0.960 . S
C631 C628 1.511 . S
C631 H645 0.961 . S
C631 H646 0.961 . S
C631 H647 0.961 . S
C632 C633 1.370 . S
C632 C634 1.363 . S
C632 H648 0.931 . S
C633 C632 1.370 . S
C633 C637 1.408 . S
C634 C632 1.363 . S
C634 C635 1.370 . S
C634 C638 1.524 1_545 S
C635 C627 1.503 1_545 S
C635 C634 1.370 . S
C635 C636 1.403 . S
C636 C635 1.403 . S
C636 C637 1.404 . S
C636 C639 1.539 . S
C637 C633 1.408 . S
C637 C636 1.404 . S
C637 H649 0.930 . S
C638 C634 1.524 1_565 S
C638 H650 0.956 . S
C638 H651 0.961 1_565 S
C638 H652 0.961 1_565 S
C639 C636 1.539 . S
C639 H653 0.958 . S
C639 H654 0.961 . S
C639 H655 0.960 . S
H640 C624 0.931 . S
H641 C629 0.929 . S
H642 C630 0.960 . S
H643 C630 0.962 . S
H644 C630 0.960 . S
H645 C631 0.961 . S
H646 C631 0.961 . S
H647 C631 0.961 . S
H648 C632 0.931 . S
H649 C637 0.930 . S
H650 C638 0.956 . S
H651 C638 0.961 1_545 S
H652 C638 0.961 1_545 S
H653 C639 0.958 . S
H654 C639 0.961 . S
H655 C639 0.960 . S
C656 C657 1.391 . S
C656 C658 1.394 . S
C656 H672 0.931 . S
C657 C656 1.391 . S
C657 C661 1.376 . S
C658 C656 1.394 . S
C658 C659 1.369 . S
C658 C662 1.531 1_545 S
C659 C658 1.369 . S
C659 C660 1.410 . S
C659 C667 1.503 1_545 S
C660 C659 1.410 . S
C660 C661 1.392 . S
C660 C663 1.511 . S
C661 C657 1.376 . S
C661 C660 1.392 . S
C661 H673 0.929 . S
C662 C658 1.531 1_565 S
C662 H674 0.960 . S
C662 H675 0.962 1_565 S
C662 H676 0.960 . S
C663 C660 1.511 . S
C663 H677 0.961 . S
C663 H678 0.957 1_545 S
C663 H679 0.961 1_545 S
C664 C665 1.370 . S
C664 C666 1.363 . S
C664 H680 0.931 . S
C665 C664 1.370 . S
C665 C669 1.408 . S
C666 C664 1.363 . S
C666 C667 1.370 . S
C666 C670 1.524 1_565 S
C667 C659 1.503 1_565 S
C667 C666 1.370 . S
C667 C668 1.403 . S
C668 C667 1.403 . S
C668 C669 1.404 . S
C668 C671 1.539 . S
C669 C665 1.408 . S
C669 C668 1.404 . S
C669 H681 0.930 . S
C670 C666 1.524 1_545 S
C670 H682 0.956 . S
C670 H683 0.961 . S
C670 H684 0.961 . S
C671 C668 1.539 . S
C671 H685 0.958 . S
C671 H686 0.961 . S
C671 H687 0.960 . S
H672 C656 0.931 . S
H673 C661 0.929 . S
H674 C662 0.960 . S
H675 C662 0.962 1_545 S
H676 C662 0.960 . S
H677 C663 0.961 . S
H678 C663 0.957 1_565 S
H679 C663 0.961 1_565 S
H680 C664 0.931 . S
H681 C669 0.930 . S
H682 C670 0.956 . S
H683 C670 0.961 . S
H684 C670 0.961 . S
H685 C671 0.958 . S
H686 C671 0.961 . S
H687 C671 0.960 . S
C688 C689 1.391 . S
C688 C690 1.394 . S
C688 H704 0.931 . S
C689 C688 1.391 . S
C689 C693 1.376 . S
C690 C688 1.394 . S
C690 C691 1.369 . S
C690 C694 1.531 . S
C691 C690 1.369 . S
C691 C692 1.410 . S
C691 C699 1.503 . S
C692 C691 1.410 . S
C692 C693 1.392 . S
C692 C695 1.511 . S
C693 C689 1.376 . S
C693 C692 1.392 . S
C693 H705 0.929 . S
C694 C690 1.531 . S
C694 H706 0.960 . S
C694 H707 0.962 . S
C694 H708 0.960 . S
C695 C692 1.511 . S
C695 H709 0.961 . S
C695 H710 0.961 . S
C695 H711 0.961 . S
C696 C697 1.370 . S
C696 C698 1.363 . S
C696 H712 0.931 . S
C697 C696 1.370 . S
C697 C701 1.408 . S
C698 C696 1.363 . S
C698 C699 1.370 . S
C698 C702 1.524 . S
C699 C691 1.503 . S
C699 C698 1.370 . S
C699 C700 1.403 . S
C700 C699 1.403 . S
C700 C701 1.404 . S
C700 C703 1.539 . S
C701 C697 1.408 . S
C701 C700 1.404 . S
C701 H713 0.930 . S
C702 C698 1.524 . S
C702 H714 0.956 . S
C702 H715 0.961 . S
C702 H716 0.961 . S
C703 C700 1.539 . S
C703 H717 0.958 . S
C703 H718 0.961 . S
C703 H719 0.960 . S
H704 C688 0.931 . S
H705 C693 0.929 . S
H706 C694 0.960 . S
H707 C694 0.962 . S
H708 C694 0.960 . S
H709 C695 0.961 . S
H710 C695 0.961 . S
H711 C695 0.961 . S
H712 C696 0.931 . S
H713 C701 0.930 . S
H714 C702 0.956 . S
H715 C702 0.961 . S
H716 C702 0.961 . S
H717 C703 0.958 . S
H718 C703 0.961 . S
H719 C703 0.960 . S
C720 C721 1.391 . S
C720 C722 1.394 . S
C720 H736 0.931 . S
C721 C720 1.391 . S
C721 C725 1.376 . S
C722 C720 1.394 . S
C722 C723 1.369 . S
C722 C726 1.531 . S
C723 C722 1.369 . S
C723 C724 1.410 . S
C723 C731 1.503 . S
C724 C723 1.410 . S
C724 C725 1.392 . S
C724 C727 1.511 . S
C725 C721 1.376 . S
C725 C724 1.392 . S
C725 H737 0.929 . S
C726 C722 1.531 . S
C726 H738 0.960 . S
C726 H739 0.962 . S
C726 H740 0.960 . S
C727 C724 1.511 . S
C727 H741 0.961 . S
C727 H742 0.961 . S
C727 H743 0.961 . S
C728 C729 1.370 . S
C728 C730 1.363 . S
C728 H744 0.931 . S
C729 C728 1.370 . S
C729 C733 1.408 . S
C730 C728 1.363 . S
C730 C731 1.370 . S
C730 C734 1.524 . S
C731 C723 1.503 . S
C731 C730 1.370 . S
C731 C732 1.403 . S
C732 C731 1.403 . S
C732 C733 1.404 . S
C732 C735 1.539 . S
C733 C729 1.408 . S
C733 C732 1.404 . S
C733 H745 0.930 . S
C734 C730 1.524 . S
C734 H746 0.956 . S
C734 H747 0.961 . S
C734 H748 0.961 . S
C735 C732 1.539 . S
C735 H749 0.958 . S
C735 H750 0.961 . S
C735 H751 0.960 . S
H736 C720 0.931 . S
H737 C725 0.929 . S
H738 C726 0.960 . S
H739 C726 0.962 . S
H740 C726 0.960 . S
H741 C727 0.961 . S
H742 C727 0.961 . S
H743 C727 0.961 . S
H744 C728 0.931 . S
H745 C733 0.930 . S
H746 C734 0.956 . S
H747 C734 0.961 . S
H748 C734 0.961 . S
H749 C735 0.958 . S
H750 C735 0.961 . S
H751 C735 0.960 . S
C752 C753 1.391 . S
C752 C754 1.394 . S
C752 H768 0.931 . S
C753 C752 1.391 . S
C753 C757 1.376 . S
C754 C752 1.394 . S
C754 C755 1.369 . S
C754 C758 1.531 . S
C755 C754 1.369 . S
C755 C756 1.410 . S
C755 C763 1.503 . S
C756 C755 1.410 . S
C756 C757 1.392 . S
C756 C759 1.511 . S
C757 C753 1.376 . S
C757 C756 1.392 . S
C757 H769 0.929 . S
C758 C754 1.531 . S
C758 H770 0.960 . S
C758 H771 0.962 . S
C758 H772 0.960 . S
C759 C756 1.511 . S
C759 H773 0.961 . S
C759 H774 0.961 . S
C759 H775 0.961 . S
C760 C761 1.370 . S
C760 C762 1.363 . S
C760 H776 0.931 . S
C761 C760 1.370 . S
C761 C765 1.408 . S
C762 C760 1.363 . S
C762 C763 1.370 . S
C762 C766 1.524 . S
C763 C755 1.503 . S
C763 C762 1.370 . S
C763 C764 1.403 . S
C764 C763 1.403 . S
C764 C765 1.404 . S
C764 C767 1.539 . S
C765 C761 1.408 . S
C765 C764 1.404 . S
C765 H777 0.930 . S
C766 C762 1.524 . S
C766 H778 0.956 . S
C766 H779 0.961 . S
C766 H780 0.961 . S
C767 C764 1.539 . S
C767 H781 0.958 . S
C767 H782 0.961 . S
C767 H783 0.960 . S
H768 C752 0.931 . S
H769 C757 0.929 . S
H770 C758 0.960 . S
H771 C758 0.962 . S
H772 C758 0.960 . S
H773 C759 0.961 . S
H774 C759 0.961 . S
H775 C759 0.961 . S
H776 C760 0.931 . S
H777 C765 0.930 . S
H778 C766 0.956 . S
H779 C766 0.961 . S
H780 C766 0.961 . S
H781 C767 0.958 . S
H782 C767 0.961 . S
H783 C767 0.960 . S
C784 C785 1.391 . S
C784 C786 1.394 . S
C784 H800 0.931 . S
C785 C784 1.391 . S
C785 C789 1.376 . S
C786 C784 1.394 . S
C786 C787 1.369 . S
C786 C790 1.531 . S
C787 C786 1.369 . S
C787 C788 1.410 . S
C787 C795 1.503 . S
C788 C787 1.410 . S
C788 C789 1.392 . S
C788 C791 1.511 . S
C789 C785 1.376 . S
C789 C788 1.392 . S
C789 H801 0.929 . S
C790 C786 1.531 . S
C790 H802 0.960 . S
C790 H803 0.962 . S
C790 H804 0.960 . S
C791 C788 1.511 . S
C791 H805 0.961 . S
C791 H806 0.961 . S
C791 H807 0.961 . S
C792 C793 1.370 . S
C792 C794 1.363 . S
C792 H808 0.931 . S
C793 C792 1.370 . S
C793 C797 1.408 . S
C794 C792 1.363 . S
C794 C795 1.370 . S
C794 C798 1.524 . S
C795 C787 1.503 . S
C795 C794 1.370 . S
C795 C796 1.403 . S
C796 C795 1.403 . S
C796 C797 1.404 . S
C796 C799 1.539 . S
C797 C793 1.408 . S
C797 C796 1.404 . S
C797 H809 0.930 . S
C798 C794 1.524 . S
C798 H810 0.956 . S
C798 H811 0.961 . S
C798 H812 0.961 . S
C799 C796 1.539 . S
C799 H813 0.958 . S
C799 H814 0.961 . S
C799 H815 0.960 . S
H800 C784 0.931 . S
H801 C789 0.929 . S
H802 C790 0.960 . S
H803 C790 0.962 . S
H804 C790 0.960 . S
H805 C791 0.961 . S
H806 C791 0.961 . S
H807 C791 0.961 . S
H808 C792 0.931 . S
H809 C797 0.930 . S
H810 C798 0.956 . S
H811 C798 0.961 . S
H812 C798 0.961 . S
H813 C799 0.958 . S
H814 C799 0.961 . S
H815 C799 0.960 . S
C816 C817 1.391 . S
C816 C818 1.394 . S
C816 H832 0.931 . S
C817 C816 1.391 . S
C817 C821 1.376 . S
C818 C816 1.394 . S
C818 C819 1.369 . S
C818 C822 1.531 . S
C819 C818 1.369 . S
C819 C820 1.410 . S
C819 C827 1.503 . S
C820 C819 1.410 . S
C820 C821 1.392 . S
C820 C823 1.511 . S
C821 C817 1.376 . S
C821 C820 1.392 . S
C821 H833 0.929 . S
C822 C818 1.531 . S
C822 H834 0.960 . S
C822 H835 0.962 . S
C822 H836 0.960 . S
C823 C820 1.511 . S
C823 H837 0.961 . S
C823 H838 0.961 . S
C823 H839 0.961 . S
C824 C825 1.370 . S
C824 C826 1.363 . S
C824 H840 0.931 . S
C825 C824 1.370 . S
C825 C829 1.408 . S
C826 C824 1.363 . S
C826 C827 1.370 . S
C826 C830 1.524 . S
C827 C819 1.503 . S
C827 C826 1.370 . S
C827 C828 1.403 . S
C828 C827 1.403 . S
C828 C829 1.404 . S
C828 C831 1.539 . S
C829 C825 1.408 . S
C829 C828 1.404 . S
C829 H841 0.930 . S
C830 C826 1.524 . S
C830 H842 0.956 . S
C830 H843 0.961 . S
C830 H844 0.961 . S
C831 C828 1.539 . S
C831 H845 0.958 . S
C831 H846 0.961 . S
C831 H847 0.960 . S
H832 C816 0.931 . S
H833 C821 0.929 . S
H834 C822 0.960 . S
H835 C822 0.962 . S
H836 C822 0.960 . S
H837 C823 0.961 . S
H838 C823 0.961 . S
H839 C823 0.961 . S
H840 C824 0.931 . S
H841 C829 0.930 . S
H842 C830 0.956 . S
H843 C830 0.961 . S
H844 C830 0.961 . S
H845 C831 0.958 . S
H846 C831 0.961 . S
H847 C831 0.960 . S
C848 C849 1.391 . S
C848 C850 1.394 . S
C848 H864 0.931 . S
C849 C848 1.391 . S
C849 C853 1.376 . S
C850 C848 1.394 . S
C850 C851 1.369 . S
C850 C854 1.531 . S
C851 C850 1.369 . S
C851 C852 1.410 . S
C851 C859 1.503 . S
C852 C851 1.410 . S
C852 C853 1.392 . S
C852 C855 1.511 . S
C853 C849 1.376 . S
C853 C852 1.392 . S
C853 H865 0.929 . S
C854 C850 1.531 . S
C854 H866 0.960 . S
C854 H867 0.962 . S
C854 H868 0.960 . S
C855 C852 1.511 . S
C855 H869 0.961 . S
C855 H870 0.961 . S
C855 H871 0.961 . S
C856 C857 1.370 . S
C856 C858 1.363 . S
C856 H872 0.931 . S
C857 C856 1.370 . S
C857 C861 1.408 . S
C858 C856 1.363 . S
C858 C859 1.370 . S
C858 C862 1.524 . S
C859 C851 1.503 . S
C859 C858 1.370 . S
C859 C860 1.403 . S
C860 C859 1.403 . S
C860 C861 1.404 . S
C860 C863 1.539 . S
C861 C857 1.408 . S
C861 C860 1.404 . S
C861 H873 0.930 . S
C862 C858 1.524 . S
C862 H874 0.956 . S
C862 H875 0.961 . S
C862 H876 0.961 . S
C863 C860 1.539 . S
C863 H877 0.958 . S
C863 H878 0.961 . S
C863 H879 0.960 . S
H864 C848 0.931 . S
H865 C853 0.929 . S
H866 C854 0.960 . S
H867 C854 0.962 . S
H868 C854 0.960 . S
H869 C855 0.961 . S
H870 C855 0.961 . S
H871 C855 0.961 . S
H872 C856 0.931 . S
H873 C861 0.930 . S
H874 C862 0.956 . S
H875 C862 0.961 . S
H876 C862 0.961 . S
H877 C863 0.958 . S
H878 C863 0.961 . S
H879 C863 0.960 . S
C880 C881 1.391 . S
C880 C882 1.394 . S
C880 H896 0.931 . S
C881 C880 1.391 . S
C881 C885 1.376 . S
C882 C880 1.394 . S
C882 C883 1.369 . S
C882 C886 1.531 . S
C883 C882 1.369 . S
C883 C884 1.410 . S
C883 C891 1.503 . S
C884 C883 1.410 . S
C884 C885 1.392 . S
C884 C887 1.511 . S
C885 C881 1.376 . S
C885 C884 1.392 . S
C885 H897 0.929 . S
C886 C882 1.531 . S
C886 H898 0.960 . S
C886 H899 0.962 . S
C886 H900 0.960 . S
C887 C884 1.511 . S
C887 H901 0.961 . S
C887 H902 0.961 . S
C887 H903 0.961 . S
C888 C889 1.370 . S
C888 C890 1.363 . S
C888 H904 0.931 . S
C889 C888 1.370 . S
C889 C893 1.408 . S
C890 C888 1.363 . S
C890 C891 1.370 . S
C890 C894 1.524 . S
C891 C883 1.503 . S
C891 C890 1.370 . S
C891 C892 1.403 . S
C892 C891 1.403 . S
C892 C893 1.404 . S
C892 C895 1.539 . S
C893 C889 1.408 . S
C893 C892 1.404 . S
C893 H905 0.930 . S
C894 C890 1.524 . S
C894 H906 0.956 . S
C894 H907 0.961 . S
C894 H908 0.961 . S
C895 C892 1.539 . S
C895 H909 0.958 . S
C895 H910 0.961 . S
C895 H911 0.960 . S
H896 C880 0.931 . S
H897 C885 0.929 . S
H898 C886 0.960 . S
H899 C886 0.962 . S
H900 C886 0.960 . S
H901 C887 0.961 . S
H902 C887 0.961 . S
H903 C887 0.961 . S
H904 C888 0.931 . S
H905 C893 0.930 . S
H906 C894 0.956 . S
H907 C894 0.961 . S
H908 C894 0.961 . S
H909 C895 0.958 . S
H910 C895 0.961 . S
H911 C895 0.960 . S
C912 C913 1.391 . S
C912 C914 1.394 . S
C912 H928 0.931 . S
C913 C912 1.391 . S
C913 C917 1.376 . S
C914 C912 1.394 . S
C914 C915 1.369 . S
C914 C918 1.531 . S
C915 C914 1.369 . S
C915 C916 1.410 . S
C915 C923 1.503 . S
C916 C915 1.410 . S
C916 C917 1.392 . S
C916 C919 1.511 . S
C917 C913 1.376 . S
C917 C916 1.392 . S
C917 H929 0.929 . S
C918 C914 1.531 . S
C918 H930 0.960 . S
C918 H931 0.962 . S
C918 H932 0.960 . S
C919 C916 1.511 . S
C919 H933 0.961 . S
C919 H934 0.961 . S
C919 H935 0.961 . S
C920 C921 1.370 . S
C920 C922 1.363 . S
C920 H936 0.931 . S
C921 C920 1.370 . S
C921 C925 1.408 . S
C922 C920 1.363 . S
C922 C923 1.370 . S
C922 C926 1.524 . S
C923 C915 1.503 . S
C923 C922 1.370 . S
C923 C924 1.403 . S
C924 C923 1.403 . S
C924 C925 1.404 . S
C924 C927 1.539 . S
C925 C921 1.408 . S
C925 C924 1.404 . S
C925 H937 0.930 . S
C926 C922 1.524 . S
C926 H938 0.956 . S
C926 H939 0.961 . S
C926 H940 0.961 . S
C927 C924 1.539 . S
C927 H941 0.958 . S
C927 H942 0.961 . S
C927 H943 0.960 . S
H928 C912 0.931 . S
H929 C917 0.929 . S
H930 C918 0.960 . S
H931 C918 0.962 . S
H932 C918 0.960 . S
H933 C919 0.961 . S
H934 C919 0.961 . S
H935 C919 0.961 . S
H936 C920 0.931 . S
H937 C925 0.930 . S
H938 C926 0.956 . S
H939 C926 0.961 . S
H940 C926 0.961 . S
H941 C927 0.958 . S
H942 C927 0.961 . S
H943 C927 0.960 . S
C177 C10 1.519 . S
C185 C114 1.523 . S
C217 C92 1.512 . S
C209 C21 1.536 . S
C249 C118 1.581 . S
C241 C32 1.607 . S
C281 C96 1.461 . S
C273 C43 1.489 . S
C313 C158 1.521 . S
C305 C54 1.527 . S
C345 C136 1.514 . S
C337 C65 1.542 . S
C369 C76 1.593 . S
C377 C162 1.589 . S
C409 C140 1.471 . S
C401 C87 1.476 . S
C433 C5 1.511 . S
C441 C163 1.524 . S
C473 C141 1.488 . S
C465 C16 1.448 . S
C497 C27 1.562 . S
C505 C160 1.578 . S
C529 C37 1.437 . S
C537 C138 1.435 . S
C569 C119 1.526 . S
C561 C49 1.518 . S
C593 C60 1.460 . S
C601 C97 1.491 . S
C633 C116 1.569 . S
C625 C71 1.527 . S
C665 C94 1.435 . S
C657 C81 1.437 . S
C697 C137 1.480 . S
C689 C4 1.470 . S
C729 C159 1.484 . S
C721 C15 1.486 . S
C753 C26 1.499 . S
C761 C139 1.488 . S
C793 C161 1.474 . S
C785 C38 1.445 . S
C825 C93 1.482 . S
C817 C48 1.478 . S
C849 C59 1.489 . S
C857 C115 1.484 . S
C881 C70 1.497 . S
C889 C95 1.487 . S
C913 C82 1.482 . S
C921 C117 1.486 . S
