# Generated by pormake.
# Topology ant, (3,6)-cn, num edge types: 1
# Building blocks:
#     Node 0, Type 0, BuildingBlock: CUQRIR_clean_linker_1, # of connection points: 3
#     Node 1, Type 0, BuildingBlock: CUQRIR_clean_linker_1, # of connection points: 3
#     Node 2, Type 0, BuildingBlock: CUQRIR_clean_linker_1, # of connection points: 3
#     Node 3, Type 0, BuildingBlock: CUQRIR_clean_linker_1, # of connection points: 3
#     Node 4, Type 0, BuildingBlock: CUQRIR_clean_linker_1, # of connection points: 3
#     Node 5, Type 0, BuildingBlock: CUQRIR_clean_linker_1, # of connection points: 3
#     Node 6, Type 0, BuildingBlock: CUQRIR_clean_linker_1, # of connection points: 3
#     Node 7, Type 0, BuildingBlock: CUQRIR_clean_linker_1, # of connection points: 3
#     Node 8, Type 1, BuildingBlock: MIDCAF_clean_sbu_0, # of connection points: 6
#     Node 9, Type 1, BuildingBlock: MIDCAF_clean_sbu_0, # of connection points: 6
#     Node 10, Type 1, BuildingBlock: MIDCAF_clean_sbu_0, # of connection points: 6
#     Node 11, Type 1, BuildingBlock: MIDCAF_clean_sbu_0, # of connection points: 6
#     Edge 12, Type (0, 1), BuildingBlock: AJUNOK_clean_linker_0, # of connection points: 2
#     Edge 13, Type (0, 1), BuildingBlock: AJUNOK_clean_linker_0, # of connection points: 2
#     Edge 14, Type (0, 1), BuildingBlock: AJUNOK_clean_linker_0, # of connection points: 2
#     Edge 15, Type (0, 1), BuildingBlock: AJUNOK_clean_linker_0, # of connection points: 2
#     Edge 16, Type (0, 1), BuildingBlock: AJUNOK_clean_linker_0, # of connection points: 2
#     Edge 17, Type (0, 1), BuildingBlock: AJUNOK_clean_linker_0, # of connection points: 2
#     Edge 18, Type (0, 1), BuildingBlock: AJUNOK_clean_linker_0, # of connection points: 2
#     Edge 19, Type (0, 1), BuildingBlock: AJUNOK_clean_linker_0, # of connection points: 2
#     Edge 20, Type (0, 1), BuildingBlock: AJUNOK_clean_linker_0, # of connection points: 2
#     Edge 21, Type (0, 1), BuildingBlock: AJUNOK_clean_linker_0, # of connection points: 2
#     Edge 22, Type (0, 1), BuildingBlock: AJUNOK_clean_linker_0, # of connection points: 2
#     Edge 23, Type (0, 1), BuildingBlock: AJUNOK_clean_linker_0, # of connection points: 2
#     Edge 24, Type (0, 1), BuildingBlock: AJUNOK_clean_linker_0, # of connection points: 2
#     Edge 25, Type (0, 1), BuildingBlock: AJUNOK_clean_linker_0, # of connection points: 2
#     Edge 26, Type (0, 1), BuildingBlock: AJUNOK_clean_linker_0, # of connection points: 2
#     Edge 27, Type (0, 1), BuildingBlock: AJUNOK_clean_linker_0, # of connection points: 2
#     Edge 28, Type (0, 1), BuildingBlock: AJUNOK_clean_linker_0, # of connection points: 2
#     Edge 29, Type (0, 1), BuildingBlock: AJUNOK_clean_linker_0, # of connection points: 2
#     Edge 30, Type (0, 1), BuildingBlock: AJUNOK_clean_linker_0, # of connection points: 2
#     Edge 31, Type (0, 1), BuildingBlock: AJUNOK_clean_linker_0, # of connection points: 2
#     Edge 32, Type (0, 1), BuildingBlock: AJUNOK_clean_linker_0, # of connection points: 2
#     Edge 33, Type (0, 1), BuildingBlock: AJUNOK_clean_linker_0, # of connection points: 2
#     Edge 34, Type (0, 1), BuildingBlock: AJUNOK_clean_linker_0, # of connection points: 2
#     Edge 35, Type (0, 1), BuildingBlock: AJUNOK_clean_linker_0, # of connection points: 2
# Relax obj value: 0.112
# Max RMSD: 0.219
# Mean RMSD: 0.145
data_MOF--net-ant--node1-MIDCAF_clean_sbu_0--node2-CUQRIR_clean_linker_1--edge1-AJUNOK_clean_linker_0
_symmetry_space_group_name_H-M    P1
_symmetry_Int_Tables_number       1
_symmetry_cell_setting            triclinic
loop_
_symmetry_equiv_pos_as_xyz
'x, y, z'
_cell_length_a     18.353415
_cell_length_b     18.505489
_cell_length_c     47.332555
_cell_angle_alpha  85.353555
_cell_angle_beta   96.564327
_cell_angle_gamma 89.561189
loop_
_atom_site_label
_atom_site_type_symbol
_atom_site_fract_x
_atom_site_fract_y
_atom_site_fract_z
_atom_type_partial_charge
C0 C 0.24972 0.30804 0.07856 0.0
N1 N 0.24186 0.24457 0.06622 0.0
N2 N 0.23159 0.36528 0.05922 0.0
C3 C 0.26967 0.31431 0.11004 0.0
C4 C 0.21226 0.33437 0.03454 0.0
N5 N 0.21807 0.26107 0.03883 0.0
C6 C 0.18931 0.37554 0.0062 0.0
H7 H 0.22833 0.34891 0.11815 0.0
H8 H 0.32347 0.34097 0.11353 0.0
H9 H 0.27391 0.26077 0.12249 0.0
H10 H 0.2062 0.43298 0.00629 0.0
H11 H 0.12873 0.37393 0.00153 0.0
H12 H 0.21343 0.34968 0.98897 0.0
C13 C 0.08548 0.82719 0.3446 0.0
N14 N 0.13184 0.82402 0.32453 0.0
N15 N 1.01572 0.83814 0.33222 0.0
C16 C 0.10651 0.80871 0.37604 0.0
C17 C 0.02142 0.84177 0.30391 0.0
N18 N 0.09195 0.83304 0.29923 0.0
C19 C 0.95715 0.84373 0.28101 0.0
H20 H 0.09059 0.7521 0.38168 0.0
H21 H 0.07668 0.84463 0.3886 0.0
H22 H 0.16639 0.81385 0.38195 0.0
H23 H 0.96922 0.87826 0.2619 0.0
H24 H 0.90689 0.86464 0.28878 0.0
H25 H 0.94706 0.78806 0.2745 0.0
C26 C 0.78203 0.80821 0.57974 0.0
N27 N 0.76967 0.74556 0.56697 0.0
N28 N 0.76618 0.86679 0.56077 0.0
C29 C 0.80631 0.8127 0.61102 0.0
C30 C 0.74582 0.83717 0.53585 0.0
N31 N 0.74769 0.76384 0.5396 0.0
C32 C 0.72174 0.87944 0.50779 0.0
H33 H 0.76363 0.84168 0.6208 0.0
H34 H 0.85729 0.84433 0.61367 0.0
H35 H 0.81759 0.75844 0.6225 0.0
H36 H 0.74755 0.85563 0.49051 0.0
H37 H 0.73652 0.93737 0.50831 0.0
H38 H 0.66146 0.87516 0.5027 0.0
C39 C 0.59598 0.31062 0.83011 0.0
N40 N 0.64489 0.30053 0.81141 0.0
N41 N 0.5271 0.31837 0.81637 0.0
C42 C 0.61393 0.30289 0.86196 0.0
C43 C 0.53571 0.3117 0.78876 0.0
N44 N 0.60697 0.30054 0.78577 0.0
C45 C 0.47369 0.30653 0.76534 0.0
H46 H 0.61396 0.2445 0.86947 0.0
H47 H 0.57238 0.33174 0.87238 0.0
H48 H 0.66928 0.32424 0.86821 0.0
H49 H 0.42149 0.32815 0.77129 0.0
H50 H 0.46642 0.24887 0.76091 0.0
H51 H 0.48718 0.33697 0.74552 0.0
C52 C 0.02175 0.67594 0.90637 0.0
N53 N 0.04965 0.71911 0.92668 0.0
N54 N 0.02314 0.60559 0.91708 0.0
C55 C 0.99061 0.70293 0.87661 0.0
C56 C 0.05501 0.60756 0.94431 0.0
N57 N 0.07116 0.67635 0.95009 0.0
C58 C 0.06822 0.54248 0.96571 0.0
H59 H 0.93259 0.71986 0.87684 0.0
H60 H 0.99179 0.66014 0.8616 0.0
H61 H 0.02113 0.75075 0.86891 0.0
H62 H 0.07614 0.49228 0.95503 0.0
H63 H 1.02022 0.53581 0.9779 0.0
H64 H 0.11702 0.54958 0.98121 0.0
C65 C 0.69965 0.89013 0.16793 0.0
N66 N 0.74835 0.86478 0.19036 0.0
N67 N 0.63196 0.9004 0.17605 0.0
C68 C 0.7173 0.90096 0.13765 0.0
C69 C 0.64185 0.88032 0.2045 0.0
N70 N 0.71257 0.85947 0.21327 0.0
C71 C 0.57963 0.87052 0.22276 0.0
H72 H 0.6764 0.93785 0.12453 0.0
H73 H 0.7168 0.84787 0.12831 0.0
H74 H 0.77304 0.92348 0.13709 0.0
H75 H 0.53157 0.84646 0.21079 0.0
H76 H 0.56258 0.92439 0.22865 0.0
H77 H 0.5949 0.83551 0.24268 0.0
C78 C 0.47775 0.21671 0.39317 0.0
N79 N 0.49792 0.25476 0.41601 0.0
N80 N 0.47161 0.14495 0.40125 0.0
C81 C 0.46154 0.25071 0.36316 0.0
C82 C 0.48914 0.14123 0.43 0.0
N83 N 0.50491 0.20753 0.43877 0.0
C84 C 0.49723 0.07201 0.44927 0.0
H85 H 0.43248 0.21272 0.34895 0.0
H86 H 0.51355 0.26734 0.35487 0.0
H87 H 0.42749 0.30057 0.3631 0.0
H88 H 0.52788 0.03051 0.43949 0.0
H89 H 0.442 0.05073 0.45214 0.0
H90 H 0.52615 0.0805 0.4706 0.0
C91 C 0.20222 0.28983 0.66172 0.0
N92 N 0.25488 0.27485 0.68422 0.0
N93 N 0.1361 0.30284 0.67076 0.0
C94 C 0.21477 0.29184 0.63089 0.0
C95 C 0.15032 0.29482 0.69951 0.0
N96 N 0.22235 0.27892 0.70778 0.0
C97 C 0.09204 0.29374 0.71961 0.0
H98 H 0.1726 0.32657 0.61741 0.0
H99 H 0.21062 0.23607 0.62391 0.0
H100 H 0.27023 0.31225 0.6278 0.0
H101 H 0.09416 0.24095 0.73263 0.0
H102 H 0.03605 0.30254 0.70827 0.0
H103 H 0.103 0.33688 0.73442 0.0
Zn104 Zn 0.26202 0.70675 0.15567 0.0
Zn105 Zn 0.07278 0.85743 0.10238 0.0
Zn106 Zn 0.17695 0.79666 0.12567 0.0
C107 C 0.10781 0.7776 0.06192 0.0
C108 C 0.1782 0.96113 0.11291 0.0
O109 O 0.14607 0.78182 0.16912 0.0
O110 O 0.23149 0.71058 0.19431 0.0
C111 C 0.21681 0.632 0.11032 0.0
O112 O 0.14524 0.74752 0.08463 0.0
O113 O 0.07395 0.83649 0.063 0.0
O114 O 0.10972 0.95315 0.11153 0.0
O115 O 0.22047 0.90461 0.1154 0.0
O116 O 0.24883 0.61916 0.13527 0.0
O117 O 0.18781 0.69536 0.10235 0.0
O118 O 0.28189 0.85718 0.12863 0.0
O119 O 0.34971 0.76271 0.14774 0.0
C120 C 0.34524 0.82767 0.13717 0.0
O121 O 0.08058 0.80391 0.15277 0.0
O122 O 0.98612 0.82351 0.11986 0.0
C123 C 0.17594 0.75162 0.19322 0.0
C124 C 1.01039 0.80939 0.14567 0.0
Zn125 Zn 0.55188 0.63094 0.33633 0.0
Zn126 Zn 0.63844 0.79182 0.404 0.0
Zn127 Zn 0.59046 0.71362 0.37394 0.0
C128 C 0.54296 0.87605 0.37159 0.0
C129 C 0.75418 0.7638 0.38181 0.0
O130 O 0.58186 0.60418 0.39699 0.0
O131 O 0.57771 0.5393 0.35972 0.0
C132 C 0.43049 0.7207 0.34336 0.0
O133 O 0.51525 0.81214 0.37138 0.0
O134 O 0.60947 0.88172 0.38084 0.0
O135 O 0.74562 0.77311 0.40735 0.0
O136 O 0.69895 0.74763 0.36425 0.0
O137 O 0.44622 0.66335 0.3324 0.0
O138 O 0.48016 0.75352 0.35861 0.0
O139 O 0.66392 0.72763 0.33887 0.0
O140 O 0.61252 0.66173 0.30556 0.0
C141 C 0.66083 0.70633 0.31344 0.0
O142 O 0.61426 0.66033 0.41802 0.0
O143 O 0.57951 0.75897 0.43542 0.0
C144 C 0.58085 0.5422 0.38637 0.0
C145 C 0.59937 0.69328 0.43966 0.0
Zn146 Zn 0.57143 0.37102 0.59774 0.0
Zn147 Zn 0.81686 0.13136 0.6562 0.0
Zn148 Zn 0.67596 0.29097 0.61273 0.0
C149 C 0.82993 0.29016 0.62742 0.0
C150 C 0.72307 0.15454 0.59594 0.0
O151 O 0.59552 0.27471 0.64564 0.0
O152 O 0.50579 0.34965 0.62677 0.0
C153 C 0.69419 0.4594 0.60329 0.0
O154 O 0.78583 0.34125 0.6163 0.0
O155 O 0.79991 0.23019 0.63315 0.0
O156 O 0.75465 0.1687 0.61993 0.0
O157 O 0.67927 0.204 0.58351 0.0
O158 O 0.62505 0.46132 0.59979 0.0
O159 O 0.72878 0.39801 0.60713 0.0
O160 O 0.62806 0.25504 0.57116 0.0
O161 O 0.54059 0.33837 0.55958 0.0
C162 C 0.57527 0.28379 0.55342 0.0
O163 O 0.67876 0.24505 0.65845 0.0
O164 O 0.74971 0.1585 0.6858 0.0
C165 C 0.53108 0.30276 0.64624 0.0
C166 C 0.69802 0.20678 0.68244 0.0
Zn167 Zn 0.05805 0.09335 0.83605 0.0
Zn168 Zn 0.16803 0.26334 0.8996 0.0
Zn169 Zn 0.10461 0.18374 0.87173 0.0
C170 C 0.18217 0.14741 0.93414 0.0
C171 C 0.03441 0.32177 0.89292 0.0
O172 O 0.17507 0.182 0.83611 0.0
O173 O 0.12458 0.10726 0.80588 0.0
C174 C 0.0812 1.01378 0.88892 0.0
O175 O 0.12425 0.13569 0.91712 0.0
O176 O 0.22832 0.19067 0.92512 0.0
O177 O 0.08349 0.31107 0.91381 0.0
O178 O 0.03356 0.28104 0.87208 0.0
O179 O 0.06919 1.00554 0.86262 0.0
O180 O 0.09339 0.07745 0.89753 0.0
O181 O 0.99498 0.22869 0.85444 0.0
O182 O 0.95775 0.13836 0.82891 0.0
C183 C 0.94445 0.19811 0.83865 0.0
O184 O 0.21263 0.22091 0.85787 0.0
O185 O 0.23119 0.32487 0.87718 0.0
C186 C 0.17361 0.15245 0.81228 0.0
C187 C 0.25185 0.27791 0.86179 0.0
C188 C 0.29182 0.47213 0.078 0.0
C189 C 0.2287 0.44047 0.06511 0.0
C190 C 0.28759 0.53747 0.09069 0.0
C191 C 0.22019 0.57436 0.09057 0.0
H192 H 0.34415 0.44374 0.07977 0.0
H193 H 0.33709 0.55746 0.102 0.0
S194 S 0.04066 0.52007 0.05542 0.0
N195 N 0.09794 0.45446 0.05009 0.0
N196 N 0.0903 0.57906 0.07339 0.0
C197 C 0.15767 0.547 0.07537 0.0
C198 C 0.16186 0.47953 0.06271 0.0
C199 C 0.91491 0.75521 0.33951 0.0
C200 C 0.95132 0.81972 0.34538 0.0
C201 C 0.85161 0.7363 0.35197 0.0
C202 C 0.82422 0.78064 0.37112 0.0
H203 H 0.9355 0.71964 0.32505 0.0
H204 H 0.82384 0.68699 0.34654 0.0
S205 S 0.89892 0.95623 0.39247 0.0
N206 N 0.95511 0.9288 0.37046 0.0
N207 N 0.83687 0.89246 0.39487 0.0
C208 C 0.86077 0.84486 0.3774 0.0
C209 C 0.92435 0.86464 0.36425 0.0
C210 C 0.79948 0.61414 0.57204 0.0
C211 C 0.76276 0.67406 0.5808 0.0
C212 C 0.78383 0.54281 0.58205 0.0
C213 C 0.73077 0.52995 0.60097 0.0
H214 H 0.83766 0.62255 0.55631 0.0
H215 H 0.80879 0.49783 0.57318 0.0
S216 S 0.62345 0.66868 0.63166 0.0
N217 N 0.67331 0.71572 0.61006 0.0
N218 N 0.64681 0.58295 0.63004 0.0
C219 C 0.69798 0.58985 0.61139 0.0
C220 C 0.71284 0.66168 0.60087 0.0
C221 C 0.73729 0.203 0.82316 0.0
C222 C 0.7201 0.2771 0.81854 0.0
C223 C 0.81007 0.17872 0.8299 0.0
C224 C 0.86839 0.22778 0.83285 0.0
H225 H 0.69398 0.16367 0.82153 0.0
H226 H 0.82065 0.12077 0.83299 0.0
S227 S 0.85043 0.42826 0.82406 0.0
N228 N 0.76529 0.39983 0.81802 0.0
N229 N 0.90292 0.35454 0.83114 0.0
C230 C 0.85142 0.30241 0.82901 0.0
C231 C 0.77699 0.327 0.82174 0.0
C232 C 0.04119 0.52019 0.88122 0.0
C233 C 1.00177 0.54157 0.90295 0.0
C234 C 0.04013 0.44816 0.87396 0.0
C235 C 1.00155 0.39501 0.88891 0.0
H236 H 0.07892 0.55732 0.87194 0.0
H237 H 0.07763 0.43218 0.85939 0.0
S238 S 0.87745 0.42721 0.94306 0.0
N239 N 0.91124 0.50782 0.93498 0.0
N240 N 0.91407 0.37091 0.92302 0.0
C241 C 0.95536 0.41755 0.90821 0.0
C242 C 0.95438 0.49139 0.91485 0.0
C243 C 0.88245 0.88062 0.19382 0.0
C244 C 0.82104 0.83681 0.1883 0.0
C245 C 0.94916 0.86575 0.18312 0.0
C246 C 0.95621 0.80661 0.16661 0.0
H247 H 0.87671 0.93015 0.20414 0.0
H248 H 0.99243 0.905 0.18516 0.0
S249 S 0.81412 0.67069 0.14963 0.0
N250 N 0.7739 0.728 0.16819 0.0
N251 N 0.89843 0.70011 0.14801 0.0
C252 C 0.89716 0.759 0.16335 0.0
C253 C 0.82975 0.77404 0.17424 0.0
C254 C 0.59221 0.34137 0.40347 0.0
C255 C 0.5262 0.32737 0.41504 0.0
C256 C 0.61497 0.41262 0.39757 0.0
C257 C 0.57287 0.47255 0.4033 0.0
H258 H 0.62403 0.29685 0.39737 0.0
H259 H 0.66296 0.42104 0.3864 0.0
S260 S 0.39909 0.464 0.43621 0.0
N261 N 0.42176 0.37817 0.43405 0.0
N262 N 0.46489 0.51258 0.42334 0.0
C263 C 0.50978 0.45894 0.41704 0.0
C264 C 0.4862 0.38612 0.42277 0.0
C265 C 0.03136 0.23867 0.64786 0.0
C266 C 0.06401 0.30416 0.65479 0.0
C267 C 0.95622 0.23572 0.63825 0.0
C268 C 0.91052 0.29829 0.635 0.0
H269 H 0.06359 0.18881 0.65132 0.0
H270 H 0.9334 0.18337 0.63395 0.0
S271 S 0.97098 0.484 0.6491 0.0
N272 N 0.04632 0.4334 0.65707 0.0
N273 N 0.90523 0.42859 0.63827 0.0
C274 C 0.94341 0.36484 0.64063 0.0
C275 C 1.02004 0.36753 0.65078 0.0
C276 C 0.38015 0.3232 0.69166 0.0
C277 C 0.33318 0.26749 0.68297 0.0
C278 C 0.45147 0.3284 0.68337 0.0
C279 C 0.479 0.27729 0.66655 0.0
H280 H 0.3592 0.36662 0.70264 0.0
H281 H 0.48251 0.3766 0.68775 0.0
S282 S 0.38169 0.11461 0.64243 0.0
N283 N 0.32224 0.15534 0.65984 0.0
N284 N 0.45612 0.16451 0.64457 0.0
C285 C 0.4352 0.2172 0.66048 0.0
C286 C 0.36227 0.21251 0.66855 0.0
C287 C 0.548 0.84332 0.14047 0.0
C288 C 0.56244 0.90009 0.15817 0.0
C289 C 0.47611 0.82713 0.12992 0.0
C290 C 0.41554 0.86634 0.13697 0.0
H291 H 0.59176 0.80659 0.13708 0.0
H292 H 0.46744 0.77864 0.11866 0.0
S293 S 0.4248 0.02892 0.17785 0.0
N294 N 0.51146 1.00337 0.1782 0.0
N295 N 0.37544 0.97106 0.15918 0.0
C296 C 0.42951 0.92824 0.15188 0.0
C297 C 0.50325 0.94536 0.1624 0.0
C298 C 0.41957 0.36707 0.83537 0.0
C299 C 0.45999 0.30764 0.82868 0.0
C300 C 0.35155 0.35709 0.84576 0.0
C301 C 0.32195 0.28733 0.84951 0.0
H302 H 0.44058 0.42131 0.83229 0.0
H303 H 0.32182 0.40433 0.85075 0.0
S304 S 0.4095 0.11455 0.83516 0.0
N305 N 0.46769 0.17774 0.82629 0.0
N306 N 0.34059 0.1578 0.84636 0.0
C307 C 0.36278 0.22752 0.84291 0.0
C308 C 0.43171 0.238 0.83233 0.0
C309 C 0.26434 0.84615 0.32619 0.0
C310 C 0.20644 0.79815 0.3293 0.0
C311 C 0.33754 0.82134 0.33147 0.0
C312 C 0.35415 0.74757 0.33925 0.0
H313 H 0.25269 0.90299 0.31987 0.0
H314 H 0.38115 0.85955 0.32884 0.0
S315 S 0.22107 0.60156 0.35097 0.0
N316 N 0.16975 0.67521 0.34166 0.0
N317 N 0.30685 0.62756 0.35048 0.0
C318 C 0.29634 0.6994 0.3424 0.0
C319 C 0.22242 0.72498 0.33769 0.0
C320 C 0.81364 0.97841 0.58128 0.0
C321 C 0.75568 0.94093 0.56733 0.0
C322 C 0.80266 0.04795 0.5901 0.0
C323 C 0.73381 0.08353 0.5845 0.0
H324 H 0.86767 0.95341 0.58567 0.0
H325 H 0.8485 0.07413 0.60142 0.0
S326 S 0.56413 1.00924 0.54848 0.0
N327 N 0.62632 0.94399 0.54898 0.0
N328 N 0.60713 0.07667 0.56368 0.0
C329 C 0.67597 0.04777 0.56972 0.0
C330 C 0.68654 0.976 0.56158 0.0
C331 C 0.28258 0.11758 0.08131 0.0
C332 C 0.2322 0.17526 0.08124 0.0
C333 C 0.26856 0.04827 0.09386 0.0
C334 C 0.2045 0.03562 0.10713 0.0
H335 H 0.33205 0.12556 0.07121 0.0
H336 H 0.3059 1.00387 0.09181 0.0
S337 S 0.064 0.17393 0.11741 0.0
N338 N 0.12138 0.21803 0.09811 0.0
N339 N 0.09697 0.09018 0.12342 0.0
C340 C 0.15792 0.09525 0.10955 0.0
C341 C 0.17115 0.16447 0.0961 0.0
C342 C 0.42468 0.02402 0.39034 0.0
C343 C 0.46876 0.08394 0.38391 0.0
C344 C 0.44051 0.95487 0.38193 0.0
C345 C 0.49992 0.9445 0.36636 0.0
H346 H 0.3829 0.02913 0.40448 0.0
H347 H 0.41221 0.90851 0.39064 0.0
S348 S 0.61915 0.08646 0.33777 0.0
N349 N 0.56623 0.12964 0.35704 0.0
N350 N 0.59131 1.00181 0.33925 0.0
C351 C 0.53547 1.00616 0.35566 0.0
C352 C 0.52142 0.07556 0.36506 0.0
C353 C 0.12766 0.82733 0.9239 0.0
C354 C 0.0576 0.79694 0.92369 0.0
C355 C 0.13609 0.90168 0.91604 0.0
C356 C 0.07465 0.9481 0.90836 0.0
H357 H 0.1759 0.79238 0.92824 0.0
H358 H 0.19062 0.92165 0.91376 0.0
S359 S 0.87998 0.89624 0.90841 0.0
N360 N 0.92645 0.81977 0.91823 0.0
N361 N 0.94188 0.95908 0.9036 0.0
C362 C 1.0047 0.91902 0.9104 0.0
C363 C 0.99621 0.84352 0.91806 0.0
C364 C 0.13396 0.20403 0.00276 0.0
C365 C 0.20446 0.21003 0.01742 0.0
C366 C 0.12344 0.16909 0.97728 0.0
C367 C 0.18345 0.14006 0.96556 0.0
H368 H 0.08788 0.23155 0.00983 0.0
H369 H 0.06988 0.17343 0.96493 0.0
S370 S 0.37701 0.13331 0.99811 0.0
N371 N 0.33334 0.17839 0.01995 0.0
N372 N 0.3135 0.10994 0.97306 0.0
C373 C 0.25233 0.13782 0.98213 0.0
C374 C 0.26311 0.17442 0.00764 0.0
C375 C 0.12717 0.74042 0.26878 0.0
C376 C 0.11504 0.8136 0.27294 0.0
C377 C 0.14613 0.72012 0.24268 0.0
C378 C 0.15109 0.77243 0.21983 0.0
H379 H 0.12108 0.6988 0.28569 0.0
H380 H 0.15626 0.66332 0.24027 0.0
S381 S 0.12564 0.9713 0.22059 0.0
N382 N 0.11033 0.9382 0.25282 0.0
N383 N 0.14459 0.90064 0.20331 0.0
C384 C 0.13843 0.84579 0.22377 0.0
C385 C 0.12053 0.86627 0.25048 0.0
C386 C 0.74909 0.69132 0.49825 0.0
C387 C 0.71143 0.7171 0.51969 0.0
C388 C 0.71055 0.66767 0.47334 0.0
C389 C 0.63328 0.67141 0.46891 0.0
H390 H 0.80811 0.69619 0.49955 0.0
H391 H 0.74138 0.65664 0.45591 0.0
S392 S 0.5107 0.72168 0.52139 0.0
N393 N 0.59421 0.73331 0.53728 0.0
N394 N 0.52143 0.69133 0.4902 0.0
C395 C 0.5958 0.68812 0.49191 0.0
C396 C 0.63503 0.71107 0.51732 0.0
C397 C 0.64077 0.20356 0.75693 0.0
C398 C 0.63361 0.27768 0.76061 0.0
C399 C 0.66039 0.18044 0.7313 0.0
C400 C 0.6711 0.23092 0.70838 0.0
H401 H 0.63004 0.16347 0.77383 0.0
H402 H 0.66667 0.12288 0.72932 0.0
S403 S 0.65727 0.43152 0.70791 0.0
N404 N 0.63753 0.40107 0.73988 0.0
N405 N 0.67398 0.35886 0.69145 0.0
C406 C 0.66306 0.3054 0.7119 0.0
C407 C 0.64421 0.32848 0.7381 0.0
C408 C 0.02479 0.73302 0.98927 0.0
C409 C 0.08321 0.70069 0.97817 0.0
C410 C 0.03312 0.75488 0.01691 0.0
C411 C 0.10021 0.74476 0.0345 0.0
H412 H 0.97223 0.7411 0.97639 0.0
H413 H 0.98664 0.78059 0.0245 0.0
S414 S 0.26999 0.66208 0.01497 0.0
N415 N 0.21011 0.659 0.98623 0.0
N416 N 0.22627 0.70014 0.03875 0.0
C417 C 0.15897 0.71129 0.02378 0.0
C418 C 0.15041 0.6894 0.99537 0.0
C419 C 0.72774 0.74311 0.2416 0.0
C420 C 0.73579 0.81859 0.24001 0.0
C421 C 0.71249 0.70478 0.26698 0.0
C422 C 0.70488 0.74075 0.29166 0.0
H423 H 0.72364 0.71518 0.22227 0.0
H424 H 0.69921 0.64793 0.26639 0.0
S425 S 0.73928 0.93565 0.29986 0.0
N426 N 0.74927 0.92569 0.26613 0.0
N427 N 0.72085 0.85431 0.31407 0.0
C428 C 0.72371 0.81441 0.29136 0.0
C429 C 0.73924 0.85322 0.26541 0.0
C430 C 0.59531 0.22101 0.48056 0.0
C431 C 0.52253 0.22487 0.46763 0.0
C432 C 0.61216 0.23631 0.50913 0.0
C433 C 0.55653 0.25682 0.52516 0.0
H434 H 0.63899 0.20647 0.46842 0.0
H435 H 0.66903 0.23479 0.51833 0.0
S436 S 0.35688 0.26713 0.50114 0.0
N437 N 0.39454 0.24371 0.47308 0.0
N438 N 0.42553 0.27519 0.52643 0.0
C439 C 0.48339 0.25852 0.51247 0.0
C440 C 0.46653 0.24184 0.48371 0.0
C441 C 0.24422 0.28911 0.7592 0.0
C442 C 0.24894 0.24742 0.73593 0.0
C443 C 0.22799 0.25679 0.78557 0.0
C444 C 0.2181 0.18143 0.78971 0.0
H445 H 0.2422 0.34769 0.75572 0.0
H446 H 0.21419 0.29211 0.80135 0.0
S447 S 0.246 0.0473 0.73775 0.0
N448 N 0.25743 0.12662 0.7203 0.0
N449 N 0.23004 0.0651 0.77015 0.0
C450 C 0.23453 0.13855 0.76798 0.0
C451 C 0.25015 0.17172 0.74108 0.0
loop_
_geom_bond_atom_site_label_1
_geom_bond_atom_site_label_2
_geom_bond_distance
_geom_bond_site_symmetry_2
_ccdc_geom_bond_type
C0 N1 1.317 . S
C0 N2 1.348 . S
C0 C3 1.485 . S
N1 C0 1.317 . S
N1 N5 1.370 . S
N2 C0 1.348 . S
N2 C4 1.346 . S
C3 C0 1.485 . S
C3 H7 0.960 . S
C3 H8 0.961 . S
C3 H9 0.960 . S
C4 N2 1.346 . S
C4 N5 1.307 . S
C4 C6 1.486 . S
N5 N1 1.370 . S
N5 C4 1.307 . S
C6 C4 1.486 . S
C6 H10 0.960 . S
C6 H11 0.960 . S
C6 H12 0.959 . S
H7 C3 0.960 . S
H8 C3 0.961 . S
H9 C3 0.960 . S
H10 C6 0.960 . S
H11 C6 0.960 . S
H12 C6 0.959 . S
C13 N14 1.317 . S
C13 N15 1.348 . S
C13 C16 1.485 . S
N14 C13 1.317 . S
N14 N18 1.370 . S
N15 C13 1.348 . S
N15 C17 1.346 . S
C16 C13 1.485 . S
C16 H20 0.960 . S
C16 H21 0.961 . S
C16 H22 0.960 . S
C17 N15 1.346 . S
C17 N18 1.307 . S
C17 C19 1.486 1_455 S
N18 N14 1.370 . S
N18 C17 1.307 . S
C19 C17 1.486 1_655 S
C19 H23 0.960 . S
C19 H24 0.960 . S
C19 H25 0.959 1_655 S
H20 C16 0.960 . S
H21 C16 0.961 . S
H22 C16 0.960 . S
H23 C19 0.960 . S
H24 C19 0.960 . S
H25 C19 0.959 1_455 S
C26 N27 1.317 . S
C26 N28 1.348 . S
C26 C29 1.485 . S
N27 C26 1.317 . S
N27 N31 1.370 . S
N28 C26 1.348 . S
N28 C30 1.346 . S
C29 C26 1.485 . S
C29 H33 0.960 . S
C29 H34 0.961 . S
C29 H35 0.960 . S
C30 N28 1.346 . S
C30 N31 1.307 . S
C30 C32 1.486 . S
N31 N27 1.370 . S
N31 C30 1.307 . S
C32 C30 1.486 . S
C32 H36 0.960 . S
C32 H37 0.960 . S
C32 H38 0.959 . S
H33 C29 0.960 . S
H34 C29 0.961 . S
H35 C29 0.960 . S
H36 C32 0.960 . S
H37 C32 0.960 . S
H38 C32 0.959 . S
C39 N40 1.317 . S
C39 N41 1.348 . S
C39 C42 1.485 . S
N40 C39 1.317 . S
N40 N44 1.370 . S
N41 C39 1.348 . S
N41 C43 1.346 . S
C42 C39 1.485 . S
C42 H46 0.960 . S
C42 H47 0.961 . S
C42 H48 0.960 . S
C43 N41 1.346 . S
C43 N44 1.307 . S
C43 C45 1.486 . S
N44 N40 1.370 . S
N44 C43 1.307 . S
C45 C43 1.486 . S
C45 H49 0.960 . S
C45 H50 0.960 . S
C45 H51 0.959 . S
H46 C42 0.960 . S
H47 C42 0.961 . S
H48 C42 0.960 . S
H49 C45 0.960 . S
H50 C45 0.960 . S
H51 C45 0.959 . S
C52 N53 1.317 . S
C52 N54 1.348 . S
C52 C55 1.485 . S
N53 C52 1.317 . S
N53 N57 1.370 . S
N54 C52 1.348 . S
N54 C56 1.346 . S
C55 C52 1.485 . S
C55 H59 0.960 . S
C55 H60 0.961 . S
C55 H61 0.960 . S
C56 N54 1.346 . S
C56 N57 1.307 . S
C56 C58 1.486 . S
N57 N53 1.370 . S
N57 C56 1.307 . S
C58 C56 1.486 . S
C58 H62 0.960 . S
C58 H63 0.960 . S
C58 H64 0.959 . S
H59 C55 0.960 . S
H60 C55 0.961 . S
H61 C55 0.960 . S
H62 C58 0.960 . S
H63 C58 0.960 . S
H64 C58 0.959 . S
C65 N66 1.317 . S
C65 N67 1.348 . S
C65 C68 1.485 . S
N66 C65 1.317 . S
N66 N70 1.370 . S
N67 C65 1.348 . S
N67 C69 1.346 . S
C68 C65 1.485 . S
C68 H72 0.960 . S
C68 H73 0.961 . S
C68 H74 0.960 . S
C69 N67 1.346 . S
C69 N70 1.307 . S
C69 C71 1.486 . S
N70 N66 1.370 . S
N70 C69 1.307 . S
C71 C69 1.486 . S
C71 H75 0.960 . S
C71 H76 0.960 . S
C71 H77 0.959 . S
H72 C68 0.960 . S
H73 C68 0.961 . S
H74 C68 0.960 . S
H75 C71 0.960 . S
H76 C71 0.960 . S
H77 C71 0.959 . S
C78 N79 1.317 . S
C78 N80 1.348 . S
C78 C81 1.485 . S
N79 C78 1.317 . S
N79 N83 1.370 . S
N80 C78 1.348 . S
N80 C82 1.346 . S
C81 C78 1.485 . S
C81 H85 0.960 . S
C81 H86 0.961 . S
C81 H87 0.960 . S
C82 N80 1.346 . S
C82 N83 1.307 . S
C82 C84 1.486 . S
N83 N79 1.370 . S
N83 C82 1.307 . S
C84 C82 1.486 . S
C84 H88 0.960 . S
C84 H89 0.960 . S
C84 H90 0.959 . S
H85 C81 0.960 . S
H86 C81 0.961 . S
H87 C81 0.960 . S
H88 C84 0.960 . S
H89 C84 0.960 . S
H90 C84 0.959 . S
C91 N92 1.317 . S
C91 N93 1.348 . S
C91 C94 1.485 . S
N92 C91 1.317 . S
N92 N96 1.370 . S
N93 C91 1.348 . S
N93 C95 1.346 . S
C94 C91 1.485 . S
C94 H98 0.960 . S
C94 H99 0.961 . S
C94 H100 0.960 . S
C95 N93 1.346 . S
C95 N96 1.307 . S
C95 C97 1.486 . S
N96 N92 1.370 . S
N96 C95 1.307 . S
C97 C95 1.486 . S
C97 H101 0.960 1_455 S
C97 H102 0.960 1_455 S
C97 H103 0.959 . S
H98 C94 0.960 . S
H99 C94 0.961 . S
H100 C94 0.960 . S
H101 C97 0.960 1_655 S
H102 C97 0.960 1_655 S
H103 C97 0.959 . S
Zn104 O110 1.920 . S
Zn104 O116 1.898 . S
Zn104 O119 1.905 . S
Zn105 O113 1.905 . S
Zn105 O114 1.898 . S
Zn105 O122 1.920 1_455 S
Zn106 O109 2.080 . S
Zn106 O112 2.114 . S
Zn106 O115 2.120 . S
Zn106 O117 2.120 . S
Zn106 O118 2.114 . S
Zn106 O121 2.080 . S
C107 O112 1.166 . S
C107 O113 1.182 . S
C108 O114 1.167 . S
C108 O115 1.299 . S
O109 Zn106 2.080 . S
O109 C123 1.305 . S
O110 Zn104 1.920 . S
O110 C123 1.234 . S
C111 O116 1.167 . S
C111 O117 1.299 . S
O112 Zn106 2.114 . S
O112 C107 1.166 . S
O113 Zn105 1.905 . S
O113 C107 1.182 . S
O114 Zn105 1.898 . S
O114 C108 1.167 . S
O115 Zn106 2.120 . S
O115 C108 1.299 . S
O116 Zn104 1.898 . S
O116 C111 1.167 . S
O117 Zn106 2.120 . S
O117 C111 1.299 . S
O118 Zn106 2.114 . S
O118 C120 1.166 . S
O119 Zn104 1.905 . S
O119 C120 1.182 . S
C120 O118 1.166 . S
C120 O119 1.182 . S
O121 Zn106 2.080 . S
O121 C124 1.305 1_455 S
O122 Zn105 1.920 1_655 S
O122 C124 1.234 . S
C123 O109 1.305 . S
C123 O110 1.234 . S
C124 O121 1.305 1_655 S
C124 O122 1.234 . S
Zn125 O131 1.920 . S
Zn125 O137 1.898 . S
Zn125 O140 1.905 . S
Zn126 O134 1.905 . S
Zn126 O135 1.898 . S
Zn126 O143 1.920 . S
Zn127 O130 2.080 . S
Zn127 O133 2.114 . S
Zn127 O136 2.120 . S
Zn127 O138 2.120 . S
Zn127 O139 2.114 . S
Zn127 O142 2.080 . S
C128 O133 1.166 . S
C128 O134 1.182 . S
C129 O135 1.167 . S
C129 O136 1.299 . S
O130 Zn127 2.080 . S
O130 C144 1.305 . S
O131 Zn125 1.920 . S
O131 C144 1.234 . S
C132 O137 1.167 . S
C132 O138 1.299 . S
O133 Zn127 2.114 . S
O133 C128 1.166 . S
O134 Zn126 1.905 . S
O134 C128 1.182 . S
O135 Zn126 1.898 . S
O135 C129 1.167 . S
O136 Zn127 2.120 . S
O136 C129 1.299 . S
O137 Zn125 1.898 . S
O137 C132 1.167 . S
O138 Zn127 2.120 . S
O138 C132 1.299 . S
O139 Zn127 2.114 . S
O139 C141 1.166 . S
O140 Zn125 1.905 . S
O140 C141 1.182 . S
C141 O139 1.166 . S
C141 O140 1.182 . S
O142 Zn127 2.080 . S
O142 C145 1.305 . S
O143 Zn126 1.920 . S
O143 C145 1.234 . S
C144 O130 1.305 . S
C144 O131 1.234 . S
C145 O142 1.305 . S
C145 O143 1.234 . S
Zn146 O152 1.920 . S
Zn146 O158 1.898 . S
Zn146 O161 1.905 . S
Zn147 O155 1.905 . S
Zn147 O156 1.898 . S
Zn147 O164 1.920 . S
Zn148 O151 2.080 . S
Zn148 O154 2.114 . S
Zn148 O157 2.120 . S
Zn148 O159 2.120 . S
Zn148 O160 2.114 . S
Zn148 O163 2.080 . S
C149 O154 1.166 . S
C149 O155 1.182 . S
C150 O156 1.167 . S
C150 O157 1.299 . S
O151 Zn148 2.080 . S
O151 C165 1.305 . S
O152 Zn146 1.920 . S
O152 C165 1.234 . S
C153 O158 1.167 . S
C153 O159 1.299 . S
O154 Zn148 2.114 . S
O154 C149 1.166 . S
O155 Zn147 1.905 . S
O155 C149 1.182 . S
O156 Zn147 1.898 . S
O156 C150 1.167 . S
O157 Zn148 2.120 . S
O157 C150 1.299 . S
O158 Zn146 1.898 . S
O158 C153 1.167 . S
O159 Zn148 2.120 . S
O159 C153 1.299 . S
O160 Zn148 2.114 . S
O160 C162 1.166 . S
O161 Zn146 1.905 . S
O161 C162 1.182 . S
C162 O160 1.166 . S
C162 O161 1.182 . S
O163 Zn148 2.080 . S
O163 C166 1.305 . S
O164 Zn147 1.920 . S
O164 C166 1.234 . S
C165 O151 1.305 . S
C165 O152 1.234 . S
C166 O163 1.305 . S
C166 O164 1.234 . S
Zn167 O173 1.920 . S
Zn167 O179 1.898 . S
Zn167 O182 1.905 1_455 S
Zn168 O176 1.905 . S
Zn168 O177 1.898 . S
Zn168 O185 1.920 . S
Zn169 O172 2.080 . S
Zn169 O175 2.114 . S
Zn169 O178 2.120 . S
Zn169 O180 2.120 . S
Zn169 O181 2.114 . S
Zn169 O184 2.080 . S
C170 O175 1.166 . S
C170 O176 1.182 . S
C171 O177 1.167 . S
C171 O178 1.299 . S
O172 Zn169 2.080 . S
O172 C186 1.305 . S
O173 Zn167 1.920 . S
O173 C186 1.234 . S
C174 O179 1.167 . S
C174 O180 1.299 . S
O175 Zn169 2.114 . S
O175 C170 1.166 . S
O176 Zn168 1.905 . S
O176 C170 1.182 . S
O177 Zn168 1.898 . S
O177 C171 1.167 . S
O178 Zn169 2.120 . S
O178 C171 1.299 . S
O179 Zn167 1.898 . S
O179 C174 1.167 . S
O180 Zn169 2.120 . S
O180 C174 1.299 . S
O181 Zn169 2.114 . S
O181 C183 1.166 1_455 S
O182 Zn167 1.905 1_655 S
O182 C183 1.182 . S
C183 O181 1.166 1_655 S
C183 O182 1.182 . S
O184 Zn169 2.080 . S
O184 C187 1.305 . S
O185 Zn168 1.920 . S
O185 C187 1.234 . S
C186 O172 1.305 . S
C186 O173 1.234 . S
C187 O184 1.305 . S
C187 O185 1.234 . S
C188 C189 1.369 . S
C188 C190 1.419 . S
C188 H192 0.930 . S
C189 C188 1.369 . S
C189 C198 1.429 . S
C190 C188 1.419 . S
C190 C191 1.363 . S
C190 H193 0.929 . S
C191 C190 1.363 . S
C191 C197 1.428 . S
H192 C188 0.930 . S
H193 C190 0.929 . S
S194 N195 1.613 . S
S194 N196 1.610 . S
N195 S194 1.613 . S
N195 C198 1.350 . S
N196 S194 1.610 . S
N196 C197 1.351 . S
C197 C191 1.428 . S
C197 N196 1.351 . S
C197 C198 1.434 . S
C198 C189 1.429 . S
C198 N195 1.350 . S
C198 C197 1.434 . S
C199 C200 1.369 . S
C199 C201 1.419 . S
C199 H203 0.930 . S
C200 C199 1.369 . S
C200 C209 1.429 . S
C201 C199 1.419 . S
C201 C202 1.363 . S
C201 H204 0.929 . S
C202 C201 1.363 . S
C202 C208 1.428 . S
H203 C199 0.930 . S
H204 C201 0.929 . S
S205 N206 1.613 . S
S205 N207 1.610 . S
N206 S205 1.613 . S
N206 C209 1.350 . S
N207 S205 1.610 . S
N207 C208 1.351 . S
C208 C202 1.428 . S
C208 N207 1.351 . S
C208 C209 1.434 . S
C209 C200 1.429 . S
C209 N206 1.350 . S
C209 C208 1.434 . S
C210 C211 1.369 . S
C210 C212 1.419 . S
C210 H214 0.930 . S
C211 C210 1.369 . S
C211 C220 1.429 . S
C212 C210 1.419 . S
C212 C213 1.363 . S
C212 H215 0.929 . S
C213 C212 1.363 . S
C213 C219 1.428 . S
H214 C210 0.930 . S
H215 C212 0.929 . S
S216 N217 1.613 . S
S216 N218 1.610 . S
N217 S216 1.613 . S
N217 C220 1.350 . S
N218 S216 1.610 . S
N218 C219 1.351 . S
C219 C213 1.428 . S
C219 N218 1.351 . S
C219 C220 1.434 . S
C220 C211 1.429 . S
C220 N217 1.350 . S
C220 C219 1.434 . S
C221 C222 1.369 . S
C221 C223 1.419 . S
C221 H225 0.930 . S
C222 C221 1.369 . S
C222 C231 1.429 . S
C223 C221 1.419 . S
C223 C224 1.363 . S
C223 H226 0.929 . S
C224 C223 1.363 . S
C224 C230 1.428 . S
H225 C221 0.930 . S
H226 C223 0.929 . S
S227 N228 1.613 . S
S227 N229 1.610 . S
N228 S227 1.613 . S
N228 C231 1.350 . S
N229 S227 1.610 . S
N229 C230 1.351 . S
C230 C224 1.428 . S
C230 N229 1.351 . S
C230 C231 1.434 . S
C231 C222 1.429 . S
C231 N228 1.350 . S
C231 C230 1.434 . S
C232 C233 1.369 . S
C232 C234 1.419 . S
C232 H236 0.930 . S
C233 C232 1.369 . S
C233 C242 1.429 . S
C234 C232 1.419 . S
C234 C235 1.363 . S
C234 H237 0.929 . S
C235 C234 1.363 . S
C235 C241 1.428 . S
H236 C232 0.930 . S
H237 C234 0.929 . S
S238 N239 1.613 . S
S238 N240 1.610 1_655 S
N239 S238 1.613 . S
N239 C242 1.350 1_655 S
N240 S238 1.610 1_455 S
N240 C241 1.351 . S
C241 C235 1.428 . S
C241 N240 1.351 . S
C241 C242 1.434 . S
C242 C233 1.429 . S
C242 N239 1.350 1_455 S
C242 C241 1.434 . S
C243 C244 1.369 . S
C243 C245 1.419 . S
C243 H247 0.930 . S
C244 C243 1.369 . S
C244 C253 1.429 . S
C245 C243 1.419 . S
C245 C246 1.363 . S
C245 H248 0.929 . S
C246 C245 1.363 . S
C246 C252 1.428 . S
H247 C243 0.930 . S
H248 C245 0.929 . S
S249 N250 1.613 . S
S249 N251 1.610 . S
N250 S249 1.613 . S
N250 C253 1.350 . S
N251 S249 1.610 . S
N251 C252 1.351 . S
C252 C246 1.428 . S
C252 N251 1.351 . S
C252 C253 1.434 . S
C253 C244 1.429 . S
C253 N250 1.350 . S
C253 C252 1.434 . S
C254 C255 1.369 . S
C254 C256 1.419 . S
C254 H258 0.930 . S
C255 C254 1.369 . S
C255 C264 1.429 . S
C256 C254 1.419 . S
C256 C257 1.363 . S
C256 H259 0.929 . S
C257 C256 1.363 . S
C257 C263 1.428 . S
H258 C254 0.930 . S
H259 C256 0.929 . S
S260 N261 1.613 . S
S260 N262 1.610 . S
N261 S260 1.613 . S
N261 C264 1.350 . S
N262 S260 1.610 . S
N262 C263 1.351 . S
C263 C257 1.428 . S
C263 N262 1.351 . S
C263 C264 1.434 . S
C264 C255 1.429 . S
C264 N261 1.350 . S
C264 C263 1.434 . S
C265 C266 1.369 . S
C265 C267 1.419 . S
C265 H269 0.930 . S
C266 C265 1.369 . S
C266 C275 1.429 . S
C267 C265 1.419 . S
C267 C268 1.363 . S
C267 H270 0.929 . S
C268 C267 1.363 . S
C268 C274 1.428 . S
H269 C265 0.930 . S
H270 C267 0.929 . S
S271 N272 1.613 . S
S271 N273 1.610 . S
N272 S271 1.613 . S
N272 C275 1.350 . S
N273 S271 1.610 . S
N273 C274 1.351 . S
C274 C268 1.428 . S
C274 N273 1.351 . S
C274 C275 1.434 . S
C275 C266 1.429 . S
C275 N272 1.350 . S
C275 C274 1.434 . S
C276 C277 1.369 . S
C276 C278 1.419 . S
C276 H280 0.930 . S
C277 C276 1.369 . S
C277 C286 1.429 . S
C278 C276 1.419 . S
C278 C279 1.363 . S
C278 H281 0.929 . S
C279 C278 1.363 . S
C279 C285 1.428 . S
H280 C276 0.930 . S
H281 C278 0.929 . S
S282 N283 1.613 . S
S282 N284 1.610 . S
N283 S282 1.613 . S
N283 C286 1.350 . S
N284 S282 1.610 . S
N284 C285 1.351 . S
C285 C279 1.428 . S
C285 N284 1.351 . S
C285 C286 1.434 . S
C286 C277 1.429 . S
C286 N283 1.350 . S
C286 C285 1.434 . S
C287 C288 1.369 . S
C287 C289 1.419 . S
C287 H291 0.930 . S
C288 C287 1.369 . S
C288 C297 1.429 . S
C289 C287 1.419 . S
C289 C290 1.363 . S
C289 H292 0.929 . S
C290 C289 1.363 . S
C290 C296 1.428 . S
H291 C287 0.930 . S
H292 C289 0.929 . S
S293 N294 1.613 . S
S293 N295 1.610 . S
N294 S293 1.613 . S
N294 C297 1.350 . S
N295 S293 1.610 . S
N295 C296 1.351 . S
C296 C290 1.428 . S
C296 N295 1.351 . S
C296 C297 1.434 . S
C297 C288 1.429 . S
C297 N294 1.350 . S
C297 C296 1.434 . S
C298 C299 1.369 . S
C298 C300 1.419 . S
C298 H302 0.930 . S
C299 C298 1.369 . S
C299 C308 1.429 . S
C300 C298 1.419 . S
C300 C301 1.363 . S
C300 H303 0.929 . S
C301 C300 1.363 . S
C301 C307 1.428 . S
H302 C298 0.930 . S
H303 C300 0.929 . S
S304 N305 1.613 . S
S304 N306 1.610 . S
N305 S304 1.613 . S
N305 C308 1.350 . S
N306 S304 1.610 . S
N306 C307 1.351 . S
C307 C301 1.428 . S
C307 N306 1.351 . S
C307 C308 1.434 . S
C308 C299 1.429 . S
C308 N305 1.350 . S
C308 C307 1.434 . S
C309 C310 1.369 . S
C309 C311 1.419 . S
C309 H313 0.930 . S
C310 C309 1.369 . S
C310 C319 1.429 . S
C311 C309 1.419 . S
C311 C312 1.363 . S
C311 H314 0.929 . S
C312 C311 1.363 . S
C312 C318 1.428 . S
H313 C309 0.930 . S
H314 C311 0.929 . S
S315 N316 1.613 . S
S315 N317 1.610 . S
N316 S315 1.613 . S
N316 C319 1.350 . S
N317 S315 1.610 . S
N317 C318 1.351 . S
C318 C312 1.428 . S
C318 N317 1.351 . S
C318 C319 1.434 . S
C319 C310 1.429 . S
C319 N316 1.350 . S
C319 C318 1.434 . S
C320 C321 1.369 . S
C320 C322 1.419 1_565 S
C320 H324 0.930 . S
C321 C320 1.369 . S
C321 C330 1.429 . S
C322 C320 1.419 1_545 S
C322 C323 1.363 . S
C322 H325 0.929 . S
C323 C322 1.363 . S
C323 C329 1.428 . S
H324 C320 0.930 . S
H325 C322 0.929 . S
S326 N327 1.613 . S
S326 N328 1.610 1_565 S
N327 S326 1.613 . S
N327 C330 1.350 . S
N328 S326 1.610 1_545 S
N328 C329 1.351 . S
C329 C323 1.428 . S
C329 N328 1.351 . S
C329 C330 1.434 1_545 S
C330 C321 1.429 . S
C330 N327 1.350 . S
C330 C329 1.434 1_565 S
C331 C332 1.369 . S
C331 C333 1.419 . S
C331 H335 0.930 . S
C332 C331 1.369 . S
C332 C341 1.429 . S
C333 C331 1.419 . S
C333 C334 1.363 1_545 S
C333 H336 0.929 1_545 S
C334 C333 1.363 1_565 S
C334 C340 1.428 1_565 S
H335 C331 0.930 . S
H336 C333 0.929 1_565 S
S337 N338 1.613 1_655 S
S337 N339 1.610 1_655 S
N338 S337 1.613 1_455 S
N338 C341 1.350 . S
N339 S337 1.610 1_455 S
N339 C340 1.351 . S
C340 C334 1.428 1_545 S
C340 N339 1.351 . S
C340 C341 1.434 . S
C341 C332 1.429 . S
C341 N338 1.350 . S
C341 C340 1.434 . S
C342 C343 1.369 . S
C342 C344 1.419 1_545 S
C342 H346 0.930 . S
C343 C342 1.369 . S
C343 C352 1.429 . S
C344 C342 1.419 1_565 S
C344 C345 1.363 . S
C344 H347 0.929 . S
C345 C344 1.363 . S
C345 C351 1.428 . S
H346 C342 0.930 . S
H347 C344 0.929 . S
S348 N349 1.613 . S
S348 N350 1.610 1_545 S
N349 S348 1.613 . S
N349 C352 1.350 . S
N350 S348 1.610 1_565 S
N350 C351 1.351 . S
C351 C345 1.428 . S
C351 N350 1.351 . S
C351 C352 1.434 1_565 S
C352 C343 1.429 . S
C352 N349 1.350 . S
C352 C351 1.434 1_545 S
C353 C354 1.369 . S
C353 C355 1.419 . S
C353 H357 0.930 . S
C354 C353 1.369 . S
C354 C363 1.429 1_455 S
C355 C353 1.419 . S
C355 C356 1.363 . S
C355 H358 0.929 . S
C356 C355 1.363 . S
C356 C362 1.428 . S
H357 C353 0.930 . S
H358 C355 0.929 . S
S359 N360 1.613 . S
S359 N361 1.603 1_565 S
N360 S359 1.613 . S
N360 C363 1.350 . S
N361 S359 1.603 1_545 S
N361 C362 1.344 1_645 S
C362 C356 1.428 . S
C362 N361 1.344 1_465 S
C362 C363 1.434 1_455 S
C363 C354 1.429 1_655 S
C363 N360 1.350 . S
C363 C362 1.434 1_655 S
C364 C365 1.369 . S
C364 C366 1.419 1_554 S
C364 H368 0.930 . S
C365 C364 1.369 . S
C365 C374 1.429 . S
C366 C364 1.419 1_556 S
C366 C367 1.363 . S
C366 H369 0.929 . S
C367 C366 1.363 . S
C367 C373 1.428 . S
H368 C364 0.930 . S
H369 C366 0.929 . S
S370 N371 1.613 1_556 S
S370 N372 1.610 . S
N371 S370 1.613 1_554 S
N371 C374 1.350 . S
N372 S370 1.610 . S
N372 C373 1.351 . S
C373 C367 1.428 . S
C373 N372 1.351 . S
C373 C374 1.434 1_556 S
C374 C365 1.429 . S
C374 N371 1.350 . S
C374 C373 1.434 1_554 S
C375 C376 1.369 . S
C375 C377 1.419 . S
C375 H379 0.930 . S
C376 C375 1.369 . S
C376 C385 1.429 . S
C377 C375 1.419 . S
C377 C378 1.363 . S
C377 H380 0.929 . S
C378 C377 1.363 . S
C378 C384 1.428 . S
H379 C375 0.930 . S
H380 C377 0.929 . S
S381 N382 1.613 . S
S381 N383 1.610 . S
N382 S381 1.613 . S
N382 C385 1.350 . S
N383 S381 1.610 . S
N383 C384 1.351 . S
C384 C378 1.428 . S
C384 N383 1.351 . S
C384 C385 1.434 . S
C385 C376 1.429 . S
C385 N382 1.350 . S
C385 C384 1.434 . S
C386 C387 1.369 . S
C386 C388 1.419 . S
C386 H390 0.930 . S
C387 C386 1.369 . S
C387 C396 1.429 . S
C388 C386 1.419 . S
C388 C389 1.363 . S
C388 H391 0.929 . S
C389 C388 1.363 . S
C389 C395 1.428 . S
H390 C386 0.930 . S
H391 C388 0.929 . S
S392 N393 1.613 . S
S392 N394 1.610 . S
N393 S392 1.613 . S
N393 C396 1.350 . S
N394 S392 1.610 . S
N394 C395 1.351 . S
C395 C389 1.428 . S
C395 N394 1.351 . S
C395 C396 1.434 . S
C396 C387 1.429 . S
C396 N393 1.350 . S
C396 C395 1.434 . S
C397 C398 1.369 . S
C397 C399 1.419 . S
C397 H401 0.930 . S
C398 C397 1.369 . S
C398 C407 1.429 . S
C399 C397 1.419 . S
C399 C400 1.363 . S
C399 H402 0.929 . S
C400 C399 1.363 . S
C400 C406 1.428 . S
H401 C397 0.930 . S
H402 C399 0.929 . S
S403 N404 1.613 . S
S403 N405 1.610 . S
N404 S403 1.613 . S
N404 C407 1.350 . S
N405 S403 1.610 . S
N405 C406 1.351 . S
C406 C400 1.428 . S
C406 N405 1.351 . S
C406 C407 1.434 . S
C407 C398 1.429 . S
C407 N404 1.350 . S
C407 C406 1.434 . S
C408 C409 1.369 . S
C408 C410 1.419 1_556 S
C408 H412 0.930 1_455 S
C409 C408 1.369 . S
C409 C418 1.429 . S
C410 C408 1.419 1_554 S
C410 C411 1.363 . S
C410 H413 0.929 . S
C411 C410 1.363 . S
C411 C417 1.428 . S
H412 C408 0.930 1_655 S
H413 C410 0.929 . S
S414 N415 1.613 1_554 S
S414 N416 1.610 . S
N415 S414 1.613 1_556 S
N415 C418 1.350 . S
N416 S414 1.610 . S
N416 C417 1.351 . S
C417 C411 1.428 . S
C417 N416 1.351 . S
C417 C418 1.434 1_554 S
C418 C409 1.429 . S
C418 N415 1.350 . S
C418 C417 1.434 1_556 S
C419 C420 1.369 . S
C419 C421 1.419 . S
C419 H423 0.930 . S
C420 C419 1.369 . S
C420 C429 1.429 . S
C421 C419 1.419 . S
C421 C422 1.363 . S
C421 H424 0.929 . S
C422 C421 1.363 . S
C422 C428 1.428 . S
H423 C419 0.930 . S
H424 C421 0.929 . S
S425 N426 1.613 . S
S425 N427 1.610 . S
N426 S425 1.613 . S
N426 C429 1.350 . S
N427 S425 1.610 . S
N427 C428 1.351 . S
C428 C422 1.428 . S
C428 N427 1.351 . S
C428 C429 1.434 . S
C429 C420 1.429 . S
C429 N426 1.350 . S
C429 C428 1.434 . S
C430 C431 1.369 . S
C430 C432 1.419 . S
C430 H434 0.930 . S
C431 C430 1.369 . S
C431 C440 1.429 . S
C432 C430 1.419 . S
C432 C433 1.363 . S
C432 H435 0.929 . S
C433 C432 1.363 . S
C433 C439 1.428 . S
H434 C430 0.930 . S
H435 C432 0.929 . S
S436 N437 1.613 . S
S436 N438 1.610 . S
N437 S436 1.613 . S
N437 C440 1.350 . S
N438 S436 1.610 . S
N438 C439 1.351 . S
C439 C433 1.428 . S
C439 N438 1.351 . S
C439 C440 1.434 . S
C440 C431 1.429 . S
C440 N437 1.350 . S
C440 C439 1.434 . S
C441 C442 1.369 . S
C441 C443 1.419 . S
C441 H445 0.930 . S
C442 C441 1.369 . S
C442 C451 1.429 . S
C443 C441 1.419 . S
C443 C444 1.363 . S
C443 H446 0.929 . S
C444 C443 1.363 . S
C444 C450 1.428 . S
H445 C441 0.930 . S
H446 C443 0.929 . S
S447 N448 1.613 . S
S447 N449 1.610 . S
N448 S447 1.613 . S
N448 C451 1.350 . S
N449 S447 1.610 . S
N449 C450 1.351 . S
C450 C444 1.428 . S
C450 N449 1.351 . S
C450 C451 1.434 . S
C451 C442 1.429 . S
C451 N448 1.350 . S
C451 C450 1.434 . S
C191 C111 1.466 . S
C189 N2 1.584 . S
C202 C129 1.180 . S
C200 N15 1.263 1_655 S
C211 N27 1.394 . S
C213 C153 1.282 . S
C224 C183 1.480 . S
C222 N40 1.680 . S
C235 C171 1.324 . S
C233 N54 1.454 . S
C244 N66 1.669 . S
C246 C124 1.599 . S
C255 N79 1.536 . S
C257 C144 1.400 . S
C266 N93 1.298 1_655 S
C268 C149 1.168 . S
C277 N92 1.662 . S
C279 C165 1.589 . S
C288 N67 1.298 . S
C290 C120 1.159 . S
C301 C187 1.195 . S
C299 N41 1.276 . S
C312 C132 1.459 . S
C310 N14 1.670 . S
C321 N28 1.576 . S
C323 C150 1.461 . S
C332 N1 1.399 . S
C334 C108 1.280 . S
C345 C128 1.341 . S
C343 N80 1.464 . S
C356 C174 1.391 1_565 S
C354 N53 1.534 . S
C367 C170 1.311 . S
C365 N5 1.596 . S
C378 C123 1.372 . S
C376 N18 1.461 . S
C387 N31 1.589 . S
C389 C145 1.310 . S
C398 N44 1.483 . S
C400 C166 1.381 . S
C411 C107 1.378 . S
C409 N57 1.477 . S
C420 N70 1.567 . S
C422 C141 1.541 . S
C433 C162 1.391 . S
C431 N83 1.497 . S
C444 C186 1.521 . S
C442 N96 1.547 . S
