# Generated by pormake.
# Topology pyr, (3,6)-cn, num edge types: 1
# Building blocks:
#     Node 0, Type 0, BuildingBlock: QEWDON_clean_linker_0, # of connection points: 3
#     Node 1, Type 0, BuildingBlock: QEWDON_clean_linker_0, # of connection points: 3
#     Node 2, Type 0, BuildingBlock: QEWDON_clean_linker_0, # of connection points: 3
#     Node 3, Type 0, BuildingBlock: QEWDON_clean_linker_0, # of connection points: 3
#     Node 4, Type 0, BuildingBlock: QEWDON_clean_linker_0, # of connection points: 3
#     Node 5, Type 0, BuildingBlock: QEWDON_clean_linker_0, # of connection points: 3
#     Node 6, Type 0, BuildingBlock: QEWDON_clean_linker_0, # of connection points: 3
#     Node 7, Type 0, BuildingBlock: QEWDON_clean_linker_0, # of connection points: 3
#     Node 8, Type 1, BuildingBlock: BETDEL_clean_sbu_0, # of connection points: 6
#     Node 9, Type 1, BuildingBlock: BETDEL_clean_sbu_0, # of connection points: 6
#     Node 10, Type 1, BuildingBlock: BETDEL_clean_sbu_0, # of connection points: 6
#     Node 11, Type 1, BuildingBlock: BETDEL_clean_sbu_0, # of connection points: 6
#     Edge 12, Type (0, 1), BuildingBlock: MIFKUJ_clean_linker_0, # of connection points: 2
#     Edge 13, Type (0, 1), BuildingBlock: MIFKUJ_clean_linker_0, # of connection points: 2
#     Edge 14, Type (0, 1), BuildingBlock: MIFKUJ_clean_linker_0, # of connection points: 2
#     Edge 15, Type (0, 1), BuildingBlock: MIFKUJ_clean_linker_0, # of connection points: 2
#     Edge 16, Type (0, 1), BuildingBlock: MIFKUJ_clean_linker_0, # of connection points: 2
#     Edge 17, Type (0, 1), BuildingBlock: MIFKUJ_clean_linker_0, # of connection points: 2
#     Edge 18, Type (0, 1), BuildingBlock: MIFKUJ_clean_linker_0, # of connection points: 2
#     Edge 19, Type (0, 1), BuildingBlock: MIFKUJ_clean_linker_0, # of connection points: 2
#     Edge 20, Type (0, 1), BuildingBlock: MIFKUJ_clean_linker_0, # of connection points: 2
#     Edge 21, Type (0, 1), BuildingBlock: MIFKUJ_clean_linker_0, # of connection points: 2
#     Edge 22, Type (0, 1), BuildingBlock: MIFKUJ_clean_linker_0, # of connection points: 2
#     Edge 23, Type (0, 1), BuildingBlock: MIFKUJ_clean_linker_0, # of connection points: 2
#     Edge 24, Type (0, 1), BuildingBlock: MIFKUJ_clean_linker_0, # of connection points: 2
#     Edge 25, Type (0, 1), BuildingBlock: MIFKUJ_clean_linker_0, # of connection points: 2
#     Edge 26, Type (0, 1), BuildingBlock: MIFKUJ_clean_linker_0, # of connection points: 2
#     Edge 27, Type (0, 1), BuildingBlock: MIFKUJ_clean_linker_0, # of connection points: 2
#     Edge 28, Type (0, 1), BuildingBlock: MIFKUJ_clean_linker_0, # of connection points: 2
#     Edge 29, Type (0, 1), BuildingBlock: MIFKUJ_clean_linker_0, # of connection points: 2
#     Edge 30, Type (0, 1), BuildingBlock: MIFKUJ_clean_linker_0, # of connection points: 2
#     Edge 31, Type (0, 1), BuildingBlock: MIFKUJ_clean_linker_0, # of connection points: 2
#     Edge 32, Type (0, 1), BuildingBlock: MIFKUJ_clean_linker_0, # of connection points: 2
#     Edge 33, Type (0, 1), BuildingBlock: MIFKUJ_clean_linker_0, # of connection points: 2
#     Edge 34, Type (0, 1), BuildingBlock: MIFKUJ_clean_linker_0, # of connection points: 2
#     Edge 35, Type (0, 1), BuildingBlock: MIFKUJ_clean_linker_0, # of connection points: 2
# Relax obj value: 0.117
# Max RMSD: 0.264
# Mean RMSD: 0.191
data_MOF--net-pyr--node1-BETDEL_clean_sbu_0--node2-QEWDON_clean_linker_0--edge1-MIFKUJ_clean_linker_0
_symmetry_space_group_name_H-M    P1
_symmetry_Int_Tables_number       1
_symmetry_cell_setting            triclinic
loop_
_symmetry_equiv_pos_as_xyz
'x, y, z'
_cell_length_a     47.334927
_cell_length_b     49.578311
_cell_length_c     48.642125
_cell_angle_alpha  91.946267
_cell_angle_beta   89.987644
_cell_angle_gamma 103.65695
loop_
_atom_site_label
_atom_site_type_symbol
_atom_site_fract_x
_atom_site_fract_y
_atom_site_fract_z
_atom_type_partial_charge
H0 H 0.24936 0.23163 0.15823 0.0
C1 C 0.23491 0.22365 0.17491 0.0
C2 C 0.23695 0.19879 0.1868 0.0
C3 C 0.21572 0.23921 0.18537 0.0
H4 H 0.22067 0.17002 0.21848 0.0
C5 C 0.21908 0.18917 0.20915 0.0
C6 C 0.19916 0.20397 0.21955 0.0
C7 C 0.19731 0.22887 0.20727 0.0
C8 C 0.21824 0.26783 0.17568 0.0
H9 H 0.18296 0.24103 0.21585 0.0
C10 C 0.19402 0.27709 0.16621 0.0
C11 C 0.19807 0.30392 0.15564 0.0
C12 C 0.24598 0.28605 0.17541 0.0
H13 H 0.26484 0.27964 0.18294 0.0
C14 C 0.24978 0.31267 0.16549 0.0
H15 H 0.17253 0.2633 0.16616 0.0
C16 C 0.22606 0.32151 0.15548 0.0
H17 H 0.22954 0.3422 0.14755 0.0
H18 H 0.27125 0.32645 0.16537 0.0
H19 H 0.2934 0.88897 0.74447 0.0
C20 C 0.30665 0.87622 0.73498 0.0
C21 C 0.33377 0.87576 0.74678 0.0
C22 C 0.296 0.85916 0.7117 0.0
H23 H 0.37045 0.8568 0.74444 0.0
C24 C 0.35006 0.85802 0.73499 0.0
C25 C 0.33982 0.84102 0.71172 0.0
C26 C 0.31304 0.84205 0.69997 0.0
C27 C 0.26542 0.85557 0.70212 0.0
H28 H 0.30467 0.82835 0.68248 0.0
C29 C 0.25401 0.87805 0.69397 0.0
C30 C 0.22473 0.87332 0.68494 0.0
C31 C 0.2473 0.82864 0.70125 0.0
H32 H 0.25539 0.81111 0.70762 0.0
C33 C 0.21855 0.82397 0.69243 0.0
H34 H 0.26778 0.8989 0.69452 0.0
C35 C 0.20735 0.84601 0.68428 0.0
H36 H 0.18506 0.84156 0.67695 0.0
H37 H 0.20489 0.80309 0.69177 0.0
H38 H 0.65924 0.43933 0.92541 0.0
C39 C 0.6521 0.41867 0.9333 0.0
C40 C 0.67265 0.40519 0.94362 0.0
C41 C 0.62229 0.40589 0.9337 0.0
H42 H 0.67863 0.36874 0.96348 0.0
C43 C 0.66301 0.37862 0.95427 0.0
C44 C 0.63335 0.36522 0.95425 0.0
C45 C 0.61317 0.37903 0.94377 0.0
C46 C 0.6005 0.42091 0.92461 0.0
H47 H 0.59025 0.36882 0.94316 0.0
C48 C 0.60431 0.43563 0.90012 0.0
C49 C 0.58369 0.45007 0.89176 0.0
C50 C 0.57582 0.42083 0.94072 0.0
H51 H 0.57252 0.40995 0.95983 0.0
C52 C 0.55537 0.43517 0.93257 0.0
H53 H 0.62326 0.43577 0.88756 0.0
C54 C 0.55921 0.4497 0.90827 0.0
H55 H 0.54274 0.46026 0.90217 0.0
H56 H 0.53644 0.43498 0.94511 0.0
H57 H 0.8544 0.73967 0.34111 0.0
C58 C 0.84062 0.72859 0.35688 0.0
C59 C 0.84628 0.73643 0.38478 0.0
C60 C 0.81649 0.70717 0.34921 0.0
H61 H 0.83146 0.72853 0.42642 0.0
C62 C 0.82801 0.72198 0.40494 0.0
C63 C 0.8039 0.70055 0.3975 0.0
C64 C 0.79827 0.69327 0.3696 0.0
C65 C 0.80927 0.69991 0.31991 0.0
H66 H 0.7796 0.67676 0.36371 0.0
C67 C 0.82974 0.69245 0.30209 0.0
C68 C 0.8219 0.68336 0.27484 0.0
C69 C 0.7812 0.69915 0.31 0.0
H70 H 0.76514 0.70496 0.32337 0.0
C71 C 0.7736 0.69085 0.28278 0.0
H72 H 0.85124 0.69245 0.3098 0.0
C73 C 0.79373 0.68278 0.26532 0.0
H74 H 0.78728 0.67606 0.24435 0.0
H75 H 0.75194 0.69034 0.2753 0.0
H76 H 0.82406 0.84385 0.92433 0.0
C77 C 0.83593 0.85523 0.90765 0.0
C78 C 0.86444 0.85293 0.90155 0.0
C79 C 0.8219 0.87106 0.89141 0.0
H80 H 0.90038 0.86528 0.87353 0.0
C81 C 0.87897 0.86765 0.8793 0.0
C82 C 0.8652 0.88375 0.86298 0.0
C83 C 0.83664 0.88532 0.86929 0.0
C84 C 0.7902 0.86812 0.89379 0.0
H85 H 0.82541 0.89693 0.8564 0.0
C86 C 0.77808 0.88425 0.91282 0.0
C87 C 0.74758 0.88101 0.9139 0.0
C88 C 0.77189 0.84891 0.87597 0.0
H89 H 0.7809 0.83643 0.86119 0.0
C90 C 0.74191 0.84569 0.87688 0.0
H91 H 0.79224 0.89905 0.92663 0.0
C92 C 0.72983 0.86162 0.89555 0.0
H93 H 0.70646 0.85903 0.89526 0.0
H94 H 0.72796 0.83093 0.8629 0.0
H95 H 0.74942 0.21389 0.46233 0.0
C96 C 0.74022 0.20994 0.44177 0.0
C97 C 0.75275 0.19474 0.42228 0.0
C98 C 0.71529 0.21939 0.43546 0.0
H99 H 0.74895 0.17702 0.38092 0.0
C100 C 0.74024 0.18964 0.39577 0.0
C101 C 0.71516 0.19886 0.389 0.0
C102 C 0.7031 0.21409 0.40896 0.0
C103 C 0.69964 0.23059 0.45801 0.0
H104 H 0.68344 0.22073 0.4043 0.0
C105 C 0.69305 0.25697 0.45726 0.0
C106 C 0.67917 0.26703 0.47988 0.0
C107 C 0.69138 0.21421 0.48099 0.0
H108 H 0.6959 0.19383 0.48192 0.0
C109 C 0.67698 0.2237 0.50286 0.0
H110 H 0.69956 0.26985 0.43973 0.0
C111 C 0.67096 0.24983 0.50238 0.0
H112 H 0.65965 0.25657 0.51971 0.0
H113 H 0.67053 0.21077 0.52034 0.0
H114 H 0.41763 0.73378 0.23448 0.0
C115 C 0.3953 0.72827 0.22719 0.0
C116 C 0.38209 0.74894 0.21783 0.0
C117 C 0.38019 0.70022 0.2257 0.0
H118 H 0.34336 0.75667 0.19925 0.0
C119 C 0.35346 0.74117 0.20754 0.0
C120 C 0.33816 0.71332 0.20635 0.0
C121 C 0.35155 0.69295 0.21562 0.0
C122 C 0.39501 0.67804 0.2318 0.0
H123 H 0.34014 0.67123 0.21386 0.0
C124 C 0.40523 0.67534 0.25842 0.0
C125 C 0.41769 0.65298 0.26429 0.0
C126 C 0.39787 0.65871 0.21085 0.0
H127 H 0.39009 0.66051 0.19019 0.0
C128 C 0.4107 0.6369 0.21637 0.0
H129 H 0.40298 0.69031 0.27454 0.0
C130 C 0.4204 0.6339 0.2429 0.0
H131 H 0.42936 0.6162 0.24676 0.0
H132 H 0.41272 0.62201 0.20013 0.0
H133 H 0.2256 0.41443 0.74948 0.0
C134 C 0.21187 0.39749 0.73752 0.0
C135 C 0.21619 0.39481 0.70908 0.0
C136 C 0.1914 0.37712 0.7509 0.0
H137 H 0.203 0.3697 0.6722 0.0
C138 C 0.19913 0.37205 0.69402 0.0
C139 C 0.17805 0.35184 0.70709 0.0
C140 C 0.17434 0.35467 0.73561 0.0
C141 C 0.18942 0.37771 0.78116 0.0
H142 H 0.1583 0.33928 0.74616 0.0
C143 C 0.18055 0.39937 0.79542 0.0
C144 C 0.17674 0.39858 0.8241 0.0
C145 C 0.19538 0.35573 0.79579 0.0
H146 H 0.20229 0.33889 0.78509 0.0
C147 C 0.19246 0.35531 0.8243 0.0
H148 H 0.17535 0.41604 0.78407 0.0
C149 C 0.18303 0.37649 0.83841 0.0
H150 H 0.18054 0.37557 0.86052 0.0
H151 H 0.19717 0.33834 0.83546 0.0
Dy152 Dy 0.02867 0.05911 0.50801 0.0
C153 C 0.98338 0.00933 0.61219 0.0
C154 C 0.05091 0.08662 0.46207 0.0
Dy155 Dy 0.99783 0.03581 0.56387 0.0
O156 O 0.06582 0.08355 0.48368 0.0
O157 O 0.02356 0.07482 0.4656 0.0
O158 O 0.05699 0.02848 0.51071 0.0
O159 O 0.04166 0.0439 0.54679 0.0
C160 C 0.05542 0.02683 0.5373 0.0
C161 C 0.96345 0.06143 0.5347 0.0
O162 O 0.02182 0.07807 0.57851 0.0
O163 O 0.03585 0.09734 0.53581 0.0
O164 O 0.96875 0.00368 0.5893 0.0
O165 O 0.00624 0.0294 0.60868 0.0
O166 O 0.9566 0.05098 0.55862 0.0
O167 O 0.98798 0.05736 0.52864 0.0
O168 O 0.99818 0.01986 0.49317 0.0
O169 O 0.9937 0.99843 0.53537 0.0
C170 C 0.03354 0.09937 0.56305 0.0
C171 C 0.99063 0.99748 0.50817 0.0
Dy172 Dy 0.52954 0.06066 0.09485 0.0
C173 C 0.46332 0.00621 1.00091 0.0
C174 C 0.5595 0.09081 0.13849 0.0
Dy175 Dy 0.49134 0.03567 0.04584 0.0
O176 O 0.53501 0.0725 0.13992 0.0
O177 O 0.56774 0.09296 0.11297 0.0
O178 O 0.53147 0.01847 0.10754 0.0
O179 O 0.49325 0.02378 0.08872 0.0
C180 C 0.50595 0.00619 0.09798 0.0
C181 C 0.5158 0.09007 0.04335 0.0
O182 O 0.45752 0.04915 0.07105 0.0
O183 O 0.49055 0.07937 0.09979 0.0
O184 O 0.48803 0.02434 1.00062 0.0
O185 O 0.45372 0.00388 0.02602 0.0
O186 O 0.49037 0.07852 0.03314 0.0
O187 O 0.52769 0.07193 0.05228 0.0
O188 O 0.5631 0.04767 0.06841 0.0
O189 O 0.52928 0.01567 0.04221 0.0
C190 C 0.46369 0.06938 0.09018 0.0
C191 C 0.55645 0.0264 0.05043 0.0
Dy192 Dy 0.53194 0.54078 0.56617 0.0
C193 C 0.48592 0.6322 0.61174 0.0
C194 C 0.55922 0.50094 0.5465 0.0
Dy195 Dy 0.51406 0.5929 0.59267 0.0
O196 O 0.53578 0.49639 0.56122 0.0
O197 O 0.56784 0.5274 0.54242 0.0
O198 O 0.48463 0.51904 0.5624 0.0
O199 O 0.49893 0.54811 0.59482 0.0
C200 C 0.47688 0.5328 0.58317 0.0
C201 C 0.56896 0.60118 0.57525 0.0
O202 O 0.52997 0.57639 0.63016 0.0
O203 O 0.55373 0.54574 0.60784 0.0
O204 O 0.50437 0.63528 0.59165 0.0
O205 O 0.48288 0.60761 0.62153 0.0
O206 O 0.56122 0.61548 0.59562 0.0
O207 O 0.54684 0.58559 0.56403 0.0
O208 O 0.51754 0.55863 0.52872 0.0
O209 O 0.4906 0.58595 0.55176 0.0
C210 C 0.54742 0.55902 0.63039 0.0
C211 C 0.49851 0.57445 0.52881 0.0
Dy212 Dy 0.02347 0.54331 0.04705 0.0
C213 C 0.99235 0.64516 0.01715 0.0
C214 C 0.044 0.49787 0.05987 0.0
Dy215 Dy 0.01349 0.59951 0.02771 0.0
O216 O 0.0299 0.51101 0.07635 0.0
O217 O 0.04677 0.50943 0.0361 0.0
O218 O 0.98694 0.541 0.0768 0.0
O219 O 0.01323 0.58002 0.06721 0.0
C220 C 0.99105 0.56776 0.08008 0.0
C221 C 0.04418 0.57406 0.99351 0.0
O222 O 0.05019 0.61439 0.05748 0.0
O223 O 0.06641 0.57371 0.055 0.0
O224 O 0.01824 0.64232 0.0111 0.0
O225 O 0.97812 0.6232 0.02935 0.0
O226 O 0.04758 0.60082 0.99495 0.0
O227 O 0.02294 0.56276 0.00786 0.0
O228 O 0.98413 0.52684 0.02085 0.0
O229 O 0.97112 0.5691 0.01697 0.0
C230 C 0.07059 0.60059 0.06141 0.0
C231 C 0.96532 0.54156 0.01393 0.0
H232 H 0.2187 0.1877 0.26744 0.0
H233 H 0.19042 0.16881 0.30726 0.0
H234 H 0.11199 0.17833 0.2676 0.0
H235 H 0.14058 0.19807 0.22775 0.0
H236 H 0.11033 0.19146 0.32059 0.0
H237 H 0.12951 0.11418 0.26966 0.0
H238 H 0.15913 0.08674 0.24469 0.0
H239 H 0.20829 0.08396 0.31828 0.0
H240 H 0.17925 0.11175 0.34361 0.0
H241 H 0.02262 0.09839 0.41638 0.0
H242 H 0.04469 0.11935 0.37401 0.0
H243 H 0.13009 0.12564 0.40836 0.0
H244 H 0.10825 0.10503 0.45061 0.0
H245 H 0.12353 0.10223 0.35525 0.0
H246 H 0.10444 0.18223 0.40492 0.0
H247 H 0.0732 0.20867 0.42894 0.0
H248 H 0.02098 0.20396 0.35597 0.0
H249 H 0.0517 0.17714 0.33162 0.0
C250 C 0.19541 0.18576 0.26717 0.0
C251 C 0.18179 0.194 0.24429 0.0
C252 C 0.17922 0.17488 0.28994 0.0
C253 C 0.14889 0.17143 0.29024 0.0
C254 C 0.13532 0.18058 0.26782 0.0
C255 C 0.15164 0.19184 0.24507 0.0
C256 C 0.13162 0.15791 0.31384 0.0
C257 C 0.11287 0.17172 0.32785 0.0
C258 C 0.13494 0.13218 0.32358 0.0
C259 C 0.15233 0.11524 0.30848 0.0
C260 C 0.14676 0.10787 0.28048 0.0
C261 C 0.16343 0.09224 0.26626 0.0
C262 C 0.18561 0.08366 0.27987 0.0
C263 C 0.19112 0.09064 0.30776 0.0
C264 C 0.17453 0.10631 0.32206 0.0
C265 C 0.04609 0.10442 0.41489 0.0
C266 C 0.06373 0.10011 0.43678 0.0
C267 C 0.05867 0.11642 0.39073 0.0
C268 C 0.08906 0.12412 0.38803 0.0
C269 C 0.10661 0.11984 0.40994 0.0
C270 C 0.09409 0.10814 0.43412 0.0
C271 C 0.10286 0.13608 0.36226 0.0
C272 C 0.12087 0.12186 0.3478 0.0
C273 C 0.09853 0.16119 0.35197 0.0
C274 C 0.08016 0.17741 0.36655 0.0
C275 C 0.08614 0.18662 0.39407 0.0
C276 C 0.06856 0.20172 0.40773 0.0
C277 C 0.04506 0.20792 0.39401 0.0
C278 C 0.03915 0.1991 0.36658 0.0
C279 C 0.05666 0.18397 0.35283 0.0
H280 H 0.03148 0.21961 0.40462 0.0
H281 H 0.19851 0.07156 0.26883 0.0
H282 H 0.38817 0.90793 0.7576 0.0
H283 H 0.4076 0.93009 0.80149 0.0
H284 H 0.32351 0.90166 0.83861 0.0
H285 H 0.30381 0.8799 0.79443 0.0
H286 H 0.34822 0.95222 0.8583 0.0
H287 H 0.37859 0.86732 0.84678 0.0
H288 H 0.40059 0.83279 0.82282 0.0
H289 H 0.48299 0.89201 0.82188 0.0
H290 H 0.46137 0.92706 0.84545 0.0
H291 H 0.40762 0.97396 0.99595 0.0
H292 H 0.38305 0.95145 0.95369 0.0
H293 H 0.46103 0.98295 0.9076 0.0
H294 H 0.48547 0.00543 0.94952 0.0
H295 H 0.43691 0.92828 0.89444 0.0
H296 H 0.40493 0.01361 0.90459 0.0
H297 H 0.38223 0.04746 0.92886 0.0
H298 H 0.30192 0.98566 0.9336 0.0
H299 H 0.32429 0.95132 0.90968 0.0
C300 C 0.37376 0.90661 0.77507 0.0
C301 C 0.34451 0.892 0.77259 0.0
C302 C 0.38492 0.91918 0.80021 0.0
C303 C 0.36725 0.91701 0.82365 0.0
C304 C 0.33766 0.90352 0.82092 0.0
C305 C 0.32639 0.89116 0.79563 0.0
C306 C 0.37996 0.92802 0.85104 0.0
C307 C 0.36735 0.94663 0.86636 0.0
C308 C 0.40512 0.92101 0.86162 0.0
C309 C 0.41828 0.89989 0.84768 0.0
C310 C 0.40136 0.87304 0.84131 0.0
C311 C 0.41376 0.85337 0.8278 0.0
C312 C 0.44316 0.86022 0.82078 0.0
C313 C 0.46022 0.88674 0.82731 0.0
C314 C 0.4479 0.90652 0.84075 0.0
C315 C 0.41948 0.97595 0.97679 0.0
C316 C 0.44842 0.99149 0.976 0.0
C317 C 0.40541 0.96321 0.95265 0.0
C318 C 0.42012 0.96568 0.92738 0.0
C319 C 0.44921 0.98075 0.92679 0.0
C320 C 0.46314 0.99364 0.95077 0.0
C321 C 0.40545 0.95275 0.90143 0.0
C322 C 0.41767 0.93371 0.88642 0.0
C323 C 0.37985 0.95919 0.8913 0.0
C324 C 0.36638 0.97981 0.90563 0.0
C325 C 0.38251 0.00717 0.91102 0.0
C326 C 0.36969 0.02646 0.92467 0.0
C327 C 0.34068 0.01869 0.93285 0.0
C328 C 0.3244 0.99164 0.92731 0.0
C329 C 0.33714 0.97226 0.91369 0.0
H330 H 0.33079 0.03366 0.9434 0.0
H331 H 0.45272 0.84496 0.81032 0.0
H332 H 0.57479 0.50149 0.88259 0.0
H333 H 0.57531 0.52385 0.83852 0.0
H334 H 0.60078 0.45482 0.79765 0.0
H335 H 0.6002 0.43223 0.84172 0.0
H336 H 0.62874 0.50543 0.77652 0.0
H337 H 0.53139 0.45612 0.79769 0.0
H338 H 0.48777 0.44336 0.82658 0.0
H339 H 0.47936 0.52776 0.82799 0.0
H340 H 0.52322 0.5411 0.79943 0.0
H341 H 0.57617 0.51859 0.64119 0.0
H342 H 0.58901 0.50445 0.68617 0.0
H343 H 0.55698 0.57063 0.72532 0.0
H344 H 0.54352 0.58459 0.68048 0.0
H345 H 0.53422 0.52293 0.74792 0.0
H346 H 0.63044 0.57162 0.7237 0.0
H347 H 0.67369 0.58351 0.69423 0.0
H348 H 0.68401 0.49993 0.69752 0.0
H349 H 0.64057 0.48742 0.72671 0.0
C350 C 0.58063 0.49112 0.86424 0.0
C351 C 0.58708 0.46493 0.86555 0.0
C352 C 0.58104 0.50397 0.83911 0.0
C353 C 0.58769 0.49079 0.8148 0.0
C354 C 0.59561 0.46532 0.8162 0.0
C355 C 0.59527 0.45246 0.84138 0.0
C356 C 0.58416 0.50257 0.78778 0.0
C357 C 0.60806 0.50909 0.77009 0.0
C358 C 0.55726 0.50768 0.77967 0.0
C359 C 0.53076 0.49966 0.79667 0.0
C360 C 0.52037 0.472 0.80434 0.0
C361 C 0.49559 0.46465 0.82063 0.0
C362 C 0.48085 0.48475 0.82918 0.0
C363 C 0.49082 0.51222 0.82139 0.0
C364 C 0.51563 0.51969 0.80514 0.0
C365 C 0.57225 0.53044 0.65931 0.0
C366 C 0.55859 0.55261 0.65722 0.0
C367 C 0.57975 0.52238 0.68504 0.0
C368 C 0.57408 0.53656 0.70913 0.0
C369 C 0.5615 0.55936 0.707 0.0
C370 C 0.55383 0.56732 0.68133 0.0
C371 C 0.57888 0.52617 0.73657 0.0
C372 C 0.55507 0.51965 0.75434 0.0
C373 C 0.60583 0.52102 0.74461 0.0
C374 C 0.63209 0.52853 0.72721 0.0
C375 C 0.6418 0.55572 0.71798 0.0
C376 C 0.66638 0.56258 0.70135 0.0
C377 C 0.68155 0.54248 0.69396 0.0
C378 C 0.67222 0.51548 0.70325 0.0
C379 C 0.64764 0.5085 0.71986 0.0
H380 H 0.70057 0.54783 0.68107 0.0
H381 H 0.46166 0.47902 0.84179 0.0
H382 H 0.81151 0.63485 0.24472 0.0
H383 H 0.84502 0.6177 0.21428 0.0
H384 H 0.91213 0.69142 0.23343 0.0
H385 H 0.87857 0.70869 0.26421 0.0
H386 H 0.9042 0.67656 0.17568 0.0
H387 H 0.91994 0.63624 0.26042 0.0
H388 H 0.90604 0.61052 0.30273 0.0
H389 H 0.86529 0.53759 0.25446 0.0
H390 H 0.87855 0.56301 0.21183 0.0
H391 H 0.00817 0.62043 0.102 0.0
H392 H 0.98392 0.64197 0.13803 0.0
H393 H 0.91479 0.56757 0.13978 0.0
H394 H 0.93976 0.54552 0.10467 0.0
H395 H 0.92909 0.58624 0.19025 0.0
H396 H 0.904 0.6286 0.10736 0.0
H397 H 0.91845 0.65198 0.0639 0.0
H398 H 0.97708 0.71873 0.10804 0.0
H399 H 0.9624 0.69595 0.15189 0.0
C400 C 0.83338 0.64743 0.24238 0.0
C401 C 0.84248 0.67312 0.25669 0.0
C402 C 0.85252 0.63755 0.22515 0.0
C403 C 0.88103 0.65326 0.22177 0.0
C404 C 0.89019 0.67902 0.23587 0.0
C405 C 0.87112 0.68877 0.25347 0.0
C406 C 0.90086 0.64267 0.20305 0.0
C407 C 0.91012 0.65708 0.17911 0.0
C408 C 0.90808 0.61702 0.20732 0.0
C409 C 0.90003 0.60163 0.23292 0.0
C410 C 0.90778 0.6148 0.25881 0.0
C411 C 0.90006 0.60025 0.28286 0.0
C412 C 0.88473 0.57245 0.28128 0.0
C413 C 0.87714 0.55913 0.25565 0.0
C414 C 0.88478 0.57359 0.23154 0.0
C415 C 0.98773 0.60876 0.11002 0.0
C416 C 0.9757 0.58139 0.10056 0.0
C417 C 0.97384 0.6211 0.13054 0.0
C418 C 0.94729 0.60654 0.14137 0.0
C419 C 0.93526 0.57919 0.13179 0.0
C420 C 0.94942 0.56668 0.11165 0.0
C421 C 0.93185 0.61975 0.16255 0.0
C422 C 0.92343 0.60585 0.18697 0.0
C423 C 0.92519 0.64573 0.15867 0.0
C424 C 0.93227 0.66055 0.13276 0.0
C425 C 0.91982 0.64837 0.10776 0.0
C426 C 0.9281 0.66148 0.08307 0.0
C427 C 0.94896 0.68666 0.08315 0.0
C428 C 0.96103 0.69915 0.108 0.0
C429 C 0.95255 0.68629 0.1328 0.0
H430 H 0.95567 0.69661 0.06399 0.0
H431 H 0.87879 0.56122 0.29993 0.0
H432 H 0.24704 0.18286 0.13398 0.0
H433 H 0.28488 0.15977 0.11787 0.0
H434 H 0.3154 0.15911 0.20128 0.0
H435 H 0.27729 0.18169 0.21754 0.0
H436 H 0.35995 0.18031 0.1599 0.0
H437 H 0.28035 0.10169 0.17705 0.0
H438 H 0.22989 0.074 0.17189 0.0
H439 H 0.24133 0.06636 0.08463 0.0
H440 H 0.29176 0.09438 0.08923 0.0
H441 H 0.46086 0.09665 0.13957 0.0
H442 H 0.42192 0.11752 0.1563 0.0
H443 H 0.3748 0.09282 0.08004 0.0
H444 H 0.41296 0.07057 0.06395 0.0
H445 H 0.33791 0.08507 0.11777 0.0
H446 H 0.4158 0.16285 0.0982 0.0
H447 H 0.46539 0.19302 0.10056 0.0
H448 H 0.45698 0.2054 0.18768 0.0
H449 H 0.40754 0.17499 0.18594 0.0
C450 C 0.26175 0.17765 0.14885 0.0
C451 C 0.25915 0.18394 0.17701 0.0
C452 C 0.28329 0.16445 0.13966 0.0
C453 C 0.30292 0.15771 0.1584 0.0
C454 C 0.30047 0.16411 0.1865 0.0
C455 C 0.2786 0.17683 0.19576 0.0
C456 C 0.32625 0.14431 0.14866 0.0
C457 C 0.35526 0.15935 0.15098 0.0
C458 C 0.31996 0.11736 0.13622 0.0
C459 C 0.28972 0.10038 0.13345 0.0
C460 C 0.27202 0.09432 0.15673 0.0
C461 C 0.24345 0.07852 0.15392 0.0
C462 C 0.23239 0.06849 0.12794 0.0
C463 C 0.24991 0.07418 0.10474 0.0
C464 C 0.2785 0.09 0.10744 0.0
C465 C 0.44217 0.09566 0.1264 0.0
C466 C 0.44003 0.082 0.10042 0.0
C467 C 0.41995 0.1078 0.1359 0.0
C468 C 0.3955 0.10739 0.11927 0.0
C469 C 0.39332 0.09354 0.09336 0.0
C470 C 0.41521 0.08083 0.08413 0.0
C471 C 0.37206 0.12102 0.12893 0.0
C472 C 0.34288 0.10606 0.12659 0.0
C473 C 0.37819 0.14833 0.14087 0.0
C474 C 0.40805 0.16643 0.14197 0.0
C475 C 0.42462 0.17182 0.1179 0.0
C476 C 0.45269 0.18899 0.11912 0.0
C477 C 0.46431 0.20107 0.14426 0.0
C478 C 0.44794 0.196 0.16823 0.0
C479 C 0.4199 0.17881 0.16714 0.0
H480 H 0.48595 0.21445 0.1452 0.0
H481 H 0.21026 0.05626 0.1258 0.0
H482 H 0.1719 0.88292 0.6982 0.0
H483 H 0.14579 0.91266 0.67489 0.0
H484 H 0.22128 0.94459 0.62573 0.0
H485 H 0.24758 0.91435 0.64885 0.0
H486 H 0.18854 0.98563 0.64245 0.0
H487 H 0.17406 0.89485 0.59827 0.0
H488 H 0.16196 0.84365 0.59743 0.0
H489 H 0.07662 0.84286 0.62786 0.0
H490 H 0.0884 0.89411 0.62933 0.0
H491 H 0.08442 0.98842 0.51916 0.0
H492 H 0.11537 0.96558 0.54588 0.0
H493 H 0.09666 0.00869 0.61965 0.0
H494 H 0.0656 0.03159 0.59294 0.0
H495 H 0.10366 0.93103 0.58887 0.0
H496 H 0.15961 0.0238 0.66002 0.0
H497 H 0.17295 0.07502 0.65984 0.0
H498 H 0.17768 0.07199 0.57167 0.0
H499 H 0.16477 0.02079 0.57135 0.0
C500 C 0.18317 0.89659 0.68274 0.0
C501 C 0.2117 0.89594 0.6751 0.0
C502 C 0.1682 0.91363 0.66947 0.0
C503 C 0.18139 0.93054 0.64827 0.0
C504 C 0.21065 0.93166 0.64202 0.0
C505 C 0.2257 0.91444 0.6553 0.0
C506 C 0.16357 0.94462 0.631 0.0
C507 C 0.16997 0.97373 0.63077 0.0
C508 C 0.13951 0.92912 0.61544 0.0
C509 C 0.1322 0.89831 0.61413 0.0
C510 C 0.15278 0.88376 0.60496 0.0
C511 C 0.14598 0.85473 0.60436 0.0
C512 C 0.11856 0.84001 0.61265 0.0
C513 C 0.09786 0.85429 0.62148 0.0
C514 C 0.10458 0.88333 0.62219 0.0
C515 C 0.08679 0.99292 0.5411 0.0
C516 C 0.07263 0.01183 0.55394 0.0
C517 C 0.10447 0.97983 0.55636 0.0
C518 C 0.10866 0.98561 0.58475 0.0
C519 C 0.09409 0.00415 0.59773 0.0
C520 C 0.07619 0.01709 0.58248 0.0
C521 C 0.12823 0.97214 0.60062 0.0
C522 C 0.12215 0.94303 0.6006 0.0
C523 C 0.15267 0.9877 0.61572 0.0
C524 C 0.16093 0.01847 0.61568 0.0
C525 C 0.16362 0.03408 0.64061 0.0
C526 C 0.17109 0.0631 0.64059 0.0
C527 C 0.17606 0.07675 0.61576 0.0
C528 C 0.1737 0.0614 0.59089 0.0
C529 C 0.16628 0.03238 0.5908 0.0
H530 H 0.18181 0.09921 0.61579 0.0
H531 H 0.11333 0.81753 0.61217 0.0
H532 H 0.69766 0.45975 0.95696 0.0
H533 H 0.74939 0.48164 0.96208 0.0
H534 H 0.77055 0.40408 0.93878 0.0
H535 H 0.71884 0.38213 0.93283 0.0
H536 H 0.79693 0.42775 0.98748 0.0
H537 H 0.78591 0.45497 0.89558 0.0
H538 H 0.76344 0.47496 0.858 0.0
H539 H 0.7821 0.55418 0.90125 0.0
H540 H 0.80431 0.53457 0.93932 0.0
H541 H 0.94847 0.48749 0.99494 0.0
H542 H 0.90067 0.46317 0.977 0.0
H543 H 0.86987 0.53796 0.98903 0.0
H544 H 0.9177 0.56259 0.00626 0.0
H545 H 0.84991 0.51274 0.94184 0.0
H546 H 0.85549 0.48514 0.03545 0.0
H547 H 0.87683 0.46587 0.0743 0.0
H548 H 0.86701 0.38819 0.02921 0.0
H549 H 0.84595 0.40714 0.98993 0.0
C550 C 0.71329 0.44748 0.95227 0.0
C551 C 0.70409 0.41915 0.94458 0.0
C552 C 0.74285 0.46001 0.9553 0.0
C553 C 0.76373 0.44447 0.95073 0.0
C554 C 0.75472 0.41638 0.94247 0.0
C555 C 0.72518 0.40387 0.93922 0.0
C556 C 0.79481 0.45714 0.9564 0.0
C557 C 0.80874 0.44601 0.97714 0.0
C558 C 0.80985 0.48132 0.94331 0.0
C559 C 0.79657 0.49322 0.92042 0.0
C560 C 0.78501 0.4766 0.8972 0.0
C561 C 0.77235 0.48787 0.87578 0.0
C562 C 0.77128 0.51581 0.87726 0.0
C563 C 0.78292 0.53254 0.90014 0.0
C564 C 0.79558 0.52136 0.92163 0.0
C565 C 0.93155 0.49879 0.99367 0.0
C566 C 0.93682 0.52692 1.0022 0.0
C567 C 0.90424 0.48484 0.98345 0.0
C568 C 0.88159 0.49866 0.98203 0.0
C569 C 0.88703 0.5269 0.98992 0.0
C570 C 0.91438 0.54092 0.99986 0.0
C571 C 0.85193 0.48359 0.97323 0.0
C572 C 0.83823 0.49428 0.95195 0.0
C573 C 0.83696 0.45912 0.986 0.0
C574 C 0.84946 0.44765 0.00965 0.0
C575 C 0.85808 0.46402 0.03375 0.0
C576 C 0.87009 0.45314 0.05586 0.0
C577 C 0.87335 0.42585 0.05419 0.0
C578 C 0.86452 0.40934 0.03045 0.0
C579 C 0.85253 0.42013 0.00827 0.0
H580 H 0.88266 0.41747 0.07133 0.0
H581 H 0.76148 0.5245 0.86066 0.0
H582 H 0.74505 0.69224 0.39675 0.0
H583 H 0.71095 0.67321 0.43289 0.0
H584 H 0.78188 0.66046 0.48246 0.0
H585 H 0.81632 0.67967 0.44625 0.0
H586 H 0.72869 0.61414 0.47914 0.0
H587 H 0.76038 0.71206 0.50091 0.0
H588 H 0.77113 0.76161 0.48995 0.0
H589 H 0.68186 0.75375 0.46725 0.0
H590 H 0.67063 0.704 0.47761 0.0
H591 H 0.61835 0.63684 0.59488 0.0
H592 H 0.66487 0.65127 0.57099 0.0
H593 H 0.63031 0.59589 0.50233 0.0
H594 H 0.58416 0.5813 0.52612 0.0
H595 H 0.67336 0.67724 0.5232 0.0
H596 H 0.68247 0.57372 0.46978 0.0
H597 H 0.66834 0.52375 0.47917 0.0
H598 H 0.67566 0.54269 0.566 0.0
H599 H 0.69017 0.59277 0.55719 0.0
C600 C 0.75334 0.68502 0.41517 0.0
C601 C 0.78328 0.68737 0.41873 0.0
C602 C 0.73389 0.6743 0.43581 0.0
C603 C 0.74401 0.66559 0.46029 0.0
C604 C 0.77376 0.66709 0.46365 0.0
C605 C 0.79334 0.67817 0.44309 0.0
C606 C 0.72334 0.65605 0.48264 0.0
C607 C 0.71677 0.62791 0.48907 0.0
C608 C 0.70814 0.6742 0.49568 0.0
C609 C 0.71471 0.70424 0.48989 0.0
C610 C 0.74308 0.72084 0.49341 0.0
C611 C 0.74926 0.74898 0.48732 0.0
C612 C 0.72722 0.76082 0.47788 0.0
C613 C 0.69892 0.74455 0.47457 0.0
C614 C 0.69262 0.71639 0.48057 0.0
C615 C 0.62093 0.62747 0.57488 0.0
C616 C 0.59777 0.60792 0.56234 0.0
C617 C 0.64743 0.63573 0.56127 0.0
C618 C 0.65114 0.62444 0.53502 0.0
C619 C 0.62817 0.60444 0.5228 0.0
C620 C 0.60177 0.59616 0.53639 0.0
C621 C 0.67804 0.63508 0.5193 0.0
C622 C 0.6857 0.66349 0.51392 0.0
C623 C 0.69421 0.61714 0.50728 0.0
C624 C 0.68728 0.58703 0.5128 0.0
C625 C 0.6814 0.56723 0.49087 0.0
C626 C 0.67324 0.53891 0.49609 0.0
C627 C 0.67102 0.53013 0.52314 0.0
C628 C 0.6773 0.54958 0.54506 0.0
C629 C 0.68548 0.57794 0.53997 0.0
H630 H 0.66428 0.50826 0.52711 0.0
H631 H 0.73207 0.7826 0.47317 0.0
H632 H 0.18964 0.31312 0.10211 0.0
H633 H 0.15797 0.34082 0.08367 0.0
H634 H 0.12248 0.34826 0.16451 0.0
H635 H 0.15386 0.31988 0.18285 0.0
H636 H 0.08101 0.3453 0.12403 0.0
H637 H 0.17841 0.39771 0.14298 0.0
H638 H 0.23186 0.40781 0.13999 0.0
H639 H 0.22656 0.41442 0.05244 0.0
H640 H 0.17301 0.40386 0.05485 0.0
H641 H 0.03902 0.47281 0.10912 0.0
H642 H 0.06052 0.43512 0.12315 0.0
H643 H 0.09776 0.43165 0.04252 0.0
H644 H 0.07652 0.46977 0.0285 0.0
H645 H 0.13709 0.43106 0.08166 0.0
H646 H 0.03902 0.38083 0.06338 0.0
H647 H 0.98563 0.37082 0.06711 0.0
H648 H 0.99205 0.36092 0.15407 0.0
H649 H 0.04553 0.37125 0.15093 0.0
C650 C 0.17434 0.31989 0.1157 0.0
C651 C 0.17397 0.31428 0.14382 0.0
C652 C 0.15644 0.33592 0.10523 0.0
C653 C 0.13826 0.34715 0.1228 0.0
C654 C 0.13636 0.3399 0.15057 0.0
C655 C 0.15417 0.32361 0.16103 0.0
C656 C 0.12356 0.36848 0.11272 0.0
C657 C 0.09327 0.36417 0.115 0.0
C658 C 0.13948 0.39297 0.10052 0.0
C659 C 0.17169 0.39973 0.09906 0.0
C660 C 0.18863 0.40114 0.12306 0.0
C661 C 0.21894 0.40695 0.12148 0.0
C662 C 0.23259 0.4117 0.09604 0.0
C663 C 0.21596 0.4107 0.07213 0.0
C664 C 0.18562 0.40481 0.07359 0.0
C665 C 0.05162 0.46388 0.09431 0.0
C666 C 0.05604 0.47418 0.06768 0.0
C667 C 0.06378 0.44221 0.10231 0.0
C668 C 0.0805 0.43021 0.08382 0.0
C669 C 0.08487 0.44046 0.05715 0.0
C670 C 0.07267 0.46218 0.04911 0.0
C671 C 0.09443 0.40788 0.09276 0.0
C672 C 0.1247 0.41209 0.09044 0.0
C673 C 0.07847 0.38342 0.10502 0.0
C674 C 0.0463 0.37705 0.10695 0.0
C675 C 0.02906 0.37672 0.08333 0.0
C676 C 0.99878 0.37095 0.08533 0.0
C677 C 0.98546 0.3653 0.11082 0.0
C678 C 1.0024 0.36532 0.13434 0.0
C679 C 0.0327 0.3711 0.13246 0.0
H680 H 0.96201 0.36085 0.11232 0.0
H681 H 0.25607 0.4162 0.09485 0.0
H682 H 0.6605 0.32201 0.95076 0.0
H683 H 0.64476 0.27627 0.97009 0.0
H684 H 0.56731 0.29794 1.00115 0.0
H685 H 0.58404 0.34453 0.98387 0.0
H686 H 0.58618 0.27014 0.03762 0.0
H687 H 0.56861 0.25684 0.94027 0.0
H688 H 0.58095 0.25964 0.89102 0.0
H689 H 0.64376 0.21109 0.90288 0.0
H690 H 0.63204 0.2083 0.9523 0.0
H691 H 0.49097 0.13305 0.03515 0.0
H692 H 0.51558 0.18082 0.02454 0.0
H693 H 0.59873 0.1599 0.03048 0.0
H694 H 0.57424 0.11223 0.04205 0.0
H695 H 0.58088 0.18624 0.9774 0.0
H696 H 0.59393 0.19757 0.07567 0.0
H697 H 0.5773 0.19341 0.1237 0.0
H698 H 0.5178 0.24456 0.10813 0.0
H699 H 0.53372 0.24861 0.05984 0.0
C700 C 0.64035 0.31729 0.9621 0.0
C701 C 0.6235 0.33705 0.9656 0.0
C702 C 0.63117 0.29092 0.97283 0.0
C703 C 0.60457 0.28343 0.98664 0.0
C704 C 0.58786 0.30316 0.99046 0.0
C705 C 0.59728 0.32972 0.98019 0.0
C706 C 0.59392 0.25497 0.99686 0.0
C707 C 0.58486 0.25185 0.02434 0.0
C708 C 0.5926 0.23098 0.97974 0.0
C709 C 0.59968 0.23263 0.95003 0.0
C710 C 0.58521 0.24695 0.93241 0.0
C711 C 0.59207 0.2485 0.90447 0.0
C712 C 0.61319 0.23563 0.89385 0.0
C713 C 0.62744 0.2211 0.91115 0.0
C714 C 0.62069 0.21951 0.93912 0.0
C715 C 0.51451 0.13879 0.03453 0.0
C716 C 0.53079 0.11912 0.03926 0.0
C717 C 0.52848 0.16598 0.02854 0.0
C718 C 0.55886 0.17367 0.02674 0.0
C719 C 0.57524 0.15419 0.03186 0.0
C720 C 0.56128 0.12712 0.03851 0.0
C721 C 0.57314 0.20169 0.01786 0.0
C722 C 0.58266 0.20464 0.99064 0.0
C723 C 0.57439 0.22546 0.03502 0.0
C724 C 0.56484 0.22318 0.06407 0.0
C725 C 0.57708 0.20769 0.0824 0.0
C726 C 0.56783 0.2054 0.1097 0.0
C727 C 0.54647 0.21867 0.11896 0.0
C728 C 0.53433 0.23427 0.10093 0.0
C729 C 0.54348 0.23659 0.0736 0.0
H730 H 0.53943 0.21693 0.14012 0.0
H731 H 0.61846 0.23685 0.87221 0.0
H732 H 0.88473 0.7428 0.42787 0.0
H733 H 0.91533 0.78639 0.44661 0.0
H734 H 0.88961 0.83034 0.37957 0.0
H735 H 0.85879 0.78692 0.36084 0.0
H736 H 0.94819 0.85071 0.39542 0.0
H737 H 0.85288 0.82646 0.43729 0.0
H738 H 0.81319 0.79519 0.46164 0.0
H739 H 0.8705 0.79429 0.52985 0.0
H740 H 0.91067 0.82517 0.50568 0.0
H741 H 0.97059 0.98683 0.45516 0.0
H742 H 0.95119 0.94153 0.4324 0.0
H743 H 0.96644 0.90104 0.50624 0.0
H744 H 0.98502 0.94619 0.52935 0.0
H745 H 0.91536 0.87774 0.48701 0.0
H746 H 0.01006 0.90296 0.44788 0.0
H747 H 0.05131 0.9328 0.42422 0.0
H748 H 0.99809 0.93086 0.35237 0.0
H749 H 0.95636 0.90131 0.37576 0.0
C750 C 0.88596 0.76169 0.4169 0.0
C751 C 0.86907 0.76149 0.39307 0.0
C752 C 0.90348 0.78653 0.42758 0.0
C753 C 0.90431 0.81161 0.4147 0.0
C754 C 0.88923 0.81118 0.38981 0.0
C755 C 0.87169 0.78633 0.3791 0.0
C756 C 0.91832 0.83848 0.42858 0.0
C757 C 0.94094 0.85679 0.41535 0.0
C758 C 0.90918 0.84605 0.45484 0.0
C759 C 0.88485 0.8279 0.46956 0.0
C760 C 0.85706 0.81944 0.4574 0.0
C761 C 0.83448 0.80179 0.47117 0.0
C762 C 0.83935 0.7927 0.49725 0.0
C763 C 0.86678 0.80131 0.50963 0.0
C764 C 0.88946 0.81889 0.49591 0.0
C765 C 0.96992 0.96828 0.46652 0.0
C766 C 0.97932 0.97013 0.49408 0.0
C767 C 0.95897 0.94237 0.45342 0.0
C768 C 0.95771 0.91782 0.46747 0.0
C769 C 0.96719 0.91966 0.49496 0.0
C770 C 0.97781 0.94553 0.50815 0.0
C771 C 0.94546 0.89021 0.45394 0.0
C772 C 0.92293 0.87172 0.46719 0.0
C773 C 0.95494 0.88243 0.42785 0.0
C774 C 0.98 0.90013 0.41368 0.0
C775 C 0.00708 0.90907 0.42711 0.0
C776 C 0.03056 0.92591 0.41373 0.0
C777 C 0.0273 0.93378 0.38683 0.0
C778 C 1.00057 0.92477 0.37322 0.0
C779 C 0.977 0.90796 0.38652 0.0
H780 H 0.04551 0.94682 0.37651 0.0
H781 H 0.82188 0.77904 0.50791 0.0
H782 H 0.35813 0.83385 0.65917 0.0
H783 H 0.38375 0.79924 0.64187 0.0
H784 H 0.38148 0.76603 0.72299 0.0
H785 H 0.35743 0.80165 0.74048 0.0
H786 H 0.4301 0.76502 0.7034 0.0
H787 H 0.33395 0.73466 0.666 0.0
H788 H 0.29011 0.73846 0.6405 0.0
H789 H 0.33996 0.7545 0.56657 0.0
H790 H 0.3842 0.75117 0.59173 0.0
H791 H 0.45495 0.6327 0.65914 0.0
H792 H 0.43061 0.66864 0.67591 0.0
H793 H 0.45769 0.71532 0.60341 0.0
H794 H 0.48256 0.67979 0.58686 0.0
H795 H 0.39685 0.70885 0.61808 0.0
H796 H 0.49316 0.73745 0.65844 0.0
H797 H 0.53468 0.73049 0.68561 0.0
H798 H 0.48022 0.71322 0.75654 0.0
H799 H 0.43825 0.71969 0.72966 0.0
C800 C 0.36325 0.81919 0.67325 0.0
C801 C 0.35584 0.82042 0.70114 0.0
C802 C 0.37769 0.79923 0.66334 0.0
C803 C 0.38413 0.77943 0.68092 0.0
C804 C 0.37689 0.78093 0.70889 0.0
C805 C 0.36309 0.80128 0.71891 0.0
C806 C 0.3985 0.7573 0.67036 0.0
C807 C 0.42245 0.75256 0.68494 0.0
C808 C 0.38902 0.74103 0.64603 0.0
C809 C 0.36244 0.74294 0.63082 0.0
C810 C 0.3356 0.73919 0.64435 0.0
C811 C 0.31067 0.74123 0.62995 0.0
C812 C 0.31226 0.74679 0.60195 0.0
C813 C 0.33877 0.75024 0.58827 0.0
C814 C 0.36377 0.74825 0.60258 0.0
C815 C 0.4557 0.65064 0.64681 0.0
C816 C 0.47073 0.65352 0.62175 0.0
C817 C 0.44184 0.67115 0.65641 0.0
C818 C 0.44241 0.6947 0.64094 0.0
C819 C 0.45696 0.69733 0.61567 0.0
C820 C 0.47123 0.67707 0.60629 0.0
C821 C 0.4281 0.71675 0.65121 0.0
C822 C 0.40427 0.7214 0.63656 0.0
C823 C 0.43725 0.7325 0.67576 0.0
C824 C 0.4625 0.72877 0.69196 0.0
C825 C 0.48998 0.73193 0.67977 0.0
C826 C 0.51361 0.72812 0.69513 0.0
C827 C 0.51007 0.72134 0.72277 0.0
C828 C 0.48291 0.71843 0.73512 0.0
C829 C 0.45921 0.72219 0.71984 0.0
H830 H 0.52839 0.7184 0.73462 0.0
H831 H 0.29294 0.74837 0.59084 0.0
H832 H 0.92131 0.9143 0.85776 0.0
H833 H 0.94483 0.93558 0.81618 0.0
H834 H 0.86527 0.90417 0.77025 0.0
H835 H 0.84183 0.8827 0.81149 0.0
H836 H 0.91311 0.89515 0.74267 0.0
H837 H 0.88448 0.9712 0.79077 0.0
H838 H 0.88304 0.00322 0.83037 0.0
H839 H 0.97597 0.0319 0.82835 0.0
H840 H 0.978 0.99974 0.78894 0.0
H841 H 0.93283 0.97196 0.62242 0.0
H842 H 0.91641 0.95071 0.66592 0.0
H843 H 0.99686 0.99449 0.70487 0.0
H844 H 0.01303 0.01656 0.6613 0.0
H845 H 0.95323 0.99676 0.73755 0.0
H846 H 0.98238 0.92339 0.688 0.0
H847 H 0.98468 0.89132 0.64865 0.0
H848 H 0.89272 0.85703 0.65387 0.0
H849 H 0.88979 0.88916 0.69303 0.0
C850 C 0.9089 0.91191 0.83876 0.0
C851 C 0.87964 0.89701 0.83798 0.0
C852 C 0.9223 0.92419 0.81507 0.0
C853 C 0.90675 0.92163 0.79013 0.0
C854 C 0.87768 0.90648 0.78926 0.0
C855 C 0.86423 0.89442 0.81292 0.0
C856 C 0.92061 0.93456 0.7648 0.0
C857 C 0.92167 0.9174 0.74146 0.0
C858 C 0.93263 0.96347 0.76347 0.0
C859 C 0.93142 0.98284 0.78712 0.0
C860 C 0.90463 0.98415 0.79892 0.0
C861 C 0.9037 0.00236 0.8213 0.0
C862 C 0.9294 0.01952 0.83193 0.0
C863 C 0.95609 0.01856 0.82013 0.0
C864 C 0.95714 1.00036 0.79777 0.0
C865 C 0.9471 0.97696 0.64021 0.0
C866 C 0.97426 0.99581 0.63845 0.0
C867 C 0.93775 0.96468 0.66508 0.0
C868 C 0.95556 0.97057 0.68868 0.0
C869 C 0.98275 0.9895 0.68697 0.0
C870 C 0.99202 1.00202 0.66207 0.0
C871 C 0.94535 0.9574 0.71516 0.0
C872 C 0.94498 0.97448 0.73875 0.0
C873 C 0.93415 0.92834 0.7168 0.0
C874 C 0.93584 0.90885 0.69334 0.0
C875 C 0.96261 0.90914 0.68065 0.0
C876 C 0.96404 0.89093 0.65839 0.0
C877 C 0.93886 0.87218 0.64873 0.0
C878 C 0.91221 0.87157 0.66137 0.0
C879 C 0.91066 0.88975 0.68362 0.0
H880 H 0.94 0.85811 0.63149 0.0
H881 H 0.92864 0.03361 0.84925 0.0
H882 H 0.73912 0.19918 0.33747 0.0
H883 H 0.71409 0.18272 0.29373 0.0
H884 H 0.63209 0.16229 0.33597 0.0
H885 H 0.65693 0.17836 0.37965 0.0
H886 H 0.63923 0.12002 0.30089 0.0
H887 H 0.64913 0.21888 0.29741 0.0
H888 H 0.67606 0.26799 0.29872 0.0
H889 H 0.72664 0.25206 0.22939 0.0
H890 H 0.70026 0.20274 0.2279 0.0
H891 H 0.54006 0.09329 0.19078 0.0
H892 H 0.5677 0.11387 0.23176 0.0
H893 H 0.64437 0.14036 0.18239 0.0
H894 H 0.61626 0.12061 0.14097 0.0
H895 H 0.64266 0.17912 0.22009 0.0
H896 H 0.63274 0.081 0.22215 0.0
H897 H 0.60649 0.03166 0.22027 0.0
H898 H 0.55789 0.04523 0.29184 0.0
H899 H 0.58352 0.09475 0.29391 0.0
C900 C 0.71575 0.19125 0.3374 0.0
C901 C 0.70002 0.19028 0.36206 0.0
C902 C 0.70145 0.18197 0.31237 0.0
C903 C 0.67115 0.1714 0.3115 0.0
C904 C 0.65545 0.17041 0.33608 0.0
C905 C 0.66967 0.17986 0.36103 0.0
C906 C 0.65577 0.16074 0.28516 0.0
C907 C 0.63972 0.13303 0.28333 0.0
C908 C 0.65713 0.17742 0.26191 0.0
C909 C 0.67294 0.20706 0.26274 0.0
C910 C 0.66617 0.2258 0.2826 0.0
C911 C 0.6813 0.25368 0.28334 0.0
C912 C 0.70311 0.26312 0.2642 0.0
C913 C 0.70978 0.24471 0.24423 0.0
C914 C 0.69473 0.21679 0.24341 0.0
C915 C 0.56276 0.10369 0.18861 0.0
C916 C 0.57608 0.10517 0.16273 0.0
C917 C 0.57863 0.11531 0.21211 0.0
C918 C 0.6084 0.12809 0.2104 0.0
C919 C 0.62152 0.13046 0.18435 0.0
C920 C 0.60547 0.11915 0.16069 0.0
C921 C 0.62575 0.13844 0.23589 0.0
C922 C 0.64224 0.16603 0.23758 0.0
C923 C 0.62505 0.12155 0.25898 0.0
C924 C 0.6099 0.09166 0.25804 0.0
C925 C 0.61634 0.0735 0.2374 0.0
C926 C 0.60157 0.0455 0.2363 0.0
C927 C 0.58049 0.03534 0.25589 0.0
C928 C 0.5742 0.05314 0.27667 0.0
C929 C 0.58886 0.08117 0.27783 0.0
H930 H 0.56906 0.01367 0.255 0.0
H931 H 0.71479 0.28472 0.26481 0.0
H932 H 0.38971 0.65993 0.3125 0.0
H933 H 0.40207 0.64822 0.35874 0.0
H934 H 0.47724 0.62315 0.32669 0.0
H935 H 0.46561 0.63554 0.28058 0.0
H936 H 0.44117 0.58312 0.35846 0.0
H937 H 0.48676 0.68124 0.36367 0.0
H938 H 0.48801 0.73107 0.36079 0.0
H939 H 0.42298 0.72389 0.42344 0.0
H940 H 0.42105 0.6739 0.42641 0.0
H941 H 0.51781 0.56479 0.47737 0.0
H942 H 0.50146 0.57867 0.43374 0.0
H943 H 0.4368 0.61259 0.47602 0.0
H944 H 0.45363 0.59944 0.52003 0.0
H945 H 0.46337 0.64768 0.43994 0.0
H946 H 0.41813 0.55108 0.43687 0.0
H947 H 0.41484 0.50092 0.44014 0.0
H948 H 0.47552 0.5042 0.37401 0.0
H949 H 0.4795 0.55449 0.37059 0.0
C950 C 0.40925 0.65253 0.31536 0.0
C951 C 0.42658 0.64851 0.29277 0.0
C952 C 0.41617 0.64572 0.34178 0.0
C953 C 0.44048 0.63473 0.34605 0.0
C954 C 0.45824 0.63141 0.32374 0.0
C955 C 0.45149 0.6384 0.2974 0.0
C956 C 0.44675 0.62541 0.37348 0.0
C957 C 0.44635 0.59726 0.37625 0.0
C958 C 0.45236 0.64371 0.39681 0.0
C959 C 0.45352 0.67376 0.39503 0.0
C960 C 0.47252 0.69023 0.37664 0.0
C961 C 0.4734 0.71851 0.37503 0.0
C962 C 0.45552 0.73062 0.39186 0.0
C963 C 0.43678 0.71447 0.41038 0.0
C964 C 0.4358 0.68617 0.41205 0.0
C965 C 0.49989 0.57492 0.47744 0.0
C966 C 0.48697 0.58093 0.50221 0.0
C967 C 0.4905 0.58279 0.45241 0.0
C968 C 0.46764 0.59637 0.45153 0.0
C969 C 0.45446 0.60213 0.4762 0.0
C970 C 0.46405 0.5945 0.50132 0.0
C971 C 0.4583 0.60537 0.42491 0.0
C972 C 0.45801 0.63343 0.42226 0.0
C973 C 0.45167 0.5869 0.40171 0.0
C974 C 0.44928 0.55662 0.40363 0.0
C975 C 0.43094 0.54115 0.42316 0.0
C976 C 0.42892 0.51269 0.42502 0.0
C977 C 0.44501 0.49939 0.40733 0.0
C978 C 0.46309 0.51453 0.38771 0.0
C979 C 0.46521 0.54301 0.38577 0.0
H980 H 0.44342 0.47735 0.40881 0.0
H981 H 0.45624 0.75252 0.39059 0.0
H982 H 0.13248 0.38959 0.86071 0.0
H983 H 0.11215 0.42412 0.88566 0.0
H984 H 0.17298 0.4899 0.84617 0.0
H985 H 0.19355 0.45521 0.82097 0.0
H986 H 0.16804 0.49784 0.90478 0.0
H987 H 0.10757 0.47788 0.82459 0.0
H988 H 0.07658 0.44808 0.78936 0.0
H989 H 0.01594 0.41275 0.85154 0.0
H990 H 0.0468 0.44203 0.88723 0.0
H991 H 0.09078 0.59538 0.96126 0.0
H992 H 0.1155 0.56964 0.92901 0.0
H993 H 0.0568 0.49286 0.95094 0.0
H994 H 0.03183 0.51845 0.98266 0.0
H995 H 0.06313 0.496 0.896 0.0
H996 H 0.12544 0.51117 0.97633 0.0
H997 H 0.15611 0.53974 0.01255 0.0
H998 H 0.21294 0.58285 0.95115 0.0
H999 H 0.18232 0.5548 0.91451 0.0
C1000 C 0.14164 0.41141 0.85744 0.0
C1001 C 0.16464 0.41978 0.83901 0.0
C1002 C 0.1299 0.43108 0.87155 0.0
C1003 C 0.14098 0.45949 0.86759 0.0
C1004 C 0.16414 0.46803 0.84941 0.0
C1005 C 0.17573 0.44826 0.83498 0.0
C1006 C 0.12817 0.48 0.88277 0.0
C1007 C 0.14526 0.49793 0.90249 0.0
C1008 C 0.09834 0.47964 0.88004 0.0
C1009 C 0.07963 0.46203 0.85862 0.0
C1010 C 0.08775 0.4636 0.83079 0.0
C1011 C 0.07018 0.44683 0.81073 0.0
C1012 C 0.04433 0.4285 0.81821 0.0
C1013 C 0.03598 0.42695 0.84577 0.0
C1014 C 0.05348 0.44366 0.86593 0.0
C1015 C 0.08324 0.57301 0.95915 0.0
C1016 C 0.05955 0.55884 0.97449 0.0
C1017 C 0.09739 0.55835 0.94082 0.0
C1018 C 0.08805 0.52933 0.93771 0.0
C1019 C 0.06431 0.51525 0.95299 0.0
C1020 C 0.0502 0.52986 0.97124 0.0
C1021 C 0.1028 0.51338 0.91852 0.0
C1022 C 0.08604 0.49629 0.89801 0.0
C1023 C 0.13286 0.51441 0.92067 0.0
C1024 C 0.1514 0.53113 0.94267 0.0
C1025 C 0.14434 0.5269 0.97054 0.0
C1026 C 0.16173 0.54297 0.99115 0.0
C1027 C 0.18641 0.56316 0.98416 0.0
C1028 C 0.19379 0.56725 0.95653 0.0
C1029 C 0.17643 0.55126 0.93584 0.0
H1030 H 0.19985 0.57559 1.00014 0.0
H1031 H 0.03076 0.41554 0.80264 0.0
H1032 H 0.76545 0.93681 0.92829 0.0
H1033 H 0.73804 0.96512 0.95478 0.0
H1034 H 0.6704 0.89188 0.96871 0.0
H1035 H 0.69787 0.86347 0.94335 0.0
H1036 H 0.65208 0.93707 0.9432 0.0
H1037 H 0.70953 0.91884 0.0202 0.0
H1038 H 0.75548 0.92028 0.04471 0.0
H1039 H 0.77858 0.00925 0.0417 0.0
H1040 H 0.73291 0.0083 0.01681 0.0
H1041 H 0.55039 0.97337 0.03075 0.0
H1042 H 0.58741 0.95227 0.01052 0.0
H1043 H 0.65184 0.02924 0.02389 0.0
H1044 H 0.6148 0.05021 0.04546 0.0
H1045 H 0.67596 0.98809 0.03289 0.0
H1046 H 0.61972 0.00871 0.9592 0.0
H1047 H 0.57524 0.00991 0.93338 0.0
H1048 H 0.5524 0.92082 0.92664 0.0
H1049 H 0.59653 0.91905 0.95279 0.0
C1050 C 0.74511 0.92665 0.9376 0.0
C1051 C 0.73366 0.8979 0.93327 0.0
C1052 C 0.7294 0.94288 0.9526 0.0
C1053 C 0.70204 0.93061 0.96343 0.0
C1054 C 0.69132 0.9018 0.96028 0.0
C1055 C 0.70704 0.88562 0.94564 0.0
C1056 C 0.6833 0.94764 0.97629 0.0
C1057 C 0.65717 0.94807 0.96291 0.0
C1058 C 0.69057 0.96295 1.0014 0.0
C1059 C 0.71799 0.96347 0.01634 0.0
C1060 C 0.72455 0.93869 0.0245 0.0
C1061 C 0.75051 0.93942 0.03853 0.0
C1062 C 0.76999 0.96483 0.04468 0.0
C1063 C 0.7635 0.98957 0.03688 0.0
C1064 C 0.73758 0.98895 0.02283 0.0
C1065 C 0.57245 0.98584 0.02946 0.0
C1066 C 0.57959 0.01358 0.03939 0.0
C1067 C 0.59363 0.97377 0.01776 0.0
C1068 C 0.62236 0.98934 0.01489 0.0
C1069 C 0.62982 0.01682 0.02564 0.0
C1070 C 0.60864 0.0288 0.03791 0.0
C1071 C 0.64414 0.97682 1.00021 0.0
C1072 C 0.6709 0.97736 0.01306 0.0
C1073 C 0.63777 0.96281 0.97423 0.0
C1074 C 0.61136 0.96376 0.95814 0.0
C1075 C 0.60514 0.98937 0.95234 0.0
C1076 C 0.57998 0.99015 0.93764 0.0
C1077 C 0.56097 0.96546 0.92842 0.0
C1078 C 0.56714 0.93993 0.93381 0.0
C1079 C 0.59224 0.93902 0.94854 0.0
H1080 H 0.54149 0.96611 0.91707 0.0
H1081 H 0.79007 0.96535 0.05555 0.0
H1082 H 0.75937 0.16976 0.47039 0.0
H1083 H 0.79964 0.15058 0.48477 0.0
H1084 H 0.84208 0.17145 0.40729 0.0
H1085 H 0.80157 0.19097 0.39267 0.0
H1086 H 0.84636 0.1201 0.42255 0.0
H1087 H 0.86652 0.21065 0.46472 0.0
H1088 H 0.85613 0.25035 0.49137 0.0
H1089 H 0.83795 0.20061 0.5627 0.0
H1090 H 0.8478 0.16047 0.53637 0.0
H1091 H 0.97319 0.08509 0.4837 0.0
H1092 H 0.94229 0.11084 0.45994 0.0
H1093 H 0.88292 0.09862 0.52817 0.0
H1094 H 0.9134 0.07328 0.55165 0.0
H1095 H 0.8943 0.15153 0.51255 0.0
H1096 H 0.86823 0.0597 0.46797 0.0
H1097 H 0.8787 0.02011 0.44117 0.0
H1098 H 0.9093 0.07327 0.37418 0.0
H1099 H 0.89934 0.11327 0.40076 0.0
C1100 C 0.77739 0.17066 0.45645 0.0
C1101 C 0.77737 0.18243 0.43051 0.0
C1102 C 0.80043 0.15954 0.4647 0.0
C1103 C 0.82427 0.15999 0.44737 0.0
C1104 C 0.82404 0.17097 0.42112 0.0
C1105 C 0.80084 0.18211 0.41277 0.0
C1106 C 0.84925 0.14905 0.45708 0.0
C1107 C 0.85725 0.12736 0.44197 0.0
C1108 C 0.86349 0.15833 0.48249 0.0
C1109 C 0.85773 0.18249 0.4985 0.0
C1110 C 0.86012 0.20812 0.48604 0.0
C1111 C 0.85435 0.23071 0.5011 0.0
C1112 C 0.84634 0.22799 0.5287 0.0
C1113 C 0.84415 0.20268 0.54131 0.0
C1114 C 0.84986 0.18001 0.52634 0.0
C1115 C 0.95356 0.08797 0.49351 0.0
C1116 C 0.94574 0.07716 0.51952 0.0
C1117 C 0.93586 0.1026 0.47993 0.0
C1118 C 0.91015 0.10666 0.49223 0.0
C1119 C 0.90262 0.09594 0.51825 0.0
C1120 C 0.92009 0.08134 0.53164 0.0
C1121 C 0.89067 0.12195 0.47854 0.0
C1122 C 0.88376 0.14457 0.4929 0.0
C1123 C 0.87758 0.11357 0.45247 0.0
C1124 C 0.88338 0.08952 0.43646 0.0
C1125 C 0.87741 0.06298 0.44761 0.0
C1126 C 0.88321 0.04046 0.43245 0.0
C1127 C 0.89475 0.04419 0.40603 0.0
C1128 C 0.90042 0.07043 0.39467 0.0
C1129 C 0.89469 0.09302 0.40976 0.0
H1130 H 0.89923 0.02673 0.39432 0.0
H1131 H 0.84187 0.2455 0.54032 0.0
H1132 H 0.28838 0.68059 0.22635 0.0
H1133 H 0.24153 0.66469 0.20242 0.0
H1134 H 0.27698 0.71093 0.13161 0.0
H1135 H 0.32331 0.72769 0.15592 0.0
H1136 H 0.22394 0.7143 0.13733 0.0
H1137 H 0.27252 0.63981 0.13627 0.0
H1138 H 0.29741 0.6066 0.15639 0.0
H1139 H 0.22086 0.57137 0.2023 0.0
H1140 H 0.19565 0.60467 0.18275 0.0
H1141 H 0.12309 0.58777 0.05626 0.0
H1142 H 0.1684 0.61015 0.08006 0.0
H1143 H 0.12496 0.66685 0.12213 0.0
H1144 H 0.07994 0.64535 0.09726 0.0
H1145 H 0.18244 0.6126 0.13023 0.0
H1146 H 0.17215 0.72689 0.14072 0.0
H1147 H 0.15138 0.75985 0.11508 0.0
H1148 H 0.15833 0.71458 0.03953 0.0
H1149 H 0.17947 0.68158 0.06465 0.0
C1150 C 0.28594 0.68749 0.20578 0.0
C1151 C 0.30933 0.70519 0.19287 0.0
C1152 C 0.25929 0.67838 0.1921 0.0
C1153 C 0.25591 0.68619 0.165 0.0
C1154 C 0.27904 0.70463 0.15248 0.0
C1155 C 0.3055 0.71415 0.16634 0.0
C1156 C 0.22885 0.67415 0.14917 0.0
C1157 C 0.21481 0.69207 0.13581 0.0
C1158 C 0.21731 0.64511 0.14663 0.0
C1159 C 0.23231 0.6249 0.15826 0.0
C1160 C 0.26106 0.62509 0.15079 0.0
C1161 C 0.27522 0.60625 0.16208 0.0
C1162 C 0.26075 0.58693 0.18067 0.0
C1163 C 0.23206 0.58637 0.18794 0.0
C1164 C 0.21782 0.60522 0.17675 0.0
C1165 C 0.12333 0.6052 0.0704 0.0
C1166 C 0.09811 0.61492 0.07491 0.0
C1167 C 0.14919 0.61792 0.08404 0.0
C1168 C 0.15021 0.64032 0.10279 0.0
C1169 C 0.12494 0.65003 0.10733 0.0
C1170 C 0.0992 0.63767 0.0932 0.0
C1171 C 0.17746 0.65272 0.11826 0.0
C1172 C 0.19149 0.63485 0.13172 0.0
C1173 C 0.18955 0.68172 0.11999 0.0
C1174 C 0.17711 0.70161 0.10463 0.0
C1175 C 0.16934 0.72404 0.11863 0.0
C1176 C 0.15748 0.74271 0.10419 0.0
C1177 C 0.15345 0.73926 0.07571 0.0
C1178 C 0.16136 0.71717 0.0616 0.0
C1179 C 0.17324 0.69846 0.07594 0.0
H1180 H 0.14425 0.75372 0.06458 0.0
H1181 H 0.27174 0.57235 0.18939 0.0
H1182 H 0.2579 0.38126 0.67685 0.0
H1183 H 0.29984 0.41265 0.65659 0.0
H1184 H 0.27155 0.48322 0.69063 0.0
H1185 H 0.22944 0.45171 0.71135 0.0
H1186 H 0.29218 0.48513 0.63083 0.0
H1187 H 0.32043 0.47251 0.72369 0.0
H1188 H 0.32489 0.44474 0.76386 0.0
H1189 H 0.37723 0.40028 0.71694 0.0
H1190 H 0.37266 0.42749 0.67633 0.0
H1191 H 0.46107 0.55045 0.63318 0.0
H1192 H 0.41391 0.53561 0.65559 0.0
H1193 H 0.37991 0.48551 0.5834 0.0
H1194 H 0.42709 0.5003 0.56087 0.0
H1195 H 0.38918 0.48168 0.66726 0.0
H1196 H 0.30649 0.48232 0.57915 0.0
H1197 H 0.30193 0.51017 0.53904 0.0
H1198 H 0.35916 0.58151 0.57786 0.0
H1199 H 0.36372 0.55424 0.61836 0.0
C1200 C 0.26038 0.40347 0.6797 0.0
C1201 C 0.24045 0.41412 0.69558 0.0
C1202 C 0.28434 0.42133 0.66821 0.0
C1203 C 0.28866 0.45015 0.67217 0.0
C1204 C 0.26841 0.46099 0.68732 0.0
C1205 C 0.24457 0.44305 0.69923 0.0
C1206 C 0.31536 0.46856 0.66162 0.0
C1207 C 0.31343 0.48465 0.63885 0.0
C1208 C 0.34292 0.46809 0.67245 0.0
C1209 C 0.34601 0.4519 0.69691 0.0
C1210 C 0.33269 0.45665 0.72187 0.0
C1211 C 0.33527 0.44104 0.74473 0.0
C1212 C 0.35129 0.42072 0.74294 0.0
C1213 C 0.36481 0.41602 0.7183 0.0
C1214 C 0.36226 0.43155 0.69536 0.0
C1215 C 0.44338 0.53666 0.62192 0.0
C1216 C 0.44768 0.52637 0.59537 0.0
C1217 C 0.41651 0.52817 0.63476 0.0
C1218 C 0.39343 0.50955 0.62112 0.0
C1219 C 0.39736 0.50014 0.59416 0.0
C1220 C 0.42431 0.50847 0.58138 0.0
C1221 C 0.3662 0.49785 0.63592 0.0
C1222 C 0.36801 0.48273 0.65945 0.0
C1223 C 0.33861 0.49941 0.62583 0.0
C1224 C 0.3356 0.51613 0.60173 0.0
C1225 C 0.31797 0.50399 0.57921 0.0
C1226 C 0.31541 0.51967 0.55638 0.0
C1227 C 0.3303 0.54757 0.55587 0.0
C1228 C 0.34771 0.55987 0.57823 0.0
C1229 C 0.35032 0.54429 0.60111 0.0
H1230 H 0.32832 0.55967 0.53817 0.0
H1231 H 0.35326 0.40865 0.76067 0.0
H1232 H 0.92218 0.85887 0.91531 0.0
H1233 H 0.94461 0.82514 0.93688 0.0
H1234 H 0.86039 0.76926 0.94461 0.0
H1235 H 0.83784 0.80208 0.92193 0.0
H1236 H 0.8961 0.77535 0.99309 0.0
H1237 H 0.90079 0.75581 0.8957 0.0
H1238 H 0.91326 0.76753 0.84765 0.0
H1239 H 1.00364 0.79345 0.8699 0.0
H1240 H 0.99165 0.78227 0.91821 0.0
H1241 H 0.93555 0.64805 0.01736 0.0
H1242 H 0.91512 0.68595 1.00177 0.0
H1243 H 1.00126 0.73303 0.98239 0.0
H1244 H 0.0217 0.69509 0.99807 0.0
H1245 H 0.9657 0.73308 0.94076 0.0
H1246 H 0.96246 0.76083 0.03702 0.0
H1247 H 0.95196 0.75506 0.08646 0.0
H1248 H 0.86278 0.71609 0.06736 0.0
H1249 H 0.87263 0.72253 0.01782 0.0
C1250 C 0.90836 0.83935 0.92137 0.0
C1251 C 0.87808 0.83337 0.91672 0.0
C1252 C 0.92125 0.82014 0.93386 0.0
C1253 C 0.90418 0.79464 0.94225 0.0
C1254 C 0.87396 0.78887 0.93842 0.0
C1255 C 0.86108 0.80787 0.92559 0.0
C1256 C 0.91786 0.77366 0.95443 0.0
C1257 C 0.91106 0.76586 0.98154 0.0
C1258 C 0.93802 0.76186 0.93967 0.0
C1259 C 0.94529 0.76851 0.91063 0.0
C1260 C 0.9233 0.76426 0.8904 0.0
C1261 C 0.93028 0.77075 0.86311 0.0
C1262 C 0.95922 0.78131 0.85574 0.0
C1263 C 0.98123 0.78532 0.87565 0.0
C1264 C 0.97436 0.77889 0.90298 0.0
C1265 C 0.95015 0.66674 0.01032 0.0
C1266 C 0.98022 0.66877 0.00925 0.0
C1267 C 0.93847 0.68844 1.00143 0.0
C1268 C 0.95664 0.71262 0.99119 0.0
C1269 C 0.98677 0.7147 0.9903 0.0
C1270 C 0.99844 0.69301 0.99926 0.0
C1271 C 0.94401 0.7347 0.97955 0.0
C1272 C 0.95087 0.74263 0.95242 0.0
C1273 C 0.92418 0.74689 0.99437 0.0
C1274 C 0.91834 0.74186 0.02383 0.0
C1275 C 0.94066 0.75092 0.04341 0.0
C1276 C 0.93476 0.74778 0.07143 0.0
C1277 C 0.90675 0.73508 0.08005 0.0
C1278 C 0.88448 0.72585 0.06066 0.0
C1279 C 0.89014 0.72946 0.03263 0.0
H1280 H 0.90232 0.7324 0.10174 0.0
H1281 H 0.96458 0.78631 0.8346 0.0
H1282 H 0.36373 0.79648 0.22897 0.0
H1283 H 0.38595 0.84273 0.21264 0.0
H1284 H 0.4603 0.81382 0.18437 0.0
H1285 H 0.43785 0.76725 0.19973 0.0
H1286 H 0.47153 0.87227 0.20812 0.0
H1287 H 0.41189 0.80811 0.14077 0.0
H1288 H 0.36611 0.77497 0.1271 0.0
H1289 H 0.31945 0.83883 0.1396 0.0
H1290 H 0.36491 0.87219 0.15397 0.0
H1291 H 0.53066 0.96356 0.10669 0.0
H1292 H 0.50913 0.92052 0.12958 0.0
H1293 H 0.42705 0.94411 0.13418 0.0
H1294 H 0.44839 0.98683 0.11012 0.0
H1295 H 0.4177 0.89017 0.12566 0.0
H1296 H 0.47502 0.95556 0.18936 0.0
H1297 H 0.51855 0.98966 0.20681 0.0
H1298 H 0.56691 0.92646 0.20514 0.0
H1299 H 0.52378 0.89204 0.1873 0.0
C1300 C 0.38509 0.8001 0.21978 0.0
C1301 C 0.39878 0.77808 0.21514 0.0
C1302 C 0.39777 0.82654 0.21062 0.0
C1303 C 0.42449 0.83143 0.197 0.0
C1304 C 0.43963 0.81033 0.19488 0.0
C1305 C 0.4268 0.78375 0.20377 0.0
C1306 C 0.43453 0.85701 0.18155 0.0
C1307 C 0.46 0.87618 0.18997 0.0
C1308 C 0.41883 0.8623 0.15839 0.0
C1309 C 0.39173 0.84256 0.1487 0.0
C1310 C 0.39184 0.81503 0.14077 0.0
C1311 C 0.36595 0.79621 0.1329 0.0
C1312 C 0.33988 0.80477 0.13254 0.0
C1313 C 0.33966 0.83221 0.13993 0.0
C1314 C 0.36548 0.85109 0.14794 0.0
C1315 C 0.50786 0.95923 0.1121 0.0
C1316 C 0.49118 0.97845 0.10693 0.0
C1317 C 0.49565 0.9348 0.12538 0.0
C1318 C 0.46676 0.92954 0.13441 0.0
C1319 C 0.44949 0.9479 0.12765 0.0
C1320 C 0.46161 0.97221 0.11385 0.0
C1321 C 0.45518 0.90551 0.15188 0.0
C1322 C 0.4293 0.88654 0.14387 0.0
C1323 C 0.47027 0.90069 0.17574 0.0
C1324 C 0.49621 0.92126 0.18677 0.0
C1325 C 0.49499 0.94896 0.19255 0.0
C1326 C 0.51958 0.96835 0.20253 0.0
C1327 C 0.54549 0.96025 0.20701 0.0
C1328 C 0.54683 0.93271 0.20163 0.0
C1329 C 0.5223 0.91324 0.19161 0.0
H1330 H 0.56453 0.97529 0.21469 0.0
H1331 H 0.31985 0.79015 0.12649 0.0
H1332 H 0.16252 0.29814 0.72374 0.0
H1333 H 0.13596 0.25724 0.69781 0.0
H1334 H 0.13062 0.30738 0.62809 0.0
H1335 H 0.15558 0.34896 0.65465 0.0
H1336 H 0.08126 0.27038 0.63315 0.0
H1337 H 0.18091 0.26694 0.63099 0.0
H1338 H 0.22963 0.26822 0.64972 0.0
H1339 H 0.1942 0.19639 0.69666 0.0
H1340 H 0.14517 0.19491 0.67852 0.0
H1341 H 0.04962 0.15033 0.53991 0.0
H1342 H 0.07233 0.19481 0.56303 0.0
H1343 H 0.06809 0.15445 0.64058 0.0
H1344 H 0.0453 0.11 0.61782 0.0
H1345 H 0.1234 0.18772 0.6281 0.0
H1346 H 0.02268 0.1932 0.6294 0.0
H1347 H 0.97522 0.19233 0.60803 0.0
H1348 H 0.01506 0.26105 0.55871 0.0
H1349 H 0.06286 0.26207 0.57952 0.0
C1350 C 0.15524 0.30069 0.7031 0.0
C1351 C 0.16126 0.32695 0.69132 0.0
C1352 C 0.14039 0.27714 0.68813 0.0
C1353 C 0.13183 0.27912 0.66079 0.0
C1354 C 0.13721 0.30532 0.64909 0.0
C1355 C 0.15176 0.32902 0.66422 0.0
C1356 C 0.11762 0.25371 0.64447 0.0
C1357 C 0.0907 0.25246 0.6317 0.0
C1358 C 0.12983 0.23024 0.64269 0.0
C1359 C 0.15932 0.23096 0.65356 0.0
C1360 C 0.18347 0.25153 0.64546 0.0
C1361 C 0.21115 0.25228 0.65595 0.0
C1362 C 0.215 0.23244 0.67441 0.0
C1363 C 0.19118 0.21176 0.68237 0.0
C1364 C 0.16344 0.21094 0.67197 0.0
C1365 C 0.05335 0.15094 0.56192 0.0
C1366 C 0.04569 0.1266 0.57702 0.0
C1367 C 0.06622 0.17638 0.57508 0.0
C1368 C 0.0718 0.17783 0.60347 0.0
C1369 C 0.06393 0.15368 0.61862 0.0
C1370 C 0.05081 0.12833 0.60558 0.0
C1371 C 0.08692 0.20428 0.61735 0.0
C1372 C 0.11409 0.20572 0.62952 0.0
C1373 C 0.07516 0.22799 0.61816 0.0
C1374 C 0.04639 0.22752 0.6058 0.0
C1375 C 0.02136 0.20797 0.61383 0.0
C1376 C 0.99439 0.20748 0.60185 0.0
C1377 C 0.99214 0.22657 0.58196 0.0
C1378 C 0.01684 0.24625 0.57408 0.0
C1379 C 0.04387 0.24681 0.58598 0.0
H1380 H 0.97124 0.22615 0.57271 0.0
H1381 H 0.23644 0.23305 0.68251 0.0
H1382 H 0.68882 0.3046 0.52301 0.0
H1383 H 0.67176 0.34705 0.52864 0.0
H1384 H 0.63962 0.33697 0.44501 0.0
H1385 H 0.65579 0.29346 0.43964 0.0
H1386 H 0.6807 0.3954 0.50858 0.0
H1387 H 0.57718 0.36069 0.44189 0.0
H1388 H 0.54384 0.31753 0.42414 0.0
H1389 H 0.56535 0.27362 0.49271 0.0
H1390 H 0.59851 0.31658 0.51101 0.0
H1391 H 0.60656 0.50662 0.51274 0.0
H1392 H 0.63037 0.4701 0.49638 0.0
H1393 H 0.56848 0.4097 0.54123 0.0
H1394 H 0.54455 0.4459 0.55718 0.0
H1395 H 0.57583 0.38869 0.49234 0.0
H1396 H 0.63817 0.43651 0.56482 0.0
H1397 H 0.67107 0.47502 0.59062 0.0
H1398 H 0.72975 0.48756 0.5224 0.0
H1399 H 0.69693 0.4494 0.49599 0.0
C1400 C 0.67823 0.31143 0.50571 0.0
C1401 C 0.67318 0.29531 0.48103 0.0
C1402 C 0.66866 0.33592 0.5089 0.0
C1403 C 0.65387 0.34514 0.48747 0.0
C1404 C 0.65047 0.33009 0.46209 0.0
C1405 C 0.65998 0.30535 0.45892 0.0
C1406 C 0.64061 0.3694 0.49272 0.0
C1407 C 0.65784 0.39405 0.50467 0.0
C1408 C 0.61062 0.36762 0.48826 0.0
C1409 C 0.59058 0.34174 0.47758 0.0
C1410 C 0.57473 0.34182 0.45318 0.0
C1411 C 0.55587 0.31741 0.44303 0.0
C1412 C 0.55257 0.29283 0.45723 0.0
C1413 C 0.56802 0.29264 0.48167 0.0
C1414 C 0.58686 0.31701 0.49193 0.0
C1415 C 0.59813 0.48554 0.5191 0.0
C1416 C 0.57378 0.47914 0.53633 0.0
C1417 C 0.61179 0.46469 0.50981 0.0
C1418 C 0.60144 0.43708 0.51773 0.0
C1419 C 0.57691 0.43075 0.53474 0.0
C1420 C 0.56327 0.45151 0.54394 0.0
C1421 C 0.61589 0.41464 0.50844 0.0
C1422 C 0.59885 0.39034 0.49569 0.0
C1423 C 0.64586 0.41644 0.51301 0.0
C1424 C 0.66488 0.44032 0.52828 0.0
C1425 C 0.65788 0.44773 0.55516 0.0
C1426 C 0.6766 0.4694 0.56996 0.0
C1427 C 0.70253 0.48367 0.55819 0.0
C1428 C 0.70971 0.47642 0.53152 0.0
C1429 C 0.69102 0.45482 0.51661 0.0
H1430 H 0.71699 0.50043 0.56968 0.0
H1431 H 0.53798 0.27394 0.44933 0.0
loop_
_geom_bond_atom_site_label_1
_geom_bond_atom_site_label_2
_geom_bond_distance
_geom_bond_site_symmetry_2
_ccdc_geom_bond_type
H0 C1 0.949 . S
C1 H0 0.949 . S
C1 C2 1.395 . S
C1 C3 1.391 . S
C2 C1 1.395 . S
C2 C5 1.390 . S
C3 C1 1.391 . S
C3 C7 1.387 . S
C3 C8 1.491 . S
H4 C5 0.950 . S
C5 C2 1.390 . S
C5 H4 0.950 . S
C5 C6 1.378 . S
C6 C5 1.378 . S
C6 C7 1.409 . S
C7 C3 1.387 . S
C7 C6 1.409 . S
C7 H9 0.951 . S
C8 C3 1.491 . S
C8 C10 1.382 . S
C8 C12 1.404 . S
H9 C7 0.951 . S
C10 C8 1.382 . S
C10 C11 1.390 . S
C10 H15 0.949 . S
C11 C10 1.390 . S
C11 C16 1.399 . S
C12 C8 1.404 . S
C12 H13 0.950 . S
C12 C14 1.375 . S
H13 C12 0.950 . S
C14 C12 1.375 . S
C14 C16 1.382 . S
C14 H18 0.950 . S
H15 C10 0.949 . S
C16 C11 1.399 . S
C16 C14 1.382 . S
C16 H17 0.952 . S
H17 C16 0.952 . S
H18 C14 0.950 . S
H19 C20 0.949 . S
C20 H19 0.949 . S
C20 C21 1.395 . S
C20 C22 1.391 . S
C21 C20 1.395 . S
C21 C24 1.390 . S
C22 C20 1.391 . S
C22 C26 1.387 . S
C22 C27 1.491 . S
H23 C24 0.950 . S
C24 C21 1.390 . S
C24 H23 0.950 . S
C24 C25 1.378 . S
C25 C24 1.378 . S
C25 C26 1.409 . S
C26 C22 1.387 . S
C26 C25 1.409 . S
C26 H28 0.951 . S
C27 C22 1.491 . S
C27 C29 1.382 . S
C27 C31 1.404 . S
H28 C26 0.951 . S
C29 C27 1.382 . S
C29 C30 1.390 . S
C29 H34 0.949 . S
C30 C29 1.390 . S
C30 C35 1.399 . S
C31 C27 1.404 . S
C31 H32 0.950 . S
C31 C33 1.375 . S
H32 C31 0.950 . S
C33 C31 1.375 . S
C33 C35 1.382 . S
C33 H37 0.950 . S
H34 C29 0.949 . S
C35 C30 1.399 . S
C35 C33 1.382 . S
C35 H36 0.952 . S
H36 C35 0.952 . S
H37 C33 0.950 . S
H38 C39 0.949 . S
C39 H38 0.949 . S
C39 C40 1.395 . S
C39 C41 1.391 . S
C40 C39 1.395 . S
C40 C43 1.390 . S
C41 C39 1.391 . S
C41 C45 1.387 . S
C41 C46 1.491 . S
H42 C43 0.950 . S
C43 C40 1.390 . S
C43 H42 0.950 . S
C43 C44 1.378 . S
C44 C43 1.378 . S
C44 C45 1.409 . S
C45 C41 1.387 . S
C45 C44 1.409 . S
C45 H47 0.951 . S
C46 C41 1.491 . S
C46 C48 1.382 . S
C46 C50 1.404 . S
H47 C45 0.951 . S
C48 C46 1.382 . S
C48 C49 1.390 . S
C48 H53 0.949 . S
C49 C48 1.390 . S
C49 C54 1.399 . S
C50 C46 1.404 . S
C50 H51 0.950 . S
C50 C52 1.375 . S
H51 C50 0.950 . S
C52 C50 1.375 . S
C52 C54 1.382 . S
C52 H56 0.950 . S
H53 C48 0.949 . S
C54 C49 1.399 . S
C54 C52 1.382 . S
C54 H55 0.952 . S
H55 C54 0.952 . S
H56 C52 0.950 . S
H57 C58 0.949 . S
C58 H57 0.949 . S
C58 C59 1.395 . S
C58 C60 1.391 . S
C59 C58 1.395 . S
C59 C62 1.390 . S
C60 C58 1.391 . S
C60 C64 1.387 . S
C60 C65 1.491 . S
H61 C62 0.950 . S
C62 C59 1.390 . S
C62 H61 0.950 . S
C62 C63 1.378 . S
C63 C62 1.378 . S
C63 C64 1.409 . S
C64 C60 1.387 . S
C64 C63 1.409 . S
C64 H66 0.951 . S
C65 C60 1.491 . S
C65 C67 1.382 . S
C65 C69 1.404 . S
H66 C64 0.951 . S
C67 C65 1.382 . S
C67 C68 1.390 . S
C67 H72 0.949 . S
C68 C67 1.390 . S
C68 C73 1.399 . S
C69 C65 1.404 . S
C69 H70 0.950 . S
C69 C71 1.375 . S
H70 C69 0.950 . S
C71 C69 1.375 . S
C71 C73 1.382 . S
C71 H75 0.950 . S
H72 C67 0.949 . S
C73 C68 1.399 . S
C73 C71 1.382 . S
C73 H74 0.952 . S
H74 C73 0.952 . S
H75 C71 0.950 . S
H76 C77 0.949 . S
C77 H76 0.949 . S
C77 C78 1.395 . S
C77 C79 1.391 . S
C78 C77 1.395 . S
C78 C81 1.390 . S
C79 C77 1.391 . S
C79 C83 1.387 . S
C79 C84 1.491 . S
H80 C81 0.950 . S
C81 C78 1.390 . S
C81 H80 0.950 . S
C81 C82 1.378 . S
C82 C81 1.378 . S
C82 C83 1.409 . S
C83 C79 1.387 . S
C83 C82 1.409 . S
C83 H85 0.951 . S
C84 C79 1.491 . S
C84 C86 1.382 . S
C84 C88 1.404 . S
H85 C83 0.951 . S
C86 C84 1.382 . S
C86 C87 1.390 . S
C86 H91 0.949 . S
C87 C86 1.390 . S
C87 C92 1.399 . S
C88 C84 1.404 . S
C88 H89 0.950 . S
C88 C90 1.375 . S
H89 C88 0.950 . S
C90 C88 1.375 . S
C90 C92 1.382 . S
C90 H94 0.950 . S
H91 C86 0.949 . S
C92 C87 1.399 . S
C92 C90 1.382 . S
C92 H93 0.952 . S
H93 C92 0.952 . S
H94 C90 0.950 . S
H95 C96 0.949 . S
C96 H95 0.949 . S
C96 C97 1.395 . S
C96 C98 1.391 . S
C97 C96 1.395 . S
C97 C100 1.390 . S
C98 C96 1.391 . S
C98 C102 1.387 . S
C98 C103 1.491 . S
H99 C100 0.950 . S
C100 C97 1.390 . S
C100 H99 0.950 . S
C100 C101 1.378 . S
C101 C100 1.378 . S
C101 C102 1.409 . S
C102 C98 1.387 . S
C102 C101 1.409 . S
C102 H104 0.951 . S
C103 C98 1.491 . S
C103 C105 1.382 . S
C103 C107 1.404 . S
H104 C102 0.951 . S
C105 C103 1.382 . S
C105 C106 1.390 . S
C105 H110 0.949 . S
C106 C105 1.390 . S
C106 C111 1.399 . S
C107 C103 1.404 . S
C107 H108 0.950 . S
C107 C109 1.375 . S
H108 C107 0.950 . S
C109 C107 1.375 . S
C109 C111 1.382 . S
C109 H113 0.950 . S
H110 C105 0.949 . S
C111 C106 1.399 . S
C111 C109 1.382 . S
C111 H112 0.952 . S
H112 C111 0.952 . S
H113 C109 0.950 . S
H114 C115 0.949 . S
C115 H114 0.949 . S
C115 C116 1.395 . S
C115 C117 1.391 . S
C116 C115 1.395 . S
C116 C119 1.390 . S
C117 C115 1.391 . S
C117 C121 1.387 . S
C117 C122 1.491 . S
H118 C119 0.950 . S
C119 C116 1.390 . S
C119 H118 0.950 . S
C119 C120 1.378 . S
C120 C119 1.378 . S
C120 C121 1.409 . S
C121 C117 1.387 . S
C121 C120 1.409 . S
C121 H123 0.951 . S
C122 C117 1.491 . S
C122 C124 1.382 . S
C122 C126 1.404 . S
H123 C121 0.951 . S
C124 C122 1.382 . S
C124 C125 1.390 . S
C124 H129 0.949 . S
C125 C124 1.390 . S
C125 C130 1.399 . S
C126 C122 1.404 . S
C126 H127 0.950 . S
C126 C128 1.375 . S
H127 C126 0.950 . S
C128 C126 1.375 . S
C128 C130 1.382 . S
C128 H132 0.950 . S
H129 C124 0.949 . S
C130 C125 1.399 . S
C130 C128 1.382 . S
C130 H131 0.952 . S
H131 C130 0.952 . S
H132 C128 0.950 . S
H133 C134 0.949 . S
C134 H133 0.949 . S
C134 C135 1.395 . S
C134 C136 1.391 . S
C135 C134 1.395 . S
C135 C138 1.390 . S
C136 C134 1.391 . S
C136 C140 1.387 . S
C136 C141 1.491 . S
H137 C138 0.950 . S
C138 C135 1.390 . S
C138 H137 0.950 . S
C138 C139 1.378 . S
C139 C138 1.378 . S
C139 C140 1.409 . S
C140 C136 1.387 . S
C140 C139 1.409 . S
C140 H142 0.951 . S
C141 C136 1.491 . S
C141 C143 1.382 . S
C141 C145 1.404 . S
H142 C140 0.951 . S
C143 C141 1.382 . S
C143 C144 1.390 . S
C143 H148 0.949 . S
C144 C143 1.390 . S
C144 C149 1.399 . S
C145 C141 1.404 . S
C145 H146 0.950 . S
C145 C147 1.375 . S
H146 C145 0.950 . S
C147 C145 1.375 . S
C147 C149 1.382 . S
C147 H151 0.950 . S
H148 C143 0.949 . S
C149 C144 1.399 . S
C149 C147 1.382 . S
C149 H150 0.952 . S
H150 C149 0.952 . S
H151 C147 0.950 . S
Dy152 O156 2.398 . S
Dy152 O157 2.491 . S
Dy152 O158 2.403 . S
Dy152 O159 2.664 . S
Dy152 O163 2.326 . S
Dy152 O167 2.310 1_455 S
Dy152 O168 2.352 1_545 S
C153 O164 1.185 . S
C153 O165 1.355 . S
C154 O156 1.185 . S
C154 O157 1.355 . S
Dy155 O159 2.310 1_655 S
Dy155 O162 2.351 1_655 S
Dy155 O164 2.398 1_545 S
Dy155 O165 2.491 1_545 S
Dy155 O166 2.403 . S
Dy155 O167 2.664 . S
Dy155 O169 2.326 1_545 S
O156 Dy152 2.398 . S
O156 C154 1.185 . S
O157 Dy152 2.491 . S
O157 C154 1.355 . S
O158 Dy152 2.403 . S
O158 C160 1.254 . S
O159 Dy152 2.664 . S
O159 Dy155 2.310 1_455 S
O159 C160 1.268 . S
C160 O158 1.254 . S
C160 O159 1.268 . S
C161 O166 1.254 . S
C161 O167 1.268 . S
O162 Dy155 2.351 1_455 S
O162 C170 1.249 . S
O163 Dy152 2.326 . S
O163 C170 1.267 . S
O164 C153 1.185 . S
O164 Dy155 2.398 1_565 S
O165 C153 1.355 . S
O165 Dy155 2.491 1_565 S
O166 Dy155 2.403 . S
O166 C161 1.254 . S
O167 Dy152 2.310 1_655 S
O167 Dy155 2.664 . S
O167 C161 1.268 . S
O168 Dy152 2.352 1_565 S
O168 C171 1.248 1_455 S
O169 Dy155 2.326 1_565 S
O169 C171 1.267 . S
C170 O162 1.249 . S
C170 O163 1.267 . S
C171 O168 1.248 1_655 S
C171 O169 1.267 . S
Dy172 O176 2.398 . S
Dy172 O177 2.491 . S
Dy172 O178 2.403 1_545 S
Dy172 O179 2.664 . S
Dy172 O183 2.326 . S
Dy172 O187 2.310 . S
Dy172 O188 2.351 . S
C173 O184 1.185 1_565 S
C173 O185 1.355 1_556 S
C174 O176 1.185 . S
C174 O177 1.355 . S
Dy175 O179 2.310 . S
Dy175 O182 2.351 . S
Dy175 O184 2.398 1_554 S
Dy175 O185 2.491 1_545 S
Dy175 O186 2.403 . S
Dy175 O187 2.664 . S
Dy175 O189 2.326 . S
O176 Dy172 2.398 . S
O176 C174 1.185 . S
O177 Dy172 2.491 . S
O177 C174 1.355 . S
O178 Dy172 2.403 1_565 S
O178 C180 1.254 . S
O179 Dy172 2.664 . S
O179 Dy175 2.310 . S
O179 C180 1.268 1_545 S
C180 O178 1.254 . S
C180 O179 1.268 1_565 S
C181 O186 1.254 . S
C181 O187 1.268 . S
O182 Dy175 2.351 . S
O182 C190 1.249 . S
O183 Dy172 2.326 . S
O183 C190 1.267 . S
O184 C173 1.185 1_545 S
O184 Dy175 2.398 1_556 S
O185 C173 1.355 1_554 S
O185 Dy175 2.491 1_565 S
O186 Dy175 2.403 . S
O186 C181 1.254 . S
O187 Dy172 2.310 . S
O187 Dy175 2.664 . S
O187 C181 1.268 . S
O188 Dy172 2.351 . S
O188 C191 1.249 . S
O189 Dy175 2.326 . S
O189 C191 1.267 . S
C190 O182 1.249 . S
C190 O183 1.267 . S
C191 O188 1.249 . S
C191 O189 1.267 . S
Dy192 O196 2.398 . S
Dy192 O197 2.491 . S
Dy192 O198 2.403 . S
Dy192 O199 2.664 . S
Dy192 O203 2.326 . S
Dy192 O207 2.310 . S
Dy192 O208 2.351 . S
C193 O204 1.185 . S
C193 O205 1.355 . S
C194 O196 1.185 . S
C194 O197 1.355 . S
Dy195 O199 2.310 . S
Dy195 O202 2.351 . S
Dy195 O204 2.398 . S
Dy195 O205 2.491 . S
Dy195 O206 2.403 . S
Dy195 O207 2.664 . S
Dy195 O209 2.326 . S
O196 Dy192 2.398 . S
O196 C194 1.185 . S
O197 Dy192 2.491 . S
O197 C194 1.355 . S
O198 Dy192 2.403 . S
O198 C200 1.254 . S
O199 Dy192 2.664 . S
O199 Dy195 2.310 . S
O199 C200 1.268 . S
C200 O198 1.254 . S
C200 O199 1.268 . S
C201 O206 1.254 . S
C201 O207 1.268 . S
O202 Dy195 2.351 . S
O202 C210 1.249 . S
O203 Dy192 2.326 . S
O203 C210 1.267 . S
O204 C193 1.185 . S
O204 Dy195 2.398 . S
O205 C193 1.355 . S
O205 Dy195 2.491 . S
O206 Dy195 2.403 . S
O206 C201 1.254 . S
O207 Dy192 2.310 . S
O207 Dy195 2.664 . S
O207 C201 1.268 . S
O208 Dy192 2.351 . S
O208 C211 1.249 . S
O209 Dy195 2.326 . S
O209 C211 1.267 . S
C210 O202 1.249 . S
C210 O203 1.267 . S
C211 O208 1.249 . S
C211 O209 1.267 . S
Dy212 O216 2.398 . S
Dy212 O217 2.491 . S
Dy212 O218 2.403 . S
Dy212 O219 2.664 . S
Dy212 O223 2.326 . S
Dy212 O227 2.310 . S
Dy212 O228 2.351 1_455 S
C213 O224 1.185 1_655 S
C213 O225 1.355 1_556 S
C214 O216 1.185 . S
C214 O217 1.355 . S
Dy215 O219 2.310 . S
Dy215 O222 2.351 . S
Dy215 O224 2.398 1_554 S
Dy215 O225 2.491 1_455 S
Dy215 O226 2.403 1_554 S
Dy215 O227 2.664 . S
Dy215 O229 2.326 1_454 S
O216 Dy212 2.398 . S
O216 C214 1.185 . S
O217 Dy212 2.491 . S
O217 C214 1.355 . S
O218 Dy212 2.403 . S
O218 C220 1.238 1_455 S
O219 Dy212 2.664 . S
O219 Dy215 2.310 . S
O219 C220 1.260 1_455 S
C220 O218 1.238 1_655 S
C220 O219 1.260 1_655 S
C221 O226 1.254 . S
C221 O227 1.268 1_556 S
O222 Dy215 2.351 . S
O222 C230 1.249 . S
O223 Dy212 2.326 . S
O223 C230 1.267 . S
O224 C213 1.185 1_455 S
O224 Dy215 2.398 1_556 S
O225 C213 1.355 1_554 S
O225 Dy215 2.491 1_655 S
O226 Dy215 2.403 1_556 S
O226 C221 1.254 . S
O227 Dy212 2.310 . S
O227 Dy215 2.664 . S
O227 C221 1.268 1_554 S
O228 Dy212 2.351 1_655 S
O228 C231 1.249 . S
O229 Dy215 2.326 1_656 S
O229 C231 1.267 1_556 S
C230 O222 1.249 . S
C230 O223 1.267 . S
C231 O228 1.249 . S
C231 O229 1.267 1_554 S
H232 C250 0.951 . S
H233 C252 0.951 . S
H234 C254 0.950 . S
H235 C255 0.950 . S
H236 C257 0.950 . S
H237 C260 0.950 . S
H238 C261 0.950 . S
H239 C263 0.950 . S
H240 C264 0.950 . S
H241 C265 0.951 . S
H242 C267 0.951 . S
H243 C269 0.950 . S
H244 C270 0.950 . S
H245 C272 0.950 . S
H246 C275 0.950 . S
H247 C276 0.950 . S
H248 C278 0.950 . S
H249 C279 0.950 . S
C250 H232 0.951 . S
C250 C251 1.366 . S
C250 C252 1.388 . S
C251 C250 1.366 . S
C251 C255 1.385 . S
C252 H233 0.951 . S
C252 C250 1.388 . S
C252 C253 1.366 . S
C253 C252 1.366 . S
C253 C254 1.414 . S
C253 C256 1.499 . S
C254 H234 0.950 . S
C254 C253 1.414 . S
C254 C255 1.374 . S
C255 H235 0.950 . S
C255 C251 1.385 . S
C255 C254 1.374 . S
C256 C253 1.499 . S
C256 C257 1.373 . S
C256 C258 1.389 . S
C257 H236 0.950 . S
C257 C256 1.373 . S
C257 C273 1.377 . S
C258 C256 1.389 . S
C258 C259 1.524 . S
C258 C272 1.377 . S
C259 C258 1.524 . S
C259 C260 1.397 . S
C259 C264 1.363 . S
C260 H237 0.950 . S
C260 C259 1.397 . S
C260 C261 1.334 . S
C261 H238 0.950 . S
C261 C260 1.334 . S
C261 C262 1.287 . S
C262 C261 1.287 . S
C262 C263 1.524 . S
C262 H281 0.913 . S
C263 H239 0.950 . S
C263 C262 1.524 . S
C263 C264 1.415 . S
C264 H240 0.950 . S
C264 C259 1.363 . S
C264 C263 1.415 . S
C265 H241 0.951 . S
C265 C266 1.366 . S
C265 C267 1.388 . S
C266 C265 1.366 . S
C266 C270 1.385 . S
C267 H242 0.951 . S
C267 C265 1.388 . S
C267 C268 1.366 . S
C268 C267 1.366 . S
C268 C269 1.414 . S
C268 C271 1.499 . S
C269 H243 0.950 . S
C269 C268 1.414 . S
C269 C270 1.374 . S
C270 H244 0.950 . S
C270 C266 1.385 . S
C270 C269 1.374 . S
C271 C268 1.499 . S
C271 C272 1.373 . S
C271 C273 1.389 . S
C272 H245 0.950 . S
C272 C258 1.377 . S
C272 C271 1.373 . S
C273 C257 1.377 . S
C273 C271 1.389 . S
C273 C274 1.524 . S
C274 C273 1.524 . S
C274 C275 1.397 . S
C274 C279 1.363 . S
C275 H246 0.950 . S
C275 C274 1.397 . S
C275 C276 1.334 . S
C276 H247 0.950 . S
C276 C275 1.334 . S
C276 C277 1.287 . S
C277 C276 1.287 . S
C277 C278 1.524 . S
C277 H280 0.999 . S
C278 H248 0.950 . S
C278 C277 1.524 . S
C278 C279 1.415 . S
C279 H249 0.950 . S
C279 C274 1.363 . S
C279 C278 1.415 . S
H280 C277 0.999 . S
H281 C262 0.913 . S
H282 C300 0.951 . S
H283 C302 0.951 . S
H284 C304 0.950 . S
H285 C305 0.950 . S
H286 C307 0.950 . S
H287 C310 0.950 . S
H288 C311 0.950 . S
H289 C313 0.950 . S
H290 C314 0.950 . S
H291 C315 0.951 . S
H292 C317 0.951 . S
H293 C319 0.950 . S
H294 C320 0.950 1_545 S
H295 C322 0.950 . S
H296 C325 0.960 . S
H297 C326 0.950 1_545 S
H298 C328 0.950 . S
H299 C329 0.950 . S
C300 H282 0.951 . S
C300 C301 1.366 . S
C300 C302 1.388 . S
C301 C300 1.366 . S
C301 C305 1.385 . S
C302 H283 0.951 . S
C302 C300 1.388 . S
C302 C303 1.366 . S
C303 C302 1.366 . S
C303 C304 1.414 . S
C303 C306 1.499 . S
C304 H284 0.950 . S
C304 C303 1.414 . S
C304 C305 1.374 . S
C305 H285 0.950 . S
C305 C301 1.385 . S
C305 C304 1.374 . S
C306 C303 1.499 . S
C306 C307 1.373 . S
C306 C308 1.389 . S
C307 H286 0.950 . S
C307 C306 1.373 . S
C307 C323 1.377 . S
C308 C306 1.389 . S
C308 C309 1.524 . S
C308 C322 1.377 . S
C309 C308 1.524 . S
C309 C310 1.397 . S
C309 C314 1.363 . S
C310 H287 0.950 . S
C310 C309 1.397 . S
C310 C311 1.334 . S
C311 H288 0.950 . S
C311 C310 1.334 . S
C311 C312 1.287 . S
C312 C311 1.287 . S
C312 C313 1.524 . S
C312 H331 0.913 . S
C313 H289 0.950 . S
C313 C312 1.524 . S
C313 C314 1.415 . S
C314 H290 0.950 . S
C314 C309 1.363 . S
C314 C313 1.415 . S
C315 H291 0.951 . S
C315 C316 1.366 . S
C315 C317 1.388 . S
C316 C315 1.366 . S
C316 C320 1.385 . S
C317 H292 0.951 . S
C317 C315 1.388 . S
C317 C318 1.366 . S
C318 C317 1.366 . S
C318 C319 1.414 . S
C318 C321 1.499 . S
C319 H293 0.950 . S
C319 C318 1.414 . S
C319 C320 1.374 . S
C320 H294 0.950 1_565 S
C320 C316 1.385 . S
C320 C319 1.374 . S
C321 C318 1.499 . S
C321 C322 1.373 . S
C321 C323 1.389 . S
C322 H295 0.950 . S
C322 C308 1.377 . S
C322 C321 1.373 . S
C323 C307 1.377 . S
C323 C321 1.389 . S
C323 C324 1.524 . S
C324 C323 1.524 . S
C324 C325 1.397 . S
C324 C329 1.363 . S
C325 H296 0.960 . S
C325 C324 1.397 . S
C325 C326 1.334 . S
C326 H297 0.950 1_565 S
C326 C325 1.334 . S
C326 C327 1.287 . S
C327 C326 1.287 . S
C327 C328 1.524 . S
C327 H330 0.999 . S
C328 H298 0.950 . S
C328 C327 1.524 . S
C328 C329 1.415 . S
C329 H299 0.950 . S
C329 C324 1.363 . S
C329 C328 1.415 . S
H330 C327 0.999 . S
H331 C312 0.913 . S
H332 C350 0.951 . S
H333 C352 0.951 . S
H334 C354 0.950 . S
H335 C355 0.950 . S
H336 C357 0.950 . S
H337 C360 0.950 . S
H338 C361 0.950 . S
H339 C363 0.950 . S
H340 C364 0.950 . S
H341 C365 0.951 . S
H342 C367 0.951 . S
H343 C369 0.950 . S
H344 C370 0.950 . S
H345 C372 0.950 . S
H346 C375 0.950 . S
H347 C376 0.950 . S
H348 C378 0.950 . S
H349 C379 0.950 . S
C350 H332 0.951 . S
C350 C351 1.366 . S
C350 C352 1.388 . S
C351 C350 1.366 . S
C351 C355 1.385 . S
C352 H333 0.951 . S
C352 C350 1.388 . S
C352 C353 1.366 . S
C353 C352 1.366 . S
C353 C354 1.414 . S
C353 C356 1.499 . S
C354 H334 0.950 . S
C354 C353 1.414 . S
C354 C355 1.374 . S
C355 H335 0.950 . S
C355 C351 1.385 . S
C355 C354 1.374 . S
C356 C353 1.499 . S
C356 C357 1.373 . S
C356 C358 1.389 . S
C357 H336 0.950 . S
C357 C356 1.373 . S
C357 C373 1.377 . S
C358 C356 1.389 . S
C358 C359 1.524 . S
C358 C372 1.377 . S
C359 C358 1.524 . S
C359 C360 1.397 . S
C359 C364 1.363 . S
C360 H337 0.950 . S
C360 C359 1.397 . S
C360 C361 1.334 . S
C361 H338 0.950 . S
C361 C360 1.334 . S
C361 C362 1.287 . S
C362 C361 1.287 . S
C362 C363 1.524 . S
C362 H381 0.913 . S
C363 H339 0.950 . S
C363 C362 1.524 . S
C363 C364 1.415 . S
C364 H340 0.950 . S
C364 C359 1.363 . S
C364 C363 1.415 . S
C365 H341 0.951 . S
C365 C366 1.366 . S
C365 C367 1.388 . S
C366 C365 1.366 . S
C366 C370 1.385 . S
C367 H342 0.951 . S
C367 C365 1.388 . S
C367 C368 1.366 . S
C368 C367 1.366 . S
C368 C369 1.414 . S
C368 C371 1.499 . S
C369 H343 0.950 . S
C369 C368 1.414 . S
C369 C370 1.374 . S
C370 H344 0.950 . S
C370 C366 1.385 . S
C370 C369 1.374 . S
C371 C368 1.499 . S
C371 C372 1.373 . S
C371 C373 1.389 . S
C372 H345 0.950 . S
C372 C358 1.377 . S
C372 C371 1.373 . S
C373 C357 1.377 . S
C373 C371 1.389 . S
C373 C374 1.524 . S
C374 C373 1.524 . S
C374 C375 1.397 . S
C374 C379 1.363 . S
C375 H346 0.950 . S
C375 C374 1.397 . S
C375 C376 1.334 . S
C376 H347 0.950 . S
C376 C375 1.334 . S
C376 C377 1.287 . S
C377 C376 1.287 . S
C377 C378 1.524 . S
C377 H380 0.999 . S
C378 H348 0.950 . S
C378 C377 1.524 . S
C378 C379 1.415 . S
C379 H349 0.950 . S
C379 C374 1.363 . S
C379 C378 1.415 . S
H380 C377 0.999 . S
H381 C362 0.913 . S
H382 C400 0.951 . S
H383 C402 0.951 . S
H384 C404 0.950 . S
H385 C405 0.950 . S
H386 C407 0.950 . S
H387 C410 0.950 . S
H388 C411 0.950 . S
H389 C413 0.950 . S
H390 C414 0.950 . S
H391 C415 0.945 1_455 S
H392 C417 0.951 . S
H393 C419 0.950 . S
H394 C420 0.950 . S
H395 C422 0.950 . S
H396 C425 0.950 . S
H397 C426 0.950 . S
H398 C428 0.950 . S
H399 C429 0.950 . S
C400 H382 0.951 . S
C400 C401 1.366 . S
C400 C402 1.388 . S
C401 C400 1.366 . S
C401 C405 1.385 . S
C402 H383 0.951 . S
C402 C400 1.388 . S
C402 C403 1.366 . S
C403 C402 1.366 . S
C403 C404 1.414 . S
C403 C406 1.499 . S
C404 H384 0.950 . S
C404 C403 1.414 . S
C404 C405 1.374 . S
C405 H385 0.950 . S
C405 C401 1.385 . S
C405 C404 1.374 . S
C406 C403 1.499 . S
C406 C407 1.373 . S
C406 C408 1.389 . S
C407 H386 0.950 . S
C407 C406 1.373 . S
C407 C423 1.377 . S
C408 C406 1.389 . S
C408 C409 1.524 . S
C408 C422 1.377 . S
C409 C408 1.524 . S
C409 C410 1.397 . S
C409 C414 1.363 . S
C410 H387 0.950 . S
C410 C409 1.397 . S
C410 C411 1.334 . S
C411 H388 0.950 . S
C411 C410 1.334 . S
C411 C412 1.287 . S
C412 C411 1.287 . S
C412 C413 1.524 . S
C412 H431 0.913 . S
C413 H389 0.950 . S
C413 C412 1.524 . S
C413 C414 1.415 . S
C414 H390 0.950 . S
C414 C409 1.363 . S
C414 C413 1.415 . S
C415 H391 0.945 1_655 S
C415 C416 1.366 . S
C415 C417 1.388 . S
C416 C415 1.366 . S
C416 C420 1.385 . S
C417 H392 0.951 . S
C417 C415 1.388 . S
C417 C418 1.366 . S
C418 C417 1.366 . S
C418 C419 1.414 . S
C418 C421 1.499 . S
C419 H393 0.950 . S
C419 C418 1.414 . S
C419 C420 1.374 . S
C420 H394 0.950 . S
C420 C416 1.385 . S
C420 C419 1.374 . S
C421 C418 1.499 . S
C421 C422 1.373 . S
C421 C423 1.389 . S
C422 H395 0.950 . S
C422 C408 1.377 . S
C422 C421 1.373 . S
C423 C407 1.377 . S
C423 C421 1.389 . S
C423 C424 1.524 . S
C424 C423 1.524 . S
C424 C425 1.397 . S
C424 C429 1.363 . S
C425 H396 0.950 . S
C425 C424 1.397 . S
C425 C426 1.334 . S
C426 H397 0.950 . S
C426 C425 1.334 . S
C426 C427 1.287 . S
C427 C426 1.287 . S
C427 C428 1.524 . S
C427 H430 0.999 . S
C428 H398 0.950 . S
C428 C427 1.524 . S
C428 C429 1.415 . S
C429 H399 0.950 . S
C429 C424 1.363 . S
C429 C428 1.415 . S
H430 C427 0.999 . S
H431 C412 0.913 . S
H432 C450 0.951 . S
H433 C452 0.951 . S
H434 C454 0.950 . S
H435 C455 0.950 . S
H436 C457 0.950 . S
H437 C460 0.950 . S
H438 C461 0.950 . S
H439 C463 0.950 . S
H440 C464 0.950 . S
H441 C465 0.951 . S
H442 C467 0.951 . S
H443 C469 0.950 . S
H444 C470 0.950 . S
H445 C472 0.950 . S
H446 C475 0.950 . S
H447 C476 0.950 . S
H448 C478 0.950 . S
H449 C479 0.950 . S
C450 H432 0.951 . S
C450 C451 1.366 . S
C450 C452 1.388 . S
C451 C450 1.366 . S
C451 C455 1.385 . S
C452 H433 0.951 . S
C452 C450 1.388 . S
C452 C453 1.366 . S
C453 C452 1.366 . S
C453 C454 1.414 . S
C453 C456 1.499 . S
C454 H434 0.950 . S
C454 C453 1.414 . S
C454 C455 1.374 . S
C455 H435 0.950 . S
C455 C451 1.385 . S
C455 C454 1.374 . S
C456 C453 1.499 . S
C456 C457 1.373 . S
C456 C458 1.389 . S
C457 H436 0.950 . S
C457 C456 1.373 . S
C457 C473 1.377 . S
C458 C456 1.389 . S
C458 C459 1.524 . S
C458 C472 1.377 . S
C459 C458 1.524 . S
C459 C460 1.397 . S
C459 C464 1.363 . S
C460 H437 0.950 . S
C460 C459 1.397 . S
C460 C461 1.334 . S
C461 H438 0.950 . S
C461 C460 1.334 . S
C461 C462 1.287 . S
C462 C461 1.287 . S
C462 C463 1.524 . S
C462 H481 0.913 . S
C463 H439 0.950 . S
C463 C462 1.524 . S
C463 C464 1.415 . S
C464 H440 0.950 . S
C464 C459 1.363 . S
C464 C463 1.415 . S
C465 H441 0.951 . S
C465 C466 1.366 . S
C465 C467 1.388 . S
C466 C465 1.366 . S
C466 C470 1.385 . S
C467 H442 0.951 . S
C467 C465 1.388 . S
C467 C468 1.366 . S
C468 C467 1.366 . S
C468 C469 1.414 . S
C468 C471 1.499 . S
C469 H443 0.950 . S
C469 C468 1.414 . S
C469 C470 1.374 . S
C470 H444 0.950 . S
C470 C466 1.385 . S
C470 C469 1.374 . S
C471 C468 1.499 . S
C471 C472 1.373 . S
C471 C473 1.389 . S
C472 H445 0.950 . S
C472 C458 1.377 . S
C472 C471 1.373 . S
C473 C457 1.377 . S
C473 C471 1.389 . S
C473 C474 1.524 . S
C474 C473 1.524 . S
C474 C475 1.397 . S
C474 C479 1.363 . S
C475 H446 0.950 . S
C475 C474 1.397 . S
C475 C476 1.334 . S
C476 H447 0.950 . S
C476 C475 1.334 . S
C476 C477 1.287 . S
C477 C476 1.287 . S
C477 C478 1.524 . S
C477 H480 0.999 . S
C478 H448 0.950 . S
C478 C477 1.524 . S
C478 C479 1.415 . S
C479 H449 0.950 . S
C479 C474 1.363 . S
C479 C478 1.415 . S
H480 C477 0.999 . S
H481 C462 0.913 . S
H482 C500 0.951 . S
H483 C502 0.951 . S
H484 C504 0.950 . S
H485 C505 0.950 . S
H486 C507 0.950 1_545 S
H487 C510 0.950 . S
H488 C511 0.950 . S
H489 C513 0.950 . S
H490 C514 0.950 . S
H491 C515 0.951 . S
H492 C517 0.951 . S
H493 C519 0.950 . S
H494 C520 0.950 . S
H495 C522 0.950 . S
H496 C525 0.950 . S
H497 C526 0.950 . S
H498 C528 0.950 . S
H499 C529 0.950 . S
C500 H482 0.951 . S
C500 C501 1.366 . S
C500 C502 1.388 . S
C501 C500 1.366 . S
C501 C505 1.385 . S
C502 H483 0.951 . S
C502 C500 1.388 . S
C502 C503 1.366 . S
C503 C502 1.366 . S
C503 C504 1.414 . S
C503 C506 1.499 . S
C504 H484 0.950 . S
C504 C503 1.414 . S
C504 C505 1.374 . S
C505 H485 0.950 . S
C505 C501 1.385 . S
C505 C504 1.374 . S
C506 C503 1.499 . S
C506 C507 1.373 . S
C506 C508 1.389 . S
C507 H486 0.950 1_565 S
C507 C506 1.373 . S
C507 C523 1.377 1_565 S
C508 C506 1.389 . S
C508 C509 1.524 . S
C508 C522 1.377 . S
C509 C508 1.524 . S
C509 C510 1.397 . S
C509 C514 1.363 . S
C510 H487 0.950 . S
C510 C509 1.397 . S
C510 C511 1.334 . S
C511 H488 0.950 . S
C511 C510 1.334 . S
C511 C512 1.287 . S
C512 C511 1.287 . S
C512 C513 1.524 . S
C512 H531 0.913 . S
C513 H489 0.950 . S
C513 C512 1.524 . S
C513 C514 1.415 . S
C514 H490 0.950 . S
C514 C509 1.363 . S
C514 C513 1.415 . S
C515 H491 0.951 . S
C515 C516 1.366 . S
C515 C517 1.388 . S
C516 C515 1.366 . S
C516 C520 1.385 1_545 S
C517 H492 0.951 . S
C517 C515 1.388 . S
C517 C518 1.366 1_545 S
C518 C517 1.366 1_565 S
C518 C519 1.414 . S
C518 C521 1.499 . S
C519 H493 0.950 . S
C519 C518 1.414 . S
C519 C520 1.374 . S
C520 H494 0.950 . S
C520 C516 1.385 1_565 S
C520 C519 1.374 . S
C521 C518 1.499 . S
C521 C522 1.373 . S
C521 C523 1.389 1_565 S
C522 H495 0.950 . S
C522 C508 1.377 . S
C522 C521 1.373 . S
C523 C507 1.377 1_545 S
C523 C521 1.389 1_545 S
C523 C524 1.524 . S
C524 C523 1.524 . S
C524 C525 1.397 . S
C524 C529 1.363 . S
C525 H496 0.950 . S
C525 C524 1.397 . S
C525 C526 1.334 . S
C526 H497 0.950 . S
C526 C525 1.334 . S
C526 C527 1.287 . S
C527 C526 1.287 . S
C527 C528 1.524 . S
C527 H530 0.999 . S
C528 H498 0.950 . S
C528 C527 1.524 . S
C528 C529 1.415 . S
C529 H499 0.950 . S
C529 C524 1.363 . S
C529 C528 1.415 . S
H530 C527 0.999 . S
H531 C512 0.913 . S
H532 C550 0.951 . S
H533 C552 0.951 . S
H534 C554 0.950 . S
H535 C555 0.950 . S
H536 C557 0.950 . S
H537 C560 0.950 . S
H538 C561 0.950 . S
H539 C563 0.950 . S
H540 C564 0.950 . S
H541 C565 0.951 . S
H542 C567 0.951 . S
H543 C569 0.950 1_554 S
H544 C570 0.950 . S
H545 C572 0.950 . S
H546 C575 0.950 1_554 S
H547 C576 0.950 . S
H548 C578 0.950 . S
H549 C579 0.950 . S
C550 H532 0.951 . S
C550 C551 1.366 . S
C550 C552 1.388 . S
C551 C550 1.366 . S
C551 C555 1.385 . S
C552 H533 0.951 . S
C552 C550 1.388 . S
C552 C553 1.366 . S
C553 C552 1.366 . S
C553 C554 1.414 . S
C553 C556 1.499 . S
C554 H534 0.950 . S
C554 C553 1.414 . S
C554 C555 1.374 . S
C555 H535 0.950 . S
C555 C551 1.385 . S
C555 C554 1.374 . S
C556 C553 1.499 . S
C556 C557 1.373 . S
C556 C558 1.389 . S
C557 H536 0.950 . S
C557 C556 1.373 . S
C557 C573 1.377 . S
C558 C556 1.389 . S
C558 C559 1.524 . S
C558 C572 1.377 . S
C559 C558 1.524 . S
C559 C560 1.397 . S
C559 C564 1.363 . S
C560 H537 0.950 . S
C560 C559 1.397 . S
C560 C561 1.334 . S
C561 H538 0.950 . S
C561 C560 1.334 . S
C561 C562 1.287 . S
C562 C561 1.287 . S
C562 C563 1.524 . S
C562 H581 0.913 . S
C563 H539 0.950 . S
C563 C562 1.524 . S
C563 C564 1.415 . S
C564 H540 0.950 . S
C564 C559 1.363 . S
C564 C563 1.415 . S
C565 H541 0.951 . S
C565 C566 1.366 . S
C565 C567 1.388 . S
C566 C565 1.366 . S
C566 C570 1.385 1_556 S
C567 H542 0.951 . S
C567 C565 1.388 . S
C567 C568 1.366 . S
C568 C567 1.366 . S
C568 C569 1.414 . S
C568 C571 1.499 . S
C569 H543 0.950 1_556 S
C569 C568 1.414 . S
C569 C570 1.374 1_556 S
C570 H544 0.950 . S
C570 C566 1.385 1_554 S
C570 C569 1.374 1_554 S
C571 C568 1.499 . S
C571 C572 1.373 . S
C571 C573 1.389 . S
C572 H545 0.950 . S
C572 C558 1.377 . S
C572 C571 1.373 . S
C573 C557 1.377 . S
C573 C571 1.389 . S
C573 C574 1.524 . S
C574 C573 1.524 . S
C574 C575 1.397 . S
C574 C579 1.363 . S
C575 H546 0.950 1_556 S
C575 C574 1.397 . S
C575 C576 1.334 1_556 S
C576 H547 0.950 . S
C576 C575 1.334 1_554 S
C576 C577 1.287 1_554 S
C577 C576 1.287 1_556 S
C577 C578 1.524 . S
C577 H580 0.999 . S
C578 H548 0.950 . S
C578 C577 1.524 . S
C578 C579 1.415 . S
C579 H549 0.950 . S
C579 C574 1.363 . S
C579 C578 1.415 . S
H580 C577 0.999 . S
H581 C562 0.913 . S
H582 C600 0.951 . S
H583 C602 0.951 . S
H584 C604 0.950 . S
H585 C605 0.950 . S
H586 C607 0.950 . S
H587 C610 0.950 . S
H588 C611 0.950 . S
H589 C613 0.950 . S
H590 C614 0.950 . S
H591 C615 0.951 . S
H592 C617 0.951 . S
H593 C619 0.950 . S
H594 C620 0.950 . S
H595 C622 0.950 . S
H596 C625 0.950 . S
H597 C626 0.950 . S
H598 C628 0.950 . S
H599 C629 0.950 . S
C600 H582 0.951 . S
C600 C601 1.366 . S
C600 C602 1.388 . S
C601 C600 1.366 . S
C601 C605 1.385 . S
C602 H583 0.951 . S
C602 C600 1.388 . S
C602 C603 1.366 . S
C603 C602 1.366 . S
C603 C604 1.414 . S
C603 C606 1.499 . S
C604 H584 0.950 . S
C604 C603 1.414 . S
C604 C605 1.374 . S
C605 H585 0.950 . S
C605 C601 1.385 . S
C605 C604 1.374 . S
C606 C603 1.499 . S
C606 C607 1.373 . S
C606 C608 1.389 . S
C607 H586 0.950 . S
C607 C606 1.373 . S
C607 C623 1.377 . S
C608 C606 1.389 . S
C608 C609 1.524 . S
C608 C622 1.377 . S
C609 C608 1.524 . S
C609 C610 1.397 . S
C609 C614 1.363 . S
C610 H587 0.950 . S
C610 C609 1.397 . S
C610 C611 1.334 . S
C611 H588 0.950 . S
C611 C610 1.334 . S
C611 C612 1.287 . S
C612 C611 1.287 . S
C612 C613 1.524 . S
C612 H631 0.913 . S
C613 H589 0.950 . S
C613 C612 1.524 . S
C613 C614 1.415 . S
C614 H590 0.950 . S
C614 C609 1.363 . S
C614 C613 1.415 . S
C615 H591 0.951 . S
C615 C616 1.366 . S
C615 C617 1.388 . S
C616 C615 1.366 . S
C616 C620 1.385 . S
C617 H592 0.951 . S
C617 C615 1.388 . S
C617 C618 1.366 . S
C618 C617 1.366 . S
C618 C619 1.414 . S
C618 C621 1.499 . S
C619 H593 0.950 . S
C619 C618 1.414 . S
C619 C620 1.374 . S
C620 H594 0.950 . S
C620 C616 1.385 . S
C620 C619 1.374 . S
C621 C618 1.499 . S
C621 C622 1.373 . S
C621 C623 1.389 . S
C622 H595 0.950 . S
C622 C608 1.377 . S
C622 C621 1.373 . S
C623 C607 1.377 . S
C623 C621 1.389 . S
C623 C624 1.524 . S
C624 C623 1.524 . S
C624 C625 1.397 . S
C624 C629 1.363 . S
C625 H596 0.950 . S
C625 C624 1.397 . S
C625 C626 1.334 . S
C626 H597 0.950 . S
C626 C625 1.334 . S
C626 C627 1.287 . S
C627 C626 1.287 . S
C627 C628 1.524 . S
C627 H630 0.999 . S
C628 H598 0.950 . S
C628 C627 1.524 . S
C628 C629 1.415 . S
C629 H599 0.950 . S
C629 C624 1.363 . S
C629 C628 1.415 . S
H630 C627 0.999 . S
H631 C612 0.913 . S
H632 C650 0.951 . S
H633 C652 0.951 . S
H634 C654 0.950 . S
H635 C655 0.950 . S
H636 C657 0.950 . S
H637 C660 0.950 . S
H638 C661 0.950 . S
H639 C663 0.950 . S
H640 C664 0.950 . S
H641 C665 0.951 . S
H642 C667 0.951 . S
H643 C669 0.950 . S
H644 C670 0.950 . S
H645 C672 0.950 . S
H646 C675 0.950 . S
H647 C676 0.950 . S
H648 C678 0.950 . S
H649 C679 0.950 . S
C650 H632 0.951 . S
C650 C651 1.366 . S
C650 C652 1.388 . S
C651 C650 1.366 . S
C651 C655 1.385 . S
C652 H633 0.951 . S
C652 C650 1.388 . S
C652 C653 1.366 . S
C653 C652 1.366 . S
C653 C654 1.414 . S
C653 C656 1.499 . S
C654 H634 0.950 . S
C654 C653 1.414 . S
C654 C655 1.374 . S
C655 H635 0.950 . S
C655 C651 1.385 . S
C655 C654 1.374 . S
C656 C653 1.499 . S
C656 C657 1.373 . S
C656 C658 1.389 . S
C657 H636 0.950 . S
C657 C656 1.373 . S
C657 C673 1.377 . S
C658 C656 1.389 . S
C658 C659 1.524 . S
C658 C672 1.377 . S
C659 C658 1.524 . S
C659 C660 1.397 . S
C659 C664 1.363 . S
C660 H637 0.950 . S
C660 C659 1.397 . S
C660 C661 1.334 . S
C661 H638 0.950 . S
C661 C660 1.334 . S
C661 C662 1.287 . S
C662 C661 1.287 . S
C662 C663 1.524 . S
C662 H681 0.913 . S
C663 H639 0.950 . S
C663 C662 1.524 . S
C663 C664 1.415 . S
C664 H640 0.950 . S
C664 C659 1.363 . S
C664 C663 1.415 . S
C665 H641 0.951 . S
C665 C666 1.366 . S
C665 C667 1.388 . S
C666 C665 1.366 . S
C666 C670 1.385 . S
C667 H642 0.951 . S
C667 C665 1.388 . S
C667 C668 1.366 . S
C668 C667 1.366 . S
C668 C669 1.414 . S
C668 C671 1.499 . S
C669 H643 0.950 . S
C669 C668 1.414 . S
C669 C670 1.374 . S
C670 H644 0.950 . S
C670 C666 1.385 . S
C670 C669 1.374 . S
C671 C668 1.499 . S
C671 C672 1.373 . S
C671 C673 1.389 . S
C672 H645 0.950 . S
C672 C658 1.377 . S
C672 C671 1.373 . S
C673 C657 1.377 . S
C673 C671 1.389 . S
C673 C674 1.524 . S
C674 C673 1.524 . S
C674 C675 1.397 . S
C674 C679 1.363 . S
C675 H646 0.950 . S
C675 C674 1.397 . S
C675 C676 1.334 . S
C676 H647 0.950 . S
C676 C675 1.334 . S
C676 C677 1.287 . S
C677 C676 1.287 . S
C677 C678 1.524 . S
C677 H680 0.999 . S
C678 H648 0.950 . S
C678 C677 1.524 . S
C678 C679 1.415 . S
C679 H649 0.950 . S
C679 C674 1.363 . S
C679 C678 1.415 . S
H680 C677 0.999 . S
H681 C662 0.913 . S
H682 C700 0.951 . S
H683 C702 0.951 . S
H684 C704 0.950 . S
H685 C705 0.950 . S
H686 C707 0.950 . S
H687 C710 0.950 . S
H688 C711 0.950 . S
H689 C713 0.950 . S
H690 C714 0.950 . S
H691 C715 0.951 . S
H692 C717 0.951 . S
H693 C719 0.950 . S
H694 C720 0.950 . S
H695 C722 0.950 . S
H696 C725 0.950 . S
H697 C726 0.950 . S
H698 C728 0.950 . S
H699 C729 0.950 . S
C700 H682 0.951 . S
C700 C701 1.366 . S
C700 C702 1.388 . S
C701 C700 1.366 . S
C701 C705 1.385 . S
C702 H683 0.951 . S
C702 C700 1.388 . S
C702 C703 1.366 . S
C703 C702 1.366 . S
C703 C704 1.414 . S
C703 C706 1.499 . S
C704 H684 0.950 . S
C704 C703 1.414 . S
C704 C705 1.374 . S
C705 H685 0.950 . S
C705 C701 1.385 . S
C705 C704 1.374 . S
C706 C703 1.499 . S
C706 C707 1.373 1_556 S
C706 C708 1.389 . S
C707 H686 0.950 . S
C707 C706 1.373 1_554 S
C707 C723 1.377 . S
C708 C706 1.389 . S
C708 C709 1.524 . S
C708 C722 1.377 . S
C709 C708 1.524 . S
C709 C710 1.397 . S
C709 C714 1.363 . S
C710 H687 0.950 . S
C710 C709 1.397 . S
C710 C711 1.334 . S
C711 H688 0.950 . S
C711 C710 1.334 . S
C711 C712 1.287 . S
C712 C711 1.287 . S
C712 C713 1.524 . S
C712 H731 0.913 . S
C713 H689 0.950 . S
C713 C712 1.524 . S
C713 C714 1.415 . S
C714 H690 0.950 . S
C714 C709 1.363 . S
C714 C713 1.415 . S
C715 H691 0.951 . S
C715 C716 1.366 . S
C715 C717 1.388 . S
C716 C715 1.366 . S
C716 C720 1.385 . S
C717 H692 0.951 . S
C717 C715 1.388 . S
C717 C718 1.366 . S
C718 C717 1.366 . S
C718 C719 1.414 . S
C718 C721 1.499 . S
C719 H693 0.950 . S
C719 C718 1.414 . S
C719 C720 1.374 . S
C720 H694 0.950 . S
C720 C716 1.385 . S
C720 C719 1.374 . S
C721 C718 1.499 . S
C721 C722 1.373 1_554 S
C721 C723 1.389 . S
C722 H695 0.950 . S
C722 C708 1.377 . S
C722 C721 1.373 1_556 S
C723 C707 1.377 . S
C723 C721 1.389 . S
C723 C724 1.524 . S
C724 C723 1.524 . S
C724 C725 1.397 . S
C724 C729 1.363 . S
C725 H696 0.950 . S
C725 C724 1.397 . S
C725 C726 1.334 . S
C726 H697 0.950 . S
C726 C725 1.334 . S
C726 C727 1.287 . S
C727 C726 1.287 . S
C727 C728 1.524 . S
C727 H730 0.999 . S
C728 H698 0.950 . S
C728 C727 1.524 . S
C728 C729 1.415 . S
C729 H699 0.950 . S
C729 C724 1.363 . S
C729 C728 1.415 . S
H730 C727 0.999 . S
H731 C712 0.913 . S
H732 C750 0.951 . S
H733 C752 0.951 . S
H734 C754 0.950 . S
H735 C755 0.950 . S
H736 C757 0.950 . S
H737 C760 0.950 . S
H738 C761 0.950 . S
H739 C763 0.950 . S
H740 C764 0.950 . S
H741 C765 0.951 . S
H742 C767 0.951 . S
H743 C769 0.950 . S
H744 C770 0.950 1_455 S
H745 C772 0.950 . S
H746 C775 0.950 . S
H747 C776 0.950 . S
H748 C778 0.950 . S
H749 C779 0.950 . S
C750 H732 0.951 . S
C750 C751 1.366 . S
C750 C752 1.388 . S
C751 C750 1.366 . S
C751 C755 1.385 . S
C752 H733 0.951 . S
C752 C750 1.388 . S
C752 C753 1.366 . S
C753 C752 1.366 . S
C753 C754 1.414 . S
C753 C756 1.499 . S
C754 H734 0.950 . S
C754 C753 1.414 . S
C754 C755 1.374 . S
C755 H735 0.950 . S
C755 C751 1.385 . S
C755 C754 1.374 . S
C756 C753 1.499 . S
C756 C757 1.373 . S
C756 C758 1.389 . S
C757 H736 0.950 . S
C757 C756 1.373 . S
C757 C773 1.377 . S
C758 C756 1.389 . S
C758 C759 1.524 . S
C758 C772 1.377 . S
C759 C758 1.524 . S
C759 C760 1.397 . S
C759 C764 1.363 . S
C760 H737 0.950 . S
C760 C759 1.397 . S
C760 C761 1.334 . S
C761 H738 0.950 . S
C761 C760 1.334 . S
C761 C762 1.287 . S
C762 C761 1.287 . S
C762 C763 1.524 . S
C762 H781 0.913 . S
C763 H739 0.950 . S
C763 C762 1.524 . S
C763 C764 1.415 . S
C764 H740 0.950 . S
C764 C759 1.363 . S
C764 C763 1.415 . S
C765 H741 0.951 . S
C765 C766 1.366 . S
C765 C767 1.388 . S
C766 C765 1.366 . S
C766 C770 1.385 . S
C767 H742 0.951 . S
C767 C765 1.388 . S
C767 C768 1.366 . S
C768 C767 1.366 . S
C768 C769 1.414 . S
C768 C771 1.499 . S
C769 H743 0.950 . S
C769 C768 1.414 . S
C769 C770 1.374 . S
C770 H744 0.950 1_655 S
C770 C766 1.385 . S
C770 C769 1.374 . S
C771 C768 1.499 . S
C771 C772 1.373 . S
C771 C773 1.389 . S
C772 H745 0.950 . S
C772 C758 1.377 . S
C772 C771 1.373 . S
C773 C757 1.377 . S
C773 C771 1.389 . S
C773 C774 1.524 . S
C774 C773 1.524 . S
C774 C775 1.397 . S
C774 C779 1.363 . S
C775 H746 0.950 . S
C775 C774 1.397 . S
C775 C776 1.334 . S
C776 H747 0.950 . S
C776 C775 1.334 . S
C776 C777 1.287 . S
C777 C776 1.287 . S
C777 C778 1.524 . S
C777 H780 0.999 . S
C778 H748 0.950 . S
C778 C777 1.524 . S
C778 C779 1.415 . S
C779 H749 0.950 . S
C779 C774 1.363 . S
C779 C778 1.415 . S
H780 C777 0.999 . S
H781 C762 0.913 . S
H782 C800 0.951 . S
H783 C802 0.951 . S
H784 C804 0.950 . S
H785 C805 0.950 . S
H786 C807 0.950 . S
H787 C810 0.950 . S
H788 C811 0.950 . S
H789 C813 0.950 . S
H790 C814 0.950 . S
H791 C815 0.951 . S
H792 C817 0.951 . S
H793 C819 0.950 . S
H794 C820 0.950 . S
H795 C822 0.950 . S
H796 C825 0.950 . S
H797 C826 0.950 . S
H798 C828 0.950 . S
H799 C829 0.950 . S
C800 H782 0.951 . S
C800 C801 1.366 . S
C800 C802 1.388 . S
C801 C800 1.366 . S
C801 C805 1.385 . S
C802 H783 0.951 . S
C802 C800 1.388 . S
C802 C803 1.366 . S
C803 C802 1.366 . S
C803 C804 1.414 . S
C803 C806 1.499 . S
C804 H784 0.950 . S
C804 C803 1.414 . S
C804 C805 1.374 . S
C805 H785 0.950 . S
C805 C801 1.385 . S
C805 C804 1.374 . S
C806 C803 1.499 . S
C806 C807 1.373 . S
C806 C808 1.389 . S
C807 H786 0.950 . S
C807 C806 1.373 . S
C807 C823 1.377 . S
C808 C806 1.389 . S
C808 C809 1.524 . S
C808 C822 1.377 . S
C809 C808 1.524 . S
C809 C810 1.397 . S
C809 C814 1.363 . S
C810 H787 0.950 . S
C810 C809 1.397 . S
C810 C811 1.334 . S
C811 H788 0.950 . S
C811 C810 1.334 . S
C811 C812 1.287 . S
C812 C811 1.287 . S
C812 C813 1.524 . S
C812 H831 0.913 . S
C813 H789 0.950 . S
C813 C812 1.524 . S
C813 C814 1.415 . S
C814 H790 0.950 . S
C814 C809 1.363 . S
C814 C813 1.415 . S
C815 H791 0.951 . S
C815 C816 1.366 . S
C815 C817 1.388 . S
C816 C815 1.366 . S
C816 C820 1.385 . S
C817 H792 0.951 . S
C817 C815 1.388 . S
C817 C818 1.366 . S
C818 C817 1.366 . S
C818 C819 1.414 . S
C818 C821 1.499 . S
C819 H793 0.950 . S
C819 C818 1.414 . S
C819 C820 1.374 . S
C820 H794 0.950 . S
C820 C816 1.385 . S
C820 C819 1.374 . S
C821 C818 1.499 . S
C821 C822 1.373 . S
C821 C823 1.389 . S
C822 H795 0.950 . S
C822 C808 1.377 . S
C822 C821 1.373 . S
C823 C807 1.377 . S
C823 C821 1.389 . S
C823 C824 1.524 . S
C824 C823 1.524 . S
C824 C825 1.397 . S
C824 C829 1.363 . S
C825 H796 0.950 . S
C825 C824 1.397 . S
C825 C826 1.334 . S
C826 H797 0.950 . S
C826 C825 1.334 . S
C826 C827 1.287 . S
C827 C826 1.287 . S
C827 C828 1.524 . S
C827 H830 0.999 . S
C828 H798 0.950 . S
C828 C827 1.524 . S
C828 C829 1.415 . S
C829 H799 0.950 . S
C829 C824 1.363 . S
C829 C828 1.415 . S
H830 C827 0.999 . S
H831 C812 0.913 . S
H832 C850 0.951 . S
H833 C852 0.951 . S
H834 C854 0.950 . S
H835 C855 0.950 . S
H836 C857 0.950 . S
H837 C860 0.950 . S
H838 C861 0.950 . S
H839 C863 0.950 . S
H840 C864 0.950 . S
H841 C865 0.951 . S
H842 C867 0.951 . S
H843 C869 0.950 . S
H844 C870 0.950 . S
H845 C872 0.950 . S
H846 C875 0.950 . S
H847 C876 0.950 . S
H848 C878 0.950 . S
H849 C879 0.950 . S
C850 H832 0.951 . S
C850 C851 1.366 . S
C850 C852 1.388 . S
C851 C850 1.366 . S
C851 C855 1.385 . S
C852 H833 0.951 . S
C852 C850 1.388 . S
C852 C853 1.366 . S
C853 C852 1.366 . S
C853 C854 1.414 . S
C853 C856 1.499 . S
C854 H834 0.950 . S
C854 C853 1.414 . S
C854 C855 1.374 . S
C855 H835 0.950 . S
C855 C851 1.385 . S
C855 C854 1.374 . S
C856 C853 1.499 . S
C856 C857 1.373 . S
C856 C858 1.389 . S
C857 H836 0.950 . S
C857 C856 1.373 . S
C857 C873 1.377 . S
C858 C856 1.389 . S
C858 C859 1.524 . S
C858 C872 1.377 . S
C859 C858 1.524 . S
C859 C860 1.397 . S
C859 C864 1.363 . S
C860 H837 0.950 . S
C860 C859 1.397 . S
C860 C861 1.334 . S
C861 H838 0.950 . S
C861 C860 1.334 . S
C861 C862 1.287 . S
C862 C861 1.287 . S
C862 C863 1.524 . S
C862 H881 0.913 . S
C863 H839 0.950 . S
C863 C862 1.524 . S
C863 C864 1.415 . S
C864 H840 0.950 . S
C864 C859 1.363 . S
C864 C863 1.415 . S
C865 H841 0.951 . S
C865 C866 1.366 . S
C865 C867 1.388 . S
C866 C865 1.366 . S
C866 C870 1.385 . S
C867 H842 0.951 . S
C867 C865 1.388 . S
C867 C868 1.366 . S
C868 C867 1.366 . S
C868 C869 1.414 . S
C868 C871 1.499 . S
C869 H843 0.950 . S
C869 C868 1.414 . S
C869 C870 1.374 . S
C870 H844 0.950 . S
C870 C866 1.385 . S
C870 C869 1.374 . S
C871 C868 1.499 . S
C871 C872 1.373 . S
C871 C873 1.389 . S
C872 H845 0.950 . S
C872 C858 1.377 . S
C872 C871 1.373 . S
C873 C857 1.377 . S
C873 C871 1.389 . S
C873 C874 1.524 . S
C874 C873 1.524 . S
C874 C875 1.397 . S
C874 C879 1.363 . S
C875 H846 0.950 . S
C875 C874 1.397 . S
C875 C876 1.334 . S
C876 H847 0.950 . S
C876 C875 1.334 . S
C876 C877 1.287 . S
C877 C876 1.287 . S
C877 C878 1.524 . S
C877 H880 0.999 . S
C878 H848 0.950 . S
C878 C877 1.524 . S
C878 C879 1.415 . S
C879 H849 0.950 . S
C879 C874 1.363 . S
C879 C878 1.415 . S
H880 C877 0.999 . S
H881 C862 0.913 . S
H882 C900 0.951 . S
H883 C902 0.951 . S
H884 C904 0.950 . S
H885 C905 0.950 . S
H886 C907 0.950 . S
H887 C910 0.950 . S
H888 C911 0.950 . S
H889 C913 0.950 . S
H890 C914 0.950 . S
H891 C915 0.951 . S
H892 C917 0.951 . S
H893 C919 0.950 . S
H894 C920 0.950 . S
H895 C922 0.950 . S
H896 C925 0.950 . S
H897 C926 0.950 . S
H898 C928 0.950 . S
H899 C929 0.950 . S
C900 H882 0.951 . S
C900 C901 1.366 . S
C900 C902 1.388 . S
C901 C900 1.366 . S
C901 C905 1.385 . S
C902 H883 0.951 . S
C902 C900 1.388 . S
C902 C903 1.366 . S
C903 C902 1.366 . S
C903 C904 1.414 . S
C903 C906 1.499 . S
C904 H884 0.950 . S
C904 C903 1.414 . S
C904 C905 1.374 . S
C905 H885 0.950 . S
C905 C901 1.385 . S
C905 C904 1.374 . S
C906 C903 1.499 . S
C906 C907 1.373 . S
C906 C908 1.389 . S
C907 H886 0.950 . S
C907 C906 1.373 . S
C907 C923 1.377 . S
C908 C906 1.389 . S
C908 C909 1.524 . S
C908 C922 1.377 . S
C909 C908 1.524 . S
C909 C910 1.397 . S
C909 C914 1.363 . S
C910 H887 0.950 . S
C910 C909 1.397 . S
C910 C911 1.334 . S
C911 H888 0.950 . S
C911 C910 1.334 . S
C911 C912 1.287 . S
C912 C911 1.287 . S
C912 C913 1.524 . S
C912 H931 0.913 . S
C913 H889 0.950 . S
C913 C912 1.524 . S
C913 C914 1.415 . S
C914 H890 0.950 . S
C914 C909 1.363 . S
C914 C913 1.415 . S
C915 H891 0.951 . S
C915 C916 1.366 . S
C915 C917 1.388 . S
C916 C915 1.366 . S
C916 C920 1.385 . S
C917 H892 0.951 . S
C917 C915 1.388 . S
C917 C918 1.366 . S
C918 C917 1.366 . S
C918 C919 1.414 . S
C918 C921 1.499 . S
C919 H893 0.950 . S
C919 C918 1.414 . S
C919 C920 1.374 . S
C920 H894 0.950 . S
C920 C916 1.385 . S
C920 C919 1.374 . S
C921 C918 1.499 . S
C921 C922 1.373 . S
C921 C923 1.389 . S
C922 H895 0.950 . S
C922 C908 1.377 . S
C922 C921 1.373 . S
C923 C907 1.377 . S
C923 C921 1.389 . S
C923 C924 1.524 . S
C924 C923 1.524 . S
C924 C925 1.397 . S
C924 C929 1.363 . S
C925 H896 0.950 . S
C925 C924 1.397 . S
C925 C926 1.334 . S
C926 H897 0.950 . S
C926 C925 1.334 . S
C926 C927 1.287 . S
C927 C926 1.287 . S
C927 C928 1.524 . S
C927 H930 0.999 1_545 S
C928 H898 0.950 . S
C928 C927 1.524 . S
C928 C929 1.415 . S
C929 H899 0.950 . S
C929 C924 1.363 . S
C929 C928 1.415 . S
H930 C927 0.999 1_565 S
H931 C912 0.913 . S
H932 C950 0.951 . S
H933 C952 0.951 . S
H934 C954 0.950 . S
H935 C955 0.950 . S
H936 C957 0.950 . S
H937 C960 0.950 . S
H938 C961 0.950 . S
H939 C963 0.950 . S
H940 C964 0.950 . S
H941 C965 0.951 . S
H942 C967 0.951 . S
H943 C969 0.950 . S
H944 C970 0.950 . S
H945 C972 0.950 . S
H946 C975 0.950 . S
H947 C976 0.950 . S
H948 C978 0.950 . S
H949 C979 0.950 . S
C950 H932 0.951 . S
C950 C951 1.366 . S
C950 C952 1.388 . S
C951 C950 1.366 . S
C951 C955 1.385 . S
C952 H933 0.951 . S
C952 C950 1.388 . S
C952 C953 1.366 . S
C953 C952 1.366 . S
C953 C954 1.414 . S
C953 C956 1.499 . S
C954 H934 0.950 . S
C954 C953 1.414 . S
C954 C955 1.374 . S
C955 H935 0.950 . S
C955 C951 1.385 . S
C955 C954 1.374 . S
C956 C953 1.499 . S
C956 C957 1.373 . S
C956 C958 1.389 . S
C957 H936 0.950 . S
C957 C956 1.373 . S
C957 C973 1.377 . S
C958 C956 1.389 . S
C958 C959 1.524 . S
C958 C972 1.377 . S
C959 C958 1.524 . S
C959 C960 1.397 . S
C959 C964 1.363 . S
C960 H937 0.950 . S
C960 C959 1.397 . S
C960 C961 1.334 . S
C961 H938 0.950 . S
C961 C960 1.334 . S
C961 C962 1.287 . S
C962 C961 1.287 . S
C962 C963 1.524 . S
C962 H981 0.913 . S
C963 H939 0.950 . S
C963 C962 1.524 . S
C963 C964 1.415 . S
C964 H940 0.950 . S
C964 C959 1.363 . S
C964 C963 1.415 . S
C965 H941 0.951 . S
C965 C966 1.366 . S
C965 C967 1.388 . S
C966 C965 1.366 . S
C966 C970 1.385 . S
C967 H942 0.951 . S
C967 C965 1.388 . S
C967 C968 1.366 . S
C968 C967 1.366 . S
C968 C969 1.414 . S
C968 C971 1.499 . S
C969 H943 0.950 . S
C969 C968 1.414 . S
C969 C970 1.374 . S
C970 H944 0.950 . S
C970 C966 1.385 . S
C970 C969 1.374 . S
C971 C968 1.499 . S
C971 C972 1.373 . S
C971 C973 1.389 . S
C972 H945 0.950 . S
C972 C958 1.377 . S
C972 C971 1.373 . S
C973 C957 1.377 . S
C973 C971 1.389 . S
C973 C974 1.524 . S
C974 C973 1.524 . S
C974 C975 1.397 . S
C974 C979 1.363 . S
C975 H946 0.950 . S
C975 C974 1.397 . S
C975 C976 1.334 . S
C976 H947 0.950 . S
C976 C975 1.334 . S
C976 C977 1.287 . S
C977 C976 1.287 . S
C977 C978 1.524 . S
C977 H980 0.999 . S
C978 H948 0.950 . S
C978 C977 1.524 . S
C978 C979 1.415 . S
C979 H949 0.950 . S
C979 C974 1.363 . S
C979 C978 1.415 . S
H980 C977 0.999 . S
H981 C962 0.913 . S
H982 C1000 0.951 . S
H983 C1002 0.951 . S
H984 C1004 0.950 . S
H985 C1005 0.950 . S
H986 C1007 0.950 . S
H987 C1010 0.950 . S
H988 C1011 0.950 . S
H989 C1013 0.950 1_655 S
H990 C1014 0.950 . S
H991 C1015 0.951 . S
H992 C1017 0.951 . S
H993 C1019 0.950 . S
H994 C1020 0.950 . S
H995 C1022 0.950 . S
H996 C1025 0.950 . S
H997 C1026 0.950 . S
H998 C1028 0.950 . S
H999 C1029 0.950 . S
C1000 H982 0.951 . S
C1000 C1001 1.366 . S
C1000 C1002 1.388 . S
C1001 C1000 1.366 . S
C1001 C1005 1.385 . S
C1002 H983 0.951 . S
C1002 C1000 1.388 . S
C1002 C1003 1.366 . S
C1003 C1002 1.366 . S
C1003 C1004 1.414 . S
C1003 C1006 1.499 . S
C1004 H984 0.950 . S
C1004 C1003 1.414 . S
C1004 C1005 1.374 . S
C1005 H985 0.950 . S
C1005 C1001 1.385 . S
C1005 C1004 1.374 . S
C1006 C1003 1.499 . S
C1006 C1007 1.373 . S
C1006 C1008 1.389 . S
C1007 H986 0.950 . S
C1007 C1006 1.373 . S
C1007 C1023 1.377 . S
C1008 C1006 1.389 . S
C1008 C1009 1.524 . S
C1008 C1022 1.377 . S
C1009 C1008 1.524 . S
C1009 C1010 1.397 . S
C1009 C1014 1.363 . S
C1010 H987 0.950 . S
C1010 C1009 1.397 . S
C1010 C1011 1.334 . S
C1011 H988 0.950 . S
C1011 C1010 1.334 . S
C1011 C1012 1.287 . S
C1012 C1011 1.287 . S
C1012 C1013 1.524 . S
C1012 H1031 0.913 1_455 S
C1013 H989 0.950 1_455 S
C1013 C1012 1.524 . S
C1013 C1014 1.415 . S
C1014 H990 0.950 . S
C1014 C1009 1.363 . S
C1014 C1013 1.415 . S
C1015 H991 0.951 . S
C1015 C1016 1.366 . S
C1015 C1017 1.388 . S
C1016 C1015 1.366 . S
C1016 C1020 1.385 . S
C1017 H992 0.951 . S
C1017 C1015 1.388 . S
C1017 C1018 1.366 . S
C1018 C1017 1.366 . S
C1018 C1019 1.414 . S
C1018 C1021 1.499 . S
C1019 H993 0.950 . S
C1019 C1018 1.414 . S
C1019 C1020 1.374 . S
C1020 H994 0.950 . S
C1020 C1016 1.385 . S
C1020 C1019 1.374 . S
C1021 C1018 1.499 . S
C1021 C1022 1.373 . S
C1021 C1023 1.389 . S
C1022 H995 0.950 . S
C1022 C1008 1.377 . S
C1022 C1021 1.373 . S
C1023 C1007 1.377 . S
C1023 C1021 1.389 . S
C1023 C1024 1.524 . S
C1024 C1023 1.524 . S
C1024 C1025 1.397 . S
C1024 C1029 1.363 . S
C1025 H996 0.950 . S
C1025 C1024 1.397 . S
C1025 C1026 1.334 . S
C1026 H997 0.950 . S
C1026 C1025 1.334 . S
C1026 C1027 1.287 . S
C1027 C1026 1.287 . S
C1027 C1028 1.524 . S
C1027 H1030 0.999 . S
C1028 H998 0.950 . S
C1028 C1027 1.524 . S
C1028 C1029 1.415 . S
C1029 H999 0.950 . S
C1029 C1024 1.363 . S
C1029 C1028 1.415 . S
H1030 C1027 0.999 . S
H1031 C1012 0.913 1_655 S
H1032 C1050 0.951 . S
H1033 C1052 0.951 . S
H1034 C1054 0.950 . S
H1035 C1055 0.950 . S
H1036 C1057 0.950 . S
H1037 C1060 0.950 . S
H1038 C1061 0.950 . S
H1039 C1063 0.950 . S
H1040 C1064 0.950 . S
H1041 C1065 0.951 . S
H1042 C1067 0.951 . S
H1043 C1069 0.950 . S
H1044 C1070 0.950 1_545 S
H1045 C1072 0.950 . S
H1046 C1075 0.950 . S
H1047 C1076 0.950 . S
H1048 C1078 0.950 . S
H1049 C1079 0.950 . S
C1050 H1032 0.951 . S
C1050 C1051 1.366 . S
C1050 C1052 1.388 . S
C1051 C1050 1.366 . S
C1051 C1055 1.385 . S
C1052 H1033 0.951 . S
C1052 C1050 1.388 . S
C1052 C1053 1.366 . S
C1053 C1052 1.366 . S
C1053 C1054 1.414 . S
C1053 C1056 1.499 . S
C1054 H1034 0.950 . S
C1054 C1053 1.414 . S
C1054 C1055 1.374 . S
C1055 H1035 0.950 . S
C1055 C1051 1.385 . S
C1055 C1054 1.374 . S
C1056 C1053 1.499 . S
C1056 C1057 1.373 . S
C1056 C1058 1.389 . S
C1057 H1036 0.950 . S
C1057 C1056 1.373 . S
C1057 C1073 1.377 . S
C1058 C1056 1.389 . S
C1058 C1059 1.524 . S
C1058 C1072 1.377 . S
C1059 C1058 1.524 . S
C1059 C1060 1.397 . S
C1059 C1064 1.363 . S
C1060 H1037 0.950 . S
C1060 C1059 1.397 . S
C1060 C1061 1.334 . S
C1061 H1038 0.950 . S
C1061 C1060 1.334 . S
C1061 C1062 1.287 . S
C1062 C1061 1.287 . S
C1062 C1063 1.524 . S
C1062 H1081 0.913 . S
C1063 H1039 0.950 . S
C1063 C1062 1.524 . S
C1063 C1064 1.415 . S
C1064 H1040 0.950 . S
C1064 C1059 1.363 . S
C1064 C1063 1.415 . S
C1065 H1041 0.951 . S
C1065 C1066 1.366 . S
C1065 C1067 1.388 . S
C1066 C1065 1.366 . S
C1066 C1070 1.385 . S
C1067 H1042 0.951 . S
C1067 C1065 1.388 . S
C1067 C1068 1.366 1_554 S
C1068 C1067 1.366 1_556 S
C1068 C1069 1.414 . S
C1068 C1071 1.499 . S
C1069 H1043 0.950 . S
C1069 C1068 1.414 . S
C1069 C1070 1.374 1_556 S
C1070 H1044 0.950 1_565 S
C1070 C1066 1.385 . S
C1070 C1069 1.374 1_554 S
C1071 C1068 1.499 . S
C1071 C1072 1.373 . S
C1071 C1073 1.389 . S
C1072 H1045 0.950 . S
C1072 C1058 1.377 . S
C1072 C1071 1.373 . S
C1073 C1057 1.377 . S
C1073 C1071 1.389 . S
C1073 C1074 1.524 . S
C1074 C1073 1.524 . S
C1074 C1075 1.397 . S
C1074 C1079 1.363 . S
C1075 H1046 0.950 . S
C1075 C1074 1.397 . S
C1075 C1076 1.334 . S
C1076 H1047 0.950 . S
C1076 C1075 1.334 . S
C1076 C1077 1.287 . S
C1077 C1076 1.287 . S
C1077 C1078 1.524 . S
C1077 H1080 0.999 . S
C1078 H1048 0.950 . S
C1078 C1077 1.524 . S
C1078 C1079 1.415 . S
C1079 H1049 0.950 . S
C1079 C1074 1.363 . S
C1079 C1078 1.415 . S
H1080 C1077 0.999 . S
H1081 C1062 0.913 . S
H1082 C1100 0.951 . S
H1083 C1102 0.951 . S
H1084 C1104 0.950 . S
H1085 C1105 0.950 . S
H1086 C1107 0.950 . S
H1087 C1110 0.950 . S
H1088 C1111 0.950 . S
H1089 C1113 0.950 . S
H1090 C1114 0.950 . S
H1091 C1115 0.951 . S
H1092 C1117 0.951 . S
H1093 C1119 0.950 . S
H1094 C1120 0.950 . S
H1095 C1122 0.950 . S
H1096 C1125 0.950 . S
H1097 C1126 0.950 . S
H1098 C1128 0.950 . S
H1099 C1129 0.950 . S
C1100 H1082 0.951 . S
C1100 C1101 1.366 . S
C1100 C1102 1.388 . S
C1101 C1100 1.366 . S
C1101 C1105 1.385 . S
C1102 H1083 0.951 . S
C1102 C1100 1.388 . S
C1102 C1103 1.366 . S
C1103 C1102 1.366 . S
C1103 C1104 1.414 . S
C1103 C1106 1.499 . S
C1104 H1084 0.950 . S
C1104 C1103 1.414 . S
C1104 C1105 1.374 . S
C1105 H1085 0.950 . S
C1105 C1101 1.385 . S
C1105 C1104 1.374 . S
C1106 C1103 1.499 . S
C1106 C1107 1.373 . S
C1106 C1108 1.389 . S
C1107 H1086 0.950 . S
C1107 C1106 1.373 . S
C1107 C1123 1.377 . S
C1108 C1106 1.389 . S
C1108 C1109 1.524 . S
C1108 C1122 1.377 . S
C1109 C1108 1.524 . S
C1109 C1110 1.397 . S
C1109 C1114 1.363 . S
C1110 H1087 0.950 . S
C1110 C1109 1.397 . S
C1110 C1111 1.334 . S
C1111 H1088 0.950 . S
C1111 C1110 1.334 . S
C1111 C1112 1.287 . S
C1112 C1111 1.287 . S
C1112 C1113 1.524 . S
C1112 H1131 0.913 . S
C1113 H1089 0.950 . S
C1113 C1112 1.524 . S
C1113 C1114 1.415 . S
C1114 H1090 0.950 . S
C1114 C1109 1.363 . S
C1114 C1113 1.415 . S
C1115 H1091 0.951 . S
C1115 C1116 1.366 . S
C1115 C1117 1.388 . S
C1116 C1115 1.366 . S
C1116 C1120 1.385 . S
C1117 H1092 0.951 . S
C1117 C1115 1.388 . S
C1117 C1118 1.366 . S
C1118 C1117 1.366 . S
C1118 C1119 1.414 . S
C1118 C1121 1.499 . S
C1119 H1093 0.950 . S
C1119 C1118 1.414 . S
C1119 C1120 1.374 . S
C1120 H1094 0.950 . S
C1120 C1116 1.385 . S
C1120 C1119 1.374 . S
C1121 C1118 1.499 . S
C1121 C1122 1.373 . S
C1121 C1123 1.389 . S
C1122 H1095 0.950 . S
C1122 C1108 1.377 . S
C1122 C1121 1.373 . S
C1123 C1107 1.377 . S
C1123 C1121 1.389 . S
C1123 C1124 1.524 . S
C1124 C1123 1.524 . S
C1124 C1125 1.397 . S
C1124 C1129 1.363 . S
C1125 H1096 0.950 . S
C1125 C1124 1.397 . S
C1125 C1126 1.334 . S
C1126 H1097 0.950 . S
C1126 C1125 1.334 . S
C1126 C1127 1.287 . S
C1127 C1126 1.287 . S
C1127 C1128 1.524 . S
C1127 H1130 0.999 . S
C1128 H1098 0.950 . S
C1128 C1127 1.524 . S
C1128 C1129 1.415 . S
C1129 H1099 0.950 . S
C1129 C1124 1.363 . S
C1129 C1128 1.415 . S
H1130 C1127 0.999 . S
H1131 C1112 0.913 . S
H1132 C1150 0.951 . S
H1133 C1152 0.951 . S
H1134 C1154 0.950 . S
H1135 C1155 0.950 . S
H1136 C1157 0.950 . S
H1137 C1160 0.950 . S
H1138 C1161 0.950 . S
H1139 C1163 0.950 . S
H1140 C1164 0.950 . S
H1141 C1165 0.951 . S
H1142 C1167 0.951 . S
H1143 C1169 0.950 . S
H1144 C1170 0.950 . S
H1145 C1172 0.950 . S
H1146 C1175 0.950 . S
H1147 C1176 0.950 . S
H1148 C1178 0.950 . S
H1149 C1179 0.950 . S
C1150 H1132 0.951 . S
C1150 C1151 1.366 . S
C1150 C1152 1.388 . S
C1151 C1150 1.366 . S
C1151 C1155 1.385 . S
C1152 H1133 0.951 . S
C1152 C1150 1.388 . S
C1152 C1153 1.366 . S
C1153 C1152 1.366 . S
C1153 C1154 1.414 . S
C1153 C1156 1.499 . S
C1154 H1134 0.950 . S
C1154 C1153 1.414 . S
C1154 C1155 1.374 . S
C1155 H1135 0.950 . S
C1155 C1151 1.385 . S
C1155 C1154 1.374 . S
C1156 C1153 1.499 . S
C1156 C1157 1.373 . S
C1156 C1158 1.389 . S
C1157 H1136 0.950 . S
C1157 C1156 1.373 . S
C1157 C1173 1.377 . S
C1158 C1156 1.389 . S
C1158 C1159 1.524 . S
C1158 C1172 1.377 . S
C1159 C1158 1.524 . S
C1159 C1160 1.397 . S
C1159 C1164 1.363 . S
C1160 H1137 0.950 . S
C1160 C1159 1.397 . S
C1160 C1161 1.334 . S
C1161 H1138 0.950 . S
C1161 C1160 1.334 . S
C1161 C1162 1.287 . S
C1162 C1161 1.287 . S
C1162 C1163 1.524 . S
C1162 H1181 0.913 . S
C1163 H1139 0.950 . S
C1163 C1162 1.524 . S
C1163 C1164 1.415 . S
C1164 H1140 0.950 . S
C1164 C1159 1.363 . S
C1164 C1163 1.415 . S
C1165 H1141 0.951 . S
C1165 C1166 1.366 . S
C1165 C1167 1.388 . S
C1166 C1165 1.366 . S
C1166 C1170 1.385 . S
C1167 H1142 0.951 . S
C1167 C1165 1.388 . S
C1167 C1168 1.366 . S
C1168 C1167 1.366 . S
C1168 C1169 1.414 . S
C1168 C1171 1.499 . S
C1169 H1143 0.950 . S
C1169 C1168 1.414 . S
C1169 C1170 1.374 . S
C1170 H1144 0.950 . S
C1170 C1166 1.385 . S
C1170 C1169 1.374 . S
C1171 C1168 1.499 . S
C1171 C1172 1.373 . S
C1171 C1173 1.389 . S
C1172 H1145 0.950 . S
C1172 C1158 1.377 . S
C1172 C1171 1.373 . S
C1173 C1157 1.377 . S
C1173 C1171 1.389 . S
C1173 C1174 1.524 . S
C1174 C1173 1.524 . S
C1174 C1175 1.397 . S
C1174 C1179 1.363 . S
C1175 H1146 0.950 . S
C1175 C1174 1.397 . S
C1175 C1176 1.334 . S
C1176 H1147 0.950 . S
C1176 C1175 1.334 . S
C1176 C1177 1.287 . S
C1177 C1176 1.287 . S
C1177 C1178 1.524 . S
C1177 H1180 0.999 . S
C1178 H1148 0.950 . S
C1178 C1177 1.524 . S
C1178 C1179 1.415 . S
C1179 H1149 0.950 . S
C1179 C1174 1.363 . S
C1179 C1178 1.415 . S
H1180 C1177 0.999 . S
H1181 C1162 0.913 . S
H1182 C1200 0.951 . S
H1183 C1202 0.951 . S
H1184 C1204 0.950 . S
H1185 C1205 0.950 . S
H1186 C1207 0.950 . S
H1187 C1210 0.950 . S
H1188 C1211 0.950 . S
H1189 C1213 0.950 . S
H1190 C1214 0.950 . S
H1191 C1215 0.951 . S
H1192 C1217 0.951 . S
H1193 C1219 0.950 . S
H1194 C1220 0.950 . S
H1195 C1222 0.950 . S
H1196 C1225 0.950 . S
H1197 C1226 0.950 . S
H1198 C1228 0.950 . S
H1199 C1229 0.950 . S
C1200 H1182 0.951 . S
C1200 C1201 1.366 . S
C1200 C1202 1.388 . S
C1201 C1200 1.366 . S
C1201 C1205 1.385 . S
C1202 H1183 0.951 . S
C1202 C1200 1.388 . S
C1202 C1203 1.366 . S
C1203 C1202 1.366 . S
C1203 C1204 1.414 . S
C1203 C1206 1.499 . S
C1204 H1184 0.950 . S
C1204 C1203 1.414 . S
C1204 C1205 1.374 . S
C1205 H1185 0.950 . S
C1205 C1201 1.385 . S
C1205 C1204 1.374 . S
C1206 C1203 1.499 . S
C1206 C1207 1.373 . S
C1206 C1208 1.389 . S
C1207 H1186 0.950 . S
C1207 C1206 1.373 . S
C1207 C1223 1.377 . S
C1208 C1206 1.389 . S
C1208 C1209 1.524 . S
C1208 C1222 1.377 . S
C1209 C1208 1.524 . S
C1209 C1210 1.397 . S
C1209 C1214 1.363 . S
C1210 H1187 0.950 . S
C1210 C1209 1.397 . S
C1210 C1211 1.334 . S
C1211 H1188 0.950 . S
C1211 C1210 1.334 . S
C1211 C1212 1.287 . S
C1212 C1211 1.287 . S
C1212 C1213 1.524 . S
C1212 H1231 0.913 . S
C1213 H1189 0.950 . S
C1213 C1212 1.524 . S
C1213 C1214 1.415 . S
C1214 H1190 0.950 . S
C1214 C1209 1.363 . S
C1214 C1213 1.415 . S
C1215 H1191 0.951 . S
C1215 C1216 1.366 . S
C1215 C1217 1.388 . S
C1216 C1215 1.366 . S
C1216 C1220 1.385 . S
C1217 H1192 0.951 . S
C1217 C1215 1.388 . S
C1217 C1218 1.366 . S
C1218 C1217 1.366 . S
C1218 C1219 1.414 . S
C1218 C1221 1.499 . S
C1219 H1193 0.950 . S
C1219 C1218 1.414 . S
C1219 C1220 1.374 . S
C1220 H1194 0.950 . S
C1220 C1216 1.385 . S
C1220 C1219 1.374 . S
C1221 C1218 1.499 . S
C1221 C1222 1.373 . S
C1221 C1223 1.389 . S
C1222 H1195 0.950 . S
C1222 C1208 1.377 . S
C1222 C1221 1.373 . S
C1223 C1207 1.377 . S
C1223 C1221 1.389 . S
C1223 C1224 1.524 . S
C1224 C1223 1.524 . S
C1224 C1225 1.397 . S
C1224 C1229 1.363 . S
C1225 H1196 0.950 . S
C1225 C1224 1.397 . S
C1225 C1226 1.334 . S
C1226 H1197 0.950 . S
C1226 C1225 1.334 . S
C1226 C1227 1.287 . S
C1227 C1226 1.287 . S
C1227 C1228 1.524 . S
C1227 H1230 0.999 . S
C1228 H1198 0.950 . S
C1228 C1227 1.524 . S
C1228 C1229 1.415 . S
C1229 H1199 0.950 . S
C1229 C1224 1.363 . S
C1229 C1228 1.415 . S
H1230 C1227 0.999 . S
H1231 C1212 0.913 . S
H1232 C1250 0.951 . S
H1233 C1252 0.951 . S
H1234 C1254 0.950 . S
H1235 C1255 0.950 . S
H1236 C1257 0.950 . S
H1237 C1260 0.950 . S
H1238 C1261 0.950 . S
H1239 C1263 0.950 . S
H1240 C1264 0.950 . S
H1241 C1265 0.951 . S
H1242 C1267 0.951 . S
H1243 C1269 0.950 . S
H1244 C1270 0.950 . S
H1245 C1272 0.950 . S
H1246 C1275 0.950 . S
H1247 C1276 0.950 . S
H1248 C1278 0.950 . S
H1249 C1279 0.950 . S
C1250 H1232 0.951 . S
C1250 C1251 1.366 . S
C1250 C1252 1.388 . S
C1251 C1250 1.366 . S
C1251 C1255 1.385 . S
C1252 H1233 0.951 . S
C1252 C1250 1.388 . S
C1252 C1253 1.366 . S
C1253 C1252 1.366 . S
C1253 C1254 1.414 . S
C1253 C1256 1.499 . S
C1254 H1234 0.950 . S
C1254 C1253 1.414 . S
C1254 C1255 1.374 . S
C1255 H1235 0.950 . S
C1255 C1251 1.385 . S
C1255 C1254 1.374 . S
C1256 C1253 1.499 . S
C1256 C1257 1.373 . S
C1256 C1258 1.389 . S
C1257 H1236 0.950 . S
C1257 C1256 1.373 . S
C1257 C1273 1.377 . S
C1258 C1256 1.389 . S
C1258 C1259 1.524 . S
C1258 C1272 1.377 . S
C1259 C1258 1.524 . S
C1259 C1260 1.397 . S
C1259 C1264 1.363 . S
C1260 H1237 0.950 . S
C1260 C1259 1.397 . S
C1260 C1261 1.334 . S
C1261 H1238 0.950 . S
C1261 C1260 1.334 . S
C1261 C1262 1.287 . S
C1262 C1261 1.287 . S
C1262 C1263 1.524 . S
C1262 H1281 0.913 . S
C1263 H1239 0.950 . S
C1263 C1262 1.524 . S
C1263 C1264 1.415 . S
C1264 H1240 0.950 . S
C1264 C1259 1.363 . S
C1264 C1263 1.415 . S
C1265 H1241 0.951 . S
C1265 C1266 1.366 . S
C1265 C1267 1.388 . S
C1266 C1265 1.366 . S
C1266 C1270 1.385 . S
C1267 H1242 0.951 . S
C1267 C1265 1.388 . S
C1267 C1268 1.366 . S
C1268 C1267 1.366 . S
C1268 C1269 1.414 . S
C1268 C1271 1.499 . S
C1269 H1243 0.950 . S
C1269 C1268 1.414 . S
C1269 C1270 1.374 . S
C1270 H1244 0.950 . S
C1270 C1266 1.385 . S
C1270 C1269 1.374 . S
C1271 C1268 1.499 . S
C1271 C1272 1.373 . S
C1271 C1273 1.389 . S
C1272 H1245 0.950 . S
C1272 C1258 1.377 . S
C1272 C1271 1.373 . S
C1273 C1257 1.377 . S
C1273 C1271 1.389 . S
C1273 C1274 1.524 . S
C1274 C1273 1.524 . S
C1274 C1275 1.397 . S
C1274 C1279 1.363 . S
C1275 H1246 0.950 . S
C1275 C1274 1.397 . S
C1275 C1276 1.334 1_556 S
C1276 H1247 0.950 . S
C1276 C1275 1.334 1_554 S
C1276 C1277 1.287 . S
C1277 C1276 1.287 . S
C1277 C1278 1.524 . S
C1277 H1280 0.999 . S
C1278 H1248 0.950 . S
C1278 C1277 1.524 . S
C1278 C1279 1.415 1_554 S
C1279 H1249 0.950 . S
C1279 C1274 1.363 . S
C1279 C1278 1.415 1_556 S
H1280 C1277 0.999 . S
H1281 C1262 0.913 . S
H1282 C1300 0.951 . S
H1283 C1302 0.951 . S
H1284 C1304 0.950 . S
H1285 C1305 0.950 . S
H1286 C1307 0.950 . S
H1287 C1310 0.950 . S
H1288 C1311 0.950 . S
H1289 C1313 0.950 . S
H1290 C1314 0.950 . S
H1291 C1315 0.951 . S
H1292 C1317 0.951 . S
H1293 C1319 0.950 . S
H1294 C1320 0.950 . S
H1295 C1322 0.950 . S
H1296 C1325 0.950 . S
H1297 C1326 0.950 . S
H1298 C1328 0.950 . S
H1299 C1329 0.950 . S
C1300 H1282 0.951 . S
C1300 C1301 1.366 . S
C1300 C1302 1.388 . S
C1301 C1300 1.366 . S
C1301 C1305 1.385 . S
C1302 H1283 0.951 . S
C1302 C1300 1.388 . S
C1302 C1303 1.366 . S
C1303 C1302 1.366 . S
C1303 C1304 1.414 . S
C1303 C1306 1.499 . S
C1304 H1284 0.950 . S
C1304 C1303 1.414 . S
C1304 C1305 1.374 . S
C1305 H1285 0.950 . S
C1305 C1301 1.385 . S
C1305 C1304 1.374 . S
C1306 C1303 1.499 . S
C1306 C1307 1.373 . S
C1306 C1308 1.389 . S
C1307 H1286 0.950 . S
C1307 C1306 1.373 . S
C1307 C1323 1.377 . S
C1308 C1306 1.389 . S
C1308 C1309 1.524 . S
C1308 C1322 1.377 . S
C1309 C1308 1.524 . S
C1309 C1310 1.397 . S
C1309 C1314 1.363 . S
C1310 H1287 0.950 . S
C1310 C1309 1.397 . S
C1310 C1311 1.334 . S
C1311 H1288 0.950 . S
C1311 C1310 1.334 . S
C1311 C1312 1.287 . S
C1312 C1311 1.287 . S
C1312 C1313 1.524 . S
C1312 H1331 0.913 . S
C1313 H1289 0.950 . S
C1313 C1312 1.524 . S
C1313 C1314 1.415 . S
C1314 H1290 0.950 . S
C1314 C1309 1.363 . S
C1314 C1313 1.415 . S
C1315 H1291 0.951 . S
C1315 C1316 1.366 . S
C1315 C1317 1.388 . S
C1316 C1315 1.366 . S
C1316 C1320 1.385 . S
C1317 H1292 0.951 . S
C1317 C1315 1.388 . S
C1317 C1318 1.366 . S
C1318 C1317 1.366 . S
C1318 C1319 1.414 . S
C1318 C1321 1.499 . S
C1319 H1293 0.950 . S
C1319 C1318 1.414 . S
C1319 C1320 1.374 . S
C1320 H1294 0.950 . S
C1320 C1316 1.385 . S
C1320 C1319 1.374 . S
C1321 C1318 1.499 . S
C1321 C1322 1.373 . S
C1321 C1323 1.389 . S
C1322 H1295 0.950 . S
C1322 C1308 1.377 . S
C1322 C1321 1.373 . S
C1323 C1307 1.377 . S
C1323 C1321 1.389 . S
C1323 C1324 1.524 . S
C1324 C1323 1.524 . S
C1324 C1325 1.397 . S
C1324 C1329 1.363 . S
C1325 H1296 0.950 . S
C1325 C1324 1.397 . S
C1325 C1326 1.334 . S
C1326 H1297 0.950 . S
C1326 C1325 1.334 . S
C1326 C1327 1.287 . S
C1327 C1326 1.287 . S
C1327 C1328 1.524 . S
C1327 H1330 0.999 . S
C1328 H1298 0.950 . S
C1328 C1327 1.524 . S
C1328 C1329 1.415 . S
C1329 H1299 0.950 . S
C1329 C1324 1.363 . S
C1329 C1328 1.415 . S
H1330 C1327 0.999 . S
H1331 C1312 0.913 . S
H1332 C1350 0.951 . S
H1333 C1352 0.951 . S
H1334 C1354 0.950 . S
H1335 C1355 0.950 . S
H1336 C1357 0.950 . S
H1337 C1360 0.950 . S
H1338 C1361 0.950 . S
H1339 C1363 0.950 . S
H1340 C1364 0.950 . S
H1341 C1365 0.951 . S
H1342 C1367 0.951 . S
H1343 C1369 0.950 . S
H1344 C1370 0.950 . S
H1345 C1372 0.950 . S
H1346 C1375 0.950 . S
H1347 C1376 0.950 . S
H1348 C1378 0.950 . S
H1349 C1379 0.950 . S
C1350 H1332 0.951 . S
C1350 C1351 1.366 . S
C1350 C1352 1.388 . S
C1351 C1350 1.366 . S
C1351 C1355 1.385 . S
C1352 H1333 0.951 . S
C1352 C1350 1.388 . S
C1352 C1353 1.366 . S
C1353 C1352 1.366 . S
C1353 C1354 1.414 . S
C1353 C1356 1.499 . S
C1354 H1334 0.950 . S
C1354 C1353 1.414 . S
C1354 C1355 1.374 . S
C1355 H1335 0.950 . S
C1355 C1351 1.385 . S
C1355 C1354 1.374 . S
C1356 C1353 1.499 . S
C1356 C1357 1.373 . S
C1356 C1358 1.389 . S
C1357 H1336 0.950 . S
C1357 C1356 1.373 . S
C1357 C1373 1.377 . S
C1358 C1356 1.389 . S
C1358 C1359 1.524 . S
C1358 C1372 1.377 . S
C1359 C1358 1.524 . S
C1359 C1360 1.397 . S
C1359 C1364 1.363 . S
C1360 H1337 0.950 . S
C1360 C1359 1.397 . S
C1360 C1361 1.334 . S
C1361 H1338 0.950 . S
C1361 C1360 1.334 . S
C1361 C1362 1.287 . S
C1362 C1361 1.287 . S
C1362 C1363 1.524 . S
C1362 H1381 0.913 . S
C1363 H1339 0.950 . S
C1363 C1362 1.524 . S
C1363 C1364 1.415 . S
C1364 H1340 0.950 . S
C1364 C1359 1.363 . S
C1364 C1363 1.415 . S
C1365 H1341 0.951 . S
C1365 C1366 1.366 . S
C1365 C1367 1.388 . S
C1366 C1365 1.366 . S
C1366 C1370 1.385 . S
C1367 H1342 0.951 . S
C1367 C1365 1.388 . S
C1367 C1368 1.366 . S
C1368 C1367 1.366 . S
C1368 C1369 1.414 . S
C1368 C1371 1.499 . S
C1369 H1343 0.950 . S
C1369 C1368 1.414 . S
C1369 C1370 1.374 . S
C1370 H1344 0.950 . S
C1370 C1366 1.385 . S
C1370 C1369 1.374 . S
C1371 C1368 1.499 . S
C1371 C1372 1.373 . S
C1371 C1373 1.389 . S
C1372 H1345 0.950 . S
C1372 C1358 1.377 . S
C1372 C1371 1.373 . S
C1373 C1357 1.377 . S
C1373 C1371 1.389 . S
C1373 C1374 1.524 . S
C1374 C1373 1.524 . S
C1374 C1375 1.397 . S
C1374 C1379 1.363 . S
C1375 H1346 0.950 . S
C1375 C1374 1.397 . S
C1375 C1376 1.334 . S
C1376 H1347 0.950 . S
C1376 C1375 1.334 . S
C1376 C1377 1.287 . S
C1377 C1376 1.287 . S
C1377 C1378 1.524 . S
C1377 H1380 0.999 . S
C1378 H1348 0.950 . S
C1378 C1377 1.524 . S
C1378 C1379 1.415 . S
C1379 H1349 0.950 . S
C1379 C1374 1.363 . S
C1379 C1378 1.415 . S
H1380 C1377 0.999 . S
H1381 C1362 0.913 . S
H1382 C1400 0.951 . S
H1383 C1402 0.951 . S
H1384 C1404 0.950 . S
H1385 C1405 0.950 . S
H1386 C1407 0.950 . S
H1387 C1410 0.950 . S
H1388 C1411 0.950 . S
H1389 C1413 0.950 . S
H1390 C1414 0.950 . S
H1391 C1415 0.951 . S
H1392 C1417 0.951 . S
H1393 C1419 0.950 . S
H1394 C1420 0.950 . S
H1395 C1422 0.950 . S
H1396 C1425 0.950 . S
H1397 C1426 0.950 . S
H1398 C1428 0.950 . S
H1399 C1429 0.950 . S
C1400 H1382 0.951 . S
C1400 C1401 1.366 . S
C1400 C1402 1.388 . S
C1401 C1400 1.366 . S
C1401 C1405 1.385 . S
C1402 H1383 0.951 . S
C1402 C1400 1.388 . S
C1402 C1403 1.366 . S
C1403 C1402 1.366 . S
C1403 C1404 1.414 . S
C1403 C1406 1.499 . S
C1404 H1384 0.950 . S
C1404 C1403 1.414 . S
C1404 C1405 1.374 . S
C1405 H1385 0.950 . S
C1405 C1401 1.385 . S
C1405 C1404 1.374 . S
C1406 C1403 1.499 . S
C1406 C1407 1.373 . S
C1406 C1408 1.389 . S
C1407 H1386 0.950 . S
C1407 C1406 1.373 . S
C1407 C1423 1.377 . S
C1408 C1406 1.389 . S
C1408 C1409 1.524 . S
C1408 C1422 1.377 . S
C1409 C1408 1.524 . S
C1409 C1410 1.397 . S
C1409 C1414 1.363 . S
C1410 H1387 0.950 . S
C1410 C1409 1.397 . S
C1410 C1411 1.334 . S
C1411 H1388 0.950 . S
C1411 C1410 1.334 . S
C1411 C1412 1.287 . S
C1412 C1411 1.287 . S
C1412 C1413 1.524 . S
C1412 H1431 0.913 . S
C1413 H1389 0.950 . S
C1413 C1412 1.524 . S
C1413 C1414 1.415 . S
C1414 H1390 0.950 . S
C1414 C1409 1.363 . S
C1414 C1413 1.415 . S
C1415 H1391 0.951 . S
C1415 C1416 1.366 . S
C1415 C1417 1.388 . S
C1416 C1415 1.366 . S
C1416 C1420 1.385 . S
C1417 H1392 0.951 . S
C1417 C1415 1.388 . S
C1417 C1418 1.366 . S
C1418 C1417 1.366 . S
C1418 C1419 1.414 . S
C1418 C1421 1.499 . S
C1419 H1393 0.950 . S
C1419 C1418 1.414 . S
C1419 C1420 1.374 . S
C1420 H1394 0.950 . S
C1420 C1416 1.385 . S
C1420 C1419 1.374 . S
C1421 C1418 1.499 . S
C1421 C1422 1.373 . S
C1421 C1423 1.389 . S
C1422 H1395 0.950 . S
C1422 C1408 1.377 . S
C1422 C1421 1.373 . S
C1423 C1407 1.377 . S
C1423 C1421 1.389 . S
C1423 C1424 1.524 . S
C1424 C1423 1.524 . S
C1424 C1425 1.397 . S
C1424 C1429 1.363 . S
C1425 H1396 0.950 . S
C1425 C1424 1.397 . S
C1425 C1426 1.334 . S
C1426 H1397 0.950 . S
C1426 C1425 1.334 . S
C1426 C1427 1.287 . S
C1427 C1426 1.287 . S
C1427 C1428 1.524 . S
C1427 H1430 0.999 . S
C1428 H1398 0.950 . S
C1428 C1427 1.524 . S
C1428 C1429 1.415 . S
C1429 H1399 0.950 . S
C1429 C1424 1.363 . S
C1429 C1428 1.415 . S
H1430 C1427 0.999 . S
H1431 C1412 0.913 . S
C251 C6 1.669 . S
C266 C154 1.653 . S
C301 C21 1.916 . S
C316 C173 1.887 . S
C366 C210 1.034 . S
C351 C49 1.002 . S
C401 C68 1.279 . S
C416 C220 1.354 . S
C466 C190 2.799 . S
C451 C2 2.753 . S
C516 C160 1.143 . S
C501 C30 1.079 . S
C566 C231 1.315 1_556 S
C551 C40 1.333 . S
C616 C201 1.111 . S
C601 C63 1.116 . S
C651 C11 1.637 . S
C666 C214 1.756 . S
C716 C181 1.895 . S
C701 C44 1.961 . S
C751 C59 1.410 . S
C766 C171 1.410 . S
C801 C25 1.458 . S
C816 C193 1.441 . S
C866 C153 1.910 . S
C851 C82 1.938 . S
C901 C101 1.640 . S
C916 C174 1.610 . S
C951 C125 1.455 . S
C966 C211 1.541 . S
C1001 C144 1.016 . S
C1016 C221 1.078 . S
C1051 C87 1.598 . S
C1066 C191 1.704 1_565 S
C1116 C161 2.299 . S
C1101 C97 2.359 . S
C1166 C230 1.171 . S
C1151 C120 1.200 . S
C1216 C200 1.085 . S
C1201 C135 1.120 . S
C1251 C78 2.081 . S
C1266 C213 2.122 . S
C1316 C180 1.280 . S
C1301 C116 1.314 . S
C1366 C170 1.995 . S
C1351 C139 1.998 . S
C1401 C106 1.187 . S
C1416 C194 1.303 . S
