# Generated by pormake.
# Topology bwt, (3,3)-cn, num edge types: 1
# Building blocks:
#     Node 0, Type 0, BuildingBlock: OLANEW_clean_sbu_2, # of connection points: 3
#     Node 1, Type 0, BuildingBlock: OLANEW_clean_sbu_2, # of connection points: 3
#     Node 2, Type 0, BuildingBlock: OLANEW_clean_sbu_2, # of connection points: 3
#     Node 3, Type 0, BuildingBlock: OLANEW_clean_sbu_2, # of connection points: 3
#     Node 4, Type 0, BuildingBlock: OLANEW_clean_sbu_2, # of connection points: 3
#     Node 5, Type 0, BuildingBlock: OLANEW_clean_sbu_2, # of connection points: 3
#     Node 6, Type 0, BuildingBlock: OLANEW_clean_sbu_2, # of connection points: 3
#     Node 7, Type 0, BuildingBlock: OLANEW_clean_sbu_2, # of connection points: 3
#     Node 8, Type 0, BuildingBlock: OLANEW_clean_sbu_2, # of connection points: 3
#     Node 9, Type 0, BuildingBlock: OLANEW_clean_sbu_2, # of connection points: 3
#     Node 10, Type 0, BuildingBlock: OLANEW_clean_sbu_2, # of connection points: 3
#     Node 11, Type 0, BuildingBlock: OLANEW_clean_sbu_2, # of connection points: 3
#     Node 12, Type 0, BuildingBlock: OLANEW_clean_sbu_2, # of connection points: 3
#     Node 13, Type 0, BuildingBlock: OLANEW_clean_sbu_2, # of connection points: 3
#     Node 14, Type 0, BuildingBlock: OLANEW_clean_sbu_2, # of connection points: 3
#     Node 15, Type 0, BuildingBlock: OLANEW_clean_sbu_2, # of connection points: 3
#     Node 16, Type 0, BuildingBlock: OLANEW_clean_sbu_2, # of connection points: 3
#     Node 17, Type 0, BuildingBlock: OLANEW_clean_sbu_2, # of connection points: 3
#     Node 18, Type 0, BuildingBlock: OLANEW_clean_sbu_2, # of connection points: 3
#     Node 19, Type 0, BuildingBlock: OLANEW_clean_sbu_2, # of connection points: 3
#     Node 20, Type 0, BuildingBlock: OLANEW_clean_sbu_2, # of connection points: 3
#     Node 21, Type 0, BuildingBlock: OLANEW_clean_sbu_2, # of connection points: 3
#     Node 22, Type 0, BuildingBlock: OLANEW_clean_sbu_2, # of connection points: 3
#     Node 23, Type 0, BuildingBlock: OLANEW_clean_sbu_2, # of connection points: 3
#     Node 24, Type 1, BuildingBlock: CUQRIR_clean_linker_1, # of connection points: 3
#     Node 25, Type 1, BuildingBlock: CUQRIR_clean_linker_1, # of connection points: 3
#     Node 26, Type 1, BuildingBlock: CUQRIR_clean_linker_1, # of connection points: 3
#     Node 27, Type 1, BuildingBlock: CUQRIR_clean_linker_1, # of connection points: 3
#     Node 28, Type 1, BuildingBlock: CUQRIR_clean_linker_1, # of connection points: 3
#     Node 29, Type 1, BuildingBlock: CUQRIR_clean_linker_1, # of connection points: 3
#     Node 30, Type 1, BuildingBlock: CUQRIR_clean_linker_1, # of connection points: 3
#     Node 31, Type 1, BuildingBlock: CUQRIR_clean_linker_1, # of connection points: 3
#     Node 32, Type 1, BuildingBlock: CUQRIR_clean_linker_1, # of connection points: 3
#     Node 33, Type 1, BuildingBlock: CUQRIR_clean_linker_1, # of connection points: 3
#     Node 34, Type 1, BuildingBlock: CUQRIR_clean_linker_1, # of connection points: 3
#     Node 35, Type 1, BuildingBlock: CUQRIR_clean_linker_1, # of connection points: 3
#     Node 36, Type 1, BuildingBlock: CUQRIR_clean_linker_1, # of connection points: 3
#     Node 37, Type 1, BuildingBlock: CUQRIR_clean_linker_1, # of connection points: 3
#     Node 38, Type 1, BuildingBlock: CUQRIR_clean_linker_1, # of connection points: 3
#     Node 39, Type 1, BuildingBlock: CUQRIR_clean_linker_1, # of connection points: 3
#     Node 40, Type 1, BuildingBlock: CUQRIR_clean_linker_1, # of connection points: 3
#     Node 41, Type 1, BuildingBlock: CUQRIR_clean_linker_1, # of connection points: 3
#     Node 42, Type 1, BuildingBlock: CUQRIR_clean_linker_1, # of connection points: 3
#     Node 43, Type 1, BuildingBlock: CUQRIR_clean_linker_1, # of connection points: 3
#     Node 44, Type 1, BuildingBlock: CUQRIR_clean_linker_1, # of connection points: 3
#     Node 45, Type 1, BuildingBlock: CUQRIR_clean_linker_1, # of connection points: 3
#     Node 46, Type 1, BuildingBlock: CUQRIR_clean_linker_1, # of connection points: 3
#     Node 47, Type 1, BuildingBlock: CUQRIR_clean_linker_1, # of connection points: 3
#     Edge 48, Type (0, 1), BuildingBlock: KIFKEQ_clean_linker_1, # of connection points: 2
#     Edge 49, Type (0, 1), BuildingBlock: KIFKEQ_clean_linker_1, # of connection points: 2
#     Edge 50, Type (0, 1), BuildingBlock: KIFKEQ_clean_linker_1, # of connection points: 2
#     Edge 51, Type (0, 1), BuildingBlock: KIFKEQ_clean_linker_1, # of connection points: 2
#     Edge 52, Type (0, 1), BuildingBlock: KIFKEQ_clean_linker_1, # of connection points: 2
#     Edge 53, Type (0, 1), BuildingBlock: KIFKEQ_clean_linker_1, # of connection points: 2
#     Edge 54, Type (0, 1), BuildingBlock: KIFKEQ_clean_linker_1, # of connection points: 2
#     Edge 55, Type (0, 1), BuildingBlock: KIFKEQ_clean_linker_1, # of connection points: 2
#     Edge 56, Type (0, 1), BuildingBlock: KIFKEQ_clean_linker_1, # of connection points: 2
#     Edge 57, Type (0, 1), BuildingBlock: KIFKEQ_clean_linker_1, # of connection points: 2
#     Edge 58, Type (0, 1), BuildingBlock: KIFKEQ_clean_linker_1, # of connection points: 2
#     Edge 59, Type (0, 1), BuildingBlock: KIFKEQ_clean_linker_1, # of connection points: 2
#     Edge 60, Type (0, 1), BuildingBlock: KIFKEQ_clean_linker_1, # of connection points: 2
#     Edge 61, Type (0, 1), BuildingBlock: KIFKEQ_clean_linker_1, # of connection points: 2
#     Edge 62, Type (0, 1), BuildingBlock: KIFKEQ_clean_linker_1, # of connection points: 2
#     Edge 63, Type (0, 1), BuildingBlock: KIFKEQ_clean_linker_1, # of connection points: 2
#     Edge 64, Type (0, 1), BuildingBlock: KIFKEQ_clean_linker_1, # of connection points: 2
#     Edge 65, Type (0, 1), BuildingBlock: KIFKEQ_clean_linker_1, # of connection points: 2
#     Edge 66, Type (0, 1), BuildingBlock: KIFKEQ_clean_linker_1, # of connection points: 2
#     Edge 67, Type (0, 1), BuildingBlock: KIFKEQ_clean_linker_1, # of connection points: 2
#     Edge 68, Type (0, 1), BuildingBlock: KIFKEQ_clean_linker_1, # of connection points: 2
#     Edge 69, Type (0, 1), BuildingBlock: KIFKEQ_clean_linker_1, # of connection points: 2
#     Edge 70, Type (0, 1), BuildingBlock: KIFKEQ_clean_linker_1, # of connection points: 2
#     Edge 71, Type (0, 1), BuildingBlock: KIFKEQ_clean_linker_1, # of connection points: 2
#     Edge 72, Type (0, 1), BuildingBlock: KIFKEQ_clean_linker_1, # of connection points: 2
#     Edge 73, Type (0, 1), BuildingBlock: KIFKEQ_clean_linker_1, # of connection points: 2
#     Edge 74, Type (0, 1), BuildingBlock: KIFKEQ_clean_linker_1, # of connection points: 2
#     Edge 75, Type (0, 1), BuildingBlock: KIFKEQ_clean_linker_1, # of connection points: 2
#     Edge 76, Type (0, 1), BuildingBlock: KIFKEQ_clean_linker_1, # of connection points: 2
#     Edge 77, Type (0, 1), BuildingBlock: KIFKEQ_clean_linker_1, # of connection points: 2
#     Edge 78, Type (0, 1), BuildingBlock: KIFKEQ_clean_linker_1, # of connection points: 2
#     Edge 79, Type (0, 1), BuildingBlock: KIFKEQ_clean_linker_1, # of connection points: 2
#     Edge 80, Type (0, 1), BuildingBlock: KIFKEQ_clean_linker_1, # of connection points: 2
#     Edge 81, Type (0, 1), BuildingBlock: KIFKEQ_clean_linker_1, # of connection points: 2
#     Edge 82, Type (0, 1), BuildingBlock: KIFKEQ_clean_linker_1, # of connection points: 2
#     Edge 83, Type (0, 1), BuildingBlock: KIFKEQ_clean_linker_1, # of connection points: 2
#     Edge 84, Type (0, 1), BuildingBlock: KIFKEQ_clean_linker_1, # of connection points: 2
#     Edge 85, Type (0, 1), BuildingBlock: KIFKEQ_clean_linker_1, # of connection points: 2
#     Edge 86, Type (0, 1), BuildingBlock: KIFKEQ_clean_linker_1, # of connection points: 2
#     Edge 87, Type (0, 1), BuildingBlock: KIFKEQ_clean_linker_1, # of connection points: 2
#     Edge 88, Type (0, 1), BuildingBlock: KIFKEQ_clean_linker_1, # of connection points: 2
#     Edge 89, Type (0, 1), BuildingBlock: KIFKEQ_clean_linker_1, # of connection points: 2
#     Edge 90, Type (0, 1), BuildingBlock: KIFKEQ_clean_linker_1, # of connection points: 2
#     Edge 91, Type (0, 1), BuildingBlock: KIFKEQ_clean_linker_1, # of connection points: 2
#     Edge 92, Type (0, 1), BuildingBlock: KIFKEQ_clean_linker_1, # of connection points: 2
#     Edge 93, Type (0, 1), BuildingBlock: KIFKEQ_clean_linker_1, # of connection points: 2
#     Edge 94, Type (0, 1), BuildingBlock: KIFKEQ_clean_linker_1, # of connection points: 2
#     Edge 95, Type (0, 1), BuildingBlock: KIFKEQ_clean_linker_1, # of connection points: 2
#     Edge 96, Type (0, 1), BuildingBlock: KIFKEQ_clean_linker_1, # of connection points: 2
#     Edge 97, Type (0, 1), BuildingBlock: KIFKEQ_clean_linker_1, # of connection points: 2
#     Edge 98, Type (0, 1), BuildingBlock: KIFKEQ_clean_linker_1, # of connection points: 2
#     Edge 99, Type (0, 1), BuildingBlock: KIFKEQ_clean_linker_1, # of connection points: 2
#     Edge 100, Type (0, 1), BuildingBlock: KIFKEQ_clean_linker_1, # of connection points: 2
#     Edge 101, Type (0, 1), BuildingBlock: KIFKEQ_clean_linker_1, # of connection points: 2
#     Edge 102, Type (0, 1), BuildingBlock: KIFKEQ_clean_linker_1, # of connection points: 2
#     Edge 103, Type (0, 1), BuildingBlock: KIFKEQ_clean_linker_1, # of connection points: 2
#     Edge 104, Type (0, 1), BuildingBlock: KIFKEQ_clean_linker_1, # of connection points: 2
#     Edge 105, Type (0, 1), BuildingBlock: KIFKEQ_clean_linker_1, # of connection points: 2
#     Edge 106, Type (0, 1), BuildingBlock: KIFKEQ_clean_linker_1, # of connection points: 2
#     Edge 107, Type (0, 1), BuildingBlock: KIFKEQ_clean_linker_1, # of connection points: 2
#     Edge 108, Type (0, 1), BuildingBlock: KIFKEQ_clean_linker_1, # of connection points: 2
#     Edge 109, Type (0, 1), BuildingBlock: KIFKEQ_clean_linker_1, # of connection points: 2
#     Edge 110, Type (0, 1), BuildingBlock: KIFKEQ_clean_linker_1, # of connection points: 2
#     Edge 111, Type (0, 1), BuildingBlock: KIFKEQ_clean_linker_1, # of connection points: 2
#     Edge 112, Type (0, 1), BuildingBlock: KIFKEQ_clean_linker_1, # of connection points: 2
#     Edge 113, Type (0, 1), BuildingBlock: KIFKEQ_clean_linker_1, # of connection points: 2
#     Edge 114, Type (0, 1), BuildingBlock: KIFKEQ_clean_linker_1, # of connection points: 2
#     Edge 115, Type (0, 1), BuildingBlock: KIFKEQ_clean_linker_1, # of connection points: 2
#     Edge 116, Type (0, 1), BuildingBlock: KIFKEQ_clean_linker_1, # of connection points: 2
#     Edge 117, Type (0, 1), BuildingBlock: KIFKEQ_clean_linker_1, # of connection points: 2
#     Edge 118, Type (0, 1), BuildingBlock: KIFKEQ_clean_linker_1, # of connection points: 2
#     Edge 119, Type (0, 1), BuildingBlock: KIFKEQ_clean_linker_1, # of connection points: 2
# Relax obj value: 0.071
# Max RMSD: 0.115
# Mean RMSD: 0.066
data_MOF--net-bwt--node1-OLANEW_clean_sbu_2--node2-CUQRIR_clean_linker_1--edge1-KIFKEQ_clean_linker_1
_symmetry_space_group_name_H-M    P1
_symmetry_Int_Tables_number       1
_symmetry_cell_setting            triclinic
loop_
_symmetry_equiv_pos_as_xyz
'x, y, z'
_cell_length_a     56.317497
_cell_length_b     56.290928
_cell_length_c     56.369807
_cell_angle_alpha  93.800489
_cell_angle_beta   93.815451
_cell_angle_gamma 93.796691
loop_
_atom_site_label
_atom_site_type_symbol
_atom_site_fract_x
_atom_site_fract_y
_atom_site_fract_z
_atom_type_partial_charge
O0 O 0.22738 0.55826 0.41069 0.0
Cd1 Cd 0.22634 0.57897 0.37379 0.0
O2 O 0.23968 0.59097 0.43282 0.0
Cd3 Cd 0.25118 0.60824 0.40158 0.0
O4 O 0.27919 0.60853 0.37656 0.0
C5 C 0.28708 0.58827 0.37166 0.0
O6 O 0.27717 0.56948 0.38079 0.0
C7 C 0.23219 0.56906 0.43118 0.0
C8 C 0.18034 0.5759 0.3516 0.0
O9 O 0.19581 0.56167 0.34481 0.0
O10 O 0.18667 0.59164 0.36872 0.0
O11 O 0.29617 0.43199 0.80368 0.0
Cd12 Cd 0.29255 0.40134 0.77058 0.0
O13 O 0.26144 0.42315 0.8179 0.0
Cd14 Cd 0.24732 0.39724 0.78894 0.0
O15 O 0.21583 0.38212 0.76676 0.0
C16 C 0.19614 0.38492 0.77603 0.0
O17 O 0.19663 0.39543 0.79761 0.0
C18 C 0.28132 0.43544 0.81935 0.0
C19 C 0.33757 0.39896 0.75295 0.0
O20 O 0.32209 0.41189 0.74357 0.0
O21 O 0.33147 0.38658 0.77013 0.0
O22 O 0.65804 0.97709 0.60176 0.0
Cd23 Cd 0.65751 0.97181 0.64434 0.0
O24 O 0.68549 0.95237 0.59328 0.0
Cd25 Cd 0.69918 0.95101 0.63032 0.0
O26 O 0.73161 0.95946 0.65383 0.0
C27 C 0.74657 0.97431 0.64583 0.0
O28 O 0.74097 0.98329 0.62544 0.0
C29 C 0.6697 0.96607 0.58649 0.0
C30 C 0.61068 0.97752 0.65601 0.0
O31 O 0.62618 0.99536 0.65696 0.0
O32 O 0.61754 0.95676 0.65038 0.0
O33 O 0.86012 0.02627 0.1728 0.0
Cd34 Cd 0.87832 0.04719 0.20949 0.0
O35 O 0.82575 0.03349 0.18669 0.0
Cd36 Cd 0.78706 0.02819 0.18745 0.0
O37 O 0.75034 0.02023 0.19608 0.0
C38 C 0.74703 0.00854 0.21425 0.0
O39 O 0.76566 0.00173 0.22664 0.0
C40 C 0.83749 0.02416 0.17043 0.0
C41 C 0.92178 0.02931 0.22268 0.0
O42 O 0.90209 0.01909 0.22818 0.0
O43 O 0.92093 0.04808 0.21104 0.0
O44 O 0.37553 0.22864 0.58147 0.0
Cd45 Cd 0.34393 0.21882 0.60774 0.0
O46 O 0.3953 0.25273 0.60943 0.0
Cd47 Cd 0.36415 0.25936 0.62937 0.0
O48 O 0.34268 0.28951 0.63761 0.0
C49 C 0.32472 0.29307 0.62374 0.0
O50 O 0.31815 0.27725 0.60593 0.0
C51 C 0.39435 0.24133 0.58911 0.0
C52 C 0.33434 0.16928 0.606 0.0
O53 O 0.32121 0.18234 0.59364 0.0
O54 O 0.35178 0.17963 0.61939 0.0
O55 O 0.18991 0.8204 0.97979 0.0
Cd56 Cd 0.23147 0.82776 0.99544 0.0
O57 O 0.17788 0.80644 0.01282 0.0
Cd58 Cd 0.21451 0.80088 0.02514 0.0
O59 O 0.24128 0.77497 0.0203 0.0
C60 C 0.2422 0.76658 0.99891 0.0
O61 O 0.22866 0.77521 0.98212 0.0
C62 C 0.17305 0.81311 0.99203 0.0
C63 C 0.24561 0.87592 0.99314 0.0
O64 O 0.2497 0.86047 0.97643 0.0
O65 O 0.23522 0.86852 0.01109 0.0
O66 O 0.79404 0.28014 0.43802 0.0
Cd67 Cd 0.76296 0.28174 0.40588 0.0
O68 O 0.81986 0.26623 0.41397 0.0
Cd69 Cd 0.79125 0.25147 0.38796 0.0
O70 O 0.76761 0.21974 0.37646 0.0
C71 C 0.75141 0.21382 0.39004 0.0
O72 O 0.74861 0.22789 0.40905 0.0
C73 C 0.81523 0.27512 0.43433 0.0
C74 C 0.75538 0.32989 0.40147 0.0
O75 O 0.74245 0.31709 0.41431 0.0
O76 O 0.77138 0.31974 0.39014 0.0
O77 O 0.59588 0.6689 0.00018 0.0
Cd78 Cd 0.63748 0.67982 0.99336 0.0
O79 O 0.58213 0.67227 0.96321 0.0
Cd80 Cd 0.616 0.69024 0.95562 0.0
O81 O 0.64144 0.72141 0.96125 0.0
C82 C 0.63624 0.7368 0.97725 0.0
O83 O 0.61699 0.73249 0.98866 0.0
C84 C 0.57864 0.66659 0.98423 0.0
C85 C 0.66393 0.64052 0.00068 0.0
O86 O 0.66172 0.65633 0.01768 0.0
O87 O 0.65409 0.64362 0.98006 0.0
O88 O 0.59915 0.4451 0.20189 0.0
Cd89 Cd 0.63171 0.4223 0.18823 0.0
O90 O 0.6016 0.42739 0.23529 0.0
Cd91 Cd 0.59133 0.41757 0.27033 0.0
O92 O 0.58506 0.40237 0.30423 0.0
C93 C 0.56594 0.38967 0.30651 0.0
O94 O 0.54984 0.38637 0.28842 0.0
C95 C 0.59192 0.44237 0.22247 0.0
C96 C 0.62002 0.39796 0.14388 0.0
O97 O 0.61626 0.38796 0.16319 0.0
O98 O 0.62928 0.41949 0.14558 0.0
O99 O 0.04471 0.16303 0.86722 0.0
Cd100 Cd 0.0674 0.19392 0.89345 0.0
O101 O 0.04266 0.18853 0.83961 0.0
Cd102 Cd 0.03058 0.20187 0.80562 0.0
O103 O 0.01979 0.21803 0.77282 0.0
C104 C 0.99926 0.21263 0.76239 0.0
O105 O 0.98471 0.19705 0.77153 0.0
C106 C 0.03769 0.16773 0.84627 0.0
C107 C 0.04022 0.2119 0.92922 0.0
O108 O 0.04068 0.2214 0.90919 0.0
O109 O 0.0526 0.1939 0.93228 0.0
O110 O 0.41649 0.81817 0.28943 0.0
Cd111 Cd 0.38896 0.78302 0.29127 0.0
O112 O 0.39665 0.83289 0.2595 0.0
Cd113 Cd 0.3734 0.80043 0.25107 0.0
O114 O 0.36335 0.7699 0.22562 0.0
C115 C 0.37808 0.75384 0.22373 0.0
O116 O 0.39735 0.75547 0.23839 0.0
C117 C 0.41384 0.83478 0.27547 0.0
C118 C 0.3958 0.76505 0.33602 0.0
O119 O 0.40643 0.7567 0.3182 0.0
O120 O 0.38159 0.78155 0.33256 0.0
O121 O 0.98097 0.58315 0.65848 0.0
Cd122 Cd 0.97907 0.6263 0.66348 0.0
O123 O 0.94777 0.57418 0.67541 0.0
Cd124 Cd 0.94436 0.61105 0.68885 0.0
O125 O 0.94411 0.64006 0.71664 0.0
C126 C 0.96108 0.65623 0.72007 0.0
O127 O 0.97852 0.65625 0.70571 0.0
C128 C 0.96543 0.56761 0.66433 0.0
C129 C 0.99216 0.64618 0.62186 0.0
O130 O 0.00785 0.64285 0.63863 0.0
O131 O 0.97023 0.64052 0.62499 0.0
O132 O 0.77531 0.41034 0.59583 0.0
Cd133 Cd 0.77713 0.38828 0.63179 0.0
O134 O 0.7694 0.44484 0.61448 0.0
Cd135 Cd 0.75783 0.42949 0.64674 0.0
O136 O 0.72656 0.42782 0.6678 0.0
C137 C 0.70934 0.41244 0.66158 0.0
O138 O 0.71169 0.39655 0.64389 0.0
C139 C 0.7736 0.43274 0.59556 0.0
C140 C 0.82466 0.37986 0.644 0.0
O141 O 0.81168 0.36565 0.62897 0.0
O142 O 0.81507 0.3978 0.65359 0.0
O143 O 0.68876 0.62512 0.18601 0.0
Cd144 Cd 0.67767 0.65727 0.21347 0.0
O145 O 0.72367 0.62298 0.20514 0.0
Cd146 Cd 0.75944 0.61028 0.21029 0.0
O147 O 0.79519 0.5983 0.21723 0.0
C148 C 0.81318 0.61335 0.2198 0.0
O149 O 0.80993 0.63608 0.218 0.0
C150 C 0.70848 0.61546 0.18815 0.0
C151 C 0.63388 0.64454 0.23115 0.0
O152 O 0.63497 0.65425 0.21128 0.0
O153 O 0.65352 0.64115 0.24286 0.0
O154 O 0.3791 0.08484 0.42045 0.0
Cd155 Cd 0.39162 0.10451 0.38565 0.0
O156 O 0.35352 0.06291 0.39595 0.0
Cd157 Cd 0.32301 0.03738 0.3855 0.0
O158 O 0.28989 0.0183 0.37033 0.0
C159 C 0.27415 0.03096 0.3615 0.0
O160 O 0.27865 0.05422 0.36231 0.0
C161 C 0.36272 0.06811 0.41704 0.0
C162 C 0.42507 0.07837 0.36322 0.0
O163 O 0.43161 0.09549 0.3789 0.0
O164 O 0.40267 0.07378 0.35796 0.0
O165 O 0.1855 0.98273 0.79186 0.0
Cd166 Cd 0.17067 0.97224 0.75048 0.0
O167 O 0.19289 0.02007 0.78379 0.0
Cd168 Cd 0.19401 0.01142 0.74556 0.0
O169 O 0.22104 0.00985 0.71952 0.0
C170 C 0.23209 0.99108 0.71611 0.0
O171 O 0.22533 0.97186 0.72661 0.0
C172 C 0.19132 0.00438 0.79894 0.0
C173 C 0.12267 0.98194 0.74442 0.0
O174 O 0.12867 0.96109 0.74911 0.0
O175 O 0.13936 0.99811 0.74227 0.0
O176 O 0.61148 0.77326 0.4113 0.0
Cd177 Cd 0.6474 0.78132 0.39009 0.0
O178 O 0.62979 0.75623 0.44076 0.0
Cd179 Cd 0.66282 0.75076 0.42358 0.0
O180 O 0.68689 0.72232 0.41761 0.0
C181 C 0.68065 0.70543 0.40187 0.0
O182 O 0.661 0.70673 0.38823 0.0
C183 C 0.61106 0.76424 0.43137 0.0
C184 C 0.65664 0.83058 0.3878 0.0
O185 O 0.64227 0.81841 0.37228 0.0
O186 O 0.6669 0.81944 0.40428 0.0
O187 O 0.80384 0.16791 0.96405 0.0
Cd188 Cd 0.7708 0.14435 0.94157 0.0
O189 O 0.77846 0.19278 0.97707 0.0
Cd190 Cd 0.77 0.22632 0.99539 0.0
O191 O 0.76436 0.26248 0.00928 0.0
C192 C 0.7561 0.27682 0.99486 0.0
O193 O 0.75104 0.2692 0.97244 0.0
C194 C 0.79973 0.18656 0.97663 0.0
C195 C 0.76446 0.09883 0.95789 0.0
O196 O 0.77854 0.10307 0.94148 0.0
O197 O 0.75331 0.11616 0.96656 0.0
O198 O 0.2091 0.72428 0.59933 0.0
Cd199 Cd 0.24313 0.71898 0.62737 0.0
O200 O 0.22937 0.7136 0.56886 0.0
Cd201 Cd 0.2618 0.7287 0.58935 0.0
O202 O 0.27759 0.76495 0.59902 0.0
C203 C 0.26261 0.78017 0.60392 0.0
O204 O 0.24006 0.77269 0.60439 0.0
C205 C 0.20959 0.71775 0.57735 0.0
C206 C 0.25156 0.67044 0.62572 0.0
O207 O 0.23579 0.67892 0.63863 0.0
O208 O 0.26378 0.68495 0.61392 0.0
O209 O 0.4106 0.37432 0.06194 0.0
Cd210 Cd 0.37498 0.38915 0.07837 0.0
O211 O 0.39242 0.33867 0.0555 0.0
Cd212 Cd 0.3863 0.30159 0.04089 0.0
O213 O 0.37186 0.26586 0.02755 0.0
C214 C 0.37835 0.24726 0.03706 0.0
O215 O 0.39465 0.24952 0.05501 0.0
C216 C 0.41083 0.3527 0.05396 0.0
C217 C 0.36151 0.42836 0.05429 0.0
O218 O 0.37531 0.43109 0.07343 0.0
O219 O 0.35379 0.40709 0.04674 0.0
O220 O 0.38502 0.56684 0.79465 0.0
Cd221 Cd 0.35242 0.58872 0.80984 0.0
O222 O 0.38675 0.5893 0.76446 0.0
Cd223 Cd 0.40027 0.60367 0.73231 0.0
O224 O 0.41059 0.61995 0.69998 0.0
C225 C 0.39601 0.61867 0.68165 0.0
O226 O 0.37498 0.60726 0.68245 0.0
C227 C 0.39438 0.57204 0.77558 0.0
C228 C 0.36001 0.60181 0.85853 0.0
O229 O 0.34944 0.58157 0.85107 0.0
O230 O 0.36696 0.61584 0.84296 0.0
O231 O 0.966 0.81823 0.15668 0.0
Cd232 Cd 0.93913 0.78869 0.13279 0.0
O233 O 0.97132 0.79294 0.18418 0.0
Cd234 Cd 0.9843 0.78249 0.21916 0.0
O235 O 0.99726 0.77275 0.25431 0.0
C236 C 0.98249 0.76785 0.26967 0.0
O237 O 0.95957 0.76875 0.26398 0.0
C238 C 0.97577 0.81346 0.17661 0.0
C239 C 0.95129 0.78365 0.08563 0.0
O240 O 0.9372 0.79938 0.09229 0.0
O241 O 0.95962 0.7703 0.10128 0.0
O242 O 0.57226 0.17807 0.68899 0.0
Cd243 Cd 0.60223 0.21175 0.69228 0.0
O244 O 0.57176 0.17413 0.72753 0.0
Cd245 Cd 0.59631 0.20483 0.73935 0.0
O246 O 0.60555 0.22954 0.77051 0.0
C247 C 0.61539 0.22116 0.78879 0.0
O248 O 0.62148 0.199 0.78717 0.0
C249 C 0.56437 0.16725 0.70624 0.0
C250 C 0.59895 0.23429 0.64973 0.0
O251 O 0.61208 0.21674 0.65216 0.0
O252 O 0.5879 0.24162 0.66767 0.0
O253 O 0.07291 0.39363 0.3832 0.0
Cd254 Cd 0.08702 0.35809 0.4005 0.0
O255 O 0.05472 0.36972 0.35444 0.0
Cd256 Cd 0.03463 0.36148 0.31996 0.0
O257 O 0.01588 0.35337 0.28492 0.0
C258 C 0.02573 0.35959 0.26644 0.0
O259 O 0.04695 0.37102 0.26894 0.0
C260 C 0.05961 0.39076 0.36398 0.0
C261 C 0.05905 0.34452 0.43695 0.0
O262 O 0.07808 0.35832 0.44141 0.0
O263 O 0.05331 0.33704 0.41522 0.0
C264 C 0.26979 0.47627 0.61469 0.0
N265 N 0.26336 0.49318 0.59994 0.0
N266 N 0.26691 0.45431 0.60306 0.0
C267 C 0.27948 0.48125 0.64017 0.0
C268 C 0.25874 0.45845 0.58069 0.0
N269 N 0.25667 0.48207 0.57873 0.0
C270 C 0.25353 0.43941 0.56063 0.0
H271 H 0.29023 0.46673 0.64629 0.0
H272 H 0.26434 0.48264 0.65167 0.0
H273 H 0.29053 0.49842 0.64238 0.0
H274 H 0.24637 0.42249 0.56728 0.0
H275 H 0.27037 0.43591 0.55231 0.0
H276 H 0.24052 0.44509 0.54685 0.0
C277 C 0.31566 0.5927 0.9782 0.0
N278 N 0.31769 0.57095 0.9671 0.0
N279 N 0.30699 0.60786 0.96256 0.0
C280 C 0.31985 0.59828 0.0047 0.0
C281 C 0.30392 0.59441 0.94156 0.0
N282 N 0.31011 0.57191 0.94439 0.0
C283 C 0.29675 0.60376 0.91792 0.0
H284 H 0.30826 0.61214 0.01115 0.0
H285 H 0.33877 0.60487 0.00879 0.0
H286 H 0.31648 0.58207 0.01448 0.0
H287 H 0.30497 0.59389 0.90324 0.0
H288 H 0.30221 0.62306 0.91789 0.0
H289 H 0.27709 0.60123 0.91452 0.0
C290 C 0.6817 0.02639 0.3865 0.0
N291 N 0.67531 0.00914 0.40093 0.0
N292 N 0.68099 0.04829 0.3979 0.0
C293 C 0.68812 0.02191 0.36124 0.0
C294 C 0.67417 0.04365 0.41983 0.0
N295 N 0.67052 0.01988 0.42157 0.0
C296 C 0.67341 0.0622 0.44024 0.0
H297 H 0.70737 0.01879 0.36131 0.0
H298 H 0.68475 0.03752 0.35078 0.0
H299 H 0.67782 0.00578 0.35263 0.0
H300 H 0.65532 0.06891 0.43991 0.0
H301 H 0.68652 0.07751 0.43864 0.0
H302 H 0.67714 0.05462 0.45766 0.0
C303 C 0.72875 0.91467 0.00049 0.0
N304 N 0.74193 0.93312 0.01255 0.0
N305 N 0.72998 0.89466 0.01248 0.0
C306 C 0.71553 0.9159 0.97659 0.0
C307 C 0.74434 0.90165 0.03229 0.0
N308 N 0.75175 0.92498 0.03219 0.0
C309 C 0.74979 0.88614 0.05239 0.0
H310 H 0.69735 0.92157 0.9793 0.0
H311 H 0.71386 0.89819 0.96651 0.0
H312 H 0.72474 0.92915 0.966 0.0
H313 H 0.76502 0.87552 0.048 0.0
H314 H 0.73424 0.87355 0.05471 0.0
H315 H 0.75475 0.89696 0.06938 0.0
C316 C 0.55847 0.30276 0.47445 0.0
N317 N 0.54776 0.29169 0.49188 0.0
N318 N 0.54226 0.30619 0.45634 0.0
C319 C 0.58481 0.30916 0.47461 0.0
C320 C 0.52132 0.29681 0.46347 0.0
N321 N 0.52474 0.28789 0.48502 0.0
C322 C 0.49736 0.29814 0.45033 0.0
H323 H 0.58882 0.3273 0.48349 0.0
H324 H 0.59061 0.30921 0.45618 0.0
H325 H 0.59507 0.29649 0.4847 0.0
H326 H 0.49337 0.2817 0.43837 0.0
H327 H 0.4973 0.31376 0.43933 0.0
H328 H 0.48308 0.29929 0.46291 0.0
C329 C 0.97832 0.75261 0.89627 0.0
N330 N 0.99226 0.76315 0.91503 0.0
N331 N 0.99035 0.75218 0.87623 0.0
C332 C 0.95267 0.7437 0.89728 0.0
C333 C 0.01214 0.76284 0.88352 0.0
N334 N 0.01321 0.76969 0.90706 0.0
C335 C 0.0331 0.76418 0.86829 0.0
H336 H 0.95191 0.72493 0.90226 0.0
H337 H 0.94273 0.74428 0.87968 0.0
H338 H 0.94394 0.75451 0.91093 0.0
H339 H 0.03334 0.7812 0.85942 0.0
H340 H 0.03175 0.74922 0.85432 0.0
H341 H 0.05019 0.76375 0.87919 0.0
C342 C 0.97273 0.29099 0.5929 0.0
N343 N 0.96258 0.29427 0.57102 0.0
N344 N 0.95641 0.28114 0.60661 0.0
C345 C 0.99895 0.29534 0.60015 0.0
C346 C 0.93602 0.27848 0.59227 0.0
N347 N 0.93979 0.28629 0.57052 0.0
C348 C 0.9122 0.26966 0.60013 0.0
H349 H 0.0098 0.29386 0.58447 0.0
H350 H 0.0048 0.2825 0.61306 0.0
H351 H 0.00231 0.31364 0.60882 0.0
H352 H 0.91141 0.27335 0.61964 0.0
H353 H 0.90957 0.25008 0.59602 0.0
H354 H 0.89751 0.27824 0.59065 0.0
C355 C 0.38037 0.65472 0.05011 0.0
N356 N 0.39501 0.64773 0.0333 0.0
N357 N 0.39271 0.65893 0.0716 0.0
C358 C 0.3541 0.65723 0.04562 0.0
C359 C 0.41542 0.65452 0.06715 0.0
N360 N 0.41676 0.64749 0.04388 0.0
C361 C 0.43665 0.65969 0.08489 0.0
H362 H 0.35139 0.675 0.03888 0.0
H363 H 0.34475 0.65572 0.06223 0.0
H364 H 0.34622 0.64346 0.03188 0.0
H365 H 0.44047 0.64306 0.09349 0.0
H366 H 0.43317 0.67351 0.09894 0.0
H367 H 0.45271 0.66583 0.076 0.0
C368 C 0.45866 0.5869 0.29143 0.0
N369 N 0.47754 0.57674 0.28233 0.0
N370 N 0.44112 0.57 0.29468 0.0
C371 C 0.45811 0.61297 0.29902 0.0
C372 C 0.45004 0.54921 0.2873 0.0
N373 N 0.47219 0.55329 0.27985 0.0
C374 C 0.4365 0.52515 0.2859 0.0
H375 H 0.44684 0.61557 0.31426 0.0
H376 H 0.45042 0.6223 0.2839 0.0
H377 H 0.47636 0.62114 0.30413 0.0
H378 H 0.41699 0.52692 0.28352 0.0
H379 H 0.44034 0.51654 0.30274 0.0
H380 H 0.44206 0.51345 0.27095 0.0
C381 C 0.93126 0.00561 0.72192 0.0
N382 N 0.95005 0.01878 0.73341 0.0
N383 N 0.91098 0.01703 0.72391 0.0
C384 C 0.93279 0.982 0.70819 0.0
C385 C 0.91815 0.03768 0.73692 0.0
N386 N 0.94197 0.03877 0.74256 0.0
C387 C 0.90167 0.05632 0.74442 0.0
H388 H 0.93729 0.98528 0.68977 0.0
H389 H 0.91551 0.9712 0.70729 0.0
H390 H 0.94697 0.97177 0.71635 0.0
H391 H 0.89207 0.05019 0.75971 0.0
H392 H 0.88816 0.05863 0.72965 0.0
H393 H 0.91134 0.07375 0.75004 0.0
C394 C 0.57025 0.99458 0.28127 0.0
N395 N 0.54823 0.98515 0.28511 0.0
N396 N 0.58213 0.97861 0.26848 0.0
C397 C 0.57945 0.01992 0.28842 0.0
C398 C 0.5665 0.95918 0.26458 0.0
N399 N 0.54582 0.96322 0.2746 0.0
C400 C 0.57211 0.93576 0.25256 0.0
H401 H 0.56462 0.03194 0.28872 0.0
H402 H 0.59256 0.02639 0.27604 0.0
H403 H 0.58844 0.02069 0.30661 0.0
H404 H 0.56254 0.9206 0.26034 0.0
H405 H 0.59156 0.93352 0.25419 0.0
H406 H 0.56622 0.93536 0.23335 0.0
C407 C 0.01802 0.36658 0.68075 0.0
N408 N 0.00147 0.38041 0.67154 0.0
N409 N 0.03995 0.37836 0.68257 0.0
C410 C 0.01282 0.34163 0.68781 0.0
C411 C 0.03596 0.39998 0.67441 0.0
N412 N 0.01263 0.40111 0.66749 0.0
C413 C 0.05425 0.42095 0.6761 0.0
H414 H 0.02869 0.33109 0.68635 0.0
H415 H 0.99755 0.33272 0.67648 0.0
H416 H 0.00792 0.34236 0.70657 0.0
H417 H 0.06429 0.42027 0.65982 0.0
H418 H 0.06711 0.42031 0.69179 0.0
H419 H 0.04582 0.43819 0.67747 0.0
C420 C 0.74162 0.52456 0.40969 0.0
N421 N 0.74807 0.50686 0.42337 0.0
N422 N 0.74317 0.54572 0.42283 0.0
C423 C 0.73456 0.52136 0.38344 0.0
C424 C 0.75058 0.54021 0.44503 0.0
N425 N 0.75372 0.51659 0.44533 0.0
C426 C 0.75233 0.55741 0.4668 0.0
H427 H 0.74392 0.50668 0.37489 0.0
H428 H 0.73861 0.53809 0.37468 0.0
H429 H 0.71508 0.51663 0.38086 0.0
H430 H 0.74777 0.54817 0.48285 0.0
H431 H 0.74028 0.57202 0.46445 0.0
H432 H 0.77092 0.5654 0.46978 0.0
C433 C 0.73066 0.46547 0.03055 0.0
N434 N 0.72808 0.48636 0.04306 0.0
N435 N 0.73583 0.44833 0.04548 0.0
C436 C 0.72936 0.46211 0.0038 0.0
C437 C 0.73635 0.45959 0.06754 0.0
N438 N 0.73166 0.48272 0.06604 0.0
C439 C 0.73946 0.44756 0.09047 0.0
H440 H 0.7107 0.4566 0.99713 0.0
H441 H 0.74093 0.44799 0.99785 0.0
H442 H 0.73481 0.47901 0.99592 0.0
H443 H 0.75873 0.44859 0.09632 0.0
H444 H 0.73291 0.42847 0.08797 0.0
H445 H 0.72988 0.45655 0.1047 0.0
C446 C 0.30598 0.9728 0.59327 0.0
N447 N 0.31143 0.99062 0.57907 0.0
N448 N 0.30472 0.95137 0.58064 0.0
C449 C 0.30057 0.97624 0.61897 0.0
C450 C 0.3096 0.95673 0.55836 0.0
N451 N 0.31366 0.98057 0.55739 0.0
C452 C 0.31162 0.93854 0.53794 0.0
H453 H 0.31725 0.97503 0.63031 0.0
H454 H 0.2874 0.96204 0.62359 0.0
H455 H 0.29366 0.99396 0.62295 0.0
H456 H 0.29412 0.93565 0.52753 0.0
H457 H 0.31647 0.92123 0.54451 0.0
H458 H 0.32515 0.94487 0.52592 0.0
C459 C 0.29537 0.0667 0.98868 0.0
N460 N 0.28132 0.05038 0.97449 0.0
N461 N 0.29466 0.08857 0.98006 0.0
C462 C 0.30859 0.06159 0.01163 0.0
C463 C 0.2797 0.08492 0.96012 0.0
N464 N 0.27142 0.06173 0.95685 0.0
C465 C 0.27502 0.10352 0.94272 0.0
H466 H 0.31068 0.07769 0.02426 0.0
H467 H 0.3266 0.05617 0.00775 0.0
H468 H 0.29916 0.04679 0.02008 0.0
H469 H 0.29003 0.11744 0.9437 0.0
H470 H 0.25859 0.1122 0.94711 0.0
H471 H 0.27233 0.09532 0.9242 0.0
C472 C 0.42665 0.70219 0.51483 0.0
N473 N 0.43992 0.71301 0.49896 0.0
N474 N 0.44038 0.69839 0.5347 0.0
C475 C 0.4001 0.69663 0.51152 0.0
C476 C 0.46249 0.70725 0.53029 0.0
N477 N 0.46218 0.71631 0.50861 0.0
C478 C 0.48467 0.70498 0.54617 0.0
H479 H 0.39201 0.69707 0.52895 0.0
H480 H 0.39645 0.67846 0.5026 0.0
H481 H 0.39163 0.70949 0.50012 0.0
H482 H 0.48254 0.68943 0.55713 0.0
H483 H 0.48808 0.72136 0.55831 0.0
H484 H 0.50038 0.70299 0.53551 0.0
C485 C 0.97074 0.29487 0.08511 0.0
N486 N 0.95779 0.28251 0.06668 0.0
N487 N 0.95679 0.29982 0.10321 0.0
C488 C 0.99739 0.3 0.08643 0.0
C489 C 0.93494 0.28989 0.0952 0.0
N490 N 0.93554 0.27923 0.073 0.0
C491 C 0.91286 0.29179 0.10861 0.0
H492 H 0.00513 0.30063 0.10509 0.0
H493 H 0.00146 0.31762 0.07933 0.0
H494 H 0.00602 0.2863 0.07559 0.0
H495 H 0.91444 0.30811 0.12096 0.0
H496 H 0.91057 0.27606 0.11932 0.0
H497 H 0.89681 0.29216 0.09614 0.0
C498 C 0.02685 0.7128 0.44877 0.0
N499 N 0.04093 0.70938 0.46848 0.0
N500 N 0.0399 0.72268 0.43215 0.0
C501 C 0.00072 0.705 0.44507 0.0
C502 C 0.06243 0.72515 0.44244 0.0
N503 N 0.06313 0.71692 0.46452 0.0
C504 C 0.0832 0.73764 0.43175 0.0
H505 H 0.99551 0.70027 0.42592 0.0
H506 H 0.9902 0.71991 0.45122 0.0
H507 H 0.99628 0.68943 0.45544 0.0
H508 H 0.07702 0.75103 0.41959 0.0
H509 H 0.09261 0.72427 0.42129 0.0
H510 H 0.09598 0.74668 0.44585 0.0
C511 C 0.5937 0.30316 0.96774 0.0
N512 N 0.5785 0.31059 0.98383 0.0
N513 N 0.58141 0.29349 0.94758 0.0
C514 C 0.62044 0.30585 0.97151 0.0
C515 C 0.55824 0.29539 0.95189 0.0
N516 N 0.55647 0.30593 0.97391 0.0
C517 C 0.53745 0.28716 0.9345 0.0
H518 H 0.62626 0.32326 0.98127 0.0
H519 H 0.62902 0.30441 0.95438 0.0
H520 H 0.6265 0.29151 0.98256 0.0
H521 H 0.54188 0.27206 0.92232 0.0
H522 H 0.53296 0.30213 0.92356 0.0
H523 H 0.52157 0.28168 0.944 0.0
C524 C 0.52512 0.42439 0.71091 0.0
N525 N 0.50619 0.43629 0.71723 0.0
N526 N 0.54473 0.43968 0.71073 0.0
C527 C 0.52481 0.39776 0.70629 0.0
C528 C 0.53697 0.46132 0.71715 0.0
N529 N 0.51352 0.45923 0.72114 0.0
C530 C 0.5519 0.48455 0.71802 0.0
H531 H 0.51134 0.38859 0.71666 0.0
H532 H 0.54263 0.39131 0.71086 0.0
H533 H 0.51998 0.39307 0.68707 0.0
H534 H 0.54075 0.4994 0.71361 0.0
H535 H 0.56622 0.48345 0.70547 0.0
H536 H 0.56036 0.48853 0.73632 0.0
C537 C 0.09852 0.97778 0.27933 0.0
N538 N 0.0792 0.96484 0.26876 0.0
N539 N 0.11653 0.96354 0.28376 0.0
C540 C 0.09942 0.00409 0.28636 0.0
C541 C 0.10736 0.94141 0.27557 0.0
N542 N 0.08457 0.94222 0.26649 0.0
C543 C 0.12123 0.91949 0.27474 0.0
H544 H 0.1053 0.01409 0.27123 0.0
H545 H 0.11224 0.00887 0.30203 0.0
H546 H 0.08153 0.00959 0.29057 0.0
H547 H 0.11819 0.90978 0.29089 0.0
H548 H 0.14063 0.92429 0.27446 0.0
H549 H 0.11517 0.90739 0.25885 0.0
C550 C 0.41854 0.9986 0.67025 0.0
N551 N 0.43985 0.01141 0.67159 0.0
N552 N 0.40082 0.01304 0.67495 0.0
C553 C 0.41483 0.97237 0.66305 0.0
C554 C 0.41219 0.03504 0.67932 0.0
N555 N 0.43586 0.03403 0.67718 0.0
C556 C 0.40049 0.0571 0.68761 0.0
H557 H 0.42839 0.96677 0.65082 0.0
H558 H 0.39672 0.96788 0.65428 0.0
H559 H 0.41672 0.96225 0.67923 0.0
H560 H 0.38481 0.05244 0.69773 0.0
H561 H 0.39436 0.0664 0.67181 0.0
H562 H 0.41322 0.06954 0.69902 0.0
C563 C 0.99483 0.56724 0.27387 0.0
N564 N 0.00996 0.55265 0.28431 0.0
N565 N 0.97259 0.55632 0.27019 0.0
C566 C 0.00199 0.59146 0.26583 0.0
C567 C 0.97468 0.53461 0.27879 0.0
N568 N 0.99739 0.53234 0.28726 0.0
C569 C 0.95415 0.51649 0.28081 0.0
H570 H 1.00002 0.60516 0.28051 0.0
H571 H 0.99036 0.59552 0.25015 0.0
H572 H 0.02086 0.59253 0.26124 0.0
H573 H 0.95205 0.50433 0.26438 0.0
H574 H 0.93727 0.5253 0.28271 0.0
H575 H 0.95746 0.50565 0.29627 0.0
H576 H 0.14043 0.59164 0.37038 0.0
H577 H 0.1648 0.5557 0.30745 0.0
H578 H 0.09966 0.58681 0.35287 0.0
H579 H 0.12421 0.55215 0.28909 0.0
H580 H 0.04606 0.52545 0.27392 0.0
H581 H 0.08748 0.53158 0.28975 0.0
H582 H 0.07193 0.59885 0.32508 0.0
H583 H 0.03009 0.59124 0.31094 0.0
C584 C 0.13708 0.58303 0.3526 0.0
C585 C 0.15577 0.57395 0.34033 0.0
C586 C 0.11367 0.58042 0.34241 0.0
C587 C 0.10841 0.56911 0.31943 0.0
C588 C 0.12734 0.56051 0.30698 0.0
C589 C 0.15069 0.56267 0.31742 0.0
C590 C 0.05162 0.54144 0.28519 0.0
C591 C 0.03495 0.55779 0.29138 0.0
C592 C 0.07544 0.54518 0.29404 0.0
C593 C 0.08327 0.56572 0.30889 0.0
C594 C 0.06661 0.58256 0.31419 0.0
C595 C 0.04269 0.57849 0.30575 0.0
H596 H 0.37638 0.38105 0.77512 0.0
H597 H 0.35465 0.41867 0.71381 0.0
H598 H 0.4179 0.38635 0.76536 0.0
H599 H 0.39624 0.42384 0.70405 0.0
H600 H 0.48667 0.43719 0.75925 0.0
H601 H 0.44557 0.4242 0.76653 0.0
H602 H 0.43203 0.40064 0.69206 0.0
H603 H 0.47346 0.41362 0.68506 0.0
C604 C 0.3804 0.39012 0.75935 0.0
C605 C 0.36224 0.39961 0.74534 0.0
C606 C 0.40418 0.39322 0.75384 0.0
C607 C 0.41027 0.4056 0.73403 0.0
C608 C 0.39202 0.41407 0.71933 0.0
C609 C 0.36824 0.41122 0.72501 0.0
C610 C 0.47491 0.42883 0.74464 0.0
C611 C 0.48294 0.42622 0.72169 0.0
C612 C 0.45151 0.42135 0.74874 0.0
C613 C 0.43564 0.41138 0.72984 0.0
C614 C 0.4439 0.40832 0.7069 0.0
C615 C 0.46748 0.41553 0.70291 0.0
H616 H 0.58998 0.01973 0.66221 0.0
H617 H 0.57399 0.94335 0.65816 0.0
H618 H 0.54783 0.0258 0.6652 0.0
H619 H 0.53164 0.94954 0.66116 0.0
H620 H 0.46191 0.97693 0.69365 0.0
H621 H 0.5035 0.96708 0.69033 0.0
H622 H 0.51124 0.01818 0.63699 0.0
H623 H 0.46973 0.02756 0.64019 0.0
C624 C 0.57751 0.00422 0.66214 0.0
C625 C 0.58535 0.98105 0.65984 0.0
C626 C 0.55333 0.00772 0.66367 0.0
C627 C 0.53643 0.98813 0.66312 0.0
C628 C 0.5443 0.96495 0.66165 0.0
C629 C 0.56852 0.96143 0.65989 0.0
C630 C 0.47246 0.9855 0.68084 0.0
C631 C 0.46286 0.00299 0.6672 0.0
C632 C 0.4962 0.98001 0.67902 0.0
C633 C 0.51068 0.99212 0.66365 0.0
C634 C 0.50064 0.00888 0.6493 0.0
C635 C 0.47693 0.01415 0.65099 0.0
H636 H 0.96603 0.0525 0.22547 0.0
H637 H 0.9295 0.98432 0.23514 0.0
H638 H 0.004 0.03679 0.23701 0.0
H639 H 0.96755 0.96807 0.24539 0.0
H640 H 0.07082 0.99652 0.23624 0.0
H641 H 0.03242 0.01156 0.22425 0.0
H642 H 0.9986 0.96828 0.2749 0.0
H643 H 0.03703 0.95253 0.28564 0.0
C644 C 0.96618 0.03406 0.22983 0.0
C645 C 0.94483 0.01965 0.22945 0.0
C646 C 0.98798 0.02495 0.23629 0.0
C647 C 0.98899 0.00107 0.24207 0.0
C648 C 0.96753 0.98665 0.24151 0.0
C649 C 0.94569 0.9959 0.23547 0.0
C650 C 0.05503 0.99035 0.24464 0.0
C651 C 0.05657 0.97357 0.26181 0.0
C652 C 0.03308 0.999 0.23797 0.0
C653 C 0.01229 0.99131 0.2487 0.0
C654 C 0.01405 0.97437 0.26594 0.0
C655 C 0.03598 0.96545 0.27227 0.0
H656 H 0.36596 0.13616 0.61639 0.0
H657 H 0.29271 0.1431 0.59176 0.0
H658 H 0.35954 0.09294 0.61111 0.0
H659 H 0.28564 0.09985 0.58793 0.0
H660 H 0.28735 0.02344 0.55684 0.0
H661 H 0.29261 0.06662 0.56429 0.0
H662 H 0.34306 0.05798 0.62393 0.0
H663 H 0.33916 0.01472 0.61454 0.0
C664 C 0.34834 0.12838 0.61023 0.0
C665 C 0.32988 0.143 0.60433 0.0
C666 C 0.34455 0.10352 0.60736 0.0
C667 C 0.32203 0.09262 0.59899 0.0
C668 C 0.30339 0.1074 0.59384 0.0
C669 C 0.30735 0.13227 0.5962 0.0
C670 C 0.29958 0.03093 0.57147 0.0
C671 C 0.31285 0.01596 0.58523 0.0
C672 C 0.30242 0.05569 0.57601 0.0
C673 C 0.31827 0.06607 0.59483 0.0
C674 C 0.33101 0.05083 0.60904 0.0
C675 C 0.3285 0.02606 0.60408 0.0
H676 H 0.27426 0.89648 0.96176 0.0
H677 H 0.2314 0.91348 0.02055 0.0
H678 H 0.28356 0.93905 0.95799 0.0
H679 H 0.24061 0.956 0.01663 0.0
H680 H 0.23878 0.02762 0.9797 0.0
H681 H 0.23069 0.98498 0.98501 0.0
H682 H 0.30584 0.97469 0.98235 0.0
H683 H 0.31367 0.01741 0.97708 0.0
C684 C 0.26691 0.90928 0.97392 0.0
C685 C 0.25208 0.90163 0.99143 0.0
C686 C 0.27232 0.93363 0.97182 0.0
C687 C 0.26274 0.95078 0.98698 0.0
C688 C 0.24806 0.94313 0.00458 0.0
C689 C 0.2429 0.9188 0.0069 0.0
C690 C 0.25344 0.01611 0.98035 0.0
C691 C 0.27679 0.0255 0.97812 0.0
C692 C 0.24891 0.99186 0.98348 0.0
C693 C 0.26767 0.97658 0.98413 0.0
C694 C 0.29105 0.98606 0.98179 0.0
C695 C 0.29558 0.01039 0.97896 0.0
H696 H 0.72018 0.35564 0.41923 0.0
H697 H 0.78497 0.36297 0.38256 0.0
H698 H 0.71798 0.3989 0.42132 0.0
H699 H 0.78272 0.40623 0.3847 0.0
H700 H 0.71175 0.47674 0.40393 0.0
H701 H 0.71249 0.43343 0.39539 0.0
H702 H 0.78738 0.43792 0.41879 0.0
H703 H 0.78639 0.48112 0.42715 0.0
C704 C 0.7338 0.36644 0.41138 0.0
C705 C 0.7528 0.35587 0.40082 0.0
C706 C 0.73246 0.39121 0.41247 0.0
C707 C 0.75023 0.40594 0.40324 0.0
C708 C 0.76889 0.39533 0.39214 0.0
C709 C 0.7701 0.37055 0.39082 0.0
C710 C 0.72837 0.46837 0.40673 0.0
C711 C 0.74905 0.482 0.41601 0.0
C712 C 0.72879 0.44368 0.4021 0.0
C713 C 0.74999 0.43231 0.40643 0.0
C714 C 0.77085 0.4462 0.41502 0.0
C715 C 0.77032 0.47081 0.41988 0.0
H716 H 0.66847 0.6022 0.96928 0.0
H717 H 0.68758 0.62954 0.04199 0.0
H718 H 0.68651 0.56506 0.97741 0.0
H719 H 0.70532 0.59233 0.05013 0.0
H720 H 0.75173 0.52946 0.05219 0.0
H721 H 0.73856 0.56783 0.04022 0.0
H722 H 0.67648 0.53114 0.00152 0.0
H723 H 0.68974 0.49298 0.01378 0.0
C724 C 0.67668 0.60037 0.98694 0.0
C725 C 0.6765 0.61878 0.00503 0.0
C726 C 0.6869 0.57905 0.99161 0.0
C727 C 0.69726 0.57575 0.01442 0.0
C728 C 0.69771 0.59444 0.0323 0.0
C729 C 0.68742 0.61571 0.02766 0.0
C730 C 0.73542 0.52976 0.04094 0.0
C731 C 0.72171 0.50847 0.03381 0.0
C732 C 0.72783 0.55161 0.03416 0.0
C733 C 0.70645 0.5525 0.01998 0.0
C734 C 0.69319 0.53102 0.01218 0.0
C735 C 0.70074 0.50921 0.0191 0.0
H736 H 0.60359 0.35126 0.13444 0.0
H737 H 0.62271 0.41544 0.09999 0.0
H738 H 0.59354 0.33002 0.09553 0.0
H739 H 0.61283 0.39412 0.06112 0.0
H740 H 0.60374 0.29456 0.02093 0.0
H741 H 0.61412 0.3158 0.06006 0.0
H742 H 0.57685 0.37588 0.03708 0.0
H743 H 0.567 0.3546 0.99794 0.0
C744 C 0.60568 0.36083 0.11858 0.0
C745 C 0.61393 0.38504 0.12031 0.0
C746 C 0.60005 0.34862 0.0963 0.0
C747 C 0.60241 0.36041 0.07528 0.0
C748 C 0.6106 0.38463 0.07701 0.0
C749 C 0.61637 0.3968 0.09928 0.0
C750 C 0.59801 0.31237 0.02437 0.0
C751 C 0.58472 0.32312 0.00667 0.0
C752 C 0.60371 0.32443 0.04671 0.0
C753 C 0.5963 0.34751 0.05162 0.0
C754 C 0.58302 0.35823 0.03375 0.0
C755 C 0.57724 0.34609 0.01149 0.0
H756 H 0.01298 0.25037 0.92852 0.0
H757 H 0.03557 0.19545 0.9733 0.0
H758 H 0.99068 0.267 0.9606 0.0
H759 H 0.01364 0.2123 0.00544 0.0
H760 H 0.95543 0.23594 0.05172 0.0
H761 H 0.97325 0.2181 0.01689 0.0
H762 H 0.99953 0.28835 -0.0003 0.0
H763 H 0.98102 0.30595 0.0342 0.0
C764 C 0.01317 0.24182 0.94518 0.0
C765 C 0.02611 0.22163 0.94838 0.0
C766 C 0.00047 0.25142 0.96359 0.0
C767 C 0.0004 0.24099 0.98558 0.0
C768 C 0.01306 0.22058 0.98862 0.0
C769 C 0.02578 0.21101 0.97024 0.0
C770 C 0.96472 0.24744 0.04018 0.0
C771 C 0.96695 0.27221 0.04541 0.0
C772 C 0.9751 0.2373 0.02043 0.0
C773 C 0.98792 0.2518 0.00559 0.0
C774 C 0.98958 0.2767 0.01061 0.0
C775 C 0.9792 0.28678 0.03037 0.0
H776 H 0.38316 0.78492 0.37847 0.0
H777 H 0.41903 0.72591 0.34792 0.0
H778 H 0.39256 0.77196 0.41832 0.0
H779 H 0.4283 0.71294 0.38781 0.0
H780 H 0.41892 0.68475 0.46211 0.0
H781 H 0.40666 0.69678 0.42228 0.0
H782 H 0.43078 0.76979 0.44461 0.0
H783 H 0.44294 0.75751 0.48434 0.0
C784 C 0.39289 0.76909 0.38024 0.0
C785 C 0.4004 0.75646 0.36004 0.0
C786 C 0.39837 0.76177 0.40306 0.0
C787 C 0.41119 0.74149 0.40614 0.0
C788 C 0.41823 0.72854 0.38593 0.0
C789 C 0.41302 0.73603 0.36312 0.0
C790 C 0.42129 0.70335 0.4584 0.0
C791 C 0.4317 0.7203 0.47604 0.0
C792 C 0.4145 0.71022 0.43569 0.0
C793 C 0.41776 0.73422 0.43039 0.0
C794 C 0.42784 0.75121 0.44827 0.0
C795 C 0.43488 0.74426 0.47087 0.0
H796 H 0.963 0.6587 0.58472 0.0
H797 H 0.03729 0.65518 0.608 0.0
H798 H 0.97463 0.6735 0.54715 0.0
H799 H 0.04888 0.67014 0.57046 0.0
H800 H 0.0581 0.67188 0.48973 0.0
H801 H 0.04632 0.65644 0.52724 0.0
H802 H 0.99496 0.7099 0.53293 0.0
H803 H 0.00708 0.72531 0.49563 0.0
C804 C 0.98181 0.66116 0.58186 0.0
C805 C 0.99922 0.65578 0.59935 0.0
C806 C 0.98846 0.66972 0.56038 0.0
C807 C 0.01266 0.67293 0.55585 0.0
C808 C 0.03008 0.66758 0.57334 0.0
C809 C 0.02344 0.65917 0.5949 0.0
C810 C 0.04433 0.68021 0.49913 0.0
C811 C 0.0334 0.69966 0.48996 0.0
C812 C 0.03764 0.67151 0.52055 0.0
C813 C 0.0197 0.68198 0.53301 0.0
C814 C 0.0086 0.70128 0.52359 0.0
C815 C 0.01546 0.71007 0.5023 0.0
H816 H 0.85258 0.35013 0.6197 0.0
H817 H 0.85458 0.40148 0.68041 0.0
H818 H 0.89544 0.3464 0.6269 0.0
H819 H 0.89734 0.39754 0.68766 0.0
H820 H 0.97079 0.37011 0.70469 0.0
H821 H 0.927 0.36661 0.69898 0.0
H822 H 0.93171 0.37598 0.62396 0.0
H823 H 0.97538 0.37968 0.62997 0.0
C824 C 0.86209 0.3604 0.63474 0.0
C825 C 0.85021 0.37619 0.64943 0.0
C826 C 0.88662 0.35831 0.63879 0.0
C827 C 0.89968 0.37167 0.65783 0.0
C828 C 0.88767 0.38685 0.67299 0.0
C829 C 0.86322 0.38921 0.66874 0.0
C830 C 0.9623 0.37084 0.68697 0.0
C831 C 0.97615 0.37497 0.66769 0.0
C832 C 0.93738 0.36907 0.68371 0.0
C833 C 0.92599 0.37106 0.66103 0.0
C834 C 0.93999 0.37415 0.64158 0.0
C835 C 0.96486 0.3763 0.64496 0.0
H836 H 0.62482 0.63206 0.27587 0.0
H837 H 0.59046 0.63939 0.2062 0.0
H838 H 0.58672 0.61801 0.28989 0.0
H839 H 0.55262 0.62428 0.21976 0.0
H840 H 0.4834 0.61332 0.25434 0.0
H841 H 0.52112 0.63227 0.24361 0.0
H842 H 0.55951 0.58437 0.28648 0.0
H843 H 0.52171 0.56686 0.29835 0.0
C844 C 0.60912 0.63059 0.26353 0.0
C845 C 0.61064 0.63681 0.23993 0.0
C846 C 0.58728 0.62238 0.27151 0.0
C847 C 0.5665 0.61986 0.25597 0.0
C848 C 0.56807 0.62636 0.2324 0.0
C849 C 0.58984 0.63488 0.22454 0.0
C850 C 0.5 0.60729 0.26175 0.0
C851 C 0.4998 0.58866 0.27705 0.0
C852 C 0.5216 0.61786 0.25538 0.0
C853 C 0.54348 0.60976 0.26398 0.0
C854 C 0.54313 0.59134 0.27971 0.0
C855 C 0.52151 0.58107 0.28632 0.0
H856 H 0.41689 0.0377 0.3337 0.0
H857 H 0.47349 0.08691 0.36681 0.0
H858 H 0.44633 0.01391 0.31543 0.0
H859 H 0.50286 0.06361 0.34795 0.0
H860 H 0.55109 0.00458 0.33011 0.0
H861 H 0.52071 0.02638 0.34961 0.0
H862 H 0.47414 0.01483 0.2851 0.0
H863 H 0.50454 0.99257 0.26612 0.0
C864 C 0.43561 0.04353 0.33694 0.0
C865 C 0.44286 0.06417 0.35172 0.0
C866 C 0.45249 0.02995 0.32637 0.0
C867 C 0.47699 0.03679 0.33024 0.0
C868 C 0.48418 0.05755 0.34493 0.0
C869 C 0.46733 0.07102 0.35561 0.0
C870 C 0.53428 0.00677 0.32031 0.0
C871 C 0.52998 0.99713 0.29675 0.0
C872 C 0.51694 0.01929 0.33132 0.0
C873 C 0.49502 0.02253 0.31887 0.0
C874 C 0.49068 0.01245 0.29532 0.0
C875 C 0.50801 0.9998 0.2844 0.0
H876 H 0.08338 0.9504 0.74169 0.0
H877 H 0.10448 0.02559 0.74183 0.0
H878 H 0.04158 0.95922 0.73829 0.0
H879 H 0.06271 0.03456 0.73936 0.0
H880 H 0.98543 0.04094 0.71192 0.0
H881 H 0.02745 0.03187 0.71367 0.0
H882 H 0.01175 0.97596 0.76058 0.0
H883 H 0.9697 0.98481 0.75785 0.0
C884 C 0.07908 0.96884 0.7411 0.0
C885 C 0.09726 0.98729 0.74201 0.0
C886 C 0.05509 0.97393 0.73932 0.0
C887 C 0.04867 0.99763 0.73863 0.0
C888 C 0.06691 0.01607 0.73947 0.0
C889 C 0.09091 0.01095 0.74102 0.0
C890 C 0.99119 0.02667 0.72242 0.0
C891 C 0.97463 0.01329 0.73449 0.0
C892 C 0.01518 0.02155 0.72363 0.0
C893 C 0.02308 0.00309 0.73721 0.0
C894 C 0.00631 0.98994 0.74954 0.0
C895 C 0.9823 0.99498 0.74812 0.0
H896 H 0.63046 0.86034 0.362 0.0
H897 H 0.69186 0.86012 0.4122 0.0
H898 H 0.63566 0.90383 0.36267 0.0
H899 H 0.69715 0.90365 0.41261 0.0
H900 H 0.71016 0.98077 0.38933 0.0
H901 H 0.70669 0.93687 0.38401 0.0
H902 H 0.63168 0.93693 0.3957 0.0
H903 H 0.63545 0.98063 0.40125 0.0
C904 C 0.6452 0.86954 0.37299 0.0
C905 C 0.66069 0.85679 0.38713 0.0
C906 C 0.64811 0.89443 0.37341 0.0
C907 C 0.6668 0.90707 0.38769 0.0
C908 C 0.68272 0.89431 0.40129 0.0
C909 C 0.67959 0.86943 0.40116 0.0
C910 C 0.69296 0.97124 0.39034 0.0
C911 C 0.67299 0.98376 0.39545 0.0
C912 C 0.69098 0.94626 0.38752 0.0
C913 C 0.6689 0.93354 0.38939 0.0
C914 C 0.64884 0.94627 0.3939 0.0
C915 C 0.65094 0.97114 0.3971 0.0
H916 H 0.78685 0.05912 0.94415 0.0
H917 H 0.73463 0.0838 0.99112 0.0
H918 H 0.78128 0.0192 0.95807 0.0
H919 H 0.72932 0.04388 0.00529 0.0
H920 H 0.7835 0.95723 0.00626 0.0
H921 H 0.78925 0.99804 0.99405 0.0
H922 H 0.71292 0.00359 0.99048 0.0
H923 H 0.70753 0.96296 0.00343 0.0
C924 C 0.77424 0.05606 0.95751 0.0
C925 C 0.76117 0.07464 0.96651 0.0
C926 C 0.77116 0.03321 0.96559 0.0
C927 C 0.75489 0.02839 0.98282 0.0
C928 C 0.74181 0.04697 0.99182 0.0
C929 C 0.74494 0.06986 0.98379 0.0
C930 C 0.76809 0.96741 0.0031 0.0
C931 C 0.74513 0.95721 0.00572 0.0
C932 C 0.77129 0.99059 0.99589 0.0
C933 C 0.75153 0.00401 0.99119 0.0
C934 C 0.72852 0.9938 0.99415 0.0
C935 C 0.72537 0.97057 0.00132 0.0
H936 H 0.22026 0.63421 0.63597 0.0
H937 H 0.29031 0.64817 0.61105 0.0
H938 H 0.22441 0.59157 0.63064 0.0
H939 H 0.29526 0.60543 0.60707 0.0
H940 H 0.28579 0.52772 0.57686 0.0
H941 H 0.28356 0.5707 0.58381 0.0
H942 H 0.24204 0.55887 0.64441 0.0
H943 H 0.2426 0.51589 0.63577 0.0
C944 C 0.23676 0.62813 0.62974 0.0
C945 C 0.25493 0.64454 0.62387 0.0
C946 C 0.23926 0.60359 0.62684 0.0
C947 C 0.26023 0.59479 0.61844 0.0
C948 C 0.27865 0.61136 0.61311 0.0
C949 C 0.27592 0.63592 0.61556 0.0
C950 C 0.27608 0.53446 0.59152 0.0
C951 C 0.26414 0.5186 0.60563 0.0
C952 C 0.27504 0.55911 0.59578 0.0
C953 C 0.26249 0.56851 0.61465 0.0
C954 C 0.25141 0.55246 0.62937 0.0
C955 C 0.25204 0.52781 0.62474 0.0
H956 H 0.37228 0.47564 0.06746 0.0
H957 H 0.33611 0.42806 0.0112 0.0
H958 H 0.36179 0.50982 0.04565 0.0
H959 H 0.3262 0.46223 0.98904 0.0
H960 H 0.29049 0.53016 0.9693 0.0
H961 H 0.30114 0.49516 0.99016 0.0
H962 H 0.37099 0.52987 0.01075 0.0
H963 H 0.3598 0.56491 0.9902 0.0
C964 C 0.36217 0.47247 0.05038 0.0
C965 C 0.35498 0.44913 0.04109 0.0
C966 C 0.35631 0.49207 0.03778 0.0
C967 C 0.34322 0.4888 0.01553 0.0
C968 C 0.33603 0.46542 0.00626 0.0
C969 C 0.3418 0.44582 0.01892 0.0
C970 C 0.30815 0.53001 0.97813 0.0
C971 C 0.32443 0.54994 0.97823 0.0
C972 C 0.31431 0.51005 0.99002 0.0
C973 C 0.33692 0.5097 0.0022 0.0
C974 C 0.3533 0.52967 0.0019 0.0
C975 C 0.34706 0.54963 0.99007 0.0
H976 H 0.35068 0.57471 0.89576 0.0
H977 H 0.37904 0.64455 0.87969 0.0
H978 H 0.35834 0.58593 0.93825 0.0
H979 H 0.38694 0.65565 0.92211 0.0
H980 H 0.39934 0.60512 0.01056 0.0
H981 H 0.3904 0.5939 0.96805 0.0
H982 H 0.36787 0.66474 0.95795 0.0
H983 H 0.37727 0.67571 0.00052 0.0
C984 C 0.35851 0.59246 0.9013 0.0
C985 C 0.36425 0.60873 0.88435 0.0
C986 C 0.36298 0.59886 0.92565 0.0
C987 C 0.37314 0.62172 0.93364 0.0
C988 C 0.37872 0.63803 0.91664 0.0
C989 C 0.37436 0.6316 0.89229 0.0
C990 C 0.39235 0.6181 0.99909 0.0
C991 C 0.3887 0.64109 0.00853 0.0
C992 C 0.3871 0.61173 0.97485 0.0
C993 C 0.37831 0.62839 0.95954 0.0
C994 C 0.37488 0.65155 0.96914 0.0
C995 C 0.37996 0.6578 0.99346 0.0
H996 H 0.97734 0.74951 0.06524 0.0
H997 H 0.93961 0.8116 0.04933 0.0
H998 H 0.98751 0.74481 0.02386 0.0
H999 H 0.94966 0.80674 0.00792 0.0
H1000 H 0.99478 0.80437 0.94235 0.0
H1001 H 0.98531 0.80972 0.98416 0.0
H1002 H 0.96674 0.73398 0.98407 0.0
H1003 H 0.97668 0.72886 0.94247 0.0
C1004 C 0.97121 0.76215 0.05292 0.0
C1005 C 0.95764 0.78091 0.06057 0.0
C1006 C 0.97694 0.75937 0.0292 0.0
C1007 C 0.96935 0.77538 0.01263 0.0
C1008 C 0.95596 0.79426 0.02032 0.0
C1009 C 0.95009 0.79695 0.04401 0.0
C1010 C 0.98865 0.789 0.95143 0.0
C1011 C 0.98619 0.76628 0.93938 0.0
C1012 C 0.98312 0.79201 0.9752 0.0
C1013 C 0.97523 0.77227 0.98738 0.0
C1014 C 0.97294 0.7495 0.97523 0.0
C1015 C 0.97834 0.74656 0.95143 0.0
H1016 H 0.61253 0.21715 0.60662 0.0
H1017 H 0.57728 0.27501 0.64024 0.0
H1018 H 0.60312 0.23214 0.56767 0.0
H1019 H 0.56801 0.29001 0.60124 0.0
H1020 H 0.57194 0.31977 0.52722 0.0
H1021 H 0.58777 0.30724 0.56582 0.0
H1022 H 0.56342 0.23424 0.54374 0.0
H1023 H 0.54768 0.247 0.50541 0.0
C1024 C 0.60307 0.23324 0.60574 0.0
C1025 C 0.5955 0.24481 0.62649 0.0
C1026 C 0.59761 0.24174 0.58343 0.0
C1027 C 0.58475 0.26215 0.58146 0.0
C1028 C 0.57809 0.27433 0.60227 0.0
C1029 C 0.58329 0.26566 0.62457 0.0
C1030 C 0.57041 0.30106 0.53068 0.0
C1031 C 0.55882 0.28423 0.5136 0.0
C1032 C 0.57925 0.29391 0.55268 0.0
C1033 C 0.57687 0.26976 0.5577 0.0
C1034 C 0.56577 0.25291 0.54024 0.0
C1035 C 0.55669 0.26013 0.51844 0.0
H1036 H 0.01538 0.31971 0.4328 0.0
H1037 H 0.06901 0.35342 0.4849 0.0
H1038 H 0.99073 0.30843 0.46476 0.0
H1039 H 0.04477 0.34151 0.51684 0.0
H1040 H 0.9864 0.33677 0.56826 0.0
H1041 H 0.00888 0.34978 0.53515 0.0
H1042 H 0.98919 0.28178 0.49615 0.0
H1043 H 0.96632 0.26934 0.52922 0.0
C1044 C 0.02196 0.3246 0.45108 0.0
C1045 C 0.04414 0.33748 0.45632 0.0
C1046 C 0.00788 0.31803 0.46942 0.0
C1047 C 0.01572 0.32407 0.49341 0.0
C1048 C 0.03796 0.33692 0.49858 0.0
C1049 C 0.05196 0.34361 0.48026 0.0
C1050 C 0.98689 0.32483 0.55246 0.0
C1051 C 0.97477 0.30219 0.55105 0.0
C1052 C 0.99982 0.33212 0.53359 0.0
C1053 C 0.00099 0.31677 0.513 0.0
C1054 C 0.98844 0.29418 0.51156 0.0
C1055 C 0.97542 0.28699 0.53042 0.0
H1056 H 0.22848 0.52073 0.434 0.0
H1057 H 0.23384 0.58728 0.47756 0.0
H1058 H 0.23168 0.49883 0.4699 0.0
H1059 H 0.2368 0.56522 0.51346 0.0
H1060 H 0.22215 0.51268 0.57241 0.0
H1061 H 0.21288 0.53377 0.53644 0.0
H1062 H 0.26748 0.49783 0.50099 0.0
H1063 H 0.2772 0.47765 0.53713 0.0
C1064 C 0.22993 0.53068 0.45121 0.0
C1065 C 0.23108 0.55576 0.45292 0.0
C1066 C 0.23187 0.51812 0.47174 0.0
C1067 C 0.23462 0.53037 0.49439 0.0
C1068 C 0.23457 0.55536 0.49619 0.0
C1069 C 0.23298 0.56796 0.47564 0.0
C1070 C 0.23205 0.50939 0.55684 0.0
C1071 C 0.25022 0.49348 0.55732 0.0
C1072 C 0.22678 0.52136 0.53636 0.0
C1073 C 0.23933 0.51722 0.51592 0.0
C1074 C 0.25725 0.50102 0.51636 0.0
C1075 C 0.26278 0.48944 0.53694 0.0
H1076 H 0.32142 0.46608 0.82751 0.0
H1077 H 0.25356 0.44762 0.85561 0.0
H1078 H 0.32914 0.49864 0.85846 0.0
H1079 H 0.2615 0.47984 0.88667 0.0
H1080 H 0.26964 0.55695 0.91835 0.0
H1081 H 0.26356 0.52325 0.88852 0.0
H1082 H 0.33709 0.50736 0.90197 0.0
H1083 H 0.34311 0.54171 0.93145 0.0
C1084 C 0.30824 0.46881 0.84039 0.0
C1085 C 0.28678 0.45432 0.83895 0.0
C1086 C 0.31274 0.4874 0.8582 0.0
C1087 C 0.29586 0.49192 0.87491 0.0
C1088 C 0.27469 0.47707 0.87381 0.0
C1089 C 0.2702 0.45851 0.85606 0.0
C1090 C 0.2845 0.54636 0.91465 0.0
C1091 C 0.30688 0.55196 0.92686 0.0
C1092 C 0.281 0.52691 0.89784 0.0
C1093 C 0.29982 0.51256 0.89292 0.0
C1094 C 0.32228 0.51819 0.90521 0.0
C1095 C 0.32573 0.53768 0.92214 0.0
H1096 H 0.68453 0.94016 0.54808 0.0
H1097 H 0.64672 0.00215 0.5672 0.0
H1098 H 0.68134 0.94957 0.50645 0.0
H1099 H 0.64452 0.01223 0.52595 0.0
H1100 H 0.6324 0.02056 0.44787 0.0
H1101 H 0.62863 0.00374 0.48658 0.0
H1102 H 0.69889 0.97748 0.48265 0.0
H1103 H 0.70174 0.99345 0.44366 0.0
C1104 C 0.67548 0.95577 0.54338 0.0
C1105 C 0.66601 0.97049 0.56096 0.0
C1106 C 0.67377 0.96126 0.51952 0.0
C1107 C 0.66286 0.98181 0.51275 0.0
C1108 C 0.65272 0.99607 0.53031 0.0
C1109 C 0.65413 0.99037 0.55408 0.0
C1110 C 0.6467 0.01078 0.45533 0.0
C1111 C 0.6673 0.00814 0.4431 0.0
C1112 C 0.64472 0.00132 0.47748 0.0
C1113 C 0.66354 0.98936 0.48794 0.0
C1114 C 0.68385 0.98617 0.47511 0.0
C1115 C 0.68562 0.99538 0.45286 0.0
H1116 H 0.79677 0.03381 0.14512 0.0
H1117 H 0.85082 0.9831 0.14881 0.0
H1118 H 0.77643 0.01047 0.11087 0.0
H1119 H 0.83001 0.95895 0.11535 0.0
H1120 H 0.79915 0.93067 0.04183 0.0
H1121 H 0.82058 0.95585 0.07455 0.0
H1122 H 0.75299 0.97566 0.09939 0.0
H1123 H 0.73216 0.9516 0.06563 0.0
C1124 C 0.80404 0.01741 0.13879 0.0
C1125 C 0.82517 0.01008 0.1497 0.0
C1126 C 0.79238 0.00395 0.11918 0.0
C1127 C 0.8014 0.98262 0.11028 0.0
C1128 C 0.82267 0.97543 0.12131 0.0
C1129 C 0.83456 0.98916 0.14061 0.0
C1130 C 0.78916 0.94064 0.05435 0.0
C1131 C 0.76425 0.93953 0.0515 0.0
C1132 C 0.80127 0.95488 0.07319 0.0
C1133 C 0.78859 0.96787 0.0898 0.0
C1134 C 0.76347 0.96641 0.0868 0.0
C1135 C 0.75147 0.95252 0.06768 0.0
H1136 H 0.44042 0.25638 0.60318 0.0
H1137 H 0.39402 0.23321 0.54069 0.0
H1138 H 0.47294 0.26505 0.57807 0.0
H1139 H 0.42622 0.24297 0.51538 0.0
H1140 H 0.49425 0.2489 0.47594 0.0
H1141 H 0.46367 0.23435 0.50156 0.0
H1142 H 0.48383 0.29439 0.55251 0.0
H1143 H 0.51473 0.30797 0.52719 0.0
C1144 C 0.43719 0.25312 0.58404 0.0
C1145 C 0.41461 0.24429 0.5739 0.0
C1146 C 0.45579 0.25827 0.5696 0.0
C1147 C 0.45217 0.25512 0.54461 0.0
C1148 C 0.42979 0.24544 0.53453 0.0
C1149 C 0.41126 0.23993 0.54904 0.0
C1150 C 0.49197 0.25875 0.4927 0.0
C1151 C 0.50663 0.27941 0.49981 0.0
C1152 C 0.47449 0.25057 0.50733 0.0
C1153 C 0.47126 0.26311 0.52923 0.0
C1154 C 0.48608 0.2839 0.53611 0.0
C1155 C 0.50364 0.29186 0.52161 0.0
H1156 H 0.15722 0.82123 0.94662 0.0
H1157 H 0.13252 0.7994 0.01335 0.0
H1158 H 0.11714 0.8131 0.92785 0.0
H1159 H 0.09216 0.79191 0.9947 0.0
H1160 H 0.03418 0.749 0.94379 0.0
H1161 H 0.07178 0.76251 0.9663 0.0
H1162 H 0.07693 0.82473 0.92534 0.0
H1163 H 0.03943 0.81062 0.90263 0.0
C1164 C 0.14315 0.81509 0.95741 0.0
C1165 C 0.14814 0.81077 0.98145 0.0
C1166 C 0.12009 0.81056 0.94667 0.0
C1167 C 0.1014 0.80172 0.95972 0.0
C1168 C 0.10621 0.79832 0.98402 0.0
C1169 C 0.12933 0.80275 0.99475 0.0
C1170 C 0.04327 0.76573 0.94 0.0
C1171 C 0.03417 0.77885 0.92163 0.0
C1172 C 0.06473 0.77355 0.95287 0.0
C1173 C 0.07746 0.7947 0.94759 0.0
C1174 C 0.06779 0.80819 0.92962 0.0
C1175 C 0.04637 0.80027 0.91672 0.0
H1176 H 0.80969 0.28019 0.48206 0.0
H1177 H 0.86359 0.27801 0.43096 0.0
H1178 H 0.84096 0.28377 0.51465 0.0
H1179 H 0.8948 0.28217 0.4638 0.0
H1180 H 0.93014 0.32243 0.54294 0.0
H1181 H 0.90061 0.32101 0.50855 0.0
H1182 H 0.881 0.24721 0.51866 0.0
H1183 H 0.91127 0.24828 0.55214 0.0
C1184 C 0.82818 0.28078 0.47777 0.0
C1185 C 0.83419 0.27874 0.45394 0.0
C1186 C 0.84598 0.2828 0.49641 0.0
C1187 C 0.87008 0.28329 0.49153 0.0
C1188 C 0.87624 0.2819 0.46782 0.0
C1189 C 0.85842 0.27945 0.44914 0.0
C1190 C 0.9197 0.30588 0.53754 0.0
C1191 C 0.92271 0.28552 0.55023 0.0
C1192 C 0.90287 0.30511 0.51804 0.0
C1193 C 0.88864 0.28404 0.51127 0.0
C1194 C 0.89176 0.26366 0.52379 0.0
C1195 C 0.90884 0.26432 0.54296 0.0
H1196 H 0.56523 0.65359 0.02748 0.0
H1197 H 0.53713 0.66192 0.95549 0.0
H1198 H 0.52501 0.64493 0.03924 0.0
H1199 H 0.49679 0.65272 0.96722 0.0
H1200 H 0.43122 0.6736 0.0087 0.0
H1201 H 0.46993 0.67396 0.99161 0.0
H1202 H 0.48986 0.61722 0.03536 0.0
H1203 H 0.45091 0.61721 0.05247 0.0
C1204 C 0.55051 0.65321 0.01405 0.0
C1205 C 0.5544 0.65871 0.99059 0.0
C1206 C 0.52742 0.64804 0.02077 0.0
C1207 C 0.50765 0.64822 0.0042 0.0
C1208 C 0.51162 0.65275 0.98049 0.0
C1209 C 0.53475 0.65792 0.97375 0.0
C1210 C 0.44371 0.66083 0.01411 0.0
C1211 C 0.43828 0.64535 0.03177 0.0
C1212 C 0.46586 0.66098 0.00437 0.0
C1213 C 0.48305 0.64567 0.01219 0.0
C1214 C 0.47713 0.62944 0.02919 0.0
C1215 C 0.45491 0.62931 0.0389 0.0
H1216 H 0.58599 0.45939 0.26813 0.0
H1217 H 0.55511 0.45852 0.1959 0.0
H1218 H 0.55554 0.48485 0.28166 0.0
H1219 H 0.52442 0.48384 0.20937 0.0
H1220 H 0.48636 0.51511 0.30181 0.0
H1221 H 0.5138 0.48626 0.28762 0.0
H1222 H 0.52086 0.52429 0.22397 0.0
H1223 H 0.49252 0.55229 0.23792 0.0
C1224 C 0.57228 0.46407 0.25525 0.0
C1225 C 0.57266 0.45659 0.23103 0.0
C1226 C 0.55487 0.4788 0.26297 0.0
C1227 C 0.53746 0.48639 0.24661 0.0
C1228 C 0.53773 0.47862 0.22241 0.0
C1229 C 0.55522 0.46401 0.2147 0.0
C1230 C 0.49353 0.5169 0.28462 0.0
C1231 C 0.48742 0.53573 0.27087 0.0
C1232 C 0.50944 0.50063 0.2766 0.0
C1233 C 0.51963 0.50298 0.25467 0.0
C1234 C 0.51313 0.52172 0.24078 0.0
C1235 C 0.49711 0.53787 0.24878 0.0
H1236 H 0.03706 0.16069 0.79762 0.0
H1237 H 0.00724 0.13233 0.85933 0.0
H1238 H 0.01416 0.12953 0.77194 0.0
H1239 H 0.9843 0.10118 0.83376 0.0
H1240 H 0.96585 0.03435 0.78459 0.0
H1241 H 0.98997 0.06566 0.8093 0.0
H1242 H 0.97385 0.11621 0.75702 0.0
H1243 H 0.95052 0.08439 0.73212 0.0
C1244 C 0.02518 0.14816 0.80564 0.0
C1245 C 0.02354 0.14926 0.83043 0.0
C1246 C 0.01218 0.13017 0.79094 0.0
C1247 C 0.99736 0.11284 0.80077 0.0
C1248 C 0.9958 0.114 0.82561 0.0
C1249 C 0.00883 0.13193 0.84026 0.0
C1250 C 0.96766 0.05219 0.77852 0.0
C1251 C 0.95619 0.05727 0.75683 0.0
C1252 C 0.98125 0.07014 0.79264 0.0
C1253 C 0.98363 0.09355 0.78528 0.0
C1254 C 0.9725 0.09839 0.76319 0.0
C1255 C 0.95899 0.08035 0.74905 0.0
H1256 H 0.41478 0.87251 0.24721 0.0
H1257 H 0.45295 0.84428 0.30696 0.0
H1258 H 0.44538 0.90532 0.24785 0.0
H1259 H 0.4837 0.87685 0.30729 0.0
H1260 H 0.52048 0.93974 0.23707 0.0
H1261 H 0.48702 0.90987 0.23821 0.0
H1262 H 0.49149 0.91998 0.31512 0.0
H1263 H 0.52544 0.94931 0.31371 0.0
C1264 C 0.42961 0.87335 0.26057 0.0
C1265 C 0.43145 0.85568 0.27696 0.0
C1266 C 0.44721 0.89209 0.26083 0.0
C1267 C 0.46704 0.89361 0.27752 0.0
C1268 C 0.46853 0.87633 0.29435 0.0
C1269 C 0.45095 0.85757 0.29407 0.0
C1270 C 0.51421 0.93544 0.25412 0.0
C1271 C 0.52544 0.94654 0.2753 0.0
C1272 C 0.49496 0.91859 0.25483 0.0
C1273 C 0.4866 0.91253 0.27677 0.0
C1274 C 0.49766 0.92406 0.29795 0.0
C1275 C 0.5169 0.94093 0.2972 0.0
H1276 H 0.93476 0.52943 0.67188 0.0
H1277 H 0.00397 0.54755 0.64655 0.0
H1278 H 0.94236 0.48724 0.66818 0.0
H1279 H 0.01188 0.50563 0.64365 0.0
H1280 H 0.0182 0.4275 0.62992 0.0
H1281 H 0.00295 0.46676 0.62446 0.0
H1282 H 0.96723 0.46221 0.6898 0.0
H1283 H 0.98207 0.42292 0.69453 0.0
C1284 C 0.95152 0.52441 0.66536 0.0
C1285 C 0.96885 0.54189 0.65973 0.0
C1286 C 0.95593 0.50023 0.66335 0.0
C1287 C 0.97782 0.493 0.65581 0.0
C1288 C 0.99469 0.51044 0.64921 0.0
C1289 C 0.99023 0.53457 0.65106 0.0
C1290 C 0.00664 0.43488 0.64268 0.0
C1291 C 0.00113 0.42245 0.66254 0.0
C1292 C 0.99805 0.45732 0.63974 0.0
C1293 C 0.98399 0.46777 0.65679 0.0
C1294 C 0.97767 0.45464 0.67611 0.0
C1295 C 0.98616 0.43219 0.67892 0.0
H1296 H 0.77945 0.48053 0.5897 0.0
H1297 H 0.77004 0.41168 0.55022 0.0
H1298 H 0.77719 0.50015 0.55234 0.0
H1299 H 0.76761 0.43141 0.51289 0.0
H1300 H 0.72783 0.4789 0.45966 0.0
H1301 H 0.73603 0.45742 0.49528 0.0
H1302 H 0.79916 0.50445 0.51403 0.0
H1303 H 0.79125 0.52539 0.47775 0.0
C1304 C 0.77717 0.46958 0.57306 0.0
C1305 C 0.77479 0.44455 0.57293 0.0
C1306 C 0.776 0.48083 0.55168 0.0
C1307 C 0.77211 0.46728 0.52977 0.0
C1308 C 0.77044 0.44225 0.52958 0.0
C1309 C 0.77195 0.43099 0.55094 0.0
C1310 C 0.74371 0.48425 0.47115 0.0
C1311 C 0.75902 0.50362 0.46601 0.0
C1312 C 0.74839 0.47204 0.49152 0.0
C1313 C 0.76827 0.47925 0.50735 0.0
C1314 C 0.78366 0.49861 0.50216 0.0
C1315 C 0.77915 0.51058 0.48154 0.0
H1316 H 0.73331 0.5761 0.19597 0.0
H1317 H 0.69357 0.61016 0.14126 0.0
H1318 H 0.73936 0.54299 0.16726 0.0
H1319 H 0.69962 0.57722 0.11253 0.0
H1320 H 0.6914 0.50382 0.07415 0.0
H1321 H 0.68625 0.53576 0.10454 0.0
H1322 H 0.75961 0.53246 0.13141 0.0
H1323 H 0.76432 0.50014 0.10098 0.0
C1324 C 0.72641 0.57681 0.17768 0.0
C1325 C 0.71336 0.59592 0.17073 0.0
C1326 C 0.72971 0.55775 0.16126 0.0
C1327 C 0.71989 0.55739 0.13762 0.0
C1328 C 0.70706 0.5767 0.1307 0.0
C1329 C 0.70371 0.59565 0.1471 0.0
C1330 C 0.70625 0.50992 0.08675 0.0
C1331 C 0.72823 0.49983 0.08538 0.0
C1332 C 0.70345 0.52826 0.104 0.0
C1333 C 0.72263 0.53689 0.12023 0.0
C1334 C 0.74445 0.52614 0.11929 0.0
C1335 C 0.7472 0.50772 0.10198 0.0
H1336 H 0.36298 0.08555 0.46322 0.0
H1337 H 0.34524 0.02158 0.41718 0.0
H1338 H 0.3506 0.06443 0.49731 0.0
H1339 H 0.33255 0.00057 0.45112 0.0
H1340 H 0.28988 0.9787 0.51419 0.0
H1341 H 0.30118 1.00018 0.47976 0.0
H1342 H 0.36408 0.0321 0.52098 0.0
H1343 H 0.35261 0.01043 0.5552 0.0
C1344 C 0.35626 0.06702 0.46036 0.0
C1345 C 0.35449 0.05539 0.43742 0.0
C1346 C 0.34927 0.05491 0.47988 0.0
C1347 C 0.34047 0.03087 0.47687 0.0
C1348 C 0.33876 0.01923 0.45392 0.0
C1349 C 0.34582 0.03134 0.43441 0.0
C1350 C 0.30619 0.99017 0.51564 0.0
C1351 C 0.32048 0.99296 0.53711 0.0
C1352 C 0.31267 0.00245 0.49605 0.0
C1353 C 0.33351 0.01785 0.49767 0.0
C1354 C 0.34776 0.02062 0.51927 0.0
C1355 C 0.34131 0.00823 0.53879 0.0
H1356 H 0.20211 0.97504 0.83443 0.0
H1357 H 0.19662 0.04922 0.82091 0.0
H1358 H 0.21845 0.98696 0.8751 0.0
H1359 H 0.2129 0.06102 0.86138 0.0
H1360 H 0.22839 0.07477 0.94093 0.0
H1361 H 0.20495 0.05906 0.90436 0.0
H1362 H 0.25759 0.00819 0.89132 0.0
H1363 H 0.28103 0.02428 0.92764 0.0
C1364 C 0.20401 0.99384 0.84024 0.0
C1365 C 0.19822 0.0112 0.8244 0.0
C1366 C 0.21348 0.00064 0.86347 0.0
C1367 C 0.21703 0.02491 0.87137 0.0
C1368 C 0.21017 0.04218 0.85589 0.0
C1369 C 0.20097 0.03541 0.83264 0.0
C1370 C 0.23472 0.06013 0.93023 0.0
C1371 C 0.25647 0.05078 0.93684 0.0
C1372 C 0.22139 0.05114 0.9094 0.0
C1373 C 0.22949 0.03246 0.89495 0.0
C1374 C 0.25074 0.02239 0.90223 0.0
C1375 C 0.26416 0.03156 0.92295 0.0
H1376 H 0.56555 0.76576 0.4115 0.0
H1377 H 0.60544 0.75592 0.47788 0.0
H1378 H 0.52828 0.75663 0.43009 0.0
H1379 H 0.56822 0.74704 0.4964 0.0
H1380 H 0.49442 0.75167 0.52629 0.0
H1381 H 0.53013 0.76654 0.50764 0.0
H1382 H 0.51067 0.71781 0.44596 0.0
H1383 H 0.47555 0.70249 0.46505 0.0
C1384 C 0.56636 0.76203 0.43013 0.0
C1385 C 0.58844 0.76144 0.44319 0.0
C1386 C 0.54505 0.75668 0.4407 0.0
C1387 C 0.54541 0.75106 0.46463 0.0
C1388 C 0.56742 0.75147 0.47797 0.0
C1389 C 0.58872 0.75644 0.46732 0.0
C1390 C 0.49793 0.7442 0.50879 0.0
C1391 C 0.4824 0.72596 0.49707 0.0
C1392 C 0.51822 0.7527 0.49811 0.0
C1393 C 0.52309 0.74335 0.47535 0.0
C1394 C 0.50716 0.72556 0.46337 0.0
C1395 C 0.4871 0.71681 0.47423 0.0
H1396 H 0.8447 0.19619 0.9632 0.0
H1397 H 0.79968 0.20832 0.02122 0.0
H1398 H 0.87793 0.21923 0.9863 0.0
H1399 H 0.83274 0.23146 0.0442 0.0
H1400 H 0.90646 0.24353 0.08673 0.0
H1401 H 0.87309 0.22156 0.06301 0.0
H1402 H 0.88823 0.26272 0.00312 0.0
H1403 H 0.92118 0.28522 0.02729 0.0
C1404 C 0.84192 0.20393 0.98082 0.0
C1405 C 0.81957 0.20088 0.9903 0.0
C1406 C 0.86084 0.21718 0.99395 0.0
C1407 C 0.85784 0.22717 0.01698 0.0
C1408 C 0.83552 0.22392 0.0265 0.0
C1409 C 0.81654 0.21096 0.01325 0.0
C1410 C 0.90235 0.24808 0.06863 0.0
C1411 C 0.91609 0.26619 0.05886 0.0
C1412 C 0.88338 0.23549 0.05504 0.0
C1413 C 0.87804 0.24054 0.03128 0.0
C1414 C 0.89206 0.2584 0.02136 0.0
C1415 C 0.91084 0.27122 0.0351 0.0
H1416 H 0.1964 0.68591 0.53948 0.0
H1417 H 0.17345 0.74711 0.57956 0.0
H1418 H 0.16018 0.68437 0.51313 0.0
H1419 H 0.13833 0.7472 0.55219 0.0
H1420 H 0.06749 0.73326 0.51092 0.0
H1421 H 0.10169 0.73115 0.53915 0.0
H1422 H 0.14092 0.70062 0.48242 0.0
H1423 H 0.10548 0.70009 0.45527 0.0
C1424 C 0.18362 0.69918 0.54244 0.0
C1425 C 0.18757 0.71653 0.56155 0.0
C1426 C 0.16292 0.69852 0.52719 0.0
C1427 C 0.14607 0.71575 0.53022 0.0
C1428 C 0.15033 0.73321 0.54942 0.0
C1429 C 0.17062 0.73334 0.56509 0.0
C1430 C 0.08332 0.72565 0.50475 0.0
C1431 C 0.08383 0.71669 0.481 0.0
C1432 C 0.10319 0.72482 0.52081 0.0
C1433 C 0.12445 0.71582 0.51328 0.0
C1434 C 0.12492 0.70722 0.48926 0.0
C1435 C 0.10475 0.70733 0.47346 0.0
H1436 H 0.44158 0.37983 0.03027 0.0
H1437 H 0.42814 0.30813 0.05149 0.0
H1438 H 0.47658 0.36771 0.01075 0.0
H1439 H 0.46276 0.29573 0.03115 0.0
H1440 H 0.54256 0.2917 0.01577 0.0
H1441 H 0.50673 0.30235 0.03536 0.0
H1442 H 0.48618 0.34297 0.97582 0.0
H1443 H 0.52235 0.33274 0.95682 0.0
C1444 C 0.446 0.3614 0.03059 0.0
C1445 C 0.43182 0.34481 0.042 0.0
C1446 C 0.46594 0.35442 0.01923 0.0
C1447 C 0.4723 0.33071 0.01918 0.0
C1448 C 0.4583 0.31414 0.03088 0.0
C1449 C 0.43824 0.32113 0.04219 0.0
C1450 C 0.53026 0.30287 0.00703 0.0
C1451 C 0.53495 0.31139 0.98487 0.0
C1452 C 0.50973 0.30882 0.01806 0.0
C1453 C 0.49362 0.3235 0.00712 0.0
C1454 C 0.49834 0.33182 0.9848 0.0
C1455 C 0.51883 0.32582 0.9738 0.0
H1456 H 0.40599 0.56283 0.72945 0.0
H1457 H 0.42577 0.5482 0.80206 0.0
H1458 H 0.4372 0.53861 0.71557 0.0
H1459 H 0.45597 0.52269 0.78812 0.0
H1460 H 0.52083 0.4918 0.75868 0.0
H1461 H 0.49371 0.52179 0.77115 0.0
H1462 H 0.44442 0.49751 0.71097 0.0
H1463 H 0.47225 0.46863 0.69811 0.0
C1464 C 0.41735 0.55494 0.74251 0.0
C1465 C 0.4138 0.55801 0.76692 0.0
C1466 C 0.43495 0.54058 0.73451 0.0
C1467 C 0.4492 0.52868 0.75071 0.0
C1468 C 0.44569 0.5319 0.77515 0.0
C1469 C 0.4282 0.54636 0.78314 0.0
C1470 C 0.5044 0.49337 0.74798 0.0
C1471 C 0.49849 0.47803 0.72752 0.0
C1472 C 0.48872 0.51026 0.7552 0.0
C1473 C 0.46677 0.51202 0.74214 0.0
C1474 C 0.46125 0.49694 0.72132 0.0
C1475 C 0.47701 0.48022 0.71405 0.0
H1476 H 0.01573 0.80733 0.20542 0.0
H1477 H 0.97209 0.86137 0.1789 0.0
H1478 H 0.04206 0.83818 0.22806 0.0
H1479 H 0.99843 0.89227 0.20139 0.0
H1480 H 0.06533 0.94148 0.2216 0.0
H1481 H 0.03874 0.90992 0.20027 0.0
H1482 H 0.04355 0.86825 0.26192 0.0
H1483 H 0.07032 0.90012 0.28308 0.0
C1484 C 0.01141 0.82574 0.20491 0.0
C1485 C 0.99155 0.83191 0.19082 0.0
C1486 C 0.0266 0.84345 0.21775 0.0
C1487 C 0.02234 0.86769 0.21656 0.0
C1488 C 0.00241 0.87379 0.20245 0.0
C1489 C 0.98726 0.8561 0.18965 0.0
C1490 C 0.06053 0.92558 0.23051 0.0
C1491 C 0.06961 0.92312 0.2539 0.0
C1492 C 0.0453 0.90755 0.2184 0.0
C1493 C 0.03887 0.88663 0.22946 0.0
C1494 C 0.04831 0.88406 0.25284 0.0
C1495 C 0.06356 0.90219 0.26496 0.0
H1496 H 0.54374 0.14794 0.66323 0.0
H1497 H 0.54321 0.14103 0.73913 0.0
H1498 H 0.51263 0.11546 0.65619 0.0
H1499 H 0.51188 0.109 0.73208 0.0
H1500 H 0.47369 0.0361 0.70909 0.0
H1501 H 0.5057 0.0679 0.71561 0.0
H1502 H 0.47023 0.10749 0.6622 0.0
H1503 H 0.4387 0.07508 0.65533 0.0
C1504 C 0.53702 0.13951 0.67841 0.0
C1505 C 0.546 0.14709 0.70175 0.0
C1506 C 0.51907 0.12102 0.67437 0.0
C1507 C 0.50975 0.10969 0.69358 0.0
C1508 C 0.51888 0.11715 0.71688 0.0
C1509 C 0.53678 0.13561 0.72092 0.0
C1510 C 0.47292 0.05165 0.69881 0.0
C1511 C 0.45394 0.05335 0.68176 0.0
C1512 C 0.49107 0.06988 0.70259 0.0
C1513 C 0.49051 0.09023 0.68941 0.0
C1514 C 0.47133 0.09193 0.67243 0.0
C1515 C 0.45319 0.07362 0.66866 0.0
H1516 H 0.01663 0.39357 0.33924 0.0
H1517 H 0.0813 0.43551 0.36484 0.0
H1518 H 0.0018 0.42793 0.32038 0.0
H1519 H 0.06629 0.47016 0.34629 0.0
H1520 H 0.01902 0.53232 0.33136 0.0
H1521 H 0.03445 0.49797 0.35036 0.0
H1522 H 0.01084 0.45266 0.28716 0.0
H1523 H 0.99558 0.48715 0.26839 0.0
C1524 C 0.02792 0.40997 0.34033 0.0
C1525 C 0.05044 0.41165 0.35283 0.0
C1526 C 0.01934 0.42973 0.32973 0.0
C1527 C 0.03297 0.45169 0.33167 0.0
C1528 C 0.05531 0.45351 0.34461 0.0
C1529 C 0.06393 0.43369 0.35515 0.0
C1530 C 0.01731 0.51497 0.32165 0.0
C1531 C 0.00621 0.51216 0.29853 0.0
C1532 C 0.02615 0.49538 0.33241 0.0
C1533 C 0.02384 0.47261 0.32025 0.0
C1534 C 0.01261 0.4699 0.29709 0.0
C1535 C 0.00391 0.48952 0.28634 0.0
H1536 H 0.31507 0.62382 0.35395 0.0
H1537 H 0.30733 0.54734 0.35817 0.0
H1538 H 0.35218 0.61975 0.33435 0.0
H1539 H 0.34404 0.5433 0.33834 0.0
H1540 H 0.42461 0.54836 0.33195 0.0
H1541 H 0.38637 0.55306 0.34918 0.0
H1542 H 0.36893 0.60383 0.29759 0.0
H1543 H 0.40742 0.59893 0.28047 0.0
C1544 C 0.32111 0.60614 0.35045 0.0
C1545 C 0.30834 0.58592 0.35781 0.0
C1546 C 0.34233 0.6038 0.33916 0.0
C1547 C 0.35118 0.58122 0.33504 0.0
C1548 C 0.33795 0.56099 0.34169 0.0
C1549 C 0.31681 0.56331 0.35293 0.0
C1550 C 0.41245 0.56035 0.32427 0.0
C1551 C 0.41871 0.57318 0.30488 0.0
C1552 C 0.39058 0.56304 0.33404 0.0
C1553 C 0.37452 0.57869 0.32463 0.0
C1554 C 0.38098 0.59178 0.30535 0.0
C1555 C 0.4029 0.589 0.29554 0.0
H1556 H 0.15183 0.39309 0.78981 0.0
H1557 H 0.18797 0.36212 0.73129 0.0
H1558 H 0.11402 0.38612 0.76649 0.0
H1559 H 0.14972 0.35425 0.70804 0.0
H1560 H 0.08328 0.37956 0.66514 0.0
H1561 H 0.12136 0.37657 0.68773 0.0
H1562 H 0.08361 0.3584 0.74914 0.0
H1563 H 0.04577 0.36296 0.72674 0.0
C1564 C 0.15166 0.38439 0.77207 0.0
C1565 C 0.17298 0.37836 0.76236 0.0
C1566 C 0.12986 0.38016 0.75872 0.0
C1567 C 0.1287 0.36957 0.73531 0.0
C1568 C 0.14996 0.36273 0.72588 0.0
C1569 C 0.17188 0.36713 0.73924 0.0
C1570 C 0.08329 0.37457 0.68336 0.0
C1571 C 0.06174 0.37165 0.6943 0.0
C1572 C 0.10505 0.37266 0.6963 0.0
C1573 C 0.10565 0.36755 0.72043 0.0
C1574 C 0.08388 0.36287 0.73077 0.0
C1575 C 0.06216 0.36507 0.71787 0.0
H1576 H 0.76533 0.95771 0.68735 0.0
H1577 H 0.78166 0.00538 0.63271 0.0
H1578 H 0.80531 0.96726 0.70671 0.0
H1579 H 0.82122 0.01515 0.65218 0.0
H1580 H 0.89842 0.00733 0.6773 0.0
H1581 H 0.85831 0.99619 0.65888 0.0
H1582 H 0.83031 1.00013 0.7285 0.0
H1583 H 0.87074 0.01053 0.74674 0.0
C1584 C 0.77736 0.97032 0.67956 0.0
C1585 C 0.77032 0.98069 0.65842 0.0
C1586 C 0.80023 0.97586 0.69069 0.0
C1587 C 0.81653 0.99183 0.68089 0.0
C1588 C 0.80929 0.00244 0.65997 0.0
C1589 C 0.7865 0.99694 0.64889 0.0
C1590 C 0.88364 0.00553 0.68855 0.0
C1591 C 0.88746 0.00977 0.71332 0.0
C1592 C 0.86068 0.9994 0.67808 0.0
C1593 C 0.84105 0.99743 0.69222 0.0
C1594 C 0.84504 0.00133 0.71712 0.0
C1595 C 0.86805 0.00748 0.72756 0.0
H1596 H 0.73425 0.98493 0.25275 0.0
H1597 H 0.70469 0.01994 0.1927 0.0
H1598 H 0.69426 0.97663 0.26557 0.0
H1599 H 0.6647 0.01197 0.20579 0.0
H1600 H 0.59489 0.97274 0.22344 0.0
H1601 H 0.6351 0.97886 0.20977 0.0
H1602 H 0.66258 0.99857 0.28235 0.0
H1603 H 0.62241 0.99171 0.29581 0.0
C1604 C 0.71923 0.99087 0.24229 0.0
C1605 C 0.72267 0.00314 0.22172 0.0
C1606 C 0.69632 0.98623 0.24972 0.0
C1607 C 0.67632 0.99369 0.23674 0.0
C1608 C 0.67973 0.00574 0.21603 0.0
C1609 C 0.70266 0.01043 0.20861 0.0
C1610 C 0.60967 0.97815 0.23635 0.0
C1611 C 0.60579 0.98178 0.26059 0.0
C1612 C 0.63259 0.98188 0.22859 0.0
C1613 C 0.65203 0.98926 0.24498 0.0
C1614 C 0.64805 0.99265 0.26931 0.0
C1615 C 0.62513 0.98895 0.27702 0.0
H1616 H 0.33948 0.33308 0.65271 0.0
H1617 H 0.28497 0.3056 0.59841 0.0
H1618 H 0.32411 0.37259 0.65171 0.0
H1619 H 0.26977 0.34508 0.59734 0.0
H1620 H 0.23806 0.41619 0.61123 0.0
H1621 H 0.25028 0.37649 0.62031 0.0
H1622 H 0.32423 0.40284 0.62151 0.0
H1623 H 0.3117 0.44232 0.61237 0.0
C1624 C 0.32402 0.33536 0.64081 0.0
C1625 C 0.31356 0.3162 0.6255 0.0
C1626 C 0.31531 0.35804 0.64015 0.0
C1627 C 0.29583 0.362 0.62434 0.0
C1628 C 0.28468 0.34258 0.60987 0.0
C1629 C 0.29348 0.31996 0.6104 0.0
C1630 C 0.25687 0.41336 0.61382 0.0
C1631 C 0.27402 0.43202 0.6112 0.0
C1632 C 0.26388 0.39076 0.61888 0.0
C1633 C 0.28823 0.38651 0.62157 0.0
C1634 C 0.30535 0.40558 0.61985 0.0
C1635 C 0.29828 0.42811 0.6146 0.0
H1636 H 0.24519 0.7434 0.95535 0.0
H1637 H 0.26961 0.74187 0.02954 0.0
H1638 H 0.26308 0.70598 0.94636 0.0
H1639 H 0.28747 0.70416 0.02043 0.0
H1640 H 0.33167 0.64432 0.98885 0.0
H1641 H 0.31899 0.68466 0.99746 0.0
H1642 H 0.25205 0.66455 0.9569 0.0
H1643 H 0.26482 0.62447 0.94877 0.0
C1644 C 0.25459 0.73523 0.96972 0.0
C1645 C 0.25573 0.7455 0.99323 0.0
C1646 C 0.26475 0.71372 0.96456 0.0
C1647 C 0.27638 0.702 0.98274 0.0
C1648 C 0.27865 0.71284 0.00605 0.0
C1649 C 0.26835 0.73438 0.01127 0.0
C1650 C 0.31445 0.64877 0.98165 0.0
C1651 C 0.29957 0.63158 0.9676 0.0
C1652 C 0.30709 0.67171 0.98666 0.0
C1653 C 0.28466 0.67786 0.97753 0.0
C1654 C 0.26968 0.66053 0.96368 0.0
C1655 C 0.277 0.63762 0.95891 0.0
H1656 H 0.75684 0.17759 0.35617 0.0
H1657 H 0.71554 0.19646 0.41565 0.0
H1658 H 0.7374 0.13726 0.3531 0.0
H1659 H 0.69656 0.15625 0.41287 0.0
H1660 H 0.65499 0.08651 0.39607 0.0
H1661 H 0.66955 0.12735 0.38948 0.0
H1662 H 0.73893 0.10257 0.37678 0.0
H1663 H 0.72397 0.06179 0.38306 0.0
C1664 C 0.74344 0.17324 0.36841 0.0
C1665 C 0.73785 0.19022 0.38625 0.0
C1666 C 0.73241 0.15009 0.36673 0.0
C1667 C 0.71548 0.14346 0.38278 0.0
C1668 C 0.70926 0.16077 0.39999 0.0
C1669 C 0.7203 0.18384 0.4017 0.0
C1670 C 0.67318 0.0899 0.39136 0.0
C1671 C 0.68843 0.07124 0.39007 0.0
C1672 C 0.68159 0.11321 0.38775 0.0
C1673 C 0.7055 0.1183 0.38288 0.0
C1674 C 0.72037 0.09928 0.38026 0.0
C1675 C 0.71188 0.07595 0.38383 0.0
H1676 H 0.67802 0.75122 0.95827 0.0
H1677 H 0.62771 0.7739 0.00832 0.0
H1678 H 0.7013 0.78948 0.96645 0.0
H1679 H 0.65103 0.81183 0.01659 0.0
H1680 H 0.68255 0.88642 0.00436 0.0
H1681 H 0.66026 0.84772 0.99527 0.0
H1682 H 0.72635 0.81281 0.99934 0.0
H1683 H 0.74851 0.85182 0.00794 0.0
C1684 C 0.67198 0.7643 0.97106 0.0
C1685 C 0.65096 0.75955 0.98256 0.0
C1686 C 0.68537 0.78615 0.97582 0.0
C1687 C 0.6779 0.80371 0.99205 0.0
C1688 C 0.65704 0.79881 0.00372 0.0
C1689 C 0.64376 0.77699 0.99907 0.0
C1690 C 0.69219 0.87043 0.00305 0.0
C1691 C 0.71711 0.87189 0.00674 0.0
C1692 C 0.67951 0.84831 0.9981 0.0
C1693 C 0.69156 0.82721 0.99669 0.0
C1694 C 0.7166 0.82876 0.00013 0.0
C1695 C 0.72925 0.85095 0.00521 0.0
H1696 H 0.52696 0.36198 0.31736 0.0
H1697 H 0.59668 0.39086 0.34634 0.0
H1698 H 0.52128 0.34204 0.35385 0.0
H1699 H 0.5912 0.37048 0.38261 0.0
H1700 H 0.56249 0.35051 0.45359 0.0
H1701 H 0.56814 0.37133 0.41739 0.0
H1702 H 0.53613 0.30925 0.37483 0.0
H1703 H 0.53039 0.28877 0.41123 0.0
C1704 C 0.5411 0.36405 0.33149 0.0
C1705 C 0.56228 0.37801 0.32892 0.0
C1706 C 0.5379 0.35248 0.35236 0.0
C1707 C 0.55582 0.35458 0.37113 0.0
C1708 C 0.57692 0.36871 0.36862 0.0
C1709 C 0.58011 0.3803 0.34777 0.0
C1710 C 0.5569 0.34139 0.43641 0.0
C1711 C 0.54609 0.31813 0.43501 0.0
C1712 C 0.56012 0.35322 0.41571 0.0
C1713 C 0.55256 0.34197 0.39318 0.0
C1714 C 0.54182 0.31858 0.39188 0.0
C1715 C 0.53861 0.3068 0.41262 0.0
H1716 H 0.95718 0.20421 0.73509 0.0
H1717 H 0.02467 0.24612 0.73945 0.0
H1718 H 0.94534 0.22196 0.6982 0.0
H1719 H 0.01294 0.26356 0.70238 0.0
H1720 H 0.97543 0.3061 0.64643 0.0
H1721 H 0.98487 0.29041 0.68539 0.0
H1722 H 0.95652 0.22028 0.65704 0.0
H1723 H 0.9472 0.23619 0.61845 0.0
C1724 C 0.9695 0.21719 0.72819 0.0
C1725 C 0.9919 0.22368 0.74018 0.0
C1726 C 0.96274 0.22729 0.707 0.0
C1727 C 0.97821 0.24414 0.69734 0.0
C1728 C 0.00049 0.25085 0.7095 0.0
C1729 C 0.00728 0.24072 0.73067 0.0
C1730 C 0.97125 0.2874 0.64881 0.0
C1731 C 0.96062 0.2723 0.62974 0.0
C1732 C 0.97666 0.27839 0.67092 0.0
C1733 C 0.97148 0.25409 0.67428 0.0
C1734 C 0.96042 0.23913 0.65517 0.0
C1735 C 0.95508 0.24817 0.63312 0.0
H1736 H 0.40788 0.71893 0.21329 0.0
H1737 H 0.34259 0.74794 0.18764 0.0
H1738 H 0.40706 0.69313 0.17692 0.0
H1739 H 0.34147 0.7216 0.15133 0.0
H1740 H 0.37225 0.70044 0.07829 0.0
H1741 H 0.36444 0.72047 0.11652 0.0
H1742 H 0.38772 0.65976 0.15263 0.0
H1743 H 0.39586 0.64016 0.11419 0.0
C1744 C 0.39307 0.71947 0.20009 0.0
C1745 C 0.37546 0.73571 0.20327 0.0
C1746 C 0.39251 0.70453 0.17925 0.0
C1747 C 0.37427 0.70538 0.16109 0.0
C1748 C 0.35597 0.72076 0.1648 0.0
C1749 C 0.35654 0.73575 0.18568 0.0
C1750 C 0.37508 0.69127 0.09442 0.0
C1751 C 0.38464 0.6689 0.09352 0.0
C1752 C 0.3706 0.70264 0.11631 0.0
C1753 C 0.37562 0.6918 0.13771 0.0
C1754 C 0.38402 0.66878 0.13655 0.0
C1755 C 0.38855 0.65749 0.11465 0.0
H1756 H 0.93041 0.65802 0.75572 0.0
H1757 H 0.995 0.69265 0.73301 0.0
H1758 H 0.93495 0.68321 0.79285 0.0
H1759 H 0.99964 0.71762 0.77028 0.0
H1760 H 0.99178 0.77085 0.83348 0.0
H1761 H 0.98221 0.74964 0.7942 0.0
H1762 H 0.96317 0.68528 0.8284 0.0
H1763 H 0.97294 0.70656 0.86738 0.0
C1764 C 0.94546 0.67115 0.75852 0.0
C1765 C 0.96246 0.67318 0.74146 0.0
C1766 C 0.94811 0.68549 0.77987 0.0
C1767 C 0.96775 0.70227 0.78458 0.0
C1768 C 0.98421 0.70499 0.76711 0.0
C1769 C 0.98162 0.69058 0.74579 0.0
C1770 C 0.98539 0.75222 0.83241 0.0
C1771 C 0.98297 0.74028 0.85328 0.0
C1772 C 0.97997 0.74008 0.81005 0.0
C1773 C 0.9719 0.71579 0.8082 0.0
C1774 C 0.96895 0.70407 0.8292 0.0
C1775 C 0.97451 0.7162 0.8515 0.0
H1776 H 0.69558 0.4484 0.69161 0.0
H1777 H 0.67001 0.38096 0.65459 0.0
H1778 H 0.65583 0.45382 0.70458 0.0
H1779 H 0.63038 0.38596 0.66825 0.0
H1780 H 0.55742 0.41777 0.67015 0.0
H1781 H 0.59779 0.40966 0.65998 0.0
H1782 H 0.62563 0.44085 0.72928 0.0
H1783 H 0.58514 0.4494 0.73887 0.0
C1784 C 0.68158 0.4345 0.68659 0.0
C1785 C 0.68595 0.41432 0.67191 0.0
C1786 C 0.65874 0.43756 0.69413 0.0
C1787 C 0.63976 0.42042 0.68732 0.0
C1788 C 0.64442 0.39978 0.67342 0.0
C1789 C 0.66721 0.39681 0.66574 0.0
C1790 C 0.57227 0.42268 0.68314 0.0
C1791 C 0.56841 0.43423 0.70519 0.0
C1792 C 0.59536 0.41796 0.67745 0.0
C1793 C 0.61506 0.42457 0.69382 0.0
C1794 C 0.61099 0.43584 0.71609 0.0
C1795 C 0.58789 0.44069 0.72166 0.0
H1796 H 0.85514 0.64101 0.22775 0.0
H1797 H 0.82595 0.5678 0.2246 0.0
H1798 H 0.89478 0.62802 0.23801 0.0
H1799 H 0.86545 0.55493 0.23526 0.0
H1800 H 0.9427 0.53687 0.23383 0.0
H1801 H 0.90453 0.5513 0.21976 0.0
H1802 H 0.91608 0.61166 0.27176 0.0
H1803 H 0.95424 0.59706 0.28554 0.0
C1804 C 0.85717 0.62215 0.22922 0.0
C1805 C 0.83736 0.60545 0.2254 0.0
C1806 C 0.87987 0.61473 0.23522 0.0
C1807 C 0.88328 0.59045 0.23746 0.0
C1808 C 0.86351 0.57373 0.23335 0.0
C1809 C 0.84082 0.58114 0.22739 0.0
C1810 C 0.93699 0.55328 0.24204 0.0
C1811 C 0.95119 0.5659 0.2607 0.0
C1812 C 0.91519 0.5615 0.23412 0.0
C1813 C 0.90719 0.58256 0.24474 0.0
C1814 C 0.92183 0.59553 0.263 0.0
C1815 C 0.94363 0.58725 0.27091 0.0
H1816 H 0.25912 0.98341 0.35606 0.0
H1817 H 0.23746 0.05343 0.34103 0.0
H1818 H 0.22164 0.96541 0.33626 0.0
H1819 H 0.20005 0.03554 0.32173 0.0
H1820 H 0.14696 0.99609 0.26722 0.0
H1821 H 0.18601 0.01128 0.28565 0.0
H1822 H 0.17839 0.96258 0.34126 0.0
H1823 H 0.13929 0.94735 0.32238 0.0
C1824 C 0.24635 0.99496 0.34862 0.0
C1825 C 0.25132 0.01985 0.35004 0.0
C1826 C 0.22486 0.98465 0.33738 0.0
C1827 C 0.20796 0.99903 0.32728 0.0
C1828 C 0.21288 0.02391 0.32893 0.0
C1829 C 0.23429 0.03419 0.34015 0.0
C1830 C 0.15381 0.98867 0.28332 0.0
C1831 C 0.14027 0.9708 0.2936 0.0
C1832 C 0.17604 0.99735 0.29393 0.0
C1833 C 0.18517 0.98835 0.31509 0.0
C1834 C 0.17192 0.96979 0.32489 0.0
C1835 C 0.14962 0.96109 0.3142 0.0
H1836 H 0.25571 0.03031 0.70036 0.0
H1837 H 0.25979 0.95434 0.70475 0.0
H1838 H 0.2957 0.03337 0.68679 0.0
H1839 H 0.29967 0.95723 0.69022 0.0
H1840 H 0.38085 0.97955 0.70092 0.0
H1841 H 0.33839 0.97205 0.70643 0.0
H1842 H 0.32198 0.02523 0.65704 0.0
H1843 H 0.36458 0.03266 0.65199 0.0
C1844 C 0.26493 0.01414 0.69789 0.0
C1845 C 0.25465 0.99213 0.70396 0.0
C1846 C 0.2879 0.01586 0.68995 0.0
C1847 C 0.30112 0.99558 0.68765 0.0
C1848 C 0.29024 0.97331 0.69231 0.0
C1849 C 0.2673 0.97162 0.70047 0.0
C1850 C 0.36801 0.98918 0.69092 0.0
C1851 C 0.37577 0.0067 0.67608 0.0
C1852 C 0.3437 0.98491 0.69399 0.0
C1853 C 0.32667 0.9981 0.68223 0.0
C1854 C 0.33456 0.01501 0.66667 0.0
C1855 C 0.35885 0.01923 0.66366 0.0
H1856 H 0.71664 0.69347 0.43291 0.0
H1857 H 0.67303 0.66676 0.36959 0.0
H1858 H 0.73344 0.65491 0.43505 0.0
H1859 H 0.69042 0.62834 0.37127 0.0
H1860 H 0.70034 0.55576 0.40357 0.0
H1861 H 0.68735 0.5952 0.3955 0.0
H1862 H 0.75814 0.6265 0.41806 0.0
H1863 H 0.77063 0.5869 0.4266 0.0
C1864 C 0.71098 0.67952 0.41915 0.0
C1865 C 0.69331 0.68315 0.40121 0.0
C1866 C 0.72072 0.65738 0.4203 0.0
C1867 C 0.71316 0.63837 0.40343 0.0
C1868 C 0.69632 0.6424 0.38483 0.0
C1869 C 0.68646 0.66451 0.38377 0.0
C1870 C 0.7131 0.57111 0.40634 0.0
C1871 C 0.7364 0.56851 0.41566 0.0
C1872 C 0.70577 0.59369 0.40169 0.0
C1873 C 0.72167 0.61413 0.40619 0.0
C1874 C 0.7453 0.61126 0.41474 0.0
C1875 C 0.75254 0.58866 0.41951 0.0
H1876 H 0.76629 0.29885 0.03953 0.0
H1877 H 0.73812 0.31139 0.9686 0.0
H1878 H 0.76085 0.34022 0.05264 0.0
H1879 H 0.73309 0.35274 0.98161 0.0
H1880 H 0.7043 0.41806 0.01881 0.0
H1881 H 0.70869 0.37603 0.00717 0.0
H1882 H 0.77745 0.38067 0.0468 0.0
H1883 H 0.77274 0.42278 0.0584 0.0
C1884 C 0.75896 0.31042 0.02673 0.0
C1885 C 0.75262 0.30181 0.00302 0.0
C1886 C 0.75598 0.33415 0.03422 0.0
C1887 C 0.74653 0.34976 0.01817 0.0
C1888 C 0.74012 0.3411 0.9945 0.0
C1889 C 0.74313 0.31741 0.987 0.0
C1890 C 0.72034 0.40999 0.02486 0.0
C1891 C 0.73829 0.42348 0.03928 0.0
C1892 C 0.72291 0.38602 0.01823 0.0
C1893 C 0.74349 0.37504 0.02595 0.0
C1894 C 0.76128 0.38853 0.04076 0.0
C1895 C 0.75868 0.41256 0.04736 0.0
H1896 H 0.23366 0.81667 0.61022 0.0
H1897 H 0.30728 0.80251 0.60204 0.0
H1898 H 0.2438 0.8592 0.60847 0.0
H1899 H 0.31737 0.84529 0.60027 0.0
H1900 H 0.32838 0.92749 0.61357 0.0
H1901 H 0.31865 0.88614 0.62351 0.0
H1902 H 0.25621 0.88221 0.57415 0.0
H1903 H 0.26617 0.92324 0.56439 0.0
C1904 C 0.25208 0.82262 0.60836 0.0
C1905 C 0.26962 0.80613 0.60599 0.0
C1906 C 0.25785 0.84701 0.60729 0.0
C1907 C 0.28132 0.85554 0.60401 0.0
C1908 C 0.29915 0.83923 0.60294 0.0
C1909 C 0.29334 0.81473 0.60384 0.0
C1910 C 0.31245 0.9177 0.60523 0.0
C1911 C 0.29793 0.92822 0.5883 0.0
C1912 C 0.30696 0.89414 0.61074 0.0
C1913 C 0.28665 0.88099 0.59962 0.0
C1914 C 0.2718 0.89196 0.58322 0.0
C1915 C 0.27748 0.91531 0.57754 0.0
H1916 H 0.34254 0.23693 0.00204 0.0
H1917 H 0.38803 0.20378 0.05307 0.0
H1918 H 0.32272 0.19808 0.98897 0.0
H1919 H 0.36789 0.16487 0.04014 0.0
H1920 H 0.34193 0.09711 0.99105 0.0
H1921 H 0.36297 0.13546 0.00531 0.0
H1922 H 0.29563 0.16813 0.00473 0.0
H1923 H 0.27488 0.12976 0.99051 0.0
C1924 C 0.34834 0.22136 0.01048 0.0
C1925 C 0.36685 0.22349 0.02865 0.0
C1926 C 0.33685 0.1991 0.00308 0.0
C1927 C 0.34362 0.17842 0.01363 0.0
C1928 C 0.36238 0.18046 0.03155 0.0
C1929 C 0.37384 0.20277 0.03902 0.0
C1930 C 0.33176 0.11251 0.9943 0.0
C1931 C 0.3069 0.1107 0.98968 0.0
C1932 C 0.34372 0.13441 0.00243 0.0
C1933 C 0.33098 0.15488 0.00598 0.0
C1934 C 0.306 0.15282 0.00176 0.0
C1935 C 0.29411 0.13093 0.99372 0.0
H1936 H 0.36898 0.61915 0.63955 0.0
H1937 H 0.43753 0.6444 0.67441 0.0
H1938 H 0.37925 0.63873 0.60392 0.0
H1939 H 0.44792 0.66363 0.63864 0.0
H1940 H 0.44775 0.71645 0.58017 0.0
H1941 H 0.43678 0.69713 0.61593 0.0
H1942 H 0.40622 0.63551 0.57178 0.0
H1943 H 0.41726 0.65509 0.53616 0.0
C1944 C 0.38628 0.62879 0.6396 0.0
C1945 C 0.40242 0.63023 0.65986 0.0
C1946 C 0.39221 0.63991 0.61912 0.0
C1947 C 0.41439 0.65277 0.61844 0.0
C1948 C 0.43055 0.65414 0.63868 0.0
C1949 C 0.42465 0.64299 0.65914 0.0
C1950 C 0.43874 0.69876 0.57828 0.0
C1951 C 0.4333 0.68718 0.55559 0.0
C1952 C 0.43252 0.68766 0.59866 0.0
C1953 C 0.42068 0.66473 0.59672 0.0
C1954 C 0.41505 0.65328 0.57389 0.0
C1955 C 0.42134 0.66441 0.55353 0.0
H1956 H 0.02857 0.76473 0.28722 0.0
H1957 H 0.95559 0.75592 0.3063 0.0
H1958 H 0.04248 0.75401 0.3267 0.0
H1959 H 0.96951 0.74475 0.34561 0.0
H1960 H 0.00468 0.75123 0.42188 0.0
H1961 H 0.99065 0.76236 0.38236 0.0
H1962 H 0.04279 0.71956 0.35063 0.0
H1963 H 0.05671 0.7087 0.39029 0.0
C1964 C 0.01548 0.76042 0.29979 0.0
C1965 C 0.99096 0.7612 0.2936 0.0
C1966 C 0.02346 0.75414 0.32238 0.0
C1967 C 0.00711 0.74851 0.3393 0.0
C1968 C 0.98259 0.74929 0.3331 0.0
C1969 C 0.97461 0.75556 0.31051 0.0
C1970 C 0.01293 0.74418 0.40635 0.0
C1971 C 0.03169 0.72916 0.40892 0.0
C1972 C 0.00494 0.75046 0.38377 0.0
C1973 C 0.01559 0.74183 0.36333 0.0
C1974 C 0.03442 0.72678 0.36602 0.0
C1975 C 0.04238 0.72052 0.38862 0.0
H1976 H 0.5986 0.26485 0.79952 0.0
H1977 H 0.63367 0.20759 0.83152 0.0
H1978 H 0.59401 0.28356 0.839 0.0
H1979 H 0.62949 0.22659 0.87099 0.0
H1980 H 0.58269 0.24744 0.9329 0.0
H1981 H 0.59528 0.23142 0.89462 0.0
H1982 H 0.6135 0.30326 0.87572 0.0
H1983 H 0.60034 0.31895 0.91403 0.0
C1984 C 0.60578 0.2565 0.81495 0.0
C1985 C 0.61621 0.23456 0.81237 0.0
C1986 C 0.60324 0.2673 0.8376 0.0
C1987 C 0.61113 0.2564 0.85816 0.0
C1988 C 0.62282 0.23519 0.85551 0.0
C1989 C 0.62534 0.22438 0.83287 0.0
C1990 C 0.58968 0.25959 0.92053 0.0
C1991 C 0.59066 0.28425 0.92605 0.0
C1992 C 0.59702 0.25055 0.89876 0.0
C1993 C 0.60545 0.26608 0.88212 0.0
C1994 C 0.60691 0.29085 0.88805 0.0
C1995 C 0.59957 0.29984 0.90988 0.0
H1996 H 0.9809 0.33844 0.25511 0.0
H1997 H 0.04394 0.36591 0.22338 0.0
H1998 H 0.96229 0.32604 0.21557 0.0
H1999 H 0.02561 0.35292 0.18393 0.0
H2000 H 0.97941 0.34313 0.11447 0.0
H2001 H 0.99453 0.35985 0.1543 0.0
H2002 H 0.96671 0.29587 0.18433 0.0
H2003 H 0.95141 0.27968 0.14455 0.0
C2004 C 0.99079 0.34185 0.2397 0.0
C2005 C 0.01396 0.35305 0.24241 0.0
C2006 C 0.98016 0.33463 0.21703 0.0
C2007 C 0.99248 0.33836 0.19655 0.0
C2008 C 0.01546 0.35003 0.19927 0.0
C2009 C 0.02605 0.35735 0.22193 0.0
C2010 C 0.97646 0.3329 0.12974 0.0
C2011 C 0.96426 0.31027 0.12669 0.0
C2012 C 0.98516 0.34233 0.15247 0.0
C2013 C 0.98189 0.32918 0.17255 0.0
C2014 C 0.96922 0.30667 0.16938 0.0
C2015 C 0.96048 0.29734 0.14667 0.0
loop_
_geom_bond_atom_site_label_1
_geom_bond_atom_site_label_2
_geom_bond_distance
_geom_bond_site_symmetry_2
_ccdc_geom_bond_type
O0 Cd1 2.300 . S
O0 C7 1.275 . S
Cd1 O0 2.300 . S
Cd1 O9 2.381 . S
Cd1 O10 2.378 . S
O2 Cd3 2.385 . S
O2 C7 1.255 . S
Cd3 O2 2.385 . S
Cd3 O4 2.317 . S
O4 Cd3 2.317 . S
O4 C5 1.232 . S
C5 O4 1.232 . S
C5 O6 1.218 . S
O6 C5 1.218 . S
C7 O0 1.275 . S
C7 O2 1.255 . S
C8 O9 1.258 . S
C8 O10 1.256 . S
O9 Cd1 2.381 . S
O9 C8 1.258 . S
O10 Cd1 2.378 . S
O10 C8 1.256 . S
O11 Cd12 2.300 . S
O11 C18 1.275 . S
Cd12 O11 2.300 . S
Cd12 O20 2.381 . S
Cd12 O21 2.378 . S
O13 Cd14 2.385 . S
O13 C18 1.255 . S
Cd14 O13 2.385 . S
Cd14 O15 2.317 . S
O15 Cd14 2.317 . S
O15 C16 1.232 . S
C16 O15 1.232 . S
C16 O17 1.218 . S
O17 C16 1.218 . S
C18 O11 1.275 . S
C18 O13 1.255 . S
C19 O20 1.258 . S
C19 O21 1.256 . S
O20 Cd12 2.381 . S
O20 C19 1.258 . S
O21 Cd12 2.378 . S
O21 C19 1.256 . S
O22 Cd23 2.300 1_545 S
O22 C29 1.275 1_545 S
Cd23 O22 2.300 1_565 S
Cd23 O31 2.381 1_565 S
Cd23 O32 2.378 . S
O24 Cd25 2.385 . S
O24 C29 1.255 . S
Cd25 O24 2.385 . S
Cd25 O26 2.317 . S
O26 Cd25 2.317 . S
O26 C27 1.232 . S
C27 O26 1.232 . S
C27 O28 1.218 . S
O28 C27 1.218 . S
C29 O22 1.275 1_565 S
C29 O24 1.255 . S
C30 O31 1.267 . S
C30 O32 1.242 1_545 S
O31 Cd23 2.381 1_545 S
O31 C30 1.267 . S
O32 Cd23 2.378 . S
O32 C30 1.242 1_565 S
O33 Cd34 2.300 1_565 S
O33 C40 1.275 1_565 S
Cd34 O33 2.300 1_545 S
Cd34 O42 2.381 1_545 S
Cd34 O43 2.378 . S
O35 Cd36 2.385 . S
O35 C40 1.255 . S
Cd36 O35 2.385 . S
Cd36 O37 2.317 . S
O37 Cd36 2.317 . S
O37 C38 1.232 . S
C38 O37 1.232 . S
C38 O39 1.218 . S
O39 C38 1.218 . S
C40 O33 1.275 1_545 S
C40 O35 1.255 . S
C41 O42 1.258 1_545 S
C41 O43 1.256 . S
O42 Cd34 2.381 1_565 S
O42 C41 1.258 1_565 S
O43 Cd34 2.378 . S
O43 C41 1.256 . S
O44 Cd45 2.300 . S
O44 C51 1.275 . S
Cd45 O44 2.300 . S
Cd45 O53 2.381 . S
Cd45 O54 2.378 . S
O46 Cd47 2.385 . S
O46 C51 1.255 . S
Cd47 O46 2.385 . S
Cd47 O48 2.317 . S
O48 Cd47 2.317 . S
O48 C49 1.232 . S
C49 O48 1.232 . S
C49 O50 1.218 . S
O50 C49 1.218 . S
C51 O44 1.275 . S
C51 O46 1.255 . S
C52 O53 1.258 . S
C52 O54 1.256 . S
O53 Cd45 2.381 . S
O53 C52 1.258 . S
O54 Cd45 2.378 . S
O54 C52 1.256 . S
O55 Cd56 2.300 1_556 S
O55 C62 1.275 1_556 S
Cd56 O55 2.300 1_554 S
Cd56 O64 2.381 1_554 S
Cd56 O65 2.378 . S
O57 Cd58 2.385 . S
O57 C62 1.255 . S
Cd58 O57 2.385 . S
Cd58 O59 2.317 . S
O59 Cd58 2.317 . S
O59 C60 1.232 . S
C60 O59 1.232 . S
C60 O61 1.218 . S
O61 C60 1.218 . S
C62 O55 1.275 1_554 S
C62 O57 1.255 . S
C63 O64 1.258 1_554 S
C63 O65 1.256 . S
O64 Cd56 2.381 1_556 S
O64 C63 1.258 1_556 S
O65 Cd56 2.378 . S
O65 C63 1.256 . S
O66 Cd67 2.300 . S
O66 C73 1.275 . S
Cd67 O66 2.300 . S
Cd67 O75 2.381 . S
Cd67 O76 2.378 . S
O68 Cd69 2.385 . S
O68 C73 1.255 . S
Cd69 O68 2.385 . S
Cd69 O70 2.317 . S
O70 Cd69 2.317 . S
O70 C71 1.232 . S
C71 O70 1.232 . S
C71 O72 1.218 . S
O72 C71 1.218 . S
C73 O66 1.275 . S
C73 O68 1.255 . S
C74 O75 1.258 . S
C74 O76 1.256 . S
O75 Cd67 2.381 . S
O75 C74 1.258 . S
O76 Cd67 2.378 . S
O76 C74 1.256 . S
O77 Cd78 2.300 1_554 S
O77 C84 1.275 1_554 S
Cd78 O77 2.300 1_556 S
Cd78 O86 2.381 1_556 S
Cd78 O87 2.378 . S
O79 Cd80 2.385 . S
O79 C84 1.255 . S
Cd80 O79 2.385 . S
Cd80 O81 2.317 . S
O81 Cd80 2.317 . S
O81 C82 1.232 . S
C82 O81 1.232 . S
C82 O83 1.218 . S
O83 C82 1.218 . S
C84 O77 1.275 1_556 S
C84 O79 1.255 . S
C85 O86 1.267 . S
C85 O87 1.242 1_554 S
O86 Cd78 2.381 1_554 S
O86 C85 1.267 . S
O87 Cd78 2.378 . S
O87 C85 1.242 1_556 S
O88 Cd89 2.300 . S
O88 C95 1.275 . S
Cd89 O88 2.300 . S
Cd89 O97 2.381 . S
Cd89 O98 2.378 . S
O90 Cd91 2.385 . S
O90 C95 1.255 . S
Cd91 O90 2.385 . S
Cd91 O92 2.317 . S
O92 Cd91 2.317 . S
O92 C93 1.232 . S
C93 O92 1.232 . S
C93 O94 1.218 . S
O94 C93 1.218 . S
C95 O88 1.275 . S
C95 O90 1.255 . S
C96 O97 1.258 . S
C96 O98 1.256 . S
O97 Cd89 2.381 . S
O97 C96 1.258 . S
O98 Cd89 2.378 . S
O98 C96 1.256 . S
O99 Cd100 2.300 1_655 S
O99 C106 1.275 1_655 S
Cd100 O99 2.300 1_455 S
Cd100 O108 2.381 1_455 S
Cd100 O109 2.378 . S
O101 Cd102 2.385 . S
O101 C106 1.255 . S
Cd102 O101 2.385 . S
Cd102 O103 2.317 . S
O103 Cd102 2.317 . S
O103 C104 1.232 . S
C104 O103 1.232 . S
C104 O105 1.218 . S
O105 C104 1.218 . S
C106 O99 1.275 1_455 S
C106 O101 1.255 . S
C107 O108 1.258 1_455 S
C107 O109 1.256 . S
O108 Cd100 2.381 1_655 S
O108 C107 1.258 1_655 S
O109 Cd100 2.378 . S
O109 C107 1.256 . S
O110 Cd111 2.300 . S
O110 C117 1.275 . S
Cd111 O110 2.300 . S
Cd111 O119 2.381 . S
Cd111 O120 2.378 . S
O112 Cd113 2.385 . S
O112 C117 1.255 . S
Cd113 O112 2.385 . S
Cd113 O114 2.317 . S
O114 Cd113 2.317 . S
O114 C115 1.232 . S
C115 O114 1.232 . S
C115 O116 1.218 . S
O116 C115 1.218 . S
C117 O110 1.275 . S
C117 O112 1.255 . S
C118 O119 1.258 . S
C118 O120 1.256 . S
O119 Cd111 2.381 . S
O119 C118 1.258 . S
O120 Cd111 2.378 . S
O120 C118 1.256 . S
O121 Cd122 2.300 1_455 S
O121 C128 1.275 1_455 S
Cd122 O121 2.300 1_655 S
Cd122 O130 2.381 1_655 S
Cd122 O131 2.378 . S
O123 Cd124 2.385 . S
O123 C128 1.255 . S
Cd124 O123 2.385 . S
Cd124 O125 2.317 . S
O125 Cd124 2.317 . S
O125 C126 1.232 . S
C126 O125 1.232 . S
C126 O127 1.218 . S
O127 C126 1.218 . S
C128 O121 1.275 1_655 S
C128 O123 1.255 . S
C129 O130 1.267 . S
C129 O131 1.241 1_455 S
O130 Cd122 2.381 1_455 S
O130 C129 1.267 . S
O131 Cd122 2.378 . S
O131 C129 1.241 1_655 S
O132 Cd133 2.300 . S
O132 C139 1.275 . S
Cd133 O132 2.300 . S
Cd133 O141 2.381 . S
Cd133 O142 2.378 . S
O134 Cd135 2.385 . S
O134 C139 1.255 . S
Cd135 O134 2.385 . S
Cd135 O136 2.317 . S
O136 Cd135 2.317 . S
O136 C137 1.232 . S
C137 O136 1.232 . S
C137 O138 1.218 . S
O138 C137 1.218 . S
C139 O132 1.275 . S
C139 O134 1.255 . S
C140 O141 1.258 . S
C140 O142 1.256 . S
O141 Cd133 2.381 . S
O141 C140 1.258 . S
O142 Cd133 2.378 . S
O142 C140 1.256 . S
O143 Cd144 2.300 . S
O143 C150 1.275 . S
Cd144 O143 2.300 . S
Cd144 O152 2.381 . S
Cd144 O153 2.378 . S
O145 Cd146 2.385 . S
O145 C150 1.255 . S
Cd146 O145 2.385 . S
Cd146 O147 2.317 . S
O147 Cd146 2.317 . S
O147 C148 1.232 . S
C148 O147 1.232 . S
C148 O149 1.218 . S
O149 C148 1.218 . S
C150 O143 1.275 . S
C150 O145 1.255 . S
C151 O152 1.258 . S
C151 O153 1.256 . S
O152 Cd144 2.381 . S
O152 C151 1.258 . S
O153 Cd144 2.378 . S
O153 C151 1.256 . S
O154 Cd155 2.300 1_545 S
O154 C161 1.275 1_545 S
Cd155 O154 2.300 1_565 S
Cd155 O163 2.381 1_565 S
Cd155 O164 2.378 . S
O156 Cd157 2.385 . S
O156 C161 1.255 . S
Cd157 O156 2.385 . S
Cd157 O158 2.317 . S
O158 Cd157 2.317 . S
O158 C159 1.232 . S
C159 O158 1.232 . S
C159 O160 1.218 . S
O160 C159 1.218 . S
C161 O154 1.275 1_565 S
C161 O156 1.255 . S
C162 O163 1.258 1_565 S
C162 O164 1.256 . S
O163 Cd155 2.381 1_545 S
O163 C162 1.258 1_545 S
O164 Cd155 2.378 . S
O164 C162 1.256 . S
O165 Cd166 2.300 1_565 S
O165 C172 1.275 1_565 S
Cd166 O165 2.300 1_545 S
Cd166 O174 2.381 1_545 S
Cd166 O175 2.378 . S
O167 Cd168 2.385 . S
O167 C172 1.255 . S
Cd168 O167 2.385 . S
Cd168 O169 2.317 . S
O169 Cd168 2.317 . S
O169 C170 1.232 . S
C170 O169 1.232 . S
C170 O171 1.218 . S
O171 C170 1.218 . S
C172 O165 1.275 1_545 S
C172 O167 1.255 . S
C173 O174 1.267 . S
C173 O175 1.244 1_565 S
O174 Cd166 2.381 1_565 S
O174 C173 1.267 . S
O175 Cd166 2.378 . S
O175 C173 1.244 1_545 S
O176 Cd177 2.300 . S
O176 C183 1.275 . S
Cd177 O176 2.300 . S
Cd177 O185 2.381 . S
Cd177 O186 2.378 . S
O178 Cd179 2.385 . S
O178 C183 1.255 . S
Cd179 O178 2.385 . S
Cd179 O180 2.317 . S
O180 Cd179 2.317 . S
O180 C181 1.232 . S
C181 O180 1.232 . S
C181 O182 1.218 . S
O182 C181 1.218 . S
C183 O176 1.275 . S
C183 O178 1.255 . S
C184 O185 1.258 . S
C184 O186 1.256 . S
O185 Cd177 2.381 . S
O185 C184 1.258 . S
O186 Cd177 2.378 . S
O186 C184 1.256 . S
O187 Cd188 2.300 1_556 S
O187 C194 1.275 1_556 S
Cd188 O187 2.300 1_554 S
Cd188 O196 2.381 1_554 S
Cd188 O197 2.378 . S
O189 Cd190 2.385 . S
O189 C194 1.255 . S
Cd190 O189 2.385 . S
Cd190 O191 2.317 . S
O191 Cd190 2.317 . S
O191 C192 1.232 . S
C192 O191 1.232 . S
C192 O193 1.218 . S
O193 C192 1.218 . S
C194 O187 1.275 1_554 S
C194 O189 1.255 . S
C195 O196 1.267 . S
C195 O197 1.244 1_556 S
O196 Cd188 2.381 1_556 S
O196 C195 1.267 . S
O197 Cd188 2.378 . S
O197 C195 1.244 1_554 S
O198 Cd199 2.300 . S
O198 C205 1.275 . S
Cd199 O198 2.300 . S
Cd199 O207 2.381 . S
Cd199 O208 2.378 . S
O200 Cd201 2.385 . S
O200 C205 1.255 . S
Cd201 O200 2.385 . S
Cd201 O202 2.317 . S
O202 Cd201 2.317 . S
O202 C203 1.232 . S
C203 O202 1.232 . S
C203 O204 1.218 . S
O204 C203 1.218 . S
C205 O198 1.275 . S
C205 O200 1.255 . S
C206 O207 1.258 . S
C206 O208 1.256 . S
O207 Cd199 2.381 . S
O207 C206 1.258 . S
O208 Cd199 2.378 . S
O208 C206 1.256 . S
O209 Cd210 2.300 1_554 S
O209 C216 1.275 1_554 S
Cd210 O209 2.300 1_556 S
Cd210 O218 2.381 1_556 S
Cd210 O219 2.378 . S
O211 Cd212 2.385 . S
O211 C216 1.255 . S
Cd212 O211 2.385 . S
Cd212 O213 2.317 . S
O213 Cd212 2.317 . S
O213 C214 1.232 . S
C214 O213 1.232 . S
C214 O215 1.218 . S
O215 C214 1.218 . S
C216 O209 1.275 1_556 S
C216 O211 1.255 . S
C217 O218 1.258 1_556 S
C217 O219 1.256 . S
O218 Cd210 2.381 1_554 S
O218 C217 1.258 1_554 S
O219 Cd210 2.378 . S
O219 C217 1.256 . S
O220 Cd221 2.300 . S
O220 C227 1.275 . S
Cd221 O220 2.300 . S
Cd221 O229 2.381 . S
Cd221 O230 2.378 . S
O222 Cd223 2.385 . S
O222 C227 1.255 . S
Cd223 O222 2.385 . S
Cd223 O224 2.317 . S
O224 Cd223 2.317 . S
O224 C225 1.232 . S
C225 O224 1.232 . S
C225 O226 1.218 . S
O226 C225 1.218 . S
C227 O220 1.275 . S
C227 O222 1.255 . S
C228 O229 1.258 . S
C228 O230 1.256 . S
O229 Cd221 2.381 . S
O229 C228 1.258 . S
O230 Cd221 2.378 . S
O230 C228 1.256 . S
O231 Cd232 2.300 1_655 S
O231 C238 1.275 1_655 S
Cd232 O231 2.300 1_455 S
Cd232 O240 2.381 1_455 S
Cd232 O241 2.378 . S
O233 Cd234 2.385 . S
O233 C238 1.255 . S
Cd234 O233 2.385 . S
Cd234 O235 2.317 . S
O235 Cd234 2.317 . S
O235 C236 1.232 . S
C236 O235 1.232 . S
C236 O237 1.218 . S
O237 C236 1.218 . S
C238 O231 1.275 1_455 S
C238 O233 1.255 . S
C239 O240 1.267 . S
C239 O241 1.244 1_655 S
O240 Cd232 2.381 1_655 S
O240 C239 1.267 . S
O241 Cd232 2.378 . S
O241 C239 1.244 1_455 S
O242 Cd243 2.300 . S
O242 C249 1.275 . S
Cd243 O242 2.300 . S
Cd243 O251 2.381 . S
Cd243 O252 2.378 . S
O244 Cd245 2.385 . S
O244 C249 1.255 . S
Cd245 O244 2.385 . S
Cd245 O246 2.317 . S
O246 Cd245 2.317 . S
O246 C247 1.232 . S
C247 O246 1.232 . S
C247 O248 1.218 . S
O248 C247 1.218 . S
C249 O242 1.275 . S
C249 O244 1.255 . S
C250 O251 1.258 . S
C250 O252 1.256 . S
O251 Cd243 2.381 . S
O251 C250 1.258 . S
O252 Cd243 2.378 . S
O252 C250 1.256 . S
O253 Cd254 2.300 1_455 S
O253 C260 1.275 1_455 S
Cd254 O253 2.300 1_655 S
Cd254 O262 2.381 1_655 S
Cd254 O263 2.378 . S
O255 Cd256 2.385 . S
O255 C260 1.255 . S
Cd256 O255 2.385 . S
Cd256 O257 2.317 . S
O257 Cd256 2.317 . S
O257 C258 1.232 . S
C258 O257 1.232 . S
C258 O259 1.218 . S
O259 C258 1.218 . S
C260 O253 1.275 1_655 S
C260 O255 1.255 . S
C261 O262 1.258 1_655 S
C261 O263 1.256 . S
O262 Cd254 2.381 1_455 S
O262 C261 1.258 1_455 S
O263 Cd254 2.378 . S
O263 C261 1.256 . S
C264 N265 1.317 . S
C264 N266 1.348 . S
C264 C267 1.485 . S
N265 C264 1.317 . S
N265 N269 1.370 . S
N266 C264 1.348 . S
N266 C268 1.346 . S
C267 C264 1.485 . S
C267 H271 0.960 . S
C267 H272 0.961 . S
C267 H273 0.960 . S
C268 N266 1.346 . S
C268 N269 1.307 . S
C268 C270 1.486 . S
N269 N265 1.370 . S
N269 C268 1.307 . S
C270 C268 1.486 . S
C270 H274 0.960 . S
C270 H275 0.960 . S
C270 H276 0.959 . S
H271 C267 0.960 . S
H272 C267 0.961 . S
H273 C267 0.960 . S
H274 C270 0.960 . S
H275 C270 0.960 . S
H276 C270 0.959 . S
C277 N278 1.317 . S
C277 N279 1.348 . S
C277 C280 1.485 . S
N278 C277 1.317 . S
N278 N282 1.370 . S
N279 C277 1.348 . S
N279 C281 1.346 . S
C280 C277 1.485 . S
C280 H284 0.960 1_556 S
C280 H285 0.957 1_556 S
C280 H286 0.960 1_556 S
C281 N279 1.346 . S
C281 N282 1.307 . S
C281 C283 1.486 . S
N282 N278 1.370 . S
N282 C281 1.307 . S
C283 C281 1.486 . S
C283 H287 0.960 . S
C283 H288 0.960 . S
C283 H289 0.959 . S
H284 C280 0.960 1_554 S
H285 C280 0.957 1_554 S
H286 C280 0.960 1_554 S
H287 C283 0.960 . S
H288 C283 0.960 . S
H289 C283 0.959 . S
C290 N291 1.317 . S
C290 N292 1.348 . S
C290 C293 1.485 . S
N291 C290 1.317 . S
N291 N295 1.370 . S
N292 C290 1.348 . S
N292 C294 1.346 . S
C293 C290 1.485 . S
C293 H297 0.960 . S
C293 H298 0.961 . S
C293 H299 0.960 . S
C294 N292 1.346 . S
C294 N295 1.307 . S
C294 C296 1.486 . S
N295 N291 1.370 . S
N295 C294 1.307 . S
C296 C294 1.486 . S
C296 H300 0.960 . S
C296 H301 0.960 . S
C296 H302 0.959 . S
H297 C293 0.960 . S
H298 C293 0.961 . S
H299 C293 0.960 . S
H300 C296 0.960 . S
H301 C296 0.960 . S
H302 C296 0.959 . S
C303 N304 1.317 . S
C303 N305 1.348 . S
C303 C306 1.485 1_554 S
N304 C303 1.317 . S
N304 N308 1.370 . S
N305 C303 1.348 . S
N305 C307 1.346 . S
C306 C303 1.485 1_556 S
C306 H310 0.960 . S
C306 H311 0.961 . S
C306 H312 0.960 . S
C307 N305 1.346 . S
C307 N308 1.307 . S
C307 C309 1.486 . S
N308 N304 1.370 . S
N308 C307 1.307 . S
C309 C307 1.486 . S
C309 H313 0.960 . S
C309 H314 0.960 . S
C309 H315 0.959 . S
H310 C306 0.960 . S
H311 C306 0.961 . S
H312 C306 0.960 . S
H313 C309 0.960 . S
H314 C309 0.960 . S
H315 C309 0.959 . S
C316 N317 1.317 . S
C316 N318 1.348 . S
C316 C319 1.485 . S
N317 C316 1.317 . S
N317 N321 1.370 . S
N318 C316 1.348 . S
N318 C320 1.346 . S
C319 C316 1.485 . S
C319 H323 0.960 . S
C319 H324 0.961 . S
C319 H325 0.960 . S
C320 N318 1.346 . S
C320 N321 1.307 . S
C320 C322 1.486 . S
N321 N317 1.370 . S
N321 C320 1.307 . S
C322 C320 1.486 . S
C322 H326 0.960 . S
C322 H327 0.960 . S
C322 H328 0.959 . S
H323 C319 0.960 . S
H324 C319 0.961 . S
H325 C319 0.960 . S
H326 C322 0.960 . S
H327 C322 0.960 . S
H328 C322 0.959 . S
C329 N330 1.317 . S
C329 N331 1.348 . S
C329 C332 1.485 1_455 S
N330 C329 1.317 . S
N330 N334 1.370 . S
N331 C329 1.348 . S
N331 C333 1.346 . S
C332 C329 1.485 1_655 S
C332 H336 0.960 . S
C332 H337 0.961 . S
C332 H338 0.960 . S
C333 N331 1.346 . S
C333 N334 1.307 . S
C333 C335 1.486 . S
N334 N330 1.370 . S
N334 C333 1.307 . S
C335 C333 1.486 . S
C335 H339 0.960 . S
C335 H340 0.960 . S
C335 H341 0.959 . S
H336 C332 0.960 . S
H337 C332 0.961 . S
H338 C332 0.960 . S
H339 C335 0.960 . S
H340 C335 0.960 . S
H341 C335 0.959 . S
C342 N343 1.317 . S
C342 N344 1.348 . S
C342 C345 1.485 . S
N343 C342 1.317 . S
N343 N347 1.370 . S
N344 C342 1.348 . S
N344 C346 1.346 . S
C345 C342 1.485 . S
C345 H349 0.960 1_655 S
C345 H350 0.957 1_655 S
C345 H351 0.960 1_655 S
C346 N344 1.346 . S
C346 N347 1.307 . S
C346 C348 1.486 . S
N347 N343 1.370 . S
N347 C346 1.307 . S
C348 C346 1.486 . S
C348 H352 0.960 . S
C348 H353 0.960 . S
C348 H354 0.959 . S
H349 C345 0.960 1_455 S
H350 C345 0.957 1_455 S
H351 C345 0.960 1_455 S
H352 C348 0.960 . S
H353 C348 0.960 . S
H354 C348 0.959 . S
C355 N356 1.317 . S
C355 N357 1.348 . S
C355 C358 1.485 . S
N356 C355 1.317 . S
N356 N360 1.370 . S
N357 C355 1.348 . S
N357 C359 1.346 . S
C358 C355 1.485 . S
C358 H362 0.960 . S
C358 H363 0.961 . S
C358 H364 0.960 . S
C359 N357 1.346 . S
C359 N360 1.307 . S
C359 C361 1.486 . S
N360 N356 1.370 . S
N360 C359 1.307 . S
C361 C359 1.486 . S
C361 H365 0.960 . S
C361 H366 0.960 . S
C361 H367 0.959 . S
H362 C358 0.960 . S
H363 C358 0.961 . S
H364 C358 0.960 . S
H365 C361 0.960 . S
H366 C361 0.960 . S
H367 C361 0.959 . S
C368 N369 1.317 . S
C368 N370 1.348 . S
C368 C371 1.485 . S
N369 C368 1.317 . S
N369 N373 1.370 . S
N370 C368 1.348 . S
N370 C372 1.346 . S
C371 C368 1.485 . S
C371 H375 0.960 . S
C371 H376 0.961 . S
C371 H377 0.960 . S
C372 N370 1.346 . S
C372 N373 1.307 . S
C372 C374 1.486 . S
N373 N369 1.370 . S
N373 C372 1.307 . S
C374 C372 1.486 . S
C374 H378 0.960 . S
C374 H379 0.960 . S
C374 H380 0.959 . S
H375 C371 0.960 . S
H376 C371 0.961 . S
H377 C371 0.960 . S
H378 C374 0.960 . S
H379 C374 0.960 . S
H380 C374 0.959 . S
C381 N382 1.317 . S
C381 N383 1.348 . S
C381 C384 1.485 1_545 S
N382 C381 1.317 . S
N382 N386 1.370 . S
N383 C381 1.348 . S
N383 C385 1.346 . S
C384 C381 1.485 1_565 S
C384 H388 0.960 . S
C384 H389 0.961 . S
C384 H390 0.960 . S
C385 N383 1.346 . S
C385 N386 1.307 . S
C385 C387 1.486 . S
N386 N382 1.370 . S
N386 C385 1.307 . S
C387 C385 1.486 . S
C387 H391 0.960 . S
C387 H392 0.960 . S
C387 H393 0.959 . S
H388 C384 0.960 . S
H389 C384 0.961 . S
H390 C384 0.960 . S
H391 C387 0.960 . S
H392 C387 0.960 . S
H393 C387 0.959 . S
C394 N395 1.317 . S
C394 N396 1.348 . S
C394 C397 1.485 . S
N395 C394 1.317 . S
N395 N399 1.370 . S
N396 C394 1.348 . S
N396 C398 1.346 . S
C397 C394 1.485 . S
C397 H401 0.960 1_565 S
C397 H402 0.957 1_565 S
C397 H403 0.959 1_565 S
C398 N396 1.346 . S
C398 N399 1.307 . S
C398 C400 1.486 . S
N399 N395 1.370 . S
N399 C398 1.307 . S
C400 C398 1.486 . S
C400 H404 0.960 . S
C400 H405 0.960 . S
C400 H406 0.959 . S
H401 C397 0.960 1_545 S
H402 C397 0.957 1_545 S
H403 C397 0.959 1_545 S
H404 C400 0.960 . S
H405 C400 0.960 . S
H406 C400 0.959 . S
C407 N408 1.317 . S
C407 N409 1.348 . S
C407 C410 1.485 . S
N408 C407 1.317 . S
N408 N412 1.370 . S
N409 C407 1.348 . S
N409 C411 1.346 . S
C410 C407 1.485 . S
C410 H414 0.960 . S
C410 H415 0.961 . S
C410 H416 0.960 . S
C411 N409 1.346 . S
C411 N412 1.307 . S
C411 C413 1.486 . S
N412 N408 1.370 . S
N412 C411 1.307 . S
C413 C411 1.486 . S
C413 H417 0.960 . S
C413 H418 0.960 . S
C413 H419 0.959 . S
H414 C410 0.960 . S
H415 C410 0.961 . S
H416 C410 0.960 . S
H417 C413 0.960 . S
H418 C413 0.960 . S
H419 C413 0.959 . S
C420 N421 1.317 . S
C420 N422 1.348 . S
C420 C423 1.485 . S
N421 C420 1.317 . S
N421 N425 1.370 . S
N422 C420 1.348 . S
N422 C424 1.346 . S
C423 C420 1.485 . S
C423 H427 0.960 . S
C423 H428 0.961 . S
C423 H429 0.960 . S
C424 N422 1.346 . S
C424 N425 1.307 . S
C424 C426 1.486 . S
N425 N421 1.370 . S
N425 C424 1.307 . S
C426 C424 1.486 . S
C426 H430 0.960 . S
C426 H431 0.960 . S
C426 H432 0.959 . S
H427 C423 0.960 . S
H428 C423 0.961 . S
H429 C423 0.960 . S
H430 C426 0.960 . S
H431 C426 0.960 . S
H432 C426 0.959 . S
C433 N434 1.317 . S
C433 N435 1.348 . S
C433 C436 1.485 . S
N434 C433 1.317 . S
N434 N438 1.370 . S
N435 C433 1.348 . S
N435 C437 1.346 . S
C436 C433 1.485 . S
C436 H440 0.960 1_554 S
C436 H441 0.961 1_554 S
C436 H442 0.960 1_554 S
C437 N435 1.346 . S
C437 N438 1.307 . S
C437 C439 1.486 . S
N438 N434 1.370 . S
N438 C437 1.307 . S
C439 C437 1.486 . S
C439 H443 0.960 . S
C439 H444 0.960 . S
C439 H445 0.959 . S
H440 C436 0.960 1_556 S
H441 C436 0.961 1_556 S
H442 C436 0.960 1_556 S
H443 C439 0.960 . S
H444 C439 0.960 . S
H445 C439 0.959 . S
C446 N447 1.317 . S
C446 N448 1.348 . S
C446 C449 1.485 . S
N447 C446 1.317 . S
N447 N451 1.370 . S
N448 C446 1.348 . S
N448 C450 1.346 . S
C449 C446 1.485 . S
C449 H453 0.960 . S
C449 H454 0.961 . S
C449 H455 0.960 . S
C450 N448 1.346 . S
C450 N451 1.307 . S
C450 C452 1.486 . S
N451 N447 1.370 . S
N451 C450 1.307 . S
C452 C450 1.486 . S
C452 H456 0.960 . S
C452 H457 0.960 . S
C452 H458 0.959 . S
H453 C449 0.960 . S
H454 C449 0.961 . S
H455 C449 0.960 . S
H456 C452 0.960 . S
H457 C452 0.960 . S
H458 C452 0.959 . S
C459 N460 1.317 . S
C459 N461 1.348 . S
C459 C462 1.485 1_556 S
N460 C459 1.317 . S
N460 N464 1.370 . S
N461 C459 1.348 . S
N461 C463 1.346 . S
C462 C459 1.485 1_554 S
C462 H466 0.960 . S
C462 H467 0.961 . S
C462 H468 0.960 . S
C463 N461 1.346 . S
C463 N464 1.307 . S
C463 C465 1.486 . S
N464 N460 1.370 . S
N464 C463 1.307 . S
C465 C463 1.486 . S
C465 H469 0.960 . S
C465 H470 0.960 . S
C465 H471 0.959 . S
H466 C462 0.960 . S
H467 C462 0.961 . S
H468 C462 0.960 . S
H469 C465 0.960 . S
H470 C465 0.960 . S
H471 C465 0.959 . S
C472 N473 1.317 . S
C472 N474 1.348 . S
C472 C475 1.485 . S
N473 C472 1.317 . S
N473 N477 1.370 . S
N474 C472 1.348 . S
N474 C476 1.346 . S
C475 C472 1.485 . S
C475 H479 0.960 . S
C475 H480 0.961 . S
C475 H481 0.960 . S
C476 N474 1.346 . S
C476 N477 1.307 . S
C476 C478 1.486 . S
N477 N473 1.370 . S
N477 C476 1.307 . S
C478 C476 1.486 . S
C478 H482 0.960 . S
C478 H483 0.960 . S
C478 H484 0.959 . S
H479 C475 0.960 . S
H480 C475 0.961 . S
H481 C475 0.960 . S
H482 C478 0.960 . S
H483 C478 0.960 . S
H484 C478 0.959 . S
C485 N486 1.317 . S
C485 N487 1.348 . S
C485 C488 1.485 1_655 S
N486 C485 1.317 . S
N486 N490 1.370 . S
N487 C485 1.348 . S
N487 C489 1.346 . S
C488 C485 1.485 1_455 S
C488 H492 0.960 . S
C488 H493 0.961 . S
C488 H494 0.960 . S
C489 N487 1.346 . S
C489 N490 1.307 . S
C489 C491 1.486 . S
N490 N486 1.370 . S
N490 C489 1.307 . S
C491 C489 1.486 . S
C491 H495 0.960 . S
C491 H496 0.960 . S
C491 H497 0.959 . S
H492 C488 0.960 . S
H493 C488 0.961 . S
H494 C488 0.960 . S
H495 C491 0.960 . S
H496 C491 0.960 . S
H497 C491 0.959 . S
C498 N499 1.317 . S
C498 N500 1.348 . S
C498 C501 1.485 . S
N499 C498 1.317 . S
N499 N503 1.370 . S
N500 C498 1.348 . S
N500 C502 1.346 . S
C501 C498 1.485 . S
C501 H505 0.960 1_455 S
C501 H506 0.961 1_455 S
C501 H507 0.960 1_455 S
C502 N500 1.346 . S
C502 N503 1.307 . S
C502 C504 1.486 . S
N503 N499 1.370 . S
N503 C502 1.307 . S
C504 C502 1.486 . S
C504 H508 0.960 . S
C504 H509 0.960 . S
C504 H510 0.959 . S
H505 C501 0.960 1_655 S
H506 C501 0.961 1_655 S
H507 C501 0.960 1_655 S
H508 C504 0.960 . S
H509 C504 0.960 . S
H510 C504 0.959 . S
C511 N512 1.317 . S
C511 N513 1.348 . S
C511 C514 1.485 . S
N512 C511 1.317 . S
N512 N516 1.370 . S
N513 C511 1.348 . S
N513 C515 1.346 . S
C514 C511 1.485 . S
C514 H518 0.960 . S
C514 H519 0.961 . S
C514 H520 0.960 . S
C515 N513 1.346 . S
C515 N516 1.307 . S
C515 C517 1.486 . S
N516 N512 1.370 . S
N516 C515 1.307 . S
C517 C515 1.486 . S
C517 H521 0.960 . S
C517 H522 0.960 . S
C517 H523 0.959 . S
H518 C514 0.960 . S
H519 C514 0.961 . S
H520 C514 0.960 . S
H521 C517 0.960 . S
H522 C517 0.960 . S
H523 C517 0.959 . S
C524 N525 1.317 . S
C524 N526 1.348 . S
C524 C527 1.485 . S
N525 C524 1.317 . S
N525 N529 1.370 . S
N526 C524 1.348 . S
N526 C528 1.346 . S
C527 C524 1.485 . S
C527 H531 0.960 . S
C527 H532 0.961 . S
C527 H533 0.960 . S
C528 N526 1.346 . S
C528 N529 1.307 . S
C528 C530 1.486 . S
N529 N525 1.370 . S
N529 C528 1.307 . S
C530 C528 1.486 . S
C530 H534 0.960 . S
C530 H535 0.960 . S
C530 H536 0.959 . S
H531 C527 0.960 . S
H532 C527 0.961 . S
H533 C527 0.960 . S
H534 C530 0.960 . S
H535 C530 0.960 . S
H536 C530 0.959 . S
C537 N538 1.317 . S
C537 N539 1.348 . S
C537 C540 1.485 1_565 S
N538 C537 1.317 . S
N538 N542 1.370 . S
N539 C537 1.348 . S
N539 C541 1.346 . S
C540 C537 1.485 1_545 S
C540 H544 0.960 . S
C540 H545 0.961 . S
C540 H546 0.960 . S
C541 N539 1.346 . S
C541 N542 1.307 . S
C541 C543 1.486 . S
N542 N538 1.370 . S
N542 C541 1.307 . S
C543 C541 1.486 . S
C543 H547 0.960 . S
C543 H548 0.960 . S
C543 H549 0.959 . S
H544 C540 0.960 . S
H545 C540 0.961 . S
H546 C540 0.960 . S
H547 C543 0.960 . S
H548 C543 0.960 . S
H549 C543 0.959 . S
C550 N551 1.317 . S
C550 N552 1.348 . S
C550 C553 1.485 . S
N551 C550 1.317 . S
N551 N555 1.370 . S
N552 C550 1.348 . S
N552 C554 1.346 . S
C553 C550 1.485 . S
C553 H557 0.960 1_545 S
C553 H558 0.961 1_545 S
C553 H559 0.960 1_545 S
C554 N552 1.346 . S
C554 N555 1.307 . S
C554 C556 1.486 . S
N555 N551 1.370 . S
N555 C554 1.307 . S
C556 C554 1.486 . S
C556 H560 0.960 . S
C556 H561 0.960 . S
C556 H562 0.959 . S
H557 C553 0.960 1_565 S
H558 C553 0.961 1_565 S
H559 C553 0.960 1_565 S
H560 C556 0.960 . S
H561 C556 0.960 . S
H562 C556 0.959 . S
C563 N564 1.317 . S
C563 N565 1.348 . S
C563 C566 1.485 . S
N564 C563 1.317 . S
N564 N568 1.370 . S
N565 C563 1.348 . S
N565 C567 1.346 . S
C566 C563 1.485 . S
C566 H570 0.960 . S
C566 H571 0.961 . S
C566 H572 0.960 . S
C567 N565 1.346 . S
C567 N568 1.307 . S
C567 C569 1.486 . S
N568 N564 1.370 . S
N568 C567 1.307 . S
C569 C567 1.486 . S
C569 H573 0.960 . S
C569 H574 0.960 . S
C569 H575 0.959 . S
H570 C566 0.960 . S
H571 C566 0.961 . S
H572 C566 0.960 . S
H573 C569 0.960 . S
H574 C569 0.960 . S
H575 C569 0.959 . S
H576 C584 0.950 . S
H577 C589 0.950 . S
H578 C586 0.950 . S
H579 C588 0.950 . S
H580 C590 0.950 . S
H581 C592 0.950 . S
H582 C594 0.950 . S
H583 C595 0.950 . S
C584 H576 0.950 . S
C584 C585 1.386 . S
C584 C586 1.391 . S
C585 C584 1.386 . S
C585 C589 1.393 . S
C586 H578 0.950 . S
C586 C584 1.391 . S
C586 C587 1.400 . S
C587 C586 1.400 . S
C587 C588 1.398 . S
C587 C593 1.491 . S
C588 H579 0.950 . S
C588 C587 1.398 . S
C588 C589 1.391 . S
C589 H577 0.950 . S
C589 C585 1.393 . S
C589 C588 1.391 . S
C590 H580 0.950 . S
C590 C591 1.386 . S
C590 C592 1.391 . S
C591 C590 1.386 . S
C591 C595 1.393 . S
C592 H581 0.950 . S
C592 C590 1.391 . S
C592 C593 1.400 . S
C593 C587 1.491 . S
C593 C592 1.400 . S
C593 C594 1.398 . S
C594 H582 0.950 . S
C594 C593 1.398 . S
C594 C595 1.391 . S
C595 H583 0.950 . S
C595 C591 1.393 . S
C595 C594 1.391 . S
H596 C604 0.950 . S
H597 C609 0.950 . S
H598 C606 0.950 . S
H599 C608 0.950 . S
H600 C610 0.950 . S
H601 C612 0.950 . S
H602 C614 0.950 . S
H603 C615 0.950 . S
C604 H596 0.950 . S
C604 C605 1.386 . S
C604 C606 1.391 . S
C605 C604 1.386 . S
C605 C609 1.393 . S
C606 H598 0.950 . S
C606 C604 1.391 . S
C606 C607 1.400 . S
C607 C606 1.400 . S
C607 C608 1.398 . S
C607 C613 1.491 . S
C608 H599 0.950 . S
C608 C607 1.398 . S
C608 C609 1.391 . S
C609 H597 0.950 . S
C609 C605 1.393 . S
C609 C608 1.391 . S
C610 H600 0.950 . S
C610 C611 1.386 . S
C610 C612 1.391 . S
C611 C610 1.386 . S
C611 C615 1.393 . S
C612 H601 0.950 . S
C612 C610 1.391 . S
C612 C613 1.400 . S
C613 C607 1.491 . S
C613 C612 1.400 . S
C613 C614 1.398 . S
C614 H602 0.950 . S
C614 C613 1.398 . S
C614 C615 1.391 . S
C615 H603 0.950 . S
C615 C611 1.393 . S
C615 C614 1.391 . S
H616 C624 0.950 . S
H617 C629 0.950 . S
H618 C626 0.950 . S
H619 C628 0.950 . S
H620 C630 0.950 . S
H621 C632 0.950 1_565 S
H622 C634 0.950 . S
H623 C635 0.950 . S
C624 H616 0.950 . S
C624 C625 1.386 . S
C624 C626 1.391 . S
C625 C624 1.386 . S
C625 C629 1.393 1_545 S
C626 H618 0.950 . S
C626 C624 1.391 . S
C626 C627 1.400 . S
C627 C626 1.400 . S
C627 C628 1.398 1_545 S
C627 C633 1.491 . S
C628 H619 0.950 . S
C628 C627 1.398 1_565 S
C628 C629 1.391 . S
C629 H617 0.950 . S
C629 C625 1.393 1_565 S
C629 C628 1.391 . S
C630 H620 0.950 . S
C630 C631 1.386 . S
C630 C632 1.391 . S
C631 C630 1.386 . S
C631 C635 1.393 . S
C632 H621 0.950 1_545 S
C632 C630 1.391 . S
C632 C633 1.400 . S
C633 C627 1.491 . S
C633 C632 1.400 . S
C633 C634 1.398 . S
C634 H622 0.950 . S
C634 C633 1.398 . S
C634 C635 1.391 . S
C635 H623 0.950 . S
C635 C631 1.393 . S
C635 C634 1.391 . S
H636 C644 0.950 . S
H637 C649 0.950 . S
H638 C646 0.950 . S
H639 C648 0.950 . S
H640 C650 0.950 . S
H641 C652 0.950 . S
H642 C654 0.950 . S
H643 C655 0.950 1_545 S
C644 H636 0.950 . S
C644 C645 1.399 . S
C644 C646 1.391 . S
C645 C644 1.399 . S
C645 C649 1.373 1_545 S
C646 H638 0.950 . S
C646 C644 1.391 . S
C646 C647 1.400 1_545 S
C647 C646 1.400 1_565 S
C647 C648 1.398 . S
C647 C653 1.491 . S
C648 H639 0.950 . S
C648 C647 1.398 . S
C648 C649 1.391 . S
C649 H637 0.950 . S
C649 C645 1.373 1_565 S
C649 C648 1.391 . S
C650 H640 0.950 . S
C650 C651 1.386 . S
C650 C652 1.391 1_455 S
C651 C650 1.386 . S
C651 C655 1.393 . S
C652 H641 0.950 . S
C652 C650 1.391 1_655 S
C652 C653 1.400 . S
C653 C647 1.491 . S
C653 C652 1.400 . S
C653 C654 1.398 1_565 S
C654 H642 0.950 . S
C654 C653 1.398 1_545 S
C654 C655 1.391 1_645 S
C655 H643 0.950 1_565 S
C655 C651 1.393 . S
C655 C654 1.391 1_465 S
H656 C664 0.950 . S
H657 C669 0.950 . S
H658 C666 0.950 . S
H659 C668 0.950 . S
H660 C670 0.950 . S
H661 C672 0.950 . S
H662 C674 0.950 . S
H663 C675 0.950 . S
C664 H656 0.950 . S
C664 C665 1.386 . S
C664 C666 1.391 . S
C665 C664 1.386 . S
C665 C669 1.393 . S
C666 H658 0.950 . S
C666 C664 1.391 . S
C666 C667 1.400 . S
C667 C666 1.400 . S
C667 C668 1.398 . S
C667 C673 1.491 . S
C668 H659 0.950 . S
C668 C667 1.398 . S
C668 C669 1.391 . S
C669 H657 0.950 . S
C669 C665 1.393 . S
C669 C668 1.391 . S
C670 H660 0.950 . S
C670 C671 1.386 . S
C670 C672 1.391 . S
C671 C670 1.386 . S
C671 C675 1.393 . S
C672 H661 0.950 . S
C672 C670 1.391 . S
C672 C673 1.400 . S
C673 C667 1.491 . S
C673 C672 1.400 . S
C673 C674 1.398 . S
C674 H662 0.950 . S
C674 C673 1.398 . S
C674 C675 1.391 . S
C675 H663 0.950 . S
C675 C671 1.393 . S
C675 C674 1.391 . S
H676 C684 0.950 . S
H677 C689 0.950 . S
H678 C686 0.950 . S
H679 C688 0.950 . S
H680 C690 0.950 1_554 S
H681 C692 0.950 . S
H682 C694 0.950 . S
H683 C695 0.950 . S
C684 H676 0.950 . S
C684 C685 1.361 1_556 S
C684 C686 1.391 . S
C685 C684 1.361 1_554 S
C685 C689 1.410 . S
C686 H678 0.950 . S
C686 C684 1.391 . S
C686 C687 1.400 . S
C687 C686 1.400 . S
C687 C688 1.398 1_556 S
C687 C693 1.491 . S
C688 H679 0.950 . S
C688 C687 1.398 1_554 S
C688 C689 1.391 . S
C689 H677 0.950 . S
C689 C685 1.410 . S
C689 C688 1.391 . S
C690 H680 0.950 1_556 S
C690 C691 1.386 . S
C690 C692 1.391 1_546 S
C691 C690 1.386 . S
C691 C695 1.393 . S
C692 H681 0.950 . S
C692 C690 1.391 1_564 S
C692 C693 1.400 1_554 S
C693 C687 1.491 . S
C693 C692 1.400 1_556 S
C693 C694 1.398 . S
C694 H682 0.950 . S
C694 C693 1.398 . S
C694 C695 1.391 1_565 S
C695 H683 0.950 . S
C695 C691 1.393 . S
C695 C694 1.391 1_545 S
H696 C704 0.950 . S
H697 C709 0.950 . S
H698 C706 0.950 . S
H699 C708 0.950 . S
H700 C710 0.950 . S
H701 C712 0.950 . S
H702 C714 0.950 . S
H703 C715 0.950 . S
C704 H696 0.950 . S
C704 C705 1.386 . S
C704 C706 1.391 . S
C705 C704 1.386 . S
C705 C709 1.393 . S
C706 H698 0.950 . S
C706 C704 1.391 . S
C706 C707 1.400 . S
C707 C706 1.400 . S
C707 C708 1.398 . S
C707 C713 1.491 . S
C708 H699 0.950 . S
C708 C707 1.398 . S
C708 C709 1.391 . S
C709 H697 0.950 . S
C709 C705 1.393 . S
C709 C708 1.391 . S
C710 H700 0.950 . S
C710 C711 1.386 . S
C710 C712 1.391 . S
C711 C710 1.386 . S
C711 C715 1.393 . S
C712 H701 0.950 . S
C712 C710 1.391 . S
C712 C713 1.400 . S
C713 C707 1.491 . S
C713 C712 1.400 . S
C713 C714 1.398 . S
C714 H702 0.950 . S
C714 C713 1.398 . S
C714 C715 1.391 . S
C715 H703 0.950 . S
C715 C711 1.393 . S
C715 C714 1.391 . S
H716 C724 0.950 . S
H717 C729 0.950 . S
H718 C726 0.950 1_556 S
H719 C728 0.950 . S
H720 C730 0.950 . S
H721 C732 0.950 . S
H722 C734 0.950 . S
H723 C735 0.950 . S
C724 H716 0.950 . S
C724 C725 1.386 1_556 S
C724 C726 1.391 1_556 S
C725 C724 1.386 1_554 S
C725 C729 1.393 . S
C726 H718 0.950 1_554 S
C726 C724 1.391 1_554 S
C726 C727 1.400 . S
C727 C726 1.400 . S
C727 C728 1.398 . S
C727 C733 1.491 . S
C728 H719 0.950 . S
C728 C727 1.398 . S
C728 C729 1.391 . S
C729 H717 0.950 . S
C729 C725 1.393 . S
C729 C728 1.391 . S
C730 H720 0.950 . S
C730 C731 1.386 . S
C730 C732 1.391 . S
C731 C730 1.386 . S
C731 C735 1.393 . S
C732 H721 0.950 . S
C732 C730 1.391 . S
C732 C733 1.400 . S
C733 C727 1.491 . S
C733 C732 1.400 . S
C733 C734 1.398 . S
C734 H722 0.950 . S
C734 C733 1.398 . S
C734 C735 1.391 . S
C735 H723 0.950 . S
C735 C731 1.393 . S
C735 C734 1.391 . S
H736 C744 0.950 . S
H737 C749 0.950 . S
H738 C746 0.950 . S
H739 C748 0.950 . S
H740 C750 0.950 . S
H741 C752 0.950 . S
H742 C754 0.950 . S
H743 C755 0.950 . S
C744 H736 0.950 . S
C744 C745 1.386 . S
C744 C746 1.391 . S
C745 C744 1.386 . S
C745 C749 1.393 . S
C746 H738 0.950 . S
C746 C744 1.391 . S
C746 C747 1.400 . S
C747 C746 1.400 . S
C747 C748 1.398 . S
C747 C753 1.491 . S
C748 H739 0.950 . S
C748 C747 1.398 . S
C748 C749 1.391 . S
C749 H737 0.950 . S
C749 C745 1.393 . S
C749 C748 1.391 . S
C750 H740 0.950 . S
C750 C751 1.386 . S
C750 C752 1.391 . S
C751 C750 1.386 . S
C751 C755 1.393 . S
C752 H741 0.950 . S
C752 C750 1.391 . S
C752 C753 1.400 . S
C753 C747 1.491 . S
C753 C752 1.400 . S
C753 C754 1.398 . S
C754 H742 0.950 . S
C754 C753 1.398 . S
C754 C755 1.391 . S
C755 H743 0.950 . S
C755 C751 1.393 . S
C755 C754 1.391 . S
H756 C764 0.950 . S
H757 C769 0.950 . S
H758 C766 0.950 . S
H759 C768 0.950 . S
H760 C770 0.950 1_455 S
H761 C772 0.950 1_455 S
H762 C774 0.950 . S
H763 C775 0.950 . S
C764 H756 0.950 . S
C764 C765 1.375 1_655 S
C764 C766 1.391 . S
C765 C764 1.375 1_455 S
C765 C769 1.400 . S
C766 H758 0.950 . S
C766 C764 1.391 . S
C766 C767 1.400 . S
C767 C766 1.400 . S
C767 C768 1.398 1_655 S
C767 C773 1.491 . S
C768 H759 0.950 . S
C768 C767 1.398 1_455 S
C768 C769 1.391 . S
C769 H757 0.950 . S
C769 C765 1.400 . S
C769 C768 1.391 . S
C770 H760 0.950 1_655 S
C770 C771 1.386 . S
C770 C772 1.391 1_554 S
C771 C770 1.386 . S
C771 C775 1.393 . S
C772 H761 0.950 1_655 S
C772 C770 1.391 1_556 S
C772 C773 1.400 . S
C773 C767 1.491 . S
C773 C772 1.400 . S
C773 C774 1.398 . S
C774 H762 0.950 . S
C774 C773 1.398 . S
C774 C775 1.391 1_556 S
C775 H763 0.950 . S
C775 C771 1.393 . S
C775 C774 1.391 1_554 S
H776 C784 0.950 . S
H777 C789 0.950 . S
H778 C786 0.950 . S
H779 C788 0.950 . S
H780 C790 0.950 . S
H781 C792 0.950 . S
H782 C794 0.950 . S
H783 C795 0.950 . S
C784 H776 0.950 . S
C784 C785 1.386 . S
C784 C786 1.391 . S
C785 C784 1.386 . S
C785 C789 1.393 . S
C786 H778 0.950 . S
C786 C784 1.391 . S
C786 C787 1.400 . S
C787 C786 1.400 . S
C787 C788 1.398 . S
C787 C793 1.491 . S
C788 H779 0.950 . S
C788 C787 1.398 . S
C788 C789 1.391 . S
C789 H777 0.950 . S
C789 C785 1.393 . S
C789 C788 1.391 . S
C790 H780 0.950 . S
C790 C791 1.386 . S
C790 C792 1.391 . S
C791 C790 1.386 . S
C791 C795 1.393 . S
C792 H781 0.950 . S
C792 C790 1.391 . S
C792 C793 1.400 . S
C793 C787 1.491 . S
C793 C792 1.400 . S
C793 C794 1.398 . S
C794 H782 0.950 . S
C794 C793 1.398 . S
C794 C795 1.391 . S
C795 H783 0.950 . S
C795 C791 1.393 . S
C795 C794 1.391 . S
H796 C804 0.950 . S
H797 C809 0.950 . S
H798 C806 0.946 1_655 S
H799 C808 0.950 . S
H800 C810 0.950 . S
H801 C812 0.950 . S
H802 C814 0.950 1_655 S
H803 C815 0.950 . S
C804 H796 0.950 . S
C804 C805 1.386 1_655 S
C804 C806 1.389 1_655 S
C805 C804 1.386 1_455 S
C805 C809 1.393 . S
C806 H798 0.946 1_455 S
C806 C804 1.389 1_455 S
C806 C807 1.406 . S
C807 C806 1.406 . S
C807 C808 1.398 . S
C807 C813 1.491 . S
C808 H799 0.950 . S
C808 C807 1.398 . S
C808 C809 1.391 . S
C809 H797 0.950 . S
C809 C805 1.393 . S
C809 C808 1.391 . S
C810 H800 0.950 . S
C810 C811 1.386 . S
C810 C812 1.391 . S
C811 C810 1.386 . S
C811 C815 1.393 . S
C812 H801 0.950 . S
C812 C810 1.391 . S
C812 C813 1.400 . S
C813 C807 1.491 . S
C813 C812 1.400 . S
C813 C814 1.398 . S
C814 H802 0.950 1_455 S
C814 C813 1.398 . S
C814 C815 1.391 . S
C815 H803 0.950 . S
C815 C811 1.393 . S
C815 C814 1.391 . S
H816 C824 0.950 . S
H817 C829 0.950 . S
H818 C826 0.950 . S
H819 C828 0.950 . S
H820 C830 0.950 . S
H821 C832 0.950 . S
H822 C834 0.950 . S
H823 C835 0.950 . S
C824 H816 0.950 . S
C824 C825 1.386 . S
C824 C826 1.391 . S
C825 C824 1.386 . S
C825 C829 1.393 . S
C826 H818 0.950 . S
C826 C824 1.391 . S
C826 C827 1.400 . S
C827 C826 1.400 . S
C827 C828 1.398 . S
C827 C833 1.491 . S
C828 H819 0.950 . S
C828 C827 1.398 . S
C828 C829 1.391 . S
C829 H817 0.950 . S
C829 C825 1.393 . S
C829 C828 1.391 . S
C830 H820 0.950 . S
C830 C831 1.386 . S
C830 C832 1.391 . S
C831 C830 1.386 . S
C831 C835 1.393 . S
C832 H821 0.950 . S
C832 C830 1.391 . S
C832 C833 1.400 . S
C833 C827 1.491 . S
C833 C832 1.400 . S
C833 C834 1.398 . S
C834 H822 0.950 . S
C834 C833 1.398 . S
C834 C835 1.391 . S
C835 H823 0.950 . S
C835 C831 1.393 . S
C835 C834 1.391 . S
H836 C844 0.950 . S
H837 C849 0.950 . S
H838 C846 0.950 . S
H839 C848 0.950 . S
H840 C850 0.950 . S
H841 C852 0.950 . S
H842 C854 0.950 . S
H843 C855 0.950 . S
C844 H836 0.950 . S
C844 C845 1.386 . S
C844 C846 1.391 . S
C845 C844 1.386 . S
C845 C849 1.393 . S
C846 H838 0.950 . S
C846 C844 1.391 . S
C846 C847 1.400 . S
C847 C846 1.400 . S
C847 C848 1.398 . S
C847 C853 1.491 . S
C848 H839 0.950 . S
C848 C847 1.398 . S
C848 C849 1.391 . S
C849 H837 0.950 . S
C849 C845 1.393 . S
C849 C848 1.391 . S
C850 H840 0.950 . S
C850 C851 1.386 . S
C850 C852 1.391 . S
C851 C850 1.386 . S
C851 C855 1.393 . S
C852 H841 0.950 . S
C852 C850 1.391 . S
C852 C853 1.400 . S
C853 C847 1.491 . S
C853 C852 1.400 . S
C853 C854 1.398 . S
C854 H842 0.950 . S
C854 C853 1.398 . S
C854 C855 1.391 . S
C855 H843 0.950 . S
C855 C851 1.393 . S
C855 C854 1.391 . S
H856 C864 0.950 . S
H857 C869 0.950 1_545 S
H858 C866 0.950 . S
H859 C868 0.950 . S
H860 C870 0.950 . S
H861 C872 0.950 . S
H862 C874 0.950 . S
H863 C875 0.950 . S
C864 H856 0.950 . S
C864 C865 1.386 . S
C864 C866 1.391 . S
C865 C864 1.386 . S
C865 C869 1.393 . S
C866 H858 0.950 . S
C866 C864 1.391 . S
C866 C867 1.400 . S
C867 C866 1.400 . S
C867 C868 1.398 . S
C867 C873 1.491 . S
C868 H859 0.950 . S
C868 C867 1.398 . S
C868 C869 1.391 . S
C869 H857 0.950 1_565 S
C869 C865 1.393 . S
C869 C868 1.391 . S
C870 H860 0.950 . S
C870 C871 1.386 . S
C870 C872 1.391 . S
C871 C870 1.386 . S
C871 C875 1.393 . S
C872 H861 0.950 . S
C872 C870 1.391 . S
C872 C873 1.400 . S
C873 C867 1.491 . S
C873 C872 1.400 . S
C873 C874 1.398 . S
C874 H862 0.950 . S
C874 C873 1.398 . S
C874 C875 1.391 . S
C875 H863 0.950 . S
C875 C871 1.393 . S
C875 C874 1.391 . S
H876 C884 0.950 . S
H877 C889 0.950 . S
H878 C886 0.950 . S
H879 C888 0.950 . S
H880 C890 0.950 . S
H881 C892 0.950 . S
H882 C894 0.950 . S
H883 C895 0.950 1_565 S
C884 H876 0.950 . S
C884 C885 1.413 . S
C884 C886 1.391 . S
C885 C884 1.413 . S
C885 C889 1.355 1_565 S
C886 H878 0.950 . S
C886 C884 1.391 . S
C886 C887 1.400 1_565 S
C887 C886 1.400 1_545 S
C887 C888 1.398 . S
C887 C893 1.491 . S
C888 H879 0.950 . S
C888 C887 1.398 . S
C888 C889 1.391 . S
C889 H877 0.950 . S
C889 C885 1.355 1_545 S
C889 C888 1.391 . S
C890 H880 0.950 . S
C890 C891 1.386 . S
C890 C892 1.391 1_655 S
C891 C890 1.386 . S
C891 C895 1.393 . S
C892 H881 0.950 . S
C892 C890 1.391 1_455 S
C892 C893 1.400 . S
C893 C887 1.491 . S
C893 C892 1.400 . S
C893 C894 1.398 1_545 S
C894 H882 0.950 . S
C894 C893 1.398 1_565 S
C894 C895 1.391 1_465 S
C895 H883 0.950 1_545 S
C895 C891 1.393 . S
C895 C894 1.391 1_645 S
H896 C904 0.950 . S
H897 C909 0.950 . S
H898 C906 0.950 . S
H899 C908 0.950 . S
H900 C910 0.950 . S
H901 C912 0.950 . S
H902 C914 0.950 . S
H903 C915 0.950 . S
C904 H896 0.950 . S
C904 C905 1.386 . S
C904 C906 1.391 . S
C905 C904 1.386 . S
C905 C909 1.393 . S
C906 H898 0.950 . S
C906 C904 1.391 . S
C906 C907 1.400 . S
C907 C906 1.400 . S
C907 C908 1.398 . S
C907 C913 1.491 . S
C908 H899 0.950 . S
C908 C907 1.398 . S
C908 C909 1.391 . S
C909 H897 0.950 . S
C909 C905 1.393 . S
C909 C908 1.391 . S
C910 H900 0.950 . S
C910 C911 1.386 . S
C910 C912 1.391 . S
C911 C910 1.386 . S
C911 C915 1.393 . S
C912 H901 0.950 . S
C912 C910 1.391 . S
C912 C913 1.400 . S
C913 C907 1.491 . S
C913 C912 1.400 . S
C913 C914 1.398 . S
C914 H902 0.950 . S
C914 C913 1.398 . S
C914 C915 1.391 . S
C915 H903 0.950 . S
C915 C911 1.393 . S
C915 C914 1.391 . S
H916 C924 0.950 . S
H917 C929 0.950 . S
H918 C926 0.949 1_556 S
H919 C928 0.950 . S
H920 C930 0.950 . S
H921 C932 0.950 . S
H922 C934 0.950 . S
H923 C935 0.950 . S
C924 H916 0.950 . S
C924 C925 1.386 . S
C924 C926 1.388 1_556 S
C925 C924 1.386 . S
C925 C929 1.393 1_556 S
C926 H918 0.949 1_554 S
C926 C924 1.388 1_554 S
C926 C927 1.404 . S
C927 C926 1.404 . S
C927 C928 1.398 . S
C927 C933 1.491 . S
C928 H919 0.950 . S
C928 C927 1.398 . S
C928 C929 1.391 . S
C929 H917 0.950 . S
C929 C925 1.393 1_554 S
C929 C928 1.391 . S
C930 H920 0.950 . S
C930 C931 1.386 . S
C930 C932 1.391 1_565 S
C931 C930 1.386 . S
C931 C935 1.393 . S
C932 H921 0.950 . S
C932 C930 1.391 1_545 S
C932 C933 1.400 . S
C933 C927 1.491 . S
C933 C932 1.400 . S
C933 C934 1.398 . S
C934 H922 0.950 . S
C934 C933 1.398 . S
C934 C935 1.391 1_545 S
C935 H923 0.950 . S
C935 C931 1.393 . S
C935 C934 1.391 1_565 S
H936 C944 0.950 . S
H937 C949 0.950 . S
H938 C946 0.950 . S
H939 C948 0.950 . S
H940 C950 0.950 . S
H941 C952 0.950 . S
H942 C954 0.950 . S
H943 C955 0.950 . S
C944 H936 0.950 . S
C944 C945 1.386 . S
C944 C946 1.391 . S
C945 C944 1.386 . S
C945 C949 1.393 . S
C946 H938 0.950 . S
C946 C944 1.391 . S
C946 C947 1.400 . S
C947 C946 1.400 . S
C947 C948 1.398 . S
C947 C953 1.491 . S
C948 H939 0.950 . S
C948 C947 1.398 . S
C948 C949 1.391 . S
C949 H937 0.950 . S
C949 C945 1.393 . S
C949 C948 1.391 . S
C950 H940 0.950 . S
C950 C951 1.386 . S
C950 C952 1.391 . S
C951 C950 1.386 . S
C951 C955 1.393 . S
C952 H941 0.950 . S
C952 C950 1.391 . S
C952 C953 1.400 . S
C953 C947 1.491 . S
C953 C952 1.400 . S
C953 C954 1.398 . S
C954 H942 0.950 . S
C954 C953 1.398 . S
C954 C955 1.391 . S
C955 H943 0.950 . S
C955 C951 1.393 . S
C955 C954 1.391 . S
H956 C964 0.950 . S
H957 C969 0.950 . S
H958 C966 0.950 . S
H959 C968 0.950 . S
H960 C970 0.950 . S
H961 C972 0.950 . S
H962 C974 0.950 . S
H963 C975 0.950 . S
C964 H956 0.950 . S
C964 C965 1.386 . S
C964 C966 1.391 . S
C965 C964 1.386 . S
C965 C969 1.393 . S
C966 H958 0.950 . S
C966 C964 1.391 . S
C966 C967 1.400 . S
C967 C966 1.400 . S
C967 C968 1.398 . S
C967 C973 1.491 . S
C968 H959 0.950 . S
C968 C967 1.398 . S
C968 C969 1.391 . S
C969 H957 0.950 . S
C969 C965 1.393 . S
C969 C968 1.391 . S
C970 H960 0.950 . S
C970 C971 1.386 . S
C970 C972 1.391 . S
C971 C970 1.386 . S
C971 C975 1.393 . S
C972 H961 0.950 . S
C972 C970 1.391 . S
C972 C973 1.400 . S
C973 C967 1.491 . S
C973 C972 1.400 . S
C973 C974 1.398 . S
C974 H962 0.950 . S
C974 C973 1.398 . S
C974 C975 1.391 . S
C975 H963 0.950 . S
C975 C971 1.393 . S
C975 C974 1.391 . S
H976 C984 0.950 . S
H977 C989 0.950 . S
H978 C986 0.950 . S
H979 C988 0.950 . S
H980 C990 0.950 . S
H981 C992 0.950 . S
H982 C994 0.950 . S
H983 C995 0.950 . S
C984 H976 0.950 . S
C984 C985 1.386 . S
C984 C986 1.391 . S
C985 C984 1.386 . S
C985 C989 1.393 . S
C986 H978 0.950 . S
C986 C984 1.391 . S
C986 C987 1.400 . S
C987 C986 1.400 . S
C987 C988 1.398 . S
C987 C993 1.491 . S
C988 H979 0.950 . S
C988 C987 1.398 . S
C988 C989 1.391 . S
C989 H977 0.950 . S
C989 C985 1.393 . S
C989 C988 1.391 . S
C990 H980 0.950 . S
C990 C991 1.386 . S
C990 C992 1.391 . S
C991 C990 1.386 . S
C991 C995 1.393 . S
C992 H981 0.950 . S
C992 C990 1.391 . S
C992 C993 1.400 . S
C993 C987 1.491 . S
C993 C992 1.400 . S
C993 C994 1.398 . S
C994 H982 0.950 . S
C994 C993 1.398 . S
C994 C995 1.391 . S
C995 H983 0.950 . S
C995 C991 1.393 . S
C995 C994 1.391 . S
H996 C1004 0.950 . S
H997 C1009 0.955 . S
H998 C1006 0.950 . S
H999 C1008 0.950 . S
H1000 C1010 0.950 . S
H1001 C1012 0.950 . S
H1002 C1014 0.950 . S
H1003 C1015 0.950 . S
C1004 H996 0.950 . S
C1004 C1005 1.386 . S
C1004 C1006 1.390 1_655 S
C1005 C1004 1.386 . S
C1005 C1009 1.393 1_655 S
C1006 H998 0.950 . S
C1006 C1004 1.390 1_455 S
C1006 C1007 1.400 . S
C1007 C1006 1.400 . S
C1007 C1008 1.398 . S
C1007 C1013 1.491 . S
C1008 H999 0.950 . S
C1008 C1007 1.398 . S
C1008 C1009 1.391 . S
C1009 H997 0.955 . S
C1009 C1005 1.393 1_455 S
C1009 C1008 1.391 . S
C1010 H1000 0.950 . S
C1010 C1011 1.386 . S
C1010 C1012 1.391 1_556 S
C1011 C1010 1.386 . S
C1011 C1015 1.393 . S
C1012 H1001 0.950 . S
C1012 C1010 1.391 1_554 S
C1012 C1013 1.400 . S
C1013 C1007 1.491 . S
C1013 C1012 1.400 . S
C1013 C1014 1.398 . S
C1014 H1002 0.950 . S
C1014 C1013 1.398 . S
C1014 C1015 1.391 1_554 S
C1015 H1003 0.950 . S
C1015 C1011 1.393 . S
C1015 C1014 1.391 1_556 S
H1016 C1024 0.950 . S
H1017 C1029 0.950 . S
H1018 C1026 0.950 . S
H1019 C1028 0.950 . S
H1020 C1030 0.950 . S
H1021 C1032 0.950 . S
H1022 C1034 0.950 . S
H1023 C1035 0.950 . S
C1024 H1016 0.950 . S
C1024 C1025 1.386 . S
C1024 C1026 1.391 . S
C1025 C1024 1.386 . S
C1025 C1029 1.393 . S
C1026 H1018 0.950 . S
C1026 C1024 1.391 . S
C1026 C1027 1.400 . S
C1027 C1026 1.400 . S
C1027 C1028 1.398 . S
C1027 C1033 1.491 . S
C1028 H1019 0.950 . S
C1028 C1027 1.398 . S
C1028 C1029 1.391 . S
C1029 H1017 0.950 . S
C1029 C1025 1.393 . S
C1029 C1028 1.391 . S
C1030 H1020 0.950 . S
C1030 C1031 1.386 . S
C1030 C1032 1.391 . S
C1031 C1030 1.386 . S
C1031 C1035 1.393 . S
C1032 H1021 0.950 . S
C1032 C1030 1.391 . S
C1032 C1033 1.400 . S
C1033 C1027 1.491 . S
C1033 C1032 1.400 . S
C1033 C1034 1.398 . S
C1034 H1022 0.950 . S
C1034 C1033 1.398 . S
C1034 C1035 1.391 . S
C1035 H1023 0.950 . S
C1035 C1031 1.393 . S
C1035 C1034 1.391 . S
H1036 C1044 0.950 . S
H1037 C1049 0.950 . S
H1038 C1046 0.950 . S
H1039 C1048 0.950 . S
H1040 C1050 0.950 . S
H1041 C1052 0.950 1_455 S
H1042 C1054 0.950 . S
H1043 C1055 0.950 . S
C1044 H1036 0.950 . S
C1044 C1045 1.386 . S
C1044 C1046 1.391 . S
C1045 C1044 1.386 . S
C1045 C1049 1.393 1_655 S
C1046 H1038 0.950 . S
C1046 C1044 1.391 . S
C1046 C1047 1.400 . S
C1047 C1046 1.400 . S
C1047 C1048 1.398 1_655 S
C1047 C1053 1.491 . S
C1048 H1039 0.950 . S
C1048 C1047 1.398 1_455 S
C1048 C1049 1.391 . S
C1049 H1037 0.950 . S
C1049 C1045 1.393 1_455 S
C1049 C1048 1.391 . S
C1050 H1040 0.950 . S
C1050 C1051 1.386 . S
C1050 C1052 1.391 . S
C1051 C1050 1.386 . S
C1051 C1055 1.393 . S
C1052 H1041 0.950 1_655 S
C1052 C1050 1.391 . S
C1052 C1053 1.400 . S
C1053 C1047 1.491 . S
C1053 C1052 1.400 . S
C1053 C1054 1.398 . S
C1054 H1042 0.950 . S
C1054 C1053 1.398 . S
C1054 C1055 1.391 . S
C1055 H1043 0.950 . S
C1055 C1051 1.393 . S
C1055 C1054 1.391 . S
H1056 C1064 0.950 . S
H1057 C1069 0.950 . S
H1058 C1066 0.950 . S
H1059 C1068 0.950 . S
H1060 C1070 0.950 . S
H1061 C1072 0.950 . S
H1062 C1074 0.950 . S
H1063 C1075 0.950 . S
C1064 H1056 0.950 . S
C1064 C1065 1.386 . S
C1064 C1066 1.391 . S
C1065 C1064 1.386 . S
C1065 C1069 1.393 . S
C1066 H1058 0.950 . S
C1066 C1064 1.391 . S
C1066 C1067 1.400 . S
C1067 C1066 1.400 . S
C1067 C1068 1.398 . S
C1067 C1073 1.491 . S
C1068 H1059 0.950 . S
C1068 C1067 1.398 . S
C1068 C1069 1.391 . S
C1069 H1057 0.950 . S
C1069 C1065 1.393 . S
C1069 C1068 1.391 . S
C1070 H1060 0.950 . S
C1070 C1071 1.386 . S
C1070 C1072 1.391 . S
C1071 C1070 1.386 . S
C1071 C1075 1.393 . S
C1072 H1061 0.950 . S
C1072 C1070 1.391 . S
C1072 C1073 1.400 . S
C1073 C1067 1.491 . S
C1073 C1072 1.400 . S
C1073 C1074 1.398 . S
C1074 H1062 0.950 . S
C1074 C1073 1.398 . S
C1074 C1075 1.391 . S
C1075 H1063 0.950 . S
C1075 C1071 1.393 . S
C1075 C1074 1.391 . S
H1076 C1084 0.950 . S
H1077 C1089 0.950 . S
H1078 C1086 0.950 . S
H1079 C1088 0.950 . S
H1080 C1090 0.950 . S
H1081 C1092 0.950 . S
H1082 C1094 0.950 . S
H1083 C1095 0.950 . S
C1084 H1076 0.950 . S
C1084 C1085 1.386 . S
C1084 C1086 1.391 . S
C1085 C1084 1.386 . S
C1085 C1089 1.393 . S
C1086 H1078 0.950 . S
C1086 C1084 1.391 . S
C1086 C1087 1.400 . S
C1087 C1086 1.400 . S
C1087 C1088 1.398 . S
C1087 C1093 1.491 . S
C1088 H1079 0.950 . S
C1088 C1087 1.398 . S
C1088 C1089 1.391 . S
C1089 H1077 0.950 . S
C1089 C1085 1.393 . S
C1089 C1088 1.391 . S
C1090 H1080 0.950 . S
C1090 C1091 1.386 . S
C1090 C1092 1.391 . S
C1091 C1090 1.386 . S
C1091 C1095 1.393 . S
C1092 H1081 0.950 . S
C1092 C1090 1.391 . S
C1092 C1093 1.400 . S
C1093 C1087 1.491 . S
C1093 C1092 1.400 . S
C1093 C1094 1.398 . S
C1094 H1082 0.950 . S
C1094 C1093 1.398 . S
C1094 C1095 1.391 . S
C1095 H1083 0.950 . S
C1095 C1091 1.393 . S
C1095 C1094 1.391 . S
H1096 C1104 0.950 . S
H1097 C1109 0.950 . S
H1098 C1106 0.950 . S
H1099 C1108 0.950 . S
H1100 C1110 0.950 . S
H1101 C1112 0.950 . S
H1102 C1114 0.950 . S
H1103 C1115 0.950 . S
C1104 H1096 0.950 . S
C1104 C1105 1.386 . S
C1104 C1106 1.391 . S
C1105 C1104 1.386 . S
C1105 C1109 1.393 1_565 S
C1106 H1098 0.950 . S
C1106 C1104 1.391 . S
C1106 C1107 1.400 1_565 S
C1107 C1106 1.400 1_545 S
C1107 C1108 1.398 . S
C1107 C1113 1.491 . S
C1108 H1099 0.950 . S
C1108 C1107 1.398 . S
C1108 C1109 1.391 . S
C1109 H1097 0.950 . S
C1109 C1105 1.393 1_545 S
C1109 C1108 1.391 . S
C1110 H1100 0.950 . S
C1110 C1111 1.386 . S
C1110 C1112 1.391 . S
C1111 C1110 1.386 . S
C1111 C1115 1.393 . S
C1112 H1101 0.950 . S
C1112 C1110 1.391 . S
C1112 C1113 1.400 . S
C1113 C1107 1.491 . S
C1113 C1112 1.400 . S
C1113 C1114 1.398 . S
C1114 H1102 0.950 . S
C1114 C1113 1.398 . S
C1114 C1115 1.391 . S
C1115 H1103 0.950 . S
C1115 C1111 1.393 . S
C1115 C1114 1.391 . S
H1116 C1124 0.950 . S
H1117 C1129 0.950 . S
H1118 C1126 0.954 . S
H1119 C1128 0.950 . S
H1120 C1130 0.950 . S
H1121 C1132 0.950 . S
H1122 C1134 0.983 . S
H1123 C1135 0.950 . S
C1124 H1116 0.950 . S
C1124 C1125 1.386 1_545 S
C1124 C1126 1.393 . S
C1125 C1124 1.386 1_565 S
C1125 C1129 1.393 . S
C1126 H1118 0.954 . S
C1126 C1124 1.393 . S
C1126 C1127 1.395 1_545 S
C1127 C1126 1.395 1_565 S
C1127 C1128 1.398 . S
C1127 C1133 1.491 . S
C1128 H1119 0.950 . S
C1128 C1127 1.398 . S
C1128 C1129 1.391 . S
C1129 H1117 0.950 . S
C1129 C1125 1.393 . S
C1129 C1128 1.391 . S
C1130 H1120 0.950 . S
C1130 C1131 1.386 . S
C1130 C1132 1.391 . S
C1131 C1130 1.386 . S
C1131 C1135 1.393 . S
C1132 H1121 0.950 . S
C1132 C1130 1.391 . S
C1132 C1133 1.400 . S
C1133 C1127 1.491 . S
C1133 C1132 1.400 . S
C1133 C1134 1.398 . S
C1134 H1122 0.983 . S
C1134 C1133 1.398 . S
C1134 C1135 1.391 . S
C1135 H1123 0.950 . S
C1135 C1131 1.393 . S
C1135 C1134 1.391 . S
H1136 C1144 0.950 . S
H1137 C1149 0.950 . S
H1138 C1146 0.950 . S
H1139 C1148 0.950 . S
H1140 C1150 0.950 . S
H1141 C1152 0.950 . S
H1142 C1154 0.950 . S
H1143 C1155 0.950 . S
C1144 H1136 0.950 . S
C1144 C1145 1.386 . S
C1144 C1146 1.391 . S
C1145 C1144 1.386 . S
C1145 C1149 1.393 . S
C1146 H1138 0.950 . S
C1146 C1144 1.391 . S
C1146 C1147 1.400 . S
C1147 C1146 1.400 . S
C1147 C1148 1.398 . S
C1147 C1153 1.491 . S
C1148 H1139 0.950 . S
C1148 C1147 1.398 . S
C1148 C1149 1.391 . S
C1149 H1137 0.950 . S
C1149 C1145 1.393 . S
C1149 C1148 1.391 . S
C1150 H1140 0.950 . S
C1150 C1151 1.386 . S
C1150 C1152 1.391 . S
C1151 C1150 1.386 . S
C1151 C1155 1.393 . S
C1152 H1141 0.950 . S
C1152 C1150 1.391 . S
C1152 C1153 1.400 . S
C1153 C1147 1.491 . S
C1153 C1152 1.400 . S
C1153 C1154 1.398 . S
C1154 H1142 0.950 . S
C1154 C1153 1.398 . S
C1154 C1155 1.391 . S
C1155 H1143 0.950 . S
C1155 C1151 1.393 . S
C1155 C1154 1.391 . S
H1156 C1164 0.950 . S
H1157 C1169 0.950 . S
H1158 C1166 0.950 . S
H1159 C1168 0.950 . S
H1160 C1170 0.950 . S
H1161 C1172 0.950 . S
H1162 C1174 0.950 . S
H1163 C1175 0.950 . S
C1164 H1156 0.950 . S
C1164 C1165 1.386 . S
C1164 C1166 1.391 . S
C1165 C1164 1.386 . S
C1165 C1169 1.393 . S
C1166 H1158 0.950 . S
C1166 C1164 1.391 . S
C1166 C1167 1.400 . S
C1167 C1166 1.400 . S
C1167 C1168 1.398 . S
C1167 C1173 1.491 . S
C1168 H1159 0.950 . S
C1168 C1167 1.398 . S
C1168 C1169 1.391 . S
C1169 H1157 0.950 . S
C1169 C1165 1.393 . S
C1169 C1168 1.391 . S
C1170 H1160 0.950 . S
C1170 C1171 1.386 . S
C1170 C1172 1.391 . S
C1171 C1170 1.386 . S
C1171 C1175 1.393 . S
C1172 H1161 0.950 . S
C1172 C1170 1.391 . S
C1172 C1173 1.400 . S
C1173 C1167 1.491 . S
C1173 C1172 1.400 . S
C1173 C1174 1.398 . S
C1174 H1162 0.950 . S
C1174 C1173 1.398 . S
C1174 C1175 1.391 . S
C1175 H1163 0.950 . S
C1175 C1171 1.393 . S
C1175 C1174 1.391 . S
H1176 C1184 0.950 . S
H1177 C1189 0.950 . S
H1178 C1186 0.950 . S
H1179 C1188 0.950 . S
H1180 C1190 0.950 . S
H1181 C1192 0.950 . S
H1182 C1194 0.950 . S
H1183 C1195 0.950 . S
C1184 H1176 0.950 . S
C1184 C1185 1.386 . S
C1184 C1186 1.391 . S
C1185 C1184 1.386 . S
C1185 C1189 1.393 . S
C1186 H1178 0.950 . S
C1186 C1184 1.391 . S
C1186 C1187 1.400 . S
C1187 C1186 1.400 . S
C1187 C1188 1.398 . S
C1187 C1193 1.491 . S
C1188 H1179 0.950 . S
C1188 C1187 1.398 . S
C1188 C1189 1.391 . S
C1189 H1177 0.950 . S
C1189 C1185 1.393 . S
C1189 C1188 1.391 . S
C1190 H1180 0.950 . S
C1190 C1191 1.386 . S
C1190 C1192 1.391 . S
C1191 C1190 1.386 . S
C1191 C1195 1.393 . S
C1192 H1181 0.950 . S
C1192 C1190 1.391 . S
C1192 C1193 1.400 . S
C1193 C1187 1.491 . S
C1193 C1192 1.400 . S
C1193 C1194 1.398 . S
C1194 H1182 0.950 . S
C1194 C1193 1.398 . S
C1194 C1195 1.391 . S
C1195 H1183 0.950 . S
C1195 C1191 1.393 . S
C1195 C1194 1.391 . S
H1196 C1204 0.950 . S
H1197 C1209 0.950 . S
H1198 C1206 0.950 . S
H1199 C1208 0.950 . S
H1200 C1210 0.950 1_556 S
H1201 C1212 0.931 1_556 S
H1202 C1214 0.950 . S
H1203 C1215 0.950 . S
C1204 H1196 0.950 . S
C1204 C1205 1.361 1_554 S
C1204 C1206 1.391 . S
C1205 C1204 1.361 1_556 S
C1205 C1209 1.410 . S
C1206 H1198 0.950 . S
C1206 C1204 1.391 . S
C1206 C1207 1.400 . S
C1207 C1206 1.400 . S
C1207 C1208 1.398 1_554 S
C1207 C1213 1.491 . S
C1208 H1199 0.950 . S
C1208 C1207 1.398 1_556 S
C1208 C1209 1.391 . S
C1209 H1197 0.950 . S
C1209 C1205 1.410 . S
C1209 C1208 1.391 . S
C1210 H1200 0.950 1_554 S
C1210 C1211 1.386 . S
C1210 C1212 1.397 . S
C1211 C1210 1.386 . S
C1211 C1215 1.393 . S
C1212 H1201 0.931 1_554 S
C1212 C1210 1.397 . S
C1212 C1213 1.413 . S
C1213 C1207 1.491 . S
C1213 C1212 1.413 . S
C1213 C1214 1.398 . S
C1214 H1202 0.950 . S
C1214 C1213 1.398 . S
C1214 C1215 1.391 . S
C1215 H1203 0.950 . S
C1215 C1211 1.393 . S
C1215 C1214 1.391 . S
H1216 C1224 0.950 . S
H1217 C1229 0.950 . S
H1218 C1226 0.950 . S
H1219 C1228 0.950 . S
H1220 C1230 0.950 . S
H1221 C1232 0.950 . S
H1222 C1234 0.950 . S
H1223 C1235 0.950 . S
C1224 H1216 0.950 . S
C1224 C1225 1.386 . S
C1224 C1226 1.391 . S
C1225 C1224 1.386 . S
C1225 C1229 1.393 . S
C1226 H1218 0.950 . S
C1226 C1224 1.391 . S
C1226 C1227 1.400 . S
C1227 C1226 1.400 . S
C1227 C1228 1.398 . S
C1227 C1233 1.491 . S
C1228 H1219 0.950 . S
C1228 C1227 1.398 . S
C1228 C1229 1.391 . S
C1229 H1217 0.950 . S
C1229 C1225 1.393 . S
C1229 C1228 1.391 . S
C1230 H1220 0.950 . S
C1230 C1231 1.386 . S
C1230 C1232 1.391 . S
C1231 C1230 1.386 . S
C1231 C1235 1.393 . S
C1232 H1221 0.950 . S
C1232 C1230 1.391 . S
C1232 C1233 1.400 . S
C1233 C1227 1.491 . S
C1233 C1232 1.400 . S
C1233 C1234 1.398 . S
C1234 H1222 0.950 . S
C1234 C1233 1.398 . S
C1234 C1235 1.391 . S
C1235 H1223 0.950 . S
C1235 C1231 1.393 . S
C1235 C1234 1.391 . S
H1236 C1244 0.950 . S
H1237 C1249 0.950 . S
H1238 C1246 0.952 . S
H1239 C1248 0.950 . S
H1240 C1250 0.950 . S
H1241 C1252 0.950 . S
H1242 C1254 0.983 . S
H1243 C1255 0.950 . S
C1244 H1236 0.950 . S
C1244 C1245 1.386 1_455 S
C1244 C1246 1.392 . S
C1245 C1244 1.386 1_655 S
C1245 C1249 1.393 . S
C1246 H1238 0.952 . S
C1246 C1244 1.392 . S
C1246 C1247 1.397 1_455 S
C1247 C1246 1.397 1_655 S
C1247 C1248 1.398 . S
C1247 C1253 1.491 . S
C1248 H1239 0.950 . S
C1248 C1247 1.398 . S
C1248 C1249 1.391 . S
C1249 H1237 0.950 . S
C1249 C1245 1.393 . S
C1249 C1248 1.391 . S
C1250 H1240 0.950 . S
C1250 C1251 1.386 . S
C1250 C1252 1.391 . S
C1251 C1250 1.386 . S
C1251 C1255 1.393 . S
C1252 H1241 0.950 . S
C1252 C1250 1.391 . S
C1252 C1253 1.400 . S
C1253 C1247 1.491 . S
C1253 C1252 1.400 . S
C1253 C1254 1.398 . S
C1254 H1242 0.983 . S
C1254 C1253 1.398 . S
C1254 C1255 1.391 . S
C1255 H1243 0.950 . S
C1255 C1251 1.393 . S
C1255 C1254 1.391 . S
H1256 C1264 0.950 . S
H1257 C1269 0.950 . S
H1258 C1266 0.950 . S
H1259 C1268 0.950 . S
H1260 C1270 0.950 . S
H1261 C1272 0.950 . S
H1262 C1274 0.950 . S
H1263 C1275 0.950 . S
C1264 H1256 0.950 . S
C1264 C1265 1.386 . S
C1264 C1266 1.391 . S
C1265 C1264 1.386 . S
C1265 C1269 1.393 . S
C1266 H1258 0.950 . S
C1266 C1264 1.391 . S
C1266 C1267 1.400 . S
C1267 C1266 1.400 . S
C1267 C1268 1.398 . S
C1267 C1273 1.491 . S
C1268 H1259 0.950 . S
C1268 C1267 1.398 . S
C1268 C1269 1.391 . S
C1269 H1257 0.950 . S
C1269 C1265 1.393 . S
C1269 C1268 1.391 . S
C1270 H1260 0.950 . S
C1270 C1271 1.386 . S
C1270 C1272 1.391 . S
C1271 C1270 1.386 . S
C1271 C1275 1.393 . S
C1272 H1261 0.950 . S
C1272 C1270 1.391 . S
C1272 C1273 1.400 . S
C1273 C1267 1.491 . S
C1273 C1272 1.400 . S
C1273 C1274 1.398 . S
C1274 H1262 0.950 . S
C1274 C1273 1.398 . S
C1274 C1275 1.391 . S
C1275 H1263 0.950 . S
C1275 C1271 1.393 . S
C1275 C1274 1.391 . S
H1276 C1284 0.950 . S
H1277 C1289 0.950 . S
H1278 C1286 0.950 . S
H1279 C1288 0.950 . S
H1280 C1290 0.950 . S
H1281 C1292 0.950 . S
H1282 C1294 0.950 . S
H1283 C1295 0.950 . S
C1284 H1276 0.950 . S
C1284 C1285 1.386 . S
C1284 C1286 1.391 . S
C1285 C1284 1.386 . S
C1285 C1289 1.393 1_655 S
C1286 H1278 0.950 . S
C1286 C1284 1.391 . S
C1286 C1287 1.400 1_655 S
C1287 C1286 1.400 1_455 S
C1287 C1288 1.398 . S
C1287 C1293 1.491 . S
C1288 H1279 0.950 . S
C1288 C1287 1.398 . S
C1288 C1289 1.391 . S
C1289 H1277 0.950 . S
C1289 C1285 1.393 1_455 S
C1289 C1288 1.391 . S
C1290 H1280 0.950 . S
C1290 C1291 1.386 . S
C1290 C1292 1.391 . S
C1291 C1290 1.386 . S
C1291 C1295 1.393 1_455 S
C1292 H1281 0.950 . S
C1292 C1290 1.391 . S
C1292 C1293 1.400 . S
C1293 C1287 1.491 . S
C1293 C1292 1.400 . S
C1293 C1294 1.398 1_455 S
C1294 H1282 0.950 . S
C1294 C1293 1.398 1_655 S
C1294 C1295 1.391 . S
C1295 H1283 0.950 . S
C1295 C1291 1.393 1_655 S
C1295 C1294 1.391 . S
H1296 C1304 0.950 . S
H1297 C1309 0.950 . S
H1298 C1306 0.950 . S
H1299 C1308 0.950 . S
H1300 C1310 0.950 . S
H1301 C1312 0.950 . S
H1302 C1314 0.950 . S
H1303 C1315 0.950 . S
C1304 H1296 0.950 . S
C1304 C1305 1.386 . S
C1304 C1306 1.391 . S
C1305 C1304 1.386 . S
C1305 C1309 1.393 . S
C1306 H1298 0.950 . S
C1306 C1304 1.391 . S
C1306 C1307 1.400 . S
C1307 C1306 1.400 . S
C1307 C1308 1.398 . S
C1307 C1313 1.491 . S
C1308 H1299 0.950 . S
C1308 C1307 1.398 . S
C1308 C1309 1.391 . S
C1309 H1297 0.950 . S
C1309 C1305 1.393 . S
C1309 C1308 1.391 . S
C1310 H1300 0.950 . S
C1310 C1311 1.386 . S
C1310 C1312 1.391 . S
C1311 C1310 1.386 . S
C1311 C1315 1.393 . S
C1312 H1301 0.950 . S
C1312 C1310 1.391 . S
C1312 C1313 1.400 . S
C1313 C1307 1.491 . S
C1313 C1312 1.400 . S
C1313 C1314 1.398 . S
C1314 H1302 0.950 . S
C1314 C1313 1.398 . S
C1314 C1315 1.391 . S
C1315 H1303 0.950 . S
C1315 C1311 1.393 . S
C1315 C1314 1.391 . S
H1316 C1324 0.950 . S
H1317 C1329 0.950 . S
H1318 C1326 0.950 . S
H1319 C1328 0.950 . S
H1320 C1330 0.950 . S
H1321 C1332 0.950 . S
H1322 C1334 0.950 . S
H1323 C1335 0.950 . S
C1324 H1316 0.950 . S
C1324 C1325 1.386 . S
C1324 C1326 1.391 . S
C1325 C1324 1.386 . S
C1325 C1329 1.393 . S
C1326 H1318 0.950 . S
C1326 C1324 1.391 . S
C1326 C1327 1.400 . S
C1327 C1326 1.400 . S
C1327 C1328 1.398 . S
C1327 C1333 1.491 . S
C1328 H1319 0.950 . S
C1328 C1327 1.398 . S
C1328 C1329 1.391 . S
C1329 H1317 0.950 . S
C1329 C1325 1.393 . S
C1329 C1328 1.391 . S
C1330 H1320 0.950 . S
C1330 C1331 1.386 . S
C1330 C1332 1.391 . S
C1331 C1330 1.386 . S
C1331 C1335 1.393 . S
C1332 H1321 0.950 . S
C1332 C1330 1.391 . S
C1332 C1333 1.400 . S
C1333 C1327 1.491 . S
C1333 C1332 1.400 . S
C1333 C1334 1.398 . S
C1334 H1322 0.950 . S
C1334 C1333 1.398 . S
C1334 C1335 1.391 . S
C1335 H1323 0.950 . S
C1335 C1331 1.393 . S
C1335 C1334 1.391 . S
H1336 C1344 0.950 . S
H1337 C1349 0.950 . S
H1338 C1346 0.950 . S
H1339 C1348 0.950 . S
H1340 C1350 0.950 . S
H1341 C1352 0.950 . S
H1342 C1354 0.950 . S
H1343 C1355 0.950 1_545 S
C1344 H1336 0.950 . S
C1344 C1345 1.386 . S
C1344 C1346 1.391 . S
C1345 C1344 1.386 . S
C1345 C1349 1.393 1_545 S
C1346 H1338 0.950 . S
C1346 C1344 1.391 . S
C1346 C1347 1.400 1_545 S
C1347 C1346 1.400 1_565 S
C1347 C1348 1.398 . S
C1347 C1353 1.491 . S
C1348 H1339 0.950 . S
C1348 C1347 1.398 . S
C1348 C1349 1.391 . S
C1349 H1337 0.950 . S
C1349 C1345 1.393 1_565 S
C1349 C1348 1.391 . S
C1350 H1340 0.950 . S
C1350 C1351 1.386 . S
C1350 C1352 1.391 . S
C1351 C1350 1.386 . S
C1351 C1355 1.393 . S
C1352 H1341 0.950 . S
C1352 C1350 1.391 . S
C1352 C1353 1.400 . S
C1353 C1347 1.491 . S
C1353 C1352 1.400 . S
C1353 C1354 1.398 1_565 S
C1354 H1342 0.950 . S
C1354 C1353 1.398 1_545 S
C1354 C1355 1.391 1_545 S
C1355 H1343 0.950 1_565 S
C1355 C1351 1.393 . S
C1355 C1354 1.391 1_565 S
H1356 C1364 0.950 1_565 S
H1357 C1369 0.950 . S
H1358 C1366 0.950 . S
H1359 C1368 0.950 . S
H1360 C1370 0.950 . S
H1361 C1372 0.950 . S
H1362 C1374 0.950 . S
H1363 C1375 0.950 . S
C1364 H1356 0.950 1_545 S
C1364 C1365 1.386 . S
C1364 C1366 1.391 . S
C1365 C1364 1.386 . S
C1365 C1369 1.393 . S
C1366 H1358 0.950 . S
C1366 C1364 1.391 . S
C1366 C1367 1.400 . S
C1367 C1366 1.400 . S
C1367 C1368 1.398 . S
C1367 C1373 1.491 . S
C1368 H1359 0.950 . S
C1368 C1367 1.398 . S
C1368 C1369 1.391 . S
C1369 H1357 0.950 . S
C1369 C1365 1.393 . S
C1369 C1368 1.391 . S
C1370 H1360 0.950 . S
C1370 C1371 1.386 . S
C1370 C1372 1.391 . S
C1371 C1370 1.386 . S
C1371 C1375 1.393 . S
C1372 H1361 0.950 . S
C1372 C1370 1.391 . S
C1372 C1373 1.400 . S
C1373 C1367 1.491 . S
C1373 C1372 1.400 . S
C1373 C1374 1.398 . S
C1374 H1362 0.950 . S
C1374 C1373 1.398 . S
C1374 C1375 1.391 . S
C1375 H1363 0.950 . S
C1375 C1371 1.393 . S
C1375 C1374 1.391 . S
H1376 C1384 0.950 . S
H1377 C1389 0.950 . S
H1378 C1386 0.950 . S
H1379 C1388 0.950 . S
H1380 C1390 0.950 . S
H1381 C1392 0.950 . S
H1382 C1394 0.950 . S
H1383 C1395 0.950 . S
C1384 H1376 0.950 . S
C1384 C1385 1.386 . S
C1384 C1386 1.391 . S
C1385 C1384 1.386 . S
C1385 C1389 1.393 . S
C1386 H1378 0.950 . S
C1386 C1384 1.391 . S
C1386 C1387 1.400 . S
C1387 C1386 1.400 . S
C1387 C1388 1.398 . S
C1387 C1393 1.491 . S
C1388 H1379 0.950 . S
C1388 C1387 1.398 . S
C1388 C1389 1.391 . S
C1389 H1377 0.950 . S
C1389 C1385 1.393 . S
C1389 C1388 1.391 . S
C1390 H1380 0.950 . S
C1390 C1391 1.386 . S
C1390 C1392 1.391 . S
C1391 C1390 1.386 . S
C1391 C1395 1.393 . S
C1392 H1381 0.950 . S
C1392 C1390 1.391 . S
C1392 C1393 1.400 . S
C1393 C1387 1.491 . S
C1393 C1392 1.400 . S
C1393 C1394 1.398 . S
C1394 H1382 0.950 . S
C1394 C1393 1.398 . S
C1394 C1395 1.391 . S
C1395 H1383 0.950 . S
C1395 C1391 1.393 . S
C1395 C1394 1.391 . S
H1396 C1404 0.950 . S
H1397 C1409 0.950 . S
H1398 C1406 0.949 1_556 S
H1399 C1408 0.950 . S
H1400 C1410 0.950 . S
H1401 C1412 0.950 . S
H1402 C1414 0.998 . S
H1403 C1415 0.950 . S
C1404 H1396 0.950 . S
C1404 C1405 1.386 1_556 S
C1404 C1406 1.391 1_556 S
C1405 C1404 1.386 1_554 S
C1405 C1409 1.393 . S
C1406 H1398 0.949 1_554 S
C1406 C1404 1.391 1_554 S
C1406 C1407 1.402 . S
C1407 C1406 1.402 . S
C1407 C1408 1.398 . S
C1407 C1413 1.491 . S
C1408 H1399 0.950 . S
C1408 C1407 1.398 . S
C1408 C1409 1.391 . S
C1409 H1397 0.950 . S
C1409 C1405 1.393 . S
C1409 C1408 1.391 . S
C1410 H1400 0.950 . S
C1410 C1411 1.386 . S
C1410 C1412 1.391 . S
C1411 C1410 1.386 . S
C1411 C1415 1.393 . S
C1412 H1401 0.950 . S
C1412 C1410 1.391 . S
C1412 C1413 1.400 . S
C1413 C1407 1.491 . S
C1413 C1412 1.400 . S
C1413 C1414 1.398 . S
C1414 H1402 0.998 . S
C1414 C1413 1.398 . S
C1414 C1415 1.391 . S
C1415 H1403 0.950 . S
C1415 C1411 1.393 . S
C1415 C1414 1.391 . S
H1416 C1424 0.950 . S
H1417 C1429 0.950 . S
H1418 C1426 0.950 . S
H1419 C1428 0.950 . S
H1420 C1430 0.950 . S
H1421 C1432 0.950 . S
H1422 C1434 0.950 . S
H1423 C1435 0.950 . S
C1424 H1416 0.950 . S
C1424 C1425 1.386 . S
C1424 C1426 1.391 . S
C1425 C1424 1.386 . S
C1425 C1429 1.393 . S
C1426 H1418 0.950 . S
C1426 C1424 1.391 . S
C1426 C1427 1.400 . S
C1427 C1426 1.400 . S
C1427 C1428 1.398 . S
C1427 C1433 1.491 . S
C1428 H1419 0.950 . S
C1428 C1427 1.398 . S
C1428 C1429 1.391 . S
C1429 H1417 0.950 . S
C1429 C1425 1.393 . S
C1429 C1428 1.391 . S
C1430 H1420 0.950 . S
C1430 C1431 1.386 . S
C1430 C1432 1.391 . S
C1431 C1430 1.386 . S
C1431 C1435 1.393 . S
C1432 H1421 0.950 . S
C1432 C1430 1.391 . S
C1432 C1433 1.400 . S
C1433 C1427 1.491 . S
C1433 C1432 1.400 . S
C1433 C1434 1.398 . S
C1434 H1422 0.950 . S
C1434 C1433 1.398 . S
C1434 C1435 1.391 . S
C1435 H1423 0.950 . S
C1435 C1431 1.393 . S
C1435 C1434 1.391 . S
H1436 C1444 0.950 . S
H1437 C1449 0.950 . S
H1438 C1446 0.948 . S
H1439 C1448 0.950 . S
H1440 C1450 0.950 . S
H1441 C1452 0.950 . S
H1442 C1454 0.950 . S
H1443 C1455 0.950 . S
C1444 H1436 0.950 . S
C1444 C1445 1.386 . S
C1444 C1446 1.391 1_554 S
C1445 C1444 1.386 . S
C1445 C1449 1.393 1_554 S
C1446 H1438 0.948 . S
C1446 C1444 1.391 1_556 S
C1446 C1447 1.400 . S
C1447 C1446 1.400 . S
C1447 C1448 1.398 . S
C1447 C1453 1.491 . S
C1448 H1439 0.950 . S
C1448 C1447 1.398 . S
C1448 C1449 1.391 . S
C1449 H1437 0.950 . S
C1449 C1445 1.393 1_556 S
C1449 C1448 1.391 . S
C1450 H1440 0.950 . S
C1450 C1451 1.386 . S
C1450 C1452 1.391 . S
C1451 C1450 1.386 . S
C1451 C1455 1.393 . S
C1452 H1441 0.950 . S
C1452 C1450 1.391 . S
C1452 C1453 1.400 . S
C1453 C1447 1.491 . S
C1453 C1452 1.400 . S
C1453 C1454 1.398 . S
C1454 H1442 0.950 . S
C1454 C1453 1.398 . S
C1454 C1455 1.391 . S
C1455 H1443 0.950 . S
C1455 C1451 1.393 . S
C1455 C1454 1.391 . S
H1456 C1464 0.950 . S
H1457 C1469 0.950 . S
H1458 C1466 0.950 . S
H1459 C1468 0.950 . S
H1460 C1470 0.950 . S
H1461 C1472 0.950 . S
H1462 C1474 0.950 . S
H1463 C1475 0.950 . S
C1464 H1456 0.950 . S
C1464 C1465 1.386 . S
C1464 C1466 1.391 . S
C1465 C1464 1.386 . S
C1465 C1469 1.393 . S
C1466 H1458 0.950 . S
C1466 C1464 1.391 . S
C1466 C1467 1.400 . S
C1467 C1466 1.400 . S
C1467 C1468 1.398 . S
C1467 C1473 1.491 . S
C1468 H1459 0.950 . S
C1468 C1467 1.398 . S
C1468 C1469 1.391 . S
C1469 H1457 0.950 . S
C1469 C1465 1.393 . S
C1469 C1468 1.391 . S
C1470 H1460 0.950 . S
C1470 C1471 1.386 . S
C1470 C1472 1.391 . S
C1471 C1470 1.386 . S
C1471 C1475 1.393 . S
C1472 H1461 0.950 . S
C1472 C1470 1.391 . S
C1472 C1473 1.400 . S
C1473 C1467 1.491 . S
C1473 C1472 1.400 . S
C1473 C1474 1.398 . S
C1474 H1462 0.950 . S
C1474 C1473 1.398 . S
C1474 C1475 1.391 . S
C1475 H1463 0.950 . S
C1475 C1471 1.393 . S
C1475 C1474 1.391 . S
H1476 C1484 0.950 . S
H1477 C1489 0.950 . S
H1478 C1486 0.950 . S
H1479 C1488 0.960 . S
H1480 C1490 0.950 . S
H1481 C1492 0.989 . S
H1482 C1494 0.950 . S
H1483 C1495 0.950 . S
C1484 H1476 0.950 . S
C1484 C1485 1.386 . S
C1484 C1486 1.391 . S
C1485 C1484 1.386 . S
C1485 C1489 1.393 1_455 S
C1486 H1478 0.950 . S
C1486 C1484 1.391 . S
C1486 C1487 1.400 . S
C1487 C1486 1.400 . S
C1487 C1488 1.385 1_455 S
C1487 C1493 1.491 . S
C1488 H1479 0.960 . S
C1488 C1487 1.385 1_655 S
C1488 C1489 1.394 . S
C1489 H1477 0.950 . S
C1489 C1485 1.393 1_655 S
C1489 C1488 1.394 . S
C1490 H1480 0.950 . S
C1490 C1491 1.386 . S
C1490 C1492 1.391 . S
C1491 C1490 1.386 . S
C1491 C1495 1.393 . S
C1492 H1481 0.989 . S
C1492 C1490 1.391 . S
C1492 C1493 1.400 . S
C1493 C1487 1.491 . S
C1493 C1492 1.400 . S
C1493 C1494 1.398 . S
C1494 H1482 0.950 . S
C1494 C1493 1.398 . S
C1494 C1495 1.391 . S
C1495 H1483 0.950 . S
C1495 C1491 1.393 . S
C1495 C1494 1.391 . S
H1496 C1504 0.950 . S
H1497 C1509 0.950 . S
H1498 C1506 0.950 . S
H1499 C1508 0.950 . S
H1500 C1510 0.950 . S
H1501 C1512 0.950 . S
H1502 C1514 0.950 . S
H1503 C1515 0.950 . S
C1504 H1496 0.950 . S
C1504 C1505 1.386 . S
C1504 C1506 1.391 . S
C1505 C1504 1.386 . S
C1505 C1509 1.393 . S
C1506 H1498 0.950 . S
C1506 C1504 1.391 . S
C1506 C1507 1.400 . S
C1507 C1506 1.400 . S
C1507 C1508 1.398 . S
C1507 C1513 1.491 . S
C1508 H1499 0.950 . S
C1508 C1507 1.398 . S
C1508 C1509 1.391 . S
C1509 H1497 0.950 . S
C1509 C1505 1.393 . S
C1509 C1508 1.391 . S
C1510 H1500 0.950 . S
C1510 C1511 1.386 . S
C1510 C1512 1.391 . S
C1511 C1510 1.386 . S
C1511 C1515 1.393 . S
C1512 H1501 0.950 . S
C1512 C1510 1.391 . S
C1512 C1513 1.400 . S
C1513 C1507 1.491 . S
C1513 C1512 1.400 . S
C1513 C1514 1.398 . S
C1514 H1502 0.950 . S
C1514 C1513 1.398 . S
C1514 C1515 1.391 . S
C1515 H1503 0.950 . S
C1515 C1511 1.393 . S
C1515 C1514 1.391 . S
H1516 C1524 0.950 . S
H1517 C1529 0.950 . S
H1518 C1526 0.950 . S
H1519 C1528 0.950 . S
H1520 C1530 0.950 . S
H1521 C1532 0.950 . S
H1522 C1534 0.950 . S
H1523 C1535 0.950 . S
C1524 H1516 0.950 . S
C1524 C1525 1.386 1_655 S
C1524 C1526 1.391 . S
C1525 C1524 1.386 1_455 S
C1525 C1529 1.393 . S
C1526 H1518 0.950 . S
C1526 C1524 1.391 . S
C1526 C1527 1.400 . S
C1527 C1526 1.400 . S
C1527 C1528 1.398 1_655 S
C1527 C1533 1.491 . S
C1528 H1519 0.950 . S
C1528 C1527 1.398 1_455 S
C1528 C1529 1.391 . S
C1529 H1517 0.950 . S
C1529 C1525 1.393 . S
C1529 C1528 1.391 . S
C1530 H1520 0.950 . S
C1530 C1531 1.386 1_455 S
C1530 C1532 1.391 . S
C1531 C1530 1.386 1_655 S
C1531 C1535 1.393 . S
C1532 H1521 0.950 . S
C1532 C1530 1.391 . S
C1532 C1533 1.400 1_455 S
C1533 C1527 1.491 . S
C1533 C1532 1.400 1_655 S
C1533 C1534 1.398 . S
C1534 H1522 0.950 . S
C1534 C1533 1.398 . S
C1534 C1535 1.391 . S
C1535 H1523 0.950 . S
C1535 C1531 1.393 . S
C1535 C1534 1.391 . S
H1536 C1544 0.950 . S
H1537 C1549 0.950 . S
H1538 C1546 0.950 . S
H1539 C1548 0.950 . S
H1540 C1550 0.950 . S
H1541 C1552 0.950 . S
H1542 C1554 0.950 . S
H1543 C1555 0.950 . S
C1544 H1536 0.950 . S
C1544 C1545 1.386 . S
C1544 C1546 1.391 . S
C1545 C1544 1.386 . S
C1545 C1549 1.393 . S
C1546 H1538 0.950 . S
C1546 C1544 1.391 . S
C1546 C1547 1.400 . S
C1547 C1546 1.400 . S
C1547 C1548 1.398 . S
C1547 C1553 1.491 . S
C1548 H1539 0.950 . S
C1548 C1547 1.398 . S
C1548 C1549 1.391 . S
C1549 H1537 0.950 . S
C1549 C1545 1.393 . S
C1549 C1548 1.391 . S
C1550 H1540 0.950 . S
C1550 C1551 1.386 . S
C1550 C1552 1.391 . S
C1551 C1550 1.386 . S
C1551 C1555 1.393 . S
C1552 H1541 0.950 . S
C1552 C1550 1.391 . S
C1552 C1553 1.400 . S
C1553 C1547 1.491 . S
C1553 C1552 1.400 . S
C1553 C1554 1.398 . S
C1554 H1542 0.950 . S
C1554 C1553 1.398 . S
C1554 C1555 1.391 . S
C1555 H1543 0.950 . S
C1555 C1551 1.393 . S
C1555 C1554 1.391 . S
H1556 C1564 0.950 . S
H1557 C1569 0.950 . S
H1558 C1566 0.950 . S
H1559 C1568 0.950 . S
H1560 C1570 0.950 . S
H1561 C1572 0.950 . S
H1562 C1574 0.950 . S
H1563 C1575 0.950 . S
C1564 H1556 0.950 . S
C1564 C1565 1.386 . S
C1564 C1566 1.391 . S
C1565 C1564 1.386 . S
C1565 C1569 1.393 . S
C1566 H1558 0.950 . S
C1566 C1564 1.391 . S
C1566 C1567 1.400 . S
C1567 C1566 1.400 . S
C1567 C1568 1.398 . S
C1567 C1573 1.491 . S
C1568 H1559 0.950 . S
C1568 C1567 1.398 . S
C1568 C1569 1.391 . S
C1569 H1557 0.950 . S
C1569 C1565 1.393 . S
C1569 C1568 1.391 . S
C1570 H1560 0.950 . S
C1570 C1571 1.386 . S
C1570 C1572 1.391 . S
C1571 C1570 1.386 . S
C1571 C1575 1.393 . S
C1572 H1561 0.950 . S
C1572 C1570 1.391 . S
C1572 C1573 1.400 . S
C1573 C1567 1.491 . S
C1573 C1572 1.400 . S
C1573 C1574 1.398 . S
C1574 H1562 0.950 . S
C1574 C1573 1.398 . S
C1574 C1575 1.391 . S
C1575 H1563 0.950 . S
C1575 C1571 1.393 . S
C1575 C1574 1.391 . S
H1576 C1584 0.950 . S
H1577 C1589 0.950 . S
H1578 C1586 0.950 . S
H1579 C1588 0.945 1_565 S
H1580 C1590 0.950 . S
H1581 C1592 0.950 . S
H1582 C1594 0.950 . S
H1583 C1595 0.950 . S
C1584 H1576 0.950 . S
C1584 C1585 1.388 . S
C1584 C1586 1.391 . S
C1585 C1584 1.388 . S
C1585 C1589 1.392 1_545 S
C1586 H1578 0.950 . S
C1586 C1584 1.391 . S
C1586 C1587 1.400 . S
C1587 C1586 1.400 . S
C1587 C1588 1.408 . S
C1587 C1593 1.491 . S
C1588 H1579 0.945 1_545 S
C1588 C1587 1.408 . S
C1588 C1589 1.389 1_545 S
C1589 H1577 0.950 . S
C1589 C1585 1.392 1_565 S
C1589 C1588 1.389 1_565 S
C1590 H1580 0.950 . S
C1590 C1591 1.386 . S
C1590 C1592 1.391 . S
C1591 C1590 1.386 . S
C1591 C1595 1.393 . S
C1592 H1581 0.950 . S
C1592 C1590 1.391 . S
C1592 C1593 1.400 . S
C1593 C1587 1.491 . S
C1593 C1592 1.400 . S
C1593 C1594 1.398 . S
C1594 H1582 0.950 . S
C1594 C1593 1.398 . S
C1594 C1595 1.391 . S
C1595 H1583 0.950 . S
C1595 C1591 1.393 . S
C1595 C1594 1.391 . S
H1596 C1604 0.950 . S
H1597 C1609 0.950 . S
H1598 C1606 0.950 . S
H1599 C1608 0.950 . S
H1600 C1610 0.950 . S
H1601 C1612 0.950 1_545 S
H1602 C1614 0.950 . S
H1603 C1615 0.950 . S
C1604 H1596 0.950 . S
C1604 C1605 1.386 . S
C1604 C1606 1.391 . S
C1605 C1604 1.386 . S
C1605 C1609 1.393 1_565 S
C1606 H1598 0.950 . S
C1606 C1604 1.391 . S
C1606 C1607 1.400 . S
C1607 C1606 1.400 . S
C1607 C1608 1.398 1_565 S
C1607 C1613 1.491 . S
C1608 H1599 0.950 . S
C1608 C1607 1.398 1_545 S
C1608 C1609 1.391 . S
C1609 H1597 0.950 . S
C1609 C1605 1.393 1_545 S
C1609 C1608 1.391 . S
C1610 H1600 0.950 . S
C1610 C1611 1.386 . S
C1610 C1612 1.391 . S
C1611 C1610 1.386 . S
C1611 C1615 1.393 . S
C1612 H1601 0.950 1_565 S
C1612 C1610 1.391 . S
C1612 C1613 1.400 . S
C1613 C1607 1.491 . S
C1613 C1612 1.400 . S
C1613 C1614 1.398 . S
C1614 H1602 0.950 . S
C1614 C1613 1.398 . S
C1614 C1615 1.391 . S
C1615 H1603 0.950 . S
C1615 C1611 1.393 . S
C1615 C1614 1.391 . S
H1616 C1624 0.950 . S
H1617 C1629 0.950 . S
H1618 C1626 0.950 . S
H1619 C1628 0.950 . S
H1620 C1630 0.950 . S
H1621 C1632 0.950 . S
H1622 C1634 0.950 . S
H1623 C1635 0.950 . S
C1624 H1616 0.950 . S
C1624 C1625 1.386 . S
C1624 C1626 1.391 . S
C1625 C1624 1.386 . S
C1625 C1629 1.393 . S
C1626 H1618 0.950 . S
C1626 C1624 1.391 . S
C1626 C1627 1.400 . S
C1627 C1626 1.400 . S
C1627 C1628 1.398 . S
C1627 C1633 1.491 . S
C1628 H1619 0.950 . S
C1628 C1627 1.398 . S
C1628 C1629 1.391 . S
C1629 H1617 0.950 . S
C1629 C1625 1.393 . S
C1629 C1628 1.391 . S
C1630 H1620 0.950 . S
C1630 C1631 1.386 . S
C1630 C1632 1.391 . S
C1631 C1630 1.386 . S
C1631 C1635 1.393 . S
C1632 H1621 0.950 . S
C1632 C1630 1.391 . S
C1632 C1633 1.400 . S
C1633 C1627 1.491 . S
C1633 C1632 1.400 . S
C1633 C1634 1.398 . S
C1634 H1622 0.950 . S
C1634 C1633 1.398 . S
C1634 C1635 1.391 . S
C1635 H1623 0.950 . S
C1635 C1631 1.393 . S
C1635 C1634 1.391 . S
H1636 C1644 0.950 . S
H1637 C1649 0.950 . S
H1638 C1646 0.950 . S
H1639 C1648 0.950 . S
H1640 C1650 0.950 . S
H1641 C1652 0.950 . S
H1642 C1654 0.950 . S
H1643 C1655 0.950 . S
C1644 H1636 0.950 . S
C1644 C1645 1.386 . S
C1644 C1646 1.391 . S
C1645 C1644 1.386 . S
C1645 C1649 1.393 . S
C1646 H1638 0.950 . S
C1646 C1644 1.391 . S
C1646 C1647 1.400 . S
C1647 C1646 1.400 . S
C1647 C1648 1.398 . S
C1647 C1653 1.491 . S
C1648 H1639 0.950 . S
C1648 C1647 1.398 . S
C1648 C1649 1.391 . S
C1649 H1637 0.950 . S
C1649 C1645 1.393 . S
C1649 C1648 1.391 . S
C1650 H1640 0.950 . S
C1650 C1651 1.386 . S
C1650 C1652 1.391 . S
C1651 C1650 1.386 . S
C1651 C1655 1.393 . S
C1652 H1641 0.950 . S
C1652 C1650 1.391 . S
C1652 C1653 1.400 . S
C1653 C1647 1.491 . S
C1653 C1652 1.400 . S
C1653 C1654 1.398 . S
C1654 H1642 0.950 . S
C1654 C1653 1.398 . S
C1654 C1655 1.391 . S
C1655 H1643 0.950 . S
C1655 C1651 1.393 . S
C1655 C1654 1.391 . S
H1656 C1664 0.950 . S
H1657 C1669 0.950 . S
H1658 C1666 0.950 . S
H1659 C1668 0.950 . S
H1660 C1670 0.950 . S
H1661 C1672 0.950 . S
H1662 C1674 0.950 . S
H1663 C1675 0.950 . S
C1664 H1656 0.950 . S
C1664 C1665 1.386 . S
C1664 C1666 1.391 . S
C1665 C1664 1.386 . S
C1665 C1669 1.393 . S
C1666 H1658 0.950 . S
C1666 C1664 1.391 . S
C1666 C1667 1.400 . S
C1667 C1666 1.400 . S
C1667 C1668 1.398 . S
C1667 C1673 1.491 . S
C1668 H1659 0.950 . S
C1668 C1667 1.398 . S
C1668 C1669 1.391 . S
C1669 H1657 0.950 . S
C1669 C1665 1.393 . S
C1669 C1668 1.391 . S
C1670 H1660 0.950 . S
C1670 C1671 1.386 . S
C1670 C1672 1.391 . S
C1671 C1670 1.386 . S
C1671 C1675 1.393 . S
C1672 H1661 0.950 . S
C1672 C1670 1.391 . S
C1672 C1673 1.400 . S
C1673 C1667 1.491 . S
C1673 C1672 1.400 . S
C1673 C1674 1.398 . S
C1674 H1662 0.950 . S
C1674 C1673 1.398 . S
C1674 C1675 1.391 . S
C1675 H1663 0.950 . S
C1675 C1671 1.393 . S
C1675 C1674 1.391 . S
H1676 C1684 0.950 . S
H1677 C1689 0.950 . S
H1678 C1686 0.950 . S
H1679 C1688 0.950 . S
H1680 C1690 0.950 . S
H1681 C1692 0.950 . S
H1682 C1694 0.950 1_556 S
H1683 C1695 0.957 . S
C1684 H1676 0.950 . S
C1684 C1685 1.375 1_556 S
C1684 C1686 1.391 . S
C1685 C1684 1.375 1_554 S
C1685 C1689 1.405 . S
C1686 H1678 0.950 . S
C1686 C1684 1.391 . S
C1686 C1687 1.400 1_556 S
C1687 C1686 1.400 1_554 S
C1687 C1688 1.398 . S
C1687 C1693 1.491 . S
C1688 H1679 0.950 . S
C1688 C1687 1.398 . S
C1688 C1689 1.391 . S
C1689 H1677 0.950 . S
C1689 C1685 1.405 . S
C1689 C1688 1.391 . S
C1690 H1680 0.950 . S
C1690 C1691 1.386 . S
C1690 C1692 1.391 . S
C1691 C1690 1.386 . S
C1691 C1695 1.393 . S
C1692 H1681 0.950 . S
C1692 C1690 1.391 . S
C1692 C1693 1.400 . S
C1693 C1687 1.491 . S
C1693 C1692 1.400 . S
C1693 C1694 1.398 . S
C1694 H1682 0.950 1_554 S
C1694 C1693 1.398 . S
C1694 C1695 1.391 . S
C1695 H1683 0.957 . S
C1695 C1691 1.393 . S
C1695 C1694 1.391 . S
H1696 C1704 0.950 . S
H1697 C1709 0.950 . S
H1698 C1706 0.950 . S
H1699 C1708 0.950 . S
H1700 C1710 0.950 . S
H1701 C1712 0.950 . S
H1702 C1714 0.950 . S
H1703 C1715 0.950 . S
C1704 H1696 0.950 . S
C1704 C1705 1.386 . S
C1704 C1706 1.391 . S
C1705 C1704 1.386 . S
C1705 C1709 1.393 . S
C1706 H1698 0.950 . S
C1706 C1704 1.391 . S
C1706 C1707 1.400 . S
C1707 C1706 1.400 . S
C1707 C1708 1.398 . S
C1707 C1713 1.491 . S
C1708 H1699 0.950 . S
C1708 C1707 1.398 . S
C1708 C1709 1.391 . S
C1709 H1697 0.950 . S
C1709 C1705 1.393 . S
C1709 C1708 1.391 . S
C1710 H1700 0.950 . S
C1710 C1711 1.386 . S
C1710 C1712 1.391 . S
C1711 C1710 1.386 . S
C1711 C1715 1.393 . S
C1712 H1701 0.950 . S
C1712 C1710 1.391 . S
C1712 C1713 1.400 . S
C1713 C1707 1.491 . S
C1713 C1712 1.400 . S
C1713 C1714 1.398 . S
C1714 H1702 0.950 . S
C1714 C1713 1.398 . S
C1714 C1715 1.391 . S
C1715 H1703 0.950 . S
C1715 C1711 1.393 . S
C1715 C1714 1.391 . S
H1716 C1724 0.950 . S
H1717 C1729 0.950 . S
H1718 C1726 0.950 . S
H1719 C1728 0.950 . S
H1720 C1730 0.950 . S
H1721 C1732 0.950 1_455 S
H1722 C1734 0.950 . S
H1723 C1735 0.950 . S
C1724 H1716 0.950 . S
C1724 C1725 1.386 . S
C1724 C1726 1.391 . S
C1725 C1724 1.386 . S
C1725 C1729 1.393 1_655 S
C1726 H1718 0.950 . S
C1726 C1724 1.391 . S
C1726 C1727 1.400 . S
C1727 C1726 1.400 . S
C1727 C1728 1.398 1_655 S
C1727 C1733 1.491 . S
C1728 H1719 0.950 . S
C1728 C1727 1.398 1_455 S
C1728 C1729 1.391 . S
C1729 H1717 0.950 . S
C1729 C1725 1.393 1_455 S
C1729 C1728 1.391 . S
C1730 H1720 0.950 . S
C1730 C1731 1.386 . S
C1730 C1732 1.391 . S
C1731 C1730 1.386 . S
C1731 C1735 1.393 . S
C1732 H1721 0.950 1_655 S
C1732 C1730 1.391 . S
C1732 C1733 1.400 . S
C1733 C1727 1.491 . S
C1733 C1732 1.400 . S
C1733 C1734 1.398 . S
C1734 H1722 0.950 . S
C1734 C1733 1.398 . S
C1734 C1735 1.391 . S
C1735 H1723 0.950 . S
C1735 C1731 1.393 . S
C1735 C1734 1.391 . S
H1736 C1744 0.950 . S
H1737 C1749 0.950 . S
H1738 C1746 0.950 . S
H1739 C1748 0.950 . S
H1740 C1750 0.950 . S
H1741 C1752 0.950 . S
H1742 C1754 0.950 . S
H1743 C1755 0.950 . S
C1744 H1736 0.950 . S
C1744 C1745 1.386 . S
C1744 C1746 1.391 . S
C1745 C1744 1.386 . S
C1745 C1749 1.393 . S
C1746 H1738 0.950 . S
C1746 C1744 1.391 . S
C1746 C1747 1.400 . S
C1747 C1746 1.400 . S
C1747 C1748 1.398 . S
C1747 C1753 1.491 . S
C1748 H1739 0.950 . S
C1748 C1747 1.398 . S
C1748 C1749 1.391 . S
C1749 H1737 0.950 . S
C1749 C1745 1.393 . S
C1749 C1748 1.391 . S
C1750 H1740 0.950 . S
C1750 C1751 1.386 . S
C1750 C1752 1.391 . S
C1751 C1750 1.386 . S
C1751 C1755 1.393 . S
C1752 H1741 0.950 . S
C1752 C1750 1.391 . S
C1752 C1753 1.400 . S
C1753 C1747 1.491 . S
C1753 C1752 1.400 . S
C1753 C1754 1.398 . S
C1754 H1742 0.950 . S
C1754 C1753 1.398 . S
C1754 C1755 1.391 . S
C1755 H1743 0.950 . S
C1755 C1751 1.393 . S
C1755 C1754 1.391 . S
H1756 C1764 0.950 . S
H1757 C1769 0.950 . S
H1758 C1766 0.950 . S
H1759 C1768 0.950 . S
H1760 C1770 0.950 . S
H1761 C1772 0.950 . S
H1762 C1774 0.950 . S
H1763 C1775 0.950 . S
C1764 H1756 0.950 . S
C1764 C1765 1.386 1_655 S
C1764 C1766 1.391 . S
C1765 C1764 1.386 1_455 S
C1765 C1769 1.393 . S
C1766 H1758 0.950 . S
C1766 C1764 1.391 . S
C1766 C1767 1.400 1_655 S
C1767 C1766 1.400 1_455 S
C1767 C1768 1.398 . S
C1767 C1773 1.491 . S
C1768 H1759 0.950 . S
C1768 C1767 1.398 . S
C1768 C1769 1.391 . S
C1769 H1757 0.950 . S
C1769 C1765 1.393 . S
C1769 C1768 1.391 . S
C1770 H1760 0.950 . S
C1770 C1771 1.386 . S
C1770 C1772 1.391 . S
C1771 C1770 1.386 . S
C1771 C1775 1.393 1_455 S
C1772 H1761 0.950 . S
C1772 C1770 1.391 . S
C1772 C1773 1.400 . S
C1773 C1767 1.491 . S
C1773 C1772 1.400 . S
C1773 C1774 1.398 1_455 S
C1774 H1762 0.950 . S
C1774 C1773 1.398 1_655 S
C1774 C1775 1.391 . S
C1775 H1763 0.950 . S
C1775 C1771 1.393 1_655 S
C1775 C1774 1.391 . S
H1776 C1784 0.950 . S
H1777 C1789 0.950 . S
H1778 C1786 0.950 . S
H1779 C1788 0.950 . S
H1780 C1790 0.950 . S
H1781 C1792 0.950 . S
H1782 C1794 0.950 . S
H1783 C1795 0.950 . S
C1784 H1776 0.950 . S
C1784 C1785 1.386 . S
C1784 C1786 1.391 . S
C1785 C1784 1.386 . S
C1785 C1789 1.393 . S
C1786 H1778 0.950 . S
C1786 C1784 1.391 . S
C1786 C1787 1.400 . S
C1787 C1786 1.400 . S
C1787 C1788 1.398 . S
C1787 C1793 1.491 . S
C1788 H1779 0.950 . S
C1788 C1787 1.398 . S
C1788 C1789 1.391 . S
C1789 H1777 0.950 . S
C1789 C1785 1.393 . S
C1789 C1788 1.391 . S
C1790 H1780 0.950 . S
C1790 C1791 1.386 . S
C1790 C1792 1.391 . S
C1791 C1790 1.386 . S
C1791 C1795 1.393 . S
C1792 H1781 0.950 . S
C1792 C1790 1.391 . S
C1792 C1793 1.400 . S
C1793 C1787 1.491 . S
C1793 C1792 1.400 . S
C1793 C1794 1.398 . S
C1794 H1782 0.950 . S
C1794 C1793 1.398 . S
C1794 C1795 1.391 . S
C1795 H1783 0.950 . S
C1795 C1791 1.393 . S
C1795 C1794 1.391 . S
H1796 C1804 0.950 . S
H1797 C1809 0.950 . S
H1798 C1806 0.950 . S
H1799 C1808 0.950 . S
H1800 C1810 0.950 . S
H1801 C1812 0.950 . S
H1802 C1814 0.950 . S
H1803 C1815 0.950 . S
C1804 H1796 0.950 . S
C1804 C1805 1.386 . S
C1804 C1806 1.391 . S
C1805 C1804 1.386 . S
C1805 C1809 1.393 . S
C1806 H1798 0.950 . S
C1806 C1804 1.391 . S
C1806 C1807 1.400 . S
C1807 C1806 1.400 . S
C1807 C1808 1.398 . S
C1807 C1813 1.491 . S
C1808 H1799 0.950 . S
C1808 C1807 1.398 . S
C1808 C1809 1.391 . S
C1809 H1797 0.950 . S
C1809 C1805 1.393 . S
C1809 C1808 1.391 . S
C1810 H1800 0.950 . S
C1810 C1811 1.386 . S
C1810 C1812 1.391 . S
C1811 C1810 1.386 . S
C1811 C1815 1.393 . S
C1812 H1801 0.950 . S
C1812 C1810 1.391 . S
C1812 C1813 1.400 . S
C1813 C1807 1.491 . S
C1813 C1812 1.400 . S
C1813 C1814 1.398 . S
C1814 H1802 0.950 . S
C1814 C1813 1.398 . S
C1814 C1815 1.391 . S
C1815 H1803 0.950 . S
C1815 C1811 1.393 . S
C1815 C1814 1.391 . S
H1816 C1824 0.950 . S
H1817 C1829 0.950 . S
H1818 C1826 0.950 . S
H1819 C1828 0.950 . S
H1820 C1830 0.950 . S
H1821 C1832 0.950 . S
H1822 C1834 0.950 . S
H1823 C1835 0.950 . S
C1824 H1816 0.950 . S
C1824 C1825 1.386 . S
C1824 C1826 1.391 . S
C1825 C1824 1.386 . S
C1825 C1829 1.393 1_565 S
C1826 H1818 0.950 . S
C1826 C1824 1.391 . S
C1826 C1827 1.400 . S
C1827 C1826 1.400 . S
C1827 C1828 1.398 1_565 S
C1827 C1833 1.491 . S
C1828 H1819 0.950 . S
C1828 C1827 1.398 1_545 S
C1828 C1829 1.391 . S
C1829 H1817 0.950 . S
C1829 C1825 1.393 1_545 S
C1829 C1828 1.391 . S
C1830 H1820 0.950 . S
C1830 C1831 1.386 1_545 S
C1830 C1832 1.391 . S
C1831 C1830 1.386 1_565 S
C1831 C1835 1.393 . S
C1832 H1821 0.950 . S
C1832 C1830 1.391 . S
C1832 C1833 1.400 1_545 S
C1833 C1827 1.491 . S
C1833 C1832 1.400 1_565 S
C1833 C1834 1.398 . S
C1834 H1822 0.950 . S
C1834 C1833 1.398 . S
C1834 C1835 1.391 . S
C1835 H1823 0.950 . S
C1835 C1831 1.393 . S
C1835 C1834 1.391 . S
H1836 C1844 0.950 . S
H1837 C1849 0.950 . S
H1838 C1846 0.950 . S
H1839 C1848 0.950 . S
H1840 C1850 0.950 . S
H1841 C1852 0.950 . S
H1842 C1854 0.950 . S
H1843 C1855 0.950 . S
C1844 H1836 0.950 . S
C1844 C1845 1.386 . S
C1844 C1846 1.391 . S
C1845 C1844 1.386 . S
C1845 C1849 1.393 . S
C1846 H1838 0.950 . S
C1846 C1844 1.391 . S
C1846 C1847 1.400 . S
C1847 C1846 1.400 . S
C1847 C1848 1.398 . S
C1847 C1853 1.491 . S
C1848 H1839 0.950 . S
C1848 C1847 1.398 . S
C1848 C1849 1.391 . S
C1849 H1837 0.950 . S
C1849 C1845 1.393 . S
C1849 C1848 1.391 . S
C1850 H1840 0.950 . S
C1850 C1851 1.386 . S
C1850 C1852 1.391 . S
C1851 C1850 1.386 . S
C1851 C1855 1.393 . S
C1852 H1841 0.950 . S
C1852 C1850 1.391 . S
C1852 C1853 1.400 . S
C1853 C1847 1.491 . S
C1853 C1852 1.400 . S
C1853 C1854 1.398 . S
C1854 H1842 0.950 . S
C1854 C1853 1.398 . S
C1854 C1855 1.391 . S
C1855 H1843 0.950 . S
C1855 C1851 1.393 . S
C1855 C1854 1.391 . S
H1856 C1864 0.950 . S
H1857 C1869 0.950 . S
H1858 C1866 0.950 . S
H1859 C1868 0.950 . S
H1860 C1870 0.950 . S
H1861 C1872 0.950 . S
H1862 C1874 0.950 . S
H1863 C1875 0.950 . S
C1864 H1856 0.950 . S
C1864 C1865 1.386 . S
C1864 C1866 1.391 . S
C1865 C1864 1.386 . S
C1865 C1869 1.393 . S
C1866 H1858 0.950 . S
C1866 C1864 1.391 . S
C1866 C1867 1.400 . S
C1867 C1866 1.400 . S
C1867 C1868 1.398 . S
C1867 C1873 1.491 . S
C1868 H1859 0.950 . S
C1868 C1867 1.398 . S
C1868 C1869 1.391 . S
C1869 H1857 0.950 . S
C1869 C1865 1.393 . S
C1869 C1868 1.391 . S
C1870 H1860 0.950 . S
C1870 C1871 1.386 . S
C1870 C1872 1.391 . S
C1871 C1870 1.386 . S
C1871 C1875 1.393 . S
C1872 H1861 0.950 . S
C1872 C1870 1.391 . S
C1872 C1873 1.400 . S
C1873 C1867 1.491 . S
C1873 C1872 1.400 . S
C1873 C1874 1.398 . S
C1874 H1862 0.950 . S
C1874 C1873 1.398 . S
C1874 C1875 1.391 . S
C1875 H1863 0.950 . S
C1875 C1871 1.393 . S
C1875 C1874 1.391 . S
H1876 C1884 0.950 . S
H1877 C1889 0.950 . S
H1878 C1886 0.950 . S
H1879 C1888 0.950 . S
H1880 C1890 0.950 . S
H1881 C1892 0.950 1_556 S
H1882 C1894 0.950 . S
H1883 C1895 0.950 . S
C1884 H1876 0.950 . S
C1884 C1885 1.386 . S
C1884 C1886 1.391 . S
C1885 C1884 1.386 . S
C1885 C1889 1.393 1_554 S
C1886 H1878 0.950 . S
C1886 C1884 1.391 . S
C1886 C1887 1.400 . S
C1887 C1886 1.400 . S
C1887 C1888 1.398 1_554 S
C1887 C1893 1.491 . S
C1888 H1879 0.950 . S
C1888 C1887 1.398 1_556 S
C1888 C1889 1.391 . S
C1889 H1877 0.950 . S
C1889 C1885 1.393 1_556 S
C1889 C1888 1.391 . S
C1890 H1880 0.950 . S
C1890 C1891 1.386 . S
C1890 C1892 1.391 . S
C1891 C1890 1.386 . S
C1891 C1895 1.393 . S
C1892 H1881 0.950 1_554 S
C1892 C1890 1.391 . S
C1892 C1893 1.400 . S
C1893 C1887 1.491 . S
C1893 C1892 1.400 . S
C1893 C1894 1.398 . S
C1894 H1882 0.950 . S
C1894 C1893 1.398 . S
C1894 C1895 1.391 . S
C1895 H1883 0.950 . S
C1895 C1891 1.393 . S
C1895 C1894 1.391 . S
H1896 C1904 0.950 . S
H1897 C1909 0.950 . S
H1898 C1906 0.950 . S
H1899 C1908 0.950 . S
H1900 C1910 0.950 . S
H1901 C1912 0.950 . S
H1902 C1914 0.950 . S
H1903 C1915 0.950 . S
C1904 H1896 0.950 . S
C1904 C1905 1.386 . S
C1904 C1906 1.391 . S
C1905 C1904 1.386 . S
C1905 C1909 1.393 . S
C1906 H1898 0.950 . S
C1906 C1904 1.391 . S
C1906 C1907 1.400 . S
C1907 C1906 1.400 . S
C1907 C1908 1.398 . S
C1907 C1913 1.491 . S
C1908 H1899 0.950 . S
C1908 C1907 1.398 . S
C1908 C1909 1.391 . S
C1909 H1897 0.950 . S
C1909 C1905 1.393 . S
C1909 C1908 1.391 . S
C1910 H1900 0.950 . S
C1910 C1911 1.386 . S
C1910 C1912 1.391 . S
C1911 C1910 1.386 . S
C1911 C1915 1.393 . S
C1912 H1901 0.950 . S
C1912 C1910 1.391 . S
C1912 C1913 1.400 . S
C1913 C1907 1.491 . S
C1913 C1912 1.400 . S
C1913 C1914 1.398 . S
C1914 H1902 0.950 . S
C1914 C1913 1.398 . S
C1914 C1915 1.391 . S
C1915 H1903 0.950 . S
C1915 C1911 1.393 . S
C1915 C1914 1.391 . S
H1916 C1924 0.950 . S
H1917 C1929 0.950 . S
H1918 C1926 0.950 . S
H1919 C1928 0.950 . S
H1920 C1930 0.950 . S
H1921 C1932 0.950 . S
H1922 C1934 0.950 . S
H1923 C1935 0.950 . S
C1924 H1916 0.950 . S
C1924 C1925 1.386 . S
C1924 C1926 1.391 . S
C1925 C1924 1.386 . S
C1925 C1929 1.393 1_556 S
C1926 H1918 0.950 . S
C1926 C1924 1.391 . S
C1926 C1927 1.400 . S
C1927 C1926 1.400 . S
C1927 C1928 1.398 1_556 S
C1927 C1933 1.491 . S
C1928 H1919 0.950 . S
C1928 C1927 1.398 1_554 S
C1928 C1929 1.391 . S
C1929 H1917 0.950 . S
C1929 C1925 1.393 1_554 S
C1929 C1928 1.391 . S
C1930 H1920 0.950 . S
C1930 C1931 1.386 1_554 S
C1930 C1932 1.391 . S
C1931 C1930 1.386 1_556 S
C1931 C1935 1.393 . S
C1932 H1921 0.950 . S
C1932 C1930 1.391 . S
C1932 C1933 1.400 1_554 S
C1933 C1927 1.491 . S
C1933 C1932 1.400 1_556 S
C1933 C1934 1.398 . S
C1934 H1922 0.950 . S
C1934 C1933 1.398 . S
C1934 C1935 1.391 . S
C1935 H1923 0.950 . S
C1935 C1931 1.393 . S
C1935 C1934 1.391 . S
H1936 C1944 0.950 . S
H1937 C1949 0.950 . S
H1938 C1946 0.950 . S
H1939 C1948 0.950 . S
H1940 C1950 0.950 . S
H1941 C1952 0.950 . S
H1942 C1954 0.950 . S
H1943 C1955 0.950 . S
C1944 H1936 0.950 . S
C1944 C1945 1.386 . S
C1944 C1946 1.391 . S
C1945 C1944 1.386 . S
C1945 C1949 1.393 . S
C1946 H1938 0.950 . S
C1946 C1944 1.391 . S
C1946 C1947 1.400 . S
C1947 C1946 1.400 . S
C1947 C1948 1.398 . S
C1947 C1953 1.491 . S
C1948 H1939 0.950 . S
C1948 C1947 1.398 . S
C1948 C1949 1.391 . S
C1949 H1937 0.950 . S
C1949 C1945 1.393 . S
C1949 C1948 1.391 . S
C1950 H1940 0.950 . S
C1950 C1951 1.386 . S
C1950 C1952 1.391 . S
C1951 C1950 1.386 . S
C1951 C1955 1.393 . S
C1952 H1941 0.950 . S
C1952 C1950 1.391 . S
C1952 C1953 1.400 . S
C1953 C1947 1.491 . S
C1953 C1952 1.400 . S
C1953 C1954 1.398 . S
C1954 H1942 0.950 . S
C1954 C1953 1.398 . S
C1954 C1955 1.391 . S
C1955 H1943 0.950 . S
C1955 C1951 1.393 . S
C1955 C1954 1.391 . S
H1956 C1964 0.950 . S
H1957 C1969 0.950 . S
H1958 C1966 0.950 . S
H1959 C1968 0.950 . S
H1960 C1970 0.950 . S
H1961 C1972 0.950 1_655 S
H1962 C1974 0.950 . S
H1963 C1975 0.950 . S
C1964 H1956 0.950 . S
C1964 C1965 1.386 . S
C1964 C1966 1.391 . S
C1965 C1964 1.386 . S
C1965 C1969 1.393 1_455 S
C1966 H1958 0.950 . S
C1966 C1964 1.391 . S
C1966 C1967 1.400 . S
C1967 C1966 1.400 . S
C1967 C1968 1.398 1_455 S
C1967 C1973 1.491 . S
C1968 H1959 0.950 . S
C1968 C1967 1.398 1_655 S
C1968 C1969 1.391 . S
C1969 H1957 0.950 . S
C1969 C1965 1.393 1_655 S
C1969 C1968 1.391 . S
C1970 H1960 0.950 . S
C1970 C1971 1.386 . S
C1970 C1972 1.391 . S
C1971 C1970 1.386 . S
C1971 C1975 1.393 . S
C1972 H1961 0.950 1_455 S
C1972 C1970 1.391 . S
C1972 C1973 1.400 . S
C1973 C1967 1.491 . S
C1973 C1972 1.400 . S
C1973 C1974 1.398 . S
C1974 H1962 0.950 . S
C1974 C1973 1.398 . S
C1974 C1975 1.391 . S
C1975 H1963 0.950 . S
C1975 C1971 1.393 . S
C1975 C1974 1.391 . S
H1976 C1984 0.950 . S
H1977 C1989 0.950 . S
H1978 C1986 0.950 . S
H1979 C1988 0.950 . S
H1980 C1990 0.950 . S
H1981 C1992 0.950 . S
H1982 C1994 0.950 . S
H1983 C1995 0.950 . S
C1984 H1976 0.950 . S
C1984 C1985 1.386 . S
C1984 C1986 1.391 . S
C1985 C1984 1.386 . S
C1985 C1989 1.393 . S
C1986 H1978 0.950 . S
C1986 C1984 1.391 . S
C1986 C1987 1.400 . S
C1987 C1986 1.400 . S
C1987 C1988 1.398 . S
C1987 C1993 1.491 . S
C1988 H1979 0.950 . S
C1988 C1987 1.398 . S
C1988 C1989 1.391 . S
C1989 H1977 0.950 . S
C1989 C1985 1.393 . S
C1989 C1988 1.391 . S
C1990 H1980 0.950 . S
C1990 C1991 1.386 . S
C1990 C1992 1.391 . S
C1991 C1990 1.386 . S
C1991 C1995 1.393 . S
C1992 H1981 0.950 . S
C1992 C1990 1.391 . S
C1992 C1993 1.400 . S
C1993 C1987 1.491 . S
C1993 C1992 1.400 . S
C1993 C1994 1.398 . S
C1994 H1982 0.950 . S
C1994 C1993 1.398 . S
C1994 C1995 1.391 . S
C1995 H1983 0.950 . S
C1995 C1991 1.393 . S
C1995 C1994 1.391 . S
H1996 C2004 0.950 . S
H1997 C2009 0.950 . S
H1998 C2006 0.950 . S
H1999 C2008 0.950 . S
H2000 C2010 0.950 . S
H2001 C2012 0.950 . S
H2002 C2014 0.950 . S
H2003 C2015 0.950 . S
C2004 H1996 0.950 . S
C2004 C2005 1.386 . S
C2004 C2006 1.391 . S
C2005 C2004 1.386 . S
C2005 C2009 1.393 1_655 S
C2006 H1998 0.950 . S
C2006 C2004 1.391 . S
C2006 C2007 1.400 . S
C2007 C2006 1.400 . S
C2007 C2008 1.398 1_655 S
C2007 C2013 1.491 . S
C2008 H1999 0.950 . S
C2008 C2007 1.398 1_455 S
C2008 C2009 1.391 . S
C2009 H1997 0.950 . S
C2009 C2005 1.393 1_455 S
C2009 C2008 1.391 . S
C2010 H2000 0.950 . S
C2010 C2011 1.386 1_455 S
C2010 C2012 1.391 . S
C2011 C2010 1.386 1_655 S
C2011 C2015 1.393 . S
C2012 H2001 0.950 . S
C2012 C2010 1.391 . S
C2012 C2013 1.400 1_455 S
C2013 C2007 1.491 . S
C2013 C2012 1.400 1_655 S
C2013 C2014 1.398 . S
C2014 H2002 0.950 . S
C2014 C2013 1.398 . S
C2014 C2015 1.391 . S
C2015 H2003 0.950 . S
C2015 C2011 1.393 . S
C2015 C2014 1.391 . S
C591 N564 1.550 1_455 S
C585 C8 1.543 . S
C611 N525 1.455 . S
C605 C19 1.426 . S
C631 N551 1.222 . S
C625 C30 1.220 . S
C651 N538 1.577 . S
C645 C41 1.562 . S
C671 N447 1.551 1_545 S
C665 C52 1.544 . S
C685 C63 1.548 . S
C691 N460 1.567 . S
C711 N421 1.449 . S
C705 C74 1.416 . S
C725 C85 1.230 . S
C731 N434 1.224 . S
C751 N512 1.549 1_554 S
C745 C96 1.538 . S
C765 C107 1.546 . S
C771 N486 1.567 . S
C785 C118 1.433 . S
C791 N473 1.454 . S
C811 N499 1.230 . S
C805 C129 1.231 . S
C831 N408 1.551 1_655 S
C825 C140 1.498 . S
C845 C151 1.379 . S
C851 N369 1.455 . S
C871 N395 1.223 . S
C865 C162 1.209 . S
C885 C173 1.502 . S
C891 N382 1.579 . S
C911 N291 1.550 1_565 S
C905 C184 1.496 . S
C931 N304 1.582 . S
C925 C195 1.515 . S
C945 C206 1.350 . S
C951 N265 1.454 . S
C965 C217 1.186 . S
C971 N278 1.226 . S
C985 C228 1.503 . S
C991 N356 1.552 1_556 S
C1005 C239 1.518 . S
C1011 N330 1.581 . S
C1031 N317 1.455 . S
C1025 C250 1.350 . S
C1045 C261 1.202 . S
C1051 N343 1.222 . S
C1071 N269 1.473 . S
C1065 C7 1.460 . S
C1091 N282 1.409 . S
C1085 C18 1.399 . S
C1105 C29 1.285 . S
C1111 N295 1.295 . S
C1125 C40 1.200 1_565 S
C1131 N308 1.212 . S
C1151 N321 1.474 . S
C1145 C51 1.449 . S
C1165 C62 1.212 1_556 S
C1171 N334 1.218 . S
C1191 N347 1.411 . S
C1185 C73 1.397 . S
C1211 N360 1.305 . S
C1205 C84 1.309 . S
C1231 N373 1.474 . S
C1225 C95 1.453 . S
C1245 C106 1.200 1_655 S
C1251 N386 1.212 . S
C1265 C117 1.380 . S
C1271 N399 1.410 . S
C1285 C128 1.284 . S
C1291 N412 1.302 . S
C1305 C139 1.387 . S
C1311 N425 1.473 . S
C1325 C150 1.269 . S
C1331 N438 1.408 . S
C1345 C161 1.257 1_545 S
C1351 N451 1.298 . S
C1365 C172 1.141 . S
C1371 N464 1.217 . S
C1385 C183 1.392 . S
C1391 N477 1.474 . S
C1411 N490 1.218 . S
C1405 C194 1.159 . S
C1431 N503 1.413 . S
C1425 C205 1.296 . S
C1451 N516 1.297 . S
C1445 C216 1.260 1_554 S
C1471 N529 1.474 . S
C1465 C227 1.381 . S
C1485 C238 1.149 . S
C1491 N542 1.209 . S
C1505 C249 1.306 . S
C1511 N555 1.414 . S
C1525 C260 1.229 1_455 S
C1531 N568 1.302 . S
C1545 C5 1.333 . S
C1551 N370 1.517 . S
C1571 N409 1.538 . S
C1565 C16 1.415 . S
C1585 C27 1.272 1_545 S
C1591 N383 1.440 . S
C1611 N396 1.587 . S
C1605 C38 1.381 1_565 S
C1625 C49 1.358 . S
C1631 N266 1.522 . S
C1645 C60 1.405 1_556 S
C1651 N279 1.583 . S
C1665 C71 1.398 . S
C1671 N292 1.536 . S
C1685 C82 1.265 1_554 S
C1691 N305 1.439 . S
C1711 N318 1.523 . S
C1705 C93 1.362 . S
C1731 N344 1.588 . S
C1725 C104 1.402 1_655 S
C1745 C115 1.409 . S
C1751 N357 1.536 . S
C1765 C126 1.301 1_455 S
C1771 N331 1.445 . S
C1791 N526 1.526 . S
C1785 C137 1.201 . S
C1811 N565 1.539 . S
C1805 C148 1.169 . S
C1825 C159 1.174 . S
C1831 N539 1.445 . S
C1851 N552 1.590 . S
C1845 C170 1.180 . S
C1865 C181 1.199 . S
C1871 N422 1.526 . S
C1885 C192 1.215 . S
C1891 N435 1.587 . S
C1905 C203 1.201 . S
C1911 N448 1.532 . S
C1931 N461 1.448 . S
C1925 C214 1.169 . S
C1951 N474 1.522 . S
C1945 C225 1.239 . S
C1971 N500 1.587 . S
C1965 C236 1.189 . S
C1985 C247 1.148 . S
C1991 N513 1.542 . S
C2011 N487 1.448 . S
C2005 C258 1.167 . S
