# Generated by pormake.
# Topology pto, (3,4)-cn, num edge types: 1
# Building blocks:
#     Node 0, Type 0, BuildingBlock: KAKCAD_clean_linker_0, # of connection points: 3
#     Node 1, Type 0, BuildingBlock: KAKCAD_clean_linker_0, # of connection points: 3
#     Node 2, Type 0, BuildingBlock: KAKCAD_clean_linker_0, # of connection points: 3
#     Node 3, Type 0, BuildingBlock: KAKCAD_clean_linker_0, # of connection points: 3
#     Node 4, Type 0, BuildingBlock: KAKCAD_clean_linker_0, # of connection points: 3
#     Node 5, Type 0, BuildingBlock: KAKCAD_clean_linker_0, # of connection points: 3
#     Node 6, Type 0, BuildingBlock: KAKCAD_clean_linker_0, # of connection points: 3
#     Node 7, Type 0, BuildingBlock: KAKCAD_clean_linker_0, # of connection points: 3
#     Node 8, Type 1, BuildingBlock: NAWXER_clean_sbu_0, # of connection points: 4
#     Node 9, Type 1, BuildingBlock: NAWXER_clean_sbu_0, # of connection points: 4
#     Node 10, Type 1, BuildingBlock: NAWXER_clean_sbu_0, # of connection points: 4
#     Node 11, Type 1, BuildingBlock: NAWXER_clean_sbu_0, # of connection points: 4
#     Node 12, Type 1, BuildingBlock: NAWXER_clean_sbu_0, # of connection points: 4
#     Node 13, Type 1, BuildingBlock: NAWXER_clean_sbu_0, # of connection points: 4
#     Edge 14, Type (0, 1), BuildingBlock: KIFKEQ_clean_linker_1, # of connection points: 2
#     Edge 15, Type (0, 1), BuildingBlock: KIFKEQ_clean_linker_1, # of connection points: 2
#     Edge 16, Type (0, 1), BuildingBlock: KIFKEQ_clean_linker_1, # of connection points: 2
#     Edge 17, Type (0, 1), BuildingBlock: KIFKEQ_clean_linker_1, # of connection points: 2
#     Edge 18, Type (0, 1), BuildingBlock: KIFKEQ_clean_linker_1, # of connection points: 2
#     Edge 19, Type (0, 1), BuildingBlock: KIFKEQ_clean_linker_1, # of connection points: 2
#     Edge 20, Type (0, 1), BuildingBlock: KIFKEQ_clean_linker_1, # of connection points: 2
#     Edge 21, Type (0, 1), BuildingBlock: KIFKEQ_clean_linker_1, # of connection points: 2
#     Edge 22, Type (0, 1), BuildingBlock: KIFKEQ_clean_linker_1, # of connection points: 2
#     Edge 23, Type (0, 1), BuildingBlock: KIFKEQ_clean_linker_1, # of connection points: 2
#     Edge 24, Type (0, 1), BuildingBlock: KIFKEQ_clean_linker_1, # of connection points: 2
#     Edge 25, Type (0, 1), BuildingBlock: KIFKEQ_clean_linker_1, # of connection points: 2
#     Edge 26, Type (0, 1), BuildingBlock: KIFKEQ_clean_linker_1, # of connection points: 2
#     Edge 27, Type (0, 1), BuildingBlock: KIFKEQ_clean_linker_1, # of connection points: 2
#     Edge 28, Type (0, 1), BuildingBlock: KIFKEQ_clean_linker_1, # of connection points: 2
#     Edge 29, Type (0, 1), BuildingBlock: KIFKEQ_clean_linker_1, # of connection points: 2
#     Edge 30, Type (0, 1), BuildingBlock: KIFKEQ_clean_linker_1, # of connection points: 2
#     Edge 31, Type (0, 1), BuildingBlock: KIFKEQ_clean_linker_1, # of connection points: 2
#     Edge 32, Type (0, 1), BuildingBlock: KIFKEQ_clean_linker_1, # of connection points: 2
#     Edge 33, Type (0, 1), BuildingBlock: KIFKEQ_clean_linker_1, # of connection points: 2
#     Edge 34, Type (0, 1), BuildingBlock: KIFKEQ_clean_linker_1, # of connection points: 2
#     Edge 35, Type (0, 1), BuildingBlock: KIFKEQ_clean_linker_1, # of connection points: 2
#     Edge 36, Type (0, 1), BuildingBlock: KIFKEQ_clean_linker_1, # of connection points: 2
#     Edge 37, Type (0, 1), BuildingBlock: KIFKEQ_clean_linker_1, # of connection points: 2
# Relax obj value: 0.000
# Max RMSD: 0.003
# Mean RMSD: 0.002
data_MOF--net-pto--node1-NAWXER_clean_sbu_0--node2-KAKCAD_clean_linker_0--edge1-KIFKEQ_clean_linker_1
_symmetry_space_group_name_H-M    P1
_symmetry_Int_Tables_number       1
_symmetry_cell_setting            triclinic
loop_
_symmetry_equiv_pos_as_xyz
'x, y, z'
_cell_length_a     54.59556
_cell_length_b     51.305172
_cell_length_c     47.954765
_cell_angle_alpha  90.440724
_cell_angle_beta   90.64077
_cell_angle_gamma 90.295568
loop_
_atom_site_label
_atom_site_type_symbol
_atom_site_fract_x
_atom_site_fract_y
_atom_site_fract_z
_atom_type_partial_charge
C0 C 0.26529 0.19718 0.31807 0.0
C1 C 0.24322 0.18329 0.32119 0.0
C2 C 0.26716 0.21724 0.29856 0.0
C3 C 0.24703 0.22385 0.2815 0.0
C4 C 0.22499 0.2098 0.28454 0.0
C5 C 0.22308 0.18988 0.30421 0.0
C6 C 0.24888 0.24551 0.26092 0.0
C7 C 0.27058 0.2497 0.24583 0.0
C8 C 0.27224 0.27006 0.22641 0.0
C9 C 0.25199 0.2864 0.22228 0.0
C10 C 0.23028 0.28274 0.23717 0.0
C11 C 0.22888 0.26227 0.2564 0.0
C12 C 0.20921 0.30057 0.23274 0.0
C13 C 0.21305 0.32759 0.2305 0.0
C14 C 0.18518 0.29075 0.2305 0.0
C15 C 0.16544 0.30759 0.22614 0.0
C16 C 0.16928 0.33464 0.22398 0.0
C17 C 0.29499 0.27455 0.21026 0.0
C18 C 0.31811 0.27456 0.22346 0.0
C19 C 0.29359 0.27992 0.18159 0.0
C20 C 0.31472 0.28549 0.16652 0.0
C21 C 0.33786 0.28596 0.17973 0.0
C22 C 0.33929 0.28027 0.20839 0.0
C23 C 0.19334 0.34441 0.22619 0.0
H24 H 0.28107 0.19285 0.3311 0.0
H25 H 0.28429 0.22786 0.29724 0.0
H26 H 0.20921 0.21396 0.27147 0.0
H27 H 0.20592 0.17933 0.30582 0.0
H28 H 0.28599 0.23673 0.24861 0.0
H29 H 0.21237 0.25988 0.26847 0.0
H30 H 0.25317 0.30213 0.20739 0.0
H31 H 0.23129 0.33583 0.23257 0.0
H32 H 0.18165 0.27 0.23175 0.0
H33 H 0.14718 0.29937 0.22422 0.0
H34 H 0.31975 0.27078 0.24559 0.0
H35 H 0.2761 0.27967 0.1707 0.0
H36 H 0.19693 0.36516 0.22521 0.0
H37 H 0.35674 0.28068 0.21935 0.0
H38 H 0.31291 0.28911 0.14438 0.0
C39 C 0.33118 0.76051 0.82238 0.0
C40 C 0.33913 0.73515 0.82881 0.0
C41 C 0.31022 0.76442 0.80588 0.0
C42 C 0.29668 0.74308 0.79536 0.0
C43 C 0.30514 0.71775 0.80095 0.0
C44 C 0.32603 0.71383 0.81749 0.0
C45 C 0.2732 0.74703 0.77979 0.0
C46 C 0.27061 0.76708 0.76005 0.0
C47 C 0.24836 0.77045 0.74537 0.0
C48 C 0.22855 0.7537 0.75088 0.0
C49 C 0.23072 0.73378 0.77068 0.0
C50 C 0.25306 0.73066 0.785 0.0
C51 C 0.20977 0.71602 0.77634 0.0
C52 C 0.18591 0.72582 0.77903 0.0
C53 C 0.21353 0.68907 0.77908 0.0
C54 C 0.19386 0.67226 0.78408 0.0
C55 C 0.16994 0.68199 0.78654 0.0
C56 C 0.24576 0.79113 0.72392 0.0
C57 C 0.25388 0.81674 0.72935 0.0
C58 C 0.23476 0.78542 0.69792 0.0
C59 C 0.232 0.8048 0.67778 0.0
C60 C 0.23997 0.83045 0.68323 0.0
C61 C 0.25087 0.83623 0.7093 0.0
C62 C 0.16623 0.709 0.78412 0.0
H63 H 0.34105 0.77741 0.83031 0.0
H64 H 0.30422 0.78418 0.8021 0.0
H65 H 0.29541 0.70084 0.79279 0.0
H66 H 0.33148 0.69404 0.82208 0.0
H67 H 0.28609 0.77959 0.75552 0.0
H68 H 0.25456 0.71577 0.80082 0.0
H69 H 0.21139 0.75614 0.73965 0.0
H70 H 0.18247 0.74653 0.77746 0.0
H71 H 0.23164 0.68087 0.77675 0.0
H72 H 0.19736 0.65154 0.78528 0.0
H73 H 0.26228 0.82178 0.74926 0.0
H74 H 0.22848 0.76583 0.69301 0.0
H75 H 0.14811 0.71721 0.78627 0.0
H76 H 0.25742 0.85575 0.71402 0.0
H77 H 0.22343 0.79974 0.65798 0.0
C78 C 0.68562 0.70363 0.20003 0.0
C79 C 0.67664 0.72197 0.18094 0.0
C80 C 0.70597 0.70958 0.21695 0.0
C81 C 0.71733 0.73418 0.21555 0.0
C82 C 0.70779 0.75286 0.19723 0.0
C83 C 0.68777 0.74671 0.17985 0.0
C84 C 0.74032 0.73948 0.23136 0.0
C85 C 0.76053 0.72323 0.22727 0.0
C86 C 0.7829 0.72816 0.24105 0.0
C87 C 0.78478 0.74959 0.25943 0.0
C88 C 0.76455 0.7659 0.26441 0.0
C89 C 0.74238 0.76078 0.24988 0.0
C90 C 0.7666 0.78792 0.28503 0.0
C91 C 0.78114 0.78552 0.30935 0.0
C92 C 0.75403 0.81148 0.28073 0.0
C93 C 0.7558 0.83188 0.30025 0.0
C94 C 0.77045 0.82942 0.32436 0.0
C95 C 0.80421 0.71083 0.23613 0.0
C96 C 0.80102 0.68364 0.23476 0.0
C97 C 0.82782 0.72127 0.23253 0.0
C98 C 0.84776 0.70488 0.22775 0.0
C99 C 0.84457 0.67766 0.22648 0.0
C100 C 0.82094 0.66727 0.23 0.0
C101 C 0.7832 0.80607 0.32861 0.0
H102 H 0.6774 0.68442 0.20121 0.0
H103 H 0.71308 0.69485 0.2309 0.0
H104 H 0.71638 0.77186 0.19563 0.0
H105 H 0.68106 0.76123 0.16541 0.0
H106 H 0.75899 0.7071 0.21261 0.0
H107 H 0.72647 0.77285 0.25341 0.0
H108 H 0.80208 0.75344 0.26997 0.0
H109 H 0.79067 0.76757 0.31387 0.0
H110 H 0.743 0.81436 0.26212 0.0
H111 H 0.74592 0.84976 0.2963 0.0
H112 H 0.78314 0.67494 0.23785 0.0
H113 H 0.83083 0.74215 0.23305 0.0
H114 H 0.79435 0.80347 0.3472 0.0
H115 H 0.81788 0.64639 0.22971 0.0
H116 H 0.86567 0.71355 0.2248 0.0
C117 C 0.79201 0.18419 0.71466 0.0
C118 C 0.77149 0.1765 0.69853 0.0
C119 C 0.79026 0.20441 0.73435 0.0
C120 C 0.76797 0.21751 0.73846 0.0
C121 C 0.74736 0.20946 0.72271 0.0
C122 C 0.74908 0.18923 0.70309 0.0
C123 C 0.7664 0.2401 0.75824 0.0
C124 C 0.78568 0.2584 0.76011 0.0
C125 C 0.78403 0.2804 0.7776 0.0
C126 C 0.76285 0.284 0.79344 0.0
C127 C 0.74342 0.26592 0.79235 0.0
C128 C 0.74539 0.24399 0.77463 0.0
C129 C 0.7211 0.27053 0.80947 0.0
C130 C 0.72317 0.28199 0.83621 0.0
C131 C 0.69753 0.26461 0.79893 0.0
C132 C 0.67666 0.27041 0.81451 0.0
C133 C 0.67885 0.28255 0.84081 0.0
C134 C 0.80416 0.30002 0.77911 0.0
C135 C 0.82875 0.29224 0.7814 0.0
C136 C 0.7988 0.32679 0.77892 0.0
C137 C 0.81753 0.34535 0.78109 0.0
C138 C 0.84212 0.33763 0.78351 0.0
C139 C 0.84753 0.31086 0.78368 0.0
C140 C 0.70233 0.28814 0.85153 0.0
H141 H 0.8096 0.17499 0.71167 0.0
H142 H 0.80646 0.20981 0.74633 0.0
H143 H 0.72994 0.2192 0.72504 0.0
H144 H 0.73277 0.1836 0.69145 0.0
H145 H 0.80167 0.25609 0.74716 0.0
H146 H 0.73073 0.22968 0.77394 0.0
H147 H 0.76149 0.30116 0.80661 0.0
H148 H 0.74095 0.28624 0.84543 0.0
H149 H 0.69513 0.2561 0.77834 0.0
H150 H 0.65875 0.26594 0.80571 0.0
H151 H 0.83344 0.27176 0.78182 0.0
H152 H 0.78007 0.33344 0.7769 0.0
H153 H 0.70458 0.29702 0.87197 0.0
H154 H 0.86632 0.30428 0.7852 0.0
H155 H 0.81271 0.3658 0.78112 0.0
C156 C 0.75112 0.8017 0.67019 0.0
C157 C 0.74269 0.82645 0.67847 0.0
C158 C 0.75649 0.78266 0.69001 0.0
C159 C 0.75392 0.78802 0.71862 0.0
C160 C 0.74635 0.81305 0.72688 0.0
C161 C 0.74051 0.83186 0.70711 0.0
C162 C 0.75778 0.76733 0.73979 0.0
C163 C 0.77618 0.74846 0.73678 0.0
C164 C 0.77909 0.72849 0.75653 0.0
C165 C 0.76351 0.72788 0.77977 0.0
C166 C 0.74541 0.74692 0.78328 0.0
C167 C 0.74248 0.76619 0.76303 0.0
C168 C 0.72868 0.74667 0.80738 0.0
C169 C 0.71588 0.72391 0.8144 0.0
C170 C 0.72359 0.77 0.82172 0.0
C171 C 0.70516 0.7709 0.84164 0.0
C172 C 0.69136 0.74849 0.84754 0.0
C173 C 0.79843 0.70841 0.75291 0.0
C174 C 0.80359 0.69807 0.72634 0.0
C175 C 0.81195 0.69946 0.77601 0.0
C176 C 0.83002 0.68055 0.77268 0.0
C177 C 0.83513 0.67017 0.74616 0.0
C178 C 0.82179 0.67923 0.723 0.0
C179 C 0.69732 0.72483 0.83425 0.0
H180 H 0.75359 0.79694 0.64838 0.0
H181 H 0.76209 0.76356 0.68283 0.0
H182 H 0.74465 0.81814 0.74873 0.0
H183 H 0.73384 0.85051 0.71442 0.0
H184 H 0.78854 0.7496 0.71932 0.0
H185 H 0.7276 0.77995 0.76509 0.0
H186 H 0.76535 0.71259 0.7951 0.0
H187 H 0.71938 0.70571 0.8036 0.0
H188 H 0.73337 0.78779 0.81685 0.0
H189 H 0.70097 0.78941 0.85143 0.0
H190 H 0.7933 0.70423 0.70814 0.0
H191 H 0.80883 0.70733 0.79668 0.0
H192 H 0.68722 0.70715 0.83871 0.0
H193 H 0.82514 0.67142 0.70235 0.0
H194 H 0.84028 0.6743 0.79089 0.0
C195 C 0.67421 0.2675 0.20966 0.0
C196 C 0.67966 0.26863 0.18114 0.0
C197 C 0.69271 0.27006 0.22973 0.0
C198 C 0.7172 0.27368 0.22186 0.0
C199 C 0.72273 0.27525 0.19338 0.0
C200 C 0.70412 0.27264 0.17316 0.0
C201 C 0.73677 0.27402 0.24356 0.0
C202 C 0.73614 0.25535 0.26471 0.0
C203 C 0.75363 0.25542 0.28625 0.0
C204 C 0.77228 0.27431 0.28639 0.0
C205 C 0.7734 0.29322 0.26533 0.0
C206 C 0.75563 0.29281 0.24375 0.0
C207 C 0.79317 0.31327 0.26618 0.0
C208 C 0.80022 0.32508 0.29163 0.0
C209 C 0.80573 0.32007 0.24187 0.0
C210 C 0.82531 0.33776 0.24311 0.0
C211 C 0.83273 0.3491 0.26868 0.0
C212 C 0.75234 0.23539 0.30827 0.0
C213 C 0.72966 0.22867 0.31987 0.0
C214 C 0.77343 0.22193 0.31676 0.0
C215 C 0.77172 0.20154 0.33578 0.0
C216 C 0.74889 0.19425 0.34668 0.0
C217 C 0.72794 0.20831 0.33886 0.0
C218 C 0.81976 0.34276 0.29287 0.0
H219 H 0.65562 0.26422 0.21653 0.0
H220 H 0.68785 0.26899 0.25154 0.0
H221 H 0.74148 0.27786 0.18675 0.0
H222 H 0.70882 0.27391 0.15134 0.0
H223 H 0.72211 0.24031 0.26412 0.0
H224 H 0.756 0.30753 0.22767 0.0
H225 H 0.78594 0.27426 0.30296 0.0
H226 H 0.79069 0.32056 0.31069 0.0
H227 H 0.80084 0.31124 0.22198 0.0
H228 H 0.83467 0.34252 0.224 0.0
H229 H 0.71314 0.23895 0.31396 0.0
H230 H 0.79113 0.2266 0.30806 0.0
H231 H 0.82506 0.35099 0.31292 0.0
H232 H 0.71008 0.20308 0.34674 0.0
H233 H 0.78824 0.1913 0.34174 0.0
C234 C 0.31338 0.28358 0.8354 0.0
C235 C 0.33819 0.28199 0.82797 0.0
C236 C 0.29511 0.28573 0.81481 0.0
C237 C 0.30138 0.28602 0.78649 0.0
C238 C 0.3262 0.28509 0.77917 0.0
C239 C 0.34438 0.28311 0.79965 0.0
C240 C 0.2823 0.28466 0.76434 0.0
C241 C 0.26236 0.30188 0.76376 0.0
C242 C 0.24466 0.3002 0.74216 0.0
C243 C 0.24689 0.28063 0.7216 0.0
C244 C 0.26665 0.26329 0.72219 0.0
C245 C 0.28422 0.26551 0.74353 0.0
C246 C 0.26875 0.24199 0.70138 0.0
C247 C 0.24861 0.22575 0.69529 0.0
C248 C 0.29148 0.23648 0.68925 0.0
C249 C 0.29426 0.21458 0.67217 0.0
C250 C 0.27437 0.1977 0.66702 0.0
C251 C 0.22382 0.31872 0.74086 0.0
C252 C 0.211 0.32556 0.76507 0.0
C253 C 0.21624 0.32927 0.7152 0.0
C254 C 0.19611 0.34595 0.71371 0.0
C255 C 0.18304 0.35246 0.73783 0.0
C256 C 0.19083 0.3422 0.76356 0.0
C257 C 0.25141 0.20375 0.67832 0.0
H258 H 0.30811 0.28307 0.8571 0.0
H259 H 0.27608 0.28621 0.82094 0.0
H260 H 0.33152 0.28535 0.75748 0.0
H261 H 0.36329 0.28173 0.79322 0.0
H262 H 0.26103 0.31694 0.77963 0.0
H263 H 0.29917 0.25168 0.74447 0.0
H264 H 0.23317 0.27877 0.70518 0.0
H265 H 0.23093 0.22946 0.70451 0.0
H266 H 0.30726 0.24885 0.69346 0.0
H267 H 0.31217 0.21036 0.6638 0.0
H268 H 0.21627 0.31764 0.78512 0.0
H269 H 0.2259 0.32465 0.69621 0.0
H270 H 0.23568 0.19127 0.67433 0.0
H271 H 0.18137 0.34711 0.78261 0.0
H272 H 0.19052 0.35337 0.69354 0.0
C273 C 0.27379 0.82919 0.30168 0.0
C274 C 0.27274 0.82577 0.33067 0.0
C275 C 0.27064 0.80804 0.28361 0.0
C276 C 0.26657 0.78288 0.29405 0.0
C277 C 0.26534 0.7794 0.32303 0.0
C278 C 0.26844 0.80066 0.34119 0.0
C279 C 0.26444 0.76041 0.27454 0.0
C280 C 0.28025 0.75877 0.25183 0.0
C281 C 0.27807 0.73855 0.23218 0.0
C282 C 0.26011 0.71921 0.23577 0.0
C283 C 0.24408 0.72039 0.2586 0.0
C284 C 0.24647 0.74107 0.27794 0.0
C285 C 0.22405 0.7009 0.26161 0.0
C286 C 0.21002 0.69298 0.23828 0.0
C287 C 0.21811 0.69091 0.28795 0.0
C288 C 0.19831 0.67376 0.29094 0.0
C289 C 0.18395 0.66634 0.26767 0.0
C290 C 0.29503 0.73808 0.20828 0.0
C291 C 0.3 0.7612 0.19379 0.0
C292 C 0.30812 0.71546 0.20159 0.0
C293 C 0.32688 0.71639 0.18197 0.0
C294 C 0.33279 0.73993 0.16865 0.0
C295 C 0.31868 0.76213 0.17423 0.0
C296 C 0.19022 0.67592 0.24128 0.0
H297 H 0.27727 0.84822 0.29291 0.0
H298 H 0.27137 0.81142 0.26136 0.0
H299 H 0.26239 0.7602 0.33166 0.0
H300 H 0.26722 0.79748 0.36343 0.0
H301 H 0.29465 0.77323 0.24959 0.0
H302 H 0.23375 0.74268 0.29505 0.0
H303 H 0.25848 0.70344 0.22068 0.0
H304 H 0.21394 0.70048 0.21775 0.0
H305 H 0.22871 0.69645 0.3063 0.0
H306 H 0.19391 0.66681 0.31156 0.0
H307 H 0.28996 0.77887 0.19833 0.0
H308 H 0.30467 0.69741 0.21247 0.0
H309 H 0.17976 0.67028 0.22286 0.0
H310 H 0.32278 0.78059 0.16445 0.0
H311 H 0.33715 0.69882 0.17774 0.0
C312 C 0.97481 0.47594 0.26622 0.0
C313 C 0.04217 0.53954 0.26683 0.0
O314 O 0.98517 0.48595 0.2877 0.0
Zn315 Zn 0.00852 0.50774 0.26797 0.0
O316 O 0.98193 0.48258 0.2419 0.0
Zn317 Zn 0.00816 0.50764 0.22306 0.0
O318 O 0.02871 0.48302 0.20303 0.0
O319 O 0.03157 0.47947 0.24877 0.0
O320 O 0.03467 0.53279 0.24239 0.0
O321 O 0.03216 0.5296 0.28814 0.0
O322 O 0.98516 0.53593 0.24898 0.0
O323 O 0.98727 0.53213 0.2032 0.0
C324 C 0.03781 0.47187 0.22435 0.0
C325 C 0.97852 0.54339 0.2246 0.0
C326 C 0.97699 0.47331 0.78347 0.0
C327 C 0.03768 0.54426 0.78548 0.0
O328 O 0.98653 0.48377 0.8052 0.0
Zn329 Zn 0.00759 0.50853 0.78603 0.0
O330 O 0.98344 0.48123 0.75935 0.0
Zn331 Zn 0.00727 0.50921 0.74105 0.0
O332 O 0.03031 0.48733 0.72084 0.0
O333 O 0.03344 0.48357 0.76653 0.0
O334 O 0.03095 0.53701 0.76092 0.0
O335 O 0.0288 0.53284 0.80659 0.0
O336 O 0.98146 0.53402 0.76738 0.0
O337 O 0.98403 0.53158 0.72153 0.0
C338 C 0.0405 0.47709 0.74206 0.0
C339 C 0.97409 0.5412 0.74316 0.0
C340 C 0.23941 0.97328 0.53927 0.0
C341 C 0.2408 0.04306 0.469 0.0
O342 O 0.22075 0.98464 0.52892 0.0
Zn343 Zn 0.23851 0.00839 0.50438 0.0
O344 O 0.26089 0.98036 0.53182 0.0
Zn345 Zn 0.27804 0.0077 0.50483 0.0
O346 O 0.29604 0.03024 0.53052 0.0
O347 O 0.25587 0.03397 0.53359 0.0
O348 O 0.26196 0.03521 0.477 0.0
O349 O 0.2217 0.0327 0.4793 0.0
O350 O 0.25495 0.98217 0.47559 0.0
O351 O 0.29525 0.98468 0.47961 0.0
C352 C 0.27744 0.04068 0.5417 0.0
C353 C 0.27626 0.97477 0.46801 0.0
C354 C 0.53957 0.70432 0.04273 0.0
C355 C 0.47977 0.7144 0.966 0.0
O356 O 0.53049 0.68581 0.02802 0.0
Zn357 Zn 0.51002 0.70746 1.00382 0.0
O358 O 0.53388 0.72796 0.03739 0.0
Zn359 Zn 0.51209 0.74951 0.00862 0.0
O360 O 0.48945 0.76706 0.03351 0.0
O361 O 0.48496 0.72422 0.03239 0.0
O362 O 0.48767 0.7358 0.97679 0.0
O363 O 0.48781 0.69283 0.97525 0.0
O364 O 0.53699 0.72611 0.97969 0.0
O365 O 0.53685 0.76852 0.98759 0.0
C366 C 0.47864 0.74656 0.04193 0.0
C367 C 0.54577 0.74881 0.97508 0.0
C368 C 0.73031 0.96796 0.53919 0.0
C369 C 0.73966 0.04064 0.47575 0.0
O370 O 0.71317 0.98155 0.52875 0.0
Zn371 Zn 0.73408 1.00497 0.5081 0.0
O372 O 0.75271 0.97373 0.53444 0.0
Zn373 Zn 0.77322 1.00184 0.51205 0.0
O374 O 0.78989 0.02234 0.54153 0.0
O375 O 0.75004 0.02861 0.54019 0.0
O376 O 0.76012 0.03144 0.4845 0.0
O377 O 0.71963 0.03094 0.48429 0.0
O378 O 0.75123 0.9797 0.47825 0.0
O379 O 0.79109 0.979 0.48671 0.0
C380 C 0.77107 0.03379 0.55101 0.0
C381 C 0.77266 0.97136 0.47226 0.0
C382 C 0.54228 0.26614 0.03895 0.0
C383 C 0.47406 0.26976 0.97145 0.0
O384 O 0.53234 0.24634 0.02718 0.0
Zn385 Zn 0.50809 0.26571 0.00501 0.0
O386 O 0.53441 0.28894 0.03328 0.0
Zn387 Zn 0.50822 0.30814 0.00844 0.0
O388 O 0.4873 0.32448 0.03652 0.0
O389 O 0.48504 0.28152 0.03632 0.0
O390 O 0.48185 0.29186 0.98056 0.0
O391 O 0.484 0.24887 0.98016 0.0
O392 O 0.53064 0.28538 0.97593 0.0
O393 O 0.52957 0.32792 0.98361 0.0
C394 C 0.47843 0.30353 0.04646 0.0
C395 C 0.53755 0.30849 0.96978 0.0
H396 H 0.16637 0.37809 0.19106 0.0
H397 H 0.12461 0.33231 0.24917 0.0
H398 H 0.13332 0.40993 0.18892 0.0
H399 H 0.09128 0.36352 0.24615 0.0
H400 H 0.05614 0.44202 0.26612 0.0
H401 H 0.08635 0.40775 0.26333 0.0
H402 H 0.09032 0.4179 0.17415 0.0
H403 H 0.05998 0.45289 0.17698 0.0
C404 C 0.15007 0.37471 0.2032 0.0
C405 C 0.14827 0.35276 0.22051 0.0
C406 C 0.13101 0.39279 0.20169 0.0
C407 C 0.10974 0.38937 0.21751 0.0
C408 C 0.10757 0.36692 0.23398 0.0
C409 C 0.12659 0.34887 0.23549 0.0
C410 C 0.0633 0.43699 0.24582 0.0
C411 C 0.05563 0.4503 0.22175 0.0
C412 C 0.08054 0.41711 0.24421 0.0
C413 C 0.09065 0.40993 0.2185 0.0
C414 C 0.08294 0.42309 0.19431 0.0
C415 C 0.0655 0.44303 0.1959 0.0
H416 H 0.16759 0.63843 0.81945 0.0
H417 H 0.12456 0.68432 0.76196 0.0
H418 H 0.13439 0.60643 0.82165 0.0
H419 H 0.09114 0.653 0.7651 0.0
H420 H 0.05548 0.57458 0.74414 0.0
H421 H 0.08592 0.60893 0.74738 0.0
H422 H 0.09156 0.59788 0.83642 0.0
H423 H 0.06093 0.56275 0.83315 0.0
C424 C 0.15099 0.64182 0.80748 0.0
C425 C 0.14887 0.66384 0.79028 0.0
C426 C 0.13185 0.62364 0.80903 0.0
C427 C 0.1102 0.62705 0.79338 0.0
C428 C 0.10772 0.6496 0.77712 0.0
C429 C 0.12681 0.66773 0.77555 0.0
C430 C 0.06306 0.57942 0.76452 0.0
C431 C 0.05575 0.56582 0.78841 0.0
C432 C 0.08042 0.59934 0.76638 0.0
C433 C 0.09105 0.60632 0.79218 0.0
C434 C 0.08376 0.59286 0.81621 0.0
C435 C 0.06617 0.57285 0.81436 0.0
H436 H 0.8904 0.68216 0.24973 0.0
H437 H 0.84696 0.63323 0.19437 0.0
H438 H 0.92437 0.65181 0.24602 0.0
H439 H 0.88072 0.60232 0.19151 0.0
H440 H 0.9542 0.56076 0.17763 0.0
H441 H 0.92321 0.59515 0.17519 0.0
H442 H 0.93116 0.60823 0.26393 0.0
H443 H 0.96199 0.57453 0.26633 0.0
C444 C 0.88818 0.66509 0.23649 0.0
C445 C 0.86587 0.66006 0.22252 0.0
C446 C 0.90758 0.64755 0.23459 0.0
C447 C 0.90517 0.62451 0.21868 0.0
C448 C 0.88322 0.61994 0.20382 0.0
C449 C 0.86377 0.6375 0.20575 0.0
C450 C 0.94943 0.57117 0.19652 0.0
C451 C 0.96054 0.56483 0.22216 0.0
C452 C 0.93162 0.59075 0.19516 0.0
C453 C 0.92479 0.6045 0.21936 0.0
C454 C 0.93624 0.59836 0.24481 0.0
C455 C 0.95383 0.57882 0.2462 0.0
H456 H 0.84622 0.38219 0.7532 0.0
H457 H 0.88296 0.33815 0.81753 0.0
H458 H 0.87869 0.41482 0.75532 0.0
H459 H 0.91599 0.37066 0.8191 0.0
H460 H 0.95715 0.45092 0.83036 0.0
H461 H 0.92451 0.41786 0.83184 0.0
H462 H 0.92189 0.41582 0.74183 0.0
H463 H 0.95391 0.44858 0.74025 0.0
C464 C 0.86117 0.37954 0.76792 0.0
C465 C 0.862 0.35754 0.78517 0.0
C466 C 0.87991 0.39813 0.76896 0.0
C467 C 0.9 0.39523 0.78726 0.0
C468 C 0.90069 0.37349 0.80489 0.0
C469 C 0.88193 0.35475 0.80377 0.0
C470 C 0.94961 0.44331 0.81094 0.0
C471 C 0.95806 0.45256 0.78522 0.0
C472 C 0.93101 0.42434 0.81179 0.0
C473 C 0.92045 0.41446 0.78694 0.0
C474 C 0.92929 0.42338 0.76134 0.0
C475 C 0.94781 0.44212 0.76048 0.0
H476 H 0.20575 0.17337 0.35747 0.0
H477 H 0.27634 0.14483 0.33191 0.0
H478 H 0.20376 0.13951 0.39302 0.0
H479 H 0.27422 0.11082 0.36688 0.0
H480 H 0.27801 0.07393 0.45145 0.0
H481 H 0.27726 0.10722 0.416 0.0
H482 H 0.19996 0.09315 0.40214 0.0
H483 H 0.2006 0.05991 0.43865 0.0
C484 C 0.22071 0.15968 0.35923 0.0
C485 C 0.24134 0.16198 0.34204 0.0
C486 C 0.21954 0.14021 0.37957 0.0
C487 C 0.23893 0.12253 0.38311 0.0
C488 C 0.2592 0.12445 0.36531 0.0
C489 C 0.26043 0.14396 0.34517 0.0
C490 C 0.26077 0.07783 0.44093 0.0
C491 C 0.23938 0.06403 0.44783 0.0
C492 C 0.26039 0.0969 0.42036 0.0
C493 C 0.23865 0.10269 0.40577 0.0
C494 C 0.21704 0.08929 0.413 0.0
C495 C 0.21739 0.07018 0.43386 0.0
H496 H 0.37528 0.69796 0.82551 0.0
H497 H 0.35087 0.76254 0.87628 0.0
H498 H 0.40973 0.69127 0.8577 0.0
H499 H 0.38528 0.75604 0.90801 0.0
H500 H 0.46292 0.75782 0.94024 0.0
H501 H 0.42982 0.76154 0.9065 0.0
H502 H 0.41957 0.67804 0.90719 0.0
H503 H 0.4533 0.67416 0.94123 0.0
C504 C 0.37715 0.71064 0.84356 0.0
C505 C 0.36037 0.73098 0.8481 0.0
C506 C 0.39689 0.70677 0.862 0.0
C507 C 0.40037 0.72324 0.88529 0.0
C508 C 0.38343 0.74332 0.88997 0.0
C509 C 0.36371 0.74712 0.87167 0.0
C510 C 0.45377 0.74013 0.93323 0.0
C511 C 0.46068 0.71567 0.94372 0.0
C512 C 0.43465 0.74233 0.91393 0.0
C513 C 0.42179 0.72016 0.90446 0.0
C514 C 0.42917 0.69551 0.91408 0.0
C515 C 0.44843 0.69328 0.9336 0.0
H516 H 0.73279 0.85655 0.34722 0.0
H517 H 0.81155 0.85055 0.34909 0.0
H518 H 0.73483 0.89102 0.38224 0.0
H519 H 0.8139 0.88603 0.38333 0.0
H520 H 0.8069 0.93273 0.46571 0.0
H521 H 0.80719 0.89863 0.42976 0.0
H522 H 0.74462 0.93436 0.38961 0.0
H523 H 0.74366 0.96724 0.42622 0.0
C524 C 0.75059 0.86293 0.35487 0.0
C525 C 0.77199 0.85091 0.34533 0.0
C526 C 0.75184 0.88286 0.37489 0.0
C527 C 0.77458 0.89172 0.38562 0.0
C528 C 0.79603 0.87963 0.37596 0.0
C529 C 0.79473 0.85936 0.35621 0.0
C530 C 0.79339 0.93331 0.44901 0.0
C531 C 0.77513 0.95249 0.44892 0.0
C532 C 0.79355 0.9138 0.42831 0.0
C533 C 0.77567 0.91332 0.40681 0.0
C534 C 0.75821 0.93341 0.40618 0.0
C535 C 0.75778 0.95249 0.42707 0.0
H536 H 0.63995 0.25111 0.85239 0.0
H537 H 0.66816 0.32882 0.86655 0.0
H538 H 0.60484 0.2609 0.88131 0.0
H539 H 0.63239 0.3393 0.89456 0.0
H540 H 0.58037 0.3364 0.97064 0.0
H541 H 0.61398 0.33216 0.93764 0.0
H542 H 0.56823 0.28281 0.88497 0.0
H543 H 0.53555 0.28586 0.91888 0.0
C544 C 0.63836 0.27048 0.86132 0.0
C545 C 0.65679 0.28916 0.85725 0.0
C546 C 0.61811 0.27624 0.87782 0.0
C547 C 0.61548 0.30105 0.8903 0.0
C548 C 0.63383 0.31989 0.88574 0.0
C549 C 0.65431 0.31394 0.86958 0.0
C550 C 0.57746 0.32519 0.95165 0.0
C551 C 0.55548 0.31142 0.94725 0.0
C552 C 0.59671 0.32267 0.93267 0.0
C553 C 0.59415 0.30666 0.90873 0.0
C554 C 0.57133 0.29458 0.90352 0.0
C555 C 0.55241 0.29662 0.92274 0.0
H556 H 0.22371 0.88068 0.6895 0.0
H557 H 0.25056 0.82645 0.62785 0.0
H558 H 0.22115 0.91462 0.65387 0.0
H559 H 0.24787 0.86022 0.59237 0.0
H560 H 0.2735 0.93672 0.55138 0.0
H561 H 0.27148 0.902 0.58545 0.0
H562 H 0.19847 0.92581 0.60756 0.0
H563 H 0.20037 0.96087 0.57291 0.0
C564 C 0.229 0.87601 0.66835 0.0
C565 C 0.23745 0.85091 0.66152 0.0
C566 C 0.22729 0.89534 0.64792 0.0
C567 C 0.23434 0.89009 0.62035 0.0
C568 C 0.24243 0.86489 0.61348 0.0
C569 C 0.24385 0.84552 0.63377 0.0
C570 C 0.25691 0.93459 0.56338 0.0
C571 C 0.23709 0.95164 0.55945 0.0
C572 C 0.25573 0.91454 0.58281 0.0
C573 C 0.23481 0.91112 0.59915 0.0
C574 C 0.21488 0.92808 0.59531 0.0
C575 C 0.21591 0.94802 0.57541 0.0
H576 H 0.67582 0.72556 0.12433 0.0
H577 H 0.63149 0.70272 0.19404 0.0
H578 H 0.64175 0.71535 0.0923 0.0
H579 H 0.59716 0.69305 0.162 0.0
H580 H 0.53922 0.72585 0.09422 0.0
H581 H 0.5722 0.72556 0.12912 0.0
H582 H 0.61398 0.67401 0.07663 0.0
H583 H 0.58043 0.67367 0.04191 0.0
C584 C 0.65878 0.7183 0.13274 0.0
C585 C 0.65617 0.71507 0.16162 0.0
C586 C 0.63941 0.71222 0.11443 0.0
C587 C 0.61691 0.70327 0.1247 0.0
C588 C 0.61436 0.69982 0.15358 0.0
C589 C 0.63393 0.70536 0.17185 0.0
C590 C 0.55516 0.71384 0.09055 0.0
C591 C 0.55729 0.69964 0.06554 0.0
C592 C 0.57399 0.71368 0.11049 0.0
C593 C 0.59564 0.69985 0.10549 0.0
C594 C 0.59744 0.68483 0.08092 0.0
C595 C 0.57824 0.68446 0.06122 0.0
H596 H 0.74987 0.17511 0.64674 0.0
H597 H 0.79779 0.13075 0.7005 0.0
H598 H 0.7514 0.14062 0.61175 0.0
H599 H 0.79954 0.09623 0.66507 0.0
H600 H 0.812 0.05122 0.58042 0.0
H601 H 0.81374 0.08582 0.61614 0.0
H602 H 0.73552 0.09588 0.6082 0.0
H603 H 0.73374 0.06192 0.57289 0.0
C604 C 0.76062 0.15793 0.65123 0.0
C605 C 0.77342 0.15566 0.67671 0.0
C606 C 0.76157 0.13816 0.63107 0.0
C607 C 0.77541 0.11552 0.63569 0.0
C608 C 0.78884 0.11349 0.66077 0.0
C609 C 0.78781 0.1333 0.68108 0.0
C610 C 0.79521 0.06079 0.58642 0.0
C611 C 0.77277 0.05381 0.57362 0.0
C612 C 0.79619 0.08054 0.60692 0.0
C613 C 0.77479 0.09383 0.6148 0.0
C614 C 0.75241 0.08645 0.60229 0.0
C615 C 0.75141 0.06676 0.58208 0.0
H616 H 0.3436 0.32178 0.13792 0.0
H617 H 0.38321 0.26349 0.1845 0.0
H618 H 0.37908 0.32823 0.10829 0.0
H619 H 0.41903 0.27093 0.15585 0.0
H620 H 0.46133 0.26171 0.07475 0.0
H621 H 0.42918 0.2601 0.10891 0.0
H622 H 0.42129 0.34371 0.10439 0.0
H623 H 0.45357 0.3453 0.0692 0.0
C624 C 0.35992 0.31046 0.14201 0.0
C625 C 0.36034 0.29181 0.16341 0.0
C626 C 0.38042 0.31447 0.12524 0.0
C627 C 0.40189 0.29996 0.12949 0.0
C628 C 0.40267 0.28216 0.15167 0.0
C629 C 0.38217 0.27808 0.16835 0.0
C630 C 0.45294 0.27989 0.08105 0.0
C631 C 0.46002 0.30366 0.06904 0.0
C632 C 0.43456 0.27895 0.10095 0.0
C633 C 0.42264 0.30176 0.10958 0.0
C634 C 0.42997 0.32572 0.09804 0.0
C635 C 0.44855 0.32668 0.07802 0.0
H636 H 0.87067 0.66693 0.70624 0.0
H637 H 0.84276 0.62756 0.77863 0.0
H638 H 0.90393 0.63523 0.70332 0.0
H639 H 0.87568 0.5959 0.77559 0.0
H640 H 0.9493 0.55845 0.69632 0.0
H641 H 0.91466 0.58877 0.69486 0.0
H642 H 0.91931 0.59766 0.78441 0.0
H643 H 0.95315 0.56746 0.78597 0.0
C644 C 0.87145 0.6513 0.72127 0.0
C645 C 0.8543 0.64995 0.74291 0.0
C646 C 0.89046 0.63314 0.71957 0.0
C647 C 0.89265 0.61325 0.73944 0.0
C648 C 0.87488 0.61134 0.76034 0.0
C649 C 0.856 0.62948 0.7621 0.0
C650 C 0.94289 0.56695 0.71563 0.0
C651 C 0.95388 0.56033 0.74126 0.0
C652 C 0.92312 0.58435 0.71479 0.0
C653 C 0.914 0.59534 0.73958 0.0
C654 C 0.92543 0.58908 0.765 0.0
C655 C 0.94502 0.57183 0.76584 0.0
H656 H 0.83787 0.39437 0.29917 0.0
H657 H 0.87641 0.3442 0.24192 0.0
H658 H 0.87299 0.4241 0.3007 0.0
H659 H 0.91133 0.37389 0.24336 0.0
H660 H 0.95298 0.44864 0.22395 0.0
H661 H 0.91939 0.41777 0.22631 0.0
H662 H 0.9169 0.42813 0.3157 0.0
H663 H 0.95074 0.45967 0.31335 0.0
C664 C 0.85391 0.38955 0.28713 0.0
C665 C 0.85422 0.36703 0.27018 0.0
C666 C 0.87404 0.40655 0.28807 0.0
C667 C 0.89488 0.40143 0.27202 0.0
C668 C 0.89537 0.37863 0.25558 0.0
C669 C 0.87531 0.36166 0.25467 0.0
C670 C 0.9454 0.4444 0.2442 0.0
C671 C 0.9546 0.45668 0.26849 0.0
C672 C 0.92619 0.4265 0.24554 0.0
C673 C 0.91557 0.42035 0.27119 0.0
C674 C 0.92465 0.4326 0.29559 0.0
C675 C 0.94409 0.45054 0.29427 0.0
H676 H 0.13944 0.34675 0.76459 0.0
H677 H 0.17717 0.39697 0.7071 0.0
H678 H 0.10419 0.37563 0.76338 0.0
H679 H 0.14179 0.42594 0.70589 0.0
H680 H 0.06428 0.46089 0.69453 0.0
H681 H 0.098 0.4296 0.6915 0.0
H682 H 0.09578 0.41922 0.78074 0.0
H683 H 0.06228 0.4498 0.78375 0.0
C684 C 0.14027 0.36404 0.7518 0.0
C685 C 0.16124 0.36968 0.73619 0.0
C686 C 0.12003 0.38056 0.75104 0.0
C687 C 0.12024 0.4032 0.73468 0.0
C688 C 0.14094 0.40852 0.71846 0.0
C689 C 0.16123 0.39194 0.71922 0.0
C690 C 0.07095 0.45179 0.71342 0.0
C691 C 0.06055 0.45786 0.73934 0.0
C692 C 0.09032 0.43399 0.71172 0.0
C693 C 0.09948 0.42181 0.73587 0.0
C694 C 0.08893 0.42787 0.76167 0.0
C695 C 0.06977 0.44561 0.76338 0.0
H696 H 0.17966 0.62228 0.29951 0.0
H697 H 0.13896 0.67153 0.24314 0.0
H698 H 0.14452 0.59259 0.30196 0.0
H699 H 0.10403 0.64201 0.24559 0.0
H700 H 0.06317 0.56674 0.22499 0.0
H701 H 0.09653 0.59791 0.22783 0.0
H702 H 0.10069 0.58797 0.3171 0.0
H703 H 0.06702 0.5561 0.31427 0.0
C704 C 0.16313 0.62694 0.28794 0.0
C705 C 0.16223 0.64905 0.27078 0.0
C706 C 0.143 0.60997 0.28941 0.0
C707 C 0.12161 0.6148 0.27373 0.0
C708 C 0.12043 0.63745 0.25747 0.0
C709 C 0.14048 0.65434 0.25599 0.0
C710 C 0.07106 0.57113 0.24532 0.0
C711 C 0.06235 0.55889 0.26944 0.0
C712 C 0.09013 0.5892 0.24694 0.0
C713 C 0.10113 0.5956 0.2727 0.0
C714 C 0.09261 0.58334 0.29692 0.0
C715 C 0.07328 0.56522 0.29533 0.0
H716 H 0.7489 0.87954 0.68261 0.0
H717 H 0.72186 0.81924 0.62641 0.0
H718 H 0.73908 0.91231 0.64792 0.0
H719 H 0.71361 0.85225 0.59115 0.0
H720 H 0.74998 0.92026 0.53395 0.0
H721 H 0.74772 0.88445 0.56717 0.0
H722 H 0.69853 0.92951 0.61804 0.0
H723 H 0.70014 0.9652 0.58407 0.0
C724 C 0.74054 0.8732 0.66312 0.0
C725 C 0.73626 0.84658 0.65743 0.0
C726 C 0.73496 0.89205 0.64327 0.0
C727 C 0.72544 0.8847 0.6171 0.0
C728 C 0.72088 0.85828 0.61131 0.0
C729 C 0.72595 0.83942 0.6314 0.0
C730 C 0.73814 0.92215 0.55184 0.0
C731 C 0.72518 0.94527 0.5566 0.0
C732 C 0.7368 0.90172 0.57072 0.0
C733 C 0.72299 0.90438 0.59503 0.0
C734 C 0.70923 0.92711 0.59931 0.0
C735 C 0.71005 0.94737 0.57994 0.0
H736 H 0.63454 0.29081 0.18286 0.0
H737 H 0.67939 0.24071 0.13192 0.0
H738 H 0.60131 0.2869 0.14898 0.0
H739 H 0.64603 0.23746 0.09728 0.0
H740 H 0.56741 0.22213 0.0562 0.0
H741 H 0.60117 0.22054 0.09068 0.0
H742 H 0.59711 0.30406 0.10113 0.0
H743 H 0.56393 0.30575 0.06764 0.0
C744 C 0.63726 0.27881 0.16449 0.0
C745 C 0.65963 0.26613 0.16007 0.0
C746 C 0.61826 0.2767 0.14498 0.0
C747 C 0.62113 0.26197 0.12043 0.0
C748 C 0.64329 0.2488 0.11612 0.0
C749 C 0.66244 0.25096 0.13573 0.0
C750 C 0.57378 0.24006 0.06596 0.0
C751 C 0.5628 0.26399 0.05928 0.0
C752 C 0.59313 0.23917 0.08552 0.0
C753 C 0.60153 0.26217 0.09879 0.0
C754 C 0.59075 0.28596 0.09168 0.0
C755 C 0.57172 0.28687 0.07229 0.0
H756 H 0.29915 0.19118 0.61816 0.0
H757 H 0.25754 0.1492 0.67953 0.0
H758 H 0.303 0.15121 0.59054 0.0
H759 H 0.26154 0.10929 0.65214 0.0
H760 H 0.24196 0.05844 0.57584 0.0
H761 H 0.24389 0.09508 0.60789 0.0
H762 H 0.32037 0.10646 0.58891 0.0
H763 H 0.31833 0.06959 0.55605 0.0
C764 C 0.29111 0.17334 0.62589 0.0
C765 C 0.27772 0.17336 0.65075 0.0
C766 C 0.29343 0.15044 0.61018 0.0
C767 C 0.28245 0.12716 0.6191 0.0
C768 C 0.26985 0.12704 0.64449 0.0
C769 C 0.26746 0.14989 0.66011 0.0
C770 C 0.2593 0.06855 0.5786 0.0
C771 C 0.27997 0.06123 0.56326 0.0
C772 C 0.26044 0.08946 0.59718 0.0
C773 C 0.28228 0.10366 0.60094 0.0
C774 C 0.30323 0.09596 0.58623 0.0
C775 C 0.30212 0.0748 0.56761 0.0
H776 H 0.37783 0.71856 0.17731 0.0
H777 H 0.33719 0.76626 0.1193 0.0
H778 H 0.41398 0.72236 0.14834 0.0
H779 H 0.37357 0.77019 0.09032 0.0
H780 H 0.45144 0.78898 0.05847 0.0
H781 H 0.41641 0.78881 0.09017 0.0
H782 H 0.4255 0.70605 0.10224 0.0
H783 H 0.46022 0.70622 0.07127 0.0
C784 C 0.37652 0.72962 0.15821 0.0
C785 C 0.35454 0.74184 0.15045 0.0
C786 C 0.39729 0.73194 0.14171 0.0
C787 C 0.39659 0.74656 0.11705 0.0
C788 C 0.37474 0.75909 0.10941 0.0
C789 C 0.3539 0.75673 0.12593 0.0
C790 C 0.44604 0.77087 0.06817 0.0
C791 C 0.45854 0.74763 0.06231 0.0
C792 C 0.42593 0.77072 0.08611 0.0
C793 C 0.41825 0.7474 0.09868 0.0
C794 C 0.43113 0.72438 0.09317 0.0
C795 C 0.45096 0.72449 0.07522 0.0
H796 H 0.77137 0.14717 0.34139 0.0
H797 H 0.72129 0.18969 0.39377 0.0
H798 H 0.76789 0.10952 0.37173 0.0
H799 H 0.71771 0.15185 0.4241 0.0
H800 H 0.70064 0.06902 0.45612 0.0
H801 H 0.70196 0.10597 0.42414 0.0
H802 H 0.78063 0.0989 0.41955 0.0
H803 H 0.77937 0.06208 0.45092 0.0
C804 C 0.7598 0.14856 0.35953 0.0
C805 C 0.74677 0.17147 0.36532 0.0
C806 C 0.75772 0.12696 0.37683 0.0
C807 C 0.74257 0.12779 0.4003 0.0
C808 C 0.72929 0.15056 0.40595 0.0
C809 C 0.73139 0.17222 0.38864 0.0
C810 C 0.71817 0.07532 0.44815 0.0
C811 C 0.73988 0.06262 0.45604 0.0
C812 C 0.71893 0.09653 0.43 0.0
C813 C 0.7414 0.10524 0.41932 0.0
C814 C 0.76301 0.09241 0.42712 0.0
C815 C 0.76228 0.07138 0.44527 0.0
H816 H 0.38211 0.30729 0.83078 0.0
H817 H 0.33861 0.24973 0.87338 0.0
H818 H 0.41492 0.30181 0.86491 0.0
H819 H 0.37146 0.24474 0.90822 0.0
H820 H 0.44951 0.22762 0.94771 0.0
H821 H 0.41605 0.22911 0.91296 0.0
H822 H 0.41919 0.31322 0.91472 0.0
H823 H 0.45218 0.3119 0.9486 0.0
C824 C 0.37958 0.29341 0.84743 0.0
C825 C 0.35775 0.27901 0.84943 0.0
C826 C 0.39832 0.29038 0.86708 0.0
C827 C 0.39571 0.27291 0.88928 0.0
C828 C 0.37402 0.25821 0.8912 0.0
C829 C 0.35513 0.26133 0.87151 0.0
C830 C 0.443 0.24635 0.94059 0.0
C831 C 0.45366 0.26959 0.95082 0.0
C832 C 0.42381 0.24721 0.92086 0.0
C833 C 0.41521 0.2713 0.91096 0.0
C834 C 0.42569 0.29437 0.92155 0.0
C835 C 0.4446 0.29354 0.94115 0.0
H836 H 0.29843 0.82877 0.38009 0.0
H837 H 0.25347 0.87429 0.32416 0.0
H838 H 0.30148 0.86604 0.41208 0.0
H839 H 0.25736 0.91162 0.35542 0.0
H840 H 0.2394 0.95616 0.4351 0.0
H841 H 0.24068 0.92098 0.40129 0.0
H842 H 0.31816 0.91162 0.41726 0.0
H843 H 0.31685 0.94703 0.4519 0.0
C844 C 0.2893 0.84673 0.37459 0.0
C845 C 0.27557 0.84853 0.34969 0.0
C846 C 0.29134 0.86815 0.39269 0.0
C847 C 0.2796 0.89169 0.38627 0.0
C848 C 0.2664 0.89363 0.36106 0.0
C849 C 0.26435 0.8723 0.34304 0.0
C850 C 0.25681 0.94677 0.43142 0.0
C851 C 0.27804 0.95437 0.44625 0.0
C852 C 0.25755 0.92668 0.41184 0.0
C853 C 0.27954 0.91362 0.40652 0.0
C854 C 0.30093 0.92129 0.42109 0.0
C855 C 0.30021 0.94162 0.44074 0.0
H856 H 0.64618 0.7273 0.83851 0.0
H857 H 0.68755 0.77421 0.89773 0.0
H858 H 0.61042 0.73004 0.86814 0.0
H859 H 0.65161 0.77679 0.92771 0.0
H860 H 0.57388 0.79214 0.96281 0.0
H861 H 0.60895 0.79397 0.9312 0.0
H862 H 0.59953 0.71197 0.91268 0.0
H863 H 0.56478 0.71021 0.94328 0.0
C864 C 0.6477 0.73796 0.85804 0.0
C865 C 0.66979 0.75019 0.86599 0.0
C866 C 0.62718 0.73964 0.87497 0.0
C867 C 0.62824 0.75347 0.90039 0.0
C868 C 0.65016 0.76621 0.90813 0.0
C869 C 0.67075 0.7646 0.89106 0.0
C870 C 0.57926 0.77463 0.95177 0.0
C871 C 0.56648 0.75108 0.95555 0.0
C872 C 0.59939 0.77562 0.93385 0.0
C873 C 0.6069 0.75313 0.91931 0.0
C874 C 0.59399 0.72975 0.92312 0.0
C875 C 0.57408 0.72875 0.9409 0.0
loop_
_geom_bond_atom_site_label_1
_geom_bond_atom_site_label_2
_geom_bond_distance
_geom_bond_site_symmetry_2
_ccdc_geom_bond_type
C0 C1 1.386 . S
C0 C2 1.397 . S
C0 H24 0.931 . S
C1 C0 1.386 . S
C1 C5 1.397 . S
C2 C0 1.397 . S
C2 C3 1.384 . S
C2 H25 0.930 . S
C3 C2 1.384 . S
C3 C4 1.377 . S
C3 C6 1.481 . S
C4 C3 1.377 . S
C4 C5 1.389 . S
C4 H26 0.929 . S
C5 C1 1.397 . S
C5 C4 1.389 . S
C5 H27 0.931 . S
C6 C3 1.481 . S
C6 C7 1.387 . S
C6 C11 1.390 . S
C7 C6 1.387 . S
C7 C8 1.401 . S
C7 H28 0.930 . S
C8 C7 1.401 . S
C8 C9 1.376 . S
C8 C17 1.511 . S
C9 C8 1.376 . S
C9 C10 1.392 . S
C9 H30 0.931 . S
C10 C9 1.392 . S
C10 C11 1.361 . S
C10 C12 1.500 . S
C11 C6 1.390 . S
C11 C10 1.361 . S
C11 H29 0.931 . S
C12 C10 1.500 . S
C12 C13 1.371 . S
C12 C14 1.365 . S
C13 C12 1.371 . S
C13 C23 1.386 . S
C13 H31 0.931 . S
C14 C12 1.365 . S
C14 C15 1.409 . S
C14 H32 0.929 . S
C15 C14 1.409 . S
C15 C16 1.380 . S
C15 H33 0.930 . S
C16 C15 1.380 . S
C16 C23 1.357 . S
C17 C8 1.511 . S
C17 C18 1.341 . S
C17 C19 1.371 . S
C18 C17 1.341 . S
C18 C22 1.394 . S
C18 H34 0.930 . S
C19 C17 1.371 . S
C19 C20 1.392 . S
C19 H35 0.931 . S
C20 C19 1.392 . S
C20 C21 1.331 . S
C20 H38 0.932 . S
C21 C20 1.331 . S
C21 C22 1.336 . S
C22 C18 1.394 . S
C22 C21 1.336 . S
C22 H37 0.929 . S
C23 C13 1.386 . S
C23 C16 1.357 . S
C23 H36 0.928 . S
H24 C0 0.931 . S
H25 C2 0.930 . S
H26 C4 0.929 . S
H27 C5 0.931 . S
H28 C7 0.930 . S
H29 C11 0.931 . S
H30 C9 0.931 . S
H31 C13 0.931 . S
H32 C14 0.929 . S
H33 C15 0.930 . S
H34 C18 0.930 . S
H35 C19 0.931 . S
H36 C23 0.928 . S
H37 C22 0.929 . S
H38 C20 0.932 . S
C39 C40 1.386 . S
C39 C41 1.397 . S
C39 H63 0.931 . S
C40 C39 1.386 . S
C40 C44 1.397 . S
C41 C39 1.397 . S
C41 C42 1.384 . S
C41 H64 0.930 . S
C42 C41 1.384 . S
C42 C43 1.377 . S
C42 C45 1.481 . S
C43 C42 1.377 . S
C43 C44 1.389 . S
C43 H65 0.929 . S
C44 C40 1.397 . S
C44 C43 1.389 . S
C44 H66 0.931 . S
C45 C42 1.481 . S
C45 C46 1.387 . S
C45 C50 1.390 . S
C46 C45 1.387 . S
C46 C47 1.401 . S
C46 H67 0.930 . S
C47 C46 1.401 . S
C47 C48 1.376 . S
C47 C56 1.511 . S
C48 C47 1.376 . S
C48 C49 1.392 . S
C48 H69 0.931 . S
C49 C48 1.392 . S
C49 C50 1.361 . S
C49 C51 1.500 . S
C50 C45 1.390 . S
C50 C49 1.361 . S
C50 H68 0.931 . S
C51 C49 1.500 . S
C51 C52 1.371 . S
C51 C53 1.365 . S
C52 C51 1.371 . S
C52 C62 1.386 . S
C52 H70 0.931 . S
C53 C51 1.365 . S
C53 C54 1.409 . S
C53 H71 0.929 . S
C54 C53 1.409 . S
C54 C55 1.380 . S
C54 H72 0.930 . S
C55 C54 1.380 . S
C55 C62 1.357 . S
C56 C47 1.511 . S
C56 C57 1.341 . S
C56 C58 1.371 . S
C57 C56 1.341 . S
C57 C61 1.394 . S
C57 H73 0.930 . S
C58 C56 1.371 . S
C58 C59 1.392 . S
C58 H74 0.931 . S
C59 C58 1.392 . S
C59 C60 1.331 . S
C59 H77 0.932 . S
C60 C59 1.331 . S
C60 C61 1.336 . S
C61 C57 1.394 . S
C61 C60 1.336 . S
C61 H76 0.929 . S
C62 C52 1.386 . S
C62 C55 1.357 . S
C62 H75 0.928 . S
H63 C39 0.931 . S
H64 C41 0.930 . S
H65 C43 0.929 . S
H66 C44 0.931 . S
H67 C46 0.930 . S
H68 C50 0.931 . S
H69 C48 0.931 . S
H70 C52 0.931 . S
H71 C53 0.929 . S
H72 C54 0.930 . S
H73 C57 0.930 . S
H74 C58 0.931 . S
H75 C62 0.928 . S
H76 C61 0.929 . S
H77 C59 0.932 . S
C78 C79 1.386 . S
C78 C80 1.397 . S
C78 H102 0.931 . S
C79 C78 1.386 . S
C79 C83 1.397 . S
C80 C78 1.397 . S
C80 C81 1.384 . S
C80 H103 0.930 . S
C81 C80 1.384 . S
C81 C82 1.377 . S
C81 C84 1.481 . S
C82 C81 1.377 . S
C82 C83 1.389 . S
C82 H104 0.929 . S
C83 C79 1.397 . S
C83 C82 1.389 . S
C83 H105 0.931 . S
C84 C81 1.481 . S
C84 C85 1.387 . S
C84 C89 1.390 . S
C85 C84 1.387 . S
C85 C86 1.401 . S
C85 H106 0.930 . S
C86 C85 1.401 . S
C86 C87 1.376 . S
C86 C95 1.511 . S
C87 C86 1.376 . S
C87 C88 1.392 . S
C87 H108 0.931 . S
C88 C87 1.392 . S
C88 C89 1.361 . S
C88 C90 1.500 . S
C89 C84 1.390 . S
C89 C88 1.361 . S
C89 H107 0.931 . S
C90 C88 1.500 . S
C90 C91 1.371 . S
C90 C92 1.365 . S
C91 C90 1.371 . S
C91 C101 1.386 . S
C91 H109 0.931 . S
C92 C90 1.365 . S
C92 C93 1.409 . S
C92 H110 0.929 . S
C93 C92 1.409 . S
C93 C94 1.380 . S
C93 H111 0.930 . S
C94 C93 1.380 . S
C94 C101 1.357 . S
C95 C86 1.511 . S
C95 C96 1.341 . S
C95 C97 1.371 . S
C96 C95 1.341 . S
C96 C100 1.394 . S
C96 H112 0.930 . S
C97 C95 1.371 . S
C97 C98 1.392 . S
C97 H113 0.931 . S
C98 C97 1.392 . S
C98 C99 1.331 . S
C98 H116 0.932 . S
C99 C98 1.331 . S
C99 C100 1.336 . S
C100 C96 1.394 . S
C100 C99 1.336 . S
C100 H115 0.929 . S
C101 C91 1.386 . S
C101 C94 1.357 . S
C101 H114 0.928 . S
H102 C78 0.931 . S
H103 C80 0.930 . S
H104 C82 0.929 . S
H105 C83 0.931 . S
H106 C85 0.930 . S
H107 C89 0.931 . S
H108 C87 0.931 . S
H109 C91 0.931 . S
H110 C92 0.929 . S
H111 C93 0.930 . S
H112 C96 0.930 . S
H113 C97 0.931 . S
H114 C101 0.928 . S
H115 C100 0.929 . S
H116 C98 0.932 . S
C117 C118 1.386 . S
C117 C119 1.397 . S
C117 H141 0.931 . S
C118 C117 1.386 . S
C118 C122 1.397 . S
C119 C117 1.397 . S
C119 C120 1.384 . S
C119 H142 0.930 . S
C120 C119 1.384 . S
C120 C121 1.377 . S
C120 C123 1.481 . S
C121 C120 1.377 . S
C121 C122 1.389 . S
C121 H143 0.929 . S
C122 C118 1.397 . S
C122 C121 1.389 . S
C122 H144 0.931 . S
C123 C120 1.481 . S
C123 C124 1.387 . S
C123 C128 1.390 . S
C124 C123 1.387 . S
C124 C125 1.401 . S
C124 H145 0.930 . S
C125 C124 1.401 . S
C125 C126 1.376 . S
C125 C134 1.511 . S
C126 C125 1.376 . S
C126 C127 1.392 . S
C126 H147 0.931 . S
C127 C126 1.392 . S
C127 C128 1.361 . S
C127 C129 1.500 . S
C128 C123 1.390 . S
C128 C127 1.361 . S
C128 H146 0.931 . S
C129 C127 1.500 . S
C129 C130 1.371 . S
C129 C131 1.365 . S
C130 C129 1.371 . S
C130 C140 1.386 . S
C130 H148 0.931 . S
C131 C129 1.365 . S
C131 C132 1.409 . S
C131 H149 0.929 . S
C132 C131 1.409 . S
C132 C133 1.380 . S
C132 H150 0.930 . S
C133 C132 1.380 . S
C133 C140 1.357 . S
C134 C125 1.511 . S
C134 C135 1.341 . S
C134 C136 1.371 . S
C135 C134 1.341 . S
C135 C139 1.394 . S
C135 H151 0.930 . S
C136 C134 1.371 . S
C136 C137 1.392 . S
C136 H152 0.931 . S
C137 C136 1.392 . S
C137 C138 1.331 . S
C137 H155 0.932 . S
C138 C137 1.331 . S
C138 C139 1.336 . S
C139 C135 1.394 . S
C139 C138 1.336 . S
C139 H154 0.929 . S
C140 C130 1.386 . S
C140 C133 1.357 . S
C140 H153 0.928 . S
H141 C117 0.931 . S
H142 C119 0.930 . S
H143 C121 0.929 . S
H144 C122 0.931 . S
H145 C124 0.930 . S
H146 C128 0.931 . S
H147 C126 0.931 . S
H148 C130 0.931 . S
H149 C131 0.929 . S
H150 C132 0.930 . S
H151 C135 0.930 . S
H152 C136 0.931 . S
H153 C140 0.928 . S
H154 C139 0.929 . S
H155 C137 0.932 . S
C156 C157 1.386 . S
C156 C158 1.397 . S
C156 H180 0.931 . S
C157 C156 1.386 . S
C157 C161 1.397 . S
C158 C156 1.397 . S
C158 C159 1.384 . S
C158 H181 0.930 . S
C159 C158 1.384 . S
C159 C160 1.377 . S
C159 C162 1.481 . S
C160 C159 1.377 . S
C160 C161 1.389 . S
C160 H182 0.929 . S
C161 C157 1.397 . S
C161 C160 1.389 . S
C161 H183 0.931 . S
C162 C159 1.481 . S
C162 C163 1.387 . S
C162 C167 1.390 . S
C163 C162 1.387 . S
C163 C164 1.401 . S
C163 H184 0.930 . S
C164 C163 1.401 . S
C164 C165 1.376 . S
C164 C173 1.511 . S
C165 C164 1.376 . S
C165 C166 1.392 . S
C165 H186 0.931 . S
C166 C165 1.392 . S
C166 C167 1.361 . S
C166 C168 1.500 . S
C167 C162 1.390 . S
C167 C166 1.361 . S
C167 H185 0.931 . S
C168 C166 1.500 . S
C168 C169 1.371 . S
C168 C170 1.365 . S
C169 C168 1.371 . S
C169 C179 1.386 . S
C169 H187 0.931 . S
C170 C168 1.365 . S
C170 C171 1.409 . S
C170 H188 0.929 . S
C171 C170 1.409 . S
C171 C172 1.380 . S
C171 H189 0.930 . S
C172 C171 1.380 . S
C172 C179 1.357 . S
C173 C164 1.511 . S
C173 C174 1.341 . S
C173 C175 1.371 . S
C174 C173 1.341 . S
C174 C178 1.394 . S
C174 H190 0.930 . S
C175 C173 1.371 . S
C175 C176 1.392 . S
C175 H191 0.931 . S
C176 C175 1.392 . S
C176 C177 1.331 . S
C176 H194 0.932 . S
C177 C176 1.331 . S
C177 C178 1.336 . S
C178 C174 1.394 . S
C178 C177 1.336 . S
C178 H193 0.929 . S
C179 C169 1.386 . S
C179 C172 1.357 . S
C179 H192 0.928 . S
H180 C156 0.931 . S
H181 C158 0.930 . S
H182 C160 0.929 . S
H183 C161 0.931 . S
H184 C163 0.930 . S
H185 C167 0.931 . S
H186 C165 0.931 . S
H187 C169 0.931 . S
H188 C170 0.929 . S
H189 C171 0.930 . S
H190 C174 0.930 . S
H191 C175 0.931 . S
H192 C179 0.928 . S
H193 C178 0.929 . S
H194 C176 0.932 . S
C195 C196 1.386 . S
C195 C197 1.397 . S
C195 H219 0.931 . S
C196 C195 1.386 . S
C196 C200 1.397 . S
C197 C195 1.397 . S
C197 C198 1.384 . S
C197 H220 0.930 . S
C198 C197 1.384 . S
C198 C199 1.377 . S
C198 C201 1.481 . S
C199 C198 1.377 . S
C199 C200 1.389 . S
C199 H221 0.929 . S
C200 C196 1.397 . S
C200 C199 1.389 . S
C200 H222 0.931 . S
C201 C198 1.481 . S
C201 C202 1.387 . S
C201 C206 1.390 . S
C202 C201 1.387 . S
C202 C203 1.401 . S
C202 H223 0.930 . S
C203 C202 1.401 . S
C203 C204 1.376 . S
C203 C212 1.511 . S
C204 C203 1.376 . S
C204 C205 1.392 . S
C204 H225 0.931 . S
C205 C204 1.392 . S
C205 C206 1.361 . S
C205 C207 1.500 . S
C206 C201 1.390 . S
C206 C205 1.361 . S
C206 H224 0.931 . S
C207 C205 1.500 . S
C207 C208 1.371 . S
C207 C209 1.365 . S
C208 C207 1.371 . S
C208 C218 1.386 . S
C208 H226 0.931 . S
C209 C207 1.365 . S
C209 C210 1.409 . S
C209 H227 0.929 . S
C210 C209 1.409 . S
C210 C211 1.380 . S
C210 H228 0.930 . S
C211 C210 1.380 . S
C211 C218 1.357 . S
C212 C203 1.511 . S
C212 C213 1.341 . S
C212 C214 1.371 . S
C213 C212 1.341 . S
C213 C217 1.394 . S
C213 H229 0.930 . S
C214 C212 1.371 . S
C214 C215 1.392 . S
C214 H230 0.931 . S
C215 C214 1.392 . S
C215 C216 1.331 . S
C215 H233 0.932 . S
C216 C215 1.331 . S
C216 C217 1.336 . S
C217 C213 1.394 . S
C217 C216 1.336 . S
C217 H232 0.929 . S
C218 C208 1.386 . S
C218 C211 1.357 . S
C218 H231 0.928 . S
H219 C195 0.931 . S
H220 C197 0.930 . S
H221 C199 0.929 . S
H222 C200 0.931 . S
H223 C202 0.930 . S
H224 C206 0.931 . S
H225 C204 0.931 . S
H226 C208 0.931 . S
H227 C209 0.929 . S
H228 C210 0.930 . S
H229 C213 0.930 . S
H230 C214 0.931 . S
H231 C218 0.928 . S
H232 C217 0.929 . S
H233 C215 0.932 . S
C234 C235 1.386 . S
C234 C236 1.397 . S
C234 H258 0.931 . S
C235 C234 1.386 . S
C235 C239 1.397 . S
C236 C234 1.397 . S
C236 C237 1.384 . S
C236 H259 0.930 . S
C237 C236 1.384 . S
C237 C238 1.377 . S
C237 C240 1.481 . S
C238 C237 1.377 . S
C238 C239 1.389 . S
C238 H260 0.929 . S
C239 C235 1.397 . S
C239 C238 1.389 . S
C239 H261 0.931 . S
C240 C237 1.481 . S
C240 C241 1.387 . S
C240 C245 1.390 . S
C241 C240 1.387 . S
C241 C242 1.401 . S
C241 H262 0.930 . S
C242 C241 1.401 . S
C242 C243 1.376 . S
C242 C251 1.511 . S
C243 C242 1.376 . S
C243 C244 1.392 . S
C243 H264 0.931 . S
C244 C243 1.392 . S
C244 C245 1.361 . S
C244 C246 1.500 . S
C245 C240 1.390 . S
C245 C244 1.361 . S
C245 H263 0.931 . S
C246 C244 1.500 . S
C246 C247 1.371 . S
C246 C248 1.365 . S
C247 C246 1.371 . S
C247 C257 1.386 . S
C247 H265 0.931 . S
C248 C246 1.365 . S
C248 C249 1.409 . S
C248 H266 0.929 . S
C249 C248 1.409 . S
C249 C250 1.380 . S
C249 H267 0.930 . S
C250 C249 1.380 . S
C250 C257 1.357 . S
C251 C242 1.511 . S
C251 C252 1.341 . S
C251 C253 1.371 . S
C252 C251 1.341 . S
C252 C256 1.394 . S
C252 H268 0.930 . S
C253 C251 1.371 . S
C253 C254 1.392 . S
C253 H269 0.931 . S
C254 C253 1.392 . S
C254 C255 1.331 . S
C254 H272 0.932 . S
C255 C254 1.331 . S
C255 C256 1.336 . S
C256 C252 1.394 . S
C256 C255 1.336 . S
C256 H271 0.929 . S
C257 C247 1.386 . S
C257 C250 1.357 . S
C257 H270 0.928 . S
H258 C234 0.931 . S
H259 C236 0.930 . S
H260 C238 0.929 . S
H261 C239 0.931 . S
H262 C241 0.930 . S
H263 C245 0.931 . S
H264 C243 0.931 . S
H265 C247 0.931 . S
H266 C248 0.929 . S
H267 C249 0.930 . S
H268 C252 0.930 . S
H269 C253 0.931 . S
H270 C257 0.928 . S
H271 C256 0.929 . S
H272 C254 0.932 . S
C273 C274 1.386 . S
C273 C275 1.397 . S
C273 H297 0.931 . S
C274 C273 1.386 . S
C274 C278 1.397 . S
C275 C273 1.397 . S
C275 C276 1.384 . S
C275 H298 0.930 . S
C276 C275 1.384 . S
C276 C277 1.377 . S
C276 C279 1.481 . S
C277 C276 1.377 . S
C277 C278 1.389 . S
C277 H299 0.929 . S
C278 C274 1.397 . S
C278 C277 1.389 . S
C278 H300 0.931 . S
C279 C276 1.481 . S
C279 C280 1.387 . S
C279 C284 1.390 . S
C280 C279 1.387 . S
C280 C281 1.401 . S
C280 H301 0.930 . S
C281 C280 1.401 . S
C281 C282 1.376 . S
C281 C290 1.511 . S
C282 C281 1.376 . S
C282 C283 1.392 . S
C282 H303 0.931 . S
C283 C282 1.392 . S
C283 C284 1.361 . S
C283 C285 1.500 . S
C284 C279 1.390 . S
C284 C283 1.361 . S
C284 H302 0.931 . S
C285 C283 1.500 . S
C285 C286 1.371 . S
C285 C287 1.365 . S
C286 C285 1.371 . S
C286 C296 1.386 . S
C286 H304 0.931 . S
C287 C285 1.365 . S
C287 C288 1.409 . S
C287 H305 0.929 . S
C288 C287 1.409 . S
C288 C289 1.380 . S
C288 H306 0.930 . S
C289 C288 1.380 . S
C289 C296 1.357 . S
C290 C281 1.511 . S
C290 C291 1.341 . S
C290 C292 1.371 . S
C291 C290 1.341 . S
C291 C295 1.394 . S
C291 H307 0.930 . S
C292 C290 1.371 . S
C292 C293 1.392 . S
C292 H308 0.931 . S
C293 C292 1.392 . S
C293 C294 1.331 . S
C293 H311 0.932 . S
C294 C293 1.331 . S
C294 C295 1.336 . S
C295 C291 1.394 . S
C295 C294 1.336 . S
C295 H310 0.929 . S
C296 C286 1.386 . S
C296 C289 1.357 . S
C296 H309 0.928 . S
H297 C273 0.931 . S
H298 C275 0.930 . S
H299 C277 0.929 . S
H300 C278 0.931 . S
H301 C280 0.930 . S
H302 C284 0.931 . S
H303 C282 0.931 . S
H304 C286 0.931 . S
H305 C287 0.929 . S
H306 C288 0.930 . S
H307 C291 0.930 . S
H308 C292 0.931 . S
H309 C296 0.928 . S
H310 C295 0.929 . S
H311 C293 0.932 . S
C312 O314 1.247 . S
C312 O316 1.258 . S
C313 O320 1.247 . S
C313 O321 1.258 . S
O314 C312 1.247 . S
O314 Zn315 2.028 1_655 S
Zn315 O314 2.028 1_455 S
Zn315 O319 2.035 . S
Zn315 O321 2.035 . S
Zn315 O322 2.028 1_455 S
O316 C312 1.258 . S
O316 Zn317 2.035 1_655 S
Zn317 O316 2.035 1_455 S
Zn317 O318 2.028 . S
Zn317 O320 2.028 . S
Zn317 O323 2.035 1_455 S
O318 Zn317 2.028 . S
O318 C324 1.247 . S
O319 Zn315 2.035 . S
O319 C324 1.258 . S
O320 C313 1.247 . S
O320 Zn317 2.028 . S
O321 C313 1.258 . S
O321 Zn315 2.035 . S
O322 Zn315 2.028 1_655 S
O322 C325 1.247 . S
O323 Zn317 2.035 1_655 S
O323 C325 1.258 . S
C324 O318 1.247 . S
C324 O319 1.258 . S
C325 O322 1.247 . S
C325 O323 1.258 . S
C326 O328 1.247 . S
C326 O330 1.258 . S
C327 O334 1.247 . S
C327 O335 1.258 . S
O328 C326 1.247 . S
O328 Zn329 2.028 1_655 S
Zn329 O328 2.028 1_455 S
Zn329 O333 2.035 . S
Zn329 O335 2.035 . S
Zn329 O336 2.028 1_455 S
O330 C326 1.258 . S
O330 Zn331 2.035 1_655 S
Zn331 O330 2.035 1_455 S
Zn331 O332 2.028 . S
Zn331 O334 2.028 . S
Zn331 O337 2.035 1_455 S
O332 Zn331 2.028 . S
O332 C338 1.247 . S
O333 Zn329 2.035 . S
O333 C338 1.258 . S
O334 C327 1.247 . S
O334 Zn331 2.028 . S
O335 C327 1.258 . S
O335 Zn329 2.035 . S
O336 Zn329 2.028 1_655 S
O336 C339 1.247 . S
O337 Zn331 2.035 1_655 S
O337 C339 1.258 . S
C338 O332 1.247 . S
C338 O333 1.258 . S
C339 O336 1.247 . S
C339 O337 1.258 . S
C340 O342 1.247 . S
C340 O344 1.258 . S
C341 O348 1.247 . S
C341 O349 1.258 . S
O342 C340 1.247 . S
O342 Zn343 2.028 1_565 S
Zn343 O342 2.028 1_545 S
Zn343 O347 2.035 . S
Zn343 O349 2.035 . S
Zn343 O350 2.028 1_545 S
O344 C340 1.258 . S
O344 Zn345 2.035 1_565 S
Zn345 O344 2.035 1_545 S
Zn345 O346 2.028 . S
Zn345 O348 2.028 . S
Zn345 O351 2.035 1_545 S
O346 Zn345 2.028 . S
O346 C352 1.247 . S
O347 Zn343 2.035 . S
O347 C352 1.258 . S
O348 C341 1.247 . S
O348 Zn345 2.028 . S
O349 C341 1.258 . S
O349 Zn343 2.035 . S
O350 Zn343 2.028 1_565 S
O350 C353 1.247 . S
O351 Zn345 2.035 1_565 S
O351 C353 1.258 . S
C352 O346 1.247 . S
C352 O347 1.258 . S
C353 O350 1.247 . S
C353 O351 1.258 . S
C354 O356 1.247 . S
C354 O358 1.258 . S
C355 O362 1.247 . S
C355 O363 1.258 . S
O356 C354 1.247 . S
O356 Zn357 2.046 . S
Zn357 O356 2.046 . S
Zn357 O361 2.053 . S
Zn357 O363 2.018 1_554 S
Zn357 O364 2.010 1_554 S
O358 C354 1.258 . S
O358 Zn359 2.035 . S
Zn359 O358 2.035 . S
Zn359 O360 2.028 . S
Zn359 O362 2.028 1_554 S
Zn359 O365 2.035 1_554 S
O360 Zn359 2.028 . S
O360 C366 1.247 . S
O361 Zn357 2.053 . S
O361 C366 1.258 . S
O362 C355 1.247 . S
O362 Zn359 2.028 1_556 S
O363 C355 1.258 . S
O363 Zn357 2.018 1_556 S
O364 Zn357 2.010 1_556 S
O364 C367 1.247 . S
O365 Zn359 2.035 1_556 S
O365 C367 1.258 . S
C366 O360 1.247 . S
C366 O361 1.258 . S
C367 O364 1.247 . S
C367 O365 1.258 . S
C368 O370 1.247 . S
C368 O372 1.258 . S
C369 O376 1.247 . S
C369 O377 1.258 . S
O370 C368 1.247 . S
O370 Zn371 2.006 1_565 S
Zn371 O370 2.006 1_545 S
Zn371 O375 2.058 . S
Zn371 O377 2.058 . S
Zn371 O378 2.006 1_545 S
O372 C368 1.258 . S
O372 Zn373 2.035 1_565 S
Zn373 O372 2.035 1_545 S
Zn373 O374 2.028 . S
Zn373 O376 2.028 . S
Zn373 O379 2.035 1_545 S
O374 Zn373 2.028 . S
O374 C380 1.247 . S
O375 Zn371 2.058 . S
O375 C380 1.258 . S
O376 C369 1.247 . S
O376 Zn373 2.028 . S
O377 C369 1.258 . S
O377 Zn371 2.058 . S
O378 Zn371 2.006 1_565 S
O378 C381 1.247 . S
O379 Zn373 2.035 1_565 S
O379 C381 1.258 . S
C380 O374 1.247 . S
C380 O375 1.258 . S
C381 O378 1.247 . S
C381 O379 1.258 . S
C382 O384 1.247 . S
C382 O386 1.258 . S
C383 O390 1.247 . S
C383 O391 1.258 . S
O384 C382 1.247 . S
O384 Zn385 2.028 . S
Zn385 O384 2.028 . S
Zn385 O389 2.035 . S
Zn385 O391 2.035 1_554 S
Zn385 O392 2.028 1_554 S
O386 C382 1.258 . S
O386 Zn387 2.035 . S
Zn387 O386 2.035 . S
Zn387 O388 2.028 . S
Zn387 O390 2.028 1_554 S
Zn387 O393 2.035 1_554 S
O388 Zn387 2.028 . S
O388 C394 1.247 . S
O389 Zn385 2.035 . S
O389 C394 1.258 . S
O390 C383 1.247 . S
O390 Zn387 2.028 1_556 S
O391 C383 1.258 . S
O391 Zn385 2.035 1_556 S
O392 Zn385 2.028 1_556 S
O392 C395 1.247 . S
O393 Zn387 2.035 1_556 S
O393 C395 1.258 . S
C394 O388 1.247 . S
C394 O389 1.258 . S
C395 O392 1.247 . S
C395 O393 1.258 . S
H396 C404 0.950 . S
H397 C409 0.950 . S
H398 C406 0.950 . S
H399 C408 0.950 . S
H400 C410 0.950 . S
H401 C412 0.950 . S
H402 C414 0.950 . S
H403 C415 0.950 . S
C404 H396 0.950 . S
C404 C405 1.386 . S
C404 C406 1.391 . S
C405 C404 1.386 . S
C405 C409 1.393 . S
C406 H398 0.950 . S
C406 C404 1.391 . S
C406 C407 1.400 . S
C407 C406 1.400 . S
C407 C408 1.398 . S
C407 C413 1.491 . S
C408 H399 0.950 . S
C408 C407 1.398 . S
C408 C409 1.391 . S
C409 H397 0.950 . S
C409 C405 1.393 . S
C409 C408 1.391 . S
C410 H400 0.950 . S
C410 C411 1.386 . S
C410 C412 1.391 . S
C411 C410 1.386 . S
C411 C415 1.393 . S
C412 H401 0.950 . S
C412 C410 1.391 . S
C412 C413 1.400 . S
C413 C407 1.491 . S
C413 C412 1.400 . S
C413 C414 1.398 . S
C414 H402 0.950 . S
C414 C413 1.398 . S
C414 C415 1.391 . S
C415 H403 0.950 . S
C415 C411 1.393 . S
C415 C414 1.391 . S
H416 C424 0.950 . S
H417 C429 0.950 . S
H418 C426 0.950 . S
H419 C428 0.950 . S
H420 C430 0.950 . S
H421 C432 0.950 . S
H422 C434 0.950 . S
H423 C435 0.950 . S
C424 H416 0.950 . S
C424 C425 1.386 . S
C424 C426 1.391 . S
C425 C424 1.386 . S
C425 C429 1.393 . S
C426 H418 0.950 . S
C426 C424 1.391 . S
C426 C427 1.400 . S
C427 C426 1.400 . S
C427 C428 1.398 . S
C427 C433 1.491 . S
C428 H419 0.950 . S
C428 C427 1.398 . S
C428 C429 1.391 . S
C429 H417 0.950 . S
C429 C425 1.393 . S
C429 C428 1.391 . S
C430 H420 0.950 . S
C430 C431 1.386 . S
C430 C432 1.391 . S
C431 C430 1.386 . S
C431 C435 1.393 . S
C432 H421 0.950 . S
C432 C430 1.391 . S
C432 C433 1.400 . S
C433 C427 1.491 . S
C433 C432 1.400 . S
C433 C434 1.398 . S
C434 H422 0.950 . S
C434 C433 1.398 . S
C434 C435 1.391 . S
C435 H423 0.950 . S
C435 C431 1.393 . S
C435 C434 1.391 . S
H436 C444 0.950 . S
H437 C449 0.950 . S
H438 C446 0.950 . S
H439 C448 0.950 . S
H440 C450 0.950 . S
H441 C452 0.950 . S
H442 C454 0.950 . S
H443 C455 0.950 . S
C444 H436 0.950 . S
C444 C445 1.386 . S
C444 C446 1.391 . S
C445 C444 1.386 . S
C445 C449 1.393 . S
C446 H438 0.950 . S
C446 C444 1.391 . S
C446 C447 1.400 . S
C447 C446 1.400 . S
C447 C448 1.398 . S
C447 C453 1.491 . S
C448 H439 0.950 . S
C448 C447 1.398 . S
C448 C449 1.391 . S
C449 H437 0.950 . S
C449 C445 1.393 . S
C449 C448 1.391 . S
C450 H440 0.950 . S
C450 C451 1.386 . S
C450 C452 1.391 . S
C451 C450 1.386 . S
C451 C455 1.393 . S
C452 H441 0.950 . S
C452 C450 1.391 . S
C452 C453 1.400 . S
C453 C447 1.491 . S
C453 C452 1.400 . S
C453 C454 1.398 . S
C454 H442 0.950 . S
C454 C453 1.398 . S
C454 C455 1.391 . S
C455 H443 0.950 . S
C455 C451 1.393 . S
C455 C454 1.391 . S
H456 C464 0.950 . S
H457 C469 0.950 . S
H458 C466 0.950 . S
H459 C468 0.950 . S
H460 C470 0.950 . S
H461 C472 0.950 . S
H462 C474 0.950 . S
H463 C475 0.950 . S
C464 H456 0.950 . S
C464 C465 1.386 . S
C464 C466 1.391 . S
C465 C464 1.386 . S
C465 C469 1.393 . S
C466 H458 0.950 . S
C466 C464 1.391 . S
C466 C467 1.400 . S
C467 C466 1.400 . S
C467 C468 1.398 . S
C467 C473 1.491 . S
C468 H459 0.950 . S
C468 C467 1.398 . S
C468 C469 1.391 . S
C469 H457 0.950 . S
C469 C465 1.393 . S
C469 C468 1.391 . S
C470 H460 0.950 . S
C470 C471 1.386 . S
C470 C472 1.391 . S
C471 C470 1.386 . S
C471 C475 1.393 . S
C472 H461 0.950 . S
C472 C470 1.391 . S
C472 C473 1.400 . S
C473 C467 1.491 . S
C473 C472 1.400 . S
C473 C474 1.398 . S
C474 H462 0.950 . S
C474 C473 1.398 . S
C474 C475 1.391 . S
C475 H463 0.950 . S
C475 C471 1.393 . S
C475 C474 1.391 . S
H476 C484 0.950 . S
H477 C489 0.950 . S
H478 C486 0.950 . S
H479 C488 0.950 . S
H480 C490 0.950 . S
H481 C492 0.950 . S
H482 C494 0.950 . S
H483 C495 0.950 . S
C484 H476 0.950 . S
C484 C485 1.386 . S
C484 C486 1.391 . S
C485 C484 1.386 . S
C485 C489 1.393 . S
C486 H478 0.950 . S
C486 C484 1.391 . S
C486 C487 1.400 . S
C487 C486 1.400 . S
C487 C488 1.398 . S
C487 C493 1.491 . S
C488 H479 0.950 . S
C488 C487 1.398 . S
C488 C489 1.391 . S
C489 H477 0.950 . S
C489 C485 1.393 . S
C489 C488 1.391 . S
C490 H480 0.950 . S
C490 C491 1.386 . S
C490 C492 1.391 . S
C491 C490 1.386 . S
C491 C495 1.393 . S
C492 H481 0.950 . S
C492 C490 1.391 . S
C492 C493 1.400 . S
C493 C487 1.491 . S
C493 C492 1.400 . S
C493 C494 1.398 . S
C494 H482 0.950 . S
C494 C493 1.398 . S
C494 C495 1.391 . S
C495 H483 0.950 . S
C495 C491 1.393 . S
C495 C494 1.391 . S
H496 C504 0.950 . S
H497 C509 0.950 . S
H498 C506 0.950 . S
H499 C508 0.950 . S
H500 C510 0.950 . S
H501 C512 0.950 . S
H502 C514 0.950 . S
H503 C515 0.950 . S
C504 H496 0.950 . S
C504 C505 1.386 . S
C504 C506 1.391 . S
C505 C504 1.386 . S
C505 C509 1.393 . S
C506 H498 0.950 . S
C506 C504 1.391 . S
C506 C507 1.400 . S
C507 C506 1.400 . S
C507 C508 1.398 . S
C507 C513 1.491 . S
C508 H499 0.950 . S
C508 C507 1.398 . S
C508 C509 1.391 . S
C509 H497 0.950 . S
C509 C505 1.393 . S
C509 C508 1.391 . S
C510 H500 0.950 . S
C510 C511 1.386 . S
C510 C512 1.391 . S
C511 C510 1.386 . S
C511 C515 1.393 . S
C512 H501 0.950 . S
C512 C510 1.391 . S
C512 C513 1.400 . S
C513 C507 1.491 . S
C513 C512 1.400 . S
C513 C514 1.398 . S
C514 H502 0.950 . S
C514 C513 1.398 . S
C514 C515 1.391 . S
C515 H503 0.950 . S
C515 C511 1.393 . S
C515 C514 1.391 . S
H516 C524 0.950 . S
H517 C529 0.950 . S
H518 C526 0.950 . S
H519 C528 0.950 . S
H520 C530 0.950 . S
H521 C532 0.950 . S
H522 C534 0.950 . S
H523 C535 0.950 . S
C524 H516 0.950 . S
C524 C525 1.386 . S
C524 C526 1.391 . S
C525 C524 1.386 . S
C525 C529 1.393 . S
C526 H518 0.950 . S
C526 C524 1.391 . S
C526 C527 1.400 . S
C527 C526 1.400 . S
C527 C528 1.398 . S
C527 C533 1.491 . S
C528 H519 0.950 . S
C528 C527 1.398 . S
C528 C529 1.391 . S
C529 H517 0.950 . S
C529 C525 1.393 . S
C529 C528 1.391 . S
C530 H520 0.950 . S
C530 C531 1.386 . S
C530 C532 1.391 . S
C531 C530 1.386 . S
C531 C535 1.393 . S
C532 H521 0.950 . S
C532 C530 1.391 . S
C532 C533 1.400 . S
C533 C527 1.491 . S
C533 C532 1.400 . S
C533 C534 1.398 . S
C534 H522 0.950 . S
C534 C533 1.398 . S
C534 C535 1.391 . S
C535 H523 0.950 . S
C535 C531 1.393 . S
C535 C534 1.391 . S
H536 C544 0.950 . S
H537 C549 0.950 . S
H538 C546 0.950 . S
H539 C548 0.950 . S
H540 C550 0.950 . S
H541 C552 0.950 . S
H542 C554 0.950 . S
H543 C555 0.950 . S
C544 H536 0.950 . S
C544 C545 1.386 . S
C544 C546 1.391 . S
C545 C544 1.386 . S
C545 C549 1.393 . S
C546 H538 0.950 . S
C546 C544 1.391 . S
C546 C547 1.400 . S
C547 C546 1.400 . S
C547 C548 1.398 . S
C547 C553 1.491 . S
C548 H539 0.950 . S
C548 C547 1.398 . S
C548 C549 1.391 . S
C549 H537 0.950 . S
C549 C545 1.393 . S
C549 C548 1.391 . S
C550 H540 0.950 . S
C550 C551 1.386 . S
C550 C552 1.391 . S
C551 C550 1.386 . S
C551 C555 1.393 . S
C552 H541 0.950 . S
C552 C550 1.391 . S
C552 C553 1.400 . S
C553 C547 1.491 . S
C553 C552 1.400 . S
C553 C554 1.398 . S
C554 H542 0.950 . S
C554 C553 1.398 . S
C554 C555 1.391 . S
C555 H543 0.950 . S
C555 C551 1.393 . S
C555 C554 1.391 . S
H556 C564 0.950 . S
H557 C569 0.950 . S
H558 C566 0.950 . S
H559 C568 0.950 . S
H560 C570 0.950 . S
H561 C572 0.950 . S
H562 C574 0.950 . S
H563 C575 0.950 . S
C564 H556 0.950 . S
C564 C565 1.386 . S
C564 C566 1.391 . S
C565 C564 1.386 . S
C565 C569 1.393 . S
C566 H558 0.950 . S
C566 C564 1.391 . S
C566 C567 1.400 . S
C567 C566 1.400 . S
C567 C568 1.398 . S
C567 C573 1.491 . S
C568 H559 0.950 . S
C568 C567 1.398 . S
C568 C569 1.391 . S
C569 H557 0.950 . S
C569 C565 1.393 . S
C569 C568 1.391 . S
C570 H560 0.950 . S
C570 C571 1.386 . S
C570 C572 1.391 . S
C571 C570 1.386 . S
C571 C575 1.393 . S
C572 H561 0.950 . S
C572 C570 1.391 . S
C572 C573 1.400 . S
C573 C567 1.491 . S
C573 C572 1.400 . S
C573 C574 1.398 . S
C574 H562 0.950 . S
C574 C573 1.398 . S
C574 C575 1.391 . S
C575 H563 0.950 . S
C575 C571 1.393 . S
C575 C574 1.391 . S
H576 C584 0.950 . S
H577 C589 0.950 . S
H578 C586 0.950 . S
H579 C588 0.950 . S
H580 C590 0.950 . S
H581 C592 0.950 . S
H582 C594 0.950 . S
H583 C595 0.950 . S
C584 H576 0.950 . S
C584 C585 1.386 . S
C584 C586 1.391 . S
C585 C584 1.386 . S
C585 C589 1.393 . S
C586 H578 0.950 . S
C586 C584 1.391 . S
C586 C587 1.400 . S
C587 C586 1.400 . S
C587 C588 1.398 . S
C587 C593 1.491 . S
C588 H579 0.950 . S
C588 C587 1.398 . S
C588 C589 1.391 . S
C589 H577 0.950 . S
C589 C585 1.393 . S
C589 C588 1.391 . S
C590 H580 0.950 . S
C590 C591 1.386 . S
C590 C592 1.391 . S
C591 C590 1.386 . S
C591 C595 1.393 . S
C592 H581 0.950 . S
C592 C590 1.391 . S
C592 C593 1.400 . S
C593 C587 1.491 . S
C593 C592 1.400 . S
C593 C594 1.398 . S
C594 H582 0.950 . S
C594 C593 1.398 . S
C594 C595 1.391 . S
C595 H583 0.950 . S
C595 C591 1.393 . S
C595 C594 1.391 . S
H596 C604 0.950 . S
H597 C609 0.950 . S
H598 C606 0.950 . S
H599 C608 0.950 . S
H600 C610 0.950 . S
H601 C612 0.950 . S
H602 C614 0.950 . S
H603 C615 0.950 . S
C604 H596 0.950 . S
C604 C605 1.386 . S
C604 C606 1.391 . S
C605 C604 1.386 . S
C605 C609 1.393 . S
C606 H598 0.950 . S
C606 C604 1.391 . S
C606 C607 1.400 . S
C607 C606 1.400 . S
C607 C608 1.398 . S
C607 C613 1.491 . S
C608 H599 0.950 . S
C608 C607 1.398 . S
C608 C609 1.391 . S
C609 H597 0.950 . S
C609 C605 1.393 . S
C609 C608 1.391 . S
C610 H600 0.950 . S
C610 C611 1.386 . S
C610 C612 1.391 . S
C611 C610 1.386 . S
C611 C615 1.393 . S
C612 H601 0.950 . S
C612 C610 1.391 . S
C612 C613 1.400 . S
C613 C607 1.491 . S
C613 C612 1.400 . S
C613 C614 1.398 . S
C614 H602 0.950 . S
C614 C613 1.398 . S
C614 C615 1.391 . S
C615 H603 0.950 . S
C615 C611 1.393 . S
C615 C614 1.391 . S
H616 C624 0.950 . S
H617 C629 0.950 . S
H618 C626 0.950 . S
H619 C628 0.950 . S
H620 C630 0.950 . S
H621 C632 0.950 . S
H622 C634 0.950 . S
H623 C635 0.950 . S
C624 H616 0.950 . S
C624 C625 1.386 . S
C624 C626 1.391 . S
C625 C624 1.386 . S
C625 C629 1.393 . S
C626 H618 0.950 . S
C626 C624 1.391 . S
C626 C627 1.400 . S
C627 C626 1.400 . S
C627 C628 1.398 . S
C627 C633 1.491 . S
C628 H619 0.950 . S
C628 C627 1.398 . S
C628 C629 1.391 . S
C629 H617 0.950 . S
C629 C625 1.393 . S
C629 C628 1.391 . S
C630 H620 0.950 . S
C630 C631 1.386 . S
C630 C632 1.391 . S
C631 C630 1.386 . S
C631 C635 1.393 . S
C632 H621 0.950 . S
C632 C630 1.391 . S
C632 C633 1.400 . S
C633 C627 1.491 . S
C633 C632 1.400 . S
C633 C634 1.398 . S
C634 H622 0.950 . S
C634 C633 1.398 . S
C634 C635 1.391 . S
C635 H623 0.950 . S
C635 C631 1.393 . S
C635 C634 1.391 . S
H636 C644 0.950 . S
H637 C649 0.950 . S
H638 C646 0.950 . S
H639 C648 0.950 . S
H640 C650 0.950 . S
H641 C652 0.950 . S
H642 C654 0.950 . S
H643 C655 0.950 . S
C644 H636 0.950 . S
C644 C645 1.386 . S
C644 C646 1.391 . S
C645 C644 1.386 . S
C645 C649 1.393 . S
C646 H638 0.950 . S
C646 C644 1.391 . S
C646 C647 1.400 . S
C647 C646 1.400 . S
C647 C648 1.398 . S
C647 C653 1.491 . S
C648 H639 0.950 . S
C648 C647 1.398 . S
C648 C649 1.391 . S
C649 H637 0.950 . S
C649 C645 1.393 . S
C649 C648 1.391 . S
C650 H640 0.950 . S
C650 C651 1.386 . S
C650 C652 1.391 . S
C651 C650 1.386 . S
C651 C655 1.393 . S
C652 H641 0.950 . S
C652 C650 1.391 . S
C652 C653 1.400 . S
C653 C647 1.491 . S
C653 C652 1.400 . S
C653 C654 1.398 . S
C654 H642 0.950 . S
C654 C653 1.398 . S
C654 C655 1.391 . S
C655 H643 0.950 . S
C655 C651 1.393 . S
C655 C654 1.391 . S
H656 C664 0.950 . S
H657 C669 0.950 . S
H658 C666 0.950 . S
H659 C668 0.950 . S
H660 C670 0.950 . S
H661 C672 0.950 . S
H662 C674 0.950 . S
H663 C675 0.950 . S
C664 H656 0.950 . S
C664 C665 1.386 . S
C664 C666 1.391 . S
C665 C664 1.386 . S
C665 C669 1.393 . S
C666 H658 0.950 . S
C666 C664 1.391 . S
C666 C667 1.400 . S
C667 C666 1.400 . S
C667 C668 1.398 . S
C667 C673 1.491 . S
C668 H659 0.950 . S
C668 C667 1.398 . S
C668 C669 1.391 . S
C669 H657 0.950 . S
C669 C665 1.393 . S
C669 C668 1.391 . S
C670 H660 0.950 . S
C670 C671 1.386 . S
C670 C672 1.391 . S
C671 C670 1.386 . S
C671 C675 1.393 . S
C672 H661 0.950 . S
C672 C670 1.391 . S
C672 C673 1.400 . S
C673 C667 1.491 . S
C673 C672 1.400 . S
C673 C674 1.398 . S
C674 H662 0.950 . S
C674 C673 1.398 . S
C674 C675 1.391 . S
C675 H663 0.950 . S
C675 C671 1.393 . S
C675 C674 1.391 . S
H676 C684 0.950 . S
H677 C689 0.950 . S
H678 C686 0.950 . S
H679 C688 0.950 . S
H680 C690 0.950 . S
H681 C692 0.950 . S
H682 C694 0.950 . S
H683 C695 0.950 . S
C684 H676 0.950 . S
C684 C685 1.386 . S
C684 C686 1.391 . S
C685 C684 1.386 . S
C685 C689 1.393 . S
C686 H678 0.950 . S
C686 C684 1.391 . S
C686 C687 1.400 . S
C687 C686 1.400 . S
C687 C688 1.398 . S
C687 C693 1.491 . S
C688 H679 0.950 . S
C688 C687 1.398 . S
C688 C689 1.391 . S
C689 H677 0.950 . S
C689 C685 1.393 . S
C689 C688 1.391 . S
C690 H680 0.950 . S
C690 C691 1.386 . S
C690 C692 1.391 . S
C691 C690 1.386 . S
C691 C695 1.393 . S
C692 H681 0.950 . S
C692 C690 1.391 . S
C692 C693 1.400 . S
C693 C687 1.491 . S
C693 C692 1.400 . S
C693 C694 1.398 . S
C694 H682 0.950 . S
C694 C693 1.398 . S
C694 C695 1.391 . S
C695 H683 0.950 . S
C695 C691 1.393 . S
C695 C694 1.391 . S
H696 C704 0.950 . S
H697 C709 0.950 . S
H698 C706 0.950 . S
H699 C708 0.950 . S
H700 C710 0.950 . S
H701 C712 0.950 . S
H702 C714 0.950 . S
H703 C715 0.950 . S
C704 H696 0.950 . S
C704 C705 1.386 . S
C704 C706 1.391 . S
C705 C704 1.386 . S
C705 C709 1.393 . S
C706 H698 0.950 . S
C706 C704 1.391 . S
C706 C707 1.400 . S
C707 C706 1.400 . S
C707 C708 1.398 . S
C707 C713 1.491 . S
C708 H699 0.950 . S
C708 C707 1.398 . S
C708 C709 1.391 . S
C709 H697 0.950 . S
C709 C705 1.393 . S
C709 C708 1.391 . S
C710 H700 0.950 . S
C710 C711 1.386 . S
C710 C712 1.391 . S
C711 C710 1.386 . S
C711 C715 1.393 . S
C712 H701 0.950 . S
C712 C710 1.391 . S
C712 C713 1.400 . S
C713 C707 1.491 . S
C713 C712 1.400 . S
C713 C714 1.398 . S
C714 H702 0.950 . S
C714 C713 1.398 . S
C714 C715 1.391 . S
C715 H703 0.950 . S
C715 C711 1.393 . S
C715 C714 1.391 . S
H716 C724 0.950 . S
H717 C729 0.950 . S
H718 C726 0.950 . S
H719 C728 0.950 . S
H720 C730 0.950 . S
H721 C732 0.950 . S
H722 C734 0.950 . S
H723 C735 0.950 . S
C724 H716 0.950 . S
C724 C725 1.386 . S
C724 C726 1.391 . S
C725 C724 1.386 . S
C725 C729 1.393 . S
C726 H718 0.950 . S
C726 C724 1.391 . S
C726 C727 1.400 . S
C727 C726 1.400 . S
C727 C728 1.398 . S
C727 C733 1.491 . S
C728 H719 0.950 . S
C728 C727 1.398 . S
C728 C729 1.391 . S
C729 H717 0.950 . S
C729 C725 1.393 . S
C729 C728 1.391 . S
C730 H720 0.950 . S
C730 C731 1.386 . S
C730 C732 1.391 . S
C731 C730 1.386 . S
C731 C735 1.393 . S
C732 H721 0.950 . S
C732 C730 1.391 . S
C732 C733 1.400 . S
C733 C727 1.491 . S
C733 C732 1.400 . S
C733 C734 1.398 . S
C734 H722 0.950 . S
C734 C733 1.398 . S
C734 C735 1.391 . S
C735 H723 0.950 . S
C735 C731 1.393 . S
C735 C734 1.391 . S
H736 C744 0.950 . S
H737 C749 0.950 . S
H738 C746 0.950 . S
H739 C748 0.950 . S
H740 C750 0.950 . S
H741 C752 0.950 . S
H742 C754 0.950 . S
H743 C755 0.950 . S
C744 H736 0.950 . S
C744 C745 1.386 . S
C744 C746 1.391 . S
C745 C744 1.386 . S
C745 C749 1.393 . S
C746 H738 0.950 . S
C746 C744 1.391 . S
C746 C747 1.400 . S
C747 C746 1.400 . S
C747 C748 1.398 . S
C747 C753 1.491 . S
C748 H739 0.950 . S
C748 C747 1.398 . S
C748 C749 1.391 . S
C749 H737 0.950 . S
C749 C745 1.393 . S
C749 C748 1.391 . S
C750 H740 0.950 . S
C750 C751 1.386 . S
C750 C752 1.391 . S
C751 C750 1.386 . S
C751 C755 1.393 . S
C752 H741 0.950 . S
C752 C750 1.391 . S
C752 C753 1.400 . S
C753 C747 1.491 . S
C753 C752 1.400 . S
C753 C754 1.398 . S
C754 H742 0.950 . S
C754 C753 1.398 . S
C754 C755 1.391 . S
C755 H743 0.950 . S
C755 C751 1.393 . S
C755 C754 1.391 . S
H756 C764 0.950 . S
H757 C769 0.950 . S
H758 C766 0.950 . S
H759 C768 0.950 . S
H760 C770 0.950 . S
H761 C772 0.950 . S
H762 C774 0.950 . S
H763 C775 0.950 . S
C764 H756 0.950 . S
C764 C765 1.386 . S
C764 C766 1.391 . S
C765 C764 1.386 . S
C765 C769 1.393 . S
C766 H758 0.950 . S
C766 C764 1.391 . S
C766 C767 1.400 . S
C767 C766 1.400 . S
C767 C768 1.398 . S
C767 C773 1.491 . S
C768 H759 0.950 . S
C768 C767 1.398 . S
C768 C769 1.391 . S
C769 H757 0.950 . S
C769 C765 1.393 . S
C769 C768 1.391 . S
C770 H760 0.950 . S
C770 C771 1.386 . S
C770 C772 1.391 . S
C771 C770 1.386 . S
C771 C775 1.393 . S
C772 H761 0.950 . S
C772 C770 1.391 . S
C772 C773 1.400 . S
C773 C767 1.491 . S
C773 C772 1.400 . S
C773 C774 1.398 . S
C774 H762 0.950 . S
C774 C773 1.398 . S
C774 C775 1.391 . S
C775 H763 0.950 . S
C775 C771 1.393 . S
C775 C774 1.391 . S
H776 C784 0.950 . S
H777 C789 0.950 . S
H778 C786 0.950 . S
H779 C788 0.950 . S
H780 C790 0.950 . S
H781 C792 0.950 . S
H782 C794 0.950 . S
H783 C795 0.950 . S
C784 H776 0.950 . S
C784 C785 1.386 . S
C784 C786 1.391 . S
C785 C784 1.386 . S
C785 C789 1.393 . S
C786 H778 0.950 . S
C786 C784 1.391 . S
C786 C787 1.400 . S
C787 C786 1.400 . S
C787 C788 1.398 . S
C787 C793 1.491 . S
C788 H779 0.950 . S
C788 C787 1.398 . S
C788 C789 1.391 . S
C789 H777 0.950 . S
C789 C785 1.393 . S
C789 C788 1.391 . S
C790 H780 0.950 . S
C790 C791 1.386 . S
C790 C792 1.391 . S
C791 C790 1.386 . S
C791 C795 1.393 . S
C792 H781 0.950 . S
C792 C790 1.391 . S
C792 C793 1.400 . S
C793 C787 1.491 . S
C793 C792 1.400 . S
C793 C794 1.398 . S
C794 H782 0.950 . S
C794 C793 1.398 . S
C794 C795 1.391 . S
C795 H783 0.950 . S
C795 C791 1.393 . S
C795 C794 1.391 . S
H796 C804 0.950 . S
H797 C809 0.950 . S
H798 C806 0.950 . S
H799 C808 0.950 . S
H800 C810 0.950 . S
H801 C812 0.950 . S
H802 C814 0.950 . S
H803 C815 0.950 . S
C804 H796 0.950 . S
C804 C805 1.386 . S
C804 C806 1.391 . S
C805 C804 1.386 . S
C805 C809 1.393 . S
C806 H798 0.950 . S
C806 C804 1.391 . S
C806 C807 1.400 . S
C807 C806 1.400 . S
C807 C808 1.398 . S
C807 C813 1.491 . S
C808 H799 0.950 . S
C808 C807 1.398 . S
C808 C809 1.391 . S
C809 H797 0.950 . S
C809 C805 1.393 . S
C809 C808 1.391 . S
C810 H800 0.950 . S
C810 C811 1.386 . S
C810 C812 1.391 . S
C811 C810 1.386 . S
C811 C815 1.393 . S
C812 H801 0.950 . S
C812 C810 1.391 . S
C812 C813 1.400 . S
C813 C807 1.491 . S
C813 C812 1.400 . S
C813 C814 1.398 . S
C814 H802 0.950 . S
C814 C813 1.398 . S
C814 C815 1.391 . S
C815 H803 0.950 . S
C815 C811 1.393 . S
C815 C814 1.391 . S
H816 C824 0.950 . S
H817 C829 0.950 . S
H818 C826 0.950 . S
H819 C828 0.950 . S
H820 C830 0.950 . S
H821 C832 0.950 . S
H822 C834 0.950 . S
H823 C835 0.950 . S
C824 H816 0.950 . S
C824 C825 1.386 . S
C824 C826 1.391 . S
C825 C824 1.386 . S
C825 C829 1.393 . S
C826 H818 0.950 . S
C826 C824 1.391 . S
C826 C827 1.400 . S
C827 C826 1.400 . S
C827 C828 1.398 . S
C827 C833 1.491 . S
C828 H819 0.950 . S
C828 C827 1.398 . S
C828 C829 1.391 . S
C829 H817 0.950 . S
C829 C825 1.393 . S
C829 C828 1.391 . S
C830 H820 0.950 . S
C830 C831 1.386 . S
C830 C832 1.391 . S
C831 C830 1.386 . S
C831 C835 1.393 . S
C832 H821 0.950 . S
C832 C830 1.391 . S
C832 C833 1.400 . S
C833 C827 1.491 . S
C833 C832 1.400 . S
C833 C834 1.398 . S
C834 H822 0.950 . S
C834 C833 1.398 . S
C834 C835 1.391 . S
C835 H823 0.950 . S
C835 C831 1.393 . S
C835 C834 1.391 . S
H836 C844 0.950 . S
H837 C849 0.950 . S
H838 C846 0.950 . S
H839 C848 0.950 . S
H840 C850 0.950 . S
H841 C852 0.950 . S
H842 C854 0.950 . S
H843 C855 0.950 . S
C844 H836 0.950 . S
C844 C845 1.386 . S
C844 C846 1.391 . S
C845 C844 1.386 . S
C845 C849 1.393 . S
C846 H838 0.950 . S
C846 C844 1.391 . S
C846 C847 1.400 . S
C847 C846 1.400 . S
C847 C848 1.398 . S
C847 C853 1.491 . S
C848 H839 0.950 . S
C848 C847 1.398 . S
C848 C849 1.391 . S
C849 H837 0.950 . S
C849 C845 1.393 . S
C849 C848 1.391 . S
C850 H840 0.950 . S
C850 C851 1.386 . S
C850 C852 1.391 . S
C851 C850 1.386 . S
C851 C855 1.393 . S
C852 H841 0.950 . S
C852 C850 1.391 . S
C852 C853 1.400 . S
C853 C847 1.491 . S
C853 C852 1.400 . S
C853 C854 1.398 . S
C854 H842 0.950 . S
C854 C853 1.398 . S
C854 C855 1.391 . S
C855 H843 0.950 . S
C855 C851 1.393 . S
C855 C854 1.391 . S
H856 C864 0.950 . S
H857 C869 0.950 . S
H858 C866 0.950 . S
H859 C868 0.950 . S
H860 C870 0.950 . S
H861 C872 0.950 . S
H862 C874 0.950 . S
H863 C875 0.950 . S
C864 H856 0.950 . S
C864 C865 1.386 . S
C864 C866 1.391 . S
C865 C864 1.386 . S
C865 C869 1.393 . S
C866 H858 0.950 . S
C866 C864 1.391 . S
C866 C867 1.400 . S
C867 C866 1.400 . S
C867 C868 1.398 . S
C867 C873 1.491 . S
C868 H859 0.950 . S
C868 C867 1.398 . S
C868 C869 1.391 . S
C869 H857 0.950 . S
C869 C865 1.393 . S
C869 C868 1.391 . S
C870 H860 0.950 . S
C870 C871 1.386 . S
C870 C872 1.391 . S
C871 C870 1.386 . S
C871 C875 1.393 . S
C872 H861 0.950 . S
C872 C870 1.391 . S
C872 C873 1.400 . S
C873 C867 1.491 . S
C873 C872 1.400 . S
C873 C874 1.398 . S
C874 H862 0.950 . S
C874 C873 1.398 . S
C874 C875 1.391 . S
C875 H863 0.950 . S
C875 C871 1.393 . S
C875 C874 1.391 . S
C411 C324 1.517 . S
C405 C16 1.516 . S
C431 C327 1.502 . S
C425 C55 1.502 . S
C451 C325 1.507 . S
C445 C99 1.511 . S
C471 C326 1.496 . S
C465 C138 1.498 . S
C491 C341 1.511 . S
C485 C1 1.510 . S
C511 C355 1.505 . S
C505 C40 1.505 . S
C525 C94 1.507 . S
C531 C381 1.504 . S
C551 C395 1.500 . S
C545 C133 1.504 . S
C571 C340 1.501 . S
C565 C60 1.501 . S
C585 C79 1.511 . S
C591 C354 1.508 . S
C611 C380 1.497 . S
C605 C118 1.499 . S
C631 C394 1.511 . S
C625 C21 1.511 . S
C645 C177 1.502 . S
C651 C339 1.499 . S
C671 C312 1.511 . S
C665 C211 1.510 . S
C685 C255 1.500 . S
C691 C338 1.497 . S
C705 C289 1.515 . S
C711 C313 1.516 . S
C731 C368 1.498 . S
C725 C157 1.500 . S
C751 C382 1.505 . S
C745 C196 1.511 . S
C771 C352 1.505 . S
C765 C250 1.504 . S
C785 C294 1.505 . S
C791 C366 1.502 . S
C811 C369 1.500 . S
C805 C216 1.502 . S
C831 C383 1.500 . S
C825 C235 1.503 . S
C851 C353 1.510 . S
C845 C274 1.508 . S
C865 C172 1.506 . S
C871 C367 1.503 . S
