# Generated by pormake.
# Topology tsx, (6,3)-cn, num edge types: 1
# Building blocks:
#     Node 0, Type 0, BuildingBlock: JUFBIX_clean_sbu_0, # of connection points: 6
#     Node 1, Type 0, BuildingBlock: JUFBIX_clean_sbu_0, # of connection points: 6
#     Node 2, Type 1, BuildingBlock: MIDCAF_clean_linker_0, # of connection points: 3
#     Node 3, Type 1, BuildingBlock: MIDCAF_clean_linker_0, # of connection points: 3
#     Node 4, Type 1, BuildingBlock: MIDCAF_clean_linker_0, # of connection points: 3
#     Node 5, Type 1, BuildingBlock: MIDCAF_clean_linker_0, # of connection points: 3
#     Edge 6, Type (0, 1), BuildingBlock: KIFKEQ_clean_linker_1, # of connection points: 2
#     Edge 7, Type (0, 1), BuildingBlock: KIFKEQ_clean_linker_1, # of connection points: 2
#     Edge 8, Type (0, 1), BuildingBlock: KIFKEQ_clean_linker_1, # of connection points: 2
#     Edge 9, Type (0, 1), BuildingBlock: KIFKEQ_clean_linker_1, # of connection points: 2
#     Edge 10, Type (0, 1), BuildingBlock: KIFKEQ_clean_linker_1, # of connection points: 2
#     Edge 11, Type (0, 1), BuildingBlock: KIFKEQ_clean_linker_1, # of connection points: 2
#     Edge 12, Type (0, 1), BuildingBlock: KIFKEQ_clean_linker_1, # of connection points: 2
#     Edge 13, Type (0, 1), BuildingBlock: KIFKEQ_clean_linker_1, # of connection points: 2
#     Edge 14, Type (0, 1), BuildingBlock: KIFKEQ_clean_linker_1, # of connection points: 2
#     Edge 15, Type (0, 1), BuildingBlock: KIFKEQ_clean_linker_1, # of connection points: 2
#     Edge 16, Type (0, 1), BuildingBlock: KIFKEQ_clean_linker_1, # of connection points: 2
#     Edge 17, Type (0, 1), BuildingBlock: KIFKEQ_clean_linker_1, # of connection points: 2
# Relax obj value: 0.160
# Max RMSD: 0.167
# Mean RMSD: 0.135
data_MOF--net-tsx--node1-JUFBIX_clean_sbu_0--node2-MIDCAF_clean_linker_0--edge1-KIFKEQ_clean_linker_1
_symmetry_space_group_name_H-M    P1
_symmetry_Int_Tables_number       1
_symmetry_cell_setting            triclinic
loop_
_symmetry_equiv_pos_as_xyz
'x, y, z'
_cell_length_a     24.184578
_cell_length_b     28.632525
_cell_length_c     44.054379
_cell_angle_alpha  92.340032
_cell_angle_beta   89.589793
_cell_angle_gamma 97.677825
loop_
_atom_site_label
_atom_site_type_symbol
_atom_site_fract_x
_atom_site_fract_y
_atom_site_fract_z
_atom_type_partial_charge
Co0 Co 0.04895 0.99576 0.01296 0.0
C1 C 0.00546 0.0233 0.95834 0.0
Co2 Co 0.97869 0.03808 0.01788 0.0
C3 C 0.12225 0.92253 0.01668 0.0
C4 C 0.1544 0.97912 0.98852 0.0
N5 N 0.11059 0.96399 0.0063 0.0
N6 N 0.17185 0.91146 0.00614 0.0
C7 C 0.19192 0.94714 0.9884 0.0
H8 H 0.09492 0.90102 0.03169 0.0
H9 H 0.15848 0.01119 0.97606 0.0
C10 C 0.02212 0.01086 0.07256 0.0
N11 N 0.91705 0.06981 0.02507 0.0
C12 C 0.90604 0.11245 0.0164 0.0
C13 C 0.87346 0.05389 0.0428 0.0
N14 N 0.85737 0.12369 0.02822 0.0
C15 C 0.83687 0.0866 0.04468 0.0
C16 C 0.94849 0.93965 0.01224 0.0
O17 O 0.05447 0.98972 0.05562 0.0
O18 O 0.98711 0.03389 0.06054 0.0
O19 O 0.93077 0.97934 0.01612 0.0
O20 O 1.00063 0.93826 0.01005 0.0
O21 O 0.97123 0.04217 0.97538 0.0
H22 H 0.86888 0.02076 0.05409 0.0
H23 H 0.93392 0.13522 0.00236 0.0
O24 O 0.04232 0.00205 0.9703 0.0
O25 O 0.09693 0.05401 0.01593 0.0
O26 O 0.02735 0.09596 0.01913 0.0
C27 C 0.07952 0.09399 0.01794 0.0
H28 H 0.23035 0.94947 0.97548 0.0
H29 H 0.79796 0.08305 0.05718 0.0
Co30 Co 0.53966 0.48776 0.51115 0.0
C31 C 0.49641 0.51576 0.45648 0.0
Co32 Co 0.4723 0.53306 0.51603 0.0
C33 C 0.61422 0.41505 0.51599 0.0
C34 C 0.64203 0.46875 0.48479 0.0
N35 N 0.60004 0.45467 0.50405 0.0
N36 N 0.66384 0.40461 0.50515 0.0
C37 C 0.68113 0.43834 0.48549 0.0
H38 H 0.5892 0.39482 0.5326 0.0
H39 H 0.64419 0.49945 0.4711 0.0
C40 C 0.51537 0.50527 0.5708 0.0
N41 N 0.41218 0.56638 0.52351 0.0
C42 C 0.40296 0.60978 0.51543 0.0
C43 C 0.36824 0.55113 0.5412 0.0
N44 N 0.35511 0.62213 0.52761 0.0
C45 C 0.33323 0.58501 0.54366 0.0
C46 C 0.43754 0.43489 0.51127 0.0
O47 O 0.54793 0.48425 0.5539 0.0
O48 O 0.47995 0.52765 0.55858 0.0
O49 O 0.42252 0.47576 0.51366 0.0
O50 O 0.48924 0.4308 0.51036 0.0
O51 O 0.46532 0.53814 0.47349 0.0
H52 H 0.36245 0.51769 0.55215 0.0
H53 H 0.43158 0.63231 0.50163 0.0
O54 O 0.53051 0.49179 0.46851 0.0
O55 O 0.58938 0.54516 0.51184 0.0
O56 O 0.52295 0.58986 0.51786 0.0
C57 C 0.57443 0.58599 0.5147 0.0
H58 H 0.71907 0.44045 0.47213 0.0
H59 H 0.29448 0.58229 0.5563 0.0
C60 C 0.85452 0.10452 0.45641 0.0
C61 C 0.865 0.12443 0.48571 0.0
C62 C 0.90524 0.1077 0.50377 0.0
C63 C 0.93725 0.07377 0.49173 0.0
H64 H 0.03752 0.94996 0.50487 0.0
H65 H 0.09842 0.89876 0.5274 0.0
H66 H 0.20239 0.90869 0.44711 0.0
H67 H 0.14303 0.95987 0.42517 0.0
H68 H 0.09852 0.99776 0.36332 0.0
H69 H 0.10205 0.99803 0.30816 0.0
H70 H 0.92329 0.99897 0.30581 0.0
H71 H 0.92091 0.00204 0.36104 0.0
H72 H 0.87777 0.05754 0.42136 0.0
H73 H 0.8234 0.11665 0.44218 0.0
H74 H 0.91409 0.12276 0.52646 0.0
H75 H 0.97001 0.06325 0.50549 0.0
N76 N 0.00637 0.0065 0.46202 0.0
N77 N 0.04539 0.98177 0.41601 0.0
N78 N 0.96975 0.02448 0.41523 0.0
C79 C 0.04475 0.98338 0.44688 0.0
C80 C 0.00794 0.00192 0.40005 0.0
C81 C 0.96874 0.02738 0.44612 0.0
C82 C 0.08497 0.9585 0.46307 0.0
C83 C 0.07405 0.94189 0.4924 0.0
C84 C 0.10871 0.9123 0.50517 0.0
C85 C 0.15519 0.89932 0.48899 0.0
C86 C 0.16748 0.91821 0.46043 0.0
C87 C 0.13293 0.94733 0.44768 0.0
C88 C 0.00949 1.00014 0.36647 0.0
C89 C 0.06004 0.99802 0.35093 0.0
C90 C 0.0619 0.99781 0.3192 0.0
C91 C 0.01298 0.99857 0.30215 0.0
C92 C 0.96218 0.99958 0.31791 0.0
C93 C 0.96061 1.00098 0.34966 0.0
C94 C 0.92927 0.05626 0.4615 0.0
C95 C 0.88597 0.07074 0.4445 0.0
C96 C 0.89461 0.86046 0.5704 0.0
C97 C 0.8718 0.86314 0.54142 0.0
C98 C 0.88509 0.90484 0.52552 0.0
C99 C 0.91943 0.94352 0.53884 0.0
H100 H 0.07058 0.05593 0.52771 0.0
H101 H 0.13434 0.11875 0.50478 0.0
H102 H 0.12412 0.20696 0.58603 0.0
H103 H 0.06048 0.14545 0.60849 0.0
H104 H 0.04163 0.09406 0.67097 0.0
H105 H 0.0399 0.0956 0.72632 0.0
H106 H 0.93653 0.96028 0.7239 0.0
H107 H 0.93889 0.95813 0.6687 0.0
H108 H 0.94368 0.89588 0.60648 0.0
H109 H 0.88469 0.82913 0.58342 0.0
H110 H 0.86827 0.90773 0.50305 0.0
H111 H 0.92797 0.97567 0.52651 0.0
N112 N 0.99959 0.01878 0.56968 0.0
N113 N 0.02284 0.05909 0.61638 0.0
N114 N 0.96731 0.98589 0.61557 0.0
C115 C 0.02629 0.05697 0.58554 0.0
C116 C 0.99342 0.02374 0.63158 0.0
C117 C 0.96996 0.98307 0.58476 0.0
C118 C 0.06064 0.0956 0.56999 0.0
C119 C 0.08137 0.08906 0.54041 0.0
C120 C 0.11815 0.12483 0.52737 0.0
C121 C 0.1342 0.16783 0.54358 0.0
C122 C 0.11204 0.17459 0.57273 0.0
C123 C 0.07582 0.13902 0.58574 0.0
C124 C 0.9907 0.02583 0.66526 0.0
C125 C 0.01838 0.06465 0.68219 0.0
C126 C 0.01713 0.06571 0.71395 0.0
C127 C 0.98827 0.02798 0.7295 0.0
C128 C 0.95984 0.98959 0.7126 0.0
C129 C 0.96101 0.98851 0.68089 0.0
C130 C 0.93998 0.94122 0.56845 0.0
C131 C 0.9281 0.89897 0.58375 0.0
C132 C 0.35661 0.60861 0.95614 0.0
C133 C 0.36412 0.62535 0.98645 0.0
C134 C 0.40562 0.60873 0.00382 0.0
C135 C 0.43983 0.57729 0.99078 0.0
H136 H 0.53538 0.44976 0.00248 0.0
H137 H 0.59456 0.39684 0.02483 0.0
H138 H 0.70005 0.40696 0.94514 0.0
H139 H 0.64246 0.45965 0.92339 0.0
H140 H 0.58146 0.46376 0.8607 0.0
H141 H 0.58636 0.46328 0.80548 0.0
H142 H 0.45348 0.55006 0.80396 0.0
H143 H 0.44906 0.55136 0.85918 0.0
H144 H 0.38416 0.56661 0.91951 0.0
H145 H 0.32582 0.62101 0.94186 0.0
H146 H 0.41221 0.62057 0.02734 0.0
H147 H 0.47219 0.56603 0.00448 0.0
N148 N 0.5083 0.51 0.96027 0.0
N149 N 0.54694 0.48521 0.91418 0.0
N150 N 0.4757 0.53257 0.91359 0.0
C151 C 0.5454 0.4856 0.94503 0.0
C152 C 0.51233 0.50845 0.89825 0.0
C153 C 0.47324 0.53373 0.94447 0.0
C154 C 0.5838 0.45855 0.961 0.0
C155 C 0.57182 0.44125 0.99008 0.0
C156 C 0.60548 0.41069 0.00275 0.0
C157 C 0.65206 0.39749 0.98675 0.0
C158 C 0.6651 0.41668 0.95835 0.0
C159 C 0.63154 0.44668 0.9457 0.0
C160 C 0.5149 0.50769 0.86454 0.0
C161 C 0.55322 0.4828 0.84867 0.0
C162 C 0.55588 0.48227 0.81694 0.0
C163 C 0.5204 0.50668 0.80028 0.0
C164 C 0.48199 0.53144 0.81611 0.0
C165 C 0.47926 0.53194 0.84783 0.0
C166 C 0.4336 0.56229 0.96004 0.0
C167 C 0.39072 0.57761 0.94317 0.0
C168 C 0.40597 0.3679 0.05932 0.0
C169 C 0.36942 0.37795 0.03664 0.0
C170 C 0.3722 0.42429 0.02684 0.0
C171 C 0.41018 0.46036 0.04026 0.0
H172 H 0.56771 0.56843 0.02425 0.0
H173 H 0.6392 0.62643 0.00228 0.0
H174 H 0.68602 0.68222 0.09229 0.0
H175 H 0.61515 0.62578 0.11419 0.0
H176 H 0.56136 0.58694 0.17054 0.0
H177 H 0.55581 0.58827 0.22565 0.0
H178 H 0.43171 0.46486 0.22105 0.0
H179 H 0.43647 0.4637 0.1657 0.0
H180 H 0.46869 0.39572 0.09166 0.0
H181 H 0.40416 0.33247 0.06738 0.0
H182 H 0.34414 0.4327 0.00942 0.0
H183 H 0.41066 0.49617 0.03315 0.0
N184 N 0.51261 0.5225 0.06811 0.0
N185 N 0.53913 0.55713 0.11591 0.0
N186 N 0.47355 0.48945 0.11275 0.0
C187 C 0.54405 0.55675 0.08516 0.0
C188 C 0.5039 0.52391 0.12991 0.0
C189 C 0.47751 0.48871 0.08196 0.0
C190 C 0.58544 0.59234 0.07102 0.0
C191 C 0.59291 0.59336 0.03931 0.0
C192 C 0.63384 0.6264 0.02671 0.0
C193 C 0.66847 0.65825 0.04567 0.0
C194 C 0.66054 0.65748 0.0772 0.0
C195 C 0.61952 0.62516 0.08971 0.0
C196 C 0.49955 0.52505 0.16355 0.0
C197 C 0.53271 0.56006 0.18114 0.0
C198 C 0.52975 0.56076 0.21281 0.0
C199 C 0.49353 0.52656 0.22771 0.0
C200 C 0.45967 0.49197 0.21021 0.0
C201 C 0.46271 0.49116 0.17847 0.0
C202 C 0.44431 0.45053 0.06419 0.0
C203 C 0.44261 0.40399 0.07325 0.0
H204 H 0.06079 0.18353 0.00547 0.0
H205 H 0.19016 0.10221 0.03066 0.0
H206 H 0.12961 0.2541 0.00382 0.0
H207 H 0.25811 0.17254 0.03058 0.0
H208 H 0.38215 0.29357 0.00882 0.0
H209 H 0.31007 0.22631 0.99988 0.0
H210 H 0.18554 0.31 0.0347 0.0
H211 H 0.25762 0.37772 0.04181 0.0
C212 C 0.10383 0.18089 0.01095 0.0
C213 C 0.12012 0.13739 0.01817 0.0
C214 C 0.14331 0.22132 0.01006 0.0
C215 C 0.19975 0.21918 0.0168 0.0
C216 C 0.21553 0.17555 0.02439 0.0
C217 C 0.17636 0.13517 0.0248 0.0
C218 C 0.33905 0.29765 0.01373 0.0
C219 C 0.32516 0.34055 0.02591 0.0
C220 C 0.29778 0.25907 0.00903 0.0
C221 C 0.24193 0.26223 0.01721 0.0
C222 C 0.22784 0.30615 0.0279 0.0
C223 C 0.26907 0.34502 0.03201 0.0
H224 H 0.12063 0.82414 0.01963 0.0
H225 H 0.28211 0.90368 0.00388 0.0
H226 H 0.16436 0.75228 0.02283 0.0
H227 H 0.32528 0.8322 0.00561 0.0
H228 H 0.4008 0.70368 0.02249 0.0
H229 H 0.35173 0.77107 0.03475 0.0
H230 H 0.20539 0.70048 0.98819 0.0
H231 H 0.25338 0.63226 0.97745 0.0
C232 C 0.16545 0.82645 0.01719 0.0
C233 C 0.19768 0.86968 0.01108 0.0
C234 C 0.19053 0.78515 0.01872 0.0
C235 C 0.24845 0.78615 0.01427 0.0
C236 C 0.28076 0.82985 0.0095 0.0
C237 C 0.25578 0.87094 0.00802 0.0
C238 C 0.35761 0.70192 0.01567 0.0
C239 C 0.33141 0.66274 0.99855 0.0
C240 C 0.32964 0.74091 0.02234 0.0
C241 C 0.27482 0.7418 0.01196 0.0
C242 C 0.24742 0.70125 0.99667 0.0
C243 C 0.27527 0.66221 0.99015 0.0
H244 H 0.97229 0.84883 0.00808 0.0
H245 H 0.83471 0.93095 0.01345 0.0
H246 H 0.90654 0.7764 0.00932 0.0
H247 H 0.76928 0.85866 0.01507 0.0
H248 H 0.77684 0.67514 0.06321 0.0
H249 H 0.84617 0.74062 0.04952 0.0
H250 H 0.72964 0.78557 0.98653 0.0
H251 H 0.65965 0.71999 0.00074 0.0
C252 C 0.92805 0.85144 0.00929 0.0
C253 C 0.90874 0.89565 0.01096 0.0
C254 C 0.89043 0.80996 0.01003 0.0
C255 C 0.83275 0.81183 0.01234 0.0
C256 C 0.81339 0.856 0.01289 0.0
C257 C 0.85097 0.89745 0.01225 0.0
C258 C 0.7664 0.69863 0.04609 0.0
C259 C 0.71283 0.69293 0.03324 0.0
C260 C 0.80621 0.73591 0.03807 0.0
C261 C 0.79323 0.76846 0.0171 0.0
C262 C 0.74056 0.76129 0.00301 0.0
C263 C 0.70074 0.72363 0.01091 0.0
H264 H 0.7849 0.16039 0.06683 0.0
H265 H 0.87243 0.18418 0.98188 0.0
H266 H 0.73771 0.22892 0.05976 0.0
H267 H 0.82533 0.25332 0.97495 0.0
H268 H 0.76547 0.3975 0.9843 0.0
H269 H 0.8179 0.3334 0.99599 0.0
H270 H 0.66613 0.25132 0.0262 0.0
H271 H 0.61356 0.31521 0.01424 0.0
C272 C 0.79396 0.18001 0.04652 0.0
C273 C 0.83213 0.1662 0.02472 0.0
C274 C 0.76688 0.21948 0.04253 0.0
C275 C 0.77739 0.24648 0.01672 0.0
C276 C 0.81666 0.23356 0.99527 0.0
C277 C 0.8437 0.19388 0.99923 0.0
C278 C 0.74327 0.36584 0.99355 0.0
C279 C 0.68513 0.36142 0.9981 0.0
C280 C 0.77335 0.32905 0.00016 0.0
C281 C 0.74618 0.28701 0.01171 0.0
C282 C 0.68848 0.28337 0.01754 0.0
C283 C 0.65832 0.32012 0.01081 0.0
H284 H 0.56355 0.67768 0.53145 0.0
H285 H 0.68161 0.58927 0.49506 0.0
H286 H 0.63648 0.74561 0.53219 0.0
H287 H 0.75355 0.65706 0.49465 0.0
H288 H 0.88119 0.76945 0.5417 0.0
H289 H 0.80842 0.7038 0.53155 0.0
H290 H 0.69791 0.8006 0.50321 0.0
H291 H 0.77058 0.8668 0.51478 0.0
C292 C 0.60485 0.6729 0.52328 0.0
C293 C 0.61706 0.62802 0.51368 0.0
C294 C 0.64656 0.71188 0.52343 0.0
C295 C 0.7011 0.70679 0.51367 0.0
C296 C 0.71242 0.66214 0.50293 0.0
C297 C 0.67106 0.62324 0.50312 0.0
C298 C 0.84155 0.77668 0.53299 0.0
C299 C 0.8314 0.82328 0.52935 0.0
C300 C 0.79986 0.73898 0.52691 0.0
C301 C 0.74699 0.74686 0.51678 0.0
C302 C 0.73784 0.79335 0.51147 0.0
C303 C 0.7797 0.83122 0.51766 0.0
H304 H 0.77503 0.40602 0.50889 0.0
H305 H 0.619 0.31459 0.51602 0.0
H306 H 0.82581 0.33825 0.51053 0.0
H307 H 0.67012 0.24604 0.51757 0.0
H308 H 0.79291 0.13544 0.53339 0.0
H309 H 0.7437 0.20428 0.54489 0.0
H310 H 0.829 0.27564 0.46994 0.0
H311 H 0.87713 0.20758 0.45865 0.0
C312 C 0.75163 0.37136 0.51116 0.0
C313 C 0.69304 0.36546 0.5117 0.0
C314 C 0.7807 0.33256 0.51215 0.0
C315 C 0.75194 0.28673 0.51362 0.0
C316 C 0.69342 0.28097 0.51649 0.0
C317 C 0.66416 0.32011 0.51558 0.0
C318 C 0.80136 0.16626 0.51979 0.0
C319 C 0.83869 0.1665 0.49519 0.0
C320 C 0.77308 0.20537 0.52619 0.0
C321 C 0.78272 0.24546 0.50842 0.0
C322 C 0.82121 0.24569 0.48435 0.0
C323 C 0.8486 0.20667 0.47777 0.0
H324 H 0.44835 0.34366 0.52422 0.0
H325 H 0.32943 0.432 0.49452 0.0
H326 H 0.3738 0.27717 0.52648 0.0
H327 H 0.25576 0.36552 0.49536 0.0
H328 H 0.13038 0.26253 0.54574 0.0
H329 H 0.20451 0.32467 0.53372 0.0
H330 H 0.30641 0.22031 0.50054 0.0
H331 H 0.23257 0.15766 0.5142 0.0
C332 C 0.4065 0.34858 0.51766 0.0
C333 C 0.39448 0.39313 0.50971 0.0
C334 C 0.36381 0.31044 0.51872 0.0
C335 C 0.3085 0.31607 0.51146 0.0
C336 C 0.29747 0.36013 0.50188 0.0
C337 C 0.33979 0.39825 0.50128 0.0
C338 C 0.16848 0.2528 0.53573 0.0
C339 C 0.17585 0.20519 0.53127 0.0
C340 C 0.2109 0.28851 0.52848 0.0
C341 C 0.26175 0.27762 0.51624 0.0
C342 C 0.26813 0.22994 0.51035 0.0
C343 C 0.22556 0.19406 0.51778 0.0
H344 H 0.37083 0.68304 0.48158 0.0
H345 H 0.28645 0.66063 0.56755 0.0
H346 H 0.32584 0.75363 0.4756 0.0
H347 H 0.24138 0.73061 0.56145 0.0
H348 H 0.11688 0.81755 0.51694 0.0
H349 H 0.16906 0.75336 0.52851 0.0
H350 H 0.32062 0.83419 0.49695 0.0
H351 H 0.26853 0.89876 0.48568 0.0
C352 C 0.3433 0.6934 0.49936 0.0
C353 C 0.33177 0.66567 0.52482 0.0
C354 C 0.31751 0.73389 0.49596 0.0
C355 C 0.27962 0.74753 0.51795 0.0
C356 C 0.26947 0.7206 0.54382 0.0
C357 C 0.29529 0.68033 0.54724 0.0
C358 C 0.16154 0.82219 0.51317 0.0
C359 C 0.18837 0.86327 0.5002 0.0
C360 C 0.19148 0.78526 0.51968 0.0
C361 C 0.24895 0.78845 0.51335 0.0
C362 C 0.27622 0.83026 0.50154 0.0
C363 C 0.24634 0.86728 0.49516 0.0
H364 H 0.05255 0.94049 0.1064 0.0
H365 H 0.99696 0.07753 0.1139 0.0
H366 H 0.04975 0.93601 0.16162 0.0
H367 H 0.99786 0.07501 0.16888 0.0
H368 H 0.94788 0.04195 0.26407 0.0
H369 H 0.94995 0.04223 0.20929 0.0
H370 H 0.08898 0.96155 0.208 0.0
H371 H 0.08286 0.95683 0.26277 0.0
C372 C 0.04064 0.96997 0.11997 0.0
C373 C 0.02455 0.00916 0.10595 0.0
C374 C 0.0393 0.96763 0.15167 0.0
C375 C 0.02307 0.00498 0.17005 0.0
C376 C 0.00889 0.04484 0.15574 0.0
C377 C 0.00888 0.04658 0.12413 0.0
C378 C 0.97814 0.02324 0.25223 0.0
C379 C 0.01505 0.99923 0.26823 0.0
C380 C 0.98015 0.02428 0.22058 0.0
C381 C 0.02012 0.00241 0.20386 0.0
C382 C 0.05714 0.97842 0.21983 0.0
C383 C 0.05428 0.97646 0.2515 0.0
H384 H 0.93324 0.06634 0.92475 0.0
H385 H 0.07129 0.98507 0.91622 0.0
H386 H 0.92785 0.06795 0.86943 0.0
H387 H 0.06636 0.98733 0.86119 0.0
H388 H 1.00149 0.95447 0.76511 0.0
H389 H 0.00374 0.95403 0.82034 0.0
H390 H 0.98129 0.10131 0.82552 0.0
H391 H 0.97718 0.10136 0.7701 0.0
C392 C 0.96253 0.04899 0.91111 0.0
C393 C 1.00253 0.02541 0.92489 0.0
C394 C 0.95962 0.05013 0.87944 0.0
C395 C 0.99651 0.02757 0.86094 0.0
C396 C 0.03676 0.0044 0.87479 0.0
C397 C 0.03977 0.00335 0.90636 0.0
C398 C 0.99635 0.98663 0.77801 0.0
C399 C 0.98907 0.02793 0.76321 0.0
C400 C 0.99829 0.98652 0.80966 0.0
C401 C 0.99297 0.0277 0.8273 0.0
C402 C 0.98511 0.06894 0.81256 0.0
C403 C 0.98333 0.06909 0.78083 0.0
H404 H 0.45162 0.54756 0.61195 0.0
H405 H 0.58521 0.46126 0.60568 0.0
H406 H 0.45544 0.54738 0.66699 0.0
H407 H 0.58957 0.46175 0.6612 0.0
H408 H 0.53255 0.43226 0.76067 0.0
H409 H 0.53415 0.43157 0.70521 0.0
H410 H 0.51682 0.5799 0.7082 0.0
H411 H 0.51526 0.5806 0.7635 0.0
C412 C 0.48203 0.52865 0.62231 0.0
C413 C 0.51823 0.50449 0.60436 0.0
C414 C 0.48443 0.52883 0.65393 0.0
C415 C 0.52308 0.50487 0.66852 0.0
C416 C 0.55906 0.48031 0.65064 0.0
C417 C 0.55674 0.48019 0.61885 0.0
C418 C 0.52971 0.46483 0.74948 0.0
C419 C 0.52333 0.50642 0.76653 0.0
C420 C 0.53069 0.46443 0.7177 0.0
C421 C 0.52523 0.50559 0.70227 0.0
C422 C 0.52003 0.54735 0.71936 0.0
C423 C 0.51906 0.54776 0.75107 0.0
H424 H 0.42514 0.55902 0.42224 0.0
H425 H 0.56219 0.47648 0.41493 0.0
H426 H 0.42314 0.56256 0.36685 0.0
H427 H 0.55966 0.47961 0.35993 0.0
H428 H 0.58234 0.54019 0.26635 0.0
H429 H 0.58137 0.53917 0.32159 0.0
H430 H 0.40149 0.50979 0.32069 0.0
H431 H 0.40234 0.51211 0.26522 0.0
C432 C 0.45467 0.54155 0.40886 0.0
C433 C 0.49391 0.51759 0.423 0.0
C434 C 0.45332 0.54337 0.37716 0.0
C435 C 0.49143 0.52156 0.35906 0.0
C436 C 0.5303 0.49737 0.37326 0.0
C437 C 0.5315 0.49536 0.40482 0.0
C438 C 0.54252 0.53405 0.27792 0.0
C439 C 0.49241 0.52627 0.26141 0.0
C440 C 0.542 0.53298 0.30956 0.0
C441 C 0.49136 0.52418 0.32548 0.0
C442 C 0.44113 0.51697 0.30905 0.0
C443 C 0.44166 0.51782 0.27731 0.0
loop_
_geom_bond_atom_site_label_1
_geom_bond_atom_site_label_2
_geom_bond_distance
_geom_bond_site_symmetry_2
_ccdc_geom_bond_type
Co0 N5 2.057 . S
Co0 O17 2.021 . S
Co0 O20 2.062 1_455 S
Co0 O24 2.117 1_554 S
Co0 O25 2.020 1_565 S
C1 O21 1.259 1_455 S
C1 O24 1.258 1_545 S
Co2 N11 2.057 . S
Co2 O18 2.117 . S
Co2 O19 2.020 1_545 S
Co2 O21 2.021 1_554 S
Co2 O26 2.062 1_655 S
C3 N5 1.316 . S
C3 N6 1.347 . S
C3 H8 0.931 . S
C4 N5 1.375 1_556 S
C4 C7 1.350 . S
C4 H9 0.930 . S
N5 Co0 2.057 . S
N5 C3 1.316 . S
N5 C4 1.375 1_554 S
N6 C3 1.347 . S
N6 C7 1.373 1_554 S
C7 C4 1.350 . S
C7 N6 1.373 1_556 S
C7 H28 0.931 . S
H8 C3 0.931 . S
H9 C4 0.930 . S
C10 O17 1.259 1_545 S
C10 O18 1.258 1_455 S
N11 Co2 2.057 . S
N11 C12 1.316 . S
N11 C13 1.375 . S
C12 N11 1.316 . S
C12 N14 1.347 . S
C12 H23 0.931 1_554 S
C13 N11 1.375 . S
C13 C15 1.350 . S
C13 H22 0.930 . S
N14 C12 1.347 . S
N14 C15 1.373 . S
C15 C13 1.350 . S
C15 N14 1.373 . S
C15 H29 0.931 . S
C16 O19 1.256 . S
C16 O20 1.255 . S
O17 Co0 2.021 . S
O17 C10 1.259 1_565 S
O18 Co2 2.117 . S
O18 C10 1.258 1_655 S
O19 Co2 2.020 1_565 S
O19 C16 1.256 . S
O20 Co0 2.062 1_655 S
O20 C16 1.255 . S
O21 C1 1.259 1_655 S
O21 Co2 2.021 1_556 S
H22 C13 0.930 . S
H23 C12 0.931 1_556 S
O24 Co0 2.117 1_556 S
O24 C1 1.258 1_565 S
O25 Co0 2.020 1_545 S
O25 C27 1.256 . S
O26 Co2 2.062 1_455 S
O26 C27 1.255 . S
C27 O25 1.256 . S
C27 O26 1.255 . S
H28 C7 0.931 . S
H29 C15 0.931 . S
Co30 N35 2.057 . S
Co30 O47 2.021 . S
Co30 O50 2.062 . S
Co30 O54 2.117 . S
Co30 O55 2.020 . S
C31 O51 1.259 . S
C31 O54 1.258 . S
Co32 N41 2.057 . S
Co32 O48 2.117 . S
Co32 O49 2.020 . S
Co32 O51 2.021 . S
Co32 O56 2.062 . S
C33 N35 1.316 . S
C33 N36 1.347 . S
C33 H38 0.931 . S
C34 N35 1.375 . S
C34 C37 1.350 . S
C34 H39 0.930 . S
N35 Co30 2.057 . S
N35 C33 1.316 . S
N35 C34 1.375 . S
N36 C33 1.347 . S
N36 C37 1.373 . S
C37 C34 1.350 . S
C37 N36 1.373 . S
C37 H58 0.931 . S
H38 C33 0.931 . S
H39 C34 0.930 . S
C40 O47 1.259 . S
C40 O48 1.258 . S
N41 Co32 2.057 . S
N41 C42 1.316 . S
N41 C43 1.375 . S
C42 N41 1.316 . S
C42 N44 1.347 . S
C42 H53 0.931 . S
C43 N41 1.375 . S
C43 C45 1.350 . S
C43 H52 0.930 . S
N44 C42 1.347 . S
N44 C45 1.373 . S
C45 C43 1.350 . S
C45 N44 1.373 . S
C45 H59 0.931 . S
C46 O49 1.256 . S
C46 O50 1.255 . S
O47 Co30 2.021 . S
O47 C40 1.259 . S
O48 Co32 2.117 . S
O48 C40 1.258 . S
O49 Co32 2.020 . S
O49 C46 1.256 . S
O50 Co30 2.062 . S
O50 C46 1.255 . S
O51 C31 1.259 . S
O51 Co32 2.021 . S
H52 C43 0.930 . S
H53 C42 0.931 . S
O54 Co30 2.117 . S
O54 C31 1.258 . S
O55 Co30 2.020 . S
O55 C57 1.256 . S
O56 Co32 2.062 . S
O56 C57 1.255 . S
C57 O55 1.256 . S
C57 O56 1.255 . S
H58 C37 0.931 . S
H59 C45 0.931 . S
C60 C61 1.384 . S
C60 H73 0.947 . S
C60 C95 1.382 . S
C61 C60 1.384 . S
C61 C62 1.378 . S
C62 C61 1.378 . S
C62 C63 1.378 . S
C62 H74 0.952 . S
C63 C62 1.378 . S
C63 H75 0.950 . S
C63 C94 1.383 . S
H64 C83 0.947 . S
H65 C84 0.946 . S
H66 C86 0.953 . S
H67 C87 0.945 . S
H68 C89 0.952 . S
H69 C90 0.949 . S
H70 C92 0.950 . S
H71 C93 0.948 . S
H72 C95 0.951 . S
H73 C60 0.947 . S
H74 C62 0.952 . S
H75 C63 0.950 . S
N76 C79 1.382 1_545 S
N76 C81 1.363 1_455 S
N77 C79 1.371 . S
N77 C80 1.372 1_565 S
N78 C80 1.361 1_655 S
N78 C81 1.377 . S
C79 N76 1.382 1_565 S
C79 N77 1.371 . S
C79 C82 1.480 . S
C80 N77 1.372 1_545 S
C80 N78 1.361 1_455 S
C80 C88 1.457 . S
C81 N76 1.363 1_655 S
C81 N78 1.377 . S
C81 C94 1.479 . S
C82 C79 1.480 . S
C82 C83 1.383 . S
C82 C87 1.385 . S
C83 H64 0.947 . S
C83 C82 1.383 . S
C83 C84 1.388 . S
C84 H65 0.946 . S
C84 C83 1.388 . S
C84 C85 1.384 . S
C85 C84 1.384 . S
C85 C86 1.377 . S
C86 H66 0.953 . S
C86 C85 1.377 . S
C86 C87 1.369 . S
C87 H67 0.945 . S
C87 C82 1.385 . S
C87 C86 1.369 . S
C88 C80 1.457 . S
C88 C89 1.372 1_545 S
C88 C93 1.364 1_455 S
C89 H68 0.952 . S
C89 C88 1.372 1_565 S
C89 C90 1.389 . S
C90 H69 0.949 . S
C90 C89 1.389 . S
C90 C91 1.387 1_565 S
C91 C90 1.387 1_545 S
C91 C92 1.372 1_455 S
C92 H70 0.950 . S
C92 C91 1.372 1_655 S
C92 C93 1.379 . S
C93 H71 0.948 . S
C93 C88 1.364 1_655 S
C93 C92 1.379 . S
C94 C63 1.383 . S
C94 C81 1.479 . S
C94 C95 1.398 . S
C95 C60 1.382 . S
C95 H72 0.951 . S
C95 C94 1.398 . S
C96 C97 1.384 . S
C96 H109 0.947 . S
C96 C131 1.382 . S
C97 C96 1.384 . S
C97 C98 1.378 . S
C98 C97 1.378 . S
C98 C99 1.378 . S
C98 H110 0.952 . S
C99 C98 1.378 . S
C99 H111 0.950 . S
C99 C130 1.383 . S
H100 C119 0.947 . S
H101 C120 0.946 . S
H102 C122 0.953 . S
H103 C123 0.945 . S
H104 C125 0.952 . S
H105 C126 0.949 . S
H106 C128 0.950 . S
H107 C129 0.948 . S
H108 C131 0.951 . S
H109 C96 0.947 . S
H110 C98 0.952 . S
H111 C99 0.950 . S
N112 C115 1.382 . S
N112 C117 1.363 1_445 S
N113 C115 1.371 . S
N113 C116 1.372 . S
N114 C116 1.361 1_665 S
N114 C117 1.377 . S
C115 N112 1.382 . S
C115 N113 1.371 . S
C115 C118 1.480 . S
C116 N113 1.372 . S
C116 N114 1.361 1_445 S
C116 C124 1.457 . S
C117 N112 1.363 1_665 S
C117 N114 1.377 . S
C117 C130 1.479 . S
C118 C115 1.480 . S
C118 C119 1.383 . S
C118 C123 1.385 . S
C119 H100 0.947 . S
C119 C118 1.383 . S
C119 C120 1.388 . S
C120 H101 0.946 . S
C120 C119 1.388 . S
C120 C121 1.384 . S
C121 C120 1.384 . S
C121 C122 1.377 . S
C122 H102 0.953 . S
C122 C121 1.377 . S
C122 C123 1.369 . S
C123 H103 0.945 . S
C123 C118 1.385 . S
C123 C122 1.369 . S
C124 C116 1.457 . S
C124 C125 1.372 . S
C124 C129 1.364 1_445 S
C125 H104 0.952 . S
C125 C124 1.372 . S
C125 C126 1.389 . S
C126 H105 0.949 . S
C126 C125 1.389 . S
C126 C127 1.387 . S
C127 C126 1.387 . S
C127 C128 1.372 1_445 S
C128 H106 0.950 . S
C128 C127 1.372 1_665 S
C128 C129 1.379 . S
C129 H107 0.948 . S
C129 C124 1.364 1_665 S
C129 C128 1.379 . S
C130 C99 1.383 . S
C130 C117 1.479 . S
C130 C131 1.398 . S
C131 C96 1.382 . S
C131 H108 0.951 . S
C131 C130 1.398 . S
C132 C133 1.384 . S
C132 H145 0.947 . S
C132 C167 1.382 . S
C133 C132 1.384 . S
C133 C134 1.378 1_556 S
C134 C133 1.378 1_554 S
C134 C135 1.378 1_554 S
C134 H146 0.952 . S
C135 C134 1.378 1_556 S
C135 H147 0.950 1_556 S
C135 C166 1.383 . S
H136 C155 0.947 . S
H137 C156 0.946 . S
H138 C158 0.953 . S
H139 C159 0.945 . S
H140 C161 0.952 . S
H141 C162 0.949 . S
H142 C164 0.950 . S
H143 C165 0.948 . S
H144 C167 0.951 . S
H145 C132 0.947 . S
H146 C134 0.952 . S
H147 C135 0.950 1_554 S
N148 C151 1.382 . S
N148 C153 1.363 . S
N149 C151 1.371 . S
N149 C152 1.372 . S
N150 C152 1.361 . S
N150 C153 1.377 . S
C151 N148 1.382 . S
C151 N149 1.371 . S
C151 C154 1.480 . S
C152 N149 1.372 . S
C152 N150 1.361 . S
C152 C160 1.457 . S
C153 N148 1.363 . S
C153 N150 1.377 . S
C153 C166 1.479 . S
C154 C151 1.480 . S
C154 C155 1.383 . S
C154 C159 1.385 . S
C155 H136 0.947 . S
C155 C154 1.383 . S
C155 C156 1.388 1_556 S
C156 H137 0.946 . S
C156 C155 1.388 1_554 S
C156 C157 1.384 1_554 S
C157 C156 1.384 1_556 S
C157 C158 1.377 . S
C158 H138 0.953 . S
C158 C157 1.377 . S
C158 C159 1.369 . S
C159 H139 0.945 . S
C159 C154 1.385 . S
C159 C158 1.369 . S
C160 C152 1.457 . S
C160 C161 1.372 . S
C160 C165 1.364 . S
C161 H140 0.952 . S
C161 C160 1.372 . S
C161 C162 1.389 . S
C162 H141 0.949 . S
C162 C161 1.389 . S
C162 C163 1.387 . S
C163 C162 1.387 . S
C163 C164 1.372 . S
C164 H142 0.950 . S
C164 C163 1.372 . S
C164 C165 1.379 . S
C165 H143 0.948 . S
C165 C160 1.364 . S
C165 C164 1.379 . S
C166 C135 1.383 . S
C166 C153 1.479 . S
C166 C167 1.398 . S
C167 C132 1.382 . S
C167 H144 0.951 . S
C167 C166 1.398 . S
C168 C169 1.384 . S
C168 H181 0.947 . S
C168 C203 1.382 . S
C169 C168 1.384 . S
C169 C170 1.378 . S
C170 C169 1.378 . S
C170 C171 1.378 . S
C170 H182 0.926 1_554 S
C171 C170 1.378 . S
C171 H183 0.950 . S
C171 C202 1.383 . S
H172 C191 0.947 . S
H173 C192 0.946 . S
H174 C194 0.953 . S
H175 C195 0.945 . S
H176 C197 0.952 . S
H177 C198 0.949 . S
H178 C200 0.950 . S
H179 C201 0.948 . S
H180 C203 0.951 . S
H181 C168 0.947 . S
H182 C170 0.926 1_556 S
H183 C171 0.950 . S
N184 C187 1.382 . S
N184 C189 1.363 . S
N185 C187 1.371 . S
N185 C188 1.372 . S
N186 C188 1.361 . S
N186 C189 1.377 . S
C187 N184 1.382 . S
C187 N185 1.371 . S
C187 C190 1.480 . S
C188 N185 1.372 . S
C188 N186 1.361 . S
C188 C196 1.457 . S
C189 N184 1.363 . S
C189 N186 1.377 . S
C189 C202 1.479 . S
C190 C187 1.480 . S
C190 C191 1.383 . S
C190 C195 1.385 . S
C191 H172 0.947 . S
C191 C190 1.383 . S
C191 C192 1.388 . S
C192 H173 0.946 . S
C192 C191 1.388 . S
C192 C193 1.384 . S
C193 C192 1.384 . S
C193 C194 1.377 . S
C194 H174 0.953 . S
C194 C193 1.377 . S
C194 C195 1.369 . S
C195 H175 0.945 . S
C195 C190 1.385 . S
C195 C194 1.369 . S
C196 C188 1.457 . S
C196 C197 1.372 . S
C196 C201 1.364 . S
C197 H176 0.952 . S
C197 C196 1.372 . S
C197 C198 1.389 . S
C198 H177 0.949 . S
C198 C197 1.389 . S
C198 C199 1.387 . S
C199 C198 1.387 . S
C199 C200 1.372 . S
C200 H178 0.950 . S
C200 C199 1.372 . S
C200 C201 1.379 . S
C201 H179 0.948 . S
C201 C196 1.364 . S
C201 C200 1.379 . S
C202 C171 1.383 . S
C202 C189 1.479 . S
C202 C203 1.398 . S
C203 C168 1.382 . S
C203 H180 0.951 . S
C203 C202 1.398 . S
H204 C212 0.950 . S
H205 C217 0.950 . S
H206 C214 0.950 . S
H207 C216 0.950 . S
H208 C218 0.950 . S
H209 C220 0.950 . S
H210 C222 0.948 1_556 S
H211 C223 0.950 1_556 S
C212 H204 0.950 . S
C212 C213 1.386 1_556 S
C212 C214 1.391 . S
C213 C212 1.386 1_554 S
C213 C217 1.393 . S
C214 H206 0.950 . S
C214 C212 1.391 . S
C214 C215 1.400 1_556 S
C215 C214 1.400 1_554 S
C215 C216 1.398 . S
C215 C221 1.491 . S
C216 H207 0.950 . S
C216 C215 1.398 . S
C216 C217 1.391 . S
C217 H205 0.950 . S
C217 C213 1.393 . S
C217 C216 1.391 . S
C218 H208 0.950 . S
C218 C219 1.386 . S
C218 C220 1.391 . S
C219 C218 1.386 . S
C219 C223 1.393 . S
C220 H209 0.950 . S
C220 C218 1.391 . S
C220 C221 1.400 . S
C221 C215 1.491 . S
C221 C220 1.400 . S
C221 C222 1.400 . S
C222 H210 0.948 1_554 S
C222 C221 1.400 . S
C222 C223 1.391 . S
C223 H211 0.950 1_554 S
C223 C219 1.393 . S
C223 C222 1.391 . S
H224 C232 0.950 . S
H225 C237 0.950 . S
H226 C234 0.956 . S
H227 C236 0.950 . S
H228 C238 0.950 . S
H229 C240 0.950 . S
H230 C242 0.948 1_556 S
H231 C243 0.950 . S
C232 H224 0.950 . S
C232 C233 1.386 . S
C232 C234 1.391 . S
C233 C232 1.386 . S
C233 C237 1.393 . S
C234 H226 0.956 . S
C234 C232 1.391 . S
C234 C235 1.400 . S
C235 C234 1.400 . S
C235 C236 1.398 . S
C235 C241 1.491 . S
C236 H227 0.950 . S
C236 C235 1.398 . S
C236 C237 1.391 . S
C237 H225 0.950 . S
C237 C233 1.393 . S
C237 C236 1.391 . S
C238 H228 0.950 . S
C238 C239 1.388 . S
C238 C240 1.391 . S
C239 C238 1.388 . S
C239 C243 1.392 1_554 S
C240 H229 0.950 . S
C240 C238 1.391 . S
C240 C241 1.400 . S
C241 C235 1.491 . S
C241 C240 1.400 . S
C241 C242 1.404 . S
C242 H230 0.948 1_554 S
C242 C241 1.404 . S
C242 C243 1.388 1_554 S
C243 H231 0.950 . S
C243 C239 1.392 1_556 S
C243 C242 1.388 1_556 S
H244 C252 0.950 . S
H245 C257 0.950 . S
H246 C254 0.950 . S
H247 C256 0.950 . S
H248 C258 0.950 . S
H249 C260 0.950 . S
H250 C262 0.931 1_556 S
H251 C263 0.950 1_556 S
C252 H244 0.950 . S
C252 C253 1.386 1_556 S
C252 C254 1.391 . S
C253 C252 1.386 1_554 S
C253 C257 1.393 . S
C254 H246 0.950 . S
C254 C252 1.391 . S
C254 C255 1.400 1_556 S
C255 C254 1.400 1_554 S
C255 C256 1.398 . S
C255 C261 1.491 . S
C256 H247 0.950 . S
C256 C255 1.398 . S
C256 C257 1.391 . S
C257 H245 0.950 . S
C257 C253 1.393 . S
C257 C256 1.391 . S
C258 H248 0.950 . S
C258 C259 1.386 . S
C258 C260 1.391 . S
C259 C258 1.386 . S
C259 C263 1.393 . S
C260 H249 0.950 . S
C260 C258 1.391 . S
C260 C261 1.400 . S
C261 C255 1.491 . S
C261 C260 1.400 . S
C261 C262 1.415 . S
C262 H250 0.931 1_554 S
C262 C261 1.415 . S
C262 C263 1.393 . S
C263 H251 0.950 1_554 S
C263 C259 1.393 . S
C263 C262 1.393 . S
H264 C272 0.950 . S
H265 C277 0.950 . S
H266 C274 0.950 . S
H267 C276 0.950 . S
H268 C278 0.950 . S
H269 C280 0.950 . S
H270 C282 0.950 . S
H271 C283 0.950 . S
C272 H264 0.950 . S
C272 C273 1.386 . S
C272 C274 1.391 . S
C273 C272 1.386 . S
C273 C277 1.393 1_554 S
C274 H266 0.950 . S
C274 C272 1.391 . S
C274 C275 1.400 . S
C275 C274 1.400 . S
C275 C276 1.398 1_554 S
C275 C281 1.491 . S
C276 H267 0.950 . S
C276 C275 1.398 1_556 S
C276 C277 1.391 . S
C277 H265 0.950 . S
C277 C273 1.393 1_556 S
C277 C276 1.391 . S
C278 H268 0.950 . S
C278 C279 1.386 . S
C278 C280 1.391 . S
C279 C278 1.386 . S
C279 C283 1.393 1_556 S
C280 H269 0.950 . S
C280 C278 1.391 . S
C280 C281 1.400 1_556 S
C281 C275 1.491 . S
C281 C280 1.400 1_554 S
C281 C282 1.398 . S
C282 H270 0.950 . S
C282 C281 1.398 . S
C282 C283 1.391 . S
C283 H271 0.950 . S
C283 C279 1.393 1_554 S
C283 C282 1.391 . S
H284 C292 0.950 . S
H285 C297 0.950 . S
H286 C294 0.950 . S
H287 C296 0.950 . S
H288 C298 0.950 . S
H289 C300 0.950 . S
H290 C302 0.950 . S
H291 C303 0.950 . S
C292 H284 0.950 . S
C292 C293 1.386 . S
C292 C294 1.391 . S
C293 C292 1.386 . S
C293 C297 1.393 . S
C294 H286 0.950 . S
C294 C292 1.391 . S
C294 C295 1.400 . S
C295 C294 1.400 . S
C295 C296 1.398 . S
C295 C301 1.491 . S
C296 H287 0.950 . S
C296 C295 1.398 . S
C296 C297 1.391 . S
C297 H285 0.950 . S
C297 C293 1.393 . S
C297 C296 1.391 . S
C298 H288 0.950 . S
C298 C299 1.386 . S
C298 C300 1.391 . S
C299 C298 1.386 . S
C299 C303 1.393 . S
C300 H289 0.950 . S
C300 C298 1.391 . S
C300 C301 1.400 . S
C301 C295 1.491 . S
C301 C300 1.400 . S
C301 C302 1.398 . S
C302 H290 0.950 . S
C302 C301 1.398 . S
C302 C303 1.391 . S
C303 H291 0.950 . S
C303 C299 1.393 . S
C303 C302 1.391 . S
H304 C312 0.950 . S
H305 C317 0.950 . S
H306 C314 0.950 . S
H307 C316 0.950 . S
H308 C318 0.950 . S
H309 C320 0.950 . S
H310 C322 0.950 . S
H311 C323 0.950 . S
C312 H304 0.950 . S
C312 C313 1.386 . S
C312 C314 1.391 . S
C313 C312 1.386 . S
C313 C317 1.393 . S
C314 H306 0.950 . S
C314 C312 1.391 . S
C314 C315 1.400 . S
C315 C314 1.400 . S
C315 C316 1.398 . S
C315 C321 1.491 . S
C316 H307 0.950 . S
C316 C315 1.398 . S
C316 C317 1.391 . S
C317 H305 0.950 . S
C317 C313 1.393 . S
C317 C316 1.391 . S
C318 H308 0.950 . S
C318 C319 1.386 . S
C318 C320 1.391 . S
C319 C318 1.386 . S
C319 C323 1.393 . S
C320 H309 0.950 . S
C320 C318 1.391 . S
C320 C321 1.400 . S
C321 C315 1.491 . S
C321 C320 1.400 . S
C321 C322 1.398 . S
C322 H310 0.950 . S
C322 C321 1.398 . S
C322 C323 1.391 . S
C323 H311 0.950 . S
C323 C319 1.393 . S
C323 C322 1.391 . S
H324 C332 0.950 . S
H325 C337 0.950 . S
H326 C334 0.950 . S
H327 C336 0.950 . S
H328 C338 0.950 . S
H329 C340 0.950 . S
H330 C342 0.950 . S
H331 C343 0.950 . S
C332 H324 0.950 . S
C332 C333 1.386 . S
C332 C334 1.391 . S
C333 C332 1.386 . S
C333 C337 1.393 . S
C334 H326 0.950 . S
C334 C332 1.391 . S
C334 C335 1.400 . S
C335 C334 1.400 . S
C335 C336 1.398 . S
C335 C341 1.491 . S
C336 H327 0.950 . S
C336 C335 1.398 . S
C336 C337 1.391 . S
C337 H325 0.950 . S
C337 C333 1.393 . S
C337 C336 1.391 . S
C338 H328 0.950 . S
C338 C339 1.386 . S
C338 C340 1.391 . S
C339 C338 1.386 . S
C339 C343 1.393 . S
C340 H329 0.950 . S
C340 C338 1.391 . S
C340 C341 1.400 . S
C341 C335 1.491 . S
C341 C340 1.400 . S
C341 C342 1.398 . S
C342 H330 0.950 . S
C342 C341 1.398 . S
C342 C343 1.391 . S
C343 H331 0.950 . S
C343 C339 1.393 . S
C343 C342 1.391 . S
H344 C352 0.950 . S
H345 C357 0.950 . S
H346 C354 0.950 . S
H347 C356 0.950 . S
H348 C358 0.950 . S
H349 C360 0.950 . S
H350 C362 0.950 . S
H351 C363 0.950 . S
C352 H344 0.950 . S
C352 C353 1.386 . S
C352 C354 1.391 . S
C353 C352 1.386 . S
C353 C357 1.393 . S
C354 H346 0.950 . S
C354 C352 1.391 . S
C354 C355 1.400 . S
C355 C354 1.400 . S
C355 C356 1.398 . S
C355 C361 1.491 . S
C356 H347 0.950 . S
C356 C355 1.398 . S
C356 C357 1.391 . S
C357 H345 0.950 . S
C357 C353 1.393 . S
C357 C356 1.391 . S
C358 H348 0.950 . S
C358 C359 1.386 . S
C358 C360 1.391 . S
C359 C358 1.386 . S
C359 C363 1.393 . S
C360 H349 0.950 . S
C360 C358 1.391 . S
C360 C361 1.400 . S
C361 C355 1.491 . S
C361 C360 1.400 . S
C361 C362 1.398 . S
C362 H350 0.950 . S
C362 C361 1.398 . S
C362 C363 1.391 . S
C363 H351 0.950 . S
C363 C359 1.393 . S
C363 C362 1.391 . S
H364 C372 0.950 . S
H365 C377 0.950 . S
H366 C374 0.950 . S
H367 C376 0.950 . S
H368 C378 0.950 . S
H369 C380 0.950 . S
H370 C382 0.950 . S
H371 C383 0.950 . S
C372 H364 0.950 . S
C372 C373 1.386 1_665 S
C372 C374 1.391 . S
C373 C372 1.386 1_445 S
C373 C377 1.393 . S
C374 H366 0.950 . S
C374 C372 1.391 . S
C374 C375 1.400 1_665 S
C375 C374 1.400 1_445 S
C375 C376 1.398 . S
C375 C381 1.491 . S
C376 H367 0.950 . S
C376 C375 1.398 . S
C376 C377 1.391 . S
C377 H365 0.950 . S
C377 C373 1.393 . S
C377 C376 1.391 . S
C378 H368 0.950 . S
C378 C379 1.394 . S
C378 C380 1.391 . S
C379 C378 1.394 . S
C379 C383 1.384 1_445 S
C380 H369 0.950 . S
C380 C378 1.391 . S
C380 C381 1.400 . S
C381 C375 1.491 . S
C381 C380 1.400 . S
C381 C382 1.398 1_445 S
C382 H370 0.950 . S
C382 C381 1.398 1_665 S
C382 C383 1.391 . S
C383 H371 0.950 . S
C383 C379 1.384 1_665 S
C383 C382 1.391 . S
H384 C392 0.950 . S
H385 C397 0.950 . S
H386 C394 0.950 . S
H387 C396 0.950 . S
H388 C398 0.950 . S
H389 C400 0.950 . S
H390 C402 0.950 . S
H391 C403 0.950 . S
C392 H384 0.950 . S
C392 C393 1.386 1_655 S
C392 C394 1.391 . S
C393 C392 1.386 1_455 S
C393 C397 1.393 1_545 S
C394 H386 0.950 . S
C394 C392 1.391 . S
C394 C395 1.400 1_655 S
C395 C394 1.400 1_455 S
C395 C396 1.398 1_545 S
C395 C401 1.491 . S
C396 H387 0.950 . S
C396 C395 1.398 1_565 S
C396 C397 1.391 . S
C397 H385 0.950 . S
C397 C393 1.393 1_565 S
C397 C396 1.391 . S
C398 H388 0.950 . S
C398 C399 1.386 1_565 S
C398 C400 1.391 . S
C399 C398 1.386 1_545 S
C399 C403 1.393 1_455 S
C400 H389 0.950 . S
C400 C398 1.391 . S
C400 C401 1.400 1_565 S
C401 C395 1.491 . S
C401 C400 1.400 1_545 S
C401 C402 1.398 1_455 S
C402 H390 0.950 . S
C402 C401 1.398 1_655 S
C402 C403 1.391 . S
C403 H391 0.950 . S
C403 C399 1.393 1_655 S
C403 C402 1.391 . S
H404 C412 0.950 . S
H405 C417 0.950 . S
H406 C414 0.950 . S
H407 C416 0.950 . S
H408 C418 0.950 . S
H409 C420 0.950 . S
H410 C422 0.950 . S
H411 C423 0.950 . S
C412 H404 0.950 . S
C412 C413 1.386 . S
C412 C414 1.391 . S
C413 C412 1.386 . S
C413 C417 1.393 . S
C414 H406 0.950 . S
C414 C412 1.391 . S
C414 C415 1.400 . S
C415 C414 1.400 . S
C415 C416 1.398 . S
C415 C421 1.491 . S
C416 H407 0.950 . S
C416 C415 1.398 . S
C416 C417 1.391 . S
C417 H405 0.950 . S
C417 C413 1.393 . S
C417 C416 1.391 . S
C418 H408 0.950 . S
C418 C419 1.386 . S
C418 C420 1.391 . S
C419 C418 1.386 . S
C419 C423 1.393 . S
C420 H409 0.950 . S
C420 C418 1.391 . S
C420 C421 1.400 . S
C421 C415 1.491 . S
C421 C420 1.400 . S
C421 C422 1.398 . S
C422 H410 0.950 . S
C422 C421 1.398 . S
C422 C423 1.391 . S
C423 H411 0.950 . S
C423 C419 1.393 . S
C423 C422 1.391 . S
H424 C432 0.950 . S
H425 C437 0.950 . S
H426 C434 0.950 . S
H427 C436 0.950 . S
H428 C438 0.950 . S
H429 C440 0.950 . S
H430 C442 0.950 . S
H431 C443 0.950 . S
C432 H424 0.950 . S
C432 C433 1.386 . S
C432 C434 1.391 . S
C433 C432 1.386 . S
C433 C437 1.393 . S
C434 H426 0.950 . S
C434 C432 1.391 . S
C434 C435 1.400 . S
C435 C434 1.400 . S
C435 C436 1.398 . S
C435 C441 1.491 . S
C436 H427 0.950 . S
C436 C435 1.398 . S
C436 C437 1.391 . S
C437 H425 0.950 . S
C437 C433 1.393 . S
C437 C436 1.391 . S
C438 H428 0.950 . S
C438 C439 1.386 . S
C438 C440 1.391 . S
C439 C438 1.386 . S
C439 C443 1.393 . S
C440 H429 0.950 . S
C440 C438 1.391 . S
C440 C441 1.400 . S
C441 C435 1.491 . S
C441 C440 1.400 . S
C441 C442 1.398 . S
C442 H430 0.950 . S
C442 C441 1.398 . S
C442 C443 1.391 . S
C443 H431 0.950 . S
C443 C439 1.393 . S
C443 C442 1.391 . S
C219 C169 1.458 . S
C213 C27 1.486 . S
C233 N6 1.377 . S
C239 C133 1.416 1_554 S
C253 C16 1.467 . S
C259 C193 1.420 . S
C273 N14 1.399 . S
C279 C157 1.373 . S
C293 C57 1.486 . S
C299 C97 1.465 . S
C313 N36 1.395 . S
C319 C61 1.407 . S
C339 C121 1.414 . S
C333 C46 1.465 . S
C359 C85 1.376 . S
C353 N44 1.394 . S
C373 C10 1.385 . S
C379 C91 1.388 . S
C393 C1 1.532 . S
C399 C127 1.528 . S
C419 C163 1.383 . S
C413 C40 1.391 . S
C433 C31 1.529 . S
C439 C199 1.526 . S
