# Generated by pormake.
# Topology zzz, (3,6)-cn, num edge types: 1
# Building blocks:
#     Node 0, Type 0, BuildingBlock: QEWDON_clean_linker_0, # of connection points: 3
#     Node 1, Type 0, BuildingBlock: QEWDON_clean_linker_0, # of connection points: 3
#     Node 2, Type 0, BuildingBlock: QEWDON_clean_linker_0, # of connection points: 3
#     Node 3, Type 0, BuildingBlock: QEWDON_clean_linker_0, # of connection points: 3
#     Node 4, Type 0, BuildingBlock: QEWDON_clean_linker_0, # of connection points: 3
#     Node 5, Type 0, BuildingBlock: QEWDON_clean_linker_0, # of connection points: 3
#     Node 6, Type 0, BuildingBlock: QEWDON_clean_linker_0, # of connection points: 3
#     Node 7, Type 0, BuildingBlock: QEWDON_clean_linker_0, # of connection points: 3
#     Node 8, Type 1, BuildingBlock: PAMTUU_clean_sbu_0, # of connection points: 6
#     Node 9, Type 1, BuildingBlock: PAMTUU_clean_sbu_0, # of connection points: 6
#     Node 10, Type 1, BuildingBlock: PAMTUU_clean_sbu_0, # of connection points: 6
#     Node 11, Type 1, BuildingBlock: PAMTUU_clean_sbu_0, # of connection points: 6
#     Edge 12, Type (0, 1), BuildingBlock: EZIPEK_clean_linker_0, # of connection points: 2
#     Edge 13, Type (0, 1), BuildingBlock: EZIPEK_clean_linker_0, # of connection points: 2
#     Edge 14, Type (0, 1), BuildingBlock: EZIPEK_clean_linker_0, # of connection points: 2
#     Edge 15, Type (0, 1), BuildingBlock: EZIPEK_clean_linker_0, # of connection points: 2
#     Edge 16, Type (0, 1), BuildingBlock: EZIPEK_clean_linker_0, # of connection points: 2
#     Edge 17, Type (0, 1), BuildingBlock: EZIPEK_clean_linker_0, # of connection points: 2
#     Edge 18, Type (0, 1), BuildingBlock: EZIPEK_clean_linker_0, # of connection points: 2
#     Edge 19, Type (0, 1), BuildingBlock: EZIPEK_clean_linker_0, # of connection points: 2
#     Edge 20, Type (0, 1), BuildingBlock: EZIPEK_clean_linker_0, # of connection points: 2
#     Edge 21, Type (0, 1), BuildingBlock: EZIPEK_clean_linker_0, # of connection points: 2
#     Edge 22, Type (0, 1), BuildingBlock: EZIPEK_clean_linker_0, # of connection points: 2
#     Edge 23, Type (0, 1), BuildingBlock: EZIPEK_clean_linker_0, # of connection points: 2
#     Edge 24, Type (0, 1), BuildingBlock: EZIPEK_clean_linker_0, # of connection points: 2
#     Edge 25, Type (0, 1), BuildingBlock: EZIPEK_clean_linker_0, # of connection points: 2
#     Edge 26, Type (0, 1), BuildingBlock: EZIPEK_clean_linker_0, # of connection points: 2
#     Edge 27, Type (0, 1), BuildingBlock: EZIPEK_clean_linker_0, # of connection points: 2
#     Edge 28, Type (0, 1), BuildingBlock: EZIPEK_clean_linker_0, # of connection points: 2
#     Edge 29, Type (0, 1), BuildingBlock: EZIPEK_clean_linker_0, # of connection points: 2
#     Edge 30, Type (0, 1), BuildingBlock: EZIPEK_clean_linker_0, # of connection points: 2
#     Edge 31, Type (0, 1), BuildingBlock: EZIPEK_clean_linker_0, # of connection points: 2
#     Edge 32, Type (0, 1), BuildingBlock: EZIPEK_clean_linker_0, # of connection points: 2
#     Edge 33, Type (0, 1), BuildingBlock: EZIPEK_clean_linker_0, # of connection points: 2
#     Edge 34, Type (0, 1), BuildingBlock: EZIPEK_clean_linker_0, # of connection points: 2
#     Edge 35, Type (0, 1), BuildingBlock: EZIPEK_clean_linker_0, # of connection points: 2
# Relax obj value: 0.182
# Max RMSD: 0.228
# Mean RMSD: 0.080
data_MOF--net-zzz--node1-PAMTUU_clean_sbu_0--node2-QEWDON_clean_linker_0--edge1-EZIPEK_clean_linker_0
_symmetry_space_group_name_H-M    P1
_symmetry_Int_Tables_number       1
_symmetry_cell_setting            triclinic
loop_
_symmetry_equiv_pos_as_xyz
'x, y, z'
_cell_length_a     40.004085
_cell_length_b     43.588649
_cell_length_c     11.787053
_cell_angle_alpha  103.72448
_cell_angle_beta   90.073939
_cell_angle_gamma 90.497604
loop_
_atom_site_label
_atom_site_type_symbol
_atom_site_fract_x
_atom_site_fract_y
_atom_site_fract_z
_atom_type_partial_charge
H0 H 0.78029 0.55379 0.40811 0.0
C1 C 0.79696 0.54265 0.45802 0.0
C2 C 0.82996 0.55407 0.47693 0.0
C3 C 0.78522 0.51761 0.50517 0.0
H4 H 0.87679 0.54877 0.56255 0.0
C5 C 0.8512 0.54079 0.54711 0.0
C6 C 0.84126 0.51632 0.59646 0.0
C7 C 0.80809 0.50433 0.57474 0.0
C8 C 0.74884 0.50692 0.48593 0.0
H9 H 0.80044 0.48488 0.61144 0.0
C10 C 0.72953 0.50979 0.386 0.0
C11 C 0.6949 0.50139 0.37563 0.0
C12 C 0.73232 0.49527 0.5727 0.0
H13 H 0.74517 0.49345 0.65159 0.0
C14 C 0.69853 0.48677 0.56185 0.0
H15 H 0.7411 0.51834 0.31635 0.0
C16 C 0.68004 0.48984 0.46489 0.0
H17 H 0.65377 0.48331 0.45981 0.0
H18 H 0.68641 0.47806 0.63025 0.0
H19 H 0.05982 0.7451 0.32871 0.0
C20 C 0.04828 0.76461 0.38984 0.0
C21 C 0.05335 0.79517 0.37463 0.0
C22 C 1.02983 0.75969 0.48643 0.0
H23 H 0.04561 0.84467 0.44578 0.0
C24 C 0.04046 0.82091 0.45557 0.0
C25 C 1.0233 0.81679 0.55359 0.0
C26 C 1.01715 0.78622 0.56799 0.0
C27 C 1.02571 0.72718 0.50496 0.0
H28 H 1.0036 0.78347 0.64444 0.0
C29 C 1.02382 0.70091 0.40879 0.0
C30 C 1.02231 0.67018 0.42545 0.0
C31 C 1.02508 0.72187 0.61843 0.0
H32 H 1.02737 0.74122 0.69492 0.0
C33 C 1.02254 0.6912 0.63478 0.0
H34 H 1.02379 0.70407 0.32035 0.0
C35 C 1.0213 0.66537 0.53871 0.0
H36 H 1.02012 0.64167 0.55247 0.0
H37 H 1.0222 0.68743 0.72229 0.0
H38 H 0.80199 0.05815 0.43104 0.0
C39 C 0.78275 0.04724 0.47313 0.0
C40 C 0.75099 0.06081 0.48516 0.0
C41 C 0.78929 0.01953 0.51075 0.0
H42 H 0.70157 0.05982 0.55536 0.0
C43 C 0.72592 0.04876 0.54562 0.0
C44 C 0.73096 0.0221 0.58989 0.0
C45 C 0.76279 1.00704 0.57032 0.0
C46 C 0.82393 1.00481 0.48908 0.0
H47 H 0.76644 0.9856 0.59962 0.0
C48 C 0.8454 0.00873 0.39523 0.0
C49 C 0.8785 0.99634 0.38257 0.0
C50 C 0.83671 0.98788 0.56707 0.0
H51 H 0.8222 0.9848 0.64101 0.0
C52 C 0.86893 0.97543 0.55386 0.0
H53 H 0.83666 0.02112 0.33168 0.0
C54 C 0.88956 0.97965 0.46327 0.0
H55 H 0.91453 0.96993 0.4565 0.0
H56 H 0.87819 0.96266 0.61561 0.0
H57 H 0.53122 0.73048 0.02318 0.0
C58 C 0.536 0.72603 0.10831 0.0
C59 C 0.52851 0.69581 0.12805 0.0
C60 C 0.55333 0.74905 0.19445 0.0
H61 H 0.53168 0.66612 0.24892 0.0
C62 C 0.53641 0.68962 0.23561 0.0
C63 C 0.55531 0.71067 0.31834 0.0
C64 C 0.56311 0.74071 0.29951 0.0
C65 C 0.56906 0.77785 0.16498 0.0
H66 H 0.57887 0.7566 0.36238 0.0
C67 C 0.55102 0.8025 0.13105 0.0
C68 C 0.56847 0.82915 0.10744 0.0
C69 C 0.60412 0.78033 0.17192 0.0
H70 H 0.61875 0.76196 0.19552 0.0
C71 C 0.621 0.80611 0.14793 0.0
H72 H 0.52402 0.80121 0.1246 0.0
C73 C 0.60344 0.83023 0.11643 0.0
H74 H 0.61734 0.85003 0.09871 0.0
H75 H 0.648 0.80741 0.15391 0.0
H76 H 0.29453 0.55381 0.45937 0.0
C77 C 0.27512 0.54292 0.39861 0.0
C78 C 0.24361 0.55694 0.4094 0.0
C79 C 0.28124 0.51487 0.31368 0.0
H80 H 0.19421 0.55624 0.33716 0.0
C81 C 0.21838 0.54484 0.32832 0.0
C82 C 0.22314 0.51788 0.23838 0.0
C83 C 0.25472 0.50246 0.23232 0.0
C84 C 0.31564 0.49992 0.3103 0.0
H85 H 0.25823 0.48087 0.16602 0.0
C86 C 0.3366 0.50352 0.41202 0.0
C87 C 0.36993 0.49181 0.40399 0.0
C88 C 0.32884 0.48348 0.20271 0.0
H89 H 0.31453 0.48057 0.12285 0.0
C90 C 0.36126 0.47148 0.19511 0.0
H91 H 0.32738 0.51543 0.49718 0.0
C92 C 0.3816 0.47575 0.29404 0.0
H93 H 0.40674 0.46647 0.28479 0.0
H94 H 0.37094 0.45911 0.11111 0.0
H95 H 0.98724 0.26035 0.42254 0.0
C96 C 1.00237 0.24177 0.37012 0.0
C97 C 0.99878 0.2109 0.38333 0.0
C98 C 1.0244 0.24836 0.28577 0.0
H99 H 1.01333 0.16261 0.32043 0.0
C100 C 1.01694 0.18668 0.31181 0.0
C101 C 0.03876 0.19268 0.22688 0.0
C102 C 0.04303 0.22383 0.21523 0.0
C103 C 1.02464 0.28034 0.26468 0.0
H104 H 0.0597 0.22873 0.14914 0.0
C105 C 1.03212 0.30648 0.35649 0.0
C106 C 1.02418 0.3372 0.34762 0.0
C107 C 1.01201 0.28508 0.15919 0.0
H108 H 1.00595 0.26513 0.08761 0.0
C109 C 1.005 0.31556 0.14827 0.0
H110 H 0.04232 0.30273 0.43737 0.0
C111 C 1.01014 0.34139 0.24278 0.0
H112 H 1.00316 0.36469 0.23407 0.0
H113 H 0.99445 0.31908 0.06774 0.0
H114 H 0.2771 0.96242 0.41273 0.0
C115 C 0.29585 0.97123 0.3618 0.0
C116 C 0.32801 0.95898 0.35735 0.0
C117 C 0.28723 0.99303 0.29656 0.0
H118 H 0.37753 0.95869 0.28695 0.0
C119 C 0.35272 0.96867 0.28908 0.0
C120 C 0.3458 0.98992 0.21992 0.0
C121 C 0.31251 1.00208 0.2233 0.0
C122 C 0.25053 1.00127 0.29384 0.0
H123 H 0.30629 0.01788 0.16826 0.0
C124 C 0.22927 1.0054 0.39478 0.0
C125 C 0.19357 1.00542 0.38468 0.0
C126 C 0.23539 0.99942 0.18507 0.0
H127 H 0.25029 0.99587 0.10645 0.0
C128 C 0.20069 0.9997 0.17444 0.0
H129 H 0.24046 1.00767 0.48011 0.0
C130 C 0.18023 1.00187 0.27175 0.0
H131 H 0.1535 1.00119 0.25891 0.0
H132 H 0.18944 0.99731 0.08914 0.0
H133 H 0.55791 0.2699 0.73117 0.0
C134 C 0.5444 0.27522 0.65859 0.0
C135 C 0.53917 0.30712 0.6553 0.0
C136 C 0.53375 0.25038 0.56353 0.0
H137 H 0.51924 0.33853 0.55798 0.0
C138 C 0.52295 0.31397 0.56 0.0
C139 C 0.51252 0.29048 0.46518 0.0
C140 C 0.51774 0.25854 0.4665 0.0
C141 C 0.5449 0.21679 0.55286 0.0
H142 H 0.51051 0.24022 0.39086 0.0
C143 C 0.53634 0.19786 0.63285 0.0
C144 C 0.54778 0.16598 0.6135 0.0
C145 C 0.56512 0.2034 0.45673 0.0
H146 H 0.57239 0.21706 0.39486 0.0
C147 C 0.57661 0.17257 0.43912 0.0
H148 H 0.52073 0.20753 0.70751 0.0
C149 C 0.56803 0.15408 0.51623 0.0
H150 H 0.57719 0.13012 0.49961 0.0
H151 H 0.59225 0.1629 0.36468 0.0
Tb152 Tb 1.01121 0.01593 0.81199 0.0
Tb153 Tb 0.0643 0.9958 0.98382 0.0
C154 C 0.98712 1.00298 0.04903 0.0
C155 C 0.96443 0.06719 0.65948 0.0
C156 C 0.95477 0.12681 0.61188 0.0
C157 C 0.92944 0.11313 0.66621 0.0
C158 C 0.93422 0.0834 0.68932 0.0
C159 C 0.98996 0.08135 0.60737 0.0
C160 C 0.98508 0.11084 0.58359 0.0
C161 C 0.96933 0.03635 0.68802 0.0
O162 O 1.02363 0.05811 0.94613 0.0
O163 O 0.07591 0.04506 0.99576 0.0
O164 O 0.08679 0.98717 0.80761 0.0
O165 O 0.06118 0.02695 0.75125 0.0
O166 O 0.08012 0.99253 0.15105 0.0
O167 O 0.11062 0.97517 1.00019 0.0
O168 O 1.03409 0.95412 0.91754 0.0
O169 O 1.01864 0.96519 0.74466 0.0
O170 O 0.98085 0.99776 0.93659 0.0
O171 O 1.01812 0.00896 0.08778 0.0
C172 C 0.05311 0.0662 0.99332 0.0
O173 O 0.99568 0.02014 0.64572 0.0
O174 O 0.9646 0.03627 0.79706 0.0
C175 C 0.0867 1.00758 0.74122 0.0
C176 C 0.10815 0.94394 0.13756 0.0
C177 C 0.10533 0.88221 0.17047 0.0
C178 C 0.12547 0.88893 0.08223 0.0
C179 C 0.12702 0.91968 0.06628 0.0
C180 C 0.08964 0.93733 0.23025 0.0
C181 C 0.08817 0.90666 0.24617 0.0
C182 C 0.10555 0.97505 0.10881 0.0
C183 C 1.02418 0.94484 0.809 0.0
H184 H 0.90599 0.12523 0.68906 0.0
H185 H 0.9143 0.07301 0.73042 0.0
H186 H 1.01369 0.06973 0.58491 0.0
H187 H 1.00495 0.12118 0.54198 0.0
H188 H 0.13905 0.87028 0.02387 0.0
H189 H 0.14194 0.92417 0.99521 0.0
H190 H 0.07531 0.95555 0.28785 0.0
H191 H 0.0728 0.90177 0.31559 0.0
Tb192 Tb 0.5264 0.98264 0.77187 0.0
Tb193 Tb 0.55079 0.02131 0.02541 0.0
C194 C 0.54174 0.94656 0.96695 0.0
C195 C 0.48054 0.92736 0.54026 0.0
C196 C 0.4168 0.89959 0.50428 0.0
C197 C 0.43691 0.89471 0.59595 0.0
C198 C 0.46855 0.90889 0.61481 0.0
C199 C 0.46228 0.92876 0.44069 0.0
C200 C 0.43072 0.91494 0.42255 0.0
C201 C 0.50828 0.94969 0.57569 0.0
O202 O 0.47867 0.99487 0.86621 0.0
O203 O 0.49844 0.00882 0.05466 0.0
O204 O 0.53755 0.05892 0.9383 0.0
O205 O 0.53533 0.03059 0.74756 0.0
O206 O 0.58239 0.02402 0.16921 0.0
O207 O 0.54492 0.05943 0.17132 0.0
O208 O 0.59428 0.02398 0.91207 0.0
O209 O 0.58142 0.98096 0.76548 0.0
O210 O 0.52156 0.94876 0.88153 0.0
O211 O 0.56008 0.97109 0.01959 0.0
C212 C 0.47332 1.00158 0.98015 0.0
O213 O 0.4992 0.97886 0.61701 0.0
O214 O 0.53161 0.94132 0.63909 0.0
C215 C 0.53622 0.05779 0.82573 0.0
C216 C 0.59607 0.0753 0.26929 0.0
C217 C 0.65574 0.10978 0.32892 0.0
C218 C 0.64277 0.09091 0.4007 0.0
C219 C 0.61321 0.07387 0.37111 0.0
C220 C 0.60693 0.09644 0.20341 0.0
C221 C 0.63646 0.11394 0.23403 0.0
C222 C 0.57057 0.05114 0.22495 0.0
C223 C 0.60288 1.00309 0.81616 0.0
H224 H 0.42734 0.88203 0.65773 0.0
H225 H 0.48248 0.90734 0.6921 0.0
H226 H 0.47098 0.94304 0.38278 0.0
H227 H 0.41592 0.91914 0.35083 0.0
H228 H 0.65687 0.08716 0.47463 0.0
H229 H 0.60507 0.0578 0.42322 0.0
H230 H 0.59366 0.09809 0.12499 0.0
H231 H 0.64495 0.12934 0.18011 0.0
Tb232 Tb 0.51059 0.49637 0.99874 0.0
Tb233 Tb 0.55851 0.50506 0.77886 0.0
C234 C 0.47919 0.49942 0.74587 0.0
C235 C 0.47649 0.44588 0.18302 0.0
C236 C 0.48129 0.38649 0.2423 0.0
C237 C 0.45715 0.39132 0.16186 0.0
C238 C 0.45459 0.42071 0.13344 0.0
C239 C 0.50037 0.44105 0.26481 0.0
C240 C 0.50271 0.41171 0.294 0.0
C241 C 0.4752 0.47609 0.14387 0.0
O242 O 0.5371 0.45238 0.93194 0.0
O243 O 0.5536 0.45366 0.74629 0.0
O244 O 0.59241 0.49704 0.9177 0.0
O245 O 0.55923 0.51015 0.08105 0.0
O246 O 0.57095 0.50435 0.60378 0.0
O247 O 0.60357 0.5263 0.74524 0.0
O248 O 0.5379 0.55106 0.8567 0.0
O249 O 0.50943 0.54775 0.02411 0.0
O250 O 0.4753 0.49983 0.85761 0.0
O251 O 0.50888 0.49988 0.69827 0.0
C252 C 0.54656 0.43801 0.82644 0.0
O253 O 0.49964 0.49643 0.17437 0.0
O254 O 0.46697 0.4733 0.03503 0.0
C255 C 0.58885 0.50444 0.03252 0.0
C256 C 0.59523 0.55461 0.59862 0.0
C257 C 0.58982 0.61399 0.53982 0.0
C258 C 0.57408 0.58691 0.47115 0.0
C259 C 0.57684 0.55754 0.49984 0.0
C260 C 0.61153 0.58178 0.66574 0.0
C261 C 0.6087 0.61111 0.63707 0.0
C262 C 0.5958 0.52412 0.63627 0.0
C263 C 0.52193 0.56414 0.95283 0.0
H264 H 0.44036 0.37228 0.1208 0.0
H265 H 0.43577 0.42357 0.07067 0.0
H266 H 0.5176 0.45978 0.30518 0.0
H267 H 0.52149 0.40857 0.3565 0.0
H268 H 0.55945 0.58857 0.39547 0.0
H269 H 0.56411 0.53724 0.44567 0.0
H270 H 0.62609 0.58055 0.74202 0.0
H271 H 0.62115 0.63162 0.69096 0.0
Tb272 Tb 0.04654 0.5198 0.79427 0.0
Tb273 Tb 1.01913 0.48489 0.98977 0.0
C274 C 1.02792 0.55927 0.04542 0.0
C275 C 0.09131 0.57235 0.64017 0.0
C276 C 0.14959 0.60899 0.6454 0.0
C277 C 0.13042 0.61168 0.74711 0.0
C278 C 0.10168 0.59301 0.74493 0.0
C279 C 0.10772 0.57284 0.53622 0.0
C280 C 0.13663 0.59097 0.53864 0.0
C281 C 0.06738 0.5468 0.64038 0.0
O282 O 0.08787 0.52299 0.92095 0.0
O283 O 0.07384 0.47863 0.98247 0.0
O284 O 1.01676 0.44916 0.82666 0.0
O285 O 0.05825 0.46994 0.73488 0.0
O286 O 1.02796 0.47061 0.14598 0.0
O287 O 0.98072 0.46125 0.05788 0.0
O288 O 0.97534 0.50583 0.92343 0.0
O289 O 0.99533 0.50335 0.74071 0.0
O290 O 1.03132 0.55907 0.93483 0.0
O291 O 1.02658 0.5335 0.08341 0.0
C292 C 0.09587 0.50092 0.9758 0.0
O293 O 0.08053 0.5214 0.66072 0.0
O294 O 0.03993 0.55445 0.6991 0.0
C295 C 0.03763 0.44676 0.73937 0.0
C296 C 0.97923 0.48617 0.256 0.0
C297 C 0.93485 0.53569 0.34299 0.0
C298 C 0.92428 0.50397 0.32639 0.0
C299 C 0.9462 0.47935 0.28114 0.0
C300 C 0.9912 0.51741 0.29509 0.0
C301 C 0.96897 0.54212 0.3343 0.0
C302 C 0.99632 0.46496 0.15738 0.0
C303 C 0.9698 0.50435 0.81187 0.0
H304 H 0.13864 0.62652 0.82953 0.0
H305 H 0.0889 0.59318 0.82606 0.0
H306 H 0.09983 0.55724 0.45452 0.0
H307 H 0.15046 0.58841 0.4581 0.0
H308 H 0.89813 0.49835 0.33545 0.0
H309 H 0.93636 0.4555 0.25321 0.0
H310 H 1.017 0.52331 0.28198 0.0
H311 H 0.97819 0.56608 0.34772 0.0
C312 C 0.14004 0.02792 0.49176 0.0
C313 C 0.1689 0.00861 0.48696 0.0
C314 C 0.14758 0.9954 0.66697 0.0
C315 C 0.11538 1.00851 0.65451 0.0
N316 N 0.08049 0.02925 0.52127 0.0
N317 N 0.19439 0.96723 0.56213 0.0
C318 C 0.11143 0.02264 0.55759 0.0
C319 C 0.17109 0.99037 0.57233 0.0
N320 N 0.1398 0.05175 0.43475 0.0
N321 N 0.15705 0.98938 0.77065 0.0
H322 H 0.21034 0.96095 0.49082 0.0
H323 H 0.19494 0.95192 0.61796 0.0
H324 H 0.14341 0.99708 0.847 0.0
H325 H 0.18092 0.9815 0.78445 0.0
H326 H 0.1201 0.06763 0.44241 0.0
H327 H 0.16085 0.05781 0.39229 0.0
H328 H 0.07696 0.03779 0.44662 0.0
H329 H 0.05845 0.02169 0.55303 0.0
C330 C 0.56299 0.13938 0.77553 0.0
C331 C 0.53951 0.1434 0.68988 0.0
C332 C 0.5102 0.09477 0.71185 0.0
C333 C 0.5364 0.08835 0.78469 0.0
N334 N 0.5901 0.10356 0.87536 0.0
N335 N 0.4915 0.12379 0.57091 0.0
C336 C 0.56319 0.11067 0.81515 0.0
C337 C 0.51314 0.12087 0.65741 0.0
N338 N 0.58543 0.16312 0.81843 0.0
N339 N 0.48191 0.07643 0.69734 0.0
H340 H 0.4918 0.14332 0.53402 0.0
H341 H 0.4745 0.10624 0.53166 0.0
H342 H 0.47863 0.05762 0.73704 0.0
H343 H 0.46052 0.08155 0.65519 0.0
H344 H 0.60116 0.1634 0.88909 0.0
H345 H 0.58598 0.18408 0.79023 0.0
H346 H 0.61206 0.11693 0.88889 0.0
H347 H 0.59182 0.08273 0.90346 0.0
C348 C 0.40129 0.46932 0.55446 0.0
C349 C 0.39374 0.49576 0.50758 0.0
C350 C 0.44087 0.52531 0.6226 0.0
C351 C 0.44851 0.49879 0.66902 0.0
N352 N 0.43348 0.44686 0.69047 0.0
N353 N 0.40338 0.55034 0.50855 0.0
C354 C 0.42775 0.47129 0.63874 0.0
C355 C 0.41264 0.52422 0.54574 0.0
N356 N 0.38365 0.44182 0.51503 0.0
N357 N 0.46109 0.55151 0.65083 0.0
H358 H 0.41358 0.57277 0.5401 0.0
H359 H 0.38363 0.55014 0.45058 0.0
H360 H 0.48031 0.55404 0.71227 0.0
H361 H 0.45993 0.57033 0.61088 0.0
H362 H 0.39002 0.42033 0.53256 0.0
H363 H 0.36293 0.44015 0.45997 0.0
H364 H 0.41757 0.4275 0.68337 0.0
H365 H 0.45356 0.44662 0.74659 0.0
C366 C 1.01742 0.36383 0.56238 0.0
C367 C 1.02915 0.36479 0.44941 0.0
C368 C 0.04232 0.42075 0.52341 0.0
C369 C 0.03626 0.41826 0.64004 0.0
N370 N 1.02779 0.38295 0.76861 0.0
N371 N 0.06283 0.39282 0.33545 0.0
C372 C 1.02682 0.38842 0.65933 0.0
C373 C 0.04492 0.39278 0.43392 0.0
N374 N 0.99593 0.34062 0.57747 0.0
N375 N 0.0431 0.44934 0.49482 0.0
H376 H 0.06721 0.37233 0.27089 0.0
H377 H 0.07648 0.41251 0.3255 0.0
H378 H 0.03668 0.47042 0.55277 0.0
H379 H 0.04525 0.45139 0.4087 0.0
H380 H 0.9851 0.3407 0.65799 0.0
H381 H 0.98573 0.32375 0.50795 0.0
H382 H 1.02309 0.36068 0.78376 0.0
H383 H 0.03753 0.39926 0.84072 0.0
C384 C 0.92395 0.02748 0.30391 0.0
C385 C 0.90283 1.00031 0.28743 0.0
C386 C 0.93801 0.97431 0.11932 0.0
C387 C 0.95833 1.00202 0.13262 0.0
N388 N 0.96628 0.05715 0.22511 0.0
N389 N 0.88624 0.9501 0.16592 0.0
C390 C 0.95005 0.0292 0.22166 0.0
C391 C 0.90884 0.97448 0.19061 0.0
N392 N 0.91977 0.05143 0.4008 0.0
N393 N 0.94757 0.94714 0.0425 0.0
H394 H 0.8649 0.94954 0.21623 0.0
H395 H 0.88689 0.93203 0.09028 0.0
H396 H 0.96896 0.94574 0.99123 0.0
H397 H 0.93617 0.92528 0.03689 0.0
H398 H 0.93678 0.06992 0.42613 0.0
H399 H 0.90028 0.0518 0.4598 0.0
H400 H 0.95916 0.07867 0.27872 0.0
H401 H 0.98526 0.05943 0.16705 0.0
C402 C 0.55115 0.85727 0.95258 0.0
C403 C 0.55227 0.8569 0.07259 0.0
C404 C 0.54033 0.91429 0.1225 0.0
C405 C 0.5442 0.91543 1.00326 0.0
N406 N 0.55835 0.88775 0.80667 0.0
N407 N 0.54906 0.88538 0.2735 0.0
C408 C 0.55044 0.88673 0.9185 0.0
C409 C 0.5469 0.88555 0.15795 0.0
N410 N 0.55126 0.82922 0.87075 0.0
N411 N 0.52943 0.94049 0.20158 0.0
H412 H 0.55179 0.86458 0.30175 0.0
H413 H 0.54969 0.90573 0.34089 0.0
H414 H 0.5231 0.96136 0.17845 0.0
H415 H 0.52399 0.9409 0.28815 0.0
H416 H 0.54719 0.82736 0.78208 0.0
H417 H 0.55207 0.8075 0.89344 0.0
H418 H 0.56645 0.86823 0.74386 0.0
H419 H 0.56032 0.90873 0.7794 0.0
C420 C 0.66665 0.47773 0.18048 0.0
C421 C 0.67275 0.50447 0.27428 0.0
C422 C 0.62751 0.53259 0.19798 0.0
C423 C 0.61908 0.50485 0.11115 0.0
N424 N 0.62826 0.44933 0.03108 0.0
N425 N 0.65827 0.55835 0.36869 0.0
C426 C 0.63839 0.47708 0.10434 0.0
C427 C 0.6532 0.53199 0.28152 0.0
N428 N 0.68812 0.45286 0.16396 0.0
N429 N 0.61085 0.56005 0.20218 0.0
H430 H 0.67649 0.56036 0.43359 0.0
H431 H 0.67649 0.56036 0.43359 0.0
H432 H 0.59221 0.56211 0.14264 0.0
H433 H 0.61654 0.58101 0.26333 0.0
H434 H 0.68752 0.43396 0.09093 0.0
H435 H 0.70862 0.45257 0.21852 0.0
H436 H 0.63875 0.42753 0.03037 0.0
H437 H 0.60721 0.44753 0.97785 0.0
C438 C 0.05492 0.63093 0.27872 0.0
C439 C 1.02347 0.64287 0.32326 0.0
C440 C 0.99466 0.60075 0.18169 0.0
C441 C 1.02607 0.58967 0.13349 0.0
N442 N 0.08555 0.59741 0.12022 0.0
N443 N 0.9634 0.64284 0.30849 0.0
C444 C 0.05605 0.60582 0.17699 0.0
C445 C 0.99328 0.62902 0.27132 0.0
N446 N 0.08367 0.64294 0.33599 0.0
N447 N 0.96637 0.58342 0.14535 0.0
H448 H 0.96154 0.66295 0.37677 0.0
H449 H 0.94065 0.63587 0.26715 0.0
H450 H 0.96695 0.5614 0.087 0.0
H451 H 0.94279 0.58911 0.18057 0.0
H452 H 0.10702 0.63269 0.31666 0.0
H453 H 0.08396 0.66192 0.40909 0.0
H454 H 0.10771 0.61027 0.14053 0.0
H455 H 0.08731 0.57912 0.04556 0.0
C456 C 0.98391 0.2047 0.58276 0.0
C457 C 0.97453 0.20201 0.46498 0.0
C458 C 0.93674 0.15814 0.47064 0.0
C459 C 0.95051 0.15755 0.58069 0.0
N460 N 0.9739 0.18711 0.76074 0.0
N461 N 0.93372 0.18541 0.3131 0.0
C462 C 0.96941 0.18353 0.64374 0.0
C463 C 0.94753 0.18209 0.41542 0.0
N464 N 1.00844 0.22556 0.63244 0.0
N465 N 0.91527 0.1347 0.41658 0.0
H466 H 0.94191 0.20296 0.27249 0.0
H467 H 0.9128 0.17283 0.27422 0.0
H468 H 0.90553 0.11824 0.45922 0.0
H469 H 0.90744 0.13136 0.33025 0.0
H470 H 1.01915 0.22601 0.71338 0.0
H471 H 1.0188 0.24185 0.59018 0.0
H472 H 0.98562 0.2067 0.81435 0.0
H473 H 0.96264 0.17163 0.80489 0.0
C474 C 0.34481 0.94298 0.53935 0.0
C475 C 0.33616 0.93428 0.41945 0.0
C476 C 0.36433 0.8838 0.3983 0.0
C477 C 0.37984 0.89665 0.50675 0.0
N478 N 0.36914 0.92584 0.70232 0.0
N479 N 0.32698 0.8929 0.24629 0.0
C480 C 0.36403 0.92169 0.58552 0.0
C481 C 0.34172 0.90301 0.35329 0.0
N482 N 0.33703 0.97217 0.60581 0.0
N483 N 0.37495 0.85529 0.33459 0.0
H484 H 0.31039 0.90708 0.21355 0.0
H485 H 0.32964 0.87031 0.19329 0.0
H486 H 0.39231 0.84224 0.36954 0.0
H487 H 0.36688 0.84479 0.25031 0.0
H488 H 0.3462 0.98101 0.6901 0.0
H489 H 0.32244 0.9881 0.57454 0.0
H490 H 0.35707 0.94306 0.76485 0.0
H491 H 0.3826 0.90954 0.73547 0.0
C492 C 0.52527 0.35156 0.81812 0.0
C493 C 0.55051 0.33558 0.74483 0.0
C494 C 0.57838 0.38672 0.75184 0.0
C495 C 0.54899 0.40267 0.80102 0.0
N496 N 0.49216 0.39879 0.86831 0.0
N497 N 0.60282 0.33705 0.64759 0.0
C498 C 0.52205 0.38476 0.83334 0.0
C499 C 0.57809 0.35298 0.71619 0.0
N500 N 0.50302 0.33441 0.86605 0.0
N501 N 0.60659 0.40361 0.74062 0.0
H502 H 0.6035 0.31239 0.62522 0.0
H503 H 0.62156 0.34804 0.60988 0.0
H504 H 0.60776 0.42819 0.76586 0.0
H505 H 0.6296 0.39322 0.71554 0.0
H506 H 0.4852 0.34463 0.92756 0.0
H507 H 0.50507 0.30993 0.85249 0.0
H508 H 0.47083 0.38622 0.88144 0.0
H509 H 0.48735 0.42239 0.87144 0.0
C510 C 0.22857 0.57718 0.62055 0.0
C511 C 0.23507 0.58342 0.50954 0.0
C512 C 0.1984 0.62912 0.55727 0.0
C513 C 0.18583 0.61746 0.65063 0.0
N514 N 0.20418 0.59704 0.81202 0.0
N515 N 0.2342 0.62183 0.3908 0.0
C516 C 0.20656 0.59743 0.69715 0.0
C517 C 0.22363 0.61206 0.48611 0.0
N518 N 0.24065 0.55075 0.64881 0.0
N519 N 0.18323 0.65403 0.5284 0.0
H520 H 0.25257 0.61008 0.33434 0.0
H521 H 0.25257 0.61008 0.33434 0.0
H522 H 0.16372 0.66589 0.57891 0.0
H523 H 0.19057 0.66256 0.45652 0.0
H524 H 0.23288 0.54333 0.72239 0.0
H525 H 0.25725 0.53541 0.59645 0.0
H526 H 0.22005 0.58395 0.85215 0.0
H527 H 0.18916 0.61298 0.86929 0.0
C528 C 0.05787 0.809 0.18332 0.0
C529 C 0.0743 0.80215 0.28047 0.0
C530 C 0.11974 0.83871 0.26614 0.0
C531 C 0.10041 0.84952 0.183 0.0
N532 N 0.05735 0.83975 0.03586 0.0
N533 N 0.12491 0.80101 0.38803 0.0
C534 C 0.07174 0.83244 0.13118 0.0
C535 C 0.10708 0.81347 0.31115 0.0
N536 N 1.02781 0.79479 0.14838 0.0
N537 N 0.14884 0.85406 0.30699 0.0
H538 H 0.11533 0.78261 0.42148 0.0
H539 H 0.14962 0.80695 0.41152 0.0
H540 H 0.15891 0.87197 0.27204 0.0
H541 H 0.16267 0.84964 0.37609 0.0
H542 H 1.01242 0.8006 0.08559 0.0
H543 H 1.01818 0.77691 0.18461 0.0
H544 H 0.03735 0.82736 0.9895 0.0
H545 H 0.06707 0.85727 0.99814 0.0
C546 C 0.72999 0.11526 0.49964 0.0
C547 C 0.74189 0.08655 0.42816 0.0
C548 C 0.71313 0.09867 0.26214 0.0
C549 C 0.69184 0.11854 0.34169 0.0
N550 N 0.68635 0.15513 0.52611 0.0
N551 N 0.74832 0.05285 0.23383 0.0
C552 C 0.70357 0.13104 0.45644 0.0
C553 C 0.7356 0.07937 0.30599 0.0
N554 N 0.74249 0.12573 0.60987 0.0
N555 N 0.71056 0.09723 0.1458 0.0
H556 H 0.7653 0.03816 0.26133 0.0
H557 H 0.74074 0.0447 0.14721 0.0
H558 H 0.69471 0.11211 0.114 0.0
H559 H 0.72699 0.08442 0.08425 0.0
H560 H 0.73565 0.1469 0.66633 0.0
H561 H 0.76167 0.11378 0.64096 0.0
H562 H 0.69112 0.16398 0.6147 0.0
H563 H 0.66661 0.16584 0.49238 0.0
C564 C 0.49063 0.64983 0.04514 0.0
C565 C 0.52054 0.66677 0.03487 0.0
C566 C 0.55023 0.61697 0.96993 0.0
C567 C 0.52054 0.59955 0.98119 0.0
N568 N 0.46041 0.59971 0.99707 0.0
N569 N 0.57408 0.66599 0.94275 0.0
C570 C 0.48997 0.61606 0.00847 0.0
C571 C 0.54844 0.65001 0.97975 0.0
N572 N 0.4635 0.66618 0.09622 0.0
N573 N 0.58072 0.60261 0.95923 0.0
H574 H 0.5732 0.69022 0.94908 0.0
H575 H 0.59408 0.65469 0.89407 0.0
H576 H 0.58402 0.57907 0.96132 0.0
H577 H 0.60322 0.61499 0.96207 0.0
H578 H 0.44213 0.65543 0.11994 0.0
H579 H 0.46335 0.69085 0.11863 0.0
H580 H 0.43719 0.61062 0.00611 0.0
H581 H 0.45907 0.57518 0.96822 0.0
C582 C 0.87062 0.59616 0.47271 0.0
C583 C 0.84461 0.57687 0.41297 0.0
C584 C 0.88341 0.55386 0.2604 0.0
C585 C 0.90891 0.56032 0.34751 0.0
N586 N 0.92902 0.59524 0.52737 0.0
N587 N 0.82419 0.55913 0.21787 0.0
C588 C 0.90395 0.58532 0.44839 0.0
C589 C 0.85037 0.56363 0.294 0.0
N590 N 0.86275 0.62064 0.56344 0.0
N591 N 0.89071 0.53671 0.1507 0.0
H592 H 0.80037 0.56716 0.2457 0.0
H593 H 0.82645 0.54977 0.12843 0.0
H594 H 0.91522 0.53029 0.12602 0.0
H595 H 0.87294 0.52914 0.0853 0.0
H596 H 0.88049 0.63632 0.61009 0.0
H597 H 0.83776 0.62603 0.5844 0.0
H598 H 0.92535 0.61108 0.60757 0.0
H599 H 0.95326 0.58674 0.51493 0.0
C600 C 0.07373 0.14497 0.20402 0.0
C601 C 0.05501 0.16491 0.1495 0.0
C602 C 0.05055 0.12182 0.97453 0.0
C603 C 0.06026 0.10025 0.04128 0.0
N604 N 0.08043 0.09163 0.22532 0.0
N605 N 1.0251 0.17203 0.97937 0.0
C606 C 0.07263 0.11183 0.15677 0.0
C607 C 0.04403 0.15358 0.03251 0.0
N608 N 0.091 0.1578 0.3042 0.0
N609 N 0.04737 0.11185 0.856 0.0
H610 H 1.01952 0.19548 0.01723 0.0
H611 H 1.01317 0.16315 0.8998 0.0
H612 H 0.05288 0.08884 0.81102 0.0
H613 H 0.04304 0.12715 0.80181 0.0
H614 H 0.10714 0.14483 0.34386 0.0
H615 H 0.09161 0.18214 0.34 0.0
H616 H 0.08588 0.09928 0.31406 0.0
H617 H 0.07878 0.06716 0.19726 0.0
C618 C 0.39364 0.02434 0.16946 0.0
C619 C 0.37405 0.99611 0.14024 0.0
C620 C 0.4186 0.97165 1.00103 0.0
C621 C 0.43787 1.00022 0.0281 0.0
N622 N 0.43967 0.05577 0.12011 0.0
N623 N 0.3653 0.94482 0.01307 0.0
C624 C 0.42408 0.02712 0.10704 0.0
C625 C 0.38579 0.97052 0.05043 0.0
N626 N 0.38404 0.04809 0.26119 0.0
N627 N 0.43235 0.94496 0.93302 0.0
H628 H 0.34109 0.94375 0.04491 0.0
H629 H 0.37093 0.92563 0.94504 0.0
H630 H 0.45589 0.94461 0.89531 0.0
H631 H 0.42175 0.92254 0.92064 0.0
H632 H 0.39908 0.06757 0.2975 0.0
H633 H 0.36169 0.04734 0.30592 0.0
H634 H 0.42947 0.07693 0.1665 0.0
H635 H 0.46145 0.05882 0.07526 0.0
C636 C 0.5208 0.31052 0.28495 0.0
C637 C 0.4983 0.30218 0.36581 0.0
C638 C 0.46088 0.34506 0.34613 0.0
C639 C 0.48463 0.35503 0.27228 0.0
N640 N 0.53209 0.34226 0.14481 0.0
N641 N 0.44294 0.30422 0.44323 0.0
C642 C 0.51286 0.33593 0.2324 0.0
C643 C 0.46669 0.31683 0.38422 0.0
N644 N 0.55082 0.29556 0.26538 0.0
N645 N 0.43406 0.36367 0.38652 0.0
H646 H 0.44742 0.28377 0.47226 0.0
H647 H 0.41837 0.31206 0.45345 0.0
H648 H 0.42909 0.38459 0.36161 0.0
H649 H 0.41791 0.35956 0.45057 0.0
H650 H 0.57039 0.30293 0.21979 0.0
H651 H 0.5564 0.27609 0.29896 0.0
H652 H 0.55121 0.32767 0.10417 0.0
H653 H 0.52706 0.36088 0.1059 0.0
C654 C 0.1913 0.51126 0.04363 0.0
C655 C 0.1931 0.50647 0.15894 0.0
C656 C 0.13152 0.4997 0.15564 0.0
C657 C 0.12973 0.50208 0.03717 0.0
N658 N 0.15992 0.50376 0.86167 0.0
N659 N 0.1653 0.48816 0.3116 0.0
C660 C 0.16027 0.50599 0.97921 0.0
C661 C 0.16328 0.49782 0.20976 0.0
N662 N 0.21888 0.52219 0.99699 0.0
N663 N 0.103 0.50191 0.22057 0.0
H664 H 0.18808 0.48639 0.35279 0.0
H665 H 0.145 0.47883 0.34794 0.0
H666 H 0.07979 0.50663 0.18886 0.0
H667 H 0.10295 0.50309 0.30988 0.0
H668 H 0.21831 0.52989 0.91987 0.0
H669 H 0.24196 0.52549 0.03959 0.0
H670 H 0.18154 0.50344 0.81229 0.0
H671 H 0.13818 0.49913 0.81141 0.0
C672 C 0.99004 0.86511 0.63929 0.0
C673 C 1.01755 0.84549 0.64743 0.0
C674 C 0.04825 0.89018 0.76635 0.0
C675 C 1.02109 0.91043 0.75747 0.0
N676 N 0.96284 0.91554 0.71202 0.0
N677 N 0.07017 0.83777 0.7363 0.0
C678 C 0.99087 0.89739 0.70201 0.0
C679 C 0.04516 0.85745 0.7197 0.0
N680 N 0.9639 0.85313 0.56726 0.0
N681 N 0.07853 0.90134 0.81187 0.0
H682 H 0.06891 0.81334 0.7041 0.0
H683 H 0.09135 0.84585 0.78679 0.0
H684 H 0.08492 0.92515 0.84001 0.0
H685 H 0.08492 0.92515 0.84001 0.0
H686 H 0.94495 0.86693 0.54542 0.0
H687 H 0.9621 0.82921 0.52533 0.0
H688 H 0.93934 0.90663 0.68259 0.0
H689 H 0.96242 0.93903 0.75917 0.0
C690 C 0.67137 1.00105 0.58069 0.0
C691 C 0.70081 0.01043 0.64829 0.0
C692 C 0.66734 0.00972 0.82561 0.0
C693 C 0.63701 1.00514 0.75907 0.0
N694 N 0.61101 1.00329 0.57201 0.0
N695 N 0.72577 0.02673 0.83908 0.0
C696 C 0.63934 1.00233 0.63603 0.0
C697 C 0.6985 0.01541 0.77196 0.0
N698 N 0.67404 0.991 0.46216 0.0
N699 N 0.66676 1.00757 0.93931 0.0
H700 H 0.7489 0.03031 0.80334 0.0
H701 H 0.7249 0.03437 0.92963 0.0
H702 H 0.64505 1.00241 0.98024 0.0
H703 H 0.68824 1.00773 0.98945 0.0
H704 H 0.65417 0.98098 0.40836 0.0
H705 H 0.697 0.9896 0.41933 0.0
H706 H 0.61141 1.00454 0.48487 0.0
H707 H 0.58726 1.00663 0.60851 0.0
C708 C 0.55155 0.69123 0.50116 0.0
C709 C 0.5716 0.69669 0.40879 0.0
C710 C 0.60978 0.65478 0.43435 0.0
C711 C 0.58614 0.64529 0.50918 0.0
N712 N 0.53621 0.65588 0.62516 0.0
N713 N 0.62073 0.68486 0.28923 0.0
C714 C 0.55775 0.66431 0.5476 0.0
C715 C 0.60154 0.67937 0.37833 0.0
N716 N 0.52613 0.71159 0.54153 0.0
N717 N 0.64004 0.64016 0.41658 0.0
H718 H 0.61631 0.70355 0.25018 0.0
H719 H 0.64009 0.67027 0.25065 0.0
H720 H 0.64663 0.62199 0.45574 0.0
H721 H 0.65965 0.64771 0.3717 0.0
H722 H 0.51132 0.71061 0.61305 0.0
H723 H 0.52172 0.73128 0.50776 0.0
H724 H 0.51337 0.66667 0.64909 0.0
H725 H 0.54087 0.63714 0.66384 0.0
C726 C 0.89096 0.48164 0.6158 0.0
C727 C 0.86791 0.50532 0.66967 0.0
C728 C 0.91141 0.52826 0.81502 0.0
C729 C 0.93419 0.50391 0.76499 0.0
N730 N 0.94235 0.45334 0.63098 0.0
N731 N 0.85373 0.54582 0.83846 0.0
C732 C 0.92289 0.4793 0.66945 0.0
C733 C 0.87733 0.52643 0.77649 0.0
N734 N 0.88293 0.46225 0.51016 0.0
N735 N 0.92305 0.55486 0.89103 0.0
H736 H 0.82885 0.545 0.81092 0.0
H737 H 0.85811 0.5601 0.92157 0.0
H738 H 0.94847 0.55879 0.90812 0.0
H739 H 0.90838 0.57457 0.92407 0.0
H740 H 0.89998 0.44728 0.45825 0.0
H741 H 0.85943 0.46247 0.47187 0.0
H742 H 0.93437 0.43334 0.56927 0.0
H743 H 0.9654 0.45059 0.66845 0.0
loop_
_geom_bond_atom_site_label_1
_geom_bond_atom_site_label_2
_geom_bond_distance
_geom_bond_site_symmetry_2
_ccdc_geom_bond_type
H0 C1 0.949 . S
C1 H0 0.949 . S
C1 C2 1.395 . S
C1 C3 1.391 . S
C2 C1 1.395 . S
C2 C5 1.390 . S
C3 C1 1.391 . S
C3 C7 1.387 . S
C3 C8 1.491 . S
H4 C5 0.950 . S
C5 C2 1.390 . S
C5 H4 0.950 . S
C5 C6 1.378 . S
C6 C5 1.378 . S
C6 C7 1.409 . S
C7 C3 1.387 . S
C7 C6 1.409 . S
C7 H9 0.951 . S
C8 C3 1.491 . S
C8 C10 1.382 . S
C8 C12 1.404 . S
H9 C7 0.951 . S
C10 C8 1.382 . S
C10 C11 1.390 . S
C10 H15 0.949 . S
C11 C10 1.390 . S
C11 C16 1.399 . S
C12 C8 1.404 . S
C12 H13 0.950 . S
C12 C14 1.375 . S
H13 C12 0.950 . S
C14 C12 1.375 . S
C14 C16 1.382 . S
C14 H18 0.950 . S
H15 C10 0.949 . S
C16 C11 1.399 . S
C16 C14 1.382 . S
C16 H17 0.952 . S
H17 C16 0.952 . S
H18 C14 0.950 . S
H19 C20 0.949 . S
C20 H19 0.949 . S
C20 C21 1.395 . S
C20 C22 1.391 . S
C21 C20 1.395 . S
C21 C24 1.390 1_655 S
C22 C20 1.391 . S
C22 C26 1.387 . S
C22 C27 1.491 . S
H23 C24 0.950 . S
C24 C21 1.390 1_455 S
C24 H23 0.950 . S
C24 C25 1.377 1_455 S
C25 C24 1.377 1_655 S
C25 C26 1.412 . S
C26 C22 1.387 . S
C26 C25 1.412 . S
C26 H28 0.951 . S
C27 C22 1.491 . S
C27 C29 1.382 . S
C27 C31 1.404 . S
H28 C26 0.951 . S
C29 C27 1.382 . S
C29 C30 1.390 . S
C29 H34 0.949 1_655 S
C30 C29 1.390 . S
C30 C35 1.399 . S
C31 C27 1.404 . S
C31 H32 0.950 . S
C31 C33 1.375 . S
H32 C31 0.950 . S
C33 C31 1.375 . S
C33 C35 1.382 . S
C33 H37 0.950 . S
H34 C29 0.949 1_455 S
C35 C30 1.399 . S
C35 C33 1.382 . S
C35 H36 0.952 . S
H36 C35 0.952 . S
H37 C33 0.950 . S
H38 C39 0.949 . S
C39 H38 0.949 . S
C39 C40 1.395 . S
C39 C41 1.391 . S
C40 C39 1.395 . S
C40 C43 1.391 1_565 S
C41 C39 1.391 . S
C41 C45 1.387 . S
C41 C46 1.491 . S
H42 C43 0.950 . S
C43 C40 1.391 1_545 S
C43 H42 0.950 . S
C43 C44 1.372 1_545 S
C44 C43 1.372 1_565 S
C44 C45 1.412 . S
C45 C41 1.387 . S
C45 C44 1.412 . S
C45 H47 0.951 . S
C46 C41 1.491 . S
C46 C48 1.382 . S
C46 C50 1.404 . S
H47 C45 0.951 . S
C48 C46 1.382 . S
C48 C49 1.390 . S
C48 H53 0.949 1_565 S
C49 C48 1.390 . S
C49 C54 1.399 . S
C50 C46 1.404 . S
C50 H51 0.950 . S
C50 C52 1.375 . S
H51 C50 0.950 . S
C52 C50 1.375 . S
C52 C54 1.382 . S
C52 H56 0.950 . S
H53 C48 0.949 1_545 S
C54 C49 1.399 . S
C54 C52 1.382 . S
C54 H55 0.952 . S
H55 C54 0.952 . S
H56 C52 0.950 . S
H57 C58 0.949 . S
C58 H57 0.949 . S
C58 C59 1.395 . S
C58 C60 1.391 1_556 S
C59 C58 1.395 . S
C59 C62 1.390 1_556 S
C60 C58 1.391 1_554 S
C60 C64 1.387 . S
C60 C65 1.491 . S
H61 C62 0.950 . S
C62 C59 1.390 1_554 S
C62 H61 0.950 . S
C62 C63 1.378 . S
C63 C62 1.378 . S
C63 C64 1.409 . S
C64 C60 1.387 . S
C64 C63 1.409 . S
C64 H66 0.951 . S
C65 C60 1.491 . S
C65 C67 1.382 1_554 S
C65 C69 1.404 . S
H66 C64 0.951 . S
C67 C65 1.382 1_556 S
C67 C68 1.390 . S
C67 H72 0.949 . S
C68 C67 1.390 . S
C68 C73 1.399 1_556 S
C69 C65 1.404 . S
C69 H70 0.950 . S
C69 C71 1.375 . S
H70 C69 0.950 . S
C71 C69 1.375 . S
C71 C73 1.382 . S
C71 H75 0.950 . S
H72 C67 0.949 . S
C73 C68 1.399 1_554 S
C73 C71 1.382 . S
C73 H74 0.952 . S
H74 C73 0.952 . S
H75 C71 0.950 . S
H76 C77 0.949 . S
C77 H76 0.949 . S
C77 C78 1.395 . S
C77 C79 1.391 . S
C78 C77 1.395 . S
C78 C81 1.390 . S
C79 C77 1.391 . S
C79 C83 1.387 . S
C79 C84 1.491 . S
H80 C81 0.950 . S
C81 C78 1.390 . S
C81 H80 0.950 . S
C81 C82 1.378 . S
C82 C81 1.378 . S
C82 C83 1.409 . S
C83 C79 1.387 . S
C83 C82 1.409 . S
C83 H85 0.951 . S
C84 C79 1.491 . S
C84 C86 1.382 . S
C84 C88 1.404 . S
H85 C83 0.951 . S
C86 C84 1.382 . S
C86 C87 1.390 . S
C86 H91 0.949 . S
C87 C86 1.390 . S
C87 C92 1.399 . S
C88 C84 1.404 . S
C88 H89 0.950 . S
C88 C90 1.375 . S
H89 C88 0.950 . S
C90 C88 1.375 . S
C90 C92 1.382 . S
C90 H94 0.950 . S
H91 C86 0.949 . S
C92 C87 1.399 . S
C92 C90 1.382 . S
C92 H93 0.952 . S
H93 C92 0.952 . S
H94 C90 0.950 . S
H95 C96 0.949 . S
C96 H95 0.949 . S
C96 C97 1.394 . S
C96 C98 1.391 . S
C97 C96 1.394 . S
C97 C100 1.390 1_655 S
C98 C96 1.391 . S
C98 C102 1.387 . S
C98 C103 1.491 . S
H99 C100 0.950 . S
C100 C97 1.390 1_455 S
C100 H99 0.950 . S
C100 C101 1.377 1_455 S
C101 C100 1.377 1_655 S
C101 C102 1.411 . S
C102 C98 1.387 . S
C102 C101 1.411 . S
C102 H104 0.951 . S
C103 C98 1.491 . S
C103 C105 1.382 . S
C103 C107 1.404 . S
H104 C102 0.951 . S
C105 C103 1.382 . S
C105 C106 1.390 . S
C105 H110 0.949 1_655 S
C106 C105 1.390 . S
C106 C111 1.399 . S
C107 C103 1.404 . S
C107 H108 0.950 . S
C107 C109 1.375 . S
H108 C107 0.950 . S
C109 C107 1.375 . S
C109 C111 1.382 . S
C109 H113 0.950 . S
H110 C105 0.949 1_455 S
C111 C106 1.399 . S
C111 C109 1.382 . S
C111 H112 0.952 . S
H112 C111 0.952 . S
H113 C109 0.950 . S
H114 C115 0.949 . S
C115 H114 0.949 . S
C115 C116 1.394 . S
C115 C117 1.391 . S
C116 C115 1.394 . S
C116 C119 1.391 1_565 S
C117 C115 1.391 . S
C117 C121 1.387 . S
C117 C122 1.491 . S
H118 C119 0.950 . S
C119 C116 1.391 1_545 S
C119 H118 0.950 . S
C119 C120 1.380 1_545 S
C120 C119 1.380 1_565 S
C120 C121 1.411 . S
C121 C117 1.387 . S
C121 C120 1.411 . S
C121 H123 0.951 . S
C122 C117 1.491 . S
C122 C124 1.382 . S
C122 C126 1.404 . S
H123 C121 0.951 . S
C124 C122 1.382 . S
C124 C125 1.390 . S
C124 H129 0.949 1_565 S
C125 C124 1.390 . S
C125 C130 1.399 . S
C126 C122 1.404 . S
C126 H127 0.950 . S
C126 C128 1.375 . S
H127 C126 0.950 . S
C128 C126 1.375 . S
C128 C130 1.382 . S
C128 H132 0.950 . S
H129 C124 0.949 1_545 S
C130 C125 1.399 . S
C130 C128 1.382 . S
C130 H131 0.952 . S
H131 C130 0.952 . S
H132 C128 0.950 . S
H133 C134 0.949 . S
C134 H133 0.949 . S
C134 C135 1.395 . S
C134 C136 1.391 . S
C135 C134 1.395 . S
C135 C138 1.390 . S
C136 C134 1.391 . S
C136 C140 1.387 . S
C136 C141 1.491 . S
H137 C138 0.950 . S
C138 C135 1.390 . S
C138 H137 0.950 . S
C138 C139 1.378 . S
C139 C138 1.378 . S
C139 C140 1.409 . S
C140 C136 1.387 . S
C140 C139 1.409 . S
C140 H142 0.951 . S
C141 C136 1.491 . S
C141 C143 1.382 . S
C141 C145 1.404 . S
H142 C140 0.951 . S
C143 C141 1.382 . S
C143 C144 1.390 . S
C143 H148 0.949 . S
C144 C143 1.390 . S
C144 C149 1.399 . S
C145 C141 1.404 . S
C145 H146 0.950 . S
C145 C147 1.375 . S
H146 C145 0.950 . S
C147 C145 1.375 . S
C147 C149 1.382 . S
C147 H151 0.950 . S
H148 C143 0.949 . S
C149 C144 1.399 . S
C149 C147 1.382 . S
C149 H150 0.952 . S
H150 C149 0.952 . S
H151 C147 0.950 . S
Tb152 C161 2.764 . S
Tb152 O162 2.325 . S
Tb152 O165 2.303 1_655 S
Tb152 O169 2.322 1_545 S
Tb152 O170 2.349 . S
Tb152 O173 2.415 . S
Tb152 O174 2.399 . S
Tb153 O163 2.322 1_565 S
Tb153 O164 2.349 1_554 S
Tb153 O166 2.415 . S
Tb153 O167 2.399 . S
Tb153 O168 2.325 1_554 S
Tb153 O171 2.303 1_454 S
Tb153 C182 2.764 . S
C154 O170 1.282 . S
C154 O171 1.252 1_545 S
C155 C158 1.358 . S
C155 C159 1.332 . S
C155 C161 1.504 . S
C156 C157 1.373 . S
C156 C160 1.308 . S
C157 C156 1.373 . S
C157 C158 1.429 . S
C157 H184 0.932 . S
C158 C155 1.358 . S
C158 C157 1.429 . S
C158 H185 0.930 . S
C159 C155 1.332 . S
C159 C160 1.394 . S
C159 H186 0.932 1_655 S
C160 C156 1.308 . S
C160 C159 1.394 . S
C160 H187 0.930 . S
C161 Tb152 2.764 . S
C161 C155 1.504 . S
C161 O173 1.239 . S
C161 O174 1.263 . S
O162 Tb152 2.325 . S
O162 C172 1.236 1_655 S
O163 Tb153 2.322 1_545 S
O163 C172 1.257 1_554 S
O164 Tb153 2.349 1_556 S
O164 C175 1.277 . S
O165 Tb152 2.303 1_455 S
O165 C175 1.253 1_545 S
O166 Tb153 2.415 . S
O166 C182 1.239 . S
O167 Tb153 2.399 . S
O167 C182 1.263 . S
O168 Tb153 2.325 1_556 S
O168 C183 1.236 1_455 S
O169 Tb152 2.322 1_565 S
O169 C183 1.257 . S
O170 Tb152 2.349 . S
O170 C154 1.282 . S
O171 Tb153 2.303 1_656 S
O171 C154 1.252 1_565 S
C172 O162 1.236 1_455 S
C172 O163 1.257 1_556 S
O173 Tb152 2.415 . S
O173 C161 1.239 . S
O174 Tb152 2.399 . S
O174 C161 1.263 . S
C175 O164 1.277 . S
C175 O165 1.253 1_565 S
C176 C179 1.358 . S
C176 C180 1.332 . S
C176 C182 1.504 . S
C177 C178 1.373 . S
C177 C181 1.308 . S
C178 C177 1.373 . S
C178 C179 1.429 . S
C178 H188 0.932 . S
C179 C176 1.358 . S
C179 C178 1.429 . S
C179 H189 0.930 . S
C180 C176 1.332 . S
C180 C181 1.394 . S
C180 H190 0.932 1_455 S
C181 C177 1.308 . S
C181 C180 1.394 . S
C181 H191 0.937 . S
C182 Tb153 2.764 . S
C182 O166 1.239 . S
C182 O167 1.263 . S
C182 C176 1.504 . S
C183 O168 1.236 1_655 S
C183 O169 1.257 . S
H184 C157 0.932 . S
H185 C158 0.930 . S
H186 C159 0.932 1_455 S
H187 C160 0.930 . S
H188 C178 0.932 . S
H189 C179 0.930 . S
H190 C180 0.932 1_655 S
H191 C181 0.937 . S
Tb192 C201 2.764 . S
Tb192 O202 2.325 . S
Tb192 O205 2.303 1_565 S
Tb192 O209 2.322 . S
Tb192 O210 2.349 . S
Tb192 O213 2.415 1_565 S
Tb192 O214 2.399 . S
Tb193 O203 2.322 . S
Tb193 O204 2.349 . S
Tb193 O206 2.415 1_545 S
Tb193 O207 2.399 . S
Tb193 O208 2.325 1_554 S
Tb193 O211 2.303 1_544 S
Tb193 C222 2.764 . S
C194 O210 1.261 . S
C194 O211 1.257 . S
C195 C198 1.358 . S
C195 C199 1.332 1_565 S
C195 C201 1.504 . S
C196 C197 1.373 . S
C196 C200 1.308 1_565 S
C197 C196 1.373 . S
C197 C198 1.429 . S
C197 H224 0.932 . S
C198 C195 1.358 . S
C198 C197 1.429 . S
C198 H225 0.930 . S
C199 C195 1.332 1_545 S
C199 C200 1.394 . S
C199 H226 0.932 . S
C200 C196 1.308 1_545 S
C200 C199 1.394 . S
C200 H227 0.929 . S
C201 Tb192 2.764 . S
C201 C195 1.504 . S
C201 O213 1.239 1_565 S
C201 O214 1.263 . S
O202 Tb192 2.325 . S
O202 C212 1.236 1_565 S
O203 Tb193 2.322 . S
O203 C212 1.257 1_554 S
O204 Tb193 2.349 . S
O204 C215 1.261 1_554 S
O205 Tb192 2.303 1_545 S
O205 C215 1.257 . S
O206 Tb193 2.415 1_565 S
O206 C222 1.239 1_565 S
O207 Tb193 2.399 . S
O207 C222 1.263 . S
O208 Tb193 2.325 1_556 S
O208 C223 1.236 1_545 S
O209 Tb192 2.322 . S
O209 C223 1.257 . S
O210 Tb192 2.349 . S
O210 C194 1.261 . S
O211 Tb193 2.303 1_566 S
O211 C194 1.257 . S
C212 O202 1.236 1_545 S
C212 O203 1.257 1_556 S
O213 Tb192 2.415 1_545 S
O213 C201 1.239 1_545 S
O214 Tb192 2.399 . S
O214 C201 1.263 . S
C215 O204 1.261 1_556 S
C215 O205 1.257 . S
C216 C219 1.358 . S
C216 C220 1.332 1_545 S
C216 C222 1.504 . S
C217 C218 1.373 . S
C217 C221 1.308 1_545 S
C218 C217 1.373 . S
C218 C219 1.429 . S
C218 H228 0.932 . S
C219 C216 1.358 . S
C219 C218 1.429 . S
C219 H229 0.930 . S
C220 C216 1.332 1_565 S
C220 C221 1.394 . S
C220 H230 0.932 . S
C221 C217 1.308 1_565 S
C221 C220 1.394 . S
C221 H231 0.929 . S
C222 Tb193 2.764 . S
C222 O206 1.239 1_545 S
C222 O207 1.263 . S
C222 C216 1.504 . S
C223 O208 1.236 1_565 S
C223 O209 1.257 . S
H224 C197 0.932 . S
H225 C198 0.930 . S
H226 C199 0.932 . S
H227 C200 0.929 . S
H228 C218 0.932 . S
H229 C219 0.930 . S
H230 C220 0.932 . S
H231 C221 0.929 . S
Tb232 C241 2.764 . S
Tb232 O242 2.325 1_554 S
Tb232 O245 2.303 1_554 S
Tb232 O249 2.322 . S
Tb232 O250 2.349 1_554 S
Tb232 O253 2.415 . S
Tb232 O254 2.399 . S
Tb233 O243 2.322 . S
Tb233 O244 2.349 . S
Tb233 O246 2.415 . S
Tb233 O247 2.399 . S
Tb233 O248 2.325 . S
Tb233 O251 2.303 . S
Tb233 C262 2.764 . S
C234 O250 1.261 . S
C234 O251 1.257 . S
C235 C238 1.358 . S
C235 C239 1.332 . S
C235 C241 1.504 . S
C236 C237 1.373 . S
C236 C240 1.308 . S
C237 C236 1.373 . S
C237 C238 1.429 . S
C237 H264 0.932 . S
C238 C235 1.358 . S
C238 C237 1.429 . S
C238 H265 0.930 . S
C239 C235 1.332 . S
C239 C240 1.394 . S
C239 H266 0.932 . S
C240 C236 1.308 . S
C240 C239 1.394 . S
C240 H267 0.929 . S
C241 Tb232 2.764 . S
C241 C235 1.504 . S
C241 O253 1.239 . S
C241 O254 1.263 . S
O242 Tb232 2.325 1_556 S
O242 C252 1.236 . S
O243 Tb233 2.322 . S
O243 C252 1.257 . S
O244 Tb233 2.349 . S
O244 C255 1.261 . S
O245 Tb232 2.303 1_556 S
O245 C255 1.257 . S
O246 Tb233 2.415 . S
O246 C262 1.239 . S
O247 Tb233 2.399 . S
O247 C262 1.263 . S
O248 Tb233 2.325 . S
O248 C263 1.236 . S
O249 Tb232 2.322 . S
O249 C263 1.257 1_554 S
O250 Tb232 2.349 1_556 S
O250 C234 1.261 . S
O251 Tb233 2.303 . S
O251 C234 1.257 . S
C252 O242 1.236 . S
C252 O243 1.257 . S
O253 Tb232 2.415 . S
O253 C241 1.239 . S
O254 Tb232 2.399 . S
O254 C241 1.263 . S
C255 O244 1.261 . S
C255 O245 1.257 . S
C256 C259 1.358 . S
C256 C260 1.332 . S
C256 C262 1.504 . S
C257 C258 1.373 . S
C257 C261 1.308 . S
C258 C257 1.373 . S
C258 C259 1.429 . S
C258 H268 0.932 . S
C259 C256 1.358 . S
C259 C258 1.429 . S
C259 H269 0.930 . S
C260 C256 1.332 . S
C260 C261 1.394 . S
C260 H270 0.932 . S
C261 C257 1.308 . S
C261 C260 1.394 . S
C261 H271 0.929 . S
C262 Tb233 2.764 . S
C262 O246 1.239 . S
C262 O247 1.263 . S
C262 C256 1.504 . S
C263 O248 1.236 . S
C263 O249 1.257 1_556 S
H264 C237 0.932 . S
H265 C238 0.930 . S
H266 C239 0.932 . S
H267 C240 0.929 . S
H268 C258 0.932 . S
H269 C259 0.930 . S
H270 C260 0.932 . S
H271 C261 0.929 . S
Tb272 C281 2.764 . S
Tb272 O282 2.325 . S
Tb272 O285 2.303 . S
Tb272 O289 2.322 1_455 S
Tb272 O290 2.349 . S
Tb272 O293 2.415 . S
Tb272 O294 2.399 . S
Tb273 O283 2.322 1_655 S
Tb273 O284 2.349 1_554 S
Tb273 O286 2.415 . S
Tb273 O287 2.399 . S
Tb273 O288 2.325 1_554 S
Tb273 O291 2.307 . S
Tb273 C302 2.764 . S
C274 O290 1.261 . S
C274 O291 1.254 1_456 S
C275 C278 1.358 . S
C275 C279 1.332 . S
C275 C281 1.504 . S
C276 C277 1.373 . S
C276 C280 1.308 . S
C277 C276 1.373 . S
C277 C278 1.429 . S
C277 H304 0.932 . S
C278 C275 1.358 . S
C278 C277 1.429 . S
C278 H305 0.930 . S
C279 C275 1.332 . S
C279 C280 1.394 . S
C279 H306 0.932 . S
C280 C276 1.308 . S
C280 C279 1.394 . S
C280 H307 0.929 . S
C281 Tb272 2.764 . S
C281 C275 1.504 . S
C281 O293 1.239 . S
C281 O294 1.263 . S
O282 Tb272 2.325 . S
O282 C292 1.236 . S
O283 Tb273 2.322 1_455 S
O283 C292 1.257 1_554 S
O284 Tb273 2.349 1_556 S
O284 C295 1.261 . S
O285 Tb272 2.303 . S
O285 C295 1.257 1_455 S
O286 Tb273 2.415 . S
O286 C302 1.239 . S
O287 Tb273 2.399 . S
O287 C302 1.263 . S
O288 Tb273 2.325 1_556 S
O288 C303 1.236 . S
O289 Tb272 2.322 1_655 S
O289 C303 1.257 . S
O290 Tb272 2.349 . S
O290 C274 1.261 . S
O291 Tb273 2.307 . S
O291 C274 1.254 1_654 S
C292 O282 1.236 . S
C292 O283 1.257 1_556 S
O293 Tb272 2.415 . S
O293 C281 1.239 . S
O294 Tb272 2.399 . S
O294 C281 1.263 . S
C295 O284 1.261 . S
C295 O285 1.257 1_655 S
C296 C299 1.358 . S
C296 C300 1.332 . S
C296 C302 1.504 . S
C297 C298 1.373 . S
C297 C301 1.308 . S
C298 C297 1.373 . S
C298 C299 1.429 . S
C298 H308 0.932 . S
C299 C296 1.358 . S
C299 C298 1.429 . S
C299 H309 0.930 . S
C300 C296 1.332 . S
C300 C301 1.394 . S
C300 H310 0.932 . S
C301 C297 1.308 . S
C301 C300 1.394 . S
C301 H311 0.929 . S
C302 Tb273 2.764 . S
C302 O286 1.239 . S
C302 O287 1.263 . S
C302 C296 1.504 . S
C303 O288 1.236 . S
C303 O289 1.257 . S
H304 C277 0.932 . S
H305 C278 0.930 . S
H306 C279 0.932 . S
H307 C280 0.929 . S
H308 C298 0.932 . S
H309 C299 0.930 . S
H310 C300 0.932 . S
H311 C301 0.929 . S
C312 C313 1.341 1_565 S
C312 C318 1.379 . S
C312 N320 1.356 . S
C313 C312 1.341 1_545 S
C313 C319 1.378 . S
C314 C315 1.363 . S
C314 C319 1.379 . S
C314 N321 1.356 . S
C315 C314 1.363 . S
C315 C318 1.363 1_545 S
N316 C318 1.356 . S
N316 H328 0.984 . S
N316 H329 0.985 . S
N317 C319 1.356 . S
N317 H322 0.984 . S
N317 H323 0.985 . S
C318 C312 1.379 . S
C318 C315 1.363 1_565 S
C318 N316 1.356 . S
C319 C313 1.378 . S
C319 C314 1.379 . S
C319 N317 1.356 . S
N320 C312 1.356 . S
N320 H326 0.984 . S
N320 H327 0.984 . S
N321 C314 1.356 . S
N321 H324 0.984 . S
N321 H325 0.985 . S
H322 N317 0.984 . S
H323 N317 0.985 . S
H324 N321 0.984 . S
H325 N321 0.985 . S
H326 N320 0.984 . S
H327 N320 0.984 . S
H328 N316 0.984 . S
H329 N316 0.985 . S
C330 C331 1.363 . S
C330 C336 1.379 . S
C330 N338 1.356 1_556 S
C331 C330 1.363 . S
C331 C337 1.363 . S
C332 C333 1.363 . S
C332 C337 1.379 . S
C332 N339 1.356 . S
C333 C332 1.363 . S
C333 C336 1.363 . S
N334 C336 1.356 1_554 S
N334 H346 0.984 . S
N334 H347 0.985 . S
N335 C337 1.356 . S
N335 H340 0.984 . S
N335 H341 0.985 . S
C336 C330 1.379 . S
C336 C333 1.363 . S
C336 N334 1.356 1_556 S
C337 C331 1.363 . S
C337 C332 1.379 . S
C337 N335 1.356 . S
N338 C330 1.356 1_554 S
N338 H344 0.984 . S
N338 H345 0.984 1_554 S
N339 C332 1.356 . S
N339 H342 0.984 . S
N339 H343 0.985 . S
H340 N335 0.984 . S
H341 N335 0.985 . S
H342 N339 0.984 . S
H343 N339 0.985 . S
H344 N338 0.984 . S
H345 N338 0.984 1_556 S
H346 N334 0.984 . S
H347 N334 0.985 . S
C348 C349 1.363 . S
C348 C354 1.379 . S
C348 N356 1.356 . S
C349 C348 1.363 . S
C349 C355 1.363 . S
C350 C351 1.363 . S
C350 C355 1.379 . S
C350 N357 1.356 . S
C351 C350 1.363 . S
C351 C354 1.363 . S
N352 C354 1.356 . S
N352 H364 0.984 . S
N352 H365 0.985 . S
N353 C355 1.356 . S
N353 H358 0.984 . S
N353 H359 0.985 . S
C354 C348 1.379 . S
C354 C351 1.363 . S
C354 N352 1.356 . S
C355 C349 1.363 . S
C355 C350 1.379 . S
C355 N353 1.356 . S
N356 C348 1.356 . S
N356 H362 0.984 . S
N356 H363 0.984 . S
N357 C350 1.356 . S
N357 H360 0.984 . S
N357 H361 0.985 . S
H358 N353 0.984 . S
H359 N353 0.985 . S
H360 N357 0.984 . S
H361 N357 0.985 . S
H362 N356 0.984 . S
H363 N356 0.984 . S
H364 N352 0.984 . S
H365 N352 0.985 . S
C366 C367 1.361 1_655 S
C366 C372 1.379 . S
C366 N374 1.356 . S
C367 C366 1.361 1_455 S
C367 C373 1.365 . S
C368 C369 1.371 . S
C368 C373 1.379 . S
C368 N375 1.356 . S
C369 C368 1.371 . S
C369 C372 1.355 1_455 S
N370 C372 1.356 . S
N370 H382 0.984 . S
N370 H383 0.985 . S
N371 C373 1.356 . S
N371 H376 0.984 . S
N371 H377 0.985 . S
C372 C366 1.379 . S
C372 C369 1.355 1_655 S
C372 N370 1.356 . S
C373 C367 1.365 . S
C373 C368 1.379 . S
C373 N371 1.356 . S
N374 C366 1.356 . S
N374 H380 0.984 . S
N374 H381 0.984 . S
N375 C368 1.356 . S
N375 H378 0.984 . S
N375 H379 0.985 . S
H376 N371 0.984 . S
H377 N371 0.985 . S
H378 N375 0.984 . S
H379 N375 0.985 . S
H380 N374 0.984 . S
H381 N374 0.984 . S
H382 N370 0.984 . S
H383 N370 0.985 . S
C384 C385 1.340 1_545 S
C384 C390 1.379 . S
C384 N392 1.356 . S
C385 C384 1.340 1_565 S
C385 C391 1.380 . S
C386 C387 1.363 . S
C386 C391 1.379 . S
C386 N393 1.356 . S
C387 C386 1.363 . S
C387 C390 1.363 1_565 S
N388 C390 1.356 . S
N388 H400 0.984 . S
N388 H401 0.985 . S
N389 C391 1.356 . S
N389 H394 0.984 . S
N389 H395 0.985 . S
C390 C384 1.379 . S
C390 C387 1.363 1_545 S
C390 N388 1.356 . S
C391 C385 1.380 . S
C391 C386 1.379 . S
C391 N389 1.356 . S
N392 C384 1.356 . S
N392 H398 0.984 . S
N392 H399 0.984 . S
N393 C386 1.356 . S
N393 H396 0.984 . S
N393 H397 0.985 . S
H394 N389 0.984 . S
H395 N389 0.985 . S
H396 N393 0.984 . S
H397 N393 0.985 . S
H398 N392 0.984 . S
H399 N392 0.984 . S
H400 N388 0.984 . S
H401 N388 0.985 . S
C402 C403 1.363 . S
C402 C408 1.379 . S
C402 N410 1.356 . S
C403 C402 1.363 . S
C403 C409 1.363 1_556 S
C404 C405 1.363 . S
C404 C409 1.379 1_556 S
C404 N411 1.356 1_556 S
C405 C404 1.363 . S
C405 C408 1.363 . S
N406 C408 1.356 . S
N406 H418 0.984 . S
N406 H419 0.985 . S
N407 C409 1.356 . S
N407 H412 0.984 . S
N407 H413 0.985 . S
C408 C402 1.379 . S
C408 C405 1.363 . S
C408 N406 1.356 . S
C409 C403 1.363 1_554 S
C409 C404 1.379 1_554 S
C409 N407 1.356 . S
N410 C402 1.356 . S
N410 H416 0.984 . S
N410 H417 0.984 . S
N411 C404 1.356 1_554 S
N411 H414 0.984 . S
N411 H415 0.985 . S
H412 N407 0.984 . S
H413 N407 0.985 . S
H414 N411 0.984 . S
H415 N411 0.985 . S
H416 N410 0.984 . S
H417 N410 0.984 . S
H418 N406 0.984 . S
H419 N406 0.985 . S
C420 C421 1.363 . S
C420 C426 1.379 . S
C420 N428 1.356 . S
C421 C420 1.363 . S
C421 C427 1.363 . S
C422 C423 1.363 . S
C422 C427 1.379 . S
C422 N429 1.356 . S
C423 C422 1.363 . S
C423 C426 1.363 . S
N424 C426 1.356 . S
N424 H436 0.984 . S
N424 H437 0.985 . S
N425 C427 1.356 . S
N425 H430 0.984 . S
N425 H431 0.985 . S
C426 C420 1.379 . S
C426 C423 1.363 . S
C426 N424 1.356 . S
C427 C421 1.363 . S
C427 C422 1.379 . S
C427 N425 1.356 . S
N428 C420 1.356 . S
N428 H434 0.984 . S
N428 H435 0.984 . S
N429 C422 1.356 . S
N429 H432 0.984 . S
N429 H433 0.985 . S
H430 N425 0.984 . S
H431 N425 0.985 . S
H432 N429 0.984 . S
H433 N429 0.985 . S
H434 N428 0.984 . S
H435 N428 0.984 . S
H436 N424 0.984 . S
H437 N424 0.985 . S
C438 C439 1.358 1_455 S
C438 C444 1.379 . S
C438 N446 1.356 . S
C439 C438 1.358 1_655 S
C439 C445 1.368 . S
C440 C441 1.386 . S
C440 C445 1.379 . S
C440 N447 1.356 . S
C441 C440 1.386 . S
C441 C444 1.341 1_655 S
N442 C444 1.356 . S
N442 H454 0.984 . S
N442 H455 0.985 . S
N443 C445 1.356 . S
N443 H448 0.984 . S
N443 H449 0.985 . S
C444 C438 1.379 . S
C444 C441 1.341 1_455 S
C444 N442 1.356 . S
C445 C439 1.368 . S
C445 C440 1.379 . S
C445 N443 1.356 . S
N446 C438 1.356 . S
N446 H452 0.984 . S
N446 H453 0.984 . S
N447 C440 1.356 . S
N447 H450 0.984 1_554 S
N447 H451 0.985 . S
H448 N443 0.984 . S
H449 N443 0.985 . S
H450 N447 0.984 1_556 S
H451 N447 0.985 . S
H452 N446 0.984 . S
H453 N446 0.984 . S
H454 N442 0.984 . S
H455 N442 0.985 . S
C456 C457 1.362 1_455 S
C456 C462 1.376 1_455 S
C456 N464 1.360 . S
C457 C456 1.362 1_655 S
C457 C463 1.363 . S
C458 C459 1.363 . S
C458 C463 1.379 . S
C458 N465 1.356 . S
C459 C458 1.363 . S
C459 C462 1.363 . S
N460 C462 1.356 . S
N460 H472 0.984 . S
N460 H473 0.985 . S
N461 C463 1.356 . S
N461 H466 0.984 . S
N461 H467 0.985 . S
C462 C456 1.376 1_655 S
C462 C459 1.363 . S
C462 N460 1.356 . S
C463 C457 1.363 . S
C463 C458 1.379 . S
C463 N461 1.356 . S
N464 C456 1.360 . S
N464 H470 0.984 . S
N464 H471 0.984 . S
N465 C458 1.356 . S
N465 H468 0.984 . S
N465 H469 0.985 . S
H466 N461 0.984 . S
H467 N461 0.985 . S
H468 N465 0.984 . S
H469 N465 0.985 . S
H470 N464 0.984 . S
H471 N464 0.984 . S
H472 N460 0.984 . S
H473 N460 0.985 . S
C474 C475 1.355 1_565 S
C474 C480 1.391 . S
C474 N482 1.349 1_565 S
C475 C474 1.355 1_545 S
C475 C481 1.363 1_545 S
C476 C477 1.363 . S
C476 C481 1.379 . S
C476 N483 1.356 . S
C477 C476 1.363 . S
C477 C480 1.363 . S
N478 C480 1.356 . S
N478 H490 0.984 . S
N478 H491 0.985 . S
N479 C481 1.356 . S
N479 H484 0.984 1_565 S
N479 H485 0.985 . S
C480 C474 1.391 . S
C480 C477 1.363 . S
C480 N478 1.356 . S
C481 C475 1.363 1_565 S
C481 C476 1.379 . S
C481 N479 1.356 . S
N482 C474 1.349 1_545 S
N482 H488 0.984 . S
N482 H489 0.984 . S
N483 C476 1.356 . S
N483 H486 0.984 . S
N483 H487 0.985 . S
H484 N479 0.984 1_545 S
H485 N479 0.985 . S
H486 N483 0.984 . S
H487 N483 0.985 . S
H488 N482 0.984 . S
H489 N482 0.984 . S
H490 N478 0.984 . S
H491 N478 0.985 . S
C492 C493 1.363 . S
C492 C498 1.379 . S
C492 N500 1.356 . S
C493 C492 1.363 . S
C493 C499 1.363 . S
C494 C495 1.363 . S
C494 C499 1.379 . S
C494 N501 1.356 . S
C495 C494 1.363 . S
C495 C498 1.363 . S
N496 C498 1.356 . S
N496 H508 0.984 . S
N496 H509 0.985 . S
N497 C499 1.356 . S
N497 H502 0.984 . S
N497 H503 0.985 . S
C498 C492 1.379 . S
C498 C495 1.363 . S
C498 N496 1.356 . S
C499 C493 1.363 . S
C499 C494 1.379 . S
C499 N497 1.356 . S
N500 C492 1.356 . S
N500 H506 0.984 . S
N500 H507 0.984 . S
N501 C494 1.356 . S
N501 H504 0.984 . S
N501 H505 0.985 . S
H502 N497 0.984 . S
H503 N497 0.985 . S
H504 N501 0.984 . S
H505 N501 0.985 . S
H506 N500 0.984 . S
H507 N500 0.984 . S
H508 N496 0.984 . S
H509 N496 0.985 . S
C510 C511 1.363 . S
C510 C516 1.379 . S
C510 N518 1.356 . S
C511 C510 1.363 . S
C511 C517 1.363 . S
C512 C513 1.363 . S
C512 C517 1.379 . S
C512 N519 1.356 . S
C513 C512 1.363 . S
C513 C516 1.363 . S
N514 C516 1.356 . S
N514 H526 0.984 . S
N514 H527 0.985 . S
N515 C517 1.356 . S
N515 H520 0.984 . S
N515 H521 0.985 . S
C516 C510 1.379 . S
C516 C513 1.363 . S
C516 N514 1.356 . S
C517 C511 1.363 . S
C517 C512 1.379 . S
C517 N515 1.356 . S
N518 C510 1.356 . S
N518 H524 0.984 . S
N518 H525 0.984 . S
N519 C512 1.356 . S
N519 H522 0.984 . S
N519 H523 0.985 . S
H520 N515 0.984 . S
H521 N515 0.985 . S
H522 N519 0.984 . S
H523 N519 0.985 . S
H524 N518 0.984 . S
H525 N518 0.984 . S
H526 N514 0.984 . S
H527 N514 0.985 . S
C528 C529 1.363 . S
C528 C534 1.379 . S
C528 N536 1.356 . S
C529 C528 1.363 . S
C529 C535 1.363 . S
C530 C531 1.363 . S
C530 C535 1.379 . S
C530 N537 1.356 . S
C531 C530 1.363 . S
C531 C534 1.363 . S
N532 C534 1.356 . S
N532 H544 0.984 . S
N532 H545 0.985 . S
N533 C535 1.356 . S
N533 H538 0.984 1_455 S
N533 H539 0.985 . S
C534 C528 1.379 . S
C534 C531 1.363 . S
C534 N532 1.356 . S
C535 C529 1.363 . S
C535 C530 1.379 . S
C535 N533 1.356 . S
N536 C528 1.356 . S
N536 H542 0.984 . S
N536 H543 0.984 1_455 S
N537 C530 1.356 . S
N537 H540 0.984 . S
N537 H541 0.985 . S
H538 N533 0.984 1_655 S
H539 N533 0.985 . S
H540 N537 0.984 . S
H541 N537 0.985 . S
H542 N536 0.984 . S
H543 N536 0.984 1_655 S
H544 N532 0.984 . S
H545 N532 0.985 . S
C546 C547 1.363 1_545 S
C546 C552 1.379 . S
C546 N554 1.356 . S
C547 C546 1.363 1_565 S
C547 C553 1.363 . S
C548 C549 1.363 1_565 S
C548 C553 1.379 . S
C548 N555 1.356 . S
C549 C548 1.363 1_545 S
C549 C552 1.363 . S
N550 C552 1.356 . S
N550 H562 0.984 . S
N550 H563 0.985 . S
N551 C553 1.356 . S
N551 H556 0.984 . S
N551 H557 0.985 . S
C552 C546 1.379 . S
C552 C549 1.363 . S
C552 N550 1.356 . S
C553 C547 1.363 . S
C553 C548 1.379 . S
C553 N551 1.356 . S
N554 C546 1.356 . S
N554 H560 0.984 . S
N554 H561 0.984 . S
N555 C548 1.356 . S
N555 H558 0.984 1_565 S
N555 H559 0.985 . S
H556 N551 0.984 . S
H557 N551 0.985 . S
H558 N555 0.984 1_545 S
H559 N555 0.985 . S
H560 N554 0.984 . S
H561 N554 0.984 . S
H562 N550 0.984 . S
H563 N550 0.985 . S
C564 C565 1.363 . S
C564 C570 1.379 . S
C564 N572 1.356 . S
C565 C564 1.363 . S
C565 C571 1.363 . S
C566 C567 1.363 1_554 S
C566 C571 1.379 1_554 S
C566 N573 1.356 . S
C567 C566 1.363 1_556 S
C567 C570 1.363 . S
N568 C570 1.356 . S
N568 H580 0.984 . S
N568 H581 0.985 . S
N569 C571 1.356 1_554 S
N569 H574 0.984 1_554 S
N569 H575 0.985 . S
C570 C564 1.379 . S
C570 C567 1.363 . S
C570 N568 1.356 . S
C571 C565 1.363 . S
C571 C566 1.379 1_556 S
C571 N569 1.356 1_556 S
N572 C564 1.356 . S
N572 H578 0.984 . S
N572 H579 0.984 . S
N573 C566 1.356 . S
N573 H576 0.984 . S
N573 H577 0.985 . S
H574 N569 0.984 1_556 S
H575 N569 0.985 . S
H576 N573 0.984 . S
H577 N573 0.985 . S
H578 N572 0.984 . S
H579 N572 0.984 . S
H580 N568 0.984 . S
H581 N568 0.985 . S
C582 C583 1.363 . S
C582 C588 1.379 . S
C582 N590 1.356 . S
C583 C582 1.363 . S
C583 C589 1.363 . S
C584 C585 1.363 . S
C584 C589 1.379 . S
C584 N591 1.356 . S
C585 C584 1.363 . S
C585 C588 1.363 . S
N586 C588 1.356 . S
N586 H598 0.984 . S
N586 H599 0.985 . S
N587 C589 1.356 . S
N587 H592 0.984 . S
N587 H593 0.985 . S
C588 C582 1.379 . S
C588 C585 1.363 . S
C588 N586 1.356 . S
C589 C583 1.363 . S
C589 C584 1.379 . S
C589 N587 1.356 . S
N590 C582 1.356 . S
N590 H596 0.984 . S
N590 H597 0.984 . S
N591 C584 1.356 . S
N591 H594 0.984 . S
N591 H595 0.985 . S
H592 N587 0.984 . S
H593 N587 0.985 . S
H594 N591 0.984 . S
H595 N591 0.985 . S
H596 N590 0.984 . S
H597 N590 0.984 . S
H598 N586 0.984 . S
H599 N586 0.985 . S
C600 C601 1.363 . S
C600 C606 1.379 . S
C600 N608 1.356 . S
C601 C600 1.363 . S
C601 C607 1.363 1_454 S
C602 C603 1.363 1_656 S
C602 C607 1.379 . S
C602 N609 1.356 . S
C603 C602 1.363 1_454 S
C603 C606 1.363 . S
N604 C606 1.356 . S
N604 H616 0.984 . S
N604 H617 0.985 . S
N605 C607 1.356 . S
N605 H610 0.984 . S
N605 H611 0.985 . S
C606 C600 1.379 . S
C606 C603 1.363 . S
C606 N604 1.356 . S
C607 C601 1.363 1_656 S
C607 C602 1.379 . S
C607 N605 1.356 . S
N608 C600 1.356 . S
N608 H614 0.984 . S
N608 H615 0.984 . S
N609 C602 1.356 . S
N609 H612 0.984 . S
N609 H613 0.985 . S
H610 N605 0.984 . S
H611 N605 0.985 . S
H612 N609 0.984 . S
H613 N609 0.985 . S
H614 N608 0.984 . S
H615 N608 0.984 . S
H616 N604 0.984 . S
H617 N604 0.985 . S
C618 C619 1.363 . S
C618 C624 1.379 . S
C618 N626 1.356 . S
C619 C618 1.363 . S
C619 C625 1.363 1_545 S
C620 C621 1.363 1_565 S
C620 C625 1.379 . S
C620 N627 1.356 1_554 S
C621 C620 1.363 1_545 S
C621 C624 1.363 . S
N622 C624 1.356 . S
N622 H634 0.984 . S
N622 H635 0.985 . S
N623 C625 1.356 1_556 S
N623 H628 0.984 1_556 S
N623 H629 0.985 . S
C624 C618 1.379 . S
C624 C621 1.363 . S
C624 N622 1.356 . S
C625 C619 1.363 1_565 S
C625 C620 1.379 . S
C625 N623 1.356 1_554 S
N626 C618 1.356 . S
N626 H632 0.984 . S
N626 H633 0.984 . S
N627 C620 1.356 1_556 S
N627 H630 0.984 . S
N627 H631 0.985 . S
H628 N623 0.984 1_554 S
H629 N623 0.985 . S
H630 N627 0.984 . S
H631 N627 0.985 . S
H632 N626 0.984 . S
H633 N626 0.984 . S
H634 N622 0.984 . S
H635 N622 0.985 . S
C636 C637 1.363 . S
C636 C642 1.379 . S
C636 N644 1.356 . S
C637 C636 1.363 . S
C637 C643 1.363 . S
C638 C639 1.363 . S
C638 C643 1.379 . S
C638 N645 1.356 . S
C639 C638 1.363 . S
C639 C642 1.363 . S
N640 C642 1.356 . S
N640 H652 0.984 . S
N640 H653 0.985 . S
N641 C643 1.356 . S
N641 H646 0.984 . S
N641 H647 0.985 . S
C642 C636 1.379 . S
C642 C639 1.363 . S
C642 N640 1.356 . S
C643 C637 1.363 . S
C643 C638 1.379 . S
C643 N641 1.356 . S
N644 C636 1.356 . S
N644 H650 0.984 . S
N644 H651 0.984 . S
N645 C638 1.356 . S
N645 H648 0.984 . S
N645 H649 0.985 . S
H646 N641 0.984 . S
H647 N641 0.985 . S
H648 N645 0.984 . S
H649 N645 0.985 . S
H650 N644 0.984 . S
H651 N644 0.984 . S
H652 N640 0.984 . S
H653 N640 0.985 . S
C654 C655 1.367 . S
C654 C660 1.379 . S
C654 N662 1.356 . S
C655 C654 1.367 . S
C655 C661 1.359 1_556 S
C656 C657 1.363 1_554 S
C656 C661 1.379 . S
C656 N663 1.356 . S
C657 C656 1.363 1_556 S
C657 C660 1.363 . S
N658 C660 1.356 . S
N658 H670 0.984 . S
N658 H671 0.985 . S
N659 C661 1.356 . S
N659 H664 0.984 . S
N659 H665 0.985 . S
C660 C654 1.379 . S
C660 C657 1.363 . S
C660 N658 1.356 . S
C661 C655 1.359 1_554 S
C661 C656 1.379 . S
C661 N659 1.356 . S
N662 C654 1.356 . S
N662 H668 0.984 . S
N662 H669 0.984 . S
N663 C656 1.356 . S
N663 H666 0.984 . S
N663 H667 0.985 . S
H664 N659 0.984 . S
H665 N659 0.985 . S
H666 N663 0.984 . S
H667 N663 0.985 . S
H668 N662 0.984 . S
H669 N662 0.984 . S
H670 N658 0.984 . S
H671 N658 0.985 . S
C672 C673 1.363 . S
C672 C678 1.379 . S
C672 N680 1.356 . S
C673 C672 1.363 . S
C673 C679 1.363 1_655 S
C674 C675 1.363 1_455 S
C674 C679 1.379 . S
C674 N681 1.356 . S
C675 C674 1.363 1_655 S
C675 C678 1.363 . S
N676 C678 1.356 . S
N676 H688 0.984 . S
N676 H689 0.985 . S
N677 C679 1.356 . S
N677 H682 0.984 . S
N677 H683 0.985 . S
C678 C672 1.379 . S
C678 C675 1.363 . S
C678 N676 1.356 . S
C679 C673 1.363 1_455 S
C679 C674 1.379 . S
C679 N677 1.356 . S
N680 C672 1.356 . S
N680 H686 0.984 . S
N680 H687 0.984 . S
N681 C674 1.356 . S
N681 H684 0.984 . S
N681 H685 0.985 . S
H682 N677 0.984 . S
H683 N677 0.985 . S
H684 N681 0.984 . S
H685 N681 0.985 . S
H686 N680 0.984 . S
H687 N680 0.984 . S
H688 N676 0.984 . S
H689 N676 0.985 . S
C690 C691 1.363 . S
C690 C696 1.379 . S
C690 N698 1.356 . S
C691 C690 1.363 . S
C691 C697 1.362 . S
C692 C693 1.363 . S
C692 C697 1.379 . S
C692 N699 1.356 . S
C693 C692 1.363 . S
C693 C696 1.363 . S
N694 C696 1.356 . S
N694 H706 0.984 . S
N694 H707 0.985 . S
N695 C697 1.357 1_545 S
N695 H700 0.984 . S
N695 H701 0.985 1_556 S
C696 C690 1.379 . S
C696 C693 1.363 . S
C696 N694 1.356 . S
C697 C691 1.362 . S
C697 C692 1.379 . S
C697 N695 1.357 1_565 S
N698 C690 1.356 . S
N698 H704 0.984 . S
N698 H705 0.984 . S
N699 C692 1.356 . S
N699 H702 0.984 . S
N699 H703 0.985 1_566 S
H700 N695 0.984 . S
H701 N695 0.985 1_554 S
H702 N699 0.984 . S
H703 N699 0.985 1_544 S
H704 N698 0.984 . S
H705 N698 0.984 . S
H706 N694 0.984 . S
H707 N694 0.985 . S
C708 C709 1.363 . S
C708 C714 1.379 . S
C708 N716 1.356 . S
C709 C708 1.363 . S
C709 C715 1.363 . S
C710 C711 1.363 . S
C710 C715 1.379 . S
C710 N717 1.356 . S
C711 C710 1.363 . S
C711 C714 1.363 . S
N712 C714 1.356 . S
N712 H724 0.984 . S
N712 H725 0.985 . S
N713 C715 1.356 . S
N713 H718 0.984 . S
N713 H719 0.985 . S
C714 C708 1.379 . S
C714 C711 1.363 . S
C714 N712 1.356 . S
C715 C709 1.363 . S
C715 C710 1.379 . S
C715 N713 1.356 . S
N716 C708 1.356 . S
N716 H722 0.984 . S
N716 H723 0.984 . S
N717 C710 1.356 . S
N717 H720 0.984 . S
N717 H721 0.985 . S
H718 N713 0.984 . S
H719 N713 0.985 . S
H720 N717 0.984 . S
H721 N717 0.985 . S
H722 N716 0.984 . S
H723 N716 0.984 . S
H724 N712 0.984 . S
H725 N712 0.985 . S
C726 C727 1.363 . S
C726 C732 1.379 . S
C726 N734 1.356 . S
C727 C726 1.363 . S
C727 C733 1.363 . S
C728 C729 1.363 . S
C728 C733 1.379 . S
C728 N735 1.356 . S
C729 C728 1.363 . S
C729 C732 1.363 . S
N730 C732 1.356 . S
N730 H742 0.984 . S
N730 H743 0.985 . S
N731 C733 1.356 . S
N731 H736 0.984 . S
N731 H737 0.985 . S
C732 C726 1.379 . S
C732 C729 1.363 . S
C732 N730 1.356 . S
C733 C727 1.363 . S
C733 C728 1.379 . S
C733 N731 1.356 . S
N734 C726 1.356 . S
N734 H740 0.984 . S
N734 H741 0.984 . S
N735 C728 1.356 . S
N735 H738 0.984 . S
N735 H739 0.985 . S
H736 N731 0.984 . S
H737 N731 0.985 . S
H738 N735 0.984 . S
H739 N735 0.985 . S
H740 N734 0.984 . S
H741 N734 0.984 . S
H742 N730 0.984 . S
H743 N730 0.985 . S
C313 C125 2.196 1_545 S
C315 C175 2.219 1_545 S
C333 C215 1.867 . S
C331 C144 1.676 . S
C351 C234 2.231 . S
C349 C87 2.128 . S
C369 C295 1.537 1_455 S
C367 C106 1.515 1_455 S
C387 C154 2.218 1_564 S
C385 C49 2.198 . S
C403 C68 1.771 . S
C405 C194 1.872 . S
C421 C11 2.239 . S
C423 C255 2.232 1_554 S
C439 C30 1.515 . S
C441 C274 1.538 1_654 S
C459 C156 1.141 . S
C457 C97 1.164 . S
C477 C196 0.614 . S
C475 C116 0.623 1_545 S
C495 C252 1.505 . S
C493 C135 1.261 . S
C511 C78 0.700 . S
C513 C276 0.692 . S
C529 C21 1.169 1_455 S
C531 C177 1.145 . S
C549 C217 0.614 . S
C547 C40 0.623 . S
C567 C263 1.505 . S
C565 C59 1.263 . S
C583 C2 0.699 . S
C585 C297 0.698 . S
C601 C101 1.595 1_455 S
C603 C172 1.789 1_554 S
C619 C120 2.313 1_545 S
C621 C212 2.553 1_554 S
C639 C236 1.561 . S
C637 C139 1.593 . S
C657 C292 2.547 . S
C655 C82 2.300 1_556 S
C673 C25 1.594 . S
C675 C183 1.798 . S
C693 C223 2.553 . S
C691 C44 2.314 . S
C711 C257 1.560 . S
C709 C63 1.586 . S
C727 C6 2.309 . S
C729 C303 2.552 . S
