# Generated by pormake.
# Topology zzz, (3,6)-cn, num edge types: 1
# Building blocks:
#     Node 0, Type 0, BuildingBlock: VETTIZ_charged_linker_0, # of connection points: 3
#     Node 1, Type 0, BuildingBlock: VETTIZ_charged_linker_0, # of connection points: 3
#     Node 2, Type 0, BuildingBlock: VETTIZ_charged_linker_0, # of connection points: 3
#     Node 3, Type 0, BuildingBlock: VETTIZ_charged_linker_0, # of connection points: 3
#     Node 4, Type 0, BuildingBlock: VETTIZ_charged_linker_0, # of connection points: 3
#     Node 5, Type 0, BuildingBlock: VETTIZ_charged_linker_0, # of connection points: 3
#     Node 6, Type 0, BuildingBlock: VETTIZ_charged_linker_0, # of connection points: 3
#     Node 7, Type 0, BuildingBlock: VETTIZ_charged_linker_0, # of connection points: 3
#     Node 8, Type 1, BuildingBlock: BETDEL_clean_sbu_0, # of connection points: 6
#     Node 9, Type 1, BuildingBlock: BETDEL_clean_sbu_0, # of connection points: 6
#     Node 10, Type 1, BuildingBlock: BETDEL_clean_sbu_0, # of connection points: 6
#     Node 11, Type 1, BuildingBlock: BETDEL_clean_sbu_0, # of connection points: 6
#     Edge 12, Type (0, 1), BuildingBlock: OJICUG_clean_linker_0, # of connection points: 2
#     Edge 13, Type (0, 1), BuildingBlock: OJICUG_clean_linker_0, # of connection points: 2
#     Edge 14, Type (0, 1), BuildingBlock: OJICUG_clean_linker_0, # of connection points: 2
#     Edge 15, Type (0, 1), BuildingBlock: OJICUG_clean_linker_0, # of connection points: 2
#     Edge 16, Type (0, 1), BuildingBlock: OJICUG_clean_linker_0, # of connection points: 2
#     Edge 17, Type (0, 1), BuildingBlock: OJICUG_clean_linker_0, # of connection points: 2
#     Edge 18, Type (0, 1), BuildingBlock: OJICUG_clean_linker_0, # of connection points: 2
#     Edge 19, Type (0, 1), BuildingBlock: OJICUG_clean_linker_0, # of connection points: 2
#     Edge 20, Type (0, 1), BuildingBlock: OJICUG_clean_linker_0, # of connection points: 2
#     Edge 21, Type (0, 1), BuildingBlock: OJICUG_clean_linker_0, # of connection points: 2
#     Edge 22, Type (0, 1), BuildingBlock: OJICUG_clean_linker_0, # of connection points: 2
#     Edge 23, Type (0, 1), BuildingBlock: OJICUG_clean_linker_0, # of connection points: 2
#     Edge 24, Type (0, 1), BuildingBlock: OJICUG_clean_linker_0, # of connection points: 2
#     Edge 25, Type (0, 1), BuildingBlock: OJICUG_clean_linker_0, # of connection points: 2
#     Edge 26, Type (0, 1), BuildingBlock: OJICUG_clean_linker_0, # of connection points: 2
#     Edge 27, Type (0, 1), BuildingBlock: OJICUG_clean_linker_0, # of connection points: 2
#     Edge 28, Type (0, 1), BuildingBlock: OJICUG_clean_linker_0, # of connection points: 2
#     Edge 29, Type (0, 1), BuildingBlock: OJICUG_clean_linker_0, # of connection points: 2
#     Edge 30, Type (0, 1), BuildingBlock: OJICUG_clean_linker_0, # of connection points: 2
#     Edge 31, Type (0, 1), BuildingBlock: OJICUG_clean_linker_0, # of connection points: 2
#     Edge 32, Type (0, 1), BuildingBlock: OJICUG_clean_linker_0, # of connection points: 2
#     Edge 33, Type (0, 1), BuildingBlock: OJICUG_clean_linker_0, # of connection points: 2
#     Edge 34, Type (0, 1), BuildingBlock: OJICUG_clean_linker_0, # of connection points: 2
#     Edge 35, Type (0, 1), BuildingBlock: OJICUG_clean_linker_0, # of connection points: 2
# Relax obj value: 0.358
# Max RMSD: 0.232
# Mean RMSD: 0.215
data_MOF--net-zzz--node1-BETDEL_clean_sbu_0--node2-VETTIZ_charged_linker_0--edge1-OJICUG_clean_linker_0
_symmetry_space_group_name_H-M    P1
_symmetry_Int_Tables_number       1
_symmetry_cell_setting            triclinic
loop_
_symmetry_equiv_pos_as_xyz
'x, y, z'
_cell_length_a     42.497907
_cell_length_b     42.827326
_cell_length_c     15.301094
_cell_angle_alpha  90.913767
_cell_angle_beta   89.246989
_cell_angle_gamma 95.602092
loop_
_atom_site_label
_atom_site_type_symbol
_atom_site_fract_x
_atom_site_fract_y
_atom_site_fract_z
_atom_type_partial_charge
C0 C 0.8291 0.53055 0.2389 0.0
C1 C 0.841 0.51459 0.31112 0.0
C2 C 0.82538 0.48502 0.33358 0.0
C3 C 0.79638 0.48341 0.19992 0.0
C4 C 0.80488 0.51464 0.18667 0.0
C5 C 0.78731 0.52498 0.10698 0.0
H6 H 0.7078 0.47656 0.73424 0.0
C7 C 0.78141 0.46942 0.12162 0.0
C8 C 0.76958 0.4937 0.07493 0.0
H9 H 0.66885 0.54157 0.91533 0.0
H10 H 0.7104 0.53257 0.02135 0.0
H11 H 0.77901 0.49315 0.76159 0.0
H12 H 0.71139 0.42498 0.87376 0.0
H13 H 0.74601 0.40675 0.84796 0.0
H14 H 0.72614 0.4253 0.76306 0.0
H15 H 0.77547 0.45361 0.72147 0.0
H16 H 0.80304 0.46643 0.80659 0.0
C17 C 0.81114 0.53858 0.03747 0.0
C18 C 0.7646 0.54916 0.13486 0.0
C19 C 0.85352 0.39565 0.98799 0.0
C20 C 0.86289 0.3952 0.89991 0.0
C21 C 0.84014 0.39841 0.83557 0.0
C22 C 0.8109 0.40872 0.85899 0.0
C23 C 0.80515 0.4168 0.94672 0.0
C24 C 0.82559 0.40896 0.01062 0.0
C25 C 0.81784 0.42265 0.09878 0.0
C26 C 0.79163 0.44315 0.07445 0.0
C27 C 0.78435 0.43909 0.98534 0.0
C28 C 0.84771 0.44174 0.13712 0.0
C29 C 0.80537 0.39533 0.15799 0.0
C30 C 0.70802 0.48952 0.79554 0.0
C31 C 0.68467 0.50987 0.81504 0.0
C32 C 0.68675 0.52632 0.89663 0.0
C33 C 0.71091 0.52167 0.95735 0.0
C34 C 0.73363 0.50097 0.9357 0.0
C35 C 0.7311 0.48455 0.8571 0.0
C36 C 0.75295 0.45897 0.85171 0.0
C37 C 0.76591 0.46029 0.94388 0.0
C38 C 0.75714 0.48668 0.98984 0.0
C39 C 0.77891 0.46829 0.78174 0.0
C40 C 0.73327 0.42723 0.83267 0.0
H41 H 0.79232 0.44635 0.29446 0.0
H42 H 0.83898 0.554 0.2225 0.0
H43 H 0.74519 0.53824 0.17704 0.0
H44 H 0.75426 0.55932 0.07688 0.0
H45 H 0.77743 0.56885 0.17207 0.0
H46 H 0.82797 0.52122 0.01891 0.0
H47 H 0.82488 0.56019 0.0626 0.0
H48 H 0.79864 0.54466 0.97766 0.0
H49 H 0.8704 0.39114 0.03741 0.0
H50 H 0.84644 0.39722 0.76683 0.0
H51 H 0.79521 0.41279 0.80711 0.0
H52 H 0.85117 0.46567 0.1093 0.0
H53 H 0.86984 0.43077 0.12488 0.0
H54 H 0.84667 0.44321 0.20902 0.0
H55 H 0.8241 0.37941 0.16824 0.0
H56 H 0.7847 0.38143 0.12795 0.0
H57 H 0.79782 0.40363 0.22276 0.0
H58 H 0.83259 0.47247 0.38964 0.0
C59 C 0.80275 0.46951 0.27849 0.0
C60 C 0.94579 0.81906 0.78549 0.0
C61 C 0.94015 0.85059 0.80262 0.0
C62 C 0.91216 0.85616 0.84906 0.0
C63 C 0.91009 0.80386 0.9028 0.0
C64 C 0.92926 0.79542 0.83526 0.0
C65 C 0.93642 0.7619 0.84464 0.0
H66 H 1.00646 0.66398 0.03033 0.0
C67 C 0.91411 0.78293 0.97577 0.0
C68 C 0.92473 0.75577 0.93881 0.0
H69 H 0.93322 0.63993 0.83831 0.0
H70 H 0.90857 0.6874 0.87948 0.0
H71 H 1.01564 0.74408 0.00912 0.0
H72 H 0.94698 0.69514 0.1855 0.0
H73 H 0.97391 0.72505 0.23353 0.0
H74 H 0.98829 0.68945 0.19284 0.0
H75 H 0.02855 0.71886 0.09177 0.0
H76 H 1.01701 0.75693 0.12062 0.0
C77 C 0.97224 0.75876 0.83276 0.0
C78 C 0.91711 0.74157 0.77648 0.0
C79 C 0.94843 0.8456 0.2462 0.0
C80 C 0.9747 0.84583 0.30022 0.0
C81 C 0.99136 0.81869 0.30015 0.0
C82 C 0.98292 0.79297 0.24223 0.0
C83 C 0.95819 0.79481 0.18247 0.0
C84 C 0.94184 0.82127 0.18519 0.0
C85 C 0.92138 0.82376 0.10742 0.0
C86 C 0.92544 0.79279 0.06036 0.0
C87 C 0.94674 0.77522 0.10517 0.0
C88 C 0.93481 0.85332 0.05565 0.0
C89 C 0.88685 0.82535 0.13806 0.0
C90 C 0.98515 0.66879 0.9972 0.0
C91 C 0.9724 0.64843 0.92864 0.0
C92 C 0.94393 0.65506 0.88938 0.0
C93 C 0.93028 0.68254 0.91022 0.0
C94 C 0.9453 0.70357 0.96997 0.0
C95 C 0.97 0.69605 0.01947 0.0
C96 C 0.9773 0.72159 0.09014 0.0
C97 C 0.95316 0.74512 0.06954 0.0
C98 C 0.93719 0.73445 0.99405 0.0
C99 C 1.01157 0.73623 0.07763 0.0
C100 C 0.97136 0.70708 0.18084 0.0
H101 H 0.87861 0.83788 0.9463 0.0
H102 H 0.96547 0.81342 0.74493 0.0
H103 H 0.89163 0.73848 0.79508 0.0
H104 H 0.92599 0.71824 0.76792 0.0
H105 H 0.91928 0.75272 0.71125 0.0
H106 H 0.98623 0.77447 0.87954 0.0
H107 H 0.98028 0.76467 0.76518 0.0
H108 H 0.97777 0.73435 0.84325 0.0
H109 H 0.93483 0.86572 0.24523 0.0
H110 H 1.01166 0.81794 0.34182 0.0
H111 H 0.99673 0.77326 0.24269 0.0
H112 H 0.94983 0.87075 0.09505 0.0
H113 H 0.91573 0.86688 0.03258 0.0
H114 H 0.95028 0.84692 1.00049 0.0
H115 H 0.87958 0.80623 0.18463 0.0
H116 H 0.87035 0.82255 0.08254 0.0
H117 H 0.88394 0.84817 0.17128 0.0
H118 H 0.905 0.87966 0.85612 0.0
C119 C 0.89703 0.83245 0.90106 0.0
C120 C 0.85851 0.99542 0.94959 0.0
C121 C 0.8746 0.98345 0.87519 0.0
C122 C 0.85981 0.9576 0.8282 0.0
C123 C 0.81223 0.96164 0.91077 0.0
C124 C 0.82702 0.98258 0.96882 0.0
C125 C 0.80356 0.9889 0.04335 0.0
H126 H 0.64338 0.96585 0.16117 0.0
C127 C 0.77877 0.95854 0.92767 0.0
C128 C 0.77232 0.97146 0.00971 0.0
H129 H 0.71662 1.00824 0.3291 0.0
H130 H 0.75652 1.00107 0.21281 0.0
H131 H 0.65182 0.99811 0.02549 0.0
H132 H 0.67805 0.91026 0.06567 0.0
H133 H 0.66583 0.91331 0.9558 0.0
H134 H 0.641 0.92553 0.04343 0.0
H135 H 0.64215 0.97133 0.94028 0.0
H136 H 0.67712 0.99926 0.93266 0.0
C137 C 0.80112 0.02432 0.05411 0.0
C138 C 0.81455 0.97428 0.12743 0.0
C139 C 0.7124 0.99696 0.70039 0.0
C140 C 0.67976 0.9993 0.70469 0.0
C141 C 0.65981 0.97568 0.74646 0.0
C142 C 0.67281 0.95438 0.80017 0.0
C143 C 0.70538 0.95812 0.81277 0.0
C144 C 0.72488 0.97521 0.75457 0.0
C145 C 0.759 0.97237 0.77404 0.0
C146 C 0.75553 0.95619 0.86321 0.0
C147 C 0.72387 0.95187 0.88935 0.0
C148 C 0.77771 1.00526 0.77924 0.0
C149 C 0.77253 0.95192 0.70154 0.0
C150 C 0.66805 0.97313 0.17429 0.0
C151 C 0.67677 0.9869 0.25488 0.0
C152 C 0.70917 0.99723 0.26764 0.0
C153 C 0.73222 0.99281 0.20094 0.0
C154 C 0.72264 0.97849 0.12054 0.0
C155 C 0.69069 0.96976 0.10865 0.0
C156 C 0.68294 0.9587 0.01773 0.0
C157 C 0.7159 0.95869 0.97796 0.0
C158 C 0.73966 0.97035 0.0378 0.0
C159 C 0.66264 0.98292 0.97628 0.0
C160 C 0.66589 0.92515 0.02055 0.0
H161 H 0.81702 0.9274 0.80795 0.0
H162 H 0.86973 0.01441 0.98913 0.0
H163 H 0.81736 0.94896 0.11653 0.0
H164 H 0.79744 0.97608 0.18171 0.0
H165 H 0.83772 0.9862 0.14815 0.0
H166 H 0.79454 0.03441 0.99117 0.0
H167 H 0.82408 0.03658 0.0751 0.0
H168 H 0.7829 0.02914 0.10357 0.0
H169 H 0.72769 0.01409 0.66467 0.0
H170 H 0.63436 0.97619 0.74618 0.0
H171 H 0.65735 0.93794 0.83696 0.0
H172 H 0.76737 0.02011 0.83026 0.0
H173 H 0.77766 0.01736 0.71566 0.0
H174 H 0.80291 1.00379 0.79444 0.0
H175 H 0.76465 0.95874 0.6361 0.0
H176 H 0.76459 0.92667 0.71075 0.0
H177 H 0.79868 0.9552 0.6989 0.0
H178 H 0.87173 0.94732 0.77336 0.0
C179 C 0.82855 0.94661 0.84597 0.0
C180 C 0.54671 0.73143 0.3172 0.0
C181 C 0.56489 0.7125 0.36859 0.0
C182 C 0.59795 0.72031 0.37274 0.0
C183 C 0.59477 0.75451 0.2514 0.0
C184 C 0.56276 0.75436 0.26259 0.0
C185 C 0.55028 0.77644 0.19701 0.0
H186 H 0.56926 0.84735 0.80585 0.0
C187 C 0.60346 0.76674 0.16532 0.0
C188 C 0.58032 0.78636 0.14257 0.0
H189 H 0.54303 0.89898 0.03595 0.0
H190 H 0.55701 0.85553 0.12894 0.0
H191 H 0.6334 0.82729 0.88734 0.0
H192 H 0.54127 0.78323 0.84485 0.0
H193 H 0.56137 0.75078 0.87307 0.0
H194 H 0.57308 0.77307 0.77674 0.0
H195 H 0.61503 0.81571 0.78507 0.0
H196 H 0.63622 0.78884 0.84504 0.0
C197 C 0.53748 0.80431 0.24549 0.0
C198 C 0.52445 0.75873 0.14022 0.0
C199 C 0.62568 0.67512 0.97513 0.0
C200 C 0.61334 0.66857 0.89193 0.0
C201 C 0.61101 0.6934 0.83406 0.0
C202 C 0.61563 0.72447 0.86425 0.0
C203 C 0.62056 0.73032 0.95375 0.0
C204 C 0.627 0.70608 0.00739 0.0
C205 C 0.62775 0.71585 0.10237 0.0
C206 C 0.61722 0.74913 0.0972 0.0
C207 C 0.61317 0.7571 0.00932 0.0
C208 C 0.66204 0.7163 0.13385 0.0
C209 C 0.6046 0.6928 0.15599 0.0
C210 C 0.56542 0.84912 0.87583 0.0
C211 C 0.55402 0.8761 0.91313 0.0
C212 C 0.55087 0.87807 1.00538 0.0
C213 C 0.55797 0.85296 0.05869 0.0
C214 C 0.5679 0.82576 0.01901 0.0
C215 C 0.573 0.82485 0.92969 0.0
C216 C 0.58909 0.79653 0.90105 0.0
C217 C 0.59588 0.78274 0.9892 0.0
C218 C 0.58104 0.79835 0.05658 0.0
C219 C 0.62009 0.80752 0.8515 0.0
C220 C 0.56519 0.77475 0.84601 0.0
H221 H 0.63865 0.74475 0.31006 0.0
H222 H 0.52121 0.72709 0.31575 0.0
H223 H 0.53356 0.73805 0.1072 0.0
H224 H 0.5166 0.77431 0.08911 0.0
H225 H 0.50348 0.75047 0.18069 0.0
H226 H 0.55695 0.81939 0.27735 0.0
H227 H 0.52009 0.79582 0.29678 0.0
H228 H 0.52505 0.81865 0.19996 0.0
H229 H 0.62914 0.65593 0.01798 0.0
H230 H 0.60249 0.6887 0.76825 0.0
H231 H 0.61244 0.74257 0.81871 0.0
H232 H 0.66997 0.69234 0.12975 0.0
H233 H 0.66447 0.72457 0.20231 0.0
H234 H 0.67829 0.73211 0.09297 0.0
H235 H 0.58 0.69945 0.15381 0.0
H236 H 0.61227 0.69124 0.22411 0.0
H237 H 0.60354 0.66814 0.13316 0.0
H238 H 0.61237 0.70723 0.41385 0.0
C239 C 0.61318 0.74129 0.31288 0.0
C240 C 0.34949 0.52644 0.23781 0.0
C241 C 0.35796 0.53662 0.32442 0.0
C242 C 0.33582 0.55184 0.37465 0.0
C243 C 0.30126 0.55262 0.25116 0.0
C244 C 0.32036 0.53435 0.20268 0.0
C245 C 0.30644 0.52778 0.11142 0.0
H246 H 0.19769 0.56944 0.81467 0.0
C247 C 0.27671 0.56292 0.19469 0.0
C248 C 0.27751 0.54687 0.11421 0.0
H249 H 0.20379 0.47297 0.88116 0.0
H250 H 0.24241 0.49 0.99565 0.0
H251 H 0.17478 0.58047 0.95268 0.0
H252 H 0.26814 0.61028 0.88771 0.0
H253 H 0.25122 0.63939 0.95176 0.0
H254 H 0.23093 0.6232 0.85611 0.0
H255 H 0.18669 0.62051 0.96788 0.0
H256 H 0.18589 0.59317 0.05763 0.0
C257 C 0.2974 0.49239 0.09888 0.0
C258 C 0.33031 0.54024 0.04071 0.0
C259 C 0.19954 0.63778 0.29047 0.0
C260 C 0.17703 0.65054 0.23856 0.0
C261 C 0.1853 0.65928 0.15236 0.0
C262 C 0.21253 0.64908 0.11328 0.0
C263 C 0.22956 0.62856 0.15971 0.0
C264 C 0.22576 0.62634 0.24903 0.0
C265 C 0.2479 0.60482 0.28702 0.0
C266 C 0.26008 0.58993 0.20367 0.0
C267 C 0.24793 0.60304 0.12951 0.0
C268 C 0.22899 0.57995 0.34475 0.0
C269 C 0.27432 0.62527 0.33677 0.0
C270 C 0.20901 0.55164 0.84875 0.0
C271 C 0.19871 0.51988 0.83514 0.0
C272 C 0.21205 0.49762 0.88752 0.0
C273 C 0.23493 0.50729 0.95212 0.0
C274 C 0.244 0.5395 0.96626 0.0
C275 C 0.22867 0.56085 0.91935 0.0
C276 C 0.22756 0.5915 0.96802 0.0
C277 C 0.24584 0.58543 0.05001 0.0
C278 C 0.25816 0.55612 0.04484 0.0
C279 C 0.19222 0.59689 0.98775 0.0
C280 C 0.2453 0.61767 0.91297 0.0
H281 H 0.29251 0.57208 0.3802 0.0
H282 H 0.36557 0.51404 0.1979 0.0
H283 H 0.33762 0.56562 0.0518 0.0
H284 H 0.31961 0.53726 0.97483 0.0
H285 H 0.35177 0.52735 0.04129 0.0
H286 H 0.27647 0.4844 0.13993 0.0
H287 H 0.31731 0.47894 0.11743 0.0
H288 H 0.2923 0.48653 0.02938 0.0
H289 H 0.19392 0.63174 0.35772 0.0
H290 H 0.16876 0.67017 0.11223 0.0
H291 H 0.21768 0.65458 0.04614 0.0
H292 H 0.20705 0.57015 0.31118 0.0
H293 H 0.22212 0.59039 0.40827 0.0
H294 H 0.24236 0.55974 0.3585 0.0
H295 H 0.27292 0.65085 0.32809 0.0
H296 H 0.29826 0.62079 0.31295 0.0
H297 H 0.27285 0.62113 0.40825 0.0
H298 H 0.34071 0.55862 0.44204 0.0
C299 C 0.30791 0.55999 0.33863 0.0
C300 C 0.1137 0.22375 0.37145 0.0
C301 C 0.12226 0.19303 0.35522 0.0
C302 C 0.15055 0.18995 0.30726 0.0
C303 C 0.14705 0.24133 0.25146 0.0
C304 C 0.12762 0.24828 0.31989 0.0
C305 C 0.1174 0.28074 0.31033 0.0
H306 H 0.04258 0.37559 0.11795 0.0
C307 C 0.14081 0.26152 0.17868 0.0
C308 C 0.1285 0.28777 0.21611 0.0
H309 H 0.11395 0.40333 0.31249 0.0
H310 H 0.14042 0.35653 0.27582 0.0
H311 H 0.1026 0.34614 0.9683 0.0
H312 H 0.03605 0.29552 0.14704 0.0
H313 H 0.03512 0.28148 0.03681 0.0
H314 H 0.02199 0.31917 0.06234 0.0
H315 H 0.06081 0.3493 0.95982 0.0
H316 H 0.07751 0.31464 0.92103 0.0
C317 C 0.1349 0.30263 0.37848 0.0
C318 C 0.08114 0.28063 0.3218 0.0
C319 C 0.10539 0.19498 0.91637 0.0
C320 C 0.07885 0.19382 0.86328 0.0
C321 C 0.06165 0.22052 0.86151 0.0
C322 C 0.06989 0.24689 0.91708 0.0
C323 C 0.09504 0.24614 0.97605 0.0
C324 C 0.11205 0.22013 0.97463 0.0
C325 C 0.13393 0.21945 0.05003 0.0
C326 C 0.12919 0.25061 0.09527 0.0
C327 C 0.10661 0.26678 0.05102 0.0
C328 C 0.1681 0.21908 0.01511 0.0
C329 C 0.1228 0.19005 0.10543 0.0
C330 C 0.06379 0.37166 0.15289 0.0
C331 C 0.07557 0.39294 0.22038 0.0
C332 C 0.10396 0.38747 0.26204 0.0
C333 C 0.11861 0.36032 0.24393 0.0
C334 C 0.10457 0.3384 0.18484 0.0
C335 C 0.07978 0.34472 0.13382 0.0
C336 C 0.07355 0.31867 0.06433 0.0
C337 C 0.09879 0.29647 0.086 0.0
C338 C 0.11428 0.30803 0.16135 0.0
C339 C 0.07882 0.33287 0.97302 0.0
C340 C 0.03978 0.30278 0.0779 0.0
H341 H 0.18143 0.21039 0.20667 0.0
H342 H 0.09387 0.22792 0.41321 0.0
H343 H 0.06855 0.2637 0.27526 0.0
H344 H 0.0734 0.3042 0.3104 0.0
H345 H 0.07354 0.27427 0.38945 0.0
H346 H 0.13365 0.29152 0.44381 0.0
H347 H 0.12383 0.32487 0.38662 0.0
H348 H 0.16024 0.3079 0.36013 0.0
H349 H 0.11934 0.17512 0.91818 0.0
H350 H 0.04119 0.22046 0.82008 0.0
H351 H 0.05576 0.26631 0.91506 0.0
H352 H 0.17368 0.23787 0.96636 0.0
H353 H 0.17151 0.19616 0.9831 0.0
H354 H 0.1855 0.22325 0.06814 0.0
H355 H 0.10807 0.17151 0.06905 0.0
H356 H 0.10778 0.19626 0.16178 0.0
H357 H 0.14304 0.17787 0.12736 0.0
H358 H 0.16019 0.16753 0.30103 0.0
C359 C 0.16289 0.21436 0.2531 0.0
C360 C 0.33707 0.02098 0.87061 0.0
C361 C 0.35675 1.0041 0.81417 0.0
C362 C 0.35167 0.97096 0.81247 0.0
C363 C 0.31544 0.97201 0.93373 0.0
C364 C 0.31546 1.00393 0.92853 0.0
C365 C 0.28908 0.0147 0.98776 0.0
H366 H 0.19039 0.973 0.34101 0.0
C367 C 0.29586 0.96047 0.00708 0.0
C368 C 0.27807 0.98444 0.03773 0.0
H369 H 0.18889 0.05775 0.19397 0.0
H370 H 0.23078 0.04103 0.09628 0.0
H371 H 0.19429 0.92485 0.17931 0.0
H372 H 0.25404 0.9727 0.36314 0.0
H373 H 0.28148 0.94906 0.31604 0.0
H374 H 0.24645 0.93144 0.37151 0.0
H375 H 0.19814 0.91715 0.29362 0.0
H376 H 0.22125 0.89851 0.21193 0.0
C377 C 0.26291 0.02474 0.92861 0.0
C378 C 0.30252 0.04126 0.04943 0.0
C379 C 0.34576 0.88663 0.19907 0.0
C380 C 0.33914 0.8808 0.28778 0.0
C381 C 0.30747 0.87924 0.31699 0.0
C382 C 0.28443 0.89034 0.26416 0.0
C383 C 0.29375 0.90401 0.18391 0.0
C384 C 0.32307 0.8995 0.14886 0.0
C385 C 0.32913 0.91594 0.06325 0.0
C386 C 0.29982 0.93414 0.05897 0.0
C387 C 0.28022 0.92814 0.13215 0.0
C388 C 0.33079 0.89067 0.99024 0.0
C389 C 0.36017 0.93816 0.06904 0.0
C390 C 0.19875 0.98791 0.28725 0.0
C391 C 0.18632 0.01652 0.27508 0.0
C392 C 0.19802 0.03539 0.20442 0.0
C393 C 0.22208 0.02561 0.14761 0.0
C394 C 0.2341 0.9965 0.16085 0.0
C395 C 0.22212 0.97841 0.23023 0.0
C396 C 0.23738 0.94864 0.23851 0.0
C397 C 0.25897 0.95023 0.15872 0.0
C398 C 0.25783 0.97861 0.11315 0.0
C399 C 0.21149 0.92067 0.23106 0.0
C400 C 0.25574 0.95029 0.3264 0.0
H401 H 0.3257 0.93004 0.86401 0.0
H402 H 0.33853 0.04634 0.8694 0.0
H403 H 0.32235 0.03357 0.08778 0.0
H404 H 0.28433 0.04826 0.09618 0.0
H405 H 0.31155 0.06229 0.0117 0.0
H406 H 0.25647 1.00636 0.87805 0.0
H407 H 0.27107 0.04686 0.8946 0.0
H408 H 0.24103 0.02826 0.96521 0.0
H409 H 0.3697 0.88659 0.1742 0.0
H410 H 0.30149 0.87352 0.38429 0.0
H411 H 0.26102 0.89051 0.29076 0.0
H412 H 0.33736 0.86809 0.01614 0.0
H413 H 0.34941 0.89767 0.94098 0.0
H414 H 0.30766 0.88565 0.95724 0.0
H415 H 0.35909 0.95486 0.12515 0.0
H416 H 0.36505 0.95196 0.00928 0.0
H417 H 0.38099 0.92476 0.07703 0.0
H418 H 0.36496 0.95702 0.76847 0.0
C419 C 0.33038 0.95505 0.87007 0.0
C420 C 0.49762 0.31053 0.77291 0.0
C421 C 0.48032 0.33115 0.72459 0.0
C422 C 0.44701 0.32541 0.72237 0.0
C423 C 0.44903 0.28959 0.84039 0.0
C424 C 0.48072 0.28791 0.82674 0.0
C425 C 0.4923 0.26441 0.88963 0.0
H426 H 0.47101 0.19023 0.27578 0.0
C427 C 0.44041 0.27709 0.92618 0.0
C428 C 0.46234 0.25574 0.94552 0.0
H429 H 0.49238 0.1391 0.04008 0.0
H430 H 0.48101 0.18472 0.95184 0.0
H431 H 0.50434 0.2531 0.23788 0.0
H432 H 0.40882 0.21697 0.20214 0.0
H433 H 0.41013 0.25533 0.24853 0.0
H434 H 0.42917 0.22562 0.30334 0.0
H435 H 0.47454 0.2647 0.31103 0.0
H436 H 0.48646 0.28754 0.21585 0.0
C437 C 0.51947 0.28013 0.94566 0.0
C438 C 0.50293 0.23611 0.83825 0.0
C439 C 0.42466 0.36887 0.1236 0.0
C440 C 0.43808 0.37451 0.2059 0.0
C441 C 0.44074 0.34913 0.26164 0.0
C442 C 0.43475 0.31832 0.23021 0.0
C443 C 0.42809 0.31317 0.14126 0.0
C444 C 0.4219 0.33809 0.08978 0.0
C445 C 0.41953 0.32896 0.99446 0.0
C446 C 0.42856 0.29507 0.99662 0.0
C447 C 0.43325 0.28628 0.08347 0.0
C448 C 0.44291 0.35146 0.93987 0.0
C449 C 0.38502 0.33019 0.96658 0.0
C450 C 0.47434 0.18889 0.20556 0.0
C451 C 0.48357 0.16138 0.16539 0.0
C452 C 0.48612 0.16024 0.07291 0.0
C453 C 0.48054 0.18656 0.02227 0.0
C454 C 0.47286 0.21413 0.06485 0.0
C455 C 0.46844 0.21446 0.15443 0.0
C456 C 0.45524 0.24399 0.18666 0.0
C457 C 0.44885 0.25923 0.10031 0.0
C458 C 0.46175 0.24308 0.03064 0.0
C459 C 0.48128 0.26337 0.24078 0.0
C460 C 0.4242 0.23516 0.2384 0.0
H461 H 0.40563 0.30278 0.78622 0.0
H462 H 0.5232 0.31336 0.77279 0.0
H463 H 0.48245 0.22247 0.80662 0.0
H464 H 0.51468 0.2205 0.88181 0.0
H465 H 0.52035 0.24406 0.78647 0.0
H466 H 0.51196 0.30115 0.98079 0.0
H467 H 0.54047 0.28754 0.90426 0.0
H468 H 0.52673 0.26355 0.995 0.0
H469 H 0.42119 0.38848 0.08225 0.0
H470 H 0.4502 0.35316 0.32671 0.0
H471 H 0.43806 0.29978 0.27422 0.0
H472 H 0.46699 0.34344 0.93788 0.0
H473 H 0.44578 0.37588 0.96496 0.0
H474 H 0.43423 0.35425 0.87316 0.0
H475 H 0.37829 0.35459 0.97216 0.0
H476 H 0.36865 0.31495 0.00867 0.0
H477 H 0.38134 0.32217 0.89826 0.0
H478 H 0.43322 0.33988 0.68349 0.0
C479 C 0.43109 0.30466 0.78158 0.0
Dy480 Dy 0.0455 0.99936 0.65939 0.0
C481 C 0.02898 0.08646 0.39103 0.0
C482 C 0.04002 0.95076 0.77257 0.0
Dy483 Dy 0.01891 0.03915 0.50788 0.0
O484 O 0.05725 0.95221 0.70167 0.0
O485 O 0.03008 0.97815 0.78744 0.0
O486 O 0.09567 0.01631 0.62203 0.0
O487 O 0.06011 0.01296 0.52768 0.0
C488 C 0.08893 0.02217 0.54103 0.0
C489 C 0.97481 0.02538 0.63515 0.0
O490 O 1.00711 0.99186 0.44497 0.0
O491 O 0.02044 0.96341 0.56647 0.0
O492 O 1.0089 0.08559 0.45585 0.0
O493 O 0.04 0.05927 0.3835 0.0
O494 O 0.96869 0.04011 0.56409 0.0
O495 O 1.00299 0.01898 0.6286 0.0
O496 O 0.04814 0.0466 0.72661 0.0
O497 O 0.04595 0.07405 0.59761 0.0
C498 C 1.0094 0.9648 0.4855 0.0
C499 C 0.05002 0.07339 0.68325 0.0
Dy500 Dy 0.49499 0.99017 0.48371 0.0
C501 C 0.59197 0.07608 0.63508 0.0
C502 C 0.44575 0.94861 0.4356 0.0
Dy503 Dy 0.53667 0.04298 0.58807 0.0
O504 O 0.47408 0.9412 0.45012 0.0
O505 O 0.44468 0.97873 0.44378 0.0
O506 O 0.53376 0.97351 0.39578 0.0
O507 O 0.54349 1.00995 0.48367 0.0
C508 C 0.55609 0.99345 0.42656 0.0
C509 C 0.47418 0.03988 0.62725 0.0
O510 O 0.52512 0.06922 0.46966 0.0
O511 O 0.48768 0.03316 0.40383 0.0
O512 O 0.56971 0.06509 0.68916 0.0
O513 O 0.582 0.07124 0.55584 0.0
O514 O 0.49376 0.065 0.63988 0.0
O515 O 0.49012 0.01742 0.605 0.0
O516 O 0.50556 0.96507 0.60679 0.0
O517 O 0.54611 0.99985 0.66335 0.0
C518 C 0.50403 0.06136 0.40807 0.0
C519 C 0.52873 0.97224 0.66353 0.0
Dy520 Dy 0.5208 0.5338 0.64141 0.0
C521 C 0.515 0.48605 0.29699 0.0
C522 C 0.53614 0.55714 0.80356 0.0
Dy523 Dy 0.53075 0.50963 0.45847 0.0
O524 O 0.51022 0.5611 0.76247 0.0
O525 O 0.55133 0.53715 0.75962 0.0
O526 O 0.47439 0.55071 0.60349 0.0
O527 O 0.4894 0.51063 0.54229 0.0
C528 C 0.46885 0.53005 0.54092 0.0
C529 C 0.58281 0.51407 0.55969 0.0
O530 O 0.53267 0.56152 0.43027 0.0
O531 O 0.53707 0.57903 0.57403 0.0
O532 O 0.54101 0.48204 0.33765 0.0
O533 O 0.50003 0.50626 0.34076 0.0
O534 O 0.57743 0.49306 0.4979 0.0
O535 O 0.56197 0.53313 0.55717 0.0
O536 O 0.51811 0.48173 0.66893 0.0
O537 O 0.51379 0.46457 0.52492 0.0
C538 C 0.5364 0.58473 0.48913 0.0
C539 C 0.51407 0.45867 0.60966 0.0
Dy540 Dy 1.00398 0.49389 0.62773 0.0
C541 C 0.0684 0.58557 0.38294 0.0
C542 C 0.97293 0.45824 0.75276 0.0
Dy543 Dy 0.03826 0.54869 0.50681 0.0
O544 O 0.99312 0.44835 0.69714 0.0
O545 O 0.97012 0.4879 0.74135 0.0
O546 O 1.00441 0.45439 0.52787 0.0
O547 O 0.02387 0.49887 0.49692 0.0
C548 C 0.019 0.47116 0.46723 0.0
C549 C 0.02373 0.57125 0.6683 0.0
O550 O 0.98848 0.54249 0.45203 0.0
O551 O 0.96233 0.51256 0.56276 0.0
O552 O 0.04736 0.59442 0.43761 0.0
O553 O 0.07267 0.55621 0.3947 0.0
O554 O 0.03819 0.58803 0.60754 0.0
O555 O 0.0185 0.54367 0.63788 0.0
O556 O 0.05402 0.49904 0.68005 0.0
O557 O 0.08005 0.52988 0.57081 0.0
C558 C 0.96209 0.52907 0.48955 0.0
C559 C 0.08038 0.51269 0.64281 0.0
C560 C 0.12939 0.02186 0.31611 0.0
C561 C 0.16155 0.02551 0.33842 0.0
H562 H 0.0812 0.0175 0.36231 0.0
C563 C 0.16939 0.03117 0.42669 0.0
H564 H 0.12261 0.01664 0.24907 0.0
C565 C 0.14575 0.0319 0.49153 0.0
C566 C 0.11355 0.02652 0.47017 0.0
H567 H 0.19394 0.03344 0.4461 0.0
H568 H 0.15278 0.03519 0.55911 0.0
C569 C 0.10566 0.02227 0.38125 0.0
C570 C 0.50901 0.14056 0.29636 0.0
C571 C 0.49026 0.13456 0.2219 0.0
H572 H 0.52787 0.12285 0.41182 0.0
C573 C 0.47647 0.10367 0.20698 0.0
H574 H 0.52018 0.16395 0.30973 0.0
C575 C 0.48065 0.07967 0.26683 0.0
C576 C 0.49905 0.08599 0.3423 0.0
H577 H 0.46167 0.0983 0.15056 0.0
H578 H 0.46938 0.05629 0.25421 0.0
C579 C 0.5134 0.11677 0.35518 0.0
C580 C 0.40466 0.5614 0.40707 0.0
C581 C 0.38984 0.53449 0.36479 0.0
H582 H 0.44023 0.58082 0.49546 0.0
C583 C 0.40341 0.50597 0.37409 0.0
H584 H 0.39529 0.58389 0.40069 0.0
C585 C 0.42992 0.50432 0.42864 0.0
C586 C 0.44303 0.53105 0.47556 0.0
H587 H 0.39267 0.48475 0.34291 0.0
H588 H 0.43927 0.48193 0.43695 0.0
C589 C 0.43045 0.55965 0.46204 0.0
C590 C 0.02636 0.4104 0.28925 0.0
C591 C 0.05731 0.41822 0.25834 0.0
H592 H 0.99004 0.42145 0.37966 0.0
C593 C 0.07289 0.4476 0.28371 0.0
H594 H 1.01379 0.38795 0.2721 0.0
C595 C 0.05915 0.46704 0.34551 0.0
C596 C 0.02969 0.45729 0.38356 0.0
H597 H 0.0968 0.45437 0.26102 0.0
H598 H 0.07278 0.4881 0.36918 0.0
C599 C 1.01286 0.42957 0.35159 0.0
C600 C 0.90373 0.02672 0.78971 0.0
C601 C 0.90452 0.99865 0.83577 0.0
H602 H 0.92496 0.05678 0.68937 0.0
C603 C 0.9303 0.98083 0.82033 0.0
H604 H 0.88372 0.0404 0.79763 0.0
C605 C 0.95382 0.99008 0.75783 0.0
C606 C 0.95201 0.01719 0.70835 0.0
H607 H 0.93101 0.95851 0.85222 0.0
H608 H 0.97213 0.97484 0.7439 0.0
C609 C 0.92705 0.03574 0.72639 0.0
C610 C 0.56013 0.93273 0.86383 0.0
C611 C 0.54608 0.90173 0.85424 0.0
H612 H 0.5663 0.97921 0.81077 0.0
C613 C 0.52606 0.89447 0.78283 0.0
H614 H 0.57605 0.93896 0.91743 0.0
C615 C 0.52029 0.91739 0.72228 0.0
C616 C 0.53475 0.94831 0.73028 0.0
H617 H 0.51495 0.87082 0.77339 0.0
H618 H 0.50481 0.91061 0.66816 0.0
C619 C 0.55473 0.95571 0.80219 0.0
C620 C 0.64607 0.48476 0.70302 0.0
C621 C 0.65754 0.51158 0.75229 0.0
H622 H 0.61445 0.46475 0.60449 0.0
C623 C 0.64324 0.53949 0.73875 0.0
H624 H 0.65533 0.46242 0.7126 0.0
C625 C 0.61886 0.54054 0.67698 0.0
C626 C 0.60829 0.51378 0.62658 0.0
H627 H 0.65123 0.56071 0.77466 0.0
H628 H 0.60858 0.56241 0.66786 0.0
C629 C 0.62225 0.48595 0.64086 0.0
C630 C 0.97324 0.59419 0.86085 0.0
C631 C 0.98968 0.62314 0.8866 0.0
H632 H 0.97124 0.55444 0.77209 0.0
C633 C 0.0201 0.63084 0.85173 0.0
H634 H 0.94967 0.58757 0.88626 0.0
C635 C 0.03216 0.61206 0.78581 0.0
C636 C 1.01444 0.5848 0.75402 0.0
H637 H 0.03326 0.65298 0.8689 0.0
H638 H 0.05457 0.62012 0.75526 0.0
C639 C 0.98557 0.57512 0.79545 0.0
C640 C 0.09795 0.13949 0.3068 0.0
C641 C 0.09829 0.16526 0.36592 0.0
H642 H 0.0754 0.09464 0.26706 0.0
C643 C 0.07303 0.16585 0.42623 0.0
H644 H 0.11593 0.13826 0.25654 0.0
C645 C 0.0485 0.14164 0.42736 0.0
C646 C 0.04922 0.11544 0.3712 0.0
H647 H 0.07211 0.18474 0.47361 0.0
H648 H 0.02984 0.14269 0.4759 0.0
C649 C 0.07403 0.11474 0.31039 0.0
C650 C 0.39533 0.88031 0.33561 0.0
C651 C 0.36497 0.89004 0.34967 0.0
H652 H 0.44527 0.89154 0.35282 0.0
C653 C 0.36153 0.91611 0.40492 0.0
H654 H 0.39863 0.86047 0.29284 0.0
C655 C 0.38802 0.93432 0.43612 0.0
C656 C 0.41836 0.92634 0.4148 0.0
H657 H 0.33859 0.92456 0.41628 0.0
H658 H 0.38478 0.95558 0.47314 0.0
C659 C 0.42194 0.89826 0.36886 0.0
C660 C 0.44511 0.43332 0.21942 0.0
C661 C 0.45775 0.40431 0.22106 0.0
H662 H 0.45414 0.48301 0.23946 0.0
C663 C 0.49052 0.40354 0.22953 0.0
H664 H 0.42002 0.43442 0.21008 0.0
C665 C 0.51012 0.43112 0.24299 0.0
C666 C 0.49722 0.45998 0.24982 0.0
H667 H 0.50095 0.38143 0.22715 0.0
H668 H 0.535 0.42951 0.2546 0.0
C669 C 0.46473 0.46104 0.23431 0.0
C670 C 0.12866 0.61518 0.21604 0.0
C671 C 0.14364 0.64142 0.26056 0.0
H672 H 0.09306 0.57618 0.22178 0.0
C673 C 0.1301 0.65213 0.33801 0.0
H674 H 0.13913 0.60611 0.15709 0.0
C675 C 0.10309 0.63546 0.37344 0.0
C676 C 0.09033 0.60732 0.33351 0.0
H677 H 0.1417 0.67184 0.37417 0.0
H678 H 0.09409 0.6429 0.43619 0.0
C679 C 0.10253 0.59788 0.25317 0.0
C680 C 0.99112 0.87438 0.73297 0.0
C681 C 0.96662 0.87611 0.79512 0.0
H682 H 0.03517 0.89529 0.68212 0.0
C683 C 0.96977 0.90054 0.85851 0.0
H684 H 0.98994 0.85615 0.68305 0.0
C685 C 0.99553 0.92336 0.8567 0.0
C686 C 0.01919 0.92216 0.79254 0.0
H687 H 0.9524 0.90226 0.91022 0.0
H688 H 0.99616 0.94279 0.90309 0.0
C689 C 1.01735 0.89677 0.73286 0.0
C690 C 0.65339 0.04487 0.75754 0.0
C691 C 0.66721 0.02926 0.68759 0.0
H692 H 0.61882 0.07557 0.79511 0.0
C693 C 0.66512 0.04037 0.6027 0.0
H694 H 0.65594 0.03736 0.82416 0.0
C695 C 0.64467 0.06321 0.58653 0.0
C696 C 0.6253 0.07344 0.65472 0.0
H697 H 0.67651 0.02926 0.54837 0.0
H698 H 0.64031 0.06871 0.5192 0.0
C699 C 0.63271 0.06726 0.7412 0.0
C700 C 0.60577 0.60962 0.88336 0.0
C701 C 0.59354 0.63876 0.87812 0.0
H702 H 0.59618 0.55978 0.86728 0.0
C703 C 0.56088 0.63979 0.86762 0.0
H704 H 0.63072 0.60834 0.8947 0.0
C705 C 0.54109 0.6123 0.85507 0.0
C706 C 0.55369 0.58325 0.85116 0.0
H707 H 0.5507 0.66203 0.86753 0.0
H708 H 0.51637 0.6141 0.84156 0.0
C709 C 0.58593 0.58196 0.86947 0.0
C710 C 0.91026 0.43304 0.91722 0.0
C711 C 0.89631 0.40514 0.87799 0.0
H712 H 0.94557 0.47205 0.90688 0.0
C713 C 0.91146 0.39217 0.80604 0.0
H714 H 0.89883 0.444 0.97176 0.0
C715 C 0.93883 0.40811 0.77019 0.0
C716 C 0.95057 0.43759 0.80429 0.0
H717 H 0.90097 0.37098 0.77414 0.0
H718 H 0.94903 0.39879 0.7112 0.0
C719 C 0.93689 0.44933 0.87988 0.0
C720 C 0.06761 0.135 0.86362 0.0
C721 C 0.06863 0.16342 0.81755 0.0
H722 H 0.06121 0.08466 0.85846 0.0
C723 C 0.06267 0.16192 0.72763 0.0
H724 H 0.07186 0.13531 0.93331 0.0
C725 C 0.05687 0.13273 0.68454 0.0
C726 C 0.05654 0.10425 0.73022 0.0
H727 H 0.06353 0.18323 0.69011 0.0
H728 H 0.0529 0.13256 0.61494 0.0
C729 C 0.06161 0.10588 0.82071 0.0
C730 C 0.40589 0.04237 0.79268 0.0
C731 C 0.38336 0.01919 0.75853 0.0
H732 H 0.45219 0.06733 0.77777 0.0
C733 C 0.38966 1.00621 0.67552 0.0
H734 H 0.40212 0.05279 0.85645 0.0
C735 C 0.41863 0.01368 0.63241 0.0
C736 C 0.44197 0.03519 0.66871 0.0
H737 H 0.37274 0.98888 0.64551 0.0
H738 H 0.42293 1.00205 0.57129 0.0
C739 C 0.43477 0.05047 0.74786 0.0
C740 C 0.50861 0.38477 0.74873 0.0
C741 C 0.49488 0.36175 0.69038 0.0
H742 H 0.52491 0.4334 0.77012 0.0
C743 C 0.48906 0.3706 0.60449 0.0
H744 H 0.51259 0.37887 0.81603 0.0
C745 C 0.49607 0.40177 0.57814 0.0
C746 C 0.50843 0.42521 0.63752 0.0
H747 H 0.47792 0.35359 0.55857 0.0
H748 H 0.49066 0.40768 0.51178 0.0
C749 C 0.51514 0.41615 0.72282 0.0
C750 C 0.16847 0.52676 0.69658 0.0
C751 C 0.17032 0.51205 0.77788 0.0
H752 H 0.13944 0.5384 0.59075 0.0
C753 C 0.14277 0.49487 0.81026 0.0
H754 H 0.18909 0.54027 0.6695 0.0
C755 C 0.11389 0.49403 0.76521 0.0
C756 C 0.11171 0.51024 0.68618 0.0
H757 H 0.14303 0.48368 0.87318 0.0
H758 H 0.09301 0.48163 0.79425 0.0
C759 C 0.13977 0.52581 0.65149 0.0
C760 C 0.98521 0.90486 0.3052 0.0
C761 C 0.98548 0.87587 0.34795 0.0
H762 H 0.99197 0.95509 0.31396 0.0
C763 C 0.99417 0.87647 0.43622 0.0
H764 H 0.9792 0.90545 0.2367 0.0
C765 C 1.00153 0.90525 0.48075 0.0
C766 C 1.00061 0.93424 0.43832 0.0
H767 H 0.9945 0.85477 0.47145 0.0
H768 H 1.00777 0.90472 0.54884 0.0
C769 C 0.99252 0.93351 0.34959 0.0
C770 C 0.64078 0.01863 0.34816 0.0
C771 C 0.65083 0.98944 0.32164 0.0
H772 H 0.60276 0.0431 0.40293 0.0
C773 C 0.63118 0.96213 0.34231 0.0
H774 H 0.655 0.04016 0.33177 0.0
C775 C 0.60138 0.96386 0.38125 0.0
C776 C 0.59028 0.99291 0.40245 0.0
H777 H 0.63795 0.93931 0.32234 0.0
H778 H 0.5863 0.94227 0.39107 0.0
C779 C 0.61079 0.02033 0.38865 0.0
C780 C 0.55845 0.67338 0.49044 0.0
C781 C 0.5518 0.68157 0.40442 0.0
H782 H 0.55871 0.63686 0.58453 0.0
C783 C 0.53853 0.65783 0.34751 0.0
H784 H 0.56919 0.69097 0.53541 0.0
C785 C 0.53329 0.6265 0.37481 0.0
C786 C 0.54084 0.61814 0.46014 0.0
H787 H 0.53389 0.66318 0.2802 0.0
H788 H 0.52382 0.60875 0.32851 0.0
C789 C 0.55273 0.64222 0.51819 0.0
C790 C 0.87296 0.52094 0.44992 0.0
C791 C 0.87093 0.52577 0.35923 0.0
H792 H 0.90261 0.51801 0.5612 0.0
C793 C 0.89917 0.53548 0.31372 0.0
H794 H 0.85185 0.51382 0.48785 0.0
C795 C 0.92865 0.53813 0.35648 0.0
C796 C 0.93074 0.53093 0.44585 0.0
H797 H 0.89878 0.53906 0.24385 0.0
H798 H 0.94993 0.54422 0.3183 0.0
C799 C 0.90227 0.52325 0.49222 0.0
loop_
_geom_bond_atom_site_label_1
_geom_bond_atom_site_label_2
_geom_bond_distance
_geom_bond_site_symmetry_2
_ccdc_geom_bond_type
C0 C1 1.391 . S
C0 C4 1.391 . S
C0 H42 0.948 . S
C1 C0 1.391 . S
C1 C2 1.391 . S
C2 C1 1.391 . S
C2 H58 0.947 . S
C2 C59 1.392 . S
C3 C4 1.391 . S
C3 C7 1.397 . S
C3 C59 1.419 . S
C4 C0 1.391 . S
C4 C3 1.391 . S
C4 C5 1.399 . S
C5 C4 1.399 . S
C5 C8 1.396 . S
C5 C17 1.453 . S
C5 C18 1.684 . S
H6 C30 0.948 . S
C7 C3 1.397 . S
C7 C8 1.394 . S
C7 C26 1.723 . S
C8 C5 1.396 . S
C8 C7 1.394 . S
C8 C38 1.723 . S
H9 C32 0.947 . S
H10 C33 0.948 . S
H11 C39 0.982 . S
H12 C40 0.979 . S
H13 C40 0.980 . S
H14 C40 0.983 . S
H15 C39 0.979 . S
H16 C39 0.977 . S
C17 C5 1.453 . S
C17 H46 0.982 . S
C17 H47 0.979 . S
C17 H48 0.977 . S
C18 C5 1.684 . S
C18 H43 0.979 . S
C18 H44 0.980 . S
C18 H45 0.983 . S
C19 C20 1.391 . S
C19 C24 1.391 . S
C19 H49 0.948 . S
C20 C19 1.391 . S
C20 C21 1.391 . S
C21 C20 1.391 . S
C21 C22 1.392 . S
C21 H50 0.947 . S
C22 C21 1.392 . S
C22 C23 1.419 . S
C22 H51 0.948 . S
C23 C22 1.419 . S
C23 C24 1.391 . S
C23 C27 1.397 . S
C24 C19 1.391 . S
C24 C23 1.391 . S
C24 C25 1.387 1_556 S
C25 C24 1.387 1_554 S
C25 C26 1.400 . S
C25 C28 1.458 . S
C25 C29 1.690 . S
C26 C7 1.723 . S
C26 C25 1.400 . S
C26 C27 1.394 1_554 S
C27 C23 1.397 . S
C27 C26 1.394 1_556 S
C27 C37 1.723 . S
C28 C25 1.458 . S
C28 H52 0.982 . S
C28 H53 0.979 . S
C28 H54 0.977 . S
C29 C25 1.690 . S
C29 H55 0.979 . S
C29 H56 0.980 . S
C29 H57 0.983 . S
C30 H6 0.948 . S
C30 C31 1.391 . S
C30 C35 1.391 . S
C31 C30 1.391 . S
C31 C32 1.391 1_556 S
C32 H9 0.947 . S
C32 C31 1.391 1_554 S
C32 C33 1.392 . S
C33 H10 0.948 . S
C33 C32 1.392 . S
C33 C34 1.419 . S
C34 C33 1.419 . S
C34 C35 1.391 1_554 S
C34 C38 1.397 . S
C35 C30 1.391 . S
C35 C34 1.391 1_556 S
C35 C36 1.399 . S
C36 C35 1.399 . S
C36 C37 1.396 . S
C36 C39 1.453 . S
C36 C40 1.684 . S
C37 C27 1.723 . S
C37 C36 1.396 . S
C37 C38 1.394 1_556 S
C38 C8 1.723 . S
C38 C34 1.397 . S
C38 C37 1.394 1_554 S
C39 H11 0.982 . S
C39 H15 0.979 . S
C39 H16 0.977 . S
C39 C36 1.453 . S
C40 H12 0.979 . S
C40 H13 0.980 . S
C40 H14 0.983 . S
C40 C36 1.684 . S
H41 C59 0.948 . S
H42 C0 0.948 . S
H43 C18 0.979 . S
H44 C18 0.980 . S
H45 C18 0.983 . S
H46 C17 0.982 . S
H47 C17 0.979 . S
H48 C17 0.977 . S
H49 C19 0.948 . S
H50 C21 0.947 . S
H51 C22 0.948 . S
H52 C28 0.982 . S
H53 C28 0.979 . S
H54 C28 0.977 . S
H55 C29 0.979 . S
H56 C29 0.980 . S
H57 C29 0.983 . S
H58 C2 0.947 . S
C59 C2 1.392 . S
C59 C3 1.419 . S
C59 H41 0.948 . S
C60 C61 1.391 . S
C60 C64 1.391 . S
C60 H102 0.948 . S
C61 C60 1.391 . S
C61 C62 1.391 . S
C62 C61 1.391 . S
C62 H118 0.947 . S
C62 C119 1.392 . S
C63 C64 1.391 . S
C63 C67 1.397 . S
C63 C119 1.419 . S
C64 C60 1.391 . S
C64 C63 1.391 . S
C64 C65 1.399 . S
C65 C64 1.399 . S
C65 C68 1.396 . S
C65 C77 1.453 . S
C65 C78 1.684 . S
H66 C90 0.948 . S
C67 C63 1.397 . S
C67 C68 1.394 . S
C67 C86 1.723 1_556 S
C68 C65 1.396 . S
C68 C67 1.394 . S
C68 C98 1.723 . S
H69 C92 0.947 . S
H70 C93 0.948 . S
H71 C99 0.982 . S
H72 C100 0.979 . S
H73 C100 0.980 . S
H74 C100 0.983 . S
H75 C99 0.979 . S
H76 C99 0.977 . S
C77 C65 1.453 . S
C77 H106 0.982 . S
C77 H107 0.979 . S
C77 H108 0.977 . S
C78 C65 1.684 . S
C78 H103 0.979 . S
C78 H104 0.980 . S
C78 H105 0.983 . S
C79 C80 1.391 . S
C79 C84 1.391 . S
C79 H109 0.948 . S
C80 C79 1.391 . S
C80 C81 1.391 . S
C81 C80 1.391 . S
C81 C82 1.392 . S
C81 H110 0.947 . S
C82 C81 1.392 . S
C82 C83 1.419 . S
C82 H111 0.948 . S
C83 C82 1.419 . S
C83 C84 1.391 . S
C83 C87 1.397 . S
C84 C79 1.391 . S
C84 C83 1.391 . S
C84 C85 1.399 . S
C85 C84 1.399 . S
C85 C86 1.396 . S
C85 C88 1.453 . S
C85 C89 1.684 . S
C86 C67 1.723 1_554 S
C86 C85 1.396 . S
C86 C87 1.394 . S
C87 C83 1.397 . S
C87 C86 1.394 . S
C87 C97 1.723 . S
C88 C85 1.453 . S
C88 H112 0.982 . S
C88 H113 0.979 . S
C88 H114 0.977 . S
C89 C85 1.684 . S
C89 H115 0.979 . S
C89 H116 0.980 . S
C89 H117 0.983 . S
C90 H66 0.948 . S
C90 C91 1.391 1_554 S
C90 C95 1.391 . S
C91 C90 1.391 1_556 S
C91 C92 1.391 . S
C92 H69 0.947 . S
C92 C91 1.391 . S
C92 C93 1.392 . S
C93 H70 0.948 . S
C93 C92 1.392 . S
C93 C94 1.419 . S
C94 C93 1.419 . S
C94 C95 1.391 1_556 S
C94 C98 1.397 . S
C95 C90 1.391 . S
C95 C94 1.391 1_554 S
C95 C96 1.399 . S
C96 C95 1.399 . S
C96 C97 1.396 . S
C96 C99 1.453 . S
C96 C100 1.684 . S
C97 C87 1.723 . S
C97 C96 1.396 . S
C97 C98 1.394 1_554 S
C98 C68 1.723 . S
C98 C94 1.397 . S
C98 C97 1.394 1_556 S
C99 H71 0.982 . S
C99 H75 0.979 . S
C99 H76 0.977 . S
C99 C96 1.453 . S
C100 H72 0.979 . S
C100 H73 0.980 . S
C100 H74 0.983 . S
C100 C96 1.684 . S
H101 C119 0.948 . S
H102 C60 0.948 . S
H103 C78 0.979 . S
H104 C78 0.980 . S
H105 C78 0.983 . S
H106 C77 0.982 . S
H107 C77 0.979 . S
H108 C77 0.977 . S
H109 C79 0.948 . S
H110 C81 0.947 . S
H111 C82 0.948 . S
H112 C88 0.982 . S
H113 C88 0.979 . S
H114 C88 0.977 . S
H115 C89 0.979 . S
H116 C89 0.980 . S
H117 C89 0.983 . S
H118 C62 0.947 . S
C119 C62 1.392 . S
C119 C63 1.419 . S
C119 H101 0.948 . S
C120 C121 1.391 1_554 S
C120 C124 1.391 . S
C120 H162 0.948 . S
C121 C120 1.391 1_556 S
C121 C122 1.391 . S
C122 C121 1.391 . S
C122 H178 0.947 . S
C122 C179 1.392 . S
C123 C124 1.391 1_556 S
C123 C127 1.397 1_566 S
C123 C179 1.419 . S
C124 C120 1.391 . S
C124 C123 1.391 1_554 S
C124 C125 1.399 . S
C125 C124 1.399 . S
C125 C128 1.396 1_565 S
C125 C137 1.453 1_565 S
C125 C138 1.684 . S
H126 C150 0.948 . S
C127 C123 1.397 1_544 S
C127 C128 1.394 . S
C127 C146 1.723 1_554 S
C128 C125 1.396 1_545 S
C128 C127 1.394 . S
C128 C158 1.723 . S
H129 C152 0.947 . S
H130 C153 0.948 . S
H131 C159 0.982 . S
H132 C160 0.979 . S
H133 C160 0.980 . S
H134 C160 0.983 . S
H135 C159 0.979 . S
H136 C159 0.977 . S
C137 C125 1.453 1_545 S
C137 H166 0.982 . S
C137 H167 0.979 . S
C137 H168 0.977 . S
C138 C125 1.684 . S
C138 H163 0.979 . S
C138 H164 0.980 . S
C138 H165 0.983 . S
C139 C140 1.391 . S
C139 C144 1.391 . S
C139 H169 0.948 . S
C140 C139 1.391 . S
C140 C141 1.391 . S
C141 C140 1.391 . S
C141 C142 1.392 . S
C141 H170 0.947 . S
C142 C141 1.392 . S
C142 C143 1.419 . S
C142 H171 0.948 1_556 S
C143 C142 1.419 . S
C143 C144 1.391 . S
C143 C147 1.397 1_565 S
C144 C139 1.391 . S
C144 C143 1.391 . S
C144 C145 1.399 . S
C145 C144 1.399 . S
C145 C146 1.396 1_565 S
C145 C148 1.453 1_565 S
C145 C149 1.684 . S
C146 C127 1.723 1_556 S
C146 C145 1.396 1_545 S
C146 C147 1.394 . S
C147 C143 1.397 1_545 S
C147 C146 1.394 . S
C147 C157 1.723 1_556 S
C148 C145 1.453 1_545 S
C148 H172 0.982 . S
C148 H173 0.979 . S
C148 H174 0.977 . S
C149 C145 1.684 . S
C149 H175 0.979 . S
C149 H176 0.980 . S
C149 H177 0.983 . S
C150 H126 0.948 . S
C150 C151 1.391 . S
C150 C155 1.391 . S
C151 C150 1.391 . S
C151 C152 1.391 . S
C152 H129 0.947 . S
C152 C151 1.391 . S
C152 C153 1.392 . S
C153 H130 0.948 . S
C153 C152 1.392 . S
C153 C154 1.419 . S
C154 C153 1.419 . S
C154 C155 1.391 . S
C154 C158 1.397 1_565 S
C155 C150 1.391 . S
C155 C154 1.391 . S
C155 C156 1.399 . S
C156 C155 1.399 . S
C156 C157 1.396 1_565 S
C156 C159 1.453 1_565 S
C156 C160 1.684 . S
C157 C147 1.723 1_554 S
C157 C156 1.396 1_545 S
C157 C158 1.394 . S
C158 C128 1.723 . S
C158 C154 1.397 1_545 S
C158 C157 1.394 . S
C159 H131 0.982 . S
C159 H135 0.979 . S
C159 H136 0.977 . S
C159 C156 1.453 1_545 S
C160 H132 0.979 . S
C160 H133 0.980 . S
C160 H134 0.983 . S
C160 C156 1.684 . S
H161 C179 0.948 . S
H162 C120 0.948 . S
H163 C138 0.979 . S
H164 C138 0.980 . S
H165 C138 0.983 . S
H166 C137 0.982 . S
H167 C137 0.979 . S
H168 C137 0.977 . S
H169 C139 0.948 . S
H170 C141 0.947 . S
H171 C142 0.948 1_554 S
H172 C148 0.982 . S
H173 C148 0.979 . S
H174 C148 0.977 . S
H175 C149 0.979 . S
H176 C149 0.980 . S
H177 C149 0.983 . S
H178 C122 0.947 . S
C179 C122 1.392 . S
C179 C123 1.419 . S
C179 H161 0.948 . S
C180 C181 1.391 . S
C180 C184 1.391 . S
C180 H222 0.948 . S
C181 C180 1.391 . S
C181 C182 1.391 . S
C182 C181 1.391 . S
C182 H238 0.947 . S
C182 C239 1.392 . S
C183 C184 1.391 . S
C183 C187 1.397 . S
C183 C239 1.419 . S
C184 C180 1.391 . S
C184 C183 1.391 . S
C184 C185 1.399 . S
C185 C184 1.399 . S
C185 C188 1.396 . S
C185 C197 1.453 . S
C185 C198 1.684 . S
H186 C210 0.948 . S
C187 C183 1.397 . S
C187 C188 1.394 . S
C187 C206 1.723 . S
C188 C185 1.396 . S
C188 C187 1.394 . S
C188 C218 1.723 . S
H189 C212 0.947 . S
H190 C213 0.948 . S
H191 C219 0.982 . S
H192 C220 0.979 . S
H193 C220 0.980 . S
H194 C220 0.983 . S
H195 C219 0.979 . S
H196 C219 0.977 . S
C197 C185 1.453 . S
C197 H226 0.982 . S
C197 H227 0.979 . S
C197 H228 0.977 . S
C198 C185 1.684 . S
C198 H223 0.979 . S
C198 H224 0.980 . S
C198 H225 0.983 . S
C199 C200 1.391 . S
C199 C204 1.391 . S
C199 H229 0.948 . S
C200 C199 1.391 . S
C200 C201 1.391 . S
C201 C200 1.391 . S
C201 C202 1.392 . S
C201 H230 0.947 . S
C202 C201 1.392 . S
C202 C203 1.419 . S
C202 H231 0.948 . S
C203 C202 1.419 . S
C203 C204 1.391 . S
C203 C207 1.397 . S
C204 C199 1.391 . S
C204 C203 1.391 . S
C204 C205 1.399 1_556 S
C205 C204 1.399 1_554 S
C205 C206 1.396 . S
C205 C208 1.453 . S
C205 C209 1.684 . S
C206 C187 1.723 . S
C206 C205 1.396 . S
C206 C207 1.394 1_554 S
C207 C203 1.397 . S
C207 C206 1.394 1_556 S
C207 C217 1.723 . S
C208 C205 1.453 . S
C208 H232 0.982 . S
C208 H233 0.979 . S
C208 H234 0.977 . S
C209 C205 1.684 . S
C209 H235 0.979 . S
C209 H236 0.980 . S
C209 H237 0.983 . S
C210 H186 0.948 . S
C210 C211 1.391 1_556 S
C210 C215 1.391 . S
C211 C210 1.391 1_554 S
C211 C212 1.391 . S
C212 H189 0.947 . S
C212 C211 1.391 . S
C212 C213 1.392 . S
C213 H190 0.948 . S
C213 C212 1.392 . S
C213 C214 1.419 . S
C214 C213 1.419 . S
C214 C215 1.391 1_554 S
C214 C218 1.397 . S
C215 C210 1.391 . S
C215 C214 1.391 1_556 S
C215 C216 1.399 . S
C216 C215 1.399 . S
C216 C217 1.396 . S
C216 C219 1.453 . S
C216 C220 1.684 . S
C217 C207 1.723 . S
C217 C216 1.396 . S
C217 C218 1.394 1_556 S
C218 C188 1.723 . S
C218 C214 1.397 . S
C218 C217 1.394 1_554 S
C219 H191 0.982 . S
C219 H195 0.979 . S
C219 H196 0.977 . S
C219 C216 1.453 . S
C220 H192 0.979 . S
C220 H193 0.980 . S
C220 H194 0.983 . S
C220 C216 1.684 . S
H221 C239 0.948 . S
H222 C180 0.948 . S
H223 C198 0.979 . S
H224 C198 0.980 . S
H225 C198 0.983 . S
H226 C197 0.982 . S
H227 C197 0.979 . S
H228 C197 0.977 . S
H229 C199 0.948 . S
H230 C201 0.947 . S
H231 C202 0.948 . S
H232 C208 0.982 . S
H233 C208 0.979 . S
H234 C208 0.977 . S
H235 C209 0.979 . S
H236 C209 0.980 . S
H237 C209 0.983 . S
H238 C182 0.947 . S
C239 C182 1.392 . S
C239 C183 1.419 . S
C239 H221 0.948 . S
C240 C241 1.391 . S
C240 C244 1.391 . S
C240 H282 0.948 . S
C241 C240 1.391 . S
C241 C242 1.391 . S
C242 C241 1.391 . S
C242 H298 0.947 . S
C242 C299 1.392 . S
C243 C244 1.391 . S
C243 C247 1.397 . S
C243 C299 1.419 . S
C244 C240 1.391 . S
C244 C243 1.391 . S
C244 C245 1.399 1_554 S
C245 C244 1.399 1_556 S
C245 C248 1.396 1_556 S
C245 C257 1.453 . S
C245 C258 1.684 . S
H246 C270 0.948 . S
C247 C243 1.397 . S
C247 C248 1.394 . S
C247 C266 1.723 . S
C248 C245 1.396 1_554 S
C248 C247 1.394 . S
C248 C278 1.723 1_554 S
H249 C272 0.947 . S
H250 C273 0.948 . S
H251 C279 0.982 . S
H252 C280 0.979 . S
H253 C280 0.980 1_554 S
H254 C280 0.983 . S
H255 C279 0.979 . S
H256 C279 0.977 1_554 S
C257 C245 1.453 . S
C257 H286 0.982 . S
C257 H287 0.979 . S
C257 H288 0.977 . S
C258 C245 1.684 . S
C258 H283 0.979 . S
C258 H284 0.980 . S
C258 H285 0.983 . S
C259 C260 1.391 . S
C259 C264 1.391 . S
C259 H289 0.948 . S
C260 C259 1.391 . S
C260 C261 1.391 . S
C261 C260 1.391 . S
C261 C262 1.392 . S
C261 H290 0.947 . S
C262 C261 1.392 . S
C262 C263 1.419 . S
C262 H291 0.948 . S
C263 C262 1.419 . S
C263 C264 1.391 . S
C263 C267 1.397 . S
C264 C259 1.391 . S
C264 C263 1.391 . S
C264 C265 1.399 . S
C265 C264 1.399 . S
C265 C266 1.396 . S
C265 C268 1.453 . S
C265 C269 1.684 . S
C266 C247 1.723 . S
C266 C265 1.396 . S
C266 C267 1.394 . S
C267 C263 1.397 . S
C267 C266 1.394 . S
C267 C277 1.723 . S
C268 C265 1.453 . S
C268 H292 0.982 . S
C268 H293 0.979 . S
C268 H294 0.977 . S
C269 C265 1.684 . S
C269 H295 0.979 . S
C269 H296 0.980 . S
C269 H297 0.983 . S
C270 H246 0.948 . S
C270 C271 1.391 . S
C270 C275 1.391 . S
C271 C270 1.391 . S
C271 C272 1.391 . S
C272 H249 0.947 . S
C272 C271 1.391 . S
C272 C273 1.392 . S
C273 H250 0.948 . S
C273 C272 1.392 . S
C273 C274 1.419 . S
C274 C273 1.419 . S
C274 C275 1.391 . S
C274 C278 1.397 . S
C275 C270 1.391 . S
C275 C274 1.391 . S
C275 C276 1.399 . S
C276 C275 1.399 . S
C276 C277 1.396 1_556 S
C276 C279 1.453 . S
C276 C280 1.684 . S
C277 C267 1.723 . S
C277 C276 1.396 1_554 S
C277 C278 1.394 1_554 S
C278 C248 1.723 1_556 S
C278 C274 1.397 . S
C278 C277 1.394 1_556 S
C279 H251 0.982 . S
C279 H255 0.979 . S
C279 H256 0.977 1_556 S
C279 C276 1.453 . S
C280 H252 0.979 . S
C280 H253 0.980 1_556 S
C280 H254 0.983 . S
C280 C276 1.684 . S
H281 C299 0.948 . S
H282 C240 0.948 . S
H283 C258 0.979 . S
H284 C258 0.980 . S
H285 C258 0.983 . S
H286 C257 0.982 . S
H287 C257 0.979 . S
H288 C257 0.977 . S
H289 C259 0.948 . S
H290 C261 0.947 . S
H291 C262 0.948 . S
H292 C268 0.982 . S
H293 C268 0.979 . S
H294 C268 0.977 . S
H295 C269 0.979 . S
H296 C269 0.980 . S
H297 C269 0.983 . S
H298 C242 0.947 . S
C299 C242 1.392 . S
C299 C243 1.419 . S
C299 H281 0.948 . S
C300 C301 1.391 . S
C300 C304 1.391 . S
C300 H342 0.948 . S
C301 C300 1.391 . S
C301 C302 1.391 . S
C302 C301 1.391 . S
C302 H358 0.947 . S
C302 C359 1.392 . S
C303 C304 1.391 . S
C303 C307 1.397 . S
C303 C359 1.419 . S
C304 C300 1.391 . S
C304 C303 1.391 . S
C304 C305 1.399 . S
C305 C304 1.399 . S
C305 C308 1.396 . S
C305 C317 1.453 . S
C305 C318 1.684 . S
H306 C330 0.948 . S
C307 C303 1.397 . S
C307 C308 1.394 . S
C307 C326 1.723 . S
C308 C305 1.396 . S
C308 C307 1.394 . S
C308 C338 1.723 . S
H309 C332 0.947 . S
H310 C333 0.948 . S
H311 C339 0.982 . S
H312 C340 0.979 . S
H313 C340 0.980 . S
H314 C340 0.983 . S
H315 C339 0.979 . S
H316 C339 0.977 . S
C317 C305 1.453 . S
C317 H346 0.982 . S
C317 H347 0.979 . S
C317 H348 0.977 . S
C318 C305 1.684 . S
C318 H343 0.979 . S
C318 H344 0.980 . S
C318 H345 0.983 . S
C319 C320 1.391 . S
C319 C324 1.391 . S
C319 H349 0.948 . S
C320 C319 1.391 . S
C320 C321 1.391 . S
C321 C320 1.391 . S
C321 C322 1.392 . S
C321 H350 0.947 . S
C322 C321 1.392 . S
C322 C323 1.419 . S
C322 H351 0.948 . S
C323 C322 1.419 . S
C323 C324 1.391 . S
C323 C327 1.397 . S
C324 C319 1.391 . S
C324 C323 1.391 . S
C324 C325 1.399 . S
C325 C324 1.399 . S
C325 C326 1.396 1_556 S
C325 C328 1.453 . S
C325 C329 1.684 . S
C326 C307 1.723 . S
C326 C325 1.396 1_554 S
C326 C327 1.394 1_554 S
C327 C323 1.397 . S
C327 C326 1.394 1_556 S
C327 C337 1.723 1_556 S
C328 C325 1.453 . S
C328 H352 0.982 . S
C328 H353 0.979 . S
C328 H354 0.977 1_556 S
C329 C325 1.684 . S
C329 H355 0.979 . S
C329 H356 0.980 1_556 S
C329 H357 0.983 . S
C330 H306 0.948 . S
C330 C331 1.391 . S
C330 C335 1.391 . S
C331 C330 1.391 . S
C331 C332 1.391 . S
C332 H309 0.947 . S
C332 C331 1.391 . S
C332 C333 1.392 . S
C333 H310 0.948 . S
C333 C332 1.392 . S
C333 C334 1.419 . S
C334 C333 1.419 . S
C334 C335 1.391 . S
C334 C338 1.397 . S
C335 C330 1.391 . S
C335 C334 1.391 . S
C335 C336 1.398 1_554 S
C336 C335 1.398 1_556 S
C336 C337 1.396 1_556 S
C336 C339 1.454 . S
C336 C340 1.685 . S
C337 C327 1.723 1_554 S
C337 C336 1.396 1_554 S
C337 C338 1.394 . S
C338 C308 1.723 . S
C338 C334 1.397 . S
C338 C337 1.394 . S
C339 H311 0.982 . S
C339 H315 0.979 . S
C339 H316 0.977 . S
C339 C336 1.454 . S
C340 H312 0.979 . S
C340 H313 0.980 . S
C340 H314 0.983 . S
C340 C336 1.685 . S
H341 C359 0.948 . S
H342 C300 0.948 . S
H343 C318 0.979 . S
H344 C318 0.980 . S
H345 C318 0.983 . S
H346 C317 0.982 . S
H347 C317 0.979 . S
H348 C317 0.977 . S
H349 C319 0.948 . S
H350 C321 0.947 . S
H351 C322 0.948 . S
H352 C328 0.982 . S
H353 C328 0.979 . S
H354 C328 0.977 1_554 S
H355 C329 0.979 . S
H356 C329 0.980 1_554 S
H357 C329 0.983 . S
H358 C302 0.947 . S
C359 C302 1.392 . S
C359 C303 1.419 . S
C359 H341 0.948 . S
C360 C361 1.391 . S
C360 C364 1.391 . S
C360 H402 0.948 . S
C361 C360 1.391 . S
C361 C362 1.391 . S
C362 C361 1.391 . S
C362 H418 0.947 . S
C362 C419 1.392 . S
C363 C364 1.391 . S
C363 C367 1.397 1_545 S
C363 C419 1.419 . S
C364 C360 1.391 . S
C364 C363 1.391 . S
C364 C365 1.399 . S
C365 C364 1.399 . S
C365 C368 1.396 1_545 S
C365 C377 1.453 1_545 S
C365 C378 1.684 . S
H366 C390 0.948 . S
C367 C363 1.397 1_565 S
C367 C368 1.394 . S
C367 C386 1.723 1_556 S
C368 C365 1.396 1_565 S
C368 C367 1.394 . S
C368 C398 1.723 1_556 S
H369 C392 0.947 1_556 S
H370 C393 0.948 1_556 S
H371 C399 0.982 . S
H372 C400 0.979 . S
H373 C400 0.980 . S
H374 C400 0.983 . S
H375 C399 0.979 . S
H376 C399 0.977 . S
C377 C365 1.453 1_565 S
C377 H406 0.982 . S
C377 H407 0.979 . S
C377 H408 0.977 . S
C378 C365 1.684 . S
C378 H403 0.979 . S
C378 H404 0.980 . S
C378 H405 0.983 . S
C379 C380 1.391 . S
C379 C384 1.391 . S
C379 H409 0.948 . S
C380 C379 1.391 . S
C380 C381 1.391 . S
C381 C380 1.391 . S
C381 C382 1.392 . S
C381 H410 0.947 . S
C382 C381 1.392 . S
C382 C383 1.419 . S
C382 H411 0.948 . S
C383 C382 1.419 . S
C383 C384 1.391 . S
C383 C387 1.397 1_545 S
C384 C379 1.391 . S
C384 C383 1.391 . S
C384 C385 1.399 . S
C385 C384 1.399 . S
C385 C386 1.396 1_545 S
C385 C388 1.453 1_545 S
C385 C389 1.684 . S
C386 C367 1.723 1_554 S
C386 C385 1.396 1_565 S
C386 C387 1.394 . S
C387 C383 1.397 1_565 S
C387 C386 1.394 . S
C387 C397 1.723 . S
C388 C385 1.453 1_565 S
C388 H412 0.982 . S
C388 H413 0.979 . S
C388 H414 0.977 1_554 S
C389 C385 1.684 . S
C389 H415 0.979 . S
C389 H416 0.980 1_554 S
C389 H417 0.983 . S
C390 H366 0.948 . S
C390 C391 1.391 . S
C390 C395 1.391 . S
C391 C390 1.391 . S
C391 C392 1.391 . S
C392 H369 0.947 1_554 S
C392 C391 1.391 . S
C392 C393 1.392 . S
C393 H370 0.948 1_554 S
C393 C392 1.392 . S
C393 C394 1.419 . S
C394 C393 1.419 . S
C394 C395 1.391 . S
C394 C398 1.397 1_545 S
C395 C390 1.391 . S
C395 C394 1.391 . S
C395 C396 1.399 . S
C396 C395 1.399 . S
C396 C397 1.396 1_545 S
C396 C399 1.453 1_545 S
C396 C400 1.684 . S
C397 C387 1.723 . S
C397 C396 1.396 1_565 S
C397 C398 1.394 . S
C398 C368 1.723 1_554 S
C398 C394 1.397 1_565 S
C398 C397 1.394 . S
C399 H371 0.982 . S
C399 H375 0.979 . S
C399 H376 0.977 . S
C399 C396 1.453 1_565 S
C400 H372 0.979 . S
C400 H373 0.980 . S
C400 H374 0.983 . S
C400 C396 1.684 . S
H401 C419 0.948 . S
H402 C360 0.948 . S
H403 C378 0.979 . S
H404 C378 0.980 . S
H405 C378 0.983 . S
H406 C377 0.982 . S
H407 C377 0.979 . S
H408 C377 0.977 . S
H409 C379 0.948 . S
H410 C381 0.947 . S
H411 C382 0.948 . S
H412 C388 0.982 . S
H413 C388 0.979 . S
H414 C388 0.977 1_556 S
H415 C389 0.979 . S
H416 C389 0.980 1_556 S
H417 C389 0.983 . S
H418 C362 0.947 . S
C419 C362 1.392 . S
C419 C363 1.419 . S
C419 H401 0.948 . S
C420 C421 1.391 . S
C420 C424 1.391 . S
C420 H462 0.948 . S
C421 C420 1.391 . S
C421 C422 1.391 . S
C422 C421 1.391 . S
C422 H478 0.947 . S
C422 C479 1.392 . S
C423 C424 1.391 . S
C423 C427 1.397 . S
C423 C479 1.419 . S
C424 C420 1.391 . S
C424 C423 1.391 . S
C424 C425 1.399 . S
C425 C424 1.399 . S
C425 C428 1.396 . S
C425 C437 1.453 . S
C425 C438 1.684 . S
H426 C450 0.948 . S
C427 C423 1.397 . S
C427 C428 1.394 . S
C427 C446 1.723 1_556 S
C428 C425 1.396 . S
C428 C427 1.394 . S
C428 C458 1.723 1_556 S
H429 C452 0.947 1_556 S
H430 C453 0.948 . S
H431 C459 0.982 . S
H432 C460 0.979 . S
H433 C460 0.980 . S
H434 C460 0.983 . S
H435 C459 0.979 . S
H436 C459 0.977 . S
C437 C425 1.453 . S
C437 H466 0.982 . S
C437 H467 0.979 . S
C437 H468 0.977 . S
C438 C425 1.684 . S
C438 H463 0.979 . S
C438 H464 0.980 . S
C438 H465 0.983 . S
C439 C440 1.391 . S
C439 C444 1.391 . S
C439 H469 0.948 . S
C440 C439 1.391 . S
C440 C441 1.391 . S
C441 C440 1.391 . S
C441 C442 1.392 . S
C441 H470 0.947 . S
C442 C441 1.392 . S
C442 C443 1.419 . S
C442 H471 0.948 . S
C443 C442 1.419 . S
C443 C444 1.391 . S
C443 C447 1.397 . S
C444 C439 1.391 . S
C444 C443 1.391 . S
C444 C445 1.399 . S
C445 C444 1.399 . S
C445 C446 1.396 . S
C445 C448 1.453 . S
C445 C449 1.684 . S
C446 C427 1.723 1_554 S
C446 C445 1.396 . S
C446 C447 1.394 . S
C447 C443 1.397 . S
C447 C446 1.394 . S
C447 C457 1.723 . S
C448 C445 1.453 . S
C448 H472 0.982 . S
C448 H473 0.979 . S
C448 H474 0.977 1_554 S
C449 C445 1.684 . S
C449 H475 0.979 . S
C449 H476 0.980 1_554 S
C449 H477 0.983 . S
C450 H426 0.948 . S
C450 C451 1.391 . S
C450 C455 1.391 . S
C451 C450 1.391 . S
C451 C452 1.391 . S
C452 H429 0.947 1_554 S
C452 C451 1.391 . S
C452 C453 1.392 1_554 S
C453 H430 0.948 . S
C453 C452 1.392 1_556 S
C453 C454 1.419 1_556 S
C454 C453 1.419 1_554 S
C454 C455 1.391 . S
C454 C458 1.397 . S
C455 C450 1.391 . S
C455 C454 1.391 . S
C455 C456 1.399 . S
C456 C455 1.399 . S
C456 C457 1.396 . S
C456 C459 1.453 . S
C456 C460 1.684 . S
C457 C447 1.723 . S
C457 C456 1.396 . S
C457 C458 1.394 . S
C458 C428 1.723 1_554 S
C458 C454 1.397 . S
C458 C457 1.394 . S
C459 H431 0.982 . S
C459 H435 0.979 . S
C459 H436 0.977 . S
C459 C456 1.453 . S
C460 H432 0.979 . S
C460 H433 0.980 . S
C460 H434 0.983 . S
C460 C456 1.684 . S
H461 C479 0.948 . S
H462 C420 0.948 . S
H463 C438 0.979 . S
H464 C438 0.980 . S
H465 C438 0.983 . S
H466 C437 0.982 . S
H467 C437 0.979 . S
H468 C437 0.977 . S
H469 C439 0.948 . S
H470 C441 0.947 . S
H471 C442 0.948 . S
H472 C448 0.982 . S
H473 C448 0.979 . S
H474 C448 0.977 1_556 S
H475 C449 0.979 . S
H476 C449 0.980 1_556 S
H477 C449 0.983 . S
H478 C422 0.947 . S
C479 C422 1.392 . S
C479 C423 1.419 . S
C479 H461 0.948 . S
Dy480 O484 2.398 . S
Dy480 O485 2.491 1_455 S
Dy480 O486 2.403 . S
Dy480 O487 2.664 1_565 S
Dy480 O491 2.326 . S
Dy480 O495 2.310 1_455 S
Dy480 O496 2.351 1_565 S
C481 O492 1.185 1_455 S
C481 O493 1.355 . S
C482 O484 1.185 . S
C482 O485 1.355 1_455 S
Dy483 O487 2.310 1_655 S
Dy483 O490 2.351 1_545 S
Dy483 O492 2.398 . S
Dy483 O493 2.491 1_655 S
Dy483 O494 2.403 . S
Dy483 O495 2.664 1_545 S
Dy483 O497 2.326 1_655 S
O484 Dy480 2.398 . S
O484 C482 1.185 . S
O485 Dy480 2.491 1_655 S
O485 C482 1.355 1_655 S
O486 Dy480 2.403 . S
O486 C488 1.254 . S
O487 Dy480 2.664 1_545 S
O487 Dy483 2.310 1_455 S
O487 C488 1.268 1_545 S
C488 O486 1.254 . S
C488 O487 1.268 1_565 S
C489 O494 1.254 . S
C489 O495 1.268 1_545 S
O490 Dy483 2.351 1_565 S
O490 C498 1.249 . S
O491 Dy480 2.326 . S
O491 C498 1.267 1_455 S
O492 C481 1.185 1_655 S
O492 Dy483 2.398 . S
O493 C481 1.355 . S
O493 Dy483 2.491 1_455 S
O494 Dy483 2.403 . S
O494 C489 1.254 . S
O495 Dy480 2.310 1_655 S
O495 Dy483 2.664 1_565 S
O495 C489 1.268 1_565 S
O496 Dy480 2.351 1_545 S
O496 C499 1.249 . S
O497 Dy483 2.326 1_455 S
O497 C499 1.267 . S
C498 O490 1.249 . S
C498 O491 1.267 1_655 S
C499 O496 1.249 . S
C499 O497 1.267 . S
Dy500 O504 2.398 . S
Dy500 O505 2.491 . S
Dy500 O506 2.403 . S
Dy500 O507 2.664 . S
Dy500 O511 2.326 1_565 S
Dy500 O515 2.310 1_565 S
Dy500 O516 2.351 . S
C501 O512 1.185 . S
C501 O513 1.355 . S
C502 O504 1.185 . S
C502 O505 1.355 . S
Dy503 O507 2.310 1_545 S
Dy503 O510 2.351 . S
Dy503 O512 2.398 . S
Dy503 O513 2.491 . S
Dy503 O514 2.403 . S
Dy503 O515 2.664 . S
Dy503 O517 2.326 1_545 S
O504 Dy500 2.398 . S
O504 C502 1.185 . S
O505 Dy500 2.491 . S
O505 C502 1.355 . S
O506 Dy500 2.403 . S
O506 C508 1.254 . S
O507 Dy500 2.664 . S
O507 Dy503 2.310 1_565 S
O507 C508 1.268 . S
C508 O506 1.254 . S
C508 O507 1.268 . S
C509 O514 1.254 . S
C509 O515 1.268 . S
O510 Dy503 2.351 . S
O510 C518 1.249 . S
O511 Dy500 2.326 1_545 S
O511 C518 1.267 . S
O512 C501 1.185 . S
O512 Dy503 2.398 . S
O513 C501 1.355 . S
O513 Dy503 2.491 . S
O514 Dy503 2.403 . S
O514 C509 1.254 . S
O515 Dy500 2.310 1_545 S
O515 Dy503 2.664 . S
O515 C509 1.268 . S
O516 Dy500 2.351 . S
O516 C519 1.249 . S
O517 Dy503 2.326 1_565 S
O517 C519 1.267 . S
C518 O510 1.249 . S
C518 O511 1.267 . S
C519 O516 1.249 . S
C519 O517 1.267 . S
Dy520 O524 2.398 . S
Dy520 O525 2.491 . S
Dy520 O526 2.403 . S
Dy520 O527 2.664 . S
Dy520 O531 2.326 . S
Dy520 O535 2.310 . S
Dy520 O536 2.351 . S
C521 O532 1.185 . S
C521 O533 1.355 . S
C522 O524 1.185 . S
C522 O525 1.355 . S
Dy523 O527 2.310 . S
Dy523 O530 2.351 . S
Dy523 O532 2.398 . S
Dy523 O533 2.491 . S
Dy523 O534 2.403 . S
Dy523 O535 2.664 . S
Dy523 O537 2.326 . S
O524 Dy520 2.398 . S
O524 C522 1.185 . S
O525 Dy520 2.491 . S
O525 C522 1.355 . S
O526 Dy520 2.403 . S
O526 C528 1.254 . S
O527 Dy520 2.664 . S
O527 Dy523 2.310 . S
O527 C528 1.268 . S
C528 O526 1.254 . S
C528 O527 1.268 . S
C529 O534 1.254 . S
C529 O535 1.268 . S
O530 Dy523 2.351 . S
O530 C538 1.249 . S
O531 Dy520 2.326 . S
O531 C538 1.267 . S
O532 C521 1.185 . S
O532 Dy523 2.398 . S
O533 C521 1.355 . S
O533 Dy523 2.491 . S
O534 Dy523 2.403 . S
O534 C529 1.254 . S
O535 Dy520 2.310 . S
O535 Dy523 2.664 . S
O535 C529 1.268 . S
O536 Dy520 2.351 . S
O536 C539 1.249 . S
O537 Dy523 2.326 . S
O537 C539 1.267 . S
C538 O530 1.249 . S
C538 O531 1.267 . S
C539 O536 1.249 . S
C539 O537 1.267 . S
Dy540 O544 2.398 . S
Dy540 O545 2.491 . S
Dy540 O546 2.403 . S
Dy540 O547 2.664 1_655 S
Dy540 O551 2.326 . S
Dy540 O555 2.310 . S
Dy540 O556 2.351 1_655 S
C541 O552 1.185 . S
C541 O553 1.355 . S
C542 O544 1.185 . S
C542 O545 1.355 . S
Dy543 O547 2.310 . S
Dy543 O550 2.351 1_455 S
Dy543 O552 2.398 . S
Dy543 O553 2.491 . S
Dy543 O554 2.403 . S
Dy543 O555 2.664 1_455 S
Dy543 O557 2.326 . S
O544 Dy540 2.398 . S
O544 C542 1.185 . S
O545 Dy540 2.491 . S
O545 C542 1.355 . S
O546 Dy540 2.403 . S
O546 C548 1.254 1_655 S
O547 Dy540 2.664 1_455 S
O547 Dy543 2.310 . S
O547 C548 1.268 . S
C548 O546 1.254 1_455 S
C548 O547 1.268 . S
C549 O554 1.254 1_655 S
C549 O555 1.268 . S
O550 Dy543 2.351 1_655 S
O550 C558 1.249 . S
O551 Dy540 2.326 . S
O551 C558 1.267 . S
O552 C541 1.185 . S
O552 Dy543 2.398 . S
O553 C541 1.355 . S
O553 Dy543 2.491 . S
O554 Dy543 2.403 . S
O554 C549 1.254 1_455 S
O555 Dy540 2.310 . S
O555 Dy543 2.664 1_655 S
O555 C549 1.268 . S
O556 Dy540 2.351 1_455 S
O556 C559 1.249 . S
O557 Dy543 2.326 . S
O557 C559 1.267 . S
C558 O550 1.249 . S
C558 O551 1.267 . S
C559 O556 1.249 . S
C559 O557 1.267 . S
C560 C561 1.421 . S
C560 H564 0.950 . S
C560 C569 1.390 . S
C561 C560 1.421 . S
C561 C563 1.355 1_565 S
H562 C569 0.950 . S
C563 C561 1.355 1_545 S
C563 C565 1.390 . S
C563 H567 0.950 . S
H564 C560 0.950 . S
C565 C563 1.390 . S
C565 C566 1.387 1_545 S
C565 H568 0.950 . S
C566 C565 1.387 1_565 S
C566 C569 1.387 . S
H567 C563 0.950 . S
H568 C565 0.950 . S
C569 C560 1.390 . S
C569 H562 0.950 . S
C569 C566 1.387 . S
C570 C571 1.387 . S
C570 H574 0.950 . S
C570 C579 1.390 . S
C571 C570 1.387 . S
C571 C573 1.387 . S
H572 C579 0.950 . S
C573 C571 1.387 . S
C573 C575 1.390 . S
C573 H577 0.950 . S
H574 C570 0.950 . S
C575 C573 1.390 . S
C575 C576 1.387 . S
C575 H578 0.950 . S
C576 C575 1.387 . S
C576 C579 1.387 . S
H577 C573 0.950 . S
H578 C575 0.950 . S
C579 C570 1.390 . S
C579 H572 0.950 . S
C579 C576 1.387 . S
C580 C581 1.387 . S
C580 H584 0.950 . S
C580 C589 1.390 . S
C581 C580 1.387 . S
C581 C583 1.387 . S
H582 C589 0.950 . S
C583 C581 1.387 . S
C583 C585 1.390 . S
C583 H587 0.950 . S
H584 C580 0.950 . S
C585 C583 1.390 . S
C585 C586 1.387 . S
C585 H588 0.950 . S
C586 C585 1.387 . S
C586 C589 1.387 . S
H587 C583 0.950 . S
H588 C585 0.950 . S
C589 C580 1.390 . S
C589 H582 0.950 . S
C589 C586 1.387 . S
C590 C591 1.387 . S
C590 H594 0.950 . S
C590 C599 1.390 . S
C591 C590 1.387 . S
C591 C593 1.387 . S
H592 C599 0.950 . S
C593 C591 1.387 . S
C593 C595 1.390 . S
C593 H597 0.950 . S
H594 C590 0.950 . S
C595 C593 1.390 . S
C595 C596 1.387 . S
C595 H598 0.950 . S
C596 C595 1.387 . S
C596 C599 1.387 . S
H597 C593 0.950 . S
H598 C595 0.950 . S
C599 C590 1.390 . S
C599 H592 0.950 . S
C599 C596 1.387 . S
C600 C601 1.387 . S
C600 H604 0.950 . S
C600 C609 1.390 . S
C601 C600 1.387 . S
C601 C603 1.387 1_545 S
H602 C609 0.950 . S
C603 C601 1.387 1_565 S
C603 C605 1.390 . S
C603 H607 0.950 . S
H604 C600 0.950 . S
C605 C603 1.390 . S
C605 C606 1.387 1_565 S
C605 H608 0.950 . S
C606 C605 1.387 1_545 S
C606 C609 1.387 . S
H607 C603 0.950 . S
H608 C605 0.950 . S
C609 C600 1.390 . S
C609 H602 0.950 . S
C609 C606 1.387 . S
C610 C611 1.387 . S
C610 H614 0.950 . S
C610 C619 1.390 . S
C611 C610 1.387 . S
C611 C613 1.387 . S
H612 C619 0.950 . S
C613 C611 1.387 . S
C613 C615 1.390 . S
C613 H617 0.950 . S
H614 C610 0.950 . S
C615 C613 1.390 . S
C615 C616 1.387 . S
C615 H618 0.950 . S
C616 C615 1.387 . S
C616 C619 1.387 . S
H617 C613 0.950 . S
H618 C615 0.950 . S
C619 C610 1.390 . S
C619 H612 0.950 . S
C619 C616 1.387 . S
C620 C621 1.387 . S
C620 H624 0.950 . S
C620 C629 1.390 . S
C621 C620 1.387 . S
C621 C623 1.387 . S
H622 C629 0.950 . S
C623 C621 1.387 . S
C623 C625 1.390 . S
C623 H627 0.950 . S
H624 C620 0.950 . S
C625 C623 1.390 . S
C625 C626 1.387 . S
C625 H628 0.950 . S
C626 C625 1.387 . S
C626 C629 1.387 . S
H627 C623 0.950 . S
H628 C625 0.950 . S
C629 C620 1.390 . S
C629 H622 0.950 . S
C629 C626 1.387 . S
C630 C631 1.387 . S
C630 H634 0.950 . S
C630 C639 1.390 . S
C631 C630 1.387 . S
C631 C633 1.387 . S
H632 C639 0.950 . S
C633 C631 1.387 . S
C633 C635 1.390 . S
C633 H637 0.950 . S
H634 C630 0.950 . S
C635 C633 1.390 . S
C635 C636 1.387 . S
C635 H638 0.950 . S
C636 C635 1.387 . S
C636 C639 1.387 . S
H637 C633 0.950 . S
H638 C635 0.950 . S
C639 C630 1.390 . S
C639 H632 0.950 . S
C639 C636 1.387 . S
C640 C641 1.387 . S
C640 H644 0.950 . S
C640 C649 1.390 . S
C641 C640 1.387 . S
C641 C643 1.387 . S
H642 C649 0.950 . S
C643 C641 1.387 . S
C643 C645 1.390 . S
C643 H647 0.950 . S
H644 C640 0.950 . S
C645 C643 1.390 . S
C645 C646 1.387 . S
C645 H648 0.950 . S
C646 C645 1.387 . S
C646 C649 1.387 . S
H647 C643 0.950 . S
H648 C645 0.950 . S
C649 C640 1.390 . S
C649 H642 0.950 . S
C649 C646 1.387 . S
C650 C651 1.381 1_565 S
C650 H654 0.950 . S
C650 C659 1.390 . S
C651 C650 1.381 1_545 S
C651 C653 1.391 . S
H652 C659 0.950 . S
C653 C651 1.391 . S
C653 C655 1.390 . S
C653 H657 0.950 . S
H654 C650 0.950 . S
C655 C653 1.390 . S
C655 C656 1.387 1_545 S
C655 H658 0.950 . S
C656 C655 1.387 1_565 S
C656 C659 1.387 . S
H657 C653 0.950 . S
H658 C655 0.950 . S
C659 C650 1.390 . S
C659 H652 0.950 . S
C659 C656 1.387 . S
C660 C661 1.387 . S
C660 H664 0.950 . S
C660 C669 1.390 . S
C661 C660 1.387 . S
C661 C663 1.387 . S
H662 C669 0.950 . S
C663 C661 1.387 . S
C663 C665 1.390 . S
C663 H667 0.950 . S
H664 C660 0.950 . S
C665 C663 1.390 . S
C665 C666 1.387 . S
C665 H668 0.950 . S
C666 C665 1.387 . S
C666 C669 1.387 . S
H667 C663 0.950 . S
H668 C665 0.950 . S
C669 C660 1.390 . S
C669 H662 0.950 . S
C669 C666 1.387 . S
C670 C671 1.387 . S
C670 H674 0.950 . S
C670 C679 1.390 . S
C671 C670 1.387 . S
C671 C673 1.387 . S
H672 C679 0.950 . S
C673 C671 1.387 . S
C673 C675 1.390 . S
C673 H677 0.950 . S
H674 C670 0.950 . S
C675 C673 1.390 . S
C675 C676 1.387 . S
C675 H678 0.950 . S
C676 C675 1.387 . S
C676 C679 1.387 . S
H677 C673 0.950 . S
H678 C675 0.950 . S
C679 C670 1.390 . S
C679 H672 0.950 . S
C679 C676 1.387 . S
C680 C681 1.387 . S
C680 H684 0.950 . S
C680 C689 1.390 . S
C681 C680 1.387 . S
C681 C683 1.387 . S
H682 C689 0.950 . S
C683 C681 1.387 . S
C683 C685 1.390 . S
C683 H687 0.950 . S
H684 C680 0.950 . S
C685 C683 1.390 . S
C685 C686 1.387 . S
C685 H688 0.950 . S
C686 C685 1.387 . S
C686 C689 1.387 . S
H687 C683 0.950 . S
H688 C685 0.950 . S
C689 C680 1.390 . S
C689 H682 0.950 . S
C689 C686 1.387 . S
C690 C691 1.386 . S
C690 H694 0.950 . S
C690 C699 1.390 . S
C691 C690 1.386 . S
C691 C693 1.389 1_545 S
H692 C699 0.950 . S
C693 C691 1.389 1_565 S
C693 C695 1.390 . S
C693 H697 0.950 . S
H694 C690 0.950 . S
C695 C693 1.390 . S
C695 C696 1.387 1_565 S
C695 H698 0.950 . S
C696 C695 1.387 1_545 S
C696 C699 1.387 . S
H697 C693 0.950 . S
H698 C695 0.950 . S
C699 C690 1.390 . S
C699 H692 0.950 . S
C699 C696 1.387 . S
C700 C701 1.387 . S
C700 H704 0.950 . S
C700 C709 1.390 . S
C701 C700 1.387 . S
C701 C703 1.387 . S
H702 C709 0.950 . S
C703 C701 1.387 . S
C703 C705 1.390 . S
C703 H707 0.950 . S
H704 C700 0.950 . S
C705 C703 1.390 . S
C705 C706 1.387 . S
C705 H708 0.950 . S
C706 C705 1.387 . S
C706 C709 1.387 . S
H707 C703 0.950 . S
H708 C705 0.950 . S
C709 C700 1.390 . S
C709 H702 0.950 . S
C709 C706 1.387 . S
C710 C711 1.387 . S
C710 H714 0.950 . S
C710 C719 1.390 . S
C711 C710 1.387 . S
C711 C713 1.387 . S
H712 C719 0.950 . S
C713 C711 1.387 . S
C713 C715 1.390 . S
C713 H717 0.950 . S
H714 C710 0.950 . S
C715 C713 1.390 . S
C715 C716 1.387 . S
C715 H718 0.950 . S
C716 C715 1.387 . S
C716 C719 1.387 . S
H717 C713 0.950 . S
H718 C715 0.950 . S
C719 C710 1.390 . S
C719 H712 0.950 . S
C719 C716 1.387 . S
C720 C721 1.387 . S
C720 H724 0.950 . S
C720 C729 1.390 . S
C721 C720 1.387 . S
C721 C723 1.387 . S
H722 C729 0.950 . S
C723 C721 1.387 . S
C723 C725 1.390 . S
C723 H727 0.950 . S
H724 C720 0.950 . S
C725 C723 1.390 . S
C725 C726 1.387 . S
C725 H728 0.950 . S
C726 C725 1.387 . S
C726 C729 1.387 . S
H727 C723 0.950 . S
H728 C725 0.950 . S
C729 C720 1.390 . S
C729 H722 0.950 . S
C729 C726 1.387 . S
C730 C731 1.387 . S
C730 H734 0.950 . S
C730 C739 1.390 . S
C731 C730 1.387 . S
C731 C733 1.387 1_545 S
H732 C739 0.950 . S
C733 C731 1.387 1_565 S
C733 C735 1.390 . S
C733 H737 0.950 . S
H734 C730 0.950 . S
C735 C733 1.390 . S
C735 C736 1.387 1_565 S
C735 H738 0.950 . S
C736 C735 1.387 1_545 S
C736 C739 1.387 . S
H737 C733 0.950 . S
H738 C735 0.950 . S
C739 C730 1.390 . S
C739 H732 0.950 . S
C739 C736 1.387 . S
C740 C741 1.387 . S
C740 H744 0.950 . S
C740 C749 1.390 . S
C741 C740 1.387 . S
C741 C743 1.387 . S
H742 C749 0.950 . S
C743 C741 1.387 . S
C743 C745 1.390 . S
C743 H747 0.950 . S
H744 C740 0.950 . S
C745 C743 1.390 . S
C745 C746 1.387 . S
C745 H748 0.950 . S
C746 C745 1.387 . S
C746 C749 1.387 . S
H747 C743 0.950 . S
H748 C745 0.950 . S
C749 C740 1.390 . S
C749 H742 0.950 . S
C749 C746 1.387 . S
C750 C751 1.387 . S
C750 H754 0.950 . S
C750 C759 1.390 . S
C751 C750 1.387 . S
C751 C753 1.387 . S
H752 C759 0.950 . S
C753 C751 1.387 . S
C753 C755 1.390 . S
C753 H757 0.950 . S
H754 C750 0.950 . S
C755 C753 1.390 . S
C755 C756 1.387 . S
C755 H758 0.950 . S
C756 C755 1.387 . S
C756 C759 1.387 . S
H757 C753 0.950 . S
H758 C755 0.950 . S
C759 C750 1.390 . S
C759 H752 0.950 . S
C759 C756 1.387 . S
C760 C761 1.387 . S
C760 H764 0.950 . S
C760 C769 1.390 . S
C761 C760 1.387 . S
C761 C763 1.387 . S
H762 C769 0.950 . S
C763 C761 1.387 . S
C763 C765 1.390 . S
C763 H767 0.950 . S
H764 C760 0.950 . S
C765 C763 1.390 . S
C765 C766 1.387 . S
C765 H768 0.950 . S
C766 C765 1.387 . S
C766 C769 1.387 . S
H767 C763 0.950 . S
H768 C765 0.950 . S
C769 C760 1.390 . S
C769 H762 0.950 . S
C769 C766 1.387 . S
C770 C771 1.387 1_545 S
C770 H774 0.950 . S
C770 C779 1.390 . S
C771 C770 1.387 1_565 S
C771 C773 1.387 . S
H772 C779 0.950 . S
C773 C771 1.387 . S
C773 C775 1.390 . S
C773 H777 0.950 . S
H774 C770 0.950 . S
C775 C773 1.390 . S
C775 C776 1.387 . S
C775 H778 0.950 . S
C776 C775 1.387 . S
C776 C779 1.387 1_565 S
H777 C773 0.950 . S
H778 C775 0.950 . S
C779 C770 1.390 . S
C779 H772 0.950 . S
C779 C776 1.387 1_545 S
C780 C781 1.387 . S
C780 H784 0.950 . S
C780 C789 1.390 . S
C781 C780 1.387 . S
C781 C783 1.387 . S
H782 C789 0.950 . S
C783 C781 1.387 . S
C783 C785 1.390 . S
C783 H787 0.950 . S
H784 C780 0.950 . S
C785 C783 1.390 . S
C785 C786 1.387 . S
C785 H788 0.950 . S
C786 C785 1.387 . S
C786 C789 1.387 . S
H787 C783 0.950 . S
H788 C785 0.950 . S
C789 C780 1.390 . S
C789 H782 0.950 . S
C789 C786 1.387 . S
C790 C791 1.387 . S
C790 H794 0.950 . S
C790 C799 1.390 . S
C791 C790 1.387 . S
C791 C793 1.387 . S
H792 C799 0.950 . S
C793 C791 1.387 . S
C793 C795 1.390 . S
C793 H797 0.950 . S
H794 C790 0.950 . S
C795 C793 1.390 . S
C795 C796 1.387 . S
C795 H798 0.950 . S
C796 C795 1.387 . S
C796 C799 1.387 . S
H797 C793 0.950 . S
H798 C795 0.950 . S
C799 C790 1.390 . S
C799 H792 0.950 . S
C799 C796 1.387 . S
C561 C391 1.983 1_565 S
C566 C488 2.046 . S
C576 C518 2.505 . S
C571 C451 2.493 . S
C586 C528 2.149 . S
C581 C241 1.858 . S
C596 C548 2.075 . S
C591 C331 1.641 . S
C606 C489 2.044 . S
C601 C121 1.725 1_545 S
C611 C211 2.389 1_556 S
C616 C519 2.507 . S
C621 C31 2.119 . S
C626 C529 2.146 . S
C631 C91 1.737 . S
C636 C549 2.075 . S
C646 C481 1.185 . S
C641 C301 0.990 . S
C656 C502 0.735 . S
C651 C380 0.734 . S
C666 C521 1.412 . S
C661 C440 1.363 . S
C671 C260 0.794 . S
C676 C541 0.824 . S
C681 C61 1.097 . S
C686 C482 1.188 1_655 S
C696 C501 0.730 . S
C691 C140 0.741 1_545 S
C706 C522 1.415 . S
C701 C200 1.240 . S
C711 C20 0.821 . S
C716 C542 0.825 . S
C721 C320 2.480 . S
C726 C499 2.694 . S
C731 C361 1.855 . S
C736 C509 2.455 . S
C746 C539 2.921 . S
C741 C421 2.387 . S
C756 C559 2.794 . S
C751 C271 2.659 . S
C761 C80 2.541 . S
C766 C498 2.703 . S
C776 C508 2.454 . S
C771 C151 2.232 . S
C786 C538 2.922 . S
C781 C181 2.295 . S
C791 C1 2.324 . S
C796 C558 2.793 . S
