# Generated by pormake.
# Topology eea, (3,6)-cn, num edge types: 1
# Building blocks:
#     Node 0, Type 0, BuildingBlock: BELTOD_clean_linker_0, # of connection points: 3
#     Node 1, Type 0, BuildingBlock: BELTOD_clean_linker_0, # of connection points: 3
#     Node 2, Type 0, BuildingBlock: BELTOD_clean_linker_0, # of connection points: 3
#     Node 3, Type 0, BuildingBlock: BELTOD_clean_linker_0, # of connection points: 3
#     Node 4, Type 0, BuildingBlock: BELTOD_clean_linker_0, # of connection points: 3
#     Node 5, Type 0, BuildingBlock: BELTOD_clean_linker_0, # of connection points: 3
#     Node 6, Type 0, BuildingBlock: BELTOD_clean_linker_0, # of connection points: 3
#     Node 7, Type 0, BuildingBlock: BELTOD_clean_linker_0, # of connection points: 3
#     Node 8, Type 0, BuildingBlock: BELTOD_clean_linker_0, # of connection points: 3
#     Node 9, Type 0, BuildingBlock: BELTOD_clean_linker_0, # of connection points: 3
#     Node 10, Type 0, BuildingBlock: BELTOD_clean_linker_0, # of connection points: 3
#     Node 11, Type 0, BuildingBlock: BELTOD_clean_linker_0, # of connection points: 3
#     Node 12, Type 0, BuildingBlock: BELTOD_clean_linker_0, # of connection points: 3
#     Node 13, Type 0, BuildingBlock: BELTOD_clean_linker_0, # of connection points: 3
#     Node 14, Type 0, BuildingBlock: BELTOD_clean_linker_0, # of connection points: 3
#     Node 15, Type 0, BuildingBlock: BELTOD_clean_linker_0, # of connection points: 3
#     Node 16, Type 0, BuildingBlock: BELTOD_clean_linker_0, # of connection points: 3
#     Node 17, Type 0, BuildingBlock: BELTOD_clean_linker_0, # of connection points: 3
#     Node 18, Type 1, BuildingBlock: CUWYAW_clean_sbu_0, # of connection points: 6
#     Node 19, Type 1, BuildingBlock: CUWYAW_clean_sbu_0, # of connection points: 6
#     Node 20, Type 1, BuildingBlock: CUWYAW_clean_sbu_0, # of connection points: 6
#     Node 21, Type 1, BuildingBlock: CUWYAW_clean_sbu_0, # of connection points: 6
#     Node 22, Type 1, BuildingBlock: CUWYAW_clean_sbu_0, # of connection points: 6
#     Node 23, Type 1, BuildingBlock: CUWYAW_clean_sbu_0, # of connection points: 6
#     Node 24, Type 1, BuildingBlock: CUWYAW_clean_sbu_0, # of connection points: 6
#     Node 25, Type 1, BuildingBlock: CUWYAW_clean_sbu_0, # of connection points: 6
#     Node 26, Type 1, BuildingBlock: CUWYAW_clean_sbu_0, # of connection points: 6
#     Edge 27, Type (0, 1), BuildingBlock: XIVTED_clean_linker_0, # of connection points: 2
#     Edge 28, Type (0, 1), BuildingBlock: XIVTED_clean_linker_0, # of connection points: 2
#     Edge 29, Type (0, 1), BuildingBlock: XIVTED_clean_linker_0, # of connection points: 2
#     Edge 30, Type (0, 1), BuildingBlock: XIVTED_clean_linker_0, # of connection points: 2
#     Edge 31, Type (0, 1), BuildingBlock: XIVTED_clean_linker_0, # of connection points: 2
#     Edge 32, Type (0, 1), BuildingBlock: XIVTED_clean_linker_0, # of connection points: 2
#     Edge 33, Type (0, 1), BuildingBlock: XIVTED_clean_linker_0, # of connection points: 2
#     Edge 34, Type (0, 1), BuildingBlock: XIVTED_clean_linker_0, # of connection points: 2
#     Edge 35, Type (0, 1), BuildingBlock: XIVTED_clean_linker_0, # of connection points: 2
#     Edge 36, Type (0, 1), BuildingBlock: XIVTED_clean_linker_0, # of connection points: 2
#     Edge 37, Type (0, 1), BuildingBlock: XIVTED_clean_linker_0, # of connection points: 2
#     Edge 38, Type (0, 1), BuildingBlock: XIVTED_clean_linker_0, # of connection points: 2
#     Edge 39, Type (0, 1), BuildingBlock: XIVTED_clean_linker_0, # of connection points: 2
#     Edge 40, Type (0, 1), BuildingBlock: XIVTED_clean_linker_0, # of connection points: 2
#     Edge 41, Type (0, 1), BuildingBlock: XIVTED_clean_linker_0, # of connection points: 2
#     Edge 42, Type (0, 1), BuildingBlock: XIVTED_clean_linker_0, # of connection points: 2
#     Edge 43, Type (0, 1), BuildingBlock: XIVTED_clean_linker_0, # of connection points: 2
#     Edge 44, Type (0, 1), BuildingBlock: XIVTED_clean_linker_0, # of connection points: 2
#     Edge 45, Type (0, 1), BuildingBlock: XIVTED_clean_linker_0, # of connection points: 2
#     Edge 46, Type (0, 1), BuildingBlock: XIVTED_clean_linker_0, # of connection points: 2
#     Edge 47, Type (0, 1), BuildingBlock: XIVTED_clean_linker_0, # of connection points: 2
#     Edge 48, Type (0, 1), BuildingBlock: XIVTED_clean_linker_0, # of connection points: 2
#     Edge 49, Type (0, 1), BuildingBlock: XIVTED_clean_linker_0, # of connection points: 2
#     Edge 50, Type (0, 1), BuildingBlock: XIVTED_clean_linker_0, # of connection points: 2
#     Edge 51, Type (0, 1), BuildingBlock: XIVTED_clean_linker_0, # of connection points: 2
#     Edge 52, Type (0, 1), BuildingBlock: XIVTED_clean_linker_0, # of connection points: 2
#     Edge 53, Type (0, 1), BuildingBlock: XIVTED_clean_linker_0, # of connection points: 2
#     Edge 54, Type (0, 1), BuildingBlock: XIVTED_clean_linker_0, # of connection points: 2
#     Edge 55, Type (0, 1), BuildingBlock: XIVTED_clean_linker_0, # of connection points: 2
#     Edge 56, Type (0, 1), BuildingBlock: XIVTED_clean_linker_0, # of connection points: 2
#     Edge 57, Type (0, 1), BuildingBlock: XIVTED_clean_linker_0, # of connection points: 2
#     Edge 58, Type (0, 1), BuildingBlock: XIVTED_clean_linker_0, # of connection points: 2
#     Edge 59, Type (0, 1), BuildingBlock: XIVTED_clean_linker_0, # of connection points: 2
#     Edge 60, Type (0, 1), BuildingBlock: XIVTED_clean_linker_0, # of connection points: 2
#     Edge 61, Type (0, 1), BuildingBlock: XIVTED_clean_linker_0, # of connection points: 2
#     Edge 62, Type (0, 1), BuildingBlock: XIVTED_clean_linker_0, # of connection points: 2
#     Edge 63, Type (0, 1), BuildingBlock: XIVTED_clean_linker_0, # of connection points: 2
#     Edge 64, Type (0, 1), BuildingBlock: XIVTED_clean_linker_0, # of connection points: 2
#     Edge 65, Type (0, 1), BuildingBlock: XIVTED_clean_linker_0, # of connection points: 2
#     Edge 66, Type (0, 1), BuildingBlock: XIVTED_clean_linker_0, # of connection points: 2
#     Edge 67, Type (0, 1), BuildingBlock: XIVTED_clean_linker_0, # of connection points: 2
#     Edge 68, Type (0, 1), BuildingBlock: XIVTED_clean_linker_0, # of connection points: 2
#     Edge 69, Type (0, 1), BuildingBlock: XIVTED_clean_linker_0, # of connection points: 2
#     Edge 70, Type (0, 1), BuildingBlock: XIVTED_clean_linker_0, # of connection points: 2
#     Edge 71, Type (0, 1), BuildingBlock: XIVTED_clean_linker_0, # of connection points: 2
#     Edge 72, Type (0, 1), BuildingBlock: XIVTED_clean_linker_0, # of connection points: 2
#     Edge 73, Type (0, 1), BuildingBlock: XIVTED_clean_linker_0, # of connection points: 2
#     Edge 74, Type (0, 1), BuildingBlock: XIVTED_clean_linker_0, # of connection points: 2
#     Edge 75, Type (0, 1), BuildingBlock: XIVTED_clean_linker_0, # of connection points: 2
#     Edge 76, Type (0, 1), BuildingBlock: XIVTED_clean_linker_0, # of connection points: 2
#     Edge 77, Type (0, 1), BuildingBlock: XIVTED_clean_linker_0, # of connection points: 2
#     Edge 78, Type (0, 1), BuildingBlock: XIVTED_clean_linker_0, # of connection points: 2
#     Edge 79, Type (0, 1), BuildingBlock: XIVTED_clean_linker_0, # of connection points: 2
#     Edge 80, Type (0, 1), BuildingBlock: XIVTED_clean_linker_0, # of connection points: 2
# Relax obj value: 0.032
# Max RMSD: 0.129
# Mean RMSD: 0.081
data_MOF--net-eea--node1-CUWYAW_clean_sbu_0--node2-BELTOD_clean_linker_0--edge1-XIVTED_clean_linker_0
_symmetry_space_group_name_H-M    P1
_symmetry_Int_Tables_number       1
_symmetry_cell_setting            triclinic
loop_
_symmetry_equiv_pos_as_xyz
'x, y, z'
_cell_length_a     58.754611
_cell_length_b     58.24407
_cell_length_c     84.569062
_cell_angle_alpha  93.945209
_cell_angle_beta   93.504702
_cell_angle_gamma 119.90389
loop_
_atom_site_label
_atom_site_type_symbol
_atom_site_fract_x
_atom_site_fract_y
_atom_site_fract_z
_atom_type_partial_charge
P0 P 0.30079 0.16045 0.39575 0.0
H1 H 0.3035 0.13057 0.36741 0.0
H2 H 0.27682 0.08397 0.35611 0.0
H3 H 0.22743 0.06839 0.39451 0.0
H4 H 0.25509 0.1146 0.40611 0.0
H5 H 0.32098 0.21348 0.38542 0.0
H6 H 0.2992 0.23689 0.37551 0.0
H7 H 0.22336 0.16978 0.38219 0.0
H8 H 0.2452 0.1463 0.39159 0.0
H9 H 0.33822 0.1562 0.41764 0.0
H10 H 0.27179 0.16811 0.42088 0.0
O11 O 0.33054 0.17368 0.38921 0.0
H12 H 0.34226 0.1553 0.44646 0.0
H13 H 0.27517 0.16646 0.44962 0.0
C14 C 0.28153 0.12592 0.38772 0.0
C15 C 0.28711 0.117 0.37347 0.0
C16 C 0.27159 0.09037 0.36692 0.0
C17 C 0.24987 0.07227 0.37437 0.0
C18 C 0.24425 0.08151 0.38859 0.0
C19 C 0.26001 0.10804 0.39522 0.0
C20 C 0.2847 0.17796 0.38898 0.0
C21 C 0.29966 0.20378 0.38468 0.0
C22 C 0.28717 0.21723 0.37913 0.0
C23 C 0.25948 0.20515 0.37794 0.0
C24 C 0.24465 0.17946 0.38261 0.0
C25 C 0.25716 0.16601 0.38807 0.0
C26 C 0.30502 0.16266 0.41715 0.0
C27 C 0.32468 0.15891 0.42459 0.0
C28 C 0.32678 0.15813 0.44105 0.0
C29 C 0.30898 0.16072 0.45037 0.0
C30 C 0.28946 0.1648 0.44286 0.0
C31 C 0.28745 0.16567 0.42637 0.0
P32 P 0.90594 0.09159 0.4278 0.0
H33 H 0.90099 0.04779 0.40627 0.0
H34 H 0.86568 0.01478 0.3866 0.0
H35 H 0.81891 0.05157 0.3962 0.0
H36 H 0.85424 0.08413 0.41632 0.0
H37 H 0.96249 0.12809 0.43451 0.0
H38 H 0.99391 0.16594 0.42179 0.0
H39 H 0.92994 0.15805 0.38938 0.0
H40 H 0.89859 0.11976 0.40208 0.0
H41 H 0.86402 0.05762 0.44607 0.0
H42 H 0.91921 0.14175 0.44705 0.0
O43 O 0.92275 0.07741 0.43448 0.0
H44 H 0.84855 0.06621 0.47072 0.0
H45 H 0.90413 0.15048 0.47189 0.0
C46 C 0.87995 0.06799 0.41296 0.0
C47 C 0.8831 0.04869 0.40419 0.0
C48 C 0.86296 0.02998 0.39279 0.0
C49 C 0.83937 0.03045 0.3898 0.0
C50 C 0.8366 0.05034 0.39838 0.0
C51 C 0.85679 0.06901 0.40985 0.0
C52 C 0.92833 0.1208 0.41903 0.0
C53 C 0.95521 0.13453 0.42469 0.0
C54 C 0.97313 0.15634 0.41747 0.0
C55 C 0.96446 0.16498 0.4045 0.0
C56 C 0.9373 0.15163 0.39917 0.0
C57 C 0.91935 0.1298 0.40646 0.0
C58 C 0.89251 0.09904 0.44464 0.0
C59 C 0.87254 0.078 0.45149 0.0
C60 C 0.8639 0.08291 0.46565 0.0
C61 C 0.87524 0.10901 0.47333 0.0
C62 C 0.89481 0.13019 0.46619 0.0
C63 C 0.90349 0.12521 0.452 0.0
P64 P 0.85059 0.70584 0.41229 0.0
H65 H 0.82576 0.69783 0.3801 0.0
H66 H 0.80273 0.71763 0.36697 0.0
H67 H 0.8164 0.76779 0.4108 0.0
H68 H 0.84083 0.74898 0.42346 0.0
H69 H 0.87752 0.68371 0.39426 0.0
H70 H 0.92097 0.70391 0.38473 0.0
H71 H 0.93929 0.78095 0.40725 0.0
H72 H 0.89561 0.76036 0.41698 0.0
H73 H 0.81005 0.69922 0.43269 0.0
H74 H 0.89041 0.71568 0.43877 0.0
O75 O 0.83391 0.67342 0.40563 0.0
H76 H 0.80818 0.6986 0.46145 0.0
H77 H 0.88864 0.71499 0.46759 0.0
C78 C 0.83418 0.72127 0.40289 0.0
C79 C 0.82376 0.7131 0.38686 0.0
C80 C 0.81044 0.72436 0.3794 0.0
C81 C 0.80715 0.74401 0.38787 0.0
C82 C 0.81854 0.75281 0.40383 0.0
C83 C 0.83223 0.74177 0.4112 0.0
C84 C 0.88338 0.72058 0.40631 0.0
C85 C 0.8909 0.70491 0.39726 0.0
C86 C 0.91572 0.71653 0.39173 0.0
C87 C 0.93351 0.74408 0.39512 0.0
C88 C 0.92611 0.75965 0.40453 0.0
C89 C 0.90117 0.74796 0.41004 0.0
C90 C 0.85062 0.70833 0.43364 0.0
C91 C 0.82749 0.70329 0.44026 0.0
C92 C 0.82644 0.70292 0.4567 0.0
C93 C 0.84834 0.70696 0.46679 0.0
C94 C 0.87146 0.71181 0.4601 0.0
C95 C 0.87256 0.71244 0.44365 0.0
P96 P 0.13334 0.28914 0.59581 0.0
H97 H 0.11293 0.30913 0.6205 0.0
H98 H 0.07011 0.29026 0.63078 0.0
H99 H 0.04084 0.21918 0.59758 0.0
H100 H 0.08382 0.23861 0.58708 0.0
H101 H 0.17311 0.3009 0.62237 0.0
H102 H 0.19569 0.27756 0.63099 0.0
H103 H 0.14951 0.21377 0.5931 0.0
H104 H 0.12713 0.23748 0.58444 0.0
H105 H 0.09479 0.28813 0.57145 0.0
H106 H 0.16873 0.28894 0.5733 0.0
O107 O 0.1519 0.32119 0.60313 0.0
H108 H 0.0939 0.28851 0.54247 0.0
H109 H 0.16806 0.28949 0.54452 0.0
C110 C 0.10141 0.27537 0.60292 0.0
C111 C 0.09728 0.28958 0.61534 0.0
C112 C 0.07281 0.27864 0.62131 0.0
C113 C 0.05206 0.25315 0.61504 0.0
C114 C 0.05631 0.23897 0.60255 0.0
C115 C 0.08086 0.24997 0.59658 0.0
C116 C 0.14881 0.27111 0.60262 0.0
C117 C 0.16781 0.28189 0.61593 0.0
C118 C 0.18059 0.26843 0.6209 0.0
C119 C 0.17446 0.24386 0.61267 0.0
C120 C 0.15492 0.23283 0.59953 0.0
C121 C 0.14204 0.24628 0.59463 0.0
C122 C 0.13139 0.28761 0.57444 0.0
C123 C 0.1106 0.28795 0.56561 0.0
C124 C 0.11021 0.28838 0.54907 0.0
C125 C 0.13073 0.28867 0.54119 0.0
C126 C 0.15162 0.28858 0.55017 0.0
C127 C 0.15204 0.2883 0.56665 0.0
P128 P 0.79911 0.89496 0.58673 0.0
H129 H 0.83896 0.94029 0.60841 0.0
H130 H 0.83823 0.97621 0.62441 0.0
H131 H 0.75571 0.94282 0.60748 0.0
H132 H 0.75692 0.90715 0.59103 0.0
H133 H 0.79852 0.84513 0.57982 0.0
H134 H 0.79139 0.80946 0.59608 0.0
H135 H 0.76943 0.84634 0.63357 0.0
H136 H 0.77639 0.8818 0.61727 0.0
H137 H 0.80419 0.92964 0.56282 0.0
H138 H 0.75516 0.84619 0.56804 0.0
O139 O 0.83047 0.90542 0.58382 0.0
H140 H 0.7843 0.92161 0.53539 0.0
H141 H 0.73572 0.83781 0.54036 0.0
C142 C 0.79815 0.92143 0.59833 0.0
C143 C 0.82076 0.94079 0.60804 0.0
C144 C 0.8202 0.96116 0.61734 0.0
C145 C 0.79686 0.96236 0.61729 0.0
C146 C 0.77408 0.94266 0.60764 0.0
C147 C 0.77471 0.92227 0.59827 0.0
C148 C 0.78808 0.86614 0.59732 0.0
C149 C 0.79147 0.84512 0.59136 0.0
C150 C 0.7873 0.82471 0.60064 0.0
C151 C 0.78001 0.82525 0.61612 0.0
C152 C 0.77525 0.84559 0.62172 0.0
C153 C 0.7792 0.86585 0.61237 0.0
C154 C 0.78134 0.88852 0.56739 0.0
C155 C 0.789 0.9096 0.55807 0.0
C156 C 0.77777 0.90493 0.54235 0.0
C157 C 0.75876 0.87899 0.53561 0.0
C158 C 0.75029 0.85801 0.54522 0.0
C159 C 0.76154 0.86276 0.56103 0.0
P160 P 0.13234 0.83653 0.59845 0.0
H161 H 0.16846 0.86211 0.62765 0.0
H162 H 0.19328 0.9083 0.64007 0.0
H163 H 0.15916 0.93175 0.60227 0.0
H164 H 0.13458 0.88555 0.58979 0.0
H165 H 0.0984 0.78274 0.60656 0.0
H166 H 0.05414 0.76027 0.61513 0.0
H167 H 0.04832 0.8305 0.61 0.0
H168 H 0.09273 0.85299 0.60151 0.0
H169 H 0.16869 0.83359 0.57768 0.0
H170 H 0.09821 0.83924 0.57257 0.0
O171 O 0.1476 0.82087 0.60521 0.0
H172 H 0.1715 0.83502 0.54903 0.0
H173 H 0.10092 0.84071 0.54388 0.0
C174 C 0.15002 0.87048 0.60766 0.0
C175 C 0.16638 0.87718 0.62199 0.0
C176 C 0.18055 0.90356 0.62908 0.0
C177 C 0.17821 0.92359 0.62209 0.0
C178 C 0.1612 0.91667 0.60796 0.0
C179 C 0.14729 0.89032 0.60077 0.0
C180 C 0.09907 0.81972 0.60371 0.0
C181 C 0.08764 0.79334 0.60726 0.0
C182 C 0.06235 0.78051 0.61215 0.0
C183 C 0.04792 0.79375 0.61335 0.0
C184 C 0.05898 0.81981 0.60913 0.0
C185 C 0.08443 0.83274 0.60439 0.0
C186 C 0.13299 0.83583 0.57721 0.0
C187 C 0.15361 0.83477 0.57036 0.0
C188 C 0.15517 0.83554 0.55399 0.0
C189 C 0.13634 0.83782 0.54421 0.0
C190 C 0.11576 0.83904 0.55113 0.0
C191 C 0.11409 0.83802 0.56752 0.0
P192 P 0.96876 0.49851 0.73178 0.0
H193 H 0.97361 0.47059 0.70331 0.0
H194 H 0.94906 0.42387 0.6917 0.0
H195 H 0.8992 0.40435 0.72991 0.0
H196 H 0.92394 0.45101 0.74154 0.0
H197 H 0.98762 0.55133 0.72149 0.0
H198 H 0.96481 0.57349 0.7112 0.0
H199 H 0.88974 0.50461 0.71714 0.0
H200 H 0.91268 0.48235 0.72691 0.0
H201 H 0.00571 0.49444 0.75415 0.0
H202 H 0.93825 0.50489 0.75638 0.0
O203 O 0.99894 0.51302 0.72581 0.0
H204 H 0.00862 0.4929 0.78294 0.0
H205 H 0.94054 0.50263 0.78509 0.0
C206 C 0.9509 0.46412 0.72343 0.0
C207 C 0.95752 0.45622 0.70924 0.0
C208 C 0.94348 0.42957 0.70262 0.0
C209 C 0.92228 0.41052 0.70994 0.0
C210 C 0.91533 0.41865 0.72397 0.0
C211 C 0.9296 0.44525 0.73068 0.0
C212 C 0.95185 0.51504 0.72472 0.0
C213 C 0.96625 0.54097 0.72051 0.0
C214 C 0.95316 0.5537 0.71474 0.0
C215 C 0.92539 0.54078 0.71327 0.0
C216 C 0.91109 0.51494 0.71781 0.0
C217 C 0.92421 0.5022 0.72347 0.0
C218 C 0.97206 0.50022 0.75317 0.0
C219 C 0.99169 0.4967 0.76087 0.0
C220 C 0.99316 0.49555 0.77731 0.0
C221 C 0.97475 0.49756 0.78633 0.0
C222 C 0.95526 0.50141 0.77855 0.0
C223 C 0.95388 0.50264 0.76209 0.0
P224 P 0.5698 0.42733 0.76122 0.0
H225 H 0.5649 0.38233 0.74094 0.0
H226 H 0.53018 0.34899 0.72112 0.0
H227 H 0.48452 0.3879 0.72753 0.0
H228 H 0.51936 0.42101 0.74774 0.0
H229 H 0.62689 0.46145 0.76718 0.0
H230 H 0.65891 0.49905 0.75457 0.0
H231 H 0.5954 0.49561 0.72391 0.0
H232 H 0.56338 0.45754 0.7365 0.0
H233 H 0.52113 0.39633 0.77562 0.0
H234 H 0.58951 0.47537 0.78393 0.0
O235 O 0.58605 0.41297 0.76851 0.0
H236 H 0.50516 0.40474 0.8 0.0
H237 H 0.57423 0.48361 0.80876 0.0
C238 C 0.5444 0.40374 0.74605 0.0
C239 C 0.54742 0.38369 0.73811 0.0
C240 C 0.52762 0.36477 0.72664 0.0
C241 C 0.50449 0.36571 0.72274 0.0
C242 C 0.50189 0.38637 0.73043 0.0
C243 C 0.52179 0.40533 0.74194 0.0
C244 C 0.59282 0.45637 0.75256 0.0
C245 C 0.61982 0.46879 0.75777 0.0
C246 C 0.63811 0.49047 0.75062 0.0
C247 C 0.62973 0.5003 0.73817 0.0
C248 C 0.60252 0.48826 0.7333 0.0
C249 C 0.58419 0.46655 0.74052 0.0
C250 C 0.55615 0.43546 0.77771 0.0
C251 C 0.53246 0.41573 0.78252 0.0
C252 C 0.52354 0.42045 0.79663 0.0
C253 C 0.53849 0.44481 0.80644 0.0
C254 C 0.56201 0.46478 0.8014 0.0
C255 C 0.57081 0.46007 0.78719 0.0
P256 P 0.52345 0.04224 0.74651 0.0
H257 H 0.53116 0.07379 0.71966 0.0
H258 H 0.50681 0.09371 0.70831 0.0
H259 H 0.45395 0.06607 0.74487 0.0
H260 H 0.47856 0.04634 0.75626 0.0
H261 H 0.54669 0.02293 0.72331 0.0
H262 H 0.58992 0.04348 0.71349 0.0
H263 H 0.61531 0.11462 0.74589 0.0
H264 H 0.57189 0.09363 0.75587 0.0
H265 H 0.51879 0.00311 0.76773 0.0
H266 H 0.53189 0.08309 0.77231 0.0
O267 O 0.50563 0.0105 0.73847 0.0
H268 H 0.51755 0.00228 0.79647 0.0
H269 H 0.53116 0.08266 0.80123 0.0
C270 C 0.50714 0.05921 0.7391 0.0
C271 C 0.51464 0.0724 0.72543 0.0
C272 C 0.50053 0.08357 0.71884 0.0
C273 C 0.4785 0.08156 0.72572 0.0
C274 C 0.4711 0.06838 0.73945 0.0
C275 C 0.48516 0.05709 0.74598 0.0
C276 C 0.5562 0.05665 0.74045 0.0
C277 C 0.56162 0.04281 0.72846 0.0
C278 C 0.58631 0.0547 0.72274 0.0
C279 C 0.60604 0.08076 0.72884 0.0
C280 C 0.60065 0.09443 0.74107 0.0
C281 C 0.57586 0.08248 0.74677 0.0
C282 C 0.52481 0.04292 0.76788 0.0
C283 C 0.52157 0.02058 0.77496 0.0
C284 C 0.52109 0.02023 0.79144 0.0
C285 C 0.52406 0.04234 0.80117 0.0
C286 C 0.52834 0.06513 0.79405 0.0
C287 C 0.52886 0.06545 0.77754 0.0
P288 P 0.79838 0.6259 0.92934 0.0
H289 H 0.77656 0.64425 0.95398 0.0
H290 H 0.73338 0.62399 0.96386 0.0
H291 H 0.70627 0.55417 0.92992 0.0
H292 H 0.74959 0.57498 0.91983 0.0
H293 H 0.83783 0.63811 0.9562 0.0
H294 H 0.86049 0.61507 0.96525 0.0
H295 H 0.81564 0.55128 0.92714 0.0
H296 H 0.79327 0.57474 0.91802 0.0
H297 H 0.75992 0.62427 0.90467 0.0
H298 H 0.8349 0.62723 0.90723 0.0
O299 O 0.81618 0.65789 0.9369 0.0
H300 H 0.75971 0.62518 0.87575 0.0
H301 H 0.835 0.62846 0.87851 0.0
C302 C 0.76613 0.61121 0.93606 0.0
C303 C 0.76129 0.62468 0.94857 0.0
C304 C 0.73663 0.61295 0.95431 0.0
C305 C 0.71639 0.5874 0.94773 0.0
C306 C 0.72133 0.57398 0.93513 0.0
C307 C 0.74608 0.58578 0.9294 0.0
C308 C 0.81423 0.60832 0.9363 0.0
C309 C 0.83289 0.61919 0.94979 0.0
C310 C 0.84569 0.60588 0.95501 0.0
C311 C 0.83992 0.58137 0.94687 0.0
C312 C 0.82079 0.5703 0.93352 0.0
C313 C 0.80791 0.5836 0.92835 0.0
C314 C 0.79702 0.6248 0.908 0.0
C315 C 0.77613 0.62471 0.89899 0.0
C316 C 0.77614 0.62546 0.88249 0.0
C317 C 0.79719 0.62656 0.87482 0.0
C318 C 0.81817 0.62693 0.88398 0.0
C319 C 0.81817 0.62627 0.90043 0.0
P320 P 0.46353 0.22773 0.92106 0.0
H321 H 0.50364 0.2728 0.94281 0.0
H322 H 0.503 0.30834 0.95932 0.0
H323 H 0.42017 0.27473 0.94312 0.0
H324 H 0.42129 0.2395 0.92616 0.0
H325 H 0.46544 0.17917 0.91441 0.0
H326 H 0.45802 0.14311 0.9304 0.0
H327 H 0.43196 0.17717 0.96705 0.0
H328 H 0.43901 0.21293 0.95097 0.0
H329 H 0.46435 0.26319 0.89863 0.0
H330 H 0.42298 0.17835 0.90118 0.0
O331 O 0.49479 0.23843 0.91778 0.0
H332 H 0.44441 0.25571 0.87126 0.0
H333 H 0.40367 0.17063 0.87357 0.0
C334 C 0.46266 0.25391 0.93306 0.0
C335 C 0.48539 0.27318 0.94272 0.0
C336 C 0.48488 0.29333 0.95231 0.0
C337 C 0.46148 0.29435 0.9526 0.0
C338 C 0.43858 0.27472 0.94302 0.0
C339 C 0.43917 0.25457 0.93335 0.0
C340 C 0.45291 0.19878 0.9315 0.0
C341 C 0.45747 0.17848 0.9257 0.0
C342 C 0.45312 0.15785 0.93481 0.0
C343 C 0.44452 0.15746 0.94998 0.0
C344 C 0.43874 0.17713 0.95543 0.0
C345 C 0.44278 0.19757 0.94621 0.0
C346 C 0.4452 0.22138 0.90192 0.0
C347 C 0.45075 0.24295 0.89334 0.0
C348 C 0.43953 0.23862 0.87764 0.0
C349 C 0.42277 0.21255 0.87015 0.0
C350 C 0.41642 0.19095 0.87901 0.0
C351 C 0.4276 0.19534 0.8948 0.0
P352 P 0.7989 0.17245 0.93205 0.0
H353 H 0.79504 0.20013 0.96108 0.0
H354 H 0.81914 0.24689 0.97249 0.0
H355 H 0.86306 0.26766 0.93151 0.0
H356 H 0.83951 0.22094 0.92046 0.0
H357 H 0.76834 0.12206 0.94523 0.0
H358 H 0.72414 0.09985 0.95386 0.0
H359 H 0.71166 0.16225 0.93836 0.0
H360 H 0.75606 0.18447 0.92974 0.0
H361 H 0.81685 0.14418 0.91093 0.0
H362 H 0.78098 0.19276 0.90637 0.0
O363 O 0.81589 0.15969 0.94052 0.0
H364 H 0.82021 0.1423 0.88229 0.0
H365 H 0.78459 0.19131 0.87773 0.0
C366 C 0.81499 0.20714 0.93973 0.0
C367 C 0.80959 0.21483 0.95446 0.0
C368 C 0.82334 0.24159 0.96095 0.0
C369 C 0.84297 0.26105 0.95289 0.0
C370 C 0.84823 0.25317 0.9381 0.0
C371 C 0.83454 0.22644 0.93167 0.0
C372 C 0.76555 0.15507 0.93706 0.0
C373 C 0.75608 0.13092 0.94361 0.0
C374 C 0.73085 0.11827 0.94857 0.0
C375 C 0.71458 0.12948 0.94692 0.0
C376 C 0.72372 0.15311 0.9397 0.0
C377 C 0.74908 0.16584 0.93482 0.0
C378 C 0.79883 0.16877 0.91077 0.0
C379 C 0.80953 0.1543 0.90375 0.0
C380 C 0.81156 0.15335 0.88738 0.0
C381 C 0.80287 0.16684 0.87775 0.0
C382 C 0.79123 0.18049 0.88477 0.0
C383 C 0.78922 0.18141 0.90115 0.0
P384 P 0.63325 0.83116 0.06202 0.0
H385 H 0.65124 0.79697 0.04719 0.0
H386 H 0.62811 0.74974 0.0369 0.0
H387 H 0.55479 0.74173 0.05017 0.0
H388 H 0.57803 0.78913 0.06011 0.0
H389 H 0.62774 0.87553 0.0757 0.0
H390 H 0.6038 0.89686 0.06573 0.0
H391 H 0.57711 0.84338 0.02198 0.0
H392 H 0.60073 0.82192 0.03213 0.0
H393 H 0.67689 0.84242 0.08572 0.0
H394 H 0.59544 0.82186 0.0852 0.0
O395 O 0.66326 0.84686 0.05588 0.0
H396 H 0.67995 0.84129 0.11457 0.0
H397 H 0.59812 0.82009 0.11402 0.0
C398 C 0.61626 0.79654 0.05422 0.0
C399 C 0.63017 0.78508 0.04778 0.0
C400 C 0.61694 0.75803 0.04201 0.0
C401 C 0.58959 0.74198 0.04269 0.0
C402 C 0.57577 0.75361 0.04924 0.0
C403 C 0.58905 0.78065 0.05502 0.0
C404 C 0.6153 0.84661 0.05487 0.0
C405 C 0.61645 0.86818 0.06406 0.0
C406 C 0.60294 0.8805 0.05828 0.0
C407 C 0.58834 0.87163 0.04312 0.0
C408 C 0.58767 0.85028 0.03384 0.0
C409 C 0.60122 0.83804 0.03963 0.0
C410 C 0.63607 0.83265 0.0834 0.0
C411 C 0.65973 0.83792 0.09185 0.0
C412 C 0.66138 0.83704 0.10832 0.0
C413 C 0.63926 0.83059 0.1166 0.0
C414 C 0.61562 0.82553 0.10806 0.0
C415 C 0.61402 0.82641 0.09157 0.0
P416 P 0.23817 0.76128 0.09451 0.0
H417 H 0.23206 0.71694 0.07297 0.0
H418 H 0.19619 0.68417 0.0535 0.0
H419 H 0.15137 0.72321 0.06279 0.0
H420 H 0.18739 0.75574 0.08262 0.0
H421 H 0.29502 0.79627 0.10103 0.0
H422 H 0.32697 0.83445 0.08875 0.0
H423 H 0.26353 0.8299 0.05744 0.0
H424 H 0.23162 0.79133 0.0697 0.0
H425 H 0.19118 0.72903 0.10993 0.0
H426 H 0.2574 0.80946 0.11716 0.0
O427 O 0.2544 0.74639 0.10096 0.0
H428 H 0.1756 0.73695 0.13461 0.0
H429 H 0.2425 0.81728 0.14226 0.0
C430 C 0.21209 0.73834 0.07947 0.0
C431 C 0.21453 0.71846 0.07083 0.0
C432 C 0.19406 0.69988 0.05957 0.0
C433 C 0.17082 0.701 0.0566 0.0
C434 C 0.16881 0.72154 0.06497 0.0
C435 C 0.18938 0.74016 0.07626 0.0
C436 C 0.26104 0.79066 0.08606 0.0
C437 C 0.28797 0.80351 0.09154 0.0
C438 C 0.3062 0.8255 0.08459 0.0
C439 C 0.29781 0.83517 0.07205 0.0
C440 C 0.27065 0.82268 0.0669 0.0
C441 C 0.25238 0.80068 0.07394 0.0
C442 C 0.22508 0.76884 0.11149 0.0
C443 C 0.20214 0.74857 0.1167 0.0
C444 C 0.19345 0.75303 0.13096 0.0
C445 C 0.20788 0.77771 0.14051 0.0
C446 C 0.2307 0.79817 0.13511 0.0
C447 C 0.23928 0.7937 0.12075 0.0
P448 P 0.18945 0.37916 0.0804 0.0
H449 H 0.15184 0.36155 0.05174 0.0
H450 H 0.12595 0.37944 0.03983 0.0
H451 H 0.16049 0.44502 0.07759 0.0
H452 H 0.18567 0.4264 0.08968 0.0
H453 H 0.23004 0.36438 0.0796 0.0
H454 H 0.27391 0.38556 0.07025 0.0
H455 H 0.26478 0.45157 0.05818 0.0
H456 H 0.2213 0.43068 0.06775 0.0
H457 H 0.14905 0.37286 0.10084 0.0
H458 H 0.2292 0.3886 0.107 0.0
O459 O 0.17508 0.34688 0.07366 0.0
H460 H 0.14693 0.37165 0.12953 0.0
H461 H 0.22704 0.38709 0.1357 0.0
C462 C 0.17026 0.39239 0.07174 0.0
C463 C 0.15366 0.37965 0.05752 0.0
C464 C 0.13905 0.39008 0.05063 0.0
C465 C 0.14105 0.41368 0.05776 0.0
C466 C 0.15806 0.42656 0.07194 0.0
C467 C 0.17254 0.41601 0.07885 0.0
C468 C 0.22227 0.39579 0.07429 0.0
C469 C 0.23758 0.38351 0.07506 0.0
C470 C 0.26264 0.39565 0.06977 0.0
C471 C 0.27264 0.42013 0.06343 0.0
C472 C 0.25741 0.43256 0.06287 0.0
C473 C 0.23252 0.42061 0.06839 0.0
C474 C 0.18947 0.38142 0.10176 0.0
C475 C 0.16639 0.37659 0.10839 0.0
C476 C 0.16518 0.37588 0.1248 0.0
C477 C 0.18687 0.37941 0.13487 0.0
C478 C 0.21 0.38424 0.12822 0.0
C479 C 0.21128 0.38524 0.11179 0.0
P480 P 0.46209 0.95678 0.26271 0.0
H481 H 0.4449 0.93925 0.29329 0.0
H482 H 0.402 0.91994 0.30365 0.0
H483 H 0.3655 0.91856 0.25736 0.0
H484 H 0.40829 0.93712 0.247 0.0
H485 H 0.51788 0.97859 0.27317 0.0
H486 H 0.54391 0.95805 0.28049 0.0
H487 H 0.47381 0.8801 0.27104 0.0
H488 H 0.4478 0.90091 0.26366 0.0
H489 H 0.45058 0.98973 0.24318 0.0
H490 H 0.47066 0.92826 0.23569 0.0
O491 O 0.47743 0.98778 0.27199 0.0
H492 H 0.45113 0.99477 0.21473 0.0
H493 H 0.47243 0.93394 0.2075 0.0
C494 C 0.42979 0.93949 0.26938 0.0
C495 C 0.42757 0.93438 0.28532 0.0
C496 C 0.40307 0.92357 0.29126 0.0
C497 C 0.38032 0.91789 0.28137 0.0
C498 C 0.38255 0.92243 0.26526 0.0
C499 C 0.4071 0.9332 0.25933 0.0
C500 C 0.48085 0.94129 0.26828 0.0
C501 C 0.50806 0.9571 0.27279 0.0
C502 C 0.52291 0.94533 0.27696 0.0
C503 C 0.51084 0.91748 0.27648 0.0
C504 C 0.48364 0.9016 0.27148 0.0
C505 C 0.46875 0.91346 0.26743 0.0
C506 C 0.46093 0.95892 0.24159 0.0
C507 C 0.45517 0.97737 0.2354 0.0
C508 C 0.45564 0.98032 0.21915 0.0
C509 C 0.46208 0.96495 0.2088 0.0
C510 C 0.4671 0.94592 0.21504 0.0
C511 C 0.46635 0.94282 0.23126 0.0
P512 P 0.13516 0.56429 0.2554 0.0
H513 H 0.17704 0.61166 0.27499 0.0
H514 H 0.17739 0.64806 0.29117 0.0
H515 H 0.09275 0.61049 0.27984 0.0
H516 H 0.09285 0.57453 0.26309 0.0
H517 H 0.13932 0.51694 0.24906 0.0
H518 H 0.13197 0.48066 0.26483 0.0
H519 H 0.1029 0.51241 0.3009 0.0
H520 H 0.10989 0.54838 0.28502 0.0
H521 H 0.13036 0.59939 0.23458 0.0
H522 H 0.09783 0.51464 0.23461 0.0
O523 O 0.16604 0.5749 0.25126 0.0
H524 H 0.10903 0.592 0.20762 0.0
H525 H 0.07727 0.50716 0.20736 0.0
C526 C 0.13499 0.59068 0.26767 0.0
C527 C 0.15858 0.6113 0.27593 0.0
C528 C 0.15867 0.632 0.28533 0.0
C529 C 0.13507 0.63225 0.28686 0.0
C530 C 0.11134 0.61117 0.27875 0.0
C531 C 0.11133 0.59056 0.26923 0.0
C532 C 0.1253 0.53544 0.26587 0.0
C533 C 0.13078 0.51573 0.26018 0.0
C534 C 0.12646 0.49496 0.26917 0.0
C535 C 0.11695 0.49382 0.2841 0.0
C536 C 0.1104 0.51295 0.28946 0.0
C537 C 0.1144 0.53352 0.28036 0.0
C538 C 0.11556 0.5576 0.23667 0.0
C539 C 0.11832 0.57913 0.22886 0.0
C540 C 0.10635 0.5749 0.21336 0.0
C541 C 0.09172 0.549 0.20524 0.0
C542 C 0.08824 0.52733 0.21331 0.0
C543 C 0.10014 0.53161 0.2289 0.0
P544 P 0.46751 0.50522 0.26796 0.0
H545 H 0.51341 0.53317 0.29217 0.0
H546 H 0.53752 0.57895 0.30522 0.0
H547 H 0.48238 0.59577 0.27979 0.0
H548 H 0.45828 0.54988 0.26687 0.0
H549 H 0.4425 0.46933 0.29173 0.0
H550 H 0.39823 0.44885 0.30018 0.0
H551 H 0.3751 0.4849 0.26431 0.0
H552 H 0.41953 0.50514 0.25577 0.0
H553 H 0.50791 0.54365 0.25029 0.0
H554 H 0.43251 0.47122 0.23944 0.0
O555 O 0.48244 0.48864 0.27358 0.0
H556 H 0.51205 0.54665 0.22194 0.0
H557 H 0.436 0.47458 0.21093 0.0
C558 C 0.48406 0.53817 0.27858 0.0
C559 C 0.50636 0.54662 0.28952 0.0
C560 C 0.52018 0.57283 0.29692 0.0
C561 C 0.51189 0.59099 0.2935 0.0
C562 C 0.48908 0.58218 0.28283 0.0
C563 C 0.47534 0.55599 0.2754 0.0
C564 C 0.43411 0.48829 0.27293 0.0
C565 C 0.42782 0.47252 0.28552 0.0
C566 C 0.40257 0.46103 0.29044 0.0
C567 C 0.38321 0.46534 0.28293 0.0
C568 C 0.38952 0.48098 0.27019 0.0
C569 C 0.41488 0.49257 0.26532 0.0
C570 C 0.46949 0.5077 0.24696 0.0
C571 C 0.49196 0.52865 0.24179 0.0
C572 C 0.49426 0.5304 0.22554 0.0
C573 C 0.47418 0.51108 0.21411 0.0
C574 C 0.45187 0.48978 0.21938 0.0
C575 C 0.44969 0.48798 0.23569 0.0
C576 C 0.52995 0.0171 0.05074 0.0
Eu577 Eu 0.5093 0.01484 0.02219 0.0
C578 C 0.52052 0.01115 0.06648 0.0
C579 C 0.502 0.01758 0.07185 0.0
C580 C 0.49313 0.01146 0.08679 0.0
C581 C 0.50234 0.99849 0.09649 0.0
C582 C 0.52061 0.99179 0.09098 0.0
C583 C 0.52967 0.99815 0.07611 0.0
C584 C 0.48864 0.04411 0.01202 0.0
C585 C 0.44614 0.96962 0.01791 0.0
C586 C 0.45736 0.99169 0.9599 0.0
Eu587 Eu 0.4783 0.99502 0.98867 0.0
C588 C 0.46641 0.99867 0.9442 0.0
C589 C 0.49236 0.0062 0.94133 0.0
C590 C 0.50073 0.01323 0.92635 0.0
C591 C 0.48328 0.01291 0.91404 0.0
C592 C 0.4573 0.00534 0.91706 0.0
C593 C 0.44898 0.99831 0.93201 0.0
C594 C 0.49976 0.9665 0.99929 0.0
C595 C 0.54186 0.0395 0.99307 0.0
O596 O 0.52126 0.99646 0.03999 0.0
O597 O 0.53027 0.03759 0.04503 0.0
O598 O 0.51082 0.0542 0.02111 0.0
O599 O 0.47757 0.01907 0.00974 0.0
O600 O 0.46927 0.98124 0.02675 0.0
O601 O 0.44381 0.97422 0.00297 0.0
O602 O 0.46449 0.01179 0.97079 0.0
O603 O 0.45954 0.97234 0.96542 0.0
O604 O 0.47727 0.95562 0.99045 0.0
O605 O 0.51016 0.99138 0.00106 0.0
O606 O 0.51885 0.02892 0.9841 0.0
O607 O 0.54346 0.03391 0.00783 0.0
H608 H 0.49434 0.02726 0.06449 0.0
H609 H 0.47884 0.01659 0.09069 0.0
H610 H 0.52821 0.982 0.09827 0.0
H611 H 0.54384 0.9929 0.07212 0.0
H612 H 0.50613 0.00672 0.95067 0.0
H613 H 0.52093 0.01923 0.92448 0.0
H614 H 0.44325 0.00448 0.9078 0.0
H615 H 0.42889 0.99256 0.93405 0.0
C616 C 0.99228 0.52516 0.04272 0.0
Eu617 Eu 0.98662 0.5026 0.01396 0.0
C618 C 0.00222 0.52532 0.05908 0.0
C619 C 0.00168 0.50274 0.06436 0.0
C620 C 0.01127 0.50362 0.08009 0.0
C621 C 0.02178 0.52717 0.09064 0.0
C622 C 0.02232 0.5497 0.08521 0.0
C623 C 0.01259 0.54874 0.06958 0.0
C624 C 0.95251 0.45109 0.00222 0.0
C625 C 0.02667 0.47964 0.00989 0.0
C626 C 0.98673 0.46142 0.95175 0.0
Eu627 Eu 0.9937 0.48522 0.98031 0.0
C628 C 0.98221 0.46509 0.9351 0.0
C629 C 0.98973 0.49044 0.93058 0.0
C630 C 0.98732 0.4938 0.91446 0.0
C631 C 0.9773 0.47184 0.90264 0.0
C632 C 0.96891 0.44636 0.90737 0.0
C633 C 0.97141 0.44306 0.92345 0.0
C634 C 0.02888 0.53644 0.99144 0.0
C635 C 0.95393 0.50899 0.98489 0.0
O636 O 0.01002 0.53528 0.03274 0.0
O637 O 0.97069 0.50353 0.0364 0.0
O638 O 0.94572 0.46512 0.01122 0.0
O639 O 0.9767 0.46418 0.0008 0.0
O640 O 0.02059 0.49494 0.01883 0.0
O641 O 0.01532 0.46975 0.99512 0.0
O642 O 0.9674 0.45579 0.96054 0.0
O643 O 0.00996 0.47855 0.95929 0.0
O644 O 0.03415 0.52198 0.98169 0.0
O645 O 0.00477 0.52416 0.99353 0.0
O646 O 0.96071 0.49473 0.97548 0.0
O647 O 0.9644 0.51762 -0.00016 0.0
H648 H 0.99392 0.48453 0.05634 0.0
H649 H 0.01086 0.48606 0.08392 0.0
H650 H 0.03 0.56801 0.09312 0.0
H651 H 0.01314 0.56633 0.06567 0.0
H652 H 0.99805 0.50768 0.93946 0.0
H653 H 0.99413 0.5137 0.91124 0.0
H654 H 0.96062 0.42896 0.89861 0.0
H655 H 0.96537 0.42334 0.92677 0.0
C656 C 0.45978 0.47481 0.96007 0.0
Eu657 Eu 0.48019 0.4968 0.98915 0.0
C658 C 0.46857 0.47372 0.94431 0.0
C659 C 0.49388 0.49266 0.94094 0.0
C660 C 0.50199 0.49076 0.92592 0.0
C661 C 0.48495 0.46978 0.91412 0.0
C662 C 0.45957 0.451 0.9176 0.0
C663 C 0.45148 0.45298 0.93256 0.0
C664 C 0.49879 0.54821 0.00083 0.0
C665 C 0.54387 0.51961 0.99378 0.0
C666 C 0.52993 0.53762 0.05164 0.0
Eu667 Eu 0.51018 0.51431 0.02282 0.0
C668 C 0.52187 0.53411 0.06792 0.0
C669 C 0.51849 0.51204 0.07549 0.0
C670 C 0.51154 0.50945 0.09104 0.0
C671 C 0.50772 0.52881 0.09935 0.0
C672 C 0.51086 0.55073 0.09168 0.0
C673 C 0.51797 0.5534 0.07616 0.0
C674 C 0.49344 0.46335 0.01171 0.0
C675 C 0.44598 0.4902 0.0182 0.0
O676 O 0.46614 0.4632 0.97076 0.0
O677 O 0.46273 0.49765 0.96588 0.0
O678 O 0.47645 0.53401 0.99192 0.0
O679 O 0.51044 0.53527 0.00227 0.0
O680 O 0.52116 0.50431 0.98473 0.0
O681 O 0.54473 0.52964 0.00845 0.0
O682 O 0.51733 0.54509 0.04186 0.0
O683 O 0.5345 0.51971 0.04473 0.0
O684 O 0.51481 0.4781 0.02136 0.0
O685 O 0.4807 0.47524 0.00958 0.0
O686 O 0.46857 0.50386 0.02757 0.0
O687 O 0.44502 0.4825 0.00299 0.0
H688 H 0.5074 0.50874 0.94995 0.0
H689 H 0.52175 0.50537 0.92364 0.0
H690 H 0.44587 0.43482 0.90871 0.0
H691 H 0.43187 0.4382 0.93499 0.0
H692 H 0.52144 0.49684 0.06949 0.0
H693 H 0.50972 0.49254 0.09665 0.0
H694 H 0.50772 0.56583 0.09764 0.0
H695 H 0.5205 0.57062 0.07061 0.0
C696 C 0.19773 0.3518 0.38508 0.0
Eu697 Eu 0.17695 0.34726 0.35617 0.0
C698 C 0.18771 0.34392 0.40043 0.0
C699 C 0.16258 0.33926 0.40336 0.0
C700 C 0.15296 0.33092 0.41786 0.0
C701 C 0.1683 0.32699 0.4296 0.0
C702 C 0.19347 0.3317 0.42656 0.0
C703 C 0.20306 0.34008 0.41208 0.0
C704 C 0.15652 0.37592 0.34467 0.0
C705 C 0.11418 0.30108 0.35193 0.0
C706 C 0.12661 0.3201 0.29345 0.0
Eu707 Eu 0.1467 0.3257 0.32275 0.0
C708 C 0.13622 0.32799 0.27787 0.0
C709 C 0.12803 0.3083 0.26487 0.0
C710 C 0.13638 0.31525 0.24991 0.0
C711 C 0.15291 0.34209 0.24763 0.0
C712 C 0.16124 0.36182 0.26068 0.0
C713 C 0.15309 0.35484 0.27569 0.0
C714 C 0.16818 0.29797 0.33461 0.0
C715 C 0.20967 0.3718 0.32723 0.0
O716 O 0.19238 0.33217 0.37423 0.0
O717 O 0.19446 0.37041 0.37937 0.0
O718 O 0.17878 0.3864 0.35371 0.0
O719 O 0.14523 0.35081 0.34296 0.0
O720 O 0.13722 0.31335 0.36086 0.0
O721 O 0.11191 0.30489 0.33681 0.0
O722 O 0.13017 0.33909 0.30428 0.0
O723 O 0.13101 0.30233 0.29937 0.0
O724 O 0.14551 0.2867 0.32594 0.0
O725 O 0.17875 0.32291 0.33581 0.0
O726 O 0.18679 0.36008 0.31806 0.0
O727 O 0.21137 0.36707 0.34216 0.0
H728 H 0.15038 0.34193 0.3944 0.0
H729 H 0.1334 0.32718 0.41979 0.0
H730 H 0.20589 0.32922 0.43546 0.0
H731 H 0.22247 0.34351 0.40996 0.0
H732 H 0.11497 0.28749 0.26626 0.0
H733 H 0.12941 0.29964 0.24004 0.0
H734 H 0.17419 0.38264 0.2593 0.0
H735 H 0.1599 0.37048 0.28552 0.0
C736 C 0.66466 0.86046 0.37297 0.0
Eu737 Eu 0.65703 0.83716 0.34418 0.0
C738 C 0.67353 0.85929 0.38934 0.0
C739 C 0.66607 0.83493 0.39539 0.0
C740 C 0.67483 0.83465 0.41109 0.0
C741 C 0.69139 0.85871 0.42088 0.0
C742 C 0.69882 0.88298 0.41471 0.0
C743 C 0.68992 0.88324 0.3991 0.0
C744 C 0.62176 0.78547 0.33326 0.0
C745 C 0.69553 0.81263 0.3393 0.0
C746 C 0.65366 0.79399 0.28182 0.0
Eu747 Eu 0.66182 0.81848 0.31032 0.0
C748 C 0.64905 0.79743 0.26515 0.0
C749 C 0.65144 0.82134 0.26093 0.0
C750 C 0.64922 0.825 0.24484 0.0
C751 C 0.64467 0.8048 0.23279 0.0
C752 C 0.64147 0.78058 0.23718 0.0
C753 C 0.64368 0.77697 0.25323 0.0
C754 C 0.6981 0.86971 0.32101 0.0
C755 C 0.62417 0.8445 0.31558 0.0
O756 O 0.68268 0.86874 0.36306 0.0
O757 O 0.64182 0.84059 0.3665 0.0
O758 O 0.61599 0.80005 0.34256 0.0
O759 O 0.64572 0.79811 0.33123 0.0
O760 O 0.69096 0.82913 0.34826 0.0
O761 O 0.68272 0.80201 0.3249 0.0
O762 O 0.63468 0.78921 0.29077 0.0
O763 O 0.67715 0.81091 0.2891 0.0
O764 O 0.70279 0.85477 0.31126 0.0
O765 O 0.67416 0.8578 0.32337 0.0
O766 O 0.62914 0.82872 0.30614 0.0
O767 O 0.63601 0.85365 0.33025 0.0
H768 H 0.65356 0.81618 0.38799 0.0
H769 H 0.66901 0.81568 0.41551 0.0
H770 H 0.71128 0.90182 0.42204 0.0
H771 H 0.69584 0.90221 0.39463 0.0
H772 H 0.65564 0.83736 0.27005 0.0
H773 H 0.65196 0.84394 0.24185 0.0
H774 H 0.63747 0.76447 0.22821 0.0
H775 H 0.64171 0.75836 0.25632 0.0
C776 C 0.12281 0.80611 0.29213 0.0
Eu777 Eu 0.14236 0.82977 0.321 0.0
C778 C 0.13249 0.805 0.27667 0.0
C779 C 0.15764 0.82469 0.27352 0.0
C780 C 0.16664 0.82291 0.2588 0.0
C781 C 0.15069 0.80132 0.24709 0.0
C782 C 0.12549 0.78174 0.25036 0.0
C783 C 0.11649 0.7836 0.26502 0.0
C784 C 0.15523 0.87991 0.33186 0.0
C785 C 0.20664 0.85806 0.32527 0.0
C786 C 0.19219 0.87538 0.38295 0.0
Eu787 Eu 0.17282 0.85089 0.35429 0.0
C788 C 0.18368 0.87099 0.39896 0.0
C789 C 0.1637 0.84585 0.40207 0.0
C790 C 0.15628 0.84168 0.41746 0.0
C791 C 0.16856 0.86267 0.42994 0.0
C792 C 0.18818 0.88797 0.42666 0.0
C793 C 0.19572 0.89206 0.41128 0.0
C794 C 0.16048 0.80071 0.34397 0.0
C795 C 0.10796 0.82123 0.35003 0.0
O796 O 0.12949 0.79548 0.3033 0.0
O797 O 0.1247 0.82871 0.29737 0.0
O798 O 0.13324 0.86342 0.32319 0.0
O799 O 0.16987 0.87007 0.33346 0.0
O800 O 0.18419 0.84031 0.31672 0.0
O801 O 0.20695 0.86886 0.3396 0.0
O802 O 0.17845 0.88139 0.37308 0.0
O803 O 0.19772 0.85806 0.37629 0.0
O804 O 0.18192 0.81744 0.35304 0.0
O805 O 0.14574 0.81042 0.34185 0.0
O806 O 0.13042 0.83746 0.35912 0.0
O807 O 0.10755 0.81265 0.33509 0.0
H808 H 0.17033 0.84128 0.28246 0.0
H809 H 0.18625 0.83814 0.25669 0.0
H810 H 0.11263 0.76505 0.24152 0.0
H811 H 0.09704 0.76824 0.26729 0.0
H812 H 0.15401 0.82943 0.39261 0.0
H813 H 0.14088 0.82208 0.41961 0.0
H814 H 0.19815 0.90444 0.43606 0.0
H815 H 0.21112 0.9116 0.40903 0.0
C816 C 0.86403 0.68637 0.71806 0.0
Eu817 Eu 0.84285 0.68114 0.68915 0.0
C818 C 0.85439 0.67884 0.73354 0.0
C819 C 0.82933 0.67418 0.73666 0.0
C820 C 0.82006 0.66603 0.75126 0.0
C821 C 0.83567 0.66226 0.76291 0.0
C822 C 0.86076 0.66699 0.75968 0.0
C823 C 0.87002 0.67521 0.7451 0.0
C824 C 0.8228 0.70992 0.67733 0.0
C825 C 0.77996 0.63536 0.68532 0.0
C826 C 0.79159 0.65334 0.62661 0.0
Eu827 Eu 0.81201 0.65907 0.65584 0.0
C828 C 0.80095 0.66077 0.6109 0.0
C829 C 0.79389 0.64065 0.5983 0.0
C830 C 0.80192 0.64715 0.58323 0.0
C831 C 0.81697 0.67394 0.5804 0.0
C832 C 0.82416 0.6941 0.59303 0.0
C833 C 0.81633 0.6876 0.60816 0.0
C834 C 0.83304 0.63111 0.66792 0.0
C835 C 0.87543 0.70381 0.65982 0.0
O836 O 0.85855 0.66652 0.70736 0.0
O837 O 0.86056 0.70478 0.71222 0.0
O838 O 0.84526 0.72044 0.68616 0.0
O839 O 0.81126 0.68482 0.67593 0.0
O840 O 0.80313 0.64754 0.69413 0.0
O841 O 0.7775 0.63899 0.67019 0.0
O842 O 0.79566 0.67263 0.63737 0.0
O843 O 0.79563 0.63538 0.63259 0.0
O844 O 0.81037 0.61986 0.65925 0.0
O845 O 0.84379 0.65603 0.66893 0.0
O846 O 0.8524 0.69274 0.65083 0.0
O847 O 0.87707 0.69933 0.67482 0.0
H848 H 0.8169 0.67666 0.72776 0.0
H849 H 0.80055 0.66227 0.75335 0.0
H850 H 0.87338 0.66461 0.76849 0.0
H851 H 0.88936 0.67862 0.74283 0.0
H852 H 0.78194 0.61985 0.60009 0.0
H853 H 0.79581 0.63119 0.57368 0.0
H854 H 0.83596 0.71491 0.59123 0.0
H855 H 0.82221 0.7036 0.61764 0.0
C856 C 0.32927 0.18995 0.70671 0.0
Eu857 Eu 0.32369 0.16729 0.678 0.0
C858 C 0.33867 0.18972 0.72313 0.0
C859 C 0.33464 0.16611 0.72895 0.0
C860 C 0.34365 0.16664 0.74475 0.0
C861 C 0.35705 0.19082 0.75484 0.0
C862 C 0.36114 0.21437 0.74887 0.0
C863 C 0.35199 0.21379 0.73317 0.0
C864 C 0.28934 0.11576 0.66646 0.0
C865 C 0.3636 0.14411 0.67422 0.0
C866 C 0.32426 0.1262 0.616 0.0
Eu867 Eu 0.33082 0.14974 0.64459 0.0
C868 C 0.31957 0.12981 0.59935 0.0
C869 C 0.32695 0.15511 0.5948 0.0
C870 C 0.32439 0.15841 0.57868 0.0
C871 C 0.31435 0.13643 0.56688 0.0
C872 C 0.3061 0.11099 0.57163 0.0
C873 C 0.30876 0.10775 0.58771 0.0
C874 C 0.36591 0.20109 0.65568 0.0
C875 C 0.29095 0.17342 0.64896 0.0
O876 O 0.3473 0.19975 0.69687 0.0
O877 O 0.30743 0.16874 0.70022 0.0
O878 O 0.2827 0.13015 0.67524 0.0
O879 O 0.31358 0.12854 0.66506 0.0
O880 O 0.35757 0.15956 0.68306 0.0
O881 O 0.35227 0.13415 0.65946 0.0
O882 O 0.30487 0.12011 0.6248 0.0
O883 O 0.34737 0.14363 0.62355 0.0
O884 O 0.37144 0.18651 0.64622 0.0
O885 O 0.34176 0.18877 0.65759 0.0
O886 O 0.29753 0.15887 0.63965 0.0
O887 O 0.30183 0.18253 0.6638 0.0
H888 H 0.32458 0.14734 0.72132 0.0
H889 H 0.34046 0.14826 0.74901 0.0
H890 H 0.37112 0.23323 0.75642 0.0
H891 H 0.35525 0.23218 0.72885 0.0
H892 H 0.33528 0.17238 0.60367 0.0
H893 H 0.33109 0.17829 0.57545 0.0
H894 H 0.29779 0.09357 0.56289 0.0
H895 H 0.30283 0.08806 0.59104 0.0
C896 C 0.79552 0.14797 0.625 0.0
Eu897 Eu 0.81499 0.16658 0.65463 0.0
C898 C 0.80526 0.14575 0.60968 0.0
C899 C 0.79271 0.14761 0.59561 0.0
C900 C 0.80138 0.14519 0.58089 0.0
C901 C 0.82275 0.1408 0.58 0.0
C902 C 0.83548 0.13923 0.59419 0.0
C903 C 0.82684 0.14173 0.60891 0.0
C904 C 0.83327 0.21732 0.66762 0.0
C905 C 0.8782 0.18819 0.65916 0.0
C906 C 0.86501 0.20419 0.71711 0.0
Eu907 Eu 0.84451 0.18207 0.68814 0.0
C908 C 0.85718 0.19989 0.73325 0.0
C909 C 0.83197 0.17952 0.73575 0.0
C910 C 0.82518 0.175 0.75126 0.0
C911 C 0.84359 0.19072 0.76447 0.0
C912 C 0.86871 0.21132 0.76182 0.0
C913 C 0.87542 0.21585 0.74633 0.0
C914 C 0.82848 0.13176 0.6759 0.0
C915 C 0.78025 0.1579 0.68355 0.0
O916 O 0.79692 0.13345 0.63573 0.0
O917 O 0.80229 0.17204 0.63108 0.0
O918 O 0.81046 0.20312 0.6592 0.0
O919 O 0.8452 0.20454 0.66831 0.0
O920 O 0.85543 0.17263 0.65025 0.0
O921 O 0.87909 0.19838 0.67379 0.0
O922 O 0.85224 0.21208 0.7078 0.0
O923 O 0.86849 0.1858 0.70984 0.0
O924 O 0.84975 0.14632 0.68564 0.0
O925 O 0.81537 0.1434 0.67423 0.0
O926 O 0.80276 0.17119 0.69305 0.0
O927 O 0.77956 0.15125 0.66821 0.0
H928 H 0.77603 0.15073 0.59599 0.0
H929 H 0.79097 0.1462 0.57018 0.0
H930 H 0.85222 0.13621 0.59392 0.0
H931 H 0.83692 0.14038 0.61965 0.0
H932 H 0.81771 0.16692 0.72572 0.0
H933 H 0.80577 0.15884 0.75291 0.0
H934 H 0.88317 0.22403 0.77174 0.0
H935 H 0.89496 0.23169 0.74457 0.0
H936 H 0.34197 0.88074 0.086 0.0
H937 H 0.39585 0.93432 0.00355 0.0
H938 H 0.29881 0.84069 0.04004 0.0
H939 H 0.44241 0.96397 0.04954 0.0
H940 H 0.35779 0.90339 0.01662 0.0
H941 H 0.3766 0.91514 0.07271 0.0
C942 C 0.33975 0.8792 0.0731 0.0
C943 C 0.31759 0.8576 0.06413 0.0
C944 C 0.37634 0.91678 0.02381 0.0
C945 C 0.35718 0.89709 0.04878 0.0
C946 C 0.39804 0.93446 0.01637 0.0
C947 C 0.42242 0.95162 0.02543 0.0
C948 C 0.37906 0.91648 0.04042 0.0
C949 C 0.42412 0.95095 0.04201 0.0
C950 C 0.3595 0.89891 0.06551 0.0
C951 C 0.3155 0.85703 0.04744 0.0
N952 N 0.40279 0.93367 0.04894 0.0
N953 N 0.33516 0.87637 0.04029 0.0
H954 H 0.12979 0.41525 0.02596 0.0
H955 H 0.04744 0.48874 0.04113 0.0
H956 H 0.11657 0.43733 0.07284 0.0
H957 H 0.04754 0.45228 0.99492 0.0
H958 H 0.07632 0.47392 0.05276 0.0
H959 H 0.10292 0.43224 0.01423 0.0
C960 C 0.12116 0.42355 0.03381 0.0
C961 C 0.12539 0.42469 0.05045 0.0
C962 C 0.07005 0.4692 0.04007 0.0
C963 C 0.0949 0.44462 0.03704 0.0
C964 C 0.05361 0.47773 0.0334 0.0
C965 C 0.04496 0.47167 0.01701 0.0
C966 C 0.07805 0.45465 0.03029 0.0
C967 C 0.0536 0.4573 0.00762 0.0
C968 C 0.10593 0.43339 0.02708 0.0
C969 C 0.11414 0.43627 0.05998 0.0
N970 N 0.06967 0.44929 0.01439 0.0
N971 N 0.09941 0.44574 0.05314 0.0
H972 H 0.6065 0.70653 0.0468 0.0
H973 H 0.47824 0.58122 0.99801 0.0
H974 H 0.54084 0.71168 0.02536 0.0
H975 H 0.54642 0.57926 0.01817 0.0
H976 H 0.49967 0.62858 0.00852 0.0
H977 H 0.58374 0.65933 0.03687 0.0
C978 C 0.58734 0.69776 0.03991 0.0
C979 C 0.57565 0.71314 0.03683 0.0
C980 C 0.50987 0.61771 0.01065 0.0
C981 C 0.54921 0.65886 0.02555 0.0
C982 C 0.49765 0.59075 0.00468 0.0
C983 C 0.51062 0.57642 0.00723 0.0
C984 C 0.53515 0.63023 0.01923 0.0
C985 C 0.53571 0.58959 0.01593 0.0
C986 C 0.57425 0.67073 0.03431 0.0
C987 C 0.5505 0.70052 0.02812 0.0
N988 N 0.54714 0.61571 0.02159 0.0
N989 N 0.53813 0.67411 0.02274 0.0
H990 H 0.89603 0.29501 0.95321 0.0
H991 H 0.89922 0.4185 0.00357 0.0
H992 H 0.82606 0.29128 0.96931 0.0
H993 H 0.9667 0.42045 0.98477 0.0
H994 H 0.87165 0.37192 0.99153 0.0
H995 H 0.92191 0.34117 0.96502 0.0
C996 C 0.88603 0.30397 0.95912 0.0
C997 C 0.85876 0.28925 0.96015 0.0
C998 C 0.89249 0.38261 0.99006 0.0
C999 C 0.8885 0.34226 0.97402 0.0
C1000 C 0.90818 0.40912 0.99692 0.0
C1001 C 0.93521 0.42324 0.99515 0.0
C1002 C 0.90407 0.37033 0.98144 0.0
C1003 C 0.94593 0.41028 0.98642 0.0
C1004 C 0.90088 0.33035 0.96597 0.0
C1005 C 0.84707 0.30182 0.96832 0.0
N1006 N 0.93035 0.38461 0.97992 0.0
N1007 N 0.862 0.32764 0.97494 0.0
H1008 H 0.66676 0.55818 0.93125 0.0
H1009 H 0.59362 0.54663 0.00953 0.0
H1010 H 0.70684 0.58791 0.97896 0.0
H1011 H 0.5516 0.51016 0.96279 0.0
H1012 H 0.63517 0.56105 0.99832 0.0
H1013 H 0.62431 0.53935 0.94234 0.0
C1014 C 0.66664 0.56057 0.94406 0.0
C1015 C 0.69041 0.57486 0.95418 0.0
C1016 C 0.6169 0.54981 0.99049 0.0
C1017 C 0.64197 0.5536 0.96691 0.0
C1018 C 0.59309 0.54158 0.99689 0.0
C1019 C 0.56904 0.52728 0.98708 0.0
C1020 C 0.61679 0.54387 0.9741 0.0
C1021 C 0.56967 0.5212 0.9708 0.0
C1022 C 0.64241 0.54992 0.95037 0.0
C1023 C 0.68905 0.57753 0.97067 0.0
N1024 N 0.5932 0.52967 0.9648 0.0
N1025 N 0.66529 0.56711 0.97649 0.0
H1026 H 0.424 0.1035 0.94351 0.0
H1027 H 0.51108 0.09801 0.0158 0.0
H1028 H 0.46667 0.16902 0.98076 0.0
H1029 H 0.4426 0.02635 0.99266 0.0
H1030 H 0.49588 0.12455 0.00241 0.0
H1031 H 0.43092 0.0745 0.96049 0.0
C1032 C 0.43447 0.11163 0.95535 0.0
C1033 C 0.44483 0.13865 0.96076 0.0
C1034 C 0.48406 0.10301 0.00034 0.0
C1035 C 0.45314 0.10591 0.98002 0.0
C1036 C 0.49277 0.08787 0.00794 0.0
C1037 C 0.47833 0.06001 0.00503 0.0
C1038 C 0.46099 0.09017 0.98958 0.0
C1039 C 0.45462 0.04784 0.99487 0.0
C1040 C 0.43833 0.09511 0.96502 0.0
C1041 C 0.45818 0.14825 0.97619 0.0
N1042 N 0.44685 0.06303 0.98727 0.0
N1043 N 0.46232 0.13199 0.98519 0.0
H1044 H 0.70435 0.11161 0.97598 0.0
H1045 H 0.54861 0.05296 0.96235 0.0
H1046 H 0.66655 0.12006 0.93321 0.0
H1047 H 0.59205 0.06253 0.00776 0.0
H1048 H 0.59065 0.0763 0.95083 0.0
H1049 H 0.66227 0.09155 0.98712 0.0
C1050 C 0.6871 0.10907 0.96889 0.0
C1051 C 0.68888 0.11731 0.95361 0.0
C1052 C 0.59087 0.07341 0.96334 0.0
C1053 C 0.64052 0.09455 0.96636 0.0
C1054 C 0.56691 0.06012 0.96992 0.0
C1055 C 0.56675 0.05557 0.98603 0.0
C1056 C 0.61471 0.082 0.97292 0.0
C1057 C 0.59108 0.06535 0.99528 0.0
C1058 C 0.66309 0.09782 0.97531 0.0
C1059 C 0.66599 0.11402 0.94507 0.0
N1060 N 0.61398 0.07789 0.98857 0.0
N1061 N 0.64264 0.10271 0.95153 0.0
H1062 H 0.85203 0.57531 0.97745 0.0
H1063 H 0.93393 0.50419 0.95367 0.0
H1064 H 0.86004 0.55622 0.92864 0.0
H1065 H 0.93059 0.53141 0.00182 0.0
H1066 H 0.90388 0.51931 0.94398 0.0
H1067 H 0.8778 0.55542 0.98635 0.0
C1068 C 0.85926 0.56695 0.9686 0.0
C1069 C 0.85409 0.56769 0.95229 0.0
C1070 C 0.90971 0.52185 0.95666 0.0
C1071 C 0.88357 0.54463 0.96239 0.0
C1072 C 0.92681 0.5132 0.96219 0.0
C1073 C 0.93498 0.51673 0.97857 0.0
C1074 C 0.90067 0.53393 0.96761 0.0
C1075 C 0.9251 0.52848 0.98908 0.0
C1076 C 0.87389 0.55547 0.97367 0.0
C1077 C 0.86346 0.55598 0.94133 0.0
N1078 N 0.90857 0.53667 0.98342 0.0
N1079 N 0.87791 0.54507 0.94658 0.0
H1080 H 0.4364 0.32225 0.94555 0.0
H1081 H 0.51942 0.43645 0.01624 0.0
H1082 H 0.48638 0.31636 0.98273 0.0
H1083 H 0.44898 0.4284 0.99147 0.0
H1084 H 0.50808 0.39285 0.00332 0.0
H1085 H 0.44055 0.3612 0.96142 0.0
C1086 C 0.44792 0.32886 0.95713 0.0
C1087 C 0.46141 0.31623 0.96269 0.0
C1088 C 0.49498 0.40049 0.00074 0.0
C1089 C 0.46655 0.36097 0.98072 0.0
C1090 C 0.50149 0.42543 0.00809 0.0
C1091 C 0.48535 0.43621 0.00466 0.0
C1092 C 0.47234 0.38633 0.98971 0.0
C1093 C 0.46225 0.421 0.99412 0.0
C1094 C 0.45033 0.35115 0.96614 0.0
C1095 C 0.47622 0.32586 0.97774 0.0
N1096 N 0.45656 0.39689 0.98681 0.0
N1097 N 0.47864 0.34781 0.98612 0.0
H1098 H 0.11765 0.67611 0.05961 0.0
H1099 H 0.08127 0.56319 0.98833 0.0
H1100 H 0.17318 0.67811 0.02779 0.0
H1101 H 0.02173 0.57063 0.01178 0.0
H1102 H 0.11499 0.60591 0.00251 0.0
H1103 H 0.08192 0.63847 0.04212 0.0
C1104 C 0.12231 0.66894 0.04883 0.0
C1105 C 0.14855 0.68012 0.04528 0.0
C1106 C 0.09456 0.59834 0.00453 0.0
C1107 C 0.1078 0.63678 0.02537 0.0
C1108 C 0.07529 0.57392 0.99644 0.0
C1109 C 0.04877 0.5632 0.99913 0.0
C1110 C 0.08731 0.61208 0.01553 0.0
C1111 C 0.04207 0.578 0.00966 0.0
C1112 C 0.1019 0.64735 0.03889 0.0
C1113 C 0.15338 0.66976 0.03122 0.0
N1114 N 0.06129 0.60161 0.01765 0.0
N1115 N 0.13326 0.64855 0.02189 0.0
H1116 H 0.28442 0.43984 0.03479 0.0
H1117 H 0.43821 0.48915 0.04981 0.0
H1118 H 0.3196 0.42781 0.07735 0.0
H1119 H 0.39676 0.47214 0.00271 0.0
H1120 H 0.39628 0.47344 0.06115 0.0
H1121 H 0.32704 0.45854 0.0239 0.0
C1122 C 0.3012 0.44135 0.04188 0.0
C1123 C 0.29854 0.43226 0.05697 0.0
C1124 C 0.39642 0.47321 0.04834 0.0
C1125 C 0.34723 0.45361 0.04464 0.0
C1126 C 0.42033 0.48228 0.04185 0.0
C1127 C 0.42097 0.48185 0.02526 0.0
C1128 C 0.37303 0.46402 0.03819 0.0
C1129 C 0.39716 0.47265 0.01554 0.0
C1130 C 0.32542 0.45184 0.03563 0.0
C1131 C 0.3208 0.43441 0.06561 0.0
N1132 N 0.37416 0.46417 0.02216 0.0
N1133 N 0.34427 0.44496 0.05935 0.0
H1134 H 0.53901 0.84856 0.02654 0.0
H1135 H 0.54869 0.98836 0.01534 0.0
H1136 H 0.60594 0.9251 0.04526 0.0
H1137 H 0.47984 0.91257 0.99782 0.0
H1138 H 0.56982 0.96513 0.02627 0.0
H1139 H 0.51691 0.8712 0.01574 0.0
C1140 C 0.54908 0.87013 0.02834 0.0
C1141 C 0.57437 0.88497 0.03682 0.0
C1142 C 0.55008 0.9535 0.02006 0.0
C1143 C 0.54914 0.91096 0.02459 0.0
C1144 C 0.538 0.96676 0.01382 0.0
C1145 C 0.51247 0.9523 0.00573 0.0
C1146 C 0.5366 0.92552 0.01814 0.0
C1147 C 0.49957 0.92439 0.004 0.0
C1148 C 0.5364 0.88302 0.02225 0.0
C1149 C 0.58633 0.91283 0.03899 0.0
N1150 N 0.5118 0.91185 0.01017 0.0
N1151 N 0.57364 0.9249 0.03288 0.0
H1152 H 0.96546 0.1691 0.37231 0.0
H1153 H 0.11025 0.29661 0.38363 0.0
H1154 H 0.00805 0.21151 0.418 0.0
H1155 H 0.06424 0.2643 0.33758 0.0
H1156 H 0.07231 0.26571 0.39617 0.0
H1157 H 0.00022 0.20405 0.35915 0.0
C1158 C 0.98191 0.18592 0.37958 0.0
C1159 C 0.98396 0.18721 0.39631 0.0
C1160 C 0.07035 0.2654 0.38333 0.0
C1161 C 0.02396 0.22701 0.3813 0.0
C1162 C 0.09211 0.28306 0.37611 0.0
C1163 C 0.09052 0.28301 0.35948 0.0
C1164 C 0.04673 0.24722 0.37388 0.0
C1165 C 0.06635 0.26502 0.35044 0.0
C1166 C 0.00181 0.20578 0.37205 0.0
C1167 C 0.00588 0.20935 0.40509 0.0
N1168 N 0.04543 0.24765 0.35775 0.0
N1169 N 0.02507 0.22822 0.39749 0.0
H1170 H 0.76285 0.71732 0.36614 0.0
H1171 H 0.73177 0.83549 0.36582 0.0
H1172 H 0.81503 0.79502 0.3921 0.0
H1173 H 0.69987 0.76985 0.32834 0.0
H1174 H 0.75992 0.81957 0.37737 0.0
H1175 H 0.73707 0.73486 0.35379 0.0
C1176 C 0.76914 0.73814 0.36915 0.0
C1177 C 0.79138 0.75469 0.38017 0.0
C1178 C 0.74685 0.80878 0.36657 0.0
C1179 C 0.76128 0.77472 0.3663 0.0
C1180 C 0.73073 0.81778 0.36 0.0
C1181 C 0.71343 0.80396 0.3461 0.0
C1182 C 0.74535 0.78557 0.35932 0.0
C1183 C 0.71296 0.78118 0.33903 0.0
C1184 C 0.75424 0.74809 0.36214 0.0
C1185 C 0.7979 0.78134 0.38387 0.0
N1186 N 0.72853 0.77259 0.34579 0.0
N1187 N 0.78286 0.79048 0.377 0.0
H1188 H 0.23557 0.05195 0.34267 0.0
H1189 H 0.14842 0.90025 0.35976 0.0
H1190 H 0.22602 0.02761 0.3901 0.0
H1191 H 0.18294 0.92251 0.31586 0.0
H1192 H 0.16938 0.94767 0.36996 0.0
H1193 H 0.20956 0.00511 0.33161 0.0
C1194 C 0.22814 0.03685 0.35079 0.0
C1195 C 0.23325 0.04389 0.36739 0.0
C1196 C 0.17214 0.94219 0.35803 0.0
C1197 C 0.20283 0.99025 0.35472 0.0
C1198 C 0.16013 0.91525 0.35223 0.0
C1199 C 0.16411 0.90783 0.33703 0.0
C1200 C 0.18799 0.96165 0.34845 0.0
C1201 C 0.17941 0.92772 0.32763 0.0
C1202 C 0.21312 0.01012 0.34443 0.0
C1203 C 0.22239 0.02332 0.37724 0.0
N1204 N 0.19089 0.95383 0.33351 0.0
N1205 N 0.20773 0.99747 0.37076 0.0
H1206 H 0.56549 0.62284 0.29634 0.0
H1207 H 0.56913 0.75324 0.33673 0.0
H1208 H 0.49465 0.62388 0.30585 0.0
H1209 H 0.63504 0.75285 0.31712 0.0
H1210 H 0.54156 0.70529 0.32758 0.0
H1211 H 0.59164 0.66991 0.30648 0.0
C1212 C 0.55544 0.63293 0.30072 0.0
C1213 C 0.52785 0.61939 0.30028 0.0
C1214 C 0.56206 0.71579 0.32529 0.0
C1215 C 0.5577 0.67355 0.31173 0.0
C1216 C 0.57774 0.74307 0.3305 0.0
C1217 C 0.60435 0.75692 0.32769 0.0
C1218 C 0.57325 0.70244 0.31736 0.0
C1219 C 0.61462 0.74292 0.31956 0.0
C1220 C 0.57037 0.6599 0.30639 0.0
C1221 C 0.51588 0.63364 0.30586 0.0
N1222 N 0.5991 0.71649 0.31475 0.0
N1223 N 0.53089 0.65999 0.31139 0.0
H1224 H 0.37166 0.93461 0.31026 0.0
H1225 H 0.21431 0.84104 0.29604 0.0
H1226 H 0.33048 0.88005 0.26764 0.0
H1227 H 0.25664 0.89417 0.33904 0.0
H1228 H 0.2564 0.85507 0.28528 0.0
H1229 H 0.32952 0.91972 0.32093 0.0
C1230 C 0.35377 0.91929 0.30319 0.0
C1231 C 0.35468 0.90848 0.28804 0.0
C1232 C 0.25646 0.86364 0.29707 0.0
C1233 C 0.30614 0.89161 0.30012 0.0
C1234 C 0.23242 0.85566 0.30323 0.0
C1235 C 0.2319 0.86645 0.31848 0.0
C1236 C 0.28017 0.88255 0.30622 0.0
C1237 C 0.25603 0.88531 0.32722 0.0
C1238 C 0.32966 0.91093 0.30925 0.0
C1239 C 0.33073 0.88912 0.2793 0.0
N1240 N 0.27914 0.89274 0.32097 0.0
N1241 N 0.30744 0.88129 0.28547 0.0
H1242 H 0.13715 0.50429 0.31527 0.0
H1243 H 0.11071 0.35788 0.32486 0.0
H1244 H 0.09731 0.44008 0.27701 0.0
H1245 H 0.17861 0.42972 0.34834 0.0
H1246 H 0.09673 0.38534 0.31103 0.0
H1247 H 0.14276 0.47414 0.33169 0.0
C1248 C 0.12908 0.48368 0.31045 0.0
C1249 C 0.11686 0.47464 0.29475 0.0
C1250 C 0.11459 0.39496 0.31929 0.0
C1251 C 0.12337 0.44021 0.3134 0.0
C1252 C 0.12265 0.37939 0.32708 0.0
C1253 C 0.14621 0.39163 0.33739 0.0
C1254 C 0.12986 0.42286 0.32224 0.0
C1255 C 0.1605 0.41951 0.34031 0.0
C1256 C 0.13249 0.46659 0.31977 0.0
C1257 C 0.10707 0.44783 0.28902 0.0
N1258 N 0.15212 0.43421 0.33275 0.0
N1259 N 0.11063 0.4315 0.29835 0.0
H1260 H 0.33432 0.44071 0.26548 0.0
H1261 H 0.25825 0.40478 0.34339 0.0
H1262 H 0.37227 0.46487 0.31381 0.0
H1263 H 0.21765 0.37824 0.29567 0.0
H1264 H 0.29983 0.43008 0.33235 0.0
H1265 H 0.29116 0.42076 0.27586 0.0
C1266 C 0.33356 0.44199 0.27826 0.0
C1267 C 0.35689 0.45417 0.28881 0.0
C1268 C 0.28187 0.41886 0.32424 0.0
C1269 C 0.30778 0.43143 0.30073 0.0
C1270 C 0.25805 0.40436 0.33056 0.0
C1271 C 0.23444 0.3891 0.32044 0.0
C1272 C 0.28228 0.41806 0.30764 0.0
C1273 C 0.23542 0.38964 0.30391 0.0
C1274 C 0.30896 0.43054 0.28417 0.0
C1275 C 0.3548 0.45519 0.30524 0.0
N1276 N 0.25904 0.4037 0.298 0.0
N1277 N 0.33073 0.44389 0.31067 0.0
H1278 H 0.51084 0.87355 0.26215 0.0
H1279 H 0.61363 0.88 0.33119 0.0
H1280 H 0.5465 0.93363 0.30281 0.0
H1281 H 0.59415 0.83065 0.28631 0.0
H1282 H 0.58547 0.89649 0.32151 0.0
H1283 H 0.53768 0.85442 0.2713 0.0
C1284 C 0.52423 0.88263 0.27301 0.0
C1285 C 0.52657 0.90529 0.2817 0.0
C1286 C 0.5873 0.88208 0.31372 0.0
C1287 C 0.55714 0.88359 0.2922 0.0
C1288 C 0.6034 0.87253 0.31926 0.0
C1289 C 0.60641 0.85391 0.30953 0.0
C1290 C 0.57385 0.87297 0.29831 0.0
C1291 C 0.59248 0.84506 0.29419 0.0
C1292 C 0.53961 0.87182 0.27816 0.0
C1293 C 0.54433 0.91639 0.29562 0.0
N1294 N 0.57675 0.85467 0.28903 0.0
N1295 N 0.55883 0.90541 0.30043 0.0
H1296 H 0.10613 0.65665 0.28077 0.0
H1297 H 0.19159 0.77877 0.34724 0.0
H1298 H 0.16509 0.65939 0.31521 0.0
H1299 H 0.11588 0.76215 0.32535 0.0
H1300 H 0.18311 0.73586 0.33464 0.0
H1301 H 0.10981 0.69581 0.29602 0.0
C1302 C 0.1196 0.66521 0.29163 0.0
C1303 C 0.13553 0.65478 0.29659 0.0
C1304 C 0.16828 0.74151 0.33263 0.0
C1305 C 0.14016 0.69992 0.31389 0.0
C1306 C 0.17313 0.76602 0.3398 0.0
C1307 C 0.15457 0.77413 0.33711 0.0
C1308 C 0.14482 0.72512 0.32255 0.0
C1309 C 0.13092 0.75681 0.32745 0.0
C1310 C 0.12176 0.68765 0.30028 0.0
C1311 C 0.15288 0.66705 0.31067 0.0
N1312 N 0.1268 0.73318 0.32034 0.0
N1313 N 0.15491 0.68908 0.31872 0.0
H1314 H 0.78593 0.00497 0.39199 0.0
H1315 H 0.75101 0.89519 0.31895 0.0
H1316 H 0.84304 0.00842 0.36099 0.0
H1317 H 0.69136 0.90381 0.34147 0.0
H1318 H 0.78503 0.93684 0.33425 0.0
H1319 H 0.75088 0.96829 0.37369 0.0
C1320 C 0.79111 0.99831 0.38124 0.0
C1321 C 0.81758 0.0097 0.37813 0.0
C1322 C 0.7645 0.92975 0.33578 0.0
C1323 C 0.77753 0.96736 0.35728 0.0
C1324 C 0.74509 0.90598 0.32706 0.0
C1325 C 0.71843 0.89592 0.32916 0.0
C1326 C 0.75719 0.94341 0.3468 0.0
C1327 C 0.71178 0.91071 0.33973 0.0
C1328 C 0.77106 0.97726 0.37083 0.0
C1329 C 0.82303 -9e-05 0.36409 0.0
N1330 N 0.73107 0.9336 0.34831 0.0
N1331 N 0.80324 0.97917 0.35427 0.0
H1332 H 0.94321 0.734 0.36501 0.0
H1333 H 0.09979 0.83269 0.38056 0.0
H1334 H 0.98244 0.78248 0.40983 0.0
H1335 H 0.05818 0.78703 0.33533 0.0
H1336 H 0.05744 0.81495 0.39168 0.0
H1337 H 0.98557 0.75345 0.35415 0.0
C1338 C 0.96079 0.74866 0.37261 0.0
C1339 C 0.95928 0.75646 0.3884 0.0
C1340 C 0.05762 0.8089 0.37931 0.0
C1341 C 0.00802 0.77913 0.37596 0.0
C1342 C 0.08179 0.81901 0.37295 0.0
C1343 C 0.0826 0.81132 0.35697 0.0
C1344 C 0.03411 0.79092 0.36965 0.0
C1345 C 0.05862 0.79353 0.3477 0.0
C1346 C 0.985 0.75991 0.36636 0.0
C1347 C 0.98268 0.77599 0.39756 0.0
N1348 N 0.03544 0.78393 0.35418 0.0
N1349 N 0.00612 0.78658 0.39123 0.0
H1350 H 0.27526 0.2583 0.3835 0.0
H1351 H 0.14832 0.24421 0.33293 0.0
H1352 H 0.21305 0.18398 0.35827 0.0
H1353 H 0.21727 0.31974 0.35075 0.0
H1354 H 0.17033 0.22133 0.34362 0.0
H1355 H 0.25301 0.28087 0.37299 0.0
C1356 C 0.25701 0.24673 0.37568 0.0
C1357 C 0.24606 0.21917 0.37177 0.0
C1358 C 0.18063 0.24291 0.3452 0.0
C1359 C 0.22026 0.24487 0.35986 0.0
C1360 C 0.16807 0.25594 0.33912 0.0
C1361 C 0.18099 0.28385 0.34103 0.0
C1362 C 0.20623 0.25796 0.35329 0.0
C1363 C 0.20656 0.29816 0.34912 0.0
C1364 C 0.24424 0.25962 0.36975 0.0
C1365 C 0.22206 0.20517 0.36182 0.0
N1366 N 0.21833 0.28506 0.35498 0.0
N1367 N 0.20997 0.21816 0.35622 0.0
H1368 H 0.62993 0.50568 0.70612 0.0
H1369 H 0.77666 0.63043 0.71705 0.0
H1370 H 0.67482 0.54535 0.75174 0.0
H1371 H 0.72955 0.59948 0.67128 0.0
H1372 H 0.73878 0.5998 0.72975 0.0
H1373 H 0.66497 0.5404 0.69298 0.0
C1374 C 0.64697 0.52187 0.71339 0.0
C1375 C 0.64954 0.52244 0.73007 0.0
C1376 C 0.73658 0.59974 0.71693 0.0
C1377 C 0.68984 0.56198 0.71509 0.0
C1378 C 0.7583 0.61724 0.70963 0.0
C1379 C 0.75638 0.61748 0.69302 0.0
C1380 C 0.71265 0.58202 0.7076 0.0
C1381 C 0.73194 0.59996 0.68411 0.0
C1382 C 0.66703 0.54159 0.70587 0.0
C1383 C 0.6722 0.54376 0.73885 0.0
N1384 N 0.71104 0.58276 0.69151 0.0
N1385 N 0.6915 0.56252 0.73126 0.0
H1386 H 0.45775 0.10933 0.74047 0.0
H1387 H 0.38311 0.11503 0.6597 0.0
H1388 H 0.46313 0.07803 0.69398 0.0
H1389 H 0.38559 0.15491 0.70531 0.0
H1390 H 0.41199 0.10085 0.67212 0.0
H1391 H 0.43067 0.12557 0.72791 0.0
C1392 C 0.45321 0.10585 0.72762 0.0
C1393 C 0.46273 0.0923 0.71827 0.0
C1394 C 0.4063 0.11278 0.6794 0.0
C1395 C 0.4318 0.11089 0.7038 0.0
C1396 C 0.38976 0.12087 0.67232 0.0
C1397 C 0.38183 0.13615 0.68147 0.0
C1398 C 0.41489 0.11987 0.69579 0.0
C1399 C 0.39117 0.14316 0.69776 0.0
C1400 C 0.43786 0.11524 0.72045 0.0
C1401 C 0.45649 0.08864 0.70165 0.0
N1402 N 0.4071 0.13487 0.70441 0.0
N1403 N 0.44134 0.09777 0.69496 0.0
H1404 H 0.86876 0.37589 0.70492 0.0
H1405 H 0.88375 0.24987 0.68075 0.0
H1406 H 0.94355 0.38055 0.69995 0.0
H1407 H 0.81071 0.24889 0.66913 0.0
H1408 H 0.90484 0.29686 0.69083 0.0
H1409 H 0.846 0.32844 0.69451 0.0
C1410 C 0.88035 0.3669 0.70163 0.0
C1411 C 0.90805 0.3821 0.70326 0.0
C1412 C 0.88422 0.28645 0.68605 0.0
C1413 C 0.88228 0.32811 0.69151 0.0
C1414 C 0.87212 0.25959 0.68034 0.0
C1415 C 0.84548 0.24557 0.67403 0.0
C1416 C 0.86954 0.29944 0.68562 0.0
C1417 C 0.83134 0.25911 0.67385 0.0
C1418 C 0.86737 0.33994 0.69564 0.0
C1419 C 0.92216 0.36961 0.69874 0.0
N1420 N 0.84355 0.28539 0.67962 0.0
N1421 N 0.90913 0.34332 0.69317 0.0
H1422 H 0.2308 0.95122 0.6325 0.0
H1423 H 0.23541 0.08551 0.66536 0.0
H1424 H 0.16205 0.95994 0.62776 0.0
H1425 H 0.30396 0.08194 0.65331 0.0
H1426 H 0.20744 0.0382 0.65479 0.0
H1427 H 0.25737 0.99794 0.64369 0.0
C1428 C 0.22128 0.96296 0.63393 0.0
C1429 C 0.19422 0.95175 0.62921 0.0
C1430 C 0.22861 0.04787 0.65447 0.0
C1431 C 0.22448 0.00523 0.64196 0.0
C1432 C 0.24452 0.07474 0.66052 0.0
C1433 C 0.27196 0.08752 0.6602 0.0
C1434 C 0.24039 0.03376 0.64832 0.0
C1435 C 0.28287 0.07282 0.65377 0.0
C1436 C 0.23647 0.98965 0.64021 0.0
C1437 C 0.18292 0.96794 0.63115 0.0
N1438 N 0.26708 0.0467 0.64817 0.0
N1439 N 0.1981 0.99389 0.63745 0.0
H1440 H 0.04313 0.25519 0.64635 0.0
H1441 H 0.88545 0.17708 0.62837 0.0
H1442 H 0.00214 0.22445 0.59891 0.0
H1443 H 0.92822 0.2162 0.67459 0.0
H1444 H 0.92754 0.19104 0.61752 0.0
H1445 H 0.00074 0.2379 0.65705 0.0
C1446 C 0.0252 0.24488 0.63816 0.0
C1447 C 0.02624 0.24151 0.62168 0.0
C1448 C 0.92766 0.19649 0.63004 0.0
C1449 C 0.97746 0.22134 0.6339 0.0
C1450 C 0.90364 0.18848 0.63626 0.0
C1451 C 0.90328 0.19556 0.65241 0.0
C1452 C 0.95146 0.21158 0.64007 0.0
C1453 C 0.92749 0.21039 0.66205 0.0
C1454 C 0.00096 0.23488 0.64429 0.0
C1455 C 0.00228 0.22739 0.6117 0.0
N1456 N 0.95054 0.21791 0.65573 0.0
N1457 N 0.97886 0.21792 0.61796 0.0
H1458 H 0.80357 0.83761 0.64662 0.0
H1459 H 0.77625 0.6915 0.65828 0.0
H1460 H 0.7589 0.77104 0.61022 0.0
H1461 H 0.84554 0.76381 0.68001 0.0
H1462 H 0.76174 0.7185 0.64442 0.0
H1463 H 0.81031 0.80835 0.66322 0.0
C1464 C 0.79469 0.81669 0.64226 0.0
C1465 C 0.78073 0.80671 0.627 0.0
C1466 C 0.78004 0.72835 0.65229 0.0
C1467 C 0.78863 0.77328 0.64586 0.0
C1468 C 0.78839 0.71302 0.66011 0.0
C1469 C 0.81244 0.7255 0.66995 0.0
C1470 C 0.79557 0.75626 0.65472 0.0
C1471 C 0.82703 0.75342 0.67235 0.0
C1472 C 0.79876 0.80009 0.65168 0.0
C1473 C 0.76999 0.77952 0.62186 0.0
N1474 N 0.81838 0.76787 0.66476 0.0
N1475 N 0.77425 0.7637 0.63126 0.0
H1476 H 0.0359 0.76808 0.63991 0.0
H1477 H 0.88218 0.7192 0.62949 0.0
H1478 H 0.0015 0.79049 0.60177 0.0
H1479 H 0.92558 0.72353 0.67381 0.0
H1480 H 0.92415 0.74208 0.61776 0.0
H1481 H 0.99371 0.7474 0.65101 0.0
C1482 C 0.01935 0.76847 0.63382 0.0
C1483 C 0.02212 0.78089 0.61988 0.0
C1484 C 0.92434 0.73813 0.63008 0.0
C1485 C 0.97374 0.75741 0.63257 0.0
C1486 C 0.90045 0.72508 0.63678 0.0
C1487 C 0.90031 0.71932 0.65264 0.0
C1488 C 0.94807 0.74506 0.63928 0.0
C1489 C 0.9246 0.72744 0.66153 0.0
C1490 C 0.99533 0.75686 0.64022 0.0
C1491 C 0.00014 0.78119 0.61259 0.0
N1492 N 0.94739 0.73967 0.65469 0.0
N1493 N 0.97674 0.76945 0.61898 0.0
H1494 H 0.18713 0.23745 0.64302 0.0
H1495 H 0.27023 0.16829 0.61782 0.0
H1496 H 0.19427 0.21898 0.59392 0.0
H1497 H 0.26739 0.19517 0.66616 0.0
H1498 H 0.23937 0.18271 0.60848 0.0
H1499 H 0.21339 0.21782 0.65142 0.0
C1500 C 0.19426 0.22926 0.634 0.0
C1501 C 0.18874 0.23012 0.61776 0.0
C1502 C 0.2455 0.18532 0.62112 0.0
C1503 C 0.21883 0.20742 0.62728 0.0
C1504 C 0.26306 0.17708 0.62645 0.0
C1505 C 0.27161 0.18075 0.64278 0.0
C1506 C 0.23639 0.1971 0.63224 0.0
C1507 C 0.26165 0.19219 0.65345 0.0
C1508 C 0.20919 0.21794 0.63879 0.0
C1509 C 0.198 0.21864 0.60657 0.0
N1510 N 0.24468 0.19996 0.64799 0.0
N1511 N 0.21278 0.20792 0.61154 0.0
H1512 H 0.77233 0.99055 0.6096 0.0
H1513 H 0.85441 0.10487 0.68042 0.0
H1514 H 0.82108 0.98449 0.64751 0.0
H1515 H 0.78446 0.09715 0.65517 0.0
H1516 H 0.84323 0.06137 0.66745 0.0
H1517 H 0.7765 0.02983 0.62514 0.0
C1518 C 0.78359 0.9972 0.62126 0.0
C1519 C 0.79674 0.98442 0.62714 0.0
C1520 C 0.8302 0.06907 0.66477 0.0
C1521 C 0.8019 0.0295 0.64477 0.0
C1522 C 0.83662 0.09395 0.67214 0.0
C1523 C 0.82054 0.10477 0.66864 0.0
C1524 C 0.80771 0.05498 0.65363 0.0
C1525 C 0.79766 0.0897 0.6579 0.0
C1526 C 0.78602 0.01967 0.63008 0.0
C1527 C 0.8112 0.9941 0.64228 0.0
N1528 N 0.79204 0.06561 0.65058 0.0
N1529 N 0.81364 0.0162 0.65047 0.0
H1530 H 0.45089 0.34084 0.72423 0.0
H1531 H 0.41875 0.2278 0.65369 0.0
H1532 H 0.50895 0.34225 0.69477 0.0
H1533 H 0.35784 0.23506 0.6755 0.0
H1534 H 0.4519 0.27038 0.66837 0.0
H1535 H 0.41625 0.30308 0.70628 0.0
C1536 C 0.45634 0.33349 0.71387 0.0
C1537 C 0.48296 0.34459 0.71112 0.0
C1538 C 0.43129 0.2628 0.66991 0.0
C1539 C 0.44343 0.30109 0.69069 0.0
C1540 C 0.41236 0.23847 0.66153 0.0
C1541 C 0.3856 0.22776 0.6636 0.0
C1542 C 0.42344 0.27644 0.68056 0.0
C1543 C 0.37836 0.24246 0.67382 0.0
C1544 C 0.43655 0.31183 0.70367 0.0
C1545 C 0.48881 0.33399 0.69759 0.0
N1546 N 0.39723 0.26597 0.68207 0.0
N1547 N 0.46926 0.31272 0.68798 0.0
H1548 H 0.61484 0.07915 0.6975 0.0
H1549 H 0.77258 0.16453 0.71492 0.0
H1550 H 0.65591 0.11212 0.74476 0.0
H1551 H 0.73014 0.13029 0.66804 0.0
H1552 H 0.73037 0.14726 0.72609 0.0
H1553 H 0.65716 0.09925 0.68656 0.0
C1554 C 0.63279 0.09052 0.7056 0.0
C1555 C 0.6318 0.09373 0.7221 0.0
C1556 C 0.73033 0.14363 0.71336 0.0
C1557 C 0.68051 0.11714 0.70959 0.0
C1558 C 0.75443 0.1535 0.70695 0.0
C1559 C 0.75497 0.14877 0.6905 0.0
C1560 C 0.70657 0.12892 0.70325 0.0
C1561 C 0.73078 0.13437 0.68079 0.0
C1562 C 0.65698 0.10215 0.69933 0.0
C1563 C 0.65573 0.10923 0.73196 0.0
N1564 N 0.70763 0.12492 0.68732 0.0
N1565 N 0.67912 0.12026 0.72556 0.0
H1566 H 0.93964 0.59345 0.71893 0.0
H1567 H 0.81293 0.5773 0.66702 0.0
H1568 H 0.87922 0.51863 0.69321 0.0
H1569 H 0.88217 0.65318 0.68388 0.0
H1570 H 0.83495 0.55478 0.67834 0.0
H1571 H 0.91688 0.61519 0.70797 0.0
C1572 C 0.92167 0.58159 0.71091 0.0
C1573 C 0.91142 0.55416 0.70695 0.0
C1574 C 0.84528 0.57635 0.67956 0.0
C1575 C 0.88501 0.5789 0.69453 0.0
C1576 C 0.83273 0.58917 0.67313 0.0
C1577 C 0.84573 0.61707 0.67461 0.0
C1578 C 0.87092 0.59163 0.68758 0.0
C1579 C 0.87136 0.6316 0.6826 0.0
C1580 C 0.9086 0.59401 0.70472 0.0
C1581 C 0.8877 0.53975 0.69676 0.0
N1582 N 0.88309 0.61871 0.68882 0.0
N1583 N 0.8753 0.55229 0.6909 0.0
H1584 H 0.48218 0.0125 0.196 0.0
H1585 H 0.48581 0.95181 0.10962 0.0
H1586 H 0.44848 0.92801 0.18263 0.0
H1587 H 0.49857 0.03125 0.11962 0.0
H1588 H 0.47329 0.9429 0.13657 0.0
H1589 H 0.48904 0.01999 0.16826 0.0
C1590 C 0.47586 0.99544 0.18723 0.0
C1591 C 0.46478 0.96955 0.19175 0.0
C1592 C 0.47864 0.96222 0.13283 0.0
C1593 C 0.47322 0.97816 0.15993 0.0
C1594 C 0.48593 0.96735 0.11751 0.0
C1595 C 0.49334 0.99234 0.11244 0.0
C1596 C 0.4791 0.98234 0.14324 0.0
C1597 C 0.49284 0.01167 0.12304 0.0
C1598 C 0.47996 -0.00021 0.17138 0.0
C1599 C 0.45754 0.94836 0.17981 0.0
N1600 N 0.48608 0.00635 0.13799 0.0
N1601 N 0.46207 0.95316 0.16449 0.0
H1602 H 0.11654 0.57937 0.18177 0.0
H1603 H -0.00013 0.49061 0.112 0.0
H1604 H 0.04411 0.50919 0.18967 0.0
H1605 H 0.0677 0.56695 0.10706 0.0
H1606 H 0.017 0.49473 0.13988 0.0
H1607 H 0.09993 0.57307 0.15383 0.0
C1608 C 0.097 0.56274 0.17767 0.0
C1609 C 0.08157 0.54497 0.18817 0.0
C1610 C 0.02812 0.51053 0.13267 0.0
C1611 C 0.06256 0.53733 0.15597 0.0
C1612 C 0.01846 0.50811 0.11676 0.0
C1613 C 0.03233 0.52855 0.10726 0.0
C1614 C 0.0519 0.53345 0.13904 0.0
C1615 C 0.05618 0.55091 0.11403 0.0
C1616 C 0.08759 0.55904 0.16165 0.0
C1617 C 0.05672 0.52332 0.182 0.0
N1618 N 0.06518 0.55275 0.12949 0.0
N1619 N 0.04794 0.52014 0.16629 0.0
H1620 H 0.45991 0.47061 0.19004 0.0
H1621 H 0.52571 0.5687 0.12418 0.0
H1622 H 0.49467 0.55605 0.1987 0.0
H1623 H 0.47495 0.48357 0.1128 0.0
H1624 H 0.5157 0.56432 0.15174 0.0
H1625 H 0.46622 0.47471 0.16187 0.0
C1626 C 0.46862 0.49021 0.18602 0.0
C1627 C 0.47687 0.51303 0.19682 0.0
C1628 C 0.50664 0.54661 0.14319 0.0
C1629 C 0.48457 0.51787 0.16461 0.0
C1630 C 0.51223 0.5491 0.12741 0.0
C1631 C 0.50117 0.52647 0.11609 0.0
C1632 C 0.49002 0.52127 0.14779 0.0
C1633 C 0.48428 0.50153 0.12113 0.0
C1634 C 0.47235 0.49253 0.16993 0.0
C1635 C 0.48845 0.53794 0.19091 0.0
N1636 N 0.47931 0.49959 0.13661 0.0
N1637 N 0.49207 0.53969 0.17524 0.0
H1638 H 0.96617 0.52539 0.81058 0.0
H1639 H 0.98954 0.4477 0.87842 0.0
H1640 H 0.98428 0.4627 0.80154 0.0
H1641 H 0.96402 0.50472 0.88765 0.0
H1642 H 0.98877 0.45403 0.85028 0.0
H1643 H 0.96639 0.51926 0.83893 0.0
C1644 C 0.97012 0.51029 0.81454 0.0
C1645 C 0.97529 0.49459 0.80364 0.0
C1646 C 0.98327 0.46514 0.85843 0.0
C1647 C 0.97578 0.48764 0.83607 0.0
C1648 C 0.98353 0.46139 0.87451 0.0
C1649 C 0.97665 0.47555 0.88544 0.0
C1650 C 0.97618 0.48328 0.85314 0.0
C1651 C 0.96968 0.49353 0.87969 0.0
C1652 C 0.97034 0.50689 0.83073 0.0
C1653 C 0.98062 0.47558 0.8095 0.0
N1654 N 0.9696 0.49687 0.86393 0.0
N1655 N 0.98072 0.47265 0.82528 0.0
H1656 H 0.517 0.40828 0.82775 0.0
H1657 H 0.51224 0.50894 0.89502 0.0
H1658 H 0.5419 0.49015 0.82149 0.0
H1659 H 0.47744 0.42436 0.89726 0.0
H1660 H 0.52558 0.50343 0.86876 0.0
H1661 H 0.50416 0.41463 0.85376 0.0
C1662 C 0.51952 0.42755 0.83175 0.0
C1663 C 0.53036 0.44864 0.82228 0.0
C1664 C 0.51499 0.4861 0.87501 0.0
C1665 C 0.51614 0.45623 0.85239 0.0
C1666 C 0.50753 0.48925 0.89003 0.0
C1667 C 0.49362 0.46705 0.89832 0.0
C1668 C 0.50868 0.46059 0.8683 0.0
C1669 C 0.4878 0.44196 0.89121 0.0
C1670 C 0.51235 0.43122 0.8467 0.0
C1671 C 0.53381 0.47337 0.82839 0.0
N1672 N 0.49538 0.43944 0.87665 0.0
N1673 N 0.52672 0.47649 0.84306 0.0
H1674 H 0.54328 0.02051 0.82223 0.0
H1675 H 0.47214 0.04277 0.8947 0.0
H1676 H 0.4986 0.06091 0.81968 0.0
H1677 H 0.51406 -0.00046 0.89688 0.0
H1678 H 0.48431 0.05226 0.86783 0.0
H1679 H 0.53553 0.01538 0.85018 0.0
C1680 C 0.53188 0.02835 0.82755 0.0
C1681 C 0.52145 0.04103 0.81853 0.0
C1682 C 0.49095 0.04079 0.87419 0.0
C1683 C 0.51262 0.03534 0.85059 0.0
C1684 C 0.48388 0.03523 0.88952 0.0
C1685 C 0.49189 0.02013 0.89804 0.0
C1686 C 0.50612 0.03115 0.86725 0.0
C1687 C 0.50757 0.0114 0.89082 0.0
C1688 C 0.52755 0.02551 0.84353 0.0
C1689 C 0.50724 0.05122 0.82616 0.0
N1690 N 0.51403 0.0169 0.87582 0.0
N1691 N 0.50312 0.04801 0.8417 0.0
H1692 H 0.14382 0.26138 0.51947 0.0
H1693 H 0.14222 0.34444 0.44835 0.0
H1694 H 0.11901 0.31972 0.52332 0.0
H1695 H 0.17172 0.28979 0.44606 0.0
H1696 H 0.1286 0.33184 0.47466 0.0
H1697 H 0.14925 0.26782 0.49145 0.0
C1698 C 0.1394 0.27547 0.51439 0.0
C1699 C 0.13124 0.29026 0.52379 0.0
C1700 C 0.13791 0.32249 0.46835 0.0
C1701 C 0.13736 0.29771 0.49169 0.0
C1702 C 0.14557 0.32957 0.45331 0.0
C1703 C 0.15836 0.31833 0.44507 0.0
C1704 C 0.14304 0.304 0.47519 0.0
C1705 C 0.16238 0.29933 0.45212 0.0
C1706 C 0.14243 0.27909 0.49837 0.0
C1707 C 0.12527 0.30784 0.5165 0.0
N1708 N 0.15487 0.29288 0.46679 0.0
N1709 N 0.12869 0.31127 0.50091 0.0
H1710 H 0.7873 0.89989 0.51082 0.0
H1711 H 0.66339 0.82812 0.44368 0.0
H1712 H 0.70795 0.84619 0.52123 0.0
H1713 H 0.74146 0.8895 0.43579 0.0
H1714 H 0.67968 0.83081 0.47155 0.0
H1715 H 0.77108 0.89295 0.48275 0.0
C1716 C 0.76639 0.88674 0.50721 0.0
C1717 C 0.74889 0.87391 0.51844 0.0
C1718 C 0.69323 0.84361 0.46368 0.0
C1719 C 0.73017 0.86553 0.48616 0.0
C1720 C 0.684 0.84197 0.44778 0.0
C1721 C 0.70108 0.85877 0.43747 0.0
C1722 C 0.71974 0.86205 0.46923 0.0
C1723 C 0.72753 0.87649 0.4434 0.0
C1724 C 0.75715 0.88265 0.49114 0.0
C1725 C 0.72213 0.85647 0.51297 0.0
N1726 N 0.73601 0.8777 0.45888 0.0
N1727 N 0.71353 0.85289 0.4972 0.0
H1728 H 0.14728 0.80772 0.52316 0.0
H1729 H 0.15987 0.89421 0.45136 0.0
H1730 H 0.13103 0.87233 0.52603 0.0
H1731 H 0.16136 0.82077 0.44603 0.0
H1732 H 0.15018 0.88715 0.47892 0.0
H1733 H 0.15339 0.8127 0.495 0.0
C1734 C 0.14497 0.82294 0.51784 0.0
C1735 C 0.13871 0.83969 0.52694 0.0
C1736 C 0.15247 0.8725 0.47169 0.0
C1737 C 0.14566 0.84552 0.49474 0.0
C1738 C 0.15814 0.87659 0.456 0.0
C1739 C 0.16147 0.85807 0.44641 0.0
C1740 C 0.15038 0.84985 0.4779 0.0
C1741 C 0.1587 0.83543 0.45296 0.0
C1742 C 0.14833 0.82569 0.50175 0.0
C1743 C 0.13563 0.85886 0.51941 0.0
N1744 N 0.15349 0.83204 0.46833 0.0
N1745 N 0.13932 0.86138 0.50377 0.0
H1746 H 0.61803 0.8472 0.13974 0.0
H1747 H 0.6672 0.79067 0.20956 0.0
H1748 H 0.66324 0.80804 0.13301 0.0
H1749 H 0.62164 0.82925 0.21712 0.0
H1750 H 0.66623 0.79752 0.1815 0.0
H1751 H 0.61945 0.84152 0.16812 0.0
C1752 C 0.62822 0.83738 0.14422 0.0
C1753 C 0.64057 0.82811 0.13396 0.0
C1754 C 0.65642 0.8045 0.18926 0.0
C1755 C 0.64239 0.82169 0.16644 0.0
C1756 C 0.65681 0.80043 0.20529 0.0
C1757 C 0.64429 0.80921 0.21571 0.0
C1758 C 0.64341 0.81747 0.18351 0.0
C1759 C 0.63168 0.8223 0.20954 0.0
C1760 C 0.62912 0.83425 0.16043 0.0
C1761 C 0.65377 0.81584 0.14048 0.0
N1762 N 0.63149 0.82596 0.19383 0.0
N1763 N 0.65427 0.81294 0.15626 0.0
H1764 H 0.18873 0.7419 0.1624 0.0
H1765 H 0.17695 0.84043 0.22779 0.0
H1766 H 0.20911 0.82226 0.15497 0.0
H1767 H 0.1463 0.75665 0.23111 0.0
H1768 H 0.19165 0.83538 0.20193 0.0
H1769 H 0.17539 0.74802 0.1883 0.0
C1770 C 0.19019 0.76079 0.16613 0.0
C1771 C 0.19984 0.78151 0.15637 0.0
C1772 C 0.18169 0.81812 0.20833 0.0
C1773 C 0.18501 0.78884 0.1863 0.0
C1774 C 0.17345 0.82102 0.22312 0.0
C1775 C 0.16028 0.7989 0.23158 0.0
C1776 C 0.17689 0.79296 0.20203 0.0
C1777 C 0.15603 0.77417 0.2249 0.0
C1778 C 0.18272 0.76433 0.18101 0.0
C1779 C 0.20195 0.80579 0.16212 0.0
N1780 N 0.16433 0.77189 0.21055 0.0
N1781 N 0.19456 0.80878 0.17671 0.0
H1782 H 0.16659 0.40092 0.1556 0.0
H1783 H 0.17067 0.3187 0.22632 0.0
H1784 H 0.20203 0.3515 0.15332 0.0
H1785 H 0.15294 0.38207 0.23237 0.0
H1786 H 0.1813 0.32962 0.19932 0.0
H1787 H 0.1605 0.39363 0.18357 0.0
C1788 C 0.17317 0.38861 0.16102 0.0
C1789 C 0.18478 0.37675 0.15213 0.0
C1790 C 0.17526 0.34127 0.20659 0.0
C1791 C 0.17778 0.36821 0.18407 0.0
C1792 C 0.16905 0.33494 0.22196 0.0
C1793 C 0.16083 0.34944 0.23157 0.0
C1794 C 0.17291 0.36205 0.20069 0.0
C1795 C 0.15938 0.3705 0.2254 0.0
C1796 C 0.1698 0.38455 0.17699 0.0
C1797 C 0.19319 0.3612 0.15977 0.0
N1798 N 0.16514 0.37603 0.2103 0.0
N1799 N 0.18932 0.35719 0.17526 0.0
H1800 H 0.78419 0.65665 0.85682 0.0
H1801 H 0.83928 0.62501 0.77916 0.0
H1802 H 0.8123 0.60091 0.85326 0.0
H1803 H 0.81017 0.67994 0.78201 0.0
H1804 H 0.8262 0.61336 0.80561 0.0
H1805 H 0.7897 0.66248 0.82869 0.0
C1806 C 0.79117 0.64535 0.85007 0.0
C1807 C 0.79803 0.62844 0.85744 0.0
C1808 C 0.82251 0.62785 0.80043 0.0
C1809 C 0.80473 0.63531 0.82531 0.0
C1810 C 0.83011 0.63461 0.78537 0.0
C1811 C 0.82606 0.65368 0.77845 0.0
C1812 C 0.81088 0.64035 0.80873 0.0
C1813 C 0.81358 0.66507 0.78688 0.0
C1814 C 0.79447 0.64882 0.83403 0.0
C1815 C 0.80724 0.61453 0.84814 0.0
N1816 N 0.80663 0.6584 0.80165 0.0
N1817 N 0.81048 0.6184 0.83261 0.0
H1818 H 0.45061 0.23858 0.84617 0.0
H1819 H 0.33115 0.15708 0.7769 0.0
H1820 H 0.37356 0.17603 0.85486 0.0
H1821 H 0.40519 0.22672 0.77077 0.0
H1822 H 0.34721 0.16078 0.80495 0.0
H1823 H 0.43498 0.2319 0.81801 0.0
C1824 C 0.4303 0.22356 0.84217 0.0
C1825 C 0.41327 0.20808 0.85295 0.0
C1826 C 0.35993 0.17518 0.79744 0.0
C1827 C 0.39531 0.19998 0.82055 0.0
C1828 C 0.35086 0.17299 0.78143 0.0
C1829 C 0.36683 0.19173 0.77156 0.0
C1830 C 0.3852 0.19617 0.80352 0.0
C1831 C 0.39209 0.21208 0.77804 0.0
C1832 C 0.42143 0.21962 0.82604 0.0
C1833 C 0.38738 0.18836 0.84696 0.0
N1834 N 0.40047 0.21377 0.7936 0.0
N1835 N 0.37913 0.18493 0.83115 0.0
H1836 H 0.76932 0.16293 0.85223 0.0
H1837 H 0.8747 0.19036 0.78974 0.0
H1838 H 0.84671 0.17364 0.86435 0.0
H1839 H 0.79724 0.17892 0.77677 0.0
H1840 H 0.86405 0.18295 0.81702 0.0
H1841 H 0.77836 0.16732 0.82438 0.0
C1842 C 0.78819 0.16618 0.84903 0.0
C1843 C 0.80728 0.16793 0.86065 0.0
C1844 C 0.84932 0.182 0.80822 0.0
C1845 C 0.81773 0.17287 0.82883 0.0
C1846 C 0.85547 0.1864 0.79265 0.0
C1847 C 0.83691 0.18546 0.78098 0.0
C1848 C 0.82443 0.17667 0.81222 0.0
C1849 C 0.81208 0.17967 0.78537 0.0
C1850 C 0.79329 0.16857 0.83313 0.0
C1851 C 0.83126 0.1718 0.85579 0.0
N1852 N 0.8066 0.17561 0.80067 0.0
N1853 N 0.83582 0.17425 0.84028 0.0
H1854 H 0.30163 0.1893 0.4748 0.0
H1855 H 0.3263 0.1122 0.54253 0.0
H1856 H 0.31869 0.1259 0.46552 0.0
H1857 H 0.30084 0.16923 0.55196 0.0
H1858 H 0.32501 0.1183 0.51436 0.0
H1859 H 0.30269 0.18363 0.5032 0.0
C1860 C 0.30553 0.17414 0.47871 0.0
C1861 C 0.31014 0.1581 0.46773 0.0
C1862 C 0.31964 0.12946 0.52257 0.0
C1863 C 0.3116 0.15167 0.50023 0.0
C1864 C 0.32019 0.12585 0.53867 0.0
C1865 C 0.31347 0.14007 0.54966 0.0
C1866 C 0.31241 0.14753 0.51732 0.0
C1867 C 0.30638 0.15799 0.54396 0.0
C1868 C 0.30623 0.171 0.49493 0.0
C1869 C 0.31545 0.13904 0.47354 0.0
N1870 N 0.30601 0.16119 0.52818 0.0
N1871 N 0.31601 0.13637 0.48935 0.0
H1872 H 0.86709 0.08 0.49861 0.0
H1873 H 0.82816 0.16898 0.55437 0.0
H1874 H 0.86624 0.14917 0.48404 0.0
H1875 H 0.83658 0.10423 0.56979 0.0
H1876 H 0.84099 0.16163 0.52834 0.0
H1877 H 0.85464 0.08803 0.52449 0.0
C1878 C 0.86408 0.09679 0.50081 0.0
C1879 C 0.86756 0.11384 0.48908 0.0
C1880 C 0.8401 0.14909 0.53744 0.0
C1881 C 0.85359 0.12338 0.51887 0.0
C1882 C 0.83266 0.15319 0.55227 0.0
C1883 C 0.83129 0.13719 0.56429 0.0
C1884 C 0.84607 0.12874 0.53455 0.0
C1885 C 0.83767 0.11725 0.56097 0.0
C1886 C 0.85716 0.10148 0.51566 0.0
C1887 C 0.86393 0.13561 0.49277 0.0
N1888 N 0.84468 0.11355 0.54641 0.0
N1889 N 0.85706 0.13972 0.50732 0.0
H1890 H 0.82747 0.72836 0.48715 0.0
H1891 H 0.83664 0.65157 0.55978 0.0
H1892 H 0.86473 0.68057 0.48581 0.0
H1893 H 0.81413 0.71163 0.56409 0.0
H1894 H 0.84655 0.66145 0.53255 0.0
H1895 H 0.82193 0.72212 0.51526 0.0
C1896 C 0.83455 0.71661 0.4928 0.0
C1897 C 0.84651 0.7049 0.48412 0.0
C1898 C 0.83961 0.67259 0.53948 0.0
C1899 C 0.84019 0.69762 0.51628 0.0
C1900 C 0.83382 0.66686 0.55499 0.0
C1901 C 0.82446 0.68074 0.56419 0.0
C1902 C 0.83574 0.69215 0.53304 0.0
C1903 C 0.82149 0.70059 0.55746 0.0
C1904 C 0.83149 0.71316 0.50886 0.0
C1905 C 0.85559 0.69013 0.49208 0.0
N1906 N 0.82691 0.70556 0.54226 0.0
N1907 N 0.85205 0.68673 0.50767 0.0
loop_
_geom_bond_atom_site_label_1
_geom_bond_atom_site_label_2
_geom_bond_distance
_geom_bond_site_symmetry_2
_ccdc_geom_bond_type
P0 O11 1.490 . S
P0 C14 1.812 . S
P0 C20 1.803 . S
P0 C26 1.819 . S
H1 C15 0.941 . S
H2 C16 0.939 . S
H3 C18 0.940 . S
H4 C19 0.940 . S
H5 C21 0.939 . S
H6 C22 0.942 . S
H7 C24 0.940 . S
H8 C25 0.939 . S
H9 C27 0.941 . S
H10 C31 0.939 . S
O11 P0 1.490 . S
H12 C28 0.939 . S
H13 C30 0.940 . S
C14 P0 1.812 . S
C14 C15 1.389 . S
C14 C19 1.391 . S
C15 H1 0.941 . S
C15 C14 1.389 . S
C15 C16 1.397 . S
C16 H2 0.939 . S
C16 C15 1.397 . S
C16 C17 1.378 . S
C17 C16 1.378 . S
C17 C18 1.378 . S
C18 H3 0.940 . S
C18 C17 1.378 . S
C18 C19 1.396 . S
C19 H4 0.940 . S
C19 C14 1.391 . S
C19 C18 1.396 . S
C20 P0 1.803 . S
C20 C21 1.378 . S
C20 C25 1.400 . S
C21 H5 0.939 . S
C21 C20 1.378 . S
C21 C22 1.361 . S
C22 H6 0.942 . S
C22 C21 1.361 . S
C22 C23 1.369 . S
C23 C22 1.369 . S
C23 C24 1.404 . S
C24 H7 0.940 . S
C24 C23 1.404 . S
C24 C25 1.389 . S
C25 H8 0.939 . S
C25 C20 1.400 . S
C25 C24 1.389 . S
C26 P0 1.819 . S
C26 C27 1.391 . S
C26 C31 1.391 . S
C27 H9 0.941 . S
C27 C26 1.391 . S
C27 C28 1.396 . S
C28 H12 0.939 . S
C28 C27 1.396 . S
C28 C29 1.397 . S
C29 C28 1.397 . S
C29 C30 1.385 . S
C30 H13 0.940 . S
C30 C29 1.385 . S
C30 C31 1.388 . S
C31 H10 0.939 . S
C31 C26 1.391 . S
C31 C30 1.388 . S
P32 O43 1.490 . S
P32 C46 1.812 . S
P32 C52 1.803 . S
P32 C58 1.819 . S
H33 C47 0.941 . S
H34 C48 0.939 . S
H35 C50 0.940 . S
H36 C51 0.940 . S
H37 C53 0.939 . S
H38 C54 0.942 . S
H39 C56 0.940 . S
H40 C57 0.939 . S
H41 C59 0.941 . S
H42 C63 0.939 . S
O43 P32 1.490 . S
H44 C60 0.939 . S
H45 C62 0.940 . S
C46 P32 1.812 . S
C46 C47 1.389 . S
C46 C51 1.391 . S
C47 H33 0.941 . S
C47 C46 1.389 . S
C47 C48 1.397 . S
C48 H34 0.939 . S
C48 C47 1.397 . S
C48 C49 1.378 . S
C49 C48 1.378 . S
C49 C50 1.378 . S
C50 H35 0.940 . S
C50 C49 1.378 . S
C50 C51 1.396 . S
C51 H36 0.940 . S
C51 C46 1.391 . S
C51 C50 1.396 . S
C52 P32 1.803 . S
C52 C53 1.378 . S
C52 C57 1.400 . S
C53 H37 0.939 . S
C53 C52 1.378 . S
C53 C54 1.361 . S
C54 H38 0.942 . S
C54 C53 1.361 . S
C54 C55 1.369 . S
C55 C54 1.369 . S
C55 C56 1.404 . S
C56 H39 0.940 . S
C56 C55 1.404 . S
C56 C57 1.389 . S
C57 H40 0.939 . S
C57 C52 1.400 . S
C57 C56 1.389 . S
C58 P32 1.819 . S
C58 C59 1.391 . S
C58 C63 1.391 . S
C59 H41 0.941 . S
C59 C58 1.391 . S
C59 C60 1.396 . S
C60 H44 0.939 . S
C60 C59 1.396 . S
C60 C61 1.397 . S
C61 C60 1.397 . S
C61 C62 1.385 . S
C62 H45 0.940 . S
C62 C61 1.385 . S
C62 C63 1.388 . S
C63 H42 0.939 . S
C63 C58 1.391 . S
C63 C62 1.388 . S
P64 O75 1.490 . S
P64 C78 1.812 . S
P64 C84 1.803 . S
P64 C90 1.819 . S
H65 C79 0.941 . S
H66 C80 0.939 . S
H67 C82 0.940 . S
H68 C83 0.940 . S
H69 C85 0.939 . S
H70 C86 0.942 . S
H71 C88 0.940 . S
H72 C89 0.939 . S
H73 C91 0.941 . S
H74 C95 0.939 . S
O75 P64 1.490 . S
H76 C92 0.939 . S
H77 C94 0.940 . S
C78 P64 1.812 . S
C78 C79 1.389 . S
C78 C83 1.391 . S
C79 H65 0.941 . S
C79 C78 1.389 . S
C79 C80 1.397 . S
C80 H66 0.939 . S
C80 C79 1.397 . S
C80 C81 1.378 . S
C81 C80 1.378 . S
C81 C82 1.378 . S
C82 H67 0.940 . S
C82 C81 1.378 . S
C82 C83 1.396 . S
C83 H68 0.940 . S
C83 C78 1.391 . S
C83 C82 1.396 . S
C84 P64 1.803 . S
C84 C85 1.378 . S
C84 C89 1.400 . S
C85 H69 0.939 . S
C85 C84 1.378 . S
C85 C86 1.361 . S
C86 H70 0.942 . S
C86 C85 1.361 . S
C86 C87 1.369 . S
C87 C86 1.369 . S
C87 C88 1.404 . S
C88 H71 0.940 . S
C88 C87 1.404 . S
C88 C89 1.389 . S
C89 H72 0.939 . S
C89 C84 1.400 . S
C89 C88 1.389 . S
C90 P64 1.819 . S
C90 C91 1.391 . S
C90 C95 1.391 . S
C91 H73 0.941 . S
C91 C90 1.391 . S
C91 C92 1.396 . S
C92 H76 0.939 . S
C92 C91 1.396 . S
C92 C93 1.397 . S
C93 C92 1.397 . S
C93 C94 1.385 . S
C94 H77 0.940 . S
C94 C93 1.385 . S
C94 C95 1.388 . S
C95 H74 0.939 . S
C95 C90 1.391 . S
C95 C94 1.388 . S
P96 O107 1.490 . S
P96 C110 1.812 . S
P96 C116 1.803 . S
P96 C122 1.819 . S
H97 C111 0.941 . S
H98 C112 0.939 . S
H99 C114 0.940 . S
H100 C115 0.940 . S
H101 C117 0.939 . S
H102 C118 0.942 . S
H103 C120 0.940 . S
H104 C121 0.939 . S
H105 C123 0.941 . S
H106 C127 0.939 . S
O107 P96 1.490 . S
H108 C124 0.939 . S
H109 C126 0.940 . S
C110 P96 1.812 . S
C110 C111 1.389 . S
C110 C115 1.391 . S
C111 H97 0.941 . S
C111 C110 1.389 . S
C111 C112 1.397 . S
C112 H98 0.939 . S
C112 C111 1.397 . S
C112 C113 1.378 . S
C113 C112 1.378 . S
C113 C114 1.378 . S
C114 H99 0.940 . S
C114 C113 1.378 . S
C114 C115 1.396 . S
C115 H100 0.940 . S
C115 C110 1.391 . S
C115 C114 1.396 . S
C116 P96 1.803 . S
C116 C117 1.378 . S
C116 C121 1.400 . S
C117 H101 0.939 . S
C117 C116 1.378 . S
C117 C118 1.361 . S
C118 H102 0.942 . S
C118 C117 1.361 . S
C118 C119 1.369 . S
C119 C118 1.369 . S
C119 C120 1.404 . S
C120 H103 0.940 . S
C120 C119 1.404 . S
C120 C121 1.389 . S
C121 H104 0.939 . S
C121 C116 1.400 . S
C121 C120 1.389 . S
C122 P96 1.819 . S
C122 C123 1.391 . S
C122 C127 1.391 . S
C123 H105 0.941 . S
C123 C122 1.391 . S
C123 C124 1.396 . S
C124 H108 0.939 . S
C124 C123 1.396 . S
C124 C125 1.397 . S
C125 C124 1.397 . S
C125 C126 1.385 . S
C126 H109 0.940 . S
C126 C125 1.385 . S
C126 C127 1.388 . S
C127 H106 0.939 . S
C127 C122 1.391 . S
C127 C126 1.388 . S
P128 O139 1.490 . S
P128 C142 1.812 . S
P128 C148 1.803 . S
P128 C154 1.819 . S
H129 C143 0.941 . S
H130 C144 0.939 . S
H131 C146 0.940 . S
H132 C147 0.940 . S
H133 C149 0.939 . S
H134 C150 0.942 . S
H135 C152 0.940 . S
H136 C153 0.939 . S
H137 C155 0.941 . S
H138 C159 0.939 . S
O139 P128 1.490 . S
H140 C156 0.939 . S
H141 C158 0.940 . S
C142 P128 1.812 . S
C142 C143 1.389 . S
C142 C147 1.391 . S
C143 H129 0.941 . S
C143 C142 1.389 . S
C143 C144 1.397 . S
C144 H130 0.939 . S
C144 C143 1.397 . S
C144 C145 1.378 . S
C145 C144 1.378 . S
C145 C146 1.378 . S
C146 H131 0.940 . S
C146 C145 1.378 . S
C146 C147 1.396 . S
C147 H132 0.940 . S
C147 C142 1.391 . S
C147 C146 1.396 . S
C148 P128 1.803 . S
C148 C149 1.378 . S
C148 C153 1.400 . S
C149 H133 0.939 . S
C149 C148 1.378 . S
C149 C150 1.361 . S
C150 H134 0.942 . S
C150 C149 1.361 . S
C150 C151 1.369 . S
C151 C150 1.369 . S
C151 C152 1.404 . S
C152 H135 0.940 . S
C152 C151 1.404 . S
C152 C153 1.389 . S
C153 H136 0.939 . S
C153 C148 1.400 . S
C153 C152 1.389 . S
C154 P128 1.819 . S
C154 C155 1.391 . S
C154 C159 1.391 . S
C155 H137 0.941 . S
C155 C154 1.391 . S
C155 C156 1.396 . S
C156 H140 0.939 . S
C156 C155 1.396 . S
C156 C157 1.397 . S
C157 C156 1.397 . S
C157 C158 1.385 . S
C158 H141 0.940 . S
C158 C157 1.385 . S
C158 C159 1.388 . S
C159 H138 0.939 . S
C159 C154 1.391 . S
C159 C158 1.388 . S
P160 O171 1.490 . S
P160 C174 1.812 . S
P160 C180 1.803 . S
P160 C186 1.819 . S
H161 C175 0.941 . S
H162 C176 0.939 . S
H163 C178 0.940 . S
H164 C179 0.940 . S
H165 C181 0.939 . S
H166 C182 0.942 . S
H167 C184 0.940 . S
H168 C185 0.939 . S
H169 C187 0.941 . S
H170 C191 0.939 . S
O171 P160 1.490 . S
H172 C188 0.939 . S
H173 C190 0.940 . S
C174 P160 1.812 . S
C174 C175 1.389 . S
C174 C179 1.391 . S
C175 H161 0.941 . S
C175 C174 1.389 . S
C175 C176 1.397 . S
C176 H162 0.939 . S
C176 C175 1.397 . S
C176 C177 1.378 . S
C177 C176 1.378 . S
C177 C178 1.378 . S
C178 H163 0.940 . S
C178 C177 1.378 . S
C178 C179 1.396 . S
C179 H164 0.940 . S
C179 C174 1.391 . S
C179 C178 1.396 . S
C180 P160 1.803 . S
C180 C181 1.378 . S
C180 C185 1.400 . S
C181 H165 0.939 . S
C181 C180 1.378 . S
C181 C182 1.361 . S
C182 H166 0.942 . S
C182 C181 1.361 . S
C182 C183 1.369 . S
C183 C182 1.369 . S
C183 C184 1.404 . S
C184 H167 0.940 . S
C184 C183 1.404 . S
C184 C185 1.389 . S
C185 H168 0.939 . S
C185 C180 1.400 . S
C185 C184 1.389 . S
C186 P160 1.819 . S
C186 C187 1.391 . S
C186 C191 1.391 . S
C187 H169 0.941 . S
C187 C186 1.391 . S
C187 C188 1.396 . S
C188 H172 0.939 . S
C188 C187 1.396 . S
C188 C189 1.397 . S
C189 C188 1.397 . S
C189 C190 1.385 . S
C190 H173 0.940 . S
C190 C189 1.385 . S
C190 C191 1.388 . S
C191 H170 0.939 . S
C191 C186 1.391 . S
C191 C190 1.388 . S
P192 O203 1.490 1_655 S
P192 C206 1.812 . S
P192 C212 1.803 . S
P192 C218 1.819 . S
H193 C207 0.941 . S
H194 C208 0.939 . S
H195 C210 0.940 . S
H196 C211 0.940 . S
H197 C213 0.939 1_455 S
H198 C214 0.942 . S
H199 C216 0.940 . S
H200 C217 0.939 . S
H201 C219 0.941 . S
H202 C223 0.939 . S
O203 P192 1.490 1_455 S
H204 C220 0.939 . S
H205 C222 0.940 . S
C206 P192 1.812 . S
C206 C207 1.389 . S
C206 C211 1.391 . S
C207 H193 0.941 . S
C207 C206 1.389 . S
C207 C208 1.397 . S
C208 H194 0.939 . S
C208 C207 1.397 . S
C208 C209 1.378 . S
C209 C208 1.378 . S
C209 C210 1.378 . S
C210 H195 0.940 . S
C210 C209 1.378 . S
C210 C211 1.396 . S
C211 H196 0.940 . S
C211 C206 1.391 . S
C211 C210 1.396 . S
C212 P192 1.803 . S
C212 C213 1.378 . S
C212 C217 1.400 . S
C213 H197 0.939 1_655 S
C213 C212 1.378 . S
C213 C214 1.361 . S
C214 H198 0.942 . S
C214 C213 1.361 . S
C214 C215 1.369 . S
C215 C214 1.369 . S
C215 C216 1.404 . S
C216 H199 0.940 . S
C216 C215 1.404 . S
C216 C217 1.389 . S
C217 H200 0.939 . S
C217 C212 1.400 . S
C217 C216 1.389 . S
C218 P192 1.819 . S
C218 C219 1.391 1_655 S
C218 C223 1.391 . S
C219 H201 0.941 . S
C219 C218 1.391 1_455 S
C219 C220 1.396 . S
C220 H204 0.939 . S
C220 C219 1.396 . S
C220 C221 1.397 1_455 S
C221 C220 1.397 1_655 S
C221 C222 1.385 . S
C222 H205 0.940 . S
C222 C221 1.385 . S
C222 C223 1.388 . S
C223 H202 0.939 . S
C223 C218 1.391 . S
C223 C222 1.388 . S
P224 O235 1.490 . S
P224 C238 1.812 . S
P224 C244 1.803 . S
P224 C250 1.819 . S
H225 C239 0.941 . S
H226 C240 0.939 . S
H227 C242 0.940 . S
H228 C243 0.940 . S
H229 C245 0.939 . S
H230 C246 0.942 . S
H231 C248 0.940 . S
H232 C249 0.939 . S
H233 C251 0.941 . S
H234 C255 0.939 . S
O235 P224 1.490 . S
H236 C252 0.939 . S
H237 C254 0.940 . S
C238 P224 1.812 . S
C238 C239 1.389 . S
C238 C243 1.391 . S
C239 H225 0.941 . S
C239 C238 1.389 . S
C239 C240 1.397 . S
C240 H226 0.939 . S
C240 C239 1.397 . S
C240 C241 1.378 . S
C241 C240 1.378 . S
C241 C242 1.378 . S
C242 H227 0.940 . S
C242 C241 1.378 . S
C242 C243 1.396 . S
C243 H228 0.940 . S
C243 C238 1.391 . S
C243 C242 1.396 . S
C244 P224 1.803 . S
C244 C245 1.378 . S
C244 C249 1.400 . S
C245 H229 0.939 . S
C245 C244 1.378 . S
C245 C246 1.361 . S
C246 H230 0.942 . S
C246 C245 1.361 . S
C246 C247 1.369 . S
C247 C246 1.369 . S
C247 C248 1.404 . S
C248 H231 0.940 . S
C248 C247 1.404 . S
C248 C249 1.389 . S
C249 H232 0.939 . S
C249 C244 1.400 . S
C249 C248 1.389 . S
C250 P224 1.819 . S
C250 C251 1.391 . S
C250 C255 1.391 . S
C251 H233 0.941 . S
C251 C250 1.391 . S
C251 C252 1.396 . S
C252 H236 0.939 . S
C252 C251 1.396 . S
C252 C253 1.397 . S
C253 C252 1.397 . S
C253 C254 1.385 . S
C254 H237 0.940 . S
C254 C253 1.385 . S
C254 C255 1.388 . S
C255 H234 0.939 . S
C255 C250 1.391 . S
C255 C254 1.388 . S
P256 O267 1.490 . S
P256 C270 1.812 . S
P256 C276 1.803 . S
P256 C282 1.819 . S
H257 C271 0.941 . S
H258 C272 0.939 . S
H259 C274 0.940 . S
H260 C275 0.940 . S
H261 C277 0.939 . S
H262 C278 0.942 . S
H263 C280 0.940 . S
H264 C281 0.939 . S
H265 C283 0.941 . S
H266 C287 0.939 . S
O267 P256 1.490 . S
H268 C284 0.939 . S
H269 C286 0.940 . S
C270 P256 1.812 . S
C270 C271 1.389 . S
C270 C275 1.391 . S
C271 H257 0.941 . S
C271 C270 1.389 . S
C271 C272 1.397 . S
C272 H258 0.939 . S
C272 C271 1.397 . S
C272 C273 1.378 . S
C273 C272 1.378 . S
C273 C274 1.378 . S
C274 H259 0.940 . S
C274 C273 1.378 . S
C274 C275 1.396 . S
C275 H260 0.940 . S
C275 C270 1.391 . S
C275 C274 1.396 . S
C276 P256 1.803 . S
C276 C277 1.378 . S
C276 C281 1.400 . S
C277 H261 0.939 . S
C277 C276 1.378 . S
C277 C278 1.361 . S
C278 H262 0.942 . S
C278 C277 1.361 . S
C278 C279 1.369 . S
C279 C278 1.369 . S
C279 C280 1.404 . S
C280 H263 0.940 . S
C280 C279 1.404 . S
C280 C281 1.389 . S
C281 H264 0.939 . S
C281 C276 1.400 . S
C281 C280 1.389 . S
C282 P256 1.819 . S
C282 C283 1.391 . S
C282 C287 1.391 . S
C283 H265 0.941 . S
C283 C282 1.391 . S
C283 C284 1.396 . S
C284 H268 0.939 . S
C284 C283 1.396 . S
C284 C285 1.397 . S
C285 C284 1.397 . S
C285 C286 1.385 . S
C286 H269 0.940 . S
C286 C285 1.385 . S
C286 C287 1.388 . S
C287 H266 0.939 . S
C287 C282 1.391 . S
C287 C286 1.388 . S
P288 O299 1.490 . S
P288 C302 1.812 . S
P288 C308 1.803 . S
P288 C314 1.819 . S
H289 C303 0.941 . S
H290 C304 0.939 . S
H291 C306 0.940 . S
H292 C307 0.940 . S
H293 C309 0.939 . S
H294 C310 0.942 . S
H295 C312 0.940 . S
H296 C313 0.939 . S
H297 C315 0.941 . S
H298 C319 0.939 . S
O299 P288 1.490 . S
H300 C316 0.939 . S
H301 C318 0.940 . S
C302 P288 1.812 . S
C302 C303 1.389 . S
C302 C307 1.391 . S
C303 H289 0.941 . S
C303 C302 1.389 . S
C303 C304 1.397 . S
C304 H290 0.939 . S
C304 C303 1.397 . S
C304 C305 1.378 . S
C305 C304 1.378 . S
C305 C306 1.378 . S
C306 H291 0.940 . S
C306 C305 1.378 . S
C306 C307 1.396 . S
C307 H292 0.940 . S
C307 C302 1.391 . S
C307 C306 1.396 . S
C308 P288 1.803 . S
C308 C309 1.378 . S
C308 C313 1.400 . S
C309 H293 0.939 . S
C309 C308 1.378 . S
C309 C310 1.361 . S
C310 H294 0.942 . S
C310 C309 1.361 . S
C310 C311 1.369 . S
C311 C310 1.369 . S
C311 C312 1.404 . S
C312 H295 0.940 . S
C312 C311 1.404 . S
C312 C313 1.389 . S
C313 H296 0.939 . S
C313 C308 1.400 . S
C313 C312 1.389 . S
C314 P288 1.819 . S
C314 C315 1.391 . S
C314 C319 1.391 . S
C315 H297 0.941 . S
C315 C314 1.391 . S
C315 C316 1.396 . S
C316 H300 0.939 . S
C316 C315 1.396 . S
C316 C317 1.397 . S
C317 C316 1.397 . S
C317 C318 1.385 . S
C318 H301 0.940 . S
C318 C317 1.385 . S
C318 C319 1.388 . S
C319 H298 0.939 . S
C319 C314 1.391 . S
C319 C318 1.388 . S
P320 O331 1.490 . S
P320 C334 1.812 . S
P320 C340 1.803 . S
P320 C346 1.819 . S
H321 C335 0.941 . S
H322 C336 0.939 . S
H323 C338 0.940 . S
H324 C339 0.940 . S
H325 C341 0.939 . S
H326 C342 0.942 . S
H327 C344 0.940 . S
H328 C345 0.939 . S
H329 C347 0.941 . S
H330 C351 0.939 . S
O331 P320 1.490 . S
H332 C348 0.939 . S
H333 C350 0.940 . S
C334 P320 1.812 . S
C334 C335 1.389 . S
C334 C339 1.391 . S
C335 H321 0.941 . S
C335 C334 1.389 . S
C335 C336 1.397 . S
C336 H322 0.939 . S
C336 C335 1.397 . S
C336 C337 1.378 . S
C337 C336 1.378 . S
C337 C338 1.378 . S
C338 H323 0.940 . S
C338 C337 1.378 . S
C338 C339 1.396 . S
C339 H324 0.940 . S
C339 C334 1.391 . S
C339 C338 1.396 . S
C340 P320 1.803 . S
C340 C341 1.378 . S
C340 C345 1.400 . S
C341 H325 0.939 . S
C341 C340 1.378 . S
C341 C342 1.361 . S
C342 H326 0.942 . S
C342 C341 1.361 . S
C342 C343 1.369 . S
C343 C342 1.369 . S
C343 C344 1.404 . S
C344 H327 0.940 . S
C344 C343 1.404 . S
C344 C345 1.389 . S
C345 H328 0.939 . S
C345 C340 1.400 . S
C345 C344 1.389 . S
C346 P320 1.819 . S
C346 C347 1.391 . S
C346 C351 1.391 . S
C347 H329 0.941 . S
C347 C346 1.391 . S
C347 C348 1.396 . S
C348 H332 0.939 . S
C348 C347 1.396 . S
C348 C349 1.397 . S
C349 C348 1.397 . S
C349 C350 1.385 . S
C350 H333 0.940 . S
C350 C349 1.385 . S
C350 C351 1.388 . S
C351 H330 0.939 . S
C351 C346 1.391 . S
C351 C350 1.388 . S
P352 O363 1.490 . S
P352 C366 1.812 . S
P352 C372 1.803 . S
P352 C378 1.819 . S
H353 C367 0.941 . S
H354 C368 0.939 . S
H355 C370 0.940 . S
H356 C371 0.940 . S
H357 C373 0.939 . S
H358 C374 0.942 . S
H359 C376 0.940 . S
H360 C377 0.939 . S
H361 C379 0.941 . S
H362 C383 0.939 . S
O363 P352 1.490 . S
H364 C380 0.939 . S
H365 C382 0.940 . S
C366 P352 1.812 . S
C366 C367 1.389 . S
C366 C371 1.391 . S
C367 H353 0.941 . S
C367 C366 1.389 . S
C367 C368 1.397 . S
C368 H354 0.939 . S
C368 C367 1.397 . S
C368 C369 1.378 . S
C369 C368 1.378 . S
C369 C370 1.378 . S
C370 H355 0.940 . S
C370 C369 1.378 . S
C370 C371 1.396 . S
C371 H356 0.940 . S
C371 C366 1.391 . S
C371 C370 1.396 . S
C372 P352 1.803 . S
C372 C373 1.378 . S
C372 C377 1.400 . S
C373 H357 0.939 . S
C373 C372 1.378 . S
C373 C374 1.361 . S
C374 H358 0.942 . S
C374 C373 1.361 . S
C374 C375 1.369 . S
C375 C374 1.369 . S
C375 C376 1.404 . S
C376 H359 0.940 . S
C376 C375 1.404 . S
C376 C377 1.389 . S
C377 H360 0.939 . S
C377 C372 1.400 . S
C377 C376 1.389 . S
C378 P352 1.819 . S
C378 C379 1.391 . S
C378 C383 1.391 . S
C379 H361 0.941 . S
C379 C378 1.391 . S
C379 C380 1.396 . S
C380 H364 0.939 . S
C380 C379 1.396 . S
C380 C381 1.397 . S
C381 C380 1.397 . S
C381 C382 1.385 . S
C382 H365 0.940 . S
C382 C381 1.385 . S
C382 C383 1.388 . S
C383 H362 0.939 . S
C383 C378 1.391 . S
C383 C382 1.388 . S
P384 O395 1.490 . S
P384 C398 1.812 . S
P384 C404 1.803 . S
P384 C410 1.819 . S
H385 C399 0.941 . S
H386 C400 0.939 . S
H387 C402 0.940 . S
H388 C403 0.940 . S
H389 C405 0.939 . S
H390 C406 0.942 . S
H391 C408 0.940 . S
H392 C409 0.939 . S
H393 C411 0.941 . S
H394 C415 0.939 . S
O395 P384 1.490 . S
H396 C412 0.939 . S
H397 C414 0.940 . S
C398 P384 1.812 . S
C398 C399 1.389 . S
C398 C403 1.391 . S
C399 H385 0.941 . S
C399 C398 1.389 . S
C399 C400 1.397 . S
C400 H386 0.939 . S
C400 C399 1.397 . S
C400 C401 1.378 . S
C401 C400 1.378 . S
C401 C402 1.378 . S
C402 H387 0.940 . S
C402 C401 1.378 . S
C402 C403 1.396 . S
C403 H388 0.940 . S
C403 C398 1.391 . S
C403 C402 1.396 . S
C404 P384 1.803 . S
C404 C405 1.378 . S
C404 C409 1.400 . S
C405 H389 0.939 . S
C405 C404 1.378 . S
C405 C406 1.361 . S
C406 H390 0.942 . S
C406 C405 1.361 . S
C406 C407 1.369 . S
C407 C406 1.369 . S
C407 C408 1.404 . S
C408 H391 0.940 . S
C408 C407 1.404 . S
C408 C409 1.389 . S
C409 H392 0.939 . S
C409 C404 1.400 . S
C409 C408 1.389 . S
C410 P384 1.819 . S
C410 C411 1.391 . S
C410 C415 1.391 . S
C411 H393 0.941 . S
C411 C410 1.391 . S
C411 C412 1.396 . S
C412 H396 0.939 . S
C412 C411 1.396 . S
C412 C413 1.397 . S
C413 C412 1.397 . S
C413 C414 1.385 . S
C414 H397 0.940 . S
C414 C413 1.385 . S
C414 C415 1.388 . S
C415 H394 0.939 . S
C415 C410 1.391 . S
C415 C414 1.388 . S
P416 O427 1.490 . S
P416 C430 1.812 . S
P416 C436 1.803 . S
P416 C442 1.819 . S
H417 C431 0.941 . S
H418 C432 0.939 . S
H419 C434 0.940 . S
H420 C435 0.940 . S
H421 C437 0.939 . S
H422 C438 0.942 . S
H423 C440 0.940 . S
H424 C441 0.939 . S
H425 C443 0.941 . S
H426 C447 0.939 . S
O427 P416 1.490 . S
H428 C444 0.939 . S
H429 C446 0.940 . S
C430 P416 1.812 . S
C430 C431 1.389 . S
C430 C435 1.391 . S
C431 H417 0.941 . S
C431 C430 1.389 . S
C431 C432 1.397 . S
C432 H418 0.939 . S
C432 C431 1.397 . S
C432 C433 1.378 . S
C433 C432 1.378 . S
C433 C434 1.378 . S
C434 H419 0.940 . S
C434 C433 1.378 . S
C434 C435 1.396 . S
C435 H420 0.940 . S
C435 C430 1.391 . S
C435 C434 1.396 . S
C436 P416 1.803 . S
C436 C437 1.378 . S
C436 C441 1.400 . S
C437 H421 0.939 . S
C437 C436 1.378 . S
C437 C438 1.361 . S
C438 H422 0.942 . S
C438 C437 1.361 . S
C438 C439 1.369 . S
C439 C438 1.369 . S
C439 C440 1.404 . S
C440 H423 0.940 . S
C440 C439 1.404 . S
C440 C441 1.389 . S
C441 H424 0.939 . S
C441 C436 1.400 . S
C441 C440 1.389 . S
C442 P416 1.819 . S
C442 C443 1.391 . S
C442 C447 1.391 . S
C443 H425 0.941 . S
C443 C442 1.391 . S
C443 C444 1.396 . S
C444 H428 0.939 . S
C444 C443 1.396 . S
C444 C445 1.397 . S
C445 C444 1.397 . S
C445 C446 1.385 . S
C446 H429 0.940 . S
C446 C445 1.385 . S
C446 C447 1.388 . S
C447 H426 0.939 . S
C447 C442 1.391 . S
C447 C446 1.388 . S
P448 O459 1.490 . S
P448 C462 1.812 . S
P448 C468 1.803 . S
P448 C474 1.819 . S
H449 C463 0.941 . S
H450 C464 0.939 . S
H451 C466 0.940 . S
H452 C467 0.940 . S
H453 C469 0.939 . S
H454 C470 0.942 . S
H455 C472 0.940 . S
H456 C473 0.939 . S
H457 C475 0.941 . S
H458 C479 0.939 . S
O459 P448 1.490 . S
H460 C476 0.939 . S
H461 C478 0.940 . S
C462 P448 1.812 . S
C462 C463 1.389 . S
C462 C467 1.391 . S
C463 H449 0.941 . S
C463 C462 1.389 . S
C463 C464 1.397 . S
C464 H450 0.939 . S
C464 C463 1.397 . S
C464 C465 1.378 . S
C465 C464 1.378 . S
C465 C466 1.378 . S
C466 H451 0.940 . S
C466 C465 1.378 . S
C466 C467 1.396 . S
C467 H452 0.940 . S
C467 C462 1.391 . S
C467 C466 1.396 . S
C468 P448 1.803 . S
C468 C469 1.378 . S
C468 C473 1.400 . S
C469 H453 0.939 . S
C469 C468 1.378 . S
C469 C470 1.361 . S
C470 H454 0.942 . S
C470 C469 1.361 . S
C470 C471 1.369 . S
C471 C470 1.369 . S
C471 C472 1.404 . S
C472 H455 0.940 . S
C472 C471 1.404 . S
C472 C473 1.389 . S
C473 H456 0.939 . S
C473 C468 1.400 . S
C473 C472 1.389 . S
C474 P448 1.819 . S
C474 C475 1.391 . S
C474 C479 1.391 . S
C475 H457 0.941 . S
C475 C474 1.391 . S
C475 C476 1.396 . S
C476 H460 0.939 . S
C476 C475 1.396 . S
C476 C477 1.397 . S
C477 C476 1.397 . S
C477 C478 1.385 . S
C478 H461 0.940 . S
C478 C477 1.385 . S
C478 C479 1.388 . S
C479 H458 0.939 . S
C479 C474 1.391 . S
C479 C478 1.388 . S
P480 O491 1.490 . S
P480 C494 1.812 . S
P480 C500 1.803 . S
P480 C506 1.819 . S
H481 C495 0.941 . S
H482 C496 0.939 . S
H483 C498 0.940 . S
H484 C499 0.940 . S
H485 C501 0.939 . S
H486 C502 0.942 . S
H487 C504 0.940 . S
H488 C505 0.939 . S
H489 C507 0.941 . S
H490 C511 0.939 . S
O491 P480 1.490 . S
H492 C508 0.939 . S
H493 C510 0.940 . S
C494 P480 1.812 . S
C494 C495 1.389 . S
C494 C499 1.391 . S
C495 H481 0.941 . S
C495 C494 1.389 . S
C495 C496 1.397 . S
C496 H482 0.939 . S
C496 C495 1.397 . S
C496 C497 1.378 . S
C497 C496 1.378 . S
C497 C498 1.378 . S
C498 H483 0.940 . S
C498 C497 1.378 . S
C498 C499 1.396 . S
C499 H484 0.940 . S
C499 C494 1.391 . S
C499 C498 1.396 . S
C500 P480 1.803 . S
C500 C501 1.378 . S
C500 C505 1.400 . S
C501 H485 0.939 . S
C501 C500 1.378 . S
C501 C502 1.361 . S
C502 H486 0.942 . S
C502 C501 1.361 . S
C502 C503 1.369 . S
C503 C502 1.369 . S
C503 C504 1.404 . S
C504 H487 0.940 . S
C504 C503 1.404 . S
C504 C505 1.389 . S
C505 H488 0.939 . S
C505 C500 1.400 . S
C505 C504 1.389 . S
C506 P480 1.819 . S
C506 C507 1.391 . S
C506 C511 1.391 . S
C507 H489 0.941 . S
C507 C506 1.391 . S
C507 C508 1.396 . S
C508 H492 0.939 . S
C508 C507 1.396 . S
C508 C509 1.397 . S
C509 C508 1.397 . S
C509 C510 1.385 . S
C510 H493 0.940 . S
C510 C509 1.385 . S
C510 C511 1.388 . S
C511 H490 0.939 . S
C511 C506 1.391 . S
C511 C510 1.388 . S
P512 O523 1.490 . S
P512 C526 1.812 . S
P512 C532 1.803 . S
P512 C538 1.819 . S
H513 C527 0.941 . S
H514 C528 0.939 . S
H515 C530 0.940 . S
H516 C531 0.940 . S
H517 C533 0.939 . S
H518 C534 0.942 . S
H519 C536 0.940 . S
H520 C537 0.939 . S
H521 C539 0.941 . S
H522 C543 0.939 . S
O523 P512 1.490 . S
H524 C540 0.939 . S
H525 C542 0.940 . S
C526 P512 1.812 . S
C526 C527 1.389 . S
C526 C531 1.391 . S
C527 H513 0.941 . S
C527 C526 1.389 . S
C527 C528 1.397 . S
C528 H514 0.939 . S
C528 C527 1.397 . S
C528 C529 1.378 . S
C529 C528 1.378 . S
C529 C530 1.378 . S
C530 H515 0.940 . S
C530 C529 1.378 . S
C530 C531 1.396 . S
C531 H516 0.940 . S
C531 C526 1.391 . S
C531 C530 1.396 . S
C532 P512 1.803 . S
C532 C533 1.378 . S
C532 C537 1.400 . S
C533 H517 0.939 . S
C533 C532 1.378 . S
C533 C534 1.361 . S
C534 H518 0.942 . S
C534 C533 1.361 . S
C534 C535 1.369 . S
C535 C534 1.369 . S
C535 C536 1.404 . S
C536 H519 0.940 . S
C536 C535 1.404 . S
C536 C537 1.389 . S
C537 H520 0.939 . S
C537 C532 1.400 . S
C537 C536 1.389 . S
C538 P512 1.819 . S
C538 C539 1.391 . S
C538 C543 1.391 . S
C539 H521 0.941 . S
C539 C538 1.391 . S
C539 C540 1.396 . S
C540 H524 0.939 . S
C540 C539 1.396 . S
C540 C541 1.397 . S
C541 C540 1.397 . S
C541 C542 1.385 . S
C542 H525 0.940 . S
C542 C541 1.385 . S
C542 C543 1.388 . S
C543 H522 0.939 . S
C543 C538 1.391 . S
C543 C542 1.388 . S
P544 O555 1.490 . S
P544 C558 1.812 . S
P544 C564 1.803 . S
P544 C570 1.819 . S
H545 C559 0.941 . S
H546 C560 0.939 . S
H547 C562 0.940 . S
H548 C563 0.940 . S
H549 C565 0.939 . S
H550 C566 0.942 . S
H551 C568 0.940 . S
H552 C569 0.939 . S
H553 C571 0.941 . S
H554 C575 0.939 . S
O555 P544 1.490 . S
H556 C572 0.939 . S
H557 C574 0.940 . S
C558 P544 1.812 . S
C558 C559 1.389 . S
C558 C563 1.391 . S
C559 H545 0.941 . S
C559 C558 1.389 . S
C559 C560 1.397 . S
C560 H546 0.939 . S
C560 C559 1.397 . S
C560 C561 1.378 . S
C561 C560 1.378 . S
C561 C562 1.378 . S
C562 H547 0.940 . S
C562 C561 1.378 . S
C562 C563 1.396 . S
C563 H548 0.940 . S
C563 C558 1.391 . S
C563 C562 1.396 . S
C564 P544 1.803 . S
C564 C565 1.378 . S
C564 C569 1.400 . S
C565 H549 0.939 . S
C565 C564 1.378 . S
C565 C566 1.361 . S
C566 H550 0.942 . S
C566 C565 1.361 . S
C566 C567 1.369 . S
C567 C566 1.369 . S
C567 C568 1.404 . S
C568 H551 0.940 . S
C568 C567 1.404 . S
C568 C569 1.389 . S
C569 H552 0.939 . S
C569 C564 1.400 . S
C569 C568 1.389 . S
C570 P544 1.819 . S
C570 C571 1.391 . S
C570 C575 1.391 . S
C571 H553 0.941 . S
C571 C570 1.391 . S
C571 C572 1.396 . S
C572 H556 0.939 . S
C572 C571 1.396 . S
C572 C573 1.397 . S
C573 C572 1.397 . S
C573 C574 1.385 . S
C574 H557 0.940 . S
C574 C573 1.385 . S
C574 C575 1.388 . S
C575 H554 0.939 . S
C575 C570 1.391 . S
C575 C574 1.388 . S
C576 Eu577 2.835 . S
C576 C578 1.500 . S
C576 O596 1.257 1_545 S
C576 O597 1.260 . S
Eu577 C576 2.835 . S
Eu577 O596 2.473 1_545 S
Eu577 O597 2.480 . S
Eu577 O598 2.430 . S
Eu577 O599 2.670 1_554 S
Eu577 O600 2.394 1_545 S
Eu577 O605 2.355 1_545 S
Eu577 O607 2.374 . S
C578 C576 1.500 . S
C578 C579 1.377 . S
C578 C583 1.377 1_545 S
C579 C578 1.377 . S
C579 C580 1.395 . S
C579 H608 0.931 . S
C580 C579 1.395 . S
C580 C581 1.383 1_545 S
C580 H609 0.931 . S
C581 C580 1.383 1_565 S
C581 C582 1.394 . S
C582 C581 1.394 . S
C582 C583 1.378 . S
C582 H610 0.931 . S
C583 C578 1.377 1_565 S
C583 C582 1.378 . S
C583 H611 0.931 . S
C584 O598 1.326 . S
C584 O599 1.247 1_554 S
C585 O600 1.251 . S
C585 O601 1.251 1_554 S
C586 Eu587 2.835 . S
C586 C588 1.500 . S
C586 O602 1.257 1_565 S
C586 O603 1.260 . S
Eu587 C586 2.835 . S
Eu587 O599 2.355 1_565 S
Eu587 O601 2.374 . S
Eu587 O602 2.473 1_565 S
Eu587 O603 2.480 . S
Eu587 O604 2.430 . S
Eu587 O605 2.670 1_556 S
Eu587 O606 2.394 1_565 S
C588 C586 1.500 . S
C588 C589 1.377 . S
C588 C593 1.377 1_565 S
C589 C588 1.377 . S
C589 C590 1.395 . S
C589 H612 0.931 . S
C590 C589 1.395 . S
C590 C591 1.383 1_565 S
C590 H613 0.931 . S
C591 C590 1.383 1_545 S
C591 C592 1.394 . S
C592 C591 1.394 . S
C592 C593 1.378 . S
C592 H614 0.931 . S
C593 C588 1.377 1_545 S
C593 C592 1.378 . S
C593 H615 0.931 . S
C594 O604 1.259 1_554 S
C594 O605 1.270 . S
C595 O606 1.251 . S
C595 O607 1.251 1_556 S
O596 C576 1.257 1_565 S
O596 Eu577 2.473 1_565 S
O597 C576 1.260 . S
O597 Eu577 2.480 . S
O598 Eu577 2.430 . S
O598 C584 1.326 . S
O599 Eu577 2.670 1_556 S
O599 C584 1.247 1_556 S
O599 Eu587 2.355 1_545 S
O600 Eu577 2.394 1_565 S
O600 C585 1.251 . S
O601 C585 1.251 1_556 S
O601 Eu587 2.374 . S
O602 C586 1.257 1_545 S
O602 Eu587 2.473 1_545 S
O603 C586 1.260 . S
O603 Eu587 2.480 . S
O604 Eu587 2.430 . S
O604 C594 1.259 1_556 S
O605 Eu577 2.355 1_565 S
O605 Eu587 2.670 1_554 S
O605 C594 1.270 . S
O606 Eu587 2.394 1_545 S
O606 C595 1.251 . S
O607 Eu577 2.374 . S
O607 C595 1.251 1_554 S
H608 C579 0.931 . S
H609 C580 0.931 . S
H610 C582 0.931 . S
H611 C583 0.931 . S
H612 C589 0.931 . S
H613 C590 0.931 . S
H614 C592 0.931 . S
H615 C593 0.931 . S
C616 Eu617 2.835 . S
C616 C618 1.500 1_655 S
C616 O636 1.257 1_655 S
C616 O637 1.260 . S
Eu617 C616 2.835 . S
Eu617 O636 2.473 1_655 S
Eu617 O637 2.480 . S
Eu617 O638 2.430 . S
Eu617 O639 2.670 1_554 S
Eu617 O640 2.394 1_655 S
Eu617 O645 2.355 1_655 S
Eu617 O647 2.374 . S
C618 C616 1.500 1_455 S
C618 C619 1.377 1_455 S
C618 C623 1.377 . S
C619 C618 1.377 1_655 S
C619 C620 1.395 . S
C619 H648 0.931 . S
C620 C619 1.395 . S
C620 C621 1.383 1_655 S
C620 H649 0.931 . S
C621 C620 1.383 1_455 S
C621 C622 1.394 . S
C622 C621 1.394 . S
C622 C623 1.378 . S
C622 H650 0.931 . S
C623 C618 1.377 . S
C623 C622 1.378 . S
C623 H651 0.931 . S
C624 O638 1.259 1_556 S
C624 O639 1.270 . S
C625 O640 1.251 . S
C625 O641 1.251 . S
C626 Eu627 2.835 . S
C626 C628 1.500 1_455 S
C626 O642 1.257 1_455 S
C626 O643 1.260 . S
Eu627 C626 2.835 . S
Eu627 O639 2.355 1_455 S
Eu627 O641 2.374 1_556 S
Eu627 O642 2.473 1_455 S
Eu627 O643 2.480 . S
Eu627 O644 2.430 . S
Eu627 O645 2.670 1_556 S
Eu627 O646 2.394 1_455 S
C628 C626 1.500 1_655 S
C628 C629 1.377 1_655 S
C628 C633 1.377 . S
C629 C628 1.377 1_455 S
C629 C630 1.395 . S
C629 H652 0.931 . S
C630 C629 1.395 . S
C630 C631 1.383 1_455 S
C630 H653 0.931 . S
C631 C630 1.383 1_655 S
C631 C632 1.394 . S
C632 C631 1.394 . S
C632 C633 1.378 . S
C632 H654 0.931 . S
C633 C628 1.377 . S
C633 C632 1.378 . S
C633 H655 0.931 . S
C634 O644 1.259 1_554 S
C634 O645 1.270 . S
C635 O646 1.251 . S
C635 O647 1.251 1_556 S
O636 C616 1.257 1_455 S
O636 Eu617 2.473 1_455 S
O637 C616 1.260 . S
O637 Eu617 2.480 . S
O638 Eu617 2.430 . S
O638 C624 1.259 1_554 S
O639 Eu617 2.670 1_556 S
O639 C624 1.270 . S
O639 Eu627 2.355 1_655 S
O640 Eu617 2.394 1_455 S
O640 C625 1.251 . S
O641 C625 1.251 . S
O641 Eu627 2.374 1_554 S
O642 C626 1.257 1_655 S
O642 Eu627 2.473 1_655 S
O643 C626 1.260 . S
O643 Eu627 2.480 . S
O644 Eu627 2.430 . S
O644 C634 1.259 1_556 S
O645 Eu617 2.355 1_455 S
O645 Eu627 2.670 1_554 S
O645 C634 1.270 . S
O646 Eu627 2.394 1_655 S
O646 C635 1.251 . S
O647 Eu617 2.374 . S
O647 C635 1.251 1_554 S
H648 C619 0.931 . S
H649 C620 0.931 . S
H650 C622 0.931 . S
H651 C623 0.931 . S
H652 C629 0.931 . S
H653 C630 0.931 . S
H654 C632 0.931 . S
H655 C633 0.931 . S
C656 Eu657 2.835 . S
C656 C658 1.500 . S
C656 O676 1.257 . S
C656 O677 1.260 . S
Eu657 C656 2.835 . S
Eu657 O676 2.473 . S
Eu657 O677 2.480 . S
Eu657 O678 2.430 . S
Eu657 O679 2.670 1_556 S
Eu657 O680 2.394 . S
Eu657 O685 2.355 . S
Eu657 O687 2.348 1_556 S
C658 C656 1.500 . S
C658 C659 1.377 . S
C658 C663 1.377 . S
C659 C658 1.377 . S
C659 C660 1.395 . S
C659 H688 0.931 . S
C660 C659 1.395 . S
C660 C661 1.383 . S
C660 H689 0.931 . S
C661 C660 1.383 . S
C661 C662 1.394 . S
C662 C661 1.394 . S
C662 C663 1.378 . S
C662 H690 0.931 . S
C663 C658 1.377 . S
C663 C662 1.378 . S
C663 H691 0.931 . S
C664 O678 1.259 1_554 S
C664 O679 1.270 . S
C665 O680 1.251 . S
C665 O681 1.251 1_556 S
C666 Eu667 2.835 . S
C666 C668 1.500 . S
C666 O682 1.257 . S
C666 O683 1.260 . S
Eu667 C666 2.835 . S
Eu667 O679 2.355 . S
Eu667 O681 2.374 . S
Eu667 O682 2.473 . S
Eu667 O683 2.480 . S
Eu667 O684 2.430 . S
Eu667 O685 2.670 1_554 S
Eu667 O686 2.394 . S
C668 C666 1.500 . S
C668 C669 1.377 . S
C668 C673 1.377 . S
C669 C668 1.377 . S
C669 C670 1.395 . S
C669 H692 0.931 . S
C670 C669 1.395 . S
C670 C671 1.383 . S
C670 H693 0.931 . S
C671 C670 1.383 . S
C671 C672 1.394 . S
C672 C671 1.394 . S
C672 C673 1.378 . S
C672 H694 0.931 . S
C673 C668 1.377 . S
C673 C672 1.378 . S
C673 H695 0.931 . S
C674 O684 1.259 1_556 S
C674 O685 1.270 . S
C675 O686 1.251 . S
C675 O687 1.285 . S
O676 C656 1.257 . S
O676 Eu657 2.473 . S
O677 C656 1.260 . S
O677 Eu657 2.480 . S
O678 Eu657 2.430 . S
O678 C664 1.259 1_556 S
O679 Eu657 2.670 1_554 S
O679 C664 1.270 . S
O679 Eu667 2.355 . S
O680 Eu657 2.394 . S
O680 C665 1.251 . S
O681 C665 1.251 1_554 S
O681 Eu667 2.374 . S
O682 C666 1.257 . S
O682 Eu667 2.473 . S
O683 C666 1.260 . S
O683 Eu667 2.480 . S
O684 Eu667 2.430 . S
O684 C674 1.259 1_554 S
O685 Eu657 2.355 . S
O685 Eu667 2.670 1_556 S
O685 C674 1.270 . S
O686 Eu667 2.394 . S
O686 C675 1.251 . S
O687 Eu657 2.348 1_554 S
O687 C675 1.285 . S
H688 C659 0.931 . S
H689 C660 0.931 . S
H690 C662 0.931 . S
H691 C663 0.931 . S
H692 C669 0.931 . S
H693 C670 0.931 . S
H694 C672 0.931 . S
H695 C673 0.931 . S
C696 Eu697 2.835 . S
C696 C698 1.500 . S
C696 O716 1.257 . S
C696 O717 1.260 . S
Eu697 C696 2.835 . S
Eu697 O716 2.473 . S
Eu697 O717 2.480 . S
Eu697 O718 2.430 . S
Eu697 O719 2.670 . S
Eu697 O720 2.394 . S
Eu697 O725 2.355 . S
Eu697 O727 2.374 . S
C698 C696 1.500 . S
C698 C699 1.377 . S
C698 C703 1.377 . S
C699 C698 1.377 . S
C699 C700 1.395 . S
C699 H728 0.931 . S
C700 C699 1.395 . S
C700 C701 1.383 . S
C700 H729 0.931 . S
C701 C700 1.383 . S
C701 C702 1.394 . S
C702 C701 1.394 . S
C702 C703 1.378 . S
C702 H730 0.931 . S
C703 C698 1.377 . S
C703 C702 1.378 . S
C703 H731 0.931 . S
C704 O718 1.259 . S
C704 O719 1.270 . S
C705 O720 1.251 . S
C705 O721 1.251 . S
C706 Eu707 2.835 . S
C706 C708 1.500 . S
C706 O722 1.257 . S
C706 O723 1.260 . S
Eu707 C706 2.835 . S
Eu707 O719 2.355 . S
Eu707 O721 2.374 . S
Eu707 O722 2.473 . S
Eu707 O723 2.480 . S
Eu707 O724 2.430 . S
Eu707 O725 2.670 . S
Eu707 O726 2.394 . S
C708 C706 1.500 . S
C708 C709 1.377 . S
C708 C713 1.377 . S
C709 C708 1.377 . S
C709 C710 1.395 . S
C709 H732 0.931 . S
C710 C709 1.395 . S
C710 C711 1.383 . S
C710 H733 0.931 . S
C711 C710 1.383 . S
C711 C712 1.394 . S
C712 C711 1.394 . S
C712 C713 1.378 . S
C712 H734 0.931 . S
C713 C708 1.377 . S
C713 C712 1.378 . S
C713 H735 0.931 . S
C714 O724 1.259 . S
C714 O725 1.270 . S
C715 O726 1.251 . S
C715 O727 1.251 . S
O716 C696 1.257 . S
O716 Eu697 2.473 . S
O717 C696 1.260 . S
O717 Eu697 2.480 . S
O718 Eu697 2.430 . S
O718 C704 1.259 . S
O719 Eu697 2.670 . S
O719 C704 1.270 . S
O719 Eu707 2.355 . S
O720 Eu697 2.394 . S
O720 C705 1.251 . S
O721 C705 1.251 . S
O721 Eu707 2.374 . S
O722 C706 1.257 . S
O722 Eu707 2.473 . S
O723 C706 1.260 . S
O723 Eu707 2.480 . S
O724 Eu707 2.430 . S
O724 C714 1.259 . S
O725 Eu697 2.355 . S
O725 Eu707 2.670 . S
O725 C714 1.270 . S
O726 Eu707 2.394 . S
O726 C715 1.251 . S
O727 Eu697 2.374 . S
O727 C715 1.251 . S
H728 C699 0.931 . S
H729 C700 0.931 . S
H730 C702 0.931 . S
H731 C703 0.931 . S
H732 C709 0.931 . S
H733 C710 0.931 . S
H734 C712 0.931 . S
H735 C713 0.931 . S
C736 Eu737 2.835 . S
C736 C738 1.500 . S
C736 O756 1.257 . S
C736 O757 1.260 . S
Eu737 C736 2.835 . S
Eu737 O756 2.473 . S
Eu737 O757 2.480 . S
Eu737 O758 2.430 . S
Eu737 O759 2.670 . S
Eu737 O760 2.394 . S
Eu737 O765 2.355 . S
Eu737 O767 2.374 . S
C738 C736 1.500 . S
C738 C739 1.377 . S
C738 C743 1.377 . S
C739 C738 1.377 . S
C739 C740 1.395 . S
C739 H768 0.931 . S
C740 C739 1.395 . S
C740 C741 1.383 . S
C740 H769 0.931 . S
C741 C740 1.383 . S
C741 C742 1.394 . S
C742 C741 1.394 . S
C742 C743 1.378 . S
C742 H770 0.931 . S
C743 C738 1.377 . S
C743 C742 1.378 . S
C743 H771 0.931 . S
C744 O758 1.259 . S
C744 O759 1.270 . S
C745 O760 1.251 . S
C745 O761 1.251 . S
C746 Eu747 2.835 . S
C746 C748 1.500 . S
C746 O762 1.257 . S
C746 O763 1.260 . S
Eu747 C746 2.835 . S
Eu747 O759 2.355 . S
Eu747 O761 2.374 . S
Eu747 O762 2.473 . S
Eu747 O763 2.480 . S
Eu747 O764 2.430 . S
Eu747 O765 2.670 . S
Eu747 O766 2.394 . S
C748 C746 1.500 . S
C748 C749 1.377 . S
C748 C753 1.377 . S
C749 C748 1.377 . S
C749 C750 1.395 . S
C749 H772 0.931 . S
C750 C749 1.395 . S
C750 C751 1.383 . S
C750 H773 0.931 . S
C751 C750 1.383 . S
C751 C752 1.394 . S
C752 C751 1.394 . S
C752 C753 1.378 . S
C752 H774 0.931 . S
C753 C748 1.377 . S
C753 C752 1.378 . S
C753 H775 0.931 . S
C754 O764 1.259 . S
C754 O765 1.270 . S
C755 O766 1.251 . S
C755 O767 1.251 . S
O756 C736 1.257 . S
O756 Eu737 2.473 . S
O757 C736 1.260 . S
O757 Eu737 2.480 . S
O758 Eu737 2.430 . S
O758 C744 1.259 . S
O759 Eu737 2.670 . S
O759 C744 1.270 . S
O759 Eu747 2.355 . S
O760 Eu737 2.394 . S
O760 C745 1.251 . S
O761 C745 1.251 . S
O761 Eu747 2.374 . S
O762 C746 1.257 . S
O762 Eu747 2.473 . S
O763 C746 1.260 . S
O763 Eu747 2.480 . S
O764 Eu747 2.430 . S
O764 C754 1.259 . S
O765 Eu737 2.355 . S
O765 Eu747 2.670 . S
O765 C754 1.270 . S
O766 Eu747 2.394 . S
O766 C755 1.251 . S
O767 Eu737 2.374 . S
O767 C755 1.251 . S
H768 C739 0.931 . S
H769 C740 0.931 . S
H770 C742 0.931 . S
H771 C743 0.931 . S
H772 C749 0.931 . S
H773 C750 0.931 . S
H774 C752 0.931 . S
H775 C753 0.931 . S
C776 Eu777 2.835 . S
C776 C778 1.500 . S
C776 O796 1.257 . S
C776 O797 1.260 . S
Eu777 C776 2.835 . S
Eu777 O796 2.473 . S
Eu777 O797 2.480 . S
Eu777 O798 2.430 . S
Eu777 O799 2.670 . S
Eu777 O800 2.394 . S
Eu777 O805 2.355 . S
Eu777 O807 2.374 . S
C778 C776 1.500 . S
C778 C779 1.377 . S
C778 C783 1.377 . S
C779 C778 1.377 . S
C779 C780 1.395 . S
C779 H808 0.931 . S
C780 C779 1.395 . S
C780 C781 1.383 . S
C780 H809 0.931 . S
C781 C780 1.383 . S
C781 C782 1.394 . S
C782 C781 1.394 . S
C782 C783 1.378 . S
C782 H810 0.931 . S
C783 C778 1.377 . S
C783 C782 1.378 . S
C783 H811 0.931 . S
C784 O798 1.259 . S
C784 O799 1.270 . S
C785 O800 1.251 . S
C785 O801 1.251 . S
C786 Eu787 2.835 . S
C786 C788 1.500 . S
C786 O802 1.257 . S
C786 O803 1.260 . S
Eu787 C786 2.835 . S
Eu787 O799 2.355 . S
Eu787 O801 2.374 . S
Eu787 O802 2.473 . S
Eu787 O803 2.480 . S
Eu787 O804 2.430 . S
Eu787 O805 2.670 . S
Eu787 O806 2.394 . S
C788 C786 1.500 . S
C788 C789 1.377 . S
C788 C793 1.377 . S
C789 C788 1.377 . S
C789 C790 1.395 . S
C789 H812 0.931 . S
C790 C789 1.395 . S
C790 C791 1.383 . S
C790 H813 0.931 . S
C791 C790 1.383 . S
C791 C792 1.394 . S
C792 C791 1.394 . S
C792 C793 1.378 . S
C792 H814 0.931 . S
C793 C788 1.377 . S
C793 C792 1.378 . S
C793 H815 0.931 . S
C794 O804 1.259 . S
C794 O805 1.270 . S
C795 O806 1.251 . S
C795 O807 1.251 . S
O796 C776 1.257 . S
O796 Eu777 2.473 . S
O797 C776 1.260 . S
O797 Eu777 2.480 . S
O798 Eu777 2.430 . S
O798 C784 1.259 . S
O799 Eu777 2.670 . S
O799 C784 1.270 . S
O799 Eu787 2.355 . S
O800 Eu777 2.394 . S
O800 C785 1.251 . S
O801 C785 1.251 . S
O801 Eu787 2.374 . S
O802 C786 1.257 . S
O802 Eu787 2.473 . S
O803 C786 1.260 . S
O803 Eu787 2.480 . S
O804 Eu787 2.430 . S
O804 C794 1.259 . S
O805 Eu777 2.355 . S
O805 Eu787 2.670 . S
O805 C794 1.270 . S
O806 Eu787 2.394 . S
O806 C795 1.251 . S
O807 Eu777 2.374 . S
O807 C795 1.251 . S
H808 C779 0.931 . S
H809 C780 0.931 . S
H810 C782 0.931 . S
H811 C783 0.931 . S
H812 C789 0.931 . S
H813 C790 0.931 . S
H814 C792 0.931 . S
H815 C793 0.931 . S
C816 Eu817 2.835 . S
C816 C818 1.500 . S
C816 O836 1.257 . S
C816 O837 1.260 . S
Eu817 C816 2.835 . S
Eu817 O836 2.473 . S
Eu817 O837 2.480 . S
Eu817 O838 2.430 . S
Eu817 O839 2.670 . S
Eu817 O840 2.394 . S
Eu817 O845 2.355 . S
Eu817 O847 2.374 . S
C818 C816 1.500 . S
C818 C819 1.377 . S
C818 C823 1.377 . S
C819 C818 1.377 . S
C819 C820 1.395 . S
C819 H848 0.931 . S
C820 C819 1.395 . S
C820 C821 1.383 . S
C820 H849 0.931 . S
C821 C820 1.383 . S
C821 C822 1.394 . S
C822 C821 1.394 . S
C822 C823 1.378 . S
C822 H850 0.931 . S
C823 C818 1.377 . S
C823 C822 1.378 . S
C823 H851 0.931 . S
C824 O838 1.259 . S
C824 O839 1.270 . S
C825 O840 1.251 . S
C825 O841 1.251 . S
C826 Eu827 2.835 . S
C826 C828 1.500 . S
C826 O842 1.257 . S
C826 O843 1.260 . S
Eu827 C826 2.835 . S
Eu827 O839 2.355 . S
Eu827 O841 2.374 . S
Eu827 O842 2.473 . S
Eu827 O843 2.480 . S
Eu827 O844 2.430 . S
Eu827 O845 2.670 . S
Eu827 O846 2.394 . S
C828 C826 1.500 . S
C828 C829 1.377 . S
C828 C833 1.377 . S
C829 C828 1.377 . S
C829 C830 1.395 . S
C829 H852 0.931 . S
C830 C829 1.395 . S
C830 C831 1.383 . S
C830 H853 0.931 . S
C831 C830 1.383 . S
C831 C832 1.394 . S
C832 C831 1.394 . S
C832 C833 1.378 . S
C832 H854 0.931 . S
C833 C828 1.377 . S
C833 C832 1.378 . S
C833 H855 0.931 . S
C834 O844 1.259 . S
C834 O845 1.270 . S
C835 O846 1.251 . S
C835 O847 1.251 . S
O836 C816 1.257 . S
O836 Eu817 2.473 . S
O837 C816 1.260 . S
O837 Eu817 2.480 . S
O838 Eu817 2.430 . S
O838 C824 1.259 . S
O839 Eu817 2.670 . S
O839 C824 1.270 . S
O839 Eu827 2.355 . S
O840 Eu817 2.394 . S
O840 C825 1.251 . S
O841 C825 1.251 . S
O841 Eu827 2.374 . S
O842 C826 1.257 . S
O842 Eu827 2.473 . S
O843 C826 1.260 . S
O843 Eu827 2.480 . S
O844 Eu827 2.430 . S
O844 C834 1.259 . S
O845 Eu817 2.355 . S
O845 Eu827 2.670 . S
O845 C834 1.270 . S
O846 Eu827 2.394 . S
O846 C835 1.251 . S
O847 Eu817 2.374 . S
O847 C835 1.251 . S
H848 C819 0.931 . S
H849 C820 0.931 . S
H850 C822 0.931 . S
H851 C823 0.931 . S
H852 C829 0.931 . S
H853 C830 0.931 . S
H854 C832 0.931 . S
H855 C833 0.931 . S
C856 Eu857 2.835 . S
C856 C858 1.500 . S
C856 O876 1.257 . S
C856 O877 1.260 . S
Eu857 C856 2.835 . S
Eu857 O876 2.473 . S
Eu857 O877 2.480 . S
Eu857 O878 2.430 . S
Eu857 O879 2.670 . S
Eu857 O880 2.394 . S
Eu857 O885 2.355 . S
Eu857 O887 2.374 . S
C858 C856 1.500 . S
C858 C859 1.377 . S
C858 C863 1.377 . S
C859 C858 1.377 . S
C859 C860 1.395 . S
C859 H888 0.931 . S
C860 C859 1.395 . S
C860 C861 1.383 . S
C860 H889 0.931 . S
C861 C860 1.383 . S
C861 C862 1.394 . S
C862 C861 1.394 . S
C862 C863 1.378 . S
C862 H890 0.931 . S
C863 C858 1.377 . S
C863 C862 1.378 . S
C863 H891 0.931 . S
C864 O878 1.259 . S
C864 O879 1.270 . S
C865 O880 1.251 . S
C865 O881 1.251 . S
C866 Eu867 2.835 . S
C866 C868 1.500 . S
C866 O882 1.257 . S
C866 O883 1.260 . S
Eu867 C866 2.835 . S
Eu867 O879 2.355 . S
Eu867 O881 2.374 . S
Eu867 O882 2.473 . S
Eu867 O883 2.480 . S
Eu867 O884 2.430 . S
Eu867 O885 2.670 . S
Eu867 O886 2.394 . S
C868 C866 1.500 . S
C868 C869 1.377 . S
C868 C873 1.377 . S
C869 C868 1.377 . S
C869 C870 1.395 . S
C869 H892 0.931 . S
C870 C869 1.395 . S
C870 C871 1.383 . S
C870 H893 0.931 . S
C871 C870 1.383 . S
C871 C872 1.394 . S
C872 C871 1.394 . S
C872 C873 1.378 . S
C872 H894 0.931 . S
C873 C868 1.377 . S
C873 C872 1.378 . S
C873 H895 0.931 . S
C874 O884 1.259 . S
C874 O885 1.270 . S
C875 O886 1.251 . S
C875 O887 1.251 . S
O876 C856 1.257 . S
O876 Eu857 2.473 . S
O877 C856 1.260 . S
O877 Eu857 2.480 . S
O878 Eu857 2.430 . S
O878 C864 1.259 . S
O879 Eu857 2.670 . S
O879 C864 1.270 . S
O879 Eu867 2.355 . S
O880 Eu857 2.394 . S
O880 C865 1.251 . S
O881 C865 1.251 . S
O881 Eu867 2.374 . S
O882 C866 1.257 . S
O882 Eu867 2.473 . S
O883 C866 1.260 . S
O883 Eu867 2.480 . S
O884 Eu867 2.430 . S
O884 C874 1.259 . S
O885 Eu857 2.355 . S
O885 Eu867 2.670 . S
O885 C874 1.270 . S
O886 Eu867 2.394 . S
O886 C875 1.251 . S
O887 Eu857 2.374 . S
O887 C875 1.251 . S
H888 C859 0.931 . S
H889 C860 0.931 . S
H890 C862 0.931 . S
H891 C863 0.931 . S
H892 C869 0.931 . S
H893 C870 0.931 . S
H894 C872 0.931 . S
H895 C873 0.931 . S
C896 Eu897 2.835 . S
C896 C898 1.500 . S
C896 O916 1.257 . S
C896 O917 1.260 . S
Eu897 C896 2.835 . S
Eu897 O916 2.473 . S
Eu897 O917 2.480 . S
Eu897 O918 2.430 . S
Eu897 O919 2.670 . S
Eu897 O920 2.394 . S
Eu897 O925 2.355 . S
Eu897 O927 2.374 . S
C898 C896 1.500 . S
C898 C899 1.377 . S
C898 C903 1.377 . S
C899 C898 1.377 . S
C899 C900 1.395 . S
C899 H928 0.931 . S
C900 C899 1.395 . S
C900 C901 1.383 . S
C900 H929 0.931 . S
C901 C900 1.383 . S
C901 C902 1.394 . S
C902 C901 1.394 . S
C902 C903 1.378 . S
C902 H930 0.931 . S
C903 C898 1.377 . S
C903 C902 1.378 . S
C903 H931 0.931 . S
C904 O918 1.259 . S
C904 O919 1.270 . S
C905 O920 1.251 . S
C905 O921 1.251 . S
C906 Eu907 2.835 . S
C906 C908 1.500 . S
C906 O922 1.257 . S
C906 O923 1.260 . S
Eu907 C906 2.835 . S
Eu907 O919 2.355 . S
Eu907 O921 2.374 . S
Eu907 O922 2.473 . S
Eu907 O923 2.480 . S
Eu907 O924 2.430 . S
Eu907 O925 2.670 . S
Eu907 O926 2.394 . S
C908 C906 1.500 . S
C908 C909 1.377 . S
C908 C913 1.377 . S
C909 C908 1.377 . S
C909 C910 1.395 . S
C909 H932 0.931 . S
C910 C909 1.395 . S
C910 C911 1.383 . S
C910 H933 0.931 . S
C911 C910 1.383 . S
C911 C912 1.394 . S
C912 C911 1.394 . S
C912 C913 1.378 . S
C912 H934 0.931 . S
C913 C908 1.377 . S
C913 C912 1.378 . S
C913 H935 0.931 . S
C914 O924 1.259 . S
C914 O925 1.270 . S
C915 O926 1.251 . S
C915 O927 1.251 . S
O916 C896 1.257 . S
O916 Eu897 2.473 . S
O917 C896 1.260 . S
O917 Eu897 2.480 . S
O918 Eu897 2.430 . S
O918 C904 1.259 . S
O919 Eu897 2.670 . S
O919 C904 1.270 . S
O919 Eu907 2.355 . S
O920 Eu897 2.394 . S
O920 C905 1.251 . S
O921 C905 1.251 . S
O921 Eu907 2.374 . S
O922 C906 1.257 . S
O922 Eu907 2.473 . S
O923 C906 1.260 . S
O923 Eu907 2.480 . S
O924 Eu907 2.430 . S
O924 C914 1.259 . S
O925 Eu897 2.355 . S
O925 Eu907 2.670 . S
O925 C914 1.270 . S
O926 Eu907 2.394 . S
O926 C915 1.251 . S
O927 Eu897 2.374 . S
O927 C915 1.251 . S
H928 C899 0.931 . S
H929 C900 0.931 . S
H930 C902 0.931 . S
H931 C903 0.931 . S
H932 C909 0.931 . S
H933 C910 0.931 . S
H934 C912 0.931 . S
H935 C913 0.931 . S
H936 C942 0.930 . S
H937 C946 0.930 . S
H938 C951 0.929 . S
H939 C949 0.929 . S
H940 C944 0.929 . S
H941 C950 0.929 . S
C942 H936 0.930 . S
C942 C943 1.367 . S
C942 C950 1.378 . S
C943 C942 1.367 . S
C943 C951 1.433 . S
C944 H940 0.929 . S
C944 C946 1.378 . S
C944 C948 1.350 . S
C945 C948 1.463 . S
C945 C950 1.350 . S
C945 N953 1.427 . S
C946 H937 0.930 . S
C946 C944 1.378 . S
C946 C947 1.367 . S
C947 C946 1.367 . S
C947 C949 1.433 . S
C948 C944 1.350 . S
C948 C945 1.463 . S
C948 N952 1.427 . S
C949 H939 0.929 . S
C949 C947 1.433 . S
C949 N952 1.384 . S
C950 H941 0.929 . S
C950 C942 1.378 . S
C950 C945 1.350 . S
C951 H938 0.929 . S
C951 C943 1.433 . S
C951 N953 1.384 . S
N952 C948 1.427 . S
N952 C949 1.384 . S
N953 C945 1.427 . S
N953 C951 1.384 . S
H954 C960 0.930 . S
H955 C964 0.930 . S
H956 C969 0.929 . S
H957 C967 0.929 . S
H958 C962 0.929 . S
H959 C968 0.929 . S
C960 H954 0.930 . S
C960 C961 1.367 . S
C960 C968 1.378 . S
C961 C960 1.367 . S
C961 C969 1.433 . S
C962 H958 0.929 . S
C962 C964 1.378 . S
C962 C966 1.350 . S
C963 C966 1.463 . S
C963 C968 1.350 . S
C963 N971 1.427 . S
C964 H955 0.930 . S
C964 C962 1.378 . S
C964 C965 1.367 . S
C965 C964 1.367 . S
C965 C967 1.433 . S
C966 C962 1.350 . S
C966 C963 1.463 . S
C966 N970 1.427 . S
C967 H957 0.929 . S
C967 C965 1.433 . S
C967 N970 1.384 . S
C968 H959 0.929 . S
C968 C960 1.378 . S
C968 C963 1.350 . S
C969 H956 0.929 . S
C969 C961 1.433 . S
C969 N971 1.384 . S
N970 C966 1.427 . S
N970 C967 1.384 . S
N971 C963 1.427 . S
N971 C969 1.384 . S
H972 C978 0.930 . S
H973 C982 0.930 . S
H974 C987 0.929 . S
H975 C985 0.929 . S
H976 C980 0.929 . S
H977 C986 0.929 . S
C978 H972 0.930 . S
C978 C979 1.367 . S
C978 C986 1.378 . S
C979 C978 1.367 . S
C979 C987 1.433 . S
C980 H976 0.929 . S
C980 C982 1.378 . S
C980 C984 1.350 . S
C981 C984 1.463 . S
C981 C986 1.350 . S
C981 N989 1.427 . S
C982 H973 0.930 . S
C982 C980 1.378 . S
C982 C983 1.367 . S
C983 C982 1.367 . S
C983 C985 1.433 . S
C984 C980 1.350 . S
C984 C981 1.463 . S
C984 N988 1.427 . S
C985 H975 0.929 . S
C985 C983 1.433 . S
C985 N988 1.384 . S
C986 H977 0.929 . S
C986 C978 1.378 . S
C986 C981 1.350 . S
C987 H974 0.929 . S
C987 C979 1.433 . S
C987 N989 1.384 . S
N988 C984 1.427 . S
N988 C985 1.384 . S
N989 C981 1.427 . S
N989 C987 1.384 . S
H990 C996 0.930 . S
H991 C1000 0.930 . S
H992 C1005 0.929 . S
H993 C1003 0.929 . S
H994 C998 0.929 1_554 S
H995 C1004 0.929 . S
C996 H990 0.930 . S
C996 C997 1.367 . S
C996 C1004 1.378 . S
C997 C996 1.367 . S
C997 C1005 1.433 . S
C998 H994 0.929 1_556 S
C998 C1000 1.378 1_556 S
C998 C1002 1.350 . S
C999 C1002 1.463 . S
C999 C1004 1.350 . S
C999 N1007 1.427 . S
C1000 H991 0.930 . S
C1000 C998 1.378 1_554 S
C1000 C1001 1.367 1_554 S
C1001 C1000 1.367 1_556 S
C1001 C1003 1.433 . S
C1002 C998 1.350 . S
C1002 C999 1.463 . S
C1002 N1006 1.427 . S
C1003 H993 0.929 . S
C1003 C1001 1.433 . S
C1003 N1006 1.384 . S
C1004 H995 0.929 . S
C1004 C996 1.378 . S
C1004 C999 1.350 . S
C1005 H992 0.929 . S
C1005 C997 1.433 . S
C1005 N1007 1.384 . S
N1006 C1002 1.427 . S
N1006 C1003 1.384 . S
N1007 C999 1.427 . S
N1007 C1005 1.384 . S
H1008 C1014 0.930 . S
H1009 C1018 0.930 1_554 S
H1010 C1023 0.929 . S
H1011 C1021 0.929 . S
H1012 C1016 0.929 . S
H1013 C1022 0.929 . S
C1014 H1008 0.930 . S
C1014 C1015 1.367 . S
C1014 C1022 1.378 . S
C1015 C1014 1.367 . S
C1015 C1023 1.433 . S
C1016 H1012 0.929 . S
C1016 C1018 1.378 . S
C1016 C1020 1.350 . S
C1017 C1020 1.463 . S
C1017 C1022 1.350 . S
C1017 N1025 1.427 . S
C1018 H1009 0.930 1_556 S
C1018 C1016 1.378 . S
C1018 C1019 1.367 . S
C1019 C1018 1.367 . S
C1019 C1021 1.433 . S
C1020 C1016 1.350 . S
C1020 C1017 1.463 . S
C1020 N1024 1.427 . S
C1021 H1011 0.929 . S
C1021 C1019 1.433 . S
C1021 N1024 1.384 . S
C1022 H1013 0.929 . S
C1022 C1014 1.378 . S
C1022 C1017 1.350 . S
C1023 H1010 0.929 . S
C1023 C1015 1.433 . S
C1023 N1025 1.384 . S
N1024 C1020 1.427 . S
N1024 C1021 1.384 . S
N1025 C1017 1.427 . S
N1025 C1023 1.384 . S
H1026 C1032 0.930 . S
H1027 C1036 0.930 . S
H1028 C1041 0.929 . S
H1029 C1039 0.929 . S
H1030 C1034 0.911 1_554 S
H1031 C1040 0.929 . S
C1032 H1026 0.930 . S
C1032 C1033 1.367 . S
C1032 C1040 1.378 . S
C1033 C1032 1.367 . S
C1033 C1041 1.433 . S
C1034 H1030 0.911 1_556 S
C1034 C1036 1.371 1_556 S
C1034 C1038 1.375 . S
C1035 C1038 1.463 . S
C1035 C1040 1.350 . S
C1035 N1043 1.427 . S
C1036 H1027 0.930 . S
C1036 C1034 1.371 1_554 S
C1036 C1037 1.367 1_554 S
C1037 C1036 1.367 1_556 S
C1037 C1039 1.433 . S
C1038 C1034 1.375 . S
C1038 C1035 1.463 . S
C1038 N1042 1.427 . S
C1039 H1029 0.929 . S
C1039 C1037 1.433 . S
C1039 N1042 1.384 . S
C1040 H1031 0.929 . S
C1040 C1032 1.378 . S
C1040 C1035 1.350 . S
C1041 H1028 0.929 . S
C1041 C1033 1.433 . S
C1041 N1043 1.384 . S
N1042 C1038 1.427 . S
N1042 C1039 1.384 . S
N1043 C1035 1.427 . S
N1043 C1041 1.384 . S
H1044 C1050 0.930 . S
H1045 C1054 0.930 . S
H1046 C1059 0.929 . S
H1047 C1057 0.929 . S
H1048 C1052 0.929 . S
H1049 C1058 0.929 . S
C1050 H1044 0.930 . S
C1050 C1051 1.367 . S
C1050 C1058 1.378 . S
C1051 C1050 1.367 . S
C1051 C1059 1.433 . S
C1052 H1048 0.929 . S
C1052 C1054 1.378 . S
C1052 C1056 1.350 . S
C1053 C1056 1.463 . S
C1053 C1058 1.350 . S
C1053 N1061 1.427 . S
C1054 H1045 0.930 . S
C1054 C1052 1.378 . S
C1054 C1055 1.367 . S
C1055 C1054 1.367 . S
C1055 C1057 1.433 . S
C1056 C1052 1.350 . S
C1056 C1053 1.463 . S
C1056 N1060 1.427 . S
C1057 H1047 0.929 . S
C1057 C1055 1.433 . S
C1057 N1060 1.384 . S
C1058 H1049 0.929 . S
C1058 C1050 1.378 . S
C1058 C1053 1.350 . S
C1059 H1046 0.929 . S
C1059 C1051 1.433 . S
C1059 N1061 1.384 . S
N1060 C1056 1.427 . S
N1060 C1057 1.384 . S
N1061 C1053 1.427 . S
N1061 C1059 1.384 . S
H1062 C1068 0.930 . S
H1063 C1072 0.930 . S
H1064 C1077 0.929 . S
H1065 C1075 0.929 1_554 S
H1066 C1070 0.929 . S
H1067 C1076 0.929 . S
C1068 H1062 0.930 . S
C1068 C1069 1.367 . S
C1068 C1076 1.378 . S
C1069 C1068 1.367 . S
C1069 C1077 1.433 . S
C1070 H1066 0.929 . S
C1070 C1072 1.378 . S
C1070 C1074 1.350 . S
C1071 C1074 1.463 . S
C1071 C1076 1.350 . S
C1071 N1079 1.427 . S
C1072 H1063 0.930 . S
C1072 C1070 1.378 . S
C1072 C1073 1.367 . S
C1073 C1072 1.367 . S
C1073 C1075 1.433 . S
C1074 C1070 1.350 . S
C1074 C1071 1.463 . S
C1074 N1078 1.427 . S
C1075 H1065 0.929 1_556 S
C1075 C1073 1.433 . S
C1075 N1078 1.384 . S
C1076 H1067 0.929 . S
C1076 C1068 1.378 . S
C1076 C1071 1.350 . S
C1077 H1064 0.929 . S
C1077 C1069 1.433 . S
C1077 N1079 1.384 . S
N1078 C1074 1.427 . S
N1078 C1075 1.384 . S
N1079 C1071 1.427 . S
N1079 C1077 1.384 . S
H1080 C1086 0.930 . S
H1081 C1090 0.930 . S
H1082 C1095 0.929 . S
H1083 C1093 0.929 . S
H1084 C1088 0.895 1_554 S
H1085 C1094 0.929 . S
C1086 H1080 0.930 . S
C1086 C1087 1.367 . S
C1086 C1094 1.378 . S
C1087 C1086 1.367 . S
C1087 C1095 1.433 . S
C1088 H1084 0.895 1_556 S
C1088 C1090 1.375 1_556 S
C1088 C1092 1.388 . S
C1089 C1092 1.463 . S
C1089 C1094 1.350 . S
C1089 N1097 1.427 . S
C1090 H1081 0.930 . S
C1090 C1088 1.375 1_554 S
C1090 C1091 1.367 1_554 S
C1091 C1090 1.367 1_556 S
C1091 C1093 1.433 . S
C1092 C1088 1.388 . S
C1092 C1089 1.463 . S
C1092 N1096 1.427 . S
C1093 H1083 0.929 . S
C1093 C1091 1.433 . S
C1093 N1096 1.384 . S
C1094 H1085 0.929 . S
C1094 C1086 1.378 . S
C1094 C1089 1.350 . S
C1095 H1082 0.929 . S
C1095 C1087 1.433 . S
C1095 N1097 1.384 . S
N1096 C1092 1.427 . S
N1096 C1093 1.384 . S
N1097 C1089 1.427 . S
N1097 C1095 1.384 . S
H1098 C1104 0.930 . S
H1099 C1108 0.952 . S
H1100 C1113 0.929 . S
H1101 C1111 0.929 . S
H1102 C1106 0.929 . S
H1103 C1112 0.929 . S
C1104 H1098 0.930 . S
C1104 C1105 1.367 . S
C1104 C1112 1.378 . S
C1105 C1104 1.367 . S
C1105 C1113 1.433 . S
C1106 H1102 0.929 . S
C1106 C1108 1.378 . S
C1106 C1110 1.350 . S
C1107 C1110 1.463 . S
C1107 C1112 1.350 . S
C1107 N1115 1.427 . S
C1108 H1099 0.952 . S
C1108 C1106 1.378 . S
C1108 C1109 1.367 . S
C1109 C1108 1.367 . S
C1109 C1111 1.433 . S
C1110 C1106 1.350 . S
C1110 C1107 1.463 . S
C1110 N1114 1.427 . S
C1111 H1101 0.929 . S
C1111 C1109 1.433 . S
C1111 N1114 1.384 . S
C1112 H1103 0.929 . S
C1112 C1104 1.378 . S
C1112 C1107 1.350 . S
C1113 H1100 0.929 . S
C1113 C1105 1.433 . S
C1113 N1115 1.384 . S
N1114 C1110 1.427 . S
N1114 C1111 1.384 . S
N1115 C1107 1.427 . S
N1115 C1113 1.384 . S
H1116 C1122 0.930 . S
H1117 C1126 0.930 . S
H1118 C1131 0.929 . S
H1119 C1129 0.929 . S
H1120 C1124 0.929 . S
H1121 C1130 0.929 . S
C1122 H1116 0.930 . S
C1122 C1123 1.367 . S
C1122 C1130 1.378 . S
C1123 C1122 1.367 . S
C1123 C1131 1.433 . S
C1124 H1120 0.929 . S
C1124 C1126 1.378 . S
C1124 C1128 1.350 . S
C1125 C1128 1.463 . S
C1125 C1130 1.350 . S
C1125 N1133 1.427 . S
C1126 H1117 0.930 . S
C1126 C1124 1.378 . S
C1126 C1127 1.367 . S
C1127 C1126 1.367 . S
C1127 C1129 1.433 . S
C1128 C1124 1.350 . S
C1128 C1125 1.463 . S
C1128 N1132 1.427 . S
C1129 H1119 0.929 . S
C1129 C1127 1.433 . S
C1129 N1132 1.384 . S
C1130 H1121 0.929 . S
C1130 C1122 1.378 . S
C1130 C1125 1.350 . S
C1131 H1118 0.929 . S
C1131 C1123 1.433 . S
C1131 N1133 1.384 . S
N1132 C1128 1.427 . S
N1132 C1129 1.384 . S
N1133 C1125 1.427 . S
N1133 C1131 1.384 . S
H1134 C1140 0.930 . S
H1135 C1144 0.930 1_556 S
H1136 C1149 0.929 . S
H1137 C1147 0.929 . S
H1138 C1142 0.929 . S
H1139 C1148 0.929 . S
C1140 H1134 0.930 . S
C1140 C1141 1.367 . S
C1140 C1148 1.378 . S
C1141 C1140 1.367 . S
C1141 C1149 1.433 . S
C1142 H1138 0.929 . S
C1142 C1144 1.378 . S
C1142 C1146 1.350 . S
C1143 C1146 1.463 . S
C1143 C1148 1.350 . S
C1143 N1151 1.427 . S
C1144 H1135 0.930 1_554 S
C1144 C1142 1.378 . S
C1144 C1145 1.367 . S
C1145 C1144 1.367 . S
C1145 C1147 1.433 . S
C1146 C1142 1.350 . S
C1146 C1143 1.463 . S
C1146 N1150 1.427 . S
C1147 H1137 0.929 . S
C1147 C1145 1.433 . S
C1147 N1150 1.384 . S
C1148 H1139 0.929 . S
C1148 C1140 1.378 . S
C1148 C1143 1.350 . S
C1149 H1136 0.929 . S
C1149 C1141 1.433 . S
C1149 N1151 1.384 . S
N1150 C1146 1.427 . S
N1150 C1147 1.384 . S
N1151 C1143 1.427 . S
N1151 C1149 1.384 . S
H1152 C1158 0.930 . S
H1153 C1162 0.930 . S
H1154 C1167 0.929 . S
H1155 C1165 0.929 . S
H1156 C1160 0.929 . S
H1157 C1166 0.929 . S
C1158 H1152 0.930 . S
C1158 C1159 1.367 . S
C1158 C1166 1.378 1_655 S
C1159 C1158 1.367 . S
C1159 C1167 1.433 . S
C1160 H1156 0.929 . S
C1160 C1162 1.378 . S
C1160 C1164 1.350 . S
C1161 C1164 1.463 . S
C1161 C1166 1.350 . S
C1161 N1169 1.427 . S
C1162 H1153 0.930 . S
C1162 C1160 1.378 . S
C1162 C1163 1.367 . S
C1163 C1162 1.367 . S
C1163 C1165 1.433 . S
C1164 C1160 1.350 . S
C1164 C1161 1.463 . S
C1164 N1168 1.427 . S
C1165 H1155 0.929 . S
C1165 C1163 1.433 . S
C1165 N1168 1.384 . S
C1166 H1157 0.929 . S
C1166 C1158 1.378 1_455 S
C1166 C1161 1.350 . S
C1167 H1154 0.929 . S
C1167 C1159 1.433 . S
C1167 N1169 1.384 1_655 S
N1168 C1164 1.427 . S
N1168 C1165 1.384 . S
N1169 C1161 1.427 . S
N1169 C1167 1.384 1_455 S
H1170 C1176 0.930 . S
H1171 C1180 0.930 . S
H1172 C1185 0.929 . S
H1173 C1183 0.929 . S
H1174 C1178 0.929 . S
H1175 C1184 0.929 . S
C1176 H1170 0.930 . S
C1176 C1177 1.367 . S
C1176 C1184 1.378 . S
C1177 C1176 1.367 . S
C1177 C1185 1.433 . S
C1178 H1174 0.929 . S
C1178 C1180 1.378 . S
C1178 C1182 1.350 . S
C1179 C1182 1.463 . S
C1179 C1184 1.350 . S
C1179 N1187 1.427 . S
C1180 H1171 0.930 . S
C1180 C1178 1.378 . S
C1180 C1181 1.367 . S
C1181 C1180 1.367 . S
C1181 C1183 1.433 . S
C1182 C1178 1.350 . S
C1182 C1179 1.463 . S
C1182 N1186 1.427 . S
C1183 H1173 0.929 . S
C1183 C1181 1.433 . S
C1183 N1186 1.384 . S
C1184 H1175 0.929 . S
C1184 C1176 1.378 . S
C1184 C1179 1.350 . S
C1185 H1172 0.929 . S
C1185 C1177 1.433 . S
C1185 N1187 1.384 . S
N1186 C1182 1.427 . S
N1186 C1183 1.384 . S
N1187 C1179 1.427 . S
N1187 C1185 1.384 . S
H1188 C1194 0.930 . S
H1189 C1198 0.930 . S
H1190 C1203 0.929 . S
H1191 C1201 0.929 . S
H1192 C1196 0.929 . S
H1193 C1202 0.929 . S
C1194 H1188 0.930 . S
C1194 C1195 1.367 . S
C1194 C1202 1.378 . S
C1195 C1194 1.367 . S
C1195 C1203 1.433 . S
C1196 H1192 0.929 . S
C1196 C1198 1.378 . S
C1196 C1200 1.350 . S
C1197 C1200 1.463 . S
C1197 C1202 1.350 1_565 S
C1197 N1205 1.427 1_565 S
C1198 H1189 0.930 . S
C1198 C1196 1.378 . S
C1198 C1199 1.367 . S
C1199 C1198 1.367 . S
C1199 C1201 1.433 . S
C1200 C1196 1.350 . S
C1200 C1197 1.463 . S
C1200 N1204 1.427 . S
C1201 H1191 0.929 . S
C1201 C1199 1.433 . S
C1201 N1204 1.384 . S
C1202 H1193 0.929 . S
C1202 C1194 1.378 . S
C1202 C1197 1.350 1_545 S
C1203 H1190 0.929 . S
C1203 C1195 1.433 . S
C1203 N1205 1.384 . S
N1204 C1200 1.427 . S
N1204 C1201 1.384 . S
N1205 C1197 1.427 1_545 S
N1205 C1203 1.384 . S
H1206 C1212 0.930 . S
H1207 C1216 0.930 . S
H1208 C1221 0.929 . S
H1209 C1219 0.929 . S
H1210 C1214 0.929 . S
H1211 C1220 0.929 . S
C1212 H1206 0.930 . S
C1212 C1213 1.367 . S
C1212 C1220 1.378 . S
C1213 C1212 1.367 . S
C1213 C1221 1.433 . S
C1214 H1210 0.929 . S
C1214 C1216 1.378 . S
C1214 C1218 1.350 . S
C1215 C1218 1.463 . S
C1215 C1220 1.350 . S
C1215 N1223 1.427 . S
C1216 H1207 0.930 . S
C1216 C1214 1.378 . S
C1216 C1217 1.367 . S
C1217 C1216 1.367 . S
C1217 C1219 1.433 . S
C1218 C1214 1.350 . S
C1218 C1215 1.463 . S
C1218 N1222 1.427 . S
C1219 H1209 0.929 . S
C1219 C1217 1.433 . S
C1219 N1222 1.384 . S
C1220 H1211 0.929 . S
C1220 C1212 1.378 . S
C1220 C1215 1.350 . S
C1221 H1208 0.929 . S
C1221 C1213 1.433 . S
C1221 N1223 1.384 . S
N1222 C1218 1.427 . S
N1222 C1219 1.384 . S
N1223 C1215 1.427 . S
N1223 C1221 1.384 . S
H1224 C1230 0.930 . S
H1225 C1234 0.930 . S
H1226 C1239 0.929 . S
H1227 C1237 0.929 . S
H1228 C1232 0.929 . S
H1229 C1238 0.929 . S
C1230 H1224 0.930 . S
C1230 C1231 1.367 . S
C1230 C1238 1.378 . S
C1231 C1230 1.367 . S
C1231 C1239 1.433 . S
C1232 H1228 0.929 . S
C1232 C1234 1.378 . S
C1232 C1236 1.350 . S
C1233 C1236 1.463 . S
C1233 C1238 1.350 . S
C1233 N1241 1.427 . S
C1234 H1225 0.930 . S
C1234 C1232 1.378 . S
C1234 C1235 1.367 . S
C1235 C1234 1.367 . S
C1235 C1237 1.433 . S
C1236 C1232 1.350 . S
C1236 C1233 1.463 . S
C1236 N1240 1.427 . S
C1237 H1227 0.929 . S
C1237 C1235 1.433 . S
C1237 N1240 1.384 . S
C1238 H1229 0.929 . S
C1238 C1230 1.378 . S
C1238 C1233 1.350 . S
C1239 H1226 0.929 . S
C1239 C1231 1.433 . S
C1239 N1241 1.384 . S
N1240 C1236 1.427 . S
N1240 C1237 1.384 . S
N1241 C1233 1.427 . S
N1241 C1239 1.384 . S
H1242 C1248 0.930 . S
H1243 C1252 0.930 . S
H1244 C1257 0.929 . S
H1245 C1255 0.929 . S
H1246 C1250 0.929 . S
H1247 C1256 0.929 . S
C1248 H1242 0.930 . S
C1248 C1249 1.367 . S
C1248 C1256 1.378 . S
C1249 C1248 1.367 . S
C1249 C1257 1.433 . S
C1250 H1246 0.929 . S
C1250 C1252 1.378 . S
C1250 C1254 1.350 . S
C1251 C1254 1.463 . S
C1251 C1256 1.350 . S
C1251 N1259 1.427 . S
C1252 H1243 0.930 . S
C1252 C1250 1.378 . S
C1252 C1253 1.367 . S
C1253 C1252 1.367 . S
C1253 C1255 1.433 . S
C1254 C1250 1.350 . S
C1254 C1251 1.463 . S
C1254 N1258 1.427 . S
C1255 H1245 0.929 . S
C1255 C1253 1.433 . S
C1255 N1258 1.384 . S
C1256 H1247 0.929 . S
C1256 C1248 1.378 . S
C1256 C1251 1.350 . S
C1257 H1244 0.929 . S
C1257 C1249 1.433 . S
C1257 N1259 1.384 . S
N1258 C1254 1.427 . S
N1258 C1255 1.384 . S
N1259 C1251 1.427 . S
N1259 C1257 1.384 . S
H1260 C1266 0.930 . S
H1261 C1270 0.930 . S
H1262 C1275 0.929 . S
H1263 C1273 0.929 . S
H1264 C1268 0.929 . S
H1265 C1274 0.929 . S
C1266 H1260 0.930 . S
C1266 C1267 1.367 . S
C1266 C1274 1.378 . S
C1267 C1266 1.367 . S
C1267 C1275 1.433 . S
C1268 H1264 0.929 . S
C1268 C1270 1.378 . S
C1268 C1272 1.350 . S
C1269 C1272 1.463 . S
C1269 C1274 1.350 . S
C1269 N1277 1.427 . S
C1270 H1261 0.930 . S
C1270 C1268 1.378 . S
C1270 C1271 1.367 . S
C1271 C1270 1.367 . S
C1271 C1273 1.433 . S
C1272 C1268 1.350 . S
C1272 C1269 1.463 . S
C1272 N1276 1.427 . S
C1273 H1263 0.929 . S
C1273 C1271 1.433 . S
C1273 N1276 1.384 . S
C1274 H1265 0.929 . S
C1274 C1266 1.378 . S
C1274 C1269 1.350 . S
C1275 H1262 0.929 . S
C1275 C1267 1.433 . S
C1275 N1277 1.384 . S
N1276 C1272 1.427 . S
N1276 C1273 1.384 . S
N1277 C1269 1.427 . S
N1277 C1275 1.384 . S
H1278 C1284 0.930 . S
H1279 C1288 0.930 . S
H1280 C1293 0.929 . S
H1281 C1291 0.929 . S
H1282 C1286 0.929 . S
H1283 C1292 0.929 . S
C1284 H1278 0.930 . S
C1284 C1285 1.367 . S
C1284 C1292 1.378 . S
C1285 C1284 1.367 . S
C1285 C1293 1.433 . S
C1286 H1282 0.929 . S
C1286 C1288 1.378 . S
C1286 C1290 1.350 . S
C1287 C1290 1.463 . S
C1287 C1292 1.350 . S
C1287 N1295 1.427 . S
C1288 H1279 0.930 . S
C1288 C1286 1.378 . S
C1288 C1289 1.367 . S
C1289 C1288 1.367 . S
C1289 C1291 1.433 . S
C1290 C1286 1.350 . S
C1290 C1287 1.463 . S
C1290 N1294 1.427 . S
C1291 H1281 0.929 . S
C1291 C1289 1.433 . S
C1291 N1294 1.384 . S
C1292 H1283 0.929 . S
C1292 C1284 1.378 . S
C1292 C1287 1.350 . S
C1293 H1280 0.929 . S
C1293 C1285 1.433 . S
C1293 N1295 1.384 . S
N1294 C1290 1.427 . S
N1294 C1291 1.384 . S
N1295 C1287 1.427 . S
N1295 C1293 1.384 . S
H1296 C1302 0.930 . S
H1297 C1306 0.930 . S
H1298 C1311 0.929 . S
H1299 C1309 0.929 . S
H1300 C1304 0.929 . S
H1301 C1310 0.929 . S
C1302 H1296 0.930 . S
C1302 C1303 1.367 . S
C1302 C1310 1.378 . S
C1303 C1302 1.367 . S
C1303 C1311 1.433 . S
C1304 H1300 0.929 . S
C1304 C1306 1.378 . S
C1304 C1308 1.350 . S
C1305 C1308 1.463 . S
C1305 C1310 1.350 . S
C1305 N1313 1.427 . S
C1306 H1297 0.930 . S
C1306 C1304 1.378 . S
C1306 C1307 1.367 . S
C1307 C1306 1.367 . S
C1307 C1309 1.433 . S
C1308 C1304 1.350 . S
C1308 C1305 1.463 . S
C1308 N1312 1.427 . S
C1309 H1299 0.929 . S
C1309 C1307 1.433 . S
C1309 N1312 1.384 . S
C1310 H1301 0.929 . S
C1310 C1302 1.378 . S
C1310 C1305 1.350 . S
C1311 H1298 0.929 . S
C1311 C1303 1.433 . S
C1311 N1313 1.384 . S
N1312 C1308 1.427 . S
N1312 C1309 1.384 . S
N1313 C1305 1.427 . S
N1313 C1311 1.384 . S
H1314 C1320 0.930 . S
H1315 C1324 0.930 . S
H1316 C1329 0.929 . S
H1317 C1327 0.929 . S
H1318 C1322 0.929 . S
H1319 C1328 0.929 1_565 S
C1320 H1314 0.930 . S
C1320 C1321 1.367 . S
C1320 C1328 1.378 . S
C1321 C1320 1.367 . S
C1321 C1329 1.433 . S
C1322 H1318 0.929 . S
C1322 C1324 1.378 . S
C1322 C1326 1.350 . S
C1323 C1326 1.463 . S
C1323 C1328 1.350 1_565 S
C1323 N1331 1.427 1_565 S
C1324 H1315 0.930 . S
C1324 C1322 1.378 . S
C1324 C1325 1.367 . S
C1325 C1324 1.367 . S
C1325 C1327 1.433 . S
C1326 C1322 1.350 . S
C1326 C1323 1.463 . S
C1326 N1330 1.427 . S
C1327 H1317 0.929 . S
C1327 C1325 1.433 . S
C1327 N1330 1.384 . S
C1328 H1319 0.929 1_545 S
C1328 C1320 1.378 . S
C1328 C1323 1.350 1_545 S
C1329 H1316 0.929 . S
C1329 C1321 1.433 . S
C1329 N1331 1.384 . S
N1330 C1326 1.427 . S
N1330 C1327 1.384 . S
N1331 C1323 1.427 1_545 S
N1331 C1329 1.384 . S
H1332 C1338 0.930 . S
H1333 C1342 0.930 . S
H1334 C1347 0.929 . S
H1335 C1345 0.929 . S
H1336 C1340 0.929 . S
H1337 C1346 0.929 . S
C1338 H1332 0.930 . S
C1338 C1339 1.367 . S
C1338 C1346 1.378 1_655 S
C1339 C1338 1.367 . S
C1339 C1347 1.433 . S
C1340 H1336 0.929 . S
C1340 C1342 1.378 . S
C1340 C1344 1.350 . S
C1341 C1344 1.463 . S
C1341 C1346 1.350 . S
C1341 N1349 1.427 . S
C1342 H1333 0.930 . S
C1342 C1340 1.378 . S
C1342 C1343 1.367 . S
C1343 C1342 1.367 . S
C1343 C1345 1.433 . S
C1344 C1340 1.350 . S
C1344 C1341 1.463 . S
C1344 N1348 1.427 . S
C1345 H1335 0.929 . S
C1345 C1343 1.433 . S
C1345 N1348 1.384 . S
C1346 H1337 0.929 . S
C1346 C1338 1.378 1_455 S
C1346 C1341 1.350 . S
C1347 H1334 0.929 . S
C1347 C1339 1.433 . S
C1347 N1349 1.384 1_655 S
N1348 C1344 1.427 . S
N1348 C1345 1.384 . S
N1349 C1341 1.427 . S
N1349 C1347 1.384 1_455 S
H1350 C1356 0.930 . S
H1351 C1360 0.930 . S
H1352 C1365 0.929 . S
H1353 C1363 0.929 . S
H1354 C1358 0.929 . S
H1355 C1364 0.929 . S
C1356 H1350 0.930 . S
C1356 C1357 1.367 . S
C1356 C1364 1.378 . S
C1357 C1356 1.367 . S
C1357 C1365 1.433 . S
C1358 H1354 0.929 . S
C1358 C1360 1.378 . S
C1358 C1362 1.350 . S
C1359 C1362 1.463 . S
C1359 C1364 1.350 . S
C1359 N1367 1.427 . S
C1360 H1351 0.930 . S
C1360 C1358 1.378 . S
C1360 C1361 1.367 . S
C1361 C1360 1.367 . S
C1361 C1363 1.433 . S
C1362 C1358 1.350 . S
C1362 C1359 1.463 . S
C1362 N1366 1.427 . S
C1363 H1353 0.929 . S
C1363 C1361 1.433 . S
C1363 N1366 1.384 . S
C1364 H1355 0.929 . S
C1364 C1356 1.378 . S
C1364 C1359 1.350 . S
C1365 H1352 0.929 . S
C1365 C1357 1.433 . S
C1365 N1367 1.384 . S
N1366 C1362 1.427 . S
N1366 C1363 1.384 . S
N1367 C1359 1.427 . S
N1367 C1365 1.384 . S
H1368 C1374 0.930 . S
H1369 C1378 0.930 . S
H1370 C1383 0.929 . S
H1371 C1381 0.929 . S
H1372 C1376 0.929 . S
H1373 C1382 0.929 . S
C1374 H1368 0.930 . S
C1374 C1375 1.367 . S
C1374 C1382 1.378 . S
C1375 C1374 1.367 . S
C1375 C1383 1.433 . S
C1376 H1372 0.929 . S
C1376 C1378 1.378 . S
C1376 C1380 1.350 . S
C1377 C1380 1.463 . S
C1377 C1382 1.350 . S
C1377 N1385 1.427 . S
C1378 H1369 0.930 . S
C1378 C1376 1.378 . S
C1378 C1379 1.367 . S
C1379 C1378 1.367 . S
C1379 C1381 1.433 . S
C1380 C1376 1.350 . S
C1380 C1377 1.463 . S
C1380 N1384 1.427 . S
C1381 H1371 0.929 . S
C1381 C1379 1.433 . S
C1381 N1384 1.384 . S
C1382 H1373 0.929 . S
C1382 C1374 1.378 . S
C1382 C1377 1.350 . S
C1383 H1370 0.929 . S
C1383 C1375 1.433 . S
C1383 N1385 1.384 . S
N1384 C1380 1.427 . S
N1384 C1381 1.384 . S
N1385 C1377 1.427 . S
N1385 C1383 1.384 . S
H1386 C1392 0.930 . S
H1387 C1396 0.930 . S
H1388 C1401 0.929 . S
H1389 C1399 0.929 . S
H1390 C1394 0.929 . S
H1391 C1400 0.929 . S
C1392 H1386 0.930 . S
C1392 C1393 1.367 . S
C1392 C1400 1.378 . S
C1393 C1392 1.367 . S
C1393 C1401 1.433 . S
C1394 H1390 0.929 . S
C1394 C1396 1.378 . S
C1394 C1398 1.350 . S
C1395 C1398 1.463 . S
C1395 C1400 1.350 . S
C1395 N1403 1.427 . S
C1396 H1387 0.930 . S
C1396 C1394 1.378 . S
C1396 C1397 1.367 . S
C1397 C1396 1.367 . S
C1397 C1399 1.433 . S
C1398 C1394 1.350 . S
C1398 C1395 1.463 . S
C1398 N1402 1.427 . S
C1399 H1389 0.929 . S
C1399 C1397 1.433 . S
C1399 N1402 1.384 . S
C1400 H1391 0.929 . S
C1400 C1392 1.378 . S
C1400 C1395 1.350 . S
C1401 H1388 0.929 . S
C1401 C1393 1.433 . S
C1401 N1403 1.384 . S
N1402 C1398 1.427 . S
N1402 C1399 1.384 . S
N1403 C1395 1.427 . S
N1403 C1401 1.384 . S
H1404 C1410 0.930 . S
H1405 C1414 0.930 . S
H1406 C1419 0.929 . S
H1407 C1417 0.929 . S
H1408 C1412 0.929 . S
H1409 C1418 0.929 . S
C1410 H1404 0.930 . S
C1410 C1411 1.367 . S
C1410 C1418 1.378 . S
C1411 C1410 1.367 . S
C1411 C1419 1.433 . S
C1412 H1408 0.929 . S
C1412 C1414 1.378 . S
C1412 C1416 1.350 . S
C1413 C1416 1.463 . S
C1413 C1418 1.350 . S
C1413 N1421 1.427 . S
C1414 H1405 0.930 . S
C1414 C1412 1.378 . S
C1414 C1415 1.367 . S
C1415 C1414 1.367 . S
C1415 C1417 1.433 . S
C1416 C1412 1.350 . S
C1416 C1413 1.463 . S
C1416 N1420 1.427 . S
C1417 H1407 0.929 . S
C1417 C1415 1.433 . S
C1417 N1420 1.384 . S
C1418 H1409 0.929 . S
C1418 C1410 1.378 . S
C1418 C1413 1.350 . S
C1419 H1406 0.929 . S
C1419 C1411 1.433 . S
C1419 N1421 1.384 . S
N1420 C1416 1.427 . S
N1420 C1417 1.384 . S
N1421 C1413 1.427 . S
N1421 C1419 1.384 . S
H1422 C1428 0.930 . S
H1423 C1432 0.930 . S
H1424 C1437 0.929 . S
H1425 C1435 0.929 . S
H1426 C1430 0.929 . S
H1427 C1436 0.929 1_545 S
C1428 H1422 0.930 . S
C1428 C1429 1.367 . S
C1428 C1436 1.378 . S
C1429 C1428 1.367 . S
C1429 C1437 1.433 . S
C1430 H1426 0.929 . S
C1430 C1432 1.378 . S
C1430 C1434 1.350 . S
C1431 C1434 1.463 . S
C1431 C1436 1.350 1_545 S
C1431 N1439 1.427 1_545 S
C1432 H1423 0.930 . S
C1432 C1430 1.378 . S
C1432 C1433 1.367 . S
C1433 C1432 1.367 . S
C1433 C1435 1.433 . S
C1434 C1430 1.350 . S
C1434 C1431 1.463 . S
C1434 N1438 1.427 . S
C1435 H1425 0.929 . S
C1435 C1433 1.433 . S
C1435 N1438 1.384 . S
C1436 H1427 0.929 1_565 S
C1436 C1428 1.378 . S
C1436 C1431 1.350 1_565 S
C1437 H1424 0.929 . S
C1437 C1429 1.433 . S
C1437 N1439 1.384 . S
N1438 C1434 1.427 . S
N1438 C1435 1.384 . S
N1439 C1431 1.427 1_565 S
N1439 C1437 1.384 . S
H1440 C1446 0.930 . S
H1441 C1450 0.930 . S
H1442 C1455 0.929 . S
H1443 C1453 0.929 . S
H1444 C1448 0.929 . S
H1445 C1454 0.929 . S
C1446 H1440 0.930 . S
C1446 C1447 1.367 . S
C1446 C1454 1.378 1_455 S
C1447 C1446 1.367 . S
C1447 C1455 1.433 . S
C1448 H1444 0.929 . S
C1448 C1450 1.378 . S
C1448 C1452 1.350 . S
C1449 C1452 1.463 . S
C1449 C1454 1.350 . S
C1449 N1457 1.427 . S
C1450 H1441 0.930 . S
C1450 C1448 1.378 . S
C1450 C1451 1.367 . S
C1451 C1450 1.367 . S
C1451 C1453 1.433 . S
C1452 C1448 1.350 . S
C1452 C1449 1.463 . S
C1452 N1456 1.427 . S
C1453 H1443 0.929 . S
C1453 C1451 1.433 . S
C1453 N1456 1.384 . S
C1454 H1445 0.929 . S
C1454 C1446 1.378 1_655 S
C1454 C1449 1.350 . S
C1455 H1442 0.929 . S
C1455 C1447 1.433 . S
C1455 N1457 1.384 1_455 S
N1456 C1452 1.427 . S
N1456 C1453 1.384 . S
N1457 C1449 1.427 . S
N1457 C1455 1.384 1_655 S
H1458 C1464 0.930 . S
H1459 C1468 0.930 . S
H1460 C1473 0.929 . S
H1461 C1471 0.929 . S
H1462 C1466 0.929 . S
H1463 C1472 0.929 . S
C1464 H1458 0.930 . S
C1464 C1465 1.367 . S
C1464 C1472 1.378 . S
C1465 C1464 1.367 . S
C1465 C1473 1.433 . S
C1466 H1462 0.929 . S
C1466 C1468 1.378 . S
C1466 C1470 1.350 . S
C1467 C1470 1.463 . S
C1467 C1472 1.350 . S
C1467 N1475 1.427 . S
C1468 H1459 0.930 . S
C1468 C1466 1.378 . S
C1468 C1469 1.367 . S
C1469 C1468 1.367 . S
C1469 C1471 1.433 . S
C1470 C1466 1.350 . S
C1470 C1467 1.463 . S
C1470 N1474 1.427 . S
C1471 H1461 0.929 . S
C1471 C1469 1.433 . S
C1471 N1474 1.384 . S
C1472 H1463 0.929 . S
C1472 C1464 1.378 . S
C1472 C1467 1.350 . S
C1473 H1460 0.929 . S
C1473 C1465 1.433 . S
C1473 N1475 1.384 . S
N1474 C1470 1.427 . S
N1474 C1471 1.384 . S
N1475 C1467 1.427 . S
N1475 C1473 1.384 . S
H1476 C1482 0.930 . S
H1477 C1486 0.930 . S
H1478 C1491 0.929 . S
H1479 C1489 0.929 . S
H1480 C1484 0.929 . S
H1481 C1490 0.930 1_655 S
C1482 H1476 0.930 . S
C1482 C1483 1.367 . S
C1482 C1490 1.378 . S
C1483 C1482 1.367 . S
C1483 C1491 1.433 . S
C1484 H1480 0.929 . S
C1484 C1486 1.378 . S
C1484 C1488 1.350 . S
C1485 C1488 1.463 . S
C1485 C1490 1.350 1_655 S
C1485 N1493 1.427 . S
C1486 H1477 0.930 . S
C1486 C1484 1.378 . S
C1486 C1487 1.367 . S
C1487 C1486 1.367 . S
C1487 C1489 1.433 . S
C1488 C1484 1.350 . S
C1488 C1485 1.463 . S
C1488 N1492 1.427 . S
C1489 H1479 0.929 . S
C1489 C1487 1.433 . S
C1489 N1492 1.384 . S
C1490 H1481 0.930 1_455 S
C1490 C1482 1.378 . S
C1490 C1485 1.350 1_455 S
C1491 H1478 0.929 . S
C1491 C1483 1.433 . S
C1491 N1493 1.384 1_455 S
N1492 C1488 1.427 . S
N1492 C1489 1.384 . S
N1493 C1485 1.427 . S
N1493 C1491 1.384 1_655 S
H1494 C1500 0.930 . S
H1495 C1504 0.930 . S
H1496 C1509 0.929 . S
H1497 C1507 0.929 . S
H1498 C1502 0.929 . S
H1499 C1508 0.929 . S
C1500 H1494 0.930 . S
C1500 C1501 1.367 . S
C1500 C1508 1.378 . S
C1501 C1500 1.367 . S
C1501 C1509 1.433 . S
C1502 H1498 0.929 . S
C1502 C1504 1.378 . S
C1502 C1506 1.350 . S
C1503 C1506 1.463 . S
C1503 C1508 1.350 . S
C1503 N1511 1.427 . S
C1504 H1495 0.930 . S
C1504 C1502 1.378 . S
C1504 C1505 1.367 . S
C1505 C1504 1.367 . S
C1505 C1507 1.433 . S
C1506 C1502 1.350 . S
C1506 C1503 1.463 . S
C1506 N1510 1.427 . S
C1507 H1497 0.929 . S
C1507 C1505 1.433 . S
C1507 N1510 1.384 . S
C1508 H1499 0.929 . S
C1508 C1500 1.378 . S
C1508 C1503 1.350 . S
C1509 H1496 0.929 . S
C1509 C1501 1.433 . S
C1509 N1511 1.384 . S
N1510 C1506 1.427 . S
N1510 C1507 1.384 . S
N1511 C1503 1.427 . S
N1511 C1509 1.384 . S
H1512 C1518 0.930 . S
H1513 C1522 0.930 . S
H1514 C1527 0.929 . S
H1515 C1525 0.929 . S
H1516 C1520 0.929 . S
H1517 C1526 0.929 1_545 S
C1518 H1512 0.930 . S
C1518 C1519 1.367 . S
C1518 C1526 1.378 . S
C1519 C1518 1.367 . S
C1519 C1527 1.433 . S
C1520 H1516 0.929 . S
C1520 C1522 1.378 . S
C1520 C1524 1.350 . S
C1521 C1524 1.463 . S
C1521 C1526 1.350 1_545 S
C1521 N1529 1.427 1_545 S
C1522 H1513 0.930 . S
C1522 C1520 1.378 . S
C1522 C1523 1.367 . S
C1523 C1522 1.367 . S
C1523 C1525 1.433 . S
C1524 C1520 1.350 . S
C1524 C1521 1.463 . S
C1524 N1528 1.427 . S
C1525 H1515 0.929 . S
C1525 C1523 1.433 . S
C1525 N1528 1.384 . S
C1526 H1517 0.929 1_565 S
C1526 C1518 1.378 . S
C1526 C1521 1.350 1_565 S
C1527 H1514 0.929 . S
C1527 C1519 1.433 . S
C1527 N1529 1.384 . S
N1528 C1524 1.427 . S
N1528 C1525 1.384 . S
N1529 C1521 1.427 1_565 S
N1529 C1527 1.384 . S
H1530 C1536 0.930 . S
H1531 C1540 0.930 . S
H1532 C1545 0.929 . S
H1533 C1543 0.929 . S
H1534 C1538 0.929 . S
H1535 C1544 0.929 . S
C1536 H1530 0.930 . S
C1536 C1537 1.367 . S
C1536 C1544 1.378 . S
C1537 C1536 1.367 . S
C1537 C1545 1.433 . S
C1538 H1534 0.929 . S
C1538 C1540 1.378 . S
C1538 C1542 1.350 . S
C1539 C1542 1.463 . S
C1539 C1544 1.350 . S
C1539 N1547 1.427 . S
C1540 H1531 0.930 . S
C1540 C1538 1.378 . S
C1540 C1541 1.367 . S
C1541 C1540 1.367 . S
C1541 C1543 1.433 . S
C1542 C1538 1.350 . S
C1542 C1539 1.463 . S
C1542 N1546 1.427 . S
C1543 H1533 0.929 . S
C1543 C1541 1.433 . S
C1543 N1546 1.384 . S
C1544 H1535 0.929 . S
C1544 C1536 1.378 . S
C1544 C1539 1.350 . S
C1545 H1532 0.929 . S
C1545 C1537 1.433 . S
C1545 N1547 1.384 . S
N1546 C1542 1.427 . S
N1546 C1543 1.384 . S
N1547 C1539 1.427 . S
N1547 C1545 1.384 . S
H1548 C1554 0.930 . S
H1549 C1558 0.930 . S
H1550 C1563 0.929 . S
H1551 C1561 0.929 . S
H1552 C1556 0.929 . S
H1553 C1562 0.929 . S
C1554 H1548 0.930 . S
C1554 C1555 1.367 . S
C1554 C1562 1.378 . S
C1555 C1554 1.367 . S
C1555 C1563 1.433 . S
C1556 H1552 0.929 . S
C1556 C1558 1.378 . S
C1556 C1560 1.350 . S
C1557 C1560 1.463 . S
C1557 C1562 1.350 . S
C1557 N1565 1.427 . S
C1558 H1549 0.930 . S
C1558 C1556 1.378 . S
C1558 C1559 1.367 . S
C1559 C1558 1.367 . S
C1559 C1561 1.433 . S
C1560 C1556 1.350 . S
C1560 C1557 1.463 . S
C1560 N1564 1.427 . S
C1561 H1551 0.929 . S
C1561 C1559 1.433 . S
C1561 N1564 1.384 . S
C1562 H1553 0.929 . S
C1562 C1554 1.378 . S
C1562 C1557 1.350 . S
C1563 H1550 0.929 . S
C1563 C1555 1.433 . S
C1563 N1565 1.384 . S
N1564 C1560 1.427 . S
N1564 C1561 1.384 . S
N1565 C1557 1.427 . S
N1565 C1563 1.384 . S
H1566 C1572 0.930 . S
H1567 C1576 0.930 . S
H1568 C1581 0.929 . S
H1569 C1579 0.929 . S
H1570 C1574 0.929 . S
H1571 C1580 0.929 . S
C1572 H1566 0.930 . S
C1572 C1573 1.367 . S
C1572 C1580 1.378 . S
C1573 C1572 1.367 . S
C1573 C1581 1.433 . S
C1574 H1570 0.929 . S
C1574 C1576 1.378 . S
C1574 C1578 1.350 . S
C1575 C1578 1.463 . S
C1575 C1580 1.350 . S
C1575 N1583 1.427 . S
C1576 H1567 0.930 . S
C1576 C1574 1.378 . S
C1576 C1577 1.367 . S
C1577 C1576 1.367 . S
C1577 C1579 1.433 . S
C1578 C1574 1.350 . S
C1578 C1575 1.463 . S
C1578 N1582 1.427 . S
C1579 H1569 0.929 . S
C1579 C1577 1.433 . S
C1579 N1582 1.384 . S
C1580 H1571 0.929 . S
C1580 C1572 1.378 . S
C1580 C1575 1.350 . S
C1581 H1568 0.929 . S
C1581 C1573 1.433 . S
C1581 N1583 1.384 . S
N1582 C1578 1.427 . S
N1582 C1579 1.384 . S
N1583 C1575 1.427 . S
N1583 C1581 1.384 . S
H1584 C1590 0.930 . S
H1585 C1594 0.930 . S
H1586 C1599 0.929 . S
H1587 C1597 0.929 . S
H1588 C1592 0.929 . S
H1589 C1598 0.929 1_545 S
C1590 H1584 0.930 . S
C1590 C1591 1.367 . S
C1590 C1598 1.378 . S
C1591 C1590 1.367 . S
C1591 C1599 1.433 . S
C1592 H1588 0.929 . S
C1592 C1594 1.378 . S
C1592 C1596 1.350 . S
C1593 C1596 1.463 . S
C1593 C1598 1.350 . S
C1593 N1601 1.427 . S
C1594 H1585 0.930 . S
C1594 C1592 1.378 . S
C1594 C1595 1.367 . S
C1595 C1594 1.367 . S
C1595 C1597 1.433 1_565 S
C1596 C1592 1.350 . S
C1596 C1593 1.463 . S
C1596 N1600 1.427 1_565 S
C1597 H1587 0.929 . S
C1597 C1595 1.433 1_545 S
C1597 N1600 1.384 . S
C1598 H1589 0.929 1_565 S
C1598 C1590 1.378 . S
C1598 C1593 1.350 . S
C1599 H1586 0.929 . S
C1599 C1591 1.433 . S
C1599 N1601 1.384 . S
N1600 C1596 1.427 1_545 S
N1600 C1597 1.384 . S
N1601 C1593 1.427 . S
N1601 C1599 1.384 . S
H1602 C1608 0.930 . S
H1603 C1612 0.930 . S
H1604 C1617 0.929 . S
H1605 C1615 0.929 . S
H1606 C1610 0.929 . S
H1607 C1616 0.929 . S
C1608 H1602 0.930 . S
C1608 C1609 1.367 . S
C1608 C1616 1.378 . S
C1609 C1608 1.367 . S
C1609 C1617 1.433 1_455 S
C1610 H1606 0.929 . S
C1610 C1612 1.378 . S
C1610 C1614 1.350 1_655 S
C1611 C1614 1.463 . S
C1611 C1616 1.350 . S
C1611 N1619 1.427 1_455 S
C1612 H1603 0.930 . S
C1612 C1610 1.378 . S
C1612 C1613 1.367 1_655 S
C1613 C1612 1.367 1_455 S
C1613 C1615 1.433 . S
C1614 C1610 1.350 1_455 S
C1614 C1611 1.463 . S
C1614 N1618 1.427 . S
C1615 H1605 0.929 . S
C1615 C1613 1.433 . S
C1615 N1618 1.384 . S
C1616 H1607 0.929 . S
C1616 C1608 1.378 . S
C1616 C1611 1.350 . S
C1617 H1604 0.929 . S
C1617 C1609 1.433 1_655 S
C1617 N1619 1.384 . S
N1618 C1614 1.427 . S
N1618 C1615 1.384 . S
N1619 C1611 1.427 1_655 S
N1619 C1617 1.384 . S
H1620 C1626 0.930 . S
H1621 C1630 0.930 . S
H1622 C1635 0.929 . S
H1623 C1633 0.929 . S
H1624 C1628 0.929 . S
H1625 C1634 0.929 . S
C1626 H1620 0.930 . S
C1626 C1627 1.367 . S
C1626 C1634 1.378 . S
C1627 C1626 1.367 . S
C1627 C1635 1.433 . S
C1628 H1624 0.929 . S
C1628 C1630 1.378 . S
C1628 C1632 1.350 . S
C1629 C1632 1.463 . S
C1629 C1634 1.350 . S
C1629 N1637 1.427 . S
C1630 H1621 0.930 . S
C1630 C1628 1.378 . S
C1630 C1631 1.367 . S
C1631 C1630 1.367 . S
C1631 C1633 1.433 . S
C1632 C1628 1.350 . S
C1632 C1629 1.463 . S
C1632 N1636 1.427 . S
C1633 H1623 0.929 . S
C1633 C1631 1.433 . S
C1633 N1636 1.384 . S
C1634 H1625 0.929 . S
C1634 C1626 1.378 . S
C1634 C1629 1.350 . S
C1635 H1622 0.929 . S
C1635 C1627 1.433 . S
C1635 N1637 1.384 . S
N1636 C1632 1.427 . S
N1636 C1633 1.384 . S
N1637 C1629 1.427 . S
N1637 C1635 1.384 . S
H1638 C1644 0.930 . S
H1639 C1648 0.930 . S
H1640 C1653 0.929 . S
H1641 C1651 0.929 . S
H1642 C1646 0.929 . S
H1643 C1652 0.929 . S
C1644 H1638 0.930 . S
C1644 C1645 1.367 . S
C1644 C1652 1.378 . S
C1645 C1644 1.367 . S
C1645 C1653 1.433 . S
C1646 H1642 0.929 . S
C1646 C1648 1.378 . S
C1646 C1650 1.350 . S
C1647 C1650 1.463 . S
C1647 C1652 1.350 . S
C1647 N1655 1.427 . S
C1648 H1639 0.930 . S
C1648 C1646 1.378 . S
C1648 C1649 1.367 . S
C1649 C1648 1.367 . S
C1649 C1651 1.433 . S
C1650 C1646 1.350 . S
C1650 C1647 1.463 . S
C1650 N1654 1.427 . S
C1651 H1641 0.929 . S
C1651 C1649 1.433 . S
C1651 N1654 1.384 . S
C1652 H1643 0.929 . S
C1652 C1644 1.378 . S
C1652 C1647 1.350 . S
C1653 H1640 0.929 . S
C1653 C1645 1.433 . S
C1653 N1655 1.384 . S
N1654 C1650 1.427 . S
N1654 C1651 1.384 . S
N1655 C1647 1.427 . S
N1655 C1653 1.384 . S
H1656 C1662 0.930 . S
H1657 C1666 0.930 . S
H1658 C1671 0.929 . S
H1659 C1669 0.929 . S
H1660 C1664 0.929 . S
H1661 C1670 0.929 . S
C1662 H1656 0.930 . S
C1662 C1663 1.367 . S
C1662 C1670 1.378 . S
C1663 C1662 1.367 . S
C1663 C1671 1.433 . S
C1664 H1660 0.929 . S
C1664 C1666 1.378 . S
C1664 C1668 1.350 . S
C1665 C1668 1.463 . S
C1665 C1670 1.350 . S
C1665 N1673 1.427 . S
C1666 H1657 0.930 . S
C1666 C1664 1.378 . S
C1666 C1667 1.367 . S
C1667 C1666 1.367 . S
C1667 C1669 1.433 . S
C1668 C1664 1.350 . S
C1668 C1665 1.463 . S
C1668 N1672 1.427 . S
C1669 H1659 0.929 . S
C1669 C1667 1.433 . S
C1669 N1672 1.384 . S
C1670 H1661 0.929 . S
C1670 C1662 1.378 . S
C1670 C1665 1.350 . S
C1671 H1658 0.929 . S
C1671 C1663 1.433 . S
C1671 N1673 1.384 . S
N1672 C1668 1.427 . S
N1672 C1669 1.384 . S
N1673 C1665 1.427 . S
N1673 C1671 1.384 . S
H1674 C1680 0.930 . S
H1675 C1684 0.930 . S
H1676 C1689 0.929 . S
H1677 C1687 0.929 . S
H1678 C1682 0.929 . S
H1679 C1688 0.929 1_565 S
C1680 H1674 0.930 . S
C1680 C1681 1.367 . S
C1680 C1688 1.378 . S
C1681 C1680 1.367 . S
C1681 C1689 1.433 . S
C1682 H1678 0.929 . S
C1682 C1684 1.378 . S
C1682 C1686 1.350 . S
C1683 C1686 1.463 . S
C1683 C1688 1.350 . S
C1683 N1691 1.427 . S
C1684 H1675 0.930 . S
C1684 C1682 1.378 . S
C1684 C1685 1.367 . S
C1685 C1684 1.367 . S
C1685 C1687 1.433 1_545 S
C1686 C1682 1.350 . S
C1686 C1683 1.463 . S
C1686 N1690 1.386 1_545 S
C1687 H1677 0.929 . S
C1687 C1685 1.433 1_565 S
C1687 N1690 1.397 . S
C1688 H1679 0.929 1_545 S
C1688 C1680 1.378 . S
C1688 C1683 1.350 . S
C1689 H1676 0.929 . S
C1689 C1681 1.433 . S
C1689 N1691 1.384 . S
N1690 C1686 1.386 1_565 S
N1690 C1687 1.397 . S
N1691 C1683 1.427 . S
N1691 C1689 1.384 . S
H1692 C1698 0.930 . S
H1693 C1702 0.930 . S
H1694 C1707 0.929 . S
H1695 C1705 0.929 . S
H1696 C1700 0.929 . S
H1697 C1706 0.929 . S
C1698 H1692 0.930 . S
C1698 C1699 1.367 . S
C1698 C1706 1.378 . S
C1699 C1698 1.367 . S
C1699 C1707 1.433 . S
C1700 H1696 0.929 . S
C1700 C1702 1.378 . S
C1700 C1704 1.350 . S
C1701 C1704 1.463 . S
C1701 C1706 1.350 . S
C1701 N1709 1.427 . S
C1702 H1693 0.930 . S
C1702 C1700 1.378 . S
C1702 C1703 1.367 . S
C1703 C1702 1.367 . S
C1703 C1705 1.433 . S
C1704 C1700 1.350 . S
C1704 C1701 1.463 . S
C1704 N1708 1.427 . S
C1705 H1695 0.929 . S
C1705 C1703 1.433 . S
C1705 N1708 1.384 . S
C1706 H1697 0.929 . S
C1706 C1698 1.378 . S
C1706 C1701 1.350 . S
C1707 H1694 0.929 . S
C1707 C1699 1.433 . S
C1707 N1709 1.384 . S
N1708 C1704 1.427 . S
N1708 C1705 1.384 . S
N1709 C1701 1.427 . S
N1709 C1707 1.384 . S
H1710 C1716 0.930 . S
H1711 C1720 0.930 . S
H1712 C1725 0.929 . S
H1713 C1723 0.929 . S
H1714 C1718 0.929 . S
H1715 C1724 0.929 . S
C1716 H1710 0.930 . S
C1716 C1717 1.367 . S
C1716 C1724 1.378 . S
C1717 C1716 1.367 . S
C1717 C1725 1.433 . S
C1718 H1714 0.929 . S
C1718 C1720 1.378 . S
C1718 C1722 1.350 . S
C1719 C1722 1.463 . S
C1719 C1724 1.350 . S
C1719 N1727 1.427 . S
C1720 H1711 0.930 . S
C1720 C1718 1.378 . S
C1720 C1721 1.367 . S
C1721 C1720 1.367 . S
C1721 C1723 1.433 . S
C1722 C1718 1.350 . S
C1722 C1719 1.463 . S
C1722 N1726 1.427 . S
C1723 H1713 0.929 . S
C1723 C1721 1.433 . S
C1723 N1726 1.384 . S
C1724 H1715 0.929 . S
C1724 C1716 1.378 . S
C1724 C1719 1.350 . S
C1725 H1712 0.929 . S
C1725 C1717 1.433 . S
C1725 N1727 1.384 . S
N1726 C1722 1.427 . S
N1726 C1723 1.384 . S
N1727 C1719 1.427 . S
N1727 C1725 1.384 . S
H1728 C1734 0.930 . S
H1729 C1738 0.930 . S
H1730 C1743 0.929 . S
H1731 C1741 0.929 . S
H1732 C1736 0.929 . S
H1733 C1742 0.929 . S
C1734 H1728 0.930 . S
C1734 C1735 1.367 . S
C1734 C1742 1.378 . S
C1735 C1734 1.367 . S
C1735 C1743 1.433 . S
C1736 H1732 0.929 . S
C1736 C1738 1.378 . S
C1736 C1740 1.350 . S
C1737 C1740 1.463 . S
C1737 C1742 1.350 . S
C1737 N1745 1.427 . S
C1738 H1729 0.930 . S
C1738 C1736 1.378 . S
C1738 C1739 1.367 . S
C1739 C1738 1.367 . S
C1739 C1741 1.433 . S
C1740 C1736 1.350 . S
C1740 C1737 1.463 . S
C1740 N1744 1.427 . S
C1741 H1731 0.929 . S
C1741 C1739 1.433 . S
C1741 N1744 1.384 . S
C1742 H1733 0.929 . S
C1742 C1734 1.378 . S
C1742 C1737 1.350 . S
C1743 H1730 0.929 . S
C1743 C1735 1.433 . S
C1743 N1745 1.384 . S
N1744 C1740 1.427 . S
N1744 C1741 1.384 . S
N1745 C1737 1.427 . S
N1745 C1743 1.384 . S
H1746 C1752 0.930 . S
H1747 C1756 0.930 . S
H1748 C1761 0.929 . S
H1749 C1759 0.929 . S
H1750 C1754 0.929 . S
H1751 C1760 0.929 . S
C1752 H1746 0.930 . S
C1752 C1753 1.367 . S
C1752 C1760 1.378 . S
C1753 C1752 1.367 . S
C1753 C1761 1.433 . S
C1754 H1750 0.929 . S
C1754 C1756 1.378 . S
C1754 C1758 1.350 . S
C1755 C1758 1.463 . S
C1755 C1760 1.350 . S
C1755 N1763 1.427 . S
C1756 H1747 0.930 . S
C1756 C1754 1.378 . S
C1756 C1757 1.367 . S
C1757 C1756 1.367 . S
C1757 C1759 1.433 . S
C1758 C1754 1.350 . S
C1758 C1755 1.463 . S
C1758 N1762 1.427 . S
C1759 H1749 0.929 . S
C1759 C1757 1.433 . S
C1759 N1762 1.384 . S
C1760 H1751 0.929 . S
C1760 C1752 1.378 . S
C1760 C1755 1.350 . S
C1761 H1748 0.929 . S
C1761 C1753 1.433 . S
C1761 N1763 1.384 . S
N1762 C1758 1.427 . S
N1762 C1759 1.384 . S
N1763 C1755 1.427 . S
N1763 C1761 1.384 . S
H1764 C1770 0.930 . S
H1765 C1774 0.930 . S
H1766 C1779 0.929 . S
H1767 C1777 0.929 . S
H1768 C1772 0.929 . S
H1769 C1778 0.929 . S
C1770 H1764 0.930 . S
C1770 C1771 1.367 . S
C1770 C1778 1.378 . S
C1771 C1770 1.367 . S
C1771 C1779 1.433 . S
C1772 H1768 0.929 . S
C1772 C1774 1.378 . S
C1772 C1776 1.350 . S
C1773 C1776 1.463 . S
C1773 C1778 1.350 . S
C1773 N1781 1.427 . S
C1774 H1765 0.930 . S
C1774 C1772 1.378 . S
C1774 C1775 1.367 . S
C1775 C1774 1.367 . S
C1775 C1777 1.433 . S
C1776 C1772 1.350 . S
C1776 C1773 1.463 . S
C1776 N1780 1.427 . S
C1777 H1767 0.929 . S
C1777 C1775 1.433 . S
C1777 N1780 1.384 . S
C1778 H1769 0.929 . S
C1778 C1770 1.378 . S
C1778 C1773 1.350 . S
C1779 H1766 0.929 . S
C1779 C1771 1.433 . S
C1779 N1781 1.384 . S
N1780 C1776 1.427 . S
N1780 C1777 1.384 . S
N1781 C1773 1.427 . S
N1781 C1779 1.384 . S
H1782 C1788 0.930 . S
H1783 C1792 0.930 . S
H1784 C1797 0.929 . S
H1785 C1795 0.929 . S
H1786 C1790 0.929 . S
H1787 C1796 0.929 . S
C1788 H1782 0.930 . S
C1788 C1789 1.367 . S
C1788 C1796 1.378 . S
C1789 C1788 1.367 . S
C1789 C1797 1.433 . S
C1790 H1786 0.929 . S
C1790 C1792 1.378 . S
C1790 C1794 1.350 . S
C1791 C1794 1.463 . S
C1791 C1796 1.350 . S
C1791 N1799 1.427 . S
C1792 H1783 0.930 . S
C1792 C1790 1.378 . S
C1792 C1793 1.367 . S
C1793 C1792 1.367 . S
C1793 C1795 1.433 . S
C1794 C1790 1.350 . S
C1794 C1791 1.463 . S
C1794 N1798 1.427 . S
C1795 H1785 0.929 . S
C1795 C1793 1.433 . S
C1795 N1798 1.384 . S
C1796 H1787 0.929 . S
C1796 C1788 1.378 . S
C1796 C1791 1.350 . S
C1797 H1784 0.929 . S
C1797 C1789 1.433 . S
C1797 N1799 1.384 . S
N1798 C1794 1.427 . S
N1798 C1795 1.384 . S
N1799 C1791 1.427 . S
N1799 C1797 1.384 . S
H1800 C1806 0.930 . S
H1801 C1810 0.930 . S
H1802 C1815 0.929 . S
H1803 C1813 0.929 . S
H1804 C1808 0.929 . S
H1805 C1814 0.929 . S
C1806 H1800 0.930 . S
C1806 C1807 1.367 . S
C1806 C1814 1.378 . S
C1807 C1806 1.367 . S
C1807 C1815 1.433 . S
C1808 H1804 0.929 . S
C1808 C1810 1.378 . S
C1808 C1812 1.350 . S
C1809 C1812 1.463 . S
C1809 C1814 1.350 . S
C1809 N1817 1.427 . S
C1810 H1801 0.930 . S
C1810 C1808 1.378 . S
C1810 C1811 1.367 . S
C1811 C1810 1.367 . S
C1811 C1813 1.433 . S
C1812 C1808 1.350 . S
C1812 C1809 1.463 . S
C1812 N1816 1.427 . S
C1813 H1803 0.929 . S
C1813 C1811 1.433 . S
C1813 N1816 1.384 . S
C1814 H1805 0.929 . S
C1814 C1806 1.378 . S
C1814 C1809 1.350 . S
C1815 H1802 0.929 . S
C1815 C1807 1.433 . S
C1815 N1817 1.384 . S
N1816 C1812 1.427 . S
N1816 C1813 1.384 . S
N1817 C1809 1.427 . S
N1817 C1815 1.384 . S
H1818 C1824 0.930 . S
H1819 C1828 0.930 . S
H1820 C1833 0.929 . S
H1821 C1831 0.929 . S
H1822 C1826 0.929 . S
H1823 C1832 0.929 . S
C1824 H1818 0.930 . S
C1824 C1825 1.367 . S
C1824 C1832 1.378 . S
C1825 C1824 1.367 . S
C1825 C1833 1.433 . S
C1826 H1822 0.929 . S
C1826 C1828 1.378 . S
C1826 C1830 1.350 . S
C1827 C1830 1.463 . S
C1827 C1832 1.350 . S
C1827 N1835 1.427 . S
C1828 H1819 0.930 . S
C1828 C1826 1.378 . S
C1828 C1829 1.367 . S
C1829 C1828 1.367 . S
C1829 C1831 1.433 . S
C1830 C1826 1.350 . S
C1830 C1827 1.463 . S
C1830 N1834 1.427 . S
C1831 H1821 0.929 . S
C1831 C1829 1.433 . S
C1831 N1834 1.384 . S
C1832 H1823 0.929 . S
C1832 C1824 1.378 . S
C1832 C1827 1.350 . S
C1833 H1820 0.929 . S
C1833 C1825 1.433 . S
C1833 N1835 1.384 . S
N1834 C1830 1.427 . S
N1834 C1831 1.384 . S
N1835 C1827 1.427 . S
N1835 C1833 1.384 . S
H1836 C1842 0.930 . S
H1837 C1846 0.930 . S
H1838 C1851 0.929 . S
H1839 C1849 0.929 . S
H1840 C1844 0.929 . S
H1841 C1850 0.929 . S
C1842 H1836 0.930 . S
C1842 C1843 1.367 . S
C1842 C1850 1.378 . S
C1843 C1842 1.367 . S
C1843 C1851 1.433 . S
C1844 H1840 0.929 . S
C1844 C1846 1.378 . S
C1844 C1848 1.350 . S
C1845 C1848 1.463 . S
C1845 C1850 1.350 . S
C1845 N1853 1.427 . S
C1846 H1837 0.930 . S
C1846 C1844 1.378 . S
C1846 C1847 1.367 . S
C1847 C1846 1.367 . S
C1847 C1849 1.433 . S
C1848 C1844 1.350 . S
C1848 C1845 1.463 . S
C1848 N1852 1.427 . S
C1849 H1839 0.929 . S
C1849 C1847 1.433 . S
C1849 N1852 1.384 . S
C1850 H1841 0.929 . S
C1850 C1842 1.378 . S
C1850 C1845 1.350 . S
C1851 H1838 0.929 . S
C1851 C1843 1.433 . S
C1851 N1853 1.384 . S
N1852 C1848 1.427 . S
N1852 C1849 1.384 . S
N1853 C1845 1.427 . S
N1853 C1851 1.384 . S
H1854 C1860 0.930 . S
H1855 C1864 0.930 . S
H1856 C1869 0.929 . S
H1857 C1867 0.929 . S
H1858 C1862 0.929 . S
H1859 C1868 0.929 . S
C1860 H1854 0.930 . S
C1860 C1861 1.367 . S
C1860 C1868 1.378 . S
C1861 C1860 1.367 . S
C1861 C1869 1.433 . S
C1862 H1858 0.929 . S
C1862 C1864 1.378 . S
C1862 C1866 1.350 . S
C1863 C1866 1.463 . S
C1863 C1868 1.350 . S
C1863 N1871 1.427 . S
C1864 H1855 0.930 . S
C1864 C1862 1.378 . S
C1864 C1865 1.367 . S
C1865 C1864 1.367 . S
C1865 C1867 1.433 . S
C1866 C1862 1.350 . S
C1866 C1863 1.463 . S
C1866 N1870 1.427 . S
C1867 H1857 0.929 . S
C1867 C1865 1.433 . S
C1867 N1870 1.384 . S
C1868 H1859 0.929 . S
C1868 C1860 1.378 . S
C1868 C1863 1.350 . S
C1869 H1856 0.929 . S
C1869 C1861 1.433 . S
C1869 N1871 1.384 . S
N1870 C1866 1.427 . S
N1870 C1867 1.384 . S
N1871 C1863 1.427 . S
N1871 C1869 1.384 . S
H1872 C1878 0.930 . S
H1873 C1882 0.930 . S
H1874 C1887 0.929 . S
H1875 C1885 0.929 . S
H1876 C1880 0.929 . S
H1877 C1886 0.929 . S
C1878 H1872 0.930 . S
C1878 C1879 1.367 . S
C1878 C1886 1.378 . S
C1879 C1878 1.367 . S
C1879 C1887 1.433 . S
C1880 H1876 0.929 . S
C1880 C1882 1.378 . S
C1880 C1884 1.350 . S
C1881 C1884 1.463 . S
C1881 C1886 1.350 . S
C1881 N1889 1.427 . S
C1882 H1873 0.930 . S
C1882 C1880 1.378 . S
C1882 C1883 1.367 . S
C1883 C1882 1.367 . S
C1883 C1885 1.433 . S
C1884 C1880 1.350 . S
C1884 C1881 1.463 . S
C1884 N1888 1.427 . S
C1885 H1875 0.929 . S
C1885 C1883 1.433 . S
C1885 N1888 1.384 . S
C1886 H1877 0.929 . S
C1886 C1878 1.378 . S
C1886 C1881 1.350 . S
C1887 H1874 0.929 . S
C1887 C1879 1.433 . S
C1887 N1889 1.384 . S
N1888 C1884 1.427 . S
N1888 C1885 1.384 . S
N1889 C1881 1.427 . S
N1889 C1887 1.384 . S
H1890 C1896 0.930 . S
H1891 C1900 0.930 . S
H1892 C1905 0.929 . S
H1893 C1903 0.929 . S
H1894 C1898 0.929 . S
H1895 C1904 0.929 . S
C1896 H1890 0.930 . S
C1896 C1897 1.367 . S
C1896 C1904 1.378 . S
C1897 C1896 1.367 . S
C1897 C1905 1.433 . S
C1898 H1894 0.929 . S
C1898 C1900 1.378 . S
C1898 C1902 1.350 . S
C1899 C1902 1.463 . S
C1899 C1904 1.350 . S
C1899 N1907 1.427 . S
C1900 H1891 0.930 . S
C1900 C1898 1.378 . S
C1900 C1901 1.367 . S
C1901 C1900 1.367 . S
C1901 C1903 1.433 . S
C1902 C1898 1.350 . S
C1902 C1899 1.463 . S
C1902 N1906 1.427 . S
C1903 H1893 0.929 . S
C1903 C1901 1.433 . S
C1903 N1906 1.384 . S
C1904 H1895 0.929 . S
C1904 C1896 1.378 . S
C1904 C1899 1.350 . S
C1905 H1892 0.929 . S
C1905 C1897 1.433 . S
C1905 N1907 1.384 . S
N1906 C1902 1.427 . S
N1906 C1903 1.384 . S
N1907 C1899 1.427 . S
N1907 C1905 1.384 . S
C943 C439 1.516 . S
C947 C585 1.585 . S
C961 C465 1.799 . S
C965 C625 1.764 . S
C979 C401 1.719 . S
C983 C664 1.674 . S
C997 C369 1.559 . S
C1001 C624 1.513 . S
C1019 C665 1.483 . S
C1015 C305 1.509 . S
C1033 C343 1.266 . S
C1037 C584 1.344 1_556 S
C1055 C595 1.622 . S
C1051 C375 1.666 . S
C1073 C635 1.733 . S
C1069 C311 1.761 . S
C1087 C337 1.590 . S
C1091 C674 1.670 . S
C1105 C433 1.462 . S
C1109 C634 1.512 . S
C1123 C471 1.470 . S
C1127 C675 1.447 . S
C1145 C594 1.411 . S
C1141 C407 1.435 . S
C1163 C705 1.576 . S
C1159 C55 1.502 . S
C1177 C81 1.798 . S
C1181 C745 1.770 . S
C1195 C17 1.719 . S
C1199 C784 1.677 . S
C1213 C561 1.560 . S
C1217 C744 1.522 . S
C1231 C497 1.506 . S
C1235 C785 1.491 . S
C1249 C535 1.284 . S
C1253 C704 1.381 . S
C1267 C567 1.664 . S
C1271 C715 1.610 . S
C1285 C503 1.764 . S
C1289 C755 1.725 . S
C1307 C794 1.670 . S
C1303 C529 1.592 . S
C1321 C49 1.460 . S
C1325 C754 1.512 . S
C1343 C795 1.454 . S
C1339 C87 1.469 . S
C1357 C23 1.438 . S
C1361 C714 1.412 . S
C1379 C825 1.581 . S
C1375 C247 1.509 . S
C1393 C273 1.800 . S
C1397 C865 1.761 . S
C1415 C904 1.672 . S
C1411 C209 1.716 . S
C1433 C864 1.514 . S
C1429 C177 1.560 . S
C1451 C905 1.481 . S
C1447 C113 1.505 . S
C1465 C151 1.275 . S
C1469 C824 1.381 . S
C1483 C183 1.665 . S
C1487 C835 1.622 . S
C1501 C119 1.762 . S
C1505 C875 1.733 . S
C1523 C914 1.670 . S
C1519 C145 1.592 . S
C1537 C241 1.468 . S
C1541 C874 1.515 . S
C1555 C279 1.470 . S
C1559 C915 1.454 . S
C1573 C215 1.438 . S
C1577 C834 1.413 . S
C1591 C509 1.346 . S
C1595 C581 1.365 . S
C1613 C621 1.797 . S
C1609 C541 1.685 . S
C1627 C573 1.556 . S
C1631 C671 1.564 . S
C1645 C221 1.823 . S
C1649 C631 1.818 . S
C1663 C253 1.458 . S
C1667 C661 1.538 . S
C1685 C591 1.358 . S
C1681 C285 1.339 . S
C1699 C125 1.358 . S
C1703 C701 1.369 . S
C1717 C157 1.684 . S
C1721 C741 1.797 . S
C1735 C189 1.554 . S
C1739 C791 1.565 . S
C1753 C413 1.823 . S
C1757 C751 1.818 . S
C1775 C781 1.538 . S
C1771 C445 1.458 . S
C1789 C477 1.349 . S
C1793 C711 1.364 . S
C1807 C317 1.347 . S
C1811 C821 1.366 . S
C1825 C349 1.684 . S
C1829 C861 1.797 . S
C1847 C911 1.564 . S
C1843 C381 1.557 . S
C1861 C29 1.823 . S
C1865 C871 1.818 . S
C1879 C61 1.460 . S
C1883 C901 1.538 . S
C1897 C93 1.346 . S
C1901 C831 1.363 . S
