# Generated by pormake.
# Topology pyr, (3,6)-cn, num edge types: 1
# Building blocks:
#     Node 0, Type 0, BuildingBlock: BETDAH_clean_linker_0, # of connection points: 3
#     Node 1, Type 0, BuildingBlock: BETDAH_clean_linker_0, # of connection points: 3
#     Node 2, Type 0, BuildingBlock: BETDAH_clean_linker_0, # of connection points: 3
#     Node 3, Type 0, BuildingBlock: BETDAH_clean_linker_0, # of connection points: 3
#     Node 4, Type 0, BuildingBlock: BETDAH_clean_linker_0, # of connection points: 3
#     Node 5, Type 0, BuildingBlock: BETDAH_clean_linker_0, # of connection points: 3
#     Node 6, Type 0, BuildingBlock: BETDAH_clean_linker_0, # of connection points: 3
#     Node 7, Type 0, BuildingBlock: BETDAH_clean_linker_0, # of connection points: 3
#     Node 8, Type 1, BuildingBlock: VOLQOD_clean_sbu_1, # of connection points: 6
#     Node 9, Type 1, BuildingBlock: VOLQOD_clean_sbu_1, # of connection points: 6
#     Node 10, Type 1, BuildingBlock: VOLQOD_clean_sbu_1, # of connection points: 6
#     Node 11, Type 1, BuildingBlock: VOLQOD_clean_sbu_1, # of connection points: 6
#     Edge 12, Type (0, 1), BuildingBlock: KIFKEQ_clean_linker_1, # of connection points: 2
#     Edge 13, Type (0, 1), BuildingBlock: KIFKEQ_clean_linker_1, # of connection points: 2
#     Edge 14, Type (0, 1), BuildingBlock: KIFKEQ_clean_linker_1, # of connection points: 2
#     Edge 15, Type (0, 1), BuildingBlock: KIFKEQ_clean_linker_1, # of connection points: 2
#     Edge 16, Type (0, 1), BuildingBlock: KIFKEQ_clean_linker_1, # of connection points: 2
#     Edge 17, Type (0, 1), BuildingBlock: KIFKEQ_clean_linker_1, # of connection points: 2
#     Edge 18, Type (0, 1), BuildingBlock: KIFKEQ_clean_linker_1, # of connection points: 2
#     Edge 19, Type (0, 1), BuildingBlock: KIFKEQ_clean_linker_1, # of connection points: 2
#     Edge 20, Type (0, 1), BuildingBlock: KIFKEQ_clean_linker_1, # of connection points: 2
#     Edge 21, Type (0, 1), BuildingBlock: KIFKEQ_clean_linker_1, # of connection points: 2
#     Edge 22, Type (0, 1), BuildingBlock: KIFKEQ_clean_linker_1, # of connection points: 2
#     Edge 23, Type (0, 1), BuildingBlock: KIFKEQ_clean_linker_1, # of connection points: 2
#     Edge 24, Type (0, 1), BuildingBlock: KIFKEQ_clean_linker_1, # of connection points: 2
#     Edge 25, Type (0, 1), BuildingBlock: KIFKEQ_clean_linker_1, # of connection points: 2
#     Edge 26, Type (0, 1), BuildingBlock: KIFKEQ_clean_linker_1, # of connection points: 2
#     Edge 27, Type (0, 1), BuildingBlock: KIFKEQ_clean_linker_1, # of connection points: 2
#     Edge 28, Type (0, 1), BuildingBlock: KIFKEQ_clean_linker_1, # of connection points: 2
#     Edge 29, Type (0, 1), BuildingBlock: KIFKEQ_clean_linker_1, # of connection points: 2
#     Edge 30, Type (0, 1), BuildingBlock: KIFKEQ_clean_linker_1, # of connection points: 2
#     Edge 31, Type (0, 1), BuildingBlock: KIFKEQ_clean_linker_1, # of connection points: 2
#     Edge 32, Type (0, 1), BuildingBlock: KIFKEQ_clean_linker_1, # of connection points: 2
#     Edge 33, Type (0, 1), BuildingBlock: KIFKEQ_clean_linker_1, # of connection points: 2
#     Edge 34, Type (0, 1), BuildingBlock: KIFKEQ_clean_linker_1, # of connection points: 2
#     Edge 35, Type (0, 1), BuildingBlock: KIFKEQ_clean_linker_1, # of connection points: 2
# Relax obj value: 0.105
# Max RMSD: 0.189
# Mean RMSD: 0.148
data_MOF--net-pry--node1-VOLQOD_clean_sbu_1--node2-BETDAH_clean_linker_0--edge1-KIFKEQ_clean_linker_1
_symmetry_space_group_name_H-M    P1
_symmetry_Int_Tables_number       1
_symmetry_cell_setting            triclinic
loop_
_symmetry_equiv_pos_as_xyz
'x, y, z'
_cell_length_a     36.699271
_cell_length_b     37.240703
_cell_length_c     38.742267
_cell_angle_alpha  90.527771
_cell_angle_beta   90.710254
_cell_angle_gamma 95.750848
loop_
_atom_site_label
_atom_site_type_symbol
_atom_site_fract_x
_atom_site_fract_y
_atom_site_fract_z
_atom_type_partial_charge
H0 H 0.17844 0.11134 0.20338 0.0
H1 H 0.1705 0.15928 0.10336 0.0
H2 H 0.09196 0.17816 0.18109 0.0
C3 C 0.16517 0.12851 0.18573 0.0
C4 C 0.13373 0.14408 0.19632 0.0
C5 C 0.17904 0.13403 0.15239 0.0
C6 C 0.1606 0.15507 0.12939 0.0
C7 C 0.12979 0.17157 0.13968 0.0
C8 C 0.11657 0.16654 0.17344 0.0
N9 N 0.11106 0.19018 0.11429 0.0
C10 C 0.09486 0.22188 0.11983 0.0
H11 H 0.4375 0.85815 0.72638 0.0
H12 H 0.40644 0.96523 0.71057 0.0
H13 H 0.41383 0.89471 0.62379 0.0
C14 C 0.42971 0.87883 0.70907 0.0
C15 C 0.42674 0.87174 0.67325 0.0
C16 C 0.42241 0.91241 0.72293 0.0
C17 C 0.41125 0.93885 0.7006 0.0
C18 C 0.40739 0.93202 0.66514 0.0
C19 C 0.41531 0.89876 0.65151 0.0
N20 N 0.39904 0.96005 0.6429 0.0
C21 C 0.36414 0.96146 0.62907 0.0
H22 H 0.63696 0.3713 0.97633 0.0
H23 H 0.60728 0.46916 0.92999 0.0
H24 H 0.52538 0.38048 0.94556 0.0
C25 C 0.61668 0.38666 0.96447 0.0
C26 C 0.58038 0.37102 0.96117 0.0
C27 C 0.62693 0.42199 0.95335 0.0
C28 C 0.6 0.44201 0.93913 0.0
C29 C 0.56334 0.42712 0.93698 0.0
C30 C 0.55361 0.39192 0.94828 0.0
N31 N 0.53582 0.44715 0.9234 0.0
C32 C 0.53877 0.46241 0.89091 0.0
H33 H 0.86059 0.69666 0.45774 0.0
H34 H 0.94853 0.6635 0.39616 0.0
H35 H 0.86445 0.58459 0.43203 0.0
C36 C 0.87389 0.67568 0.44479 0.0
C37 C 0.85839 0.6398 0.44665 0.0
C38 C 0.90671 0.68455 0.42711 0.0
C39 C 0.92357 0.65703 0.41045 0.0
C40 C 0.90832 0.62099 0.41237 0.0
C41 C 0.87635 0.61241 0.43116 0.0
N42 N 0.9243 0.59309 0.39489 0.0
C43 C 0.93319 0.59589 0.36024 0.0
H44 H 0.93945 0.87406 0.84937 0.0
H45 H 0.89522 0.90616 0.94646 0.0
H46 H 0.90775 0.98121 0.86334 0.0
C47 C 0.92809 0.89398 0.86547 0.0
C48 C 0.92359 0.92811 0.85176 0.0
C49 C 0.91819 0.88556 0.89977 0.0
C50 C 0.90334 0.91195 0.92015 0.0
C51 C 0.89978 0.94637 0.90689 0.0
C52 C 0.9102 0.95434 0.87305 0.0
N53 N 0.88807 0.97424 0.92783 0.0
C54 C 0.85492 0.97106 0.94495 0.0
H55 H 0.68181 0.10828 0.38043 0.0
H56 H 0.66008 0.14364 0.48349 0.0
H57 H 0.57595 0.14143 0.4058 0.0
C58 C 0.66334 0.11853 0.39883 0.0
C59 C 0.62739 0.12395 0.38839 0.0
C60 C 0.67546 0.12514 0.43309 0.0
C61 C 0.65142 0.1384 0.45692 0.0
C62 C 0.61607 0.14516 0.44671 0.0
C63 C 0.60401 0.13775 0.41268 0.0
N64 N 0.59161 0.15623 0.47166 0.0
C65 C 0.58348 0.19176 0.47425 0.0
H66 H 0.35125 0.68367 0.10527 0.0
H67 H 0.34389 0.57268 0.13611 0.0
H68 H 0.43591 0.64604 0.16944 0.0
C69 C 0.36258 0.66205 0.11909 0.0
C70 C 0.39628 0.66878 0.13661 0.0
C71 C 0.34348 0.62762 0.11898 0.0
C72 C 0.35849 0.59948 0.13612 0.0
C73 C 0.39117 0.60621 0.15512 0.0
C74 C 0.41004 0.64102 0.15559 0.0
N75 N 0.40459 0.57746 0.17339 0.0
C76 C 0.41821 0.58174 0.20688 0.0
H77 H 0.15224 0.38173 0.60595 0.0
H78 H 0.12566 0.49035 0.62198 0.0
H79 H 0.04256 0.40174 0.6335 0.0
C80 C 0.13245 0.4002 0.61293 0.0
C81 C 0.09607 0.38687 0.61958 0.0
C82 C 0.14338 0.43736 0.6138 0.0
C83 C 0.11754 0.46155 0.6211 0.0
C84 C 0.0814 0.4486 0.62853 0.0
C85 C 0.07064 0.41139 0.62772 0.0
N86 N 0.05604 0.47316 0.63735 0.0
C87 C 0.04773 0.47859 0.67168 0.0
O88 O 0.01074 0.10686 0.56299 0.0
Zn89 Zn 0.98838 0.0568 0.55134 0.0
O90 O 0.02029 0.03261 0.52044 0.0
Zn91 Zn 0.99403 0.02069 0.47685 0.0
Zn92 Zn 0.06538 0.06418 0.51134 0.0
Zn93 Zn 0.03283 0.98832 0.54245 0.0
O94 O 0.98838 0.96695 0.46795 0.0
O95 O 0.0156 0.94478 0.51341 0.0
O96 O 0.93917 0.06187 0.52917 0.0
O97 O 0.94356 0.03795 0.47692 0.0
O98 O 0.02091 0.04449 0.43683 0.0
O99 O 0.07018 0.07537 0.46013 0.0
O100 O 0.11057 0.04137 0.52786 0.0
O101 O 0.9802 0.03013 0.59618 0.0
O102 O 0.08728 0.98901 0.54919 0.0
O103 O 0.01024 0.98179 0.58958 0.0
C104 C 0.04087 0.12496 0.55565 0.0
C105 C 0.99844 0.94027 0.48468 0.0
C106 C 0.05026 0.06551 0.43383 0.0
C107 C 0.9255 0.05362 0.49943 0.0
C108 C 0.11472 0.01144 0.54246 0.0
C109 C 0.9904 0.00073 0.60762 0.0
O110 O 0.06437 0.11177 0.53657 0.0
O111 O 0.49846 0.0922 0.02009 0.0
Zn112 Zn 0.47676 0.04149 0.0293 0.0
O113 O 0.5093 0.01707 0.05981 0.0
Zn114 Zn 0.52329 0.97406 0.03621 0.0
Zn115 Zn 0.55389 0.04873 0.07081 0.0
Zn116 Zn 0.48358 0.00376 0.10273 0.0
O117 O 0.50889 0.93015 0.06419 0.0
O118 O 0.47989 0.94968 0.10963 0.0
O119 O 0.46797 0.01518 0.98343 0.0
O120 O 0.49875 0.96723 0.98943 0.0
O121 O 0.57777 0.97652 0.02858 0.0
O122 O 0.59923 0.02856 0.05299 0.0
O123 O 0.56037 0.05664 0.12219 0.0
O124 O 0.42791 0.04592 0.05153 0.0
O125 O 0.5102 0.02768 0.14415 0.0
O126 O 0.43266 0.02003 0.10253 0.0
C127 C 0.5279 0.11069 0.02989 0.0
C128 C 0.49184 0.92415 0.09231 0.0
C129 C 0.60445 -0.0003 0.03669 0.0
C130 C 0.47819 0.98578 0.97163 0.0
C131 C 0.54048 0.04733 0.14795 0.0
C132 C 0.41444 0.03655 0.08062 0.0
O133 O 0.55127 0.09732 0.04925 0.0
O134 O 0.54268 0.54775 0.62605 0.0
Zn135 Zn 0.53988 0.5704 0.57877 0.0
O136 O 0.50681 0.53945 0.54777 0.0
Zn137 Zn 0.53324 0.52468 0.50762 0.0
Zn138 Zn 0.48729 0.49577 0.57151 0.0
Zn139 Zn 0.46643 0.56624 0.53233 0.0
O140 O 0.5104 0.54004 0.46366 0.0
O141 O 0.46583 0.57205 0.48046 0.0
O142 O 0.59109 0.57846 0.5589 0.0
O143 O 0.58432 0.54847 0.50895 0.0
O144 O 0.53601 0.4708 0.50509 0.0
O145 O 0.50357 0.45051 0.54998 0.0
O146 O 0.43219 0.49104 0.57164 0.0
O147 O 0.52065 0.61933 0.58631 0.0
O148 O 0.41793 0.54077 0.54571 0.0
O149 O 0.46925 0.61516 0.55502 0.0
C150 C 0.52635 0.51923 0.63893 0.0
C151 C 0.4846 0.55932 0.45663 0.0
C152 C 0.52283 0.4448 0.52375 0.0
C153 C 0.6039 0.56836 0.53033 0.0
C154 C 0.40849 0.51123 0.56094 0.0
C155 C 0.49193 0.63269 0.57562 0.0
O156 O 0.50444 0.49779 0.62085 0.0
O157 O 0.95531 0.5399 0.09222 0.0
Zn158 Zn 0.95808 0.51548 0.046 0.0
O159 O 0.98784 0.54722 0.0148 0.0
Zn160 Zn 0.95779 0.5597 0.9758 0.0
Zn161 Zn 0.0072 0.59229 0.03855 0.0
Zn162 Zn 0.02785 0.52105 0.99794 0.0
O163 O 0.97758 0.54295 0.93103 0.0
O164 O 0.02604 0.51513 0.94595 0.0
O165 O 0.90648 0.50393 0.0272 0.0
O166 O 0.90644 0.53688 0.97971 0.0
O167 O 0.955 0.61304 0.97269 0.0
O168 O 0.99045 0.63694 0.01546 0.0
O169 O 0.0625 0.59687 0.03931 0.0
O170 O 0.98019 0.46847 0.0547 0.0
O171 O 0.0761 0.54752 0.01155 0.0
O172 O 0.02784 0.47211 0.01986 0.0
C173 C 0.96979 0.56938 0.10565 0.0
C174 C 0.00445 0.52558 0.92294 0.0
C175 C 0.96924 0.64044 0.98964 0.0
C176 C 0.88999 0.51521 1.00089 0.0
C177 C 0.08588 0.57683 0.0278 0.0
C178 C 0.00796 0.45514 0.04232 0.0
O179 O 0.99055 0.59181 0.08827 0.0
H180 H 0.1157 0.18927 0.24849 0.0
H181 H 0.11675 0.0768 0.22115 0.0
H182 H 0.0941 0.17194 0.30646 0.0
H183 H 0.09529 0.05955 0.27852 0.0
H184 H 0.02153 0.04121 0.37153 0.0
H185 H 0.03902 0.06225 0.31418 0.0
H186 H 0.12045 0.14112 0.35928 0.0
H187 H 0.10301 0.12005 0.41703 0.0
C188 C 0.11094 0.16092 0.2548 0.0
C189 C 0.11798 0.13436 0.23048 0.0
C190 C 0.0989 0.15101 0.28795 0.0
C191 C 0.09307 0.11438 0.29702 0.0
C192 C 0.09925 0.08796 0.27227 0.0
C193 C 0.11171 0.09783 0.23948 0.0
C194 C 0.04312 0.0631 0.36937 0.0
C195 C 0.06101 0.07877 0.39898 0.0
C196 C 0.05318 0.07509 0.33644 0.0
C197 C 0.08112 0.10331 0.33222 0.0
C198 C 0.09859 0.11953 0.36176 0.0
C199 C 0.08881 0.10723 0.3948 0.0
H200 H 0.47978 0.89727 0.7641 0.0
H201 H 0.3782 0.9465 0.76633 0.0
H202 H 0.49118 0.91373 0.82452 0.0
H203 H 0.38922 0.96252 0.82707 0.0
H204 H 0.44328 0.02229 0.92199 0.0
H205 H 0.42826 0.00309 0.86278 0.0
H206 H 0.47176 0.90141 0.88202 0.0
H207 H 0.48777 0.92103 0.94082 0.0
C208 C 0.45957 0.91109 0.77769 0.0
C209 C 0.4281 0.9206 0.76039 0.0
C210 C 0.46607 0.92052 0.8124 0.0
C211 C 0.44116 0.93953 0.8308 0.0
C212 C 0.40933 0.94845 0.81362 0.0
C213 C 0.40293 0.93918 0.77882 0.0
C214 C 0.44949 0.99577 0.91365 0.0
C215 C 0.46696 0.97333 0.93617 0.0
C216 C 0.44067 0.98464 0.87969 0.0
C217 C 0.44891 0.95071 0.86745 0.0
C218 C 0.46561 0.92797 0.89028 0.0
C219 C 0.47462 0.93917 0.92414 0.0
H220 H 0.59738 0.48595 0.85259 0.0
H221 H 0.47967 0.4652 0.85054 0.0
H222 H 0.59649 0.50113 0.79093 0.0
H223 H 0.47845 0.48052 0.78934 0.0
H224 H 0.49361 0.46253 0.67495 0.0
H225 H 0.49834 0.45107 0.73632 0.0
H226 H 0.57464 0.54646 0.74906 0.0
H227 H 0.57021 0.55804 0.68712 0.0
C228 C 0.57137 0.48519 0.83891 0.0
C229 C 0.53857 0.47459 0.85581 0.0
C230 C 0.57081 0.49388 0.80381 0.0
C231 C 0.53742 0.49168 0.78528 0.0
C232 C 0.50462 0.48191 0.80279 0.0
C233 C 0.50523 0.47342 0.83777 0.0
C234 C 0.51157 0.48108 0.69065 0.0
C235 C 0.53135 0.51137 0.67605 0.0
C236 C 0.51408 0.47459 0.72593 0.0
C237 C 0.5365 0.49811 0.74756 0.0
C238 C 0.55719 0.52784 0.73296 0.0
C239 C 0.55454 0.53449 0.69753 0.0
H240 H 0.99755 0.60557 0.32662 0.0
H241 H 0.88053 0.58764 0.3117 0.0
H242 H 0.00594 0.60236 0.2639 0.0
H243 H 0.88853 0.58484 0.24916 0.0
H244 H 0.92134 0.53184 0.14819 0.0
H245 H 0.9126 0.54156 0.2095 0.0
H246 H 0.99438 0.63339 0.20861 0.0
H247 H 0.00356 0.62348 0.14697 0.0
C248 C 0.97371 0.60137 0.30974 0.0
C249 C 0.93847 0.59669 0.3235 0.0
C250 C 0.97841 0.59971 0.27396 0.0
C251 C 0.94788 0.59314 0.2516 0.0
C252 C 0.91259 0.58942 0.26571 0.0
C253 C 0.90796 0.59119 0.30138 0.0
C254 C 0.93739 0.55425 0.16091 0.0
C255 C 0.96321 0.57684 0.14259 0.0
C256 C 0.93219 0.55995 0.19607 0.0
C257 C 0.95275 0.58828 0.2139 0.0
C258 C 0.97835 0.61115 0.19561 0.0
C259 C 0.98341 0.60559 0.16027 0.0
H260 H 0.24213 0.12946 0.18974 0.0
H261 H 0.19167 0.10127 0.09054 0.0
H262 H 0.29727 0.10332 0.17193 0.0
H263 H 0.24695 0.07518 0.07267 0.0
H264 H 0.36799 0.07299 0.04125 0.0
H265 H 0.31039 0.0947 0.0584 0.0
H266 H 0.32005 0.04566 0.15827 0.0
H267 H 0.37801 0.02442 0.14141 0.0
C268 C 0.24264 0.11733 0.16426 0.0
C269 C 0.21246 0.11753 0.14157 0.0
C270 C 0.27426 0.1023 0.15405 0.0
C271 C 0.27654 0.0871 0.12088 0.0
C272 C 0.24629 0.0871 0.09824 0.0
C273 C 0.21462 0.1021 0.10846 0.0
C274 C 0.35774 0.06656 0.06679 0.0
C275 C 0.37782 0.04708 0.08999 0.0
C276 C 0.32458 0.07889 0.07656 0.0
C277 C 0.31068 0.0721 0.10978 0.0
C278 C 0.33027 0.05184 0.13267 0.0
C279 C 0.3634 0.03945 0.12289 0.0
H280 H 0.29915 0.94425 0.65938 0.0
H281 H 0.34913 0.98956 0.56738 0.0
H282 H 0.23868 0.95564 0.63705 0.0
H283 H 0.28874 0.00049 0.54445 0.0
H284 H 0.18032 0.05312 0.53557 0.0
H285 H 0.24075 0.03958 0.55548 0.0
H286 H 0.19383 0.93628 0.59251 0.0
H287 H 0.13347 0.94997 0.57327 0.0
C288 C 0.29696 0.95626 0.63416 0.0
C289 C 0.32837 0.96596 0.61491 0.0
C290 C 0.26243 0.96269 0.62128 0.0
C291 C 0.25881 0.97903 0.58892 0.0
C292 C 0.29055 0.9883 0.5696 0.0
C293 C 0.32504 0.98181 0.58253 0.0
C294 C 0.1829 0.02745 0.54782 0.0
C295 C 0.15191 0.00274 0.5529 0.0
C296 C 0.2176 0.0196 0.55909 0.0
C297 C 0.22216 0.98688 0.57573 0.0
C298 C 0.19126 0.96197 0.5803 0.0
C299 C 0.15662 0.96978 0.56904 0.0
H300 H 0.68888 0.38817 0.94338 0.0
H301 H 0.65284 0.49118 0.97245 0.0
H302 H 0.75206 0.41161 0.95594 0.0
H303 H 0.71652 0.51493 0.98357 0.0
H304 H 0.84132 0.54751 0.96092 0.0
H305 H 0.77733 0.52628 0.9484 0.0
H306 H 0.78659 0.43376 0.01304 0.0
H307 H 0.85057 0.45511 0.02602 0.0
C308 C 0.69437 0.4158 0.95245 0.0
C309 C 0.66565 0.43763 0.95738 0.0
C310 C 0.73056 0.42918 0.95953 0.0
C311 C 0.73896 0.46486 0.97107 0.0
C312 C 0.71063 0.48728 0.97465 0.0
C313 C 0.67425 0.47373 0.96806 0.0
C314 C 0.82969 0.52268 0.97256 0.0
C315 C 0.85098 0.50288 0.99438 0.0
C316 C 0.79307 0.51071 0.96551 0.0
C317 C 0.77724 0.47839 0.97966 0.0
C318 C 0.79837 0.45866 1.00162 0.0
C319 C 0.83484 0.47096 0.00917 0.0
H320 H 0.79682 0.67244 0.43433 0.0
H321 H 0.83842 0.58818 0.49468 0.0
H322 H 0.73579 0.65683 0.45764 0.0
H323 H 0.77704 0.57281 0.5184 0.0
H324 H 0.66283 0.58869 0.57312 0.0
H325 H 0.72614 0.60728 0.55572 0.0
H326 H 0.69327 0.59442 0.44864 0.0
H327 H 0.63075 0.5753 0.46567 0.0
C328 C 0.79297 0.65095 0.453 0.0
C329 C 0.82221 0.63144 0.46271 0.0
C330 C 0.75812 0.642 0.46621 0.0
C331 C 0.75195 0.61373 0.48977 0.0
C332 C 0.78134 0.5949 0.50043 0.0
C333 C 0.81621 0.60348 0.48672 0.0
C334 C 0.66924 0.58993 0.54591 0.0
C335 C 0.64193 0.58051 0.52075 0.0
C336 C 0.70534 0.60035 0.53603 0.0
C337 C 0.71429 0.60231 0.5009 0.0
C338 C 0.68691 0.5933 0.47588 0.0
C339 C 0.65121 0.58222 0.48568 0.0
H340 H 0.02401 0.23373 0.11028 0.0
H341 H 0.13339 0.28702 0.12093 0.0
H342 H 0.00135 0.29103 0.09376 0.0
H343 H 0.11103 0.34439 0.10482 0.0
H344 H 0.06907 0.42227 0.02649 0.0
H345 H 0.08862 0.3669 0.04994 0.0
H346 H 0.99161 0.35357 0.11232 0.0
H347 H 0.97168 0.40916 0.08858 0.0
C348 C 0.04293 0.25802 0.11003 0.0
C349 C 0.08026 0.25635 0.11712 0.0
C350 C 0.03004 0.29076 0.10052 0.0
C351 C 0.05446 0.32222 0.09758 0.0
C352 C 0.09161 0.32057 0.10631 0.0
C353 C 0.10438 0.28791 0.11592 0.0
C354 C 0.05173 0.40758 0.04511 0.0
C355 C 0.01874 0.42031 0.05559 0.0
C356 C 0.06316 0.37594 0.05882 0.0
C357 C 0.0419 0.35598 0.08332 0.0
C358 C 0.00858 0.36827 0.09344 0.0
C359 C 0.9972 0.40016 0.07985 0.0
H360 H 0.62019 0.31461 0.9478 0.0
H361 H 0.51951 0.34028 0.99457 0.0
H362 H 0.60677 0.25182 0.96417 0.0
H363 H 0.50577 0.27694 0.01033 0.0
H364 H 0.48003 0.15241 0.99859 0.0
H365 H 0.49161 0.21545 0.98147 0.0
H366 H 0.60278 0.21804 0.01994 0.0
H367 H 0.59145 0.15515 0.03697 0.0
C368 C 0.5953 0.30691 0.9618 0.0
C369 C 0.57113 0.33257 0.97027 0.0
C370 C 0.5876 0.27092 0.97106 0.0
C371 C 0.55539 0.25961 0.98871 0.0
C372 C 0.5307 0.28495 0.99651 0.0
C373 C 0.53855 0.32115 0.98746 0.0
C374 C 0.50698 0.16639 0.00332 0.0
C375 C 0.53486 0.14872 0.01908 0.0
C376 C 0.51348 0.20252 0.99373 0.0
C377 C 0.54807 0.22154 0.99936 0.0
C378 C 0.57594 0.20388 0.01499 0.0
C379 C 0.56938 0.16791 0.02488 0.0
H380 H 0.97854 0.70895 0.43878 0.0
H381 H 0.87285 0.74564 0.41656 0.0
H382 H 0.00459 0.77145 0.44713 0.0
H383 H 0.8985 0.80789 0.42597 0.0
H384 H 0.01651 0.87717 0.51258 0.0
H385 H 0.99763 0.81598 0.49268 0.0
H386 H 0.94097 0.8577 0.4057 0.0
H387 H 0.95932 0.91917 0.42593 0.0
C388 C 0.96105 0.7304 0.43509 0.0
C389 C 0.92359 0.72243 0.42738 0.0
C390 C 0.97586 0.76614 0.44022 0.0
C391 C 0.95352 0.79458 0.4376 0.0
C392 C 0.91652 0.78666 0.42799 0.0
C393 C 0.90172 0.75097 0.42295 0.0
C394 C 0.00026 0.87341 0.48906 0.0
C395 C 0.98915 0.90314 0.47105 0.0
C396 C 0.98971 0.83826 0.47748 0.0
C397 C 0.96778 0.83198 0.44762 0.0
C398 C 0.95755 0.86168 0.42901 0.0
C399 C 0.96817 0.8969 0.44056 0.0
H400 H 0.48064 0.83056 0.69533 0.0
H401 H 0.39568 0.83339 0.61737 0.0
H402 H 0.49596 0.77338 0.6721 0.0
H403 H 0.41327 0.77794 0.59222 0.0
H404 H 0.42546 0.65934 0.57603 0.0
H405 H 0.4101 0.7163 0.59975 0.0
H406 H 0.52394 0.74494 0.62736 0.0
H407 H 0.53885 0.68672 0.6052 0.0
C408 C 0.46513 0.81908 0.67324 0.0
C409 C 0.43663 0.83678 0.65852 0.0
C410 C 0.47447 0.78644 0.65942 0.0
C411 C 0.45602 0.77073 0.6301 0.0
C412 C 0.42781 0.78866 0.61513 0.0
C413 C 0.41806 0.82098 0.6293 0.0
C414 C 0.44729 0.67784 0.58704 0.0
C415 C 0.48342 0.66846 0.58867 0.0
C416 C 0.4385 0.71077 0.60052 0.0
C417 C 0.4657 0.73563 0.61549 0.0
C418 C 0.50203 0.72638 0.61667 0.0
C419 C 0.51071 0.69307 0.6037 0.0
H420 H 0.88293 0.96177 0.80502 0.0
H421 H 0.98466 0.91373 0.81605 0.0
H422 H 0.8981 0.97775 0.74574 0.0
H423 H 0.00032 0.93029 0.75679 0.0
H424 H 0.00171 0.93696 0.639 0.0
H425 H 0.98473 0.91789 0.69715 0.0
H426 H 0.93899 0.01891 0.71458 0.0
H427 H 0.95496 0.03751 0.65625 0.0
C428 C 0.9087 0.95485 0.7948 0.0
C429 C 0.93269 0.93667 0.81527 0.0
C430 C 0.91746 0.96409 0.76082 0.0
C431 C 0.95059 0.95559 0.74646 0.0
C432 C 0.97437 0.93689 0.76681 0.0
C433 C 0.96546 0.92744 0.8008 0.0
C434 C 0.98791 0.95507 0.65519 0.0
C435 C 0.97965 0.98877 0.64285 0.0
C436 C 0.97837 0.9442 0.68866 0.0
C437 C 0.96046 0.96682 0.71065 0.0
C438 C 0.9522 0.00049 0.69823 0.0
C439 C 0.96156 0.01127 0.66476 0.0
H440 H 0.57857 0.15662 0.34733 0.0
H441 H 0.6452 0.06707 0.34839 0.0
H442 H 0.5564 0.13846 0.28933 0.0
H443 H 0.62468 0.05078 0.2899 0.0
H444 H 0.61049 0.06676 0.17048 0.0
H445 H 0.63098 0.08618 0.22868 0.0
H446 H 0.51891 0.07632 0.2625 0.0
H447 H 0.49827 0.05597 0.20449 0.0
C448 C 0.58852 0.13314 0.33541 0.0
C449 C 0.61402 0.11359 0.35273 0.0
C450 C 0.57594 0.12293 0.30213 0.0
C451 C 0.58912 0.09344 0.28523 0.0
C452 C 0.61454 0.07394 0.30228 0.0
C453 C 0.6265 0.08359 0.33575 0.0
C454 C 0.59021 0.06877 0.1903 0.0
C455 C 0.55279 0.05969 0.18298 0.0
C456 C 0.60195 0.07979 0.22354 0.0
C457 C 0.57646 0.08275 0.24988 0.0
C458 C 0.53901 0.0744 0.24249 0.0
C459 C 0.5273 0.06257 0.20943 0.0
H460 H 0.48695 0.59163 0.23332 0.0
H461 H 0.373 0.57565 0.26056 0.0
H462 H 0.5045 0.59055 0.29458 0.0
H463 H 0.39012 0.57372 0.32165 0.0
H464 H 0.43174 0.59913 0.43064 0.0
H465 H 0.41712 0.6092 0.37011 0.0
H466 H 0.50337 0.54526 0.33928 0.0
H467 H 0.51851 0.53583 0.39951 0.0
C468 C 0.46577 0.58814 0.25259 0.0
C469 C 0.42878 0.58371 0.24274 0.0
C470 C 0.4757 0.5873 0.28753 0.0
C471 C 0.44869 0.58191 0.313 0.0
C472 C 0.41157 0.5784 0.3028 0.0
C473 C 0.40174 0.57928 0.26791 0.0
C474 C 0.44772 0.5874 0.41095 0.0
C475 C 0.47619 0.56653 0.41999 0.0
C476 C 0.43924 0.59306 0.37626 0.0
C477 C 0.45906 0.578 0.34986 0.0
C478 C 0.48791 0.55769 0.35894 0.0
C479 C 0.49639 0.55204 0.39355 0.0
H480 H 0.05373 0.43182 0.72344 0.0
H481 H 0.02678 0.53909 0.70027 0.0
H482 H 0.04301 0.44245 0.78488 0.0
H483 H 0.01666 0.5503 0.76161 0.0
H484 H 0.96367 0.54338 0.86731 0.0
H485 H 0.97375 0.53114 0.80663 0.0
H486 H 0.06963 0.47848 0.83376 0.0
H487 H 0.05922 0.49013 0.89476 0.0
C488 C 0.04547 0.45765 0.7317 0.0
C489 C 0.04078 0.48464 0.70761 0.0
C490 C 0.03961 0.46387 0.76676 0.0
C491 C 0.02895 0.49722 0.77814 0.0
C492 C 0.02433 0.52416 0.75366 0.0
C493 C 0.03022 0.51789 0.71865 0.0
C494 C 0.98691 0.52913 0.86045 0.0
C495 C 0.01066 0.51777 0.886 0.0
C496 C 0.99279 0.5223 0.82558 0.0
C497 C 0.02256 0.50395 0.81533 0.0
C498 C 0.04621 0.49235 0.84084 0.0
C499 C 0.04034 0.4992 0.87579 0.0
H500 H 0.82347 0.03159 0.95609 0.0
H501 H 0.80799 0.91627 0.96897 0.0
H502 H 0.76326 0.03724 0.98039 0.0
H503 H 0.74765 0.92164 0.99424 0.0
H504 H 0.62569 0.94439 0.9969 0.0
H505 H 0.68704 0.93619 0.97693 0.0
H506 H 0.73001 0.03209 0.03338 0.0
H507 H 0.66862 0.04083 0.05266 0.0
C508 C 0.80713 0.0075 0.96457 0.0
C509 C 0.82 0.97357 0.96091 0.0
C510 C 0.77277 0.01068 0.97868 0.0
C511 C 0.7506 0.97991 0.98946 0.0
C512 C 0.76386 0.94584 0.98592 0.0
C513 C 0.79836 0.94271 0.97172 0.0
C514 C 0.64823 0.96365 0.00521 0.0
C515 C 0.6421 0.99345 0.02619 0.0
C516 C 0.68349 0.9588 0.99392 0.0
C517 C 0.71349 0.98357 0.00338 0.0
C518 C 0.70746 0.01283 0.02509 0.0
C519 C 0.67222 0.01775 0.0363 0.0
H520 H 0.74 0.13797 0.39834 0.0
H521 H 0.69494 0.09245 0.49268 0.0
H522 H 0.80003 0.12046 0.41481 0.0
H523 H 0.7551 0.07532 0.50928 0.0
H524 H 0.8771 0.08362 0.54164 0.0
H525 H 0.8171 0.10199 0.52628 0.0
H526 H 0.82965 0.06433 0.42175 0.0
H527 H 0.88979 0.04629 0.43688 0.0
C528 C 0.74286 0.12415 0.42255 0.0
C529 C 0.71258 0.11652 0.44412 0.0
C530 C 0.77727 0.1141 0.43197 0.0
C531 C 0.78229 0.09632 0.46326 0.0
C532 C 0.75222 0.08932 0.48518 0.0
C533 C 0.71775 0.09925 0.47569 0.0
C534 C 0.86707 0.07915 0.51539 0.0
C535 C 0.88837 0.06351 0.49049 0.0
C536 C 0.83259 0.08956 0.50664 0.0
C537 C 0.81868 0.08476 0.47277 0.0
C538 C 0.83982 0.06886 0.44796 0.0
C539 C 0.8742 0.05828 0.45672 0.0
H540 H 0.28409 0.66239 0.13306 0.0
H541 H 0.32131 0.57958 0.06763 0.0
H542 H 0.22292 0.65144 0.1078 0.0
H543 H 0.26065 0.56983 0.04044 0.0
H544 H 0.13886 0.53094 0.0316 0.0
H545 H 0.2018 0.54438 0.0511 0.0
H546 H 0.18518 0.65748 0.06029 0.0
H547 H 0.12129 0.64338 0.04276 0.0
C548 C 0.27911 0.6422 0.11277 0.0
C549 C 0.30706 0.62166 0.10229 0.0
C550 C 0.24417 0.6361 0.098 0.0
C551 C 0.23662 0.60976 0.0719 0.0
C552 C 0.26512 0.58983 0.0609 0.0
C553 C 0.29991 0.59546 0.07626 0.0
C554 C 0.14876 0.55874 0.03747 0.0
C555 C 0.12511 0.58609 0.03589 0.0
C556 C 0.18504 0.56654 0.04849 0.0
C557 C 0.19878 0.60205 0.05753 0.0
C558 C 0.17542 0.62967 0.05441 0.0
C559 C 0.13885 0.62171 0.04409 0.0
H560 H 0.16938 0.48822 0.56761 0.0
H561 H 0.20397 0.41554 0.64475 0.0
H562 H 0.23333 0.50616 0.5536 0.0
H563 H 0.26782 0.43437 0.63206 0.0
H564 H 0.3758 0.44454 0.5771 0.0
H565 H 0.31154 0.4277 0.58929 0.0
H566 H 0.28861 0.53805 0.57334 0.0
H567 H 0.35262 0.55444 0.5596 0.0
C568 C 0.1908 0.47657 0.5819 0.0
C569 C 0.18195 0.45042 0.60707 0.0
C570 C 0.2274 0.48686 0.574 0.0
C571 C 0.25584 0.47151 0.59149 0.0
C572 C 0.24673 0.44609 0.61742 0.0
C573 C 0.21019 0.43548 0.62492 0.0
C574 C 0.35699 0.46514 0.57606 0.0
C575 C 0.36928 0.5008 0.56741 0.0
C576 C 0.32015 0.45558 0.58331 0.0
C577 C 0.29482 0.48157 0.58262 0.0
C578 C 0.30716 0.5172 0.57368 0.0
C579 C 0.34393 0.52665 0.56594 0.0
H580 H 0.90867 0.81936 0.86741 0.0
H581 H 0.94155 0.87009 0.9652 0.0
H582 H 0.92164 0.76135 0.88994 0.0
H583 H 0.95217 0.81149 0.98856 0.0
H584 H 0.00553 0.70644 0.00706 0.0
H585 H 0.99273 0.76565 0.98619 0.0
H586 H 0.89974 0.71566 0.92779 0.0
H587 H 0.91343 0.65676 0.94744 0.0
C588 C 0.91856 0.81819 0.89378 0.0
C589 C 0.92417 0.84961 0.91435 0.0
C590 C 0.92551 0.78469 0.90694 0.0
C591 C 0.93787 0.7815 0.94121 0.0
C592 C 0.94311 0.81286 0.96195 0.0
C593 C 0.93645 0.84647 0.94866 0.0
C594 C 0.98233 0.70818 0.98982 0.0
C595 C 0.96073 0.67681 0.9787 0.0
C596 C 0.97483 0.74217 0.97797 0.0
C597 C 0.94531 0.74559 0.95501 0.0
C598 C 0.92322 0.71417 0.94472 0.0
C599 C 0.93096 0.68029 0.9562 0.0
H600 H 0.42431 0.71466 0.18831 0.0
H601 H 0.41483 0.70333 0.07752 0.0
H602 H 0.45353 0.77658 0.1817 0.0
H603 H 0.44348 0.76459 0.07084 0.0
H604 H 0.51899 0.86452 0.06543 0.0
H605 H 0.50234 0.80177 0.08015 0.0
H606 H 0.43163 0.83502 0.16014 0.0
H607 H 0.44864 0.89821 0.14578 0.0
C608 C 0.429 0.72529 0.16264 0.0
C609 C 0.41724 0.70453 0.13341 0.0
C610 C 0.44541 0.76064 0.15885 0.0
C611 C 0.45079 0.77535 0.12577 0.0
C612 C 0.44015 0.7539 0.09665 0.0
C613 C 0.4235 0.71895 0.10044 0.0
C614 C 0.50018 0.8586 0.08642 0.0
C615 C 0.48464 0.8864 0.10403 0.0
C616 C 0.49067 0.82261 0.09483 0.0
C617 C 0.46538 0.81351 0.121 0.0
C618 C 0.45137 0.84127 0.13997 0.0
C619 C 0.46093 0.87743 0.13157 0.0
H620 H 0.03347 0.35344 0.58976 0.0
H621 H 0.13352 0.33132 0.64181 0.0
H622 H 0.01898 0.28904 0.57801 0.0
H623 H 0.11929 0.26708 0.62945 0.0
H624 H 0.10542 0.16851 0.55435 0.0
H625 H 0.1168 0.231 0.57416 0.0
H626 H 0.00448 0.22882 0.60666 0.0
H627 H 0.9929 0.16628 0.5868 0.0
C628 C 0.052 0.33481 0.59929 0.0
C629 C 0.08485 0.34754 0.61638 0.0
C630 C 0.04375 0.29795 0.59247 0.0
C631 C 0.06825 0.27317 0.60247 0.0
C632 C 0.10025 0.28569 0.6209 0.0
C633 C 0.10838 0.32245 0.62792 0.0
C634 C 0.08317 0.18125 0.56585 0.0
C635 C 0.04824 0.16241 0.5689 0.0
C636 C 0.08976 0.21696 0.57741 0.0
C637 C 0.06151 0.2347 0.59199 0.0
C638 C 0.02668 0.21584 0.59532 0.0
C639 C 0.02015 0.17999 0.58408 0.0
H640 H 0.56731 0.24039 0.42637 0.0
H641 H 0.57995 0.22457 0.53575 0.0
H642 H 0.55132 0.3019 0.43737 0.0
H643 H 0.56474 0.286 0.54703 0.0
H644 H 0.49914 0.38255 0.55733 0.0
H645 H 0.51297 0.32136 0.54419 0.0
H646 H 0.57845 0.36083 0.45804 0.0
H647 H 0.56407 0.42206 0.47073 0.0
C648 C 0.56677 0.2503 0.45272 0.0
C649 C 0.57472 0.22817 0.48028 0.0
C650 C 0.55782 0.28545 0.45907 0.0
C651 C 0.55662 0.29888 0.49312 0.0
C652 C 0.56482 0.27639 0.52057 0.0
C653 C 0.57377 0.24136 0.51417 0.0
C654 C 0.5164 0.37825 0.5355 0.0
C655 C 0.53057 0.40736 0.51518 0.0
C656 C 0.52451 0.34313 0.52809 0.0
C657 C 0.547 0.33616 0.50017 0.0
C658 C 0.56074 0.36516 0.47952 0.0
C659 C 0.55265 0.40033 0.48694 0.0
loop_
_geom_bond_atom_site_label_1
_geom_bond_atom_site_label_2
_geom_bond_distance
_geom_bond_site_symmetry_2
_ccdc_geom_bond_type
H0 C3 0.929 . S
H1 C6 0.929 . S
H2 C8 0.930 . S
C3 H0 0.929 . S
C3 C4 1.398 . S
C3 C5 1.396 . S
C4 C3 1.398 . S
C4 C8 1.407 . S
C5 C3 1.396 . S
C5 C6 1.394 . S
C6 H1 0.929 . S
C6 C5 1.394 . S
C6 C7 1.382 . S
C7 C6 1.382 . S
C7 C8 1.392 . S
C7 N9 1.420 . S
C8 H2 0.930 . S
C8 C4 1.407 . S
C8 C7 1.392 . S
N9 C7 1.420 . S
N9 C10 1.244 . S
C10 N9 1.244 . S
H11 C14 0.929 . S
H12 C17 0.929 . S
H13 C19 0.930 . S
C14 H11 0.929 . S
C14 C15 1.398 . S
C14 C16 1.396 . S
C15 C14 1.398 . S
C15 C19 1.407 . S
C16 C14 1.396 . S
C16 C17 1.394 . S
C17 H12 0.929 . S
C17 C16 1.394 . S
C17 C18 1.382 . S
C18 C17 1.382 . S
C18 C19 1.392 . S
C18 N20 1.420 . S
C19 H13 0.930 . S
C19 C15 1.407 . S
C19 C18 1.392 . S
N20 C18 1.420 . S
N20 C21 1.244 . S
C21 N20 1.244 . S
H22 C25 0.929 . S
H23 C28 0.929 . S
H24 C30 0.930 . S
C25 H22 0.929 . S
C25 C26 1.398 . S
C25 C27 1.396 . S
C26 C25 1.398 . S
C26 C30 1.407 . S
C27 C25 1.396 . S
C27 C28 1.394 . S
C28 H23 0.929 . S
C28 C27 1.394 . S
C28 C29 1.382 . S
C29 C28 1.382 . S
C29 C30 1.392 . S
C29 N31 1.420 . S
C30 H24 0.930 . S
C30 C26 1.407 . S
C30 C29 1.392 . S
N31 C29 1.420 . S
N31 C32 1.244 . S
C32 N31 1.244 . S
H33 C36 0.929 . S
H34 C39 0.929 . S
H35 C41 0.930 . S
C36 H33 0.929 . S
C36 C37 1.398 . S
C36 C38 1.396 . S
C37 C36 1.398 . S
C37 C41 1.407 . S
C38 C36 1.396 . S
C38 C39 1.394 . S
C39 H34 0.929 . S
C39 C38 1.394 . S
C39 C40 1.382 . S
C40 C39 1.382 . S
C40 C41 1.392 . S
C40 N42 1.420 . S
C41 H35 0.930 . S
C41 C37 1.407 . S
C41 C40 1.392 . S
N42 C40 1.420 . S
N42 C43 1.244 . S
C43 N42 1.244 . S
H44 C47 0.929 . S
H45 C50 0.929 . S
H46 C52 0.930 1_545 S
C47 H44 0.929 . S
C47 C48 1.398 . S
C47 C49 1.396 . S
C48 C47 1.398 . S
C48 C52 1.407 . S
C49 C47 1.396 . S
C49 C50 1.394 . S
C50 H45 0.929 . S
C50 C49 1.394 . S
C50 C51 1.382 . S
C51 C50 1.382 . S
C51 C52 1.392 . S
C51 N53 1.420 1_565 S
C52 H46 0.930 1_565 S
C52 C48 1.407 . S
C52 C51 1.392 . S
N53 C51 1.420 1_545 S
N53 C54 1.244 1_545 S
C54 N53 1.244 1_565 S
H55 C58 0.929 . S
H56 C61 0.929 . S
H57 C63 0.930 . S
C58 H55 0.929 . S
C58 C59 1.398 . S
C58 C60 1.396 . S
C59 C58 1.398 . S
C59 C63 1.407 . S
C60 C58 1.396 . S
C60 C61 1.394 . S
C61 H56 0.929 . S
C61 C60 1.394 . S
C61 C62 1.382 . S
C62 C61 1.382 . S
C62 C63 1.392 . S
C62 N64 1.420 . S
C63 H57 0.930 . S
C63 C59 1.407 . S
C63 C62 1.392 . S
N64 C62 1.420 . S
N64 C65 1.244 . S
C65 N64 1.244 . S
H66 C69 0.929 . S
H67 C72 0.929 . S
H68 C74 0.930 . S
C69 H66 0.929 . S
C69 C70 1.398 . S
C69 C71 1.396 . S
C70 C69 1.398 . S
C70 C74 1.407 . S
C71 C69 1.396 . S
C71 C72 1.394 . S
C72 H67 0.929 . S
C72 C71 1.394 . S
C72 C73 1.382 . S
C73 C72 1.382 . S
C73 C74 1.392 . S
C73 N75 1.420 . S
C74 H68 0.930 . S
C74 C70 1.407 . S
C74 C73 1.392 . S
N75 C73 1.420 . S
N75 C76 1.244 . S
C76 N75 1.244 . S
H77 C80 0.929 . S
H78 C83 0.929 . S
H79 C85 0.930 . S
C80 H77 0.929 . S
C80 C81 1.398 . S
C80 C82 1.396 . S
C81 C80 1.398 . S
C81 C85 1.407 . S
C82 C80 1.396 . S
C82 C83 1.394 . S
C83 H78 0.929 . S
C83 C82 1.394 . S
C83 C84 1.382 . S
C84 C83 1.382 . S
C84 C85 1.392 . S
C84 N86 1.420 . S
C85 H79 0.930 . S
C85 C81 1.407 . S
C85 C84 1.392 . S
N86 C84 1.420 . S
N86 C87 1.244 . S
C87 N86 1.244 . S
O88 Zn89 1.953 . S
O88 C104 1.225 1_655 S
Zn89 O88 1.953 . S
Zn89 O90 1.949 1_655 S
Zn89 O96 1.919 . S
Zn89 O101 1.924 . S
O90 Zn89 1.949 1_455 S
O90 Zn91 1.923 1_455 S
O90 Zn92 1.950 . S
O90 Zn93 1.945 1_545 S
Zn91 O90 1.923 1_655 S
Zn91 O94 1.933 1_545 S
Zn91 O97 1.941 . S
Zn91 O98 1.965 1_655 S
Zn92 O90 1.950 . S
Zn92 O99 1.938 . S
Zn92 O100 1.906 . S
Zn92 O110 1.953 . S
Zn93 O90 1.945 1_565 S
Zn93 O95 1.932 1_455 S
Zn93 O102 1.977 . S
Zn93 O103 1.910 1_455 S
O94 Zn91 1.933 1_565 S
O94 C105 1.226 . S
O95 Zn93 1.932 1_655 S
O95 C105 1.307 . S
O96 Zn89 1.919 . S
O96 C107 1.253 . S
O97 Zn91 1.941 . S
O97 C107 1.283 . S
O98 Zn91 1.965 1_455 S
O98 C106 1.303 . S
O99 Zn92 1.938 . S
O99 C106 1.247 . S
O100 Zn92 1.906 . S
O100 C108 1.304 1_545 S
O101 Zn89 1.924 . S
O101 C109 1.311 . S
O102 Zn93 1.977 . S
O102 C108 1.272 . S
O103 Zn93 1.910 1_655 S
O103 C109 1.231 1_565 S
C104 O88 1.225 1_455 S
C104 O110 1.298 . S
C105 O94 1.226 . S
C105 O95 1.307 . S
C106 O98 1.303 . S
C106 O99 1.247 . S
C107 O96 1.253 . S
C107 O97 1.283 . S
C108 O100 1.304 1_565 S
C108 O102 1.272 . S
C109 O101 1.311 . S
C109 O103 1.231 1_545 S
O110 Zn92 1.953 . S
O110 C104 1.298 . S
O111 Zn112 1.953 . S
O111 C127 1.225 . S
Zn112 O111 1.953 . S
Zn112 O113 1.949 . S
Zn112 O119 1.919 1_554 S
Zn112 O124 1.924 . S
O113 Zn112 1.949 . S
O113 Zn114 1.923 1_545 S
O113 Zn115 1.950 . S
O113 Zn116 1.945 . S
Zn114 O113 1.923 1_565 S
Zn114 O117 1.933 . S
Zn114 O120 1.941 1_554 S
Zn114 O121 1.965 . S
Zn115 O113 1.950 . S
Zn115 O122 1.938 . S
Zn115 O123 1.906 . S
Zn115 O133 1.953 . S
Zn116 O113 1.945 . S
Zn116 O118 1.932 1_545 S
Zn116 O125 1.977 . S
Zn116 O126 1.910 . S
O117 Zn114 1.933 . S
O117 C128 1.226 . S
O118 Zn116 1.932 1_565 S
O118 C128 1.307 . S
O119 Zn112 1.919 1_556 S
O119 C130 1.253 1_545 S
O120 Zn114 1.941 1_556 S
O120 C130 1.283 . S
O121 Zn114 1.965 . S
O121 C129 1.303 1_565 S
O122 Zn115 1.938 . S
O122 C129 1.247 . S
O123 Zn115 1.906 . S
O123 C131 1.304 . S
O124 Zn112 1.924 . S
O124 C132 1.311 . S
O125 Zn116 1.977 . S
O125 C131 1.272 . S
O126 Zn116 1.910 . S
O126 C132 1.231 . S
C127 O111 1.225 . S
C127 O133 1.298 . S
C128 O117 1.226 . S
C128 O118 1.307 . S
C129 O121 1.303 1_545 S
C129 O122 1.247 . S
C130 O119 1.253 1_565 S
C130 O120 1.283 . S
C131 O123 1.304 . S
C131 O125 1.272 . S
C132 O124 1.311 . S
C132 O126 1.231 . S
O133 Zn115 1.953 . S
O133 C127 1.298 . S
O134 Zn135 1.953 . S
O134 C150 1.225 . S
Zn135 O134 1.953 . S
Zn135 O136 1.949 . S
Zn135 O142 1.919 . S
Zn135 O147 1.924 . S
O136 Zn135 1.949 . S
O136 Zn137 1.923 . S
O136 Zn138 1.950 . S
O136 Zn139 1.945 . S
Zn137 O136 1.923 . S
Zn137 O140 1.933 . S
Zn137 O143 1.941 . S
Zn137 O144 1.965 . S
Zn138 O136 1.950 . S
Zn138 O145 1.938 . S
Zn138 O146 1.906 . S
Zn138 O156 1.953 . S
Zn139 O136 1.945 . S
Zn139 O141 1.932 . S
Zn139 O148 1.977 . S
Zn139 O149 1.910 . S
O140 Zn137 1.933 . S
O140 C151 1.226 . S
O141 Zn139 1.932 . S
O141 C151 1.307 . S
O142 Zn135 1.919 . S
O142 C153 1.253 . S
O143 Zn137 1.941 . S
O143 C153 1.283 . S
O144 Zn137 1.965 . S
O144 C152 1.303 . S
O145 Zn138 1.938 . S
O145 C152 1.247 . S
O146 Zn138 1.906 . S
O146 C154 1.304 . S
O147 Zn135 1.924 . S
O147 C155 1.311 . S
O148 Zn139 1.977 . S
O148 C154 1.272 . S
O149 Zn139 1.910 . S
O149 C155 1.231 . S
C150 O134 1.225 . S
C150 O156 1.298 . S
C151 O140 1.226 . S
C151 O141 1.307 . S
C152 O144 1.303 . S
C152 O145 1.247 . S
C153 O142 1.253 . S
C153 O143 1.283 . S
C154 O146 1.304 . S
C154 O148 1.272 . S
C155 O147 1.311 . S
C155 O149 1.231 . S
O156 Zn138 1.953 . S
O156 C150 1.298 . S
O157 Zn158 1.953 . S
O157 C173 1.225 . S
Zn158 O157 1.953 . S
Zn158 O159 1.949 1_655 S
Zn158 O165 1.919 . S
Zn158 O170 1.924 . S
O159 Zn158 1.949 1_455 S
O159 Zn160 1.923 1_454 S
O159 Zn161 1.950 . S
O159 Zn162 1.945 1_554 S
Zn160 O159 1.923 1_656 S
Zn160 O163 1.933 1_655 S
Zn160 O166 1.941 . S
Zn160 O167 1.965 . S
Zn161 O159 1.950 . S
Zn161 O168 1.938 . S
Zn161 O169 1.906 . S
Zn161 O179 1.953 . S
Zn162 O159 1.945 1_556 S
Zn162 O164 1.932 . S
Zn162 O171 1.977 1_556 S
Zn162 O172 1.910 1_556 S
O163 Zn160 1.933 1_455 S
O163 C174 1.226 . S
O164 Zn162 1.932 . S
O164 C174 1.307 . S
O165 Zn158 1.919 . S
O165 C176 1.253 1_554 S
O166 Zn160 1.941 . S
O166 C176 1.283 . S
O167 Zn160 1.965 . S
O167 C175 1.303 . S
O168 Zn161 1.938 . S
O168 C175 1.237 1_454 S
O169 Zn161 1.906 . S
O169 C177 1.304 . S
O170 Zn158 1.924 . S
O170 C178 1.311 1_655 S
O171 Zn162 1.977 1_554 S
O171 C177 1.272 . S
O172 Zn162 1.910 1_554 S
O172 C178 1.231 . S
C173 O157 1.225 . S
C173 O179 1.298 1_655 S
C174 O163 1.226 . S
C174 O164 1.307 . S
C175 O167 1.303 . S
C175 O168 1.237 1_656 S
C176 O165 1.253 1_556 S
C176 O166 1.283 . S
C177 O169 1.304 . S
C177 O171 1.272 . S
C178 O170 1.311 1_455 S
C178 O172 1.231 . S
O179 Zn161 1.953 . S
O179 C173 1.298 1_455 S
H180 C188 0.950 . S
H181 C193 0.950 . S
H182 C190 0.950 . S
H183 C192 0.950 . S
H184 C194 0.950 . S
H185 C196 0.950 . S
H186 C198 0.950 . S
H187 C199 0.950 . S
C188 H180 0.950 . S
C188 C189 1.386 . S
C188 C190 1.391 . S
C189 C188 1.386 . S
C189 C193 1.393 . S
C190 H182 0.950 . S
C190 C188 1.391 . S
C190 C191 1.400 . S
C191 C190 1.400 . S
C191 C192 1.398 . S
C191 C197 1.491 . S
C192 H183 0.950 . S
C192 C191 1.398 . S
C192 C193 1.391 . S
C193 H181 0.950 . S
C193 C189 1.393 . S
C193 C192 1.391 . S
C194 H184 0.950 . S
C194 C195 1.386 . S
C194 C196 1.391 . S
C195 C194 1.386 . S
C195 C199 1.393 . S
C196 H185 0.950 . S
C196 C194 1.391 . S
C196 C197 1.400 . S
C197 C191 1.491 . S
C197 C196 1.400 . S
C197 C198 1.398 . S
C198 H186 0.950 . S
C198 C197 1.398 . S
C198 C199 1.391 . S
C199 H187 0.950 . S
C199 C195 1.393 . S
C199 C198 1.391 . S
H200 C208 0.950 . S
H201 C213 0.950 . S
H202 C210 0.950 . S
H203 C212 0.950 . S
H204 C214 0.950 . S
H205 C216 0.950 . S
H206 C218 0.950 . S
H207 C219 0.950 . S
C208 H200 0.950 . S
C208 C209 1.386 . S
C208 C210 1.391 . S
C209 C208 1.386 . S
C209 C213 1.393 . S
C210 H202 0.950 . S
C210 C208 1.391 . S
C210 C211 1.400 . S
C211 C210 1.400 . S
C211 C212 1.398 . S
C211 C217 1.491 . S
C212 H203 0.950 . S
C212 C211 1.398 . S
C212 C213 1.391 . S
C213 H201 0.950 . S
C213 C209 1.393 . S
C213 C212 1.391 . S
C214 H204 0.950 . S
C214 C215 1.386 . S
C214 C216 1.391 . S
C215 C214 1.386 . S
C215 C219 1.393 . S
C216 H205 0.950 . S
C216 C214 1.391 . S
C216 C217 1.400 . S
C217 C211 1.491 . S
C217 C216 1.400 . S
C217 C218 1.398 . S
C218 H206 0.950 . S
C218 C217 1.398 . S
C218 C219 1.391 . S
C219 H207 0.950 . S
C219 C215 1.393 . S
C219 C218 1.391 . S
H220 C228 0.950 . S
H221 C233 0.950 . S
H222 C230 0.950 . S
H223 C232 0.950 . S
H224 C234 0.950 . S
H225 C236 0.950 . S
H226 C238 0.950 . S
H227 C239 0.950 . S
C228 H220 0.950 . S
C228 C229 1.386 . S
C228 C230 1.391 . S
C229 C228 1.386 . S
C229 C233 1.393 . S
C230 H222 0.950 . S
C230 C228 1.391 . S
C230 C231 1.400 . S
C231 C230 1.400 . S
C231 C232 1.398 . S
C231 C237 1.491 . S
C232 H223 0.950 . S
C232 C231 1.398 . S
C232 C233 1.391 . S
C233 H221 0.950 . S
C233 C229 1.393 . S
C233 C232 1.391 . S
C234 H224 0.950 . S
C234 C235 1.386 . S
C234 C236 1.391 . S
C235 C234 1.386 . S
C235 C239 1.393 . S
C236 H225 0.950 . S
C236 C234 1.391 . S
C236 C237 1.400 . S
C237 C231 1.491 . S
C237 C236 1.400 . S
C237 C238 1.398 . S
C238 H226 0.950 . S
C238 C237 1.398 . S
C238 C239 1.391 . S
C239 H227 0.950 . S
C239 C235 1.393 . S
C239 C238 1.391 . S
H240 C248 0.950 . S
H241 C253 0.950 . S
H242 C250 0.950 . S
H243 C252 0.950 . S
H244 C254 0.950 . S
H245 C256 0.950 . S
H246 C258 0.950 1_455 S
H247 C259 0.937 1_455 S
C248 H240 0.950 . S
C248 C249 1.386 . S
C248 C250 1.391 . S
C249 C248 1.386 . S
C249 C253 1.393 . S
C250 H242 0.950 . S
C250 C248 1.391 . S
C250 C251 1.400 . S
C251 C250 1.400 . S
C251 C252 1.398 . S
C251 C257 1.491 . S
C252 H243 0.950 . S
C252 C251 1.398 . S
C252 C253 1.391 . S
C253 H241 0.950 . S
C253 C249 1.393 . S
C253 C252 1.391 . S
C254 H244 0.950 . S
C254 C255 1.386 . S
C254 C256 1.391 . S
C255 C254 1.386 . S
C255 C259 1.401 . S
C256 H245 0.950 . S
C256 C254 1.391 . S
C256 C257 1.400 . S
C257 C251 1.491 . S
C257 C256 1.400 . S
C257 C258 1.398 . S
C258 H246 0.950 1_655 S
C258 C257 1.398 . S
C258 C259 1.395 . S
C259 H247 0.937 1_655 S
C259 C255 1.401 . S
C259 C258 1.395 . S
H260 C268 0.950 . S
H261 C273 0.950 . S
H262 C270 0.950 . S
H263 C272 0.950 . S
H264 C274 0.950 . S
H265 C276 0.950 . S
H266 C278 0.950 . S
H267 C279 0.950 . S
C268 H260 0.950 . S
C268 C269 1.386 . S
C268 C270 1.391 . S
C269 C268 1.386 . S
C269 C273 1.393 . S
C270 H262 0.950 . S
C270 C268 1.391 . S
C270 C271 1.400 . S
C271 C270 1.400 . S
C271 C272 1.398 . S
C271 C277 1.491 . S
C272 H263 0.950 . S
C272 C271 1.398 . S
C272 C273 1.391 . S
C273 H261 0.950 . S
C273 C269 1.393 . S
C273 C272 1.391 . S
C274 H264 0.950 . S
C274 C275 1.386 . S
C274 C276 1.391 . S
C275 C274 1.386 . S
C275 C279 1.393 . S
C276 H265 0.950 . S
C276 C274 1.391 . S
C276 C277 1.400 . S
C277 C271 1.491 . S
C277 C276 1.400 . S
C277 C278 1.398 . S
C278 H266 0.950 . S
C278 C277 1.398 . S
C278 C279 1.391 . S
C279 H267 0.950 . S
C279 C275 1.393 . S
C279 C278 1.391 . S
H280 C288 0.950 . S
H281 C293 0.950 . S
H282 C290 0.950 . S
H283 C292 0.950 . S
H284 C294 0.950 . S
H285 C296 0.950 . S
H286 C298 0.950 . S
H287 C299 0.950 . S
C288 H280 0.950 . S
C288 C289 1.386 . S
C288 C290 1.391 . S
C289 C288 1.386 . S
C289 C293 1.393 . S
C290 H282 0.950 . S
C290 C288 1.391 . S
C290 C291 1.400 . S
C291 C290 1.400 . S
C291 C292 1.398 . S
C291 C297 1.491 . S
C292 H283 0.950 . S
C292 C291 1.398 . S
C292 C293 1.391 . S
C293 H281 0.950 . S
C293 C289 1.393 . S
C293 C292 1.391 . S
C294 H284 0.950 . S
C294 C295 1.386 . S
C294 C296 1.391 . S
C295 C294 1.386 . S
C295 C299 1.393 . S
C296 H285 0.950 . S
C296 C294 1.391 . S
C296 C297 1.400 . S
C297 C291 1.491 . S
C297 C296 1.400 . S
C297 C298 1.398 . S
C298 H286 0.950 . S
C298 C297 1.398 . S
C298 C299 1.391 . S
C299 H287 0.950 . S
C299 C295 1.393 . S
C299 C298 1.391 . S
H300 C308 0.950 . S
H301 C313 0.950 . S
H302 C310 0.950 . S
H303 C312 0.950 . S
H304 C314 0.950 . S
H305 C316 0.950 . S
H306 C318 0.950 . S
H307 C319 0.950 . S
C308 H300 0.950 . S
C308 C309 1.386 . S
C308 C310 1.391 . S
C309 C308 1.386 . S
C309 C313 1.393 . S
C310 H302 0.950 . S
C310 C308 1.391 . S
C310 C311 1.400 . S
C311 C310 1.400 . S
C311 C312 1.398 . S
C311 C317 1.491 . S
C312 H303 0.950 . S
C312 C311 1.398 . S
C312 C313 1.391 . S
C313 H301 0.950 . S
C313 C309 1.393 . S
C313 C312 1.391 . S
C314 H304 0.950 . S
C314 C315 1.386 . S
C314 C316 1.391 . S
C315 C314 1.386 . S
C315 C319 1.393 . S
C316 H305 0.950 . S
C316 C314 1.391 . S
C316 C317 1.400 . S
C317 C311 1.491 . S
C317 C316 1.400 . S
C317 C318 1.398 . S
C318 H306 0.950 . S
C318 C317 1.398 . S
C318 C319 1.391 . S
C319 H307 0.950 . S
C319 C315 1.393 . S
C319 C318 1.391 . S
H320 C328 0.950 . S
H321 C333 0.950 . S
H322 C330 0.950 . S
H323 C332 0.950 . S
H324 C334 0.950 . S
H325 C336 0.950 . S
H326 C338 0.950 . S
H327 C339 0.950 . S
C328 H320 0.950 . S
C328 C329 1.386 . S
C328 C330 1.391 . S
C329 C328 1.386 . S
C329 C333 1.393 . S
C330 H322 0.950 . S
C330 C328 1.391 . S
C330 C331 1.400 . S
C331 C330 1.400 . S
C331 C332 1.398 . S
C331 C337 1.491 . S
C332 H323 0.950 . S
C332 C331 1.398 . S
C332 C333 1.391 . S
C333 H321 0.950 . S
C333 C329 1.393 . S
C333 C332 1.391 . S
C334 H324 0.950 . S
C334 C335 1.386 . S
C334 C336 1.391 . S
C335 C334 1.386 . S
C335 C339 1.393 . S
C336 H325 0.950 . S
C336 C334 1.391 . S
C336 C337 1.400 . S
C337 C331 1.491 . S
C337 C336 1.400 . S
C337 C338 1.398 . S
C338 H326 0.950 . S
C338 C337 1.398 . S
C338 C339 1.391 . S
C339 H327 0.950 . S
C339 C335 1.393 . S
C339 C338 1.391 . S
H340 C348 0.950 . S
H341 C353 0.950 . S
H342 C350 0.950 . S
H343 C352 0.950 . S
H344 C354 0.950 . S
H345 C356 0.950 . S
H346 C358 0.950 . S
H347 C359 0.950 1_655 S
C348 H340 0.950 . S
C348 C349 1.386 . S
C348 C350 1.391 . S
C349 C348 1.386 . S
C349 C353 1.393 . S
C350 H342 0.950 . S
C350 C348 1.391 . S
C350 C351 1.400 . S
C351 C350 1.400 . S
C351 C352 1.398 . S
C351 C357 1.491 . S
C352 H343 0.950 . S
C352 C351 1.398 . S
C352 C353 1.391 . S
C353 H341 0.950 . S
C353 C349 1.393 . S
C353 C352 1.391 . S
C354 H344 0.950 . S
C354 C355 1.386 . S
C354 C356 1.391 . S
C355 C354 1.386 . S
C355 C359 1.393 . S
C356 H345 0.950 . S
C356 C354 1.391 . S
C356 C357 1.400 . S
C357 C351 1.491 . S
C357 C356 1.400 . S
C357 C358 1.398 . S
C358 H346 0.950 . S
C358 C357 1.398 . S
C358 C359 1.391 . S
C359 H347 0.950 1_455 S
C359 C355 1.393 . S
C359 C358 1.391 . S
H360 C368 0.950 . S
H361 C373 0.950 . S
H362 C370 0.950 . S
H363 C372 0.950 . S
H364 C374 0.950 . S
H365 C376 0.950 . S
H366 C378 0.950 . S
H367 C379 0.950 . S
C368 H360 0.950 . S
C368 C369 1.386 . S
C368 C370 1.391 . S
C369 C368 1.386 . S
C369 C373 1.393 . S
C370 H362 0.950 . S
C370 C368 1.391 . S
C370 C371 1.400 . S
C371 C370 1.400 . S
C371 C372 1.398 . S
C371 C377 1.491 . S
C372 H363 0.950 . S
C372 C371 1.398 . S
C372 C373 1.391 . S
C373 H361 0.950 . S
C373 C369 1.393 . S
C373 C372 1.391 . S
C374 H364 0.950 . S
C374 C375 1.386 . S
C374 C376 1.391 1_554 S
C375 C374 1.386 . S
C375 C379 1.393 . S
C376 H365 0.950 . S
C376 C374 1.391 1_556 S
C376 C377 1.400 . S
C377 C371 1.491 . S
C377 C376 1.400 . S
C377 C378 1.398 . S
C378 H366 0.950 . S
C378 C377 1.398 . S
C378 C379 1.391 1_556 S
C379 H367 0.950 . S
C379 C375 1.393 . S
C379 C378 1.391 1_554 S
H380 C388 0.950 . S
H381 C393 0.950 . S
H382 C390 0.950 . S
H383 C392 0.950 . S
H384 C394 0.950 . S
H385 C396 0.950 . S
H386 C398 0.950 . S
H387 C399 0.950 1_455 S
C388 H380 0.950 . S
C388 C389 1.386 . S
C388 C390 1.391 . S
C389 C388 1.386 . S
C389 C393 1.393 . S
C390 H382 0.950 . S
C390 C388 1.391 . S
C390 C391 1.400 . S
C391 C390 1.400 . S
C391 C392 1.398 . S
C391 C397 1.491 . S
C392 H383 0.950 . S
C392 C391 1.398 . S
C392 C393 1.391 . S
C393 H381 0.950 . S
C393 C389 1.393 . S
C393 C392 1.391 . S
C394 H384 0.950 . S
C394 C395 1.386 . S
C394 C396 1.391 . S
C395 C394 1.386 . S
C395 C399 1.393 . S
C396 H385 0.950 . S
C396 C394 1.391 . S
C396 C397 1.400 . S
C397 C391 1.491 . S
C397 C396 1.400 . S
C397 C398 1.398 . S
C398 H386 0.950 . S
C398 C397 1.398 . S
C398 C399 1.391 . S
C399 H387 0.950 1_655 S
C399 C395 1.393 . S
C399 C398 1.391 . S
H400 C408 0.950 . S
H401 C413 0.950 . S
H402 C410 0.950 . S
H403 C412 0.950 . S
H404 C414 0.950 . S
H405 C416 0.950 . S
H406 C418 0.950 . S
H407 C419 0.950 . S
C408 H400 0.950 . S
C408 C409 1.386 . S
C408 C410 1.391 . S
C409 C408 1.386 . S
C409 C413 1.393 . S
C410 H402 0.950 . S
C410 C408 1.391 . S
C410 C411 1.400 . S
C411 C410 1.400 . S
C411 C412 1.398 . S
C411 C417 1.491 . S
C412 H403 0.950 . S
C412 C411 1.398 . S
C412 C413 1.391 . S
C413 H401 0.950 . S
C413 C409 1.393 . S
C413 C412 1.391 . S
C414 H404 0.950 . S
C414 C415 1.386 . S
C414 C416 1.391 . S
C415 C414 1.386 . S
C415 C419 1.393 . S
C416 H405 0.950 . S
C416 C414 1.391 . S
C416 C417 1.400 . S
C417 C411 1.491 . S
C417 C416 1.400 . S
C417 C418 1.398 . S
C418 H406 0.950 . S
C418 C417 1.398 . S
C418 C419 1.391 . S
C419 H407 0.950 . S
C419 C415 1.393 . S
C419 C418 1.391 . S
H420 C428 0.950 . S
H421 C433 0.950 . S
H422 C430 0.950 . S
H423 C432 0.951 . S
H424 C434 0.950 1_455 S
H425 C436 0.950 1_455 S
H426 C438 0.950 . S
H427 C439 0.950 . S
C428 H420 0.950 . S
C428 C429 1.386 1_545 S
C428 C430 1.391 . S
C429 C428 1.386 1_565 S
C429 C433 1.393 . S
C430 H422 0.950 . S
C430 C428 1.391 . S
C430 C431 1.400 1_545 S
C431 C430 1.400 1_565 S
C431 C432 1.398 . S
C431 C437 1.494 . S
C432 H423 0.951 . S
C432 C431 1.398 . S
C432 C433 1.391 . S
C433 H421 0.950 . S
C433 C429 1.393 . S
C433 C432 1.391 . S
C434 H424 0.950 1_655 S
C434 C435 1.386 1_565 S
C434 C436 1.391 . S
C435 C434 1.386 1_545 S
C435 C439 1.393 . S
C436 H425 0.950 1_655 S
C436 C434 1.391 . S
C436 C437 1.415 . S
C437 C431 1.494 . S
C437 C436 1.415 . S
C437 C438 1.381 1_565 S
C438 H426 0.950 . S
C438 C437 1.381 1_545 S
C438 C439 1.391 . S
C439 H427 0.950 . S
C439 C435 1.393 . S
C439 C438 1.391 . S
H440 C448 0.950 . S
H441 C453 0.950 . S
H442 C450 0.950 . S
H443 C452 0.950 . S
H444 C454 0.950 1_565 S
H445 C456 0.950 . S
H446 C458 0.950 . S
H447 C459 0.950 . S
C448 H440 0.950 . S
C448 C449 1.386 . S
C448 C450 1.391 . S
C449 C448 1.386 . S
C449 C453 1.393 . S
C450 H442 0.950 . S
C450 C448 1.391 . S
C450 C451 1.400 . S
C451 C450 1.400 . S
C451 C452 1.398 . S
C451 C457 1.491 . S
C452 H443 0.950 . S
C452 C451 1.398 . S
C452 C453 1.391 . S
C453 H441 0.950 . S
C453 C449 1.393 . S
C453 C452 1.391 . S
C454 H444 0.950 1_545 S
C454 C455 1.386 . S
C454 C456 1.391 . S
C455 C454 1.386 . S
C455 C459 1.393 . S
C456 H445 0.950 . S
C456 C454 1.391 . S
C456 C457 1.400 . S
C457 C451 1.491 . S
C457 C456 1.400 . S
C457 C458 1.398 . S
C458 H446 0.950 . S
C458 C457 1.398 . S
C458 C459 1.391 . S
C459 H447 0.950 . S
C459 C455 1.393 . S
C459 C458 1.391 . S
H460 C468 0.950 . S
H461 C473 0.950 . S
H462 C470 0.950 . S
H463 C472 0.950 . S
H464 C474 0.950 . S
H465 C476 0.950 . S
H466 C478 0.950 . S
H467 C479 0.950 . S
C468 H460 0.950 . S
C468 C469 1.386 . S
C468 C470 1.391 . S
C469 C468 1.386 . S
C469 C473 1.393 . S
C470 H462 0.950 . S
C470 C468 1.391 . S
C470 C471 1.400 . S
C471 C470 1.400 . S
C471 C472 1.398 . S
C471 C477 1.491 . S
C472 H463 0.950 . S
C472 C471 1.398 . S
C472 C473 1.391 . S
C473 H461 0.950 . S
C473 C469 1.393 . S
C473 C472 1.391 . S
C474 H464 0.950 . S
C474 C475 1.386 . S
C474 C476 1.391 . S
C475 C474 1.386 . S
C475 C479 1.393 . S
C476 H465 0.950 . S
C476 C474 1.391 . S
C476 C477 1.400 . S
C477 C471 1.491 . S
C477 C476 1.400 . S
C477 C478 1.398 . S
C478 H466 0.950 . S
C478 C477 1.398 . S
C478 C479 1.391 . S
C479 H467 0.950 . S
C479 C475 1.393 . S
C479 C478 1.391 . S
H480 C488 0.950 . S
H481 C493 0.950 . S
H482 C490 0.950 . S
H483 C492 0.950 . S
H484 C494 0.950 1_655 S
H485 C496 0.950 . S
H486 C498 0.950 . S
H487 C499 0.950 . S
C488 H480 0.950 . S
C488 C489 1.386 . S
C488 C490 1.391 . S
C489 C488 1.386 . S
C489 C493 1.393 . S
C490 H482 0.950 . S
C490 C488 1.391 . S
C490 C491 1.400 . S
C491 C490 1.400 . S
C491 C492 1.398 . S
C491 C497 1.491 . S
C492 H483 0.950 . S
C492 C491 1.398 . S
C492 C493 1.391 . S
C493 H481 0.950 . S
C493 C489 1.393 . S
C493 C492 1.391 . S
C494 H484 0.950 1_455 S
C494 C495 1.386 . S
C494 C496 1.391 . S
C495 C494 1.386 . S
C495 C499 1.393 . S
C496 H485 0.950 . S
C496 C494 1.391 . S
C496 C497 1.400 . S
C497 C491 1.491 . S
C497 C496 1.400 . S
C497 C498 1.398 . S
C498 H486 0.950 . S
C498 C497 1.398 . S
C498 C499 1.391 . S
C499 H487 0.950 . S
C499 C495 1.393 . S
C499 C498 1.391 . S
H500 C508 0.950 . S
H501 C513 0.950 . S
H502 C510 0.950 1_554 S
H503 C512 0.950 . S
H504 C514 0.950 . S
H505 C516 0.950 . S
H506 C518 0.950 . S
H507 C519 0.950 . S
C508 H500 0.950 . S
C508 C509 1.386 1_545 S
C508 C510 1.391 . S
C509 C508 1.386 1_565 S
C509 C513 1.393 . S
C510 H502 0.950 1_556 S
C510 C508 1.391 . S
C510 C511 1.400 . S
C511 C510 1.400 . S
C511 C512 1.398 1_545 S
C511 C517 1.483 1_556 S
C512 H503 0.950 . S
C512 C511 1.398 1_565 S
C512 C513 1.391 . S
C513 H501 0.950 . S
C513 C509 1.393 . S
C513 C512 1.391 . S
C514 H504 0.950 . S
C514 C515 1.386 1_565 S
C514 C516 1.391 1_554 S
C515 C514 1.386 1_545 S
C515 C519 1.393 . S
C516 H505 0.950 . S
C516 C514 1.391 1_556 S
C516 C517 1.398 1_566 S
C517 C511 1.483 1_554 S
C517 C516 1.398 1_544 S
C517 C518 1.409 . S
C518 H506 0.950 . S
C518 C517 1.409 . S
C518 C519 1.391 . S
C519 H507 0.950 . S
C519 C515 1.393 . S
C519 C518 1.391 . S
H520 C528 0.950 . S
H521 C533 0.950 . S
H522 C530 0.950 . S
H523 C532 0.950 . S
H524 C534 0.950 . S
H525 C536 0.950 . S
H526 C538 0.950 . S
H527 C539 0.950 . S
C528 H520 0.950 . S
C528 C529 1.386 . S
C528 C530 1.391 . S
C529 C528 1.386 . S
C529 C533 1.393 . S
C530 H522 0.950 . S
C530 C528 1.391 . S
C530 C531 1.400 . S
C531 C530 1.400 . S
C531 C532 1.398 . S
C531 C537 1.491 . S
C532 H523 0.950 . S
C532 C531 1.398 . S
C532 C533 1.391 . S
C533 H521 0.950 . S
C533 C529 1.393 . S
C533 C532 1.391 . S
C534 H524 0.950 . S
C534 C535 1.386 . S
C534 C536 1.391 . S
C535 C534 1.386 . S
C535 C539 1.393 . S
C536 H525 0.950 . S
C536 C534 1.391 . S
C536 C537 1.400 . S
C537 C531 1.491 . S
C537 C536 1.400 . S
C537 C538 1.398 . S
C538 H526 0.950 . S
C538 C537 1.398 . S
C538 C539 1.391 . S
C539 H527 0.950 . S
C539 C535 1.393 . S
C539 C538 1.391 . S
H540 C548 0.950 . S
H541 C553 0.950 . S
H542 C550 0.950 . S
H543 C552 0.950 . S
H544 C554 0.950 . S
H545 C556 0.950 . S
H546 C558 0.950 . S
H547 C559 0.950 . S
C548 H540 0.950 . S
C548 C549 1.386 . S
C548 C550 1.391 . S
C549 C548 1.386 . S
C549 C553 1.393 . S
C550 H542 0.950 . S
C550 C548 1.391 . S
C550 C551 1.400 . S
C551 C550 1.400 . S
C551 C552 1.398 . S
C551 C557 1.491 . S
C552 H543 0.950 . S
C552 C551 1.398 . S
C552 C553 1.391 . S
C553 H541 0.950 . S
C553 C549 1.393 . S
C553 C552 1.391 . S
C554 H544 0.950 . S
C554 C555 1.386 . S
C554 C556 1.391 . S
C555 C554 1.386 . S
C555 C559 1.393 . S
C556 H545 0.950 . S
C556 C554 1.391 . S
C556 C557 1.400 . S
C557 C551 1.491 . S
C557 C556 1.400 . S
C557 C558 1.398 . S
C558 H546 0.950 . S
C558 C557 1.398 . S
C558 C559 1.391 . S
C559 H547 0.950 . S
C559 C555 1.393 . S
C559 C558 1.391 . S
H560 C568 0.950 . S
H561 C573 0.950 . S
H562 C570 0.950 . S
H563 C572 0.950 . S
H564 C574 0.950 . S
H565 C576 0.950 . S
H566 C578 0.950 . S
H567 C579 0.950 . S
C568 H560 0.950 . S
C568 C569 1.386 . S
C568 C570 1.391 . S
C569 C568 1.386 . S
C569 C573 1.393 . S
C570 H562 0.950 . S
C570 C568 1.391 . S
C570 C571 1.400 . S
C571 C570 1.400 . S
C571 C572 1.398 . S
C571 C577 1.491 . S
C572 H563 0.950 . S
C572 C571 1.398 . S
C572 C573 1.391 . S
C573 H561 0.950 . S
C573 C569 1.393 . S
C573 C572 1.391 . S
C574 H564 0.950 . S
C574 C575 1.386 . S
C574 C576 1.391 . S
C575 C574 1.386 . S
C575 C579 1.393 . S
C576 H565 0.950 . S
C576 C574 1.391 . S
C576 C577 1.400 . S
C577 C571 1.491 . S
C577 C576 1.400 . S
C577 C578 1.398 . S
C578 H566 0.950 . S
C578 C577 1.398 . S
C578 C579 1.391 . S
C579 H567 0.950 . S
C579 C575 1.393 . S
C579 C578 1.391 . S
H580 C588 0.950 . S
H581 C593 0.962 . S
H582 C590 0.950 . S
H583 C592 0.950 1_554 S
H584 C594 0.950 . S
H585 C596 0.950 . S
H586 C598 0.950 . S
H587 C599 0.950 . S
C588 H580 0.950 . S
C588 C589 1.386 . S
C588 C590 1.391 . S
C589 C588 1.386 . S
C589 C593 1.393 . S
C590 H582 0.950 . S
C590 C588 1.391 . S
C590 C591 1.400 . S
C591 C590 1.400 . S
C591 C592 1.398 . S
C591 C597 1.491 . S
C592 H583 0.950 1_556 S
C592 C591 1.398 . S
C592 C593 1.391 . S
C593 H581 0.962 . S
C593 C589 1.393 . S
C593 C592 1.391 . S
C594 H584 0.950 . S
C594 C595 1.386 1_554 S
C594 C596 1.391 . S
C595 C594 1.386 1_556 S
C595 C599 1.393 . S
C596 H585 0.950 . S
C596 C594 1.391 . S
C596 C597 1.400 1_554 S
C597 C591 1.491 . S
C597 C596 1.400 1_556 S
C597 C598 1.398 . S
C598 H586 0.950 . S
C598 C597 1.398 . S
C598 C599 1.391 . S
C599 H587 0.950 . S
C599 C595 1.393 . S
C599 C598 1.391 . S
H600 C608 0.950 . S
H601 C613 0.950 . S
H602 C610 0.950 . S
H603 C612 0.950 . S
H604 C614 0.950 . S
H605 C616 0.950 . S
H606 C618 0.950 . S
H607 C619 0.950 . S
C608 H600 0.950 . S
C608 C609 1.386 . S
C608 C610 1.391 . S
C609 C608 1.386 . S
C609 C613 1.393 . S
C610 H602 0.950 . S
C610 C608 1.391 . S
C610 C611 1.400 . S
C611 C610 1.400 . S
C611 C612 1.398 . S
C611 C617 1.491 . S
C612 H603 0.950 . S
C612 C611 1.398 . S
C612 C613 1.391 . S
C613 H601 0.950 . S
C613 C609 1.393 . S
C613 C612 1.391 . S
C614 H604 0.950 . S
C614 C615 1.386 . S
C614 C616 1.391 . S
C615 C614 1.386 . S
C615 C619 1.393 . S
C616 H605 0.950 . S
C616 C614 1.391 . S
C616 C617 1.400 . S
C617 C611 1.491 . S
C617 C616 1.400 . S
C617 C618 1.398 . S
C618 H606 0.950 . S
C618 C617 1.398 . S
C618 C619 1.391 . S
C619 H607 0.950 . S
C619 C615 1.393 . S
C619 C618 1.391 . S
H620 C628 0.950 . S
H621 C633 0.950 . S
H622 C630 0.950 . S
H623 C632 0.950 . S
H624 C634 0.950 . S
H625 C636 0.950 . S
H626 C638 0.950 . S
H627 C639 0.950 1_655 S
C628 H620 0.950 . S
C628 C629 1.386 . S
C628 C630 1.391 . S
C629 C628 1.386 . S
C629 C633 1.393 . S
C630 H622 0.950 . S
C630 C628 1.391 . S
C630 C631 1.400 . S
C631 C630 1.400 . S
C631 C632 1.398 . S
C631 C637 1.491 . S
C632 H623 0.950 . S
C632 C631 1.398 . S
C632 C633 1.391 . S
C633 H621 0.950 . S
C633 C629 1.393 . S
C633 C632 1.391 . S
C634 H624 0.950 . S
C634 C635 1.386 . S
C634 C636 1.391 . S
C635 C634 1.386 . S
C635 C639 1.393 . S
C636 H625 0.950 . S
C636 C634 1.391 . S
C636 C637 1.400 . S
C637 C631 1.491 . S
C637 C636 1.400 . S
C637 C638 1.398 . S
C638 H626 0.950 . S
C638 C637 1.398 . S
C638 C639 1.391 . S
C639 H627 0.950 1_455 S
C639 C635 1.393 . S
C639 C638 1.391 . S
H640 C648 0.950 . S
H641 C653 0.950 . S
H642 C650 0.950 . S
H643 C652 0.950 . S
H644 C654 0.950 . S
H645 C656 0.950 . S
H646 C658 0.950 . S
H647 C659 0.950 . S
C648 H640 0.950 . S
C648 C649 1.386 . S
C648 C650 1.391 . S
C649 C648 1.386 . S
C649 C653 1.393 . S
C650 H642 0.950 . S
C650 C648 1.391 . S
C650 C651 1.400 . S
C651 C650 1.400 . S
C651 C652 1.398 . S
C651 C657 1.491 . S
C652 H643 0.950 . S
C652 C651 1.398 . S
C652 C653 1.391 . S
C653 H641 0.950 . S
C653 C649 1.393 . S
C653 C652 1.391 . S
C654 H644 0.950 . S
C654 C655 1.386 . S
C654 C656 1.391 . S
C655 C654 1.386 . S
C655 C659 1.393 . S
C656 H645 0.950 . S
C656 C654 1.391 . S
C656 C657 1.400 . S
C657 C651 1.491 . S
C657 C656 1.400 . S
C657 C658 1.398 . S
C658 H646 0.950 . S
C658 C657 1.398 . S
C658 C659 1.391 . S
C659 H647 0.950 . S
C659 C655 1.393 . S
C659 C658 1.391 . S
C189 C4 1.766 . S
C195 C106 1.727 . S
C209 C16 1.923 . S
C215 C130 1.876 . S
C235 C150 1.034 . S
C229 C32 1.025 . S
C249 C43 1.305 . S
C255 C173 1.317 . S
C275 C132 2.094 . S
C269 C5 2.111 . S
C295 C108 1.434 . S
C289 C21 1.485 . S
C315 C176 1.442 . S
C309 C27 1.489 . S
C335 C153 1.413 . S
C329 C37 1.441 . S
C349 C10 1.471 . S
C355 C178 1.424 . S
C375 C127 1.697 . S
C369 C26 1.687 . S
C389 C38 1.361 . S
C395 C105 1.373 . S
C409 C15 1.591 . S
C415 C155 1.542 . S
C435 C109 1.904 . S
C429 C48 1.910 . S
C449 C59 1.658 . S
C455 C131 1.675 . S
C469 C76 1.561 . S
C475 C151 1.590 . S
C489 C87 1.399 . S
C495 C174 1.428 . S
C509 C54 1.381 . S
C515 C129 1.374 . S
C535 C107 1.899 . S
C529 C60 1.886 . S
C555 C177 1.338 . S
C549 C71 1.400 . S
C575 C154 1.346 . S
C569 C82 1.348 . S
C589 C49 2.045 . S
C595 C175 2.034 . S
C615 C128 1.244 . S
C609 C70 1.229 . S
C635 C104 1.596 . S
C629 C81 1.585 . S
C649 C65 1.743 . S
C655 C152 1.724 . S
