# Generated by pormake.
# Topology tsx, (6,3)-cn, num edge types: 1
# Building blocks:
#     Node 0, Type 0, BuildingBlock: CIFDUS_clean_sbu_1, # of connection points: 6
#     Node 1, Type 0, BuildingBlock: CIFDUS_clean_sbu_1, # of connection points: 6
#     Node 2, Type 1, BuildingBlock: PAMTOO_clean_linker_0, # of connection points: 3
#     Node 3, Type 1, BuildingBlock: PAMTOO_clean_linker_0, # of connection points: 3
#     Node 4, Type 1, BuildingBlock: PAMTOO_clean_linker_0, # of connection points: 3
#     Node 5, Type 1, BuildingBlock: PAMTOO_clean_linker_0, # of connection points: 3
#     Edge 6, Type (0, 1), BuildingBlock: MIFKUJ_clean_linker_0, # of connection points: 2
#     Edge 7, Type (0, 1), BuildingBlock: MIFKUJ_clean_linker_0, # of connection points: 2
#     Edge 8, Type (0, 1), BuildingBlock: MIFKUJ_clean_linker_0, # of connection points: 2
#     Edge 9, Type (0, 1), BuildingBlock: MIFKUJ_clean_linker_0, # of connection points: 2
#     Edge 10, Type (0, 1), BuildingBlock: MIFKUJ_clean_linker_0, # of connection points: 2
#     Edge 11, Type (0, 1), BuildingBlock: MIFKUJ_clean_linker_0, # of connection points: 2
#     Edge 12, Type (0, 1), BuildingBlock: MIFKUJ_clean_linker_0, # of connection points: 2
#     Edge 13, Type (0, 1), BuildingBlock: MIFKUJ_clean_linker_0, # of connection points: 2
#     Edge 14, Type (0, 1), BuildingBlock: MIFKUJ_clean_linker_0, # of connection points: 2
#     Edge 15, Type (0, 1), BuildingBlock: MIFKUJ_clean_linker_0, # of connection points: 2
#     Edge 16, Type (0, 1), BuildingBlock: MIFKUJ_clean_linker_0, # of connection points: 2
#     Edge 17, Type (0, 1), BuildingBlock: MIFKUJ_clean_linker_0, # of connection points: 2
# Relax obj value: 0.124
# Max RMSD: 0.146
# Mean RMSD: 0.138
data_MOF--net-tsx--node1-CIFDUS_clean_sbu_1--node2-PAMTOO_clean_linker_0--edge1-MIFKUJ_clean_linker_0
_symmetry_space_group_name_H-M    P1
_symmetry_Int_Tables_number       1
_symmetry_cell_setting            triclinic
loop_
_symmetry_equiv_pos_as_xyz
'x, y, z'
_cell_length_a     24.55204
_cell_length_b     29.297633
_cell_length_c     44.191305
_cell_angle_alpha  88.959925
_cell_angle_beta   90.777786
_cell_angle_gamma 90.809701
loop_
_atom_site_label
_atom_site_type_symbol
_atom_site_fract_x
_atom_site_fract_y
_atom_site_fract_z
_atom_type_partial_charge
O0 O 0.01328 0.10157 0.00493 0.0
Mn1 Mn 0.06179 0.04252 0.00315 0.0
O2 O 0.93622 0.08365 0.97945 0.0
Mn3 Mn 0.95787 0.02708 0.96761 0.0
O4 O 0.11111 0.98294 0.00085 0.0
O5 O 0.12999 0.08278 0.00872 0.0
Mn6 Mn 0.17197 0.05151 0.0344 0.0
O7 O 0.0513 0.03288 0.04983 0.0
O8 O 0.19705 0.00589 0.01102 0.0
O9 O 0.07308 0.05184 0.95605 0.0
O10 O 0.99819 0.02412 0.93319 0.0
O11 O 0.19479 0.11051 0.03757 0.0
O12 O 0.13622 0.03008 0.0684 0.0
C13 C 0.95316 0.97162 -0.00263 0.0
C14 C 0.96497 0.11104 0.99512 0.0
C15 C 0.16309 0.97567 0.00204 0.0
C16 C 0.15315 0.119 0.02018 0.0
C17 C 0.08516 0.02589 0.07169 0.0
C18 C 0.04664 0.03935 0.93222 0.0
O19 O 0.99399 1.0009 -0.00199 0.0
O20 O 0.91523 0.97873 0.97723 0.0
O21 O 0.51329 0.59315 0.50742 0.0
Mn22 Mn 0.56507 0.53757 0.50294 0.0
O23 O 0.45256 0.58036 0.47064 0.0
Mn24 Mn 0.46892 0.51968 0.46538 0.0
O25 O 0.61607 0.4799 0.49814 0.0
O26 O 0.62898 0.58459 0.50853 0.0
Mn27 Mn 0.67221 0.55074 0.53211 0.0
O28 O 0.55793 0.52485 0.54999 0.0
O29 O 0.69901 0.50137 0.51309 0.0
O30 O 0.5733 0.55087 0.45561 0.0
O31 O 0.5097 0.50901 0.43229 0.0
O32 O 0.71121 0.60207 0.52841 0.0
O33 O 0.64119 0.53893 0.56889 0.0
C34 C 0.45108 0.47855 0.50258 0.0
C35 C 0.47225 0.60532 0.49122 0.0
C36 C 0.66714 0.47186 0.50186 0.0
C37 C 0.66943 0.61429 0.51208 0.0
C38 C 0.5917 0.52739 0.57246 0.0
C39 C 0.55302 0.5329 0.43144 0.0
O40 O 0.50153 0.49082 0.49654 0.0
O41 O 0.41523 0.48571 0.48125 0.0
H42 H 0.12453 0.94669 0.39366 0.0
H43 H 0.01398 0.05945 0.39874 0.0
H44 H 0.07974 0.99873 0.48007 0.0
H45 H 0.95759 0.03548 0.4865 0.0
C46 C 0.95953 0.05289 0.46409 0.0
O47 O 0.01354 0.06131 0.45715 0.0
H48 H 0.94034 0.02959 0.44721 0.0
C49 C 0.10227 0.97113 0.40663 0.0
C50 C 0.10722 0.96977 0.43832 0.0
C51 C 0.06809 0.00285 0.39182 0.0
C52 C 0.03953 0.03379 0.4094 0.0
C53 C 0.04299 0.0319 0.44101 0.0
C54 C 0.07673 0.99978 0.45558 0.0
H55 H 0.09043 0.15396 0.61221 0.0
H56 H 0.97169 0.04475 0.60639 0.0
H57 H 0.0365 0.1062 0.52533 0.0
H58 H 0.90443 0.07645 0.52682 0.0
C59 C 0.91219 0.04928 0.54412 0.0
O60 O 0.96788 0.04382 0.54766 0.0
H61 H 0.89403 0.06015 0.56572 0.0
C62 C 0.06411 0.13182 0.59891 0.0
C63 C 0.06654 0.13475 0.56727 0.0
C64 C 0.03039 0.09946 0.61347 0.0
C65 C 0.99836 0.06985 0.59574 0.0
C66 C 0.9994 0.07287 0.56405 0.0
C67 C 0.0342 0.10494 0.54974 0.0
H68 H 0.62357 0.45204 0.89427 0.0
H69 H 0.50526 0.55893 0.89756 0.0
H70 H 0.57383 0.50375 0.98007 0.0
H71 H 0.44692 0.53499 0.98275 0.0
C72 C 0.45057 0.555 0.96144 0.0
O73 O 0.50507 0.56367 0.95598 0.0
H74 H 0.43231 0.53397 0.94303 0.0
C75 C 0.59948 0.47549 0.90707 0.0
C76 C 0.60381 0.47491 0.93878 0.0
C77 C 0.56324 0.505 0.89191 0.0
C78 C 0.53256 0.53514 0.90883 0.0
C79 C 0.53596 0.53455 0.94044 0.0
C80 C 0.57117 0.50405 0.95557 0.0
H81 H 0.60413 0.63882 0.11355 0.0
H82 H 0.48746 0.52997 0.10277 0.0
H83 H 0.54324 0.60573 0.02452 0.0
H84 H 0.41096 0.57032 0.02779 0.0
C85 C 0.42248 0.54171 0.0433 0.0
O86 O 0.47871 0.53815 0.04407 0.0
H87 H 0.40693 0.54947 0.06616 0.0
C88 C 0.57796 0.61868 0.09882 0.0
C89 C 0.57702 0.6277 0.0675 0.0
C90 C 0.54557 0.58407 0.11165 0.0
C91 C 0.51241 0.5571 0.09299 0.0
C92 C 0.51093 0.56508 0.06162 0.0
C93 C 0.54362 0.6002 0.04877 0.0
H94 H 0.10609 0.19291 0.04361 0.0
H95 H 0.14683 0.26942 0.03974 0.0
H96 H 0.24818 0.2249 0.96734 0.0
H97 H 0.20579 0.14923 0.97046 0.0
H98 H 0.2519 0.27949 0.05409 0.0
H99 H 0.29848 0.29447 0.93334 0.0
H100 H 0.25862 0.28328 0.88231 0.0
H101 H 0.10501 0.33249 0.9126 0.0
H102 H 0.14389 0.34299 0.96394 0.0
H103 H 0.45688 0.45262 0.05242 0.0
H104 H 0.40756 0.38196 0.04024 0.0
H105 H 0.27492 0.46064 0.00252 0.0
H106 H 0.32544 0.53126 0.01332 0.0
H107 H 0.28858 0.38815 0.9692 0.0
H108 H 0.27688 0.413 0.07851 0.0
H109 H 0.31735 0.42385 0.12937 0.0
H110 H 0.4002 0.29631 0.12322 0.0
H111 H 0.36055 0.28492 0.07225 0.0
C112 C 0.13403 0.20049 0.02536 0.0
C113 C 0.15161 0.16534 0.00681 0.0
C114 C 0.15832 0.24402 0.02358 0.0
C115 C 0.2009 0.25326 0.0033 0.0
C116 C 0.21466 0.21942 0.98269 0.0
C117 C 0.18979 0.17605 0.98423 0.0
C118 C 0.23586 0.29506 0.00697 0.0
C119 C 0.25966 0.30331 0.03551 0.0
C120 C 0.24739 0.32581 0.98281 0.0
C121 C 0.22384 0.31923 0.95229 0.0
C122 C 0.25621 0.30284 0.92901 0.0
C123 C 0.23377 0.29644 0.90013 0.0
C124 C 0.17929 0.30711 0.89423 0.0
C125 C 0.1471 0.32401 0.91724 0.0
C126 C 0.16919 0.3299 0.94627 0.0
C127 C 0.41772 0.45482 0.04095 0.0
C128 C 0.39531 0.49756 0.03343 0.0
C129 C 0.38923 0.41435 0.03427 0.0
C130 C 0.33691 0.41575 0.0209 0.0
C131 C 0.31513 0.45844 0.01281 0.0
C132 C 0.34393 0.49884 0.01907 0.0
C133 C 0.30362 0.3732 0.01654 0.0
C134 C 0.28066 0.36449 0.98784 0.0
C135 C 0.29322 0.34177 0.04063 0.0
C136 C 0.31606 0.34829 0.07152 0.0
C137 C 0.30384 0.38736 0.088 0.0
C138 C 0.32663 0.39359 0.11683 0.0
C139 C 0.36141 0.36084 0.12949 0.0
C140 C 0.37328 0.32167 0.11339 0.0
C141 C 0.3506 0.31527 0.08456 0.0
H142 H 0.3791 0.3658 0.15178 0.0
H143 H 0.16204 0.30235 0.87182 0.0
H144 H 0.25381 0.94105 0.0282 0.0
H145 H 0.29656 0.86854 0.01979 0.0
H146 H 0.16803 0.832 0.95694 0.0
H147 H 0.12333 0.90554 0.96593 0.0
H148 H 0.20078 0.75933 0.99613 0.0
H149 H 0.29182 0.87197 0.93082 0.0
H150 H 0.33994 0.94526 0.92138 0.0
H151 H 0.46386 0.90778 0.98634 0.0
H152 H 0.41616 0.83456 0.99641 0.0
H153 H 0.34848 0.57399 0.93929 0.0
H154 H 0.29616 0.64378 0.94457 0.0
H155 H 0.42865 0.70359 0.99616 0.0
H156 H 0.48181 0.63459 0.98961 0.0
H157 H 0.39127 0.76483 0.95989 0.0
H158 H 0.3101 0.66142 0.02964 0.0
H159 H 0.26796 0.58918 0.0475 0.0
H160 H 0.13283 0.60958 0.98624 0.0
H161 H 0.17464 0.68169 0.96767 0.0
C162 C 0.23433 0.91787 0.01244 0.0
C163 C 0.1856 0.92962 -0.00281 0.0
C164 C 0.25904 0.87626 0.00769 0.0
C165 C 0.23647 0.84532 0.98711 0.0
C166 C 0.18651 0.85573 0.97268 0.0
C167 C 0.16105 0.89765 0.97777 0.0
C168 C 0.26639 0.80282 0.98065 0.0
C169 C 0.24197 0.7604 0.98753 0.0
C170 C 0.32124 0.80426 0.97099 0.0
C171 C 0.35033 0.84791 0.96441 0.0
C172 C 0.32924 0.87946 0.94314 0.0
C173 C 0.35644 0.92098 0.93769 0.0
C174 C 0.4049 0.93118 0.95327 0.0
C175 C 0.42636 0.89984 0.97427 0.0
C176 C 0.39932 0.85831 0.97981 0.0
C177 C 0.36661 0.60227 0.95146 0.0
C178 C 0.41955 0.59902 0.96374 0.0
C179 C 0.33646 0.64199 0.95475 0.0
C180 C 0.35803 0.67894 0.9711 0.0
C181 C 0.411 0.67571 0.98338 0.0
C182 C 0.44137 0.63617 0.97976 0.0
C183 C 0.32567 0.72105 0.97517 0.0
C184 C 0.34977 0.76347 0.96802 0.0
C185 C 0.27137 0.71965 0.98571 0.0
C186 C 0.24576 0.67666 -0.00298 0.0
C187 C 0.27158 0.65034 0.01982 0.0
C188 C 0.24774 0.60944 0.0301 0.0
C189 C 0.19784 0.59471 0.01793 0.0
C190 C 0.17155 0.62098 0.99558 0.0
C191 C 0.19527 0.66189 0.98519 0.0
H192 H 0.17947 0.56299 0.02588 0.0
H193 H 0.42585 0.96337 0.94904 0.0
H194 H 0.97328 0.88525 0.98315 0.0
H195 H 0.91206 0.82267 -0.00188 0.0
H196 H 0.84858 0.90479 0.06903 0.0
H197 H 0.90864 0.96831 0.05326 0.0
H198 H 0.86341 0.79076 0.07487 0.0
H199 H 0.7735 0.9205 0.02623 0.0
H200 H 0.76596 0.98259 0.98807 0.0
H201 H 0.77261 0.88507 0.91688 0.0
H202 H 0.78148 0.82245 0.95474 0.0
H203 H 0.58926 0.7129 0.0903 0.0
H204 H 0.66191 0.76826 0.07965 0.0
H205 H 0.71692 0.68556 0.00678 0.0
H206 H 0.6453 0.62828 0.0183 0.0
H207 H 0.7077 0.79844 0.00197 0.0
H208 H 0.7906 0.66757 0.05317 0.0
H209 H 0.79374 0.60768 0.09304 0.0
H210 H 0.79569 0.71012 0.16135 0.0
H211 H 0.79149 0.77064 0.12179 0.0
C212 C 0.94898 0.88892 0.00323 0.0
C213 C 0.94629 0.93143 0.01729 0.0
C214 C 0.91326 0.85339 0.01142 0.0
C215 C 0.87523 0.85948 0.0343 0.0
C216 C 0.87767 0.89954 0.05126 0.0
C217 C 0.9128 0.93553 0.04263 0.0
C218 C 0.82825 0.82736 0.03693 0.0
C219 C 0.82923 0.79262 0.0591 0.0
C220 C 0.7839 0.82951 0.01611 0.0
C221 C 0.77932 0.86696 0.99328 0.0
C222 C 0.77433 0.91239 0.00244 0.0
C223 C 0.76958 0.94766 0.98088 0.0
C224 C 0.76911 0.93781 0.95006 0.0
C225 C 0.77326 0.89266 0.94076 0.0
C226 C 0.77822 0.85728 0.96226 0.0
C227 C 0.61644 0.70653 0.07179 0.0
C228 C 0.61227 0.66562 0.0556 0.0
C229 C 0.65781 0.73834 0.0657 0.0
C230 C 0.69518 0.73058 0.04281 0.0
C231 C 0.6885 0.69187 0.02471 0.0
C232 C 0.6474 0.65938 0.03116 0.0
C233 C 0.74313 0.76153 0.0397 0.0
C234 C 0.74214 0.79629 0.01755 0.0
C235 C 0.78711 0.75969 0.06074 0.0
C236 C 0.78998 0.72353 0.08455 0.0
C237 C 0.79102 0.67729 0.07669 0.0
C238 C 0.79314 0.64324 0.09923 0.0
C239 C 0.79471 0.65508 0.12972 0.0
C240 C 0.79433 0.70101 0.13772 0.0
C241 C 0.7921 0.73519 0.11525 0.0
H242 H 0.79639 0.62867 0.14714 0.0
H243 H 0.76528 0.96515 0.93339 0.0
H244 H 1.00252 0.19886 0.98473 0.0
H245 H 0.94494 0.26722 0.98193 0.0
H246 H 0.80901 0.18756 0.01575 0.0
H247 H 0.86587 0.12005 0.01858 0.0
H248 H 0.78763 0.22985 0.96039 0.0
H249 H 0.86182 0.26723 0.05829 0.0
H250 H 0.93623 0.2828 0.09483 0.0
H251 H 0.99015 0.39691 0.0401 0.0
H252 H 0.91651 0.38152 0.00297 0.0
H253 H 0.58224 0.39559 0.96987 0.0
H254 H 0.64847 0.33747 0.98599 0.0
H255 H 0.77991 0.42528 0.95542 0.0
H256 H 0.71372 0.48302 0.93914 0.0
H257 H 0.80647 0.38075 0.00883 0.0
H258 H 0.73423 0.34433 0.91106 0.0
H259 H 0.66416 0.32735 0.87224 0.0
H260 H 0.61038 0.21031 0.9242 0.0
H261 H 0.67948 0.22712 0.96364 0.0
C262 C 0.96103 0.19666 0.99273 0.0
C263 C 0.93858 0.15442 0.00203 0.0
C264 C 0.92803 0.23548 0.99086 0.0
C265 C 0.87248 0.23225 -0.00168 0.0
C266 C 0.85152 0.19076 0.00966 0.0
C267 C 0.8842 0.15234 0.01154 0.0
C268 C 0.83447 0.2703 0.99182 0.0
C269 C 0.79131 0.26265 0.97131 0.0
C270 C 0.84022 0.31345 0.00533 0.0
C271 C 0.88407 0.32296 0.02773 0.0
C272 C 0.88984 0.2954 0.05393 0.0
C273 C 0.93182 0.30423 0.07476 0.0
C274 C 0.968 0.34074 0.06975 0.0
C275 C 0.96215 0.36859 0.04393 0.0
C276 C 0.92029 0.35986 0.02299 0.0
C277 C 0.62537 0.40272 0.96734 0.0
C278 C 0.6432 0.44368 0.95355 0.0
C279 C 0.6631 0.3695 0.9763 0.0
C280 C 0.71915 0.37689 0.97164 0.0
C281 C 0.73697 0.41887 0.95927 0.0
C282 C 0.69927 0.4518 0.95004 0.0
C283 C 0.75892 0.33995 0.97785 0.0
C284 C 0.80258 0.34787 -0.00194 0.0
C285 C 0.75389 0.29696 0.96389 0.0
C286 C 0.71153 0.28737 0.94051 0.0
C287 C 0.707 0.31532 0.91441 0.0
C288 C 0.66755 0.30565 0.89225 0.0
C289 C 0.63272 0.26786 0.8958 0.0
C290 C 0.63728 0.23965 0.92152 0.0
C291 C 0.67655 0.24925 0.94379 0.0
H292 H 0.6023 0.26035 0.87858 0.0
H293 H 1.00049 0.34753 0.08591 0.0
H294 H 0.74545 0.64905 0.47509 0.0
H295 H 0.77693 0.72825 0.47501 0.0
H296 H 0.63297 0.76595 0.52293 0.0
H297 H 0.6026 0.68559 0.52429 0.0
H298 H 0.74927 0.81201 0.4585 0.0
H299 H 0.6532 0.81628 0.56918 0.0
H300 H 0.63144 0.7691 0.61449 0.0
H301 H 0.78552 0.70245 0.60855 0.0
H302 H 0.8074 0.74854 0.56281 0.0
H303 H 0.82754 0.03667 0.50396 0.0
H304 H 0.77771 0.96598 0.49242 0.0
H305 H 0.88241 0.89153 0.5544 0.0
H306 H 0.93177 0.96246 0.56625 0.0
H307 H 0.78219 0.86556 0.56311 0.0
H308 H 0.8946 0.88425 0.47741 0.0
H309 H 0.93622 0.92333 0.4334 0.0
H310 H 0.77913 0.93343 0.3901 0.0
H311 H 0.73634 0.89527 0.43417 0.0
C312 C 0.71916 0.67457 0.48435 0.0
C313 C 0.67131 0.66119 0.49946 0.0
C314 C 0.7376 0.71989 0.48464 0.0
C315 C 0.70845 0.75297 0.49997 0.0
C316 C 0.65726 0.74074 0.51195 0.0
C317 C 0.63901 0.69502 0.51194 0.0
C318 C 0.73468 0.79836 0.50577 0.0
C319 C 0.75546 0.82427 0.48132 0.0
C320 C 0.74531 0.81348 0.53557 0.0
C321 C 0.73144 0.78519 0.56247 0.0
C322 C 0.68214 0.79129 0.57748 0.0
C323 C 0.66977 0.76471 0.60316 0.0
C324 C 0.70698 0.73266 0.61432 0.0
C325 C 0.75656 0.72703 0.59976 0.0
C326 C 0.76879 0.75313 0.57387 0.0
C327 C 0.84051 0.00506 0.51467 0.0
C328 C 0.88458 0.00487 0.5353 0.0
C329 C 0.81193 0.96465 0.50812 0.0
C330 C 0.82661 0.92312 0.52221 0.0
C331 C 0.87034 0.92299 0.54311 0.0
C332 C 0.89887 0.96345 0.54968 0.0
C333 C 0.79559 0.8801 0.51576 0.0
C334 C 0.77466 0.85428 0.54016 0.0
C335 C 0.78658 0.86441 0.48591 0.0
C336 C 0.81211 0.88743 0.45932 0.0
C337 C 0.8688 0.89524 0.45866 0.0
C338 C 0.89264 0.91716 0.43367 0.0
C339 C 0.86032 0.93099 0.40901 0.0
C340 C 0.8041 0.92282 0.40926 0.0
C341 C 0.78002 0.90106 0.43425 0.0
H342 H 0.87885 0.94791 0.38968 0.0
H343 H 0.69747 0.7123 0.63429 0.0
H344 H 0.76593 0.44175 0.52078 0.0
H345 H 0.80791 0.36917 0.51238 0.0
H346 H 0.66637 0.32421 0.46178 0.0
H347 H 0.62233 0.39801 0.47077 0.0
H348 H 0.71179 0.25643 0.50327 0.0
H349 H 0.7779 0.35983 0.42374 0.0
H350 H 0.81847 0.43278 0.40579 0.0
H351 H 0.96027 0.40929 0.46158 0.0
H352 H 0.92027 0.33651 0.4801 0.0
H353 H 0.85311 0.06608 0.44772 0.0
H354 H 0.79896 0.13509 0.45204 0.0
H355 H 0.93919 0.20659 0.48865 0.0
H356 H 0.99384 0.13823 0.48309 0.0
H357 H 0.88968 0.26034 0.45116 0.0
H358 H 0.83313 0.16663 0.53365 0.0
H359 H 0.79969 0.09654 0.55937 0.0
H360 H 0.64957 0.10381 0.50865 0.0
H361 H 0.68235 0.17375 0.48235 0.0
C362 C 0.74323 0.41686 0.50767 0.0
C363 C 0.6908 0.42636 0.49596 0.0
C364 C 0.76759 0.37509 0.50296 0.0
C365 C 0.74093 0.34154 0.48593 0.0
C366 C 0.68788 0.34989 0.47481 0.0
C367 C 0.66288 0.39207 0.47981 0.0
C368 C 0.77012 0.29865 0.47949 0.0
C369 C 0.75 0.25699 0.49122 0.0
C370 C 0.82145 0.29972 0.46518 0.0
C371 C 0.84603 0.34283 0.45333 0.0
C372 C 0.81767 0.37031 0.4322 0.0
C373 C 0.84057 0.41162 0.42194 0.0
C374 C 0.8919 0.42567 0.43255 0.0
C375 C 0.92055 0.39836 0.45335 0.0
C376 C 0.89784 0.35704 0.46368 0.0
C377 C 0.87249 0.09675 0.45631 0.0
C378 C 0.92785 0.09678 0.46483 0.0
C379 C 0.84136 0.13604 0.4591 0.0
C380 C 0.86463 0.17604 0.47108 0.0
C381 C 0.92014 0.17624 0.47936 0.0
C382 C 0.95138 0.13704 0.47631 0.0
C383 C 0.83135 0.21775 0.47473 0.0
C384 C 0.85095 0.25933 0.4627 0.0
C385 C 0.7806 0.21678 0.48971 0.0
C386 C 0.76042 0.17513 0.50577 0.0
C387 C 0.79312 0.15312 0.52782 0.0
C388 C 0.77429 0.11345 0.54253 0.0
C389 C 0.72267 0.0956 0.53554 0.0
C390 C 0.68962 0.1176 0.51397 0.0
C391 C 0.70826 0.1573 0.49919 0.0
H392 H 0.70823 0.06481 0.54689 0.0
H393 H 0.90949 0.45772 0.42463 0.0
H394 H 0.37265 0.48347 0.54353 0.0
H395 H 0.3136 0.41963 0.55734 0.0
H396 H 0.43003 0.32613 0.52186 0.0
H397 H 0.48804 0.39112 0.50638 0.0
H398 H 0.33742 0.30919 0.49735 0.0
H399 H 0.38876 0.33111 0.60148 0.0
H400 H 0.40574 0.37593 0.64745 0.0
H401 H 0.2383 0.41633 0.64735 0.0
H402 H 0.22049 0.37238 0.60113 0.0
H403 H 0.16167 0.1187 0.53828 0.0
H404 H 0.23608 0.17416 0.52969 0.0
H405 H 0.13325 0.28231 0.55961 0.0
H406 H 0.05977 0.22672 0.56887 0.0
H407 H 0.22547 0.2858 0.58894 0.0
H408 H 0.17486 0.27191 0.48413 0.0
H409 H 0.15515 0.23136 0.43672 0.0
H410 H 0.31773 0.1792 0.43733 0.0
H411 H 0.3382 0.21898 0.48499 0.0
C412 C 0.38728 0.44916 0.54037 0.0
C413 C 0.43549 0.44232 0.52442 0.0
C414 C 0.35307 0.41239 0.54806 0.0
C415 C 0.36702 0.36755 0.54084 0.0
C416 C 0.4181 0.36028 0.52771 0.0
C417 C 0.45206 0.39738 0.51953 0.0
C418 C 0.32549 0.32978 0.54339 0.0
C419 C 0.31392 0.30339 0.5177 0.0
C420 C 0.29304 0.32303 0.56945 0.0
C421 C 0.3034 0.34859 0.59772 0.0
C422 C 0.35562 0.34969 0.61119 0.0
C423 C 0.36538 0.37496 0.6373 0.0
C424 C 0.32314 0.399 0.65029 0.0
C425 C 0.27098 0.39769 0.63727 0.0
C426 C 0.26101 0.37254 0.61114 0.0
C427 C 0.15455 0.15458 0.54192 0.0
C428 C 0.10491 0.16866 0.55384 0.0
C429 C 0.19714 0.18627 0.5372 0.0
C430 C 0.19051 0.2326 0.54405 0.0
C431 C 0.13965 0.24685 0.5543 0.0
C432 C 0.09741 0.21522 0.55922 0.0
C433 C 0.23729 0.26572 0.54287 0.0
C434 C 0.24964 0.29121 0.56879 0.0
C435 C 0.27008 0.2719 0.51698 0.0
C436 C 0.25784 0.24797 0.48833 0.0
C437 C 0.20626 0.25147 0.4743 0.0
C438 C 0.19498 0.22869 0.44735 0.0
C439 C 0.2351 0.20259 0.43408 0.0
C440 C 0.28665 0.19935 0.44767 0.0
C441 C 0.29813 0.22203 0.47464 0.0
H442 H 0.22629 0.18497 0.41322 0.0
H443 H 0.33083 0.41862 0.67046 0.0
H444 H 0.3682 0.60842 0.5082 0.0
H445 H 0.30855 0.67438 0.50578 0.0
H446 H 0.44575 0.76141 0.48302 0.0
H447 H 0.50615 0.69485 0.48605 0.0
H448 H 0.37224 0.80465 0.51968 0.0
H449 H 0.36588 0.7211 0.42762 0.0
H450 H 0.3554 0.65333 0.39566 0.0
H451 H 0.19206 0.63254 0.42716 0.0
H452 H 0.20188 0.69979 0.45968 0.0
H453 H 0.2172 0.97659 0.441 0.0
H454 H 0.28154 0.91751 0.45745 0.0
H455 H 0.14699 0.82893 0.4824 0.0
H456 H 0.08257 0.88841 0.46608 0.0
H457 H 0.22028 0.78758 0.44533 0.0
H458 H 0.22697 0.87282 0.53682 0.0
H459 H 0.23787 0.94193 0.56746 0.0
H460 H 0.40099 0.96105 0.53522 0.0
H461 H 0.39076 0.89237 0.50405 0.0
C462 C 0.38591 0.64192 0.50368 0.0
C463 C 0.44167 0.64682 0.49757 0.0
C464 C 0.35173 0.67948 0.50198 0.0
C465 C 0.37241 0.72265 0.49354 0.0
C466 C 0.42891 0.72832 0.48945 0.0
C467 C 0.46344 0.6905 0.49139 0.0
C468 C 0.33417 0.7606 0.48695 0.0
C469 C 0.33944 0.80116 0.50315 0.0
C470 C 0.29071 0.75581 0.46573 0.0
C471 C 0.28482 0.7152 0.44631 0.0
C472 C 0.32791 0.70182 0.42794 0.0
C473 C 0.32205 0.66355 0.40968 0.0
C474 C 0.27314 0.63858 0.40943 0.0
C475 C 0.22995 0.65187 0.42741 0.0
C476 C 0.23563 0.69007 0.44574 0.0
C477 C 0.20161 0.94487 0.4507 0.0
C478 C 0.14525 0.937 0.45268 0.0
C479 C 0.23827 0.91117 0.46006 0.0
C480 C 0.21912 0.86886 0.47132 0.0
C481 C 0.16264 0.86138 0.4739 0.0
C482 C 0.12595 0.89534 0.46481 0.0
C483 C 0.25792 0.83147 0.47831 0.0
C484 C 0.25291 0.79102 0.46198 0.0
C485 C 0.30169 0.83654 0.49922 0.0
C486 C 0.30793 0.87775 0.51792 0.0
C487 C 0.265 0.892 0.53608 0.0
C488 C 0.27108 0.93103 0.55358 0.0
C489 C 0.32005 0.95593 0.55323 0.0
C490 C 0.36307 0.94177 0.53544 0.0
C491 C 0.35717 0.90277 0.51788 0.0
H492 H 0.32469 0.98615 0.5668 0.0
H493 H 0.26866 0.60899 0.39526 0.0
H494 H 0.14167 0.97877 0.11445 0.0
H495 H 0.1207 0.96834 0.1675 0.0
H496 H 0.96567 0.03325 0.15275 0.0
H497 H 0.98733 0.04485 0.0988 0.0
H498 H 0.02154 0.07075 0.19918 0.0
H499 H 0.9728 0.91829 0.17339 0.0
H500 H 0.98316 0.84393 0.14901 0.0
H501 H 0.13077 0.82083 0.19988 0.0
H502 H 0.12177 0.8953 0.22424 0.0
H503 H 0.97552 0.02029 0.35813 0.0
H504 H 0.96477 0.02092 0.30309 0.0
H505 H 0.13296 0.98399 0.29411 0.0
H506 H 0.14532 0.9859 0.34901 0.0
H507 H 0.05193 0.92911 0.25998 0.0
H508 H 0.11052 0.08354 0.27802 0.0
H509 H 0.10695 0.1592 0.30134 0.0
H510 H 0.9463 0.17885 0.26414 0.0
H511 H 0.9486 0.10283 0.24102 0.0
C512 C 0.10263 0.99033 0.12225 0.0
C513 C 0.0664 0.01319 0.10246 0.0
C514 C 0.09045 0.98387 0.15268 0.0
C515 C 0.0414 0.99962 0.16421 0.0
C516 C 0.00374 0.02067 0.1443 0.0
C517 C 0.01596 0.02709 0.11351 0.0
C518 C 0.03326 0.99809 0.19751 0.0
C519 C 0.0265 0.0395 0.21242 0.0
C520 C 0.04142 0.95758 0.21492 0.0
C521 C 0.04664 0.91248 0.20058 0.0
C522 C 0.00761 0.89745 0.17927 0.0
C523 C 0.01324 0.85526 0.16546 0.0
C524 C 0.05761 0.82768 0.17288 0.0
C525 C 0.09639 0.84219 0.19418 0.0
C526 C 0.09098 0.88435 0.20804 0.0
C527 C 0.01066 0.01316 0.34454 0.0
C528 C 0.06142 0.00317 0.35821 0.0
C529 C 0.00418 0.01313 0.31306 0.0
C530 C 0.048 0.00235 0.29463 0.0
C531 C 0.09854 0.99203 0.30805 0.0
C532 C 0.10538 0.9929 0.33948 0.0
C533 C 0.04127 1.00173 0.26129 0.0
C534 C 0.0454 0.96001 0.24659 0.0
C535 C 0.03117 0.0419 0.24406 0.0
C536 C 0.02934 0.08724 0.25825 0.0
C537 C 0.07412 0.10372 0.27518 0.0
C538 C 0.07242 0.14672 0.28827 0.0
C539 C 0.02632 0.17373 0.28434 0.0
C540 C 0.98189 0.15781 0.26725 0.0
C541 C 0.98336 0.11477 0.25416 0.0
H542 H 0.02511 0.20707 0.29444 0.0
H543 H 0.06192 0.79505 0.16214 0.0
H544 H 0.04821 0.9767 0.8885 0.0
H545 H 0.05898 0.99162 0.83441 0.0
H546 H 0.10205 0.13189 0.85242 0.0
H547 H 0.09162 0.11671 0.90704 0.0
H548 H 0.01322 0.12157 0.81274 0.0
H549 H 0.19462 0.06455 0.82194 0.0
H550 H 0.26486 0.00961 0.8381 0.0
H551 H 0.18688 0.90563 0.78492 0.0
H552 H 0.11565 0.95971 0.76885 0.0
H553 H 0.03624 0.16876 0.6544 0.0
H554 H 0.04866 0.16213 0.70911 0.0
H555 H 0.03521 0.01544 0.70382 0.0
H556 H 0.02638 0.02167 0.64886 0.0
H557 H 0.11774 0.036 0.73768 0.0
H558 H 0.93264 0.0848 0.73298 0.0
H559 H 0.85578 0.13412 0.71833 0.0
H560 H 0.93217 0.24675 0.764 0.0
H561 H 0.00993 0.19825 0.77853 0.0
C562 C 0.06214 0.01024 0.88098 0.0
C563 C 0.06958 0.0455 0.90182 0.0
C564 C 0.06812 0.01879 0.85007 0.0
C565 C 0.08125 0.06288 0.83936 0.0
C566 C 0.09203 0.0976 0.86028 0.0
C567 C 0.08672 0.08883 0.89142 0.0
C568 C 0.07709 0.07322 0.80642 0.0
C569 C 0.03697 0.10373 0.79626 0.0
C570 C 0.10649 0.04853 0.785 0.0
C571 C 0.14964 0.01613 0.79435 0.0
C572 C 0.19225 0.02988 0.81386 0.0
C573 C 0.23227 0.9989 0.82298 0.0
C574 C 0.23029 0.95414 0.81258 0.0
C575 C 0.18837 0.9403 0.79296 0.0
C576 C 0.1482 0.97112 0.78381 0.0
C577 C 0.03614 0.13502 0.66484 0.0
C578 C 0.03091 0.0957 0.64711 0.0
C579 C 0.04255 0.13133 0.69624 0.0
C580 C 0.0427 0.08828 0.71072 0.0
C581 C 0.03547 0.04906 0.69319 0.0
C582 C 0.02974 0.05269 0.66174 0.0
C583 C 0.05316 0.08385 0.74388 0.0
C584 C 0.09441 0.05441 0.75406 0.0
C585 C 0.02396 0.10881 0.76534 0.0
C586 C 0.97742 0.13807 0.75649 0.0
C587 C 0.9333 0.12021 0.73964 0.0
C588 C 0.88953 0.14799 0.73141 0.0
C589 C 0.88919 0.19359 0.74013 0.0
C590 C 0.93256 0.21146 0.75718 0.0
C591 C 0.97648 0.18385 0.76542 0.0
H592 H 0.85524 0.21504 0.73375 0.0
H593 H 0.26129 0.93019 0.81969 0.0
H594 H 0.65816 0.52053 0.62171 0.0
H595 H 0.6345 0.50719 0.67383 0.0
H596 H 0.46455 0.49583 0.64876 0.0
H597 H 0.48808 0.51019 0.59519 0.0
H598 H 0.4885 0.55429 0.69918 0.0
H599 H 0.52694 0.40079 0.67117 0.0
H600 H 0.57994 0.34163 0.64624 0.0
H601 H 0.71945 0.37459 0.70173 0.0
H602 H 0.66761 0.43433 0.72669 0.0
H603 H 0.4682 0.50575 0.85902 0.0
H604 H 0.45685 0.50185 0.804 0.0
H605 H 0.63137 0.49713 0.79452 0.0
H606 H 0.6429 0.50083 0.84946 0.0
H607 H 0.58298 0.43485 0.76025 0.0
H608 H 0.55963 0.59443 0.77907 0.0
H609 H 0.51819 0.6613 0.80223 0.0
H610 H 0.36285 0.62468 0.76322 0.0
H611 H 0.40329 0.55714 0.74017 0.0
C612 C 0.61552 0.51511 0.62684 0.0
C613 C 0.57493 0.51669 0.60401 0.0
C614 C 0.60218 0.50711 0.65688 0.0
C615 C 0.54795 0.49985 0.66519 0.0
C616 C 0.5068 0.5011 0.64271 0.0
C617 C 0.52026 0.50919 0.61218 0.0
C618 C 0.53598 0.4932 0.6978 0.0
C619 C 0.50755 0.52732 0.71255 0.0
C620 C 0.56247 0.45887 0.71525 0.0
C621 C 0.59328 0.42201 0.70084 0.0
C622 C 0.56894 0.39547 0.67802 0.0
C623 C 0.59881 0.36185 0.66387 0.0
C624 C 0.65301 0.35434 0.67241 0.0
C625 C 0.67743 0.38035 0.69518 0.0
C626 C 0.64777 0.41402 0.7094 0.0
C627 C 0.50415 0.50431 0.84514 0.0
C628 C 0.55648 0.50365 0.85852 0.0
C629 C 0.49758 0.50199 0.81373 0.0
C630 C 0.54324 0.49933 0.7951 0.0
C631 C 0.59551 0.4988 0.80845 0.0
C632 C 0.60208 0.5009 0.83984 0.0
C633 C 0.53709 0.49681 0.76168 0.0
C634 C 0.56222 0.46094 0.74692 0.0
C635 C 0.5087 0.53011 0.74428 0.0
C636 C 0.48427 0.57042 0.75828 0.0
C637 C 0.51651 0.60038 0.7757 0.0
C638 C 0.49324 0.63845 0.78875 0.0
C639 C 0.43787 0.64714 0.7843 0.0
C640 C 0.40569 0.61782 0.76672 0.0
C641 C 0.42876 0.57965 0.75366 0.0
H642 H 0.41994 0.67667 0.79439 0.0
H643 H 0.67609 0.32835 0.66138 0.0
H644 H 0.63546 0.5087 0.39389 0.0
H645 H 0.63926 0.52662 0.33916 0.0
H646 H 0.50001 0.61349 0.34683 0.0
H647 H 0.49731 0.59696 0.40126 0.0
H648 H 0.49675 0.52697 0.30569 0.0
H649 H 0.58295 0.6701 0.32774 0.0
H650 H 0.65229 0.72079 0.3507 0.0
H651 H 0.77749 0.65512 0.30116 0.0
H652 H 0.70888 0.60331 0.2784 0.0
H653 H 0.46095 0.59228 0.15014 0.0
H654 H 0.46506 0.59055 0.20564 0.0
H655 H 0.63629 0.55927 0.2028 0.0
H656 H 0.6325 0.56316 0.14741 0.0
H657 H 0.62145 0.62195 0.24261 0.0
H658 H 0.53115 0.47797 0.22026 0.0
H659 H 0.4589 0.42987 0.1974 0.0
H660 H 0.338 0.49942 0.24783 0.0
H661 H 0.40945 0.54845 0.27057 0.0
C662 C 0.60744 0.53319 0.38399 0.0
C663 C 0.56662 0.55205 0.40157 0.0
C664 C 0.60929 0.54313 0.35285 0.0
C665 C 0.56981 0.5713 0.33914 0.0
C666 C 0.53094 0.59193 0.35707 0.0
C667 C 0.52968 0.58269 0.38809 0.0
C668 C 0.56439 0.57442 0.30583 0.0
C669 C 0.52367 0.548 0.29181 0.0
C670 C 0.59964 0.60168 0.28797 0.0
C671 C 0.64098 0.63232 0.30182 0.0
C672 C 0.62538 0.66597 0.32213 0.0
C673 C 0.6645 0.69503 0.33501 0.0
C674 C 0.71931 0.69104 0.32751 0.0
C675 C 0.73505 0.65805 0.30704 0.0
C676 C 0.69607 0.62881 0.29416 0.0
C677 C 0.49912 0.58437 0.16153 0.0
C678 C 0.54631 0.57737 0.14478 0.0
C679 C 0.50154 0.58341 0.19317 0.0
C680 C 0.55092 0.57426 0.20849 0.0
C681 C 0.5978 0.56649 0.19156 0.0
C682 C 0.59559 0.56832 0.16 0.0
C683 C 0.55437 0.57359 0.2421 0.0
C684 C 0.59459 0.60065 0.25631 0.0
C685 C 0.51827 0.54706 0.26019 0.0
C686 C 0.47554 0.51711 0.24687 0.0
C687 C 0.48911 0.48315 0.22632 0.0
C688 C 0.44831 0.45574 0.21339 0.0
C689 C 0.39388 0.46166 0.2211 0.0
C690 C 0.38015 0.49492 0.24183 0.0
C691 C 0.42077 0.52251 0.25475 0.0
H692 H 0.36236 0.44041 0.21104 0.0
H693 H 0.74955 0.71363 0.33747 0.0
loop_
_geom_bond_atom_site_label_1
_geom_bond_atom_site_label_2
_geom_bond_distance
_geom_bond_site_symmetry_2
_ccdc_geom_bond_type
O0 Mn1 2.163 . S
O0 C14 1.244 1_454 S
Mn1 O0 2.163 . S
Mn1 O4 2.158 1_544 S
Mn1 O5 2.221 . S
Mn1 O7 2.163 . S
Mn1 O9 2.160 1_554 S
Mn1 O19 2.221 1_444 S
O2 Mn3 2.087 . S
O2 C14 1.256 . S
Mn3 O2 2.087 . S
Mn3 O10 2.089 . S
Mn3 O19 2.290 1_545 S
Mn3 O20 2.237 1_546 S
O4 Mn1 2.158 1_566 S
O4 C15 1.224 1_556 S
O5 Mn1 2.221 . S
O5 Mn6 2.290 . S
O5 C16 1.278 . S
Mn6 O5 2.290 . S
Mn6 O8 2.089 1_545 S
Mn6 O11 2.251 . S
Mn6 O12 2.087 . S
O7 Mn1 2.163 . S
O7 C17 1.244 . S
O8 Mn6 2.089 1_565 S
O8 C15 1.256 . S
O9 Mn1 2.160 1_556 S
O9 C18 1.239 . S
O10 Mn3 2.089 . S
O10 C18 1.256 1_655 S
O11 Mn6 2.251 . S
O11 C16 1.241 . S
O12 Mn6 2.087 . S
O12 C17 1.256 . S
C13 O19 1.278 1_554 S
C13 O20 1.245 . S
C14 O0 1.244 1_656 S
C14 O2 1.256 . S
C15 O4 1.224 1_554 S
C15 O8 1.256 . S
C16 O5 1.278 . S
C16 O11 1.241 . S
C17 O7 1.244 . S
C17 O12 1.256 . S
C18 O9 1.239 . S
C18 O10 1.256 1_455 S
O19 Mn1 2.221 1_666 S
O19 Mn3 2.290 1_565 S
O19 C13 1.278 1_556 S
O20 Mn3 2.237 1_564 S
O20 C13 1.245 . S
O21 Mn22 2.163 . S
O21 C35 1.244 . S
Mn22 O21 2.163 . S
Mn22 O25 2.160 . S
Mn22 O26 2.221 . S
Mn22 O28 2.163 . S
Mn22 O30 2.160 . S
Mn22 O40 2.221 . S
O23 Mn24 2.087 . S
O23 C35 1.256 . S
Mn24 O23 2.087 . S
Mn24 O31 2.089 . S
Mn24 O40 2.290 . S
Mn24 O41 2.251 . S
O25 Mn22 2.160 . S
O25 C36 1.239 . S
O26 Mn22 2.221 . S
O26 Mn27 2.290 . S
O26 C37 1.278 . S
Mn27 O26 2.290 . S
Mn27 O29 2.089 . S
Mn27 O32 2.251 . S
Mn27 O33 2.087 . S
O28 Mn22 2.163 . S
O28 C38 1.244 . S
O29 Mn27 2.089 . S
O29 C36 1.256 . S
O30 Mn22 2.160 . S
O30 C39 1.239 . S
O31 Mn24 2.089 . S
O31 C39 1.256 . S
O32 Mn27 2.251 . S
O32 C37 1.241 . S
O33 Mn27 2.087 . S
O33 C38 1.256 . S
C34 O40 1.278 . S
C34 O41 1.241 . S
C35 O21 1.244 . S
C35 O23 1.256 . S
C36 O25 1.239 . S
C36 O29 1.256 . S
C37 O26 1.278 . S
C37 O32 1.241 . S
C38 O28 1.244 . S
C38 O33 1.256 . S
C39 O30 1.239 . S
C39 O31 1.256 . S
O40 Mn22 2.221 . S
O40 Mn24 2.290 . S
O40 C34 1.278 . S
O41 Mn24 2.251 . S
O41 C34 1.241 . S
H42 C49 0.929 . S
H43 C52 0.930 . S
H44 C54 0.929 . S
H45 C46 0.969 . S
C46 H45 0.969 . S
C46 O47 1.550 1_655 S
C46 H48 0.973 . S
O47 C46 1.550 1_455 S
O47 C53 1.412 . S
H48 C46 0.973 . S
C49 H42 0.929 . S
C49 C50 1.400 . S
C49 C51 1.364 . S
C50 C49 1.400 . S
C50 C54 1.377 . S
C51 C49 1.364 . S
C51 C52 1.374 1_565 S
C52 H43 0.930 . S
C52 C51 1.374 1_545 S
C52 C53 1.383 . S
C53 O47 1.412 . S
C53 C52 1.383 . S
C53 C54 1.394 1_545 S
C54 H44 0.929 . S
C54 C50 1.377 . S
C54 C53 1.394 1_565 S
H55 C62 0.929 . S
H56 C65 0.930 . S
H57 C67 0.929 . S
H58 C59 0.969 . S
C59 H58 0.969 . S
C59 O60 1.550 . S
C59 H61 0.969 1_545 S
O60 C59 1.550 . S
O60 C66 1.412 . S
H61 C59 0.969 1_565 S
C62 H55 0.929 . S
C62 C63 1.400 . S
C62 C64 1.364 . S
C63 C62 1.400 . S
C63 C67 1.377 . S
C64 C62 1.364 . S
C64 C65 1.374 1_455 S
C65 H56 0.930 . S
C65 C64 1.374 1_655 S
C65 C66 1.383 . S
C66 O60 1.412 . S
C66 C65 1.383 . S
C66 C67 1.394 1_655 S
C67 H57 0.929 . S
C67 C63 1.377 . S
C67 C66 1.394 1_455 S
H68 C75 0.929 . S
H69 C78 0.930 . S
H70 C80 0.929 . S
H71 C72 0.969 . S
C72 H71 0.969 . S
C72 O73 1.550 . S
C72 H74 0.973 . S
O73 C72 1.550 . S
O73 C79 1.412 . S
H74 C72 0.973 . S
C75 H68 0.929 . S
C75 C76 1.400 . S
C75 C77 1.364 . S
C76 C75 1.400 . S
C76 C80 1.377 . S
C77 C75 1.364 . S
C77 C78 1.374 . S
C78 H69 0.930 . S
C78 C77 1.374 . S
C78 C79 1.383 . S
C79 O73 1.412 . S
C79 C78 1.383 . S
C79 C80 1.394 . S
C80 H70 0.929 . S
C80 C76 1.377 . S
C80 C79 1.394 . S
H81 C88 0.929 . S
H82 C91 0.930 . S
H83 C93 0.929 . S
H84 C85 0.969 . S
C85 H84 0.969 . S
C85 O86 1.550 . S
C85 H87 0.973 . S
O86 C85 1.550 . S
O86 C92 1.412 . S
H87 C85 0.973 . S
C88 H81 0.929 . S
C88 C89 1.400 . S
C88 C90 1.364 . S
C89 C88 1.400 . S
C89 C93 1.377 . S
C90 C88 1.364 . S
C90 C91 1.374 . S
C91 H82 0.930 . S
C91 C90 1.374 . S
C91 C92 1.383 . S
C92 O86 1.412 . S
C92 C91 1.383 . S
C92 C93 1.394 . S
C93 H83 0.929 . S
C93 C89 1.377 . S
C93 C92 1.394 . S
H94 C112 0.942 1_556 S
H95 C114 0.947 1_556 S
H96 C116 0.950 . S
H97 C117 0.950 . S
H98 C119 0.950 . S
H99 C122 0.950 . S
H100 C123 0.950 . S
H101 C125 0.950 . S
H102 C126 0.950 . S
H103 C127 0.951 . S
H104 C129 0.951 . S
H105 C131 0.950 . S
H106 C132 0.950 . S
H107 C134 0.953 1_556 S
H108 C137 0.950 . S
H109 C138 0.950 . S
H110 C140 0.950 . S
H111 C141 0.950 . S
C112 H94 0.942 1_554 S
C112 C113 1.372 . S
C112 C114 1.391 . S
C113 C112 1.372 . S
C113 C117 1.385 . S
C114 H95 0.947 1_554 S
C114 C112 1.391 . S
C114 C115 1.366 . S
C115 C114 1.366 . S
C115 C116 1.414 . S
C115 C118 1.499 . S
C116 H96 0.950 . S
C116 C115 1.414 . S
C116 C117 1.374 . S
C117 H97 0.950 . S
C117 C113 1.385 . S
C117 C116 1.374 . S
C118 C115 1.499 . S
C118 C119 1.373 . S
C118 C120 1.389 1_554 S
C119 H98 0.950 . S
C119 C118 1.373 . S
C119 C135 1.377 . S
C120 C118 1.389 1_556 S
C120 C121 1.524 . S
C120 C134 1.377 1_556 S
C121 C120 1.524 . S
C121 C122 1.397 . S
C121 C126 1.363 . S
C122 H99 0.950 . S
C122 C121 1.397 . S
C122 C123 1.334 . S
C123 H100 0.950 . S
C123 C122 1.334 . S
C123 C124 1.287 . S
C124 C123 1.287 . S
C124 C125 1.524 . S
C124 H143 0.913 . S
C125 H101 0.950 . S
C125 C124 1.524 . S
C125 C126 1.415 . S
C126 H102 0.950 . S
C126 C121 1.363 . S
C126 C125 1.415 . S
C127 H103 0.951 . S
C127 C128 1.366 . S
C127 C129 1.388 . S
C128 C127 1.366 . S
C128 C132 1.385 . S
C129 H104 0.951 . S
C129 C127 1.388 . S
C129 C130 1.366 . S
C130 C129 1.366 . S
C130 C131 1.414 . S
C130 C133 1.499 . S
C131 H105 0.950 . S
C131 C130 1.414 . S
C131 C132 1.374 . S
C132 H106 0.950 . S
C132 C128 1.385 . S
C132 C131 1.374 . S
C133 C130 1.499 . S
C133 C134 1.370 . S
C133 C135 1.389 . S
C134 H107 0.953 1_554 S
C134 C120 1.377 1_554 S
C134 C133 1.370 . S
C135 C119 1.377 . S
C135 C133 1.389 . S
C135 C136 1.524 . S
C136 C135 1.524 . S
C136 C137 1.397 . S
C136 C141 1.363 . S
C137 H108 0.950 . S
C137 C136 1.397 . S
C137 C138 1.334 . S
C138 H109 0.950 . S
C138 C137 1.334 . S
C138 C139 1.287 . S
C139 C138 1.287 . S
C139 C140 1.524 . S
C139 H142 0.999 . S
C140 H110 0.950 . S
C140 C139 1.524 . S
C140 C141 1.415 . S
C141 H111 0.950 . S
C141 C136 1.363 . S
C141 C140 1.415 . S
H142 C139 0.999 . S
H143 C124 0.913 . S
H144 C162 0.951 . S
H145 C164 0.951 . S
H146 C166 0.950 . S
H147 C167 0.950 . S
H148 C169 0.949 1_554 S
H149 C172 0.950 . S
H150 C173 0.950 . S
H151 C175 0.950 1_554 S
H152 C176 0.930 1_554 S
H153 C177 0.951 . S
H154 C179 0.951 . S
H155 C181 0.950 . S
H156 C182 0.950 1_554 S
H157 C184 0.950 . S
H158 C187 0.950 . S
H159 C188 0.950 . S
H160 C190 0.950 . S
H161 C191 0.950 . S
C162 H144 0.951 . S
C162 C163 1.366 . S
C162 C164 1.388 . S
C163 C162 1.366 . S
C163 C167 1.385 1_554 S
C164 H145 0.951 . S
C164 C162 1.388 . S
C164 C165 1.354 1_554 S
C165 C164 1.354 1_556 S
C165 C166 1.423 . S
C165 C168 1.502 . S
C166 H146 0.950 . S
C166 C165 1.423 . S
C166 C167 1.374 . S
C167 H147 0.950 . S
C167 C163 1.385 1_556 S
C167 C166 1.374 . S
C168 C165 1.502 . S
C168 C169 1.373 . S
C168 C170 1.389 . S
C169 H148 0.949 1_556 S
C169 C168 1.373 . S
C169 C185 1.377 . S
C170 C168 1.389 . S
C170 C171 1.524 . S
C170 C184 1.377 . S
C171 C170 1.524 . S
C171 C172 1.397 . S
C171 C176 1.378 . S
C172 H149 0.950 . S
C172 C171 1.397 . S
C172 C173 1.334 . S
C173 H150 0.950 . S
C173 C172 1.334 . S
C173 C174 1.287 . S
C174 C173 1.287 . S
C174 C175 1.524 . S
C174 H193 0.913 . S
C175 H151 0.950 1_556 S
C175 C174 1.524 . S
C175 C176 1.421 . S
C176 H152 0.930 1_556 S
C176 C171 1.378 . S
C176 C175 1.421 . S
C177 H153 0.951 . S
C177 C178 1.366 . S
C177 C179 1.388 . S
C178 C177 1.366 . S
C178 C182 1.385 . S
C179 H154 0.951 . S
C179 C177 1.388 . S
C179 C180 1.366 . S
C180 C179 1.366 . S
C180 C181 1.414 1_556 S
C180 C183 1.499 . S
C181 H155 0.950 . S
C181 C180 1.414 1_554 S
C181 C182 1.374 1_554 S
C182 H156 0.950 1_556 S
C182 C178 1.385 . S
C182 C181 1.374 1_556 S
C183 C180 1.499 . S
C183 C184 1.373 . S
C183 C185 1.389 . S
C184 H157 0.950 . S
C184 C170 1.377 . S
C184 C183 1.373 . S
C185 C169 1.377 . S
C185 C183 1.389 . S
C185 C186 1.524 1_556 S
C186 C185 1.524 1_554 S
C186 C187 1.397 . S
C186 C191 1.363 1_554 S
C187 H158 0.950 . S
C187 C186 1.397 . S
C187 C188 1.334 . S
C188 H159 0.950 . S
C188 C187 1.334 . S
C188 C189 1.287 . S
C189 C188 1.287 . S
C189 C190 1.524 1_554 S
C189 H192 0.999 . S
C190 H160 0.950 . S
C190 C189 1.524 1_556 S
C190 C191 1.415 . S
C191 H161 0.950 . S
C191 C186 1.363 1_556 S
C191 C190 1.415 . S
H192 C189 0.999 . S
H193 C174 0.913 . S
H194 C212 0.951 . S
H195 C214 0.938 1_556 S
H196 C216 0.950 . S
H197 C217 0.950 . S
H198 C219 0.950 . S
H199 C222 0.950 . S
H200 C223 0.950 . S
H201 C225 0.950 . S
H202 C226 0.950 . S
H203 C227 0.951 . S
H204 C229 0.951 . S
H205 C231 0.950 . S
H206 C232 0.950 . S
H207 C234 0.950 . S
H208 C237 0.950 . S
H209 C238 0.950 . S
H210 C240 0.950 . S
H211 C241 0.950 . S
C212 H194 0.951 . S
C212 C213 1.366 1_556 S
C212 C214 1.386 1_556 S
C213 C212 1.366 1_554 S
C213 C217 1.385 . S
C214 H195 0.938 1_554 S
C214 C212 1.386 1_554 S
C214 C215 1.380 . S
C215 C214 1.380 . S
C215 C216 1.414 . S
C215 C218 1.499 . S
C216 H196 0.950 . S
C216 C215 1.414 . S
C216 C217 1.374 . S
C217 H197 0.950 . S
C217 C213 1.385 . S
C217 C216 1.374 . S
C218 C215 1.499 . S
C218 C219 1.373 . S
C218 C220 1.389 . S
C219 H198 0.950 . S
C219 C218 1.373 . S
C219 C235 1.377 . S
C220 C218 1.389 . S
C220 C221 1.524 1_554 S
C220 C234 1.377 . S
C221 C220 1.524 1_556 S
C221 C222 1.397 1_556 S
C221 C226 1.363 . S
C222 H199 0.950 . S
C222 C221 1.397 1_554 S
C222 C223 1.334 1_554 S
C223 H200 0.950 . S
C223 C222 1.334 1_556 S
C223 C224 1.287 . S
C224 C223 1.287 . S
C224 C225 1.524 . S
C224 H243 0.913 . S
C225 H201 0.950 . S
C225 C224 1.524 . S
C225 C226 1.415 . S
C226 H202 0.950 . S
C226 C221 1.363 . S
C226 C225 1.415 . S
C227 H203 0.951 . S
C227 C228 1.366 . S
C227 C229 1.388 . S
C228 C227 1.366 . S
C228 C232 1.385 . S
C229 H204 0.951 . S
C229 C227 1.388 . S
C229 C230 1.366 . S
C230 C229 1.366 . S
C230 C231 1.414 . S
C230 C233 1.499 . S
C231 H205 0.950 . S
C231 C230 1.414 . S
C231 C232 1.374 . S
C232 H206 0.950 . S
C232 C228 1.385 . S
C232 C231 1.374 . S
C233 C230 1.499 . S
C233 C234 1.373 . S
C233 C235 1.389 . S
C234 H207 0.950 . S
C234 C220 1.377 . S
C234 C233 1.373 . S
C235 C219 1.377 . S
C235 C233 1.389 . S
C235 C236 1.524 . S
C236 C235 1.524 . S
C236 C237 1.397 . S
C236 C241 1.363 . S
C237 H208 0.950 . S
C237 C236 1.397 . S
C237 C238 1.334 . S
C238 H209 0.950 . S
C238 C237 1.334 . S
C238 C239 1.287 . S
C239 C238 1.287 . S
C239 C240 1.524 . S
C239 H242 0.999 . S
C240 H210 0.950 . S
C240 C239 1.524 . S
C240 C241 1.415 . S
C241 H211 0.950 . S
C241 C236 1.363 . S
C241 C240 1.415 . S
H242 C239 0.999 . S
H243 C224 0.913 . S
H244 C262 0.951 . S
H245 C264 0.951 . S
H246 C266 0.950 . S
H247 C267 0.943 1_554 S
H248 C269 0.950 . S
H249 C272 0.950 . S
H250 C273 0.950 . S
H251 C275 0.950 . S
H252 C276 0.950 1_556 S
H253 C277 0.951 . S
H254 C279 0.951 . S
H255 C281 0.950 . S
H256 C282 0.950 . S
H257 C284 0.950 . S
H258 C287 0.950 . S
H259 C288 0.950 . S
H260 C290 0.950 . S
H261 C291 0.950 . S
C262 H244 0.951 . S
C262 C263 1.366 . S
C262 C264 1.388 . S
C263 C262 1.366 . S
C263 C267 1.389 . S
C264 H245 0.951 . S
C264 C262 1.388 . S
C264 C265 1.366 . S
C265 C264 1.366 . S
C265 C266 1.414 . S
C265 C268 1.499 . S
C266 H246 0.950 . S
C266 C265 1.414 . S
C266 C267 1.378 . S
C267 H247 0.943 1_556 S
C267 C263 1.389 . S
C267 C266 1.378 . S
C268 C265 1.499 . S
C268 C269 1.373 . S
C268 C270 1.389 . S
C269 H248 0.950 . S
C269 C268 1.373 . S
C269 C285 1.377 . S
C270 C268 1.389 . S
C270 C271 1.524 1_556 S
C270 C284 1.377 . S
C271 C270 1.524 1_554 S
C271 C272 1.397 . S
C271 C276 1.363 . S
C272 H249 0.950 . S
C272 C271 1.397 . S
C272 C273 1.334 . S
C273 H250 0.950 . S
C273 C272 1.334 . S
C273 C274 1.287 . S
C274 C273 1.287 . S
C274 C275 1.524 . S
C274 H293 0.913 . S
C275 H251 0.950 . S
C275 C274 1.524 . S
C275 C276 1.415 . S
C276 H252 0.950 1_554 S
C276 C271 1.363 . S
C276 C275 1.415 . S
C277 H253 0.951 . S
C277 C278 1.366 . S
C277 C279 1.388 . S
C278 C277 1.366 . S
C278 C282 1.385 . S
C279 H254 0.951 . S
C279 C277 1.388 . S
C279 C280 1.366 . S
C280 C279 1.366 . S
C280 C281 1.414 . S
C280 C283 1.499 . S
C281 H255 0.950 . S
C281 C280 1.414 . S
C281 C282 1.374 . S
C282 H256 0.950 . S
C282 C278 1.385 . S
C282 C281 1.374 . S
C283 C280 1.499 . S
C283 C284 1.373 . S
C283 C285 1.389 . S
C284 H257 0.950 . S
C284 C270 1.377 . S
C284 C283 1.373 . S
C285 C269 1.377 . S
C285 C283 1.389 . S
C285 C286 1.524 . S
C286 C285 1.524 . S
C286 C287 1.397 . S
C286 C291 1.363 . S
C287 H258 0.950 . S
C287 C286 1.397 . S
C287 C288 1.334 . S
C288 H259 0.950 . S
C288 C287 1.334 . S
C288 C289 1.287 . S
C289 C288 1.287 . S
C289 C290 1.524 . S
C289 H292 0.999 . S
C290 H260 0.950 . S
C290 C289 1.524 . S
C290 C291 1.415 . S
C291 H261 0.950 . S
C291 C286 1.363 . S
C291 C290 1.415 . S
H292 C289 0.999 . S
H293 C274 0.913 . S
H294 C312 0.951 . S
H295 C314 0.951 . S
H296 C316 0.950 . S
H297 C317 0.950 . S
H298 C319 0.950 . S
H299 C322 0.950 . S
H300 C323 0.950 . S
H301 C325 0.950 . S
H302 C326 0.950 . S
H303 C327 0.951 1_545 S
H304 C329 0.951 . S
H305 C331 0.950 . S
H306 C332 0.950 . S
H307 C334 0.950 . S
H308 C337 0.950 . S
H309 C338 0.950 . S
H310 C340 0.950 . S
H311 C341 0.950 . S
C312 H294 0.951 . S
C312 C313 1.366 . S
C312 C314 1.388 . S
C313 C312 1.366 . S
C313 C317 1.385 . S
C314 H295 0.951 . S
C314 C312 1.388 . S
C314 C315 1.366 . S
C315 C314 1.366 . S
C315 C316 1.414 . S
C315 C318 1.499 . S
C316 H296 0.950 . S
C316 C315 1.414 . S
C316 C317 1.374 . S
C317 H297 0.950 . S
C317 C313 1.385 . S
C317 C316 1.374 . S
C318 C315 1.499 . S
C318 C319 1.373 . S
C318 C320 1.389 . S
C319 H298 0.950 . S
C319 C318 1.373 . S
C319 C335 1.377 . S
C320 C318 1.389 . S
C320 C321 1.524 . S
C320 C334 1.377 . S
C321 C320 1.524 . S
C321 C322 1.397 . S
C321 C326 1.363 . S
C322 H299 0.950 . S
C322 C321 1.397 . S
C322 C323 1.334 . S
C323 H300 0.950 . S
C323 C322 1.334 . S
C323 C324 1.287 . S
C324 C323 1.287 . S
C324 C325 1.524 . S
C324 H343 0.913 . S
C325 H301 0.950 . S
C325 C324 1.524 . S
C325 C326 1.415 . S
C326 H302 0.950 . S
C326 C321 1.363 . S
C326 C325 1.415 . S
C327 H303 0.951 1_565 S
C327 C328 1.366 . S
C327 C329 1.388 . S
C328 C327 1.366 . S
C328 C332 1.385 . S
C329 H304 0.951 . S
C329 C327 1.388 . S
C329 C330 1.366 . S
C330 C329 1.366 . S
C330 C331 1.414 . S
C330 C333 1.499 . S
C331 H305 0.950 . S
C331 C330 1.414 . S
C331 C332 1.374 . S
C332 H306 0.950 . S
C332 C328 1.385 . S
C332 C331 1.374 . S
C333 C330 1.499 . S
C333 C334 1.373 . S
C333 C335 1.389 . S
C334 H307 0.950 . S
C334 C320 1.377 . S
C334 C333 1.373 . S
C335 C319 1.377 . S
C335 C333 1.389 . S
C335 C336 1.524 . S
C336 C335 1.524 . S
C336 C337 1.397 . S
C336 C341 1.363 . S
C337 H308 0.950 . S
C337 C336 1.397 . S
C337 C338 1.334 . S
C338 H309 0.950 . S
C338 C337 1.334 . S
C338 C339 1.287 . S
C339 C338 1.287 . S
C339 C340 1.524 . S
C339 H342 0.999 . S
C340 H310 0.950 . S
C340 C339 1.524 . S
C340 C341 1.415 . S
C341 H311 0.950 . S
C341 C336 1.363 . S
C341 C340 1.415 . S
H342 C339 0.999 . S
H343 C324 0.913 . S
H344 C362 0.951 . S
H345 C364 0.951 . S
H346 C366 0.950 . S
H347 C367 0.950 . S
H348 C369 0.950 . S
H349 C372 0.950 . S
H350 C373 0.950 . S
H351 C375 0.950 . S
H352 C376 0.950 . S
H353 C377 0.951 . S
H354 C379 0.951 . S
H355 C381 0.950 . S
H356 C382 0.950 . S
H357 C384 0.950 . S
H358 C387 0.950 . S
H359 C388 0.950 . S
H360 C390 0.950 . S
H361 C391 0.950 . S
C362 H344 0.951 . S
C362 C363 1.366 . S
C362 C364 1.388 . S
C363 C362 1.366 . S
C363 C367 1.385 . S
C364 H345 0.951 . S
C364 C362 1.388 . S
C364 C365 1.366 . S
C365 C364 1.366 . S
C365 C366 1.414 . S
C365 C368 1.499 . S
C366 H346 0.950 . S
C366 C365 1.414 . S
C366 C367 1.374 . S
C367 H347 0.950 . S
C367 C363 1.385 . S
C367 C366 1.374 . S
C368 C365 1.499 . S
C368 C369 1.373 . S
C368 C370 1.389 . S
C369 H348 0.950 . S
C369 C368 1.373 . S
C369 C385 1.377 . S
C370 C368 1.389 . S
C370 C371 1.524 . S
C370 C384 1.377 . S
C371 C370 1.524 . S
C371 C372 1.397 . S
C371 C376 1.363 . S
C372 H349 0.950 . S
C372 C371 1.397 . S
C372 C373 1.334 . S
C373 H350 0.950 . S
C373 C372 1.334 . S
C373 C374 1.287 . S
C374 C373 1.287 . S
C374 C375 1.524 . S
C374 H393 0.913 . S
C375 H351 0.950 . S
C375 C374 1.524 . S
C375 C376 1.415 . S
C376 H352 0.950 . S
C376 C371 1.363 . S
C376 C375 1.415 . S
C377 H353 0.951 . S
C377 C378 1.366 . S
C377 C379 1.388 . S
C378 C377 1.366 . S
C378 C382 1.385 . S
C379 H354 0.951 . S
C379 C377 1.388 . S
C379 C380 1.366 . S
C380 C379 1.366 . S
C380 C381 1.414 . S
C380 C383 1.499 . S
C381 H355 0.950 . S
C381 C380 1.414 . S
C381 C382 1.374 . S
C382 H356 0.950 . S
C382 C378 1.385 . S
C382 C381 1.374 . S
C383 C380 1.499 . S
C383 C384 1.373 . S
C383 C385 1.389 . S
C384 H357 0.950 . S
C384 C370 1.377 . S
C384 C383 1.373 . S
C385 C369 1.377 . S
C385 C383 1.389 . S
C385 C386 1.524 . S
C386 C385 1.524 . S
C386 C387 1.397 . S
C386 C391 1.363 . S
C387 H358 0.950 . S
C387 C386 1.397 . S
C387 C388 1.334 . S
C388 H359 0.950 . S
C388 C387 1.334 . S
C388 C389 1.287 . S
C389 C388 1.287 . S
C389 C390 1.524 . S
C389 H392 0.999 . S
C390 H360 0.950 . S
C390 C389 1.524 . S
C390 C391 1.415 . S
C391 H361 0.950 . S
C391 C386 1.363 . S
C391 C390 1.415 . S
H392 C389 0.999 . S
H393 C374 0.913 . S
H394 C412 0.951 . S
H395 C414 0.951 . S
H396 C416 0.950 . S
H397 C417 0.950 . S
H398 C419 0.950 . S
H399 C422 0.950 . S
H400 C423 0.950 . S
H401 C425 0.950 . S
H402 C426 0.950 . S
H403 C427 0.951 . S
H404 C429 0.951 . S
H405 C431 0.950 . S
H406 C432 0.950 . S
H407 C434 0.950 . S
H408 C437 0.950 . S
H409 C438 0.950 . S
H410 C440 0.950 . S
H411 C441 0.950 . S
C412 H394 0.951 . S
C412 C413 1.366 . S
C412 C414 1.388 . S
C413 C412 1.366 . S
C413 C417 1.385 . S
C414 H395 0.951 . S
C414 C412 1.388 . S
C414 C415 1.366 . S
C415 C414 1.366 . S
C415 C416 1.414 . S
C415 C418 1.499 . S
C416 H396 0.950 . S
C416 C415 1.414 . S
C416 C417 1.374 . S
C417 H397 0.950 . S
C417 C413 1.385 . S
C417 C416 1.374 . S
C418 C415 1.499 . S
C418 C419 1.373 . S
C418 C420 1.389 . S
C419 H398 0.950 . S
C419 C418 1.373 . S
C419 C435 1.377 . S
C420 C418 1.389 . S
C420 C421 1.524 . S
C420 C434 1.377 . S
C421 C420 1.524 . S
C421 C422 1.397 . S
C421 C426 1.363 . S
C422 H399 0.950 . S
C422 C421 1.397 . S
C422 C423 1.334 . S
C423 H400 0.950 . S
C423 C422 1.334 . S
C423 C424 1.287 . S
C424 C423 1.287 . S
C424 C425 1.524 . S
C424 H443 0.913 . S
C425 H401 0.950 . S
C425 C424 1.524 . S
C425 C426 1.415 . S
C426 H402 0.950 . S
C426 C421 1.363 . S
C426 C425 1.415 . S
C427 H403 0.951 . S
C427 C428 1.366 . S
C427 C429 1.388 . S
C428 C427 1.366 . S
C428 C432 1.385 . S
C429 H404 0.951 . S
C429 C427 1.388 . S
C429 C430 1.366 . S
C430 C429 1.366 . S
C430 C431 1.414 . S
C430 C433 1.499 . S
C431 H405 0.950 . S
C431 C430 1.414 . S
C431 C432 1.374 . S
C432 H406 0.950 . S
C432 C428 1.385 . S
C432 C431 1.374 . S
C433 C430 1.499 . S
C433 C434 1.373 . S
C433 C435 1.389 . S
C434 H407 0.950 . S
C434 C420 1.377 . S
C434 C433 1.373 . S
C435 C419 1.377 . S
C435 C433 1.389 . S
C435 C436 1.524 . S
C436 C435 1.524 . S
C436 C437 1.397 . S
C436 C441 1.363 . S
C437 H408 0.950 . S
C437 C436 1.397 . S
C437 C438 1.334 . S
C438 H409 0.950 . S
C438 C437 1.334 . S
C438 C439 1.287 . S
C439 C438 1.287 . S
C439 C440 1.524 . S
C439 H442 0.999 . S
C440 H410 0.950 . S
C440 C439 1.524 . S
C440 C441 1.415 . S
C441 H411 0.950 . S
C441 C436 1.363 . S
C441 C440 1.415 . S
H442 C439 0.999 . S
H443 C424 0.913 . S
H444 C462 0.951 . S
H445 C464 0.951 . S
H446 C466 0.950 . S
H447 C467 0.950 . S
H448 C469 0.950 . S
H449 C472 0.950 . S
H450 C473 0.950 . S
H451 C475 0.950 . S
H452 C476 0.950 . S
H453 C477 0.951 . S
H454 C479 0.951 . S
H455 C481 0.950 . S
H456 C482 0.950 . S
H457 C484 0.950 . S
H458 C487 0.950 . S
H459 C488 0.950 . S
H460 C490 0.950 . S
H461 C491 0.950 . S
C462 H444 0.951 . S
C462 C463 1.366 . S
C462 C464 1.388 . S
C463 C462 1.366 . S
C463 C467 1.385 . S
C464 H445 0.951 . S
C464 C462 1.388 . S
C464 C465 1.366 . S
C465 C464 1.366 . S
C465 C466 1.414 . S
C465 C468 1.499 . S
C466 H446 0.950 . S
C466 C465 1.414 . S
C466 C467 1.374 . S
C467 H447 0.950 . S
C467 C463 1.385 . S
C467 C466 1.374 . S
C468 C465 1.499 . S
C468 C469 1.373 . S
C468 C470 1.389 . S
C469 H448 0.950 . S
C469 C468 1.373 . S
C469 C485 1.377 . S
C470 C468 1.389 . S
C470 C471 1.524 . S
C470 C484 1.377 . S
C471 C470 1.524 . S
C471 C472 1.397 . S
C471 C476 1.363 . S
C472 H449 0.950 . S
C472 C471 1.397 . S
C472 C473 1.334 . S
C473 H450 0.950 . S
C473 C472 1.334 . S
C473 C474 1.287 . S
C474 C473 1.287 . S
C474 C475 1.524 . S
C474 H493 0.913 . S
C475 H451 0.950 . S
C475 C474 1.524 . S
C475 C476 1.415 . S
C476 H452 0.950 . S
C476 C471 1.363 . S
C476 C475 1.415 . S
C477 H453 0.951 . S
C477 C478 1.366 . S
C477 C479 1.388 . S
C478 C477 1.366 . S
C478 C482 1.385 . S
C479 H454 0.951 . S
C479 C477 1.388 . S
C479 C480 1.366 . S
C480 C479 1.366 . S
C480 C481 1.414 . S
C480 C483 1.499 . S
C481 H455 0.950 . S
C481 C480 1.414 . S
C481 C482 1.374 . S
C482 H456 0.950 . S
C482 C478 1.385 . S
C482 C481 1.374 . S
C483 C480 1.499 . S
C483 C484 1.373 . S
C483 C485 1.389 . S
C484 H457 0.950 . S
C484 C470 1.377 . S
C484 C483 1.373 . S
C485 C469 1.377 . S
C485 C483 1.389 . S
C485 C486 1.524 . S
C486 C485 1.524 . S
C486 C487 1.397 . S
C486 C491 1.363 . S
C487 H458 0.950 . S
C487 C486 1.397 . S
C487 C488 1.334 . S
C488 H459 0.950 . S
C488 C487 1.334 . S
C488 C489 1.287 . S
C489 C488 1.287 . S
C489 C490 1.524 . S
C489 H492 0.999 . S
C490 H460 0.950 . S
C490 C489 1.524 . S
C490 C491 1.415 . S
C491 H461 0.950 . S
C491 C486 1.363 . S
C491 C490 1.415 . S
H492 C489 0.999 . S
H493 C474 0.913 . S
H494 C512 0.951 . S
H495 C514 0.951 . S
H496 C516 0.950 1_655 S
H497 C517 0.950 1_655 S
H498 C519 0.950 . S
H499 C522 0.950 . S
H500 C523 0.950 . S
H501 C525 0.950 . S
H502 C526 0.950 . S
H503 C527 0.951 1_655 S
H504 C529 0.951 1_655 S
H505 C531 0.950 . S
H506 C532 0.950 . S
H507 C534 0.950 . S
H508 C537 0.950 . S
H509 C538 0.950 . S
H510 C540 0.950 . S
H511 C541 0.952 . S
C512 H494 0.951 . S
C512 C513 1.366 1_565 S
C512 C514 1.388 . S
C513 C512 1.366 1_545 S
C513 C517 1.385 . S
C514 H495 0.951 . S
C514 C512 1.388 . S
C514 C515 1.366 1_565 S
C515 C514 1.366 1_545 S
C515 C516 1.414 . S
C515 C518 1.499 . S
C516 H496 0.950 1_455 S
C516 C515 1.414 . S
C516 C517 1.374 . S
C517 H497 0.950 1_455 S
C517 C513 1.385 . S
C517 C516 1.374 . S
C518 C515 1.499 . S
C518 C519 1.373 . S
C518 C520 1.389 1_545 S
C519 H498 0.950 . S
C519 C518 1.373 . S
C519 C535 1.377 . S
C520 C518 1.389 1_565 S
C520 C521 1.524 . S
C520 C534 1.377 . S
C521 C520 1.524 . S
C521 C522 1.397 . S
C521 C526 1.363 . S
C522 H499 0.950 . S
C522 C521 1.397 . S
C522 C523 1.334 . S
C523 H500 0.950 . S
C523 C522 1.334 . S
C523 C524 1.287 . S
C524 C523 1.287 . S
C524 C525 1.524 . S
C524 H543 0.913 . S
C525 H501 0.950 . S
C525 C524 1.524 . S
C525 C526 1.415 . S
C526 H502 0.950 . S
C526 C521 1.363 . S
C526 C525 1.415 . S
C527 H503 0.951 1_455 S
C527 C528 1.366 1_545 S
C527 C529 1.388 . S
C528 C527 1.366 1_565 S
C528 C532 1.385 . S
C529 H504 0.951 1_455 S
C529 C527 1.388 . S
C529 C530 1.366 . S
C530 C529 1.366 . S
C530 C531 1.414 1_545 S
C530 C533 1.499 . S
C531 H505 0.950 . S
C531 C530 1.414 1_565 S
C531 C532 1.374 . S
C532 H506 0.950 . S
C532 C528 1.385 . S
C532 C531 1.374 . S
C533 C530 1.499 . S
C533 C534 1.373 1_545 S
C533 C535 1.389 . S
C534 H507 0.950 . S
C534 C520 1.377 . S
C534 C533 1.373 1_565 S
C535 C519 1.377 . S
C535 C533 1.389 . S
C535 C536 1.524 . S
C536 C535 1.524 . S
C536 C537 1.397 . S
C536 C541 1.361 1_455 S
C537 H508 0.950 . S
C537 C536 1.397 . S
C537 C538 1.334 . S
C538 H509 0.950 . S
C538 C537 1.334 . S
C538 C539 1.287 . S
C539 C538 1.287 . S
C539 C540 1.524 1_455 S
C539 H542 0.999 . S
C540 H510 0.950 . S
C540 C539 1.524 1_655 S
C540 C541 1.415 . S
C541 H511 0.952 . S
C541 C536 1.361 1_655 S
C541 C540 1.415 . S
H542 C539 0.999 . S
H543 C524 0.913 . S
H544 C562 0.951 1_565 S
H545 C564 0.961 . S
H546 C566 0.950 . S
H547 C567 0.950 . S
H548 C569 0.950 1_655 S
H549 C572 0.950 . S
H550 C573 0.950 . S
H551 C575 0.950 . S
H552 C576 0.950 . S
H553 C577 0.951 . S
H554 C579 0.951 . S
H555 C581 0.950 . S
H556 C582 0.950 . S
H557 C584 0.950 . S
H558 C587 0.950 . S
H559 C588 0.950 . S
H560 C590 0.950 . S
H561 C591 0.950 . S
C562 H544 0.951 1_545 S
C562 C563 1.366 . S
C562 C564 1.388 . S
C563 C562 1.366 . S
C563 C567 1.385 . S
C564 H545 0.961 . S
C564 C562 1.388 . S
C564 C565 1.366 . S
C565 C564 1.366 . S
C565 C566 1.414 . S
C565 C568 1.499 . S
C566 H546 0.950 . S
C566 C565 1.414 . S
C566 C567 1.374 . S
C567 H547 0.950 . S
C567 C563 1.385 . S
C567 C566 1.374 . S
C568 C565 1.499 . S
C568 C569 1.373 . S
C568 C570 1.389 . S
C569 H548 0.950 1_455 S
C569 C568 1.373 . S
C569 C585 1.377 . S
C570 C568 1.389 . S
C570 C571 1.524 . S
C570 C584 1.377 . S
C571 C570 1.524 . S
C571 C572 1.397 . S
C571 C576 1.363 1_545 S
C572 H549 0.950 . S
C572 C571 1.397 . S
C572 C573 1.334 . S
C573 H550 0.950 . S
C573 C572 1.334 . S
C573 C574 1.287 1_545 S
C574 C573 1.287 1_565 S
C574 C575 1.524 . S
C574 H593 0.913 . S
C575 H551 0.950 . S
C575 C574 1.524 . S
C575 C576 1.415 . S
C576 H552 0.950 . S
C576 C571 1.363 1_565 S
C576 C575 1.415 . S
C577 H553 0.951 . S
C577 C578 1.366 . S
C577 C579 1.388 . S
C578 C577 1.366 . S
C578 C582 1.385 . S
C579 H554 0.951 . S
C579 C577 1.388 . S
C579 C580 1.366 . S
C580 C579 1.366 . S
C580 C581 1.414 . S
C580 C583 1.499 . S
C581 H555 0.950 . S
C581 C580 1.414 . S
C581 C582 1.374 . S
C582 H556 0.950 . S
C582 C578 1.385 . S
C582 C581 1.374 . S
C583 C580 1.499 . S
C583 C584 1.373 . S
C583 C585 1.389 . S
C584 H557 0.950 . S
C584 C570 1.377 . S
C584 C583 1.373 . S
C585 C569 1.377 . S
C585 C583 1.389 . S
C585 C586 1.524 1_455 S
C586 C585 1.524 1_655 S
C586 C587 1.397 . S
C586 C591 1.363 . S
C587 H558 0.950 . S
C587 C586 1.397 . S
C587 C588 1.334 . S
C588 H559 0.950 . S
C588 C587 1.334 . S
C588 C589 1.287 . S
C589 C588 1.287 . S
C589 C590 1.524 . S
C589 H592 0.999 . S
C590 H560 0.950 . S
C590 C589 1.524 . S
C590 C591 1.415 . S
C591 H561 0.950 . S
C591 C586 1.363 . S
C591 C590 1.415 . S
H592 C589 0.999 . S
H593 C574 0.913 . S
H594 C612 0.951 . S
H595 C614 0.951 . S
H596 C616 0.950 . S
H597 C617 0.950 . S
H598 C619 0.950 . S
H599 C622 0.950 . S
H600 C623 0.950 . S
H601 C625 0.950 . S
H602 C626 0.950 . S
H603 C627 0.951 . S
H604 C629 0.951 . S
H605 C631 0.950 . S
H606 C632 0.950 . S
H607 C634 0.950 . S
H608 C637 0.950 . S
H609 C638 0.950 . S
H610 C640 0.950 . S
H611 C641 0.950 . S
C612 H594 0.951 . S
C612 C613 1.366 . S
C612 C614 1.388 . S
C613 C612 1.366 . S
C613 C617 1.385 . S
C614 H595 0.951 . S
C614 C612 1.388 . S
C614 C615 1.366 . S
C615 C614 1.366 . S
C615 C616 1.414 . S
C615 C618 1.499 . S
C616 H596 0.950 . S
C616 C615 1.414 . S
C616 C617 1.374 . S
C617 H597 0.950 . S
C617 C613 1.385 . S
C617 C616 1.374 . S
C618 C615 1.499 . S
C618 C619 1.373 . S
C618 C620 1.389 . S
C619 H598 0.950 . S
C619 C618 1.373 . S
C619 C635 1.377 . S
C620 C618 1.389 . S
C620 C621 1.524 . S
C620 C634 1.377 . S
C621 C620 1.524 . S
C621 C622 1.397 . S
C621 C626 1.363 . S
C622 H599 0.950 . S
C622 C621 1.397 . S
C622 C623 1.334 . S
C623 H600 0.950 . S
C623 C622 1.334 . S
C623 C624 1.287 . S
C624 C623 1.287 . S
C624 C625 1.524 . S
C624 H643 0.913 . S
C625 H601 0.950 . S
C625 C624 1.524 . S
C625 C626 1.415 . S
C626 H602 0.950 . S
C626 C621 1.363 . S
C626 C625 1.415 . S
C627 H603 0.951 . S
C627 C628 1.366 . S
C627 C629 1.388 . S
C628 C627 1.366 . S
C628 C632 1.385 . S
C629 H604 0.951 . S
C629 C627 1.388 . S
C629 C630 1.366 . S
C630 C629 1.366 . S
C630 C631 1.414 . S
C630 C633 1.499 . S
C631 H605 0.950 . S
C631 C630 1.414 . S
C631 C632 1.374 . S
C632 H606 0.950 . S
C632 C628 1.385 . S
C632 C631 1.374 . S
C633 C630 1.499 . S
C633 C634 1.373 . S
C633 C635 1.389 . S
C634 H607 0.950 . S
C634 C620 1.377 . S
C634 C633 1.373 . S
C635 C619 1.377 . S
C635 C633 1.389 . S
C635 C636 1.524 . S
C636 C635 1.524 . S
C636 C637 1.397 . S
C636 C641 1.363 . S
C637 H608 0.950 . S
C637 C636 1.397 . S
C637 C638 1.334 . S
C638 H609 0.950 . S
C638 C637 1.334 . S
C638 C639 1.287 . S
C639 C638 1.287 . S
C639 C640 1.524 . S
C639 H642 0.999 . S
C640 H610 0.950 . S
C640 C639 1.524 . S
C640 C641 1.415 . S
C641 H611 0.950 . S
C641 C636 1.363 . S
C641 C640 1.415 . S
H642 C639 0.999 . S
H643 C624 0.913 . S
H644 C662 0.951 . S
H645 C664 0.951 . S
H646 C666 0.950 . S
H647 C667 0.950 . S
H648 C669 0.950 . S
H649 C672 0.950 . S
H650 C673 0.950 . S
H651 C675 0.950 . S
H652 C676 0.950 . S
H653 C677 0.951 . S
H654 C679 0.951 . S
H655 C681 0.950 . S
H656 C682 0.950 . S
H657 C684 0.950 . S
H658 C687 0.950 . S
H659 C688 0.950 . S
H660 C690 0.950 . S
H661 C691 0.950 . S
C662 H644 0.951 . S
C662 C663 1.366 . S
C662 C664 1.388 . S
C663 C662 1.366 . S
C663 C667 1.385 . S
C664 H645 0.951 . S
C664 C662 1.388 . S
C664 C665 1.366 . S
C665 C664 1.366 . S
C665 C666 1.414 . S
C665 C668 1.499 . S
C666 H646 0.950 . S
C666 C665 1.414 . S
C666 C667 1.374 . S
C667 H647 0.950 . S
C667 C663 1.385 . S
C667 C666 1.374 . S
C668 C665 1.499 . S
C668 C669 1.373 . S
C668 C670 1.389 . S
C669 H648 0.950 . S
C669 C668 1.373 . S
C669 C685 1.377 . S
C670 C668 1.389 . S
C670 C671 1.524 . S
C670 C684 1.377 . S
C671 C670 1.524 . S
C671 C672 1.397 . S
C671 C676 1.363 . S
C672 H649 0.950 . S
C672 C671 1.397 . S
C672 C673 1.334 . S
C673 H650 0.950 . S
C673 C672 1.334 . S
C673 C674 1.287 . S
C674 C673 1.287 . S
C674 C675 1.524 . S
C674 H693 0.913 . S
C675 H651 0.950 . S
C675 C674 1.524 . S
C675 C676 1.415 . S
C676 H652 0.950 . S
C676 C671 1.363 . S
C676 C675 1.415 . S
C677 H653 0.951 . S
C677 C678 1.366 . S
C677 C679 1.388 . S
C678 C677 1.366 . S
C678 C682 1.385 . S
C679 H654 0.951 . S
C679 C677 1.388 . S
C679 C680 1.366 . S
C680 C679 1.366 . S
C680 C681 1.414 . S
C680 C683 1.499 . S
C681 H655 0.950 . S
C681 C680 1.414 . S
C681 C682 1.374 . S
C682 H656 0.950 . S
C682 C678 1.385 . S
C682 C681 1.374 . S
C683 C680 1.499 . S
C683 C684 1.373 . S
C683 C685 1.389 . S
C684 H657 0.950 . S
C684 C670 1.377 . S
C684 C683 1.373 . S
C685 C669 1.377 . S
C685 C683 1.389 . S
C685 C686 1.524 . S
C686 C685 1.524 . S
C686 C687 1.397 . S
C686 C691 1.363 . S
C687 H658 0.950 . S
C687 C686 1.397 . S
C687 C688 1.334 . S
C688 H659 0.950 . S
C688 C687 1.334 . S
C688 C689 1.287 . S
C689 C688 1.287 . S
C689 C690 1.524 . S
C689 H692 0.999 . S
C690 H660 0.950 . S
C690 C689 1.524 . S
C690 C691 1.415 . S
C691 H661 0.950 . S
C691 C686 1.363 . S
C691 C690 1.415 . S
H692 C689 0.999 . S
H693 C674 0.913 . S
C128 C85 1.263 . S
C113 C16 1.188 . S
C163 C15 1.417 . S
C178 C72 1.313 . S
C213 C13 1.343 . S
C228 C89 1.545 . S
C263 C14 1.404 . S
C278 C76 1.455 . S
C313 C37 1.189 . S
C328 C59 1.261 1_565 S
C363 C36 1.416 . S
C378 C46 1.313 . S
C428 C63 1.545 . S
C413 C34 1.341 . S
C478 C50 1.455 . S
C463 C35 1.405 . S
C513 C17 1.568 . S
C528 C51 1.623 . S
C563 C18 1.404 . S
C578 C64 1.460 . S
C628 C77 1.623 . S
C613 C38 1.568 . S
C663 C39 1.404 . S
C678 C90 1.460 . S
