# Generated by pormake.
# Topology rtl, (3,6)-cn, num edge types: 1
# Building blocks:
#     Node 0, Type 0, BuildingBlock: KAKCAD_clean_linker_0, # of connection points: 3
#     Node 1, Type 0, BuildingBlock: KAKCAD_clean_linker_0, # of connection points: 3
#     Node 2, Type 0, BuildingBlock: KAKCAD_clean_linker_0, # of connection points: 3
#     Node 3, Type 0, BuildingBlock: KAKCAD_clean_linker_0, # of connection points: 3
#     Node 4, Type 1, BuildingBlock: KUMBOL_clean_sbu_1, # of connection points: 6
#     Node 5, Type 1, BuildingBlock: KUMBOL_clean_sbu_1, # of connection points: 6
#     Edge 6, Type (0, 1), None
#     Edge 7, Type (0, 1), None
#     Edge 8, Type (0, 1), None
#     Edge 9, Type (0, 1), None
#     Edge 10, Type (0, 1), None
#     Edge 11, Type (0, 1), None
#     Edge 12, Type (0, 1), None
#     Edge 13, Type (0, 1), None
#     Edge 14, Type (0, 1), None
#     Edge 15, Type (0, 1), None
#     Edge 16, Type (0, 1), None
#     Edge 17, Type (0, 1), None
# Relax obj value: 0.020
# Max RMSD: 0.144
# Mean RMSD: 0.087
data_MOF--net-rtl--node1-KUMBOL_clean_sbu_1--node2-KAKCAD_clean_linker_0--edge1-none
_symmetry_space_group_name_H-M    P1
_symmetry_Int_Tables_number       1
_symmetry_cell_setting            triclinic
loop_
_symmetry_equiv_pos_as_xyz
'x, y, z'
_cell_length_a     22.059755
_cell_length_b     23.066105
_cell_length_c     21.071612
_cell_angle_alpha  72.25443
_cell_angle_beta   99.11751
_cell_angle_gamma 91.54432
loop_
_atom_site_label
_atom_site_type_symbol
_atom_site_fract_x
_atom_site_fract_y
_atom_site_fract_z
_atom_type_partial_charge
C0 C 0.08066 0.88334 0.79304 0.0
C1 C 0.0934 0.94297 0.75653 0.0
C2 C 0.10918 0.85808 0.85943 0.0
C3 C 0.15002 0.89242 0.89061 0.0
C4 C 0.16116 0.95281 0.85544 0.0
C5 C 0.13286 0.97808 0.78857 0.0
C6 C 0.18419 0.8625 0.95788 0.0
C7 C 0.23202 0.82179 0.96406 0.0
C8 C 0.25779 0.78258 0.02745 0.0
C9 C 0.23588 0.78701 0.08534 0.0
C10 C 0.18996 0.83038 0.07948 0.0
C11 C 0.16415 0.86791 0.01546 0.0
C12 C 0.16489 0.83399 0.13915 0.0
C13 C 0.13329 0.78474 0.17592 0.0
C14 C 0.16721 0.88874 0.15549 0.0
C15 C 0.13748 0.8945 0.20722 0.0
C16 C 0.10374 0.84609 0.24212 0.0
C17 C 0.30529 0.7359 0.03193 0.0
C18 C 0.30533 0.71087 0.97864 0.0
C19 C 0.35134 0.71625 0.08872 0.0
C20 C 0.39506 0.67197 0.09267 0.0
C21 C 0.39468 0.64706 0.03935 0.0
C22 C 0.3503 0.66841 0.98158 0.0
C23 C 0.10234 0.79097 0.22659 0.0
H24 H 0.04939 0.85587 0.76997 0.0
H25 H 0.10032 0.81125 0.88614 0.0
H26 H 0.19299 0.9796 0.87896 0.0
H27 H 0.14334 0.02427 0.76137 0.0
H28 H 0.2478 0.82017 0.91849 0.0
H29 H 0.12641 0.89907 0.01023 0.0
H30 H 0.25341 0.75636 0.13478 0.0
H31 H 0.13044 0.74237 0.16354 0.0
H32 H 0.19104 0.92736 0.12732 0.0
H33 H 0.13881 0.93748 0.21823 0.0
H34 H 0.27015 0.7232 0.93451 0.0
H35 H 0.35404 0.73515 0.13018 0.0
H36 H 0.07658 0.75309 0.25303 0.0
H37 H 0.34964 0.65201 0.93858 0.0
H38 H 0.42906 0.65725 0.13779 0.0
C39 C 0.5466 0.64819 0.84704 0.0
C40 C 0.58418 0.61564 0.90715 0.0
C41 C 0.57233 0.67866 0.78962 0.0
C42 C 0.63628 0.67799 0.79112 0.0
C43 C 0.67415 0.64918 0.85239 0.0
C44 C 0.64837 0.61805 0.90971 0.0
C45 C 0.6622 0.69715 0.72702 0.0
C46 C 0.71285 0.73571 0.71819 0.0
C47 C 0.73953 0.74831 0.65884 0.0
C48 C 0.71662 0.719 0.61052 0.0
C49 C 0.66646 0.67981 0.61878 0.0
C50 C 0.6383 0.67163 0.67606 0.0
C51 C 0.6453 0.64525 0.56966 0.0
C52 C 0.65453 0.66753 0.50199 0.0
C53 C 0.61775 0.58813 0.59067 0.0
C54 C 0.60001 0.55475 0.54576 0.0
C55 C 0.61215 0.57555 0.47896 0.0
C56 C 0.79069 0.79232 0.64579 0.0
C57 C 0.79096 0.84679 0.6628 0.0
C58 C 0.83752 0.78222 0.61173 0.0
C59 C 0.88164 0.82613 0.5928 0.0
C60 C 0.88137 0.88098 0.6088 0.0
C61 C 0.83587 0.89039 0.64486 0.0
C62 C 0.63979 0.63273 0.45806 0.0
H63 H 0.49707 0.64807 0.84344 0.0
H64 H 0.54202 0.70054 0.74303 0.0
H65 H 0.7235 0.64719 0.85483 0.0
H66 H 0.67881 0.5933 0.95493 0.0
H67 H 0.73143 0.75547 0.75748 0.0
H68 H 0.59834 0.64366 0.68243 0.0
H69 H 0.73836 0.72679 0.5663 0.0
H70 H 0.67389 0.71175 0.48237 0.0
H71 H 0.6109 0.56781 0.6424 0.0
H72 H 0.57741 0.51219 0.56448 0.0
H73 H 0.75544 0.85662 0.68834 0.0
H74 H 0.8401 0.74032 0.59914 0.0
H75 H 0.65181 0.65091 0.40814 0.0
H76 H 0.83419 0.93194 0.65839 0.0
H77 H 0.91605 0.81678 0.56564 0.0
C78 C 0.90923 0.03185 0.33528 0.0
C79 C 0.93355 0.06903 0.37462 0.0
C80 C 0.87987 0.05802 0.26869 0.0
C81 C 0.87449 0.12171 0.24054 0.0
C82 C 0.90154 0.1585 0.27901 0.0
C83 C 0.93057 0.13256 0.34509 0.0
C84 C 0.83645 0.1504 0.17383 0.0
C85 C 0.79467 0.19761 0.16723 0.0
C86 C 0.75705 0.2257 0.10559 0.0
C87 C 0.76167 0.20561 0.04993 0.0
C88 C 0.80408 0.15945 0.05491 0.0
C89 C 0.84131 0.13169 0.11718 0.0
C90 C 0.81065 0.14326 0.99339 0.0
C91 C 0.75843 0.13109 0.95227 0.0
C92 C 0.86789 0.1466 0.97152 0.0
C93 C 0.87225 0.14123 0.90794 0.0
C94 C 0.81948 0.13178 0.86526 0.0
C95 C 0.71382 0.27647 0.09936 0.0
C96 C 0.68426 0.27682 0.1538 0.0
C97 C 0.70215 0.32539 0.03924 0.0
C98 C 0.66133 0.37269 0.03341 0.0
C99 C 0.63255 0.37288 0.08807 0.0
C100 C 0.64469 0.32485 0.14845 0.0
C101 C 0.76284 0.12498 0.88921 0.0
H102 H 0.91106 0.98276 0.35654 0.0
H103 H 0.85921 0.02856 0.24028 0.0
H104 H 0.8993 0.20768 0.25834 0.0
H105 H 0.95019 0.16263 0.37323 0.0
H106 H 0.79179 0.21269 0.21058 0.0
H107 H 0.87418 0.09614 0.1213 0.0
H108 H 0.73275 0.22643 1.00202 0.0
H109 H 0.71382 0.12778 0.96831 0.0
H110 H 0.90873 0.1566 1.00202 0.0
H111 H 0.91656 0.14729 0.89116 0.0
H112 H 0.69077 0.23953 0.20039 0.0
H113 H 0.72495 0.32765 0.99671 0.0
H114 H 0.7215 0.11609 0.85867 0.0
H115 H 0.62219 0.32354 0.19099 0.0
H116 H 0.6528 0.40951 0.98642 0.0
C117 C 0.36893 0.4175 0.21986 0.0
C118 C 0.43237 0.40947 0.22221 0.0
C119 C 0.34053 0.38801 0.27555 0.0
C120 C 0.37527 0.35084 0.33487 0.0
C121 C 0.4381 0.341 0.3366 0.0
C122 C 0.46624 0.36941 0.28044 0.0
C123 C 0.349 0.33182 0.39808 0.0
C124 C 0.30349 0.28759 0.40929 0.0
C125 C 0.27845 0.27172 0.46992 0.0
C126 C 0.2988 0.30258 0.51762 0.0
C127 C 0.34495 0.34602 0.50714 0.0
C128 C 0.36965 0.36024 0.44717 0.0
C129 C 0.36843 0.37597 0.55911 0.0
C130 C 0.32812 0.39614 0.5938 0.0
C131 C 0.43176 0.38468 0.57422 0.0
C132 C 0.45429 0.41298 0.62271 0.0
C133 C 0.41407 0.43321 0.65742 0.0
C134 C 0.23236 0.22243 0.485 0.0
C135 C 0.18889 0.21121 0.43351 0.0
C136 C 0.2311 0.18629 0.55211 0.0
C137 C 0.18646 0.1425 0.56761 0.0
C138 C 0.14316 0.13182 0.51637 0.0
C139 C 0.1452 0.16577 0.44905 0.0
C140 C 0.35072 0.42443 0.6425 0.0
H141 H 0.34157 0.44841 0.176 0.0
H142 H 0.29223 0.39706 0.27368 0.0
H143 H 0.4658 0.31291 0.38227 0.0
H144 H 0.51478 0.36102 0.28325 0.0
H145 H 0.28911 0.26484 0.37158 0.0
H146 H 0.40429 0.39479 0.4377 0.0
H147 H 0.27931 0.29243 0.56372 0.0
H148 H 0.27902 0.39086 0.58263 0.0
H149 H 0.46417 0.36876 0.54926 0.0
H150 H 0.50344 0.41797 0.63388 0.0
H151 H 0.1877 0.23817 0.38134 0.0
H152 H 0.26488 0.19131 0.59321 0.0
H153 H 0.31852 0.44013 0.66785 0.0
H154 H 0.11203 0.15825 0.40872 0.0
H155 H 0.18659 0.11599 0.61986 0.0
C156 C 0.92634 0.19852 0.49736 0.0
C157 C 0.82552 0.18701 0.43739 0.0
C158 C 0.87768 0.16183 0.48519 0.0
C159 C 0.82305 0.24949 0.40195 0.0
C160 C 0.92407 0.26124 0.46184 0.0
C161 C 0.87218 0.28649 0.41412 0.0
N162 N 0.97625 0.17273 0.54319 0.0
C163 C 0.02508 0.207 0.55675 0.0
C164 C 0.97426 0.29664 0.47499 0.0
C165 C 0.02493 0.26939 0.52273 0.0
Gd166 Gd 0.06509 0.94429 0.54156 0.0
Gd167 Gd 0.97328 0.06763 0.59523 0.0
N168 N 0.88227 0.10109 0.51872 0.0
C169 C 0.77757 0.14853 0.42631 0.0
C170 C 0.83496 0.06367 0.50944 0.0
C171 C 0.78218 0.0867 0.46281 0.0
H172 H 0.83762 0.01602 0.53747 0.0
H173 H 0.74507 0.05671 0.45504 0.0
H174 H 0.19163 0.02671 0.5 0.0
H175 H 0.06395 0.18629 0.59436 0.0
H176 H 0.29586 0.03908 0.55498 0.0
H177 H 0.73675 0.16611 0.38994 0.0
H178 H 0.78343 0.2696 0.36486 0.0
H179 H 0.02031 0.80741 0.62827 0.0
H180 H 0.97432 0.34497 0.44865 0.0
H181 H 0.06383 0.29642 0.53343 0.0
H182 H 0.32197 0.87468 0.76172 0.0
H183 H 0.86966 0.33457 0.38623 0.0
H184 H 0.16243 0.72855 0.79466 0.0
H185 H 0.05979 0.72242 0.72998 0.0
N186 N 0.09996 0.86024 0.6355 0.0
C187 C 0.15738 0.86352 0.66876 0.0
C188 C 0.06543 0.80983 0.65588 0.0
C189 C 0.14557 0.76552 0.74977 0.0
C190 C 0.08761 0.76188 0.7134 0.0
C191 C 0.18139 0.81656 0.72745 0.0
H192 H 0.25925 0.78657 0.80723 0.0
N193 N 0.16844 0.95725 0.58533 0.0
C194 C 0.19212 0.91398 0.64365 0.0
C195 C 0.28927 0.96497 0.64494 0.0
C196 C 0.25272 0.91752 0.67581 0.0
C197 C 0.20667 0.99855 0.55112 0.0
C198 C 0.26669 0.0046 0.58136 0.0
O199 O 0.9658 0.07995 0.48378 0.0
O200 O 0.97912 0.98564 0.46973 0.0
O201 O 0.10623 0.94402 0.45401 0.0
O202 O 0.06831 0.8621 0.51269 0.0
O203 O 0.93233 0.97337 0.6147 0.0
O204 O 0.96655 0.91852 0.54976 0.0
O205 O 0.05055 0.93016 0.64946 0.0
O206 O 0.06259 0.02603 0.656 0.0
O207 O 0.92492 0.0348 0.68108 0.0
O208 O 0.96525 0.1239 0.65953 0.0
O209 O 0.08576 0.04535 0.50051 0.0
O210 O 0.07416 0.07828 0.59019 0.0
C211 C 0.96105 0.04311 0.44642 0.0
C212 C 0.92918 0.92715 0.58952 0.0
C213 C 0.06067 0.87667 0.39644 0.0
C214 C 0.06722 0.85426 0.29192 0.0
C215 C 0.96814 0.8567 0.32767 0.0
C216 C 0.9966 0.87103 0.38489 0.0
C217 C 1.00324 0.84779 0.28165 0.0
C218 C 0.09574 0.86914 0.34929 0.0
C219 C 0.09155 0.88816 0.4585 0.0
C220 C 0.27587 0.87218 0.73591 0.0
C221 C 0.24028 0.82183 0.76166 0.0
H222 H 0.33603 0.96928 0.66793 0.0
C223 C 0.06732 0.96739 0.68474 0.0
C224 C 0.09646 0.08515 0.53426 0.0
C225 C 0.87736 0.11 0.71244 0.0
C226 C 0.82266 0.13237 0.79482 0.0
C227 C 0.77813 0.16197 0.67565 0.0
C228 C 0.82913 0.13722 0.66081 0.0
C229 C 0.77489 0.15988 0.74196 0.0
C230 C 0.87391 0.10732 0.77927 0.0
C231 C 0.932 0.08502 0.69739 0.0
H232 H 0.91879 0.85219 0.31914 0.0
H233 H 0.96868 0.87704 0.42045 0.0
H234 H 0.98042 0.83666 0.23752 0.0
H235 H 0.14519 0.87361 0.35786 0.0
H236 H 0.74121 0.1834 0.6355 0.0
H237 H 0.83102 0.13969 0.60914 0.0
H238 H 0.73541 0.18093 0.75148 0.0
H239 H 0.9111 0.0855 0.81899 0.0
C240 C 0.70753 0.57577 0.1047 0.0
C241 C 0.70093 0.68385 0.04296 0.0
C242 C 0.67276 0.62955 0.07508 0.0
C243 C 0.76426 0.6835 0.041 0.0
C244 C 0.77113 0.57539 0.10285 0.0
C245 C 0.79922 0.62947 0.07081 0.0
N246 N 0.67912 0.52383 0.13479 0.0
C247 C 0.71178 0.47063 0.16593 0.0
C248 C 0.80467 0.5206 0.13324 0.0
C249 C 0.77489 0.46809 0.16516 0.0
Gd250 Gd 0.45179 0.47477 1.00309 0.0
Gd251 Gd 0.57333 0.53362 0.13225 0.0
N252 N 0.61102 0.62815 0.07555 0.0
C253 C 0.66449 0.73686 0.01327 0.0
C254 C 0.57567 0.68009 0.04875 0.0
C255 C 0.60171 0.73502 0.0166 0.0
H256 H 0.52751 0.67963 0.0521 0.0
H257 H 0.57338 0.77598 0.99464 0.0
H258 H 0.51895 0.33376 0.06641 0.0
H259 H 0.68944 0.43038 0.1926 0.0
H260 H 0.4967 0.2329 0.13951 0.0
H261 H 0.68442 0.77948 0.98807 0.0
H262 H 0.78663 0.72478 0.01639 0.0
H263 H 0.31986 0.5545 0.95801 0.0
H264 H 0.85361 0.51847 0.13283 0.0
H265 H 0.80061 0.42575 0.18964 0.0
H266 H 0.28712 0.25151 0.16671 0.0
H267 H 0.84802 0.63 0.0688 0.0
H268 H 0.18123 0.44241 0.05172 0.0
H269 H 0.21286 0.54147 0.98021 0.0
N270 N 0.34871 0.46522 0.01832 0.0
C271 C 0.33192 0.40981 0.05585 0.0
C272 C 0.30671 0.51182 0.9904 0.0
C273 C 0.22826 0.44814 0.04241 0.0
C274 C 0.24598 0.5042 1.00225 0.0
C275 C 0.27131 0.39997 0.06955 0.0
H276 H 0.20949 0.33446 0.12153 0.0
N277 N 0.43434 0.37439 0.06822 0.0
C278 C 0.37604 0.36319 0.08189 0.0
C279 C 0.40481 0.25858 0.14429 0.0
C280 C 0.3601 0.30529 0.12145 0.0
C281 C 0.47619 0.32758 0.08539 0.0
C282 C 0.46275 0.26951 0.12503 0.0
O283 O 0.59195 0.55692 0.02435 0.0
O284 O 0.49868 0.56193 0.95505 0.0
O285 O 0.46087 0.42002 0.93785 0.0
O286 O 0.39401 0.49394 0.90484 0.0
O287 O 0.47957 0.58014 0.10089 0.0
O288 O 0.43425 0.57265 0.99602 0.0
O289 O 0.42956 0.46962 0.10614 0.0
O290 O 0.52321 0.44693 0.173 0.0
O291 O 0.54309 0.57235 0.20461 0.0
O292 O 0.63354 0.53036 0.22477 0.0
O293 O 0.55207 0.44453 0.02323 0.0
O294 O 0.58053 0.43619 0.13515 0.0
C295 C 0.55661 0.57677 0.96536 0.0
C296 C 0.43893 0.59772 0.04521 0.0
C297 C 0.44206 0.47177 0.82246 0.0
C298 C 0.43864 0.46232 0.70978 0.0
C299 C 0.51336 0.52737 0.75066 0.0
C300 C 0.49136 0.51122 0.81199 0.0
C301 C 0.48712 0.50338 0.69963 0.0
C302 C 0.41579 0.44729 0.77143 0.0
C303 C 0.42107 0.4525 0.88826 0.0
C304 C 0.3 0.29557 0.13601 0.0
C305 C 0.25573 0.34276 0.11012 0.0
H306 H 0.39441 0.21346 0.17472 0.0
C307 C 0.4631 0.44388 0.16491 0.0
C308 C 0.58797 0.42159 0.08141 0.0
C309 C 0.58775 0.52715 0.31876 0.0
C310 C 0.59865 0.53706 0.43245 0.0
C311 C 0.58651 0.43717 0.41463 0.0
C312 C 0.58392 0.46393 0.34534 0.0
C313 C 0.59499 0.47303 0.45803 0.0
C314 C 0.59282 0.56345 0.36179 0.0
C315 C 0.59354 0.5557 0.24764 0.0
H316 H 0.55154 0.55768 0.74325 0.0
H317 H 0.51357 0.52844 0.85174 0.0
H318 H 0.50503 0.51656 0.65243 0.0
H319 H 0.37922 0.41491 0.78076 0.0
H320 H 0.58422 0.38818 0.4351 0.0
H321 H 0.5809 0.43536 0.31274 0.0
H322 H 0.60058 0.44972 0.51158 0.0
H323 H 0.59379 0.61228 0.33935 0.0
loop_
_geom_bond_atom_site_label_1
_geom_bond_atom_site_label_2
_geom_bond_distance
_geom_bond_site_symmetry_2
_ccdc_geom_bond_type
C0 C1 1.386 . S
C0 C2 1.397 . S
C0 H24 0.931 . S
C1 C0 1.386 . S
C1 C5 1.397 1_565 S
C2 C0 1.397 . S
C2 C3 1.384 . S
C2 H25 0.930 . S
C3 C2 1.384 . S
C3 C4 1.377 . S
C3 C6 1.481 . S
C4 C3 1.377 . S
C4 C5 1.389 1_565 S
C4 H26 0.929 1_565 S
C5 C1 1.397 1_545 S
C5 C4 1.389 1_545 S
C5 H27 0.931 . S
C6 C3 1.481 . S
C6 C7 1.387 . S
C6 C11 1.390 . S
C7 C6 1.387 . S
C7 C8 1.401 1_556 S
C7 H28 0.930 . S
C8 C7 1.401 1_554 S
C8 C9 1.376 . S
C8 C17 1.511 . S
C9 C8 1.376 . S
C9 C10 1.392 . S
C9 H30 0.931 . S
C10 C9 1.392 . S
C10 C11 1.361 1_554 S
C10 C12 1.500 . S
C11 C6 1.390 . S
C11 C10 1.361 1_556 S
C11 H29 0.931 . S
C12 C10 1.500 . S
C12 C13 1.371 . S
C12 C14 1.365 . S
C13 C12 1.371 . S
C13 C23 1.386 . S
C13 H31 0.931 . S
C14 C12 1.365 . S
C14 C15 1.409 . S
C14 H32 0.929 . S
C15 C14 1.409 . S
C15 C16 1.380 . S
C15 H33 0.930 1_565 S
C16 C15 1.380 . S
C16 C23 1.357 . S
C17 C8 1.511 . S
C17 C18 1.341 1_554 S
C17 C19 1.371 . S
C18 C17 1.341 1_556 S
C18 C22 1.394 1_556 S
C18 H34 0.930 . S
C19 C17 1.371 . S
C19 C20 1.392 . S
C19 H35 0.931 . S
C20 C19 1.392 . S
C20 C21 1.331 . S
C20 H38 0.932 . S
C21 C20 1.331 . S
C21 C22 1.336 . S
C22 C18 1.394 1_554 S
C22 C21 1.336 . S
C22 H37 0.929 1_554 S
C23 C13 1.386 . S
C23 C16 1.357 . S
C23 H36 0.928 . S
H24 C0 0.931 . S
H25 C2 0.930 . S
H26 C4 0.929 1_545 S
H27 C5 0.931 . S
H28 C7 0.930 . S
H29 C11 0.931 . S
H30 C9 0.931 . S
H31 C13 0.931 . S
H32 C14 0.929 . S
H33 C15 0.930 1_545 S
H34 C18 0.930 . S
H35 C19 0.931 . S
H36 C23 0.928 . S
H37 C22 0.929 1_556 S
H38 C20 0.932 . S
C39 C40 1.386 . S
C39 C41 1.397 . S
C39 H63 0.931 . S
C40 C39 1.386 . S
C40 C44 1.397 . S
C41 C39 1.397 . S
C41 C42 1.384 . S
C41 H64 0.930 . S
C42 C41 1.384 . S
C42 C43 1.377 . S
C42 C45 1.481 . S
C43 C42 1.377 . S
C43 C44 1.389 . S
C43 H65 0.929 . S
C44 C40 1.397 . S
C44 C43 1.389 . S
C44 H66 0.931 . S
C45 C42 1.481 . S
C45 C46 1.387 . S
C45 C50 1.390 . S
C46 C45 1.387 . S
C46 C47 1.401 . S
C46 H67 0.930 . S
C47 C46 1.401 . S
C47 C48 1.376 . S
C47 C56 1.511 . S
C48 C47 1.376 . S
C48 C49 1.392 . S
C48 H69 0.931 . S
C49 C48 1.392 . S
C49 C50 1.361 . S
C49 C51 1.500 . S
C50 C45 1.390 . S
C50 C49 1.361 . S
C50 H68 0.931 . S
C51 C49 1.500 . S
C51 C52 1.371 . S
C51 C53 1.365 . S
C52 C51 1.371 . S
C52 C62 1.386 . S
C52 H70 0.931 . S
C53 C51 1.365 . S
C53 C54 1.409 . S
C53 H71 0.929 . S
C54 C53 1.409 . S
C54 C55 1.380 . S
C54 H72 0.930 . S
C55 C54 1.380 . S
C55 C62 1.357 . S
C56 C47 1.511 . S
C56 C57 1.341 . S
C56 C58 1.371 . S
C57 C56 1.341 . S
C57 C61 1.394 . S
C57 H73 0.930 . S
C58 C56 1.371 . S
C58 C59 1.392 . S
C58 H74 0.931 . S
C59 C58 1.392 . S
C59 C60 1.331 . S
C59 H77 0.932 . S
C60 C59 1.331 . S
C60 C61 1.336 . S
C61 C57 1.394 . S
C61 C60 1.336 . S
C61 H76 0.929 . S
C62 C52 1.386 . S
C62 C55 1.357 . S
C62 H75 0.928 . S
H63 C39 0.931 . S
H64 C41 0.930 . S
H65 C43 0.929 . S
H66 C44 0.931 . S
H67 C46 0.930 . S
H68 C50 0.931 . S
H69 C48 0.931 . S
H70 C52 0.931 . S
H71 C53 0.929 . S
H72 C54 0.930 . S
H73 C57 0.930 . S
H74 C58 0.931 . S
H75 C62 0.928 . S
H76 C61 0.929 . S
H77 C59 0.932 . S
C78 C79 1.386 . S
C78 C80 1.397 . S
C78 H102 0.931 . S
C79 C78 1.386 . S
C79 C83 1.397 . S
C80 C78 1.397 . S
C80 C81 1.384 . S
C80 H103 0.930 . S
C81 C80 1.384 . S
C81 C82 1.377 . S
C81 C84 1.481 . S
C82 C81 1.377 . S
C82 C83 1.389 . S
C82 H104 0.929 . S
C83 C79 1.397 . S
C83 C82 1.389 . S
C83 H105 0.931 . S
C84 C81 1.481 . S
C84 C85 1.387 . S
C84 C89 1.390 . S
C85 C84 1.387 . S
C85 C86 1.401 . S
C85 H106 0.930 . S
C86 C85 1.401 . S
C86 C87 1.376 . S
C86 C95 1.511 . S
C87 C86 1.376 . S
C87 C88 1.392 . S
C87 H108 0.931 . S
C88 C87 1.392 . S
C88 C89 1.361 . S
C88 C90 1.500 . S
C89 C84 1.390 . S
C89 C88 1.361 . S
C89 H107 0.931 . S
C90 C88 1.500 . S
C90 C91 1.371 1_554 S
C90 C92 1.365 . S
C91 C90 1.371 1_556 S
C91 C101 1.386 . S
C91 H109 0.931 . S
C92 C90 1.365 . S
C92 C93 1.409 1_554 S
C92 H110 0.929 . S
C93 C92 1.409 1_556 S
C93 C94 1.380 . S
C93 H111 0.930 . S
C94 C93 1.380 . S
C94 C101 1.357 . S
C95 C86 1.511 . S
C95 C96 1.341 . S
C95 C97 1.371 . S
C96 C95 1.341 . S
C96 C100 1.394 . S
C96 H112 0.930 . S
C97 C95 1.371 . S
C97 C98 1.392 . S
C97 H113 0.931 1_554 S
C98 C97 1.392 . S
C98 C99 1.331 . S
C98 H116 0.932 1_554 S
C99 C98 1.331 . S
C99 C100 1.336 . S
C100 C96 1.394 . S
C100 C99 1.336 . S
C100 H115 0.929 . S
C101 C91 1.386 . S
C101 C94 1.357 . S
C101 H114 0.928 . S
H102 C78 0.931 . S
H103 C80 0.930 . S
H104 C82 0.929 . S
H105 C83 0.931 . S
H106 C85 0.930 . S
H107 C89 0.931 . S
H108 C87 0.931 . S
H109 C91 0.931 . S
H110 C92 0.929 . S
H111 C93 0.930 . S
H112 C96 0.930 . S
H113 C97 0.931 1_556 S
H114 C101 0.928 . S
H115 C100 0.929 . S
H116 C98 0.932 1_556 S
C117 C118 1.386 . S
C117 C119 1.397 . S
C117 H141 0.931 . S
C118 C117 1.386 . S
C118 C122 1.397 . S
C119 C117 1.397 . S
C119 C120 1.384 . S
C119 H142 0.930 . S
C120 C119 1.384 . S
C120 C121 1.377 . S
C120 C123 1.481 . S
C121 C120 1.377 . S
C121 C122 1.389 . S
C121 H143 0.929 . S
C122 C118 1.397 . S
C122 C121 1.389 . S
C122 H144 0.931 . S
C123 C120 1.481 . S
C123 C124 1.387 . S
C123 C128 1.390 . S
C124 C123 1.387 . S
C124 C125 1.401 . S
C124 H145 0.930 . S
C125 C124 1.401 . S
C125 C126 1.376 . S
C125 C134 1.511 . S
C126 C125 1.376 . S
C126 C127 1.392 . S
C126 H147 0.931 . S
C127 C126 1.392 . S
C127 C128 1.361 . S
C127 C129 1.500 . S
C128 C123 1.390 . S
C128 C127 1.361 . S
C128 H146 0.931 . S
C129 C127 1.500 . S
C129 C130 1.371 . S
C129 C131 1.365 . S
C130 C129 1.371 . S
C130 C140 1.386 . S
C130 H148 0.931 . S
C131 C129 1.365 . S
C131 C132 1.409 . S
C131 H149 0.929 . S
C132 C131 1.409 . S
C132 C133 1.380 . S
C132 H150 0.930 . S
C133 C132 1.380 . S
C133 C140 1.357 . S
C134 C125 1.511 . S
C134 C135 1.341 . S
C134 C136 1.371 . S
C135 C134 1.341 . S
C135 C139 1.394 . S
C135 H151 0.930 . S
C136 C134 1.371 . S
C136 C137 1.392 . S
C136 H152 0.931 . S
C137 C136 1.392 . S
C137 C138 1.331 . S
C137 H155 0.932 . S
C138 C137 1.331 . S
C138 C139 1.336 . S
C139 C135 1.394 . S
C139 C138 1.336 . S
C139 H154 0.929 . S
C140 C130 1.386 . S
C140 C133 1.357 . S
C140 H153 0.928 . S
H141 C117 0.931 . S
H142 C119 0.930 . S
H143 C121 0.929 . S
H144 C122 0.931 . S
H145 C124 0.930 . S
H146 C128 0.931 . S
H147 C126 0.931 . S
H148 C130 0.931 . S
H149 C131 0.929 . S
H150 C132 0.930 . S
H151 C135 0.930 . S
H152 C136 0.931 . S
H153 C140 0.928 . S
H154 C139 0.929 . S
H155 C137 0.932 . S
C156 C158 1.422 . S
C156 C160 1.415 . S
C156 N162 1.369 . S
C157 C158 1.421 . S
C157 C159 1.417 . S
C157 C169 1.422 . S
C158 C156 1.422 . S
C158 C157 1.421 . S
C158 N168 1.359 . S
C159 C157 1.417 . S
C159 C161 1.329 . S
C159 H178 0.930 . S
C160 C156 1.415 . S
C160 C161 1.437 . S
C160 C164 1.413 . S
C161 C159 1.329 . S
C161 C160 1.437 . S
C161 H183 0.929 . S
N162 C156 1.369 . S
N162 C163 1.338 . S
N162 Gd167 2.622 . S
C163 N162 1.338 . S
C163 C165 1.378 . S
C163 H175 0.929 1_655 S
C164 C160 1.413 . S
C164 C165 1.348 . S
C164 H180 0.931 . S
C165 C163 1.378 . S
C165 C164 1.348 . S
C165 H181 0.930 1_655 S
Gd166 N186 2.622 . S
Gd166 N193 2.570 . S
Gd166 O200 2.353 1_465 S
Gd166 O201 2.468 . S
Gd166 O202 2.427 . S
Gd166 O204 2.388 1_455 S
Gd166 O205 2.386 . S
Gd166 O209 2.307 1_565 S
Gd166 C219 2.805 . S
Gd167 N162 2.622 . S
Gd167 N168 2.570 . S
Gd167 O199 2.386 . S
Gd167 O203 2.307 1_545 S
Gd167 O206 2.353 1_655 S
Gd167 O207 2.468 . S
Gd167 O208 2.427 . S
Gd167 O210 2.388 1_655 S
Gd167 C231 2.805 . S
N168 C158 1.359 . S
N168 Gd167 2.570 . S
N168 C170 1.343 . S
C169 C157 1.422 . S
C169 C171 1.321 . S
C169 H177 0.931 . S
C170 N168 1.343 . S
C170 C171 1.390 . S
C170 H172 0.931 . S
C171 C169 1.321 . S
C171 C170 1.390 . S
C171 H173 0.930 . S
H172 C170 0.931 . S
H173 C171 0.930 . S
H174 C197 0.931 . S
H175 C163 0.929 1_455 S
H176 C198 0.930 . S
H177 C169 0.931 . S
H178 C159 0.930 . S
H179 C188 0.929 1_655 S
H180 C164 0.931 . S
H181 C165 0.930 1_455 S
H182 C220 0.930 . S
H183 C161 0.929 . S
H184 C189 0.931 . S
H185 C190 0.930 1_655 S
N186 Gd166 2.622 . S
N186 C187 1.369 . S
N186 C188 1.338 . S
C187 N186 1.369 . S
C187 C191 1.415 . S
C187 C194 1.422 . S
C188 H179 0.929 1_455 S
C188 N186 1.338 . S
C188 C190 1.378 . S
C189 H184 0.931 . S
C189 C190 1.348 . S
C189 C191 1.413 . S
C190 H185 0.930 1_455 S
C190 C188 1.378 . S
C190 C189 1.348 . S
C191 C187 1.415 . S
C191 C189 1.413 . S
C191 C221 1.437 . S
H192 C221 0.929 . S
N193 Gd166 2.570 . S
N193 C194 1.359 . S
N193 C197 1.343 . S
C194 C187 1.422 . S
C194 N193 1.359 . S
C194 C196 1.421 . S
C195 C196 1.422 . S
C195 C198 1.321 . S
C195 H222 0.931 . S
C196 C194 1.421 . S
C196 C195 1.422 . S
C196 C220 1.417 . S
C197 H174 0.931 . S
C197 N193 1.343 . S
C197 C198 1.390 . S
C198 H176 0.930 . S
C198 C195 1.321 . S
C198 C197 1.390 . S
O199 Gd167 2.386 . S
O199 C211 1.265 . S
O200 Gd166 2.353 1_645 S
O200 C211 1.242 . S
O201 Gd166 2.468 . S
O201 C219 1.263 . S
O202 Gd166 2.427 . S
O202 C219 1.252 . S
O203 Gd167 2.307 1_565 S
O203 C212 1.261 . S
O204 Gd166 2.388 1_655 S
O204 C212 1.252 . S
O205 Gd166 2.386 . S
O205 C223 1.265 . S
O206 Gd167 2.353 1_455 S
O206 C223 1.242 1_545 S
O207 Gd167 2.468 . S
O207 C231 1.263 . S
O208 Gd167 2.427 . S
O208 C231 1.252 . S
O209 Gd166 2.307 1_545 S
O209 C224 1.261 . S
O210 Gd167 2.388 1_455 S
O210 C224 1.252 . S
C211 O199 1.265 . S
C211 O200 1.242 . S
C212 O203 1.261 . S
C212 O204 1.252 . S
C213 C216 1.394 . S
C213 C218 1.370 . S
C213 C219 1.500 . S
C214 C217 1.383 . S
C214 C218 1.395 . S
C215 C216 1.396 . S
C215 C217 1.365 . S
C215 H232 0.929 . S
C216 C213 1.394 . S
C216 C215 1.396 . S
C216 H233 0.930 . S
C217 C214 1.383 . S
C217 C215 1.365 . S
C217 H234 0.931 . S
C218 C213 1.370 . S
C218 C214 1.395 . S
C218 H235 0.930 . S
C219 Gd166 2.805 . S
C219 O201 1.263 . S
C219 O202 1.252 . S
C219 C213 1.500 . S
C220 H182 0.930 . S
C220 C196 1.417 . S
C220 C221 1.329 . S
C221 C191 1.437 . S
C221 H192 0.929 . S
C221 C220 1.329 . S
H222 C195 0.931 . S
C223 O205 1.265 . S
C223 O206 1.242 1_565 S
C224 O209 1.261 . S
C224 O210 1.252 . S
C225 C228 1.394 . S
C225 C230 1.370 . S
C225 C231 1.500 . S
C226 C229 1.383 . S
C226 C230 1.395 . S
C227 C228 1.396 . S
C227 C229 1.365 . S
C227 H236 0.929 . S
C228 C225 1.394 . S
C228 C227 1.396 . S
C228 H237 0.930 . S
C229 C226 1.383 . S
C229 C227 1.365 . S
C229 H238 0.931 . S
C230 C225 1.370 . S
C230 C226 1.395 . S
C230 H239 0.930 . S
C231 Gd167 2.805 . S
C231 O207 1.263 . S
C231 O208 1.252 . S
C231 C225 1.500 . S
H232 C215 0.929 . S
H233 C216 0.930 . S
H234 C217 0.931 . S
H235 C218 0.930 . S
H236 C227 0.929 . S
H237 C228 0.930 . S
H238 C229 0.931 . S
H239 C230 0.930 . S
C240 C242 1.422 . S
C240 C244 1.415 . S
C240 N246 1.369 . S
C241 C242 1.421 . S
C241 C243 1.417 . S
C241 C253 1.422 . S
C242 C240 1.422 . S
C242 C241 1.421 . S
C242 N252 1.359 . S
C243 C241 1.417 . S
C243 C245 1.329 . S
C243 H262 0.930 . S
C244 C240 1.415 . S
C244 C245 1.437 . S
C244 C248 1.413 . S
C245 C243 1.329 . S
C245 C244 1.437 . S
C245 H267 0.929 . S
N246 C240 1.369 . S
N246 C247 1.338 . S
N246 Gd251 2.622 . S
C247 N246 1.338 . S
C247 C249 1.378 . S
C247 H259 0.929 . S
C248 C244 1.413 . S
C248 C249 1.348 . S
C248 H264 0.931 . S
C249 C247 1.378 . S
C249 C248 1.348 . S
C249 H265 0.930 . S
Gd250 N270 2.621 1_556 S
Gd250 N277 2.570 1_556 S
Gd250 O284 2.353 . S
Gd250 O285 2.468 . S
Gd250 O286 2.427 . S
Gd250 O288 2.388 . S
Gd250 O289 2.386 1_556 S
Gd250 O293 2.307 1_556 S
Gd250 C303 2.805 . S
Gd251 N246 2.622 . S
Gd251 N252 2.570 . S
Gd251 O283 2.386 . S
Gd251 O287 2.307 . S
Gd251 O290 2.353 . S
Gd251 O291 2.468 . S
Gd251 O292 2.427 . S
Gd251 O294 2.388 . S
Gd251 C315 2.805 . S
N252 C242 1.359 . S
N252 Gd251 2.570 . S
N252 C254 1.343 . S
C253 C241 1.422 . S
C253 C255 1.321 . S
C253 H261 0.931 . S
C254 N252 1.343 . S
C254 C255 1.390 . S
C254 H256 0.931 . S
C255 C253 1.321 . S
C255 C254 1.390 . S
C255 H257 0.930 . S
H256 C254 0.931 . S
H257 C255 0.930 . S
H258 C281 0.931 . S
H259 C247 0.929 . S
H260 C282 0.930 . S
H261 C253 0.931 . S
H262 C243 0.930 . S
H263 C272 0.929 . S
H264 C248 0.931 . S
H265 C249 0.930 . S
H266 C304 0.930 . S
H267 C245 0.929 . S
H268 C273 0.931 . S
H269 C274 0.930 . S
N270 Gd250 2.621 1_554 S
N270 C271 1.370 . S
N270 C272 1.338 1_554 S
C271 N270 1.370 . S
C271 C275 1.415 . S
C271 C278 1.422 . S
C272 H263 0.929 . S
C272 N270 1.338 1_556 S
C272 C274 1.378 . S
C273 H268 0.931 . S
C273 C274 1.348 1_554 S
C273 C275 1.413 . S
C274 H269 0.930 . S
C274 C272 1.378 . S
C274 C273 1.348 1_556 S
C275 C271 1.415 . S
C275 C273 1.413 . S
C275 C305 1.437 . S
H276 C305 0.929 . S
N277 Gd250 2.570 1_554 S
N277 C278 1.359 . S
N277 C281 1.343 . S
C278 C271 1.422 . S
C278 N277 1.359 . S
C278 C280 1.421 . S
C279 C280 1.422 . S
C279 C282 1.321 . S
C279 H306 0.931 . S
C280 C278 1.421 . S
C280 C279 1.422 . S
C280 C304 1.417 . S
C281 H258 0.931 . S
C281 N277 1.343 . S
C281 C282 1.390 . S
C282 H260 0.930 . S
C282 C279 1.321 . S
C282 C281 1.390 . S
O283 Gd251 2.386 . S
O283 C295 1.265 1_554 S
O284 Gd250 2.353 . S
O284 C295 1.242 . S
O285 Gd250 2.468 . S
O285 C303 1.263 . S
O286 Gd250 2.427 . S
O286 C303 1.252 . S
O287 Gd251 2.307 . S
O287 C296 1.261 . S
O288 Gd250 2.388 . S
O288 C296 1.250 1_556 S
O289 Gd250 2.386 1_554 S
O289 C307 1.265 . S
O290 Gd251 2.353 . S
O290 C307 1.242 . S
O291 Gd251 2.468 . S
O291 C315 1.263 . S
O292 Gd251 2.427 . S
O292 C315 1.252 . S
O293 Gd250 2.307 1_554 S
O293 C308 1.261 . S
O294 Gd251 2.388 . S
O294 C308 1.252 . S
C295 O283 1.265 1_556 S
C295 O284 1.242 . S
C296 O287 1.261 . S
C296 O288 1.250 1_554 S
C297 C300 1.394 . S
C297 C302 1.370 . S
C297 C303 1.500 . S
C298 C301 1.383 . S
C298 C302 1.395 . S
C299 C300 1.396 . S
C299 C301 1.365 . S
C299 H316 0.929 . S
C300 C297 1.394 . S
C300 C299 1.396 . S
C300 H317 0.930 . S
C301 C298 1.383 . S
C301 C299 1.365 . S
C301 H318 0.931 . S
C302 C297 1.370 . S
C302 C298 1.395 . S
C302 H319 0.930 . S
C303 Gd250 2.805 . S
C303 O285 1.263 . S
C303 O286 1.252 . S
C303 C297 1.500 . S
C304 H266 0.930 . S
C304 C280 1.417 . S
C304 C305 1.329 . S
C305 C275 1.437 . S
C305 H276 0.929 . S
C305 C304 1.329 . S
H306 C279 0.931 . S
C307 O289 1.265 . S
C307 O290 1.242 . S
C308 O293 1.261 . S
C308 O294 1.252 . S
C309 C312 1.394 . S
C309 C314 1.370 . S
C309 C315 1.500 . S
C310 C313 1.383 . S
C310 C314 1.395 . S
C311 C312 1.396 . S
C311 C313 1.365 . S
C311 H320 0.929 . S
C312 C309 1.394 . S
C312 C311 1.396 . S
C312 H321 0.930 . S
C313 C310 1.383 . S
C313 C311 1.365 . S
C313 H322 0.931 . S
C314 C309 1.370 . S
C314 C310 1.395 . S
C314 H323 0.930 . S
C315 Gd251 2.805 . S
C315 O291 1.263 . S
C315 O292 1.252 . S
C315 C309 1.500 . S
H316 C299 0.929 . S
H317 C300 0.930 . S
H318 C301 0.931 . S
H319 C302 0.930 . S
H320 C311 0.929 . S
H321 C312 0.930 . S
H322 C313 0.931 . S
H323 C314 0.930 . S
C224 C138 2.096 . S
C21 C296 2.112 . S
C60 C212 2.118 . S
C99 C308 2.152 . S
C214 C16 1.579 . S
C295 C40 1.916 . S
C79 C211 2.186 . S
C133 C298 1.531 . S
C310 C55 1.522 . S
C226 C94 1.567 . S
C307 C118 1.903 . S
C1 C223 2.164 . S
