# Generated by pormake.
# Topology zzz, (3,6)-cn, num edge types: 1
# Building blocks:
#     Node 0, Type 0, BuildingBlock: MIDCAF_clean_linker_0, # of connection points: 3
#     Node 1, Type 0, BuildingBlock: MIDCAF_clean_linker_0, # of connection points: 3
#     Node 2, Type 0, BuildingBlock: MIDCAF_clean_linker_0, # of connection points: 3
#     Node 3, Type 0, BuildingBlock: MIDCAF_clean_linker_0, # of connection points: 3
#     Node 4, Type 0, BuildingBlock: MIDCAF_clean_linker_0, # of connection points: 3
#     Node 5, Type 0, BuildingBlock: MIDCAF_clean_linker_0, # of connection points: 3
#     Node 6, Type 0, BuildingBlock: MIDCAF_clean_linker_0, # of connection points: 3
#     Node 7, Type 0, BuildingBlock: MIDCAF_clean_linker_0, # of connection points: 3
#     Node 8, Type 1, BuildingBlock: GEDQOX_clean_sbu_0, # of connection points: 6
#     Node 9, Type 1, BuildingBlock: GEDQOX_clean_sbu_0, # of connection points: 6
#     Node 10, Type 1, BuildingBlock: GEDQOX_clean_sbu_0, # of connection points: 6
#     Node 11, Type 1, BuildingBlock: GEDQOX_clean_sbu_0, # of connection points: 6
#     Edge 12, Type (0, 1), BuildingBlock: XUDNAN_clean_linker_2, # of connection points: 2
#     Edge 13, Type (0, 1), BuildingBlock: XUDNAN_clean_linker_2, # of connection points: 2
#     Edge 14, Type (0, 1), BuildingBlock: XUDNAN_clean_linker_2, # of connection points: 2
#     Edge 15, Type (0, 1), BuildingBlock: XUDNAN_clean_linker_2, # of connection points: 2
#     Edge 16, Type (0, 1), BuildingBlock: XUDNAN_clean_linker_2, # of connection points: 2
#     Edge 17, Type (0, 1), BuildingBlock: XUDNAN_clean_linker_2, # of connection points: 2
#     Edge 18, Type (0, 1), BuildingBlock: XUDNAN_clean_linker_2, # of connection points: 2
#     Edge 19, Type (0, 1), BuildingBlock: XUDNAN_clean_linker_2, # of connection points: 2
#     Edge 20, Type (0, 1), BuildingBlock: XUDNAN_clean_linker_2, # of connection points: 2
#     Edge 21, Type (0, 1), BuildingBlock: XUDNAN_clean_linker_2, # of connection points: 2
#     Edge 22, Type (0, 1), BuildingBlock: XUDNAN_clean_linker_2, # of connection points: 2
#     Edge 23, Type (0, 1), BuildingBlock: XUDNAN_clean_linker_2, # of connection points: 2
#     Edge 24, Type (0, 1), BuildingBlock: XUDNAN_clean_linker_2, # of connection points: 2
#     Edge 25, Type (0, 1), BuildingBlock: XUDNAN_clean_linker_2, # of connection points: 2
#     Edge 26, Type (0, 1), BuildingBlock: XUDNAN_clean_linker_2, # of connection points: 2
#     Edge 27, Type (0, 1), BuildingBlock: XUDNAN_clean_linker_2, # of connection points: 2
#     Edge 28, Type (0, 1), BuildingBlock: XUDNAN_clean_linker_2, # of connection points: 2
#     Edge 29, Type (0, 1), BuildingBlock: XUDNAN_clean_linker_2, # of connection points: 2
#     Edge 30, Type (0, 1), BuildingBlock: XUDNAN_clean_linker_2, # of connection points: 2
#     Edge 31, Type (0, 1), BuildingBlock: XUDNAN_clean_linker_2, # of connection points: 2
#     Edge 32, Type (0, 1), BuildingBlock: XUDNAN_clean_linker_2, # of connection points: 2
#     Edge 33, Type (0, 1), BuildingBlock: XUDNAN_clean_linker_2, # of connection points: 2
#     Edge 34, Type (0, 1), BuildingBlock: XUDNAN_clean_linker_2, # of connection points: 2
#     Edge 35, Type (0, 1), BuildingBlock: XUDNAN_clean_linker_2, # of connection points: 2
# Relax obj value: 0.310
# Max RMSD: 0.266
# Mean RMSD: 0.199
data_MOF--net-zzz--node1-GEDQOX_clean_sbu_0--node2-MIDCAF_clean_linker_0--edge1-XUDNAN_clean_linker_2
_symmetry_space_group_name_H-M    P1
_symmetry_Int_Tables_number       1
_symmetry_cell_setting            triclinic
loop_
_symmetry_equiv_pos_as_xyz
'x, y, z'
_cell_length_a     62.288967
_cell_length_b     58.01557
_cell_length_c     21.811024
_cell_angle_alpha  81.888103
_cell_angle_beta   91.137007
_cell_angle_gamma 101.98465
loop_
_atom_site_label
_atom_site_type_symbol
_atom_site_fract_x
_atom_site_fract_y
_atom_site_fract_z
_atom_type_partial_charge
C0 C 0.81037 0.46761 0.35494 0.0
C1 C 0.80972 0.48869 0.37877 0.0
C2 C 0.79693 0.50416 0.34909 0.0
C3 C 0.78522 0.49876 0.29567 0.0
H4 H 0.72127 0.49267 0.20627 0.0
H5 H 0.68424 0.49797 0.18151 0.0
H6 H 0.6909 0.47921 0.99924 0.0
H7 H 0.72819 0.47406 0.0235 0.0
H8 H 0.78697 0.47846 0.98912 0.0
H9 H 0.8157 0.47195 0.92344 0.0
H10 H 0.83245 0.42027 0.06974 0.0
H11 H 0.80468 0.42813 0.13637 0.0
H12 H 0.80056 0.44653 0.28226 0.0
H13 H 0.82026 0.45551 0.37686 0.0
H14 H 0.79625 0.52054 0.36678 0.0
H15 H 0.77585 0.5112 0.27269 0.0
N16 N 0.75778 0.48033 0.19187 0.0
N17 N 0.7611 0.46848 0.09436 0.0
N18 N 0.78802 0.46463 0.16964 0.0
C19 C 0.74954 0.47732 0.13455 0.0
C20 C 0.7803 0.462 0.11196 0.0
C21 C 0.777 0.47396 0.20959 0.0
C22 C 0.72774 0.48267 0.11717 0.0
C23 C 0.71502 0.48986 0.16064 0.0
C24 C 0.69371 0.49281 0.14659 0.0
C25 C 0.68458 0.48874 0.0887 0.0
C26 C 0.69754 0.48256 0.04417 0.0
C27 C 0.71888 0.47949 0.05829 0.0
C28 C 0.79389 0.45405 0.06794 0.0
C29 C 0.79652 0.46535 0.00653 0.0
C30 C 0.81298 0.46149 0.96884 0.0
C31 C 0.82681 0.44589 0.99154 0.0
C32 C 0.82267 0.43299 0.05126 0.0
C33 C 0.80662 0.4373 0.08934 0.0
C34 C 0.78669 0.47817 0.27032 0.0
C35 C 0.79917 0.46253 0.30083 0.0
C36 C 0.93914 0.75878 0.42465 0.0
C37 C 0.95846 0.76363 0.45898 0.0
C38 C 0.97506 0.75097 0.45198 0.0
C39 C 0.97311 0.73534 0.40746 0.0
H40 H 0.0047 0.6868 0.2676 0.0
H41 H 0.01991 0.65698 0.22286 0.0
H42 H 0.95515 0.62617 0.16252 0.0
H43 H 0.94023 0.65595 0.20664 0.0
H44 H 0.97043 0.73559 0.09239 0.0
H45 H 0.97076 0.76949 0.01142 0.0
H46 H 0.91941 0.78982 0.10831 0.0
H47 H 0.9194 0.75635 0.18997 0.0
H48 H 0.92268 0.74118 0.35202 0.0
H49 H 0.92584 0.76778 0.43001 0.0
H50 H 0.99014 0.75432 0.47787 0.0
H51 H 0.98679 0.72722 0.3995 0.0
N52 N 0.96291 0.70241 0.30617 0.0
N53 N 0.95659 0.70765 0.19857 0.0
N54 N 0.94779 0.73441 0.25942 0.0
C55 C 0.96325 0.69483 0.24969 0.0
C56 C 0.94888 0.72747 0.20319 0.0
C57 C 0.95469 0.72216 0.31098 0.0
C58 C 0.97131 0.67339 0.24103 0.0
C59 C 0.99369 0.67301 0.24697 0.0
C60 C 0.00239 0.65616 0.2207 0.0
C61 C 0.98874 0.63933 0.18871 0.0
C62 C 0.96607 0.63869 0.18729 0.0
C63 C 0.9575 0.6557 0.21264 0.0
C64 C 0.945 0.74354 0.14754 0.0
C65 C 0.9587 0.74683 0.09529 0.0
C66 C 0.959 0.76624 0.04921 0.0
C67 C 0.94519 0.78218 0.05412 0.0
C68 C 0.9301 0.77763 0.10344 0.0
C69 C 0.93014 0.75857 0.15016 0.0
C70 C 0.95454 0.73225 0.3695 0.0
C71 C 0.93724 0.74335 0.38041 0.0
C72 C 0.70252 0.00698 0.3166 0.0
C73 C 0.71552 1.00138 0.36757 0.0
C74 C 0.7385 0.00595 0.3593 0.0
C75 C 0.74817 0.01637 0.30147 0.0
H76 H 0.8062 0.02989 0.17182 0.0
H77 H 0.84108 0.02756 0.12585 0.0
H78 H 0.81934 0.05554 0.94653 0.0
H79 H 0.78523 0.05862 0.99222 0.0
H80 H 0.74621 0.08685 0.98319 0.0
H81 H 0.71926 0.10173 0.91415 0.0
H82 H 0.66914 0.07418 0.05545 0.0
H83 H 0.69591 0.06063 0.12443 0.0
H84 H 0.70129 0.02169 0.22204 0.0
H85 H 0.68485 1.00423 0.32112 0.0
H86 H 0.74899 1.00175 0.39763 0.0
H87 H 0.76587 0.0202 0.29661 0.0
N88 N 0.76451 0.03491 0.16999 0.0
N89 N 0.75842 0.05903 0.07755 0.0
N90 N 0.73164 0.04862 0.15532 0.0
C91 C 0.77161 0.04649 0.11263 0.0
C92 C 0.73846 0.06029 0.09878 0.0
C93 C 0.74432 0.03592 0.1913 0.0
C94 C 0.7929 0.04463 0.08603 0.0
C95 C 0.80894 0.0356 0.12265 0.0
C96 C 0.82891 0.03415 0.09616 0.0
C97 C 0.8332 0.04155 0.0324 0.0
C98 C 0.81697 0.05024 0.99596 0.0
C99 C 0.79722 0.05187 0.02235 0.0
C100 C 0.72321 0.0722 0.0591 0.0
C101 C 0.72951 0.08445 0.99979 0.0
C102 C 0.71402 0.09291 0.96012 0.0
C103 C 0.69189 0.08908 0.97874 0.0
C104 C 0.686 0.07799 0.03937 0.0
C105 C 0.70144 0.06985 0.07903 0.0
C106 C 0.73499 0.02266 0.25137 0.0
C107 C 0.71206 0.01737 0.25959 0.0
C108 C 0.59487 0.72853 0.20667 0.0
C109 C 0.59173 0.73991 0.14672 0.0
C110 C 0.59605 0.76493 0.13614 0.0
C111 C 0.6008 0.77803 0.18563 0.0
H112 H 0.61205 0.84934 0.26681 0.0
H113 H 0.5991 0.88459 0.22044 0.0
H114 H 0.53827 0.85926 0.324 0.0
H115 H 0.55191 0.82455 0.3725 0.0
H116 H 0.55619 0.76883 0.48812 0.0
H117 H 0.54657 0.73608 0.57343 0.0
H118 H 0.60762 0.71456 0.545 0.0
H119 H 0.61661 0.74653 0.45886 0.0
H120 H 0.60066 0.73195 0.30176 0.0
H121 H 0.59161 0.70934 0.21742 0.0
H122 H 0.59448 0.77435 0.0903 0.0
H123 H 0.60238 0.79716 0.17661 0.0
N124 N 0.59551 0.80102 0.29119 0.0
N125 N 0.58579 0.79782 0.39633 0.0
N126 N 0.59733 0.76642 0.35803 0.0
C127 C 0.58889 0.81079 0.3386 0.0
C128 C 0.5907 0.7757 0.40631 0.0
C129 C 0.59955 0.77877 0.30025 0.0
C130 C 0.583 0.83431 0.32341 0.0
C131 C 0.59617 0.85173 0.28095 0.0
C132 C 0.58857 0.87176 0.25365 0.0
C133 C 0.56739 0.87466 0.26715 0.0
C134 C 0.55473 0.85785 0.31259 0.0
C135 C 0.56253 0.83793 0.34075 0.0
C136 C 0.58709 0.76016 0.46678 0.0
C137 C 0.56774 0.75744 0.50137 0.0
C138 C 0.56223 0.73857 0.55013 0.0
C139 C 0.5761 0.72224 0.56551 0.0
C140 C 0.59619 0.72622 0.53349 0.0
C141 C 0.60151 0.74478 0.48455 0.0
C142 C 0.60149 0.76633 0.2465 0.0
C143 C 0.59993 0.7416 0.25574 0.0
C144 C 0.2302 0.53841 0.29763 0.0
C145 C 0.23863 0.52221 0.26775 0.0
C146 C 0.25871 0.51645 0.28769 0.0
C147 C 0.26949 0.52566 0.33865 0.0
H148 H 0.33149 0.54714 0.43448 0.0
H149 H 0.36641 0.53715 0.46598 0.0
H150 H 0.3457 0.52611 0.65781 0.0
H151 H 0.311 0.53717 0.62615 0.0
H152 H 0.26934 0.56479 0.65118 0.0
H153 H 0.24182 0.56919 0.72462 0.0
H154 H 0.19324 0.56482 0.57999 0.0
H155 H 0.22056 0.56161 0.50702 0.0
H156 H 0.23335 0.55912 0.37203 0.0
H157 H 0.21466 0.54306 0.28396 0.0
H158 H 0.26572 0.5042 0.26516 0.0
H159 H 0.28444 0.52007 0.35452 0.0
N160 N 0.28943 0.54379 0.44977 0.0
N161 N 0.28315 0.55394 0.5476 0.0
N162 N 0.25615 0.55372 0.47126 0.0
C163 C 0.29661 0.54743 0.50767 0.0
C164 C 0.26287 0.5573 0.52933 0.0
C165 C 0.2692 0.54698 0.43121 0.0
C166 C 0.31838 0.5428 0.52775 0.0
C167 C 0.33441 0.54271 0.48344 0.0
C168 C 0.35442 0.53678 0.50156 0.0
C169 C 0.35884 0.53041 0.56447 0.0
C170 C 0.343 0.53109 0.60899 0.0
C171 C 0.32304 0.53736 0.59083 0.0
C172 C 0.2472 0.56259 0.5732 0.0
C173 C 0.25287 0.56521 0.63495 0.0
C174 C 0.23704 0.56761 0.67715 0.0
C175 C 0.2152 0.56729 0.65857 0.0
C176 C 0.20989 0.56565 0.59617 0.0
C177 C 0.22565 0.5635 0.55413 0.0
C178 C 0.26024 0.54062 0.37098 0.0
C179 C 0.24085 0.54747 0.34862 0.0
C180 C 0.04901 0.24315 0.24598 0.0
C181 C 0.06561 0.24177 0.2048 0.0
C182 C 0.08594 0.25774 0.20507 0.0
C183 C 0.09031 0.27305 0.25009 0.0
H184 H 0.05739 0.33631 0.38343 0.0
H185 H 0.04552 0.36647 0.43613 0.0
H186 H 0.08529 0.34943 0.59319 0.0
H187 H 0.09751 0.32006 0.54136 0.0
H188 H 0.09338 0.26433 0.58148 0.0
H189 H 0.08957 0.2282 0.65561 0.0
H190 H 0.09714 0.1882 0.50766 0.0
H191 H 0.10068 0.22418 0.43313 0.0
H192 H 0.04088 0.25789 0.32508 0.0
H193 H 0.03318 0.23109 0.24653 0.0
H194 H 0.09906 0.25691 0.17414 0.0
H195 H 0.10682 0.28332 0.25373 0.0
N196 N 0.0778 0.30032 0.37402 0.0
N197 N 0.09004 0.28752 0.47328 0.0
N198 N 0.08863 0.26352 0.39567 0.0
C199 C 0.08273 0.30438 0.43346 0.0
C200 C 0.09301 0.26707 0.45493 0.0
C201 C 0.08128 0.27996 0.35499 0.0
C202 C 0.07812 0.32542 0.45848 0.0
C203 C 0.064 0.33942 0.42853 0.0
C204 C 0.05719 0.35664 0.45856 0.0
C205 C 0.06435 0.35993 0.51883 0.0
C206 C 0.07941 0.34701 0.54696 0.0
C207 C 0.08633 0.33012 0.51709 0.0
C208 C 0.09674 0.24705 0.50108 0.0
C209 C 0.09483 0.24799 0.56479 0.0
C210 C 0.0927 0.22728 0.60743 0.0
C211 C 0.09254 0.20533 0.58709 0.0
C212 C 0.09668 0.20483 0.52431 0.0
C213 C 0.09879 0.22549 0.4817 0.0
C214 C 0.07427 0.273 0.29441 0.0
C215 C 0.05329 0.25874 0.29022 0.0
C216 C 0.27885 0.9852 0.31365 0.0
C217 C 0.29568 0.0058 0.30943 0.0
C218 C 0.30016 0.01762 0.36179 0.0
C219 C 0.28935 0.0081 0.41804 0.0
H220 H 0.20475 0.97539 0.5127 0.0
H221 H 0.17005 0.97566 0.56245 0.0
H222 H 0.1951 0.94923 0.73883 0.0
H223 H 0.22923 0.94817 0.68923 0.0
H224 H 0.27159 0.92476 0.69071 0.0
H225 H 0.30035 0.91254 0.75727 0.0
H226 H 0.34906 0.94893 0.61871 0.0
H227 H 0.32049 0.96021 0.55177 0.0
H228 H 0.25602 0.95912 0.37323 0.0
H229 H 0.27509 0.97548 0.27457 0.0
H230 H 0.31267 0.03376 0.36 0.0
H231 H 0.29412 0.01672 0.45862 0.0
N232 N 0.24647 0.97294 0.50868 0.0
N233 N 0.25654 0.95208 0.60154 0.0
N234 N 0.28171 0.96436 0.51945 0.0
C235 C 0.24131 0.96193 0.56763 0.0
C236 C 0.27673 0.95313 0.57772 0.0
C237 C 0.26673 0.97408 0.48467 0.0
C238 C 0.21985 0.96171 0.59672 0.0
C239 C 0.2028 0.96952 0.56202 0.0
C240 C 0.18293 0.96982 0.5907 0.0
C241 C 0.17969 0.96245 0.65481 0.0
C242 C 0.19675 0.9546 0.68926 0.0
C243 C 0.21648 0.95414 0.66065 0.0
C244 C 0.29372 0.94369 0.61611 0.0
C245 C 0.28842 0.92984 0.67417 0.0
C246 C 0.30492 0.92287 0.7124 0.0
C247 C 0.32708 0.92979 0.69365 0.0
C248 C 0.3322 0.94282 0.6345 0.0
C249 C 0.31574 0.94955 0.59614 0.0
C250 C 0.27352 0.98687 0.42286 0.0
C251 C 0.26787 0.97582 0.37 0.0
C252 C 0.47579 0.29879 0.49042 0.0
C253 C 0.48022 0.28623 0.54764 0.0
C254 C 0.47629 0.26129 0.55464 0.0
C255 C 0.46934 0.24924 0.50439 0.0
H256 H 0.42939 0.18204 0.40883 0.0
H257 H 0.43216 0.14252 0.45708 0.0
H258 H 0.49359 0.14938 0.3604 0.0
H259 H 0.49079 0.18967 0.31287 0.0
H260 H 0.48888 0.25594 0.18279 0.0
H261 H 0.49331 0.28727 0.09352 0.0
H262 H 0.43684 0.31071 0.15522 0.0
H263 H 0.43355 0.28043 0.24581 0.0
H264 H 0.46659 0.29711 0.39605 0.0
H265 H 0.47886 0.31805 0.48331 0.0
H266 H 0.4793 0.25115 0.59843 0.0
H267 H 0.46728 0.23005 0.51088 0.0
N268 N 0.46186 0.22588 0.39612 0.0
N269 N 0.46097 0.22721 0.28775 0.0
N270 N 0.4621 0.26196 0.33329 0.0
C271 C 0.46093 0.21458 0.34556 0.0
C272 C 0.46119 0.25104 0.28186 0.0
C273 C 0.46266 0.24954 0.39058 0.0
C274 C 0.4597 0.18869 0.35652 0.0
C275 C 0.44304 0.17471 0.396 0.0
C276 C 0.4447 0.15199 0.42377 0.0
C277 C 0.46319 0.14264 0.4131 0.0
C278 C 0.47925 0.1561 0.37023 0.0
C279 C 0.4775 0.17897 0.3421 0.0
C280 C 0.46089 0.26581 0.22096 0.0
C281 C 0.47719 0.26751 0.17616 0.0
C282 C 0.47968 0.28554 0.12501 0.0
C283 C 0.46568 0.30201 0.11722 0.0
C284 C 0.44842 0.29901 0.16024 0.0
C285 C 0.44628 0.2814 0.21181 0.0
C286 C 0.46632 0.26191 0.44598 0.0
C287 C 0.4689 0.28676 0.44014 0.0
Nd288 Nd 0.99756 0.9977 0.78464 0.0
Nd289 Nd 0.01414 1.00134 0.90752 0.0
C290 C 0.97563 0.98273 0.68773 0.0
C291 C 0.97072 0.95872 0.6683 0.0
C292 C 0.96253 0.93842 0.71113 0.0
C293 C 0.96112 0.91561 0.6955 0.0
C294 C 0.96776 0.91249 0.63651 0.0
C295 C 0.97507 0.9328 0.59277 0.0
C296 C 0.97661 0.95568 0.60862 0.0
C297 C 0.04057 0.99292 0.79483 0.0
C298 C 0.99046 0.95019 0.88924 0.0
C299 C 0.03576 0.01647 1.00466 0.0
C300 C 0.03911 0.04057 0.02232 0.0
C301 C 0.0531 0.04732 0.07076 0.0
C302 C 0.05679 0.07078 0.08426 0.0
C303 C 0.04684 0.08783 0.04868 0.0
C304 C 0.03263 0.08083 1.00087 0.0
C305 C 0.02864 0.05741 0.98828 0.0
C306 C 0.97124 0.00651 0.89672 0.0
C307 C 0.02193 0.04891 0.80194 0.0
O308 O 0.966 0.98533 0.73833 0.0
O309 O 0.99629 0.99331 0.68494 0.0
O310 O 0.03303 0.00592 0.74988 0.0
O311 O 0.02563 0.98291 0.83391 0.0
O312 O 0.98186 0.9622 0.84289 0.0
O313 O 0.00741 0.9608 0.91897 0.0
O314 O 0.04548 0.01511 0.95314 0.0
O315 O 0.01549 1.00455 0.00787 0.0
O316 O 0.97855 0.99325 0.94158 0.0
O317 O 0.98632 0.01642 0.85798 0.0
O318 O 0.02976 0.03714 0.8503 0.0
O319 O 0.00554 0.03819 0.77041 0.0
H320 H 0.95776 0.94011 0.75739 0.0
H321 H 0.95505 0.90037 0.72996 0.0
H322 H 0.98044 0.93104 0.54705 0.0
H323 H 0.98314 0.97101 0.57492 0.0
H324 H 0.0613 0.03457 0.09758 0.0
H325 H 0.06783 0.07577 0.12138 0.0
H326 H 0.02454 0.0935 0.97325 0.0
H327 H 0.01755 0.0525 0.95121 0.0
Nd328 Nd 0.52067 0.99046 0.81537 0.0
Nd329 Nd 0.49846 0.023 0.87604 0.0
C330 C 0.54077 0.95881 0.77805 0.0
C331 C 0.56243 0.9608 0.74942 0.0
C332 C 0.56737 0.94172 0.72351 0.0
C333 C 0.58767 0.94405 0.69407 0.0
C334 C 0.60339 0.96553 0.69019 0.0
C335 C 0.59836 0.98451 0.71689 0.0
C336 C 0.57809 0.98217 0.74606 0.0
C337 C 0.50651 0.02505 0.73449 0.0
C338 C 0.55053 0.04068 0.83726 0.0
C339 C 0.47809 0.05461 0.91168 0.0
C340 C 0.45632 0.05248 0.93992 0.0
C341 C 0.45346 0.0675 0.98277 0.0
C342 C 0.43328 0.06436 0.01334 0.0
C343 C 0.41557 0.04614 1.00145 0.0
C344 C 0.41843 0.03137 0.95769 0.0
C345 C 0.43862 0.03444 0.92745 0.0
C346 C 0.51012 0.98758 0.95868 0.0
C347 C 0.46847 0.97296 0.85193 0.0
O348 O 0.54094 0.9631 0.83537 0.0
O349 O 0.52686 0.96886 0.74387 0.0
O350 O 0.52532 0.01924 0.72907 0.0
O351 O 0.49597 0.01266 0.78055 0.0
O352 O 0.55067 0.01876 0.82867 0.0
O353 O 0.53239 0.04735 0.85099 0.0
O354 O 0.47829 0.05034 0.85433 0.0
O355 O 0.49207 0.04492 0.94657 0.0
O356 O 0.49209 0.99519 0.96156 0.0
O357 O 0.52208 0.99919 0.91355 0.0
O358 O 0.46839 0.99488 0.86106 0.0
O359 O 0.48663 0.96616 0.83894 0.0
H360 H 0.55546 0.9251 0.72555 0.0
H361 H 0.59106 0.92904 0.67438 0.0
H362 H 0.60985 1.00143 0.71384 0.0
H363 H 0.57454 0.99719 0.76526 0.0
H364 H 0.46695 0.08141 0.99334 0.0
H365 H 0.43155 0.07613 0.04645 0.0
H366 H 0.40527 0.01694 0.94817 0.0
H367 H 0.44049 0.0224 0.89517 0.0
Nd368 Nd 0.50044 0.51593 0.88468 0.0
Nd369 Nd 0.53848 0.50538 0.80131 0.0
C370 C 0.47292 0.5373 0.93137 0.0
C371 C 0.48161 0.55979 0.95514 0.0
C372 C 0.46908 0.57698 0.95908 0.0
C373 C 0.47931 0.59955 0.97327 0.0
C374 C 0.50224 0.60523 0.98224 0.0
C375 C 0.51444 0.58767 0.97813 0.0
C376 C 0.50424 0.56527 0.9657 0.0
C377 C 0.53839 0.50995 0.94415 0.0
C378 C 0.53514 0.56059 0.79833 0.0
C379 C 0.57296 0.48912 0.77507 0.0
C380 C 0.5735 0.46608 0.75435 0.0
C381 C 0.57777 0.44715 0.79752 0.0
C382 C 0.57158 0.4237 0.78515 0.0
C383 C 0.56121 0.41894 0.72929 0.0
C384 C 0.55925 0.43799 0.68355 0.0
C385 C 0.56535 0.46135 0.69588 0.0
C386 C 0.49917 0.50147 0.73831 0.0
C387 C 0.50065 0.46132 0.87499 0.0
O388 O 0.47552 0.53854 0.8715 0.0
O389 O 0.47911 0.51878 0.9624 0.0
O390 O 0.51915 0.50353 0.97021 0.0
O391 O 0.53729 0.52072 0.89008 0.0
O392 O 0.51777 0.55292 0.83549 0.0
O393 O 0.54688 0.54611 0.78031 0.0
O394 O 0.56556 0.48738 0.83176 0.0
O395 O 0.56504 0.50462 0.73597 0.0
O396 O 0.51705 0.49832 0.71388 0.0
O397 O 0.50326 0.5061 0.79214 0.0
O398 O 0.52088 0.46883 0.85217 0.0
O399 O 0.48762 0.47603 0.88345 0.0
H400 H 0.45163 0.57317 0.95001 0.0
H401 H 0.46932 0.61252 0.97667 0.0
H402 H 0.53213 0.59132 0.98204 0.0
H403 H 0.51438 0.55248 0.96144 0.0
H404 H 0.5842 0.45032 0.84279 0.0
H405 H 0.57343 0.4093 0.82094 0.0
H406 H 0.55184 0.43475 0.63938 0.0
H407 H 0.56211 0.47548 0.66117 0.0
Nd408 Nd 0.01906 0.52157 0.78557 0.0
Nd409 Nd 0.02761 0.48447 0.8871 0.0
C410 C 1.0 0.55205 0.71467 0.0
C411 C 0.97887 0.54688 0.68282 0.0
C412 C 0.96677 0.56459 0.66534 0.0
C413 C 0.94565 0.55862 0.64082 0.0
C414 C 0.93635 0.53481 0.6345 0.0
C415 C 0.94881 0.51733 0.65066 0.0
C416 C 0.96982 0.5233 0.67455 0.0
C417 C 0.02891 0.48248 0.74396 0.0
C418 C 0.97782 0.47915 0.84899 0.0
C419 C 0.04625 0.45293 0.95504 0.0
C420 C 0.06787 0.45554 0.98498 0.0
C421 C 0.0816 0.43981 0.97714 0.0
C422 C 0.10296 0.44354 1.00046 0.0
C423 C 0.11094 0.46307 0.03218 0.0
C424 C 0.09695 0.47857 0.04058 0.0
C425 C 0.07575 0.47496 0.01686 0.0
C426 C 0.01744 0.52334 0.92939 0.0
C427 C 0.06892 0.52689 0.8258 0.0
O428 O 0.99856 0.54892 0.77516 0.0
O429 O 0.01557 0.54289 0.6946 0.0
O430 O 0.03574 0.50407 0.71674 0.0
O431 O 0.01658 0.48201 0.78944 0.0
O432 O 0.98433 0.50056 0.81726 0.0
O433 O 0.99186 0.46703 0.87621 0.0
O434 O 0.04676 0.45596 0.89447 0.0
O435 O 0.03197 0.4633 0.97748 0.0
O436 O 0.01049 0.50158 0.95535 0.0
O437 O 0.02999 0.52416 0.884 0.0
O438 O 0.06223 0.50526 0.85596 0.0
O439 O 0.05487 0.5392 0.799 0.0
H440 H 0.97343 0.58286 0.67188 0.0
H441 H 0.93635 0.57241 0.62865 0.0
H442 H 0.94223 0.49893 0.64523 0.0
H443 H 0.97885 0.50932 0.68791 0.0
H444 H 0.07596 0.42494 0.95183 0.0
H445 H 0.11334 0.43139 0.99256 0.0
H446 H 0.10231 0.49351 0.06581 0.0
H447 H 0.06564 0.48761 0.02283 0.0
H448 H 0.15423 0.99624 0.63107 0.0
H449 H 0.15765 0.93034 0.74946 0.0
H450 H 0.12379 0.93231 0.80346 0.0
H451 H 0.13296 0.02495 0.74529 0.0
H452 H 0.11509 0.03823 0.69172 0.0
H453 H 0.14018 0.03224 0.6642 0.0
H454 H 0.11829 0.00718 0.5853 0.0
H455 H 0.09319 0.01329 0.61218 0.0
H456 H 0.09593 0.98295 0.61244 0.0
H457 H 0.08888 0.94126 0.84393 0.0
H458 H 0.0548 0.95522 0.86198 0.0
H459 H 0.07392 0.01419 0.71463 0.0
C460 C 0.14783 0.98208 0.66797 0.0
C461 C 0.15881 0.96322 0.68611 0.0
C462 C 0.14986 0.94525 0.7353 0.0
C463 C 0.13055 0.94614 0.76619 0.0
C464 C 0.12026 0.96507 0.74733 0.0
C465 C 0.12853 0.98261 0.69904 0.0
C466 C 0.11397 1.0006 0.68622 0.0
C467 C 0.12629 0.02547 0.69755 0.0
C468 C 0.1048 1.00102 0.62013 0.0
C469 C 0.09611 0.99031 0.73437 0.0
C470 C 0.1001 0.96995 0.7697 0.0
C471 C 0.08562 0.95721 0.81658 0.0
C472 C 0.06637 0.96529 0.82669 0.0
C473 C 0.06177 0.98572 0.78965 0.0
C474 C 0.07703 0.99849 0.74366 0.0
H475 H 0.50164 0.13208 0.46376 0.0
H476 H 0.43193 0.10242 0.45141 0.0
H477 H 0.43581 0.06874 0.53026 0.0
H478 H 0.51871 0.07346 0.48577 0.0
H479 H 0.54035 0.08342 0.53798 0.0
H480 H 0.53239 0.10435 0.47716 0.0
H481 H 0.5257 0.13055 0.55876 0.0
H482 H 0.53327 0.10955 0.6199 0.0
H483 H 0.50696 0.11773 0.62233 0.0
H484 H 0.44609 0.04144 0.62028 0.0
H485 H 0.46329 0.01873 0.70485 0.0
H486 H 0.52694 0.06342 0.65288 0.0
C487 C 0.48729 0.11816 0.47603 0.0
C488 C 0.4664 0.12018 0.45158 0.0
C489 C 0.44803 0.10164 0.47014 0.0
C490 C 0.45007 0.08233 0.51479 0.0
C491 C 0.47068 0.08143 0.53972 0.0
C492 C 0.48909 0.0985 0.51998 0.0
C493 C 0.50926 0.09347 0.5553 0.0
C494 C 0.52618 0.08837 0.51143 0.0
C495 C 0.51938 0.11405 0.59119 0.0
C496 C 0.49918 0.07127 0.59899 0.0
C497 C 0.47685 0.06478 0.58949 0.0
C498 C 0.46362 0.04602 0.62725 0.0
C499 C 0.4735 0.03334 0.6754 0.0
C500 C 0.49643 0.03919 0.68473 0.0
C501 C 0.50942 0.05836 0.6459 0.0
H502 H 0.38418 0.53905 0.66761 0.0
H503 H 0.38064 0.50362 0.50382 0.0
H504 H 0.41565 0.49175 0.5317 0.0
H505 H 0.44177 0.56098 0.66543 0.0
H506 H 0.44479 0.55558 0.74827 0.0
H507 H 0.41927 0.56127 0.71589 0.0
H508 H 0.39841 0.52162 0.77693 0.0
H509 H 0.4239 0.51586 0.80953 0.0
H510 H 0.40668 0.49424 0.76839 0.0
H511 H 0.452 0.48541 0.57411 0.0
H512 H 0.48642 0.48358 0.6315 0.0
H513 H 0.4651 0.52039 0.77113 0.0
C514 C 0.39056 0.52851 0.63796 0.0
C515 C 0.37965 0.52256 0.583 0.0
C516 C 0.38885 0.50897 0.54532 0.0
C517 C 0.40867 0.50192 0.56104 0.0
C518 C 0.41903 0.50827 0.61508 0.0
C519 C 0.41023 0.52106 0.65333 0.0
C520 C 0.42475 0.52562 0.70876 0.0
C521 C 0.43314 0.55246 0.70959 0.0
C522 C 0.41271 0.51361 0.76949 0.0
C523 C 0.44319 0.51362 0.6952 0.0
C524 C 0.43961 0.5038 0.64082 0.0
C525 C 0.45487 0.49278 0.61716 0.0
C526 C 0.47435 0.49185 0.64991 0.0
C527 C 0.47824 0.50167 0.70586 0.0
C528 C 0.46237 0.51247 0.72894 0.0
H529 H 0.06815 0.40857 0.49904 0.0
H530 H 0.03996 0.34477 0.62322 0.0
H531 H 0.02684 0.36915 0.69278 0.0
H532 H 0.08793 0.44371 0.61678 0.0
H533 H 0.08211 0.47104 0.57652 0.0
H534 H 0.08765 0.44863 0.5333 0.0
H535 H 0.05059 0.44761 0.47658 0.0
H536 H 0.04503 0.47018 0.51927 0.0
H537 H 0.02557 0.44234 0.52126 0.0
H538 H 0.01837 0.40019 0.75123 0.0
H539 H 0.01461 0.43625 0.7947 0.0
H540 H 0.04914 0.48038 0.6348 0.0
C541 C 0.05882 0.39984 0.54026 0.0
C542 C 0.0548 0.37486 0.55578 0.0
C543 C 0.04301 0.36392 0.61067 0.0
C544 C 0.03553 0.3776 0.65036 0.0
C545 C 0.04009 0.40223 0.63463 0.0
C546 C 0.0514 0.41332 0.5809 0.0
C547 C 0.05501 0.44017 0.57678 0.0
C548 C 0.07964 0.45155 0.5758 0.0
C549 C 0.04335 0.45069 0.52011 0.0
C550 C 0.04414 0.44237 0.63672 0.0
C551 C 0.03554 0.42025 0.66915 0.0
C552 C 0.02494 0.41763 0.72615 0.0
C553 C 0.02292 0.43819 0.75053 0.0
C554 C 0.03156 0.46104 0.7181 0.0
C555 C 0.04237 0.46311 0.66057 0.0
H556 H 0.8578 0.00689 0.05871 0.0
H557 H 0.85681 0.07346 0.94031 0.0
H558 H 0.89066 0.07049 0.88823 0.0
H559 H 0.91641 0.01844 0.07961 0.0
H560 H 0.91828 0.98783 0.07992 0.0
H561 H 0.89347 0.99482 0.10618 0.0
H562 H 0.87117 0.97038 0.02677 0.0
H563 H 0.89597 0.96353 0.99981 0.0
H564 H 0.87866 0.97752 0.94585 0.0
H565 H 0.92485 0.06023 0.84828 0.0
H566 H 0.95815 0.04494 0.8301 0.0
H567 H 0.93755 0.98621 0.97724 0.0
C568 C 0.86476 0.02099 0.02227 0.0
C569 C 0.85435 0.04026 1.00332 0.0
C570 C 0.86407 0.05819 0.95492 0.0
C571 C 0.88341 0.05675 0.92512 0.0
C572 C 0.89303 0.03736 0.94439 0.0
C573 C 0.88416 0.01993 0.99228 0.0
C574 C 0.89811 1.00133 0.00539 0.0
C575 C 0.9071 1.00057 0.0717 0.0
C576 C 0.8852 0.97674 0.99374 0.0
C577 C 0.91625 0.01111 0.95766 0.0
C578 C 0.91293 0.03178 0.92245 0.0
C579 C 0.92763 0.04406 0.87563 0.0
C580 C 0.94643 0.03522 0.86542 0.0
C581 C 0.9504 0.01446 0.9023 0.0
C582 C 0.93493 1.00215 0.94833 0.0
H583 H 0.57414 0.89346 0.14353 0.0
H584 H 0.53936 0.90025 0.30871 0.0
H585 H 0.52201 0.93041 0.24771 0.0
H586 H 0.58467 0.95709 0.08078 0.0
H587 H 0.5812 0.95135 1.00171 0.0
H588 H 0.59138 0.93063 0.05855 0.0
H589 H 0.56014 0.89662 0.03175 0.0
H590 H 0.54979 0.91724 0.97517 0.0
H591 H 0.53203 0.89969 0.03636 0.0
H592 H 0.50646 0.95745 0.16829 0.0
H593 H 0.49525 0.98188 0.07668 0.0
H594 H 0.54209 0.96046 0.96324 0.0
C595 C 0.56328 0.90161 0.16748 0.0
C596 C 0.55813 0.89424 0.23133 0.0
C597 C 0.54335 0.90514 0.25991 0.0
C598 C 0.53352 0.92246 0.22569 0.0
C599 C 0.5388 0.92902 0.16297 0.0
C600 C 0.55352 0.91918 0.13419 0.0
C601 C 0.55611 0.92926 0.06588 0.0
C602 C 0.57975 0.94289 0.05086 0.0
C603 C 0.5491 0.90952 0.02489 0.0
C604 C 0.54022 0.94603 0.06057 0.0
C605 C 0.5304 0.94546 0.11725 0.0
C606 C 0.51426 0.95829 0.1239 0.0
C607 C 0.50796 0.97206 0.0714 0.0
C608 C 0.51791 0.97322 0.01284 0.0
C609 C 0.53442 0.96016 0.00752 0.0
H610 H 0.66655 0.50948 0.98374 0.0
H611 H 0.64975 0.46957 0.16619 0.0
H612 H 0.61081 0.47078 0.14813 0.0
H613 H 0.62839 0.54796 0.98496 0.0
H614 H 0.62142 0.54811 0.90431 0.0
H615 H 0.6481 0.54374 0.93035 0.0
H616 H 0.64181 0.50413 0.88378 0.0
H617 H 0.6152 0.50859 0.85729 0.0
H618 H 0.61766 0.48149 0.90603 0.0
H619 H 0.57402 0.47587 0.11128 0.0
H620 H 0.54104 0.48532 0.05806 0.0
H621 H 0.58108 0.52308 0.89997 0.0
C622 C 0.65463 0.50089 0.01964 0.0
C623 C 0.6612 0.48957 0.0766 0.0
C624 C 0.64514 0.47867 0.12266 0.0
C625 C 0.62297 0.47912 0.11269 0.0
C626 C 0.61707 0.49055 0.05639 0.0
C627 C 0.63235 0.50128 0.01056 0.0
C628 C 0.62148 0.5127 0.95473 0.0
C629 C 0.63038 0.53973 0.94292 0.0
C630 C 0.6242 0.50102 0.89706 0.0
C631 C 0.59777 0.50683 0.97673 0.0
C632 C 0.59566 0.49387 0.03531 0.0
C633 C 0.57544 0.48604 0.06544 0.0
C634 C 0.55682 0.49154 0.03484 0.0
C635 C 0.55852 0.50484 0.97487 0.0
C636 C 0.57931 0.51274 0.94565 0.0
H637 H 0.97404 0.59186 0.17855 0.0
H638 H 0.02412 0.65361 0.11022 0.0
H639 H 0.03697 0.63075 0.03627 0.0
H640 H 0.00723 0.54745 0.16561 0.0
H641 H 0.98426 0.52618 0.14206 0.0
H642 H 0.97987 0.54713 0.19168 0.0
H643 H 0.95195 0.56146 0.11334 0.0
H644 H 0.95647 0.54077 0.06313 0.0
H645 H 0.96036 0.57202 0.03397 0.0
H646 H 0.04238 0.60212 0.9637 0.0
H647 H 0.04262 0.56835 0.90604 0.0
H648 H 0.98974 0.52497 0.0235 0.0
C649 C 0.98788 0.60046 0.14853 0.0
C650 C 0.99816 0.6245 0.15043 0.0
C651 C 0.01623 0.63512 0.11038 0.0
C652 C 0.02352 0.62234 0.06779 0.0
C653 C 0.0127 0.59887 0.06612 0.0
C654 C 0.99549 0.5879 0.1061 0.0
C655 C 0.98662 0.56251 0.09464 0.0
C656 C 0.98969 0.54477 0.1519 0.0
C657 C 0.96242 0.559 0.0751 0.0
C658 C 0.00134 0.56102 0.04148 0.0
C659 C 0.01617 0.58223 0.0254 0.0
C660 C 0.031 0.58535 0.97634 0.0
C661 C 0.03094 0.56614 0.94365 0.0
C662 C 0.0163 0.54407 0.96061 0.0
C663 C 0.00123 0.54161 0.00985 0.0
H664 H 0.06295 0.16613 0.56267 0.0
H665 H 0.10506 0.19421 0.70734 0.0
H666 H 0.09031 0.15763 0.77955 0.0
H667 H 0.01653 0.13887 0.65879 0.0
H668 H 0.00901 0.11338 0.61831 0.0
H669 H 0.02319 0.14146 0.57771 0.0
H670 H 0.0538 0.1215 0.54415 0.0
H671 H 0.03956 0.0933 0.58391 0.0
H672 H 0.06774 0.10486 0.60224 0.0
H673 H 0.07115 0.11813 0.83497 0.0
H674 H 0.04988 0.07783 0.86967 0.0
H675 H 0.0196 0.07598 0.68888 0.0
C676 C 0.06939 0.16442 0.60921 0.0
C677 C 0.08531 0.18285 0.62939 0.0
C678 C 0.09287 0.18025 0.69111 0.0
C679 C 0.08459 0.15959 0.7323 0.0
C680 C 0.06871 0.14189 0.71096 0.0
C681 C 0.06125 0.14406 0.65083 0.0
C682 C 0.044 0.12256 0.63951 0.0
C683 C 0.02188 0.12949 0.62259 0.0
C684 C 0.05174 0.1098 0.58951 0.0
C685 C 0.04298 0.10781 0.70271 0.0
C686 C 0.05735 0.11932 0.74322 0.0
C687 C 0.0598 0.109 0.80375 0.0
C688 C 0.04757 0.0861 0.82303 0.0
C689 C 0.03294 0.07384 0.78208 0.0
C690 C 0.03042 0.08503 0.72143 0.0
H691 H 0.36701 0.91986 0.66766 0.0
H692 H 0.32831 0.93245 0.81813 0.0
H693 H 0.36051 0.93476 0.88537 0.0
H694 H 0.40698 0.88876 0.76766 0.0
H695 H 0.42946 0.90377 0.71642 0.0
H696 H 0.40222 0.89567 0.68597 0.0
H697 H 0.40429 0.93952 0.63744 0.0
H698 H 0.43135 0.9477 0.66771 0.0
H699 H 0.41017 0.96261 0.68639 0.0
H700 H 0.39745 0.94654 0.92616 0.0
H701 H 0.43625 0.96567 0.9379 0.0
H702 H 0.45226 0.94578 0.76312 0.0
C703 C 0.36514 0.92237 0.71535 0.0
C704 C 0.34503 0.92589 0.73745 0.0
C705 C 0.34331 0.92918 0.80017 0.0
C706 C 0.36161 0.93059 0.83887 0.0
C707 C 0.3815 0.92845 0.81452 0.0
C708 C 0.38335 0.92408 0.75436 0.0
C709 C 0.40716 0.92641 0.73623 0.0
C710 C 0.41172 0.9022 0.72598 0.0
C711 C 0.4136 0.94518 0.6786 0.0
C712 C 0.41848 0.93458 0.79383 0.0
C713 C 0.40333 0.93503 0.83907 0.0
C714 C 0.40951 0.94541 0.8923 0.0
C715 C 0.43155 0.95628 0.89857 0.0
C716 C 0.44712 0.95652 0.85215 0.0
C717 C 0.4407 0.94482 0.80033 0.0
H718 H 0.47099 0.32603 0.58625 0.0
H719 H 0.51512 0.27682 0.61739 0.0
H720 H 0.53814 0.30314 0.68321 0.0
H721 H 0.50974 0.37574 0.56162 0.0
H722 H 0.49628 0.39459 0.5996 0.0
H723 H 0.48023 0.3695 0.56863 0.0
H724 H 0.46202 0.35295 0.67614 0.0
H725 H 0.47784 0.37828 0.70744 0.0
H726 H 0.47902 0.34858 0.74288 0.0
H727 H 0.56005 0.33812 0.72788 0.0
H728 H 0.57803 0.37832 0.75039 0.0
H729 H 0.5198 0.40457 0.68902 0.0
C730 C 0.48513 0.32047 0.60855 0.0
C731 C 0.49122 0.29938 0.59697 0.0
C732 C 0.50991 0.29271 0.62654 0.0
C733 C 0.52314 0.30758 0.66389 0.0
C734 C 0.51728 0.32888 0.67186 0.0
C735 C 0.49847 0.33511 0.64586 0.0
C736 C 0.49719 0.36015 0.65495 0.0
C737 C 0.49579 0.3759 0.5925 0.0
C738 C 0.47787 0.35997 0.69792 0.0
C739 C 0.51889 0.36756 0.68617 0.0
C740 C 0.53005 0.34917 0.69703 0.0
C741 C 0.55127 0.35252 0.72085 0.0
C742 C 0.56138 0.37535 0.73326 0.0
C743 C 0.55035 0.39446 0.72071 0.0
C744 C 0.52868 0.39028 0.69833 0.0
H745 H 0.17845 0.58692 0.64183 0.0
H746 H 0.21097 0.5441 0.77793 0.0
H747 H 0.17836 0.53565 0.84554 0.0
H748 H 0.14337 0.60798 0.75344 0.0
H749 H 0.12049 0.60494 0.70118 0.0
H750 H 0.14819 0.61293 0.67094 0.0
H751 H 0.14003 0.5772 0.60888 0.0
H752 H 0.11248 0.56902 0.63914 0.0
H753 H 0.13001 0.54768 0.6493 0.0
H754 H 0.14045 0.52499 0.88812 0.0
H755 H 0.10038 0.51343 0.90295 0.0
H756 H 0.09138 0.56162 0.73786 0.0
C757 C 0.17895 0.57621 0.68647 0.0
C758 C 0.19742 0.56624 0.70433 0.0
C759 C 0.19732 0.5524 0.76338 0.0
C760 C 0.17876 0.54739 0.80216 0.0
C761 C 0.16043 0.55642 0.78151 0.0
C762 C 0.16044 0.57075 0.72526 0.0
C763 C 0.13774 0.57543 0.70986 0.0
C764 C 0.13744 0.6019 0.70881 0.0
C765 C 0.1296 0.5668 0.64818 0.0
C766 C 0.1247 0.56035 0.76447 0.0
C767 C 0.13822 0.54999 0.80597 0.0
C768 C 0.12978 0.53341 0.85672 0.0
C769 C 0.10696 0.52685 0.86452 0.0
C770 C 0.09279 0.53675 0.82166 0.0
C771 C 0.10184 0.55419 0.77202 0.0
H772 H 0.98328 0.81494 0.03648 0.0
H773 H 0.91462 0.80192 0.98589 0.0
H774 H 0.91959 0.84331 0.93245 0.0
H775 H 0.98551 0.87118 0.07511 0.0
H776 H 0.01293 0.88397 0.04621 0.0
H777 H 0.00512 0.85248 0.07173 0.0
H778 H 0.01635 0.8436 0.9651 0.0
H779 H 0.02459 0.8751 0.93951 0.0
H780 H 0.00494 0.85679 0.89549 0.0
H781 H 0.93116 0.88641 0.89312 0.0
H782 H 0.94844 0.92884 0.86895 0.0
H783 H 0.00949 0.91454 0.94909 0.0
C784 C 0.96952 0.82063 0.01222 0.0
C785 C 0.94867 0.8053 0.01392 0.0
C786 C 0.93075 0.81345 0.98407 0.0
C787 C 0.93344 0.83685 0.95379 0.0
C788 C 0.9541 0.85176 0.95444 0.0
C789 C 0.97187 0.84399 0.98265 0.0
C790 C 0.99177 0.86415 0.98156 0.0
C791 C 0.99926 0.86817 0.04758 0.0
C792 C 0.01052 0.85964 0.94311 0.0
C793 C 0.98227 0.88461 0.94956 0.0
C794 C 0.96062 0.87696 0.9336 0.0
C795 C 0.94816 0.89257 0.90475 0.0
C796 C 0.95814 0.91663 0.89124 0.0
C797 C 0.98033 0.92489 0.90692 0.0
C798 C 0.99249 0.90869 0.93686 0.0
H799 H 0.65331 0.10293 1.00034 0.0
H800 H 0.69013 0.08345 0.85583 0.0
H801 H 0.65758 0.07978 0.79021 0.0
H802 H 0.61062 0.0596 0.99502 0.0
H803 H 0.58932 0.07502 0.0096 0.0
H804 H 0.61663 0.08506 0.03606 0.0
H805 H 0.61768 0.12709 0.97583 0.0
H806 H 0.59011 0.11719 0.94943 0.0
H807 H 0.61185 0.13043 0.89415 0.0
H808 H 0.62042 0.06644 0.75413 0.0
H809 H 0.5818 0.0457 0.74965 0.0
H810 H 0.56733 0.07189 0.91718 0.0
C811 C 0.65473 0.09867 0.95406 0.0
C812 C 0.67439 0.09343 0.93362 0.0
C813 C 0.67553 0.08803 0.87257 0.0
C814 C 0.65699 0.08581 0.83478 0.0
C815 C 0.6374 0.08918 0.85833 0.0
C816 C 0.63619 0.09586 0.91635 0.0
C817 C 0.61254 0.09389 0.93569 0.0
C818 C 0.60697 0.07741 0.99769 0.0
C819 C 0.60776 0.11863 0.93894 0.0
C820 C 0.60062 0.08303 0.88208 0.0
C821 C 0.61531 0.08123 0.83697 0.0
C822 C 0.6087 0.06852 0.78784 0.0
C823 C 0.58677 0.05669 0.78582 0.0
C824 C 0.5717 0.05765 0.83253 0.0
C825 C 0.57847 0.0717 0.87984 0.0
H826 H 0.596 0.6952 0.128 0.0
H827 H 0.56152 0.75141 0.0599 0.0
H828 H 0.53709 0.72403 1.00004 0.0
H829 H 0.58727 0.66125 0.99349 0.0
H830 H 0.58242 0.63329 0.04416 0.0
H831 H 0.60086 0.65884 0.06717 0.0
H832 H 0.57822 0.65392 0.16847 0.0
H833 H 0.55956 0.62868 0.14542 0.0
H834 H 0.54926 0.65374 0.16383 0.0
H835 H 0.51298 0.68866 0.9589 0.0
H836 H 0.49225 0.64912 0.94004 0.0
H837 H 0.53891 0.61604 0.05295 0.0
C838 C 0.58363 0.70201 0.09963 0.0
C839 C 0.5808 0.72555 0.09908 0.0
C840 C 0.56447 0.73365 0.06045 0.0
C841 C 0.55031 0.71812 0.02653 0.0
C842 C 0.55257 0.69454 0.032 0.0
C843 C 0.56893 0.68659 0.06746 0.0
C844 C 0.56604 0.65988 0.07359 0.0
C845 C 0.58529 0.65291 0.04274 0.0
C846 C 0.56308 0.6484 0.14185 0.0
C847 C 0.54512 0.65396 0.03774 0.0
C848 C 0.53785 0.67411 0.01257 0.0
C849 C 0.51861 0.67275 0.9782 0.0
C850 C 0.50674 0.65016 0.96855 0.0
C851 C 0.5139 0.62925 0.99457 0.0
C852 C 0.53318 0.63146 0.03049 0.0
H853 H 0.86713 0.44139 0.03865 0.0
H854 H 0.83253 0.44994 0.86469 0.0
H855 H 0.86748 0.45524 0.80785 0.0
H856 H 0.91286 0.48377 0.99916 0.0
H857 H 0.93221 0.46785 0.03877 0.0
H858 H 0.90423 0.46167 0.06557 0.0
H859 H 0.90052 0.41704 0.05544 0.0
H860 H 0.92865 0.423 0.02921 0.0
H861 H 0.90709 0.40862 0.9827 0.0
H862 H 0.90682 0.46585 0.77141 0.0
H863 H 0.94719 0.4783 0.75823 0.0
H864 H 0.95538 0.45911 0.95512 0.0
C865 C 0.86657 0.44338 0.9886 0.0
C866 C 0.84691 0.44522 0.95638 0.0
C867 C 0.84734 0.44876 0.89069 0.0
C868 C 0.8671 0.45157 0.85791 0.0
C869 C 0.88621 0.4503 0.8914 0.0
C870 C 0.88601 0.44584 0.9553 0.0
C871 C 0.90894 0.44689 0.98068 0.0
C872 C 0.91489 0.46619 0.02353 0.0
C873 C 0.91144 0.42243 0.01397 0.0
C874 C 0.92221 0.45359 0.92121 0.0
C875 C 0.90882 0.45542 0.87012 0.0
C876 C 0.91745 0.46395 0.81082 0.0
C877 C 0.94031 0.47106 0.80376 0.0
C878 C 0.95417 0.46921 0.85554 0.0
C879 C 0.94504 0.45994 0.91466 0.0
H880 H 0.05241 0.19455 0.2475 0.0
H881 H 0.07359 0.24357 0.08062 0.0
H882 H 0.07101 0.20943 0.02198 0.0
H883 H 0.08294 0.15138 0.21936 0.0
H884 H 0.06233 0.12618 0.25166 0.0
H885 H 0.06461 0.1544 0.2793 0.0
H886 H 0.02374 0.15395 0.25378 0.0
H887 H 0.02127 0.12563 0.22652 0.0
H888 H 0.01405 0.15032 0.17658 0.0
H889 H 0.06571 0.16969 0.98197 0.0
H890 H 0.05953 0.12762 0.96423 0.0
H891 H 0.04383 0.1047 0.15898 0.0
C892 C 0.05613 0.19809 0.19835 0.0
C893 C 0.06283 0.22167 0.16815 0.0
C894 C 0.06824 0.22562 0.1043 0.0
C895 C 0.06683 0.20636 0.07079 0.0
C896 C 0.06029 0.1833 0.10212 0.0
C897 C 0.05516 0.17911 0.16458 0.0
C898 C 0.04947 0.15269 0.18802 0.0
C899 C 0.06582 0.14576 0.23751 0.0
C900 C 0.02572 0.14521 0.21266 0.0
C901 C 0.05208 0.14258 0.12893 0.0
C902 C 0.05818 0.16052 0.07979 0.0
C903 C 0.06104 0.15553 0.02018 0.0
C904 C 0.05746 0.13162 0.01053 0.0
C905 C 0.05134 0.11298 0.06032 0.0
C906 C 0.04879 0.11861 0.1203 0.0
H907 H 0.34026 0.02242 0.30395 0.0
H908 H 0.28345 0.00629 0.18696 0.0
H909 H 0.30775 0.01656 0.09449 0.0
H910 H 0.3704 0.07307 0.19848 0.0
H911 H 0.39658 0.06565 0.21864 0.0
H912 H 0.37452 0.05822 0.27481 0.0
H913 H 0.37809 0.01407 0.28876 0.0
H914 H 0.40007 0.02132 0.23253 0.0
H915 H 0.37621 0.99867 0.22197 0.0
H916 H 0.33878 0.02656 0.01525 0.0
H917 H 0.37371 0.03595 0.95609 0.0
H918 H 0.40976 0.04612 0.12578 0.0
C919 C 0.33276 0.02159 0.25889 0.0
C920 C 0.30984 0.01367 0.2529 0.0
C921 C 0.30094 0.01215 0.19292 0.0
C922 C 0.3146 0.01809 0.14008 0.0
C923 C 0.33713 0.02562 0.1479 0.0
C924 C 0.34611 0.02751 0.20585 0.0
C925 C 0.37087 0.0352 0.20221 0.0
C926 C 0.37854 0.05948 0.22487 0.0
C927 C 0.38195 0.01618 0.2385 0.0
C928 C 0.37452 0.03701 0.13317 0.0
C929 C 0.35487 0.0315 0.10253 0.0
C930 C 0.35422 0.03108 0.03877 0.0
C931 C 0.37415 0.03631 0.00561 0.0
C932 C 0.39448 0.04189 0.03621 0.0
C933 C 0.39451 0.04238 0.10081 0.0
H934 H 0.45888 0.34728 0.1223 0.0
H935 H 0.48238 0.3051 0.99887 0.0
H936 H 0.49162 0.34077 0.92034 0.0
H937 H 0.43398 0.38385 1.00066 0.0
H938 H 0.44146 0.41001 0.03856 0.0
H939 H 0.43591 0.3809 0.08387 0.0
H940 H 0.47411 0.39023 0.13473 0.0
H941 H 0.47979 0.4193 0.08959 0.0
H942 H 0.49833 0.39943 0.08621 0.0
H943 H 0.50153 0.38214 0.85913 0.0
H944 H 0.50966 0.42515 0.8192 0.0
H945 H 0.47654 0.43934 0.97842 0.0
C946 C 0.46539 0.34518 0.07827 0.0
C947 C 0.46984 0.32309 0.06731 0.0
C948 C 0.47907 0.32172 0.00928 0.0
C949 C 0.48421 0.3419 0.96399 0.0
C950 C 0.47974 0.36333 0.97679 0.0
C951 C 0.47029 0.365 0.03229 0.0
C952 C 0.46767 0.39022 0.03548 0.0
C953 C 0.44331 0.3913 0.03989 0.0
C954 C 0.48076 0.40038 0.0897 0.0
C955 C 0.47755 0.40266 0.97361 0.0
C956 C 0.48448 0.38685 0.94041 0.0
C957 C 0.49576 0.39455 0.88421 0.0
C958 C 0.50031 0.419 0.86188 0.0
C959 C 0.49331 0.43546 0.89512 0.0
C960 C 0.48147 0.42706 0.95116 0.0
H961 H 0.21461 0.54087 0.17361 0.0
H962 H 0.23114 0.47468 0.25897 0.0
H963 H 0.20339 0.45241 0.19522 0.0
H964 H 0.15944 0.52114 0.17737 0.0
H965 H 0.15358 0.53715 0.10408 0.0
H966 H 0.17773 0.54843 0.14589 0.0
H967 H 0.2021 0.54882 0.05067 0.0
H968 H 0.17794 0.53773 0.00811 0.0
H969 H 0.20016 0.52201 0.01615 0.0
H970 H 0.16956 0.43695 0.13768 0.0
H971 H 0.13352 0.42971 0.08696 0.0
H972 H 0.13943 0.5059 0.03622 0.0
C973 C 0.2128 0.52174 0.17758 0.0
C974 C 0.22514 0.50954 0.22102 0.0
C975 C 0.22221 0.48448 0.22519 0.0
C976 C 0.20639 0.47165 0.18932 0.0
C977 C 0.19385 0.48414 0.14887 0.0
C978 C 0.19714 0.50869 0.142 0.0
C979 C 0.18006 0.51767 0.1001 0.0
C980 C 0.16694 0.53192 0.13391 0.0
C981 C 0.1907 0.53243 0.0402 0.0
C982 C 0.16598 0.49429 0.08734 0.0
C983 C 0.17437 0.47516 0.11504 0.0
C984 C 0.16312 0.45177 0.11439 0.0
C985 C 0.14265 0.44784 0.08529 0.0
C986 C 0.13357 0.46721 0.05742 0.0
C987 C 0.14576 0.49068 0.05741 0.0
H988 H 0.94948 0.80785 0.4268 0.0
H989 H 0.97536 0.76434 0.5767 0.0
H990 H 0.98047 0.79763 0.63915 0.0
H991 H 0.98593 0.86295 0.44498 0.0
H992 H 0.96543 0.88058 0.42601 0.0
H993 H 0.96375 0.8533 0.39402 0.0
H994 H 0.92438 0.83775 0.43896 0.0
H995 H 0.92592 0.86499 0.47104 0.0
H996 H 0.91963 0.8368 0.52063 0.0
H997 H 0.98196 0.83583 0.68549 0.0
H998 H 0.98131 0.87594 0.71029 0.0
H999 H 0.95452 0.89413 0.52897 0.0
C1000 C 0.95602 0.80519 0.47305 0.0
C1001 C 0.9618 0.78338 0.49724 0.0
C1002 C 0.97084 0.78088 0.5573 0.0
C1003 C 0.97371 0.79966 0.59309 0.0
C1004 C 0.96764 0.82085 0.56786 0.0
C1005 C 0.95911 0.82371 0.50902 0.0
C1006 C 0.9542 0.84831 0.49195 0.0
C1007 C 0.96817 0.86209 0.43593 0.0
C1008 C 0.92957 0.84686 0.47996 0.0
C1009 C 0.9612 0.85892 0.55052 0.0
C1010 C 0.96883 0.8428 0.5939 0.0
C1011 C 0.97602 0.84855 0.65182 0.0
C1012 C 0.97545 0.87135 0.66561 0.0
C1013 C 0.96783 0.88822 0.62164 0.0
C1014 C 0.96063 0.88177 0.56337 0.0
H1015 H 0.67663 0.96929 0.39377 0.0
H1016 H 0.72946 0.01435 0.48058 0.0
H1017 H 0.70809 0.00561 0.57836 0.0
H1018 H 0.635 0.98968 0.45413 0.0
H1019 H 0.61559 0.96164 0.46444 0.0
H1020 H 0.63664 0.9673 0.40585 0.0
H1021 H 0.64999 0.92926 0.45319 0.0
H1022 H 0.62881 0.92335 0.51185 0.0
H1023 H 0.65711 0.9254 0.53398 0.0
H1024 H 0.67868 0.99692 0.66136 0.0
H1025 H 0.64438 0.98821 0.72299 0.0
H1026 H 0.61022 0.95053 0.57957 0.0
C1027 C 0.68395 0.97694 0.43369 0.0
C1028 C 0.70479 0.99252 0.42935 0.0
C1029 C 0.71373 1.00207 0.48285 0.0
C1030 C 0.70163 0.9973 0.53858 0.0
C1031 C 0.68069 0.9828 0.54023 0.0
C1032 C 0.67203 0.97256 0.48927 0.0
C1033 C 0.64837 0.9597 0.50064 0.0
C1034 C 0.633 0.97022 0.45349 0.0
C1035 C 0.64594 0.93283 0.49989 0.0
C1036 C 0.64474 0.96504 0.56514 0.0
C1037 C 0.66366 0.97808 0.58761 0.0
C1038 C 0.66388 0.98644 0.64453 0.0
C1039 C 0.64425 0.98157 0.67898 0.0
C1040 C 0.62456 0.96862 0.65628 0.0
C1041 C 0.62504 0.96 0.59895 0.0
H1042 H 0.58334 0.67721 0.56084 0.0
H1043 H 0.55291 0.71738 0.67485 0.0
H1044 H 0.54041 0.68075 0.7486 0.0
H1045 H 0.5426 0.6244 0.58146 0.0
H1046 H 0.5616 0.6047 0.58437 0.0
H1047 H 0.56869 0.63418 0.54164 0.0
H1048 H 0.60427 0.64294 0.60536 0.0
H1049 H 0.59732 0.61345 0.64828 0.0
H1050 H 0.60254 0.63906 0.68872 0.0
H1051 H 0.52968 0.63923 0.80725 0.0
H1052 H 0.52197 0.59642 0.84685 0.0
H1053 H 0.56113 0.5836 0.69771 0.0
C1054 C 0.57444 0.67854 0.60188 0.0
C1055 C 0.56922 0.7004 0.61186 0.0
C1056 C 0.55696 0.70094 0.66555 0.0
C1057 C 0.54992 0.68022 0.708 0.0
C1058 C 0.55534 0.65906 0.69649 0.0
C1059 C 0.56742 0.65811 0.64488 0.0
C1060 C 0.57068 0.63304 0.64246 0.0
C1061 C 0.56027 0.62353 0.58402 0.0
C1062 C 0.59516 0.63207 0.64646 0.0
C1063 C 0.55832 0.61991 0.70049 0.0
C1064 C 0.54959 0.63527 0.73096 0.0
C1065 C 0.53666 0.62713 0.78408 0.0
C1066 C 0.53238 0.60271 0.8063 0.0
C1067 C 0.54115 0.58656 0.77598 0.0
C1068 C 0.55448 0.59546 0.72263 0.0
H1069 H 0.84199 0.52816 0.38259 0.0
H1070 H 0.80955 0.46256 0.49284 0.0
H1071 H 0.83611 0.47039 0.57711 0.0
H1072 H 0.8947 0.5213 0.41799 0.0
H1073 H 0.90642 0.55232 0.42005 0.0
H1074 H 0.88271 0.54397 0.37339 0.0
H1075 H 0.86147 0.5688 0.43007 0.0
H1076 H 0.88521 0.57736 0.47683 0.0
H1077 H 0.85916 0.56336 0.51336 0.0
H1078 H 0.86823 0.48274 0.64335 0.0
H1079 H 0.90451 0.49806 0.68621 0.0
H1080 H 0.91718 0.55512 0.53182 0.0
C1081 C 0.8401 0.51594 0.42545 0.0
C1082 C 0.82358 0.495 0.4321 0.0
C1083 C 0.82199 0.47883 0.48755 0.0
C1084 C 0.83694 0.48318 0.53555 0.0
C1085 C 0.85341 0.50372 0.5271 0.0
C1086 C 0.85509 0.51987 0.47347 0.0
C1087 C 0.87575 0.53908 0.47315 0.0
C1088 C 0.89078 0.53915 0.41789 0.0
C1089 C 0.87005 0.5636 0.47338 0.0
C1090 C 0.88576 0.5308 0.53406 0.0
C1091 C 0.87239 0.51059 0.56485 0.0
C1092 C 0.87871 0.49871 0.62004 0.0
C1093 C 0.89938 0.50743 0.64381 0.0
C1094 C 0.9136 0.52772 0.61226 0.0
C1095 C 0.90647 0.53982 0.55738 0.0
loop_
_geom_bond_atom_site_label_1
_geom_bond_atom_site_label_2
_geom_bond_distance
_geom_bond_site_symmetry_2
_ccdc_geom_bond_type
C0 C1 1.384 . S
C0 H13 0.947 . S
C0 C35 1.382 . S
C1 C0 1.384 . S
C1 C2 1.378 . S
C2 C1 1.378 . S
C2 C3 1.378 . S
C2 H14 0.952 . S
C3 C2 1.378 . S
C3 H15 0.950 . S
C3 C34 1.383 . S
H4 C23 0.947 . S
H5 C24 0.946 . S
H6 C26 0.953 . S
H7 C27 0.945 . S
H8 C29 0.952 . S
H9 C30 0.949 . S
H10 C32 0.950 . S
H11 C33 0.948 1_554 S
H12 C35 0.951 . S
H13 C0 0.947 . S
H14 C2 0.952 . S
H15 C3 0.950 . S
N16 C19 1.382 . S
N16 C21 1.363 . S
N17 C19 1.371 . S
N17 C20 1.372 . S
N18 C20 1.361 . S
N18 C21 1.377 . S
C19 N16 1.382 . S
C19 N17 1.371 . S
C19 C22 1.480 . S
C20 N17 1.372 . S
C20 N18 1.361 . S
C20 C28 1.457 1_554 S
C21 N16 1.363 . S
C21 N18 1.377 . S
C21 C34 1.479 . S
C22 C19 1.480 . S
C22 C23 1.383 . S
C22 C27 1.385 1_554 S
C23 H4 0.947 . S
C23 C22 1.383 . S
C23 C24 1.388 . S
C24 H5 0.946 . S
C24 C23 1.388 . S
C24 C25 1.384 . S
C25 C24 1.384 . S
C25 C26 1.377 1_554 S
C26 H6 0.953 . S
C26 C25 1.377 1_556 S
C26 C27 1.369 . S
C27 H7 0.945 . S
C27 C22 1.385 1_556 S
C27 C26 1.369 . S
C28 C20 1.457 1_556 S
C28 C29 1.372 . S
C28 C33 1.364 . S
C29 H8 0.952 . S
C29 C28 1.372 . S
C29 C30 1.389 . S
C30 H9 0.949 . S
C30 C29 1.389 . S
C30 C31 1.387 . S
C31 C30 1.387 . S
C31 C32 1.372 . S
C32 H10 0.950 . S
C32 C31 1.372 . S
C32 C33 1.379 . S
C33 H11 0.948 1_556 S
C33 C28 1.364 . S
C33 C32 1.379 . S
C34 C3 1.383 . S
C34 C21 1.479 . S
C34 C35 1.398 . S
C35 C0 1.382 . S
C35 H12 0.951 . S
C35 C34 1.398 . S
C36 C37 1.384 . S
C36 H49 0.947 . S
C36 C71 1.382 . S
C37 C36 1.384 . S
C37 C38 1.378 . S
C38 C37 1.378 . S
C38 C39 1.378 . S
C38 H50 0.952 . S
C39 C38 1.378 . S
C39 H51 0.950 . S
C39 C70 1.383 . S
H40 C59 0.947 . S
H41 C60 0.946 . S
H42 C62 0.953 . S
H43 C63 0.945 . S
H44 C65 0.952 . S
H45 C66 0.949 . S
H46 C68 0.950 . S
H47 C69 0.948 1_554 S
H48 C71 0.951 . S
H49 C36 0.947 . S
H50 C38 0.952 . S
H51 C39 0.950 . S
N52 C55 1.382 . S
N52 C57 1.363 . S
N53 C55 1.371 . S
N53 C56 1.372 . S
N54 C56 1.361 . S
N54 C57 1.377 . S
C55 N52 1.382 . S
C55 N53 1.371 . S
C55 C58 1.480 . S
C56 N53 1.372 . S
C56 N54 1.361 . S
C56 C64 1.457 1_554 S
C57 N52 1.363 . S
C57 N54 1.377 . S
C57 C70 1.479 . S
C58 C55 1.480 . S
C58 C59 1.383 . S
C58 C63 1.385 1_554 S
C59 H40 0.947 . S
C59 C58 1.383 . S
C59 C60 1.388 . S
C60 H41 0.946 . S
C60 C59 1.388 . S
C60 C61 1.384 . S
C61 C60 1.384 . S
C61 C62 1.377 1_554 S
C62 H42 0.953 . S
C62 C61 1.377 1_556 S
C62 C63 1.369 . S
C63 H43 0.945 . S
C63 C58 1.385 1_556 S
C63 C62 1.369 . S
C64 C56 1.457 1_556 S
C64 C65 1.372 . S
C64 C69 1.364 . S
C65 H44 0.952 . S
C65 C64 1.372 . S
C65 C66 1.389 . S
C66 H45 0.949 . S
C66 C65 1.389 . S
C66 C67 1.387 . S
C67 C66 1.387 . S
C67 C68 1.372 . S
C68 H46 0.950 . S
C68 C67 1.372 . S
C68 C69 1.379 . S
C69 H47 0.948 1_556 S
C69 C64 1.364 . S
C69 C68 1.379 . S
C70 C39 1.383 . S
C70 C57 1.479 . S
C70 C71 1.398 . S
C71 C36 1.382 . S
C71 H48 0.951 . S
C71 C70 1.398 . S
C72 C73 1.384 1_565 S
C72 H85 0.946 . S
C72 C107 1.383 1_565 S
C73 C72 1.384 1_545 S
C73 C74 1.378 . S
C74 C73 1.378 . S
C74 C75 1.378 . S
C74 H86 0.952 . S
C75 C74 1.378 . S
C75 H87 0.950 . S
C75 C106 1.383 . S
H76 C95 0.947 . S
H77 C96 0.957 . S
H78 C98 0.953 . S
H79 C99 0.945 . S
H80 C101 0.944 1_565 S
H81 C102 0.965 . S
H82 C104 0.950 . S
H83 C105 0.948 . S
H84 C107 0.951 1_565 S
H85 C72 0.946 . S
H86 C74 0.952 . S
H87 C75 0.950 . S
N88 C91 1.382 1_554 S
N88 C93 1.363 . S
N89 C91 1.371 . S
N89 C92 1.372 . S
N90 C92 1.361 1_554 S
N90 C93 1.377 . S
C91 N88 1.382 1_556 S
C91 N89 1.371 . S
C91 C94 1.480 . S
C92 N89 1.372 . S
C92 N90 1.361 1_556 S
C92 C100 1.457 . S
C93 N88 1.363 . S
C93 N90 1.377 . S
C93 C106 1.479 . S
C94 C91 1.480 . S
C94 C95 1.383 1_556 S
C94 C99 1.385 . S
C95 H76 0.947 . S
C95 C94 1.383 1_554 S
C95 C96 1.380 1_545 S
C96 H77 0.957 . S
C96 C95 1.380 1_565 S
C96 C97 1.382 1_564 S
C97 C96 1.382 1_546 S
C97 C98 1.377 . S
C98 H78 0.953 . S
C98 C97 1.377 . S
C98 C99 1.369 . S
C99 H79 0.945 . S
C99 C94 1.385 . S
C99 C98 1.369 . S
C100 C92 1.457 . S
C100 C101 1.381 . S
C100 C105 1.364 . S
C101 H80 0.944 1_545 S
C101 C100 1.381 . S
C101 C102 1.389 1_545 S
C102 H81 0.965 . S
C102 C101 1.389 1_565 S
C102 C103 1.372 1_565 S
C103 C102 1.372 1_545 S
C103 C104 1.372 . S
C104 H82 0.950 . S
C104 C103 1.372 . S
C104 C105 1.379 . S
C105 H83 0.948 . S
C105 C100 1.364 . S
C105 C104 1.379 . S
C106 C75 1.383 . S
C106 C93 1.479 . S
C106 C107 1.398 . S
C107 C72 1.383 1_545 S
C107 H84 0.951 1_545 S
C107 C106 1.398 . S
C108 C109 1.384 . S
C108 H121 0.947 . S
C108 C143 1.382 . S
C109 C108 1.384 . S
C109 C110 1.378 . S
C110 C109 1.378 . S
C110 C111 1.378 . S
C110 H122 0.952 . S
C111 C110 1.378 . S
C111 H123 0.950 . S
C111 C142 1.383 . S
H112 C131 0.947 . S
H113 C132 0.946 . S
H114 C134 0.953 . S
H115 C135 0.945 . S
H116 C137 0.952 . S
H117 C138 0.949 . S
H118 C140 0.950 . S
H119 C141 0.948 . S
H120 C143 0.951 . S
H121 C108 0.947 . S
H122 C110 0.952 . S
H123 C111 0.950 . S
N124 C127 1.382 . S
N124 C129 1.363 . S
N125 C127 1.371 . S
N125 C128 1.372 . S
N126 C128 1.361 . S
N126 C129 1.377 . S
C127 N124 1.382 . S
C127 N125 1.371 . S
C127 C130 1.480 . S
C128 N125 1.372 . S
C128 N126 1.361 . S
C128 C136 1.457 . S
C129 N124 1.363 . S
C129 N126 1.377 . S
C129 C142 1.479 . S
C130 C127 1.480 . S
C130 C131 1.383 . S
C130 C135 1.385 . S
C131 H112 0.947 . S
C131 C130 1.383 . S
C131 C132 1.388 . S
C132 H113 0.946 . S
C132 C131 1.388 . S
C132 C133 1.384 . S
C133 C132 1.384 . S
C133 C134 1.377 . S
C134 H114 0.953 . S
C134 C133 1.377 . S
C134 C135 1.369 . S
C135 H115 0.945 . S
C135 C130 1.385 . S
C135 C134 1.369 . S
C136 C128 1.457 . S
C136 C137 1.372 . S
C136 C141 1.364 . S
C137 H116 0.952 . S
C137 C136 1.372 . S
C137 C138 1.389 . S
C138 H117 0.949 . S
C138 C137 1.389 . S
C138 C139 1.387 . S
C139 C138 1.387 . S
C139 C140 1.372 . S
C140 H118 0.950 . S
C140 C139 1.372 . S
C140 C141 1.379 . S
C141 H119 0.948 . S
C141 C136 1.364 . S
C141 C140 1.379 . S
C142 C111 1.383 . S
C142 C129 1.479 . S
C142 C143 1.398 . S
C143 C108 1.382 . S
C143 H120 0.951 . S
C143 C142 1.398 . S
C144 C145 1.384 . S
C144 H157 0.947 . S
C144 C179 1.382 . S
C145 C144 1.384 . S
C145 C146 1.378 . S
C146 C145 1.378 . S
C146 C147 1.378 . S
C146 H158 0.952 . S
C147 C146 1.378 . S
C147 H159 0.950 . S
C147 C178 1.383 . S
H148 C167 0.947 . S
H149 C168 0.946 . S
H150 C170 0.953 . S
H151 C171 0.945 . S
H152 C173 0.952 . S
H153 C174 0.949 . S
H154 C176 0.950 . S
H155 C177 0.948 . S
H156 C179 0.951 . S
H157 C144 0.947 . S
H158 C146 0.952 . S
H159 C147 0.950 . S
N160 C163 1.382 . S
N160 C165 1.363 . S
N161 C163 1.371 . S
N161 C164 1.372 . S
N162 C164 1.361 . S
N162 C165 1.377 . S
C163 N160 1.382 . S
C163 N161 1.371 . S
C163 C166 1.480 . S
C164 N161 1.372 . S
C164 N162 1.361 . S
C164 C172 1.457 . S
C165 N160 1.363 . S
C165 N162 1.377 . S
C165 C178 1.479 . S
C166 C163 1.480 . S
C166 C167 1.383 . S
C166 C171 1.385 . S
C167 H148 0.947 . S
C167 C166 1.383 . S
C167 C168 1.388 . S
C168 H149 0.946 . S
C168 C167 1.388 . S
C168 C169 1.384 . S
C169 C168 1.384 . S
C169 C170 1.377 . S
C170 H150 0.953 . S
C170 C169 1.377 . S
C170 C171 1.369 . S
C171 H151 0.945 . S
C171 C166 1.385 . S
C171 C170 1.369 . S
C172 C164 1.457 . S
C172 C173 1.372 . S
C172 C177 1.364 . S
C173 H152 0.952 . S
C173 C172 1.372 . S
C173 C174 1.389 . S
C174 H153 0.949 . S
C174 C173 1.389 . S
C174 C175 1.387 . S
C175 C174 1.387 . S
C175 C176 1.372 . S
C176 H154 0.950 . S
C176 C175 1.372 . S
C176 C177 1.379 . S
C177 H155 0.948 . S
C177 C172 1.364 . S
C177 C176 1.379 . S
C178 C147 1.383 . S
C178 C165 1.479 . S
C178 C179 1.398 . S
C179 C144 1.382 . S
C179 H156 0.951 . S
C179 C178 1.398 . S
C180 C181 1.384 . S
C180 H193 0.947 . S
C180 C215 1.382 . S
C181 C180 1.384 . S
C181 C182 1.378 . S
C182 C181 1.378 . S
C182 C183 1.378 . S
C182 H194 0.952 . S
C183 C182 1.378 . S
C183 H195 0.950 . S
C183 C214 1.383 . S
H184 C203 0.947 . S
H185 C204 0.946 . S
H186 C206 0.953 . S
H187 C207 0.945 . S
H188 C209 0.952 . S
H189 C210 0.949 . S
H190 C212 0.950 . S
H191 C213 0.948 . S
H192 C215 0.951 . S
H193 C180 0.947 . S
H194 C182 0.952 . S
H195 C183 0.950 . S
N196 C199 1.382 . S
N196 C201 1.363 . S
N197 C199 1.371 . S
N197 C200 1.372 . S
N198 C200 1.361 . S
N198 C201 1.377 . S
C199 N196 1.382 . S
C199 N197 1.371 . S
C199 C202 1.480 . S
C200 N197 1.372 . S
C200 N198 1.361 . S
C200 C208 1.457 . S
C201 N196 1.363 . S
C201 N198 1.377 . S
C201 C214 1.479 . S
C202 C199 1.480 . S
C202 C203 1.383 . S
C202 C207 1.385 . S
C203 H184 0.947 . S
C203 C202 1.383 . S
C203 C204 1.388 . S
C204 H185 0.946 . S
C204 C203 1.388 . S
C204 C205 1.384 . S
C205 C204 1.384 . S
C205 C206 1.377 . S
C206 H186 0.953 . S
C206 C205 1.377 . S
C206 C207 1.369 . S
C207 H187 0.945 . S
C207 C202 1.385 . S
C207 C206 1.369 . S
C208 C200 1.457 . S
C208 C209 1.372 . S
C208 C213 1.364 . S
C209 H188 0.952 . S
C209 C208 1.372 . S
C209 C210 1.389 . S
C210 H189 0.949 . S
C210 C209 1.389 . S
C210 C211 1.387 . S
C211 C210 1.387 . S
C211 C212 1.372 . S
C212 H190 0.950 . S
C212 C211 1.372 . S
C212 C213 1.379 . S
C213 H191 0.948 . S
C213 C208 1.364 . S
C213 C212 1.379 . S
C214 C183 1.383 . S
C214 C201 1.479 . S
C214 C215 1.398 . S
C215 C180 1.382 . S
C215 H192 0.951 . S
C215 C214 1.398 . S
C216 C217 1.383 . S
C216 H229 0.949 1_545 S
C216 C251 1.378 . S
C217 C216 1.383 . S
C217 C218 1.378 . S
C218 C217 1.378 . S
C218 C219 1.378 . S
C218 H230 0.952 . S
C219 C218 1.378 . S
C219 H231 0.950 . S
C219 C250 1.383 . S
H220 C239 0.947 . S
H221 C240 0.949 . S
H222 C242 0.953 . S
H223 C243 0.945 . S
H224 C245 0.955 1_565 S
H225 C246 0.948 . S
H226 C248 0.950 . S
H227 C249 0.948 . S
H228 C251 0.950 1_565 S
H229 C216 0.949 1_565 S
H230 C218 0.952 . S
H231 C219 0.950 . S
N232 C235 1.382 . S
N232 C237 1.363 . S
N233 C235 1.371 . S
N233 C236 1.372 . S
N234 C236 1.361 . S
N234 C237 1.377 . S
C235 N232 1.382 . S
C235 N233 1.371 . S
C235 C238 1.480 . S
C236 N233 1.372 . S
C236 N234 1.361 . S
C236 C244 1.457 . S
C237 N232 1.363 . S
C237 N234 1.377 . S
C237 C250 1.479 . S
C238 C235 1.480 . S
C238 C239 1.383 . S
C238 C243 1.385 . S
C239 H220 0.947 . S
C239 C238 1.383 . S
C239 C240 1.391 1_545 S
C240 H221 0.949 . S
C240 C239 1.391 1_565 S
C240 C241 1.379 1_565 S
C241 C240 1.379 1_545 S
C241 C242 1.377 . S
C242 H222 0.953 . S
C242 C241 1.377 . S
C242 C243 1.369 . S
C243 H223 0.945 . S
C243 C238 1.385 . S
C243 C242 1.369 . S
C244 C236 1.457 . S
C244 C245 1.372 . S
C244 C249 1.364 . S
C245 H224 0.955 1_545 S
C245 C244 1.372 . S
C245 C246 1.384 1_545 S
C246 H225 0.948 . S
C246 C245 1.384 1_565 S
C246 C247 1.391 1_565 S
C247 C246 1.391 1_545 S
C247 C248 1.372 . S
C248 H226 0.950 . S
C248 C247 1.372 . S
C248 C249 1.379 . S
C249 H227 0.948 . S
C249 C244 1.364 . S
C249 C248 1.379 . S
C250 C219 1.383 . S
C250 C237 1.479 . S
C250 C251 1.402 . S
C251 C216 1.378 . S
C251 H228 0.950 1_545 S
C251 C250 1.402 . S
C252 C253 1.384 . S
C252 H265 0.947 . S
C252 C287 1.382 . S
C253 C252 1.384 . S
C253 C254 1.378 . S
C254 C253 1.378 . S
C254 C255 1.378 . S
C254 H266 0.952 . S
C255 C254 1.378 . S
C255 H267 0.950 . S
C255 C286 1.383 . S
H256 C275 0.947 . S
H257 C276 0.946 . S
H258 C278 0.953 . S
H259 C279 0.945 . S
H260 C281 0.952 . S
H261 C282 0.949 . S
H262 C284 0.950 . S
H263 C285 0.948 . S
H264 C287 0.951 . S
H265 C252 0.947 . S
H266 C254 0.952 . S
H267 C255 0.950 . S
N268 C271 1.382 . S
N268 C273 1.363 . S
N269 C271 1.371 . S
N269 C272 1.372 . S
N270 C272 1.361 . S
N270 C273 1.377 . S
C271 N268 1.382 . S
C271 N269 1.371 . S
C271 C274 1.480 . S
C272 N269 1.372 . S
C272 N270 1.361 . S
C272 C280 1.457 . S
C273 N268 1.363 . S
C273 N270 1.377 . S
C273 C286 1.479 . S
C274 C271 1.480 . S
C274 C275 1.383 . S
C274 C279 1.385 . S
C275 H256 0.947 . S
C275 C274 1.383 . S
C275 C276 1.388 . S
C276 H257 0.946 . S
C276 C275 1.388 . S
C276 C277 1.384 . S
C277 C276 1.384 . S
C277 C278 1.377 . S
C278 H258 0.953 . S
C278 C277 1.377 . S
C278 C279 1.369 . S
C279 H259 0.945 . S
C279 C274 1.385 . S
C279 C278 1.369 . S
C280 C272 1.457 . S
C280 C281 1.372 . S
C280 C285 1.364 . S
C281 H260 0.952 . S
C281 C280 1.372 . S
C281 C282 1.389 . S
C282 H261 0.949 . S
C282 C281 1.389 . S
C282 C283 1.387 . S
C283 C282 1.387 . S
C283 C284 1.372 . S
C284 H262 0.950 . S
C284 C283 1.372 . S
C284 C285 1.379 . S
C285 H263 0.948 . S
C285 C280 1.364 . S
C285 C284 1.379 . S
C286 C255 1.383 . S
C286 C273 1.479 . S
C286 C287 1.398 . S
C287 C252 1.382 . S
C287 H264 0.951 . S
C287 C286 1.398 . S
Nd288 C290 2.836 1_455 S
Nd288 O308 2.500 1_455 S
Nd288 O309 2.492 . S
Nd288 O310 2.487 . S
Nd288 O311 2.682 1_565 S
Nd288 O312 2.410 . S
Nd288 O317 2.431 1_455 S
Nd288 O319 2.424 1_565 S
Nd289 C299 2.836 . S
Nd289 O311 2.414 . S
Nd289 O313 2.424 1_545 S
Nd289 O314 2.500 . S
Nd289 O315 2.492 . S
Nd289 O316 2.487 1_455 S
Nd289 O317 2.678 1_445 S
Nd289 O318 2.410 . S
C290 Nd288 2.836 1_655 S
C290 C291 1.498 . S
C290 O308 1.258 . S
C290 O309 1.239 1_655 S
C291 C290 1.498 . S
C291 C292 1.366 . S
C291 C296 1.407 . S
C292 C291 1.366 . S
C292 C293 1.392 . S
C292 H320 0.930 . S
C293 C292 1.392 . S
C293 C294 1.398 . S
C293 H321 0.929 . S
C294 C293 1.398 . S
C294 C295 1.352 . S
C295 C294 1.352 . S
C295 C296 1.384 . S
C295 H322 0.930 . S
C296 C291 1.407 . S
C296 C295 1.384 . S
C296 H323 0.929 1_655 S
C297 O310 1.241 . S
C297 O311 1.273 1_565 S
C298 O312 1.251 . S
C298 O313 1.268 . S
C299 Nd289 2.836 . S
C299 C300 1.498 1_556 S
C299 O314 1.258 . S
C299 O315 1.239 . S
C300 C299 1.498 1_554 S
C300 C301 1.366 . S
C300 C305 1.407 . S
C301 C300 1.366 . S
C301 C302 1.392 . S
C301 H324 0.930 1_554 S
C302 C301 1.392 . S
C302 C303 1.398 . S
C302 H325 0.929 . S
C303 C302 1.398 . S
C303 C304 1.352 . S
C304 C303 1.352 . S
C304 C305 1.384 . S
C304 H326 0.930 . S
C305 C300 1.407 . S
C305 C304 1.384 . S
C305 H327 0.929 . S
C306 O316 1.241 . S
C306 O317 1.249 1_545 S
C307 O318 1.251 . S
C307 O319 1.268 . S
O308 Nd288 2.500 1_655 S
O308 C290 1.258 . S
O309 Nd288 2.492 . S
O309 C290 1.239 1_455 S
O310 Nd288 2.487 . S
O310 C297 1.241 . S
O311 Nd288 2.682 1_545 S
O311 Nd289 2.414 . S
O311 C297 1.273 1_545 S
O312 Nd288 2.410 . S
O312 C298 1.251 . S
O313 Nd289 2.424 1_565 S
O313 C298 1.268 . S
O314 Nd289 2.500 . S
O314 C299 1.258 . S
O315 Nd289 2.492 . S
O315 C299 1.239 . S
O316 Nd289 2.487 1_655 S
O316 C306 1.241 . S
O317 Nd288 2.431 1_655 S
O317 Nd289 2.678 1_665 S
O317 C306 1.249 1_565 S
O318 Nd289 2.410 . S
O318 C307 1.251 . S
O319 Nd288 2.424 1_545 S
O319 C307 1.268 . S
H320 C292 0.930 . S
H321 C293 0.929 . S
H322 C295 0.930 . S
H323 C296 0.929 1_455 S
H324 C301 0.930 1_556 S
H325 C302 0.929 . S
H326 C304 0.930 . S
H327 C305 0.929 . S
Nd328 C330 2.836 . S
Nd328 O348 2.500 . S
Nd328 O349 2.492 . S
Nd328 O350 2.487 1_565 S
Nd328 O351 2.682 1_565 S
Nd328 O352 2.410 1_565 S
Nd328 O357 2.414 . S
Nd328 O359 2.424 . S
Nd329 C339 2.836 . S
Nd329 O351 2.414 . S
Nd329 O353 2.424 . S
Nd329 O354 2.500 . S
Nd329 O355 2.492 1_556 S
Nd329 O356 2.487 1_545 S
Nd329 O357 2.682 1_545 S
Nd329 O358 2.410 1_545 S
C330 Nd328 2.836 . S
C330 C331 1.498 . S
C330 O348 1.258 . S
C330 O349 1.239 . S
C331 C330 1.498 . S
C331 C332 1.366 . S
C331 C336 1.407 . S
C332 C331 1.366 . S
C332 C333 1.392 . S
C332 H360 0.930 . S
C333 C332 1.392 . S
C333 C334 1.398 . S
C333 H361 0.929 . S
C334 C333 1.398 . S
C334 C335 1.352 . S
C335 C334 1.352 . S
C335 C336 1.384 . S
C335 H362 0.930 . S
C336 C331 1.407 . S
C336 C335 1.384 . S
C336 H363 0.929 1_565 S
C337 O350 1.241 . S
C337 O351 1.273 . S
C338 O352 1.251 . S
C338 O353 1.268 . S
C339 Nd329 2.836 . S
C339 C340 1.498 1_556 S
C339 O354 1.258 . S
C339 O355 1.239 1_556 S
C340 C339 1.498 1_554 S
C340 C341 1.366 1_554 S
C340 C345 1.407 . S
C341 C340 1.366 1_556 S
C341 C342 1.392 1_556 S
C341 H364 0.930 . S
C342 C341 1.392 1_554 S
C342 C343 1.398 . S
C342 H365 0.929 . S
C343 C342 1.398 . S
C343 C344 1.352 . S
C344 C343 1.352 . S
C344 C345 1.384 . S
C344 H366 0.930 . S
C345 C340 1.407 . S
C345 C344 1.384 . S
C345 H367 0.929 1_545 S
C346 O356 1.241 . S
C346 O357 1.273 . S
C347 O358 1.251 . S
C347 O359 1.268 . S
O348 Nd328 2.500 . S
O348 C330 1.258 . S
O349 Nd328 2.492 . S
O349 C330 1.239 . S
O350 Nd328 2.487 1_545 S
O350 C337 1.241 . S
O351 Nd328 2.682 1_545 S
O351 Nd329 2.414 . S
O351 C337 1.273 . S
O352 Nd328 2.410 1_545 S
O352 C338 1.251 . S
O353 Nd329 2.424 . S
O353 C338 1.268 . S
O354 Nd329 2.500 . S
O354 C339 1.258 . S
O355 Nd329 2.492 1_554 S
O355 C339 1.239 1_554 S
O356 Nd329 2.487 1_565 S
O356 C346 1.241 . S
O357 Nd328 2.414 . S
O357 Nd329 2.682 1_565 S
O357 C346 1.273 . S
O358 Nd329 2.410 1_565 S
O358 C347 1.251 . S
O359 Nd328 2.424 . S
O359 C347 1.268 . S
H360 C332 0.930 . S
H361 C333 0.929 . S
H362 C335 0.930 . S
H363 C336 0.929 1_545 S
H364 C341 0.930 . S
H365 C342 0.929 . S
H366 C344 0.930 . S
H367 C345 0.929 1_565 S
Nd368 C370 2.836 . S
Nd368 O388 2.500 . S
Nd368 O389 2.492 . S
Nd368 O390 2.487 . S
Nd368 O391 2.682 . S
Nd368 O392 2.410 . S
Nd368 O397 2.414 . S
Nd368 O399 2.424 . S
Nd369 C379 2.836 . S
Nd369 O391 2.414 . S
Nd369 O393 2.424 . S
Nd369 O394 2.500 . S
Nd369 O395 2.492 . S
Nd369 O396 2.487 . S
Nd369 O397 2.682 . S
Nd369 O398 2.410 . S
C370 Nd368 2.836 . S
C370 C371 1.498 . S
C370 O388 1.258 . S
C370 O389 1.239 . S
C371 C370 1.498 . S
C371 C372 1.366 . S
C371 C376 1.407 1_556 S
C372 C371 1.366 . S
C372 C373 1.392 . S
C372 H400 0.930 . S
C373 C372 1.392 . S
C373 C374 1.396 1_556 S
C373 H401 0.929 . S
C374 C373 1.396 1_554 S
C374 C375 1.353 . S
C375 C374 1.353 . S
C375 C376 1.384 . S
C375 H402 0.930 . S
C376 C371 1.407 1_554 S
C376 C375 1.384 . S
C376 H403 0.929 . S
C377 O390 1.241 . S
C377 O391 1.273 . S
C378 O392 1.251 . S
C378 O393 1.268 . S
C379 Nd369 2.836 . S
C379 C380 1.498 . S
C379 O394 1.258 . S
C379 O395 1.239 . S
C380 C379 1.498 . S
C380 C381 1.366 . S
C380 C385 1.407 . S
C381 C380 1.366 . S
C381 C382 1.392 . S
C381 H404 0.930 . S
C382 C381 1.392 . S
C382 C383 1.398 . S
C382 H405 0.929 . S
C383 C382 1.398 . S
C383 C384 1.352 . S
C384 C383 1.352 . S
C384 C385 1.384 . S
C384 H406 0.930 . S
C385 C380 1.407 . S
C385 C384 1.384 . S
C385 H407 0.929 . S
C386 O396 1.241 . S
C386 O397 1.273 . S
C387 O398 1.251 . S
C387 O399 1.268 . S
O388 Nd368 2.500 . S
O388 C370 1.258 . S
O389 Nd368 2.492 . S
O389 C370 1.239 . S
O390 Nd368 2.487 . S
O390 C377 1.241 . S
O391 Nd368 2.682 . S
O391 Nd369 2.414 . S
O391 C377 1.273 . S
O392 Nd368 2.410 . S
O392 C378 1.251 . S
O393 Nd369 2.424 . S
O393 C378 1.268 . S
O394 Nd369 2.500 . S
O394 C379 1.258 . S
O395 Nd369 2.492 . S
O395 C379 1.239 . S
O396 Nd369 2.487 . S
O396 C386 1.241 . S
O397 Nd368 2.414 . S
O397 Nd369 2.682 . S
O397 C386 1.273 . S
O398 Nd369 2.410 . S
O398 C387 1.251 . S
O399 Nd368 2.424 . S
O399 C387 1.268 . S
H400 C372 0.930 . S
H401 C373 0.929 . S
H402 C375 0.930 . S
H403 C376 0.929 . S
H404 C381 0.930 . S
H405 C382 0.929 . S
H406 C384 0.930 . S
H407 C385 0.929 . S
Nd408 C410 2.836 1_455 S
Nd408 O428 2.500 1_455 S
Nd408 O429 2.492 1_455 S
Nd408 O430 2.487 . S
Nd408 O431 2.682 . S
Nd408 O432 2.410 1_455 S
Nd408 O437 2.414 . S
Nd408 O439 2.424 . S
Nd409 C419 2.836 . S
Nd409 O431 2.414 . S
Nd409 O433 2.424 1_455 S
Nd409 O434 2.500 . S
Nd409 O435 2.492 . S
Nd409 O436 2.487 . S
Nd409 O437 2.682 . S
Nd409 O438 2.410 . S
C410 Nd408 2.836 1_655 S
C410 C411 1.498 . S
C410 O428 1.258 . S
C410 O429 1.239 . S
C411 C410 1.498 . S
C411 C412 1.366 . S
C411 C416 1.407 . S
C412 C411 1.366 . S
C412 C413 1.392 . S
C412 H440 0.930 . S
C413 C412 1.392 . S
C413 C414 1.398 . S
C413 H441 0.929 . S
C414 C413 1.398 . S
C414 C415 1.352 . S
C415 C414 1.352 . S
C415 C416 1.384 . S
C415 H442 0.930 . S
C416 C411 1.407 . S
C416 C415 1.384 . S
C416 H443 0.929 . S
C417 O430 1.241 . S
C417 O431 1.273 . S
C418 O432 1.251 . S
C418 O433 1.268 . S
C419 Nd409 2.836 . S
C419 C420 1.498 1_556 S
C419 O434 1.258 . S
C419 O435 1.239 . S
C420 C419 1.498 1_554 S
C420 C421 1.366 . S
C420 C425 1.407 . S
C421 C420 1.366 . S
C421 C422 1.392 . S
C421 H444 0.930 1_554 S
C422 C421 1.392 . S
C422 C423 1.398 . S
C422 H445 0.929 . S
C423 C422 1.398 . S
C423 C424 1.352 . S
C424 C423 1.352 . S
C424 C425 1.384 . S
C424 H446 0.930 . S
C425 C420 1.407 . S
C425 C424 1.384 . S
C425 H447 0.929 . S
C426 O436 1.241 . S
C426 O437 1.273 . S
C427 O438 1.251 . S
C427 O439 1.268 . S
O428 Nd408 2.500 1_655 S
O428 C410 1.258 . S
O429 Nd408 2.492 1_655 S
O429 C410 1.239 . S
O430 Nd408 2.487 . S
O430 C417 1.241 . S
O431 Nd408 2.682 . S
O431 Nd409 2.414 . S
O431 C417 1.273 . S
O432 Nd408 2.410 1_655 S
O432 C418 1.251 . S
O433 Nd409 2.424 1_655 S
O433 C418 1.268 . S
O434 Nd409 2.500 . S
O434 C419 1.258 . S
O435 Nd409 2.492 . S
O435 C419 1.239 . S
O436 Nd409 2.487 . S
O436 C426 1.241 . S
O437 Nd408 2.414 . S
O437 Nd409 2.682 . S
O437 C426 1.273 . S
O438 Nd409 2.410 . S
O438 C427 1.251 . S
O439 Nd408 2.424 . S
O439 C427 1.268 . S
H440 C412 0.930 . S
H441 C413 0.929 . S
H442 C415 0.930 . S
H443 C416 0.929 . S
H444 C421 0.930 1_556 S
H445 C422 0.929 . S
H446 C424 0.930 . S
H447 C425 0.929 . S
H448 C460 0.930 . S
H449 C462 0.930 . S
H450 C463 0.930 . S
H451 C467 0.959 . S
H452 C467 0.959 . S
H453 C467 0.961 . S
H454 C468 0.960 . S
H455 C468 0.961 . S
H456 C468 0.959 . S
H457 C471 0.929 . S
H458 C472 0.931 . S
H459 C474 0.930 . S
C460 H448 0.930 . S
C460 C461 1.399 1_545 S
C460 C465 1.399 . S
C461 C460 1.399 1_565 S
C461 C462 1.376 . S
C462 H449 0.930 . S
C462 C461 1.376 . S
C462 C463 1.388 . S
C463 H450 0.930 . S
C463 C462 1.388 . S
C463 C464 1.390 . S
C464 C463 1.390 . S
C464 C465 1.394 1_565 S
C464 C470 1.465 . S
C465 C460 1.399 . S
C465 C464 1.394 1_545 S
C465 C466 1.516 . S
C466 C465 1.516 . S
C466 C467 1.502 . S
C466 C468 1.561 . S
C466 C469 1.526 . S
C467 H451 0.959 . S
C467 H452 0.959 . S
C467 H453 0.961 . S
C467 C466 1.502 . S
C468 H454 0.960 . S
C468 H455 0.961 . S
C468 H456 0.959 . S
C468 C466 1.561 . S
C469 C466 1.526 . S
C469 C470 1.396 1_545 S
C469 C474 1.390 . S
C470 C464 1.465 . S
C470 C469 1.396 1_565 S
C470 C471 1.399 . S
C471 H457 0.929 . S
C471 C470 1.399 . S
C471 C472 1.385 . S
C472 H458 0.931 . S
C472 C471 1.385 . S
C472 C473 1.389 . S
C473 C472 1.389 . S
C473 C474 1.387 1_565 S
C474 H459 0.930 . S
C474 C469 1.390 . S
C474 C473 1.387 1_545 S
H475 C487 0.930 . S
H476 C489 0.930 . S
H477 C490 0.930 . S
H478 C494 0.959 . S
H479 C494 0.959 . S
H480 C494 0.961 . S
H481 C495 0.960 . S
H482 C495 0.961 . S
H483 C495 0.959 . S
H484 C498 0.929 . S
H485 C499 0.931 . S
H486 C501 0.930 . S
C487 H475 0.930 . S
C487 C488 1.399 . S
C487 C492 1.399 . S
C488 C487 1.399 . S
C488 C489 1.376 . S
C489 H476 0.930 . S
C489 C488 1.376 . S
C489 C490 1.388 . S
C490 H477 0.930 . S
C490 C489 1.388 . S
C490 C491 1.390 . S
C491 C490 1.390 . S
C491 C492 1.394 . S
C491 C497 1.465 . S
C492 C487 1.399 . S
C492 C491 1.394 . S
C492 C493 1.516 . S
C493 C492 1.516 . S
C493 C494 1.502 . S
C493 C495 1.561 . S
C493 C496 1.526 . S
C494 H478 0.959 . S
C494 H479 0.959 . S
C494 H480 0.961 . S
C494 C493 1.502 . S
C495 H481 0.960 . S
C495 H482 0.961 . S
C495 H483 0.959 . S
C495 C493 1.561 . S
C496 C493 1.526 . S
C496 C497 1.396 . S
C496 C501 1.390 . S
C497 C491 1.465 . S
C497 C496 1.396 . S
C497 C498 1.399 . S
C498 H484 0.929 . S
C498 C497 1.399 . S
C498 C499 1.385 . S
C499 H485 0.931 . S
C499 C498 1.385 . S
C499 C500 1.389 . S
C500 C499 1.389 . S
C500 C501 1.387 . S
C501 H486 0.930 . S
C501 C496 1.390 . S
C501 C500 1.387 . S
H502 C514 0.930 . S
H503 C516 0.930 . S
H504 C517 0.930 . S
H505 C521 0.959 . S
H506 C521 0.959 . S
H507 C521 0.961 . S
H508 C522 0.960 . S
H509 C522 0.961 . S
H510 C522 0.959 . S
H511 C525 0.929 . S
H512 C526 0.931 . S
H513 C528 0.930 . S
C514 H502 0.930 . S
C514 C515 1.399 . S
C514 C519 1.399 . S
C515 C514 1.399 . S
C515 C516 1.376 . S
C516 H503 0.930 . S
C516 C515 1.376 . S
C516 C517 1.388 . S
C517 H504 0.930 . S
C517 C516 1.388 . S
C517 C518 1.390 . S
C518 C517 1.390 . S
C518 C519 1.394 . S
C518 C524 1.465 . S
C519 C514 1.399 . S
C519 C518 1.394 . S
C519 C520 1.516 . S
C520 C519 1.516 . S
C520 C521 1.502 . S
C520 C522 1.561 . S
C520 C523 1.526 . S
C521 H505 0.959 . S
C521 H506 0.959 . S
C521 H507 0.961 . S
C521 C520 1.502 . S
C522 H508 0.960 . S
C522 H509 0.961 . S
C522 H510 0.959 . S
C522 C520 1.561 . S
C523 C520 1.526 . S
C523 C524 1.396 . S
C523 C528 1.390 . S
C524 C518 1.465 . S
C524 C523 1.396 . S
C524 C525 1.399 . S
C525 H511 0.929 . S
C525 C524 1.399 . S
C525 C526 1.385 . S
C526 H512 0.931 . S
C526 C525 1.385 . S
C526 C527 1.389 . S
C527 C526 1.389 . S
C527 C528 1.387 . S
C528 H513 0.930 . S
C528 C523 1.390 . S
C528 C527 1.387 . S
H529 C541 0.930 . S
H530 C543 0.930 . S
H531 C544 0.930 . S
H532 C548 0.959 . S
H533 C548 0.959 . S
H534 C548 0.961 . S
H535 C549 0.960 . S
H536 C549 0.961 . S
H537 C549 0.959 . S
H538 C552 0.929 . S
H539 C553 0.931 . S
H540 C555 0.930 . S
C541 H529 0.930 . S
C541 C542 1.399 . S
C541 C546 1.399 . S
C542 C541 1.399 . S
C542 C543 1.376 . S
C543 H530 0.930 . S
C543 C542 1.376 . S
C543 C544 1.388 . S
C544 H531 0.930 . S
C544 C543 1.388 . S
C544 C545 1.390 . S
C545 C544 1.390 . S
C545 C546 1.394 . S
C545 C551 1.465 . S
C546 C541 1.399 . S
C546 C545 1.394 . S
C546 C547 1.516 . S
C547 C546 1.516 . S
C547 C548 1.502 . S
C547 C549 1.561 . S
C547 C550 1.526 . S
C548 H532 0.959 . S
C548 H533 0.959 . S
C548 H534 0.961 . S
C548 C547 1.502 . S
C549 H535 0.960 . S
C549 H536 0.961 . S
C549 H537 0.959 . S
C549 C547 1.561 . S
C550 C547 1.526 . S
C550 C551 1.396 . S
C550 C555 1.390 . S
C551 C545 1.465 . S
C551 C550 1.396 . S
C551 C552 1.399 . S
C552 H538 0.929 . S
C552 C551 1.399 . S
C552 C553 1.385 . S
C553 H539 0.931 . S
C553 C552 1.385 . S
C553 C554 1.389 . S
C554 C553 1.389 . S
C554 C555 1.387 . S
C555 H540 0.930 . S
C555 C550 1.390 . S
C555 C554 1.387 . S
H556 C568 0.930 . S
H557 C570 0.930 . S
H558 C571 0.930 . S
H559 C575 0.959 1_545 S
H560 C575 0.959 . S
H561 C575 0.961 . S
H562 C576 0.960 . S
H563 C576 0.961 . S
H564 C576 0.959 . S
H565 C579 0.929 . S
H566 C580 0.931 . S
H567 C582 0.930 . S
C568 H556 0.930 . S
C568 C569 1.384 1_565 S
C568 C573 1.399 . S
C569 C568 1.384 1_545 S
C569 C570 1.388 . S
C570 H557 0.930 . S
C570 C569 1.388 . S
C570 C571 1.388 . S
C571 H558 0.930 . S
C571 C570 1.388 . S
C571 C572 1.390 . S
C572 C571 1.390 . S
C572 C573 1.394 1_545 S
C572 C578 1.465 . S
C573 C568 1.399 . S
C573 C572 1.394 1_565 S
C573 C574 1.516 . S
C574 C573 1.516 . S
C574 C575 1.502 1_556 S
C574 C576 1.561 . S
C574 C577 1.526 . S
C575 H559 0.959 1_565 S
C575 H560 0.959 . S
C575 H561 0.961 . S
C575 C574 1.502 1_554 S
C576 H562 0.960 . S
C576 H563 0.961 . S
C576 H564 0.959 . S
C576 C574 1.561 . S
C577 C574 1.526 . S
C577 C578 1.396 1_565 S
C577 C582 1.390 . S
C578 C572 1.465 . S
C578 C577 1.396 1_545 S
C578 C579 1.399 . S
C579 H565 0.929 . S
C579 C578 1.399 . S
C579 C580 1.385 . S
C580 H566 0.931 . S
C580 C579 1.385 . S
C580 C581 1.389 . S
C581 C580 1.389 . S
C581 C582 1.387 1_545 S
C582 H567 0.930 . S
C582 C577 1.390 . S
C582 C581 1.387 1_565 S
H583 C595 0.930 . S
H584 C597 0.930 . S
H585 C598 0.930 . S
H586 C602 0.959 . S
H587 C602 0.959 1_556 S
H588 C602 0.961 . S
H589 C603 0.960 . S
H590 C603 0.961 . S
H591 C603 0.959 . S
H592 C606 0.929 . S
H593 C607 0.931 . S
H594 C609 0.930 . S
C595 H583 0.930 . S
C595 C596 1.399 . S
C595 C600 1.399 . S
C596 C595 1.399 . S
C596 C597 1.376 . S
C597 H584 0.930 . S
C597 C596 1.376 . S
C597 C598 1.388 . S
C598 H585 0.930 . S
C598 C597 1.388 . S
C598 C599 1.390 . S
C599 C598 1.390 . S
C599 C600 1.394 . S
C599 C605 1.465 . S
C600 C595 1.399 . S
C600 C599 1.394 . S
C600 C601 1.516 . S
C601 C600 1.516 . S
C601 C602 1.502 . S
C601 C603 1.561 . S
C601 C604 1.526 . S
C602 H586 0.959 . S
C602 H587 0.959 1_554 S
C602 H588 0.961 . S
C602 C601 1.502 . S
C603 H589 0.960 . S
C603 H590 0.961 . S
C603 H591 0.959 . S
C603 C601 1.561 . S
C604 C601 1.526 . S
C604 C605 1.396 . S
C604 C609 1.390 1_554 S
C605 C599 1.465 . S
C605 C604 1.396 . S
C605 C606 1.399 . S
C606 H592 0.929 . S
C606 C605 1.399 . S
C606 C607 1.385 . S
C607 H593 0.931 . S
C607 C606 1.385 . S
C607 C608 1.389 1_554 S
C608 C607 1.389 1_556 S
C608 C609 1.387 . S
C609 H594 0.930 . S
C609 C604 1.390 1_556 S
C609 C608 1.387 . S
H610 C622 0.930 1_554 S
H611 C624 0.930 . S
H612 C625 0.930 . S
H613 C629 0.959 . S
H614 C629 0.959 . S
H615 C629 0.961 . S
H616 C630 0.960 . S
H617 C630 0.961 . S
H618 C630 0.959 . S
H619 C633 0.929 . S
H620 C634 0.931 . S
H621 C636 0.930 . S
C622 H610 0.930 1_556 S
C622 C623 1.399 . S
C622 C627 1.399 . S
C623 C622 1.399 . S
C623 C624 1.376 . S
C624 H611 0.930 . S
C624 C623 1.376 . S
C624 C625 1.388 . S
C625 H612 0.930 . S
C625 C624 1.388 . S
C625 C626 1.390 . S
C626 C625 1.390 . S
C626 C627 1.394 . S
C626 C632 1.465 . S
C627 C622 1.399 . S
C627 C626 1.394 . S
C627 C628 1.516 . S
C628 C627 1.516 . S
C628 C629 1.502 1_556 S
C628 C630 1.561 . S
C628 C631 1.526 . S
C629 H613 0.959 . S
C629 H614 0.959 . S
C629 H615 0.961 . S
C629 C628 1.502 1_554 S
C630 H616 0.960 . S
C630 H617 0.961 . S
C630 H618 0.959 . S
C630 C628 1.561 . S
C631 C628 1.526 . S
C631 C632 1.396 . S
C631 C636 1.390 . S
C632 C626 1.465 . S
C632 C631 1.396 . S
C632 C633 1.399 . S
C633 H619 0.929 . S
C633 C632 1.399 . S
C633 C634 1.385 . S
C634 H620 0.931 . S
C634 C633 1.385 . S
C634 C635 1.389 . S
C635 C634 1.389 . S
C635 C636 1.387 . S
C636 H621 0.930 . S
C636 C631 1.390 . S
C636 C635 1.387 . S
H637 C649 0.930 . S
H638 C651 0.930 . S
H639 C652 0.930 . S
H640 C656 0.959 . S
H641 C656 0.959 . S
H642 C656 0.961 . S
H643 C657 0.960 . S
H644 C657 0.961 . S
H645 C657 0.959 . S
H646 C660 0.929 . S
H647 C661 0.920 1_455 S
H648 C663 0.930 . S
C649 H637 0.930 . S
C649 C650 1.399 1_554 S
C649 C654 1.399 1_554 S
C650 C649 1.399 1_556 S
C650 C651 1.376 . S
C651 H638 0.930 . S
C651 C650 1.376 . S
C651 C652 1.388 . S
C652 H639 0.930 . S
C652 C651 1.388 . S
C652 C653 1.390 . S
C653 C652 1.390 . S
C653 C654 1.394 . S
C653 C659 1.465 . S
C654 C649 1.399 1_556 S
C654 C653 1.394 . S
C654 C655 1.516 . S
C655 C654 1.516 . S
C655 C656 1.502 1_556 S
C655 C657 1.561 . S
C655 C658 1.526 . S
C656 H640 0.959 . S
C656 H641 0.959 . S
C656 H642 0.961 . S
C656 C655 1.502 1_554 S
C657 H643 0.960 . S
C657 H644 0.961 . S
C657 H645 0.959 . S
C657 C655 1.561 . S
C658 C655 1.526 . S
C658 C659 1.396 . S
C658 C663 1.390 . S
C659 C653 1.465 . S
C659 C658 1.396 . S
C659 C660 1.399 . S
C660 H646 0.929 . S
C660 C659 1.399 . S
C660 C661 1.385 . S
C661 H647 0.920 1_655 S
C661 C660 1.385 . S
C661 C662 1.389 . S
C662 C661 1.389 . S
C662 C663 1.387 . S
C663 H648 0.930 . S
C663 C658 1.390 . S
C663 C662 1.387 . S
H664 C676 0.930 . S
H665 C678 0.930 . S
H666 C679 0.930 . S
H667 C683 0.959 . S
H668 C683 0.959 . S
H669 C683 0.961 . S
H670 C684 0.960 . S
H671 C684 0.961 . S
H672 C684 0.959 . S
H673 C687 0.929 . S
H674 C688 0.931 . S
H675 C690 0.930 . S
C676 H664 0.930 . S
C676 C677 1.399 . S
C676 C681 1.399 . S
C677 C676 1.399 . S
C677 C678 1.376 . S
C678 H665 0.930 . S
C678 C677 1.376 . S
C678 C679 1.388 . S
C679 H666 0.930 . S
C679 C678 1.388 . S
C679 C680 1.390 . S
C680 C679 1.390 . S
C680 C681 1.394 . S
C680 C686 1.465 . S
C681 C676 1.399 . S
C681 C680 1.394 . S
C681 C682 1.516 . S
C682 C681 1.516 . S
C682 C683 1.502 . S
C682 C684 1.561 . S
C682 C685 1.526 . S
C683 H667 0.959 . S
C683 H668 0.959 . S
C683 H669 0.961 . S
C683 C682 1.502 . S
C684 H670 0.960 . S
C684 H671 0.961 . S
C684 H672 0.959 . S
C684 C682 1.561 . S
C685 C682 1.526 . S
C685 C686 1.396 . S
C685 C690 1.390 . S
C686 C680 1.465 . S
C686 C685 1.396 . S
C686 C687 1.399 . S
C687 H673 0.929 . S
C687 C686 1.399 . S
C687 C688 1.385 . S
C688 H674 0.931 . S
C688 C687 1.385 . S
C688 C689 1.389 . S
C689 C688 1.389 . S
C689 C690 1.387 . S
C690 H675 0.930 . S
C690 C685 1.390 . S
C690 C689 1.387 . S
H691 C703 0.930 . S
H692 C705 0.930 . S
H693 C706 0.930 . S
H694 C710 0.959 . S
H695 C710 0.959 . S
H696 C710 0.961 . S
H697 C711 0.960 . S
H698 C711 0.961 . S
H699 C711 0.959 . S
H700 C714 0.929 . S
H701 C715 0.931 . S
H702 C717 0.930 . S
C703 H691 0.930 . S
C703 C704 1.379 1_565 S
C703 C708 1.399 . S
C704 C703 1.379 1_545 S
C704 C705 1.385 . S
C705 H692 0.930 . S
C705 C704 1.385 . S
C705 C706 1.388 . S
C706 H693 0.930 . S
C706 C705 1.388 . S
C706 C707 1.390 1_545 S
C707 C706 1.390 1_565 S
C707 C708 1.394 . S
C707 C713 1.465 . S
C708 C703 1.399 . S
C708 C707 1.394 . S
C708 C709 1.516 . S
C709 C708 1.516 . S
C709 C710 1.502 . S
C709 C711 1.561 1_565 S
C709 C712 1.526 . S
C710 H694 0.959 . S
C710 H695 0.959 . S
C710 H696 0.961 . S
C710 C709 1.502 . S
C711 H697 0.960 . S
C711 H698 0.961 . S
C711 H699 0.959 . S
C711 C709 1.561 1_545 S
C712 C709 1.526 . S
C712 C713 1.396 . S
C712 C717 1.390 . S
C713 C707 1.465 . S
C713 C712 1.396 . S
C713 C714 1.399 . S
C714 H700 0.929 . S
C714 C713 1.399 . S
C714 C715 1.385 . S
C715 H701 0.931 . S
C715 C714 1.385 . S
C715 C716 1.389 . S
C716 C715 1.389 . S
C716 C717 1.387 . S
C717 H702 0.930 . S
C717 C712 1.390 . S
C717 C716 1.387 . S
H718 C730 0.930 . S
H719 C732 0.930 . S
H720 C733 0.930 . S
H721 C737 0.959 . S
H722 C737 0.959 . S
H723 C737 0.961 . S
H724 C738 0.960 . S
H725 C738 0.961 . S
H726 C738 0.959 . S
H727 C741 0.929 . S
H728 C742 0.931 . S
H729 C744 0.930 . S
C730 H718 0.930 . S
C730 C731 1.399 . S
C730 C735 1.399 . S
C731 C730 1.399 . S
C731 C732 1.376 . S
C732 H719 0.930 . S
C732 C731 1.376 . S
C732 C733 1.388 . S
C733 H720 0.930 . S
C733 C732 1.388 . S
C733 C734 1.390 . S
C734 C733 1.390 . S
C734 C735 1.394 . S
C734 C740 1.465 . S
C735 C730 1.399 . S
C735 C734 1.394 . S
C735 C736 1.516 . S
C736 C735 1.516 . S
C736 C737 1.502 . S
C736 C738 1.561 . S
C736 C739 1.526 . S
C737 H721 0.959 . S
C737 H722 0.959 . S
C737 H723 0.961 . S
C737 C736 1.502 . S
C738 H724 0.960 . S
C738 H725 0.961 . S
C738 H726 0.959 . S
C738 C736 1.561 . S
C739 C736 1.526 . S
C739 C740 1.396 . S
C739 C744 1.390 . S
C740 C734 1.465 . S
C740 C739 1.396 . S
C740 C741 1.399 . S
C741 H727 0.929 . S
C741 C740 1.399 . S
C741 C742 1.385 . S
C742 H728 0.931 . S
C742 C741 1.385 . S
C742 C743 1.389 . S
C743 C742 1.389 . S
C743 C744 1.387 . S
C744 H729 0.930 . S
C744 C739 1.390 . S
C744 C743 1.387 . S
H745 C757 0.930 . S
H746 C759 0.930 . S
H747 C760 0.930 . S
H748 C764 0.959 . S
H749 C764 0.959 . S
H750 C764 0.961 . S
H751 C765 0.960 . S
H752 C765 0.961 . S
H753 C765 0.959 . S
H754 C768 0.929 . S
H755 C769 0.931 . S
H756 C771 0.930 . S
C757 H745 0.930 . S
C757 C758 1.399 . S
C757 C762 1.399 . S
C758 C757 1.399 . S
C758 C759 1.376 . S
C759 H746 0.930 . S
C759 C758 1.376 . S
C759 C760 1.388 . S
C760 H747 0.930 . S
C760 C759 1.388 . S
C760 C761 1.390 . S
C761 C760 1.390 . S
C761 C762 1.394 . S
C761 C767 1.465 . S
C762 C757 1.399 . S
C762 C761 1.394 . S
C762 C763 1.516 . S
C763 C762 1.516 . S
C763 C764 1.502 . S
C763 C765 1.561 . S
C763 C766 1.526 . S
C764 H748 0.959 . S
C764 H749 0.959 . S
C764 H750 0.961 . S
C764 C763 1.502 . S
C765 H751 0.960 . S
C765 H752 0.961 . S
C765 H753 0.959 . S
C765 C763 1.561 . S
C766 C763 1.526 . S
C766 C767 1.396 . S
C766 C771 1.390 . S
C767 C761 1.465 . S
C767 C766 1.396 . S
C767 C768 1.399 . S
C768 H754 0.929 . S
C768 C767 1.399 . S
C768 C769 1.385 . S
C769 H755 0.931 . S
C769 C768 1.385 . S
C769 C770 1.389 . S
C770 C769 1.389 . S
C770 C771 1.387 . S
C771 H756 0.930 . S
C771 C766 1.390 . S
C771 C770 1.387 . S
H772 C784 0.930 . S
H773 C786 0.930 . S
H774 C787 0.930 . S
H775 C791 0.959 . S
H776 C791 0.959 1_554 S
H777 C791 0.961 1_554 S
H778 C792 0.960 . S
H779 C792 0.961 . S
H780 C792 0.959 . S
H781 C795 0.929 . S
H782 C796 0.931 . S
H783 C798 0.930 . S
C784 H772 0.930 . S
C784 C785 1.399 . S
C784 C789 1.399 . S
C785 C784 1.399 . S
C785 C786 1.376 . S
C786 H773 0.930 . S
C786 C785 1.376 . S
C786 C787 1.388 . S
C787 H774 0.930 . S
C787 C786 1.388 . S
C787 C788 1.390 . S
C788 C787 1.390 . S
C788 C789 1.394 . S
C788 C794 1.465 . S
C789 C784 1.399 . S
C789 C788 1.394 . S
C789 C790 1.516 . S
C790 C789 1.516 . S
C790 C791 1.502 . S
C790 C792 1.561 . S
C790 C793 1.526 . S
C791 H775 0.959 . S
C791 H776 0.959 1_556 S
C791 H777 0.961 1_556 S
C791 C790 1.502 . S
C792 H778 0.960 . S
C792 H779 0.961 . S
C792 H780 0.959 . S
C792 C790 1.561 . S
C793 C790 1.526 . S
C793 C794 1.396 . S
C793 C798 1.390 . S
C794 C788 1.465 . S
C794 C793 1.396 . S
C794 C795 1.399 . S
C795 H781 0.929 . S
C795 C794 1.399 . S
C795 C796 1.385 . S
C796 H782 0.931 . S
C796 C795 1.385 . S
C796 C797 1.389 . S
C797 C796 1.389 . S
C797 C798 1.387 . S
C798 H783 0.930 . S
C798 C793 1.390 . S
C798 C797 1.387 . S
H799 C811 0.930 . S
H800 C813 0.932 . S
H801 C814 0.930 . S
H802 C818 0.929 1_565 S
H803 C818 0.979 . S
H804 C818 0.958 . S
H805 C819 0.960 . S
H806 C819 0.961 . S
H807 C819 0.959 . S
H808 C822 0.929 . S
H809 C823 0.931 . S
H810 C825 0.930 . S
C811 H799 0.930 . S
C811 C812 1.399 . S
C811 C816 1.399 . S
C812 C811 1.399 . S
C812 C813 1.376 1_545 S
C813 H800 0.932 . S
C813 C812 1.376 1_565 S
C813 C814 1.387 1_565 S
C814 H801 0.930 . S
C814 C813 1.387 1_545 S
C814 C815 1.390 . S
C815 C814 1.390 . S
C815 C816 1.394 . S
C815 C821 1.465 . S
C816 C811 1.399 . S
C816 C815 1.394 . S
C816 C817 1.516 . S
C817 C816 1.516 . S
C817 C818 1.518 . S
C817 C819 1.561 . S
C817 C820 1.526 . S
C818 H802 0.929 1_545 S
C818 H803 0.979 . S
C818 H804 0.958 . S
C818 C817 1.518 . S
C819 H805 0.960 . S
C819 H806 0.961 . S
C819 H807 0.959 . S
C819 C817 1.561 . S
C820 C817 1.526 . S
C820 C821 1.396 . S
C820 C825 1.390 . S
C821 C815 1.465 . S
C821 C820 1.396 . S
C821 C822 1.399 . S
C822 H808 0.929 . S
C822 C821 1.399 . S
C822 C823 1.385 . S
C823 H809 0.931 . S
C823 C822 1.385 . S
C823 C824 1.389 . S
C824 C823 1.389 . S
C824 C825 1.387 . S
C825 H810 0.930 . S
C825 C820 1.390 . S
C825 C824 1.387 . S
H826 C838 0.930 . S
H827 C840 0.930 . S
H828 C841 0.930 . S
H829 C845 0.959 . S
H830 C845 0.959 . S
H831 C845 0.961 . S
H832 C846 0.960 . S
H833 C846 0.961 . S
H834 C846 0.959 . S
H835 C849 0.929 . S
H836 C850 0.931 . S
H837 C852 0.930 . S
C838 H826 0.930 . S
C838 C839 1.399 . S
C838 C843 1.399 . S
C839 C838 1.399 . S
C839 C840 1.376 . S
C840 H827 0.930 . S
C840 C839 1.376 . S
C840 C841 1.388 . S
C841 H828 0.930 . S
C841 C840 1.388 . S
C841 C842 1.390 . S
C842 C841 1.390 . S
C842 C843 1.394 . S
C842 C848 1.465 . S
C843 C838 1.399 . S
C843 C842 1.394 . S
C843 C844 1.516 . S
C844 C843 1.516 . S
C844 C845 1.502 . S
C844 C846 1.561 . S
C844 C847 1.526 . S
C845 H829 0.959 . S
C845 H830 0.959 . S
C845 H831 0.961 . S
C845 C844 1.502 . S
C846 H832 0.960 . S
C846 H833 0.961 . S
C846 H834 0.959 . S
C846 C844 1.561 . S
C847 C844 1.526 . S
C847 C848 1.396 . S
C847 C852 1.390 . S
C848 C842 1.465 . S
C848 C847 1.396 . S
C848 C849 1.399 1_554 S
C849 H835 0.929 . S
C849 C848 1.399 1_556 S
C849 C850 1.385 . S
C850 H836 0.931 . S
C850 C849 1.385 . S
C850 C851 1.389 1_556 S
C851 C850 1.389 1_554 S
C851 C852 1.387 . S
C852 H837 0.930 . S
C852 C847 1.390 . S
C852 C851 1.387 . S
H853 C865 0.930 . S
H854 C867 0.930 . S
H855 C868 0.930 . S
H856 C872 0.959 . S
H857 C872 0.959 . S
H858 C872 0.961 . S
H859 C873 0.960 1_554 S
H860 C873 0.961 1_554 S
H861 C873 0.959 . S
H862 C876 0.929 . S
H863 C877 0.931 . S
H864 C879 0.930 . S
C865 H853 0.930 . S
C865 C866 1.399 . S
C865 C870 1.399 . S
C866 C865 1.399 . S
C866 C867 1.376 . S
C867 H854 0.930 . S
C867 C866 1.376 . S
C867 C868 1.388 . S
C868 H855 0.930 . S
C868 C867 1.388 . S
C868 C869 1.390 . S
C869 C868 1.390 . S
C869 C870 1.394 . S
C869 C875 1.465 . S
C870 C865 1.399 . S
C870 C869 1.394 . S
C870 C871 1.516 . S
C871 C870 1.516 . S
C871 C872 1.502 . S
C871 C873 1.561 . S
C871 C874 1.526 . S
C872 H856 0.959 . S
C872 H857 0.959 . S
C872 H858 0.961 . S
C872 C871 1.502 . S
C873 H859 0.960 1_556 S
C873 H860 0.961 1_556 S
C873 H861 0.959 . S
C873 C871 1.561 . S
C874 C871 1.526 . S
C874 C875 1.396 . S
C874 C879 1.390 . S
C875 C869 1.465 . S
C875 C874 1.396 . S
C875 C876 1.399 . S
C876 H862 0.929 . S
C876 C875 1.399 . S
C876 C877 1.385 . S
C877 H863 0.931 . S
C877 C876 1.385 . S
C877 C878 1.389 . S
C878 C877 1.389 . S
C878 C879 1.387 . S
C879 H864 0.930 . S
C879 C874 1.390 . S
C879 C878 1.387 . S
H880 C892 0.930 . S
H881 C894 0.930 . S
H882 C895 0.930 . S
H883 C899 0.959 . S
H884 C899 0.959 . S
H885 C899 0.961 . S
H886 C900 0.960 . S
H887 C900 0.961 . S
H888 C900 0.959 . S
H889 C903 0.929 . S
H890 C904 0.931 . S
H891 C906 0.930 . S
C892 H880 0.930 . S
C892 C893 1.399 . S
C892 C897 1.399 . S
C893 C892 1.399 . S
C893 C894 1.376 . S
C894 H881 0.930 . S
C894 C893 1.376 . S
C894 C895 1.388 . S
C895 H882 0.930 . S
C895 C894 1.388 . S
C895 C896 1.390 . S
C896 C895 1.390 . S
C896 C897 1.394 . S
C896 C902 1.465 . S
C897 C892 1.399 . S
C897 C896 1.394 . S
C897 C898 1.516 . S
C898 C897 1.516 . S
C898 C899 1.502 . S
C898 C900 1.561 . S
C898 C901 1.526 . S
C899 H883 0.959 . S
C899 H884 0.959 . S
C899 H885 0.961 . S
C899 C898 1.502 . S
C900 H886 0.960 . S
C900 H887 0.961 . S
C900 H888 0.959 . S
C900 C898 1.561 . S
C901 C898 1.526 . S
C901 C902 1.396 . S
C901 C906 1.390 . S
C902 C896 1.465 . S
C902 C901 1.396 . S
C902 C903 1.399 . S
C903 H889 0.929 . S
C903 C902 1.399 . S
C903 C904 1.385 . S
C904 H890 0.931 . S
C904 C903 1.385 . S
C904 C905 1.389 . S
C905 C904 1.389 . S
C905 C906 1.387 . S
C906 H891 0.930 . S
C906 C901 1.390 . S
C906 C905 1.387 . S
H907 C919 0.930 . S
H908 C921 0.930 . S
H909 C922 0.930 . S
H910 C926 0.959 . S
H911 C926 0.959 . S
H912 C926 0.961 . S
H913 C927 0.960 . S
H914 C927 0.961 . S
H915 C927 0.959 . S
H916 C930 0.929 . S
H917 C931 0.931 1_565 S
H918 C933 0.930 . S
C919 H907 0.930 . S
C919 C920 1.399 . S
C919 C924 1.399 . S
C920 C919 1.399 . S
C920 C921 1.376 1_545 S
C921 H908 0.930 . S
C921 C920 1.376 1_565 S
C921 C922 1.388 . S
C922 H909 0.930 . S
C922 C921 1.388 . S
C922 C923 1.390 1_565 S
C923 C922 1.390 1_545 S
C923 C924 1.394 . S
C923 C929 1.465 . S
C924 C919 1.399 . S
C924 C923 1.394 . S
C924 C925 1.516 . S
C925 C924 1.516 . S
C925 C926 1.502 . S
C925 C927 1.561 . S
C925 C928 1.526 . S
C926 H910 0.959 . S
C926 H911 0.959 . S
C926 H912 0.961 . S
C926 C925 1.502 . S
C927 H913 0.960 . S
C927 H914 0.961 . S
C927 H915 0.959 . S
C927 C925 1.561 . S
C928 C925 1.526 . S
C928 C929 1.396 . S
C928 C933 1.390 . S
C929 C923 1.465 . S
C929 C928 1.396 . S
C929 C930 1.399 1_545 S
C930 H916 0.929 . S
C930 C929 1.399 1_565 S
C930 C931 1.385 1_565 S
C931 H917 0.931 1_545 S
C931 C930 1.385 1_545 S
C931 C932 1.389 . S
C932 C931 1.389 . S
C932 C933 1.387 . S
C933 H918 0.930 . S
C933 C928 1.390 . S
C933 C932 1.387 . S
H934 C946 0.930 . S
H935 C948 0.930 . S
H936 C949 0.930 . S
H937 C953 0.959 . S
H938 C953 0.959 . S
H939 C953 0.961 . S
H940 C954 0.960 . S
H941 C954 0.961 . S
H942 C954 0.959 . S
H943 C957 0.929 . S
H944 C958 0.931 . S
H945 C960 0.930 1_554 S
C946 H934 0.930 . S
C946 C947 1.399 . S
C946 C951 1.399 . S
C947 C946 1.399 . S
C947 C948 1.376 1_554 S
C948 H935 0.930 . S
C948 C947 1.376 1_556 S
C948 C949 1.388 . S
C949 H936 0.930 . S
C949 C948 1.388 . S
C949 C950 1.390 . S
C950 C949 1.390 . S
C950 C951 1.394 1_556 S
C950 C956 1.465 . S
C951 C946 1.399 . S
C951 C950 1.394 1_554 S
C951 C952 1.516 . S
C952 C951 1.516 . S
C952 C953 1.502 . S
C952 C954 1.561 . S
C952 C955 1.526 1_554 S
C953 H937 0.959 . S
C953 H938 0.959 . S
C953 H939 0.961 . S
C953 C952 1.502 . S
C954 H940 0.960 . S
C954 H941 0.961 . S
C954 H942 0.959 . S
C954 C952 1.561 . S
C955 C952 1.526 1_556 S
C955 C956 1.396 . S
C955 C960 1.390 . S
C956 C950 1.465 . S
C956 C955 1.396 . S
C956 C957 1.399 . S
C957 H943 0.929 . S
C957 C956 1.399 . S
C957 C958 1.385 . S
C958 H944 0.931 . S
C958 C957 1.385 . S
C958 C959 1.389 . S
C959 C958 1.389 . S
C959 C960 1.387 . S
C960 H945 0.930 1_556 S
C960 C955 1.390 . S
C960 C959 1.387 . S
H961 C973 0.930 . S
H962 C975 0.930 . S
H963 C976 0.930 . S
H964 C980 0.959 . S
H965 C980 0.959 . S
H966 C980 0.961 . S
H967 C981 0.960 . S
H968 C981 0.961 . S
H969 C981 0.959 . S
H970 C984 0.929 . S
H971 C985 0.931 . S
H972 C987 0.930 . S
C973 H961 0.930 . S
C973 C974 1.399 . S
C973 C978 1.399 . S
C974 C973 1.399 . S
C974 C975 1.376 . S
C975 H962 0.930 . S
C975 C974 1.376 . S
C975 C976 1.388 . S
C976 H963 0.930 . S
C976 C975 1.388 . S
C976 C977 1.390 . S
C977 C976 1.390 . S
C977 C978 1.394 . S
C977 C983 1.465 . S
C978 C973 1.399 . S
C978 C977 1.394 . S
C978 C979 1.516 . S
C979 C978 1.516 . S
C979 C980 1.502 . S
C979 C981 1.561 . S
C979 C982 1.526 . S
C980 H964 0.959 . S
C980 H965 0.959 . S
C980 H966 0.961 . S
C980 C979 1.502 . S
C981 H967 0.960 . S
C981 H968 0.961 . S
C981 H969 0.959 . S
C981 C979 1.561 . S
C982 C979 1.526 . S
C982 C983 1.396 . S
C982 C987 1.390 . S
C983 C977 1.465 . S
C983 C982 1.396 . S
C983 C984 1.399 . S
C984 H970 0.929 . S
C984 C983 1.399 . S
C984 C985 1.385 . S
C985 H971 0.931 . S
C985 C984 1.385 . S
C985 C986 1.389 . S
C986 C985 1.389 . S
C986 C987 1.387 . S
C987 H972 0.930 . S
C987 C982 1.390 . S
C987 C986 1.387 . S
H988 C1000 0.930 . S
H989 C1002 0.930 . S
H990 C1003 0.930 . S
H991 C1007 0.959 . S
H992 C1007 0.959 . S
H993 C1007 0.961 . S
H994 C1008 0.960 . S
H995 C1008 0.961 . S
H996 C1008 0.959 . S
H997 C1011 0.929 . S
H998 C1012 0.931 . S
H999 C1014 0.930 . S
C1000 H988 0.930 . S
C1000 C1001 1.399 . S
C1000 C1005 1.399 . S
C1001 C1000 1.399 . S
C1001 C1002 1.376 . S
C1002 H989 0.930 . S
C1002 C1001 1.376 . S
C1002 C1003 1.388 . S
C1003 H990 0.930 . S
C1003 C1002 1.388 . S
C1003 C1004 1.390 . S
C1004 C1003 1.390 . S
C1004 C1005 1.394 . S
C1004 C1010 1.465 . S
C1005 C1000 1.399 . S
C1005 C1004 1.394 . S
C1005 C1006 1.516 . S
C1006 C1005 1.516 . S
C1006 C1007 1.502 . S
C1006 C1008 1.561 . S
C1006 C1009 1.526 . S
C1007 H991 0.959 . S
C1007 H992 0.959 . S
C1007 H993 0.961 . S
C1007 C1006 1.502 . S
C1008 H994 0.960 . S
C1008 H995 0.961 . S
C1008 H996 0.959 . S
C1008 C1006 1.561 . S
C1009 C1006 1.526 . S
C1009 C1010 1.396 . S
C1009 C1014 1.390 . S
C1010 C1004 1.465 . S
C1010 C1009 1.396 . S
C1010 C1011 1.399 . S
C1011 H997 0.929 . S
C1011 C1010 1.399 . S
C1011 C1012 1.385 . S
C1012 H998 0.931 . S
C1012 C1011 1.385 . S
C1012 C1013 1.389 . S
C1013 C1012 1.389 . S
C1013 C1014 1.387 . S
C1014 H999 0.930 . S
C1014 C1009 1.390 . S
C1014 C1013 1.387 . S
H1015 C1027 0.930 . S
H1016 C1029 0.930 . S
H1017 C1030 0.930 . S
H1018 C1034 0.959 . S
H1019 C1034 0.959 . S
H1020 C1034 0.961 . S
H1021 C1035 0.960 . S
H1022 C1035 0.961 . S
H1023 C1035 0.959 . S
H1024 C1038 0.929 . S
H1025 C1039 0.931 . S
H1026 C1041 0.930 . S
C1027 H1015 0.930 . S
C1027 C1028 1.407 . S
C1027 C1032 1.399 . S
C1028 C1027 1.407 . S
C1028 C1029 1.365 1_565 S
C1029 H1016 0.930 . S
C1029 C1028 1.365 1_545 S
C1029 C1030 1.388 . S
C1030 H1017 0.930 . S
C1030 C1029 1.388 . S
C1030 C1031 1.390 . S
C1031 C1030 1.390 . S
C1031 C1032 1.394 1_545 S
C1031 C1037 1.465 1_545 S
C1032 C1027 1.399 . S
C1032 C1031 1.394 1_565 S
C1032 C1033 1.516 . S
C1033 C1032 1.516 . S
C1033 C1034 1.502 . S
C1033 C1035 1.561 . S
C1033 C1036 1.526 . S
C1034 H1018 0.959 . S
C1034 H1019 0.959 . S
C1034 H1020 0.961 . S
C1034 C1033 1.502 . S
C1035 H1021 0.960 . S
C1035 H1022 0.961 . S
C1035 H1023 0.959 . S
C1035 C1033 1.561 . S
C1036 C1033 1.526 . S
C1036 C1037 1.396 . S
C1036 C1041 1.390 . S
C1037 C1031 1.465 1_565 S
C1037 C1036 1.396 . S
C1037 C1038 1.399 1_565 S
C1038 H1024 0.929 . S
C1038 C1037 1.399 1_545 S
C1038 C1039 1.385 . S
C1039 H1025 0.931 . S
C1039 C1038 1.385 . S
C1039 C1040 1.389 1_545 S
C1040 C1039 1.389 1_565 S
C1040 C1041 1.387 . S
C1041 H1026 0.930 . S
C1041 C1036 1.390 . S
C1041 C1040 1.387 . S
H1042 C1054 0.930 . S
H1043 C1056 0.930 . S
H1044 C1057 0.930 . S
H1045 C1061 0.959 . S
H1046 C1061 0.959 . S
H1047 C1061 0.961 . S
H1048 C1062 0.960 . S
H1049 C1062 0.961 . S
H1050 C1062 0.959 . S
H1051 C1065 0.929 . S
H1052 C1066 0.931 . S
H1053 C1068 0.930 . S
C1054 H1042 0.930 . S
C1054 C1055 1.399 . S
C1054 C1059 1.399 . S
C1055 C1054 1.399 . S
C1055 C1056 1.376 . S
C1056 H1043 0.930 . S
C1056 C1055 1.376 . S
C1056 C1057 1.388 . S
C1057 H1044 0.930 . S
C1057 C1056 1.388 . S
C1057 C1058 1.390 . S
C1058 C1057 1.390 . S
C1058 C1059 1.394 . S
C1058 C1064 1.465 . S
C1059 C1054 1.399 . S
C1059 C1058 1.394 . S
C1059 C1060 1.516 . S
C1060 C1059 1.516 . S
C1060 C1061 1.502 . S
C1060 C1062 1.561 . S
C1060 C1063 1.526 . S
C1061 H1045 0.959 . S
C1061 H1046 0.959 . S
C1061 H1047 0.961 . S
C1061 C1060 1.502 . S
C1062 H1048 0.960 . S
C1062 H1049 0.961 . S
C1062 H1050 0.959 . S
C1062 C1060 1.561 . S
C1063 C1060 1.526 . S
C1063 C1064 1.396 . S
C1063 C1068 1.390 . S
C1064 C1058 1.465 . S
C1064 C1063 1.396 . S
C1064 C1065 1.399 . S
C1065 H1051 0.929 . S
C1065 C1064 1.399 . S
C1065 C1066 1.385 . S
C1066 H1052 0.931 . S
C1066 C1065 1.385 . S
C1066 C1067 1.389 . S
C1067 C1066 1.389 . S
C1067 C1068 1.387 . S
C1068 H1053 0.930 . S
C1068 C1063 1.390 . S
C1068 C1067 1.387 . S
H1069 C1081 0.930 . S
H1070 C1083 0.930 . S
H1071 C1084 0.930 . S
H1072 C1088 0.959 . S
H1073 C1088 0.959 . S
H1074 C1088 0.961 . S
H1075 C1089 0.960 . S
H1076 C1089 0.961 . S
H1077 C1089 0.959 . S
H1078 C1092 0.929 . S
H1079 C1093 0.931 . S
H1080 C1095 0.930 . S
C1081 H1069 0.930 . S
C1081 C1082 1.399 . S
C1081 C1086 1.399 . S
C1082 C1081 1.399 . S
C1082 C1083 1.376 . S
C1083 H1070 0.930 . S
C1083 C1082 1.376 . S
C1083 C1084 1.388 . S
C1084 H1071 0.930 . S
C1084 C1083 1.388 . S
C1084 C1085 1.390 . S
C1085 C1084 1.390 . S
C1085 C1086 1.394 . S
C1085 C1091 1.465 . S
C1086 C1081 1.399 . S
C1086 C1085 1.394 . S
C1086 C1087 1.516 . S
C1087 C1086 1.516 . S
C1087 C1088 1.502 . S
C1087 C1089 1.561 . S
C1087 C1090 1.526 . S
C1088 H1072 0.959 . S
C1088 H1073 0.959 . S
C1088 H1074 0.961 . S
C1088 C1087 1.502 . S
C1089 H1075 0.960 . S
C1089 H1076 0.961 . S
C1089 H1077 0.959 . S
C1089 C1087 1.561 . S
C1090 C1087 1.526 . S
C1090 C1091 1.396 . S
C1090 C1095 1.390 . S
C1091 C1085 1.465 . S
C1091 C1090 1.396 . S
C1091 C1092 1.399 . S
C1092 H1078 0.929 . S
C1092 C1091 1.399 . S
C1092 C1093 1.385 . S
C1093 H1079 0.931 . S
C1093 C1092 1.385 . S
C1093 C1094 1.389 . S
C1094 C1093 1.389 . S
C1094 C1095 1.387 . S
C1095 H1080 0.930 . S
C1095 C1090 1.390 . S
C1095 C1094 1.387 . S
C461 C241 0.956 1_565 S
C473 C297 0.892 . S
C500 C337 1.933 . S
C488 C277 1.998 . S
C527 C386 1.654 . S
C515 C169 1.586 . S
C554 C417 2.204 . S
C542 C205 2.187 . S
C581 C306 0.971 . S
C569 C97 0.932 . S
C596 C133 2.075 . S
C608 C346 1.913 . S
C623 C25 1.705 1_556 S
C635 C377 1.690 . S
C650 C61 2.096 1_556 S
C662 C426 2.205 1_655 S
C689 C307 1.461 . S
C677 C211 1.352 . S
C716 C347 0.911 . S
C704 C247 0.965 . S
C743 C383 0.689 . S
C731 C253 0.576 . S
C758 C175 1.318 . S
C770 C427 1.558 . S
C785 C67 1.277 . S
C797 C298 1.465 1_655 S
C824 C338 0.915 . S
C812 C103 0.963 . S
C851 C374 0.681 . S
C839 C109 0.613 . S
C866 C31 1.443 . S
C878 C418 1.538 . S
C893 C181 2.110 . S
C905 C303 2.190 . S
C920 C217 1.676 . S
C932 C343 1.703 . S
C959 C387 2.914 . S
C947 C283 2.571 . S
C986 C423 1.816 . S
C974 C145 1.701 . S
C1001 C37 2.100 . S
C1013 C294 2.199 . S
C1040 C334 1.703 . S
C1028 C73 1.717 1_565 S
C1067 C378 2.912 . S
C1055 C139 2.642 . S
C1082 C1 1.766 . S
C1094 C414 1.775 . S
