# Generated by pormake.
# Topology csq, (4,8)-cn, num edge types: 1
# Building blocks:
#     Node 0, Type 0, BuildingBlock: NAWXER_clean_linker_0, # of connection points: 4
#     Node 1, Type 0, BuildingBlock: NAWXER_clean_linker_0, # of connection points: 4
#     Node 2, Type 0, BuildingBlock: NAWXER_clean_linker_0, # of connection points: 4
#     Node 3, Type 0, BuildingBlock: NAWXER_clean_linker_0, # of connection points: 4
#     Node 4, Type 0, BuildingBlock: NAWXER_clean_linker_0, # of connection points: 4
#     Node 5, Type 0, BuildingBlock: NAWXER_clean_linker_0, # of connection points: 4
#     Node 6, Type 1, BuildingBlock: TAGTUT_clean_sbu_1, # of connection points: 8
#     Node 7, Type 1, BuildingBlock: TAGTUT_clean_sbu_1, # of connection points: 8
#     Node 8, Type 1, BuildingBlock: TAGTUT_clean_sbu_1, # of connection points: 8
#     Edge 9, Type (0, 1), BuildingBlock: TEMPAE_clean_linker_10, # of connection points: 2
#     Edge 10, Type (0, 1), BuildingBlock: TEMPAE_clean_linker_10, # of connection points: 2
#     Edge 11, Type (0, 1), BuildingBlock: TEMPAE_clean_linker_10, # of connection points: 2
#     Edge 12, Type (0, 1), BuildingBlock: TEMPAE_clean_linker_10, # of connection points: 2
#     Edge 13, Type (0, 1), BuildingBlock: TEMPAE_clean_linker_10, # of connection points: 2
#     Edge 14, Type (0, 1), BuildingBlock: TEMPAE_clean_linker_10, # of connection points: 2
#     Edge 15, Type (0, 1), BuildingBlock: TEMPAE_clean_linker_10, # of connection points: 2
#     Edge 16, Type (0, 1), BuildingBlock: TEMPAE_clean_linker_10, # of connection points: 2
#     Edge 17, Type (0, 1), BuildingBlock: TEMPAE_clean_linker_10, # of connection points: 2
#     Edge 18, Type (0, 1), BuildingBlock: TEMPAE_clean_linker_10, # of connection points: 2
#     Edge 19, Type (0, 1), BuildingBlock: TEMPAE_clean_linker_10, # of connection points: 2
#     Edge 20, Type (0, 1), BuildingBlock: TEMPAE_clean_linker_10, # of connection points: 2
#     Edge 21, Type (0, 1), BuildingBlock: TEMPAE_clean_linker_10, # of connection points: 2
#     Edge 22, Type (0, 1), BuildingBlock: TEMPAE_clean_linker_10, # of connection points: 2
#     Edge 23, Type (0, 1), BuildingBlock: TEMPAE_clean_linker_10, # of connection points: 2
#     Edge 24, Type (0, 1), BuildingBlock: TEMPAE_clean_linker_10, # of connection points: 2
#     Edge 25, Type (0, 1), BuildingBlock: TEMPAE_clean_linker_10, # of connection points: 2
#     Edge 26, Type (0, 1), BuildingBlock: TEMPAE_clean_linker_10, # of connection points: 2
#     Edge 27, Type (0, 1), BuildingBlock: TEMPAE_clean_linker_10, # of connection points: 2
#     Edge 28, Type (0, 1), BuildingBlock: TEMPAE_clean_linker_10, # of connection points: 2
#     Edge 29, Type (0, 1), BuildingBlock: TEMPAE_clean_linker_10, # of connection points: 2
#     Edge 30, Type (0, 1), BuildingBlock: TEMPAE_clean_linker_10, # of connection points: 2
#     Edge 31, Type (0, 1), BuildingBlock: TEMPAE_clean_linker_10, # of connection points: 2
#     Edge 32, Type (0, 1), BuildingBlock: TEMPAE_clean_linker_10, # of connection points: 2
# Relax obj value: 0.031
# Max RMSD: 0.126
# Mean RMSD: 0.041
data_MOF--net-csq--node1-TAGTUT_clean_sbu_1--node2-NAWXER_clean_linker_0--edge1-TEMPAE_clean_linker_10
_symmetry_space_group_name_H-M    P1
_symmetry_Int_Tables_number       1
_symmetry_cell_setting            triclinic
loop_
_symmetry_equiv_pos_as_xyz
'x, y, z'
_cell_length_a     61.999932
_cell_length_b     61.204994
_cell_length_c     22.590323
_cell_angle_alpha  92.762652
_cell_angle_beta   92.167305
_cell_angle_gamma 119.82324
loop_
_atom_site_label
_atom_site_type_symbol
_atom_site_fract_x
_atom_site_fract_y
_atom_site_fract_z
_atom_type_partial_charge
C0 C 0.32838 0.51549 0.06093 0.0
C1 C 0.32389 0.49568 0.01908 0.0
C2 C 0.31024 0.51267 0.09978 0.0
C3 C 0.28718 0.49013 0.09672 0.0
C4 C 0.30122 0.4728 0.01777 0.0
C5 C 0.28291 0.47018 0.05569 0.0
C6 C 0.26626 0.48873 0.12905 0.0
C7 C 0.31205 0.48044 0.27608 0.0
C8 C 0.32323 0.50083 0.31983 0.0
C9 C 0.29491 0.47912 0.23219 0.0
C10 C 0.28838 0.498 0.23148 0.0
C11 C 0.31692 0.51994 0.31822 0.0
C12 C 0.29943 0.51836 0.27486 0.0
C13 C 0.2678 0.49484 0.19053 0.0
C14 C 0.16532 0.47004 0.24767 0.0
C15 C 0.17112 0.49137 0.28617 0.0
C16 C 0.18317 0.46997 0.21149 0.0
C17 C 0.2072 0.49114 0.21343 0.0
C18 C 0.19507 0.51275 0.28642 0.0
C19 C 0.21294 0.51249 0.25108 0.0
C20 C 0.22728 0.49043 0.18154 0.0
C21 C 0.17924 0.49452 0.03059 0.0
C22 C 0.1735 0.47724 0.9812 0.0
C23 C 0.195 0.49581 0.07823 0.0
C24 C 0.20471 0.47937 0.0777 0.0
C25 C 0.1824 0.46023 0.98161 0.0
C26 C 0.19773 0.46119 0.02957 0.0
C27 C 0.22552 0.48378 0.12001 0.0
H28 H 0.34577 0.53328 0.06289 0.0
H29 H 0.31376 0.52852 0.13016 0.0
H30 H 0.29726 0.4573 0.9857 0.0
H31 H 0.26512 0.45278 0.052 0.0
H32 H 0.31602 0.46511 0.27654 0.0
H33 H 0.28601 0.46282 0.20024 0.0
H34 H 0.32546 0.53615 0.35041 0.0
H35 H 0.2944 0.53297 0.27538 0.0
H36 H 0.14724 0.45311 0.24665 0.0
H37 H 0.17849 0.45309 0.18365 0.0
H38 H 0.20012 0.52977 0.31408 0.0
H39 H 0.2314 0.52901 0.25338 0.0
H40 H 0.17267 0.50795 0.03079 0.0
H41 H 0.20075 0.51068 0.11335 0.0
H42 H 0.17801 0.44663 0.94409 0.0
H43 H 0.2051 0.44842 0.02779 0.0
N44 N 0.24516 0.48332 0.09648 0.0
N45 N 0.24836 0.49562 0.2143 0.0
C46 C 0.69592 0.17668 0.22351 0.0
C47 C 0.7048 0.17345 0.27872 0.0
C48 C 0.71261 0.1912 0.18238 0.0
C49 C 0.73842 0.20223 0.1953 0.0
C50 C 0.73056 0.18419 0.2912 0.0
C51 C 0.74715 0.19838 0.24991 0.0
C52 C 0.75689 0.22048 0.15725 0.0
C53 C 0.72333 0.15589 0.99593 0.0
C54 C 0.70543 0.15994 0.966 0.0
C55 C 0.73951 0.17326 0.04177 0.0
C56 C 0.73772 0.19461 0.05862 0.0
C57 C 0.70336 0.18103 0.98456 0.0
C58 C 0.71956 0.19834 0.0298 0.0
C59 C 0.75778 0.21582 0.09577 0.0
C60 C 0.86214 0.29907 0.05835 0.0
C61 C 0.85841 0.30516 0.00111 0.0
C62 C 0.8419 0.28216 0.08838 0.0
C63 C 0.81749 0.27145 0.06235 0.0
C64 C 0.83405 0.29339 0.97397 0.0
C65 C 0.81379 0.27667 0.00431 0.0
C66 C 0.79583 0.25484 0.09548 0.0
C67 C 0.83113 0.3315 0.1896 0.0
C68 C 0.84219 0.33319 0.24626 0.0
C69 C 0.81498 0.30791 0.16022 0.0
C70 C 0.81001 0.28568 0.18661 0.0
C71 C 0.83653 0.31088 0.27327 0.0
C72 C 0.82047 0.28734 0.24382 0.0
C73 C 0.79356 0.26068 0.15519 0.0
H74 H 0.67612 0.16883 0.21319 0.0
H75 H 0.70525 0.19473 0.14215 0.0
H76 H 0.73788 0.18178 0.33316 0.0
H77 H 0.76698 0.20686 0.26127 0.0
H78 H 0.72546 0.13989 0.98244 0.0
H79 H 0.75402 0.17059 0.06231 0.0
H80 H 0.68943 0.18442 0.96343 0.0
H81 H 0.71842 0.21513 0.0412 0.0
H82 H 0.88062 0.3078 0.08061 0.0
H83 H 0.84533 0.27776 0.13239 0.0
H84 H 0.8306 0.2972 0.92933 0.0
H85 H 0.79517 0.26828 0.98294 0.0
H86 H 0.83494 0.34838 0.16814 0.0
H87 H 0.80646 0.30703 0.11676 0.0
H88 H 0.84506 0.31161 0.31663 0.0
H89 H 0.81669 0.27041 0.2651 0.0
N90 N 0.77472 0.24298 0.18431 0.0
N91 N 0.77745 0.23294 0.0675 0.0
C92 C 0.55095 0.6992 0.0349 0.0
C93 C 0.53614 0.68453 0.98386 0.0
C94 C 0.55032 0.72069 0.05573 0.0
C95 C 0.53391 0.72728 0.02802 0.0
C96 C 0.52069 0.69202 0.95446 0.0
C97 C 0.51945 0.71301 0.9766 0.0
C98 C 0.53187 0.74915 0.05158 0.0
C99 C 0.51027 0.69336 0.18647 0.0
C100 C 0.53092 0.70072 0.22674 0.0
C101 C 0.50913 0.71101 0.15154 0.0
C102 C 0.52851 0.73625 0.15695 0.0
C103 C 0.5496 0.72625 0.23445 0.0
C104 C 0.54822 0.74401 0.2003 0.0
C105 C 0.52987 0.75371 0.11266 0.0
C106 C 0.50234 0.83377 0.11651 0.0
C107 C 0.52321 0.85572 0.14282 0.0
C108 C 0.50406 0.81235 0.10121 0.0
C109 C 0.52651 0.8125 0.11318 0.0
C110 C 0.54568 0.85582 0.15455 0.0
C111 C 0.54725 0.83425 0.14025 0.0
C112 C 0.52897 0.79085 0.09183 0.0
C113 C 0.55178 0.84661 0.95689 0.0
C114 C 0.53075 0.84045 0.91884 0.0
C115 C 0.55228 0.82846 0.99099 0.0
C116 C 0.53178 0.80388 0.98772 0.0
C117 C 0.51069 0.81545 0.9137 0.0
C118 C 0.51123 0.79727 0.94792 0.0
C119 C 0.53068 0.78623 0.03111 0.0
H120 H 0.56307 0.69418 0.05906 0.0
H121 H 0.56272 0.7321 0.09361 0.0
H122 H 0.50971 0.68193 0.91373 0.0
H123 H 0.50705 0.71802 0.95361 0.0
H124 H 0.49568 0.67375 0.17988 0.0
H125 H 0.49374 0.70476 0.11833 0.0
H126 H 0.56558 0.7323 0.2657 0.0
H127 H 0.56333 0.76342 0.20494 0.0
H128 H 0.48482 0.8333 0.10749 0.0
H129 H 0.48799 0.79573 0.07955 0.0
H130 H 0.56188 0.87246 0.17572 0.0
H131 H 0.56478 0.83469 0.14897 0.0
H132 H 0.56772 0.86556 0.96092 0.0
H133 H 0.56834 0.83381 0.02143 0.0
H134 H 0.49419 0.81018 0.88499 0.0
H135 H 0.49517 0.7784 0.94538 0.0
N136 N 0.53195 0.7655 0.01278 0.0
N137 N 0.52869 0.77455 0.13085 0.0
C138 C 0.84142 0.527 0.9934 0.0
C139 C 0.83521 0.50766 0.94834 0.0
C140 C 0.82333 0.5262 0.03007 0.0
C141 C 0.79871 0.50591 0.02278 0.0
C142 C 0.81064 0.48724 0.94192 0.0
C143 C 0.79266 0.48642 0.97856 0.0
C144 C 0.77831 0.5063 0.05434 0.0
C145 C 0.82618 0.50414 0.20848 0.0
C146 C 0.83196 0.52203 0.25659 0.0
C147 C 0.81017 0.50203 0.16045 0.0
C148 C 0.80022 0.51825 0.15921 0.0
C149 C 0.82258 0.53864 0.25462 0.0
C150 C 0.80698 0.53684 0.2063 0.0
C151 C 0.77973 0.51357 0.1154 0.0
C152 C 0.67811 0.48717 0.1746 0.0
C153 C 0.68393 0.50839 0.2133 0.0
C154 C 0.69535 0.4879 0.13505 0.0
C155 C 0.7188 0.50974 0.13425 0.0
C156 C 0.70696 0.53056 0.2103 0.0
C157 C 0.7243 0.53112 0.17172 0.0
C158 C 0.73916 0.50914 0.10329 0.0
C159 C 0.69518 0.51484 0.94583 0.0
C160 C 0.68767 0.49586 0.89924 0.0
C161 C 0.70997 0.51577 0.99516 0.0
C162 C 0.71746 0.49766 0.99887 0.0
C163 C 0.69429 0.47716 0.90422 0.0
C164 C 0.70918 0.47816 0.9534 0.0
C165 C 0.73767 0.50171 0.04251 0.0
H166 H 0.86023 0.54289 0.99999 0.0
H167 H 0.82842 0.54187 0.06258 0.0
H168 H 0.80505 0.47219 0.9073 0.0
H169 H 0.77374 0.47074 0.97133 0.0
H170 H 0.83311 0.49102 0.20939 0.0
H171 H 0.80463 0.48692 0.12607 0.0
H172 H 0.827 0.55273 0.29099 0.0
H173 H 0.79944 0.54946 0.20674 0.0
H174 H 0.66043 0.46988 0.17578 0.0
H175 H 0.69087 0.47101 0.10749 0.0
H176 H 0.71203 0.54713 0.23979 0.0
H177 H 0.74241 0.54804 0.17252 0.0
H178 H 0.68993 0.52925 0.94367 0.0
H179 H 0.71667 0.53144 0.02858 0.0
H180 H 0.68874 0.4623 0.8691 0.0
H181 H 0.71505 0.4642 0.95486 0.0
N182 N 0.75729 0.50064 0.0208 0.0
N183 N 0.76009 0.5147 0.13698 0.0
C184 C 0.30462 0.84005 0.99749 0.0
C185 C 0.31416 0.82936 0.95712 0.0
C186 C 0.28842 0.82549 0.03917 0.0
C187 C 0.28162 0.79999 0.04184 0.0
C188 C 0.30744 0.80388 0.95999 0.0
C189 C 0.29128 0.78935 0.0018 0.0
C190 C 0.26242 0.78363 0.08136 0.0
C191 C 0.3235 0.83525 0.22008 0.0
C192 C 0.31798 0.85072 0.25713 0.0
C193 C 0.30539 0.81707 0.1788 0.0
C194 C 0.28136 0.8139 0.17404 0.0
C195 C 0.2942 0.84824 0.25014 0.0
C196 C 0.27599 0.82979 0.20945 0.0
C197 C 0.26094 0.79145 0.14026 0.0
C198 C 0.17789 0.69721 0.22741 0.0
C199 C 0.16194 0.70555 0.2483 0.0
C200 C 0.1982 0.71288 0.19592 0.0
C201 C 0.20277 0.73707 0.1843 0.0
C202 C 0.16705 0.73011 0.23824 0.0
C203 C 0.18744 0.74582 0.2068 0.0
C204 C 0.223 0.75295 0.14702 0.0
C205 C 0.16335 0.68794 0.03271 0.0
C206 C 0.17115 0.67199 0.00664 0.0
C207 C 0.1808 0.71177 0.0586 0.0
C208 C 0.20634 0.71979 0.06021 0.0
C209 C 0.19672 0.68021 0.00708 0.0
C210 C 0.2142 0.70396 0.03377 0.0
C211 C 0.22493 0.74466 0.08918 0.0
H212 H 0.3091 0.8595 0.9957 0.0
H213 H 0.28053 0.834 0.06778 0.0
H214 H 0.31468 0.79518 0.92992 0.0
H215 H 0.28615 0.76966 0.0025 0.0
H216 H 0.34145 0.83631 0.22479 0.0
H217 H 0.30974 0.80453 0.15311 0.0
H218 H 0.28946 0.86018 0.27699 0.0
H219 H 0.25746 0.82746 0.20674 0.0
H220 H 0.17434 0.67833 0.23422 0.0
H221 H 0.21007 0.70594 0.17962 0.0
H222 H 0.15526 0.73714 0.25461 0.0
H223 H 0.19084 0.76453 0.19859 0.0
H224 H 0.14376 0.68232 0.03135 0.0
H225 H 0.17434 0.72399 0.07694 0.0
H226 H 0.20314 0.6683 0.98665 0.0
H227 H 0.23384 0.70991 0.03418 0.0
N228 N 0.24446 0.76034 0.05839 0.0
N229 N 0.2411 0.77596 0.17049 0.0
C230 C 0.50884 0.18227 0.12284 0.0
C231 C 0.49577 0.16855 0.0695 0.0
C232 C 0.5048 0.20118 0.14743 0.0
C233 C 0.48692 0.20591 0.12013 0.0
C234 C 0.47934 0.17465 0.03995 0.0
C235 C 0.47493 0.1932 0.06513 0.0
C236 C 0.47957 0.22297 0.15 0.0
C237 C 0.46054 0.15766 0.25823 0.0
C238 C 0.47376 0.16456 0.3143 0.0
C239 C 0.45934 0.1758 0.22527 0.0
C240 C 0.47208 0.20136 0.24671 0.0
C241 C 0.48513 0.18995 0.33715 0.0
C242 C 0.48433 0.20814 0.30363 0.0
C243 C 0.47321 0.2212 0.20977 0.0
C244 C 0.44013 0.29856 0.23902 0.0
C245 C 0.45533 0.31311 0.28969 0.0
C246 C 0.44334 0.27945 0.21196 0.0
C247 C 0.462 0.27487 0.23477 0.0
C248 C 0.47332 0.30773 0.31351 0.0
C249 C 0.47649 0.28867 0.28653 0.0
C250 C 0.46763 0.25679 0.20354 0.0
C251 C 0.48682 0.32196 0.09525 0.0
C252 C 0.47267 0.31502 0.04064 0.0
C253 C 0.48802 0.30369 0.12758 0.0
C254 C 0.47438 0.27806 0.10683 0.0
C255 C 0.46022 0.2896 0.01819 0.0
C256 C 0.46103 0.27124 0.05114 0.0
C257 C 0.47347 0.25826 0.14348 0.0
H258 H 0.52185 0.17807 0.14587 0.0
H259 H 0.5149 0.2114 0.18897 0.0
H260 H 0.46903 0.16426 0.99872 0.0
H261 H 0.4613 0.19677 0.04301 0.0
H262 H 0.45158 0.13836 0.23901 0.0
H263 H 0.44904 0.16994 0.18225 0.0
H264 H 0.49481 0.19585 0.3809 0.0
H265 H 0.49387 0.22767 0.32158 0.0
H266 H 0.42588 0.30203 0.22022 0.0
H267 H 0.43168 0.26865 0.1725 0.0
H268 H 0.48555 0.3188 0.35203 0.0
H269 H 0.49097 0.2854 0.30474 0.0
H270 H 0.49698 0.34153 0.11281 0.0
H271 H 0.49922 0.30955 0.16938 0.0
H272 H 0.44929 0.28387 0.97598 0.0
H273 H 0.45065 0.25162 0.03396 0.0
N274 N 0.47906 0.24116 0.11878 0.0
N275 N 0.46787 0.23844 0.23453 0.0
C276 C 0.98784 0.43478 0.76355 0.0
C277 C 0.05789 0.48082 0.68623 0.0
C278 C 0.0375 0.55535 0.71415 0.0
Mg279 Mg 0.00346 0.45148 0.63723 0.0
O280 O -0.0016 0.4777 0.66693 0.0
Mg281 Mg 0.01778 0.49724 0.74264 0.0
Mg282 Mg 0.00671 0.50664 0.61807 0.0
O283 O 0.01505 0.53573 0.56956 0.0
Mg284 Mg 0.00962 0.56172 0.59956 0.0
Mg285 Mg 0.99613 0.51638 0.49351 0.0
C286 C 0.9766 0.45815 0.52142 0.0
C287 C 0.04285 0.50717 0.5154 0.0
O288 O -0.0012 0.45817 0.78343 0.0
O289 O 0.98683 0.42795 0.70846 0.0
O290 O 0.05106 0.49262 0.72199 0.0
O291 O 0.04276 0.46424 0.64623 0.0
O292 O 0.98377 0.44485 0.54979 0.0
O293 O 0.98086 0.47985 0.54274 0.0
C294 C 0.97164 0.50748 0.72208 0.0
O295 O 0.97551 0.50972 0.66653 0.0
O296 O 0.98493 0.50254 0.75767 0.0
O297 O 0.01477 0.55548 0.45354 0.0
O298 O 0.02599 0.58556 0.52843 0.0
O299 O 0.96238 0.52017 0.51421 0.0
C300 C 0.02533 0.57883 0.47342 0.0
O301 O 0.96999 0.54796 0.59105 0.0
O302 O 0.03007 0.56858 0.68636 0.0
C303 C 0.95515 0.5314 0.55056 0.0
O304 O 0.03288 0.53352 0.69283 0.0
O305 O 0.03782 0.5035 0.57 0.0
O306 O 0.03002 0.51247 0.47925 0.0
C307 C 0.47771 0.02277 0.82882 0.0
C308 C 0.4393 0.95419 0.71265 0.0
C309 C 0.5298 0.97137 0.66833 0.0
Mg310 Mg 0.46315 0.01044 0.69311 0.0
O311 O 0.49508 0.01411 0.69679 0.0
Mg312 Mg 0.50107 0.99218 0.75033 0.0
Mg313 Mg 0.50734 0.00663 0.62274 0.0
O314 O 0.51935 -0.00107 0.5491 0.0
Mg315 Mg 0.55103 0.00207 0.55424 0.0
Mg316 Mg 0.51387 0.02112 0.49533 0.0
C317 C 0.48473 0.04199 0.57901 0.0
C318 C 0.46003 0.97586 0.52665 0.0
O319 O 0.4904 0.01139 0.82594 0.0
O320 O 0.46596 0.02473 0.7833 0.0
O321 O 0.46054 0.9597 0.73687 0.0
O322 O 0.43598 0.97063 0.68742 0.0
O323 O 0.46863 0.03404 0.61861 0.0
O324 O 0.50204 0.03621 0.57687 0.0
C325 C 0.5543 0.03856 0.71953 0.0
O326 O 0.54671 0.03555 0.66451 0.0
O327 O 0.54047 0.0247 0.7585 0.0
O328 O 0.52477 0.00159 0.41984 0.0
O329 O 0.54819 0.98759 0.46474 0.0
O330 O 0.55481 0.05311 0.50819 0.0
C331 C 0.53721 0.98987 0.41816 0.0
O332 O 0.57868 0.04149 0.55817 0.0
O333 O 0.54623 0.97908 0.62956 0.0
C334 C 0.57595 0.05808 0.53209 0.0
O335 O 0.51263 0.9773 0.66852 0.0
O336 O 0.46812 0.97777 0.58088 0.0
O337 O 0.47378 0.98978 0.48759 0.0
C338 C 0.54407 0.57009 0.45331 0.0
C339 C 0.56822 0.51732 0.49999 0.0
C340 C 0.47197 0.45607 0.54175 0.0
Mg341 Mg 0.55874 0.55547 0.57223 0.0
O342 O 0.52429 0.53278 0.56431 0.0
Mg343 Mg 0.5101 0.50992 0.49002 0.0
Mg344 Mg 0.50829 0.50788 0.62456 0.0
O345 O 0.4921 0.48297 0.6847 0.0
Mg346 Mg 0.45747 0.46055 0.67551 0.0
Mg347 Mg 0.5052 0.50691 0.75775 0.0
C348 C 0.54382 0.56045 0.7051 0.0
C349 C 0.5515 0.50456 0.7019 0.0
O350 O 0.52736 0.54682 0.44022 0.0
O351 O 0.55786 0.57755 0.50207 0.0
O352 O 0.5456 0.50752 0.47911 0.0
O353 O 0.57738 0.53525 0.5413 0.0
O354 O 0.55965 0.56913 0.66494 0.0
O355 O 0.52296 0.53969 0.69632 0.0
C356 C 0.46522 0.51297 0.55157 0.0
O357 O 0.4731 0.51052 0.60263 0.0
O358 O 0.47606 0.51327 0.50438 0.0
O359 O 0.48766 0.47066 0.80894 0.0
O360 O 0.45705 0.43899 0.749 0.0
O361 O 0.46944 0.50913 0.76494 0.0
C362 C 0.47073 0.44734 0.798 0.0
O363 O 0.43855 0.48079 0.70183 0.0
O364 O 0.45619 0.44743 0.58203 0.0
C365 C 0.44704 0.49896 0.74228 0.0
O366 O 0.49318 0.47642 0.55126 0.0
O367 O 0.54376 0.50535 0.64886 0.0
O368 O 0.53965 0.50466 0.7469 0.0
C369 C 0.12707 0.47933 0.3074 0.0
C370 C 0.1525 0.49148 0.32622 0.0
C371 C 0.10965 0.48049 0.34357 0.0
C372 C 0.11785 0.49453 0.39953 0.0
C373 C 0.1433 0.50621 0.41961 0.0
C374 C 0.16023 0.50431 0.38309 0.0
C375 C 0.08257 0.46741 0.32091 0.0
C376 C 0.15285 0.52155 0.4787 0.0
C377 C 0.07796 0.52192 0.44991 0.0
C378 C 0.06389 0.50538 0.49195 0.0
C379 C 0.09622 0.51914 0.42141 0.0
C380 C 0.10019 0.49894 0.43423 0.0
C381 C 0.08653 0.48257 0.47798 0.0
C382 C 0.06861 0.48612 0.5067 0.0
C383 C 0.11079 0.53744 0.37628 0.0
C384 C 0.08994 0.46061 0.4924 0.0
H385 H 0.12079 0.46953 0.26357 0.0
H386 H 0.17966 0.51318 0.39903 0.0
H387 H 0.07056 0.45574 0.35517 0.0
H388 H 0.07714 0.48172 0.3116 0.0
H389 H 0.07879 0.4551 0.27958 0.0
H390 H 0.17286 0.52807 0.48964 0.0
H391 H 0.15049 0.53836 0.47778 0.0
H392 H 0.1419 0.51032 0.51479 0.0
H393 H 0.07441 0.53694 0.4387 0.0
H394 H 0.05744 0.47306 0.53834 0.0
H395 H 0.10612 0.52735 0.33144 0.0
H396 H 0.13108 0.54551 0.3867 0.0
H397 H 0.10677 0.55319 0.37474 0.0
H398 H 0.08254 0.44629 0.4539 0.0
H399 H 0.08011 0.45149 0.53202 0.0
H400 H 0.10999 0.46682 0.50046 0.0
C401 C 0.69153 0.16999 0.38277 0.0
C402 C 0.68736 0.15947 0.324 0.0
C403 C 0.67524 0.1569 0.42624 0.0
C404 C 0.65454 0.13259 0.41061 0.0
C405 C 0.65033 0.12188 0.35131 0.0
C406 C 0.66669 0.13555 0.30862 0.0
C407 C 0.68006 0.1691 0.48864 0.0
C408 C 0.62861 0.09585 0.33299 0.0
C409 C 0.62156 0.08289 0.51867 0.0
C410 C 0.5983 0.08158 0.51761 0.0
C411 C 0.64095 0.10082 0.48755 0.0
C412 C 0.63706 0.11807 0.45565 0.0
C413 C 0.61472 0.11877 0.46049 0.0
C414 C 0.59554 0.10044 0.49126 0.0
C415 C 0.66456 0.09952 0.48389 0.0
C416 C 0.6101 0.13734 0.42859 0.0
H417 H 0.7074 0.18864 0.39452 0.0
H418 H 0.66359 0.12734 0.26333 0.0
H419 H 0.66382 0.17087 0.50113 0.0
H420 H 0.68234 0.15707 0.52059 0.0
H421 H 0.69698 0.18815 0.49352 0.0
H422 H 0.62828 0.09006 0.28544 0.0
H423 H 0.62952 0.08175 0.36051 0.0
H424 H 0.61082 0.09538 0.34068 0.0
H425 H 0.62398 0.06854 0.53931 0.0
H426 H 0.57776 0.09984 0.49108 0.0
H427 H 0.68122 0.11869 0.48857 0.0
H428 H 0.66436 0.09067 0.43966 0.0
H429 H 0.6664 0.08816 0.51854 0.0
H430 H 0.62681 0.15649 0.43386 0.0
H431 H 0.59396 0.1384 0.44507 0.0
H432 H 0.60619 0.13139 0.38038 0.0
C433 C 0.55502 0.67933 0.25081 0.0
C434 C 0.53379 0.6815 0.25758 0.0
C435 C 0.55783 0.66076 0.27835 0.0
C436 C 0.53917 0.6444 0.31443 0.0
C437 C 0.51766 0.64655 0.32133 0.0
C438 C 0.5151 0.66494 0.29217 0.0
C439 C 0.58075 0.65867 0.26896 0.0
C440 C 0.49759 0.62974 0.36034 0.0
C441 C 0.53375 0.58263 0.35679 0.0
C442 C 0.54545 0.58947 0.41437 0.0
C443 C 0.53241 0.60056 0.32263 0.0
C444 C 0.54259 0.62574 0.34719 0.0
C445 C 0.55508 0.63292 0.4045 0.0
C446 C 0.55657 0.61477 0.43712 0.0
C447 C 0.51947 0.5924 0.26104 0.0
C448 C 0.56588 0.65951 0.43253 0.0
H449 H 0.56926 0.69195 0.22316 0.0
H450 H 0.49869 0.6667 0.29716 0.0
H451 H 0.59182 0.6627 0.31187 0.0
H452 H 0.57523 0.63913 0.25215 0.0
H453 H 0.59283 0.67195 0.23702 0.0
H454 H 0.482 0.63378 0.36074 0.0
H455 H 0.48997 0.60962 0.34479 0.0
H456 H 0.50564 0.63233 0.40659 0.0
H457 H 0.52522 0.56316 0.33879 0.0
H458 H 0.56553 0.62025 0.48169 0.0
H459 H 0.53149 0.60535 0.22858 0.0
H460 H 0.50208 0.59338 0.26022 0.0
H461 H 0.51464 0.57281 0.24636 0.0
H462 H 0.57912 0.67329 0.40322 0.0
H463 H 0.57578 0.66224 0.47668 0.0
H464 H 0.55073 0.66395 0.4381 0.0
C465 C 0.8703 0.52499 0.30427 0.0
C466 C 0.84694 0.5228 0.30988 0.0
C467 C 0.88484 0.52601 0.35449 0.0
C468 C 0.87549 0.52424 0.4115 0.0
C469 C 0.85174 0.52171 0.4173 0.0
C470 C 0.83781 0.52126 0.36632 0.0
C471 C 0.91025 0.52903 0.34644 0.0
C472 C 0.84093 0.5191 0.47704 0.0
C473 C 0.91105 0.50462 0.51315 0.0
C474 C 0.93041 0.52826 0.53638 0.0
C475 C 0.89102 0.50262 0.47773 0.0
C476 C 0.89087 0.52489 0.4643 0.0
C477 C 0.90879 0.54842 0.49361 0.0
C478 C 0.92828 0.54977 0.53017 0.0
C479 C 0.87168 0.47706 0.44927 0.0
C480 C 0.90938 0.57264 0.48036 0.0
H481 H 0.87733 0.52629 0.26059 0.0
H482 H 0.81956 0.51928 0.37036 0.0
H483 H 0.92471 0.54575 0.37437 0.0
H484 H 0.91075 0.51224 0.36109 0.0
H485 H 0.91519 0.53133 0.2995 0.0
H486 H 0.8226 0.51826 0.4742 0.0
H487 H 0.8385 0.50164 0.49569 0.0
H488 H 0.85389 0.53518 0.50877 0.0
H489 H 0.91269 0.48796 0.51838 0.0
H490 H 0.94336 0.56808 0.54789 0.0
H491 H 0.87537 0.47547 0.40204 0.0
H492 H 0.85276 0.4747 0.45015 0.0
H493 H 0.87194 0.46145 0.47182 0.0
H494 H 0.91718 0.57831 0.43664 0.0
H495 H 0.92118 0.58825 0.51453 0.0
H496 H 0.89036 0.57008 0.47763 0.0
C497 C 0.32909 0.87197 0.36051 0.0
C498 C 0.33659 0.86853 0.30454 0.0
C499 C 0.34654 0.88849 0.40582 0.0
C500 C 0.37211 0.90151 0.39519 0.0
C501 C 0.37987 0.89785 0.33922 0.0
C502 C 0.362 0.88164 0.29443 0.0
C503 C 0.33762 0.89228 0.46467 0.0
C504 C 0.40705 0.91132 0.32628 0.0
C505 C 0.42049 0.96415 0.47048 0.0
C506 C 0.43435 0.95692 0.50654 0.0
C507 C 0.39862 0.94603 0.43814 0.0
C508 C 0.39093 0.92015 0.44087 0.0
C509 C 0.40378 0.91274 0.4811 0.0
C510 C 0.42537 0.93136 0.51415 0.0
C511 C 0.38505 0.95471 0.39713 0.0
C512 C 0.39624 0.88534 0.48497 0.0
H513 H 0.30955 0.86156 0.36923 0.0
H514 H 0.36798 0.87945 0.25117 0.0
H515 H 0.34694 0.88793 0.50137 0.0
H516 H 0.34271 0.91235 0.47289 0.0
H517 H 0.31712 0.88026 0.4663 0.0
H518 H 0.41009 0.90512 0.28187 0.0
H519 H 0.41436 0.93199 0.32806 0.0
H520 H 0.41813 0.9079 0.36049 0.0
H521 H 0.42752 0.98404 0.46518 0.0
H522 H 0.43629 0.92592 0.54196 0.0
H523 H 0.36461 0.94315 0.40001 0.0
H524 H 0.38907 0.95233 0.35055 0.0
H525 H 0.39088 0.97491 0.40751 0.0
H526 H 0.37574 0.87341 0.48568 0.0
H527 H 0.40522 0.88248 0.52507 0.0
H528 H 0.40193 0.8787 0.44509 0.0
C529 C 0.45076 0.35141 0.28186 0.0
C530 C 0.45316 0.33436 0.31713 0.0
C531 C 0.45125 0.37298 0.30792 0.0
C532 C 0.4546 0.37767 0.37048 0.0
C533 C 0.45609 0.36 0.40622 0.0
C534 C 0.4551 0.33848 0.3791 0.0
C535 C 0.44911 0.39111 0.26844 0.0
C536 C 0.45964 0.36425 0.47321 0.0
C537 C 0.48649 0.44148 0.45522 0.0
C538 C 0.46671 0.44019 0.48591 0.0
C539 C 0.48247 0.4222 0.41254 0.0
C540 C 0.45804 0.40152 0.39968 0.0
C541 C 0.43767 0.40185 0.42499 0.0
C542 C 0.44227 0.42109 0.46843 0.0
C543 C 0.50471 0.42258 0.38639 0.0
C544 C 0.41126 0.38064 0.41061 0.0
H545 H 0.44941 0.34841 0.23386 0.0
H546 H 0.45637 0.32505 0.40653 0.0
H547 H 0.43678 0.39768 0.28682 0.0
H548 H 0.46777 0.40798 0.26602 0.0
H549 H 0.44176 0.38243 0.22256 0.0
H550 H 0.46025 0.34853 0.49439 0.0
H551 H 0.4773 0.38203 0.4865 0.0
H552 H 0.44424 0.36627 0.49099 0.0
H553 H 0.50541 0.4563 0.46819 0.0
H554 H 0.42685 0.42034 0.49117 0.0
H555 H 0.50115 0.41766 0.33778 0.0
H556 H 0.50806 0.40823 0.40639 0.0
H557 H 0.52189 0.4413 0.39485 0.0
H558 H 0.4079 0.37453 0.36249 0.0
H559 H 0.39746 0.38623 0.4235 0.0
H560 H 0.40808 0.36414 0.43521 0.0
C561 C 0.52043 0.85532 0.82625 0.0
C562 C 0.52961 0.86028 0.88592 0.0
C563 C 0.51987 0.87415 0.79436 0.0
C564 C 0.52877 0.89852 0.82283 0.0
C565 C 0.53756 0.90351 0.88341 0.0
C566 C 0.53783 0.88431 0.91427 0.0
C567 C 0.5102 0.86811 0.72986 0.0
C568 C 0.54693 0.92919 0.91537 0.0
C569 C 0.55124 0.95142 0.71968 0.0
C570 C 0.53049 0.95473 0.71288 0.0
C571 C 0.55122 0.93378 0.75703 0.0
C572 C 0.52991 0.91904 0.78821 0.0
C573 C 0.5093 0.92301 0.78356 0.0
C574 C 0.50983 0.94081 0.74585 0.0
C575 C 0.5737 0.93032 0.76152 0.0
C576 C 0.48619 0.90768 0.81605 0.0
H577 H 0.51419 0.83685 0.80407 0.0
H578 H 0.54444 0.88808 0.96079 0.0
H579 H 0.49499 0.87246 0.72254 0.0
H580 H 0.52532 0.88007 0.70156 0.0
H581 H 0.50305 0.84796 0.71499 0.0
H582 H 0.55226 0.92971 0.96314 0.0
H583 H 0.56339 0.94358 0.89414 0.0
H584 H 0.53237 0.93467 0.91182 0.0
H585 H 0.56738 0.96224 0.69481 0.0
H586 H 0.49366 0.94311 0.74063 0.0
H587 H 0.56851 0.91111 0.7428 0.0
H588 H 0.58028 0.93201 0.80876 0.0
H589 H 0.58936 0.94436 0.73735 0.0
H590 H 0.47516 0.88853 0.79291 0.0
H591 H 0.47424 0.91645 0.81758 0.0
H592 H 0.49108 0.9054 0.8622 0.0
C593 C 0.65122 0.47325 0.82429 0.0
C594 C 0.67272 0.49561 0.84615 0.0
C595 C 0.6343 0.47381 0.78225 0.0
C596 C 0.63898 0.49727 0.76237 0.0
C597 C 0.6623 0.51919 0.77792 0.0
C598 C 0.67886 0.51815 0.82014 0.0
C599 C 0.60994 0.44986 0.76538 0.0
C600 C 0.6684 0.54438 0.75595 0.0
C601 C 0.58753 0.49961 0.669 0.0
C602 C 0.57473 0.50379 0.71407 0.0
C603 C 0.60884 0.49766 0.68323 0.0
C604 C 0.61742 0.50022 0.74369 0.0
C605 C 0.60487 0.50513 0.78885 0.0
C606 C 0.58388 0.5069 0.77347 0.0
C607 C 0.62212 0.49311 0.63369 0.0
C608 C 0.61328 0.50819 0.85407 0.0
H609 H 0.64658 0.45567 0.84348 0.0
H610 H 0.69598 0.53531 0.83529 0.0
H611 H 0.59532 0.44957 0.79278 0.0
H612 H 0.6039 0.44896 0.71802 0.0
H613 H 0.61132 0.43279 0.7731 0.0
H614 H 0.68876 0.55799 0.76072 0.0
H615 H 0.66165 0.54218 0.70867 0.0
H616 H 0.65891 0.55247 0.78225 0.0
H617 H 0.58074 0.49749 0.62297 0.0
H618 H 0.5745 0.51058 0.80879 0.0
H619 H 0.62858 0.47984 0.64574 0.0
H620 H 0.63878 0.51126 0.62532 0.0
H621 H 0.61003 0.48552 0.5917 0.0
H622 H 0.61284 0.49076 0.86735 0.0
H623 H 0.60139 0.51207 0.88337 0.0
H624 H 0.63274 0.52399 0.86227 0.0
C625 C 0.13052 0.63151 0.99961 0.0
C626 C 0.15258 0.64798 0.97406 0.0
C627 C 0.1107 0.61137 0.96515 0.0
C628 C 0.11297 0.60814 0.90372 0.0
C629 C 0.13598 0.62345 0.87899 0.0
C630 C 0.15561 0.64314 0.91469 0.0
C631 C 0.08672 0.59493 0.99346 0.0
C632 C 0.13913 0.6207 0.81355 0.0
C633 C 0.06562 0.55491 0.7962 0.0
C634 C 0.05345 0.56658 0.76994 0.0
C635 C 0.08404 0.56751 0.84293 0.0
C636 C 0.09047 0.59236 0.86328 0.0
C637 C 0.07706 0.60351 0.83973 0.0
C638 C 0.05862 0.59041 0.79361 0.0
C639 C 0.09754 0.55482 0.8681 0.0
C640 C 0.08337 0.63003 0.86028 0.0
H641 H 0.12838 0.63509 0.0459 0.0
H642 H 0.17266 0.65594 0.89495 0.0
H643 H 0.07322 0.60135 0.98315 0.0
H644 H 0.07819 0.57494 0.97564 0.0
H645 H 0.08974 0.59595 0.04255 0.0
H646 H 0.1589 0.63199 0.80289 0.0
H647 H 0.13212 0.60064 0.79858 0.0
H648 H 0.12803 0.62715 0.78771 0.0
H649 H 0.06165 0.53644 0.77855 0.0
H650 H 0.0491 0.59944 0.7742 0.0
H651 H 0.09849 0.55653 0.91737 0.0
H652 H 0.11697 0.56433 0.85466 0.0
H653 H 0.0884 0.5345 0.85238 0.0
H654 H 0.08307 0.63195 0.90925 0.0
H655 H 0.07024 0.63536 0.83974 0.0
H656 H 0.10249 0.64368 0.84863 0.0
C657 C 0.50238 0.14482 0.98652 0.0
C658 C 0.49785 0.14681 0.04613 0.0
C659 C 0.50091 0.12274 0.96132 0.0
C660 C 0.49435 0.10206 0.99651 0.0
C661 C 0.49107 0.10448 0.05764 0.0
C662 C 0.49297 0.12697 0.08189 0.0
C663 C 0.50501 0.12109 0.89613 0.0
C664 C 0.484 0.08285 0.09645 0.0
C665 C 0.46031 0.04215 0.8968 0.0
C666 C 0.47977 0.03772 0.88392 0.0
C667 C 0.46421 0.06164 0.93854 0.0
C668 C 0.48829 0.07731 0.96696 0.0
C669 C 0.50734 0.07136 0.95833 0.0
C670 C 0.50276 0.0514 0.91705 0.0
C671 C 0.44321 0.06697 0.94767 0.0
C672 C 0.53324 0.0876 0.98778 0.0
H673 H 0.50638 0.16032 0.95922 0.0
H674 H 0.48931 0.12853 0.12801 0.0
H675 H 0.5183 0.11417 0.88953 0.0
H676 H 0.48712 0.10737 0.87126 0.0
H677 H 0.51233 0.1396 0.87667 0.0
H678 H 0.48625 0.08908 0.14441 0.0
H679 H 0.46422 0.06827 0.08525 0.0
H680 H 0.49542 0.0738 0.08847 0.0
H681 H 0.44245 0.03137 0.87152 0.0
H682 H 0.51789 0.04806 0.90691 0.0
H683 H 0.44672 0.08394 0.92468 0.0
H684 H 0.44215 0.07097 0.99555 0.0
H685 H 0.4249 0.05093 0.92976 0.0
H686 H 0.54321 0.1051 0.96429 0.0
H687 H 0.5442 0.07774 0.98632 0.0
H688 H 0.53256 0.09329 0.03474 0.0
C689 C 0.35102 0.51929 0.93875 0.0
C690 C 0.34232 0.49908 0.9752 0.0
C691 C 0.36768 0.52211 0.89526 0.0
C692 C 0.37625 0.5046 0.88912 0.0
C693 C 0.36764 0.4843 0.92634 0.0
C694 C 0.35057 0.48163 0.96843 0.0
C695 C 0.37595 0.54363 0.85558 0.0
C696 C 0.37666 0.46548 0.9221 0.0
C697 C 0.4042 0.49289 0.75277 0.0
C698 C 0.4296 0.50527 0.77188 0.0
C699 C 0.38669 0.49408 0.78862 0.0
C700 C 0.39474 0.50767 0.84518 0.0
C701 C 0.42054 0.5219 0.86239 0.0
C702 C 0.43764 0.52075 0.8253 0.0
C703 C 0.35943 0.47936 0.76766 0.0
C704 C 0.43002 0.53664 0.92224 0.0
H705 H 0.34435 0.5326 0.94348 0.0
H706 H 0.34387 0.46604 0.99672 0.0
H707 H 0.39647 0.55603 0.8613 0.0
H708 H 0.37123 0.53612 0.80833 0.0
H709 H 0.36709 0.55524 0.86506 0.0
H710 H 0.36848 0.45104 0.95492 0.0
H711 H 0.37178 0.45571 0.87689 0.0
H712 H 0.39727 0.47547 0.92963 0.0
H713 H 0.39779 0.48117 0.71125 0.0
H714 H 0.45723 0.53067 0.8404 0.0
H715 H 0.35029 0.4907 0.77687 0.0
H716 H 0.34995 0.46211 0.79218 0.0
H717 H 0.35662 0.47354 0.71935 0.0
H718 H 0.42133 0.54842 0.93083 0.0
H719 H 0.45061 0.54908 0.92589 0.0
H720 H 0.42484 0.52326 0.95759 0.0
C721 C 0.87704 0.34179 0.93801 0.0
C722 C 0.87974 0.32421 0.97036 0.0
C723 C 0.89677 0.35974 0.90802 0.0
C724 C 0.91992 0.36035 0.91106 0.0
C725 C 0.92301 0.34307 0.94468 0.0
C726 C 0.90282 0.32508 0.97369 0.0
C727 C 0.89272 0.37782 0.87237 0.0
C728 C 0.94751 0.34336 0.94926 0.0
C729 C 0.95846 0.3898 0.78154 0.0
C730 C 0.9736 0.41501 0.80425 0.0
C731 C 0.94176 0.37148 0.81687 0.0
C732 C 0.94036 0.37844 0.87658 0.0
C733 C 0.95679 0.40338 0.90107 0.0
C734 C 0.97317 0.42143 0.86451 0.0
C735 C 0.92449 0.34507 0.78908 0.0
C736 C 0.95609 0.41136 0.96494 0.0
H737 H 0.85947 0.34163 0.93633 0.0
H738 H 0.905 0.31143 0.99819 0.0
H739 H 0.90643 0.3976 0.88839 0.0
H740 H 0.89571 0.37528 0.82499 0.0
H741 H 0.87366 0.37502 0.87516 0.0
H742 H 0.94737 0.32979 0.9804 0.0
H743 H 0.9517 0.3385 0.90484 0.0
H744 H 0.96288 0.36258 0.96448 0.0
H745 H 0.95873 0.38452 0.73519 0.0
H746 H 0.98496 0.44078 0.88269 0.0
H747 H 0.9051 0.34156 0.78563 0.0
H748 H 0.92473 0.33085 0.81731 0.0
H749 H 0.92954 0.34208 0.74394 0.0
H750 H 0.93868 0.41196 0.97039 0.0
H751 H 0.97219 0.4303 0.97928 0.0
H752 H 0.95601 0.39746 0.99484 0.0
C753 C 0.87117 0.53171 0.88523 0.0
C754 C 0.85406 0.50881 0.90753 0.0
C755 C 0.88938 0.53305 0.84791 0.0
C756 C 0.89054 0.51098 0.83246 0.0
C757 C 0.87278 0.48766 0.85309 0.0
C758 C 0.85487 0.48688 0.89047 0.0
C759 C 0.90796 0.55827 0.8269 0.0
C760 C 0.8734 0.46369 0.83792 0.0
C761 C 0.93111 0.5079 0.71276 0.0
C762 C 0.95166 0.51077 0.74775 0.0
C763 C 0.91128 0.50877 0.73926 0.0
C764 C 0.9122 0.5127 0.80198 0.0
C765 C 0.93346 0.51677 0.83693 0.0
C766 C 0.95281 0.51573 0.80949 0.0
C767 C 0.88898 0.5045 0.70042 0.0
C768 C 0.93545 0.52133 0.9038 0.0
H769 H 0.87039 0.54865 0.8971 0.0
H770 H 0.84192 0.46914 0.90778 0.0
H771 H 0.92667 0.56461 0.84878 0.0
H772 H 0.90942 0.55657 0.77829 0.0
H773 H 0.90289 0.57301 0.83712 0.0
H774 H 0.85683 0.44672 0.85222 0.0
H775 H 0.87435 0.46106 0.78935 0.0
H776 H 0.89036 0.46506 0.86008 0.0
H777 H 0.93011 0.50412 0.66506 0.0
H778 H 0.96881 0.51845 0.83692 0.0
H779 H 0.87282 0.48576 0.70749 0.0
H780 H 0.8925 0.50506 0.65249 0.0
H781 H 0.88372 0.51892 0.71257 0.0
H782 H 0.93241 0.53728 0.91644 0.0
H783 H 0.95388 0.52564 0.92411 0.0
H784 H 0.92078 0.50434 0.9231 0.0
C785 C 0.34996 0.86952 0.92771 0.0
C786 C 0.33087 0.84472 0.91183 0.0
C787 C 0.36577 0.88446 0.88563 0.0
C788 C 0.36243 0.87437 0.82603 0.0
C789 C 0.34321 0.84934 0.80958 0.0
C790 C 0.32765 0.83478 0.85274 0.0
C791 C 0.38617 0.91105 0.90513 0.0
C792 C 0.33909 0.838 0.7465 0.0
C793 C 0.39366 0.92691 0.72379 0.0
C794 C 0.41754 0.92971 0.72454 0.0
C795 C 0.37455 0.90735 0.75231 0.0
C796 C 0.37952 0.89026 0.78185 0.0
C797 C 0.40266 0.89128 0.7766 0.0
C798 C 0.42139 0.91097 0.74782 0.0
C799 C 0.34996 0.90664 0.75594 0.0
C800 C 0.40867 0.87323 0.80658 0.0
H801 H 0.35275 0.87719 0.97342 0.0
H802 H 0.31271 0.8157 0.84006 0.0
H803 H 0.40462 0.91316 0.89688 0.0
H804 H 0.38398 0.92475 0.8788 0.0
H805 H 0.38612 0.91609 0.95301 0.0
H806 H 0.3233 0.81825 0.74091 0.0
H807 H 0.3353 0.84952 0.71587 0.0
H808 H 0.35619 0.83819 0.73289 0.0
H809 H 0.39043 0.94115 0.70543 0.0
H810 H 0.43965 0.9127 0.74741 0.0
H811 H 0.34926 0.91453 0.80063 0.0
H812 H 0.33418 0.88694 0.74981 0.0
H813 H 0.34737 0.9179 0.72217 0.0
H814 H 0.4129 0.87899 0.85486 0.0
H815 H 0.4251 0.87322 0.7886 0.0
H816 H 0.39258 0.8537 0.80138 0.0
C817 C 0.4764 0.33682 0.94789 0.0
C818 C 0.47079 0.3343 0.00747 0.0
C819 C 0.47535 0.3555 0.91639 0.0
C820 C 0.46802 0.37165 0.94495 0.0
C821 C 0.46184 0.36881 0.00485 0.0
C822 C 0.46354 0.3503 0.03564 0.0
C823 C 0.48255 0.35825 0.8529 0.0
C824 C 0.45348 0.38534 0.03639 0.0
C825 C 0.48942 0.43447 0.87931 0.0
C826 C 0.46876 0.42901 0.84087 0.0
C827 C 0.48919 0.41614 0.9146 0.0
C828 C 0.46759 0.39196 0.91235 0.0
C829 C 0.44622 0.38676 0.87602 0.0
C830 C 0.44715 0.40528 0.84015 0.0
C831 C 0.51251 0.42228 0.95204 0.0
C832 C 0.42265 0.36137 0.87356 0.0
H833 H 0.48215 0.32451 0.92638 0.0
H834 H 0.45897 0.34812 0.08164 0.0
H835 H 0.46681 0.35594 0.82308 0.0
H836 H 0.49847 0.37749 0.84871 0.0
H837 H 0.48789 0.34422 0.83732 0.0
H838 H 0.44841 0.38004 0.08229 0.0
H839 H 0.46854 0.40538 0.03866 0.0
H840 H 0.43711 0.384 0.01109 0.0
H841 H 0.50626 0.4527 0.87977 0.0
H842 H 0.43107 0.40103 0.81082 0.0
H843 H 0.51991 0.4101 0.93557 0.0
H844 H 0.50819 0.41829 0.99882 0.0
H845 H 0.52731 0.44235 0.95107 0.0
H846 H 0.42602 0.34668 0.85257 0.0
H847 H 0.40694 0.3612 0.84778 0.0
H848 H 0.41708 0.35608 0.91912 0.0
C849 C 0.13607 0.4756 0.93203 0.0
C850 C 0.15955 0.47798 0.92774 0.0
C851 C 0.12276 0.47655 0.88168 0.0
C852 C 0.13355 0.4806 0.8261 0.0
C853 C 0.15738 0.48318 0.82166 0.0
C854 C 0.17003 0.48158 0.87262 0.0
C855 C 0.09719 0.47335 0.8881 0.0
C856 C 0.16971 0.48822 0.76363 0.0
C857 C 0.08374 0.46091 0.70205 0.0
C858 C 0.08217 0.48294 0.70119 0.0
C859 C 0.10222 0.46036 0.73863 0.0
C860 C 0.1197 0.48253 0.77351 0.0
C861 C 0.12035 0.50564 0.76555 0.0
C862 C 0.10135 0.50552 0.72979 0.0
C863 C 0.10086 0.43532 0.74581 0.0
C864 C 0.13924 0.52989 0.80024 0.0
H865 H 0.12805 0.47274 0.97477 0.0
H866 H 0.1884 0.48372 0.86975 0.0
H867 H 0.0973 0.49093 0.87764 0.0
H868 H 0.08332 0.45791 0.85618 0.0
H869 H 0.09098 0.46895 0.93368 0.0
H870 H 0.18759 0.48813 0.76685 0.0
H871 H 0.15717 0.47389 0.72794 0.0
H872 H 0.17346 0.5069 0.75004 0.0
H873 H 0.06889 0.44343 0.67994 0.0
H874 H 0.10024 0.52264 0.72858 0.0
H875 H 0.09174 0.42765 0.78718 0.0
H876 H 0.11973 0.43753 0.74984 0.0
H877 H 0.08986 0.42133 0.70794 0.0
H878 H 0.13374 0.5298 0.84645 0.0
H879 H 0.14044 0.5467 0.78042 0.0
H880 H 0.15797 0.53171 0.80241 0.0
C881 C 0.68293 0.15208 0.86609 0.0
C882 C 0.68878 0.14246 0.91557 0.0
C883 C 0.66402 0.13605 0.82301 0.0
C884 C 0.65085 0.10978 0.82932 0.0
C885 C 0.6584 0.09975 0.87573 0.0
C886 C 0.67722 0.11625 0.91864 0.0
C887 C 0.65669 0.14747 0.77388 0.0
C888 C 0.64517 0.07174 0.88304 0.0
C889 C 0.58133 0.07332 0.79372 0.0
C890 C 0.57912 0.05921 0.741 0.0
C891 C 0.60468 0.09068 0.82116 0.0
C892 C 0.62641 0.09364 0.79569 0.0
C893 C 0.62435 0.08025 0.74082 0.0
C894 C 0.60055 0.06315 0.71376 0.0
C895 C 0.60597 0.10504 0.87881 0.0
C896 C 0.64704 0.08277 0.71245 0.0
H897 H 0.69242 0.17231 0.86239 0.0
H898 H 0.68175 0.10865 0.95646 0.0
H899 H 0.6531 0.13632 0.73083 0.0
H900 H 0.63916 0.14718 0.78396 0.0
H901 H 0.67125 0.16734 0.76905 0.0
H902 H 0.65577 0.06664 0.9148 0.0
H903 H 0.62661 0.06578 0.89992 0.0
H904 H 0.64211 0.06097 0.83964 0.0
H905 H 0.56463 0.0703 0.81437 0.0
H906 H 0.59872 0.05193 0.6733 0.0
H907 H 0.61853 0.1256 0.87599 0.0
H908 H 0.61377 0.0991 0.91561 0.0
H909 H 0.58738 0.10181 0.89024 0.0
H910 H 0.66242 0.10269 0.71613 0.0
H911 H 0.64278 0.07571 0.6648 0.0
H912 H 0.65378 0.07155 0.73592 0.0
C913 C 0.56016 0.66204 0.96364 0.0
C914 C 0.5376 0.66228 0.95933 0.0
C915 C 0.56245 0.6427 0.93407 0.0
C916 C 0.54213 0.62389 0.89709 0.0
C917 C 0.51882 0.62288 0.89604 0.0
C918 C 0.51672 0.6418 0.92821 0.0
C919 C 0.58707 0.64327 0.93952 0.0
C920 C 0.49657 0.60292 0.85754 0.0
C921 C 0.5563 0.60272 0.75141 0.0
C922 C 0.54762 0.57714 0.75818 0.0
C923 C 0.55525 0.61828 0.79718 0.0
C924 C 0.54627 0.6082 0.85198 0.0
C925 C 0.53938 0.58285 0.86072 0.0
C926 C 0.53958 0.56738 0.81302 0.0
C927 C 0.56207 0.64498 0.78521 0.0
C928 C 0.5307 0.57155 0.91906 0.0
H929 H 0.5765 0.67754 0.9876 0.0
H930 H 0.49887 0.64102 0.92688 0.0
H931 H 0.58405 0.62392 0.94301 0.0
H932 H 0.59727 0.65067 0.89927 0.0
H933 H 0.599 0.65553 0.97887 0.0
H934 H 0.4796 0.60442 0.86293 0.0
H935 H 0.50081 0.60469 0.81012 0.0
H936 H 0.49242 0.58382 0.86856 0.0
H937 H 0.56223 0.61016 0.7087 0.0
H938 H 0.53308 0.54762 0.81841 0.0
H939 H 0.57711 0.65868 0.81789 0.0
H940 H 0.54567 0.64751 0.79017 0.0
H941 H 0.56844 0.64973 0.73987 0.0
H942 H 0.5389 0.58602 0.95723 0.0
H943 H 0.53561 0.55667 0.92633 0.0
H944 H 0.51011 0.56249 0.91814 0.0
C945 C 0.4559 0.12067 0.34807 0.0
C946 C 0.47594 0.1455 0.34865 0.0
C947 C 0.45764 0.10275 0.38131 0.0
C948 C 0.47972 0.10996 0.41705 0.0
C949 C 0.50016 0.1348 0.41714 0.0
C950 C 0.49812 0.15217 0.38247 0.0
C951 C 0.43559 0.07628 0.3794 0.0
C952 C 0.52393 0.14328 0.45524 0.0
C953 C 0.47341 0.07425 0.55362 0.0
C954 C 0.48337 0.05894 0.53643 0.0
C955 C 0.47227 0.09099 0.51525 0.0
C956 C 0.48081 0.09211 0.45768 0.0
C957 C 0.49056 0.07647 0.43959 0.0
C958 C 0.49199 0.06026 0.47952 0.0
C959 C 0.46223 0.10775 0.53668 0.0
C960 C 0.49935 0.07679 0.37805 0.0
H961 H 0.43859 0.11531 0.3227 0.0
H962 H 0.51394 0.17107 0.38211 0.0
H963 H 0.44161 0.06222 0.37022 0.0
H964 H 0.42748 0.07283 0.42324 0.0
H965 H 0.42078 0.073 0.34502 0.0
H966 H 0.53837 0.16303 0.44887 0.0
H967 H 0.51991 0.14192 0.5028 0.0
H968 H 0.53164 0.13073 0.4449 0.0
H969 H 0.46694 0.07353 0.59779 0.0
H970 H 0.49946 0.04837 0.46567 0.0
H971 H 0.44576 0.10401 0.50758 0.0
H972 H 0.47654 0.12788 0.53421 0.0
H973 H 0.45672 0.10483 0.58313 0.0
H974 H 0.48404 0.07246 0.34421 0.0
H975 H 0.50576 0.06292 0.37033 0.0
H976 H 0.51492 0.09589 0.37114 0.0
C977 C 0.34246 0.51187 0.42493 0.0
C978 C 0.34154 0.50222 0.36654 0.0
C979 C 0.36052 0.51434 0.46836 0.0
C980 C 0.3778 0.50668 0.45317 0.0
C981 C 0.37633 0.496 0.39508 0.0
C982 C 0.35844 0.49419 0.35242 0.0
C983 C 0.36167 0.52597 0.5297 0.0
C984 C 0.39428 0.48732 0.37718 0.0
C985 C 0.444 0.53499 0.51455 0.0
C986 C 0.44276 0.51503 0.54473 0.0
C987 C 0.42233 0.53383 0.49034 0.0
C988 C 0.39905 0.51182 0.49525 0.0
C989 C 0.39754 0.4928 0.53117 0.0
C990 C 0.4196 0.49471 0.55592 0.0
C991 C 0.42474 0.55485 0.45378 0.0
C992 C 0.37309 0.46912 0.53783 0.0
H993 H 0.32916 0.51765 0.4367 0.0
H994 H 0.35821 0.48709 0.30739 0.0
H995 H 0.36321 0.51443 0.56424 0.0
H996 H 0.37855 0.54497 0.53619 0.0
H997 H 0.34507 0.52796 0.53666 0.0
H998 H 0.3892 0.47741 0.33201 0.0
H999 H 0.41337 0.50384 0.37777 0.0
H1000 H 0.39478 0.47438 0.40927 0.0
H1001 H 0.46207 0.55071 0.50622 0.0
H1002 H 0.41881 0.47922 0.579 0.0
H1003 H 0.40982 0.55934 0.46238 0.0
H1004 H 0.42276 0.54875 0.40586 0.0
H1005 H 0.44313 0.57232 0.46321 0.0
H1006 H 0.35767 0.47326 0.54115 0.0
H1007 H 0.37405 0.45956 0.57762 0.0
H1008 H 0.36857 0.45583 0.49802 0.0
C1009 C 0.85998 0.36248 0.33768 0.0
C1010 C 0.8605 0.35798 0.27656 0.0
C1011 C 0.87967 0.38364 0.36941 0.0
C1012 C 0.90026 0.4008 0.33901 0.0
C1013 C 0.89974 0.39769 0.27643 0.0
C1014 C 0.87986 0.37614 0.24582 0.0
C1015 C 0.87939 0.38638 0.43618 0.0
C1016 C 0.92103 0.41593 0.24231 0.0
C1017 C 0.94622 0.45637 0.4425 0.0
C1018 C 0.9611 0.44691 0.46516 0.0
C1019 C 0.9275 0.44261 0.39698 0.0
C1020 C 0.92365 0.41891 0.37418 0.0
C1021 C 0.9402 0.41054 0.39287 0.0
C1022 C 0.95879 0.42471 0.43805 0.0
C1023 C 0.91067 0.45247 0.37679 0.0
C1024 C 0.9369 0.38546 0.36918 0.0
H1025 H 0.84468 0.34877 0.3612 0.0
H1026 H 0.88029 0.37277 0.19843 0.0
H1027 H 0.89369 0.38284 0.45743 0.0
H1028 H 0.88409 0.40585 0.45127 0.0
H1029 H 0.86099 0.37292 0.4521 0.0
H1030 H 0.91511 0.41473 0.19465 0.0
H1031 H 0.92877 0.43566 0.26133 0.0
H1032 H 0.9362 0.41131 0.245 0.0
H1033 H 0.94805 0.47366 0.4628 0.0
H1034 H 0.97058 0.41758 0.45447 0.0
H1035 H 0.89241 0.44176 0.39616 0.0
H1036 H 0.90715 0.44973 0.32774 0.0
H1037 H 0.91868 0.47283 0.39089 0.0
H1038 H 0.91955 0.36988 0.38484 0.0
H1039 H 0.95275 0.38292 0.38401 0.0
H1040 H 0.935 0.38371 0.31993 0.0
C1041 C 0.53845 0.90198 0.1466 0.0
C1042 C 0.52124 0.8779 0.16278 0.0
C1043 C 0.53975 0.92362 0.17456 0.0
C1044 C 0.52409 0.92092 0.22095 0.0
C1045 C 0.50519 0.89651 0.23342 0.0
C1046 C 0.50387 0.87523 0.20369 0.0
C1047 C 0.55928 0.9493 0.15796 0.0
C1048 C 0.48809 0.89277 0.28257 0.0
C1049 C 0.55111 0.96393 0.36098 0.0
C1050 C 0.53715 0.97625 0.36209 0.0
C1051 C 0.54797 0.94693 0.31344 0.0
C1052 C 0.53085 0.94252 0.26487 0.0
C1053 C 0.51841 0.95662 0.26292 0.0
C1054 C 0.52152 0.97322 0.312 0.0
C1055 C 0.56168 0.93232 0.3175 0.0
C1056 C 0.50074 0.95318 0.21089 0.0
H1057 H 0.55156 0.90392 0.11399 0.0
H1058 H 0.49053 0.85653 0.21588 0.0
H1059 H 0.55216 0.96274 0.15974 0.0
H1060 H 0.57583 0.95693 0.19002 0.0
H1061 H 0.56535 0.94831 0.11274 0.0
H1062 H 0.47272 0.87288 0.28211 0.0
H1063 H 0.49898 0.89801 0.32618 0.0
H1064 H 0.47989 0.90516 0.27879 0.0
H1065 H 0.56364 0.9665 0.39884 0.0
H1066 H 0.51088 0.98289 0.31206 0.0
H1067 H 0.57222 0.93439 0.2776 0.0
H1068 H 0.54809 0.91191 0.31926 0.0
H1069 H 0.57495 0.93866 0.35745 0.0
H1070 H 0.50716 0.94937 0.16845 0.0
H1071 H 0.49865 0.97009 0.20766 0.0
H1072 H 0.48209 0.93681 0.21678 0.0
C1073 C 0.66072 0.52649 0.26559 0.0
C1074 C 0.66668 0.50727 0.25865 0.0
C1075 C 0.64508 0.52616 0.30937 0.0
C1076 C 0.63546 0.50634 0.34802 0.0
C1077 C 0.6417 0.48705 0.34176 0.0
C1078 C 0.65704 0.48761 0.29678 0.0
C1079 C 0.63855 0.54687 0.31369 0.0
C1080 C 0.63222 0.46587 0.38265 0.0
C1081 C 0.61025 0.52142 0.48602 0.0
C1082 C 0.58484 0.51043 0.46803 0.0
C1083 C 0.6268 0.51885 0.4491 0.0
C1084 C 0.61781 0.50531 0.39256 0.0
C1085 C 0.59195 0.49276 0.37612 0.0
C1086 C 0.57582 0.4953 0.41413 0.0
C1087 C 0.65413 0.53185 0.46921 0.0
C1088 C 0.58144 0.47815 0.31638 0.0
H1089 H 0.66809 0.54167 0.23612 0.0
H1090 H 0.66193 0.47293 0.29215 0.0
H1091 H 0.61807 0.53858 0.30663 0.0
H1092 H 0.64427 0.55678 0.35878 0.0
H1093 H 0.64767 0.56098 0.28056 0.0
H1094 H 0.63975 0.45301 0.37387 0.0
H1095 H 0.6374 0.47373 0.42961 0.0
H1096 H 0.61158 0.45464 0.3773 0.0
H1097 H 0.61741 0.5329 0.52777 0.0
H1098 H 0.55626 0.48659 0.39958 0.0
H1099 H 0.66452 0.54881 0.4442 0.0
H1100 H 0.66183 0.5192 0.45984 0.0
H1101 H 0.6575 0.53789 0.51744 0.0
H1102 H 0.58781 0.49147 0.28084 0.0
H1103 H 0.56073 0.46739 0.31284 0.0
H1104 H 0.58831 0.46475 0.30796 0.0
C1105 C 0.14204 0.67392 0.32319 0.0
C1106 C 0.13989 0.68846 0.27982 0.0
C1107 C 0.12122 0.65685 0.35171 0.0
C1108 C 0.09765 0.65428 0.33649 0.0
C1109 C 0.09537 0.66913 0.2933 0.0
C1110 C 0.11657 0.6861 0.26543 0.0
C1111 C 0.12443 0.64143 0.39785 0.0
C1112 C 0.07052 0.6668 0.27595 0.0
C1113 C 0.04439 0.59196 0.37644 0.0
C1114 C 0.03996 0.59862 0.43313 0.0
C1115 C 0.06207 0.61024 0.34254 0.0
C1116 C 0.07553 0.63575 0.36585 0.0
C1117 C 0.06974 0.64289 0.42083 0.0
C1118 C 0.052 0.62423 0.45384 0.0
C1119 C 0.06762 0.60195 0.2838 0.0
C1120 C 0.08353 0.66996 0.44686 0.0
H1121 H 0.1601 0.67596 0.33495 0.0
H1122 H 0.1148 0.69712 0.23141 0.0
H1123 H 0.11815 0.64489 0.44086 0.0
H1124 H 0.11268 0.621 0.38398 0.0
H1125 H 0.14408 0.64591 0.40495 0.0
H1126 H 0.07207 0.68037 0.24312 0.0
H1127 H 0.05735 0.64736 0.25653 0.0
H1128 H 0.0623 0.67009 0.31582 0.0
H1129 H 0.03508 0.57228 0.35976 0.0
H1130 H 0.0485 0.62965 0.49725 0.0
H1131 H 0.08605 0.6031 0.28849 0.0
H1132 H 0.06861 0.61461 0.24921 0.0
H1133 H 0.05338 0.58223 0.2683 0.0
H1134 H 0.10294 0.67525 0.46131 0.0
H1135 H 0.0746 0.67291 0.48581 0.0
H1136 H 0.08454 0.68291 0.41302 0.0
loop_
_geom_bond_atom_site_label_1
_geom_bond_atom_site_label_2
_geom_bond_distance
_geom_bond_site_symmetry_2
_ccdc_geom_bond_type
C0 C1 1.384 . S
C0 C2 1.384 . S
C0 H28 0.931 . S
C1 C0 1.384 . S
C1 C4 1.382 . S
C2 C0 1.384 . S
C2 C3 1.381 . S
C2 H29 0.930 . S
C3 C2 1.381 . S
C3 C5 1.381 . S
C3 C6 1.487 . S
C4 C1 1.382 . S
C4 C5 1.387 . S
C4 H30 0.930 1_554 S
C5 C3 1.381 . S
C5 C4 1.387 . S
C5 H31 0.931 . S
C6 C3 1.487 . S
C6 C13 1.399 . S
C6 N44 1.343 . S
C7 C8 1.384 . S
C7 C9 1.384 . S
C7 H32 0.931 . S
C8 C7 1.384 . S
C8 C11 1.382 . S
C9 C7 1.384 . S
C9 C10 1.381 . S
C9 H33 0.930 . S
C10 C9 1.381 . S
C10 C12 1.381 . S
C10 C13 1.487 . S
C11 C8 1.382 . S
C11 C12 1.387 . S
C11 H34 0.930 . S
C12 C10 1.381 . S
C12 C11 1.387 . S
C12 H35 0.931 . S
C13 C6 1.399 . S
C13 C10 1.487 . S
C13 N45 1.343 . S
C14 C15 1.384 . S
C14 C16 1.384 . S
C14 H36 0.931 . S
C15 C14 1.384 . S
C15 C18 1.382 . S
C16 C14 1.384 . S
C16 C17 1.381 . S
C16 H37 0.930 . S
C17 C16 1.381 . S
C17 C19 1.381 . S
C17 C20 1.487 . S
C18 C15 1.382 . S
C18 C19 1.387 . S
C18 H38 0.930 . S
C19 C17 1.381 . S
C19 C18 1.387 . S
C19 H39 0.931 . S
C20 C17 1.487 . S
C20 C27 1.399 . S
C20 N45 1.343 . S
C21 C22 1.384 . S
C21 C23 1.384 . S
C21 H40 0.931 . S
C22 C21 1.384 . S
C22 C25 1.382 . S
C23 C21 1.384 . S
C23 C24 1.381 . S
C23 H41 0.930 . S
C24 C23 1.381 . S
C24 C26 1.381 . S
C24 C27 1.487 . S
C25 C22 1.382 . S
C25 C26 1.387 . S
C25 H42 0.930 1_554 S
C26 C24 1.381 . S
C26 C25 1.387 . S
C26 H43 0.931 . S
C27 C20 1.399 . S
C27 C24 1.487 . S
C27 N44 1.343 . S
H28 C0 0.931 . S
H29 C2 0.930 . S
H30 C4 0.930 1_556 S
H31 C5 0.931 . S
H32 C7 0.931 . S
H33 C9 0.930 . S
H34 C11 0.930 . S
H35 C12 0.931 . S
H36 C14 0.931 . S
H37 C16 0.930 . S
H38 C18 0.930 . S
H39 C19 0.931 . S
H40 C21 0.931 . S
H41 C23 0.930 . S
H42 C25 0.930 1_556 S
H43 C26 0.931 . S
N44 C6 1.343 . S
N44 C27 1.343 . S
N45 C13 1.343 . S
N45 C20 1.343 . S
C46 C47 1.384 . S
C46 C48 1.384 . S
C46 H74 0.931 . S
C47 C46 1.384 . S
C47 C50 1.382 . S
C48 C46 1.384 . S
C48 C49 1.381 . S
C48 H75 0.930 . S
C49 C48 1.381 . S
C49 C51 1.381 . S
C49 C52 1.487 . S
C50 C47 1.382 . S
C50 C51 1.387 . S
C50 H76 0.930 . S
C51 C49 1.381 . S
C51 C50 1.387 . S
C51 H77 0.931 . S
C52 C49 1.487 . S
C52 C59 1.399 . S
C52 N90 1.343 . S
C53 C54 1.384 1_554 S
C53 C55 1.384 . S
C53 H78 0.931 . S
C54 C53 1.384 1_556 S
C54 C57 1.382 . S
C55 C53 1.384 . S
C55 C56 1.381 . S
C55 H79 0.930 . S
C56 C55 1.381 . S
C56 C58 1.381 . S
C56 C59 1.487 . S
C57 C54 1.382 . S
C57 C58 1.387 1_556 S
C57 H80 0.930 . S
C58 C56 1.381 . S
C58 C57 1.387 1_554 S
C58 H81 0.931 . S
C59 C52 1.399 . S
C59 C56 1.487 . S
C59 N91 1.343 . S
C60 C61 1.384 . S
C60 C62 1.384 . S
C60 H82 0.931 . S
C61 C60 1.384 . S
C61 C64 1.382 1_554 S
C62 C60 1.384 . S
C62 C63 1.381 . S
C62 H83 0.930 . S
C63 C62 1.381 . S
C63 C65 1.381 . S
C63 C66 1.487 . S
C64 C61 1.382 1_556 S
C64 C65 1.387 1_556 S
C64 H84 0.930 . S
C65 C63 1.381 . S
C65 C64 1.387 1_554 S
C65 H85 0.931 . S
C66 C63 1.487 . S
C66 C73 1.399 . S
C66 N91 1.343 . S
C67 C68 1.384 . S
C67 C69 1.384 . S
C67 H86 0.931 . S
C68 C67 1.384 . S
C68 C71 1.382 . S
C69 C67 1.384 . S
C69 C70 1.381 . S
C69 H87 0.930 . S
C70 C69 1.381 . S
C70 C72 1.381 . S
C70 C73 1.487 . S
C71 C68 1.382 . S
C71 C72 1.387 . S
C71 H88 0.930 . S
C72 C70 1.381 . S
C72 C71 1.387 . S
C72 H89 0.931 . S
C73 C66 1.399 . S
C73 C70 1.487 . S
C73 N90 1.343 . S
H74 C46 0.931 . S
H75 C48 0.930 . S
H76 C50 0.930 . S
H77 C51 0.931 . S
H78 C53 0.931 . S
H79 C55 0.930 . S
H80 C57 0.930 . S
H81 C58 0.931 . S
H82 C60 0.931 . S
H83 C62 0.930 . S
H84 C64 0.930 . S
H85 C65 0.931 . S
H86 C67 0.931 . S
H87 C69 0.930 . S
H88 C71 0.930 . S
H89 C72 0.931 . S
N90 C52 1.343 . S
N90 C73 1.343 . S
N91 C59 1.343 . S
N91 C66 1.343 . S
C92 C93 1.384 . S
C92 C94 1.384 . S
C92 H120 0.931 . S
C93 C92 1.384 . S
C93 C96 1.382 . S
C94 C92 1.384 . S
C94 C95 1.381 . S
C94 H121 0.930 . S
C95 C94 1.381 . S
C95 C97 1.381 . S
C95 C98 1.487 . S
C96 C93 1.382 . S
C96 C97 1.387 . S
C96 H122 0.930 . S
C97 C95 1.381 . S
C97 C96 1.387 . S
C97 H123 0.931 . S
C98 C95 1.487 . S
C98 C105 1.399 1_556 S
C98 N136 1.343 . S
C99 C100 1.384 . S
C99 C101 1.384 . S
C99 H124 0.931 . S
C100 C99 1.384 . S
C100 C103 1.382 . S
C101 C99 1.384 . S
C101 C102 1.381 . S
C101 H125 0.930 . S
C102 C101 1.381 . S
C102 C104 1.381 . S
C102 C105 1.487 . S
C103 C100 1.382 . S
C103 C104 1.387 . S
C103 H126 0.930 . S
C104 C102 1.381 . S
C104 C103 1.387 . S
C104 H127 0.931 . S
C105 C98 1.399 1_554 S
C105 C102 1.487 . S
C105 N137 1.343 . S
C106 C107 1.384 . S
C106 C108 1.384 . S
C106 H128 0.931 . S
C107 C106 1.384 . S
C107 C110 1.382 . S
C108 C106 1.384 . S
C108 C109 1.381 . S
C108 H129 0.930 . S
C109 C108 1.381 . S
C109 C111 1.381 . S
C109 C112 1.487 . S
C110 C107 1.382 . S
C110 C111 1.387 . S
C110 H130 0.930 . S
C111 C109 1.381 . S
C111 C110 1.387 . S
C111 H131 0.931 . S
C112 C109 1.487 . S
C112 C119 1.399 1_554 S
C112 N137 1.343 . S
C113 C114 1.384 . S
C113 C115 1.384 . S
C113 H132 0.931 . S
C114 C113 1.384 . S
C114 C117 1.382 . S
C115 C113 1.384 . S
C115 C116 1.381 . S
C115 H133 0.930 1_556 S
C116 C115 1.381 . S
C116 C118 1.381 . S
C116 C119 1.487 . S
C117 C114 1.382 . S
C117 C118 1.387 . S
C117 H134 0.930 . S
C118 C116 1.381 . S
C118 C117 1.387 . S
C118 H135 0.931 . S
C119 C112 1.399 1_556 S
C119 C116 1.487 . S
C119 N136 1.343 . S
H120 C92 0.931 . S
H121 C94 0.930 . S
H122 C96 0.930 . S
H123 C97 0.931 . S
H124 C99 0.931 . S
H125 C101 0.930 . S
H126 C103 0.930 . S
H127 C104 0.931 . S
H128 C106 0.931 . S
H129 C108 0.930 . S
H130 C110 0.930 . S
H131 C111 0.931 . S
H132 C113 0.931 . S
H133 C115 0.930 1_554 S
H134 C117 0.930 . S
H135 C118 0.931 . S
N136 C98 1.343 . S
N136 C119 1.343 . S
N137 C105 1.343 . S
N137 C112 1.343 . S
C138 C139 1.384 . S
C138 C140 1.384 1_556 S
C138 H166 0.931 . S
C139 C138 1.384 . S
C139 C142 1.382 . S
C140 C138 1.384 1_554 S
C140 C141 1.381 . S
C140 H167 0.930 . S
C141 C140 1.381 . S
C141 C143 1.381 1_554 S
C141 C144 1.487 . S
C142 C139 1.382 . S
C142 C143 1.387 . S
C142 H168 0.930 . S
C143 C141 1.381 1_556 S
C143 C142 1.387 . S
C143 H169 0.931 . S
C144 C141 1.487 . S
C144 C151 1.399 . S
C144 N182 1.343 . S
C145 C146 1.384 . S
C145 C147 1.384 . S
C145 H170 0.931 . S
C146 C145 1.384 . S
C146 C149 1.382 . S
C147 C145 1.384 . S
C147 C148 1.381 . S
C147 H171 0.930 . S
C148 C147 1.381 . S
C148 C150 1.381 . S
C148 C151 1.487 . S
C149 C146 1.382 . S
C149 C150 1.387 . S
C149 H172 0.930 . S
C150 C148 1.381 . S
C150 C149 1.387 . S
C150 H173 0.931 . S
C151 C144 1.399 . S
C151 C148 1.487 . S
C151 N183 1.343 . S
C152 C153 1.384 . S
C152 C154 1.384 . S
C152 H174 0.931 . S
C153 C152 1.384 . S
C153 C156 1.382 . S
C154 C152 1.384 . S
C154 C155 1.381 . S
C154 H175 0.930 . S
C155 C154 1.381 . S
C155 C157 1.381 . S
C155 C158 1.487 . S
C156 C153 1.382 . S
C156 C157 1.387 . S
C156 H176 0.930 . S
C157 C155 1.381 . S
C157 C156 1.387 . S
C157 H177 0.931 . S
C158 C155 1.487 . S
C158 C165 1.399 . S
C158 N183 1.343 . S
C159 C160 1.384 . S
C159 C161 1.384 1_556 S
C159 H178 0.931 . S
C160 C159 1.384 . S
C160 C163 1.382 . S
C161 C159 1.384 1_554 S
C161 C162 1.381 1_554 S
C161 H179 0.930 . S
C162 C161 1.381 1_556 S
C162 C164 1.381 . S
C162 C165 1.487 1_556 S
C163 C160 1.382 . S
C163 C164 1.387 . S
C163 H180 0.930 . S
C164 C162 1.381 . S
C164 C163 1.387 . S
C164 H181 0.931 . S
C165 C158 1.399 . S
C165 C162 1.487 1_554 S
C165 N182 1.343 . S
H166 C138 0.931 . S
H167 C140 0.930 . S
H168 C142 0.930 . S
H169 C143 0.931 . S
H170 C145 0.931 . S
H171 C147 0.930 . S
H172 C149 0.930 . S
H173 C150 0.931 . S
H174 C152 0.931 . S
H175 C154 0.930 . S
H176 C156 0.930 . S
H177 C157 0.931 . S
H178 C159 0.931 . S
H179 C161 0.930 . S
H180 C163 0.930 . S
H181 C164 0.931 . S
N182 C144 1.343 . S
N182 C165 1.343 . S
N183 C151 1.343 . S
N183 C158 1.343 . S
C184 C185 1.384 1_554 S
C184 C186 1.384 . S
C184 H212 0.931 . S
C185 C184 1.384 1_556 S
C185 C188 1.382 . S
C186 C184 1.384 . S
C186 C187 1.381 . S
C186 H213 0.930 . S
C187 C186 1.381 . S
C187 C189 1.381 1_554 S
C187 C190 1.487 . S
C188 C185 1.382 . S
C188 C189 1.387 . S
C188 H214 0.930 . S
C189 C187 1.381 1_556 S
C189 C188 1.387 . S
C189 H215 0.931 . S
C190 C187 1.487 . S
C190 C197 1.399 . S
C190 N228 1.343 . S
C191 C192 1.384 . S
C191 C193 1.384 . S
C191 H216 0.931 . S
C192 C191 1.384 . S
C192 C195 1.382 . S
C193 C191 1.384 . S
C193 C194 1.381 . S
C193 H217 0.930 . S
C194 C193 1.381 . S
C194 C196 1.381 . S
C194 C197 1.487 . S
C195 C192 1.382 . S
C195 C196 1.387 . S
C195 H218 0.930 . S
C196 C194 1.381 . S
C196 C195 1.387 . S
C196 H219 0.931 . S
C197 C190 1.399 . S
C197 C194 1.487 . S
C197 N229 1.343 . S
C198 C199 1.384 . S
C198 C200 1.384 . S
C198 H220 0.931 . S
C199 C198 1.384 . S
C199 C202 1.382 . S
C200 C198 1.384 . S
C200 C201 1.381 . S
C200 H221 0.930 . S
C201 C200 1.381 . S
C201 C203 1.381 . S
C201 C204 1.487 . S
C202 C199 1.382 . S
C202 C203 1.387 . S
C202 H222 0.930 . S
C203 C201 1.381 . S
C203 C202 1.387 . S
C203 H223 0.931 . S
C204 C201 1.487 . S
C204 C211 1.399 . S
C204 N229 1.343 . S
C205 C206 1.384 . S
C205 C207 1.384 1_556 S
C205 H224 0.931 . S
C206 C205 1.384 . S
C206 C209 1.382 . S
C207 C205 1.384 1_554 S
C207 C208 1.381 . S
C207 H225 0.930 . S
C208 C207 1.381 . S
C208 C210 1.381 1_554 S
C208 C211 1.487 . S
C209 C206 1.382 . S
C209 C210 1.387 . S
C209 H226 0.930 . S
C210 C208 1.381 1_556 S
C210 C209 1.387 . S
C210 H227 0.931 . S
C211 C204 1.399 . S
C211 C208 1.487 . S
C211 N228 1.343 . S
H212 C184 0.931 . S
H213 C186 0.930 . S
H214 C188 0.930 . S
H215 C189 0.931 . S
H216 C191 0.931 . S
H217 C193 0.930 . S
H218 C195 0.930 . S
H219 C196 0.931 . S
H220 C198 0.931 . S
H221 C200 0.930 . S
H222 C202 0.930 . S
H223 C203 0.931 . S
H224 C205 0.931 . S
H225 C207 0.930 . S
H226 C209 0.930 . S
H227 C210 0.931 . S
N228 C190 1.343 . S
N228 C211 1.343 . S
N229 C197 1.343 . S
N229 C204 1.343 . S
C230 C231 1.384 . S
C230 C232 1.384 . S
C230 H258 0.931 . S
C231 C230 1.384 . S
C231 C234 1.382 . S
C232 C230 1.384 . S
C232 C233 1.381 . S
C232 H259 0.930 . S
C233 C232 1.381 . S
C233 C235 1.381 . S
C233 C236 1.487 . S
C234 C231 1.382 . S
C234 C235 1.387 . S
C234 H260 0.930 . S
C235 C233 1.381 . S
C235 C234 1.387 . S
C235 H261 0.931 . S
C236 C233 1.487 . S
C236 C243 1.399 . S
C236 N274 1.343 . S
C237 C238 1.384 . S
C237 C239 1.384 . S
C237 H262 0.931 . S
C238 C237 1.384 . S
C238 C241 1.382 . S
C239 C237 1.384 . S
C239 C240 1.381 . S
C239 H263 0.930 . S
C240 C239 1.381 . S
C240 C242 1.381 . S
C240 C243 1.487 . S
C241 C238 1.382 . S
C241 C242 1.387 . S
C241 H264 0.930 . S
C242 C240 1.381 . S
C242 C241 1.387 . S
C242 H265 0.931 . S
C243 C236 1.399 . S
C243 C240 1.487 . S
C243 N275 1.343 . S
C244 C245 1.384 . S
C244 C246 1.384 . S
C244 H266 0.931 . S
C245 C244 1.384 . S
C245 C248 1.382 . S
C246 C244 1.384 . S
C246 C247 1.381 . S
C246 H267 0.930 . S
C247 C246 1.381 . S
C247 C249 1.381 . S
C247 C250 1.487 . S
C248 C245 1.382 . S
C248 C249 1.387 . S
C248 H268 0.930 . S
C249 C247 1.381 . S
C249 C248 1.387 . S
C249 H269 0.931 . S
C250 C247 1.487 . S
C250 C257 1.399 . S
C250 N275 1.343 . S
C251 C252 1.384 . S
C251 C253 1.384 . S
C251 H270 0.931 . S
C252 C251 1.384 . S
C252 C255 1.382 . S
C253 C251 1.384 . S
C253 C254 1.381 . S
C253 H271 0.930 . S
C254 C253 1.381 . S
C254 C256 1.381 . S
C254 C257 1.487 . S
C255 C252 1.382 . S
C255 C256 1.387 . S
C255 H272 0.930 . S
C256 C254 1.381 . S
C256 C255 1.387 . S
C256 H273 0.931 . S
C257 C250 1.399 . S
C257 C254 1.487 . S
C257 N274 1.343 . S
H258 C230 0.931 . S
H259 C232 0.930 . S
H260 C234 0.930 . S
H261 C235 0.931 . S
H262 C237 0.931 . S
H263 C239 0.930 . S
H264 C241 0.930 . S
H265 C242 0.931 . S
H266 C244 0.931 . S
H267 C246 0.930 . S
H268 C248 0.930 . S
H269 C249 0.931 . S
H270 C251 0.931 . S
H271 C253 0.930 . S
H272 C255 0.930 . S
H273 C256 0.931 . S
N274 C236 1.343 . S
N274 C257 1.343 . S
N275 C243 1.343 . S
N275 C250 1.343 . S
C276 O288 1.241 . S
C276 O289 1.280 . S
C277 O290 1.277 . S
C277 O291 1.245 . S
C278 O302 1.247 . S
C278 O304 1.289 . S
Mg279 O280 1.915 . S
Mg279 O289 1.984 . S
Mg279 O291 1.988 1_655 S
Mg279 O292 2.061 . S
O280 Mg279 1.915 . S
O280 Mg281 1.988 1_655 S
O280 Mg282 1.919 1_655 S
Mg281 O280 1.988 1_455 S
Mg281 O288 2.042 1_455 S
Mg281 O290 2.041 . S
Mg281 O296 2.038 1_455 S
Mg281 O304 2.238 . S
Mg282 O280 1.919 1_455 S
Mg282 O283 1.917 . S
Mg282 O293 2.106 1_455 S
Mg282 O295 2.079 1_455 S
Mg282 O304 2.106 . S
Mg282 O305 2.079 . S
O283 Mg282 1.917 . S
O283 Mg284 1.926 . S
O283 Mg285 1.986 . S
Mg284 O283 1.926 . S
Mg284 O298 1.984 . S
Mg284 O301 1.988 1_455 S
Mg284 O302 2.061 . S
Mg285 O283 1.986 . S
Mg285 O293 2.238 1_455 S
Mg285 O297 2.042 . S
Mg285 O299 2.041 1_455 S
Mg285 O306 2.038 . S
C286 O292 1.247 . S
C286 O293 1.289 . S
C287 O305 1.245 . S
C287 O306 1.274 . S
O288 C276 1.241 . S
O288 Mg281 2.042 1_655 S
O289 C276 1.280 . S
O289 Mg279 1.984 . S
O290 C277 1.277 . S
O290 Mg281 2.041 . S
O291 C277 1.245 . S
O291 Mg279 1.988 1_455 S
O292 Mg279 2.061 . S
O292 C286 1.247 . S
O293 Mg282 2.106 1_655 S
O293 Mg285 2.238 1_655 S
O293 C286 1.289 . S
C294 O295 1.245 . S
C294 O296 1.274 . S
O295 Mg282 2.079 1_655 S
O295 C294 1.245 . S
O296 Mg281 2.038 1_655 S
O296 C294 1.274 . S
O297 Mg285 2.042 . S
O297 C300 1.241 . S
O298 Mg284 1.984 . S
O298 C300 1.280 . S
O299 Mg285 2.041 1_655 S
O299 C303 1.277 . S
C300 O297 1.241 . S
C300 O298 1.280 . S
O301 Mg284 1.988 1_655 S
O301 C303 1.245 . S
O302 C278 1.247 . S
O302 Mg284 2.061 . S
C303 O299 1.277 . S
C303 O301 1.245 . S
O304 C278 1.289 . S
O304 Mg281 2.238 . S
O304 Mg282 2.106 . S
O305 Mg282 2.079 . S
O305 C287 1.245 . S
O306 Mg285 2.038 . S
O306 C287 1.274 . S
C307 O319 1.241 . S
C307 O320 1.280 . S
C308 O321 1.277 . S
C308 O322 1.245 . S
C309 O333 1.247 . S
C309 O335 1.289 . S
Mg310 O311 1.926 . S
Mg310 O320 1.984 . S
Mg310 O322 1.988 1_545 S
Mg310 O323 2.061 . S
O311 Mg310 1.926 . S
O311 Mg312 1.986 . S
O311 Mg313 1.917 . S
Mg312 O311 1.986 . S
Mg312 O319 2.042 . S
Mg312 O321 2.041 1_545 S
Mg312 O327 2.038 . S
Mg312 O335 2.238 1_545 S
Mg313 O311 1.917 . S
Mg313 O314 1.917 1_545 S
Mg313 O324 2.106 . S
Mg313 O326 2.079 . S
Mg313 O335 2.106 1_545 S
Mg313 O336 2.079 1_545 S
O314 Mg313 1.917 1_565 S
O314 Mg315 1.926 . S
O314 Mg316 1.986 1_565 S
Mg315 O314 1.926 . S
Mg315 O329 1.984 . S
Mg315 O332 1.988 1_565 S
Mg315 O333 2.061 . S
Mg316 O314 1.986 1_545 S
Mg316 O324 2.238 . S
Mg316 O328 2.042 1_545 S
Mg316 O330 2.041 . S
Mg316 O337 2.038 1_545 S
C317 O323 1.247 . S
C317 O324 1.289 . S
C318 O336 1.245 . S
C318 O337 1.274 . S
O319 C307 1.241 . S
O319 Mg312 2.042 . S
O320 C307 1.280 . S
O320 Mg310 1.984 . S
O321 C308 1.277 . S
O321 Mg312 2.041 1_565 S
O322 C308 1.245 . S
O322 Mg310 1.988 1_565 S
O323 Mg310 2.061 . S
O323 C317 1.247 . S
O324 Mg313 2.106 . S
O324 Mg316 2.238 . S
O324 C317 1.289 . S
C325 O326 1.245 . S
C325 O327 1.274 . S
O326 Mg313 2.079 . S
O326 C325 1.245 . S
O327 Mg312 2.038 . S
O327 C325 1.274 . S
O328 Mg316 2.042 1_565 S
O328 C331 1.241 . S
O329 Mg315 1.984 . S
O329 C331 1.280 . S
O330 Mg316 2.041 . S
O330 C334 1.277 . S
C331 O328 1.241 . S
C331 O329 1.280 . S
O332 Mg315 1.988 1_545 S
O332 C334 1.245 . S
O333 C309 1.247 . S
O333 Mg315 2.061 . S
C334 O330 1.277 . S
C334 O332 1.245 . S
O335 C309 1.289 . S
O335 Mg312 2.238 1_565 S
O335 Mg313 2.106 1_565 S
O336 Mg313 2.079 1_565 S
O336 C318 1.245 . S
O337 Mg316 2.038 1_565 S
O337 C318 1.274 . S
C338 O350 1.241 . S
C338 O351 1.280 . S
C339 O352 1.277 . S
C339 O353 1.245 . S
C340 O364 1.247 . S
C340 O366 1.289 . S
Mg341 O342 1.926 . S
Mg341 O351 1.984 . S
Mg341 O353 1.988 . S
Mg341 O354 2.061 . S
O342 Mg341 1.926 . S
O342 Mg343 1.986 . S
O342 Mg344 1.917 . S
Mg343 O342 1.986 . S
Mg343 O350 2.042 . S
Mg343 O352 2.041 . S
Mg343 O358 2.038 . S
Mg343 O366 2.238 . S
Mg344 O342 1.917 . S
Mg344 O345 1.917 . S
Mg344 O355 2.106 . S
Mg344 O357 2.079 . S
Mg344 O366 2.106 . S
Mg344 O367 2.079 . S
O345 Mg344 1.917 . S
O345 Mg346 1.926 . S
O345 Mg347 1.986 . S
Mg346 O345 1.926 . S
Mg346 O360 1.984 . S
Mg346 O363 1.988 . S
Mg346 O364 2.061 . S
Mg347 O345 1.986 . S
Mg347 O355 2.238 . S
Mg347 O359 2.042 . S
Mg347 O361 2.041 . S
Mg347 O368 2.038 . S
C348 O354 1.247 . S
C348 O355 1.289 . S
C349 O367 1.245 . S
C349 O368 1.274 . S
O350 C338 1.241 . S
O350 Mg343 2.042 . S
O351 C338 1.280 . S
O351 Mg341 1.984 . S
O352 C339 1.277 . S
O352 Mg343 2.041 . S
O353 C339 1.245 . S
O353 Mg341 1.988 . S
O354 Mg341 2.061 . S
O354 C348 1.247 . S
O355 Mg344 2.106 . S
O355 Mg347 2.238 . S
O355 C348 1.289 . S
C356 O357 1.245 . S
C356 O358 1.274 . S
O357 Mg344 2.079 . S
O357 C356 1.245 . S
O358 Mg343 2.038 . S
O358 C356 1.274 . S
O359 Mg347 2.042 . S
O359 C362 1.241 . S
O360 Mg346 1.984 . S
O360 C362 1.280 . S
O361 Mg347 2.041 . S
O361 C365 1.277 . S
C362 O359 1.241 . S
C362 O360 1.280 . S
O363 Mg346 1.988 . S
O363 C365 1.245 . S
O364 C340 1.247 . S
O364 Mg346 2.061 . S
C365 O361 1.277 . S
C365 O363 1.245 . S
O366 C340 1.289 . S
O366 Mg343 2.238 . S
O366 Mg344 2.106 . S
O367 Mg344 2.079 . S
O367 C349 1.245 . S
O368 Mg347 2.038 . S
O368 C349 1.274 . S
C369 C370 1.391 . S
C369 C371 1.394 . S
C369 H385 0.931 . S
C370 C369 1.391 . S
C370 C374 1.376 . S
C371 C369 1.394 . S
C371 C372 1.369 . S
C371 C375 1.531 . S
C372 C371 1.369 . S
C372 C373 1.410 . S
C372 C380 1.503 . S
C373 C372 1.410 . S
C373 C374 1.392 . S
C373 C376 1.511 . S
C374 C370 1.376 . S
C374 C373 1.392 . S
C374 H386 0.929 . S
C375 C371 1.531 . S
C375 H387 0.960 . S
C375 H388 0.962 . S
C375 H389 0.960 . S
C376 C373 1.511 . S
C376 H390 0.961 . S
C376 H391 0.961 . S
C376 H392 0.961 . S
C377 C378 1.370 . S
C377 C379 1.363 . S
C377 H393 0.931 . S
C378 C377 1.370 . S
C378 C382 1.408 . S
C379 C377 1.363 . S
C379 C380 1.370 . S
C379 C383 1.524 . S
C380 C372 1.503 . S
C380 C379 1.370 . S
C380 C381 1.403 . S
C381 C380 1.403 . S
C381 C382 1.404 . S
C381 C384 1.539 . S
C382 C378 1.408 . S
C382 C381 1.404 . S
C382 H394 0.930 . S
C383 C379 1.524 . S
C383 H395 0.956 . S
C383 H396 0.961 . S
C383 H397 0.961 . S
C384 C381 1.539 . S
C384 H398 0.958 . S
C384 H399 0.961 . S
C384 H400 0.960 . S
H385 C369 0.931 . S
H386 C374 0.929 . S
H387 C375 0.960 . S
H388 C375 0.962 . S
H389 C375 0.960 . S
H390 C376 0.961 . S
H391 C376 0.961 . S
H392 C376 0.961 . S
H393 C377 0.931 . S
H394 C382 0.930 . S
H395 C383 0.956 . S
H396 C383 0.961 . S
H397 C383 0.961 . S
H398 C384 0.958 . S
H399 C384 0.961 . S
H400 C384 0.960 . S
C401 C402 1.391 . S
C401 C403 1.394 . S
C401 H417 0.931 . S
C402 C401 1.391 . S
C402 C406 1.376 . S
C403 C401 1.394 . S
C403 C404 1.369 . S
C403 C407 1.531 . S
C404 C403 1.369 . S
C404 C405 1.410 . S
C404 C412 1.503 . S
C405 C404 1.410 . S
C405 C406 1.392 . S
C405 C408 1.511 . S
C406 C402 1.376 . S
C406 C405 1.392 . S
C406 H418 0.929 . S
C407 C403 1.531 . S
C407 H419 0.960 . S
C407 H420 0.962 . S
C407 H421 0.960 . S
C408 C405 1.511 . S
C408 H422 0.961 . S
C408 H423 0.961 . S
C408 H424 0.961 . S
C409 C410 1.370 . S
C409 C411 1.363 . S
C409 H425 0.931 . S
C410 C409 1.370 . S
C410 C414 1.408 . S
C411 C409 1.363 . S
C411 C412 1.370 . S
C411 C415 1.524 . S
C412 C404 1.503 . S
C412 C411 1.370 . S
C412 C413 1.403 . S
C413 C412 1.403 . S
C413 C414 1.404 . S
C413 C416 1.539 . S
C414 C410 1.408 . S
C414 C413 1.404 . S
C414 H426 0.930 . S
C415 C411 1.524 . S
C415 H427 0.956 . S
C415 H428 0.961 . S
C415 H429 0.961 . S
C416 C413 1.539 . S
C416 H430 0.958 . S
C416 H431 0.961 . S
C416 H432 0.960 . S
H417 C401 0.931 . S
H418 C406 0.929 . S
H419 C407 0.960 . S
H420 C407 0.962 . S
H421 C407 0.960 . S
H422 C408 0.961 . S
H423 C408 0.961 . S
H424 C408 0.961 . S
H425 C409 0.931 . S
H426 C414 0.930 . S
H427 C415 0.956 . S
H428 C415 0.961 . S
H429 C415 0.961 . S
H430 C416 0.958 . S
H431 C416 0.961 . S
H432 C416 0.960 . S
C433 C434 1.391 . S
C433 C435 1.394 . S
C433 H449 0.931 . S
C434 C433 1.391 . S
C434 C438 1.376 . S
C435 C433 1.394 . S
C435 C436 1.369 . S
C435 C439 1.531 . S
C436 C435 1.369 . S
C436 C437 1.410 . S
C436 C444 1.503 . S
C437 C436 1.410 . S
C437 C438 1.392 . S
C437 C440 1.511 . S
C438 C434 1.376 . S
C438 C437 1.392 . S
C438 H450 0.929 . S
C439 C435 1.531 . S
C439 H451 0.960 . S
C439 H452 0.962 . S
C439 H453 0.960 . S
C440 C437 1.511 . S
C440 H454 0.961 . S
C440 H455 0.961 . S
C440 H456 0.961 . S
C441 C442 1.370 . S
C441 C443 1.363 . S
C441 H457 0.931 . S
C442 C441 1.370 . S
C442 C446 1.408 . S
C443 C441 1.363 . S
C443 C444 1.370 . S
C443 C447 1.524 . S
C444 C436 1.503 . S
C444 C443 1.370 . S
C444 C445 1.403 . S
C445 C444 1.403 . S
C445 C446 1.404 . S
C445 C448 1.539 . S
C446 C442 1.408 . S
C446 C445 1.404 . S
C446 H458 0.930 . S
C447 C443 1.524 . S
C447 H459 0.956 . S
C447 H460 0.961 . S
C447 H461 0.961 . S
C448 C445 1.539 . S
C448 H462 0.958 . S
C448 H463 0.961 . S
C448 H464 0.960 . S
H449 C433 0.931 . S
H450 C438 0.929 . S
H451 C439 0.960 . S
H452 C439 0.962 . S
H453 C439 0.960 . S
H454 C440 0.961 . S
H455 C440 0.961 . S
H456 C440 0.961 . S
H457 C441 0.931 . S
H458 C446 0.930 . S
H459 C447 0.956 . S
H460 C447 0.961 . S
H461 C447 0.961 . S
H462 C448 0.958 . S
H463 C448 0.961 . S
H464 C448 0.960 . S
C465 C466 1.391 . S
C465 C467 1.394 . S
C465 H481 0.931 . S
C466 C465 1.391 . S
C466 C470 1.376 . S
C467 C465 1.394 . S
C467 C468 1.369 . S
C467 C471 1.531 . S
C468 C467 1.369 . S
C468 C469 1.410 . S
C468 C476 1.503 . S
C469 C468 1.410 . S
C469 C470 1.392 . S
C469 C472 1.511 . S
C470 C466 1.376 . S
C470 C469 1.392 . S
C470 H482 0.929 . S
C471 C467 1.531 . S
C471 H483 0.960 . S
C471 H484 0.962 . S
C471 H485 0.960 . S
C472 C469 1.511 . S
C472 H486 0.961 . S
C472 H487 0.961 . S
C472 H488 0.961 . S
C473 C474 1.370 . S
C473 C475 1.363 . S
C473 H489 0.931 . S
C474 C473 1.370 . S
C474 C478 1.408 . S
C475 C473 1.363 . S
C475 C476 1.370 . S
C475 C479 1.524 . S
C476 C468 1.503 . S
C476 C475 1.370 . S
C476 C477 1.403 . S
C477 C476 1.403 . S
C477 C478 1.404 . S
C477 C480 1.539 . S
C478 C474 1.408 . S
C478 C477 1.404 . S
C478 H490 0.930 . S
C479 C475 1.524 . S
C479 H491 0.956 . S
C479 H492 0.961 . S
C479 H493 0.961 . S
C480 C477 1.539 . S
C480 H494 0.958 . S
C480 H495 0.961 . S
C480 H496 0.960 . S
H481 C465 0.931 . S
H482 C470 0.929 . S
H483 C471 0.960 . S
H484 C471 0.962 . S
H485 C471 0.960 . S
H486 C472 0.961 . S
H487 C472 0.961 . S
H488 C472 0.961 . S
H489 C473 0.931 . S
H490 C478 0.930 . S
H491 C479 0.956 . S
H492 C479 0.961 . S
H493 C479 0.961 . S
H494 C480 0.958 . S
H495 C480 0.961 . S
H496 C480 0.960 . S
C497 C498 1.391 . S
C497 C499 1.394 . S
C497 H513 0.931 . S
C498 C497 1.391 . S
C498 C502 1.376 . S
C499 C497 1.394 . S
C499 C500 1.369 . S
C499 C503 1.531 . S
C500 C499 1.369 . S
C500 C501 1.410 . S
C500 C508 1.503 . S
C501 C500 1.410 . S
C501 C502 1.392 . S
C501 C504 1.511 . S
C502 C498 1.376 . S
C502 C501 1.392 . S
C502 H514 0.929 . S
C503 C499 1.531 . S
C503 H515 0.960 . S
C503 H516 0.962 . S
C503 H517 0.960 . S
C504 C501 1.511 . S
C504 H518 0.961 . S
C504 H519 0.961 . S
C504 H520 0.961 . S
C505 C506 1.370 . S
C505 C507 1.363 . S
C505 H521 0.931 . S
C506 C505 1.370 . S
C506 C510 1.408 . S
C507 C505 1.363 . S
C507 C508 1.370 . S
C507 C511 1.524 . S
C508 C500 1.503 . S
C508 C507 1.370 . S
C508 C509 1.403 . S
C509 C508 1.403 . S
C509 C510 1.404 . S
C509 C512 1.539 . S
C510 C506 1.408 . S
C510 C509 1.404 . S
C510 H522 0.930 . S
C511 C507 1.524 . S
C511 H523 0.956 . S
C511 H524 0.961 . S
C511 H525 0.961 . S
C512 C509 1.539 . S
C512 H526 0.958 . S
C512 H527 0.961 . S
C512 H528 0.960 . S
H513 C497 0.931 . S
H514 C502 0.929 . S
H515 C503 0.960 . S
H516 C503 0.962 . S
H517 C503 0.960 . S
H518 C504 0.961 . S
H519 C504 0.961 . S
H520 C504 0.961 . S
H521 C505 0.931 . S
H522 C510 0.930 . S
H523 C511 0.956 . S
H524 C511 0.961 . S
H525 C511 0.961 . S
H526 C512 0.958 . S
H527 C512 0.961 . S
H528 C512 0.960 . S
C529 C530 1.391 . S
C529 C531 1.394 . S
C529 H545 0.931 . S
C530 C529 1.391 . S
C530 C534 1.376 . S
C531 C529 1.394 . S
C531 C532 1.369 . S
C531 C535 1.531 . S
C532 C531 1.369 . S
C532 C533 1.410 . S
C532 C540 1.503 . S
C533 C532 1.410 . S
C533 C534 1.392 . S
C533 C536 1.511 . S
C534 C530 1.376 . S
C534 C533 1.392 . S
C534 H546 0.929 . S
C535 C531 1.531 . S
C535 H547 0.960 . S
C535 H548 0.962 . S
C535 H549 0.960 . S
C536 C533 1.511 . S
C536 H550 0.961 . S
C536 H551 0.961 . S
C536 H552 0.961 . S
C537 C538 1.370 . S
C537 C539 1.363 . S
C537 H553 0.931 . S
C538 C537 1.370 . S
C538 C542 1.408 . S
C539 C537 1.363 . S
C539 C540 1.370 . S
C539 C543 1.524 . S
C540 C532 1.503 . S
C540 C539 1.370 . S
C540 C541 1.403 . S
C541 C540 1.403 . S
C541 C542 1.404 . S
C541 C544 1.539 . S
C542 C538 1.408 . S
C542 C541 1.404 . S
C542 H554 0.930 . S
C543 C539 1.524 . S
C543 H555 0.956 . S
C543 H556 0.961 . S
C543 H557 0.961 . S
C544 C541 1.539 . S
C544 H558 0.958 . S
C544 H559 0.961 . S
C544 H560 0.960 . S
H545 C529 0.931 . S
H546 C534 0.929 . S
H547 C535 0.960 . S
H548 C535 0.962 . S
H549 C535 0.960 . S
H550 C536 0.961 . S
H551 C536 0.961 . S
H552 C536 0.961 . S
H553 C537 0.931 . S
H554 C542 0.930 . S
H555 C543 0.956 . S
H556 C543 0.961 . S
H557 C543 0.961 . S
H558 C544 0.958 . S
H559 C544 0.961 . S
H560 C544 0.960 . S
C561 C562 1.391 . S
C561 C563 1.394 . S
C561 H577 0.931 . S
C562 C561 1.391 . S
C562 C566 1.376 . S
C563 C561 1.394 . S
C563 C564 1.369 . S
C563 C567 1.531 . S
C564 C563 1.369 . S
C564 C565 1.410 . S
C564 C572 1.503 . S
C565 C564 1.410 . S
C565 C566 1.392 . S
C565 C568 1.511 . S
C566 C562 1.376 . S
C566 C565 1.392 . S
C566 H578 0.929 . S
C567 C563 1.531 . S
C567 H579 0.960 . S
C567 H580 0.962 . S
C567 H581 0.960 . S
C568 C565 1.511 . S
C568 H582 0.961 . S
C568 H583 0.961 . S
C568 H584 0.961 . S
C569 C570 1.370 . S
C569 C571 1.363 . S
C569 H585 0.931 . S
C570 C569 1.370 . S
C570 C574 1.408 . S
C571 C569 1.363 . S
C571 C572 1.370 . S
C571 C575 1.524 . S
C572 C564 1.503 . S
C572 C571 1.370 . S
C572 C573 1.403 . S
C573 C572 1.403 . S
C573 C574 1.404 . S
C573 C576 1.539 . S
C574 C570 1.408 . S
C574 C573 1.404 . S
C574 H586 0.930 . S
C575 C571 1.524 . S
C575 H587 0.956 . S
C575 H588 0.961 . S
C575 H589 0.961 . S
C576 C573 1.539 . S
C576 H590 0.958 . S
C576 H591 0.961 . S
C576 H592 0.960 . S
H577 C561 0.931 . S
H578 C566 0.929 . S
H579 C567 0.960 . S
H580 C567 0.962 . S
H581 C567 0.960 . S
H582 C568 0.961 . S
H583 C568 0.961 . S
H584 C568 0.961 . S
H585 C569 0.931 . S
H586 C574 0.930 . S
H587 C575 0.956 . S
H588 C575 0.961 . S
H589 C575 0.961 . S
H590 C576 0.958 . S
H591 C576 0.961 . S
H592 C576 0.960 . S
C593 C594 1.391 . S
C593 C595 1.394 . S
C593 H609 0.931 . S
C594 C593 1.391 . S
C594 C598 1.376 . S
C595 C593 1.394 . S
C595 C596 1.369 . S
C595 C599 1.531 . S
C596 C595 1.369 . S
C596 C597 1.410 . S
C596 C604 1.503 . S
C597 C596 1.410 . S
C597 C598 1.392 . S
C597 C600 1.511 . S
C598 C594 1.376 . S
C598 C597 1.392 . S
C598 H610 0.929 . S
C599 C595 1.531 . S
C599 H611 0.960 . S
C599 H612 0.962 . S
C599 H613 0.960 . S
C600 C597 1.511 . S
C600 H614 0.961 . S
C600 H615 0.961 . S
C600 H616 0.961 . S
C601 C602 1.370 . S
C601 C603 1.363 . S
C601 H617 0.931 . S
C602 C601 1.370 . S
C602 C606 1.408 . S
C603 C601 1.363 . S
C603 C604 1.370 . S
C603 C607 1.524 . S
C604 C596 1.503 . S
C604 C603 1.370 . S
C604 C605 1.403 . S
C605 C604 1.403 . S
C605 C606 1.404 . S
C605 C608 1.539 . S
C606 C602 1.408 . S
C606 C605 1.404 . S
C606 H618 0.930 . S
C607 C603 1.524 . S
C607 H619 0.956 . S
C607 H620 0.961 . S
C607 H621 0.961 . S
C608 C605 1.539 . S
C608 H622 0.958 . S
C608 H623 0.961 . S
C608 H624 0.960 . S
H609 C593 0.931 . S
H610 C598 0.929 . S
H611 C599 0.960 . S
H612 C599 0.962 . S
H613 C599 0.960 . S
H614 C600 0.961 . S
H615 C600 0.961 . S
H616 C600 0.961 . S
H617 C601 0.931 . S
H618 C606 0.930 . S
H619 C607 0.956 . S
H620 C607 0.961 . S
H621 C607 0.961 . S
H622 C608 0.958 . S
H623 C608 0.961 . S
H624 C608 0.960 . S
C625 C626 1.391 . S
C625 C627 1.394 . S
C625 H641 0.931 . S
C626 C625 1.391 . S
C626 C630 1.376 . S
C627 C625 1.394 . S
C627 C628 1.369 . S
C627 C631 1.531 . S
C628 C627 1.369 . S
C628 C629 1.410 . S
C628 C636 1.503 . S
C629 C628 1.410 . S
C629 C630 1.392 . S
C629 C632 1.511 . S
C630 C626 1.376 . S
C630 C629 1.392 . S
C630 H642 0.929 . S
C631 C627 1.531 . S
C631 H643 0.960 . S
C631 H644 0.962 . S
C631 H645 0.960 . S
C632 C629 1.511 . S
C632 H646 0.961 . S
C632 H647 0.961 . S
C632 H648 0.961 . S
C633 C634 1.370 . S
C633 C635 1.363 . S
C633 H649 0.931 . S
C634 C633 1.370 . S
C634 C638 1.408 . S
C635 C633 1.363 . S
C635 C636 1.370 . S
C635 C639 1.524 . S
C636 C628 1.503 . S
C636 C635 1.370 . S
C636 C637 1.403 . S
C637 C636 1.403 . S
C637 C638 1.404 . S
C637 C640 1.539 . S
C638 C634 1.408 . S
C638 C637 1.404 . S
C638 H650 0.930 . S
C639 C635 1.524 . S
C639 H651 0.956 . S
C639 H652 0.961 . S
C639 H653 0.961 . S
C640 C637 1.539 . S
C640 H654 0.958 . S
C640 H655 0.961 . S
C640 H656 0.960 . S
H641 C625 0.931 . S
H642 C630 0.929 . S
H643 C631 0.960 . S
H644 C631 0.962 . S
H645 C631 0.960 . S
H646 C632 0.961 . S
H647 C632 0.961 . S
H648 C632 0.961 . S
H649 C633 0.931 . S
H650 C638 0.930 . S
H651 C639 0.956 . S
H652 C639 0.961 . S
H653 C639 0.961 . S
H654 C640 0.958 . S
H655 C640 0.961 . S
H656 C640 0.960 . S
C657 C658 1.391 . S
C657 C659 1.394 1_554 S
C657 H673 0.931 . S
C658 C657 1.391 . S
C658 C662 1.376 . S
C659 C657 1.394 1_556 S
C659 C660 1.369 . S
C659 C663 1.531 . S
C660 C659 1.369 . S
C660 C661 1.410 . S
C660 C668 1.503 . S
C661 C660 1.410 . S
C661 C662 1.392 1_556 S
C661 C664 1.511 . S
C662 C658 1.376 . S
C662 C661 1.392 1_554 S
C662 H674 0.929 . S
C663 C659 1.531 . S
C663 H675 0.960 . S
C663 H676 0.962 . S
C663 H677 0.960 . S
C664 C661 1.511 . S
C664 H678 0.961 . S
C664 H679 0.961 . S
C664 H680 0.961 . S
C665 C666 1.370 . S
C665 C667 1.363 . S
C665 H681 0.931 . S
C666 C665 1.370 . S
C666 C670 1.408 . S
C667 C665 1.363 . S
C667 C668 1.370 . S
C667 C671 1.524 . S
C668 C660 1.503 . S
C668 C667 1.370 . S
C668 C669 1.403 . S
C669 C668 1.403 . S
C669 C670 1.404 . S
C669 C672 1.539 . S
C670 C666 1.408 . S
C670 C669 1.404 . S
C670 H682 0.930 . S
C671 C667 1.524 . S
C671 H683 0.956 . S
C671 H684 0.961 . S
C671 H685 0.961 . S
C672 C669 1.539 . S
C672 H686 0.958 1_556 S
C672 H687 0.961 . S
C672 H688 0.960 1_556 S
H673 C657 0.931 . S
H674 C662 0.929 . S
H675 C663 0.960 . S
H676 C663 0.962 . S
H677 C663 0.960 . S
H678 C664 0.961 . S
H679 C664 0.961 . S
H680 C664 0.961 . S
H681 C665 0.931 . S
H682 C670 0.930 . S
H683 C671 0.956 . S
H684 C671 0.961 . S
H685 C671 0.961 . S
H686 C672 0.958 1_554 S
H687 C672 0.961 . S
H688 C672 0.960 1_554 S
C689 C690 1.391 . S
C689 C691 1.394 . S
C689 H705 0.931 . S
C690 C689 1.391 . S
C690 C694 1.376 . S
C691 C689 1.394 . S
C691 C692 1.369 . S
C691 C695 1.531 . S
C692 C691 1.369 . S
C692 C693 1.410 . S
C692 C700 1.503 . S
C693 C692 1.410 . S
C693 C694 1.392 . S
C693 C696 1.511 . S
C694 C690 1.376 . S
C694 C693 1.392 . S
C694 H706 0.929 . S
C695 C691 1.531 . S
C695 H707 0.960 . S
C695 H708 0.962 . S
C695 H709 0.960 . S
C696 C693 1.511 . S
C696 H710 0.961 . S
C696 H711 0.961 . S
C696 H712 0.961 . S
C697 C698 1.370 . S
C697 C699 1.363 . S
C697 H713 0.931 . S
C698 C697 1.370 . S
C698 C702 1.408 . S
C699 C697 1.363 . S
C699 C700 1.370 . S
C699 C703 1.524 . S
C700 C692 1.503 . S
C700 C699 1.370 . S
C700 C701 1.403 . S
C701 C700 1.403 . S
C701 C702 1.404 . S
C701 C704 1.539 . S
C702 C698 1.408 . S
C702 C701 1.404 . S
C702 H714 0.930 . S
C703 C699 1.524 . S
C703 H715 0.956 . S
C703 H716 0.961 . S
C703 H717 0.961 . S
C704 C701 1.539 . S
C704 H718 0.958 . S
C704 H719 0.961 . S
C704 H720 0.960 . S
H705 C689 0.931 . S
H706 C694 0.929 . S
H707 C695 0.960 . S
H708 C695 0.962 . S
H709 C695 0.960 . S
H710 C696 0.961 . S
H711 C696 0.961 . S
H712 C696 0.961 . S
H713 C697 0.931 . S
H714 C702 0.930 . S
H715 C703 0.956 . S
H716 C703 0.961 . S
H717 C703 0.961 . S
H718 C704 0.958 . S
H719 C704 0.961 . S
H720 C704 0.960 . S
C721 C722 1.391 . S
C721 C723 1.394 . S
C721 H737 0.941 . S
C722 C721 1.391 . S
C722 C726 1.376 . S
C723 C721 1.394 . S
C723 C724 1.369 . S
C723 C727 1.531 . S
C724 C723 1.369 . S
C724 C725 1.410 . S
C724 C732 1.503 . S
C725 C724 1.410 . S
C725 C726 1.392 . S
C725 C728 1.511 . S
C726 C722 1.376 . S
C726 C725 1.392 . S
C726 H738 0.929 . S
C727 C723 1.531 . S
C727 H739 0.960 . S
C727 H740 0.962 . S
C727 H741 0.960 . S
C728 C725 1.511 . S
C728 H742 0.961 . S
C728 H743 0.961 . S
C728 H744 0.961 . S
C729 C730 1.370 . S
C729 C731 1.363 . S
C729 H745 0.931 . S
C730 C729 1.370 . S
C730 C734 1.408 . S
C731 C729 1.363 . S
C731 C732 1.370 . S
C731 C735 1.524 . S
C732 C724 1.503 . S
C732 C731 1.370 . S
C732 C733 1.403 . S
C733 C732 1.403 . S
C733 C734 1.404 . S
C733 C736 1.539 . S
C734 C730 1.408 . S
C734 C733 1.404 . S
C734 H746 0.930 . S
C735 C731 1.524 . S
C735 H747 0.956 . S
C735 H748 0.961 . S
C735 H749 0.961 . S
C736 C733 1.539 . S
C736 H750 0.958 . S
C736 H751 0.961 . S
C736 H752 0.960 . S
H737 C721 0.941 . S
H738 C726 0.929 . S
H739 C727 0.960 . S
H740 C727 0.962 . S
H741 C727 0.960 . S
H742 C728 0.961 . S
H743 C728 0.961 . S
H744 C728 0.961 . S
H745 C729 0.931 . S
H746 C734 0.930 . S
H747 C735 0.956 . S
H748 C735 0.961 . S
H749 C735 0.961 . S
H750 C736 0.958 . S
H751 C736 0.961 . S
H752 C736 0.960 . S
C753 C754 1.391 . S
C753 C755 1.394 . S
C753 H769 0.931 . S
C754 C753 1.391 . S
C754 C758 1.376 . S
C755 C753 1.394 . S
C755 C756 1.369 . S
C755 C759 1.531 . S
C756 C755 1.369 . S
C756 C757 1.410 . S
C756 C764 1.503 . S
C757 C756 1.410 . S
C757 C758 1.392 . S
C757 C760 1.511 . S
C758 C754 1.376 . S
C758 C757 1.392 . S
C758 H770 0.929 . S
C759 C755 1.531 . S
C759 H771 0.960 . S
C759 H772 0.962 . S
C759 H773 0.960 . S
C760 C757 1.511 . S
C760 H774 0.961 . S
C760 H775 0.961 . S
C760 H776 0.961 . S
C761 C762 1.370 . S
C761 C763 1.363 . S
C761 H777 0.931 . S
C762 C761 1.370 . S
C762 C766 1.408 . S
C763 C761 1.363 . S
C763 C764 1.370 . S
C763 C767 1.524 . S
C764 C756 1.503 . S
C764 C763 1.370 . S
C764 C765 1.403 . S
C765 C764 1.403 . S
C765 C766 1.404 . S
C765 C768 1.539 . S
C766 C762 1.408 . S
C766 C765 1.404 . S
C766 H778 0.930 . S
C767 C763 1.524 . S
C767 H779 0.956 . S
C767 H780 0.961 . S
C767 H781 0.961 . S
C768 C765 1.539 . S
C768 H782 0.958 . S
C768 H783 0.961 . S
C768 H784 0.960 . S
H769 C753 0.931 . S
H770 C758 0.929 . S
H771 C759 0.960 . S
H772 C759 0.962 . S
H773 C759 0.960 . S
H774 C760 0.961 . S
H775 C760 0.961 . S
H776 C760 0.961 . S
H777 C761 0.931 . S
H778 C766 0.930 . S
H779 C767 0.956 . S
H780 C767 0.961 . S
H781 C767 0.961 . S
H782 C768 0.958 . S
H783 C768 0.961 . S
H784 C768 0.960 . S
C785 C786 1.391 . S
C785 C787 1.394 . S
C785 H801 0.931 . S
C786 C785 1.391 . S
C786 C790 1.376 . S
C787 C785 1.394 . S
C787 C788 1.369 . S
C787 C791 1.531 . S
C788 C787 1.369 . S
C788 C789 1.410 . S
C788 C796 1.503 . S
C789 C788 1.410 . S
C789 C790 1.392 . S
C789 C792 1.511 . S
C790 C786 1.376 . S
C790 C789 1.392 . S
C790 H802 0.929 . S
C791 C787 1.531 . S
C791 H803 0.960 . S
C791 H804 0.962 . S
C791 H805 0.960 . S
C792 C789 1.511 . S
C792 H806 0.961 . S
C792 H807 0.961 . S
C792 H808 0.961 . S
C793 C794 1.370 . S
C793 C795 1.363 . S
C793 H809 0.931 . S
C794 C793 1.370 . S
C794 C798 1.408 . S
C795 C793 1.363 . S
C795 C796 1.370 . S
C795 C799 1.524 . S
C796 C788 1.503 . S
C796 C795 1.370 . S
C796 C797 1.403 . S
C797 C796 1.403 . S
C797 C798 1.404 . S
C797 C800 1.539 . S
C798 C794 1.408 . S
C798 C797 1.404 . S
C798 H810 0.930 . S
C799 C795 1.524 . S
C799 H811 0.956 . S
C799 H812 0.961 . S
C799 H813 0.961 . S
C800 C797 1.539 . S
C800 H814 0.958 . S
C800 H815 0.961 . S
C800 H816 0.960 . S
H801 C785 0.931 . S
H802 C790 0.929 . S
H803 C791 0.960 . S
H804 C791 0.962 . S
H805 C791 0.960 . S
H806 C792 0.961 . S
H807 C792 0.961 . S
H808 C792 0.961 . S
H809 C793 0.931 . S
H810 C798 0.930 . S
H811 C799 0.956 . S
H812 C799 0.961 . S
H813 C799 0.961 . S
H814 C800 0.958 . S
H815 C800 0.961 . S
H816 C800 0.960 . S
C817 C818 1.391 1_556 S
C817 C819 1.394 . S
C817 H833 0.931 . S
C818 C817 1.391 1_554 S
C818 C822 1.376 . S
C819 C817 1.394 . S
C819 C820 1.369 . S
C819 C823 1.531 . S
C820 C819 1.369 . S
C820 C821 1.410 . S
C820 C828 1.503 . S
C821 C820 1.410 . S
C821 C822 1.392 1_556 S
C821 C824 1.511 . S
C822 C818 1.376 . S
C822 C821 1.392 1_554 S
C822 H834 0.929 . S
C823 C819 1.531 . S
C823 H835 0.960 . S
C823 H836 0.962 . S
C823 H837 0.960 . S
C824 C821 1.511 . S
C824 H838 0.961 1_556 S
C824 H839 0.961 . S
C824 H840 0.961 . S
C825 C826 1.370 . S
C825 C827 1.363 . S
C825 H841 0.931 . S
C826 C825 1.370 . S
C826 C830 1.408 . S
C827 C825 1.363 . S
C827 C828 1.370 . S
C827 C831 1.524 . S
C828 C820 1.503 . S
C828 C827 1.370 . S
C828 C829 1.403 . S
C829 C828 1.403 . S
C829 C830 1.404 . S
C829 C832 1.539 . S
C830 C826 1.408 . S
C830 C829 1.404 . S
C830 H842 0.930 . S
C831 C827 1.524 . S
C831 H843 0.956 . S
C831 H844 0.961 1_556 S
C831 H845 0.961 . S
C832 C829 1.539 . S
C832 H846 0.958 . S
C832 H847 0.961 . S
C832 H848 0.960 . S
H833 C817 0.931 . S
H834 C822 0.929 . S
H835 C823 0.960 . S
H836 C823 0.962 . S
H837 C823 0.960 . S
H838 C824 0.961 1_554 S
H839 C824 0.961 . S
H840 C824 0.961 . S
H841 C825 0.931 . S
H842 C830 0.930 . S
H843 C831 0.956 . S
H844 C831 0.961 1_554 S
H845 C831 0.961 . S
H846 C832 0.958 . S
H847 C832 0.961 . S
H848 C832 0.960 . S
C849 C850 1.391 . S
C849 C851 1.394 . S
C849 H865 0.931 1_556 S
C850 C849 1.391 . S
C850 C854 1.376 . S
C851 C849 1.394 . S
C851 C852 1.369 . S
C851 C855 1.531 . S
C852 C851 1.369 . S
C852 C853 1.410 . S
C852 C860 1.503 . S
C853 C852 1.410 . S
C853 C854 1.392 . S
C853 C856 1.511 . S
C854 C850 1.376 . S
C854 C853 1.392 . S
C854 H866 0.929 . S
C855 C851 1.531 . S
C855 H867 0.960 . S
C855 H868 0.962 . S
C855 H869 0.960 1_556 S
C856 C853 1.511 . S
C856 H870 0.961 . S
C856 H871 0.961 . S
C856 H872 0.961 . S
C857 C858 1.370 . S
C857 C859 1.363 . S
C857 H873 0.931 . S
C858 C857 1.370 . S
C858 C862 1.408 . S
C859 C857 1.363 . S
C859 C860 1.370 . S
C859 C863 1.524 . S
C860 C852 1.503 . S
C860 C859 1.370 . S
C860 C861 1.403 . S
C861 C860 1.403 . S
C861 C862 1.404 . S
C861 C864 1.539 . S
C862 C858 1.408 . S
C862 C861 1.404 . S
C862 H874 0.930 . S
C863 C859 1.524 . S
C863 H875 0.956 . S
C863 H876 0.961 . S
C863 H877 0.961 . S
C864 C861 1.539 . S
C864 H878 0.958 . S
C864 H879 0.961 . S
C864 H880 0.960 . S
H865 C849 0.931 1_554 S
H866 C854 0.929 . S
H867 C855 0.960 . S
H868 C855 0.962 . S
H869 C855 0.960 1_554 S
H870 C856 0.961 . S
H871 C856 0.961 . S
H872 C856 0.961 . S
H873 C857 0.931 . S
H874 C862 0.930 . S
H875 C863 0.956 . S
H876 C863 0.961 . S
H877 C863 0.961 . S
H878 C864 0.958 . S
H879 C864 0.961 . S
H880 C864 0.960 . S
C881 C882 1.391 . S
C881 C883 1.394 . S
C881 H897 0.931 . S
C882 C881 1.391 . S
C882 C886 1.376 . S
C883 C881 1.394 . S
C883 C884 1.369 . S
C883 C887 1.531 . S
C884 C883 1.369 . S
C884 C885 1.410 . S
C884 C892 1.503 . S
C885 C884 1.410 . S
C885 C886 1.392 . S
C885 C888 1.511 . S
C886 C882 1.376 . S
C886 C885 1.392 . S
C886 H898 0.929 . S
C887 C883 1.531 . S
C887 H899 0.960 . S
C887 H900 0.962 . S
C887 H901 0.960 . S
C888 C885 1.511 . S
C888 H902 0.961 . S
C888 H903 0.961 . S
C888 H904 0.961 . S
C889 C890 1.370 . S
C889 C891 1.363 . S
C889 H905 0.931 . S
C890 C889 1.370 . S
C890 C894 1.408 . S
C891 C889 1.363 . S
C891 C892 1.370 . S
C891 C895 1.524 . S
C892 C884 1.503 . S
C892 C891 1.370 . S
C892 C893 1.403 . S
C893 C892 1.403 . S
C893 C894 1.404 . S
C893 C896 1.539 . S
C894 C890 1.408 . S
C894 C893 1.404 . S
C894 H906 0.930 . S
C895 C891 1.524 . S
C895 H907 0.956 . S
C895 H908 0.961 . S
C895 H909 0.961 . S
C896 C893 1.539 . S
C896 H910 0.958 . S
C896 H911 0.961 . S
C896 H912 0.960 . S
H897 C881 0.931 . S
H898 C886 0.929 . S
H899 C887 0.960 . S
H900 C887 0.962 . S
H901 C887 0.960 . S
H902 C888 0.961 . S
H903 C888 0.961 . S
H904 C888 0.961 . S
H905 C889 0.931 . S
H906 C894 0.930 . S
H907 C895 0.956 . S
H908 C895 0.961 . S
H909 C895 0.961 . S
H910 C896 0.958 . S
H911 C896 0.961 . S
H912 C896 0.960 . S
C913 C914 1.391 . S
C913 C915 1.394 . S
C913 H929 0.931 . S
C914 C913 1.391 . S
C914 C918 1.376 . S
C915 C913 1.394 . S
C915 C916 1.369 . S
C915 C919 1.531 . S
C916 C915 1.369 . S
C916 C917 1.410 . S
C916 C924 1.503 . S
C917 C916 1.410 . S
C917 C918 1.392 . S
C917 C920 1.511 . S
C918 C914 1.376 . S
C918 C917 1.392 . S
C918 H930 0.929 . S
C919 C915 1.531 . S
C919 H931 0.960 . S
C919 H932 0.962 . S
C919 H933 0.960 . S
C920 C917 1.511 . S
C920 H934 0.961 . S
C920 H935 0.961 . S
C920 H936 0.961 . S
C921 C922 1.370 . S
C921 C923 1.363 . S
C921 H937 0.931 . S
C922 C921 1.370 . S
C922 C926 1.408 . S
C923 C921 1.363 . S
C923 C924 1.370 . S
C923 C927 1.524 . S
C924 C916 1.503 . S
C924 C923 1.370 . S
C924 C925 1.403 . S
C925 C924 1.403 . S
C925 C926 1.404 . S
C925 C928 1.539 . S
C926 C922 1.408 . S
C926 C925 1.404 . S
C926 H938 0.930 . S
C927 C923 1.524 . S
C927 H939 0.956 . S
C927 H940 0.961 . S
C927 H941 0.961 . S
C928 C925 1.539 . S
C928 H942 0.958 . S
C928 H943 0.961 . S
C928 H944 0.960 . S
H929 C913 0.931 . S
H930 C918 0.929 . S
H931 C919 0.960 . S
H932 C919 0.962 . S
H933 C919 0.960 . S
H934 C920 0.961 . S
H935 C920 0.961 . S
H936 C920 0.961 . S
H937 C921 0.931 . S
H938 C926 0.930 . S
H939 C927 0.956 . S
H940 C927 0.961 . S
H941 C927 0.961 . S
H942 C928 0.958 . S
H943 C928 0.961 . S
H944 C928 0.960 . S
C945 C946 1.391 . S
C945 C947 1.394 . S
C945 H961 0.931 . S
C946 C945 1.391 . S
C946 C950 1.376 . S
C947 C945 1.394 . S
C947 C948 1.369 . S
C947 C951 1.531 . S
C948 C947 1.369 . S
C948 C949 1.410 . S
C948 C956 1.503 . S
C949 C948 1.410 . S
C949 C950 1.392 . S
C949 C952 1.511 . S
C950 C946 1.376 . S
C950 C949 1.392 . S
C950 H962 0.929 . S
C951 C947 1.531 . S
C951 H963 0.960 . S
C951 H964 0.962 . S
C951 H965 0.960 . S
C952 C949 1.511 . S
C952 H966 0.961 . S
C952 H967 0.961 . S
C952 H968 0.961 . S
C953 C954 1.370 . S
C953 C955 1.363 . S
C953 H969 0.931 . S
C954 C953 1.370 . S
C954 C958 1.408 . S
C955 C953 1.363 . S
C955 C956 1.370 . S
C955 C959 1.524 . S
C956 C948 1.503 . S
C956 C955 1.370 . S
C956 C957 1.403 . S
C957 C956 1.403 . S
C957 C958 1.404 . S
C957 C960 1.539 . S
C958 C954 1.408 . S
C958 C957 1.404 . S
C958 H970 0.930 . S
C959 C955 1.524 . S
C959 H971 0.956 . S
C959 H972 0.961 . S
C959 H973 0.961 . S
C960 C957 1.539 . S
C960 H974 0.958 . S
C960 H975 0.961 . S
C960 H976 0.960 . S
H961 C945 0.931 . S
H962 C950 0.929 . S
H963 C951 0.960 . S
H964 C951 0.962 . S
H965 C951 0.960 . S
H966 C952 0.961 . S
H967 C952 0.961 . S
H968 C952 0.961 . S
H969 C953 0.931 . S
H970 C958 0.930 . S
H971 C959 0.956 . S
H972 C959 0.961 . S
H973 C959 0.961 . S
H974 C960 0.958 . S
H975 C960 0.961 . S
H976 C960 0.960 . S
C977 C978 1.391 . S
C977 C979 1.394 . S
C977 H993 0.931 . S
C978 C977 1.391 . S
C978 C982 1.376 . S
C979 C977 1.394 . S
C979 C980 1.369 . S
C979 C983 1.531 . S
C980 C979 1.369 . S
C980 C981 1.410 . S
C980 C988 1.503 . S
C981 C980 1.410 . S
C981 C982 1.392 . S
C981 C984 1.511 . S
C982 C978 1.376 . S
C982 C981 1.392 . S
C982 H994 0.929 . S
C983 C979 1.531 . S
C983 H995 0.960 . S
C983 H996 0.962 . S
C983 H997 0.960 . S
C984 C981 1.511 . S
C984 H998 0.961 . S
C984 H999 0.961 . S
C984 H1000 0.961 . S
C985 C986 1.370 . S
C985 C987 1.363 . S
C985 H1001 0.931 . S
C986 C985 1.370 . S
C986 C990 1.408 . S
C987 C985 1.363 . S
C987 C988 1.370 . S
C987 C991 1.524 . S
C988 C980 1.503 . S
C988 C987 1.370 . S
C988 C989 1.403 . S
C989 C988 1.403 . S
C989 C990 1.404 . S
C989 C992 1.539 . S
C990 C986 1.408 . S
C990 C989 1.404 . S
C990 H1002 0.930 . S
C991 C987 1.524 . S
C991 H1003 0.956 . S
C991 H1004 0.961 . S
C991 H1005 0.961 . S
C992 C989 1.539 . S
C992 H1006 0.958 . S
C992 H1007 0.961 . S
C992 H1008 0.960 . S
H993 C977 0.931 . S
H994 C982 0.929 . S
H995 C983 0.960 . S
H996 C983 0.962 . S
H997 C983 0.960 . S
H998 C984 0.961 . S
H999 C984 0.961 . S
H1000 C984 0.961 . S
H1001 C985 0.931 . S
H1002 C990 0.930 . S
H1003 C991 0.956 . S
H1004 C991 0.961 . S
H1005 C991 0.961 . S
H1006 C992 0.958 . S
H1007 C992 0.961 . S
H1008 C992 0.960 . S
C1009 C1010 1.391 . S
C1009 C1011 1.394 . S
C1009 H1025 0.931 . S
C1010 C1009 1.391 . S
C1010 C1014 1.376 . S
C1011 C1009 1.394 . S
C1011 C1012 1.369 . S
C1011 C1015 1.531 . S
C1012 C1011 1.369 . S
C1012 C1013 1.410 . S
C1012 C1020 1.503 . S
C1013 C1012 1.410 . S
C1013 C1014 1.392 . S
C1013 C1016 1.511 . S
C1014 C1010 1.376 . S
C1014 C1013 1.392 . S
C1014 H1026 0.929 . S
C1015 C1011 1.531 . S
C1015 H1027 0.960 . S
C1015 H1028 0.962 . S
C1015 H1029 0.960 . S
C1016 C1013 1.511 . S
C1016 H1030 0.961 . S
C1016 H1031 0.961 . S
C1016 H1032 0.961 . S
C1017 C1018 1.370 . S
C1017 C1019 1.363 . S
C1017 H1033 0.931 . S
C1018 C1017 1.370 . S
C1018 C1022 1.408 . S
C1019 C1017 1.363 . S
C1019 C1020 1.370 . S
C1019 C1023 1.524 . S
C1020 C1012 1.503 . S
C1020 C1019 1.370 . S
C1020 C1021 1.403 . S
C1021 C1020 1.403 . S
C1021 C1022 1.404 . S
C1021 C1024 1.539 . S
C1022 C1018 1.408 . S
C1022 C1021 1.404 . S
C1022 H1034 0.930 . S
C1023 C1019 1.524 . S
C1023 H1035 0.956 . S
C1023 H1036 0.961 . S
C1023 H1037 0.961 . S
C1024 C1021 1.539 . S
C1024 H1038 0.958 . S
C1024 H1039 0.961 . S
C1024 H1040 0.960 . S
H1025 C1009 0.931 . S
H1026 C1014 0.929 . S
H1027 C1015 0.960 . S
H1028 C1015 0.962 . S
H1029 C1015 0.960 . S
H1030 C1016 0.961 . S
H1031 C1016 0.961 . S
H1032 C1016 0.961 . S
H1033 C1017 0.931 . S
H1034 C1022 0.930 . S
H1035 C1023 0.956 . S
H1036 C1023 0.961 . S
H1037 C1023 0.961 . S
H1038 C1024 0.958 . S
H1039 C1024 0.961 . S
H1040 C1024 0.960 . S
C1041 C1042 1.391 . S
C1041 C1043 1.394 . S
C1041 H1057 0.931 . S
C1042 C1041 1.391 . S
C1042 C1046 1.376 . S
C1043 C1041 1.394 . S
C1043 C1044 1.369 . S
C1043 C1047 1.531 . S
C1044 C1043 1.369 . S
C1044 C1045 1.410 . S
C1044 C1052 1.503 . S
C1045 C1044 1.410 . S
C1045 C1046 1.392 . S
C1045 C1048 1.511 . S
C1046 C1042 1.376 . S
C1046 C1045 1.392 . S
C1046 H1058 0.929 . S
C1047 C1043 1.531 . S
C1047 H1059 0.960 . S
C1047 H1060 0.962 . S
C1047 H1061 0.960 . S
C1048 C1045 1.511 . S
C1048 H1062 0.961 . S
C1048 H1063 0.961 . S
C1048 H1064 0.961 . S
C1049 C1050 1.370 . S
C1049 C1051 1.363 . S
C1049 H1065 0.931 . S
C1050 C1049 1.370 . S
C1050 C1054 1.408 . S
C1051 C1049 1.363 . S
C1051 C1052 1.370 . S
C1051 C1055 1.524 . S
C1052 C1044 1.503 . S
C1052 C1051 1.370 . S
C1052 C1053 1.403 . S
C1053 C1052 1.403 . S
C1053 C1054 1.404 . S
C1053 C1056 1.539 . S
C1054 C1050 1.408 . S
C1054 C1053 1.404 . S
C1054 H1066 0.930 . S
C1055 C1051 1.524 . S
C1055 H1067 0.956 . S
C1055 H1068 0.961 . S
C1055 H1069 0.961 . S
C1056 C1053 1.539 . S
C1056 H1070 0.958 . S
C1056 H1071 0.961 . S
C1056 H1072 0.960 . S
H1057 C1041 0.931 . S
H1058 C1046 0.929 . S
H1059 C1047 0.960 . S
H1060 C1047 0.962 . S
H1061 C1047 0.960 . S
H1062 C1048 0.961 . S
H1063 C1048 0.961 . S
H1064 C1048 0.961 . S
H1065 C1049 0.931 . S
H1066 C1054 0.930 . S
H1067 C1055 0.956 . S
H1068 C1055 0.961 . S
H1069 C1055 0.961 . S
H1070 C1056 0.958 . S
H1071 C1056 0.961 . S
H1072 C1056 0.960 . S
C1073 C1074 1.391 . S
C1073 C1075 1.394 . S
C1073 H1089 0.931 . S
C1074 C1073 1.391 . S
C1074 C1078 1.376 . S
C1075 C1073 1.394 . S
C1075 C1076 1.369 . S
C1075 C1079 1.531 . S
C1076 C1075 1.369 . S
C1076 C1077 1.410 . S
C1076 C1084 1.503 . S
C1077 C1076 1.410 . S
C1077 C1078 1.392 . S
C1077 C1080 1.511 . S
C1078 C1074 1.376 . S
C1078 C1077 1.392 . S
C1078 H1090 0.929 . S
C1079 C1075 1.531 . S
C1079 H1091 0.960 . S
C1079 H1092 0.962 . S
C1079 H1093 0.960 . S
C1080 C1077 1.511 . S
C1080 H1094 0.961 . S
C1080 H1095 0.961 . S
C1080 H1096 0.961 . S
C1081 C1082 1.370 . S
C1081 C1083 1.363 . S
C1081 H1097 0.931 . S
C1082 C1081 1.370 . S
C1082 C1086 1.408 . S
C1083 C1081 1.363 . S
C1083 C1084 1.370 . S
C1083 C1087 1.524 . S
C1084 C1076 1.503 . S
C1084 C1083 1.370 . S
C1084 C1085 1.403 . S
C1085 C1084 1.403 . S
C1085 C1086 1.404 . S
C1085 C1088 1.539 . S
C1086 C1082 1.408 . S
C1086 C1085 1.404 . S
C1086 H1098 0.930 . S
C1087 C1083 1.524 . S
C1087 H1099 0.956 . S
C1087 H1100 0.961 . S
C1087 H1101 0.961 . S
C1088 C1085 1.539 . S
C1088 H1102 0.958 . S
C1088 H1103 0.961 . S
C1088 H1104 0.960 . S
H1089 C1073 0.931 . S
H1090 C1078 0.929 . S
H1091 C1079 0.960 . S
H1092 C1079 0.962 . S
H1093 C1079 0.960 . S
H1094 C1080 0.961 . S
H1095 C1080 0.961 . S
H1096 C1080 0.961 . S
H1097 C1081 0.931 . S
H1098 C1086 0.930 . S
H1099 C1087 0.956 . S
H1100 C1087 0.961 . S
H1101 C1087 0.961 . S
H1102 C1088 0.958 . S
H1103 C1088 0.961 . S
H1104 C1088 0.960 . S
C1105 C1106 1.391 . S
C1105 C1107 1.394 . S
C1105 H1121 0.931 . S
C1106 C1105 1.391 . S
C1106 C1110 1.376 . S
C1107 C1105 1.394 . S
C1107 C1108 1.369 . S
C1107 C1111 1.531 . S
C1108 C1107 1.369 . S
C1108 C1109 1.410 . S
C1108 C1116 1.503 . S
C1109 C1108 1.410 . S
C1109 C1110 1.392 . S
C1109 C1112 1.511 . S
C1110 C1106 1.376 . S
C1110 C1109 1.392 . S
C1110 H1122 0.929 . S
C1111 C1107 1.531 . S
C1111 H1123 0.960 . S
C1111 H1124 0.962 . S
C1111 H1125 0.960 . S
C1112 C1109 1.511 . S
C1112 H1126 0.961 . S
C1112 H1127 0.961 . S
C1112 H1128 0.961 . S
C1113 C1114 1.370 . S
C1113 C1115 1.363 . S
C1113 H1129 0.931 . S
C1114 C1113 1.370 . S
C1114 C1118 1.408 . S
C1115 C1113 1.363 . S
C1115 C1116 1.370 . S
C1115 C1119 1.524 . S
C1116 C1108 1.503 . S
C1116 C1115 1.370 . S
C1116 C1117 1.403 . S
C1117 C1116 1.403 . S
C1117 C1118 1.404 . S
C1117 C1120 1.539 . S
C1118 C1114 1.408 . S
C1118 C1117 1.404 . S
C1118 H1130 0.930 . S
C1119 C1115 1.524 . S
C1119 H1131 0.956 . S
C1119 H1132 0.961 . S
C1119 H1133 0.961 . S
C1120 C1117 1.539 . S
C1120 H1134 0.958 . S
C1120 H1135 0.961 . S
C1120 H1136 0.960 . S
H1121 C1105 0.931 . S
H1122 C1110 0.929 . S
H1123 C1111 0.960 . S
H1124 C1111 0.962 . S
H1125 C1111 0.960 . S
H1126 C1112 0.961 . S
H1127 C1112 0.961 . S
H1128 C1112 0.961 . S
H1129 C1113 0.931 . S
H1130 C1118 0.930 . S
H1131 C1119 0.956 . S
H1132 C1119 0.961 . S
H1133 C1119 0.961 . S
H1134 C1120 0.958 . S
H1135 C1120 0.961 . S
H1136 C1120 0.960 . S
C370 C15 1.878 . S
C378 C287 1.811 . S
C402 C47 1.640 . S
C410 C334 1.620 . S
C442 C338 1.817 . S
C434 C100 1.870 . S
C474 C303 1.535 . S
C466 C146 1.564 . S
C498 C192 1.789 . S
C506 C318 1.727 . S
C538 C340 0.996 . S
C530 C245 1.033 . S
C570 C309 1.426 . S
C562 C114 1.452 . S
C594 C160 1.413 . S
C602 C349 1.383 . S
C634 C278 1.302 . S
C626 C206 1.379 . S
C658 C231 1.485 . S
C666 C307 1.435 . S
C690 C1 1.956 1_556 S
C698 C365 1.895 . S
C730 C276 1.513 . S
C722 C61 1.557 1_556 S
C762 C294 1.806 . S
C754 C139 1.846 . S
C794 C308 1.616 . S
C786 C185 1.619 . S
C826 C362 1.801 . S
C818 C252 1.879 . S
C858 C277 1.532 . S
C850 C22 1.557 1_556 S
C890 C325 1.726 . S
C882 C54 1.802 . S
C914 C93 1.001 . S
C922 C348 1.025 . S
C954 C317 1.418 . S
C946 C238 1.445 . S
C986 C356 1.386 . S
C978 C8 1.448 . S
C1018 C286 1.299 . S
C1010 C68 1.395 . S
C1050 C331 1.431 . S
C1042 C107 1.490 . S
C1074 C153 1.957 . S
C1082 C339 1.897 . S
C1106 C199 1.580 . S
C1114 C300 1.510 . S
