# Generated by pormake.
# Topology pyr, (3,6)-cn, num edge types: 1
# Building blocks:
#     Node 0, Type 0, BuildingBlock: BELTOD_clean_linker_0, # of connection points: 3
#     Node 1, Type 0, BuildingBlock: BELTOD_clean_linker_0, # of connection points: 3
#     Node 2, Type 0, BuildingBlock: BELTOD_clean_linker_0, # of connection points: 3
#     Node 3, Type 0, BuildingBlock: BELTOD_clean_linker_0, # of connection points: 3
#     Node 4, Type 0, BuildingBlock: BELTOD_clean_linker_0, # of connection points: 3
#     Node 5, Type 0, BuildingBlock: BELTOD_clean_linker_0, # of connection points: 3
#     Node 6, Type 0, BuildingBlock: BELTOD_clean_linker_0, # of connection points: 3
#     Node 7, Type 0, BuildingBlock: BELTOD_clean_linker_0, # of connection points: 3
#     Node 8, Type 1, BuildingBlock: BETFAJ_clean_sbu_0, # of connection points: 6
#     Node 9, Type 1, BuildingBlock: BETFAJ_clean_sbu_0, # of connection points: 6
#     Node 10, Type 1, BuildingBlock: BETFAJ_clean_sbu_0, # of connection points: 6
#     Node 11, Type 1, BuildingBlock: BETFAJ_clean_sbu_0, # of connection points: 6
#     Edge 12, Type (0, 1), None
#     Edge 13, Type (0, 1), None
#     Edge 14, Type (0, 1), None
#     Edge 15, Type (0, 1), None
#     Edge 16, Type (0, 1), None
#     Edge 17, Type (0, 1), None
#     Edge 18, Type (0, 1), None
#     Edge 19, Type (0, 1), None
#     Edge 20, Type (0, 1), None
#     Edge 21, Type (0, 1), None
#     Edge 22, Type (0, 1), None
#     Edge 23, Type (0, 1), None
#     Edge 24, Type (0, 1), None
#     Edge 25, Type (0, 1), None
#     Edge 26, Type (0, 1), None
#     Edge 27, Type (0, 1), None
#     Edge 28, Type (0, 1), None
#     Edge 29, Type (0, 1), None
#     Edge 30, Type (0, 1), None
#     Edge 31, Type (0, 1), None
#     Edge 32, Type (0, 1), None
#     Edge 33, Type (0, 1), None
#     Edge 34, Type (0, 1), None
#     Edge 35, Type (0, 1), None
# Relax obj value: 0.283
# Max RMSD: 0.166
# Mean RMSD: 0.084
data_MOF--net-pyr--node1-BETFAJ_clean_sbu_0--node2-BELTOD_clean_linker_0--edge1-none
_symmetry_space_group_name_H-M    P1
_symmetry_Int_Tables_number       1
_symmetry_cell_setting            triclinic
loop_
_symmetry_equiv_pos_as_xyz
'x, y, z'
_cell_length_a     22.477296
_cell_length_b     24.131446
_cell_length_c     21.286636
_cell_angle_alpha  90.793512
_cell_angle_beta   88.480764
_cell_angle_gamma 106.7388
loop_
_atom_site_label
_atom_site_type_symbol
_atom_site_fract_x
_atom_site_fract_y
_atom_site_fract_z
_atom_type_partial_charge
P0 P 0.4507 0.36586 0.32721 0.0
H1 H 0.56764 0.34977 0.27895 0.0
H2 H 0.59516 0.26543 0.23755 0.0
H3 H 0.41497 0.15567 0.29703 0.0
H4 H 0.3879 0.23943 0.3383 0.0
H5 H 0.43371 0.46634 0.26188 0.0
H6 H 0.33941 0.48122 0.2199 0.0
H7 H 0.2506 0.29706 0.22757 0.0
H8 H 0.34395 0.28261 0.26808 0.0
H9 H 0.40648 0.2835 0.43426 0.0
H10 H 0.39336 0.45069 0.37947 0.0
O11 O 0.51234 0.42434 0.32736 0.0
H12 H 0.30134 0.26049 0.47993 0.0
H13 H 0.28769 0.42717 0.42328 0.0
C14 C 0.47555 0.30165 0.31182 0.0
C15 C 0.53462 0.30743 0.28479 0.0
C16 C 0.55043 0.25894 0.26118 0.0
C17 C 0.507 0.20372 0.26339 0.0
C18 C 0.44952 0.19751 0.29435 0.0
C19 C 0.43397 0.24591 0.31813 0.0
C20 C 0.39675 0.37326 0.26838 0.0
C21 C 0.39504 0.42886 0.25168 0.0
C22 C 0.34051 0.43745 0.22883 0.0
C23 C 0.28684 0.39043 0.22172 0.0
C24 C 0.2909 0.33434 0.23226 0.0
C25 C 0.34512 0.32594 0.25545 0.0
C26 C 0.40483 0.36632 0.39791 0.0
C27 C 0.38176 0.31578 0.43315 0.0
C28 C 0.32202 0.30301 0.46005 0.0
C29 C 0.28613 0.34133 0.45242 0.0
C30 C 0.31433 0.39663 0.42851 0.0
C31 C 0.3747 0.40983 0.40338 0.0
P32 P 0.3979 0.08383 0.61548 0.0
H33 H 0.46285 0.14292 0.7264 0.0
H34 H 0.43257 0.13896 0.83791 0.0
H35 H 0.25184 1.02428 0.79394 0.0
H36 H 0.28276 1.02734 0.68334 0.0
H37 H 0.51906 1.0621 0.60531 0.0
H38 H 0.55056 0.97411 0.61973 0.0
H39 H 0.35755 0.87394 0.63205 0.0
H40 H 0.32651 0.96154 0.61871 0.0
H41 H 0.32936 0.16724 0.62035 0.0
H42 H 0.31704 1.00744 0.52076 0.0
O43 O 0.45736 0.14148 0.59748 0.0
H44 H 0.22126 0.15782 0.59751 0.0
H45 H 0.20817 0.99851 0.4967 0.0
C46 C 0.37492 0.08604 0.69667 0.0
C47 C 0.41649 0.1177 0.74076 0.0
C48 C 0.39885 0.11572 0.80431 0.0
C49 C 0.33949 0.08166 0.82447 0.0
C50 C 0.29777 1.05077 0.77982 0.0
C51 C 0.31549 1.05268 0.71656 0.0
C52 C 0.42038 1.01824 0.60849 0.0
C53 C 0.48354 1.02094 0.60907 0.0
C54 C 0.50153 0.9708 0.61812 0.0
C55 C 0.45649 0.91721 0.62678 0.0
C56 C 0.39331 0.91445 0.62432 0.0
C57 C 0.37547 0.96459 0.61606 0.0
C58 C 0.33048 0.08712 0.57403 0.0
C59 C 0.30396 0.13102 0.59184 0.0
C60 C 0.24202 0.1252 0.57965 0.0
C61 C 0.20642 1.07633 0.54751 0.0
C62 C 0.23485 1.03581 0.52289 0.0
C63 C 0.29689 1.04102 0.53647 0.0
P64 P 0.68197 0.38127 0.88853 0.0
H65 H 0.73107 0.35315 1.00643 0.0
H66 H 0.81966 0.40368 1.0689 0.0
H67 H 0.84553 0.55621 0.95575 0.0
H68 H 0.75732 0.50462 0.89184 0.0
H69 H 0.68453 0.26015 0.89525 0.0
H70 H 0.62905 0.17794 0.96012 0.0
H71 H 0.51535 0.27872 1.04034 0.0
H72 H 0.57184 0.36183 0.97525 0.0
H73 H 0.63517 0.48645 0.90085 0.0
H74 H 0.64477 0.36124 0.75769 0.0
O75 O 0.72865 0.35651 0.84059 0.0
H76 H 0.59468 0.54084 0.82335 0.0
H77 H 0.60599 0.41528 0.68092 0.0
C78 C 0.73559 0.42526 0.945 0.0
C79 C 0.75418 0.39804 0.9959 0.0
C80 C 0.80557 0.42697 1.03164 0.0
C81 C 0.84001 0.48415 1.01766 0.0
C82 C 0.81979 0.5124 0.96847 0.0
C83 C 0.76879 0.48298 0.93198 0.0
C84 C 0.63177 0.31749 0.92888 0.0
C85 C 0.64688 0.26469 0.92569 0.0
C86 C 0.61537 0.21743 0.96342 0.0
C87 C 0.56769 0.22142 1.00567 0.0
C88 C 0.55175 0.27394 1.00821 0.0
C89 C 0.58367 0.3215 0.97057 0.0
C90 C 0.64383 0.41957 0.8356 0.0
C91 C 0.62837 0.47033 0.85308 0.0
C92 C 0.60552 0.50172 0.80835 0.0
C93 C 0.59763 0.4832 0.74495 0.0
C94 C 0.61175 0.43159 0.72858 0.0
C95 C 0.6339 0.40025 0.77303 0.0
P96 P 0.84005 0.73479 0.36703 0.0
H97 H 0.83322 0.85469 0.35746 0.0
H98 H 0.88716 0.94599 0.40845 0.0
H99 H 1.00125 0.85969 0.50505 0.0
H100 H 0.94756 0.76821 0.45273 0.0
H101 H 0.81724 0.6087 0.3487 0.0
H102 H 0.86192 0.55094 0.27667 0.0
H103 H 0.9999 0.70562 0.21379 0.0
H104 H 0.95428 0.7637 0.2862 0.0
H105 H 0.71537 0.65323 0.35457 0.0
H106 H 0.83522 0.72765 0.50733 0.0
O107 O 0.79873 0.7525 0.31069 0.0
H108 H 0.63151 0.60861 0.42997 0.0
H109 H 0.75154 0.68306 0.58289 0.0
C110 C 0.88639 0.8039 0.40044 0.0
C111 C 0.87062 0.85523 0.38865 0.0
C112 C 0.90164 0.90791 0.41803 0.0
C113 C 0.94878 0.91082 0.46115 0.0
C114 C 0.96519 0.85949 0.47224 0.0
C115 C 0.93459 0.80687 0.44215 0.0
C116 C 0.88321 0.69088 0.32506 0.0
C117 C 0.85801 0.63045 0.32081 0.0
C118 C 0.88341 0.59725 0.27871 0.0
C119 C 0.93473 0.62329 0.23887 0.0
C120 C 0.96061 0.68379 0.24366 0.0
C121 C 0.9349 0.71709 0.28579 0.0
C122 C 0.782 0.6946 0.42467 0.0
C123 C 0.72413 0.65949 0.40432 0.0
C124 C 0.67595 0.63387 0.44762 0.0
C125 C 0.68428 0.64243 0.51273 0.0
C126 C 0.74318 0.67549 0.53319 0.0
C127 C 0.79139 0.7012 0.48975 0.0
P128 P 0.6853 0.89589 0.871 0.0
H129 H 0.62428 0.86063 0.99474 0.0
H130 H 0.56356 0.91038 1.05721 0.0
H131 H 0.53415 1.0 0.89249 0.0
H132 H 0.59241 0.94745 0.82855 0.0
H133 H 0.81441 0.95049 0.9046 0.0
H134 H 0.89181 0.91186 0.94955 0.0
H135 H 0.7499 0.75179 0.99057 0.0
H136 H 0.67166 0.79294 0.95054 0.0
H137 H 0.69961 0.92415 0.73673 0.0
H138 H 0.66189 0.76901 0.8463 0.0
O139 O 0.72183 0.964 0.85032 0.0
H140 H 0.7739 0.89224 0.67227 0.0
H141 H 0.74178 0.73952 0.78622 0.0
C142 C 0.61376 0.90077 0.90684 0.0
C143 C 0.60146 0.88762 0.97069 0.0
C144 C 0.56671 0.91639 1.00673 0.0
C145 C 0.545 0.95918 0.97944 0.0
C146 C 0.55007 0.96666 0.91421 0.0
C147 C 0.58329 0.93649 0.87776 0.0
C148 C 0.73699 0.8744 0.92304 0.0
C149 C 0.79924 0.90787 0.92529 0.0
C150 C 0.84394 0.88521 0.95025 0.0
C151 C 0.82776 0.82775 0.97165 0.0
C152 C 0.76448 0.7961 0.97442 0.0
C153 C 0.71947 0.81957 0.95102 0.0
C154 C 0.68124 0.8522 0.80088 0.0
C155 C 0.70487 0.88169 0.74528 0.0
C156 C 0.74775 0.86323 0.7082 0.0
C157 C 0.76662 0.81541 0.72719 0.0
C158 C 0.72986 0.7779 0.77218 0.0
C159 C 0.68486 0.79543 0.80728 0.0
P160 P 0.89237 0.29476 0.54634 0.0
H161 H 0.86438 0.4016 0.58106 0.0
H162 H 0.76499 0.42351 0.57595 0.0
H163 H 0.66866 0.24104 0.56933 0.0
H164 H 0.76771 0.21904 0.57367 0.0
H165 H 0.85182 0.17914 0.48759 0.0
H166 H 0.86308 0.08568 0.51887 0.0
H167 H 0.93499 0.15997 0.69698 0.0
H168 H 0.92692 0.2541 0.66401 0.0
H169 H 0.96849 0.26425 0.44526 0.0
H170 H 0.80991 0.33078 0.45929 0.0
O171 O 0.95572 0.34448 0.5711 0.0
H172 H 0.94593 0.2397 0.33448 0.0
H173 H 0.78698 0.30631 0.35142 0.0
C174 C 0.82343 0.30882 0.57762 0.0
C175 C 0.82178 0.36628 0.58214 0.0
C176 C 0.76517 0.37874 0.57849 0.0
C177 C 0.71002 0.33373 0.57107 0.0
C178 C 0.7109 0.27617 0.57496 0.0
C179 C 0.76758 0.26373 0.5779 0.0
C180 C 0.89234 0.22422 0.57209 0.0
C181 C 0.87049 0.17552 0.53317 0.0
C182 C 0.87555 0.1218 0.55153 0.0
C183 C 0.90058 0.1159 0.60983 0.0
C184 C 0.91576 0.16335 0.65154 0.0
C185 C 0.91212 0.21734 0.63247 0.0
C186 C 0.88935 0.29653 0.46168 0.0
C187 C 0.92984 0.27472 0.42436 0.0
C188 C 0.91678 0.26073 0.36117 0.0
C189 C 0.86358 0.26955 0.33449 0.0
C190 C 0.82821 0.29859 0.3701 0.0
C191 C 0.84104 0.31202 0.43294 0.0
P192 P 0.40264 0.73765 0.25946 0.0
H193 H 0.33597 0.77206 0.15677 0.0
H194 H 0.23553 0.7267 0.10909 0.0
H195 H 0.19572 0.5931 0.24962 0.0
H196 H 0.2944 0.63999 0.29893 0.0
H197 H 0.53094 0.80846 0.24946 0.0
H198 H 0.58004 0.9076 0.21621 0.0
H199 H 0.40185 0.94162 0.22099 0.0
H200 H 0.35208 0.84068 0.25398 0.0
H201 H 0.40309 0.6202 0.28717 0.0
H202 H 0.43263 0.77924 0.39228 0.0
O203 O 0.44211 0.71144 0.20487 0.0
H204 H 0.42714 0.57234 0.37872 0.0
H205 H 0.45779 0.7312 0.48549 0.0
C206 C 0.32274 0.71097 0.23302 0.0
C207 C 0.30482 0.73422 0.17887 0.0
C208 C 0.24757 0.70763 0.15091 0.0
C209 C 0.20763 0.65575 0.17499 0.0
C210 C 0.22551 0.63255 0.22925 0.0
C211 C 0.28209 0.65993 0.25803 0.0
C212 C 0.43753 0.81617 0.25362 0.0
C213 C 0.50219 0.83725 0.24492 0.0
C214 C 0.53033 0.89427 0.22548 0.0
C215 C 0.49499 0.9328 0.21519 0.0
C216 C 0.43057 0.91329 0.22853 0.0
C217 C 0.40206 0.85538 0.24738 0.0
C218 C 0.41599 0.70359 0.33219 0.0
C219 C 0.41434 0.64494 0.3303 0.0
C220 C 0.42824 0.6174 0.38317 0.0
C221 C 0.44474 0.64757 0.44018 0.0
C222 C 0.44505 0.70626 0.44274 0.0
C223 C 0.43077 0.73396 0.38929 0.0
P224 P 0.192 0.38622 0.81797 0.0
H225 H 0.09246 0.35358 0.72147 0.0
H226 H 0.0498 0.26466 0.65986 0.0
H227 H 0.15669 0.17795 0.76628 0.0
H228 H 0.20022 0.26668 0.82604 0.0
H229 H 0.3196 0.45959 0.83642 0.0
H230 H 0.40395 0.51033 0.76462 0.0
H231 H 0.28173 0.45837 0.60797 0.0
H232 H 0.19738 0.40809 0.67997 0.0
H233 H 0.08032 0.3615 0.90351 0.0
H234 H 0.21667 0.51291 0.83162 0.0
O235 O 0.23082 0.36661 0.87534 0.0
H236 H 0.04065 0.42307 0.97724 0.0
H237 H 0.17847 0.57371 0.90521 0.0
C238 C 0.14949 0.31773 0.77943 0.0
C239 C 0.10618 0.31536 0.73225 0.0
C240 C 0.08197 0.26417 0.69666 0.0
C241 C 0.09972 0.21345 0.70762 0.0
C242 C 0.14148 0.21553 0.75624 0.0
C243 C 0.16631 0.26681 0.79097 0.0
C244 C 0.25203 0.42857 0.76391 0.0
C245 C 0.31062 0.45925 0.78668 0.0
C246 C 0.35896 0.48863 0.74551 0.0
C247 C 0.34996 0.4882 0.68034 0.0
C248 C 0.29049 0.45952 0.65783 0.0
C249 C 0.24203 0.43032 0.69916 0.0
C250 C 0.15058 0.43201 0.85978 0.0
C251 C 0.10071 0.40796 0.90205 0.0
C252 C 0.07856 0.44331 0.94504 0.0
C253 C 0.1065 0.50372 0.94796 0.0
C254 C 0.15564 0.52759 0.90492 0.0
C255 C 0.17722 0.49247 0.86182 0.0
Sm256 Sm 0.03304 0.10018 0.52652 0.0
Sm257 Sm 1.02482 1.02497 0.63586 0.0
C258 C 0.04391 0.18982 0.4534 0.0
C259 C 0.0966 0.24309 0.45277 0.0
C260 C 0.12441 0.26606 0.5097 0.0
C261 C 0.18522 0.30236 0.51009 0.0
C262 C 0.21815 0.31779 0.45339 0.0
C263 C 0.1881 0.30049 0.39624 0.0
C264 C 0.12773 0.26296 0.39591 0.0
C265 C 0.13954 1.06756 0.54249 0.0
C266 C 0.07658 0.15982 0.66726 0.0
C267 C 1.01424 0.93433 0.70739 0.0
C268 C 0.95989 0.88242 0.71022 0.0
C269 C 0.93272 0.86329 0.7688 0.0
C270 C 0.87003 0.8316 0.77348 0.0
C271 C 0.83344 0.81985 0.71945 0.0
C272 C 0.86284 0.8318 0.66024 0.0
C273 C 0.92581 0.86254 0.65569 0.0
C274 C 0.92233 1.06519 0.62158 0.0
C275 C 0.97777 0.96551 0.49756 0.0
O276 O 1.00894 0.18068 0.50442 0.0
O277 O 0.05787 0.14339 0.43385 0.0
O278 O 0.10861 0.08332 0.58571 0.0
O279 O 0.11439 1.06814 0.48871 0.0
O280 O 0.05039 0.16377 0.61314 0.0
O281 O 0.08324 0.10928 0.68407 0.0
O282 O 0.04705 0.94267 0.65486 0.0
O283 O 1.00298 0.98157 0.72849 0.0
O284 O 0.95056 1.04552 0.57909 0.0
O285 O 0.94456 1.05812 0.67537 0.0
O286 O 1.00771 0.96223 0.54929 0.0
O287 O 0.97117 1.01606 0.4811 0.0
H288 H 0.10131 0.25262 0.55429 0.0
H289 H 0.20772 0.31532 0.55453 0.0
H290 H 0.21327 0.31187 0.35195 0.0
H291 H 0.10752 0.2458 0.35153 0.0
H292 H 0.958 0.8787 0.81111 0.0
H293 H 0.84853 0.82347 0.81991 0.0
H294 H 0.83576 0.82327 0.61796 0.0
H295 H 0.94557 0.87588 0.60971 0.0
Sm296 Sm 0.59321 0.09346 0.12863 0.0
Sm297 Sm 0.46473 1.07364 0.11264 0.0
C298 C 0.71555 0.1337 0.14183 0.0
C299 C 0.76112 0.17205 0.18354 0.0
C300 C 0.76594 0.23121 0.18983 0.0
C301 C 0.80425 0.26484 0.23518 0.0
C302 C 0.83777 0.23976 0.27549 0.0
C303 C 0.83656 0.18173 0.26554 0.0
C304 C 0.79878 0.14833 0.21983 0.0
C305 C 0.52608 0.98963 0.18411 0.0
C306 C 0.51717 0.15554 0.22468 0.0
C307 C 0.34663 1.04287 1.08304 0.0
C308 C 0.32331 1.05489 1.02222 0.0
C309 C 0.29754 1.00861 0.98135 0.0
C310 C 0.29806 1.01797 0.91675 0.0
C311 C 0.32405 1.07385 0.89234 0.0
C312 C 0.34254 0.12092 0.93391 0.0
C313 C 0.34209 0.11158 0.99837 0.0
C314 C 0.53527 0.17162 1.04731 0.0
C315 C 0.53654 1.00578 1.02009 0.0
O316 O 0.68398 0.15746 0.10553 0.0
O317 O 0.68149 0.08533 0.16633 0.0
O318 O 0.5105 1.03631 0.18855 0.0
O319 O 0.57748 0.99785 0.15187 0.0
O320 O 0.56968 0.1629 0.19254 0.0
O321 O 0.46966 0.11082 0.2119 0.0
O322 O 0.38058 1.00714 1.07963 0.0
O323 O 0.37112 0.08767 0.11868 0.0
O324 O 0.54618 0.12316 1.04847 0.0
O325 O 0.48637 0.16952 1.0813 0.0
O326 O 0.48421 1.00029 1.05166 0.0
O327 O 0.58636 1.04771 1.03378 0.0
H328 H 0.73832 0.25105 0.16164 0.0
H329 H 0.80507 0.30972 0.24091 0.0
H330 H 0.86121 0.16074 0.29597 0.0
H331 H 0.7966 0.10302 0.21504 0.0
H332 H 0.28298 0.96458 0.99856 0.0
H333 H 0.28331 0.98079 0.8858 0.0
H334 H 0.36134 0.16457 0.91634 0.0
H335 H 0.36188 0.14841 1.02859 0.0
Sm336 Sm 0.50545 0.51583 0.55951 0.0
Sm337 Sm 0.52826 0.61741 0.63535 0.0
C338 C 0.51473 0.42267 0.49842 0.0
C339 C 0.55641 0.38678 0.50933 0.0
C340 C 0.60983 0.39478 0.47088 0.0
C341 C 0.65901 0.37567 0.49051 0.0
C342 C 0.65483 0.34702 0.54803 0.0
C343 C 0.59902 0.33298 0.58307 0.0
C344 C 0.55004 0.35319 0.56409 0.0
C345 C 0.40331 0.51315 0.63585 0.0
C346 C 0.57333 0.51555 0.69598 0.0
C347 C 0.51543 0.70941 0.69703 0.0
C348 C 0.50169 0.76274 0.67782 0.0
C349 C 0.45868 0.76121 0.63063 0.0
C350 C 0.44525 0.81165 0.613 0.0
C351 C 0.47464 0.8647 0.64208 0.0
C352 C 0.51852 0.86643 0.68856 0.0
C353 C 0.53169 0.81571 0.70643 0.0
C354 C 0.63082 0.62068 0.55847 0.0
C355 C 0.46514 0.61801 0.49402 0.0
O356 O 0.54259 0.47527 0.47956 0.0
O357 O 0.47159 0.4211 0.54123 0.0
O358 O 0.45943 0.52916 0.6526 0.0
O359 O 0.40032 0.501 0.57619 0.0
O360 O 0.56886 0.49686 0.637 0.0
O361 O 0.55426 0.56091 0.71128 0.0
O362 O 0.47037 0.66146 0.69074 0.0
O363 O 0.56958 0.704 0.67924 0.0
O364 O 0.57454 0.60389 0.54218 0.0
O365 O 0.63402 0.63536 0.61756 0.0
O366 O 0.47875 0.64413 0.5492 0.0
O367 O 0.47342 0.56681 0.48423 0.0
H368 H 0.61548 0.41962 0.42797 0.0
H369 H 0.70133 0.38517 0.46193 0.0
H370 H 0.59481 0.30975 0.62693 0.0
H371 H 0.50908 0.3457 0.59441 0.0
H372 H 0.43473 0.72092 0.60779 0.0
H373 H 0.41155 0.80912 0.57681 0.0
H374 H 0.54124 0.90661 0.7124 0.0
H375 H 0.56457 0.81765 0.74318 0.0
Sm376 Sm 1.01988 0.51551 0.13062 0.0
Sm377 Sm 0.03025 0.61787 1.0581 0.0
C378 C 0.04664 0.42451 0.1769 0.0
C379 C 0.10648 0.41421 0.19182 0.0
C380 C 0.12348 0.36854 0.16212 0.0
C381 C 0.1823 0.36137 0.17076 0.0
C382 C 0.22549 0.39975 0.20942 0.0
C383 C 0.2081 0.44519 0.23958 0.0
C384 C 0.14934 0.4524 0.2308 0.0
C385 C 0.9601 0.58691 0.1931 0.0
C386 C 0.14737 0.62657 0.14448 0.0
C387 C 1.01667 0.7124 1.00571 0.0
C388 C 0.96807 0.74115 0.9986 0.0
C389 C 0.91374 0.72658 1.03643 0.0
C390 C 0.86851 0.75547 1.02913 0.0
C391 C 0.87702 0.79927 0.98383 0.0
C392 C 0.93209 0.81357 0.94677 0.0
C393 C 0.97702 0.78485 0.95406 0.0
C394 C 0.08547 0.54218 0.99501 0.0
C395 C 0.90003 0.51169 1.04948 0.0
O396 O 0.03821 0.43046 0.11723 0.0
O397 O 0.0281 0.46149 0.21213 0.0
O398 O 1.01198 0.60402 0.16341 0.0
O399 O 0.93913 0.53068 0.19102 0.0
O400 O 0.12058 0.57081 0.15336 0.0
O401 O 0.12057 0.65705 0.11044 0.0
O402 O 0.03618 0.71095 1.06264 0.0
O403 O 1.00995 0.66386 0.975 0.0
O404 O 0.03417 0.52818 1.02534 0.0
O405 O 0.10929 0.59795 0.9975 0.0
O406 O 0.92607 0.5681 1.04493 0.0
O407 O 0.929 0.47886 1.07759 0.0
H408 H 0.09155 0.33894 0.13124 0.0
H409 H 0.19418 0.3261 0.14657 0.0
H410 H 0.23956 0.4748 0.27082 0.0
H411 H 0.13777 0.48822 0.25413 0.0
H412 H 0.90639 0.693 1.0715 0.0
H413 H 0.82716 0.7436 1.05905 0.0
H414 H 0.94021 0.84627 0.91102 0.0
H415 H 1.01878 0.79669 0.92461 0.0
loop_
_geom_bond_atom_site_label_1
_geom_bond_atom_site_label_2
_geom_bond_distance
_geom_bond_site_symmetry_2
_ccdc_geom_bond_type
P0 O11 1.490 . S
P0 C14 1.812 . S
P0 C20 1.803 . S
P0 C26 1.819 . S
H1 C15 0.941 . S
H2 C16 0.939 . S
H3 C18 0.940 . S
H4 C19 0.940 . S
H5 C21 0.939 . S
H6 C22 0.942 . S
H7 C24 0.940 . S
H8 C25 0.939 . S
H9 C27 0.941 . S
H10 C31 0.939 . S
O11 P0 1.490 . S
H12 C28 0.939 . S
H13 C30 0.940 . S
C14 P0 1.812 . S
C14 C15 1.389 . S
C14 C19 1.391 . S
C15 H1 0.941 . S
C15 C14 1.389 . S
C15 C16 1.397 . S
C16 H2 0.939 . S
C16 C15 1.397 . S
C16 C17 1.378 . S
C17 C16 1.378 . S
C17 C18 1.378 . S
C18 H3 0.940 . S
C18 C17 1.378 . S
C18 C19 1.396 . S
C19 H4 0.940 . S
C19 C14 1.391 . S
C19 C18 1.396 . S
C20 P0 1.803 . S
C20 C21 1.378 . S
C20 C25 1.400 . S
C21 H5 0.939 . S
C21 C20 1.378 . S
C21 C22 1.361 . S
C22 H6 0.942 . S
C22 C21 1.361 . S
C22 C23 1.369 . S
C23 C22 1.369 . S
C23 C24 1.404 . S
C24 H7 0.940 . S
C24 C23 1.404 . S
C24 C25 1.389 . S
C25 H8 0.939 . S
C25 C20 1.400 . S
C25 C24 1.389 . S
C26 P0 1.819 . S
C26 C27 1.391 . S
C26 C31 1.391 . S
C27 H9 0.941 . S
C27 C26 1.391 . S
C27 C28 1.396 . S
C28 H12 0.939 . S
C28 C27 1.396 . S
C28 C29 1.397 . S
C29 C28 1.397 . S
C29 C30 1.385 . S
C30 H13 0.940 . S
C30 C29 1.385 . S
C30 C31 1.388 . S
C31 H10 0.939 . S
C31 C26 1.391 . S
C31 C30 1.388 . S
P32 O43 1.490 . S
P32 C46 1.812 . S
P32 C52 1.803 . S
P32 C58 1.819 . S
H33 C47 0.941 . S
H34 C48 0.939 . S
H35 C50 0.940 . S
H36 C51 0.940 . S
H37 C53 0.939 . S
H38 C54 0.942 . S
H39 C56 0.940 . S
H40 C57 0.939 . S
H41 C59 0.941 . S
H42 C63 0.939 . S
O43 P32 1.490 . S
H44 C60 0.939 . S
H45 C62 0.940 . S
C46 P32 1.812 . S
C46 C47 1.389 . S
C46 C51 1.391 . S
C47 H33 0.941 . S
C47 C46 1.389 . S
C47 C48 1.397 . S
C48 H34 0.939 . S
C48 C47 1.397 . S
C48 C49 1.378 . S
C49 C48 1.378 . S
C49 C50 1.378 . S
C50 H35 0.940 . S
C50 C49 1.378 . S
C50 C51 1.396 . S
C51 H36 0.940 . S
C51 C46 1.391 . S
C51 C50 1.396 . S
C52 P32 1.803 . S
C52 C53 1.378 . S
C52 C57 1.400 . S
C53 H37 0.939 . S
C53 C52 1.378 . S
C53 C54 1.361 . S
C54 H38 0.942 . S
C54 C53 1.361 . S
C54 C55 1.369 . S
C55 C54 1.369 . S
C55 C56 1.404 . S
C56 H39 0.940 . S
C56 C55 1.404 . S
C56 C57 1.389 . S
C57 H40 0.939 . S
C57 C52 1.400 . S
C57 C56 1.389 . S
C58 P32 1.819 . S
C58 C59 1.391 . S
C58 C63 1.391 . S
C59 H41 0.941 . S
C59 C58 1.391 . S
C59 C60 1.396 . S
C60 H44 0.939 . S
C60 C59 1.396 . S
C60 C61 1.397 . S
C61 C60 1.397 . S
C61 C62 1.385 . S
C62 H45 0.940 . S
C62 C61 1.385 . S
C62 C63 1.388 . S
C63 H42 0.939 . S
C63 C58 1.391 . S
C63 C62 1.388 . S
P64 O75 1.490 . S
P64 C78 1.812 . S
P64 C84 1.803 . S
P64 C90 1.819 . S
H65 C79 0.941 . S
H66 C80 0.939 . S
H67 C82 0.940 . S
H68 C83 0.940 . S
H69 C85 0.939 . S
H70 C86 0.942 . S
H71 C88 0.940 . S
H72 C89 0.939 . S
H73 C91 0.941 . S
H74 C95 0.939 . S
O75 P64 1.490 . S
H76 C92 0.939 . S
H77 C94 0.940 . S
C78 P64 1.812 . S
C78 C79 1.389 . S
C78 C83 1.391 . S
C79 H65 0.941 . S
C79 C78 1.389 . S
C79 C80 1.397 . S
C80 H66 0.939 . S
C80 C79 1.397 . S
C80 C81 1.378 . S
C81 C80 1.378 . S
C81 C82 1.378 . S
C82 H67 0.940 . S
C82 C81 1.378 . S
C82 C83 1.396 . S
C83 H68 0.940 . S
C83 C78 1.391 . S
C83 C82 1.396 . S
C84 P64 1.803 . S
C84 C85 1.378 . S
C84 C89 1.400 . S
C85 H69 0.939 . S
C85 C84 1.378 . S
C85 C86 1.361 . S
C86 H70 0.942 . S
C86 C85 1.361 . S
C86 C87 1.369 . S
C87 C86 1.369 . S
C87 C88 1.404 . S
C88 H71 0.940 . S
C88 C87 1.404 . S
C88 C89 1.389 . S
C89 H72 0.939 . S
C89 C84 1.400 . S
C89 C88 1.389 . S
C90 P64 1.819 . S
C90 C91 1.391 . S
C90 C95 1.391 . S
C91 H73 0.941 . S
C91 C90 1.391 . S
C91 C92 1.396 . S
C92 H76 0.939 . S
C92 C91 1.396 . S
C92 C93 1.397 . S
C93 C92 1.397 . S
C93 C94 1.385 . S
C94 H77 0.940 . S
C94 C93 1.385 . S
C94 C95 1.388 . S
C95 H74 0.939 . S
C95 C90 1.391 . S
C95 C94 1.388 . S
P96 O107 1.490 . S
P96 C110 1.812 . S
P96 C116 1.803 . S
P96 C122 1.819 . S
H97 C111 0.941 . S
H98 C112 0.939 . S
H99 C114 0.940 . S
H100 C115 0.940 . S
H101 C117 0.939 . S
H102 C118 0.942 . S
H103 C120 0.940 . S
H104 C121 0.939 . S
H105 C123 0.941 . S
H106 C127 0.939 . S
O107 P96 1.490 . S
H108 C124 0.939 . S
H109 C126 0.940 . S
C110 P96 1.812 . S
C110 C111 1.389 . S
C110 C115 1.391 . S
C111 H97 0.941 . S
C111 C110 1.389 . S
C111 C112 1.397 . S
C112 H98 0.939 . S
C112 C111 1.397 . S
C112 C113 1.378 . S
C113 C112 1.378 . S
C113 C114 1.378 . S
C114 H99 0.940 . S
C114 C113 1.378 . S
C114 C115 1.396 . S
C115 H100 0.940 . S
C115 C110 1.391 . S
C115 C114 1.396 . S
C116 P96 1.803 . S
C116 C117 1.378 . S
C116 C121 1.400 . S
C117 H101 0.939 . S
C117 C116 1.378 . S
C117 C118 1.361 . S
C118 H102 0.942 . S
C118 C117 1.361 . S
C118 C119 1.369 . S
C119 C118 1.369 . S
C119 C120 1.404 . S
C120 H103 0.940 . S
C120 C119 1.404 . S
C120 C121 1.389 . S
C121 H104 0.939 . S
C121 C116 1.400 . S
C121 C120 1.389 . S
C122 P96 1.819 . S
C122 C123 1.391 . S
C122 C127 1.391 . S
C123 H105 0.941 . S
C123 C122 1.391 . S
C123 C124 1.396 . S
C124 H108 0.939 . S
C124 C123 1.396 . S
C124 C125 1.397 . S
C125 C124 1.397 . S
C125 C126 1.385 . S
C126 H109 0.940 . S
C126 C125 1.385 . S
C126 C127 1.388 . S
C127 H106 0.939 . S
C127 C122 1.391 . S
C127 C126 1.388 . S
P128 O139 1.490 . S
P128 C142 1.812 . S
P128 C148 1.803 . S
P128 C154 1.819 . S
H129 C143 0.941 . S
H130 C144 0.939 . S
H131 C146 0.940 . S
H132 C147 0.940 . S
H133 C149 0.939 . S
H134 C150 0.942 . S
H135 C152 0.940 . S
H136 C153 0.939 . S
H137 C155 0.941 . S
H138 C159 0.939 . S
O139 P128 1.490 . S
H140 C156 0.939 . S
H141 C158 0.940 . S
C142 P128 1.812 . S
C142 C143 1.389 . S
C142 C147 1.391 . S
C143 H129 0.941 . S
C143 C142 1.389 . S
C143 C144 1.397 . S
C144 H130 0.939 . S
C144 C143 1.397 . S
C144 C145 1.378 . S
C145 C144 1.378 . S
C145 C146 1.378 . S
C146 H131 0.940 . S
C146 C145 1.378 . S
C146 C147 1.396 . S
C147 H132 0.940 . S
C147 C142 1.391 . S
C147 C146 1.396 . S
C148 P128 1.803 . S
C148 C149 1.378 . S
C148 C153 1.400 . S
C149 H133 0.939 . S
C149 C148 1.378 . S
C149 C150 1.361 . S
C150 H134 0.942 . S
C150 C149 1.361 . S
C150 C151 1.369 . S
C151 C150 1.369 . S
C151 C152 1.404 . S
C152 H135 0.940 . S
C152 C151 1.404 . S
C152 C153 1.389 . S
C153 H136 0.939 . S
C153 C148 1.400 . S
C153 C152 1.389 . S
C154 P128 1.819 . S
C154 C155 1.391 . S
C154 C159 1.391 . S
C155 H137 0.941 . S
C155 C154 1.391 . S
C155 C156 1.396 . S
C156 H140 0.939 . S
C156 C155 1.396 . S
C156 C157 1.397 . S
C157 C156 1.397 . S
C157 C158 1.385 . S
C158 H141 0.940 . S
C158 C157 1.385 . S
C158 C159 1.388 . S
C159 H138 0.939 . S
C159 C154 1.391 . S
C159 C158 1.388 . S
P160 O171 1.490 . S
P160 C174 1.812 . S
P160 C180 1.803 . S
P160 C186 1.819 . S
H161 C175 0.941 . S
H162 C176 0.939 . S
H163 C178 0.940 . S
H164 C179 0.940 . S
H165 C181 0.939 1_455 S
H166 C182 0.942 . S
H167 C184 0.940 . S
H168 C185 0.939 . S
H169 C187 0.941 . S
H170 C191 0.939 . S
O171 P160 1.490 . S
H172 C188 0.939 . S
H173 C190 0.940 . S
C174 P160 1.812 . S
C174 C175 1.389 . S
C174 C179 1.391 . S
C175 H161 0.941 . S
C175 C174 1.389 . S
C175 C176 1.397 . S
C176 H162 0.939 . S
C176 C175 1.397 . S
C176 C177 1.378 . S
C177 C176 1.378 . S
C177 C178 1.378 . S
C178 H163 0.940 . S
C178 C177 1.378 . S
C178 C179 1.396 . S
C179 H164 0.940 . S
C179 C174 1.391 . S
C179 C178 1.396 . S
C180 P160 1.803 . S
C180 C181 1.378 . S
C180 C185 1.400 . S
C181 H165 0.939 1_655 S
C181 C180 1.378 . S
C181 C182 1.361 1_655 S
C182 H166 0.942 . S
C182 C181 1.361 1_455 S
C182 C183 1.369 1_455 S
C183 C182 1.369 1_655 S
C183 C184 1.404 . S
C184 H167 0.940 . S
C184 C183 1.404 . S
C184 C185 1.389 . S
C185 H168 0.939 . S
C185 C180 1.400 . S
C185 C184 1.389 . S
C186 P160 1.819 . S
C186 C187 1.391 . S
C186 C191 1.391 . S
C187 H169 0.941 . S
C187 C186 1.391 . S
C187 C188 1.396 . S
C188 H172 0.939 . S
C188 C187 1.396 . S
C188 C189 1.397 . S
C189 C188 1.397 . S
C189 C190 1.385 . S
C190 H173 0.940 . S
C190 C189 1.385 . S
C190 C191 1.388 . S
C191 H170 0.939 . S
C191 C186 1.391 . S
C191 C190 1.388 . S
P192 O203 1.490 . S
P192 C206 1.812 . S
P192 C212 1.803 . S
P192 C218 1.819 . S
H193 C207 0.941 . S
H194 C208 0.939 . S
H195 C210 0.940 . S
H196 C211 0.940 . S
H197 C213 0.939 . S
H198 C214 0.942 . S
H199 C216 0.940 . S
H200 C217 0.939 . S
H201 C219 0.941 . S
H202 C223 0.939 . S
O203 P192 1.490 . S
H204 C220 0.939 . S
H205 C222 0.940 . S
C206 P192 1.812 . S
C206 C207 1.389 . S
C206 C211 1.391 . S
C207 H193 0.941 . S
C207 C206 1.389 . S
C207 C208 1.397 . S
C208 H194 0.939 . S
C208 C207 1.397 . S
C208 C209 1.378 . S
C209 C208 1.378 . S
C209 C210 1.378 . S
C210 H195 0.940 . S
C210 C209 1.378 . S
C210 C211 1.396 . S
C211 H196 0.940 . S
C211 C206 1.391 . S
C211 C210 1.396 . S
C212 P192 1.803 . S
C212 C213 1.378 . S
C212 C217 1.400 . S
C213 H197 0.939 . S
C213 C212 1.378 . S
C213 C214 1.361 . S
C214 H198 0.942 . S
C214 C213 1.361 . S
C214 C215 1.369 . S
C215 C214 1.369 . S
C215 C216 1.404 . S
C216 H199 0.940 . S
C216 C215 1.404 . S
C216 C217 1.389 . S
C217 H200 0.939 . S
C217 C212 1.400 . S
C217 C216 1.389 . S
C218 P192 1.819 . S
C218 C219 1.391 . S
C218 C223 1.391 . S
C219 H201 0.941 . S
C219 C218 1.391 . S
C219 C220 1.396 . S
C220 H204 0.939 . S
C220 C219 1.396 . S
C220 C221 1.397 . S
C221 C220 1.397 . S
C221 C222 1.385 . S
C222 H205 0.940 . S
C222 C221 1.385 . S
C222 C223 1.388 . S
C223 H202 0.939 . S
C223 C218 1.391 . S
C223 C222 1.388 . S
P224 O235 1.490 . S
P224 C238 1.812 . S
P224 C244 1.803 . S
P224 C250 1.819 . S
H225 C239 0.941 . S
H226 C240 0.939 . S
H227 C242 0.940 . S
H228 C243 0.940 . S
H229 C245 0.939 . S
H230 C246 0.942 . S
H231 C248 0.940 . S
H232 C249 0.939 . S
H233 C251 0.941 . S
H234 C255 0.939 . S
O235 P224 1.490 . S
H236 C252 0.939 . S
H237 C254 0.940 . S
C238 P224 1.812 . S
C238 C239 1.389 . S
C238 C243 1.391 . S
C239 H225 0.941 . S
C239 C238 1.389 . S
C239 C240 1.397 . S
C240 H226 0.939 . S
C240 C239 1.397 . S
C240 C241 1.378 . S
C241 C240 1.378 . S
C241 C242 1.378 . S
C242 H227 0.940 . S
C242 C241 1.378 . S
C242 C243 1.396 . S
C243 H228 0.940 . S
C243 C238 1.391 . S
C243 C242 1.396 . S
C244 P224 1.803 . S
C244 C245 1.378 . S
C244 C249 1.400 . S
C245 H229 0.939 . S
C245 C244 1.378 . S
C245 C246 1.361 . S
C246 H230 0.942 . S
C246 C245 1.361 . S
C246 C247 1.369 . S
C247 C246 1.369 . S
C247 C248 1.404 . S
C248 H231 0.940 . S
C248 C247 1.404 . S
C248 C249 1.389 . S
C249 H232 0.939 . S
C249 C244 1.400 . S
C249 C248 1.389 . S
C250 P224 1.819 . S
C250 C251 1.391 . S
C250 C255 1.391 . S
C251 H233 0.941 . S
C251 C250 1.391 . S
C251 C252 1.396 . S
C252 H236 0.939 . S
C252 C251 1.396 . S
C252 C253 1.397 . S
C253 C252 1.397 . S
C253 C254 1.385 . S
C254 H237 0.940 . S
C254 C253 1.385 . S
C254 C255 1.388 . S
C255 H234 0.939 . S
C255 C250 1.391 . S
C255 C254 1.388 . S
Sm256 C258 2.846 . S
Sm256 O276 2.543 . S
Sm256 O277 2.450 . S
Sm256 O278 2.681 1_545 S
Sm256 O279 2.464 1_545 S
Sm256 O280 2.396 . S
Sm256 O284 2.386 1_455 S
Sm256 O287 2.408 1_445 S
Sm257 C267 2.853 . S
Sm257 O278 2.391 1_655 S
Sm257 O281 2.401 1_665 S
Sm257 O282 2.552 . S
Sm257 O283 2.453 . S
Sm257 O284 2.677 1_565 S
Sm257 O285 2.457 1_565 S
Sm257 O286 2.402 . S
C258 Sm256 2.846 . S
C258 C259 1.506 . S
C258 O276 1.261 . S
C258 O277 1.242 . S
C259 C258 1.506 . S
C259 C260 1.358 . S
C259 C264 1.382 . S
C260 C259 1.358 . S
C260 C261 1.385 . S
C260 H288 0.930 . S
C261 C260 1.385 . S
C261 C262 1.395 . S
C261 H289 0.929 . S
C262 C261 1.395 . S
C262 C263 1.335 . S
C263 C262 1.335 . S
C263 C264 1.398 . S
C263 H290 0.930 . S
C264 C259 1.382 . S
C264 C263 1.398 . S
C264 H291 0.929 . S
C265 O278 1.271 . S
C265 O279 1.251 . S
C266 O280 1.252 . S
C266 O281 1.272 . S
C267 Sm257 2.853 . S
C267 C268 1.506 . S
C267 O282 1.261 . S
C267 O283 1.242 . S
C268 C267 1.506 . S
C268 C269 1.358 . S
C268 C273 1.382 . S
C269 C268 1.358 . S
C269 C270 1.385 . S
C269 H292 0.930 . S
C270 C269 1.385 . S
C270 C271 1.395 . S
C270 H293 0.929 . S
C271 C270 1.395 . S
C271 C272 1.335 . S
C272 C271 1.335 . S
C272 C273 1.398 . S
C272 H294 0.930 . S
C273 C268 1.382 . S
C273 C272 1.398 . S
C273 H295 0.929 . S
C274 O284 1.271 . S
C274 O285 1.251 . S
C275 O286 1.252 . S
C275 O287 1.272 . S
O276 Sm256 2.543 . S
O276 C258 1.261 . S
O277 Sm256 2.450 . S
O277 C258 1.242 . S
O278 Sm256 2.681 1_565 S
O278 Sm257 2.391 1_455 S
O278 C265 1.271 . S
O279 Sm256 2.464 1_565 S
O279 C265 1.251 . S
O280 Sm256 2.396 . S
O280 C266 1.252 . S
O281 Sm257 2.401 1_445 S
O281 C266 1.272 . S
O282 Sm257 2.552 . S
O282 C267 1.261 . S
O283 Sm257 2.453 . S
O283 C267 1.242 . S
O284 Sm256 2.386 1_655 S
O284 Sm257 2.677 1_545 S
O284 C274 1.271 . S
O285 Sm257 2.457 1_545 S
O285 C274 1.251 . S
O286 Sm257 2.402 . S
O286 C275 1.252 . S
O287 Sm256 2.408 1_665 S
O287 C275 1.272 . S
H288 C260 0.930 . S
H289 C261 0.929 . S
H290 C263 0.930 . S
H291 C264 0.929 . S
H292 C269 0.930 . S
H293 C270 0.929 . S
H294 C272 0.930 . S
H295 C273 0.929 . S
Sm296 C298 2.846 . S
Sm296 O316 2.543 . S
Sm296 O317 2.450 . S
Sm296 O318 2.681 1_545 S
Sm296 O319 2.464 1_545 S
Sm296 O320 2.396 . S
Sm296 O324 2.386 1_554 S
Sm296 O327 2.408 1_544 S
Sm297 C307 2.846 1_545 S
Sm297 O318 2.386 1_546 S
Sm297 O321 2.408 1_556 S
Sm297 O322 2.543 1_545 S
Sm297 O323 2.450 . S
Sm297 O324 2.681 . S
Sm297 O325 2.464 . S
Sm297 O326 2.396 1_545 S
C298 Sm296 2.846 . S
C298 C299 1.506 . S
C298 O316 1.261 . S
C298 O317 1.242 . S
C299 C298 1.506 . S
C299 C300 1.358 . S
C299 C304 1.382 . S
C300 C299 1.358 . S
C300 C301 1.385 . S
C300 H328 0.930 . S
C301 C300 1.385 . S
C301 C302 1.395 . S
C301 H329 0.929 . S
C302 C301 1.395 . S
C302 C303 1.335 . S
C303 C302 1.335 . S
C303 C304 1.398 . S
C303 H330 0.930 . S
C304 C299 1.382 . S
C304 C303 1.398 . S
C304 H331 0.929 . S
C305 O318 1.271 . S
C305 O319 1.251 . S
C306 O320 1.252 . S
C306 O321 1.272 . S
C307 Sm297 2.846 1_565 S
C307 C308 1.506 . S
C307 O322 1.261 . S
C307 O323 1.242 1_565 S
C308 C307 1.506 . S
C308 C309 1.358 . S
C308 C313 1.382 . S
C309 C308 1.358 . S
C309 C310 1.385 . S
C309 H332 0.930 . S
C310 C309 1.385 . S
C310 C311 1.395 . S
C310 H333 0.929 . S
C311 C310 1.395 . S
C311 C312 1.335 . S
C312 C311 1.335 . S
C312 C313 1.398 . S
C312 H334 0.930 . S
C313 C308 1.382 . S
C313 C312 1.398 . S
C313 H335 0.929 . S
C314 O324 1.271 . S
C314 O325 1.251 . S
C315 O326 1.252 . S
C315 O327 1.272 . S
O316 Sm296 2.543 . S
O316 C298 1.261 . S
O317 Sm296 2.450 . S
O317 C298 1.242 . S
O318 Sm296 2.681 1_565 S
O318 Sm297 2.386 1_564 S
O318 C305 1.271 . S
O319 Sm296 2.464 1_565 S
O319 C305 1.251 . S
O320 Sm296 2.396 . S
O320 C306 1.252 . S
O321 Sm297 2.408 1_554 S
O321 C306 1.272 . S
O322 Sm297 2.543 1_565 S
O322 C307 1.261 . S
O323 Sm297 2.450 . S
O323 C307 1.242 1_545 S
O324 Sm296 2.386 1_556 S
O324 Sm297 2.681 . S
O324 C314 1.271 . S
O325 Sm297 2.464 . S
O325 C314 1.251 . S
O326 Sm297 2.396 1_565 S
O326 C315 1.252 . S
O327 Sm296 2.408 1_566 S
O327 C315 1.272 . S
H328 C300 0.930 . S
H329 C301 0.929 . S
H330 C303 0.930 . S
H331 C304 0.929 . S
H332 C309 0.930 . S
H333 C310 0.929 . S
H334 C312 0.930 . S
H335 C313 0.929 . S
Sm336 C338 2.846 . S
Sm336 O356 2.543 . S
Sm336 O357 2.450 . S
Sm336 O358 2.681 . S
Sm336 O359 2.464 . S
Sm336 O360 2.396 . S
Sm336 O364 2.386 . S
Sm336 O367 2.408 . S
Sm337 C347 2.846 . S
Sm337 O358 2.386 . S
Sm337 O361 2.408 . S
Sm337 O362 2.543 . S
Sm337 O363 2.450 . S
Sm337 O364 2.681 . S
Sm337 O365 2.464 . S
Sm337 O366 2.396 . S
C338 Sm336 2.846 . S
C338 C339 1.506 . S
C338 O356 1.261 . S
C338 O357 1.242 . S
C339 C338 1.506 . S
C339 C340 1.358 . S
C339 C344 1.382 . S
C340 C339 1.358 . S
C340 C341 1.385 . S
C340 H368 0.930 . S
C341 C340 1.385 . S
C341 C342 1.395 . S
C341 H369 0.929 . S
C342 C341 1.395 . S
C342 C343 1.335 . S
C343 C342 1.335 . S
C343 C344 1.398 . S
C343 H370 0.930 . S
C344 C339 1.382 . S
C344 C343 1.398 . S
C344 H371 0.929 . S
C345 O358 1.271 . S
C345 O359 1.251 . S
C346 O360 1.252 . S
C346 O361 1.272 . S
C347 Sm337 2.846 . S
C347 C348 1.506 . S
C347 O362 1.261 . S
C347 O363 1.242 . S
C348 C347 1.506 . S
C348 C349 1.358 . S
C348 C353 1.382 . S
C349 C348 1.358 . S
C349 C350 1.385 . S
C349 H372 0.930 . S
C350 C349 1.385 . S
C350 C351 1.395 . S
C350 H373 0.929 . S
C351 C350 1.395 . S
C351 C352 1.335 . S
C352 C351 1.335 . S
C352 C353 1.398 . S
C352 H374 0.930 . S
C353 C348 1.382 . S
C353 C352 1.398 . S
C353 H375 0.929 . S
C354 O364 1.271 . S
C354 O365 1.251 . S
C355 O366 1.252 . S
C355 O367 1.272 . S
O356 Sm336 2.543 . S
O356 C338 1.261 . S
O357 Sm336 2.450 . S
O357 C338 1.242 . S
O358 Sm336 2.681 . S
O358 Sm337 2.386 . S
O358 C345 1.271 . S
O359 Sm336 2.464 . S
O359 C345 1.251 . S
O360 Sm336 2.396 . S
O360 C346 1.252 . S
O361 Sm337 2.408 . S
O361 C346 1.272 . S
O362 Sm337 2.543 . S
O362 C347 1.261 . S
O363 Sm337 2.450 . S
O363 C347 1.242 . S
O364 Sm336 2.386 . S
O364 Sm337 2.681 . S
O364 C354 1.271 . S
O365 Sm337 2.464 . S
O365 C354 1.251 . S
O366 Sm337 2.396 . S
O366 C355 1.252 . S
O367 Sm336 2.408 . S
O367 C355 1.272 . S
H368 C340 0.930 . S
H369 C341 0.929 . S
H370 C343 0.930 . S
H371 C344 0.929 . S
H372 C349 0.930 . S
H373 C350 0.929 . S
H374 C352 0.930 . S
H375 C353 0.929 . S
Sm376 C378 2.846 . S
Sm376 O396 2.543 . S
Sm376 O397 2.450 . S
Sm376 O398 2.681 1_455 S
Sm376 O399 2.464 1_455 S
Sm376 O400 2.396 . S
Sm376 O404 2.386 1_554 S
Sm376 O407 2.408 1_454 S
Sm377 C387 2.846 . S
Sm377 O398 2.386 1_556 S
Sm377 O401 2.408 1_656 S
Sm377 O402 2.543 . S
Sm377 O403 2.450 . S
Sm377 O404 2.681 1_655 S
Sm377 O405 2.464 1_655 S
Sm377 O406 2.396 . S
C378 Sm376 2.846 . S
C378 C379 1.506 . S
C378 O396 1.261 . S
C378 O397 1.242 . S
C379 C378 1.506 . S
C379 C380 1.358 . S
C379 C384 1.382 . S
C380 C379 1.358 . S
C380 C381 1.385 . S
C380 H408 0.930 . S
C381 C380 1.385 . S
C381 C382 1.395 . S
C381 H409 0.929 . S
C382 C381 1.395 . S
C382 C383 1.335 . S
C383 C382 1.335 . S
C383 C384 1.398 . S
C383 H410 0.930 . S
C384 C379 1.382 . S
C384 C383 1.398 . S
C384 H411 0.929 . S
C385 O398 1.271 . S
C385 O399 1.251 . S
C386 O400 1.252 . S
C386 O401 1.272 . S
C387 Sm377 2.846 . S
C387 C388 1.506 . S
C387 O402 1.261 . S
C387 O403 1.242 . S
C388 C387 1.506 . S
C388 C389 1.358 . S
C388 C393 1.382 . S
C389 C388 1.358 . S
C389 C390 1.385 . S
C389 H412 0.930 . S
C390 C389 1.385 . S
C390 C391 1.395 . S
C390 H413 0.929 . S
C391 C390 1.395 . S
C391 C392 1.335 . S
C392 C391 1.335 . S
C392 C393 1.398 . S
C392 H414 0.930 . S
C393 C388 1.382 . S
C393 C392 1.398 . S
C393 H415 0.929 . S
C394 O404 1.271 . S
C394 O405 1.251 . S
C395 O406 1.252 . S
C395 O407 1.272 . S
O396 Sm376 2.543 . S
O396 C378 1.261 . S
O397 Sm376 2.450 . S
O397 C378 1.242 . S
O398 Sm376 2.681 1_655 S
O398 Sm377 2.386 1_554 S
O398 C385 1.271 . S
O399 Sm376 2.464 1_655 S
O399 C385 1.251 . S
O400 Sm376 2.396 . S
O400 C386 1.252 . S
O401 Sm377 2.408 1_454 S
O401 C386 1.272 . S
O402 Sm377 2.543 . S
O402 C387 1.261 . S
O403 Sm377 2.450 . S
O403 C387 1.242 . S
O404 Sm376 2.386 1_556 S
O404 Sm377 2.681 1_455 S
O404 C394 1.271 . S
O405 Sm377 2.464 1_455 S
O405 C394 1.251 . S
O406 Sm377 2.396 . S
O406 C395 1.252 . S
O407 Sm376 2.408 1_656 S
O407 C395 1.272 . S
H408 C380 0.930 . S
H409 C381 0.929 . S
H410 C383 0.930 . S
H411 C384 0.929 . S
H412 C389 0.930 . S
H413 C390 0.929 . S
H414 C392 0.930 . S
H415 C393 0.929 . S
C29 C262 1.769 . S
C49 C311 1.635 . S
C346 C93 3.674 . S
C119 C385 3.473 . S
C306 C17 4.183 . S
C265 C61 1.398 . S
C395 C81 2.516 . S
C354 C125 2.290 . S
C23 C382 2.697 . S
C314 C87 3.257 . S
C113 C275 3.288 . S
C55 C351 2.175 . S
C271 C157 1.577 . S
C189 C302 1.672 . S
C221 C355 3.630 . S
C253 C394 3.622 . S
C145 C315 3.764 . S
C274 C183 1.746 . S
C386 C209 2.482 . S
C345 C247 2.272 . S
C151 C391 2.439 . S
C305 C215 3.291 . S
C266 C241 3.282 . S
C177 C342 2.555 . S
