# Generated by pormake.
# Topology pyr, (3,6)-cn, num edge types: 1
# Building blocks:
#     Node 0, Type 0, BuildingBlock: BELTOD_clean_linker_0, # of connection points: 3
#     Node 1, Type 0, BuildingBlock: BELTOD_clean_linker_0, # of connection points: 3
#     Node 2, Type 0, BuildingBlock: BELTOD_clean_linker_0, # of connection points: 3
#     Node 3, Type 0, BuildingBlock: BELTOD_clean_linker_0, # of connection points: 3
#     Node 4, Type 0, BuildingBlock: BELTOD_clean_linker_0, # of connection points: 3
#     Node 5, Type 0, BuildingBlock: BELTOD_clean_linker_0, # of connection points: 3
#     Node 6, Type 0, BuildingBlock: BELTOD_clean_linker_0, # of connection points: 3
#     Node 7, Type 0, BuildingBlock: BELTOD_clean_linker_0, # of connection points: 3
#     Node 8, Type 1, BuildingBlock: MIDCAF_clean_sbu_0, # of connection points: 6
#     Node 9, Type 1, BuildingBlock: MIDCAF_clean_sbu_0, # of connection points: 6
#     Node 10, Type 1, BuildingBlock: MIDCAF_clean_sbu_0, # of connection points: 6
#     Node 11, Type 1, BuildingBlock: MIDCAF_clean_sbu_0, # of connection points: 6
#     Edge 12, Type (0, 1), BuildingBlock: UVAHIK_clean_linker_0, # of connection points: 2
#     Edge 13, Type (0, 1), BuildingBlock: UVAHIK_clean_linker_0, # of connection points: 2
#     Edge 14, Type (0, 1), BuildingBlock: UVAHIK_clean_linker_0, # of connection points: 2
#     Edge 15, Type (0, 1), BuildingBlock: UVAHIK_clean_linker_0, # of connection points: 2
#     Edge 16, Type (0, 1), BuildingBlock: UVAHIK_clean_linker_0, # of connection points: 2
#     Edge 17, Type (0, 1), BuildingBlock: UVAHIK_clean_linker_0, # of connection points: 2
#     Edge 18, Type (0, 1), BuildingBlock: UVAHIK_clean_linker_0, # of connection points: 2
#     Edge 19, Type (0, 1), BuildingBlock: UVAHIK_clean_linker_0, # of connection points: 2
#     Edge 20, Type (0, 1), BuildingBlock: UVAHIK_clean_linker_0, # of connection points: 2
#     Edge 21, Type (0, 1), BuildingBlock: UVAHIK_clean_linker_0, # of connection points: 2
#     Edge 22, Type (0, 1), BuildingBlock: UVAHIK_clean_linker_0, # of connection points: 2
#     Edge 23, Type (0, 1), BuildingBlock: UVAHIK_clean_linker_0, # of connection points: 2
#     Edge 24, Type (0, 1), BuildingBlock: UVAHIK_clean_linker_0, # of connection points: 2
#     Edge 25, Type (0, 1), BuildingBlock: UVAHIK_clean_linker_0, # of connection points: 2
#     Edge 26, Type (0, 1), BuildingBlock: UVAHIK_clean_linker_0, # of connection points: 2
#     Edge 27, Type (0, 1), BuildingBlock: UVAHIK_clean_linker_0, # of connection points: 2
#     Edge 28, Type (0, 1), BuildingBlock: UVAHIK_clean_linker_0, # of connection points: 2
#     Edge 29, Type (0, 1), BuildingBlock: UVAHIK_clean_linker_0, # of connection points: 2
#     Edge 30, Type (0, 1), BuildingBlock: UVAHIK_clean_linker_0, # of connection points: 2
#     Edge 31, Type (0, 1), BuildingBlock: UVAHIK_clean_linker_0, # of connection points: 2
#     Edge 32, Type (0, 1), BuildingBlock: UVAHIK_clean_linker_0, # of connection points: 2
#     Edge 33, Type (0, 1), BuildingBlock: UVAHIK_clean_linker_0, # of connection points: 2
#     Edge 34, Type (0, 1), BuildingBlock: UVAHIK_clean_linker_0, # of connection points: 2
#     Edge 35, Type (0, 1), BuildingBlock: UVAHIK_clean_linker_0, # of connection points: 2
# Relax obj value: 0.020
# Max RMSD: 0.062
# Mean RMSD: 0.033
data_MOF--net-pry--node1-MIDCAF_clean_sbu_0--node2-BELTOD_clean_linker_0--edge1-UVAHIK_clean_linker_0
_symmetry_space_group_name_H-M    P1
_symmetry_Int_Tables_number       1
_symmetry_cell_setting            triclinic
loop_
_symmetry_equiv_pos_as_xyz
'x, y, z'
_cell_length_a     50.885995
_cell_length_b     51.284608
_cell_length_c     50.530358
_cell_angle_alpha  89.811748
_cell_angle_beta   90.198354
_cell_angle_gamma 90.290718
loop_
_atom_site_label
_atom_site_type_symbol
_atom_site_fract_x
_atom_site_fract_y
_atom_site_fract_z
_atom_type_partial_charge
P0 P 0.25237 0.26215 0.2606 0.0
H1 H 0.3074 0.26762 0.24567 0.0
H2 H 0.33689 0.24088 0.21909 0.0
H3 H 0.27381 0.18583 0.2054 0.0
H4 H 0.24431 0.21286 0.23183 0.0
H5 H 0.23296 0.31475 0.26987 0.0
H6 H 0.21153 0.34686 0.24148 0.0
H7 H 0.21704 0.29374 0.17543 0.0
H8 H 0.23715 0.26134 0.20433 0.0
H9 H 0.25314 0.20973 0.28403 0.0
H10 H 0.19944 0.27446 0.27978 0.0
O11 O 0.27067 0.27819 0.28272 0.0
H12 H 0.22192 0.1858 0.31179 0.0
H13 H 0.16861 0.25088 0.30827 0.0
C14 C 0.27391 0.24181 0.2414 0.0
C15 C 0.29996 0.24969 0.23713 0.0
C16 C 0.31674 0.2345 0.22177 0.0
C17 C 0.30772 0.21114 0.21036 0.0
C18 C 0.28144 0.20349 0.21435 0.0
C19 C 0.26459 0.21888 0.22948 0.0
C20 C 0.23695 0.28578 0.23918 0.0
C21 C 0.22955 0.31006 0.24926 0.0
C22 C 0.21745 0.32851 0.2329 0.0
C23 C 0.21267 0.32309 0.206 0.0
C24 C 0.22007 0.29858 0.19606 0.0
C25 C 0.23185 0.28003 0.21256 0.0
C26 C 0.22829 0.24355 0.27892 0.0
C27 C 0.23444 0.2186 0.28853 0.0
C28 C 0.21666 0.20498 0.30453 0.0
C29 C 0.1928 0.21644 0.31198 0.0
C30 C 0.18684 0.24159 0.30273 0.0
C31 C 0.20442 0.25499 0.28629 0.0
P32 P 0.32573 0.8265 0.71644 0.0
H33 H 0.37007 0.85816 0.73466 0.0
H34 H 0.38948 0.86557 0.77799 0.0
H35 H 0.33256 0.81303 0.81298 0.0
H36 H 0.31261 0.80633 0.76919 0.0
H37 H 0.30028 0.79827 0.67307 0.0
H38 H 0.3053 0.75404 0.6562 0.0
H39 H 0.35984 0.73723 0.71976 0.0
H40 H 0.35363 0.78077 0.73711 0.0
H41 H 0.31097 0.88051 0.72071 0.0
H42 H 0.27076 0.80686 0.7118 0.0
O43 O 0.34433 0.8419 0.69413 0.0
H44 H 0.2695 0.90347 0.71534 0.0
H45 H 0.22931 0.82973 0.70461 0.0
C46 C 0.34008 0.83145 0.74868 0.0
C47 C 0.36177 0.84812 0.75157 0.0
C48 C 0.37301 0.85219 0.77644 0.0
C49 C 0.36285 0.83962 0.79901 0.0
C50 C 0.34083 0.8231 0.79606 0.0
C51 C 0.32949 0.81914 0.77107 0.0
C52 C 0.32572 0.79262 0.70698 0.0
C53 C 0.3125 0.7847 0.68395 0.0
C54 C 0.31576 0.75948 0.67405 0.0
C55 C 0.33295 0.74187 0.68659 0.0
C56 C 0.3459 0.74987 0.70989 0.0
C57 C 0.34237 0.77496 0.7199 0.0
C58 C 0.2941 0.84207 0.71576 0.0
C59 C 0.29316 0.86927 0.71752 0.0
C60 C 0.26942 0.88239 0.71423 0.0
C61 C 0.24607 0.86854 0.70879 0.0
C62 C 0.24685 0.84108 0.70867 0.0
C63 C 0.27067 0.82794 0.71239 0.0
P64 P 0.75604 0.2833 0.78051 0.0
H65 H 0.78313 0.28016 0.83164 0.0
H66 H 0.81264 0.30994 0.85491 0.0
H67 H 0.80377 0.36625 0.79164 0.0
H68 H 0.77331 0.33688 0.76926 0.0
H69 H 0.74014 0.22912 0.77425 0.0
H70 H 0.71565 0.19873 0.8022 0.0
H71 H 0.70493 0.25946 0.86018 0.0
H72 H 0.72965 0.28986 0.83197 0.0
H73 H 0.76287 0.29851 0.72534 0.0
H74 H 0.70279 0.30498 0.7849 0.0
O75 O 0.77726 0.26527 0.76345 0.0
H76 H 0.73528 0.32238 0.69404 0.0
H77 H 0.67502 0.32908 0.75361 0.0
C78 C 0.7753 0.30655 0.79911 0.0
C79 C 0.78699 0.29919 0.82313 0.0
C80 C 0.80424 0.31615 0.83622 0.0
C81 C 0.81074 0.3406 0.82519 0.0
C82 C 0.79891 0.34786 0.80106 0.0
C83 C 0.78144 0.33098 0.78815 0.0
C84 C 0.73727 0.26154 0.80134 0.0
C85 C 0.73261 0.2359 0.79301 0.0
C86 C 0.71843 0.21858 0.80894 0.0
C87 C 0.70848 0.22662 0.83352 0.0
C88 C 0.71273 0.25255 0.84157 0.0
C89 C 0.7268 0.26995 0.82547 0.0
C90 C 0.73471 0.29961 0.7573 0.0
C91 C 0.7436 0.30484 0.73161 0.0
C92 C 0.72789 0.31866 0.71378 0.0
C93 C 0.70294 0.3276 0.72133 0.0
C94 C 0.69399 0.32215 0.74709 0.0
C95 C 0.70986 0.30844 0.76501 0.0
P96 P 0.77022 0.76745 0.27425 0.0
H97 H 0.78761 0.82169 0.27029 0.0
H98 H 0.81432 0.84947 0.29902 0.0
H99 H 0.82328 0.78533 0.35403 0.0
H100 H 0.79731 0.75749 0.32467 0.0
H101 H 0.7627 0.74933 0.22009 0.0
H102 H 0.79034 0.72443 0.18988 0.0
H103 H 0.85113 0.72081 0.24963 0.0
H104 H 0.82339 0.74561 0.27977 0.0
H105 H 0.74498 0.77208 0.32598 0.0
H106 H 0.74786 0.71566 0.2629 0.0
O107 O 0.75057 0.78666 0.25637 0.0
H108 H 0.71556 0.74339 0.35088 0.0
H109 H 0.71774 0.68721 0.28753 0.0
C110 C 0.78996 0.78774 0.29567 0.0
C111 C 0.79525 0.81366 0.28859 0.0
C112 C 0.81043 0.82956 0.30512 0.0
C113 C 0.82074 0.81976 0.32903 0.0
C114 C 0.81581 0.79352 0.33573 0.0
C115 C 0.80073 0.77763 0.31909 0.0
C116 C 0.79113 0.7497 0.25202 0.0
C117 C 0.78205 0.74334 0.22662 0.0
C118 C 0.79779 0.729 0.20943 0.0
C119 C 0.82296 0.72081 0.21734 0.0
C120 C 0.83199 0.72721 0.24284 0.0
C121 C 0.8161 0.74134 0.26012 0.0
C122 C 0.74948 0.74562 0.293 0.0
C123 C 0.73969 0.75335 0.31765 0.0
C124 C 0.72276 0.73701 0.33183 0.0
C125 C 0.71463 0.71299 0.32122 0.0
C126 C 0.72381 0.70559 0.29617 0.0
C127 C 0.74116 0.72178 0.28219 0.0
P128 P 0.93252 0.9412 0.94401 0.0
H129 H 0.90157 0.95396 0.99022 0.0
H130 H 0.85718 0.97073 0.99598 0.0
H131 H 0.84621 0.97109 0.91108 0.0
H132 H 0.8904 0.95343 0.9056 0.0
H133 H 0.9781 0.90812 0.94967 0.0
H134 H 0.98398 0.86291 0.96382 0.0
H135 H 0.9002 0.8553 0.97529 0.0
H136 H 0.89442 0.90061 0.961 0.0
H137 H 0.94988 0.98712 0.91496 0.0
H138 H 0.93969 0.90508 0.89937 0.0
O139 O 0.95167 0.95915 0.96377 0.0
H140 H 0.96594 0.99379 0.86994 0.0
H141 H 0.95668 0.91133 0.85466 0.0
C142 C 0.89939 0.95281 0.94753 0.0
C143 C 0.88957 0.95765 0.97287 0.0
C144 C 0.86424 0.96743 0.97609 0.0
C145 C 0.84819 0.97266 0.95396 0.0
C146 C 0.85796 0.96722 0.92855 0.0
C147 C 0.88333 0.95727 0.92537 0.0
C148 C 0.9359 0.90774 0.95434 0.0
C149 C 0.96099 0.89671 0.9552 0.0
C150 C 0.9643 0.87085 0.96318 0.0
C151 C 0.94252 0.85553 0.97061 0.0
C152 C 0.91734 0.8667 0.96988 0.0
C153 C 0.91403 0.89258 0.96164 0.0
C154 C 0.9441 0.94557 0.91065 0.0
C155 C 0.95138 0.9705 0.90189 0.0
C156 C 0.96073 0.97423 0.87618 0.0
C157 C 0.96296 0.95304 0.8587 0.0
C158 C 0.95513 0.92811 0.86749 0.0
C159 C 0.9456 0.92446 0.89318 0.0
P160 P 0.65497 0.15806 0.38515 0.0
H161 H 0.6785 0.20725 0.40219 0.0
H162 H 0.66475 0.2403 0.43352 0.0
H163 H 0.59923 0.19138 0.45687 0.0
H164 H 0.61258 0.15887 0.42428 0.0
H165 H 0.69256 0.12308 0.3611 0.0
H166 H 0.72117 0.08935 0.37905 0.0
H167 H 0.68502 0.0984 0.45576 0.0
H168 H 0.65683 0.13261 0.43769 0.0
H169 H 0.61389 0.18842 0.36032 0.0
H170 H 0.63291 0.107 0.36927 0.0
O171 O 0.67452 0.17346 0.36367 0.0
H172 H 0.57806 0.17702 0.33007 0.0
H173 H 0.59727 0.09549 0.33881 0.0
C174 C 0.64629 0.18085 0.41063 0.0
C175 C 0.66122 0.20358 0.4141 0.0
C176 C 0.65346 0.2224 0.43233 0.0
C177 C 0.63076 0.21867 0.44777 0.0
C178 C 0.61651 0.19519 0.44501 0.0
C179 C 0.62418 0.1765 0.42651 0.0
C180 C 0.67306 0.13079 0.39819 0.0
C181 C 0.69065 0.11765 0.38173 0.0
C182 C 0.70683 0.09815 0.392 0.0
C183 C 0.70559 0.09129 0.41894 0.0
C184 C 0.68681 0.10354 0.43504 0.0
C185 C 0.67062 0.12309 0.42471 0.0
C186 C 0.62602 0.14859 0.36702 0.0
C187 C 0.61003 0.16805 0.35614 0.0
C188 C 0.58965 0.16154 0.33877 0.0
C189 C 0.58496 0.13538 0.33194 0.0
C190 C 0.60025 0.11579 0.3439 0.0
C191 C 0.62073 0.12237 0.36123 0.0
P192 P 0.4399 0.60045 0.09396 0.0
H193 H 0.41532 0.55653 0.06639 0.0
H194 H 0.36976 0.54242 0.06133 0.0
H195 H 0.34445 0.60838 0.10764 0.0
H196 H 0.39037 0.62198 0.11317 0.0
H197 H 0.48323 0.63592 0.10454 0.0
H198 H 0.49165 0.6814 0.09297 0.0
H199 H 0.41858 0.68381 0.04929 0.0
H200 H 0.41026 0.63802 0.06092 0.0
H201 H 0.46187 0.55608 0.12269 0.0
H202 H 0.43707 0.63427 0.1406 0.0
O203 O 0.45907 0.58187 0.07514 0.0
H204 H 0.47583 0.55001 0.16855 0.0
H205 H 0.45225 0.629 0.18614 0.0
C206 C 0.40616 0.59051 0.08985 0.0
C207 C 0.39999 0.56802 0.07539 0.0
C208 C 0.37387 0.56002 0.07242 0.0
C209 C 0.35336 0.57434 0.08392 0.0
C210 C 0.35973 0.59674 0.09872 0.0
C211 C 0.38593 0.60467 0.10174 0.0
C212 C 0.4457 0.63387 0.08441 0.0
C213 C 0.46889 0.64626 0.09265 0.0
C214 C 0.47368 0.67226 0.08602 0.0
C215 C 0.45555 0.6863 0.07059 0.0
C216 C 0.43283 0.6735 0.0613 0.0
C217 C 0.42796 0.64742 0.06814 0.0
C218 C 0.44911 0.59583 0.12811 0.0
C219 C 0.45968 0.57204 0.13648 0.0
C220 C 0.46786 0.5687 0.16271 0.0
C221 C 0.46566 0.58916 0.1811 0.0
C222 C 0.4542 0.61274 0.17269 0.0
C223 C 0.44572 0.6159 0.14653 0.0
P224 P 0.14766 0.38405 0.66352 0.0
H225 H 0.16973 0.3341 0.64798 0.0
H226 H 0.15639 0.30144 0.61572 0.0
H227 H 0.09189 0.35063 0.59112 0.0
H228 H 0.10489 0.3828 0.62444 0.0
H229 H 0.18825 0.41753 0.68612 0.0
H230 H 0.22 0.44779 0.66637 0.0
H231 H 0.18447 0.43535 0.58964 0.0
H232 H 0.15289 0.40511 0.60945 0.0
H233 H 0.10116 0.35991 0.68624 0.0
H234 H 0.13248 0.43772 0.67714 0.0
O235 O 0.1649 0.36854 0.68685 0.0
H236 H 0.06598 0.37678 0.71417 0.0
H237 H 0.0978 0.45461 0.70535 0.0
C238 C 0.13795 0.36055 0.63896 0.0
C239 C 0.15265 0.3378 0.63573 0.0
C240 C 0.14516 0.31926 0.61696 0.0
C241 C 0.12301 0.32332 0.60072 0.0
C242 C 0.10877 0.34662 0.60355 0.0
C243 C 0.11618 0.36507 0.62254 0.0
C244 C 0.16867 0.40858 0.64916 0.0
C245 C 0.18718 0.4215 0.66508 0.0
C246 C 0.20516 0.43895 0.65382 0.0
C247 C 0.20489 0.44371 0.62641 0.0
C248 C 0.1854 0.43172 0.61075 0.0
C249 C 0.16733 0.41442 0.62207 0.0
C250 C 0.11934 0.39755 0.67952 0.0
C251 C 0.10015 0.3807 0.68983 0.0
C252 C 0.08017 0.39033 0.70592 0.0
C253 C 0.07915 0.41702 0.7121 0.0
C254 C 0.09778 0.43401 0.70071 0.0
C255 C 0.11778 0.42433 0.68465 0.0
Zn256 Zn 0.97637 0.0553 0.55571 0.0
Zn257 Zn 0.04502 0.99466 0.50149 0.0
Zn258 Zn 0.00966 0.02477 0.5274 0.0
C259 C 0.05288 0.04659 0.4855 0.0
C260 C 0.99326 0.97913 0.48704 0.0
O261 O 0.01323 0.01518 0.57009 0.0
O262 O 0.98594 0.04145 0.59122 0.0
C263 C 0.01189 0.08814 0.52891 0.0
O264 O 0.03497 0.05043 0.50303 0.0
O265 O 0.06062 0.02379 0.48042 0.0
O266 O 0.01695 0.97193 0.48568 0.0
O267 O 0.98696 0.99934 0.50066 0.0
O268 O 0.99206 0.08894 0.54387 0.0
O269 O 0.02076 0.06607 0.52078 0.0
O270 O 0.96926 0.01654 0.51341 0.0
O271 O 0.94411 0.04197 0.53805 0.0
C272 C 0.94647 0.02514 0.52005 0.0
O273 O 0.03273 0.0017 0.55653 0.0
O274 O 0.06436 0.98291 0.5335 0.0
C275 C 0.00274 0.02344 0.59166 0.0
C276 C 0.05372 0.98779 0.55545 0.0
Zn277 Zn 0.49168 0.03824 0.99285 0.0
Zn278 Zn 0.55315 0.99795 0.06942 0.0
Zn279 Zn 0.52276 0.01767 0.03144 0.0
C280 C 0.58658 0.0198 0.03176 0.0
C281 C 0.52416 0.95646 0.04798 0.0
O282 O 0.49548 0.04559 0.05013 0.0
O283 O 0.46863 0.05777 0.01776 0.0
C284 C 0.54399 0.05335 0.98254 0.0
O285 O 0.56437 0.02495 0.02062 0.0
O286 O 0.58736 0.00833 0.05388 0.0
O287 O 0.54059 0.96154 0.06604 0.0
O288 O 0.51566 0.97476 0.03264 0.0
O289 O 0.52087 0.05643 0.97391 0.0
O290 O 0.54824 0.03913 0.00321 0.0
O291 O 0.50064 0.98554 0.01199 0.0
O292 O 0.479 0.00439 0.97892 0.0
C293 C 0.48524 0.98417 0.99171 0.0
O294 O 0.51241 0.03593 0.07007 0.0
O295 O 0.53958 0.01812 0.09931 0.0
C296 C 0.47535 0.05851 0.04185 0.0
C297 C 0.52114 0.03359 0.09396 0.0
Zn298 Zn 0.5365 0.55005 0.54453 0.0
Zn299 Zn 0.47884 0.48714 0.48021 0.0
Zn300 Zn 0.50846 0.51776 0.51232 0.0
C301 C 0.51408 0.4551 0.50856 0.0
C302 C 0.50719 0.5216 0.44809 0.0
O303 O 0.48128 0.53803 0.53931 0.0
O304 O 0.50626 0.56078 0.56696 0.0
C305 C 0.55459 0.49863 0.55216 0.0
O306 O 0.52228 0.47728 0.51733 0.0
O307 O 0.49437 0.4539 0.49331 0.0
O308 O 0.49222 0.50198 0.44646 0.0
O309 O 0.51461 0.53037 0.4708 0.0
O310 O 0.56002 0.52198 0.55805 0.0
O311 O 0.53583 0.4934 0.53577 0.0
O312 O 0.53001 0.54611 0.48743 0.0
O313 O 0.54886 0.57361 0.51549 0.0
C314 C 0.54409 0.56658 0.492 0.0
O315 O 0.4666 0.52129 0.52316 0.0
O316 O 0.44396 0.49873 0.49343 0.0
C317 C 0.48379 0.55328 0.55938 0.0
C318 C 0.44453 0.51328 0.51353 0.0
Zn319 Zn 0.04961 0.56486 0.98327 0.0
Zn320 Zn 0.99333 0.49789 0.04343 0.0
Zn321 Zn 0.02202 0.53292 0.01447 0.0
C322 C 0.04692 0.4913 0.05597 0.0
C323 C 0.98285 0.48743 0.99062 0.0
O324 O 0.00899 0.57321 0.02281 0.0
O325 O 0.03649 0.59755 0.99933 0.0
C326 C 0.08572 0.5373 0.01395 0.0
O327 O 0.04965 0.5105 0.03967 0.0
O328 O 0.02446 0.48193 0.06091 0.0
O329 O 0.97723 0.47882 0.01334 0.0
O330 O 0.99884 0.50686 0.98789 0.0
O331 O 0.08489 0.55217 0.99402 0.0
O332 O 0.06432 0.52882 0.02465 0.0
O333 O 0.01524 0.52282 0.97233 0.0
O334 O 0.03501 0.55353 0.94866 0.0
C335 C 0.02115 0.53309 0.94977 0.0
O336 O 0.99508 0.55576 0.03919 0.0
O337 O 0.97255 0.52575 0.06134 0.0
C338 C 0.01768 0.59572 0.01546 0.0
C339 C 0.97726 0.54945 0.05613 0.0
C340 C 0.16567 0.21469 0.35326 0.0
C341 C 0.17468 0.20252 0.33014 0.0
C342 C 0.14983 0.20104 0.37121 0.0
C343 C 0.10423 0.14606 0.3777 0.0
H344 H 0.12909 0.14082 0.4502 0.0
C345 C 0.04906 0.08849 0.46018 0.0
C346 C 0.06475 0.06864 0.47097 0.0
C347 C 0.06041 0.10814 0.44457 0.0
C348 C 0.12179 0.14239 0.43009 0.0
H349 H 0.17361 0.16693 0.30722 0.0
H350 H 0.14536 0.14321 0.33833 0.0
H351 H 0.1523 0.16912 0.41873 0.0
H352 H 0.10442 0.05401 0.47474 0.0
H353 H 0.12435 0.08873 0.44812 0.0
H354 H 0.0739 0.11906 0.38903 0.0
C355 C 0.15073 0.16322 0.34263 0.0
C356 C 0.13498 0.15859 0.41215 0.0
C357 C 0.16699 0.1767 0.32495 0.0
C358 C 0.09196 0.06913 0.46661 0.0
C359 C 0.10335 0.08903 0.45154 0.0
C360 C 0.09073 0.13026 0.39579 0.0
C361 C 0.14228 0.17515 0.36608 0.0
C362 C 0.12666 0.16012 0.38565 0.0
C363 C 0.08765 0.10845 0.44002 0.0
C364 C 0.09975 0.12785 0.42198 0.0
H365 H 0.17148 0.23454 0.35779 0.0
H366 H 0.14353 0.21066 0.38914 0.0
H367 H 0.09738 0.14702 0.3574 0.0
H368 H 0.028 0.08838 0.46321 0.0
H369 H 0.04795 0.12295 0.43588 0.0
C370 C 0.40243 0.84713 0.82785 0.0
C371 C 0.37502 0.84436 0.82542 0.0
C372 C 0.41384 0.85443 0.85188 0.0
C373 C 0.39707 0.88975 0.91287 0.0
H374 H 0.46917 0.87292 0.93097 0.0
C375 C 0.45324 0.94726 0.99268 0.0
C376 C 0.47569 0.95901 0.98182 0.0
C377 C 0.4411 0.9263 0.9797 0.0
C378 C 0.44891 0.87756 0.92634 0.0
H379 H 0.33826 0.84572 0.84695 0.0
H380 H 0.35825 0.85764 0.88918 0.0
H381 H 0.44646 0.84812 0.89653 0.0
H382 H 0.50391 0.95783 0.94997 0.0
H383 H 0.48318 0.92088 0.92758 0.0
H384 H 0.39984 0.91961 0.94226 0.0
C385 C 0.37089 0.85477 0.87226 0.0
C386 C 0.43594 0.86352 0.90649 0.0
C387 C 0.35943 0.84764 0.84808 0.0
C388 C 0.48674 0.94875 0.95876 0.0
C389 C 0.47493 0.92759 0.94607 0.0
C390 C 0.40995 0.90355 0.93293 0.0
C391 C 0.3982 0.8589 0.8743 0.0
C392 C 0.4102 0.87015 0.89873 0.0
C393 C 0.45147 0.91674 0.95587 0.0
C394 C 0.43631 0.89826 0.93916 0.0
H395 H 0.41512 0.84422 0.81096 0.0
H396 H 0.43487 0.85767 0.85246 0.0
H397 H 0.37741 0.89567 0.90737 0.0
H398 H 0.44432 0.95518 0.01034 0.0
H399 H 0.42304 0.91826 0.98766 0.0
C400 C 0.65974 0.33876 0.69968 0.0
C401 C 0.68686 0.34336 0.70264 0.0
C402 C 0.64477 0.35387 0.68212 0.0
C403 C 0.64462 0.41812 0.6499 0.0
H404 H 0.59429 0.38773 0.60094 0.0
C405 C 0.59653 0.48111 0.57001 0.0
C406 C 0.56957 0.47768 0.56531 0.0
C407 C 0.61049 0.46301 0.58509 0.0
C408 C 0.60806 0.39654 0.61469 0.0
H409 H 0.71947 0.36754 0.68968 0.0
H410 H 0.69346 0.39379 0.65914 0.0
H411 H 0.6189 0.35948 0.63126 0.0
H412 H 0.53598 0.45257 0.57235 0.0
H413 H 0.56033 0.42088 0.59916 0.0
H414 H 0.63371 0.45509 0.63394 0.0
C415 C 0.68373 0.37853 0.67035 0.0
C416 C 0.62215 0.38035 0.63202 0.0
C417 C 0.69868 0.36334 0.68768 0.0
C418 C 0.55687 0.45544 0.57545 0.0
C419 C 0.57084 0.43732 0.59076 0.0
C420 C 0.63048 0.43424 0.63279 0.0
C421 C 0.6566 0.37407 0.66744 0.0
C422 C 0.64079 0.39099 0.64961 0.0
C423 C 0.59772 0.44124 0.59628 0.0
C424 C 0.61224 0.42369 0.61473 0.0
H425 H 0.65012 0.32338 0.71081 0.0
H426 H 0.62388 0.35008 0.68041 0.0
H427 H 0.65844 0.42696 0.66358 0.0
H428 H 0.60678 0.49808 0.56232 0.0
H429 H 0.63128 0.46634 0.58835 0.0
C430 C 0.86628 0.7106 0.19606 0.0
C431 C 0.8394 0.705 0.19932 0.0
C432 C 0.88176 0.6953 0.17939 0.0
C433 C 0.88501 0.6296 0.15174 0.0
H434 H 0.93278 0.65948 0.10009 0.0
C435 C 0.9353 0.56466 0.07565 0.0
C436 C 0.96176 0.56962 0.06967 0.0
C437 C 0.92075 0.58258 0.09013 0.0
C438 C 0.91978 0.65083 0.11464 0.0
H439 H 0.8077 0.67899 0.18777 0.0
H440 H 0.83471 0.65225 0.15882 0.0
H441 H 0.90693 0.6882 0.12844 0.0
H442 H 0.99387 0.59709 0.07421 0.0
H443 H 0.96849 0.62855 0.09983 0.0
H444 H 0.89799 0.59235 0.13861 0.0
C445 C 0.8438 0.66848 0.1691 0.0
C446 C 0.90495 0.66728 0.13081 0.0
C447 C 0.8283 0.6839 0.1855 0.0
C448 C 0.97332 0.5931 0.07807 0.0
C449 C 0.95878 0.61104 0.09281 0.0
C450 C 0.89993 0.61321 0.13582 0.0
C451 C 0.87071 0.67392 0.16597 0.0
C452 C 0.8872 0.65679 0.1493 0.0
C453 C 0.93242 0.60574 0.09943 0.0
C454 C 0.91726 0.62356 0.11681 0.0
H455 H 0.87531 0.72687 0.20632 0.0
H456 H 0.90248 0.69985 0.17745 0.0
H457 H 0.87188 0.62095 0.16618 0.0
H458 H 0.92585 0.54678 0.06921 0.0
H459 H 0.90034 0.57812 0.09424 0.0
C460 C 0.32667 0.16778 0.19792 0.0
C461 C 0.32566 0.19492 0.19424 0.0
C462 C 0.34377 0.15256 0.1829 0.0
C463 C 0.40282 0.15721 0.13958 0.0
H464 H 0.3795 0.08899 0.11619 0.0
C465 C 0.4708 0.08853 0.08049 0.0
C466 C 0.45915 0.07359 0.06045 0.0
C467 C 0.45528 0.10254 0.09824 0.0
C468 C 0.38629 0.10809 0.12235 0.0
H469 H 0.34143 0.22734 0.17164 0.0
H470 H 0.37075 0.20083 0.14497 0.0
H471 H 0.35084 0.11518 0.14364 0.0
H472 H 0.42222 0.0625 0.0422 0.0
H473 H 0.39506 0.08767 0.0723 0.0
H474 H 0.43778 0.15059 0.11728 0.0
C475 C 0.35893 0.19128 0.15995 0.0
C476 C 0.36995 0.12299 0.13847 0.0
C477 C 0.34203 0.20651 0.17515 0.0
C478 C 0.4317 0.0736 0.05777 0.0
C479 C 0.41614 0.0878 0.07525 0.0
C480 C 0.41907 0.14238 0.12326 0.0
C481 C 0.36008 0.16409 0.16364 0.0
C482 C 0.3779 0.14784 0.14717 0.0
C483 C 0.42769 0.10235 0.09586 0.0
C484 C 0.41094 0.1177 0.11424 0.0
H485 H 0.31453 0.15835 0.21273 0.0
H486 H 0.3444 0.13177 0.18666 0.0
H487 H 0.40983 0.17605 0.14623 0.0
H488 H 0.49193 0.08991 0.0819 0.0
H489 H 0.46494 0.11347 0.11381 0.0
C490 C 0.1966 0.87365 0.70873 0.0
C491 C 0.22168 0.88284 0.70138 0.0
C492 C 0.17387 0.88666 0.7003 0.0
C493 C 0.15113 0.94973 0.67224 0.0
H494 H 0.09762 0.90838 0.63689 0.0
C495 C 0.09393 0.98578 0.58287 0.0
C496 C 0.06728 0.9795 0.57977 0.0
C497 C 0.1081 0.9763 0.60445 0.0
C498 C 0.11201 0.92021 0.64725 0.0
H499 H 0.24223 0.91285 0.67901 0.0
H500 H 0.203 0.93549 0.66485 0.0
H501 H 0.13185 0.88666 0.66276 0.0
H502 H 0.0343 0.95854 0.59652 0.0
H503 H 0.05933 0.94146 0.6346 0.0
H504 H 0.13221 0.98315 0.65549 0.0
C505 C 0.20082 0.91855 0.67753 0.0
C506 C 0.13164 0.90777 0.66205 0.0
C507 C 0.2234 0.90552 0.68573 0.0
C508 C 0.05476 0.96396 0.59889 0.0
C509 C 0.06909 0.95407 0.62044 0.0
C510 C 0.1316 0.96211 0.65743 0.0
C511 C 0.17577 0.90924 0.68454 0.0
C512 C 0.15205 0.92237 0.67374 0.0
C513 C 0.09601 0.95996 0.62322 0.0
C514 C 0.1125 0.94742 0.64387 0.0
H515 H 0.19452 0.8564 0.72097 0.0
H516 H 0.15483 0.87906 0.70607 0.0
H517 H 0.16625 0.96154 0.68152 0.0
H518 H 0.10397 0.99768 0.56826 0.0
H519 H 0.12888 0.98084 0.60577 0.0
C520 C 0.85245 0.34745 0.85127 0.0
C521 C 0.83041 0.35801 0.83831 0.0
C522 C 0.87093 0.36363 0.8636 0.0
C523 C 0.87919 0.43038 0.8907 0.0
H524 H 0.95238 0.40987 0.89431 0.0
C525 C 0.95749 0.49018 0.94819 0.0
C526 C 0.97036 0.4751 0.96746 0.0
C527 C 0.94286 0.47807 0.92811 0.0
C528 C 0.93202 0.41589 0.89332 0.0
H529 H 0.81077 0.39419 0.82819 0.0
H530 H 0.84348 0.42242 0.84881 0.0
H531 H 0.92163 0.38472 0.86726 0.0
H532 H 0.97889 0.43583 0.98059 0.0
H533 H 0.95385 0.41465 0.94527 0.0
H534 H 0.88976 0.46153 0.9169 0.0
C535 C 0.84622 0.40153 0.84989 0.0
C536 C 0.91432 0.40138 0.87801 0.0
C537 C 0.82758 0.3853 0.83775 0.0
C538 C 0.9692 0.44782 0.96584 0.0
C539 C 0.95501 0.43574 0.94557 0.0
C540 C 0.89698 0.44507 0.90574 0.0
C541 C 0.86811 0.39091 0.86309 0.0
C542 C 0.8875 0.408 0.87706 0.0
C543 C 0.94121 0.45072 0.92686 0.0
C544 C 0.92342 0.43758 0.90773 0.0
H545 H 0.85563 0.32659 0.85177 0.0
H546 H 0.88723 0.35463 0.87391 0.0
H547 H 0.8587 0.43597 0.89074 0.0
H548 H 0.95794 0.51128 0.94925 0.0
H549 H 0.93244 0.49004 0.91388 0.0
C550 C 0.70148 0.69016 0.36292 0.0
C551 C 0.69635 0.696 0.33627 0.0
C552 C 0.6837 0.6753 0.37766 0.0
C553 C 0.62498 0.63163 0.37217 0.0
H554 H 0.6173 0.65094 0.44579 0.0
C555 C 0.5673 0.56884 0.44848 0.0
C556 C 0.55582 0.58158 0.47005 0.0
C557 C 0.5819 0.58299 0.42982 0.0
C558 C 0.61874 0.64547 0.42517 0.0
H559 H 0.66882 0.69066 0.30396 0.0
H560 H 0.63717 0.66539 0.32991 0.0
H561 H 0.64762 0.6749 0.41812 0.0
H562 H 0.54897 0.61906 0.48824 0.0
H563 H 0.57327 0.64392 0.45522 0.0
H564 H 0.59516 0.60278 0.37918 0.0
C565 C 0.65523 0.67171 0.33934 0.0
C566 C 0.63666 0.65896 0.40935 0.0
C567 C 0.67329 0.68628 0.32446 0.0
C568 C 0.55789 0.60878 0.47189 0.0
C569 C 0.57204 0.62295 0.45306 0.0
C570 C 0.60672 0.61829 0.38799 0.0
C571 C 0.66005 0.6663 0.36626 0.0
C572 C 0.6403 0.65207 0.38271 0.0
C573 C 0.58508 0.61018 0.43231 0.0
C574 C 0.60346 0.62496 0.41477 0.0
H575 H 0.71932 0.69711 0.37238 0.0
H576 H 0.68852 0.67095 0.39808 0.0
H577 H 0.62734 0.62561 0.3518 0.0
H578 H 0.5663 0.54781 0.44688 0.0
H579 H 0.59176 0.57238 0.41429 0.0
C580 C 0.20477 0.36963 0.19177 0.0
C581 C 0.19975 0.34278 0.18852 0.0
C582 C 0.19208 0.38807 0.17583 0.0
C583 C 0.15792 0.3963 0.11216 0.0
H584 H 0.12143 0.45298 0.14657 0.0
C585 C 0.07418 0.45185 0.06129 0.0
C586 C 0.0699 0.47811 0.06738 0.0
C587 C 0.09389 0.43784 0.07418 0.0
C588 C 0.13196 0.43767 0.13649 0.0
H589 H 0.17723 0.31453 0.16579 0.0
H590 H 0.15577 0.34666 0.13763 0.0
H591 H 0.14875 0.42366 0.17278 0.0
H592 H 0.0821 0.51028 0.09208 0.0
H593 H 0.11767 0.48626 0.1139 0.0
H594 H 0.14122 0.41014 0.07589 0.0
C595 C 0.16964 0.35335 0.15247 0.0
C596 C 0.14753 0.42078 0.15158 0.0
C597 C 0.18203 0.33492 0.16861 0.0
C598 C 0.08581 0.49033 0.08637 0.0
C599 C 0.10577 0.47637 0.09919 0.0
C600 C 0.14263 0.41334 0.09702 0.0
C601 C 0.17438 0.38011 0.15603 0.0
C602 C 0.16015 0.39957 0.13965 0.0
C603 C 0.10977 0.44978 0.09357 0.0
C604 C 0.12888 0.43386 0.10907 0.0
H605 H 0.21864 0.37645 0.20651 0.0
H606 H 0.19627 0.40858 0.17885 0.0
H607 H 0.1678 0.38035 0.10239 0.0
H608 H 0.06174 0.44195 0.04702 0.0
H609 H 0.09587 0.41732 0.06969 0.0
C610 C 0.67532 0.19066 0.83934 0.0
C611 C 0.69381 0.20786 0.85055 0.0
C612 C 0.66215 0.17237 0.85504 0.0
C613 C 0.64402 0.15723 0.92438 0.0
H614 H 0.62864 0.08908 0.89493 0.0
C615 C 0.58703 0.07755 0.98287 0.0
C616 C 0.56581 0.06674 0.96876 0.0
C617 C 0.60606 0.09261 0.96977 0.0
C618 C 0.6328 0.10803 0.90343 0.0
H619 H 0.71293 0.21931 0.88713 0.0
H620 H 0.69003 0.18721 0.91462 0.0
H621 H 0.65503 0.12011 0.86968 0.0
H622 H 0.54814 0.06258 0.92993 0.0
H623 H 0.58126 0.08862 0.90709 0.0
H624 H 0.6215 0.14507 0.95806 0.0
C625 C 0.68547 0.1881 0.89369 0.0
C626 C 0.64781 0.12589 0.88892 0.0
C627 C 0.69859 0.20652 0.87795 0.0
C628 C 0.56434 0.07063 0.94128 0.0
C629 C 0.58341 0.0854 0.92818 0.0
C630 C 0.62912 0.13927 0.93898 0.0
C631 C 0.66719 0.17068 0.88239 0.0
C632 C 0.65312 0.15095 0.89892 0.0
C633 C 0.60425 0.09693 0.94231 0.0
C634 C 0.62286 0.11468 0.92841 0.0
H635 H 0.67084 0.19149 0.81838 0.0
H636 H 0.64775 0.15974 0.84574 0.0
H637 H 0.64753 0.1764 0.93264 0.0
H638 H 0.58834 0.07528 0.00414 0.0
H639 H 0.62196 0.10118 0.98115 0.0
C640 C 0.85873 0.827 0.3602 0.0
C641 C 0.83658 0.83682 0.34684 0.0
C642 C 0.87365 0.84304 0.37684 0.0
C643 C 0.89004 0.91176 0.3894 0.0
H644 H 0.91562 0.88533 0.45665 0.0
C645 C 0.95155 0.9758 0.4608 0.0
C646 C 0.97299 0.96367 0.47311 0.0
C647 C 0.93282 0.96104 0.44702 0.0
C648 C 0.90882 0.89295 0.43784 0.0
H649 H 0.81254 0.87121 0.34098 0.0
H650 H 0.83883 0.89926 0.36973 0.0
H651 H 0.88711 0.85809 0.4293 0.0
H652 H 0.99217 0.92669 0.48022 0.0
H653 H 0.96005 0.90093 0.45565 0.0
H654 H 0.91221 0.94639 0.39759 0.0
C655 C 0.84474 0.87918 0.36711 0.0
C656 C 0.89247 0.87733 0.42219 0.0
C657 C 0.82972 0.8631 0.35058 0.0
C658 C 0.97564 0.93652 0.47111 0.0
C659 C 0.95707 0.92175 0.45725 0.0
C660 C 0.90652 0.92735 0.405 0.0
C661 C 0.86686 0.86932 0.38043 0.0
C662 C 0.88313 0.88644 0.39766 0.0
C663 C 0.93543 0.93381 0.44498 0.0
C664 C 0.91638 0.91801 0.42927 0.0
H665 H 0.86487 0.807 0.35746 0.0
H666 H 0.89083 0.83497 0.38649 0.0
H667 H 0.88338 0.91924 0.37048 0.0
H668 H 0.94985 0.99677 0.46104 0.0
H669 H 0.91641 0.971 0.43785 0.0
C670 C 0.34527 0.69443 0.69025 0.0
C671 C 0.33927 0.71621 0.67435 0.0
C672 C 0.35495 0.67158 0.67894 0.0
C673 C 0.36321 0.63463 0.61721 0.0
H674 H 0.43164 0.61756 0.64609 0.0
C675 C 0.44062 0.57606 0.5591 0.0
C676 C 0.46055 0.56327 0.57319 0.0
C677 C 0.42111 0.58975 0.57262 0.0
C678 C 0.41227 0.62134 0.63808 0.0
H679 H 0.3375 0.73024 0.63375 0.0
H680 H 0.35362 0.6901 0.61413 0.0
H681 H 0.40503 0.65013 0.66764 0.0
H682 H 0.47477 0.55268 0.6121 0.0
H683 H 0.43995 0.57502 0.63581 0.0
H684 H 0.37037 0.60573 0.58764 0.0
C685 C 0.35086 0.69086 0.63537 0.0
C686 C 0.39706 0.64023 0.65045 0.0
C687 C 0.34155 0.71386 0.64668 0.0
C688 C 0.45968 0.5627 0.60088 0.0
C689 C 0.43985 0.57576 0.6144 0.0
C690 C 0.37824 0.61526 0.60505 0.0
C691 C 0.35841 0.66981 0.65146 0.0
C692 C 0.37264 0.64745 0.63988 0.0
C693 C 0.42099 0.59054 0.60052 0.0
C694 C 0.40328 0.60873 0.615 0.0
H695 H 0.34319 0.69524 0.71155 0.0
H696 H 0.3604 0.6555 0.69176 0.0
H697 H 0.34434 0.63979 0.60876 0.0
H698 H 0.44105 0.57681 0.53768 0.0
H699 H 0.40715 0.60093 0.56111 0.0
C700 C 0.99379 0.97483 0.82657 0.0
C701 C 0.97317 0.95707 0.83138 0.0
C702 C 0.00259 0.97954 0.80081 0.0
C703 C 0.00231 0.95319 0.73275 0.0
H704 H 0.00794 0.02582 0.712 0.0
C705 C 0.99586 0.98813 0.62448 0.0
C706 C 0.00888 0.01114 0.61715 0.0
C707 C 0.99733 0.97902 0.65054 0.0
C708 C 0.00711 0.00541 0.71749 0.0
H709 H 0.94593 0.93006 0.8127 0.0
H710 H 0.96151 0.93809 0.76783 0.0
H711 H 0.99924 0.01469 0.75792 0.0
H712 H 0.03446 0.04225 0.6304 0.0
H713 H 0.0378 0.02603 0.67591 0.0
H714 H 0.00982 0.94392 0.69218 0.0
C715 C 0.971 0.9482 0.78407 0.0
C716 C 0.002 0.99904 0.74387 0.0
C717 C 0.96207 0.94361 0.80982 0.0
C718 C 0.02444 0.02432 0.63575 0.0
C719 C 0.0261 0.01514 0.66179 0.0
C720 C 0.00763 0.95955 0.70634 0.0
C721 C 0.99112 0.96646 0.77925 0.0
C722 C 0.99903 0.9729 0.75171 0.0
C723 C 0.01179 0.99289 0.66975 0.0
C724 C 0.00958 0.98578 0.69827 0.0
H725 H 0.00319 0.98514 0.84273 0.0
H726 H 0.01836 0.99348 0.79775 0.0
H727 H 1.00049 0.93284 0.7383 0.0
H728 H 0.98346 0.97794 0.61039 0.0
H729 H 0.98581 0.96202 0.65592 0.0
C730 C 0.54919 0.10719 0.3125 0.0
C731 C 0.56614 0.1288 0.31043 0.0
C732 C 0.53359 0.09961 0.29096 0.0
C733 C 0.51253 0.12021 0.22268 0.0
H734 H 0.51474 0.04593 0.20908 0.0
C735 C 0.52362 0.07366 0.12081 0.0
C736 C 0.5113 0.04973 0.11559 0.0
C737 C 0.5199 0.08607 0.14504 0.0
C738 C 0.51331 0.06667 0.21278 0.0
H739 H 0.57964 0.1597 0.28437 0.0
H740 H 0.55319 0.14624 0.24682 0.0
H741 H 0.52821 0.0623 0.25204 0.0
H742 H 0.48527 0.01996 0.13105 0.0
H743 H 0.47902 0.04147 0.17388 0.0
H744 H 0.49955 0.12448 0.18245 0.0
C745 C 0.55115 0.13549 0.26517 0.0
C746 C 0.52104 0.07612 0.23751 0.0
C747 C 0.56648 0.14319 0.28674 0.0
C748 C 0.4944 0.03878 0.13451 0.0
C749 C 0.49098 0.05098 0.15898 0.0
C750 C 0.50513 0.11076 0.1978 0.0
C751 C 0.53487 0.11328 0.26677 0.0
C752 C 0.5217 0.1031 0.24248 0.0
C753 C 0.50446 0.07428 0.1648 0.0
C754 C 0.50631 0.08396 0.19236 0.0
H755 H 0.54831 0.09591 0.33064 0.0
H756 H 0.52097 0.08267 0.29308 0.0
H757 H 0.51212 0.14105 0.22599 0.0
H758 H 0.53731 0.08201 0.10671 0.0
H759 H 0.53088 0.10377 0.14909 0.0
C760 C 0.46212 0.5974 0.23018 0.0
C761 C 0.47541 0.58593 0.2088 0.0
C762 C 0.47106 0.59387 0.25616 0.0
C763 C 0.50558 0.54699 0.29701 0.0
H764 H 0.51168 0.6029 0.34818 0.0
C765 C 0.529 0.52179 0.40434 0.0
C766 C 0.51443 0.53502 0.42347 0.0
C767 C 0.53056 0.53147 0.37853 0.0
C768 C 0.50989 0.587 0.33424 0.0
H769 H 0.50924 0.56254 0.19822 0.0
H770 H 0.5241 0.55562 0.24359 0.0
H771 H 0.5008 0.61299 0.3021 0.0
H772 H 0.49116 0.5692 0.43148 0.0
H773 H 0.49261 0.58561 0.38614 0.0
H774 H 0.51294 0.52075 0.32886 0.0
C775 C 0.50677 0.56735 0.24011 0.0
C776 C 0.50375 0.59284 0.30783 0.0
C777 C 0.49808 0.57116 0.21413 0.0
C778 C 0.50274 0.55887 0.41697 0.0
C779 C 0.50368 0.56825 0.39094 0.0
C780 C 0.51124 0.54109 0.32339 0.0
C781 C 0.49326 0.57853 0.26139 0.0
C782 C 0.50134 0.57284 0.28903 0.0
C783 C 0.51669 0.55406 0.37108 0.0
C784 C 0.51327 0.56096 0.34251 0.0
H785 H 0.4444 0.60859 0.22698 0.0
H786 H 0.46007 0.60242 0.27225 0.0
H787 H 0.50349 0.53115 0.28301 0.0
H788 H 0.5382 0.50333 0.40907 0.0
H789 H 0.5416 0.52047 0.36413 0.0
C790 C 0.04855 0.45119 0.72959 0.0
C791 C 0.06064 0.42676 0.73244 0.0
C792 C 0.03451 0.46204 0.75055 0.0
C793 C 0.00742 0.44853 0.81791 0.0
H794 H 0.03102 0.51919 0.83156 0.0
C795 C 0.0158 0.49321 0.92205 0.0
C796 C 0.01348 0.5203 0.92484 0.0
C797 C 0.0129 0.48164 0.89718 0.0
C798 C 0.02359 0.49971 0.8279 0.0
H799 H 0.06633 0.39401 0.75911 0.0
H800 H 0.0421 0.41294 0.79559 0.0
H801 H 0.04119 0.499 0.78967 0.0
H802 H 0.00474 0.55642 0.90444 0.0
H803 H 0.99913 0.53627 0.86109 0.0
H804 H 0.99071 0.44907 0.85682 0.0
C805 C 0.04306 0.42361 0.77709 0.0
C806 C 0.02946 0.48808 0.80375 0.0
C807 C 0.05702 0.41275 0.75612 0.0
C808 C 0.00676 0.53547 0.90271 0.0
C809 C 0.00365 0.52393 0.87792 0.0
C810 C 0.00147 0.46023 0.84216 0.0
C811 C 0.03236 0.44874 0.77485 0.0
C812 C 0.02209 0.46213 0.79871 0.0
C813 C 0.00774 0.49702 0.87465 0.0
C814 C 0.01011 0.48574 0.84768 0.0
H815 H 0.05061 0.46227 0.71142 0.0
H816 H 0.02609 0.48125 0.74804 0.0
H817 H 0.00115 0.42861 0.81448 0.0
H818 H 0.02135 0.48116 0.93879 0.0
H819 H 0.01642 0.46091 0.89541 0.0
C820 C 0.81694 0.00243 0.97735 0.0
C821 C 0.82144 0.9837 0.95762 0.0
C822 C 0.7916 0.01145 0.98227 0.0
C823 C 0.72433 0.01689 0.95569 0.0
H824 H 0.70453 0.01199 0.02952 0.0
C825 C 0.61624 0.01763 0.99255 0.0
C826 C 0.61166 0.02576 0.0186 0.0
C827 C 0.64186 0.01765 0.98243 0.0
C828 C 0.70972 0.01418 0.00888 0.0
H829 H 0.80276 0.96058 0.92689 0.0
H830 H 0.75843 0.97666 0.93537 0.0
H831 H 0.74918 0.0023 0.01667 0.0
H832 H 0.62926 0.0428 0.05354 0.0
H833 H 0.67353 0.04445 0.03551 0.0
H834 H 0.68469 0.02883 0.94794 0.0
C835 C 0.77466 0.98432 0.94695 0.0
C836 C 0.7354 0.00842 0.00151 0.0
C837 C 0.80006 0.97512 0.94212 0.0
C838 C 0.63247 0.03613 0.03349 0.0
C839 C 0.65785 0.03677 0.02321 0.0
C840 C 0.69855 0.02302 0.96312 0.0
C841 C 0.77013 0.00215 0.96746 0.0
C842 C 0.74298 0.00954 0.97487 0.0
C843 C 0.66316 0.02621 0.99812 0.0
C844 C 0.69088 0.0216 0.98985 0.0
H845 H 0.833 0.00999 0.98921 0.0
H846 H 0.78872 0.0255 0.99795 0.0
H847 H 0.72971 0.01802 0.935 0.0
H848 H 0.6004 0.00949 0.98076 0.0
H849 H 0.64509 0.00938 0.96304 0.0
C850 C 0.7374 0.07929 0.45489 0.0
C851 C 0.72544 0.07332 0.43052 0.0
C852 C 0.75861 0.0647 0.46419 0.0
C853 C 0.81305 0.02606 0.43866 0.0
H854 H 0.82824 0.01745 0.5134 0.0
C855 C 0.904 0.0012 0.51643 0.0
C856 C 0.92278 0.01791 0.50518 0.0
C857 C 0.87891 0.99909 0.50518 0.0
C858 C 0.82422 0.01911 0.4924 0.0
H859 H 0.72531 0.04615 0.39771 0.0
H860 H 0.76252 0.02068 0.41396 0.0
H861 H 0.7842 0.02967 0.49933 0.0
H862 H 0.93072 0.04516 0.47346 0.0
H863 H 0.88709 0.04162 0.45371 0.0
H864 H 0.85328 0.01611 0.4318 0.0
C865 C 0.75567 0.03693 0.42565 0.0
C866 C 0.79901 0.02645 0.48437 0.0
C867 C 0.73438 0.05154 0.41634 0.0
C868 C 0.91662 0.0317 0.48204 0.0
C869 C 0.89164 0.02956 0.47074 0.0
C870 C 0.83826 0.01866 0.4467 0.0
C871 C 0.76844 0.04375 0.44937 0.0
C872 C 0.79341 0.031 0.45749 0.0
C873 C 0.87219 0.01392 0.48269 0.0
C874 C 0.8444 0.01609 0.47373 0.0
H875 H 0.73134 0.09614 0.46615 0.0
H876 H 0.76821 0.07079 0.48232 0.0
H877 H 0.80948 0.02945 0.4178 0.0
H878 H 0.90833 0.99079 0.53461 0.0
H879 H 0.86443 0.98674 0.51474 0.0
C880 C 0.3073 0.5678 0.10097 0.0
C881 C 0.3255 0.56607 0.08015 0.0
C882 C 0.28106 0.56035 0.09718 0.0
C883 C 0.23727 0.52224 0.05273 0.0
H884 H 0.1832 0.56875 0.07816 0.0
C885 C 0.13273 0.52529 0.00915 0.0
C886 C 0.11161 0.53164 0.02565 0.0
C887 C 0.15835 0.52465 0.01915 0.0
C888 C 0.19796 0.5552 0.07139 0.0
H889 H 0.33017 0.5553 0.03895 0.0
H890 H 0.28456 0.54229 0.03242 0.0
H891 H 0.229 0.57739 0.08921 0.0
H892 H 0.10054 0.54266 0.06526 0.0
H893 H 0.14523 0.54057 0.08324 0.0
H894 H 0.20623 0.5004 0.03438 0.0
C895 C 0.29065 0.54898 0.05181 0.0
C896 C 0.22427 0.56022 0.07768 0.0
C897 C 0.31683 0.55649 0.05556 0.0
C898 C 0.1164 0.53663 0.05249 0.0
C899 C 0.14205 0.53598 0.06257 0.0
C900 C 0.21094 0.51719 0.04648 0.0
C901 C 0.27241 0.55092 0.07253 0.0
C902 C 0.2443 0.54411 0.06797 0.0
C903 C 0.16342 0.53067 0.04584 0.0
C904 C 0.191 0.53392 0.05528 0.0
H905 H 0.31337 0.5747 0.12028 0.0
H906 H 0.26757 0.56182 0.11363 0.0
H907 H 0.25219 0.50917 0.04535 0.0
H908 H 0.12952 0.52182 0.98824 0.0
H909 H 0.1743 0.52089 0.00558 0.0
C910 C 0.23876 0.44969 0.59127 0.0
C911 C 0.22619 0.45925 0.6139 0.0
C912 C 0.26017 0.46293 0.58042 0.0
C913 C 0.3125 0.51028 0.59757 0.0
H914 H 0.32581 0.50436 0.52242 0.0
C915 C 0.39793 0.52745 0.51175 0.0
C916 C 0.41965 0.51944 0.52675 0.0
C917 C 0.37309 0.52883 0.52328 0.0
C918 C 0.32239 0.50693 0.54337 0.0
H919 H 0.22574 0.4906 0.64254 0.0
H920 H 0.26295 0.51421 0.62318 0.0
H921 H 0.28375 0.49098 0.53978 0.0
H922 H 0.4331 0.50793 0.56568 0.0
H923 H 0.38962 0.50878 0.58562 0.0
H924 H 0.35104 0.52687 0.601 0.0
C925 C 0.25653 0.49616 0.61412 0.0
C926 C 0.29826 0.49869 0.55344 0.0
C927 C 0.23518 0.48271 0.62516 0.0
C928 C 0.41653 0.51425 0.5538 0.0
C929 C 0.39155 0.51493 0.56521 0.0
C930 C 0.33657 0.51901 0.5874 0.0
C931 C 0.26947 0.48628 0.59173 0.0
C932 C 0.29337 0.49924 0.58078 0.0
C933 C 0.36928 0.52123 0.54982 0.0
C934 C 0.34222 0.51657 0.56026 0.0
H935 H 0.23266 0.43139 0.58247 0.0
H936 H 0.26996 0.45428 0.56364 0.0
H937 H 0.30947 0.51106 0.61875 0.0
H938 H 0.40004 0.53184 0.49087 0.0
H939 H 0.35669 0.53474 0.51098 0.0
C940 C 0.96323 0.81186 0.96449 0.0
C941 C 0.94634 0.828 0.9789 0.0
C942 C 0.96835 0.78648 0.973 0.0
C943 C 0.94524 0.73295 0.01662 0.0
H944 H 0.01745 0.71074 0.00873 0.0
C945 C 0.02099 0.64011 0.03419 0.0
C946 C 0.0052 0.61999 0.02412 0.0
C947 C 0.0113 0.66544 0.03584 0.0
C948 C 0.99726 0.71662 0.01167 0.0
H949 H 0.92095 0.82997 0.01318 0.0
H950 H 0.93015 0.78549 0.02832 0.0
H951 H 0.00547 0.75475 0.99678 0.0
H952 H 0.96646 0.60976 0.00971 0.0
H953 H 0.94966 0.65434 0.01143 0.0
H954 H 0.93723 0.6946 0.03183 0.0
C955 C 0.93924 0.79245 0.01027 0.0
C956 C 0.99029 0.74185 0.00428 0.0
C957 C 0.93399 0.81791 0.00162 0.0
C958 C 0.97889 0.62507 0.01767 0.0
C959 C 0.96931 0.65062 0.01872 0.0
C960 C 0.95227 0.70757 0.02419 0.0
C961 C 0.95686 0.77661 0.99629 0.0
C962 C 0.96413 0.75021 0.00611 0.0
C963 C 0.98589 0.67133 0.02654 0.0
C964 C 0.97836 0.69898 0.02146 0.0
H965 H 0.97261 0.81889 0.94661 0.0
H966 H 0.98146 0.7746 0.96134 0.0
H967 H 0.92489 0.73878 0.01827 0.0
H968 H 0.04132 0.63651 0.03943 0.0
H969 H 0.02433 0.68069 0.04287 0.0
C970 C 0.45702 0.72476 0.03938 0.0
C971 C 0.46031 0.71436 0.06496 0.0
C972 C 0.46313 0.75098 0.03419 0.0
C973 C 0.50292 0.80506 0.06189 0.0
H974 H 0.45975 0.85017 0.01812 0.0
C975 C 0.51043 0.91516 0.06953 0.0
C976 C 0.51406 0.92949 0.04612 0.0
C977 C 0.50308 0.889 0.06863 0.0
C978 C 0.47211 0.83765 0.03011 0.0
H979 H 0.47108 0.72358 0.10541 0.0
H980 H 0.48133 0.76907 0.09655 0.0
H981 H 0.44816 0.80382 0.0228 0.0
H982 H 0.51343 0.92756 0.00341 0.0
H983 H 0.49929 0.88162 0.00169 0.0
H984 H 0.52637 0.83882 0.06988 0.0
C985 C 0.47487 0.75694 0.08025 0.0
C986 C 0.46553 0.81116 0.03279 0.0
C987 C 0.46892 0.73086 0.08537 0.0
C988 C 0.50966 0.91723 0.02168 0.0
C989 C 0.50195 0.89092 0.02073 0.0
C990 C 0.50933 0.83138 0.05938 0.0
C991 C 0.47255 0.76725 0.05452 0.0
C992 C 0.48053 0.79474 0.04928 0.0
C993 C 0.49917 0.87647 0.04427 0.0
C994 C 0.49367 0.84808 0.04401 0.0
H995 H 0.45047 0.71245 0.02325 0.0
H996 H 0.46119 0.75829 0.01415 0.0
H997 H 0.51537 0.79283 0.07409 0.0
H998 H 0.51363 0.92413 0.08867 0.0
H999 H 0.50075 0.87841 0.08707 0.0
C1000 C 0.08724 0.29717 0.57868 0.0
C1001 C 0.11416 0.30265 0.58201 0.0
C1002 C 0.07898 0.27587 0.56357 0.0
C1003 C 0.10073 0.21109 0.54694 0.0
H1004 H 0.0388 0.20988 0.50206 0.0
C1005 C 0.05307 0.11351 0.51948 0.0
C1006 C 0.02569 0.11282 0.52271 0.0
C1007 C 0.06642 0.13737 0.5178 0.0
C1008 C 0.05612 0.20985 0.51457 0.0
H1009 H 0.15341 0.29099 0.57034 0.0
H1010 H 0.13892 0.2533 0.54466 0.0
H1011 H 0.05735 0.25163 0.51619 0.0
H1012 H 0.99068 0.13648 0.52577 0.0
H1013 H 0.01383 0.1779 0.52405 0.0
H1014 H 0.09865 0.16955 0.54705 0.0
C1015 C 0.12429 0.26552 0.5539 0.0
C1016 C 0.06677 0.23376 0.52255 0.0
C1017 C 0.13255 0.287 0.56877 0.0
C1018 C 0.01182 0.1364 0.52321 0.0
C1019 C 0.02513 0.16021 0.52191 0.0
C1020 C 0.08991 0.1872 0.53928 0.0
C1021 C 0.09745 0.25942 0.55163 0.0
C1022 C 0.08873 0.23458 0.53943 0.0
C1023 C 0.0527 0.16104 0.51998 0.0
C1024 C 0.06695 0.18624 0.52369 0.0
H1025 H 0.0725 0.30853 0.5888 0.0
H1026 H 0.05817 0.27144 0.56245 0.0
H1027 H 0.11753 0.21111 0.56017 0.0
H1028 H 0.06436 0.09568 0.51967 0.0
H1029 H 0.08761 0.13723 0.51591 0.0
C1030 C 0.59402 0.2451 0.46704 0.0
C1031 C 0.6211 0.24001 0.46513 0.0
C1032 C 0.58504 0.26701 0.48055 0.0
C1033 C 0.60514 0.33314 0.49417 0.0
H1034 H 0.54261 0.33488 0.53772 0.0
C1035 C 0.55581 0.43078 0.51746 0.0
C1036 C 0.52837 0.43077 0.51453 0.0
C1037 C 0.56951 0.40727 0.51949 0.0
C1038 C 0.56006 0.33478 0.52551 0.0
H1039 H 0.6598 0.2532 0.47769 0.0
H1040 H 0.64403 0.29198 0.50047 0.0
H1041 H 0.56205 0.29301 0.52614 0.0
H1042 H 0.49368 0.40627 0.51186 0.0
H1043 H 0.51741 0.36541 0.51421 0.0
H1044 H 0.60234 0.37458 0.49185 0.0
C1045 C 0.62987 0.27892 0.49139 0.0
C1046 C 0.57123 0.31079 0.51902 0.0
C1047 C 0.63886 0.25679 0.47818 0.0
C1048 C 0.51484 0.40687 0.5143 0.0
C1049 C 0.52849 0.3834 0.51595 0.0
C1050 C 0.59379 0.3571 0.50032 0.0
C1051 C 0.60291 0.28452 0.49223 0.0
C1052 C 0.59348 0.30974 0.50272 0.0
C1053 C 0.55608 0.38323 0.51795 0.0
C1054 C 0.57063 0.35821 0.51543 0.0
H1055 H 0.57974 0.23293 0.45696 0.0
H1056 H 0.56416 0.27103 0.4806 0.0
H1057 H 0.62215 0.3329 0.48133 0.0
H1058 H 0.56681 0.4489 0.517 0.0
H1059 H 0.59071 0.40795 0.52136 0.0
loop_
_geom_bond_atom_site_label_1
_geom_bond_atom_site_label_2
_geom_bond_distance
_geom_bond_site_symmetry_2
_ccdc_geom_bond_type
P0 O11 1.490 . S
P0 C14 1.812 . S
P0 C20 1.803 . S
P0 C26 1.819 . S
H1 C15 0.941 . S
H2 C16 0.939 . S
H3 C18 0.940 . S
H4 C19 0.940 . S
H5 C21 0.939 . S
H6 C22 0.942 . S
H7 C24 0.940 . S
H8 C25 0.939 . S
H9 C27 0.941 . S
H10 C31 0.939 . S
O11 P0 1.490 . S
H12 C28 0.939 . S
H13 C30 0.940 . S
C14 P0 1.812 . S
C14 C15 1.389 . S
C14 C19 1.391 . S
C15 H1 0.941 . S
C15 C14 1.389 . S
C15 C16 1.397 . S
C16 H2 0.939 . S
C16 C15 1.397 . S
C16 C17 1.378 . S
C17 C16 1.378 . S
C17 C18 1.378 . S
C18 H3 0.940 . S
C18 C17 1.378 . S
C18 C19 1.396 . S
C19 H4 0.940 . S
C19 C14 1.391 . S
C19 C18 1.396 . S
C20 P0 1.803 . S
C20 C21 1.378 . S
C20 C25 1.400 . S
C21 H5 0.939 . S
C21 C20 1.378 . S
C21 C22 1.361 . S
C22 H6 0.942 . S
C22 C21 1.361 . S
C22 C23 1.369 . S
C23 C22 1.369 . S
C23 C24 1.404 . S
C24 H7 0.940 . S
C24 C23 1.404 . S
C24 C25 1.389 . S
C25 H8 0.939 . S
C25 C20 1.400 . S
C25 C24 1.389 . S
C26 P0 1.819 . S
C26 C27 1.391 . S
C26 C31 1.391 . S
C27 H9 0.941 . S
C27 C26 1.391 . S
C27 C28 1.396 . S
C28 H12 0.939 . S
C28 C27 1.396 . S
C28 C29 1.397 . S
C29 C28 1.397 . S
C29 C30 1.385 . S
C30 H13 0.940 . S
C30 C29 1.385 . S
C30 C31 1.388 . S
C31 H10 0.939 . S
C31 C26 1.391 . S
C31 C30 1.388 . S
P32 O43 1.490 . S
P32 C46 1.812 . S
P32 C52 1.803 . S
P32 C58 1.819 . S
H33 C47 0.941 . S
H34 C48 0.939 . S
H35 C50 0.940 . S
H36 C51 0.940 . S
H37 C53 0.939 . S
H38 C54 0.942 . S
H39 C56 0.940 . S
H40 C57 0.939 . S
H41 C59 0.941 . S
H42 C63 0.939 . S
O43 P32 1.490 . S
H44 C60 0.939 . S
H45 C62 0.940 . S
C46 P32 1.812 . S
C46 C47 1.389 . S
C46 C51 1.391 . S
C47 H33 0.941 . S
C47 C46 1.389 . S
C47 C48 1.397 . S
C48 H34 0.939 . S
C48 C47 1.397 . S
C48 C49 1.378 . S
C49 C48 1.378 . S
C49 C50 1.378 . S
C50 H35 0.940 . S
C50 C49 1.378 . S
C50 C51 1.396 . S
C51 H36 0.940 . S
C51 C46 1.391 . S
C51 C50 1.396 . S
C52 P32 1.803 . S
C52 C53 1.378 . S
C52 C57 1.400 . S
C53 H37 0.939 . S
C53 C52 1.378 . S
C53 C54 1.361 . S
C54 H38 0.942 . S
C54 C53 1.361 . S
C54 C55 1.369 . S
C55 C54 1.369 . S
C55 C56 1.404 . S
C56 H39 0.940 . S
C56 C55 1.404 . S
C56 C57 1.389 . S
C57 H40 0.939 . S
C57 C52 1.400 . S
C57 C56 1.389 . S
C58 P32 1.819 . S
C58 C59 1.391 . S
C58 C63 1.391 . S
C59 H41 0.941 . S
C59 C58 1.391 . S
C59 C60 1.396 . S
C60 H44 0.939 . S
C60 C59 1.396 . S
C60 C61 1.397 . S
C61 C60 1.397 . S
C61 C62 1.385 . S
C62 H45 0.940 . S
C62 C61 1.385 . S
C62 C63 1.388 . S
C63 H42 0.939 . S
C63 C58 1.391 . S
C63 C62 1.388 . S
P64 O75 1.490 . S
P64 C78 1.812 . S
P64 C84 1.803 . S
P64 C90 1.819 . S
H65 C79 0.941 . S
H66 C80 0.939 . S
H67 C82 0.940 . S
H68 C83 0.940 . S
H69 C85 0.939 . S
H70 C86 0.942 . S
H71 C88 0.940 . S
H72 C89 0.939 . S
H73 C91 0.941 . S
H74 C95 0.939 . S
O75 P64 1.490 . S
H76 C92 0.939 . S
H77 C94 0.940 . S
C78 P64 1.812 . S
C78 C79 1.389 . S
C78 C83 1.391 . S
C79 H65 0.941 . S
C79 C78 1.389 . S
C79 C80 1.397 . S
C80 H66 0.939 . S
C80 C79 1.397 . S
C80 C81 1.378 . S
C81 C80 1.378 . S
C81 C82 1.378 . S
C82 H67 0.940 . S
C82 C81 1.378 . S
C82 C83 1.396 . S
C83 H68 0.940 . S
C83 C78 1.391 . S
C83 C82 1.396 . S
C84 P64 1.803 . S
C84 C85 1.378 . S
C84 C89 1.400 . S
C85 H69 0.939 . S
C85 C84 1.378 . S
C85 C86 1.361 . S
C86 H70 0.942 . S
C86 C85 1.361 . S
C86 C87 1.369 . S
C87 C86 1.369 . S
C87 C88 1.404 . S
C88 H71 0.940 . S
C88 C87 1.404 . S
C88 C89 1.389 . S
C89 H72 0.939 . S
C89 C84 1.400 . S
C89 C88 1.389 . S
C90 P64 1.819 . S
C90 C91 1.391 . S
C90 C95 1.391 . S
C91 H73 0.941 . S
C91 C90 1.391 . S
C91 C92 1.396 . S
C92 H76 0.939 . S
C92 C91 1.396 . S
C92 C93 1.397 . S
C93 C92 1.397 . S
C93 C94 1.385 . S
C94 H77 0.940 . S
C94 C93 1.385 . S
C94 C95 1.388 . S
C95 H74 0.939 . S
C95 C90 1.391 . S
C95 C94 1.388 . S
P96 O107 1.490 . S
P96 C110 1.812 . S
P96 C116 1.803 . S
P96 C122 1.819 . S
H97 C111 0.941 . S
H98 C112 0.939 . S
H99 C114 0.940 . S
H100 C115 0.940 . S
H101 C117 0.939 . S
H102 C118 0.942 . S
H103 C120 0.940 . S
H104 C121 0.939 . S
H105 C123 0.941 . S
H106 C127 0.939 . S
O107 P96 1.490 . S
H108 C124 0.939 . S
H109 C126 0.940 . S
C110 P96 1.812 . S
C110 C111 1.389 . S
C110 C115 1.391 . S
C111 H97 0.941 . S
C111 C110 1.389 . S
C111 C112 1.397 . S
C112 H98 0.939 . S
C112 C111 1.397 . S
C112 C113 1.378 . S
C113 C112 1.378 . S
C113 C114 1.378 . S
C114 H99 0.940 . S
C114 C113 1.378 . S
C114 C115 1.396 . S
C115 H100 0.940 . S
C115 C110 1.391 . S
C115 C114 1.396 . S
C116 P96 1.803 . S
C116 C117 1.378 . S
C116 C121 1.400 . S
C117 H101 0.939 . S
C117 C116 1.378 . S
C117 C118 1.361 . S
C118 H102 0.942 . S
C118 C117 1.361 . S
C118 C119 1.369 . S
C119 C118 1.369 . S
C119 C120 1.404 . S
C120 H103 0.940 . S
C120 C119 1.404 . S
C120 C121 1.389 . S
C121 H104 0.939 . S
C121 C116 1.400 . S
C121 C120 1.389 . S
C122 P96 1.819 . S
C122 C123 1.391 . S
C122 C127 1.391 . S
C123 H105 0.941 . S
C123 C122 1.391 . S
C123 C124 1.396 . S
C124 H108 0.939 . S
C124 C123 1.396 . S
C124 C125 1.397 . S
C125 C124 1.397 . S
C125 C126 1.385 . S
C126 H109 0.940 . S
C126 C125 1.385 . S
C126 C127 1.388 . S
C127 H106 0.939 . S
C127 C122 1.391 . S
C127 C126 1.388 . S
P128 O139 1.490 . S
P128 C142 1.812 . S
P128 C148 1.803 . S
P128 C154 1.819 . S
H129 C143 0.941 1_554 S
H130 C144 0.939 1_554 S
H131 C146 0.940 . S
H132 C147 0.940 . S
H133 C149 0.939 . S
H134 C150 0.942 1_455 S
H135 C152 0.940 . S
H136 C153 0.939 . S
H137 C155 0.962 . S
H138 C159 0.939 . S
O139 P128 1.490 . S
H140 C156 0.939 1_545 S
H141 C158 0.940 . S
C142 P128 1.812 . S
C142 C143 1.389 . S
C142 C147 1.391 . S
C143 H129 0.941 1_556 S
C143 C142 1.389 . S
C143 C144 1.397 . S
C144 H130 0.939 1_556 S
C144 C143 1.397 . S
C144 C145 1.378 . S
C145 C144 1.378 . S
C145 C146 1.378 . S
C146 H131 0.940 . S
C146 C145 1.378 . S
C146 C147 1.396 . S
C147 H132 0.940 . S
C147 C142 1.391 . S
C147 C146 1.396 . S
C148 P128 1.803 . S
C148 C149 1.378 . S
C148 C153 1.400 . S
C149 H133 0.939 . S
C149 C148 1.378 . S
C149 C150 1.361 . S
C150 H134 0.942 1_655 S
C150 C149 1.361 . S
C150 C151 1.369 . S
C151 C150 1.369 . S
C151 C152 1.404 . S
C152 H135 0.940 . S
C152 C151 1.404 . S
C152 C153 1.389 . S
C153 H136 0.939 . S
C153 C148 1.400 . S
C153 C152 1.389 . S
C154 P128 1.819 . S
C154 C155 1.391 . S
C154 C159 1.391 . S
C155 H137 0.962 . S
C155 C154 1.391 . S
C155 C156 1.396 . S
C156 H140 0.939 1_565 S
C156 C155 1.396 . S
C156 C157 1.397 . S
C157 C156 1.397 . S
C157 C158 1.385 . S
C158 H141 0.940 . S
C158 C157 1.385 . S
C158 C159 1.388 . S
C159 H138 0.939 . S
C159 C154 1.391 . S
C159 C158 1.388 . S
P160 O171 1.490 . S
P160 C174 1.812 . S
P160 C180 1.803 . S
P160 C186 1.819 . S
H161 C175 0.941 . S
H162 C176 0.939 . S
H163 C178 0.940 . S
H164 C179 0.940 . S
H165 C181 0.939 . S
H166 C182 0.942 . S
H167 C184 0.940 . S
H168 C185 0.939 . S
H169 C187 0.941 . S
H170 C191 0.939 . S
O171 P160 1.490 . S
H172 C188 0.939 . S
H173 C190 0.940 . S
C174 P160 1.812 . S
C174 C175 1.389 . S
C174 C179 1.391 . S
C175 H161 0.941 . S
C175 C174 1.389 . S
C175 C176 1.397 . S
C176 H162 0.939 . S
C176 C175 1.397 . S
C176 C177 1.378 . S
C177 C176 1.378 . S
C177 C178 1.378 . S
C178 H163 0.940 . S
C178 C177 1.378 . S
C178 C179 1.396 . S
C179 H164 0.940 . S
C179 C174 1.391 . S
C179 C178 1.396 . S
C180 P160 1.803 . S
C180 C181 1.378 . S
C180 C185 1.400 . S
C181 H165 0.939 . S
C181 C180 1.378 . S
C181 C182 1.361 . S
C182 H166 0.942 . S
C182 C181 1.361 . S
C182 C183 1.369 . S
C183 C182 1.369 . S
C183 C184 1.404 . S
C184 H167 0.940 . S
C184 C183 1.404 . S
C184 C185 1.389 . S
C185 H168 0.939 . S
C185 C180 1.400 . S
C185 C184 1.389 . S
C186 P160 1.819 . S
C186 C187 1.391 . S
C186 C191 1.391 . S
C187 H169 0.941 . S
C187 C186 1.391 . S
C187 C188 1.396 . S
C188 H172 0.939 . S
C188 C187 1.396 . S
C188 C189 1.397 . S
C189 C188 1.397 . S
C189 C190 1.385 . S
C190 H173 0.940 . S
C190 C189 1.385 . S
C190 C191 1.388 . S
C191 H170 0.939 . S
C191 C186 1.391 . S
C191 C190 1.388 . S
P192 O203 1.490 . S
P192 C206 1.812 . S
P192 C212 1.803 . S
P192 C218 1.819 . S
H193 C207 0.941 . S
H194 C208 0.939 . S
H195 C210 0.940 . S
H196 C211 0.940 . S
H197 C213 0.939 . S
H198 C214 0.942 . S
H199 C216 0.940 . S
H200 C217 0.939 . S
H201 C219 0.941 . S
H202 C223 0.939 . S
O203 P192 1.490 . S
H204 C220 0.939 . S
H205 C222 0.940 . S
C206 P192 1.812 . S
C206 C207 1.389 . S
C206 C211 1.391 . S
C207 H193 0.941 . S
C207 C206 1.389 . S
C207 C208 1.397 . S
C208 H194 0.939 . S
C208 C207 1.397 . S
C208 C209 1.378 . S
C209 C208 1.378 . S
C209 C210 1.378 . S
C210 H195 0.940 . S
C210 C209 1.378 . S
C210 C211 1.396 . S
C211 H196 0.940 . S
C211 C206 1.391 . S
C211 C210 1.396 . S
C212 P192 1.803 . S
C212 C213 1.378 . S
C212 C217 1.400 . S
C213 H197 0.939 . S
C213 C212 1.378 . S
C213 C214 1.361 . S
C214 H198 0.942 . S
C214 C213 1.361 . S
C214 C215 1.369 . S
C215 C214 1.369 . S
C215 C216 1.404 . S
C216 H199 0.940 . S
C216 C215 1.404 . S
C216 C217 1.389 . S
C217 H200 0.939 . S
C217 C212 1.400 . S
C217 C216 1.389 . S
C218 P192 1.819 . S
C218 C219 1.391 . S
C218 C223 1.391 . S
C219 H201 0.941 . S
C219 C218 1.391 . S
C219 C220 1.396 . S
C220 H204 0.939 . S
C220 C219 1.396 . S
C220 C221 1.397 . S
C221 C220 1.397 . S
C221 C222 1.385 . S
C222 H205 0.940 . S
C222 C221 1.385 . S
C222 C223 1.388 . S
C223 H202 0.939 . S
C223 C218 1.391 . S
C223 C222 1.388 . S
P224 O235 1.490 . S
P224 C238 1.812 . S
P224 C244 1.803 . S
P224 C250 1.819 . S
H225 C239 0.941 . S
H226 C240 0.939 . S
H227 C242 0.940 . S
H228 C243 0.940 . S
H229 C245 0.939 . S
H230 C246 0.942 . S
H231 C248 0.940 . S
H232 C249 0.939 . S
H233 C251 0.941 . S
H234 C255 0.939 . S
O235 P224 1.490 . S
H236 C252 0.939 . S
H237 C254 0.940 . S
C238 P224 1.812 . S
C238 C239 1.389 . S
C238 C243 1.391 . S
C239 H225 0.941 . S
C239 C238 1.389 . S
C239 C240 1.397 . S
C240 H226 0.939 . S
C240 C239 1.397 . S
C240 C241 1.378 . S
C241 C240 1.378 . S
C241 C242 1.378 . S
C242 H227 0.940 . S
C242 C241 1.378 . S
C242 C243 1.396 . S
C243 H228 0.940 . S
C243 C238 1.391 . S
C243 C242 1.396 . S
C244 P224 1.803 . S
C244 C245 1.378 . S
C244 C249 1.400 . S
C245 H229 0.939 . S
C245 C244 1.378 . S
C245 C246 1.361 . S
C246 H230 0.942 . S
C246 C245 1.361 . S
C246 C247 1.369 . S
C247 C246 1.369 . S
C247 C248 1.404 . S
C248 H231 0.940 . S
C248 C247 1.404 . S
C248 C249 1.389 . S
C249 H232 0.939 . S
C249 C244 1.400 . S
C249 C248 1.389 . S
C250 P224 1.819 . S
C250 C251 1.391 . S
C250 C255 1.391 . S
C251 H233 0.941 . S
C251 C250 1.391 . S
C251 C252 1.396 . S
C252 H236 0.939 . S
C252 C251 1.396 . S
C252 C253 1.397 . S
C253 C252 1.397 . S
C253 C254 1.385 . S
C254 H237 0.940 . S
C254 C253 1.385 . S
C254 C255 1.388 . S
C255 H234 0.939 . S
C255 C250 1.391 . S
C255 C254 1.388 . S
Zn256 O262 1.920 . S
Zn256 O268 1.898 . S
Zn256 O271 1.905 . S
Zn257 O265 1.905 1_565 S
Zn257 O266 1.898 . S
Zn257 O274 1.920 . S
Zn258 O261 2.080 1_455 S
Zn258 O264 2.114 . S
Zn258 O267 2.120 1_445 S
Zn258 O269 2.120 . S
Zn258 O270 2.114 1_455 S
Zn258 O273 2.080 . S
C259 O264 1.166 . S
C259 O265 1.182 . S
C260 O266 1.167 1_655 S
C260 O267 1.299 . S
O261 Zn258 2.080 1_655 S
O261 C275 1.305 . S
O262 Zn256 1.920 . S
O262 C275 1.234 . S
C263 O268 1.167 1_455 S
C263 O269 1.299 . S
O264 Zn258 2.114 . S
O264 C259 1.166 . S
O265 Zn257 1.905 1_545 S
O265 C259 1.182 . S
O266 Zn257 1.898 . S
O266 C260 1.167 1_455 S
O267 Zn258 2.120 1_665 S
O267 C260 1.299 . S
O268 Zn256 1.898 . S
O268 C263 1.167 1_655 S
O269 Zn258 2.120 . S
O269 C263 1.299 . S
O270 Zn258 2.114 1_655 S
O270 C272 1.166 . S
O271 Zn256 1.905 . S
O271 C272 1.182 . S
C272 O270 1.166 . S
C272 O271 1.182 . S
O273 Zn258 2.080 . S
O273 C276 1.305 . S
O274 Zn257 1.920 . S
O274 C276 1.234 1_565 S
C275 O261 1.305 . S
C275 O262 1.234 . S
C276 O273 1.305 . S
C276 O274 1.234 1_545 S
Zn277 O283 1.920 1_556 S
Zn277 O289 1.898 . S
Zn277 O292 1.905 . S
Zn278 O286 1.905 . S
Zn278 O287 1.898 . S
Zn278 O295 1.920 . S
Zn279 O282 2.080 . S
Zn279 O285 2.114 1_545 S
Zn279 O288 2.120 1_545 S
Zn279 O290 2.120 . S
Zn279 O291 2.114 1_554 S
Zn279 O294 2.080 . S
C280 O285 1.166 . S
C280 O286 1.182 . S
C281 O287 1.167 . S
C281 O288 1.299 . S
O282 Zn279 2.080 . S
O282 C296 1.305 . S
O283 Zn277 1.920 1_554 S
O283 C296 1.234 . S
C284 O289 1.182 . S
C284 O290 1.277 1_556 S
O285 Zn279 2.114 1_565 S
O285 C280 1.166 . S
O286 Zn278 1.905 . S
O286 C280 1.182 . S
O287 Zn278 1.898 . S
O287 C281 1.167 . S
O288 Zn279 2.120 1_565 S
O288 C281 1.299 . S
O289 Zn277 1.898 . S
O289 C284 1.182 . S
O290 Zn279 2.120 . S
O290 C284 1.277 1_554 S
O291 Zn279 2.114 1_556 S
O291 C293 1.166 . S
O292 Zn277 1.905 . S
O292 C293 1.182 . S
C293 O291 1.166 . S
C293 O292 1.182 . S
O294 Zn279 2.080 . S
O294 C297 1.305 . S
O295 Zn278 1.920 . S
O295 C297 1.234 1_565 S
C296 O282 1.305 . S
C296 O283 1.234 . S
C297 O294 1.305 . S
C297 O295 1.234 1_545 S
Zn298 O304 1.920 . S
Zn298 O310 1.898 . S
Zn298 O313 1.905 . S
Zn299 O307 1.905 . S
Zn299 O308 1.898 . S
Zn299 O316 1.920 . S
Zn300 O303 2.080 . S
Zn300 O306 2.114 . S
Zn300 O309 2.120 . S
Zn300 O311 2.120 . S
Zn300 O312 2.114 . S
Zn300 O315 2.080 . S
C301 O306 1.166 . S
C301 O307 1.182 . S
C302 O308 1.167 . S
C302 O309 1.299 . S
O303 Zn300 2.080 . S
O303 C317 1.305 . S
O304 Zn298 1.920 . S
O304 C317 1.234 . S
C305 O310 1.167 . S
C305 O311 1.299 . S
O306 Zn300 2.114 . S
O306 C301 1.166 . S
O307 Zn299 1.905 . S
O307 C301 1.182 . S
O308 Zn299 1.898 . S
O308 C302 1.167 . S
O309 Zn300 2.120 . S
O309 C302 1.299 . S
O310 Zn298 1.898 . S
O310 C305 1.167 . S
O311 Zn300 2.120 . S
O311 C305 1.299 . S
O312 Zn300 2.114 . S
O312 C314 1.166 . S
O313 Zn298 1.905 . S
O313 C314 1.182 . S
C314 O312 1.166 . S
C314 O313 1.182 . S
O315 Zn300 2.080 . S
O315 C318 1.305 . S
O316 Zn299 1.920 . S
O316 C318 1.234 . S
C317 O303 1.305 . S
C317 O304 1.234 . S
C318 O315 1.305 . S
C318 O316 1.234 . S
Zn319 O325 1.920 . S
Zn319 O331 1.898 . S
Zn319 O334 1.905 . S
Zn320 O328 1.905 1_655 S
Zn320 O329 1.898 . S
Zn320 O337 1.920 . S
Zn321 O324 2.080 1_554 S
Zn321 O327 2.114 . S
Zn321 O330 2.120 1_454 S
Zn321 O332 2.120 . S
Zn321 O333 2.114 1_554 S
Zn321 O336 2.080 . S
C322 O327 1.166 . S
C322 O328 1.182 . S
C323 O329 1.167 1_556 S
C323 O330 1.299 . S
O324 Zn321 2.080 1_556 S
O324 C338 1.305 . S
O325 Zn319 1.920 . S
O325 C338 1.234 . S
C326 O331 1.167 1_554 S
C326 O332 1.299 . S
O327 Zn321 2.114 . S
O327 C322 1.166 . S
O328 Zn320 1.905 1_455 S
O328 C322 1.182 . S
O329 Zn320 1.898 . S
O329 C323 1.167 1_554 S
O330 Zn321 2.120 1_656 S
O330 C323 1.299 . S
O331 Zn319 1.898 . S
O331 C326 1.167 1_556 S
O332 Zn321 2.120 . S
O332 C326 1.299 . S
O333 Zn321 2.114 1_556 S
O333 C335 1.166 . S
O334 Zn319 1.905 . S
O334 C335 1.182 . S
C335 O333 1.166 . S
C335 O334 1.182 . S
O336 Zn321 2.080 . S
O336 C339 1.305 1_455 S
O337 Zn320 1.920 . S
O337 C339 1.234 . S
C338 O324 1.305 . S
C338 O325 1.234 . S
C339 O336 1.305 1_655 S
C339 O337 1.234 . S
C340 C341 1.349 . S
C340 C342 1.327 . S
C340 H365 0.950 . S
C341 C340 1.349 . S
C341 C357 1.349 . S
C342 C340 1.327 . S
C342 C361 1.429 . S
C342 H366 0.950 . S
C343 C360 1.574 . S
C343 C362 1.368 . S
C343 H367 0.949 . S
H344 C348 0.949 . S
C345 C346 1.349 . S
C345 C347 1.327 . S
C345 H368 0.950 . S
C346 C345 1.349 . S
C346 C358 1.349 . S
C347 C345 1.327 . S
C347 C363 1.429 . S
C347 H369 0.950 . S
C348 H344 0.949 . S
C348 C356 1.574 . S
C348 C364 1.368 . S
H349 C357 0.950 . S
H350 C355 0.950 . S
H351 C356 0.949 . S
H352 C358 0.950 . S
H353 C359 0.950 . S
H354 C360 0.949 . S
C355 H350 0.950 . S
C355 C357 1.327 . S
C355 C361 1.429 . S
C356 C348 1.574 . S
C356 H351 0.949 . S
C356 C362 1.368 . S
C357 C341 1.349 . S
C357 H349 0.950 . S
C357 C355 1.327 . S
C358 C346 1.349 . S
C358 H352 0.950 . S
C358 C359 1.327 . S
C359 H353 0.950 . S
C359 C358 1.327 . S
C359 C363 1.429 . S
C360 C343 1.574 . S
C360 H354 0.949 . S
C360 C364 1.368 . S
C361 C342 1.429 . S
C361 C355 1.429 . S
C361 C362 1.523 . S
C362 C343 1.368 . S
C362 C356 1.368 . S
C362 C361 1.523 . S
C363 C347 1.429 . S
C363 C359 1.429 . S
C363 C364 1.523 . S
C364 C348 1.368 . S
C364 C360 1.368 . S
C364 C363 1.523 . S
H365 C340 0.950 . S
H366 C342 0.950 . S
H367 C343 0.949 . S
H368 C345 0.950 . S
H369 C347 0.950 . S
C370 C371 1.349 . S
C370 C372 1.327 . S
C370 H395 0.950 . S
C371 C370 1.349 . S
C371 C387 1.349 . S
C372 C370 1.327 . S
C372 C391 1.429 . S
C372 H396 0.950 . S
C373 C390 1.574 . S
C373 C392 1.368 . S
C373 H397 0.949 . S
H374 C378 0.949 . S
C375 C376 1.349 . S
C375 C377 1.327 . S
C375 H398 0.950 1_565 S
C376 C375 1.349 . S
C376 C388 1.349 . S
C377 C375 1.327 . S
C377 C393 1.429 . S
C377 H399 0.950 . S
C378 H374 0.949 . S
C378 C386 1.574 . S
C378 C394 1.368 . S
H379 C387 0.950 . S
H380 C385 0.950 . S
H381 C386 0.949 . S
H382 C388 0.950 . S
H383 C389 0.950 . S
H384 C390 0.949 . S
C385 H380 0.950 . S
C385 C387 1.327 . S
C385 C391 1.429 . S
C386 C378 1.574 . S
C386 H381 0.949 . S
C386 C392 1.368 . S
C387 C371 1.349 . S
C387 H379 0.950 . S
C387 C385 1.327 . S
C388 C376 1.349 . S
C388 H382 0.950 . S
C388 C389 1.327 . S
C389 H383 0.950 . S
C389 C388 1.327 . S
C389 C393 1.429 . S
C390 C373 1.574 . S
C390 H384 0.949 . S
C390 C394 1.368 . S
C391 C372 1.429 . S
C391 C385 1.429 . S
C391 C392 1.523 . S
C392 C373 1.368 . S
C392 C386 1.368 . S
C392 C391 1.523 . S
C393 C377 1.429 . S
C393 C389 1.429 . S
C393 C394 1.523 . S
C394 C378 1.368 . S
C394 C390 1.368 . S
C394 C393 1.523 . S
H395 C370 0.950 . S
H396 C372 0.950 . S
H397 C373 0.949 . S
H398 C375 0.950 1_545 S
H399 C377 0.950 . S
C400 C401 1.349 . S
C400 C402 1.327 . S
C400 H425 0.950 . S
C401 C400 1.349 . S
C401 C417 1.349 . S
C402 C400 1.327 . S
C402 C421 1.429 . S
C402 H426 0.950 . S
C403 C420 1.574 . S
C403 C422 1.368 . S
C403 H427 0.949 . S
H404 C408 0.949 . S
C405 C406 1.349 . S
C405 C407 1.327 . S
C405 H428 0.950 . S
C406 C405 1.349 . S
C406 C418 1.349 . S
C407 C405 1.327 . S
C407 C423 1.429 . S
C407 H429 0.950 . S
C408 H404 0.949 . S
C408 C416 1.574 . S
C408 C424 1.368 . S
H409 C417 0.950 . S
H410 C415 0.950 . S
H411 C416 0.949 . S
H412 C418 0.950 . S
H413 C419 0.950 . S
H414 C420 0.949 . S
C415 H410 0.950 . S
C415 C417 1.327 . S
C415 C421 1.429 . S
C416 C408 1.574 . S
C416 H411 0.949 . S
C416 C422 1.368 . S
C417 C401 1.349 . S
C417 H409 0.950 . S
C417 C415 1.327 . S
C418 C406 1.349 . S
C418 H412 0.950 . S
C418 C419 1.327 . S
C419 H413 0.950 . S
C419 C418 1.327 . S
C419 C423 1.429 . S
C420 C403 1.574 . S
C420 H414 0.949 . S
C420 C424 1.368 . S
C421 C402 1.429 . S
C421 C415 1.429 . S
C421 C422 1.523 . S
C422 C403 1.368 . S
C422 C416 1.368 . S
C422 C421 1.523 . S
C423 C407 1.429 . S
C423 C419 1.429 . S
C423 C424 1.523 . S
C424 C408 1.368 . S
C424 C420 1.368 . S
C424 C423 1.523 . S
H425 C400 0.950 . S
H426 C402 0.950 . S
H427 C403 0.949 . S
H428 C405 0.950 . S
H429 C407 0.950 . S
C430 C431 1.349 . S
C430 C432 1.327 . S
C430 H455 0.950 . S
C431 C430 1.349 . S
C431 C447 1.349 . S
C432 C430 1.327 . S
C432 C451 1.429 . S
C432 H456 0.950 . S
C433 C450 1.574 . S
C433 C452 1.368 . S
C433 H457 0.949 . S
H434 C438 0.949 . S
C435 C436 1.349 . S
C435 C437 1.327 . S
C435 H458 0.950 . S
C436 C435 1.349 . S
C436 C448 1.349 . S
C437 C435 1.327 . S
C437 C453 1.429 . S
C437 H459 0.950 . S
C438 H434 0.949 . S
C438 C446 1.574 . S
C438 C454 1.368 . S
H439 C447 0.950 . S
H440 C445 0.950 . S
H441 C446 0.949 . S
H442 C448 0.950 1_455 S
H443 C449 0.950 . S
H444 C450 0.949 . S
C445 H440 0.950 . S
C445 C447 1.327 . S
C445 C451 1.429 . S
C446 C438 1.574 . S
C446 H441 0.949 . S
C446 C452 1.368 . S
C447 C431 1.349 . S
C447 H439 0.950 . S
C447 C445 1.327 . S
C448 C436 1.349 . S
C448 H442 0.950 1_655 S
C448 C449 1.327 . S
C449 H443 0.950 . S
C449 C448 1.327 . S
C449 C453 1.429 . S
C450 C433 1.574 . S
C450 H444 0.949 . S
C450 C454 1.368 . S
C451 C432 1.429 . S
C451 C445 1.429 . S
C451 C452 1.523 . S
C452 C433 1.368 . S
C452 C446 1.368 . S
C452 C451 1.523 . S
C453 C437 1.429 . S
C453 C449 1.429 . S
C453 C454 1.523 . S
C454 C438 1.368 . S
C454 C450 1.368 . S
C454 C453 1.523 . S
H455 C430 0.950 . S
H456 C432 0.950 . S
H457 C433 0.949 . S
H458 C435 0.950 . S
H459 C437 0.950 . S
C460 C461 1.349 . S
C460 C462 1.327 . S
C460 H485 0.950 . S
C461 C460 1.349 . S
C461 C477 1.349 . S
C462 C460 1.327 . S
C462 C481 1.429 . S
C462 H486 0.950 . S
C463 C480 1.574 . S
C463 C482 1.368 . S
C463 H487 0.949 . S
H464 C468 0.949 . S
C465 C466 1.349 . S
C465 C467 1.327 . S
C465 H488 0.950 . S
C466 C465 1.349 . S
C466 C478 1.349 . S
C467 C465 1.327 . S
C467 C483 1.429 . S
C467 H489 0.950 . S
C468 H464 0.949 . S
C468 C476 1.574 . S
C468 C484 1.368 . S
H469 C477 0.950 . S
H470 C475 0.950 . S
H471 C476 0.949 . S
H472 C478 0.950 . S
H473 C479 0.950 . S
H474 C480 0.949 . S
C475 H470 0.950 . S
C475 C477 1.327 . S
C475 C481 1.429 . S
C476 C468 1.574 . S
C476 H471 0.949 . S
C476 C482 1.368 . S
C477 C461 1.349 . S
C477 H469 0.950 . S
C477 C475 1.327 . S
C478 C466 1.349 . S
C478 H472 0.950 . S
C478 C479 1.327 . S
C479 H473 0.950 . S
C479 C478 1.327 . S
C479 C483 1.429 . S
C480 C463 1.574 . S
C480 H474 0.949 . S
C480 C484 1.368 . S
C481 C462 1.429 . S
C481 C475 1.429 . S
C481 C482 1.523 . S
C482 C463 1.368 . S
C482 C476 1.368 . S
C482 C481 1.523 . S
C483 C467 1.429 . S
C483 C479 1.429 . S
C483 C484 1.523 . S
C484 C468 1.368 . S
C484 C480 1.368 . S
C484 C483 1.523 . S
H485 C460 0.950 . S
H486 C462 0.950 . S
H487 C463 0.949 . S
H488 C465 0.950 . S
H489 C467 0.950 . S
C490 C491 1.349 . S
C490 C492 1.327 . S
C490 H515 0.950 . S
C491 C490 1.349 . S
C491 C507 1.349 . S
C492 C490 1.327 . S
C492 C511 1.429 . S
C492 H516 0.950 . S
C493 C510 1.574 . S
C493 C512 1.368 . S
C493 H517 0.949 . S
H494 C498 0.949 . S
C495 C496 1.349 1_545 S
C495 C497 1.327 1_545 S
C495 H518 0.950 . S
C496 C495 1.349 1_565 S
C496 C508 1.349 . S
C497 C495 1.327 1_565 S
C497 C513 1.429 . S
C497 H519 0.950 1_565 S
C498 H494 0.949 . S
C498 C506 1.574 . S
C498 C514 1.368 . S
H499 C507 0.950 . S
H500 C505 0.950 . S
H501 C506 0.949 . S
H502 C508 0.950 . S
H503 C509 0.950 . S
H504 C510 0.949 . S
C505 H500 0.950 . S
C505 C507 1.327 . S
C505 C511 1.429 . S
C506 C498 1.574 . S
C506 H501 0.949 . S
C506 C512 1.368 . S
C507 C491 1.349 . S
C507 H499 0.950 . S
C507 C505 1.327 . S
C508 C496 1.349 . S
C508 H502 0.950 . S
C508 C509 1.327 . S
C509 H503 0.950 . S
C509 C508 1.327 . S
C509 C513 1.429 . S
C510 C493 1.574 . S
C510 H504 0.949 . S
C510 C514 1.368 . S
C511 C492 1.429 . S
C511 C505 1.429 . S
C511 C512 1.523 . S
C512 C493 1.368 . S
C512 C506 1.368 . S
C512 C511 1.523 . S
C513 C497 1.429 . S
C513 C509 1.429 . S
C513 C514 1.523 . S
C514 C498 1.368 . S
C514 C510 1.368 . S
C514 C513 1.523 . S
H515 C490 0.950 . S
H516 C492 0.950 . S
H517 C493 0.949 . S
H518 C495 0.950 . S
H519 C497 0.950 1_545 S
C520 C521 1.349 . S
C520 C522 1.327 . S
C520 H545 0.950 . S
C521 C520 1.349 . S
C521 C537 1.349 . S
C522 C520 1.327 . S
C522 C541 1.429 . S
C522 H546 0.950 . S
C523 C540 1.574 . S
C523 C542 1.368 . S
C523 H547 0.949 . S
H524 C528 0.949 . S
C525 C526 1.349 . S
C525 C527 1.327 . S
C525 H548 0.950 1_556 S
C526 C525 1.349 . S
C526 C538 1.349 . S
C527 C525 1.327 . S
C527 C543 1.429 . S
C527 H549 0.950 . S
C528 H524 0.949 . S
C528 C536 1.574 . S
C528 C544 1.368 . S
H529 C537 0.950 . S
H530 C535 0.950 . S
H531 C536 0.949 . S
H532 C538 0.950 . S
H533 C539 0.950 . S
H534 C540 0.949 . S
C535 H530 0.950 . S
C535 C537 1.327 . S
C535 C541 1.429 . S
C536 C528 1.574 . S
C536 H531 0.949 . S
C536 C542 1.368 . S
C537 C521 1.349 . S
C537 H529 0.950 . S
C537 C535 1.327 . S
C538 C526 1.349 . S
C538 H532 0.950 . S
C538 C539 1.327 . S
C539 H533 0.950 . S
C539 C538 1.327 . S
C539 C543 1.429 . S
C540 C523 1.574 . S
C540 H534 0.949 . S
C540 C544 1.368 . S
C541 C522 1.429 . S
C541 C535 1.429 . S
C541 C542 1.523 . S
C542 C523 1.368 . S
C542 C536 1.368 . S
C542 C541 1.523 . S
C543 C527 1.429 . S
C543 C539 1.429 . S
C543 C544 1.523 . S
C544 C528 1.368 . S
C544 C540 1.368 . S
C544 C543 1.523 . S
H545 C520 0.950 . S
H546 C522 0.950 . S
H547 C523 0.949 . S
H548 C525 0.950 1_554 S
H549 C527 0.950 . S
C550 C551 1.349 . S
C550 C552 1.327 . S
C550 H575 0.950 . S
C551 C550 1.349 . S
C551 C567 1.349 . S
C552 C550 1.327 . S
C552 C571 1.429 . S
C552 H576 0.950 . S
C553 C570 1.574 . S
C553 C572 1.368 . S
C553 H577 0.949 . S
H554 C558 0.949 . S
C555 C556 1.349 . S
C555 C557 1.327 . S
C555 H578 0.950 . S
C556 C555 1.349 . S
C556 C568 1.349 . S
C557 C555 1.327 . S
C557 C573 1.429 . S
C557 H579 0.950 . S
C558 H554 0.949 . S
C558 C566 1.574 . S
C558 C574 1.368 . S
H559 C567 0.950 . S
H560 C565 0.950 . S
H561 C566 0.949 . S
H562 C568 0.950 . S
H563 C569 0.950 . S
H564 C570 0.949 . S
C565 H560 0.950 . S
C565 C567 1.327 . S
C565 C571 1.429 . S
C566 C558 1.574 . S
C566 H561 0.949 . S
C566 C572 1.368 . S
C567 C551 1.349 . S
C567 H559 0.950 . S
C567 C565 1.327 . S
C568 C556 1.349 . S
C568 H562 0.950 . S
C568 C569 1.327 . S
C569 H563 0.950 . S
C569 C568 1.327 . S
C569 C573 1.429 . S
C570 C553 1.574 . S
C570 H564 0.949 . S
C570 C574 1.368 . S
C571 C552 1.429 . S
C571 C565 1.429 . S
C571 C572 1.523 . S
C572 C553 1.368 . S
C572 C566 1.368 . S
C572 C571 1.523 . S
C573 C557 1.429 . S
C573 C569 1.429 . S
C573 C574 1.523 . S
C574 C558 1.368 . S
C574 C570 1.368 . S
C574 C573 1.523 . S
H575 C550 0.950 . S
H576 C552 0.950 . S
H577 C553 0.949 . S
H578 C555 0.950 . S
H579 C557 0.950 . S
C580 C581 1.349 . S
C580 C582 1.327 . S
C580 H605 0.950 . S
C581 C580 1.349 . S
C581 C597 1.349 . S
C582 C580 1.327 . S
C582 C601 1.429 . S
C582 H606 0.950 . S
C583 C600 1.574 . S
C583 C602 1.368 . S
C583 H607 0.949 . S
H584 C588 0.949 . S
C585 C586 1.349 . S
C585 C587 1.327 . S
C585 H608 0.950 . S
C586 C585 1.349 . S
C586 C598 1.349 . S
C587 C585 1.327 . S
C587 C603 1.429 . S
C587 H609 0.950 . S
C588 H584 0.949 . S
C588 C596 1.574 . S
C588 C604 1.368 . S
H589 C597 0.950 . S
H590 C595 0.950 . S
H591 C596 0.949 . S
H592 C598 0.950 . S
H593 C599 0.950 . S
H594 C600 0.949 . S
C595 H590 0.950 . S
C595 C597 1.327 . S
C595 C601 1.429 . S
C596 C588 1.574 . S
C596 H591 0.949 . S
C596 C602 1.368 . S
C597 C581 1.349 . S
C597 H589 0.950 . S
C597 C595 1.327 . S
C598 C586 1.349 . S
C598 H592 0.950 . S
C598 C599 1.327 . S
C599 H593 0.950 . S
C599 C598 1.327 . S
C599 C603 1.429 . S
C600 C583 1.574 . S
C600 H594 0.949 . S
C600 C604 1.368 . S
C601 C582 1.429 . S
C601 C595 1.429 . S
C601 C602 1.523 . S
C602 C583 1.368 . S
C602 C596 1.368 . S
C602 C601 1.523 . S
C603 C587 1.429 . S
C603 C599 1.429 . S
C603 C604 1.523 . S
C604 C588 1.368 . S
C604 C600 1.368 . S
C604 C603 1.523 . S
H605 C580 0.950 . S
H606 C582 0.950 . S
H607 C583 0.949 . S
H608 C585 0.950 . S
H609 C587 0.950 . S
C610 C611 1.349 . S
C610 C612 1.327 . S
C610 H635 0.950 . S
C611 C610 1.349 . S
C611 C627 1.349 . S
C612 C610 1.327 . S
C612 C631 1.429 . S
C612 H636 0.950 . S
C613 C630 1.574 . S
C613 C632 1.368 . S
C613 H637 0.949 . S
H614 C618 0.949 . S
C615 C616 1.349 1_554 S
C615 C617 1.327 1_554 S
C615 H638 0.950 . S
C616 C615 1.349 1_556 S
C616 C628 1.349 . S
C617 C615 1.327 1_556 S
C617 C633 1.429 . S
C617 H639 0.950 1_556 S
C618 H614 0.949 . S
C618 C626 1.574 . S
C618 C634 1.368 . S
H619 C627 0.950 . S
H620 C625 0.950 . S
H621 C626 0.949 . S
H622 C628 0.950 . S
H623 C629 0.950 . S
H624 C630 0.949 . S
C625 H620 0.950 . S
C625 C627 1.327 . S
C625 C631 1.429 . S
C626 C618 1.574 . S
C626 H621 0.949 . S
C626 C632 1.368 . S
C627 C611 1.349 . S
C627 H619 0.950 . S
C627 C625 1.327 . S
C628 C616 1.349 . S
C628 H622 0.950 . S
C628 C629 1.327 . S
C629 H623 0.950 . S
C629 C628 1.327 . S
C629 C633 1.429 . S
C630 C613 1.574 . S
C630 H624 0.949 . S
C630 C634 1.368 . S
C631 C612 1.429 . S
C631 C625 1.429 . S
C631 C632 1.523 . S
C632 C613 1.368 . S
C632 C626 1.368 . S
C632 C631 1.523 . S
C633 C617 1.429 . S
C633 C629 1.429 . S
C633 C634 1.523 . S
C634 C618 1.368 . S
C634 C630 1.368 . S
C634 C633 1.523 . S
H635 C610 0.950 . S
H636 C612 0.950 . S
H637 C613 0.949 . S
H638 C615 0.950 . S
H639 C617 0.950 1_554 S
C640 C641 1.349 . S
C640 C642 1.327 . S
C640 H665 0.950 . S
C641 C640 1.349 . S
C641 C657 1.349 . S
C642 C640 1.327 . S
C642 C661 1.429 . S
C642 H666 0.950 . S
C643 C660 1.574 . S
C643 C662 1.368 . S
C643 H667 0.949 . S
H644 C648 0.949 . S
C645 C646 1.349 . S
C645 C647 1.327 . S
C645 H668 0.950 . S
C646 C645 1.349 . S
C646 C658 1.349 . S
C647 C645 1.327 . S
C647 C663 1.429 . S
C647 H669 0.950 . S
C648 H644 0.949 . S
C648 C656 1.574 . S
C648 C664 1.368 . S
H649 C657 0.950 . S
H650 C655 0.950 . S
H651 C656 0.949 . S
H652 C658 0.930 1_455 S
H653 C659 0.950 . S
H654 C660 0.949 . S
C655 H650 0.950 . S
C655 C657 1.327 . S
C655 C661 1.429 . S
C656 C648 1.574 . S
C656 H651 0.949 . S
C656 C662 1.368 . S
C657 C641 1.349 . S
C657 H649 0.950 . S
C657 C655 1.327 . S
C658 C646 1.349 . S
C658 H652 0.930 1_655 S
C658 C659 1.327 . S
C659 H653 0.950 . S
C659 C658 1.327 . S
C659 C663 1.429 . S
C660 C643 1.574 . S
C660 H654 0.949 . S
C660 C664 1.368 . S
C661 C642 1.429 . S
C661 C655 1.429 . S
C661 C662 1.523 . S
C662 C643 1.368 . S
C662 C656 1.368 . S
C662 C661 1.523 . S
C663 C647 1.429 . S
C663 C659 1.429 . S
C663 C664 1.523 . S
C664 C648 1.368 . S
C664 C660 1.368 . S
C664 C663 1.523 . S
H665 C640 0.950 . S
H666 C642 0.950 . S
H667 C643 0.949 . S
H668 C645 0.950 . S
H669 C647 0.950 . S
C670 C671 1.349 . S
C670 C672 1.327 . S
C670 H695 0.950 . S
C671 C670 1.349 . S
C671 C687 1.349 . S
C672 C670 1.327 . S
C672 C691 1.429 . S
C672 H696 0.950 . S
C673 C690 1.574 . S
C673 C692 1.368 . S
C673 H697 0.949 . S
H674 C678 0.949 . S
C675 C676 1.349 . S
C675 C677 1.327 . S
C675 H698 0.950 . S
C676 C675 1.349 . S
C676 C688 1.349 . S
C677 C675 1.327 . S
C677 C693 1.429 . S
C677 H699 0.950 . S
C678 H674 0.949 . S
C678 C686 1.574 . S
C678 C694 1.368 . S
H679 C687 0.950 . S
H680 C685 0.950 . S
H681 C686 0.949 . S
H682 C688 0.950 . S
H683 C689 0.950 . S
H684 C690 0.949 . S
C685 H680 0.950 . S
C685 C687 1.327 . S
C685 C691 1.429 . S
C686 C678 1.574 . S
C686 H681 0.949 . S
C686 C692 1.368 . S
C687 C671 1.349 . S
C687 H679 0.950 . S
C687 C685 1.327 . S
C688 C676 1.349 . S
C688 H682 0.950 . S
C688 C689 1.327 . S
C689 H683 0.950 . S
C689 C688 1.327 . S
C689 C693 1.429 . S
C690 C673 1.574 . S
C690 H684 0.949 . S
C690 C694 1.368 . S
C691 C672 1.429 . S
C691 C685 1.429 . S
C691 C692 1.523 . S
C692 C673 1.368 . S
C692 C686 1.368 . S
C692 C691 1.523 . S
C693 C677 1.429 . S
C693 C689 1.429 . S
C693 C694 1.523 . S
C694 C678 1.368 . S
C694 C690 1.368 . S
C694 C693 1.523 . S
H695 C670 0.950 . S
H696 C672 0.950 . S
H697 C673 0.949 . S
H698 C675 0.950 . S
H699 C677 0.950 . S
C700 C701 1.349 1_545 S
C700 C702 1.327 . S
C700 H725 0.950 . S
C701 C700 1.349 1_565 S
C701 C717 1.349 . S
C702 C700 1.327 . S
C702 C721 1.429 1_545 S
C702 H726 0.950 . S
C703 C720 1.574 . S
C703 C722 1.368 . S
C703 H727 0.949 . S
H704 C708 0.949 . S
C705 C706 1.349 1_565 S
C705 C707 1.327 . S
C705 H728 0.950 . S
C706 C705 1.349 1_545 S
C706 C718 1.349 . S
C707 C705 1.327 . S
C707 C723 1.429 1_565 S
C707 H729 0.950 . S
C708 H704 0.949 . S
C708 C716 1.574 . S
C708 C724 1.368 . S
H709 C717 0.950 . S
H710 C715 0.950 . S
H711 C716 0.949 . S
H712 C718 0.950 1_455 S
H713 C719 0.942 1_455 S
H714 C720 0.949 . S
C715 H710 0.950 . S
C715 C717 1.327 . S
C715 C721 1.429 . S
C716 C708 1.574 . S
C716 H711 0.949 . S
C716 C722 1.368 1_545 S
C717 C701 1.349 . S
C717 H709 0.950 . S
C717 C715 1.327 . S
C718 C706 1.349 . S
C718 H712 0.950 1_655 S
C718 C719 1.327 . S
C719 H713 0.942 1_655 S
C719 C718 1.327 . S
C719 C723 1.429 . S
C720 C703 1.574 . S
C720 H714 0.949 . S
C720 C724 1.368 1_565 S
C721 C702 1.429 1_565 S
C721 C715 1.429 . S
C721 C722 1.523 . S
C722 C703 1.368 . S
C722 C716 1.368 1_565 S
C722 C721 1.523 . S
C723 C707 1.429 1_545 S
C723 C719 1.429 . S
C723 C724 1.523 . S
C724 C708 1.368 . S
C724 C720 1.368 1_545 S
C724 C723 1.523 . S
H725 C700 0.950 . S
H726 C702 0.950 . S
H727 C703 0.949 . S
H728 C705 0.950 . S
H729 C707 0.950 . S
C730 C731 1.349 . S
C730 C732 1.327 . S
C730 H755 0.950 . S
C731 C730 1.349 . S
C731 C747 1.349 . S
C732 C730 1.327 . S
C732 C751 1.429 . S
C732 H756 0.950 . S
C733 C750 1.574 . S
C733 C752 1.368 . S
C733 H757 0.949 . S
H734 C738 0.949 . S
C735 C736 1.349 . S
C735 C737 1.327 . S
C735 H758 0.950 . S
C736 C735 1.349 . S
C736 C748 1.349 . S
C737 C735 1.327 . S
C737 C753 1.429 . S
C737 H759 0.950 . S
C738 H734 0.949 . S
C738 C746 1.574 . S
C738 C754 1.368 . S
H739 C747 0.950 . S
H740 C745 0.950 . S
H741 C746 0.949 . S
H742 C748 0.950 1_565 S
H743 C749 0.950 . S
H744 C750 0.949 . S
C745 H740 0.950 . S
C745 C747 1.327 . S
C745 C751 1.429 . S
C746 C738 1.574 . S
C746 H741 0.949 . S
C746 C752 1.368 . S
C747 C731 1.349 . S
C747 H739 0.950 . S
C747 C745 1.327 . S
C748 C736 1.349 . S
C748 H742 0.950 1_545 S
C748 C749 1.327 . S
C749 H743 0.950 . S
C749 C748 1.327 . S
C749 C753 1.429 . S
C750 C733 1.574 . S
C750 H744 0.949 . S
C750 C754 1.368 . S
C751 C732 1.429 . S
C751 C745 1.429 . S
C751 C752 1.523 . S
C752 C733 1.368 . S
C752 C746 1.368 . S
C752 C751 1.523 . S
C753 C737 1.429 . S
C753 C749 1.429 . S
C753 C754 1.523 . S
C754 C738 1.368 . S
C754 C750 1.368 . S
C754 C753 1.523 . S
H755 C730 0.950 . S
H756 C732 0.950 . S
H757 C733 0.949 . S
H758 C735 0.950 . S
H759 C737 0.950 . S
C760 C761 1.349 . S
C760 C762 1.327 . S
C760 H785 0.950 . S
C761 C760 1.349 . S
C761 C777 1.349 . S
C762 C760 1.327 . S
C762 C781 1.429 . S
C762 H786 0.950 . S
C763 C780 1.574 . S
C763 C782 1.368 . S
C763 H787 0.949 . S
H764 C768 0.949 . S
C765 C766 1.349 . S
C765 C767 1.327 . S
C765 H788 0.950 . S
C766 C765 1.349 . S
C766 C778 1.349 . S
C767 C765 1.327 . S
C767 C783 1.429 . S
C767 H789 0.950 . S
C768 H764 0.949 . S
C768 C776 1.574 . S
C768 C784 1.368 . S
H769 C777 0.950 . S
H770 C775 0.950 . S
H771 C776 0.949 . S
H772 C778 0.950 . S
H773 C779 0.950 . S
H774 C780 0.949 . S
C775 H770 0.950 . S
C775 C777 1.327 . S
C775 C781 1.429 . S
C776 C768 1.574 . S
C776 H771 0.949 . S
C776 C782 1.368 . S
C777 C761 1.349 . S
C777 H769 0.950 . S
C777 C775 1.327 . S
C778 C766 1.349 . S
C778 H772 0.950 . S
C778 C779 1.327 . S
C779 H773 0.950 . S
C779 C778 1.327 . S
C779 C783 1.429 . S
C780 C763 1.574 . S
C780 H774 0.949 . S
C780 C784 1.368 . S
C781 C762 1.429 . S
C781 C775 1.429 . S
C781 C782 1.523 . S
C782 C763 1.368 . S
C782 C776 1.368 . S
C782 C781 1.523 . S
C783 C767 1.429 . S
C783 C779 1.429 . S
C783 C784 1.523 . S
C784 C768 1.368 . S
C784 C780 1.368 . S
C784 C783 1.523 . S
H785 C760 0.950 . S
H786 C762 0.950 . S
H787 C763 0.949 . S
H788 C765 0.950 . S
H789 C767 0.950 . S
C790 C791 1.349 . S
C790 C792 1.327 . S
C790 H815 0.950 . S
C791 C790 1.349 . S
C791 C807 1.349 . S
C792 C790 1.327 . S
C792 C811 1.429 . S
C792 H816 0.950 . S
C793 C810 1.574 . S
C793 C812 1.368 . S
C793 H817 0.949 . S
H794 C798 0.949 . S
C795 C796 1.349 . S
C795 C797 1.327 . S
C795 H818 0.950 . S
C796 C795 1.349 . S
C796 C808 1.349 . S
C797 C795 1.327 . S
C797 C813 1.429 . S
C797 H819 0.950 . S
C798 H794 0.949 . S
C798 C806 1.574 . S
C798 C814 1.368 . S
H799 C807 0.950 . S
H800 C805 0.950 . S
H801 C806 0.949 . S
H802 C808 0.950 . S
H803 C809 0.950 . S
H804 C810 0.949 . S
C805 H800 0.950 . S
C805 C807 1.327 . S
C805 C811 1.429 . S
C806 C798 1.574 . S
C806 H801 0.949 . S
C806 C812 1.368 . S
C807 C791 1.349 . S
C807 H799 0.950 . S
C807 C805 1.327 . S
C808 C796 1.349 . S
C808 H802 0.950 . S
C808 C809 1.327 . S
C809 H803 0.950 . S
C809 C808 1.327 . S
C809 C813 1.429 . S
C810 C793 1.574 . S
C810 H804 0.949 . S
C810 C814 1.368 . S
C811 C792 1.429 . S
C811 C805 1.429 . S
C811 C812 1.523 . S
C812 C793 1.368 . S
C812 C806 1.368 . S
C812 C811 1.523 . S
C813 C797 1.429 . S
C813 C809 1.429 . S
C813 C814 1.523 . S
C814 C798 1.368 . S
C814 C810 1.368 . S
C814 C813 1.523 . S
H815 C790 0.950 . S
H816 C792 0.950 . S
H817 C793 0.949 . S
H818 C795 0.950 . S
H819 C797 0.950 . S
C820 C821 1.349 . S
C820 C822 1.325 1_556 S
C820 H845 0.950 1_566 S
C821 C820 1.349 . S
C821 C837 1.349 . S
C822 C820 1.325 1_554 S
C822 C841 1.425 1_554 S
C822 H846 0.955 1_565 S
C823 C840 1.574 . S
C823 C842 1.368 . S
C823 H847 0.949 . S
H824 C828 0.949 . S
C825 C826 1.349 . S
C825 C827 1.320 1_554 S
C825 H848 0.950 1_554 S
C826 C825 1.349 . S
C826 C838 1.349 1_565 S
C827 C825 1.320 1_556 S
C827 C843 1.415 1_556 S
C827 H849 0.972 . S
C828 H824 0.949 . S
C828 C836 1.574 . S
C828 C844 1.368 1_545 S
H829 C837 0.950 . S
H830 C835 0.950 . S
H831 C836 0.949 . S
H832 C838 0.950 . S
H833 C839 0.950 . S
H834 C840 0.949 . S
C835 H830 0.950 . S
C835 C837 1.327 . S
C835 C841 1.429 . S
C836 C828 1.574 . S
C836 H831 0.949 . S
C836 C842 1.368 1_544 S
C837 C821 1.349 . S
C837 H829 0.950 . S
C837 C835 1.327 . S
C838 C826 1.349 1_545 S
C838 H832 0.950 . S
C838 C839 1.327 . S
C839 H833 0.950 . S
C839 C838 1.327 . S
C839 C843 1.429 1_545 S
C840 C823 1.574 . S
C840 H834 0.949 . S
C840 C844 1.368 1_556 S
C841 C822 1.425 1_556 S
C841 C835 1.429 . S
C841 C842 1.523 . S
C842 C823 1.368 . S
C842 C836 1.368 1_566 S
C842 C841 1.523 . S
C843 C827 1.415 1_554 S
C843 C839 1.429 1_565 S
C843 C844 1.523 . S
C844 C828 1.368 1_565 S
C844 C840 1.368 1_554 S
C844 C843 1.523 . S
H845 C820 0.950 1_544 S
H846 C822 0.955 1_545 S
H847 C823 0.949 . S
H848 C825 0.950 1_556 S
H849 C827 0.972 . S
C850 C851 1.349 . S
C850 C852 1.327 . S
C850 H875 0.950 . S
C851 C850 1.349 . S
C851 C867 1.349 . S
C852 C850 1.327 . S
C852 C871 1.429 . S
C852 H876 0.950 . S
C853 C870 1.574 . S
C853 C872 1.368 . S
C853 H877 0.949 . S
H854 C858 0.949 . S
C855 C856 1.349 . S
C855 C857 1.327 . S
C855 H878 0.950 . S
C856 C855 1.349 . S
C856 C868 1.349 . S
C857 C855 1.327 . S
C857 C873 1.429 . S
C857 H879 0.950 . S
C858 H854 0.949 . S
C858 C866 1.574 . S
C858 C874 1.368 . S
H859 C867 0.950 . S
H860 C865 0.950 . S
H861 C866 0.949 . S
H862 C868 0.950 . S
H863 C869 0.950 . S
H864 C870 0.949 . S
C865 H860 0.950 . S
C865 C867 1.327 . S
C865 C871 1.429 . S
C866 C858 1.574 . S
C866 H861 0.949 . S
C866 C872 1.368 . S
C867 C851 1.349 . S
C867 H859 0.950 . S
C867 C865 1.327 . S
C868 C856 1.349 . S
C868 H862 0.950 . S
C868 C869 1.327 . S
C869 H863 0.950 . S
C869 C868 1.327 . S
C869 C873 1.429 . S
C870 C853 1.574 . S
C870 H864 0.949 . S
C870 C874 1.368 . S
C871 C852 1.429 . S
C871 C865 1.429 . S
C871 C872 1.523 . S
C872 C853 1.368 . S
C872 C866 1.368 . S
C872 C871 1.523 . S
C873 C857 1.429 . S
C873 C869 1.429 . S
C873 C874 1.523 . S
C874 C858 1.368 . S
C874 C870 1.368 . S
C874 C873 1.523 . S
H875 C850 0.950 . S
H876 C852 0.950 . S
H877 C853 0.949 . S
H878 C855 0.950 . S
H879 C857 0.950 . S
C880 C881 1.349 . S
C880 C882 1.327 . S
C880 H905 0.950 . S
C881 C880 1.349 . S
C881 C897 1.349 . S
C882 C880 1.327 . S
C882 C901 1.429 . S
C882 H906 0.950 . S
C883 C900 1.574 . S
C883 C902 1.368 . S
C883 H907 0.949 . S
H884 C888 0.949 . S
C885 C886 1.349 . S
C885 C887 1.327 . S
C885 H908 0.950 1_554 S
C886 C885 1.349 . S
C886 C898 1.349 . S
C887 C885 1.327 . S
C887 C903 1.429 . S
C887 H909 0.950 1_554 S
C888 H884 0.949 . S
C888 C896 1.574 . S
C888 C904 1.368 . S
H889 C897 0.950 . S
H890 C895 0.950 . S
H891 C896 0.949 . S
H892 C898 0.950 . S
H893 C899 0.950 . S
H894 C900 0.949 . S
C895 H890 0.950 . S
C895 C897 1.327 . S
C895 C901 1.429 . S
C896 C888 1.574 . S
C896 H891 0.949 . S
C896 C902 1.368 . S
C897 C881 1.349 . S
C897 H889 0.950 . S
C897 C895 1.327 . S
C898 C886 1.349 . S
C898 H892 0.950 . S
C898 C899 1.327 . S
C899 H893 0.950 . S
C899 C898 1.327 . S
C899 C903 1.429 . S
C900 C883 1.574 . S
C900 H894 0.949 . S
C900 C904 1.368 . S
C901 C882 1.429 . S
C901 C895 1.429 . S
C901 C902 1.523 . S
C902 C883 1.368 . S
C902 C896 1.368 . S
C902 C901 1.523 . S
C903 C887 1.429 . S
C903 C899 1.429 . S
C903 C904 1.523 . S
C904 C888 1.368 . S
C904 C900 1.368 . S
C904 C903 1.523 . S
H905 C880 0.950 . S
H906 C882 0.950 . S
H907 C883 0.949 . S
H908 C885 0.950 1_556 S
H909 C887 0.950 1_556 S
C910 C911 1.349 . S
C910 C912 1.327 . S
C910 H935 0.950 . S
C911 C910 1.349 . S
C911 C927 1.349 . S
C912 C910 1.327 . S
C912 C931 1.429 . S
C912 H936 0.950 . S
C913 C930 1.574 . S
C913 C932 1.368 . S
C913 H937 0.949 . S
H914 C918 0.949 . S
C915 C916 1.349 . S
C915 C917 1.327 . S
C915 H938 0.950 . S
C916 C915 1.349 . S
C916 C928 1.349 . S
C917 C915 1.327 . S
C917 C933 1.429 . S
C917 H939 0.950 . S
C918 H914 0.949 . S
C918 C926 1.574 . S
C918 C934 1.368 . S
H919 C927 0.950 . S
H920 C925 0.950 . S
H921 C926 0.949 . S
H922 C928 0.950 . S
H923 C929 0.950 . S
H924 C930 0.949 . S
C925 H920 0.950 . S
C925 C927 1.327 . S
C925 C931 1.429 . S
C926 C918 1.574 . S
C926 H921 0.949 . S
C926 C932 1.368 . S
C927 C911 1.349 . S
C927 H919 0.950 . S
C927 C925 1.327 . S
C928 C916 1.349 . S
C928 H922 0.950 . S
C928 C929 1.327 . S
C929 H923 0.950 . S
C929 C928 1.327 . S
C929 C933 1.429 . S
C930 C913 1.574 . S
C930 H924 0.949 . S
C930 C934 1.368 . S
C931 C912 1.429 . S
C931 C925 1.429 . S
C931 C932 1.523 . S
C932 C913 1.368 . S
C932 C926 1.368 . S
C932 C931 1.523 . S
C933 C917 1.429 . S
C933 C929 1.429 . S
C933 C934 1.523 . S
C934 C918 1.368 . S
C934 C930 1.368 . S
C934 C933 1.523 . S
H935 C910 0.950 . S
H936 C912 0.950 . S
H937 C913 0.949 . S
H938 C915 0.950 . S
H939 C917 0.950 . S
C940 C941 1.349 . S
C940 C942 1.327 . S
C940 H965 0.950 . S
C941 C940 1.349 . S
C941 C957 1.349 . S
C942 C940 1.327 . S
C942 C961 1.429 . S
C942 H966 0.950 1_655 S
C943 C960 1.574 . S
C943 C962 1.368 1_554 S
C943 H967 0.949 . S
H944 C948 0.949 . S
C945 C946 1.324 1_654 S
C945 C947 1.336 . S
C945 H968 0.968 . S
C946 C945 1.324 1_456 S
C946 C958 1.349 . S
C947 C945 1.336 . S
C947 C963 1.429 1_654 S
C947 H969 0.950 . S
C948 H944 0.949 . S
C948 C956 1.574 . S
C948 C964 1.355 1_455 S
H949 C957 0.950 1_554 S
H950 C955 0.950 1_554 S
H951 C956 0.949 . S
H952 C958 0.950 . S
H953 C959 0.950 . S
H954 C960 0.949 . S
C955 H950 0.950 1_556 S
C955 C957 1.327 . S
C955 C961 1.429 . S
C956 C948 1.574 . S
C956 H951 0.949 . S
C956 C962 1.368 1_455 S
C957 C941 1.349 . S
C957 H949 0.950 1_556 S
C957 C955 1.327 . S
C958 C946 1.349 . S
C958 H952 0.950 . S
C958 C959 1.327 . S
C959 H953 0.950 . S
C959 C958 1.327 . S
C959 C963 1.429 . S
C960 C943 1.574 . S
C960 H954 0.949 . S
C960 C964 1.386 1_554 S
C961 C942 1.429 . S
C961 C955 1.429 . S
C961 C962 1.523 . S
C962 C943 1.368 1_556 S
C962 C956 1.368 1_655 S
C962 C961 1.523 . S
C963 C947 1.429 1_456 S
C963 C959 1.429 . S
C963 C964 1.518 1_455 S
C964 C948 1.355 1_655 S
C964 C960 1.386 1_556 S
C964 C963 1.518 1_655 S
H965 C940 0.950 . S
H966 C942 0.950 1_455 S
H967 C943 0.949 . S
H968 C945 0.968 . S
H969 C947 0.950 . S
C970 C971 1.349 . S
C970 C972 1.327 . S
C970 H995 0.950 . S
C971 C970 1.349 . S
C971 C987 1.349 . S
C972 C970 1.327 . S
C972 C991 1.429 . S
C972 H996 0.950 . S
C973 C990 1.574 . S
C973 C992 1.368 . S
C973 H997 0.949 . S
H974 C978 0.949 . S
C975 C976 1.349 . S
C975 C977 1.327 . S
C975 H998 0.950 . S
C976 C975 1.349 . S
C976 C988 1.349 . S
C977 C975 1.327 . S
C977 C993 1.429 . S
C977 H999 0.950 . S
C978 H974 0.949 . S
C978 C986 1.574 . S
C978 C994 1.368 . S
H979 C987 0.950 . S
H980 C985 0.950 . S
H981 C986 0.949 . S
H982 C988 0.950 . S
H983 C989 0.950 . S
H984 C990 0.949 . S
C985 H980 0.950 . S
C985 C987 1.327 . S
C985 C991 1.429 . S
C986 C978 1.574 . S
C986 H981 0.949 . S
C986 C992 1.368 . S
C987 C971 1.349 . S
C987 H979 0.950 . S
C987 C985 1.327 . S
C988 C976 1.349 . S
C988 H982 0.950 . S
C988 C989 1.327 . S
C989 H983 0.950 . S
C989 C988 1.327 . S
C989 C993 1.429 . S
C990 C973 1.574 . S
C990 H984 0.949 . S
C990 C994 1.368 . S
C991 C972 1.429 . S
C991 C985 1.429 . S
C991 C992 1.523 . S
C992 C973 1.368 . S
C992 C986 1.368 . S
C992 C991 1.523 . S
C993 C977 1.429 . S
C993 C989 1.429 . S
C993 C994 1.523 . S
C994 C978 1.368 . S
C994 C990 1.368 . S
C994 C993 1.523 . S
H995 C970 0.950 . S
H996 C972 0.950 . S
H997 C973 0.949 . S
H998 C975 0.950 . S
H999 C977 0.950 . S
C1000 C1001 1.349 . S
C1000 C1002 1.327 . S
C1000 H1025 0.950 . S
C1001 C1000 1.349 . S
C1001 C1017 1.349 . S
C1002 C1000 1.327 . S
C1002 C1021 1.429 . S
C1002 H1026 0.950 . S
C1003 C1020 1.574 . S
C1003 C1022 1.368 . S
C1003 H1027 0.949 . S
H1004 C1008 0.949 . S
C1005 C1006 1.349 . S
C1005 C1007 1.327 . S
C1005 H1028 0.950 . S
C1006 C1005 1.349 . S
C1006 C1018 1.349 . S
C1007 C1005 1.327 . S
C1007 C1023 1.429 . S
C1007 H1029 0.950 . S
C1008 H1004 0.949 . S
C1008 C1016 1.574 . S
C1008 C1024 1.368 . S
H1009 C1017 0.950 . S
H1010 C1015 0.950 . S
H1011 C1016 0.949 . S
H1012 C1018 0.950 1_655 S
H1013 C1019 0.950 . S
H1014 C1020 0.949 . S
C1015 H1010 0.950 . S
C1015 C1017 1.327 . S
C1015 C1021 1.429 . S
C1016 C1008 1.574 . S
C1016 H1011 0.949 . S
C1016 C1022 1.368 . S
C1017 C1001 1.349 . S
C1017 H1009 0.950 . S
C1017 C1015 1.327 . S
C1018 C1006 1.349 . S
C1018 H1012 0.950 1_455 S
C1018 C1019 1.327 . S
C1019 H1013 0.950 . S
C1019 C1018 1.327 . S
C1019 C1023 1.429 . S
C1020 C1003 1.574 . S
C1020 H1014 0.949 . S
C1020 C1024 1.368 . S
C1021 C1002 1.429 . S
C1021 C1015 1.429 . S
C1021 C1022 1.523 . S
C1022 C1003 1.368 . S
C1022 C1016 1.368 . S
C1022 C1021 1.523 . S
C1023 C1007 1.429 . S
C1023 C1019 1.429 . S
C1023 C1024 1.523 . S
C1024 C1008 1.368 . S
C1024 C1020 1.368 . S
C1024 C1023 1.523 . S
H1025 C1000 0.950 . S
H1026 C1002 0.950 . S
H1027 C1003 0.949 . S
H1028 C1005 0.950 . S
H1029 C1007 0.950 . S
C1030 C1031 1.349 . S
C1030 C1032 1.327 . S
C1030 H1055 0.950 . S
C1031 C1030 1.349 . S
C1031 C1047 1.349 . S
C1032 C1030 1.327 . S
C1032 C1051 1.429 . S
C1032 H1056 0.950 . S
C1033 C1050 1.574 . S
C1033 C1052 1.368 . S
C1033 H1057 0.949 . S
H1034 C1038 0.949 . S
C1035 C1036 1.349 . S
C1035 C1037 1.327 . S
C1035 H1058 0.950 . S
C1036 C1035 1.349 . S
C1036 C1048 1.349 . S
C1037 C1035 1.327 . S
C1037 C1053 1.429 . S
C1037 H1059 0.950 . S
C1038 H1034 0.949 . S
C1038 C1046 1.574 . S
C1038 C1054 1.368 . S
H1039 C1047 0.950 . S
H1040 C1045 0.950 . S
H1041 C1046 0.949 . S
H1042 C1048 0.950 . S
H1043 C1049 0.950 . S
H1044 C1050 0.949 . S
C1045 H1040 0.950 . S
C1045 C1047 1.327 . S
C1045 C1051 1.429 . S
C1046 C1038 1.574 . S
C1046 H1041 0.949 . S
C1046 C1052 1.368 . S
C1047 C1031 1.349 . S
C1047 H1039 0.950 . S
C1047 C1045 1.327 . S
C1048 C1036 1.349 . S
C1048 H1042 0.950 . S
C1048 C1049 1.327 . S
C1049 H1043 0.950 . S
C1049 C1048 1.327 . S
C1049 C1053 1.429 . S
C1050 C1033 1.574 . S
C1050 H1044 0.949 . S
C1050 C1054 1.368 . S
C1051 C1032 1.429 . S
C1051 C1045 1.429 . S
C1051 C1052 1.523 . S
C1052 C1033 1.368 . S
C1052 C1046 1.368 . S
C1052 C1051 1.523 . S
C1053 C1037 1.429 . S
C1053 C1049 1.429 . S
C1053 C1054 1.523 . S
C1054 C1038 1.368 . S
C1054 C1050 1.368 . S
C1054 C1053 1.523 . S
H1055 C1030 0.950 . S
H1056 C1032 0.950 . S
H1057 C1033 0.949 . S
H1058 C1035 0.950 . S
H1059 C1037 0.950 . S
C341 C29 1.564 . S
C346 C259 1.486 . S
C371 C49 1.454 . S
C376 C293 1.375 1_565 S
C406 C305 1.425 . S
C401 C93 1.508 . S
C431 C119 1.438 . S
C436 C339 1.359 . S
C466 C296 1.411 . S
C461 C17 1.490 . S
C496 C276 1.437 1_565 S
C491 C61 1.518 . S
C526 C323 1.359 . S
C521 C81 1.442 . S
C556 C314 1.441 . S
C551 C125 1.520 . S
C581 C23 1.483 . S
C586 C322 1.399 . S
C616 C284 1.373 . S
C611 C87 1.454 . S
C641 C113 1.525 . S
C646 C260 1.433 . S
C671 C55 1.487 . S
C676 C317 1.407 . S
C706 C275 1.536 . S
C701 C157 1.668 . S
C731 C189 1.539 . S
C736 C297 1.549 . S
C761 C221 1.695 . S
C766 C302 1.556 . S
C791 C253 1.567 . S
C796 C335 1.586 . S
C821 C145 1.731 . S
C826 C280 1.603 . S
C856 C272 1.543 . S
C851 C183 1.543 . S
C886 C326 1.578 . S
C881 C209 1.714 . S
C916 C318 1.524 . S
C911 C247 1.526 . S
C941 C151 1.667 . S
C946 C338 1.540 . S
C976 C281 1.555 . S
C971 C215 1.693 . S
C1006 C263 1.568 . S
C1001 C241 1.583 . S
C1031 C177 1.597 . S
C1036 C301 1.592 . S
