# Generated by pormake.
# Topology pth, (4,4)-cn, num edge types: 1
# Building blocks:
#     Node 0, Type 0, BuildingBlock: TATPOV_clean_sbu_0, # of connection points: 4
#     Node 1, Type 0, BuildingBlock: TATPOV_clean_sbu_0, # of connection points: 4
#     Node 2, Type 0, BuildingBlock: TATPOV_clean_sbu_0, # of connection points: 4
#     Node 3, Type 1, BuildingBlock: MUDLON_clean_linker_0, # of connection points: 4
#     Node 4, Type 1, BuildingBlock: MUDLON_clean_linker_0, # of connection points: 4
#     Node 5, Type 1, BuildingBlock: MUDLON_clean_linker_0, # of connection points: 4
#     Edge 6, Type (0, 1), BuildingBlock: FUNLAD_clean_linker_1, # of connection points: 2
#     Edge 7, Type (0, 1), BuildingBlock: FUNLAD_clean_linker_1, # of connection points: 2
#     Edge 8, Type (0, 1), BuildingBlock: FUNLAD_clean_linker_1, # of connection points: 2
#     Edge 9, Type (0, 1), BuildingBlock: FUNLAD_clean_linker_1, # of connection points: 2
#     Edge 10, Type (0, 1), BuildingBlock: FUNLAD_clean_linker_1, # of connection points: 2
#     Edge 11, Type (0, 1), BuildingBlock: FUNLAD_clean_linker_1, # of connection points: 2
#     Edge 12, Type (0, 1), BuildingBlock: FUNLAD_clean_linker_1, # of connection points: 2
#     Edge 13, Type (0, 1), BuildingBlock: FUNLAD_clean_linker_1, # of connection points: 2
#     Edge 14, Type (0, 1), BuildingBlock: FUNLAD_clean_linker_1, # of connection points: 2
#     Edge 15, Type (0, 1), BuildingBlock: FUNLAD_clean_linker_1, # of connection points: 2
#     Edge 16, Type (0, 1), BuildingBlock: FUNLAD_clean_linker_1, # of connection points: 2
#     Edge 17, Type (0, 1), BuildingBlock: FUNLAD_clean_linker_1, # of connection points: 2
# Relax obj value: 0.054
# Max RMSD: 0.166
# Mean RMSD: 0.112
data_MOF--net-pth--node1-TATPOV_clean_sbu_0--node2-MUDLON_clean_linker_0--edge1-FUNLAD_clean_linker_1
_symmetry_space_group_name_H-M    P1
_symmetry_Int_Tables_number       1
_symmetry_cell_setting            triclinic
loop_
_symmetry_equiv_pos_as_xyz
'x, y, z'
_cell_length_a     34.86553
_cell_length_b     34.620837
_cell_length_c     68.522201
_cell_angle_alpha  92.567825
_cell_angle_beta   92.224487
_cell_angle_gamma 120.85825
loop_
_atom_site_label
_atom_site_type_symbol
_atom_site_fract_x
_atom_site_fract_y
_atom_site_fract_z
_atom_type_partial_charge
Zn0 Zn 0.11324 0.01282 0.02136 0.0
Zn1 Zn 0.07557 0.04658 0.045 0.0
O2 O 0.09022 0.00874 0.06273 0.0
O3 O 0.12079 0.98048 0.0437 0.0
O4 O 0.05288 0.07592 0.06354 0.0
O5 O 0.16135 0.07538 0.01563 0.0
O6 O 0.12743 0.10178 0.03345 0.0
C7 C 0.10725 0.9841 0.06016 0.0
C8 C 0.02037 0.98328 0.00967 0.0
O9 O 0.02252 0.0064 0.02512 0.0
O10 O 0.05432 0.98189 0.00476 0.0
C11 C 0.03723 0.09945 0.0573 0.0
O12 O 0.03421 0.10332 0.03839 0.0
C13 C 0.15838 0.10833 0.02237 0.0
Zn14 Zn 0.11123 0.09798 0.34934 0.0
Zn15 Zn 0.051 0.07482 0.37698 0.0
O16 O 0.11078 0.0967 0.39302 0.0
O17 O 0.16078 0.12042 0.37085 0.0
O18 O 0.00598 0.06104 0.39716 0.0
O19 O 0.0927 0.13986 0.33865 0.0
O20 O 0.04475 0.12118 0.3615 0.0
C21 C 0.15125 0.11423 0.38851 0.0
C22 C 0.04242 0.00261 0.34698 0.0
O23 O 0.02765 0.01408 0.36145 0.0
O24 O 0.07739 0.03174 0.33939 0.0
C25 C 0.99493 0.02981 0.40869 0.0
O26 O 0.01393 0.00546 0.40796 0.0
C27 C 0.06261 0.14347 0.34682 0.0
Zn28 Zn 0.08783 0.95991 0.73406 0.0
Zn29 Zn 0.03708 0.97572 0.70876 0.0
O30 O 0.07957 0.967 0.69133 0.0
O31 O 0.12231 0.95574 0.71201 0.0
O32 O 0.99501 0.98027 0.68916 0.0
O33 O 0.03354 0.90467 0.74252 0.0
O34 O 0.99262 0.92221 0.72389 0.0
C35 C 0.11173 0.96011 0.69474 0.0
C36 C 0.09621 0.04773 0.74091 0.0
O37 O 0.0695 0.03587 0.72564 0.0
O38 O 0.10763 0.02121 0.7475 0.0
C39 C 0.99547 0.01596 0.68512 0.0
O40 O 0.02596 0.05508 0.69389 0.0
C41 C 0.99562 0.89738 0.7363 0.0
H42 H 0.89571 0.67466 0.21565 0.0
N43 N 0.94991 0.64766 0.20342 0.0
H44 H 0.90574 0.72079 0.24541 0.0
H45 H 0.01089 0.66701 0.23423 0.0
H46 H 0.0215 0.71344 0.26432 0.0
H47 H 0.039 0.71375 0.20622 0.0
H48 H 0.07542 0.77527 0.18479 0.0
H49 H 0.91623 0.65589 0.16949 0.0
H50 H 0.9526 0.71703 0.14781 0.0
H51 H 0.8814 0.56675 0.20889 0.0
H52 H 0.02064 0.63545 0.19665 0.0
H53 H 0.87904 0.4951 0.2077 0.0
H54 H 0.01796 0.56378 0.19406 0.0
H55 H 0.88946 0.30622 0.22741 0.0
H56 H 0.91599 0.28019 0.25439 0.0
H57 H 0.04742 0.34389 0.23199 0.0
H58 H 0.02047 0.36933 0.2051 0.0
H59 H 0.00439 0.38613 0.17384 0.0
H60 H 0.0122 0.34808 0.14457 0.0
H61 H 0.87939 0.2339 0.14954 0.0
H62 H 0.8724 0.27171 0.17918 0.0
H63 H 0.87205 0.36761 0.18568 0.0
H64 H 0.87733 0.44066 0.18618 0.0
H65 H 0.01417 0.50501 0.21087 0.0
N66 N 0.93425 0.34987 0.19739 0.0
H67 H 0.0094 0.4324 0.20897 0.0
C68 C 0.95243 0.66754 0.22271 0.0
C69 C 0.92236 0.6819 0.22653 0.0
C70 C 0.92812 0.70812 0.24369 0.0
C71 C 0.96433 0.72049 0.25747 0.0
C72 C 0.99319 0.7042 0.25404 0.0
C73 C 0.98719 0.67769 0.23688 0.0
C74 C 0.97456 0.68014 0.18948 0.0
C75 C 0.02002 0.7137 0.19336 0.0
C76 C 0.0409 0.74891 0.18109 0.0
C77 C 0.0172 0.75083 0.16452 0.0
C78 C 0.97232 0.71613 0.16017 0.0
C79 C 0.95132 0.68119 0.17258 0.0
C80 C 0.95075 0.60639 0.20261 0.0
C81 C 0.91133 0.56621 0.20572 0.0
C82 C 0.91001 0.5252 0.20483 0.0
C83 C 0.94813 0.52323 0.20046 0.0
C84 C 0.98799 0.5638 0.19761 0.0
C85 C 0.98946 0.60503 0.19888 0.0
C86 C 0.95268 0.33961 0.21422 0.0
C87 C 0.92419 0.31522 0.2286 0.0
C88 C 0.93964 0.30061 0.2441 0.0
C89 C 0.98423 0.31043 0.2455 0.0
C90 C 0.01301 0.33598 0.23136 0.0
C91 C 0.99754 0.35053 0.21591 0.0
C92 C 0.93801 0.3312 0.17886 0.0
C93 C 0.97705 0.3529 0.16866 0.0
C94 C 0.98151 0.33105 0.15198 0.0
C95 C 0.94669 0.28753 0.1451 0.0
C96 C 0.90679 0.26724 0.15466 0.0
C97 C 0.90273 0.2887 0.17151 0.0
C98 C 0.9398 0.39413 0.19756 0.0
C99 C 0.90322 0.39762 0.19107 0.0
C100 C 0.90626 0.43946 0.19158 0.0
C101 C 0.94597 0.47898 0.19892 0.0
C102 C 0.98311 0.47555 0.205 0.0
C103 C 0.98025 0.43367 0.20413 0.0
H104 H 0.73461 0.08065 0.55673 0.0
N105 N 0.66611 0.9967 0.54282 0.0
H106 H 0.79012 0.09736 0.58373 0.0
H107 H 0.66448 0.94013 0.56822 0.0
H108 H 0.7186 0.95651 0.59565 0.0
H109 H 0.67765 0.93459 0.52441 0.0
H110 H 0.72601 0.94463 0.49789 0.0
H111 H 0.71031 0.07239 0.52257 0.0
H112 H 0.75972 0.0832 0.49623 0.0
H113 H 0.6497 0.04359 0.57212 0.0
H114 H 0.60676 0.98193 0.51292 0.0
H115 H 0.59185 0.06222 0.57111 0.0
H116 H 0.54941 0.00212 0.51181 0.0
H117 H 0.40847 0.11898 0.57013 0.0
H118 H 0.34953 0.08965 0.59298 0.0
H119 H 0.31045 0.95349 0.5728 0.0
H120 H 0.36982 0.98319 0.55015 0.0
H121 H 0.35761 0.00269 0.51878 0.0
H122 H 0.31491 0.00942 0.49173 0.0
H123 H 0.39838 0.1549 0.49989 0.0
H124 H 0.44067 0.1475 0.52703 0.0
H125 H 0.50732 0.12461 0.55796 0.0
H126 H 0.56874 0.10975 0.55718 0.0
H127 H 0.47975 0.9812 0.52512 0.0
N128 N 0.4237 0.0724 0.54305 0.0
H129 H 0.41949 0.99714 0.52536 0.0
C130 C 0.69567 0.00885 0.56031 0.0
C131 C 0.73099 0.05343 0.56515 0.0
C132 C 0.76262 0.06295 0.58063 0.0
C133 C 0.75985 0.02823 0.59148 0.0
C134 C 0.7231 0.98404 0.58723 0.0
C135 C 0.69158 0.97457 0.57172 0.0
C136 C 0.69054 0.00261 0.52555 0.0
C137 C 0.69512 0.96692 0.51814 0.0
C138 C 0.72336 0.97303 0.50317 0.0
C139 C 0.74796 0.01534 0.49539 0.0
C140 C 0.74162 0.05046 0.50213 0.0
C141 C 0.71343 0.04433 0.51717 0.0
C142 C 0.63468 0.01264 0.5422 0.0
C143 C 0.6291 0.03507 0.5586 0.0
C144 C 0.59554 0.04585 0.55808 0.0
C145 C 0.56608 0.0341 0.54133 0.0
C146 C 0.57128 0.01153 0.52503 0.0
C147 C 0.60468 0.00053 0.52556 0.0
C148 C 0.39379 0.05357 0.55846 0.0
C149 C 0.388 0.08285 0.57108 0.0
C150 C 0.35432 0.06592 0.58417 0.0
C151 C 0.32558 0.01905 0.58484 0.0
C152 C 0.33224 0.98971 0.57261 0.0
C153 C 0.3663 0.00673 0.55966 0.0
C154 C 0.40267 0.0748 0.52499 0.0
C155 C 0.3675 0.03602 0.51454 0.0
C156 C 0.34275 0.03994 0.49908 0.0
C157 C 0.3523 0.08252 0.49371 0.0
C158 C 0.38906 0.12132 0.50356 0.0
C159 C 0.41381 0.1173 0.51906 0.0
C160 C 0.45879 0.06217 0.54184 0.0
C161 C 0.5013 0.09337 0.55069 0.0
C162 C 0.53622 0.08463 0.55033 0.0
C163 C 0.52928 0.04416 0.54114 0.0
C164 C 0.48659 0.01299 0.5321 0.0
C165 C 0.45175 0.02193 0.53239 0.0
H166 H 0.69487 0.74154 0.88528 0.0
N167 N 0.69056 0.66027 0.87987 0.0
H168 H 0.72512 0.79295 0.91494 0.0
H169 H 0.7114 0.64302 0.91478 0.0
H170 H 0.73997 0.6937 0.94478 0.0
H171 H 0.77058 0.68232 0.86851 0.0
H172 H 0.80608 0.72134 0.83995 0.0
H173 H 0.65355 0.68884 0.85242 0.0
H174 H 0.68822 0.72701 0.82312 0.0
H175 H 0.6113 0.6543 0.8877 0.0
H176 H 0.66979 0.57897 0.86582 0.0
H177 H 0.53727 0.58538 0.88492 0.0
H178 H 0.59599 0.51068 0.86168 0.0
H179 H 0.36999 0.41078 0.89589 0.0
H180 H 0.3331 0.37277 0.9248 0.0
H181 H 0.33017 0.25247 0.90236 0.0
H182 H 0.36714 0.29098 0.8736 0.0
H183 H 0.39739 0.34358 0.83007 0.0
H184 H 0.34281 0.31856 0.80195 0.0
H185 H 0.26451 0.35966 0.8347 0.0
H186 H 0.32076 0.38662 0.86252 0.0
H187 H 0.40501 0.45832 0.86093 0.0
H188 H 0.47705 0.52953 0.8638 0.0
H189 H 0.54307 0.45774 0.88067 0.0
N190 N 0.39222 0.37432 0.86538 0.0
H191 H 0.47149 0.38686 0.87643 0.0
C192 C 0.70219 0.68886 0.89769 0.0
C193 C 0.70455 0.73073 0.89816 0.0
C194 C 0.7217 0.76006 0.91512 0.0
C195 C 0.73554 0.7474 0.93196 0.0
C196 C 0.72967 0.70418 0.93192 0.0
C197 C 0.71358 0.67538 0.91485 0.0
C198 C 0.70949 0.68229 0.86242 0.0
C199 C 0.75237 0.69166 0.85852 0.0
C200 C 0.77233 0.71359 0.84196 0.0
C201 C 0.74938 0.72622 0.82876 0.0
C202 C 0.70642 0.71711 0.83284 0.0
C203 C 0.68656 0.69531 0.84952 0.0
C204 C 0.64607 0.62127 0.87735 0.0
C205 C 0.60808 0.62291 0.88218 0.0
C206 C 0.56571 0.58352 0.88038 0.0
C207 C 0.56058 0.54212 0.87337 0.0
C208 C 0.59865 0.54144 0.86775 0.0
C209 C 0.64085 0.58048 0.8699 0.0
C210 C 0.37154 0.35358 0.88277 0.0
C211 C 0.36178 0.37642 0.89738 0.0
C212 C 0.34097 0.35468 0.91396 0.0
C213 C 0.32944 0.30973 0.91602 0.0
C214 C 0.33899 0.28717 0.90123 0.0
C215 C 0.36003 0.30897 0.88484 0.0
C216 C 0.36251 0.36575 0.84844 0.0
C217 C 0.36875 0.34773 0.83102 0.0
C218 C 0.33718 0.33298 0.81508 0.0
C219 C 0.29823 0.33535 0.81645 0.0
C220 C 0.29382 0.35678 0.83338 0.0
C221 C 0.32576 0.37195 0.8493 0.0
C222 C 0.43329 0.41726 0.86807 0.0
C223 C 0.43513 0.45806 0.86507 0.0
C224 C 0.47635 0.49881 0.86692 0.0
C225 C 0.51618 0.49947 0.87216 0.0
C226 C 0.51351 0.45858 0.87598 0.0
C227 C 0.47261 0.41802 0.87377 0.0
H228 H 0.03253 0.12321 0.08698 0.0
C229 C 0.02561 0.12445 0.07148 0.0
H230 H 0.00236 0.15194 0.05049 0.0
H231 H 0.93947 0.18416 0.13864 0.0
H232 H 0.89458 0.10276 0.13818 0.0
H233 H 0.89564 0.05468 0.11079 0.0
H234 H 0.94273 0.0879 0.08399 0.0
C235 C 0.00827 0.14946 0.06595 0.0
C236 C 0.00118 0.17799 0.0806 0.0
C237 C 0.97119 0.15805 0.09548 0.0
C238 C 0.96827 0.18582 0.11058 0.0
C239 C 0.94112 0.16491 0.12619 0.0
C240 C 0.91542 0.1181 0.12621 0.0
C241 C 0.91619 0.09104 0.11085 0.0
C242 C 0.94367 0.11057 0.09563 0.0
H243 H 0.92124 0.23773 0.11939 0.0
C244 C 0.95131 0.26183 0.12841 0.0
H245 H 0.02012 0.28605 0.1347 0.0
H246 H 0.06104 0.2273 0.05396 0.0
H247 H 0.10236 0.30867 0.05327 0.0
H248 H 0.09354 0.3566 0.07823 0.0
H249 H 0.04363 0.32341 0.10417 0.0
C250 C 0.98987 0.26309 0.12557 0.0
C251 C 0.99287 0.23351 0.10997 0.0
C252 C 0.0215 0.25334 0.09467 0.0
C253 C 0.0259 0.22562 0.08005 0.0
C254 C 0.05576 0.24655 0.06527 0.0
C255 C 0.07981 0.29331 0.06471 0.0
C256 C 0.07489 0.32029 0.07878 0.0
C257 C 0.04617 0.30077 0.09361 0.0
H258 H 0.95151 0.99269 0.43204 0.0
C259 C 0.96008 0.01983 0.4225 0.0
H260 H 0.9474 0.07062 0.41429 0.0
H261 H 0.76035 0.93165 0.45537 0.0
H262 H 0.74524 0.87948 0.42724 0.0
H263 H 0.80181 0.89705 0.4032 0.0
H264 H 0.8739 0.96668 0.4072 0.0
C265 C 0.93839 0.04261 0.42334 0.0
C266 C 0.90345 0.03227 0.43741 0.0
C267 C 0.86126 0.99155 0.43472 0.0
C268 C 0.82837 0.98172 0.44842 0.0
C269 C 0.78657 0.94078 0.44542 0.0
C270 C 0.7774 0.91058 0.42932 0.0
C271 C 0.80927 0.92045 0.41579 0.0
C272 C 0.85067 0.96046 0.41834 0.0
H273 H 0.78974 0.05207 0.47139 0.0
C274 C 0.78096 0.02421 0.48053 0.0
H275 H 0.79611 0.97458 0.4882 0.0
H276 H 0.98031 0.11381 0.44651 0.0
H277 H 0.99536 0.16602 0.47459 0.0
H278 H 0.93888 0.14838 0.49868 0.0
H279 H 0.86694 0.07865 0.49477 0.0
C280 C 0.80301 0.00183 0.47901 0.0
C281 C 0.83738 0.01292 0.46458 0.0
C282 C 0.87949 0.05376 0.46722 0.0
C283 C 0.91235 0.06362 0.4535 0.0
C284 C 0.95411 0.10462 0.45646 0.0
C285 C 0.96325 0.13487 0.47255 0.0
C286 C 0.93143 0.12496 0.4861 0.0
C287 C 0.89009 0.08487 0.4836 0.0
H288 H 0.96003 0.84055 0.75463 0.0
C289 C 0.95566 0.86248 0.74508 0.0
H290 H 0.91203 0.88446 0.73558 0.0
H291 H 0.78435 0.69033 0.77681 0.0
H292 H 0.78857 0.65464 0.7463 0.0
H293 H 0.83511 0.70046 0.72058 0.0
H294 H 0.87767 0.7824 0.7252 0.0
C295 C 0.91636 0.86096 0.74402 0.0
C296 C 0.88186 0.83354 0.7576 0.0
C297 C 0.85693 0.78591 0.75463 0.0
C298 C 0.83021 0.75959 0.76948 0.0
C299 C 0.80564 0.71198 0.76611 0.0
C300 C 0.80762 0.69107 0.74864 0.0
C301 C 0.83383 0.71687 0.73415 0.0
C302 C 0.85823 0.76378 0.73702 0.0
H303 H 0.75596 0.76921 0.80453 0.0
C304 C 0.77017 0.75105 0.8113 0.0
H305 H 0.81924 0.73267 0.8091 0.0
H306 H 0.92082 0.9243 0.76664 0.0
H307 H 0.91722 0.96051 0.79706 0.0
H308 H 0.87448 0.9152 0.8237 0.0
H309 H 0.83474 0.83375 0.82001 0.0
C310 C 0.80621 0.75306 0.80381 0.0
C311 C 0.82867 0.781 0.78732 0.0
C312 C 0.85211 0.82888 0.78993 0.0
C313 C 0.87794 0.85511 0.77483 0.0
C314 C 0.90107 0.90279 0.77772 0.0
C315 C 0.89932 0.92403 0.79511 0.0
C316 C 0.87517 0.89852 0.81008 0.0
C317 C 0.85208 0.85157 0.80767 0.0
H318 H 0.11432 0.92924 0.07118 0.0
C319 C 0.10567 0.95441 0.07527 0.0
H320 H 0.07837 0.97738 0.09652 0.0
H321 H 0.95368 0.78708 0.12762 0.0
H322 H 0.90065 0.80653 0.11471 0.0
H323 H 0.92592 0.87461 0.09665 0.0
H324 H 0.00433 0.92392 0.09163 0.0
C325 C 0.08837 0.95322 0.09257 0.0
C326 C 0.07408 0.9138 0.1046 0.0
C327 C 0.02782 0.88495 0.10717 0.0
C328 C 0.01307 0.84503 0.11712 0.0
C329 C 0.96676 0.81735 0.11983 0.0
C330 C 0.93587 0.82816 0.11254 0.0
C331 C 0.95011 0.86652 0.1024 0.0
C332 C 0.99541 0.89464 0.09968 0.0
H333 H 0.06365 0.82328 0.16101 0.0
C334 C 0.03864 0.79147 0.15323 0.0
H335 H 0.00344 0.75949 0.12599 0.0
H336 H 0.16546 0.96517 0.10505 0.0
H337 H 0.21845 0.94424 0.11677 0.0
H338 H 0.19225 0.87135 0.13107 0.0
H339 H 0.11313 0.81954 0.13417 0.0
C340 C 0.02792 0.79091 0.13413 0.0
C341 C 0.04441 0.83346 0.12416 0.0
C342 C 0.0907 0.86235 0.12163 0.0
C343 C 0.10563 0.90323 0.11237 0.0
C344 C 0.1522 0.93279 0.11114 0.0
C345 C 0.18298 0.92133 0.11793 0.0
C346 C 0.16824 0.88039 0.12606 0.0
C347 C 0.1227 0.85108 0.12789 0.0
H348 H 0.22183 0.14455 0.39929 0.0
C349 C 0.18751 0.12442 0.40336 0.0
H350 H 0.14569 0.0845 0.42475 0.0
H351 H 0.33941 0.09086 0.44058 0.0
H352 H 0.3219 0.05049 0.40859 0.0
H353 H 0.25462 0.03406 0.38819 0.0
H354 H 0.20537 0.0591 0.39939 0.0
C355 C 0.17972 0.10496 0.42043 0.0
C356 C 0.21719 0.1098 0.43362 0.0
C357 C 0.24406 0.09233 0.42729 0.0
C358 C 0.28105 0.09896 0.4396 0.0
C359 C 0.30945 0.0845 0.43229 0.0
C360 C 0.30001 0.06161 0.41387 0.0
C361 C 0.26228 0.05258 0.40235 0.0
C362 C 0.2345 0.06758 0.40891 0.0
H363 H 0.29374 0.05211 0.47215 0.0
C364 C 0.32158 0.08423 0.4785 0.0
H365 H 0.35027 0.15522 0.47891 0.0
H366 H 0.17252 0.14732 0.45019 0.0
H367 H 0.1876 0.18396 0.48292 0.0
H368 H 0.24866 0.19104 0.50511 0.0
H369 H 0.29532 0.162 0.49467 0.0
C370 C 0.3244 0.12221 0.47266 0.0
C371 C 0.28903 0.11983 0.45882 0.0
C372 C 0.26181 0.13671 0.46525 0.0
C373 C 0.22605 0.13192 0.45258 0.0
C374 C 0.19978 0.14959 0.45928 0.0
C375 C 0.20808 0.17073 0.47803 0.0
C376 C 0.24249 0.17476 0.49052 0.0
C377 C 0.2691 0.15798 0.4843 0.0
H378 H 0.13684 0.09946 0.76446 0.0
C379 C 0.11601 0.09289 0.75104 0.0
H380 H 0.09405 0.122 0.73017 0.0
H381 H 0.1884 0.24793 0.81595 0.0
H382 H 0.11797 0.19578 0.82913 0.0
H383 H 0.0563 0.13356 0.80796 0.0
H384 H 0.06527 0.12291 0.77339 0.0
C385 C 0.11269 0.12677 0.74403 0.0
C386 C 0.14038 0.17268 0.75417 0.0
C387 C 0.1338 0.18021 0.77392 0.0
C388 C 0.16891 0.2168 0.78593 0.0
C389 C 0.16264 0.22135 0.80601 0.0
C390 C 0.12231 0.19156 0.81378 0.0
C391 C 0.08761 0.15648 0.80187 0.0
C392 C 0.09318 0.15061 0.78216 0.0
H393 H 0.2365 0.32394 0.80004 0.0
C394 C 0.2603 0.31258 0.80122 0.0
H395 H 0.27334 0.2613 0.79243 0.0
H396 H 0.15864 0.17393 0.71569 0.0
H397 H 0.22653 0.22978 0.70164 0.0
H398 H 0.28704 0.2943 0.7223 0.0
H399 H 0.28004 0.30327 0.75721 0.0
C400 C 0.25118 0.27451 0.79091 0.0
C401 C 0.20991 0.24649 0.77785 0.0
C402 C 0.21374 0.24267 0.75746 0.0
C403 C 0.17879 0.20569 0.74554 0.0
C404 C 0.18426 0.20148 0.72536 0.0
C405 C 0.22297 0.23333 0.71713 0.0
C406 C 0.25706 0.26965 0.72877 0.0
C407 C 0.25274 0.27436 0.74874 0.0
H408 H 0.93658 0.97897 0.66406 0.0
C409 C 0.96092 0.01233 0.67079 0.0
H410 H 0.98105 0.08138 0.67297 0.0
H411 H 0.85091 0.99343 0.58936 0.0
H412 H 0.91131 0.98554 0.57748 0.0
H413 H 0.97747 0.00462 0.59936 0.0
H414 H 0.98347 0.03146 0.63327 0.0
C415 C 0.95803 0.04798 0.66595 0.0
C416 C 0.92101 0.04181 0.65206 0.0
C417 C 0.91841 0.02696 0.63215 0.0
C418 C 0.88055 0.01658 0.61948 0.0
C419 C 0.87873 0.00154 0.59969 0.0
C420 C 0.91327 0.99703 0.59264 0.0
C421 C 0.95049 0.00772 0.60496 0.0
C422 C 0.95332 0.02273 0.62446 0.0
H423 H 0.8189 0.0746 0.61167 0.0
C424 C 0.79643 0.03931 0.60668 0.0
H425 H 0.78589 0.97354 0.60763 0.0
H426 H 0.91756 0.07337 0.6889 0.0
H427 H 0.85795 0.08284 0.70066 0.0
H428 H 0.79159 0.06352 0.67888 0.0
H429 H 0.78454 0.03491 0.6452 0.0
C430 C 0.80526 0.00852 0.61339 0.0
C431 C 0.84572 0.02186 0.62661 0.0
C432 C 0.84911 0.03833 0.64632 0.0
C433 C 0.88707 0.04878 0.65899 0.0
C434 C 0.8895 0.06489 0.67864 0.0
C435 C 0.85548 0.07042 0.6856 0.0
C436 C 0.81815 0.0596 0.67333 0.0
C437 C 0.81468 0.04348 0.65396 0.0
H438 H 0.97974 0.94013 0.9837 0.0
C439 C 0.97809 0.95553 0.9976 0.0
H440 H 0.93496 0.95948 0.01747 0.0
H441 H 0.77756 0.88574 0.9493 0.0
H442 H 0.78968 0.9601 0.95817 0.0
H443 H 0.85089 0.01269 0.98237 0.0
H444 H 0.90013 0.9911 -0.00198 0.0
C445 C 0.93781 0.94463 0.0037 0.0
C446 C 0.8964 0.91071 0.99171 0.0
C447 C 0.86789 0.92376 0.9828 0.0
C448 C 0.83301 0.89364 0.96864 0.0
C449 C 0.80494 0.90752 0.95996 0.0
C450 C 0.81146 0.95004 0.96495 0.0
C451 C 0.84591 0.97966 0.97859 0.0
C452 C 0.87396 0.96689 0.98744 0.0
H453 H 0.75584 0.76687 0.96352 0.0
C454 C 0.76007 0.77979 0.94909 0.0
H455 H 0.79976 0.83472 0.93239 0.0
H456 H 0.93652 0.87067 0.01017 0.0
H457 H 0.9268 0.79757 0.00077 0.0
H458 H 0.87402 0.74948 0.97297 0.0
H459 H 0.82969 0.77324 0.95502 0.0
C460 C 0.79403 0.82175 0.9468 0.0
C461 C 0.82712 0.85078 0.96324 0.0
C462 C 0.85492 0.83721 0.97267 0.0
C463 C 0.888 0.8664 0.9876 0.0
C464 C 0.91279 0.85078 -0.00206 0.0
C465 C 0.9073 0.8088 0.9928 0.0
C466 C 0.87742 0.78164 0.97724 0.0
C467 C 0.85164 0.79556 0.96719 0.0
H468 H 0.98753 0.93109 0.34525 0.0
C469 C 0.01811 0.9552 0.33885 0.0
H470 H 0.06213 0.96565 0.31663 0.0
H471 H 0.97032 0.74618 0.31427 0.0
H472 H 0.01008 0.75979 0.3461 0.0
H473 H 0.04901 0.83559 0.3635 0.0
H474 H 0.04802 0.89809 0.3493 0.0
C475 C 0.03238 0.94162 0.32355 0.0
C476 C 0.0061 0.89502 0.31413 0.0
C477 C 0.00747 0.85908 0.32259 0.0
C478 C 0.98609 0.81567 0.31232 0.0
C479 C 0.9871 0.78007 0.32123 0.0
C480 C 0.00956 0.78738 0.33952 0.0
C481 C 0.0314 0.83005 0.34934 0.0
C482 C 0.03052 0.86562 0.34104 0.0
H483 H 0.01148 0.77484 0.27935 0.0
C484 C 0.97641 0.755 0.27396 0.0
H485 H 0.91217 0.74637 0.2765 0.0
H486 H 0.99378 0.95569 0.29477 0.0
H487 H 0.9537 0.94201 0.26308 0.0
H488 H 0.91812 0.86728 0.24488 0.0
H489 H 0.9222 0.80581 0.25826 0.0
C490 C 0.94749 0.76566 0.2813 0.0
C491 C 0.96434 0.80869 0.29347 0.0
C492 C 0.96116 0.84411 0.28546 0.0
C493 C 0.9821 0.88732 0.29581 0.0
C494 C 0.97885 0.9223 0.28742 0.0
C495 C 0.95587 0.9149 0.26926 0.0
C496 C 0.9358 0.87282 0.25903 0.0
C497 C 0.93837 0.83777 0.26692 0.0
H498 H 0.17066 0.96175 0.68361 0.0
C499 C 0.14021 0.96145 0.67915 0.0
H500 H 0.10262 0.96684 0.65572 0.0
H501 H 0.27248 0.0856 0.60893 0.0
H502 H 0.24165 0.1338 0.61374 0.0
H503 H 0.17704 0.11121 0.63368 0.0
H504 H 0.14251 0.04009 0.64869 0.0
C505 C 0.13232 0.96595 0.66029 0.0
C506 C 0.16739 0.97661 0.64617 0.0
C507 C 0.18734 0.01857 0.63759 0.0
C508 C 0.2253 0.03212 0.62649 0.0
C509 C 0.24418 0.07395 0.61785 0.0
C510 C 0.22673 0.10196 0.62043 0.0
C511 C 0.19032 0.0892 0.63163 0.0
C512 C 0.17077 0.04813 0.64017 0.0
H513 H 0.25672 0.96811 0.59153 0.0
C514 C 0.28625 5e-05 0.59686 0.0
H515 H 0.31481 0.05229 0.61955 0.0
H516 H 0.13088 0.88988 0.65654 0.0
H517 H 0.16272 0.84218 0.65256 0.0
H518 H 0.23348 0.86912 0.63664 0.0
H519 H 0.27204 0.94316 0.62411 0.0
C520 C 0.28553 0.02065 0.61383 0.0
C521 C 0.24381 0.00414 0.62428 0.0
C522 C 0.22306 0.96156 0.63239 0.0
C523 C 0.18386 0.94716 0.64271 0.0
C524 C 0.16201 0.90332 0.6495 0.0
C525 C 0.17972 0.87549 0.64717 0.0
C526 C 0.21944 0.89057 0.63812 0.0
C527 C 0.24106 0.93309 0.63084 0.0
H528 H 0.18192 0.18069 0.02044 0.0
C529 C 0.18736 0.15367 0.01555 0.0
H530 H 0.2217 0.1339 0.99662 0.0
H531 H 0.22455 0.28089 0.94067 0.0
H532 H 0.14375 0.23077 0.93647 0.0
H533 H 0.10506 0.16654 0.95697 0.0
H534 H 0.14654 0.15241 0.98189 0.0
C535 C 0.21576 0.16051 0.0016 0.0
C536 C 0.23749 0.20261 0.99122 0.0
C537 C 0.21241 0.20991 0.97659 0.0
C538 C 0.23477 0.24592 0.96431 0.0
C539 C 0.20915 0.25314 0.95 0.0
C540 C 0.16282 0.22481 0.94751 0.0
C541 C 0.14103 0.18873 0.95908 0.0
C542 C 0.16534 0.18111 0.97342 0.0
H543 H 0.28781 0.24756 0.93069 0.0
C544 C 0.30565 0.28423 0.93276 0.0
H545 H 0.32579 0.33936 0.95377 0.0
H546 H 0.29424 0.20125 0.01942 0.0
H547 H 0.37494 0.25231 0.02377 0.0
H548 H 0.41385 0.31369 0.00189 0.0
H549 H 0.37235 0.32454 0.97555 0.0
C550 C 0.30609 0.30311 0.95041 0.0
C551 C 0.2821 0.2734 0.96619 0.0
C552 C 0.30673 0.26826 0.98173 0.0
C553 C 0.28435 0.23269 0.99425 0.0
C554 C 0.30977 0.22754 0.0094 0.0
C555 C 0.35601 0.25664 0.01208 0.0
C556 C 0.37792 0.29123 -0.00024 0.0
C557 C 0.35375 0.29707 0.9847 0.0
H558 H 0.01789 0.17114 0.34512 0.0
C559 C 0.04556 0.17084 0.33848 0.0
H560 H 0.08717 0.19036 0.31485 0.0
H561 H 0.9492 0.19825 0.25612 0.0
H562 H 0.94129 0.12708 0.24463 0.0
H563 H 0.97726 0.09367 0.26355 0.0
H564 H 0.02114 0.13114 0.2941 0.0
C565 C 0.06082 0.19206 0.32208 0.0
C566 C 0.03764 0.21166 0.31141 0.0
C567 C 0.01248 0.1895 0.29348 0.0
C568 C 0.99221 0.20898 0.28246 0.0
C569 C 0.96628 0.18553 0.26484 0.0
C570 C 0.9612 0.14448 0.25813 0.0
C571 C 0.98141 0.12566 0.26879 0.0
C572 C 0.00666 0.14765 0.28629 0.0
H573 H 0.03114 0.29078 0.25726 0.0
C574 C 0.00104 0.29145 0.26026 0.0
H575 H 0.9523 0.2756 0.28103 0.0
H576 H 0.08326 0.26269 0.34529 0.0
H577 H 0.08965 0.33307 0.35708 0.0
H578 H 0.05384 0.36647 0.33804 0.0
H579 H 0.01149 0.32972 0.30702 0.0
C580 C 0.98087 0.27371 0.27662 0.0
C581 C 0.99784 0.25101 0.28922 0.0
C582 C 0.02144 0.27228 0.30751 0.0
C583 C 0.04168 0.25274 0.31859 0.0
C584 C 0.06654 0.27559 0.33646 0.0
C585 C 0.07063 0.31612 0.34336 0.0
C586 C 0.0505 0.33495 0.33262 0.0
C587 C 0.02629 0.31353 0.31486 0.0
loop_
_geom_bond_atom_site_label_1
_geom_bond_atom_site_label_2
_geom_bond_distance
_geom_bond_site_symmetry_2
_ccdc_geom_bond_type
Zn0 O3 2.029 1_545 S
Zn0 O5 2.058 . S
Zn0 O10 2.072 1_545 S
Zn1 O2 1.962 . S
Zn1 O4 1.986 . S
Zn1 O6 1.996 . S
Zn1 O9 1.943 . S
O2 Zn1 1.962 . S
O2 C7 1.254 1_545 S
O3 Zn0 2.029 1_565 S
O3 C7 1.269 . S
O4 Zn1 1.986 . S
O4 C11 1.262 . S
O5 Zn0 2.058 . S
O5 C13 1.260 . S
O6 Zn1 1.996 . S
O6 C13 1.257 . S
C7 O2 1.254 1_565 S
C7 O3 1.269 . S
C8 O9 1.249 1_665 S
C8 O10 1.270 1_655 S
O9 Zn1 1.943 . S
O9 C8 1.249 1_445 S
O10 Zn0 2.072 1_565 S
O10 C8 1.270 1_455 S
C11 O4 1.262 . S
C11 O12 1.232 . S
O12 C11 1.232 . S
C13 O5 1.260 . S
C13 O6 1.257 . S
Zn14 O17 2.031 . S
Zn14 O19 2.049 . S
Zn14 O24 2.067 . S
Zn15 O16 1.962 . S
Zn15 O18 1.986 1_455 S
Zn15 O20 1.996 . S
Zn15 O23 1.943 1_455 S
O16 Zn15 1.962 . S
O16 C21 1.254 . S
O17 Zn14 2.031 . S
O17 C21 1.269 . S
O18 Zn15 1.986 1_655 S
O18 C25 1.262 . S
O19 Zn14 2.049 . S
O19 C27 1.260 . S
O20 Zn15 1.996 . S
O20 C27 1.257 . S
C21 O16 1.254 . S
C21 O17 1.269 . S
C22 O23 1.249 1_465 S
C22 O24 1.270 1_565 S
O23 Zn15 1.943 1_655 S
O23 C22 1.249 1_645 S
O24 Zn14 2.067 . S
O24 C22 1.270 1_545 S
C25 O18 1.262 . S
C25 O26 1.232 . S
O26 C25 1.232 . S
C27 O19 1.260 . S
C27 O20 1.257 . S
Zn28 O31 2.031 1_565 S
Zn28 O33 2.049 . S
Zn28 O38 2.067 1_565 S
Zn29 O30 1.962 1_545 S
Zn29 O32 1.986 1_445 S
Zn29 O34 1.996 1_445 S
Zn29 O37 1.943 . S
O30 Zn29 1.962 1_565 S
O30 C35 1.254 . S
O31 Zn28 2.031 1_545 S
O31 C35 1.269 1_545 S
O32 Zn29 1.986 1_665 S
O32 C39 1.262 1_565 S
O33 Zn28 2.049 . S
O33 C41 1.260 1_455 S
O34 Zn29 1.996 1_665 S
O34 C41 1.257 . S
C35 O30 1.254 . S
C35 O31 1.269 1_565 S
C36 O37 1.249 . S
C36 O38 1.270 . S
O37 Zn29 1.943 . S
O37 C36 1.249 . S
O38 Zn28 2.067 1_545 S
O38 C36 1.270 . S
C39 O32 1.262 1_545 S
C39 O40 1.232 . S
O40 C39 1.232 . S
C41 O33 1.260 1_655 S
C41 O34 1.257 . S
H42 C69 0.929 . S
N43 C68 1.433 . S
N43 C74 1.435 . S
N43 C80 1.423 . S
H44 C70 0.950 . S
H45 C73 0.931 . S
H46 C72 0.929 . S
H47 C75 0.930 . S
H48 C76 0.932 . S
H49 C79 0.929 . S
H50 C78 0.931 1_655 S
H51 C81 0.929 . S
H52 C85 0.932 . S
H53 C82 0.931 . S
H54 C84 0.929 . S
H55 C87 0.929 . S
H56 C88 0.929 . S
H57 C90 0.929 . S
H58 C91 0.931 . S
H59 C93 0.930 . S
H60 C94 0.932 . S
H61 C96 0.931 1_655 S
H62 C97 0.929 . S
H63 C99 0.929 . S
H64 C100 0.931 . S
H65 C102 0.929 . S
N66 C86 1.433 . S
N66 C92 1.435 . S
N66 C98 1.423 . S
H67 C103 0.932 . S
C68 N43 1.433 . S
C68 C69 1.363 1_455 S
C68 C73 1.370 . S
C69 H42 0.929 . S
C69 C68 1.363 1_655 S
C69 C70 1.381 . S
C70 H44 0.950 . S
C70 C69 1.381 . S
C70 C71 1.342 1_655 S
C71 C70 1.342 1_455 S
C71 C72 1.406 . S
C72 H46 0.929 . S
C72 C71 1.406 . S
C72 C73 1.391 . S
C73 H45 0.931 . S
C73 C68 1.370 . S
C73 C72 1.391 . S
C74 N43 1.435 . S
C74 C75 1.358 . S
C74 C79 1.371 1_455 S
C75 H47 0.930 . S
C75 C74 1.358 . S
C75 C76 1.405 . S
C76 H48 0.932 . S
C76 C75 1.405 . S
C76 C77 1.383 . S
C77 C76 1.383 . S
C77 C78 1.393 . S
C78 H50 0.931 1_455 S
C78 C77 1.393 . S
C78 C79 1.382 1_455 S
C79 H49 0.929 . S
C79 C74 1.371 1_655 S
C79 C78 1.382 1_655 S
C80 N43 1.423 . S
C80 C81 1.362 1_455 S
C80 C85 1.388 . S
C81 H51 0.929 . S
C81 C80 1.362 1_655 S
C81 C82 1.376 . S
C82 H53 0.931 . S
C82 C81 1.376 . S
C82 C83 1.397 1_655 S
C83 C82 1.397 1_455 S
C83 C84 1.347 . S
C83 C101 1.472 . S
C84 H54 0.929 . S
C84 C83 1.347 . S
C84 C85 1.443 . S
C85 H52 0.932 . S
C85 C80 1.388 . S
C85 C84 1.443 . S
C86 N66 1.433 . S
C86 C87 1.363 1_455 S
C86 C91 1.370 . S
C87 H55 0.929 . S
C87 C86 1.363 1_655 S
C87 C88 1.390 . S
C88 H56 0.929 . S
C88 C87 1.390 . S
C88 C89 1.354 1_655 S
C89 C88 1.354 1_455 S
C89 C90 1.406 . S
C90 H57 0.929 . S
C90 C89 1.406 . S
C90 C91 1.391 . S
C91 H58 0.931 . S
C91 C86 1.370 . S
C91 C90 1.391 . S
C92 N66 1.435 . S
C92 C93 1.358 . S
C92 C97 1.371 1_455 S
C93 H59 0.930 . S
C93 C92 1.358 . S
C93 C94 1.405 . S
C94 H60 0.932 . S
C94 C93 1.405 . S
C94 C95 1.383 . S
C95 C94 1.383 . S
C95 C96 1.393 . S
C96 H61 0.931 1_455 S
C96 C95 1.393 . S
C96 C97 1.382 1_455 S
C97 H62 0.929 . S
C97 C92 1.371 1_655 S
C97 C96 1.382 1_655 S
C98 N66 1.423 . S
C98 C99 1.362 1_455 S
C98 C103 1.388 . S
C99 H63 0.929 . S
C99 C98 1.362 1_655 S
C99 C100 1.376 . S
C100 H64 0.931 . S
C100 C99 1.376 . S
C100 C101 1.396 1_655 S
C101 C83 1.472 . S
C101 C100 1.396 1_455 S
C101 C102 1.346 . S
C102 H65 0.929 . S
C102 C101 1.346 . S
C102 C103 1.443 . S
C103 H67 0.932 . S
C103 C98 1.388 . S
C103 C102 1.443 . S
H104 C131 0.929 . S
N105 C130 1.433 . S
N105 C136 1.435 . S
N105 C142 1.423 . S
H106 C132 0.930 . S
H107 C135 0.931 . S
H108 C134 0.929 1_565 S
H109 C137 0.930 1_565 S
H110 C138 0.932 1_565 S
H111 C141 0.929 . S
H112 C140 0.931 . S
H113 C143 0.929 . S
H114 C147 0.932 . S
H115 C144 0.931 . S
H116 C146 0.929 . S
H117 C149 0.929 . S
H118 C150 0.930 . S
H119 C152 0.929 1_565 S
H120 C153 0.931 . S
H121 C155 0.930 1_565 S
H122 C156 0.932 1_565 S
H123 C158 0.931 . S
H124 C159 0.929 . S
H125 C161 0.929 . S
H126 C162 0.931 . S
H127 C164 0.929 . S
N128 C148 1.433 . S
N128 C154 1.435 . S
N128 C160 1.423 . S
H129 C165 0.932 . S
C130 N105 1.433 . S
C130 C131 1.363 . S
C130 C135 1.370 . S
C131 H104 0.929 . S
C131 C130 1.363 . S
C131 C132 1.385 . S
C132 H106 0.930 . S
C132 C131 1.385 . S
C132 C133 1.357 . S
C133 C132 1.357 . S
C133 C134 1.406 . S
C134 H108 0.929 1_545 S
C134 C133 1.406 . S
C134 C135 1.391 . S
C135 H107 0.931 . S
C135 C130 1.370 . S
C135 C134 1.391 . S
C136 N105 1.435 . S
C136 C137 1.358 . S
C136 C141 1.371 . S
C137 H109 0.930 1_545 S
C137 C136 1.358 . S
C137 C138 1.405 . S
C138 H110 0.932 1_545 S
C138 C137 1.405 . S
C138 C139 1.383 . S
C139 C138 1.383 . S
C139 C140 1.393 . S
C140 H112 0.931 . S
C140 C139 1.393 . S
C140 C141 1.382 . S
C141 H111 0.929 . S
C141 C136 1.371 . S
C141 C140 1.382 . S
C142 N105 1.423 . S
C142 C143 1.362 . S
C142 C147 1.388 . S
C143 H113 0.929 . S
C143 C142 1.362 . S
C143 C144 1.376 . S
C144 H115 0.931 . S
C144 C143 1.376 . S
C144 C145 1.396 . S
C145 C144 1.396 . S
C145 C146 1.348 . S
C145 C163 1.472 . S
C146 H116 0.929 . S
C146 C145 1.348 . S
C146 C147 1.443 . S
C147 H114 0.932 . S
C147 C142 1.388 . S
C147 C146 1.443 . S
C148 N128 1.433 . S
C148 C149 1.363 . S
C148 C153 1.370 . S
C149 H117 0.929 . S
C149 C148 1.363 . S
C149 C150 1.385 . S
C150 H118 0.930 . S
C150 C149 1.385 . S
C150 C151 1.357 . S
C151 C150 1.357 . S
C151 C152 1.406 . S
C152 H119 0.929 1_545 S
C152 C151 1.406 . S
C152 C153 1.391 . S
C153 H120 0.931 . S
C153 C148 1.370 . S
C153 C152 1.391 . S
C154 N128 1.435 . S
C154 C155 1.358 . S
C154 C159 1.371 . S
C155 H121 0.930 1_545 S
C155 C154 1.358 . S
C155 C156 1.405 . S
C156 H122 0.932 1_545 S
C156 C155 1.405 . S
C156 C157 1.383 . S
C157 C156 1.383 . S
C157 C158 1.393 . S
C158 H123 0.931 . S
C158 C157 1.393 . S
C158 C159 1.382 . S
C159 H124 0.929 . S
C159 C154 1.371 . S
C159 C158 1.382 . S
C160 N128 1.423 . S
C160 C161 1.362 . S
C160 C165 1.388 . S
C161 H125 0.929 . S
C161 C160 1.362 . S
C161 C162 1.376 . S
C162 H126 0.931 . S
C162 C161 1.376 . S
C162 C163 1.396 . S
C163 C145 1.472 . S
C163 C162 1.396 . S
C163 C164 1.348 . S
C164 H127 0.929 . S
C164 C163 1.348 . S
C164 C165 1.443 . S
C165 H129 0.932 . S
C165 C160 1.388 . S
C165 C164 1.443 . S
H166 C193 0.929 . S
N167 C192 1.433 . S
N167 C198 1.435 . S
N167 C204 1.423 . S
H168 C194 0.930 . S
H169 C197 0.931 . S
H170 C196 0.929 . S
H171 C199 0.930 . S
H172 C200 0.932 . S
H173 C203 0.929 . S
H174 C202 0.931 . S
H175 C205 0.929 . S
H176 C209 0.932 . S
H177 C206 0.931 . S
H178 C208 0.929 . S
H179 C211 0.929 . S
H180 C212 0.930 . S
H181 C214 0.929 . S
H182 C215 0.931 . S
H183 C217 0.930 . S
H184 C218 0.932 . S
H185 C220 0.931 . S
H186 C221 0.929 . S
H187 C223 0.929 . S
H188 C224 0.931 . S
H189 C226 0.929 . S
N190 C210 1.433 . S
N190 C216 1.435 . S
N190 C222 1.423 . S
H191 C227 0.932 . S
C192 N167 1.433 . S
C192 C193 1.363 . S
C192 C197 1.370 . S
C193 H166 0.929 . S
C193 C192 1.363 . S
C193 C194 1.385 . S
C194 H168 0.930 . S
C194 C193 1.385 . S
C194 C195 1.357 . S
C195 C194 1.357 . S
C195 C196 1.406 . S
C196 H170 0.929 . S
C196 C195 1.406 . S
C196 C197 1.391 . S
C197 H169 0.931 . S
C197 C192 1.370 . S
C197 C196 1.391 . S
C198 N167 1.435 . S
C198 C199 1.358 . S
C198 C203 1.371 . S
C199 H171 0.930 . S
C199 C198 1.358 . S
C199 C200 1.405 . S
C200 H172 0.932 . S
C200 C199 1.405 . S
C200 C201 1.383 . S
C201 C200 1.383 . S
C201 C202 1.393 . S
C202 H174 0.931 . S
C202 C201 1.393 . S
C202 C203 1.382 . S
C203 H173 0.929 . S
C203 C198 1.371 . S
C203 C202 1.382 . S
C204 N167 1.423 . S
C204 C205 1.362 . S
C204 C209 1.388 . S
C205 H175 0.929 . S
C205 C204 1.362 . S
C205 C206 1.376 . S
C206 H177 0.931 . S
C206 C205 1.376 . S
C206 C207 1.396 . S
C207 C206 1.396 . S
C207 C208 1.348 . S
C207 C225 1.472 . S
C208 H178 0.929 . S
C208 C207 1.348 . S
C208 C209 1.443 . S
C209 H176 0.932 . S
C209 C204 1.388 . S
C209 C208 1.443 . S
C210 N190 1.433 . S
C210 C211 1.363 . S
C210 C215 1.370 . S
C211 H179 0.929 . S
C211 C210 1.363 . S
C211 C212 1.385 . S
C212 H180 0.930 . S
C212 C211 1.385 . S
C212 C213 1.357 . S
C213 C212 1.357 . S
C213 C214 1.406 . S
C214 H181 0.929 . S
C214 C213 1.406 . S
C214 C215 1.391 . S
C215 H182 0.931 . S
C215 C210 1.370 . S
C215 C214 1.391 . S
C216 N190 1.435 . S
C216 C217 1.358 . S
C216 C221 1.371 . S
C217 H183 0.930 . S
C217 C216 1.358 . S
C217 C218 1.405 . S
C218 H184 0.932 . S
C218 C217 1.405 . S
C218 C219 1.383 . S
C219 C218 1.383 . S
C219 C220 1.393 . S
C220 H185 0.931 . S
C220 C219 1.393 . S
C220 C221 1.382 . S
C221 H186 0.929 . S
C221 C216 1.371 . S
C221 C220 1.382 . S
C222 N190 1.423 . S
C222 C223 1.362 . S
C222 C227 1.388 . S
C223 H187 0.929 . S
C223 C222 1.362 . S
C223 C224 1.376 . S
C224 H188 0.931 . S
C224 C223 1.376 . S
C224 C225 1.396 . S
C225 C207 1.472 . S
C225 C224 1.396 . S
C225 C226 1.348 . S
C226 H189 0.929 . S
C226 C225 1.348 . S
C226 C227 1.443 . S
C227 H191 0.932 . S
C227 C222 1.388 . S
C227 C226 1.443 . S
H228 C229 0.951 . S
C229 H228 0.951 . S
C229 C235 1.265 . S
H230 C235 0.950 1_655 S
H231 C239 0.949 . S
H232 C240 0.950 . S
H233 C241 0.951 . S
H234 C242 0.951 . S
C235 C229 1.265 . S
C235 H230 0.950 1_455 S
C235 C236 1.478 . S
C236 C235 1.478 . S
C236 C237 1.397 1_455 S
C236 C253 1.394 . S
C237 C236 1.397 1_655 S
C237 C238 1.438 1_655 S
C237 C242 1.429 . S
C238 C237 1.438 1_455 S
C238 C239 1.428 1_455 S
C238 C251 1.394 . S
C239 H231 0.949 . S
C239 C238 1.428 1_655 S
C239 C240 1.345 . S
C240 H232 0.950 . S
C240 C239 1.345 . S
C240 C241 1.424 . S
C241 H233 0.951 . S
C241 C240 1.424 . S
C241 C242 1.347 . S
C242 H234 0.951 . S
C242 C237 1.429 . S
C242 C241 1.347 . S
H243 C244 0.951 . S
C244 H243 0.951 . S
C244 C250 1.265 . S
H245 C250 0.950 . S
H246 C254 0.949 . S
H247 C255 0.950 . S
H248 C256 0.951 . S
H249 C257 0.951 . S
C250 C244 1.265 . S
C250 H245 0.950 . S
C250 C251 1.478 . S
C251 C238 1.394 . S
C251 C250 1.478 . S
C251 C252 1.397 . S
C252 C251 1.397 . S
C252 C253 1.438 . S
C252 C257 1.429 . S
C253 C236 1.394 . S
C253 C252 1.438 . S
C253 C254 1.428 . S
C254 H246 0.949 . S
C254 C253 1.428 . S
C254 C255 1.345 . S
C255 H247 0.950 . S
C255 C254 1.345 . S
C255 C256 1.424 . S
C256 H248 0.951 . S
C256 C255 1.424 . S
C256 C257 1.347 . S
C257 H249 0.951 . S
C257 C252 1.429 . S
C257 C256 1.347 . S
H258 C259 0.951 . S
C259 H258 0.951 . S
C259 C265 1.265 . S
H260 C265 0.950 . S
H261 C269 0.949 . S
H262 C270 0.950 . S
H263 C271 0.951 . S
H264 C272 0.951 . S
C265 C259 1.265 . S
C265 H260 0.950 . S
C265 C266 1.478 . S
C266 C265 1.478 . S
C266 C267 1.397 1_545 S
C266 C283 1.394 . S
C267 C266 1.397 1_565 S
C267 C268 1.438 . S
C267 C272 1.429 . S
C268 C267 1.438 . S
C268 C269 1.428 . S
C268 C281 1.394 1_565 S
C269 H261 0.949 . S
C269 C268 1.428 . S
C269 C270 1.345 . S
C270 H262 0.950 . S
C270 C269 1.345 . S
C270 C271 1.424 . S
C271 H263 0.951 . S
C271 C270 1.424 . S
C271 C272 1.347 . S
C272 H264 0.951 . S
C272 C267 1.429 . S
C272 C271 1.347 . S
H273 C274 0.951 . S
C274 H273 0.951 . S
C274 C280 1.265 . S
H275 C280 0.950 . S
H276 C284 0.949 . S
H277 C285 0.950 . S
H278 C286 0.951 . S
H279 C287 0.951 . S
C280 C274 1.265 . S
C280 H275 0.950 . S
C280 C281 1.478 . S
C281 C268 1.394 1_545 S
C281 C280 1.478 . S
C281 C282 1.397 . S
C282 C281 1.397 . S
C282 C283 1.438 . S
C282 C287 1.429 . S
C283 C266 1.394 . S
C283 C282 1.438 . S
C283 C284 1.428 . S
C284 H276 0.949 . S
C284 C283 1.428 . S
C284 C285 1.345 . S
C285 H277 0.950 . S
C285 C284 1.345 . S
C285 C286 1.424 . S
C286 H278 0.951 . S
C286 C285 1.424 . S
C286 C287 1.347 . S
C287 H279 0.951 . S
C287 C282 1.429 . S
C287 C286 1.347 . S
H288 C289 0.951 . S
C289 H288 0.951 . S
C289 C295 1.265 . S
H290 C295 0.950 . S
H291 C299 0.949 . S
H292 C300 0.950 . S
H293 C301 0.951 . S
H294 C302 0.951 . S
C295 C289 1.265 . S
C295 H290 0.950 . S
C295 C296 1.478 . S
C296 C295 1.478 . S
C296 C297 1.397 . S
C296 C313 1.394 . S
C297 C296 1.397 . S
C297 C298 1.438 . S
C297 C302 1.429 . S
C298 C297 1.438 . S
C298 C299 1.428 . S
C298 C311 1.394 . S
C299 H291 0.949 . S
C299 C298 1.428 . S
C299 C300 1.345 . S
C300 H292 0.950 . S
C300 C299 1.345 . S
C300 C301 1.424 . S
C301 H293 0.951 . S
C301 C300 1.424 . S
C301 C302 1.347 . S
C302 H294 0.951 . S
C302 C297 1.429 . S
C302 C301 1.347 . S
H303 C304 0.951 . S
C304 H303 0.951 . S
C304 C310 1.265 . S
H305 C310 0.950 . S
H306 C314 0.949 . S
H307 C315 0.950 . S
H308 C316 0.951 . S
H309 C317 0.951 . S
C310 C304 1.265 . S
C310 H305 0.950 . S
C310 C311 1.478 . S
C311 C298 1.394 . S
C311 C310 1.478 . S
C311 C312 1.397 . S
C312 C311 1.397 . S
C312 C313 1.438 . S
C312 C317 1.429 . S
C313 C296 1.394 . S
C313 C312 1.438 . S
C313 C314 1.428 . S
C314 H306 0.949 . S
C314 C313 1.428 . S
C314 C315 1.345 . S
C315 H307 0.950 . S
C315 C314 1.345 . S
C315 C316 1.424 . S
C316 H308 0.951 . S
C316 C315 1.424 . S
C316 C317 1.347 . S
C317 H309 0.951 . S
C317 C312 1.429 . S
C317 C316 1.347 . S
H318 C319 0.951 . S
C319 H318 0.951 . S
C319 C325 1.265 . S
H320 C325 0.950 . S
H321 C329 0.949 . S
H322 C330 0.950 . S
H323 C331 0.951 . S
H324 C332 0.951 . S
C325 C319 1.265 . S
C325 H320 0.950 . S
C325 C326 1.478 . S
C326 C325 1.478 . S
C326 C327 1.397 . S
C326 C343 1.394 . S
C327 C326 1.397 . S
C327 C328 1.438 . S
C327 C332 1.429 1_455 S
C328 C327 1.438 . S
C328 C329 1.428 1_455 S
C328 C341 1.394 . S
C329 H321 0.949 . S
C329 C328 1.428 1_655 S
C329 C330 1.345 . S
C330 H322 0.950 . S
C330 C329 1.345 . S
C330 C331 1.424 . S
C331 H323 0.951 . S
C331 C330 1.424 . S
C331 C332 1.347 . S
C332 H324 0.951 . S
C332 C327 1.429 1_655 S
C332 C331 1.347 . S
H333 C334 0.951 . S
C334 H333 0.951 . S
C334 C340 1.265 . S
H335 C340 0.950 . S
H336 C344 0.949 . S
H337 C345 0.950 1_545 S
H338 C346 0.951 . S
H339 C347 0.951 . S
C340 C334 1.265 . S
C340 H335 0.950 . S
C340 C341 1.478 . S
C341 C328 1.394 . S
C341 C340 1.478 . S
C341 C342 1.397 . S
C342 C341 1.397 . S
C342 C343 1.438 . S
C342 C347 1.429 . S
C343 C326 1.394 . S
C343 C342 1.438 . S
C343 C344 1.428 . S
C344 H336 0.949 . S
C344 C343 1.428 . S
C344 C345 1.345 . S
C345 H337 0.950 1_565 S
C345 C344 1.345 . S
C345 C346 1.424 . S
C346 H338 0.951 . S
C346 C345 1.424 . S
C346 C347 1.347 . S
C347 H339 0.951 . S
C347 C342 1.429 . S
C347 C346 1.347 . S
H348 C349 0.951 . S
C349 H348 0.951 . S
C349 C355 1.265 . S
H350 C355 0.950 . S
H351 C359 0.949 . S
H352 C360 0.950 . S
H353 C361 0.951 . S
H354 C362 0.951 . S
C355 C349 1.265 . S
C355 H350 0.950 . S
C355 C356 1.478 . S
C356 C355 1.478 . S
C356 C357 1.397 . S
C356 C373 1.394 . S
C357 C356 1.397 . S
C357 C358 1.438 . S
C357 C362 1.429 1_545 S
C358 C357 1.438 . S
C358 C359 1.428 1_545 S
C358 C371 1.394 . S
C359 H351 0.949 . S
C359 C358 1.428 1_565 S
C359 C360 1.345 . S
C360 H352 0.950 . S
C360 C359 1.345 . S
C360 C361 1.424 . S
C361 H353 0.951 . S
C361 C360 1.424 . S
C361 C362 1.347 . S
C362 H354 0.951 . S
C362 C357 1.429 1_565 S
C362 C361 1.347 . S
H363 C364 0.951 . S
C364 H363 0.951 . S
C364 C370 1.265 . S
H365 C370 0.950 . S
H366 C374 0.949 . S
H367 C375 0.950 . S
H368 C376 0.951 . S
H369 C377 0.951 . S
C370 C364 1.265 . S
C370 H365 0.950 . S
C370 C371 1.478 . S
C371 C358 1.394 . S
C371 C370 1.478 . S
C371 C372 1.397 . S
C372 C371 1.397 . S
C372 C373 1.438 . S
C372 C377 1.429 . S
C373 C356 1.394 . S
C373 C372 1.438 . S
C373 C374 1.428 . S
C374 H366 0.949 . S
C374 C373 1.428 . S
C374 C375 1.345 . S
C375 H367 0.950 . S
C375 C374 1.345 . S
C375 C376 1.424 . S
C376 H368 0.951 . S
C376 C375 1.424 . S
C376 C377 1.347 . S
C377 H369 0.951 . S
C377 C372 1.429 . S
C377 C376 1.347 . S
H378 C379 0.951 . S
C379 H378 0.951 . S
C379 C385 1.265 . S
H380 C385 0.950 . S
H381 C389 0.949 . S
H382 C390 0.950 . S
H383 C391 0.951 . S
H384 C392 0.951 . S
C385 C379 1.265 . S
C385 H380 0.950 . S
C385 C386 1.478 . S
C386 C385 1.478 . S
C386 C387 1.397 . S
C386 C403 1.394 . S
C387 C386 1.397 . S
C387 C388 1.438 . S
C387 C392 1.429 . S
C388 C387 1.438 . S
C388 C389 1.428 . S
C388 C401 1.394 . S
C389 H381 0.949 . S
C389 C388 1.428 . S
C389 C390 1.345 . S
C390 H382 0.950 . S
C390 C389 1.345 . S
C390 C391 1.424 . S
C391 H383 0.951 . S
C391 C390 1.424 . S
C391 C392 1.347 . S
C392 H384 0.951 . S
C392 C387 1.429 . S
C392 C391 1.347 . S
H393 C394 0.951 . S
C394 H393 0.951 . S
C394 C400 1.265 . S
H395 C400 0.950 . S
H396 C404 0.949 . S
H397 C405 0.950 . S
H398 C406 0.951 . S
H399 C407 0.951 . S
C400 C394 1.265 . S
C400 H395 0.950 . S
C400 C401 1.478 . S
C401 C388 1.394 . S
C401 C400 1.478 . S
C401 C402 1.397 . S
C402 C401 1.397 . S
C402 C403 1.438 . S
C402 C407 1.429 . S
C403 C386 1.394 . S
C403 C402 1.438 . S
C403 C404 1.428 . S
C404 H396 0.949 . S
C404 C403 1.428 . S
C404 C405 1.345 . S
C405 H397 0.950 . S
C405 C404 1.345 . S
C405 C406 1.424 . S
C406 H398 0.951 . S
C406 C405 1.424 . S
C406 C407 1.347 . S
C407 H399 0.951 . S
C407 C402 1.429 . S
C407 C406 1.347 . S
H408 C409 0.951 . S
C409 H408 0.951 . S
C409 C415 1.265 . S
H410 C415 0.950 . S
H411 C419 0.949 . S
H412 C420 0.950 . S
H413 C421 0.951 . S
H414 C422 0.951 . S
C415 C409 1.265 . S
C415 H410 0.950 . S
C415 C416 1.478 . S
C416 C415 1.478 . S
C416 C417 1.397 1_545 S
C416 C433 1.394 . S
C417 C416 1.397 1_565 S
C417 C418 1.438 . S
C417 C422 1.429 . S
C418 C417 1.438 . S
C418 C419 1.428 . S
C418 C431 1.394 1_565 S
C419 H411 0.949 . S
C419 C418 1.428 . S
C419 C420 1.345 . S
C420 H412 0.950 . S
C420 C419 1.345 . S
C420 C421 1.424 . S
C421 H413 0.951 . S
C421 C420 1.424 . S
C421 C422 1.347 . S
C422 H414 0.951 . S
C422 C417 1.429 . S
C422 C421 1.347 . S
H423 C424 0.951 . S
C424 H423 0.951 . S
C424 C430 1.265 . S
H425 C430 0.950 . S
H426 C434 0.949 . S
H427 C435 0.950 . S
H428 C436 0.951 . S
H429 C437 0.951 . S
C430 C424 1.265 . S
C430 H425 0.950 . S
C430 C431 1.478 . S
C431 C418 1.394 1_545 S
C431 C430 1.478 . S
C431 C432 1.397 . S
C432 C431 1.397 . S
C432 C433 1.438 . S
C432 C437 1.429 . S
C433 C416 1.394 . S
C433 C432 1.438 . S
C433 C434 1.428 . S
C434 H426 0.949 . S
C434 C433 1.428 . S
C434 C435 1.345 . S
C435 H427 0.950 . S
C435 C434 1.345 . S
C435 C436 1.424 . S
C436 H428 0.951 . S
C436 C435 1.424 . S
C436 C437 1.347 . S
C437 H429 0.951 . S
C437 C432 1.429 . S
C437 C436 1.347 . S
H438 C439 0.951 1_556 S
C439 H438 0.951 1_554 S
C439 C445 1.265 . S
H440 C445 0.950 . S
H441 C449 0.949 . S
H442 C450 0.950 . S
H443 C451 0.977 . S
H444 C452 0.951 1_554 S
C445 C439 1.265 . S
C445 H440 0.950 . S
C445 C446 1.478 1_554 S
C446 C445 1.478 1_556 S
C446 C447 1.397 . S
C446 C463 1.394 . S
C447 C446 1.397 . S
C447 C448 1.438 . S
C447 C452 1.429 . S
C448 C447 1.438 . S
C448 C449 1.428 . S
C448 C461 1.394 . S
C449 H441 0.949 . S
C449 C448 1.428 . S
C449 C450 1.345 . S
C450 H442 0.950 . S
C450 C449 1.345 . S
C450 C451 1.424 . S
C451 H443 0.977 . S
C451 C450 1.424 . S
C451 C452 1.347 . S
C452 H444 0.951 1_556 S
C452 C447 1.429 . S
C452 C451 1.347 . S
H453 C454 0.951 . S
C454 H453 0.951 . S
C454 C460 1.265 . S
H455 C460 0.950 . S
H456 C464 0.949 . S
H457 C465 0.950 1_455 S
H458 C466 0.951 . S
H459 C467 0.951 . S
C460 C454 1.265 . S
C460 H455 0.950 . S
C460 C461 1.478 . S
C461 C448 1.394 . S
C461 C460 1.478 . S
C461 C462 1.397 . S
C462 C461 1.397 . S
C462 C463 1.438 . S
C462 C467 1.429 . S
C463 C446 1.394 . S
C463 C462 1.438 . S
C463 C464 1.428 . S
C464 H456 0.949 . S
C464 C463 1.428 . S
C464 C465 1.345 . S
C465 H457 0.950 1_655 S
C465 C464 1.345 . S
C465 C466 1.424 . S
C466 H458 0.951 . S
C466 C465 1.424 . S
C466 C467 1.347 . S
C467 H459 0.951 . S
C467 C462 1.429 . S
C467 C466 1.347 . S
H468 C469 0.951 . S
C469 H468 0.951 . S
C469 C475 1.265 1_655 S
H470 C475 0.950 . S
H471 C479 0.949 . S
H472 C480 0.950 . S
H473 C481 0.951 . S
H474 C482 0.951 . S
C475 C469 1.265 1_455 S
C475 H470 0.950 . S
C475 C476 1.478 . S
C476 C475 1.478 . S
C476 C477 1.397 . S
C476 C493 1.394 1_455 S
C477 C476 1.397 . S
C477 C478 1.438 . S
C477 C482 1.429 . S
C478 C477 1.438 . S
C478 C479 1.428 . S
C478 C491 1.394 . S
C479 H471 0.949 . S
C479 C478 1.428 . S
C479 C480 1.345 . S
C480 H472 0.950 . S
C480 C479 1.345 . S
C480 C481 1.424 . S
C481 H473 0.951 . S
C481 C480 1.424 . S
C481 C482 1.347 . S
C482 H474 0.951 . S
C482 C477 1.429 . S
C482 C481 1.347 . S
H483 C484 0.951 . S
C484 H483 0.951 . S
C484 C490 1.265 1_455 S
H485 C490 0.950 . S
H486 C494 0.949 . S
H487 C495 0.950 . S
H488 C496 0.951 . S
H489 C497 0.951 . S
C490 C484 1.265 1_655 S
C490 H485 0.950 . S
C490 C491 1.478 1_655 S
C491 C478 1.394 . S
C491 C490 1.478 1_455 S
C491 C492 1.397 1_455 S
C492 C491 1.397 1_655 S
C492 C493 1.438 . S
C492 C497 1.429 . S
C493 C476 1.394 1_655 S
C493 C492 1.438 . S
C493 C494 1.428 . S
C494 H486 0.949 . S
C494 C493 1.428 . S
C494 C495 1.345 . S
C495 H487 0.950 . S
C495 C494 1.345 . S
C495 C496 1.424 . S
C496 H488 0.951 . S
C496 C495 1.424 . S
C496 C497 1.347 . S
C497 H489 0.951 . S
C497 C492 1.429 . S
C497 C496 1.347 . S
H498 C499 0.951 . S
C499 H498 0.951 . S
C499 C505 1.265 1_565 S
H500 C505 0.950 . S
H501 C509 0.949 . S
H502 C510 0.950 . S
H503 C511 0.951 . S
H504 C512 0.951 . S
C505 C499 1.265 1_545 S
C505 H500 0.950 . S
C505 C506 1.478 . S
C506 C505 1.478 . S
C506 C507 1.397 . S
C506 C523 1.394 1_545 S
C507 C506 1.397 . S
C507 C508 1.438 . S
C507 C512 1.429 . S
C508 C507 1.438 . S
C508 C509 1.428 . S
C508 C521 1.394 . S
C509 H501 0.949 . S
C509 C508 1.428 . S
C509 C510 1.345 . S
C510 H502 0.950 . S
C510 C509 1.345 . S
C510 C511 1.424 . S
C511 H503 0.951 . S
C511 C510 1.424 . S
C511 C512 1.347 . S
C512 H504 0.951 . S
C512 C507 1.429 . S
C512 C511 1.347 . S
H513 C514 0.951 . S
C514 H513 0.951 . S
C514 C520 1.265 . S
H515 C520 0.950 . S
H516 C524 0.949 . S
H517 C525 0.950 . S
H518 C526 0.951 . S
H519 C527 0.951 . S
C520 C514 1.265 . S
C520 H515 0.950 . S
C520 C521 1.478 . S
C521 C508 1.394 . S
C521 C520 1.478 . S
C521 C522 1.397 1_545 S
C522 C521 1.397 1_565 S
C522 C523 1.438 . S
C522 C527 1.429 . S
C523 C506 1.394 1_565 S
C523 C522 1.438 . S
C523 C524 1.428 . S
C524 H516 0.949 . S
C524 C523 1.428 . S
C524 C525 1.345 . S
C525 H517 0.950 . S
C525 C524 1.345 . S
C525 C526 1.424 . S
C526 H518 0.951 . S
C526 C525 1.424 . S
C526 C527 1.347 . S
C527 H519 0.951 . S
C527 C522 1.429 . S
C527 C526 1.347 . S
H528 C529 0.965 . S
C529 H528 0.965 . S
C529 C535 1.265 1_554 S
H530 C535 0.950 1_554 S
H531 C539 0.949 . S
H532 C540 0.950 . S
H533 C541 0.951 . S
H534 C542 0.951 . S
C535 C529 1.265 1_556 S
C535 H530 0.950 1_556 S
C535 C536 1.478 . S
C536 C535 1.478 . S
C536 C537 1.397 . S
C536 C553 1.394 . S
C537 C536 1.397 . S
C537 C538 1.438 . S
C537 C542 1.429 . S
C538 C537 1.438 . S
C538 C539 1.428 . S
C538 C551 1.394 . S
C539 H531 0.949 . S
C539 C538 1.428 . S
C539 C540 1.345 . S
C540 H532 0.950 . S
C540 C539 1.345 . S
C540 C541 1.424 . S
C541 H533 0.951 . S
C541 C540 1.424 . S
C541 C542 1.347 . S
C542 H534 0.951 . S
C542 C537 1.429 . S
C542 C541 1.347 . S
H543 C544 0.951 . S
C544 H543 0.951 . S
C544 C550 1.265 . S
H545 C550 0.950 . S
H546 C554 0.949 . S
H547 C555 0.950 . S
H548 C556 0.951 . S
H549 C557 0.951 . S
C550 C544 1.265 . S
C550 H545 0.950 . S
C550 C551 1.478 . S
C551 C538 1.394 . S
C551 C550 1.478 . S
C551 C552 1.397 . S
C552 C551 1.397 . S
C552 C553 1.438 . S
C552 C557 1.429 . S
C553 C536 1.394 . S
C553 C552 1.438 . S
C553 C554 1.428 1_556 S
C554 H546 0.949 . S
C554 C553 1.428 1_554 S
C554 C555 1.345 . S
C555 H547 0.950 . S
C555 C554 1.345 . S
C555 C556 1.424 . S
C556 H548 0.951 . S
C556 C555 1.424 . S
C556 C557 1.347 1_554 S
C557 H549 0.951 . S
C557 C552 1.429 . S
C557 C556 1.347 1_556 S
H558 C559 0.951 1_655 S
C559 H558 0.951 1_455 S
C559 C565 1.265 . S
H560 C565 0.950 . S
H561 C569 0.949 . S
H562 C570 0.950 . S
H563 C571 0.951 . S
H564 C572 0.951 . S
C565 C559 1.265 . S
C565 H560 0.950 . S
C565 C566 1.478 . S
C566 C565 1.478 . S
C566 C567 1.397 . S
C566 C583 1.394 . S
C567 C566 1.397 . S
C567 C568 1.438 . S
C567 C572 1.429 . S
C568 C567 1.438 . S
C568 C569 1.428 . S
C568 C581 1.394 . S
C569 H561 0.949 . S
C569 C568 1.428 . S
C569 C570 1.345 . S
C570 H562 0.950 . S
C570 C569 1.345 . S
C570 C571 1.424 . S
C571 H563 0.951 . S
C571 C570 1.424 . S
C571 C572 1.347 . S
C572 H564 0.951 . S
C572 C567 1.429 . S
C572 C571 1.347 . S
H573 C574 0.951 . S
C574 H573 0.951 . S
C574 C580 1.265 . S
H575 C580 0.950 1_655 S
H576 C584 0.949 . S
H577 C585 0.950 . S
H578 C586 0.951 . S
H579 C587 0.951 . S
C580 C574 1.265 . S
C580 H575 0.950 1_455 S
C580 C581 1.478 . S
C581 C568 1.394 . S
C581 C580 1.478 . S
C581 C582 1.397 . S
C582 C581 1.397 . S
C582 C583 1.438 . S
C582 C587 1.429 . S
C583 C566 1.394 . S
C583 C582 1.438 . S
C583 C584 1.428 . S
C584 H576 0.949 . S
C584 C583 1.428 . S
C584 C585 1.345 . S
C585 H577 0.950 . S
C585 C584 1.345 . S
C585 C586 1.424 . S
C586 H578 0.951 . S
C586 C585 1.424 . S
C586 C587 1.347 . S
C587 H579 0.951 . S
C587 C582 1.429 . S
C587 C586 1.347 . S
C244 C95 1.187 . S
C229 C11 1.155 . S
C259 C25 1.221 . S
C274 C139 1.282 . S
C289 C41 1.207 . S
C304 C201 1.320 . S
C319 C7 1.211 . S
C334 C77 1.185 . S
C364 C157 1.267 . S
C349 C21 1.280 . S
C379 C36 1.247 . S
C394 C219 1.293 . S
C424 C133 1.435 . S
C409 C39 1.607 . S
C439 C8 1.581 . S
C454 C195 1.594 . S
C484 C71 1.601 . S
C469 C22 1.689 1_655 S
C514 C151 1.451 . S
C499 C35 1.576 . S
C544 C213 1.573 . S
C529 C13 1.627 . S
C559 C27 1.690 . S
C574 C89 1.575 . S
