# Generated by pormake.
# Topology pth, (4,4)-cn, num edge types: 1
# Building blocks:
#     Node 0, Type 0, BuildingBlock: TATPOV_clean_sbu_0, # of connection points: 4
#     Node 1, Type 0, BuildingBlock: TATPOV_clean_sbu_0, # of connection points: 4
#     Node 2, Type 0, BuildingBlock: TATPOV_clean_sbu_0, # of connection points: 4
#     Node 3, Type 1, BuildingBlock: AZAVOO_clean_linker_0, # of connection points: 4
#     Node 4, Type 1, BuildingBlock: AZAVOO_clean_linker_0, # of connection points: 4
#     Node 5, Type 1, BuildingBlock: AZAVOO_clean_linker_0, # of connection points: 4
#     Edge 6, Type (0, 1), BuildingBlock: UVAHIK_clean_linker_0, # of connection points: 2
#     Edge 7, Type (0, 1), BuildingBlock: UVAHIK_clean_linker_0, # of connection points: 2
#     Edge 8, Type (0, 1), BuildingBlock: UVAHIK_clean_linker_0, # of connection points: 2
#     Edge 9, Type (0, 1), BuildingBlock: UVAHIK_clean_linker_0, # of connection points: 2
#     Edge 10, Type (0, 1), BuildingBlock: UVAHIK_clean_linker_0, # of connection points: 2
#     Edge 11, Type (0, 1), BuildingBlock: UVAHIK_clean_linker_0, # of connection points: 2
#     Edge 12, Type (0, 1), BuildingBlock: UVAHIK_clean_linker_0, # of connection points: 2
#     Edge 13, Type (0, 1), BuildingBlock: UVAHIK_clean_linker_0, # of connection points: 2
#     Edge 14, Type (0, 1), BuildingBlock: UVAHIK_clean_linker_0, # of connection points: 2
#     Edge 15, Type (0, 1), BuildingBlock: UVAHIK_clean_linker_0, # of connection points: 2
#     Edge 16, Type (0, 1), BuildingBlock: UVAHIK_clean_linker_0, # of connection points: 2
#     Edge 17, Type (0, 1), BuildingBlock: UVAHIK_clean_linker_0, # of connection points: 2
# Relax obj value: 0.142
# Max RMSD: 0.230
# Mean RMSD: 0.204
data_MOF--net-pth--node1-TATPOV_clean_sbu_0--node2-AZAVOO_clean_linker_0--edge1-UVAHIK_clean_linker_0
_symmetry_space_group_name_H-M    P1
_symmetry_Int_Tables_number       1
_symmetry_cell_setting            triclinic
loop_
_symmetry_equiv_pos_as_xyz
'x, y, z'
_cell_length_a     32.974955
_cell_length_b     32.795768
_cell_length_c     86.36171
_cell_angle_alpha  93.987122
_cell_angle_beta   91.460472
_cell_angle_gamma 121.16196
loop_
_atom_site_label
_atom_site_type_symbol
_atom_site_fract_x
_atom_site_fract_y
_atom_site_fract_z
_atom_type_partial_charge
Zn0 Zn 0.12227 0.96206 0.06205 0.0
Zn1 Zn 0.10385 0.05937 0.07234 0.0
O2 O 0.06442 0.0179 0.08902 0.0
O3 O 0.0757 0.97556 0.07199 0.0
O4 O 0.12519 0.12685 0.08003 0.0
O5 O 0.19415 0.01247 0.06679 0.0
O6 O 0.1621 0.05566 0.07045 0.0
C7 C 0.06713 0.98133 0.08584 0.0
C8 C 0.07392 0.00569 0.04051 0.0
O9 O 0.07227 0.0355 0.05053 0.0
O10 O 0.09159 0.98017 0.04384 0.0
C11 C 0.10037 0.14568 0.07822 0.0
O12 O 0.06136 0.12261 0.06893 0.0
C13 C 0.19918 0.05353 0.06924 0.0
Zn14 Zn 0.10851 0.06972 0.38194 0.0
Zn15 Zn 0.03623 0.04701 0.4004 0.0
O16 O 0.09476 0.07053 0.41544 0.0
O17 O 0.15419 0.08799 0.40078 0.0
O18 O 0.98656 0.03542 0.41526 0.0
O19 O 0.09887 0.12031 0.37364 0.0
O20 O 0.03609 0.09687 0.38724 0.0
C21 C 0.13844 0.085 0.41413 0.0
C22 C 0.03161 0.969 0.37813 0.0
O23 O 0.0136 0.98139 0.38897 0.0
O24 O 0.07017 3e-05 0.37289 0.0
C25 C 0.97611 0.0058 0.42539 0.0
O26 O 0.99636 0.98026 0.4255 0.0
C27 C 0.06397 0.12375 0.37758 0.0
Zn28 Zn 0.1278 0.01575 0.77135 0.0
Zn29 Zn 0.07287 0.01371 0.74861 0.0
O30 O 0.11757 -0.00115 0.73651 0.0
O31 O 0.16941 0.01095 0.75556 0.0
O32 O 0.02821 0.01333 0.73207 0.0
O33 O 0.07533 0.95644 0.77902 0.0
O34 O 0.02678 0.96024 0.76205 0.0
C35 C 0.15608 0.00181 0.74121 0.0
C36 C 0.13304 0.10408 0.77144 0.0
O37 O 0.10862 0.08383 0.75857 0.0
O38 O 0.14269 0.08065 0.7803 0.0
C39 C 0.04129 0.04767 0.7236 0.0
O40 O 0.08552 0.08371 0.72529 0.0
C41 C 0.03364 0.94048 0.77322 0.0
H42 H 0.0859 0.51311 0.13823 0.0
H43 H 0.1272 0.86759 0.27242 0.0
H44 H 0.99399 0.45345 0.22126 0.0
H45 H 0.99414 0.3892 0.20512 0.0
H46 H 0.14608 0.45945 0.21505 0.0
H47 H 0.14498 0.52226 0.23166 0.0
H48 H 0.02281 0.54274 0.19843 0.0
H49 H 0.03602 0.52678 0.17149 0.0
H50 H 0.18152 0.57339 0.18564 0.0
H51 H 0.1678 0.58934 0.21253 0.0
H52 H 0.03295 0.64881 0.21718 0.0
H53 H 0.0588 0.7161 0.20133 0.0
H54 H 0.19993 0.7387 0.20257 0.0
H55 H 0.17465 0.67274 0.2192 0.0
H56 H -0.00246 0.63386 0.2491 0.0
H57 H 0.00174 0.70835 0.25827 0.0
H58 H 0.15518 0.78192 0.2616 0.0
H59 H 0.15046 0.70703 0.25265 0.0
H60 H 0.96242 0.54001 0.25962 0.0
H61 H 0.92959 0.54798 0.28397 0.0
H62 H 0.07204 0.63738 0.3056 0.0
H63 H 0.10438 0.62812 0.28127 0.0
H64 H 0.97177 0.46667 0.25652 0.0
H65 H 0.95991 0.41538 0.27743 0.0
H66 H 0.11232 0.48321 0.28539 0.0
H67 H 0.12348 0.53545 0.26508 0.0
O68 O 0.08168 0.52041 0.14891 0.0
O69 O 0.15623 0.5449 0.15677 0.0
O70 O 0.04551 0.79775 0.26748 0.0
O71 O 0.1245 0.83749 0.269 0.0
C72 C 0.07116 0.53671 0.23352 0.0
C73 C 0.08495 0.57407 0.22381 0.0
C74 C 0.08643 0.61633 0.22939 0.0
C75 C 0.07126 0.62004 0.24432 0.0
C76 C 0.05493 0.58143 0.25361 0.0
C77 C 0.0566 0.54059 0.24845 0.0
C78 C 0.06954 0.49256 0.22745 0.0
C79 C 0.02692 0.45388 0.22039 0.0
C80 C 0.02724 0.41758 0.21104 0.0
C81 C 0.07031 0.41979 0.20849 0.0
C82 C 0.11227 0.45647 0.21677 0.0
C83 C 0.1118 0.49251 0.22624 0.0
C84 C 0.09434 0.56721 0.20739 0.0
C85 C 0.05759 0.5498 0.19565 0.0
C86 C 0.06521 0.54059 0.18029 0.0
C87 C 0.1098 0.54867 0.17641 0.0
C88 C 0.14674 0.56671 0.18823 0.0
C89 C 0.13905 0.57593 0.20358 0.0
C90 C 0.10193 0.65597 0.21934 0.0
C91 C 0.06956 0.66854 0.21419 0.0
C92 C 0.08428 0.70682 0.20519 0.0
C93 C 0.13128 0.73234 0.20094 0.0
C94 C 0.16358 0.71938 0.20583 0.0
C95 C 0.14909 0.68169 0.21516 0.0
C96 C 0.07367 0.66493 0.25034 0.0
C97 C 0.032 0.66595 0.252 0.0
C98 C 0.03452 0.70863 0.25716 0.0
C99 C 0.07884 0.75115 0.26066 0.0
C100 C 0.1205 0.74988 0.25901 0.0
C101 C 0.11791 0.70714 0.25391 0.0
C102 C 0.03569 0.58358 0.26875 0.0
C103 C 0.9864 0.56051 0.26974 0.0
C104 C 0.96776 0.56518 0.28361 0.0
C105 C -0.00181 0.59325 0.29671 0.0
C106 C 0.04762 0.61483 0.29581 0.0
C107 C 0.06622 0.61006 0.28191 0.0
C108 C 0.04847 0.5049 0.25943 0.0
C109 C 0.00243 0.47018 0.2628 0.0
C110 C 0.99578 0.44089 0.2747 0.0
C111 C 0.03517 0.44576 0.28329 0.0
C112 C 0.08118 0.4794 0.27934 0.0
C113 C 0.08771 0.50881 0.26759 0.0
C114 C 0.1175 0.53799 0.16013 0.0
C115 C 0.08174 0.79673 0.26593 0.0
H116 H 0.59268 0.03057 0.47361 0.0
H117 H 0.33241 0.1028 0.60576 0.0
H118 H 0.59674 0.97578 0.55737 0.0
H119 H 0.65708 0.96857 0.54369 0.0
H120 H 0.75939 0.11794 0.55746 0.0
H121 H 0.6985 0.12471 0.57122 0.0
H122 H 0.52513 0.99265 0.53604 0.0
H123 H 0.54187 0.99526 0.50855 0.0
H124 H 0.66439 0.13798 0.51902 0.0
H125 H 0.64689 0.13507 0.54644 0.0
H126 H 0.44486 0.99611 0.55439 0.0
H127 H 0.39175 0.00488 0.53653 0.0
H128 H 0.50383 0.15029 0.5316 0.0
H129 H 0.55609 0.14158 0.54997 0.0
H130 H 0.44213 0.98388 0.58868 0.0
H131 H 0.37264 0.98428 0.59773 0.0
H132 H 0.44275 0.13587 0.59268 0.0
H133 H 0.51244 0.13511 0.58394 0.0
H134 H 0.51498 0.97077 0.60441 0.0
H135 H 0.47004 0.9517 0.62772 0.0
H136 H 0.51665 0.10096 0.63787 0.0
H137 H 0.56107 0.1197 0.61444 0.0
H138 H 0.60755 0.97975 0.59127 0.0
H139 H 0.66523 0.97943 0.60967 0.0
H140 H 0.71401 0.12571 0.62673 0.0
H141 H 0.65686 0.12588 0.6081 0.0
O142 O 0.58653 0.0304 0.48451 0.0
O143 O 0.64925 0.10361 0.49053 0.0
O144 O 0.32559 0.02403 0.60507 0.0
O145 O 0.3595 0.10167 0.60226 0.0
C146 C 0.60448 0.05648 0.57083 0.0
C147 C 0.57497 0.06154 0.55994 0.0
C148 C 0.53548 0.06339 0.5649 0.0
C149 C 0.52504 0.05937 0.58066 0.0
C150 C 0.55491 0.0548 0.59157 0.0
C151 C 0.59515 0.05424 0.58671 0.0
C152 C 0.6434 0.05075 0.56521 0.0
C153 C 0.63257 0.00655 0.55779 0.0
C154 C 0.66708 0.00249 0.55004 0.0
C155 C 0.71285 0.04276 0.54947 0.0
C156 C 0.72429 0.08644 0.55766 0.0
C157 C 0.68978 0.09033 0.56556 0.0
C158 C 0.58483 0.06363 0.54322 0.0
C159 C 0.55542 0.02451 0.53235 0.0
C160 C 0.56515 0.02607 0.51667 0.0
C161 C 0.60453 0.06681 0.51158 0.0
C162 C 0.63381 0.10603 0.52254 0.0
C163 C 0.62396 0.10445 0.53821 0.0
C164 C 0.50416 0.06828 0.55351 0.0
C165 C 0.45781 0.02986 0.54947 0.0
C166 C 0.42769 0.03486 0.53918 0.0
C167 C 0.44352 0.07834 0.53264 0.0
C168 C 0.4903 0.11659 0.5366 0.0
C169 C 0.52034 0.11159 0.54696 0.0
C170 C 0.48241 0.05953 0.58577 0.0
C171 C 0.4425 0.01718 0.58962 0.0
C172 C 0.4028 0.01749 0.59474 0.0
C173 C 0.40215 0.06015 0.59595 0.0
C174 C 0.44209 0.10243 0.59191 0.0
C175 C 0.4819 0.10211 0.58688 0.0
C176 C 0.54102 0.04654 0.60775 0.0
C177 C 0.517 -0.00042 0.612 0.0
C178 C 0.49107 0.98869 0.62521 0.0
C179 C 0.48957 0.02482 0.63443 0.0
C180 C 0.51748 0.07255 0.63098 0.0
C181 C 0.54291 0.08333 0.61765 0.0
C182 C 0.62829 0.05292 0.59831 0.0
C183 C 0.63071 0.01164 0.59901 0.0
C184 C 0.66344 0.01147 0.60958 0.0
C185 C 0.69435 0.05263 0.61963 0.0
C186 C 0.69121 0.09368 0.61901 0.0
C187 C 0.65841 0.09375 0.60847 0.0
C188 C 0.61494 0.06824 0.49493 0.0
C189 C 0.36004 0.06066 0.60137 0.0
H190 H 0.64432 0.58971 0.01815 0.0
H191 H 0.37092 0.17874 0.89281 0.0
H192 H 0.62014 0.60822 0.93126 0.0
H193 H 0.68336 0.69126 0.93832 0.0
H194 H 0.78814 0.65297 0.92846 0.0
H195 H 0.72422 0.57037 0.92073 0.0
H196 H 0.55851 0.52805 0.95427 0.0
H197 H 0.58307 0.55529 0.98187 0.0
H198 H 0.70835 0.54654 0.97619 0.0
H199 H 0.6831 0.51883 0.94865 0.0
H200 H 0.47438 0.43409 0.93515 0.0
H201 H 0.4297 0.39071 0.95671 0.0
H202 H 0.5451 0.37191 0.971 0.0
H203 H 0.58948 0.41532 0.94941 0.0
H204 H 0.46009 0.41468 0.90065 0.0
H205 H 0.39371 0.33348 0.89268 0.0
H206 H 0.47994 0.27652 0.90682 0.0
H207 H 0.54619 0.35794 0.91456 0.0
H208 H 0.52525 0.50563 0.88693 0.0
H209 H 0.4864 0.48256 0.86087 0.0
H210 H 0.54067 0.38851 0.85202 0.0
H211 H 0.57737 0.4103 0.8787 0.0
H212 H 0.62184 0.59948 0.89683 0.0
H213 H 0.66963 0.64904 0.87676 0.0
H214 H 0.71559 0.54931 0.86556 0.0
H215 H 0.66905 0.50107 0.88597 0.0
O216 O 0.63532 0.57902 0.0072 0.0
O217 O 0.6994 0.57436 0.00361 0.0
O218 O 0.35376 0.24231 0.88872 0.0
O219 O 0.39654 0.21121 0.89589 0.0
C220 C 0.62886 0.53358 0.92113 0.0
C221 C 0.60354 0.50385 0.93277 0.0
C222 C 0.56351 0.45764 0.92849 0.0
C223 C 0.54882 0.44142 0.9126 0.0
C224 C 0.57371 0.4718 0.90104 0.0
C225 C 0.61449 0.5172 0.90528 0.0
C226 C 0.66779 0.5835 0.92558 0.0
C227 C 0.65682 0.61798 0.9306 0.0
C228 C 0.69301 0.66533 0.93468 0.0
C229 C 0.74096 0.67893 0.93401 0.0
C230 C 0.75168 0.64405 0.92886 0.0
C231 C 0.71533 0.59675 0.9246 0.0
C232 C 0.61896 0.52137 0.94947 0.0
C233 C 0.59119 0.53196 0.95902 0.0
C234 C 0.60535 0.54757 0.97478 0.0
C235 C 0.64767 0.55306 0.98125 0.0
C236 C 0.67556 0.5427 0.97159 0.0
C237 C 0.6613 0.52699 0.95585 0.0
C238 C 0.53509 0.42773 0.94072 0.0
C239 C 0.48965 0.41996 0.94282 0.0
C240 C 0.46425 0.39529 0.95513 0.0
C241 C 0.48408 0.37828 0.96561 0.0
C242 C 0.52926 0.38532 0.96327 0.0
C243 C 0.5545 0.40974 0.9509 0.0
C244 C 0.50805 0.39219 0.90805 0.0
C245 C 0.46464 0.38464 0.90193 0.0
C246 C 0.42675 0.3382 0.89744 0.0
C247 C 0.43156 0.29847 0.89907 0.0
C248 C 0.47504 0.30626 0.90537 0.0
C249 C 0.51292 0.35272 0.90982 0.0
C250 C 0.55356 0.45921 0.8847 0.0
C251 C 0.52893 0.48025 0.8793 0.0
C252 C 0.50724 0.46738 0.86428 0.0
C253 C 0.51033 0.43363 0.85418 0.0
C254 C 0.53683 0.414 0.8595 0.0
C255 C 0.55799 0.42645 0.8747 0.0
C256 C 0.64254 0.54708 0.89296 0.0
C257 C 0.64251 0.58862 0.89008 0.0
C258 C 0.66937 0.61652 0.8785 0.0
C259 C 0.69652 0.60318 0.86958 0.0
C260 C 0.69567 0.56099 0.87236 0.0
C261 C 0.66896 0.53327 0.88396 0.0
C262 C 0.66252 0.56945 -0.00199 0.0
C263 C 0.39151 0.24908 0.89424 0.0
C264 C 0.07887 0.20455 0.08869 0.0
C265 C 0.1087 0.18593 0.08944 0.0
C266 C 0.0794 0.23439 0.10115 0.0
C267 C 0.14302 0.3042 0.13881 0.0
H268 H 0.01552 0.2663 0.14963 0.0
C269 C 0.10356 0.37096 0.19726 0.0
C270 C 0.07252 0.38813 0.1958 0.0
C271 C 0.10913 0.34576 0.18456 0.0
C272 C 0.05135 0.27749 0.14672 0.0
H273 H 0.16583 0.1878 0.10321 0.0
H274 H 0.16604 0.23902 0.125 0.0
H275 H 0.02655 0.22888 0.12613 0.0
H276 H 0.02311 0.3922 0.1798 0.0
H277 H 0.03206 0.34762 0.15793 0.0
H278 H 0.16755 0.35256 0.15962 0.0
C279 C 0.14228 0.23073 0.11482 0.0
C280 C 0.05774 0.25633 0.13318 0.0
C281 C 0.14201 0.20118 0.10231 0.0
C282 C 0.04638 0.37849 0.1815 0.0
C283 C 0.05171 0.35314 0.1689 0.0
C284 C 0.13658 0.32531 0.15243 0.0
C285 C 0.10954 0.24596 0.11466 0.0
C286 C 0.10362 0.26975 0.12896 0.0
C287 C 0.08355 0.33703 0.17021 0.0
C288 C 0.09065 0.31246 0.15643 0.0
H289 H 0.05335 0.19411 0.07885 0.0
H290 H 0.05473 0.24678 0.10048 0.0
H291 H 0.17883 0.31537 0.13588 0.0
H292 H 0.12393 0.37747 0.20815 0.0
H293 H 0.13352 0.33324 0.18594 0.0
C294 C 0.92983 0.03656 0.43895 0.0
C295 C 0.94515 0.00375 0.43778 0.0
C296 C 0.9037 0.03741 0.45127 0.0
C297 C 0.87787 0.00229 0.49124 0.0
H298 H 0.78034 0.03313 0.48472 0.0
C299 C 0.75252 0.00098 0.53798 0.0
C300 C 0.74612 0.04024 0.53882 0.0
C301 C 0.77851 0.99542 0.52634 0.0
C302 C 0.80773 0.02482 0.48673 0.0
H303 H 0.94379 0.94507 0.4484 0.0
H304 H 0.89706 0.94582 0.46979 0.0
H305 H 0.8187 0.0219 0.46251 0.0
H306 H 0.76289 0.10507 0.52845 0.0
H307 H 0.80827 0.09539 0.50819 0.0
H308 H 0.86601 0.00464 0.51553 0.0
C309 C 0.90619 0.97158 0.46133 0.0
C310 C 0.82977 0.01842 0.47401 0.0
C311 C 0.93267 0.97092 0.44901 0.0
C312 C 0.76768 0.07475 0.5282 0.0
C313 C 0.79315 0.06893 0.5165 0.0
C314 C 0.85537 0.00821 0.50398 0.0
C315 C 0.89182 0.0052 0.46269 0.0
C316 C 0.86572 0.00793 0.47612 0.0
C317 C 0.79791 0.0287 0.51524 0.0
C318 C 0.82069 0.02036 0.50184 0.0
H319 H 0.93903 0.06253 0.43055 0.0
H320 H 0.89398 0.06433 0.45206 0.0
H321 H 0.90575 0.99472 0.49331 0.0
H322 H 0.73637 0.97395 0.54606 0.0
H323 H 0.78166 0.96407 0.52561 0.0
C324 C 0.94712 0.89085 0.77841 0.0
C325 C 0.99361 0.89967 0.77993 0.0
C326 C 0.91113 0.85557 0.78651 0.0
C327 C 0.89972 0.79547 0.82188 0.0
H328 H 0.7694 0.70611 0.80607 0.0
C329 C 0.77309 0.6424 0.85657 0.0
C330 C 0.72701 0.63396 0.8578 0.0
C331 C 0.80274 0.67279 0.84601 0.0
C332 C 0.8056 0.7312 0.81066 0.0
H333 H 0.03795 0.87597 0.79004 0.0
H334 H 0.9755 0.81444 0.80381 0.0
H335 H 0.82609 0.76249 0.78901 0.0
H336 H 0.67541 0.64972 0.8485 0.0
H337 H 0.72777 0.70368 0.83015 0.0
H338 H 0.87977 0.76478 0.84345 0.0
C339 C 0.96696 0.83555 0.79682 0.0
C340 C 0.83797 0.7634 0.80091 0.0
C341 C 0.00273 0.87075 0.78888 0.0
C342 C 0.71095 0.65596 0.84796 0.0
C343 C 0.7407 0.68641 0.83734 0.0
C344 C 0.86758 0.7635 0.83156 0.0
C345 C 0.92118 0.82857 0.79616 0.0
C346 C 0.88557 0.7954 0.80638 0.0
C347 C 0.78717 0.69567 0.83642 0.0
C348 C 0.82033 0.73055 0.82603 0.0
H349 H 0.93906 0.9125 0.77154 0.0
H350 H 0.87612 0.85092 0.78576 0.0
H351 H 0.93581 0.82053 0.82658 0.0
H352 H 0.78678 0.62641 0.86405 0.0
H353 H 0.83814 0.67867 0.84543 0.0
C354 C 0.08666 0.92251 0.09502 0.0
C355 C 0.07818 0.95982 0.09844 0.0
C356 C 0.10062 0.90469 0.10692 0.0
C357 C 0.09715 0.89516 0.14888 0.0
H358 H 0.19672 0.86687 0.14321 0.0
C359 C 0.14401 0.81184 0.1963 0.0
C360 C 0.14527 0.77125 0.19093 0.0
C361 C 0.14763 0.8442 0.18596 0.0
C362 C 0.16886 0.87457 0.14495 0.0
H363 H 0.0764 0.00692 0.11701 0.0
H364 H 0.10088 0.9759 0.13773 0.0
H365 H 0.1764 0.90287 0.12287 0.0
H366 H 0.15398 0.73344 0.17102 0.0
H367 H 0.15875 0.78904 0.15272 0.0
H368 H 0.08815 0.86553 0.17061 0.0
C369 C 0.09669 0.96039 0.12587 0.0
C370 C 0.15715 0.89501 0.13331 0.0
C371 C 0.08271 0.97815 0.114 0.0
C372 C 0.15329 0.76487 0.17534 0.0
C373 C 0.15618 0.79683 0.16493 0.0
C374 C 0.10867 0.8746 0.16046 0.0
C375 C 0.10615 0.92377 0.12244 0.0
C376 C 0.12067 0.90478 0.13508 0.0
C377 C 0.15147 0.83579 0.17002 0.0
C378 C 0.14413 0.86337 0.15854 0.0
H379 H 0.08286 0.90732 0.08314 0.0
H380 H 0.10671 0.87573 0.10399 0.0
H381 H 0.06853 0.90182 0.15049 0.0
H382 H 0.13806 0.8173 0.20835 0.0
H383 H 0.14502 0.87449 0.19031 0.0
C384 C 0.15142 0.08353 0.44275 0.0
C385 C 0.17011 0.09508 0.42815 0.0
C386 C 0.18045 0.08806 0.45563 0.0
C387 C 0.24079 0.06359 0.47565 0.0
H388 H 0.37098 0.16879 0.4844 0.0
C389 C 0.38062 0.04588 0.51059 0.0
C390 C 0.41128 0.08365 0.52176 0.0
C391 C 0.34998 0.05057 0.50044 0.0
C392 C 0.33454 0.1394 0.4822 0.0
H393 H 0.23443 0.12285 0.41583 0.0
H394 H 0.28495 0.13071 0.43831 0.0
H395 H 0.31971 0.17397 0.46465 0.0
H396 H 0.43336 0.15586 0.53111 0.0
H397 H 0.38023 0.16425 0.51315 0.0
H398 H 0.25578 0.02862 0.49296 0.0
C399 C 0.24792 0.11825 0.4398 0.0
C400 C 0.30535 0.14222 0.47084 0.0
C401 C 0.21887 0.11344 0.42689 0.0
C402 C 0.41071 0.12634 0.52249 0.0
C403 C 0.3802 0.13113 0.51225 0.0
C404 C 0.27005 0.06061 0.4869 0.0
C405 C 0.22878 0.10458 0.45421 0.0
C406 C 0.25839 0.10404 0.4673 0.0
C407 C 0.34945 0.09322 0.50116 0.0
C408 C 0.31743 0.09814 0.49012 0.0
H409 H 0.11404 0.06947 0.44413 0.0
H410 H 0.16489 0.07776 0.46666 0.0
H411 H 0.20489 0.03341 0.47308 0.0
H412 H 0.38075 0.01285 0.50952 0.0
H413 H 0.32726 0.02106 0.49181 0.0
C414 C 0.16915 0.17664 0.79031 0.0
C415 C 0.15855 0.15649 0.7748 0.0
C416 C 0.20583 0.22399 0.79408 0.0
C417 C 0.28728 0.32874 0.7987 0.0
H418 H 0.39526 0.31993 0.78661 0.0
C419 C 0.47277 0.44621 0.8306 0.0
C420 C 0.48209 0.41599 0.83887 0.0
C421 C 0.43844 0.42735 0.81806 0.0
C422 C 0.36568 0.3237 0.78976 0.0
H423 H 0.17445 0.171 0.7509 0.0
H424 H 0.24002 0.25358 0.75758 0.0
H425 H 0.31708 0.26607 0.77313 0.0
H426 H 0.46511 0.34264 0.83941 0.0
H427 H 0.40724 0.31056 0.81717 0.0
H428 H 0.33554 0.38437 0.81601 0.0
C429 C 0.21941 0.23297 0.76676 0.0
C430 C 0.32102 0.29314 0.78201 0.0
C431 C 0.18181 0.18585 0.76296 0.0
C432 C 0.45953 0.36729 0.83333 0.0
C433 C 0.42611 0.34874 0.82058 0.0
C434 C 0.33219 0.36 0.80624 0.0
C435 C 0.2332 0.25153 0.78242 0.0
C436 C 0.28101 0.29368 0.78698 0.0
C437 C 0.41396 0.37823 0.81325 0.0
C438 C 0.37115 0.35593 0.80235 0.0
H439 H 0.15168 0.15464 0.79964 0.0
H440 H 0.2159 0.23729 0.80625 0.0
H441 H 0.25693 0.32967 0.80277 0.0
H442 H 0.49046 0.48416 0.83421 0.0
H443 H 0.42976 0.45075 0.8125 0.0
C444 C 0.95921 0.00954 0.71064 0.0
C445 C 0.0065 0.04812 0.7125 0.0
C446 C 0.92595 0.01066 0.70059 0.0
C447 C 0.91533 0.0701 0.66714 0.0
H448 H 0.78791 0.02249 0.68012 0.0
C449 C 0.77684 0.09284 0.63256 0.0
C450 C 0.73019 0.05303 0.63055 0.0
C451 C 0.81078 0.09303 0.64266 0.0
C452 C 0.8232 0.03549 0.67626 0.0
H453 H 0.05599 0.11806 0.70515 0.0
H454 H -0.00214 0.12018 0.68774 0.0
H455 H 0.84685 0.02129 0.69739 0.0
H456 H 0.68246 0.98248 0.63776 0.0
H457 H 0.74181 0.98257 0.65526 0.0
H458 H 0.89162 0.08438 0.64601 0.0
C459 C 0.9866 0.08878 0.69391 0.0
C460 C 0.85699 0.03476 0.68615 0.0
C461 C 0.01989 0.08765 0.70396 0.0
C462 C 0.71819 0.01352 0.63895 0.0
C463 C 0.75207 0.01379 0.6491 0.0
C464 C 0.88154 0.07091 0.65725 0.0
C465 C 0.93914 0.05041 0.69217 0.0
C466 C 0.90342 0.05185 0.68169 0.0
C467 C 0.79882 0.05348 0.65104 0.0
C468 C 0.83501 0.05343 0.66167 0.0
H469 H 0.94771 0.97845 0.71699 0.0
H470 H 0.88992 0.98016 0.69934 0.0
H471 H 0.95056 0.08296 0.66325 0.0
H472 H 0.78736 0.12367 0.62615 0.0
H473 H 0.84633 0.12434 0.644 0.0
C474 C 0.0722 0.98791 0.012 0.0
C475 C 0.05179 -0.00264 0.02474 0.0
C476 C 0.0473 0.97141 -0.00258 0.0
C477 C 0.93111 0.93696 0.97617 0.0
H478 H 0.94039 0.82931 0.95963 0.0
C479 C 0.77453 0.75354 0.95238 0.0
C480 C 0.77957 0.72868 0.93935 0.0
C481 C 0.81214 0.79849 0.95832 0.0
C482 C 0.93795 0.85984 0.96382 0.0
H483 H 0.99138 0.00078 0.03217 0.0
H484 H 0.94638 0.96909 0.00707 0.0
H485 H 0.00135 0.88902 0.97846 0.0
H486 H 0.82737 0.73318 0.92181 0.0
H487 H 0.89389 0.81106 0.93269 0.0
H488 H 0.86479 0.90427 0.96243 0.0
C489 C 0.98212 0.97571 0.008 0.0
C490 C 0.97314 0.89446 0.97463 0.0
C491 C 0.0077 0.99356 0.02247 0.0
C492 C 0.82259 0.75083 0.93205 0.0
C493 C 0.86049 0.79558 0.93814 0.0
C494 C 0.89535 0.90168 0.96555 0.0
C495 C 0.00076 0.96239 0.99545 0.0
C496 C 0.96928 0.9325 0.98144 0.0
C497 C 0.85581 0.81935 0.9515 0.0
C498 C 0.89773 0.86198 0.95973 0.0
H499 H 0.10672 0.99158 0.01345 0.0
H500 H 0.06358 0.96327 0.98793 0.0
H501 H 0.92753 0.96637 0.98082 0.0
H502 H 0.74231 0.7374 0.95848 0.0
H503 H 0.80794 0.81566 0.96882 0.0
C504 C 0.97494 0.8813 0.38055 0.0
C505 C 0.01069 0.91784 0.37262 0.0
C506 C 0.96076 0.83329 0.37663 0.0
C507 C 0.92714 0.7347 0.35578 0.0
H508 H 0.03613 0.71965 0.35379 0.0
C509 C 0.94584 0.61923 0.3085 0.0
C510 C 0.97921 0.60528 0.31054 0.0
C511 C 0.93588 0.64122 0.32098 0.0
C512 C 0.00482 0.72223 0.35467 0.0
H513 H 0.05701 0.93223 0.3537 0.0
H514 H 0.03247 0.84906 0.34701 0.0
H515 H 0.04586 0.79315 0.36609 0.0
H516 H 0.02362 0.59769 0.32759 0.0
H517 H 0.00595 0.63589 0.34951 0.0
H518 H 0.88658 0.66467 0.34349 0.0
C519 C 0.01603 0.8576 0.35638 0.0
C520 C 0.01063 0.76471 0.3616 0.0
C521 C 0.02991 0.90519 0.36019 0.0
C522 C -0.00142 0.60913 0.32563 0.0
C523 C 0.98835 0.63088 0.33817 0.0
C524 C 0.92124 0.69195 0.34876 0.0
C525 C 0.98244 0.82146 0.36483 0.0
C526 C 0.9725 0.77227 0.36144 0.0
C527 C 0.95906 0.64972 0.33579 0.0
C528 C 0.96068 0.68644 0.34735 0.0
H529 H 0.95937 0.88991 0.39017 0.0
H530 H 0.93449 0.80579 0.3832 0.0
H531 H 0.89717 0.73976 0.35565 0.0
H532 H 0.93043 0.61698 0.29701 0.0
H533 H 0.91346 0.65551 0.31862 0.0
C534 C 0.23438 0.01351 0.73467 0.0
C535 C 0.18666 -0.00357 0.73005 0.0
C536 C 0.26422 0.00988 0.72427 0.0
C537 C 0.27619 0.99303 0.68215 0.0
H538 H 0.37827 0.97699 0.69747 0.0
C539 C 0.406 0.97845 0.64185 0.0
C540 C 0.45409 0.01219 0.64617 0.0
C541 C 0.37119 0.97031 0.65215 0.0
C542 C 0.34989 0.98145 0.69306 0.0
H543 H 0.13254 0.96138 0.71093 0.0
H544 H 0.18436 0.95347 0.6928 0.0
H545 H 0.31968 0.97251 0.71507 0.0
H546 H 0.50382 0.06284 0.66469 0.0
H547 H 0.4428 0.04773 0.68295 0.0
H548 H 0.30639 0.00131 0.66007 0.0
C549 C 0.19904 0.97078 0.70441 0.0
C550 C 0.31644 0.97918 0.70313 0.0
C551 C 0.16923 0.97508 0.7148 0.0
C552 C 0.46698 0.03652 0.66115 0.0
C553 C 0.43218 0.02776 0.67157 0.0
C554 C 0.30923 0.99453 0.67203 0.0
C555 C 0.24702 0.98837 0.709 0.0
C556 C 0.27974 0.986 0.6979 0.0
C557 C 0.38392 0.99528 0.66703 0.0
C558 C 0.34684 0.98963 0.67747 0.0
H559 H 0.24912 0.03069 0.74629 0.0
H560 H 0.30114 0.02497 0.72816 0.0
H561 H 0.24893 -0.00089 0.67773 0.0
H562 H 0.39511 0.95978 0.63026 0.0
H563 H 0.33423 0.94502 0.64841 0.0
C564 C 0.27778 0.09376 0.05768 0.0
C565 C 0.24357 0.09721 0.06607 0.0
C566 C 0.31108 0.13255 0.05015 0.0
C567 C 0.38502 0.22548 0.03751 0.0
H568 H 0.32116 0.27456 0.01352 0.0
C569 C 0.48217 0.36403 0.99378 0.0
C570 C 0.45807 0.35359 0.97904 0.0
C571 C 0.45846 0.3391 0.00627 0.0
C572 C 0.33948 0.26128 0.02016 0.0
H573 H 0.22121 0.14565 0.07483 0.0
H574 H 0.2796 0.21331 0.06181 0.0
H575 H 0.27936 0.22047 0.03322 0.0
H576 H 0.38988 0.30977 0.96594 0.0
H577 H 0.34841 0.26599 0.98777 0.0
H578 H 0.44451 0.26483 0.02403 0.0
C579 C 0.2799 0.18035 0.06071 0.0
C580 C 0.3158 0.23078 0.03157 0.0
C581 C 0.24675 0.14171 0.06826 0.0
C582 C 0.40933 0.31879 0.97718 0.0
C583 C 0.38558 0.29381 0.98969 0.0
C584 C 0.40881 0.25621 0.02616 0.0
C585 C 0.31074 0.17535 0.05095 0.0
C586 C 0.3381 0.21202 0.04021 0.0
C587 C 0.41011 0.30318 0.0043 0.0
C588 C 0.38604 0.27382 0.01719 0.0
H589 H 0.27625 0.05998 0.05578 0.0
H590 H 0.33448 0.12766 0.04271 0.0
H591 H 0.40303 0.21159 0.044 0.0
H592 H 0.5195 0.39144 0.99564 0.0
H593 H 0.47805 0.34771 0.01747 0.0
C594 C 0.0962 0.2051 0.36913 0.0
C595 C 0.05675 0.16006 0.37114 0.0
C596 C 0.09036 0.23908 0.36224 0.0
C597 C -0.00093 0.26606 0.34795 0.0
H598 H 0.09916 0.34408 0.32167 0.0
C599 C 0.99347 0.36701 0.295 0.0
C600 C 0.02897 0.41592 0.29625 0.0
C601 C 0.9917 0.33798 0.30641 0.0
C602 C 0.07117 0.32276 0.32907 0.0
H603 H 0.98017 0.11519 0.36793 0.0
H604 H 0.96986 0.17338 0.3549 0.0
H605 H 0.10702 0.28878 0.33685 0.0
H606 H 0.08756 0.47343 0.31119 0.0
H607 H 0.08562 0.42211 0.33068 0.0
H608 H 0.96222 0.29879 0.33907 0.0
C609 C 0.0053 0.1834 0.35913 0.0
C610 C 0.07572 0.29127 0.33792 0.0
C611 C 0.01111 0.14984 0.36649 0.0
C612 C 0.06067 0.43565 0.30963 0.0
C613 C 0.0593 0.40654 0.32088 0.0
C614 C 0.99408 0.29698 0.33876 0.0
C615 C 0.04501 0.22824 0.35667 0.0
C616 C 0.0399 0.26255 0.34756 0.0
C617 C 0.02559 0.35735 0.31914 0.0
C618 C 0.03027 0.32559 0.32932 0.0
H619 H 0.13171 0.21407 0.37291 0.0
H620 H 0.12168 0.27369 0.36112 0.0
H621 H 0.97099 0.24509 0.35536 0.0
H622 H 0.96864 0.35062 0.28483 0.0
H623 H 0.9657 0.29993 0.30483 0.0
loop_
_geom_bond_atom_site_label_1
_geom_bond_atom_site_label_2
_geom_bond_distance
_geom_bond_site_symmetry_2
_ccdc_geom_bond_type
Zn0 O3 2.031 1_545 S
Zn0 O5 2.049 . S
Zn0 O10 2.067 . S
Zn1 O2 1.962 . S
Zn1 O4 1.986 . S
Zn1 O6 1.996 . S
Zn1 O9 1.943 . S
O2 Zn1 1.962 . S
O2 C7 1.254 . S
O3 Zn0 2.031 1_565 S
O3 C7 1.269 1_565 S
O4 Zn1 1.986 . S
O4 C11 1.262 . S
O5 Zn0 2.049 . S
O5 C13 1.260 . S
O6 Zn1 1.996 . S
O6 C13 1.257 . S
C7 O2 1.254 . S
C7 O3 1.269 1_545 S
C8 O9 1.249 . S
C8 O10 1.270 . S
O9 Zn1 1.943 . S
O9 C8 1.249 . S
O10 Zn0 2.067 . S
O10 C8 1.270 . S
C11 O4 1.262 . S
C11 O12 1.232 . S
O12 C11 1.232 . S
C13 O5 1.260 . S
C13 O6 1.257 . S
Zn14 O17 2.031 . S
Zn14 O19 2.049 . S
Zn14 O24 2.067 . S
Zn15 O16 1.962 . S
Zn15 O18 1.986 1_455 S
Zn15 O20 1.996 . S
Zn15 O23 1.943 1_545 S
O16 Zn15 1.962 . S
O16 C21 1.254 . S
O17 Zn14 2.031 . S
O17 C21 1.269 . S
O18 Zn15 1.986 1_655 S
O18 C25 1.262 . S
O19 Zn14 2.049 . S
O19 C27 1.260 . S
O20 Zn15 1.996 . S
O20 C27 1.257 . S
C21 O16 1.254 . S
C21 O17 1.269 . S
C22 O23 1.249 . S
C22 O24 1.270 1_565 S
O23 Zn15 1.943 1_565 S
O23 C22 1.249 . S
O24 Zn14 2.067 . S
O24 C22 1.270 1_545 S
C25 O18 1.262 . S
C25 O26 1.232 1_545 S
O26 C25 1.232 1_565 S
C27 O19 1.260 . S
C27 O20 1.257 . S
Zn28 O31 2.031 1_565 S
Zn28 O33 2.049 . S
Zn28 O38 2.067 1_565 S
Zn29 O30 1.962 . S
Zn29 O32 1.986 . S
Zn29 O34 1.996 1_545 S
Zn29 O37 1.943 . S
O30 Zn29 1.962 . S
O30 C35 1.254 . S
O31 Zn28 2.031 1_545 S
O31 C35 1.269 . S
O32 Zn29 1.986 . S
O32 C39 1.262 . S
O33 Zn28 2.049 . S
O33 C41 1.260 . S
O34 Zn29 1.996 1_565 S
O34 C41 1.257 . S
C35 O30 1.254 . S
C35 O31 1.269 . S
C36 O37 1.249 . S
C36 O38 1.270 . S
O37 Zn29 1.943 . S
O37 C36 1.249 . S
O38 Zn28 2.067 1_545 S
O38 C36 1.270 . S
C39 O32 1.262 . S
C39 O40 1.232 . S
O40 C39 1.232 . S
C41 O33 1.260 . S
C41 O34 1.257 . S
H42 O68 0.856 . S
H43 O71 0.854 . S
H44 C79 0.930 . S
H45 C80 0.916 1_655 S
H46 C82 0.930 . S
H47 C83 0.930 . S
H48 C85 0.931 . S
H49 C86 0.930 . S
H50 C88 0.930 . S
H51 C89 0.929 . S
H52 C91 0.930 . S
H53 C92 0.931 . S
H54 C94 0.930 . S
H55 C95 0.929 . S
H56 C97 0.931 . S
H57 C98 0.930 . S
H58 C100 0.930 . S
H59 C101 0.932 . S
H60 C103 0.930 1_655 S
H61 C104 0.929 1_655 S
H62 C106 0.931 . S
H63 C107 0.930 . S
H64 C109 0.929 . S
H65 C110 0.931 . S
H66 C112 0.930 . S
H67 C113 0.929 . S
O68 H42 0.856 . S
O68 C114 1.300 . S
O69 C114 1.209 . S
O70 C115 1.199 . S
O71 H43 0.854 . S
O71 C115 1.297 . S
C72 C73 1.404 . S
C72 C77 1.397 . S
C72 C78 1.492 . S
C73 C72 1.404 . S
C73 C74 1.396 . S
C73 C84 1.492 . S
C74 C73 1.396 . S
C74 C75 1.397 . S
C74 C90 1.509 . S
C75 C74 1.397 . S
C75 C76 1.412 . S
C75 C96 1.485 . S
C76 C75 1.412 . S
C76 C77 1.388 . S
C76 C102 1.490 . S
C77 C72 1.397 . S
C77 C76 1.388 . S
C77 C108 1.519 . S
C78 C72 1.492 . S
C78 C79 1.363 . S
C78 C83 1.390 . S
C79 H44 0.930 . S
C79 C78 1.363 . S
C79 C80 1.372 . S
C80 H45 0.916 1_455 S
C80 C79 1.372 . S
C80 C81 1.383 . S
C81 C80 1.383 . S
C81 C82 1.395 . S
C82 H46 0.930 . S
C82 C81 1.395 . S
C82 C83 1.362 . S
C83 H47 0.930 . S
C83 C78 1.390 . S
C83 C82 1.362 . S
C84 C73 1.492 . S
C84 C85 1.377 . S
C84 C89 1.397 . S
C85 H48 0.931 . S
C85 C84 1.377 . S
C85 C86 1.376 . S
C86 H49 0.930 . S
C86 C85 1.376 . S
C86 C87 1.376 . S
C87 C86 1.376 . S
C87 C88 1.378 . S
C87 C114 1.486 . S
C88 H50 0.930 . S
C88 C87 1.378 . S
C88 C89 1.376 . S
C89 H51 0.929 . S
C89 C84 1.397 . S
C89 C88 1.376 . S
C90 C74 1.509 . S
C90 C91 1.391 . S
C90 C95 1.386 . S
C91 H52 0.930 . S
C91 C90 1.391 . S
C91 C92 1.375 . S
C92 H53 0.931 . S
C92 C91 1.375 . S
C92 C93 1.375 . S
C93 C92 1.375 . S
C93 C94 1.361 . S
C94 H54 0.930 . S
C94 C93 1.361 . S
C94 C95 1.399 . S
C95 H55 0.929 . S
C95 C90 1.386 . S
C95 C94 1.399 . S
C96 C75 1.485 . S
C96 C97 1.394 . S
C96 C101 1.360 . S
C97 H56 0.931 . S
C97 C96 1.394 . S
C97 C98 1.372 . S
C98 H57 0.930 . S
C98 C97 1.372 . S
C98 C99 1.397 . S
C99 C98 1.397 . S
C99 C100 1.390 . S
C99 C115 1.476 . S
C100 H58 0.930 . S
C100 C99 1.390 . S
C100 C101 1.366 . S
C101 H59 0.932 . S
C101 C96 1.360 . S
C101 C100 1.366 . S
C102 C76 1.490 . S
C102 C103 1.380 . S
C102 C107 1.386 . S
C103 H60 0.930 1_455 S
C103 C102 1.380 . S
C103 C104 1.381 . S
C104 H61 0.929 1_455 S
C104 C103 1.381 . S
C104 C105 1.371 . S
C105 C104 1.371 . S
C105 C106 1.380 . S
C106 H62 0.931 . S
C106 C105 1.380 . S
C106 C107 1.387 . S
C107 H63 0.930 . S
C107 C102 1.386 . S
C107 C106 1.387 . S
C108 C77 1.519 . S
C108 C109 1.377 . S
C108 C113 1.361 . S
C109 H64 0.929 . S
C109 C108 1.377 . S
C109 C110 1.386 . S
C110 H65 0.931 . S
C110 C109 1.386 . S
C110 C111 1.363 . S
C111 C110 1.363 . S
C111 C112 1.385 . S
C112 H66 0.930 . S
C112 C111 1.385 . S
C112 C113 1.396 . S
C113 H67 0.929 . S
C113 C108 1.361 . S
C113 C112 1.396 . S
C114 O68 1.300 . S
C114 O69 1.209 . S
C114 C87 1.486 . S
C115 O70 1.199 . S
C115 O71 1.297 . S
C115 C99 1.476 . S
H116 O142 0.856 . S
H117 O145 0.854 . S
H118 C153 0.930 1_565 S
H119 C154 0.930 . S
H120 C156 0.930 . S
H121 C157 0.930 . S
H122 C159 0.931 1_565 S
H123 C160 0.930 . S
H124 C162 0.930 . S
H125 C163 0.929 . S
H126 C165 0.930 1_565 S
H127 C166 0.931 . S
H128 C168 0.930 . S
H129 C169 0.929 . S
H130 C171 0.931 1_565 S
H131 C172 0.930 1_565 S
H132 C174 0.930 . S
H133 C175 0.932 . S
H134 C177 0.930 1_565 S
H135 C178 0.929 . S
H136 C180 0.931 . S
H137 C181 0.930 . S
H138 C183 0.929 1_565 S
H139 C184 0.931 1_565 S
H140 C186 0.930 . S
H141 C187 0.929 . S
O142 H116 0.856 . S
O142 C188 1.300 . S
O143 C188 1.209 . S
O144 C189 1.199 . S
O145 H117 0.854 . S
O145 C189 1.297 . S
C146 C147 1.404 . S
C146 C151 1.397 . S
C146 C152 1.492 . S
C147 C146 1.404 . S
C147 C148 1.396 . S
C147 C158 1.492 . S
C148 C147 1.396 . S
C148 C149 1.397 . S
C148 C164 1.509 . S
C149 C148 1.397 . S
C149 C150 1.412 . S
C149 C170 1.485 . S
C150 C149 1.412 . S
C150 C151 1.388 . S
C150 C176 1.490 . S
C151 C146 1.397 . S
C151 C150 1.388 . S
C151 C182 1.519 . S
C152 C146 1.492 . S
C152 C153 1.363 . S
C152 C157 1.390 . S
C153 H118 0.930 1_545 S
C153 C152 1.363 . S
C153 C154 1.372 1_545 S
C154 H119 0.930 . S
C154 C153 1.372 1_565 S
C154 C155 1.383 1_565 S
C155 C154 1.383 1_545 S
C155 C156 1.395 . S
C156 H120 0.930 . S
C156 C155 1.395 . S
C156 C157 1.362 . S
C157 H121 0.930 . S
C157 C152 1.390 . S
C157 C156 1.362 . S
C158 C147 1.492 . S
C158 C159 1.377 . S
C158 C163 1.397 . S
C159 H122 0.931 1_545 S
C159 C158 1.377 . S
C159 C160 1.376 . S
C160 H123 0.930 . S
C160 C159 1.376 . S
C160 C161 1.376 . S
C161 C160 1.376 . S
C161 C162 1.378 . S
C161 C188 1.486 . S
C162 H124 0.930 . S
C162 C161 1.378 . S
C162 C163 1.376 . S
C163 H125 0.929 . S
C163 C158 1.397 . S
C163 C162 1.376 . S
C164 C148 1.509 . S
C164 C165 1.391 . S
C164 C169 1.386 . S
C165 H126 0.930 1_545 S
C165 C164 1.391 . S
C165 C166 1.375 . S
C166 H127 0.931 . S
C166 C165 1.375 . S
C166 C167 1.375 . S
C167 C166 1.375 . S
C167 C168 1.361 . S
C168 H128 0.930 . S
C168 C167 1.361 . S
C168 C169 1.399 . S
C169 H129 0.929 . S
C169 C164 1.386 . S
C169 C168 1.399 . S
C170 C149 1.485 . S
C170 C171 1.394 . S
C170 C175 1.360 . S
C171 H130 0.931 1_545 S
C171 C170 1.394 . S
C171 C172 1.372 . S
C172 H131 0.930 1_545 S
C172 C171 1.372 . S
C172 C173 1.397 . S
C173 C172 1.397 . S
C173 C174 1.390 . S
C173 C189 1.476 . S
C174 H132 0.930 . S
C174 C173 1.390 . S
C174 C175 1.366 . S
C175 H133 0.932 . S
C175 C170 1.360 . S
C175 C174 1.366 . S
C176 C150 1.490 . S
C176 C177 1.380 . S
C176 C181 1.386 . S
C177 H134 0.930 1_545 S
C177 C176 1.380 . S
C177 C178 1.381 1_545 S
C178 H135 0.929 . S
C178 C177 1.381 1_565 S
C178 C179 1.371 1_565 S
C179 C178 1.371 1_545 S
C179 C180 1.380 . S
C180 H136 0.931 . S
C180 C179 1.380 . S
C180 C181 1.387 . S
C181 H137 0.930 . S
C181 C176 1.386 . S
C181 C180 1.387 . S
C182 C151 1.519 . S
C182 C183 1.377 . S
C182 C187 1.361 . S
C183 H138 0.929 1_545 S
C183 C182 1.377 . S
C183 C184 1.386 . S
C184 H139 0.931 1_545 S
C184 C183 1.386 . S
C184 C185 1.363 . S
C185 C184 1.363 . S
C185 C186 1.385 . S
C186 H140 0.930 . S
C186 C185 1.385 . S
C186 C187 1.396 . S
C187 H141 0.929 . S
C187 C182 1.361 . S
C187 C186 1.396 . S
C188 O142 1.300 . S
C188 O143 1.209 . S
C188 C161 1.486 . S
C189 O144 1.199 . S
C189 O145 1.297 . S
C189 C173 1.476 . S
H190 O216 0.856 . S
H191 O219 0.854 . S
H192 C227 0.930 . S
H193 C228 0.930 . S
H194 C230 0.930 . S
H195 C231 0.930 . S
H196 C233 0.931 . S
H197 C234 0.930 . S
H198 C236 0.930 . S
H199 C237 0.929 . S
H200 C239 0.930 . S
H201 C240 0.931 . S
H202 C242 0.930 . S
H203 C243 0.929 . S
H204 C245 0.931 . S
H205 C246 0.930 . S
H206 C248 0.930 . S
H207 C249 0.932 . S
H208 C251 0.930 . S
H209 C252 0.929 . S
H210 C254 0.931 . S
H211 C255 0.930 . S
H212 C257 0.929 . S
H213 C258 0.931 . S
H214 C260 0.930 . S
H215 C261 0.929 . S
O216 H190 0.856 . S
O216 C262 1.300 . S
O217 C262 1.209 . S
O218 C263 1.199 . S
O219 H191 0.854 . S
O219 C263 1.297 . S
C220 C221 1.404 . S
C220 C225 1.397 . S
C220 C226 1.492 . S
C221 C220 1.404 . S
C221 C222 1.396 . S
C221 C232 1.492 . S
C222 C221 1.396 . S
C222 C223 1.397 . S
C222 C238 1.509 . S
C223 C222 1.397 . S
C223 C224 1.412 . S
C223 C244 1.485 . S
C224 C223 1.412 . S
C224 C225 1.388 . S
C224 C250 1.490 . S
C225 C220 1.397 . S
C225 C224 1.388 . S
C225 C256 1.519 . S
C226 C220 1.492 . S
C226 C227 1.363 . S
C226 C231 1.390 . S
C227 H192 0.930 . S
C227 C226 1.363 . S
C227 C228 1.372 . S
C228 H193 0.930 . S
C228 C227 1.372 . S
C228 C229 1.383 . S
C229 C228 1.383 . S
C229 C230 1.395 . S
C230 H194 0.930 . S
C230 C229 1.395 . S
C230 C231 1.362 . S
C231 H195 0.930 . S
C231 C226 1.390 . S
C231 C230 1.362 . S
C232 C221 1.492 . S
C232 C233 1.377 . S
C232 C237 1.397 . S
C233 H196 0.931 . S
C233 C232 1.377 . S
C233 C234 1.376 . S
C234 H197 0.930 . S
C234 C233 1.376 . S
C234 C235 1.376 . S
C235 C234 1.376 . S
C235 C236 1.378 . S
C235 C262 1.486 1_556 S
C236 H198 0.930 . S
C236 C235 1.378 . S
C236 C237 1.376 . S
C237 H199 0.929 . S
C237 C232 1.397 . S
C237 C236 1.376 . S
C238 C222 1.509 . S
C238 C239 1.391 . S
C238 C243 1.386 . S
C239 H200 0.930 . S
C239 C238 1.391 . S
C239 C240 1.375 . S
C240 H201 0.931 . S
C240 C239 1.375 . S
C240 C241 1.375 . S
C241 C240 1.375 . S
C241 C242 1.361 . S
C242 H202 0.930 . S
C242 C241 1.361 . S
C242 C243 1.399 . S
C243 H203 0.929 . S
C243 C238 1.386 . S
C243 C242 1.399 . S
C244 C223 1.485 . S
C244 C245 1.394 . S
C244 C249 1.360 . S
C245 H204 0.931 . S
C245 C244 1.394 . S
C245 C246 1.372 . S
C246 H205 0.930 . S
C246 C245 1.372 . S
C246 C247 1.397 . S
C247 C246 1.397 . S
C247 C248 1.390 . S
C247 C263 1.476 . S
C248 H206 0.930 . S
C248 C247 1.390 . S
C248 C249 1.366 . S
C249 H207 0.932 . S
C249 C244 1.360 . S
C249 C248 1.366 . S
C250 C224 1.490 . S
C250 C251 1.380 . S
C250 C255 1.386 . S
C251 H208 0.930 . S
C251 C250 1.380 . S
C251 C252 1.381 . S
C252 H209 0.929 . S
C252 C251 1.381 . S
C252 C253 1.371 . S
C253 C252 1.371 . S
C253 C254 1.380 . S
C254 H210 0.931 . S
C254 C253 1.380 . S
C254 C255 1.387 . S
C255 H211 0.930 . S
C255 C250 1.386 . S
C255 C254 1.387 . S
C256 C225 1.519 . S
C256 C257 1.377 . S
C256 C261 1.361 . S
C257 H212 0.929 . S
C257 C256 1.377 . S
C257 C258 1.386 . S
C258 H213 0.931 . S
C258 C257 1.386 . S
C258 C259 1.363 . S
C259 C258 1.363 . S
C259 C260 1.385 . S
C260 H214 0.930 . S
C260 C259 1.385 . S
C260 C261 1.396 . S
C261 H215 0.929 . S
C261 C256 1.361 . S
C261 C260 1.396 . S
C262 O216 1.300 . S
C262 O217 1.209 . S
C262 C235 1.486 1_554 S
C263 O218 1.199 . S
C263 O219 1.297 . S
C263 C247 1.476 . S
C264 C265 1.349 . S
C264 C266 1.327 . S
C264 H289 0.950 . S
C265 C264 1.349 . S
C265 C281 1.349 . S
C266 C264 1.327 . S
C266 C285 1.429 . S
C266 H290 0.950 . S
C267 C284 1.574 . S
C267 C286 1.368 . S
C267 H291 0.949 . S
H268 C272 0.949 . S
C269 C270 1.349 . S
C269 C271 1.327 . S
C269 H292 0.950 . S
C270 C269 1.349 . S
C270 C282 1.349 . S
C271 C269 1.327 . S
C271 C287 1.429 . S
C271 H293 0.950 . S
C272 H268 0.949 . S
C272 C280 1.574 . S
C272 C288 1.368 . S
H273 C281 0.950 . S
H274 C279 0.950 . S
H275 C280 0.949 . S
H276 C282 0.950 . S
H277 C283 0.950 . S
H278 C284 0.949 . S
C279 H274 0.950 . S
C279 C281 1.327 . S
C279 C285 1.429 . S
C280 C272 1.574 . S
C280 H275 0.949 . S
C280 C286 1.368 . S
C281 C265 1.349 . S
C281 H273 0.950 . S
C281 C279 1.327 . S
C282 C270 1.349 . S
C282 H276 0.950 . S
C282 C283 1.327 . S
C283 H277 0.950 . S
C283 C282 1.327 . S
C283 C287 1.429 . S
C284 C267 1.574 . S
C284 H278 0.949 . S
C284 C288 1.368 . S
C285 C266 1.429 . S
C285 C279 1.429 . S
C285 C286 1.523 . S
C286 C267 1.368 . S
C286 C280 1.368 . S
C286 C285 1.523 . S
C287 C271 1.429 . S
C287 C283 1.429 . S
C287 C288 1.523 . S
C288 C272 1.368 . S
C288 C284 1.368 . S
C288 C287 1.523 . S
H289 C264 0.950 . S
H290 C266 0.950 . S
H291 C267 0.949 . S
H292 C269 0.950 . S
H293 C271 0.950 . S
C294 C295 1.349 . S
C294 C296 1.327 . S
C294 H319 0.950 . S
C295 C294 1.349 . S
C295 C311 1.349 1_545 S
C296 C294 1.327 . S
C296 C315 1.429 . S
C296 H320 0.950 . S
C297 C314 1.574 . S
C297 C316 1.368 1_565 S
C297 H321 0.949 . S
H298 C302 0.949 . S
C299 C300 1.349 1_565 S
C299 C301 1.327 . S
C299 H322 0.950 . S
C300 C299 1.349 1_545 S
C300 C312 1.349 . S
C301 C299 1.327 . S
C301 C317 1.429 1_565 S
C301 H323 0.950 . S
C302 H298 0.949 . S
C302 C310 1.574 . S
C302 C318 1.368 . S
H303 C311 0.950 . S
H304 C309 0.950 . S
H305 C310 0.949 . S
H306 C312 0.950 . S
H307 C313 0.950 . S
H308 C314 0.949 . S
C309 H304 0.950 . S
C309 C311 1.327 . S
C309 C315 1.429 1_565 S
C310 C302 1.574 . S
C310 H305 0.949 . S
C310 C316 1.368 . S
C311 C295 1.349 1_565 S
C311 H303 0.950 . S
C311 C309 1.327 . S
C312 C300 1.349 . S
C312 H306 0.950 . S
C312 C313 1.327 . S
C313 H307 0.950 . S
C313 C312 1.327 . S
C313 C317 1.429 . S
C314 C297 1.574 . S
C314 H308 0.949 . S
C314 C318 1.368 1_565 S
C315 C296 1.429 . S
C315 C309 1.429 1_545 S
C315 C316 1.523 . S
C316 C297 1.368 1_545 S
C316 C310 1.368 . S
C316 C315 1.523 . S
C317 C301 1.429 1_545 S
C317 C313 1.429 . S
C317 C318 1.523 . S
C318 C302 1.368 . S
C318 C314 1.368 1_545 S
C318 C317 1.523 . S
H319 C294 0.950 . S
H320 C296 0.950 . S
H321 C297 0.949 . S
H322 C299 0.950 . S
H323 C301 0.950 . S
C324 C325 1.349 1_655 S
C324 C326 1.327 . S
C324 H349 0.950 . S
C325 C324 1.349 1_455 S
C325 C341 1.349 . S
C326 C324 1.327 . S
C326 C345 1.429 . S
C326 H350 0.950 . S
C327 C344 1.574 . S
C327 C346 1.368 . S
C327 H351 0.949 . S
H328 C332 0.949 . S
C329 C330 1.349 . S
C329 C331 1.327 . S
C329 H352 0.950 . S
C330 C329 1.349 . S
C330 C342 1.349 . S
C331 C329 1.327 . S
C331 C347 1.429 . S
C331 H353 0.950 . S
C332 H328 0.949 . S
C332 C340 1.574 . S
C332 C348 1.368 . S
H333 C341 0.950 . S
H334 C339 0.950 1_455 S
H335 C340 0.949 . S
H336 C342 0.950 . S
H337 C343 0.950 . S
H338 C344 0.949 . S
C339 H334 0.950 1_655 S
C339 C341 1.327 1_655 S
C339 C345 1.429 . S
C340 C332 1.574 . S
C340 H335 0.949 . S
C340 C346 1.368 . S
C341 C325 1.349 . S
C341 H333 0.950 . S
C341 C339 1.327 1_455 S
C342 C330 1.349 . S
C342 H336 0.950 . S
C342 C343 1.327 . S
C343 H337 0.950 . S
C343 C342 1.327 . S
C343 C347 1.429 . S
C344 C327 1.574 . S
C344 H338 0.949 . S
C344 C348 1.368 . S
C345 C326 1.429 . S
C345 C339 1.429 . S
C345 C346 1.523 . S
C346 C327 1.368 . S
C346 C340 1.368 . S
C346 C345 1.523 . S
C347 C331 1.429 . S
C347 C343 1.429 . S
C347 C348 1.523 . S
C348 C332 1.368 . S
C348 C344 1.368 . S
C348 C347 1.523 . S
H349 C324 0.950 . S
H350 C326 0.950 . S
H351 C327 0.949 . S
H352 C329 0.950 . S
H353 C331 0.950 . S
C354 C355 1.349 . S
C354 C356 1.327 . S
C354 H379 0.950 . S
C355 C354 1.349 . S
C355 C371 1.349 1_565 S
C356 C354 1.327 . S
C356 C375 1.429 . S
C356 H380 0.950 . S
C357 C374 1.574 . S
C357 C376 1.368 . S
C357 H381 0.949 . S
H358 C362 0.949 . S
C359 C360 1.349 . S
C359 C361 1.327 . S
C359 H382 0.950 . S
C360 C359 1.349 . S
C360 C372 1.349 . S
C361 C359 1.327 . S
C361 C377 1.429 . S
C361 H383 0.950 . S
C362 H358 0.949 . S
C362 C370 1.574 . S
C362 C378 1.368 . S
H363 C371 0.950 . S
H364 C369 0.950 . S
H365 C370 0.949 . S
H366 C372 0.950 . S
H367 C373 0.950 . S
H368 C374 0.949 . S
C369 H364 0.950 . S
C369 C371 1.327 1_565 S
C369 C375 1.429 . S
C370 C362 1.574 . S
C370 H365 0.949 . S
C370 C376 1.368 . S
C371 C355 1.349 1_545 S
C371 H363 0.950 . S
C371 C369 1.327 1_545 S
C372 C360 1.349 . S
C372 H366 0.950 . S
C372 C373 1.327 . S
C373 H367 0.950 . S
C373 C372 1.327 . S
C373 C377 1.429 . S
C374 C357 1.574 . S
C374 H368 0.949 . S
C374 C378 1.368 . S
C375 C356 1.429 . S
C375 C369 1.429 . S
C375 C376 1.523 . S
C376 C357 1.368 . S
C376 C370 1.368 . S
C376 C375 1.523 . S
C377 C361 1.429 . S
C377 C373 1.429 . S
C377 C378 1.523 . S
C378 C362 1.368 . S
C378 C374 1.368 . S
C378 C377 1.523 . S
H379 C354 0.950 . S
H380 C356 0.950 . S
H381 C357 0.949 . S
H382 C359 0.950 . S
H383 C361 0.950 . S
C384 C385 1.349 . S
C384 C386 1.327 . S
C384 H409 0.950 . S
C385 C384 1.349 . S
C385 C401 1.349 . S
C386 C384 1.327 . S
C386 C405 1.429 . S
C386 H410 0.950 . S
C387 C404 1.574 . S
C387 C406 1.368 . S
C387 H411 0.949 . S
H388 C392 0.949 . S
C389 C390 1.349 . S
C389 C391 1.327 . S
C389 H412 0.950 . S
C390 C389 1.349 . S
C390 C402 1.349 . S
C391 C389 1.327 . S
C391 C407 1.429 . S
C391 H413 0.950 . S
C392 H388 0.949 . S
C392 C400 1.574 . S
C392 C408 1.368 . S
H393 C401 0.950 . S
H394 C399 0.950 . S
H395 C400 0.949 . S
H396 C402 0.950 . S
H397 C403 0.950 . S
H398 C404 0.949 . S
C399 H394 0.950 . S
C399 C401 1.327 . S
C399 C405 1.429 . S
C400 C392 1.574 . S
C400 H395 0.949 . S
C400 C406 1.368 . S
C401 C385 1.349 . S
C401 H393 0.950 . S
C401 C399 1.327 . S
C402 C390 1.349 . S
C402 H396 0.950 . S
C402 C403 1.327 . S
C403 H397 0.950 . S
C403 C402 1.327 . S
C403 C407 1.429 . S
C404 C387 1.574 . S
C404 H398 0.949 . S
C404 C408 1.368 . S
C405 C386 1.429 . S
C405 C399 1.429 . S
C405 C406 1.523 . S
C406 C387 1.368 . S
C406 C400 1.368 . S
C406 C405 1.523 . S
C407 C391 1.429 . S
C407 C403 1.429 . S
C407 C408 1.523 . S
C408 C392 1.368 . S
C408 C404 1.368 . S
C408 C407 1.523 . S
H409 C384 0.950 . S
H410 C386 0.950 . S
H411 C387 0.949 . S
H412 C389 0.950 . S
H413 C391 0.950 . S
C414 C415 1.349 . S
C414 C416 1.327 . S
C414 H439 0.950 . S
C415 C414 1.349 . S
C415 C431 1.349 . S
C416 C414 1.327 . S
C416 C435 1.429 . S
C416 H440 0.950 . S
C417 C434 1.574 . S
C417 C436 1.368 . S
C417 H441 0.949 . S
H418 C422 0.949 . S
C419 C420 1.349 . S
C419 C421 1.327 . S
C419 H442 0.950 . S
C420 C419 1.349 . S
C420 C432 1.349 . S
C421 C419 1.327 . S
C421 C437 1.429 . S
C421 H443 0.950 . S
C422 H418 0.949 . S
C422 C430 1.574 . S
C422 C438 1.368 . S
H423 C431 0.950 . S
H424 C429 0.950 . S
H425 C430 0.949 . S
H426 C432 0.950 . S
H427 C433 0.950 . S
H428 C434 0.949 . S
C429 H424 0.950 . S
C429 C431 1.327 . S
C429 C435 1.429 . S
C430 C422 1.574 . S
C430 H425 0.949 . S
C430 C436 1.368 . S
C431 C415 1.349 . S
C431 H423 0.950 . S
C431 C429 1.327 . S
C432 C420 1.349 . S
C432 H426 0.950 . S
C432 C433 1.327 . S
C433 H427 0.950 . S
C433 C432 1.327 . S
C433 C437 1.429 . S
C434 C417 1.574 . S
C434 H428 0.949 . S
C434 C438 1.368 . S
C435 C416 1.429 . S
C435 C429 1.429 . S
C435 C436 1.523 . S
C436 C417 1.368 . S
C436 C430 1.368 . S
C436 C435 1.523 . S
C437 C421 1.429 . S
C437 C433 1.429 . S
C437 C438 1.523 . S
C438 C422 1.368 . S
C438 C434 1.368 . S
C438 C437 1.523 . S
H439 C414 0.950 . S
H440 C416 0.950 . S
H441 C417 0.949 . S
H442 C419 0.950 . S
H443 C421 0.950 . S
C444 C445 1.349 . S
C444 C446 1.327 . S
C444 H469 0.950 1_545 S
C445 C444 1.349 . S
C445 C461 1.348 . S
C446 C444 1.327 . S
C446 C465 1.429 . S
C446 H470 0.950 1_545 S
C447 C464 1.574 . S
C447 C466 1.368 . S
C447 H471 0.949 . S
H448 C452 0.949 1_565 S
C449 C450 1.349 . S
C449 C451 1.327 . S
C449 H472 0.950 . S
C450 C449 1.349 . S
C450 C462 1.349 . S
C451 C449 1.327 . S
C451 C467 1.429 . S
C451 H473 0.950 . S
C452 H448 0.949 1_545 S
C452 C460 1.574 . S
C452 C468 1.368 . S
H453 C461 0.946 1_455 S
H454 C459 0.950 . S
H455 C460 0.949 1_565 S
H456 C462 0.949 . S
H457 C463 0.950 1_565 S
H458 C464 0.949 . S
C459 H454 0.950 . S
C459 C461 1.332 . S
C459 C465 1.429 . S
C460 C452 1.574 . S
C460 H455 0.949 1_545 S
C460 C466 1.368 . S
C461 C445 1.348 . S
C461 H453 0.946 1_655 S
C461 C459 1.332 . S
C462 C450 1.349 . S
C462 H456 0.949 . S
C462 C463 1.327 . S
C463 H457 0.950 1_545 S
C463 C462 1.327 . S
C463 C467 1.429 . S
C464 C447 1.574 . S
C464 H458 0.949 . S
C464 C468 1.368 . S
C465 C446 1.429 . S
C465 C459 1.429 . S
C465 C466 1.523 . S
C466 C447 1.368 . S
C466 C460 1.368 . S
C466 C465 1.523 . S
C467 C451 1.429 . S
C467 C463 1.429 . S
C467 C468 1.523 . S
C468 C452 1.368 . S
C468 C464 1.368 . S
C468 C467 1.523 . S
H469 C444 0.950 1_565 S
H470 C446 0.950 1_565 S
H471 C447 0.949 . S
H472 C449 0.950 . S
H473 C451 0.950 . S
C474 C475 1.349 . S
C474 C476 1.327 . S
C474 H499 0.950 1_565 S
C475 C474 1.349 . S
C475 C491 1.349 1_455 S
C476 C474 1.327 . S
C476 C495 1.429 1_455 S
C476 H500 0.950 . S
C477 C494 1.574 . S
C477 C496 1.368 . S
C477 H501 0.949 . S
H478 C482 0.949 . S
C479 C480 1.349 . S
C479 C481 1.327 . S
C479 H502 0.950 . S
C480 C479 1.349 . S
C480 C492 1.349 . S
C481 C479 1.327 . S
C481 C497 1.429 . S
C481 H503 0.950 . S
C482 H478 0.949 . S
C482 C490 1.530 1_556 S
C482 C498 1.368 . S
H483 C491 0.950 . S
H484 C489 0.950 . S
H485 C490 0.939 1_556 S
H486 C492 0.950 . S
H487 C493 0.950 . S
H488 C494 0.949 . S
C489 H484 0.950 . S
C489 C491 1.327 . S
C489 C495 1.429 . S
C490 C482 1.530 1_554 S
C490 H485 0.939 1_554 S
C490 C496 1.426 . S
C491 C475 1.349 1_655 S
C491 H483 0.950 . S
C491 C489 1.327 . S
C492 C480 1.349 . S
C492 H486 0.950 . S
C492 C493 1.327 . S
C493 H487 0.950 . S
C493 C492 1.327 . S
C493 C497 1.429 . S
C494 C477 1.574 . S
C494 H488 0.949 . S
C494 C498 1.368 1_554 S
C495 C476 1.429 1_655 S
C495 C489 1.429 . S
C495 C496 1.523 . S
C496 C477 1.368 . S
C496 C490 1.426 . S
C496 C495 1.523 . S
C497 C481 1.429 . S
C497 C493 1.429 . S
C497 C498 1.523 . S
C498 C482 1.368 . S
C498 C494 1.368 1_556 S
C498 C497 1.523 . S
H499 C474 0.950 1_545 S
H500 C476 0.950 . S
H501 C477 0.949 . S
H502 C479 0.950 . S
H503 C481 0.950 . S
C504 C505 1.349 . S
C504 C506 1.327 . S
C504 H529 0.950 . S
C505 C504 1.349 . S
C505 C521 1.349 1_455 S
C506 C504 1.327 . S
C506 C525 1.429 . S
C506 H530 0.950 . S
C507 C524 1.574 . S
C507 C526 1.368 1_655 S
C507 H531 0.949 . S
H508 C512 0.949 . S
C509 C510 1.349 1_655 S
C509 C511 1.327 . S
C509 H532 0.950 . S
C510 C509 1.349 1_455 S
C510 C522 1.349 . S
C511 C509 1.327 . S
C511 C527 1.429 1_655 S
C511 H533 0.950 . S
C512 H508 0.949 . S
C512 C520 1.574 . S
C512 C528 1.368 . S
H513 C521 0.950 . S
H514 C519 0.950 . S
H515 C520 0.949 . S
H516 C522 0.950 . S
H517 C523 0.950 . S
H518 C524 0.949 . S
C519 H514 0.950 . S
C519 C521 1.327 . S
C519 C525 1.429 1_655 S
C520 C512 1.574 . S
C520 H515 0.949 . S
C520 C526 1.368 . S
C521 C505 1.349 1_655 S
C521 H513 0.950 . S
C521 C519 1.327 . S
C522 C510 1.349 . S
C522 H516 0.950 . S
C522 C523 1.327 . S
C523 H517 0.950 . S
C523 C522 1.327 . S
C523 C527 1.429 . S
C524 C507 1.574 . S
C524 H518 0.949 . S
C524 C528 1.368 1_655 S
C525 C506 1.429 . S
C525 C519 1.429 1_455 S
C525 C526 1.523 . S
C526 C507 1.368 1_455 S
C526 C520 1.368 . S
C526 C525 1.523 . S
C527 C511 1.429 1_455 S
C527 C523 1.429 . S
C527 C528 1.523 . S
C528 C512 1.368 . S
C528 C524 1.368 1_455 S
C528 C527 1.523 . S
H529 C504 0.950 . S
H530 C506 0.950 . S
H531 C507 0.949 . S
H532 C509 0.950 . S
H533 C511 0.950 . S
C534 C535 1.349 . S
C534 C536 1.327 . S
C534 H559 0.950 . S
C535 C534 1.349 . S
C535 C551 1.349 1_545 S
C536 C534 1.327 . S
C536 C555 1.429 . S
C536 H560 0.950 . S
C537 C554 1.574 . S
C537 C556 1.368 1_565 S
C537 H561 0.949 . S
H538 C542 0.949 . S
C539 C540 1.349 1_565 S
C539 C541 1.327 . S
C539 H562 0.950 . S
C540 C539 1.349 1_545 S
C540 C552 1.349 . S
C541 C539 1.327 . S
C541 C557 1.429 1_565 S
C541 H563 0.950 . S
C542 H538 0.949 . S
C542 C550 1.574 . S
C542 C558 1.368 . S
H543 C551 0.950 . S
H544 C549 0.950 . S
H545 C550 0.949 . S
H546 C552 0.950 . S
H547 C553 0.950 . S
H548 C554 0.949 . S
C549 H544 0.950 . S
C549 C551 1.327 . S
C549 C555 1.429 1_565 S
C550 C542 1.574 . S
C550 H545 0.949 . S
C550 C556 1.368 . S
C551 C535 1.349 1_565 S
C551 H543 0.950 . S
C551 C549 1.327 . S
C552 C540 1.349 . S
C552 H546 0.950 . S
C552 C553 1.327 . S
C553 H547 0.950 . S
C553 C552 1.327 . S
C553 C557 1.429 . S
C554 C537 1.574 . S
C554 H548 0.949 . S
C554 C558 1.368 1_565 S
C555 C536 1.429 . S
C555 C549 1.429 1_545 S
C555 C556 1.523 . S
C556 C537 1.368 1_545 S
C556 C550 1.368 . S
C556 C555 1.523 . S
C557 C541 1.429 1_545 S
C557 C553 1.429 . S
C557 C558 1.523 . S
C558 C542 1.368 . S
C558 C554 1.368 1_545 S
C558 C557 1.523 . S
H559 C534 0.950 . S
H560 C536 0.950 . S
H561 C537 0.949 . S
H562 C539 0.950 . S
H563 C541 0.950 . S
C564 C565 1.349 . S
C564 C566 1.327 . S
C564 H589 0.950 . S
C565 C564 1.349 . S
C565 C581 1.349 . S
C566 C564 1.327 . S
C566 C585 1.429 . S
C566 H590 0.950 . S
C567 C584 1.574 . S
C567 C586 1.368 . S
C567 H591 0.949 . S
H568 C572 0.949 1_556 S
C569 C570 1.349 . S
C569 C571 1.327 1_556 S
C569 H592 0.950 . S
C570 C569 1.349 . S
C570 C582 1.349 . S
C571 C569 1.327 1_554 S
C571 C587 1.429 1_554 S
C571 H593 0.950 . S
C572 H568 0.949 1_554 S
C572 C580 1.574 . S
C572 C588 1.368 . S
H573 C581 0.950 . S
H574 C579 0.950 . S
H575 C580 0.949 . S
H576 C582 0.950 . S
H577 C583 0.950 . S
H578 C584 0.949 . S
C579 H574 0.950 . S
C579 C581 1.327 . S
C579 C585 1.429 . S
C580 C572 1.574 . S
C580 H575 0.949 . S
C580 C586 1.368 . S
C581 C565 1.349 . S
C581 H573 0.950 . S
C581 C579 1.327 . S
C582 C570 1.349 . S
C582 H576 0.950 . S
C582 C583 1.327 . S
C583 H577 0.950 . S
C583 C582 1.327 . S
C583 C587 1.429 . S
C584 C567 1.574 . S
C584 H578 0.949 . S
C584 C588 1.368 . S
C585 C566 1.429 . S
C585 C579 1.429 . S
C585 C586 1.523 . S
C586 C567 1.368 . S
C586 C580 1.368 . S
C586 C585 1.523 . S
C587 C571 1.429 1_556 S
C587 C583 1.429 . S
C587 C588 1.523 1_556 S
C588 C572 1.368 . S
C588 C584 1.368 . S
C588 C587 1.523 1_554 S
H589 C564 0.950 . S
H590 C566 0.950 . S
H591 C567 0.949 . S
H592 C569 0.950 . S
H593 C571 0.950 . S
C594 C595 1.349 . S
C594 C596 1.327 . S
C594 H619 0.950 . S
C595 C594 1.349 . S
C595 C611 1.349 . S
C596 C594 1.327 . S
C596 C615 1.429 . S
C596 H620 0.950 . S
C597 C614 1.574 . S
C597 C616 1.368 . S
C597 H621 0.949 . S
H598 C602 0.949 . S
C599 C600 1.349 . S
C599 C601 1.327 . S
C599 H622 0.950 . S
C600 C599 1.349 . S
C600 C612 1.349 . S
C601 C599 1.327 . S
C601 C617 1.429 . S
C601 H623 0.950 . S
C602 H598 0.949 . S
C602 C610 1.574 . S
C602 C618 1.368 . S
H603 C611 0.950 . S
H604 C609 0.950 . S
H605 C610 0.949 . S
H606 C612 0.950 . S
H607 C613 0.950 . S
H608 C614 0.949 . S
C609 H604 0.950 . S
C609 C611 1.327 . S
C609 C615 1.429 . S
C610 C602 1.574 . S
C610 H605 0.949 . S
C610 C616 1.368 . S
C611 C595 1.349 . S
C611 H603 0.950 . S
C611 C609 1.327 . S
C612 C600 1.349 . S
C612 H606 0.950 . S
C612 C613 1.327 . S
C613 H607 0.950 . S
C613 C612 1.327 . S
C613 C617 1.429 . S
C614 C597 1.574 . S
C614 H608 0.949 . S
C614 C618 1.368 . S
C615 C596 1.429 . S
C615 C609 1.429 . S
C615 C616 1.523 . S
C616 C597 1.368 . S
C616 C610 1.368 . S
C616 C615 1.523 . S
C617 C601 1.429 . S
C617 C613 1.429 . S
C617 C618 1.523 . S
C618 C602 1.368 . S
C618 C614 1.368 . S
C618 C617 1.523 . S
H619 C594 0.950 . S
H620 C596 0.950 . S
H621 C597 0.949 . S
H622 C599 0.950 . S
H623 C601 0.950 . S
C270 C81 1.165 . S
C265 C11 1.191 . S
C295 C25 1.209 . S
C300 C155 1.191 . S
C325 C41 2.030 . S
C330 C259 2.118 . S
C355 C7 0.564 1_565 S
C360 C93 0.566 . S
C390 C167 0.607 . S
C385 C21 0.605 . S
C415 C36 1.322 . S
C420 C253 1.287 . S
C450 C185 2.094 . S
C445 C39 2.075 1_655 S
C475 C8 1.273 1_565 S
C480 C229 1.292 . S
C510 C105 1.387 . S
C505 C22 1.426 . S
C540 C179 1.272 . S
C535 C35 1.344 . S
C570 C241 0.664 . S
C565 C13 0.684 . S
C595 C27 2.108 . S
C600 C111 2.204 . S
