# Generated by pormake.
# Topology zzz, (3,6)-cn, num edge types: 1
# Building blocks:
#     Node 0, Type 0, BuildingBlock: BELTOD_clean_linker_0, # of connection points: 3
#     Node 1, Type 0, BuildingBlock: BELTOD_clean_linker_0, # of connection points: 3
#     Node 2, Type 0, BuildingBlock: BELTOD_clean_linker_0, # of connection points: 3
#     Node 3, Type 0, BuildingBlock: BELTOD_clean_linker_0, # of connection points: 3
#     Node 4, Type 0, BuildingBlock: BELTOD_clean_linker_0, # of connection points: 3
#     Node 5, Type 0, BuildingBlock: BELTOD_clean_linker_0, # of connection points: 3
#     Node 6, Type 0, BuildingBlock: BELTOD_clean_linker_0, # of connection points: 3
#     Node 7, Type 0, BuildingBlock: BELTOD_clean_linker_0, # of connection points: 3
#     Node 8, Type 1, BuildingBlock: INOVEN_clean_sbu_0, # of connection points: 6
#     Node 9, Type 1, BuildingBlock: INOVEN_clean_sbu_0, # of connection points: 6
#     Node 10, Type 1, BuildingBlock: INOVEN_clean_sbu_0, # of connection points: 6
#     Node 11, Type 1, BuildingBlock: INOVEN_clean_sbu_0, # of connection points: 6
#     Edge 12, Type (0, 1), BuildingBlock: ZUJKAS_clean_linker_0, # of connection points: 2
#     Edge 13, Type (0, 1), BuildingBlock: ZUJKAS_clean_linker_0, # of connection points: 2
#     Edge 14, Type (0, 1), BuildingBlock: ZUJKAS_clean_linker_0, # of connection points: 2
#     Edge 15, Type (0, 1), BuildingBlock: ZUJKAS_clean_linker_0, # of connection points: 2
#     Edge 16, Type (0, 1), BuildingBlock: ZUJKAS_clean_linker_0, # of connection points: 2
#     Edge 17, Type (0, 1), BuildingBlock: ZUJKAS_clean_linker_0, # of connection points: 2
#     Edge 18, Type (0, 1), BuildingBlock: ZUJKAS_clean_linker_0, # of connection points: 2
#     Edge 19, Type (0, 1), BuildingBlock: ZUJKAS_clean_linker_0, # of connection points: 2
#     Edge 20, Type (0, 1), BuildingBlock: ZUJKAS_clean_linker_0, # of connection points: 2
#     Edge 21, Type (0, 1), BuildingBlock: ZUJKAS_clean_linker_0, # of connection points: 2
#     Edge 22, Type (0, 1), BuildingBlock: ZUJKAS_clean_linker_0, # of connection points: 2
#     Edge 23, Type (0, 1), BuildingBlock: ZUJKAS_clean_linker_0, # of connection points: 2
#     Edge 24, Type (0, 1), BuildingBlock: ZUJKAS_clean_linker_0, # of connection points: 2
#     Edge 25, Type (0, 1), BuildingBlock: ZUJKAS_clean_linker_0, # of connection points: 2
#     Edge 26, Type (0, 1), BuildingBlock: ZUJKAS_clean_linker_0, # of connection points: 2
#     Edge 27, Type (0, 1), BuildingBlock: ZUJKAS_clean_linker_0, # of connection points: 2
#     Edge 28, Type (0, 1), BuildingBlock: ZUJKAS_clean_linker_0, # of connection points: 2
#     Edge 29, Type (0, 1), BuildingBlock: ZUJKAS_clean_linker_0, # of connection points: 2
#     Edge 30, Type (0, 1), BuildingBlock: ZUJKAS_clean_linker_0, # of connection points: 2
#     Edge 31, Type (0, 1), BuildingBlock: ZUJKAS_clean_linker_0, # of connection points: 2
#     Edge 32, Type (0, 1), BuildingBlock: ZUJKAS_clean_linker_0, # of connection points: 2
#     Edge 33, Type (0, 1), BuildingBlock: ZUJKAS_clean_linker_0, # of connection points: 2
#     Edge 34, Type (0, 1), BuildingBlock: ZUJKAS_clean_linker_0, # of connection points: 2
#     Edge 35, Type (0, 1), BuildingBlock: ZUJKAS_clean_linker_0, # of connection points: 2
# Relax obj value: 0.382
# Max RMSD: 0.259
# Mean RMSD: 0.241
data_MOF--net-zzz--node1-INOVEN_clean_sbu_0--node2-BELTOD_clean_linker_0--edge1-ZUJKAS_clean_linker_0
_symmetry_space_group_name_H-M    P1
_symmetry_Int_Tables_number       1
_symmetry_cell_setting            triclinic
loop_
_symmetry_equiv_pos_as_xyz
'x, y, z'
_cell_length_a     70.955136
_cell_length_b     70.993
_cell_length_c     21.426127
_cell_angle_alpha  90.014711
_cell_angle_beta   89.895466
_cell_angle_gamma 90.418971
loop_
_atom_site_label
_atom_site_type_symbol
_atom_site_fract_x
_atom_site_fract_y
_atom_site_fract_z
_atom_type_partial_charge
P0 P 0.7203 0.48259 0.3309 0.0
H1 H 0.7304 0.49143 0.46036 0.0
H2 H 0.75973 0.50318 0.50559 0.0
H3 H 0.78019 0.51697 0.3209 0.0
H4 H 0.7505 0.50594 0.2765 0.0
H5 H 0.68333 0.46794 0.30337 0.0
H6 H 0.65758 0.47909 0.23954 0.0
H7 H 0.68696 0.53206 0.21247 0.0
H8 H 0.71325 0.5203 0.27567 0.0
H9 H 0.74405 0.44936 0.33796 0.0
H10 H 0.72382 0.48692 0.19521 0.0
O11 O 0.71249 0.46775 0.38574 0.0
H12 H 0.76515 0.4347 0.26207 0.0
H13 H 0.74506 0.47278 0.11995 0.0
C14 C 0.73829 0.49754 0.36489 0.0
C15 C 0.74092 0.49757 0.42973 0.0
C16 C 0.75788 0.50407 0.45552 0.0
C17 C 0.77265 0.51055 0.4169 0.0
C18 C 0.76924 0.5121 0.35234 0.0
C19 C 0.75218 0.50575 0.3267 0.0
C20 C 0.70003 0.49342 0.29549 0.0
C21 C 0.68405 0.48217 0.2852 0.0
C22 C 0.66923 0.48863 0.24853 0.0
C23 C 0.66998 0.50659 0.22087 0.0
C24 C 0.68589 0.51811 0.23262 0.0
C25 C 0.70085 0.51153 0.26941 0.0
C26 C 0.73217 0.46903 0.2721 0.0
C27 C 0.74376 0.45409 0.28993 0.0
C28 C 0.75592 0.44585 0.24663 0.0
C29 C 0.75685 0.45262 0.18498 0.0
C30 C 0.74449 0.46697 0.16666 0.0
C31 C 0.73232 0.47515 0.20991 0.0
P32 P 0.02561 0.72413 0.34454 0.0
H33 H 0.01334 0.7363 0.46867 0.0
H34 H 0.00324 0.7671 0.5048 0.0
H35 H 0.99422 0.78435 0.31398 0.0
H36 H 0.00453 0.75341 0.27802 0.0
H37 H 0.04178 0.6885 0.3109 0.0
H38 H 0.03482 0.66531 0.23037 0.0
H39 H 0.98575 0.69695 0.17609 0.0
H40 H 0.99276 0.72023 0.25825 0.0
H41 H 0.05637 0.74695 0.3937 0.0
H42 H 0.03341 0.73274 0.21338 0.0
O43 O 0.03487 0.71352 0.40676 0.0
H44 H 0.07245 0.77419 0.34801 0.0
H45 H 0.04888 0.75997 0.168 0.0
C46 C 0.00965 0.74235 0.37047 0.0
C47 C 0.00841 0.74634 0.43451 0.0
C48 C 1.0027 0.76413 0.45526 0.0
C49 C 0.99824 0.77841 0.41232 0.0
C50 C 0.99788 0.77382 0.34836 0.0
C51 C 0.00345 0.75595 0.32772 0.0
C52 C 0.01767 0.70598 0.29128 0.0
C53 C 0.02929 0.69031 0.28259 0.0
C54 C 0.02541 0.67714 0.23592 0.0
C55 C 0.00985 0.67935 0.19622 0.0
C56 C 0.9978 0.69479 0.2061 0.0
C57 C 1.00178 0.70811 0.25305 0.0
C58 C 0.04376 0.73777 0.30698 0.0
C59 C 0.05552 0.74915 0.34376 0.0
C60 C 0.06452 0.76486 0.31771 0.0
C61 C 0.06166 0.76948 0.25462 0.0
C62 C 0.05156 0.75681 0.21661 0.0
C63 C 0.04263 0.74111 0.24266 0.0
P64 P 0.78384 0.02872 0.30899 0.0
H65 H 0.76855 0.03781 0.4318 0.0
H66 H 0.73884 0.02915 0.48142 0.0
H67 H 0.72979 0.98612 0.34232 0.0
H68 H 0.75965 0.99507 0.29168 0.0
H69 H 0.82431 0.02938 0.3346 0.0
H70 H 0.85102 0.01827 0.27368 0.0
H71 H 0.81308 0.98707 0.15417 0.0
H72 H 0.78629 0.99813 0.21605 0.0
H73 H 0.74499 0.04164 0.29422 0.0
H74 H 0.79519 0.03877 0.18045 0.0
O75 O 0.79288 0.04692 0.34851 0.0
H76 H 0.72693 0.05142 0.20418 0.0
H77 H 0.77705 0.04884 0.0896 0.0
C78 C 0.76655 0.01699 0.3581 0.0
C79 C 0.76064 0.02603 0.41297 0.0
C80 C 0.74348 0.02121 0.44111 0.0
C81 C 0.73187 0.00714 0.4153 0.0
C82 C 0.73849 0.99698 0.36338 0.0
C83 C 0.75566 1.00197 0.3347 0.0
C84 C 0.80321 0.01476 0.27969 0.0
C85 C 0.82169 0.01967 0.29659 0.0
C86 C 0.83701 0.01345 0.2612 0.0
C87 C 0.83419 1.00216 0.20803 0.0
C88 C 0.81579 0.99576 0.19477 0.0
C89 C 0.80042 1.00199 0.23043 0.0
C90 C 0.77127 0.03847 0.24359 0.0
C91 C 0.7522 0.04311 0.24993 0.0
C92 C 0.74189 0.04901 0.19834 0.0
C93 C 0.75052 0.05071 0.13947 0.0
C94 C 0.76994 0.04729 0.1341 0.0
C95 C 0.78028 0.04144 0.18601 0.0
P96 P 0.47251 0.79265 0.32849 0.0
H97 H 0.47041 0.78009 0.45801 0.0
H98 H 0.48028 0.75075 0.50648 0.0
H99 H 0.51399 0.73783 0.34464 0.0
H100 H 0.50372 0.76715 0.29519 0.0
H101 H 0.47255 0.83372 0.33753 0.0
H102 H 0.48262 0.85825 0.26501 0.0
H103 H 0.5096 0.81646 0.14988 0.0
H104 H 0.49917 0.79175 0.22231 0.0
H105 H 0.4571 0.75439 0.33531 0.0
H106 H 0.45605 0.80067 0.20473 0.0
O107 O 0.45739 0.8031 0.37695 0.0
H108 H 0.44213 0.73416 0.25934 0.0
H109 H 0.44013 0.78052 0.1285 0.0
C110 C 0.48642 0.77607 0.3729 0.0
C111 C 0.48052 0.77143 0.43362 0.0
C112 C 0.48602 0.75451 0.46124 0.0
C113 C 0.49772 0.74193 0.42903 0.0
C114 C 0.50503 0.74733 0.37062 0.0
C115 C 0.4993 0.76422 0.34254 0.0
C116 C 0.48515 0.8108 0.28578 0.0
C117 C 0.48106 0.82977 0.29771 0.0
C118 C 0.48671 0.84384 0.2559 0.0
C119 C 0.4967 0.83927 0.20137 0.0
C120 C 0.50201 0.82043 0.19171 0.0
C121 C 0.49617 0.80628 0.23342 0.0
C122 C 0.45864 0.77881 0.27471 0.0
C123 C 0.45355 0.7603 0.29034 0.0
C124 C 0.4446 0.74875 0.24688 0.0
C125 C 0.44006 0.75559 0.18717 0.0
C126 C 0.44383 0.77464 0.17343 0.0
C127 C 0.45298 0.78619 0.21702 0.0
P128 P 0.27926 0.46664 0.03023 0.0
H129 H 0.27023 0.47467 0.89953 0.0
H130 H 0.24216 0.48816 0.85313 0.0
H131 H 0.22475 0.50835 0.03444 0.0
H132 H 0.25254 0.49406 0.08093 0.0
H133 H 0.3163 0.45169 0.05644 0.0
H134 H 0.3416 0.46114 0.12658 0.0
H135 H 0.31009 0.51049 0.17935 0.0
H136 H 0.28466 0.50088 0.10843 0.0
H137 H 0.24936 0.44063 0.99729 0.0
H138 H 0.27347 0.4632 0.16634 0.0
O139 O 0.28813 0.45266 0.97502 0.0
H140 H 0.22223 0.42911 0.05588 0.0
H141 H 0.24675 0.45104 0.22589 0.0
C142 C 0.26368 0.48342 0.99383 0.0
C143 C 0.26077 0.48258 0.92913 0.0
C144 C 0.24458 0.49033 0.90249 0.0
C145 C 0.23091 0.49909 0.94008 0.0
C146 C 0.23474 0.50136 0.00415 0.0
C147 C 0.25091 0.49353 0.03074 0.0
C148 C 0.29868 0.47573 0.07611 0.0
C149 C 0.31494 0.46477 0.08198 0.0
C150 C 0.32946 0.47021 0.12224 0.0
C151 C 0.32796 0.48664 0.15847 0.0
C152 C 0.31166 0.49771 0.1523 0.0
C153 C 0.29716 0.49231 0.11138 0.0
C154 C 0.26346 0.45272 0.07734 0.0
C155 C 0.2492 0.44238 0.04752 0.0
C156 C 0.23366 0.43576 0.08124 0.0
C157 C 0.23214 0.43936 0.14561 0.0
C158 C 0.24729 0.44836 0.17616 0.0
C159 C 0.26273 0.45516 0.14219 0.0
P160 P 0.05837 0.28771 0.01721 0.0
H161 H 0.05298 0.27877 0.88487 0.0
H162 H 0.03997 0.25057 0.83585 0.0
H163 H 0.01499 0.23401 0.01142 0.0
H164 H 0.02816 0.26226 0.06053 0.0
H165 H 0.07249 0.3262 0.02635 0.0
H166 H 0.06466 0.35264 0.09308 0.0
H167 H 0.01848 0.32052 0.1722 0.0
H168 H 0.02604 0.29419 0.10272 0.0
H169 H 0.08016 0.25442 0.99243 0.0
H170 H 0.06104 0.28453 0.15527 0.0
O171 O 0.07451 0.29505 0.9657 0.0
H172 H 0.0872 0.22723 0.05655 0.0
H173 H 0.06885 0.25763 0.22051 0.0
C174 C 0.04156 0.2728 0.97659 0.0
C175 C 0.04408 0.26955 0.9125 0.0
C176 C 0.03681 0.25322 0.88453 0.0
C177 C 0.02678 0.23982 0.91999 0.0
C178 C 0.02262 0.24405 0.98269 0.0
C179 C 0.03 0.26038 0.01076 0.0
C180 C 0.04977 0.30817 0.05886 0.0
C181 C 0.06039 0.3249 0.0569 0.0
C182 C 0.05603 0.34002 0.09598 0.0
C183 C 0.04111 0.33873 0.1391 0.0
C184 C 0.03 0.32216 0.13939 0.0
C185 C 0.03428 0.30703 0.09957 0.0
C186 C 0.06983 0.27141 0.06873 0.0
C187 C 0.07822 0.25546 0.04249 0.0
C188 C 0.08231 0.23987 0.07948 0.0
C189 C 0.07827 0.24004 0.1438 0.0
C190 C 0.07165 0.25682 0.17089 0.0
C191 C 0.06729 0.27233 0.13355 0.0
P192 P 0.22286 0.05785 0.021 0.0
H193 H 0.23416 0.05202 0.89104 0.0
H194 H 0.2625 0.03837 0.84698 0.0
H195 H 0.2758 0.01403 0.02626 0.0
H196 H 0.2475 0.02828 0.07056 0.0
H197 H 0.19002 0.07713 0.0658 0.0
H198 H 0.16404 0.06843 0.13406 0.0
H199 H 0.18554 0.01172 0.14561 0.0
H200 H 0.21201 0.02084 0.07747 0.0
H201 H 0.24979 0.0881 0.99729 0.0
H202 H 0.23089 0.05515 0.15473 0.0
O203 O 0.21474 0.07252 0.96661 0.0
H204 H 0.2762 0.10018 0.05904 0.0
H205 H 0.25726 0.06688 0.2162 0.0
C206 C 0.23853 0.04115 0.98423 0.0
C207 C 0.24273 0.04317 0.92054 0.0
C208 C 0.2591 0.03533 0.89524 0.0
C209 C 0.27174 0.02531 0.93314 0.0
C210 C 0.26665 0.02197 0.99584 0.0
C211 C 0.25023 0.02984 0.02109 0.0
C212 C 0.20278 0.04957 0.0655 0.0
C213 C 0.18901 0.06271 0.08205 0.0
C214 C 0.17405 0.05767 0.12113 0.0
C215 C 0.17246 0.03928 0.14509 0.0
C216 C 0.18632 0.02603 0.12828 0.0
C217 C 0.2014 0.03116 0.08889 0.0
C218 C 0.23822 0.07097 0.07169 0.0
C219 C 0.25092 0.08402 0.04583 0.0
C220 C 0.26609 0.09078 0.08098 0.0
C221 C 0.26887 0.08443 0.14241 0.0
C222 C 0.25537 0.07231 0.16941 0.0
C223 C 0.24025 0.06554 0.13418 0.0
P224 P 0.44203 0.2378 0.07439 0.0
H225 H 0.4328 0.2514 0.94879 0.0
H226 H 0.44517 0.27824 0.89018 0.0
H227 H 0.4922 0.28217 0.01718 0.0
H228 H 0.47975 0.25521 0.07566 0.0
H229 H 0.4194 0.20399 0.09314 0.0
H230 H 0.42649 0.174 0.14192 0.0
H231 H 0.48575 0.18835 0.14128 0.0
H232 H 0.47851 0.21839 0.09024 0.0
H233 H 0.43488 0.2768 0.10583 0.0
H234 H 0.45548 0.22757 0.20155 0.0
O235 O 0.41926 0.23855 0.05516 0.0
H236 H 0.44617 0.29659 0.19108 0.0
H237 H 0.46681 0.24729 0.28646 0.0
C238 C 0.45523 0.2513 0.01706 0.0
C239 C 0.44616 0.25751 0.96273 0.0
C240 C 0.45324 0.27299 0.92924 0.0
C241 C 0.46948 0.28266 0.94973 0.0
C242 C 0.47948 0.27528 1.0008 0.0
C243 C 0.4725 0.25965 0.03379 0.0
C244 C 0.44842 0.21348 0.08754 0.0
C245 C 0.43402 0.20048 0.10113 0.0
C246 C 0.43807 0.18337 0.13008 0.0
C247 C 0.45664 0.17892 0.14709 0.0
C248 C 0.47128 0.19129 0.12883 0.0
C249 C 0.46719 0.20845 0.0992 0.0
C250 C 0.44481 0.25078 0.14611 0.0
C251 C 0.44132 0.27017 0.14595 0.0
C252 C 0.44775 0.28147 0.19486 0.0
C253 C 0.45768 0.27349 0.2449 0.0
C254 C 0.45954 0.25383 0.24779 0.0
C255 C 0.45308 0.24254 0.19886 0.0
Gd256 Gd 0.01365 0.00306 0.73482 0.0
Gd257 Gd 0.99008 0.01526 0.60777 0.0
C258 C 0.99963 0.97091 0.63507 0.0
C259 C 0.02242 0.99342 0.84698 0.0
C260 C 0.02124 0.97681 0.88716 0.0
C261 C 0.02944 0.97756 0.94645 0.0
C262 C 0.01424 0.95965 0.86418 0.0
C263 C 0.02533 0.9437 0.95756 0.0
C264 C 0.01625 0.94319 0.89921 0.0
C265 C 0.03145 0.96115 0.98151 0.0
C266 C 0.03644 0.01322 0.63697 0.0
C267 C 0.00508 0.04719 0.70725 0.0
C268 C 0.98434 0.02668 0.49561 0.0
C269 C 0.99535 0.03997 0.4577 0.0
C270 C 0.9899 0.04441 0.39671 0.0
C271 C 0.01132 0.04865 0.48358 0.0
C272 C 0.01617 0.0666 0.38834 0.0
C273 C 0.0217 0.06176 0.44919 0.0
C274 C 1.00022 0.0577 0.36223 0.0
C275 C 0.9671 0.00573 0.70525 0.0
O276 O 0.00602 0.97482 0.69215 0.0
O277 O 0.99416 0.98401 0.5946 0.0
O278 O 0.03381 0.99169 0.79914 0.0
O279 O 0.0066 1.00193 0.83337 0.0
O280 O 0.04279 0.00822 0.69121 0.0
O281 O 0.01881 0.01281 0.64037 0.0
O282 O 0.99946 0.04313 0.64955 0.0
O283 O 0.00954 0.03417 0.74904 0.0
O284 O 0.97599 0.03415 0.54431 0.0
O285 O 0.99282 0.01078 0.50832 0.0
O286 O 0.96083 0.01148 0.6515 0.0
O287 O 0.98475 0.00534 0.70158 0.0
H288 H 0.03507 0.99071 0.96446 0.0
H289 H 0.00793 0.95888 0.81822 0.0
H290 H 0.01116 0.93 0.87995 0.0
H291 H 0.03867 0.962 0.02591 0.0
H292 H 0.97758 0.0378 0.37614 0.0
H293 H 0.01563 0.04547 0.53088 0.0
H294 H 0.03369 0.06856 0.47111 0.0
H295 H 0.9957 0.06107 0.31532 0.0
Gd296 Gd 0.5046 0.01741 0.71131 0.0
Gd297 Gd 0.49286 0.99395 0.59236 0.0
C298 C 0.53703 1.00072 0.61562 0.0
C299 C 0.52099 0.03188 0.80734 0.0
C300 C 0.54076 0.03305 0.82692 0.0
C301 C 0.54754 0.04982 0.85326 0.0
C302 C 0.5534 0.01853 0.81285 0.0
C303 C 0.57959 0.03791 0.84914 0.0
C304 C 0.57265 0.02092 0.82398 0.0
C305 C 0.56678 0.05225 0.8643 0.0
C306 C 0.49076 0.03709 0.61341 0.0
C307 C 0.46175 0.0065 0.69699 0.0
C308 C 0.47926 0.98792 0.48274 0.0
C309 C 0.46499 0.99816 0.446 0.0
C310 C 0.44675 0.9906 0.43991 0.0
C311 C 0.46879 0.01624 0.42199 0.0
C312 C 0.43592 0.01978 0.39316 0.0
C313 C 0.45435 0.02704 0.39649 0.0
C314 C 0.43236 1.00129 0.41367 0.0
C315 C 0.50035 0.97029 0.68902 0.0
O316 O 0.53274 0.00898 0.66939 0.0
O317 O 0.52411 0.99425 0.57638 0.0
O318 O 0.51715 0.04151 0.75698 0.0
O319 O 0.51299 0.01515 0.80821 0.0
O320 O 0.48722 0.04121 0.67126 0.0
O321 O 0.50168 0.02323 0.61079 0.0
O322 O 0.46547 0.00406 0.63666 0.0
O323 O 0.47533 0.0091 0.73833 0.0
O324 O 0.4729 0.97941 0.53287 0.0
O325 O 0.49542 0.99653 0.49199 0.0
O326 O 0.49563 0.96446 0.63367 0.0
O327 O 0.50119 0.98795 0.68773 0.0
H328 H 0.53801 0.06128 0.86345 0.0
H329 H 0.54845 0.00551 0.79193 0.0
H330 H 0.58211 0.0095 0.81263 0.0
H331 H 0.57167 0.06559 0.88296 0.0
H332 H 0.44344 0.97666 0.45757 0.0
H333 H 0.4828 0.02226 0.42434 0.0
H334 H 0.45754 0.04113 0.37996 0.0
H335 H 0.41826 0.99536 0.41179 0.0
Gd336 Gd 0.48884 0.51823 0.74083 0.0
Gd337 Gd 0.51046 0.50464 0.63268 0.0
C338 C 0.5043 0.54962 0.64993 0.0
C339 C 0.47382 0.52868 0.84475 0.0
C340 C 0.46728 0.5473 0.86524 0.0
C341 C 0.44971 0.54906 0.89459 0.0
C342 C 0.47768 0.56359 0.85029 0.0
C343 C 0.4528 0.58326 0.89258 0.0
C344 C 0.47056 0.58136 0.86415 0.0
C345 C 0.44251 0.56689 0.90819 0.0
C346 C 0.46859 0.51589 0.63418 0.0
C347 C 0.49474 0.47314 0.72315 0.0
C348 C 0.5255 0.49459 0.52816 0.0
C349 C 0.53118 0.47589 0.50683 0.0
C350 C 0.53135 0.46092 0.54947 0.0
C351 C 0.5347 0.47244 0.44359 0.0
C352 C 0.53665 0.43878 0.46491 0.0
C353 C 0.53754 0.454 0.42274 0.0
C354 C 0.534 0.44254 0.52875 0.0
C355 C 0.5306 0.50707 0.73955 0.0
O356 O 0.4998 0.54624 0.70856 0.0
O357 O 0.50676 0.53566 0.60993 0.0
O358 O 0.46409 0.52112 0.79942 0.0
O359 O 0.49204 0.52682 0.83724 0.0
O360 O 0.46738 0.52966 0.67361 0.0
O361 O 0.48016 0.50379 0.65334 0.0
O362 O 0.49942 0.47662 0.66468 0.0
O363 O 0.49221 0.4871 0.76323 0.0
O364 O 0.53526 0.50149 0.5746 0.0
O365 O 0.50733 0.4966 0.53575 0.0
O366 O 0.53171 0.49318 0.70055 0.0
O367 O 0.51915 0.51919 0.71989 0.0
H368 H 0.44137 0.53666 0.90565 0.0
H369 H 0.4912 0.56266 0.82699 0.0
H370 H 0.47906 0.59362 0.85266 0.0
H371 H 0.42872 0.56786 0.92965 0.0
H372 H 0.52863 0.46335 0.59855 0.0
H373 H 0.53462 0.48388 0.41016 0.0
H374 H 0.5398 0.4516 0.37339 0.0
H375 H 0.53288 0.43123 0.56249 0.0
Gd376 Gd 0.99917 0.49892 0.71636 0.0
Gd377 Gd 0.01056 0.52128 0.5949 0.0
C378 C 0.96642 0.51443 0.62026 0.0
C379 C 0.98395 0.48519 0.81628 0.0
C380 C 0.96494 0.47956 0.83622 0.0
C381 C 0.96278 0.46418 0.87654 0.0
C382 C 0.94891 0.48874 0.81342 0.0
C383 C 0.92868 0.46721 0.87182 0.0
C384 C 0.93092 0.48263 0.83111 0.0
C385 C 0.94482 0.45804 0.89422 0.0
C386 C 0.01242 0.47842 0.61929 0.0
C387 C 0.04174 0.51045 0.70037 0.0
C388 C 0.02317 0.52417 0.48257 0.0
C389 C 0.03524 0.51106 0.44789 0.0
C390 C 0.03568 0.51113 0.38255 0.0
C391 C 0.04596 0.49781 0.4806 0.0
C392 C 0.05832 0.48541 0.38318 0.0
C393 C 0.05738 0.48515 0.44871 0.0
C394 C 0.04715 0.4984 0.35036 0.0
C395 C 0.00458 0.546 0.68956 0.0
O396 O 0.97089 0.50472 0.67111 0.0
O397 O 0.97921 0.52249 0.5837 0.0
O398 O 0.99138 0.47476 0.77256 0.0
O399 O 0.98702 0.50322 0.80797 0.0
O400 O 0.01619 0.47469 0.67722 0.0
O401 O 1.00157 0.49232 0.61635 0.0
O402 O 0.038 0.51194 0.63987 0.0
O403 O 0.02819 0.50826 0.74215 0.0
O404 O 0.03117 0.5326 0.53019 0.0
O405 O 0.00627 0.51777 0.49543 0.0
O406 O 0.00881 0.55121 0.63289 0.0
O407 O 0.00331 0.52829 0.69061 0.0
H408 H 0.97501 0.4568 0.89398 0.0
H409 H 0.95029 0.50062 0.78199 0.0
H410 H 0.91879 0.49013 0.81364 0.0
H411 H 0.94358 0.44597 0.9249 0.0
H412 H 0.02724 0.52106 0.35651 0.0
H413 H 0.04561 0.4973 0.53105 0.0
H414 H 0.06592 0.47557 0.47572 0.0
H415 H 0.04734 0.49881 0.29985 0.0
H416 H 0.17354 0.01695 0.25021 0.0
H417 H 0.14844 0.01178 0.32719 0.0
H418 H 0.11092 0.04612 0.2186 0.0
H419 H 0.13564 0.05093 0.14057 0.0
H420 H 0.11472 0.05634 0.3503 0.0
H421 H 0.098 0.9805 0.31391 0.0
H422 H 0.12259 0.98645 0.32126 0.0
H423 H 0.10956 0.99478 0.2552 0.0
C424 C 0.15983 0.02305 0.24183 0.0
C425 C 0.15674 0.03448 0.18913 0.0
C426 C 0.14551 0.02014 0.28609 0.0
C427 C 0.12779 0.02855 0.2786 0.0
C428 C 0.12449 0.03954 0.22544 0.0
H429 H 0.02796 0.00854 0.51301 0.0
H430 H 0.04898 0.01352 0.42317 0.0
C431 C 0.13872 0.04235 0.18102 0.0
C432 C 0.11306 0.02682 0.32782 0.0
H433 H 0.08413 0.99523 0.40198 0.0
C434 C 0.10795 0.043 0.36137 0.0
C435 C 0.10413 0.00945 0.34189 0.0
C436 C 0.10867 0.99178 0.306 0.0
C437 C 0.09455 0.04219 0.40974 0.0
C438 C 0.08599 0.02471 0.42507 0.0
C439 C 0.09071 0.00862 0.39032 0.0
C440 C 0.07279 0.02268 0.47875 0.0
C441 C 0.08983 0.06006 0.44436 0.0
C442 C 0.07912 0.02619 0.53972 0.0
C443 C 0.06706 0.0235 0.59072 0.0
C444 C 0.04839 0.01735 0.58188 0.0
C445 C 0.04203 0.01387 0.52094 0.0
C446 C 0.05413 0.01649 0.46974 0.0
H447 H 0.09217 0.07268 0.41459 0.0
H448 H 0.07501 0.06 0.46103 0.0
H449 H 0.09918 0.06134 0.48563 0.0
H450 H 0.09352 0.03067 0.54798 0.0
H451 H 0.07242 0.02605 0.6373 0.0
H452 H 0.48587 0.15343 0.14273 0.0
H453 H 0.49166 0.12703 0.21418 0.0
H454 H 0.44179 0.14139 0.31858 0.0
H455 H 0.43592 0.16753 0.2479 0.0
H456 H 0.49819 0.12722 0.33869 0.0
H457 H 0.43327 0.08579 0.29427 0.0
H458 H 0.4406 0.105 0.24442 0.0
H459 H 0.4281 0.10957 0.31604 0.0
C460 C 0.4761 0.15088 0.18072 0.0
C461 C 0.46026 0.16246 0.1888 0.0
C462 C 0.47938 0.13575 0.22144 0.0
C463 C 0.4669 0.13189 0.27101 0.0
C464 C 0.45128 0.14361 0.27958 0.0
H465 H 0.46352 0.06394 0.60549 0.0
H466 H 0.45801 0.08599 0.51914 0.0
C467 C 0.44795 0.15862 0.23896 0.0
C468 C 0.47064 0.11632 0.31603 0.0
H469 H 0.45024 0.07824 0.38756 0.0
C470 C 0.4878 0.11636 0.34873 0.0
C471 C 0.45709 0.1021 0.32937 0.0
C472 C 0.43882 0.10047 0.29369 0.0
C473 C 0.49145 0.10307 0.39584 0.0
C474 C 0.47767 0.08923 0.4103 0.0
C475 C 0.46071 0.08892 0.37679 0.0
C476 C 0.48047 0.07522 0.46108 0.0
C477 C 0.50977 0.10432 0.43128 0.0
C478 C 0.49464 0.06159 0.45658 0.0
C479 C 0.49769 0.04891 0.50557 0.0
C480 C 0.48664 0.04965 0.56003 0.0
C481 C 0.47225 0.06308 0.56407 0.0
C482 C 0.46908 0.07565 0.51479 0.0
H483 H 0.51721 0.11792 0.42309 0.0
H484 H 0.50727 0.10265 0.48217 0.0
H485 H 0.51916 0.09277 0.41592 0.0
H486 H 0.5034 0.0608 0.41522 0.0
H487 H 0.5089 0.03872 0.50118 0.0
H488 H 0.36625 0.48504 0.14198 0.0
H489 H 0.39092 0.49037 0.21995 0.0
H490 H 0.34867 0.50482 0.35627 0.0
H491 H 0.32387 0.49919 0.27887 0.0
H492 H 0.39991 0.52288 0.29251 0.0
H493 H 0.37879 0.46195 0.44007 0.0
H494 H 0.37066 0.46482 0.36085 0.0
H495 H 0.36018 0.47818 0.42292 0.0
C496 C 0.36219 0.48934 0.18858 0.0
C497 C 0.34305 0.49155 0.20425 0.0
C498 C 0.37632 0.49246 0.23301 0.0
C499 C 0.37163 0.4977 0.29422 0.0
C500 C 0.3526 0.50049 0.30958 0.0
H501 H 0.44303 0.54089 0.58996 0.0
H502 H 0.42048 0.53641 0.5049 0.0
C503 C 0.33845 0.49747 0.26506 0.0
C504 C 0.38665 0.49998 0.34208 0.0
H505 H 0.40242 0.48227 0.48072 0.0
C506 C 0.40049 0.51399 0.33361 0.0
C507 C 0.38758 0.48817 0.3952 0.0
C508 C 0.37363 0.47231 0.40531 0.0
C509 C 0.41495 0.5168 0.37757 0.0
C510 C 0.41551 0.50538 0.4317 0.0
C511 C 0.40193 0.49109 0.43943 0.0
C512 C 0.4298 0.50832 0.48161 0.0
C513 C 0.42963 0.53184 0.36543 0.0
C514 C 0.44244 0.49393 0.49741 0.0
C515 C 0.45538 0.49647 0.54617 0.0
C516 C 0.45571 0.51335 0.58046 0.0
C517 C 0.44312 0.52774 0.56431 0.0
C518 C 0.43029 0.52524 0.51547 0.0
H519 H 0.43016 0.53588 0.31536 0.0
H520 H 0.42611 0.54459 0.39292 0.0
H521 H 0.44383 0.52705 0.37994 0.0
H522 H 0.44226 0.48072 0.47209 0.0
H523 H 0.46489 0.48512 0.55765 0.0
H524 H 0.00733 0.35218 0.1845 0.0
H525 H 1.00248 0.37729 0.2613 0.0
H526 H 0.06254 0.38567 0.27487 0.0
H527 H 0.06758 0.36043 0.19956 0.0
H528 H 0.01603 0.37895 0.38473 0.0
H529 H 0.04306 0.43943 0.24594 0.0
H530 H 0.03706 0.41702 0.2109 0.0
H531 H 0.05901 0.42 0.25163 0.0
C532 C 0.01953 0.3593 0.2039 0.0
C533 C 0.03785 0.35428 0.18511 0.0
C534 C 0.01672 0.37375 0.24756 0.0
C535 C 0.03213 0.38362 0.27305 0.0
C536 C 0.0504 0.37861 0.25473 0.0
H537 H 0.03552 0.44783 0.61849 0.0
H538 H 0.04062 0.42548 0.53292 0.0
C539 C 0.05324 0.36414 0.21141 0.0
C540 C 0.02918 0.39849 0.32114 0.0
H541 H 0.0366 0.44519 0.35299 0.0
C542 C 0.02057 0.39342 0.3778 0.0
C543 C 0.03496 0.41744 0.31195 0.0
C544 C 0.04389 0.4239 0.25163 0.0
C545 C 0.01799 0.40661 0.42597 0.0
C546 C 0.02426 0.42543 0.41751 0.0
C547 C 0.03226 0.43067 0.36006 0.0
C548 C 0.02241 0.43982 0.46772 0.0
C549 C 0.00829 0.40035 0.48525 0.0
C550 C 0.01112 0.45575 0.45878 0.0
C551 C 0.00821 0.46855 0.50761 0.0
C552 C 0.01672 0.46577 0.56611 0.0
C553 C 0.02865 0.45025 0.57414 0.0
C554 C 0.03151 0.43744 0.52536 0.0
H555 H 1.00014 0.38708 0.47836 0.0
H556 H 0.01905 0.39776 0.5217 0.0
H557 H 0.99858 0.41137 0.5027 0.0
H558 H 0.00408 0.45798 0.4146 0.0
H559 H 0.99893 0.48035 0.49998 0.0
H560 H 0.8434 0.9696 0.14479 0.0
H561 H 0.86845 0.96543 0.06686 0.0
H562 H 0.88494 0.02362 0.08969 0.0
H563 H 0.86036 0.02772 0.16776 0.0
H564 H 0.873 0.98122 0.95727 0.0
H565 H 0.93556 0.99984 0.09701 0.0
H566 H 0.91284 0.99542 0.13226 0.0
H567 H 0.91856 0.01833 0.10092 0.0
C568 C 0.85253 0.98142 0.13365 0.0
C569 C 0.85001 0.99892 0.16328 0.0
C570 C 0.86688 0.97902 0.08917 0.0
C571 C 0.87897 0.99408 0.07322 0.0
C572 C 0.87635 0.01156 0.10258 0.0
H573 H 0.93195 0.01871 0.72531 0.0
H574 H 0.91158 0.01352 0.81555 0.0
C575 C 0.86219 0.01391 0.14727 0.0
C576 C 0.89337 0.99212 0.02267 0.0
H577 H 0.93904 0.00301 0.98493 0.0
C578 C 0.88751 0.98571 0.96374 0.0
C579 C 0.91248 0.99754 0.03089 0.0
C580 C 0.92026 1.00295 0.09393 0.0
C581 C 0.89985 0.98561 0.91232 0.0
C582 C 0.91848 0.99264 0.91931 0.0
C583 C 0.92469 0.99797 0.97901 0.0
C584 C 0.93124 0.99569 0.86469 0.0
C585 C 0.89271 0.97804 0.85088 0.0
C586 C 0.94947 0.98801 0.86285 0.0
C587 C 0.96134 0.99123 0.81126 0.0
C588 C 0.95519 1.00229 0.76098 0.0
C589 C 0.93704 0.01003 0.76321 0.0
C590 C 0.92531 0.00695 0.81466 0.0
H591 H 0.88139 0.96736 0.85814 0.0
H592 H 0.88663 0.98974 0.82335 0.0
H593 H 0.9042 0.97152 0.82323 0.0
H594 H 0.95444 0.97933 0.90092 0.0
H595 H 0.97509 0.98475 0.81008 0.0
H596 H 0.47093 0.86343 0.15356 0.0
H597 H 0.47514 0.88644 0.07002 0.0
H598 H 0.53383 0.87151 0.05548 0.0
H599 H 0.5294 0.8478 0.13777 0.0
H600 H 0.49521 0.917 0.05833 0.0
H601 H 0.51912 0.86661 0.87739 0.0
H602 H 0.5101 0.85895 0.95189 0.0
H603 H 0.53405 0.86724 0.94479 0.0
C604 C 0.48476 0.86509 0.13272 0.0
C605 C 0.49984 0.85379 0.1522 0.0
C606 C 0.48716 0.87827 0.08483 0.0
C607 C 0.50474 0.88061 0.0554 0.0
C608 C 0.51999 0.86966 0.07597 0.0
H609 H 0.5182 0.97823 0.79994 0.0
H610 H 0.5215 0.95728 0.8905 0.0
C611 C 0.5175 0.85619 0.12331 0.0
C612 C 0.50678 0.89447 0.00328 0.0
H613 H 0.51911 0.89875 0.84959 0.0
C614 C 0.50048 0.913 0.01269 0.0
C615 C 0.5135 0.88929 0.9434 0.0
C616 C 0.5194 0.86941 0.92841 0.0
C617 C 0.50023 0.92628 0.96392 0.0
C618 C 0.50714 0.92115 0.90423 0.0
C619 C 0.51392 0.90278 0.89529 0.0
C620 C 0.50605 0.93399 0.84908 0.0
C621 C 0.49169 0.94533 0.97632 0.0
C622 C 0.49699 0.92774 0.79453 0.0
C623 C 0.49549 0.93953 0.74259 0.0
C624 C 0.50281 0.95795 0.74404 0.0
C625 C 0.51212 0.96422 0.79807 0.0
C626 C 0.51392 0.95226 0.84992 0.0
H627 H 0.48258 0.94518 0.01855 0.0
H628 H 0.50314 0.95578 0.98425 0.0
H629 H 0.48313 0.9501 0.93607 0.0
H630 H 0.49081 0.91376 0.79233 0.0
H631 H 0.48825 0.9343 0.70154 0.0
H632 H 0.67345 0.52687 0.11181 0.0
H633 H 0.64918 0.53277 0.03366 0.0
H634 H 0.60822 0.50389 0.14855 0.0
H635 H 0.63196 0.49918 0.22864 0.0
H636 H 0.63194 0.50817 0.9668 0.0
H637 H 0.57677 0.54655 0.0946 0.0
H638 H 0.60001 0.5432 0.12655 0.0
H639 H 0.58218 0.52511 0.13457 0.0
C640 C 0.65914 0.52234 0.12157 0.0
C641 C 0.65479 0.51243 0.17671 0.0
C642 C 0.64527 0.52557 0.07639 0.0
C643 C 0.62672 0.51895 0.08509 0.0
C644 C 0.62223 0.50958 0.14095 0.0
H645 H 0.5528 0.48069 0.79303 0.0
H646 H 0.5758 0.48501 0.87656 0.0
C647 C 0.63599 0.50659 0.18646 0.0
C648 C 0.61263 0.52007 0.03356 0.0
H649 H 0.56649 0.52985 0.00187 0.0
C650 C 0.61772 0.5132 0.97443 0.0
C651 C 0.59409 0.52691 0.04259 0.0
C652 C 0.58803 0.53605 0.10287 0.0
C653 C 0.6047 0.51223 0.92521 0.0
C654 C 0.58577 0.51762 0.93578 0.0
C655 C 0.58086 0.52532 0.99395 0.0
C656 C 0.57086 0.5149 0.88756 0.0
C657 C 0.61149 0.50553 0.86225 0.0
C658 C 0.55957 0.53 0.8681 0.0
C659 C 0.54604 0.52744 0.82109 0.0
C660 C 0.54368 0.50974 0.79256 0.0
C661 C 0.55452 0.49455 0.81353 0.0
C662 C 0.5678 0.49705 0.86095 0.0
H663 H 0.62681 0.5083 0.85608 0.0
H664 H 0.60922 0.49009 0.85861 0.0
H665 H 0.60379 0.5125 0.82364 0.0
H666 H 0.56148 0.54387 0.88834 0.0
H667 H 0.53779 0.53938 0.80601 0.0
H668 H 0.97676 0.6626 0.15681 0.0
H669 H 0.97284 0.63892 0.07395 0.0
H670 H 0.03228 0.64244 0.03314 0.0
H671 H 0.0363 0.66579 0.11567 0.0
H672 H 0.97956 0.6394 0.94847 0.0
H673 H 0.02547 0.58646 0.05895 0.0
H674 H 0.01729 0.60703 0.10008 0.0
H675 H 0.0374 0.60861 0.04887 0.0
C676 C 0.98896 0.65836 0.12993 0.0
C677 C 0.00689 0.66586 0.14359 0.0
C678 C 0.98672 0.64478 0.08273 0.0
C679 C 1.00236 0.63848 0.04831 0.0
C680 C 0.0201 0.64656 0.0603 0.0
H681 H 0.00812 0.58413 0.68865 0.0
H682 H 0.00578 0.60587 0.77666 0.0
C683 C 0.02236 0.65997 0.10749 0.0
C684 C 1.0003 0.62365 0.99937 0.0
H685 H 0.0186 0.58173 0.9506 0.0
C686 C 0.98795 0.62669 0.94927 0.0
C687 C 0.01092 0.60683 1.00082 0.0
C688 C 0.02336 0.60192 0.05542 0.0
C689 C 0.98656 0.61381 0.89945 0.0
C690 C 0.99816 0.59763 0.89886 0.0
C691 C 0.00989 0.59422 0.95031 0.0
C692 C 0.99883 0.58437 0.84476 0.0
C693 C 0.97255 0.61766 0.8482 0.0
C694 C 0.99629 0.56488 0.85354 0.0
C695 C 0.99795 0.55235 0.80319 0.0
C696 C 1.00214 0.55904 0.74305 0.0
C697 C 0.00466 0.57853 0.73431 0.0
C698 C 0.00316 0.59102 0.78461 0.0
H699 H 0.96072 0.62646 0.86532 0.0
H700 H 0.97969 0.62553 0.81006 0.0
H701 H 0.96666 0.60438 0.8287 0.0
H702 H 0.99314 0.55932 0.8995 0.0
H703 H 0.99617 0.53746 0.81154 0.0
H704 H 0.05304 0.22862 0.23293 0.0
H705 H 0.04943 0.19732 0.27755 0.0
H706 H 0.09866 0.17869 0.17768 0.0
H707 H 0.10299 0.21036 0.13445 0.0
H708 H 0.06261 0.15826 0.15503 0.0
H709 H 0.08062 0.16521 0.40618 0.0
H710 H 0.06615 0.18368 0.37528 0.0
H711 H 0.08983 0.18099 0.34712 0.0
C712 C 0.06362 0.21819 0.22221 0.0
C713 C 0.07831 0.22209 0.17975 0.0
C714 C 0.06143 0.20022 0.24759 0.0
C715 C 0.0738 0.18577 0.23093 0.0
C716 C 0.089 0.18973 0.19106 0.0
H717 H 0.05425 0.07236 0.3808 0.0
H718 H 0.07078 0.09985 0.33757 0.0
C719 C 0.09136 0.2078 0.16617 0.0
C720 C 0.06936 0.16621 0.24945 0.0
H721 H 0.06212 0.13834 0.37696 0.0
C722 C 0.06283 0.15374 0.20337 0.0
C723 C 0.0697 0.16043 0.31247 0.0
C724 C 0.07709 0.1732 0.36322 0.0
C725 C 0.05568 0.13589 0.21921 0.0
C726 C 0.05508 0.13051 0.28263 0.0
C727 C 0.06255 0.14259 0.32834 0.0
C728 C 0.04547 0.11305 0.30314 0.0
C729 C 0.04839 0.12312 0.1683 0.0
C730 C 0.02584 0.11136 0.29744 0.0
C731 C 0.01637 0.09584 0.3228 0.0
C732 C 0.0264 0.08176 0.35441 0.0
C733 C 0.04616 0.08316 0.35777 0.0
C734 C 0.05561 0.09876 0.3328 0.0
H735 H 0.05405 0.12721 0.12181 0.0
H736 H 0.05213 0.10823 0.17779 0.0
H737 H 0.0328 0.12406 0.16651 0.0
H738 H 0.01776 0.12242 0.27549 0.0
H739 H 1.00113 0.09531 0.32015 0.0
H740 H 0.27488 0.09284 0.26597 0.0
H741 H 0.30493 0.09124 0.32177 0.0
H742 H 0.33376 0.08098 0.14772 0.0
H743 H 0.30403 0.08266 0.09209 0.0
H744 H 0.32378 0.05935 0.32503 0.0
H745 H 0.37185 0.11403 0.23314 0.0
H746 H 0.34663 0.11507 0.22228 0.0
H747 H 0.36106 0.10142 0.17003 0.0
C748 C 0.28772 0.09078 0.23952 0.0
C749 C 0.28707 0.08783 0.17467 0.0
C750 C 0.30488 0.08995 0.27138 0.0
C751 C 0.32165 0.08619 0.23889 0.0
C752 C 0.32114 0.08445 0.17369 0.0
H753 H 0.40833 0.01013 0.31057 0.0
H754 H 0.38102 0.02883 0.28014 0.0
C755 C 0.30405 0.08535 0.14185 0.0
C756 C 0.33889 0.08065 0.27301 0.0
H757 H 0.38685 0.08517 0.27047 0.0
C758 C 0.33751 0.06534 0.31426 0.0
C759 C 0.35683 0.08853 0.25958 0.0
C760 C 0.35914 0.10581 0.21933 0.0
C761 C 0.35363 0.05682 0.33864 0.0
C762 C 0.37158 0.06359 0.32045 0.0
C763 C 0.37302 0.07978 0.2832 0.0
C764 C 0.38882 0.05307 0.33594 0.0
C765 C 0.35132 0.04021 0.382 0.0
C766 C 0.40247 0.06079 0.37585 0.0
C767 C 0.41803 0.05008 0.39352 0.0
C768 C 0.42025 0.03163 0.37083 0.0
C769 C 0.40686 0.02422 0.32921 0.0
C770 C 0.3913 0.03488 0.31181 0.0
H771 H 0.33728 0.04017 0.40507 0.0
H772 H 0.35256 0.02698 0.35472 0.0
H773 H 0.36241 0.04024 0.41851 0.0
H774 H 0.40076 0.07482 0.3948 0.0
H775 H 0.42796 0.05594 0.42671 0.0
H776 H 0.49402 0.26956 0.28293 0.0
H777 H 0.5134 0.29283 0.33768 0.0
H778 H 0.46514 0.329 0.35629 0.0
H779 H 0.44555 0.30562 0.30255 0.0
H780 H 0.51842 0.32851 0.28621 0.0
H781 H 0.49087 0.33354 0.52749 0.0
H782 H 0.48665 0.31326 0.47828 0.0
H783 H 0.47256 0.33407 0.46983 0.0
C784 C 0.48736 0.28216 0.30073 0.0
C785 C 0.46826 0.28581 0.28847 0.0
C786 C 0.4985 0.29546 0.33165 0.0
C787 C 0.49067 0.31252 0.35137 0.0
C788 C 0.47137 0.31575 0.34238 0.0
H789 H 0.51925 0.42522 0.36047 0.0
H790 H 0.51332 0.39244 0.33353 0.0
C791 C 0.46023 0.30249 0.31122 0.0
C792 C 0.50299 0.32803 0.37302 0.0
H793 H 0.50742 0.36094 0.48794 0.0
C794 C 0.51635 0.33537 0.33095 0.0
C795 C 0.50041 0.33679 0.43157 0.0
C796 C 0.48697 0.3289 0.47967 0.0
C797 C 0.52619 0.35207 0.34409 0.0
C798 C 0.52244 0.36165 0.40043 0.0
C799 C 0.51015 0.35358 0.44451 0.0
C800 C 0.52909 0.38112 0.41109 0.0
C801 C 0.53996 0.35974 0.29662 0.0
C802 C 0.54025 0.38556 0.46299 0.0
C803 C 0.54391 0.40438 0.47817 0.0
C804 C 0.53614 0.41901 0.4423 0.0
C805 C 0.52575 0.41439 0.38854 0.0
C806 C 0.52227 0.39562 0.37313 0.0
H807 H 0.54547 0.34838 0.26607 0.0
H808 H 0.53269 0.37012 0.26656 0.0
H809 H 0.55201 0.36697 0.31971 0.0
H810 H 0.54558 0.37451 0.49285 0.0
H811 H 0.55221 0.40746 0.51934 0.0
H812 H 0.21537 0.46234 0.23081 0.0
H813 H 0.18373 0.45989 0.27329 0.0
H814 H 0.17497 0.40762 0.17467 0.0
H815 H 0.20708 0.40973 0.13243 0.0
H816 H 0.14702 0.43384 0.15276 0.0
H817 H 0.159 0.427 0.40609 0.0
H818 H 0.17289 0.44586 0.37408 0.0
H819 H 0.1771 0.42202 0.34913 0.0
C820 C 0.20707 0.44993 0.21975 0.0
C821 C 0.21389 0.43617 0.17839 0.0
C822 C 0.18889 0.44858 0.24406 0.0
C823 C 0.17708 0.43344 0.22786 0.0
C824 C 0.18393 0.41936 0.18805 0.0
H825 H 0.06782 0.44879 0.41 0.0
H826 H 0.09386 0.43077 0.36589 0.0
C827 C 0.20224 0.42064 0.16381 0.0
C828 C 0.15708 0.43369 0.24765 0.0
H829 H 0.12979 0.44217 0.37545 0.0
C830 C 0.14313 0.43517 0.20155 0.0
C831 C 0.15193 0.43503 0.31123 0.0
C832 C 0.16602 0.43218 0.36294 0.0
C833 C 0.12447 0.43964 0.21725 0.0
C834 C 0.11983 0.44304 0.28045 0.0
C835 C 0.13339 0.43985 0.32684 0.0
C836 C 0.10197 0.45219 0.29906 0.0
C837 C 0.11009 0.44134 0.16585 0.0
C838 C 0.09763 0.47007 0.2753 0.0
C839 C 0.08277 0.4804 0.30031 0.0
C840 C 0.07204 0.47316 0.35016 0.0
C841 C 0.07589 0.45488 0.37201 0.0
C842 C 0.09072 0.4445 0.34668 0.0
H843 H 0.11352 0.43183 0.12628 0.0
H844 H 0.09567 0.43795 0.18287 0.0
H845 H 0.11023 0.45598 0.14778 0.0
H846 H 0.10643 0.47653 0.23982 0.0
H847 H 0.08048 0.49454 0.2831 0.0
H848 H 0.07472 0.78029 0.13907 0.0
H849 H 0.0726 0.81181 0.09385 0.0
H850 H 0.05522 0.83394 0.2722 0.0
H851 H 0.05646 0.8025 0.31697 0.0
H852 H 0.02976 0.8403 0.17984 0.0
H853 H 0.10118 0.86166 0.10028 0.0
H854 H 0.0942 0.83861 0.0743 0.0
H855 H 0.0973 0.84302 0.15631 0.0
C856 C 0.0709 0.79195 0.169 0.0
C857 C 0.06565 0.78882 0.2315 0.0
C858 C 0.06987 0.81 0.14324 0.0
C859 C 0.06382 0.82521 0.17978 0.0
C860 C 0.06 0.82238 0.24331 0.0
H861 H 0.02289 0.93689 0.0832 0.0
H862 H 0.03262 0.90851 0.13898 0.0
C863 C 0.06092 0.80438 0.26899 0.0
C864 C 0.05866 0.84325 0.15004 0.0
H865 H 0.07531 0.87909 0.05881 0.0
C866 C 0.03977 0.84892 0.15403 0.0
C867 C 0.07171 0.85431 0.11588 0.0
C868 C 0.09227 0.8492 0.11181 0.0
C869 C 0.03346 0.86514 0.12362 0.0
C870 C 0.04647 0.87613 0.08907 0.0
C871 C 0.06539 0.87058 0.08539 0.0
C872 C 0.04058 0.89329 0.05559 0.0
C873 C 0.01283 0.87007 0.12714 0.0
C874 C 0.04206 0.89416 0.99042 0.0
C875 C 0.03664 0.91036 0.95849 0.0
C876 C 0.02973 0.92604 0.99129 0.0
C877 C 0.02821 0.92508 0.05667 0.0
C878 C 0.03364 0.90885 0.08855 0.0
H879 H 0.00406 0.85792 0.14277 0.0
H880 H 0.0109 0.88169 0.16114 0.0
H881 H 0.00758 0.8749 0.08109 0.0
H882 H 0.04745 0.88228 0.96427 0.0
H883 H 0.03833 0.91079 0.90826 0.0
H884 H 0.75244 0.03346 0.02555 0.0
H885 H 0.72898 0.03466 0.94228 0.0
H886 H 0.69788 0.07623 0.04632 0.0
H887 H 0.72168 0.07577 0.12791 0.0
H888 H 0.6945 0.02301 0.96348 0.0
H889 H 0.68969 0.09542 0.87392 0.0
H890 H 0.70988 0.08743 0.9175 0.0
H891 H 0.68921 0.09594 0.95745 0.0
C892 C 0.74103 0.04344 0.02941 0.0
C893 C 0.73878 0.05438 0.08363 0.0
C894 C 0.72758 0.04404 0.98189 0.0
C895 C 0.71171 0.05561 0.98773 0.0
C896 C 0.71017 0.06749 0.03987 0.0
H897 H 0.5968 0.05496 0.94828 0.0
H898 H 0.63051 0.0595 0.96557 0.0
C899 C 0.72365 0.067 0.08708 0.0
C900 C 0.69522 0.05294 0.94624 0.0
H901 H 0.65989 0.07731 0.87567 0.0
C902 C 0.68725 0.03479 0.94239 0.0
C903 C 0.68576 0.06827 0.91852 0.0
C904 C 0.69424 0.0878 0.91654 0.0
C905 C 0.66932 0.03188 0.91667 0.0
C906 C 0.65919 0.04751 0.89422 0.0
C907 C 0.66769 0.0654 0.8936 0.0
C908 C 0.63895 0.04589 0.87976 0.0
C909 C 0.66069 0.01239 0.91792 0.0
C910 C 0.63264 0.03683 0.82548 0.0
C911 C 0.61333 0.03429 0.81523 0.0
C912 C 0.60009 0.04076 0.85923 0.0
C913 C 0.60658 0.05004 0.91311 0.0
C914 C 0.62582 0.05262 0.92313 0.0
H915 H 0.67016 1.00187 0.93965 0.0
H916 H 0.6472 0.01259 0.94426 0.0
H917 H 0.6575 0.00778 0.86956 0.0
H918 H 0.64264 0.03159 0.79149 0.0
H919 H 0.60876 0.02736 0.77279 0.0
H920 H 0.41595 0.72536 0.20025 0.0
H921 H 0.41258 0.69901 0.12813 0.0
H922 H 0.44443 0.72959 0.98916 0.0
H923 H 0.44922 0.75539 0.06262 0.0
H924 H 0.40029 0.69061 0.01203 0.0
H925 H 0.47847 0.68578 0.02271 0.0
H926 H 0.46536 0.70172 0.07129 0.0
H927 H 0.46996 0.70746 0.99083 0.0
C928 C 0.42219 0.72656 0.15425 0.0
C929 C 0.43345 0.74224 0.1382 0.0
C930 C 0.42004 0.71155 0.11276 0.0
C931 C 0.42883 0.71208 0.05412 0.0
C932 C 0.43805 0.72867 0.03501 0.0
H933 H 0.45526 0.61501 0.82027 0.0
H934 H 0.44665 0.64711 0.8495 0.0
C935 C 0.44055 0.74354 0.07694 0.0
C936 C 0.4304 0.69452 0.01721 0.0
H937 H 0.46261 0.66258 0.96542 0.0
C938 C 0.41391 0.68457 1.00117 0.0
C939 C 0.44822 0.68654 0.00377 0.0
C940 C 0.46651 0.6958 0.02348 0.0
C941 C 0.41479 0.66671 0.97311 0.0
C942 C 0.43257 0.65874 0.96077 0.0
C943 C 0.44901 0.66892 0.97462 0.0
C944 C 0.43473 0.63918 0.93871 0.0
C945 C 0.39679 0.65631 0.95783 0.0
C946 C 0.43073 0.62415 0.97917 0.0
C947 C 0.43597 0.60584 0.96327 0.0
C948 C 0.44532 0.60228 0.90658 0.0
C949 C 0.44845 0.61731 0.86486 0.0
C950 C 0.44334 0.63562 0.88106 0.0
H951 H 0.38445 0.66585 0.95751 0.0
H952 H 0.3979 0.64928 0.91166 0.0
H953 H 0.39427 0.64523 0.99349 0.0
H954 H 0.42443 0.62673 0.02446 0.0
H955 H 0.43352 0.59466 0.99673 0.0
H956 H 0.79365 0.44653 0.21455 0.0
H957 H 0.81995 0.44226 0.14293 0.0
H958 H 0.78162 0.44177 0.98701 0.0
H959 H 0.75498 0.44583 0.05877 0.0
H960 H 0.82886 0.41542 0.04586 0.0
H961 H 0.81646 0.48819 0.95758 0.0
H962 H 0.8054 0.47947 0.02784 0.0
H963 H 0.7972 0.47165 0.95294 0.0
C964 C 0.79067 0.44492 0.16527 0.0
C965 C 0.7722 0.44666 0.14234 0.0
C966 C 0.80576 0.44258 0.12435 0.0
C967 C 0.80271 0.44199 0.05977 0.0
C968 C 0.78424 0.44248 0.03675 0.0
H969 H 0.8966 0.46404 0.80111 0.0
H970 H 0.86496 0.45496 0.83663 0.0
C971 C 0.76907 0.44482 0.07775 0.0
C972 C 0.81914 0.44275 0.01734 0.0
H973 H 0.84419 0.47336 0.92607 0.0
C974 C 0.83209 0.42793 0.01869 0.0
C975 C 0.82324 0.45909 0.98188 0.0
C976 C 0.80996 0.4756 0.97993 0.0
C977 C 0.84945 0.42935 0.98757 0.0
C978 C 0.85404 0.44617 0.95543 0.0
C979 C 0.84062 0.46051 0.95093 0.0
C980 C 0.87332 0.45011 0.93231 0.0
C981 C 0.86289 0.41302 0.99064 0.0
C982 C 0.8884 0.45059 0.97453 0.0
C983 C 0.90638 0.45591 0.95462 0.0
C984 C 0.90963 0.46097 0.89208 0.0
C985 C 0.89451 0.46038 0.84971 0.0
C986 C 0.87648 0.45506 0.86975 0.0
H987 H 0.85522 0.39948 0.99756 0.0
H988 H 0.87154 0.41203 0.94752 0.0
H989 H 0.87251 0.41503 0.03092 0.0
H990 H 0.88614 0.4474 0.02342 0.0
H991 H 0.91762 0.45658 0.9887 0.0
H992 H 0.99409 0.21871 0.9285 0.0
H993 H 0.98853 0.18667 0.88923 0.0
H994 H 0.0452 0.18541 0.81613 0.0
H995 H 0.05056 0.21747 0.85338 0.0
H996 H 0.02237 0.17022 0.73502 0.0
H997 H 0.00626 0.13885 0.96593 0.0
H998 H 0.99047 0.15745 0.94541 0.0
H999 H 0.01509 0.16258 0.95752 0.0
C1000 C 0.00531 0.21159 0.90388 0.0
C1001 C 0.02273 0.22071 0.89387 0.0
C1002 C 1.00219 0.19319 0.88182 0.0
C1003 C 0.01656 0.18334 0.85064 0.0
C1004 C 0.03384 0.19259 0.83993 0.0
H1005 H 0.02437 0.0621 0.8065 0.0
H1006 H 0.02677 0.09507 0.83813 0.0
C1007 C 0.03687 0.21101 0.8611 0.0
C1008 C 0.01382 0.16347 0.82892 0.0
H1009 H 1.002 0.11907 0.87795 0.0
C1010 C 0.01792 0.15904 0.76637 0.0
C1011 C 0.0083 0.14872 0.86981 0.0
C1012 C 0.00496 0.15206 0.93852 0.0
C1013 C 0.01676 0.14044 0.74375 0.0
C1014 C 0.01067 0.12579 0.78415 0.0
C1015 C 0.00649 0.13023 0.84663 0.0
C1016 C 0.00925 0.10568 0.76354 0.0
C1017 C 0.02279 0.13667 0.67734 0.0
C1018 C 0.99851 0.10043 0.71111 0.0
C1019 C 0.99738 0.08152 0.69219 0.0
C1020 C 0.00659 0.06735 0.72615 0.0
C1021 C 0.01706 0.07259 0.77921 0.0
C1022 C 0.01842 0.0915 0.79748 0.0
H1023 H 0.03232 0.14793 0.65947 0.0
H1024 H 0.03014 0.12297 0.67328 0.0
H1025 H 0.01015 0.13628 0.64693 0.0
H1026 H 0.99081 0.11091 0.68506 0.0
H1027 H 0.98901 0.078 0.65157 0.0
H1028 H 0.30553 0.02691 0.9953 0.0
H1029 H 0.33708 0.02188 0.95342 0.0
H1030 H 0.31344 0.00838 0.77361 0.0
H1031 H 0.28164 0.01259 0.81583 0.0
H1032 H 0.34315 0.98508 0.80449 0.0
H1033 H 0.36342 0.05981 0.84095 0.0
H1034 H 0.35556 0.04835 0.91103 0.0
H1035 H 0.33937 0.05162 0.84748 0.0
C1036 C 0.30691 0.02246 0.94718 0.0
C1037 C 0.29089 0.02026 0.90901 0.0
C1038 C 0.32506 0.01988 0.92299 0.0
C1039 C 0.32772 0.01522 0.85988 0.0
C1040 C 0.31179 0.01219 0.82226 0.0
H1041 H 0.42931 1.00181 0.62806 0.0
H1042 H 0.39662 0.00338 0.66498 0.0
C1043 C 0.29359 0.01472 0.84646 0.0
C1044 C 0.3471 0.01391 0.83304 0.0
H1045 H 0.38802 0.03894 0.81246 0.0
C1046 C 0.35292 0.99689 0.80585 0.0
C1047 C 0.35986 0.02935 0.83438 0.0
C1048 C 0.35421 0.04837 0.85945 0.0
C1049 C 0.37129 0.99473 0.78188 0.0
C1050 C 0.38414 0.01008 0.78437 0.0
C1051 C 0.37822 0.02715 0.81078 0.0
C1052 C 0.40394 0.00865 0.76146 0.0
C1053 C 0.377 0.97588 0.75573 0.0
C1054 C 0.41898 0.01141 0.80302 0.0
C1055 C 0.43765 0.01059 0.78209 0.0
C1056 C 0.4418 0.00712 0.71882 0.0
C1057 C 0.42669 0.00443 0.67711 0.0
C1058 C 0.40797 0.00521 0.69822 0.0
H1059 H 0.36706 0.96448 0.76984 0.0
H1060 H 0.3771 0.97664 0.70401 0.0
H1061 H 0.3914 0.9721 0.77135 0.0
H1062 H 0.41625 0.01417 0.85194 0.0
H1063 H 0.44884 0.01277 0.8157 0.0
H1064 H 0.4797 0.31476 0.012 0.0
H1065 H 0.485 0.34625 0.96929 0.0
H1066 H 0.47629 0.32474 0.78324 0.0
H1067 H 0.47053 0.29319 0.82599 0.0
H1068 H 0.51005 0.36138 0.89141 0.0
H1069 H 0.43927 0.36699 0.78402 0.0
H1070 H 0.44535 0.34808 0.83622 0.0
H1071 H 0.45246 0.34731 0.75556 0.0
C1072 C 0.47914 0.31664 0.96188 0.0
C1073 C 0.47463 0.30139 0.92247 0.0
C1074 C 0.48208 0.33474 0.93748 0.0
C1075 C 0.48064 0.33809 0.87303 0.0
C1076 C 0.47691 0.32273 0.83327 0.0
H1077 H 0.49529 0.441 0.65191 0.0
H1078 H 0.49239 0.40828 0.68719 0.0
C1079 C 0.47375 0.30464 0.85773 0.0
C1080 C 0.48291 0.35766 0.84806 0.0
H1081 H 0.4609 0.39176 0.7624 0.0
C1082 C 0.49926 0.36799 0.86332 0.0
C1083 C 0.46883 0.36645 0.81146 0.0
C1084 C 0.45041 0.35672 0.79632 0.0
C1085 C 0.50195 0.38666 0.84281 0.0
C1086 C 0.48792 0.39536 0.80621 0.0
C1087 C 0.47168 0.38505 0.79029 0.0
C1088 C 0.48969 0.41529 0.78498 0.0
C1089 C 0.51988 0.39696 0.85996 0.0
C1090 C 0.48892 0.43016 0.82814 0.0
C1091 C 0.4904 0.44892 0.80812 0.0
C1092 C 0.49276 0.45323 0.74443 0.0
C1093 C 0.49348 0.43826 0.7013 0.0
C1094 C 0.49183 0.41951 0.72135 0.0
H1095 H 0.53083 0.38723 0.87769 0.0
H1096 H 0.52562 0.40471 0.81903 0.0
H1097 H 0.51678 0.40742 0.89703 0.0
H1098 H 0.48707 0.42725 0.87741 0.0
H1099 H 0.48981 0.46003 0.84268 0.0
H1100 H 0.19635 0.49481 0.99601 0.0
H1101 H 0.16528 0.49961 0.95043 0.0
H1102 H 0.19104 0.51804 0.77849 0.0
H1103 H 0.22235 0.51368 0.82416 0.0
H1104 H 0.1486 0.53266 0.89488 0.0
H1105 H 0.15603 0.47341 0.72676 0.0
H1106 H 0.17133 0.47621 0.79343 0.0
H1107 H 0.17448 0.49092 0.72604 0.0
C1108 C 0.19552 0.5003 0.94896 0.0
C1109 C 0.21199 0.50385 0.91389 0.0
C1110 C 0.17768 0.50289 0.92279 0.0
C1111 C 0.17582 0.50891 0.86079 0.0
C1112 C 0.19215 0.51304 0.8261 0.0
H1113 H 0.07384 0.51614 0.63054 0.0
H1114 H 0.10652 0.51717 0.6673 0.0
C1115 C 0.21004 0.51054 0.85233 0.0
C1116 C 0.15676 0.51041 0.83248 0.0
H1117 H 0.12762 0.4903 0.72401 0.0
C1118 C 0.14402 0.52346 0.85734 0.0
C1119 C 0.15083 0.49845 0.78331 0.0
C1120 C 0.16378 0.48384 0.75589 0.0
C1121 C 0.12551 0.52485 0.83453 0.0
C1122 C 0.11938 0.5125 0.78659 0.0
C1123 C 0.13227 0.49973 0.76081 0.0
C1124 C 0.09949 0.51212 0.76422 0.0
C1125 C 0.11277 0.5397 0.86165 0.0
C1126 C 0.08464 0.50862 0.80615 0.0
C1127 C 0.06597 0.5081 0.78538 0.0
C1128 C 0.06167 0.51085 0.72193 0.0
C1129 C 0.07659 0.51403 0.67974 0.0
C1130 C 0.0953 0.51462 0.70068 0.0
H1131 H 0.12102 0.55153 0.88222 0.0
H1132 H 0.10314 0.54546 0.82571 0.0
H1133 H 0.10412 0.53335 0.89946 0.0
H1134 H 0.0875 0.50611 0.85506 0.0
H1135 H 0.05491 0.50545 0.81922 0.0
H1136 H 0.01236 0.81049 0.35782 0.0
H1137 H 0.01135 0.84275 0.39748 0.0
H1138 H 0.97909 0.82392 0.55659 0.0
H1139 H 0.97963 0.79158 0.51641 0.0
H1140 H 0.96574 0.8578 0.50411 0.0
H1141 H 0.0428 0.86138 0.54645 0.0
H1142 H 0.03648 0.85489 0.46815 0.0
H1143 H 0.0305 0.83947 0.5318 0.0
C1144 C 0.00473 0.8132 0.40067 0.0
C1145 C 0.99605 0.79834 0.43384 0.0
C1146 C 0.00439 0.83166 0.42376 0.0
C1147 C 0.99545 0.83575 0.48066 0.0
C1148 C 0.98622 0.8211 0.51285 0.0
H1149 H 0.01117 0.93926 0.69857 0.0
H1150 H 0.00951 0.9064 0.66379 0.0
C1151 C 0.9866 0.8026 0.4899 0.0
C1152 C 0.99592 0.85523 0.50684 0.0
H1153 H 0.02592 0.88998 0.5572 0.0
C1154 C 0.97889 0.86482 0.5159 0.0
C1155 C 0.01306 0.86432 0.52319 0.0
C1156 C 0.03176 0.85446 0.51753 0.0
C1157 C 0.97857 0.88336 0.53924 0.0
C1158 C 0.99575 0.89269 0.55343 0.0
C1159 C 0.01275 0.88292 0.54589 0.0
C1160 C 0.99642 0.91266 0.57515 0.0
C1161 C 0.9598 0.89276 0.5491 0.0
C1162 C 0.98981 0.92719 0.53674 0.0
C1163 C 0.99079 0.946 0.55633 0.0
C1164 C 0.99846 0.9508 0.61491 0.0
C1165 C 0.00513 0.93618 0.65329 0.0
C1166 C 0.00421 0.91735 0.63345 0.0
H1167 H 0.9481 0.88231 0.55208 0.0
H1168 H 0.95987 0.90138 0.59235 0.0
H1169 H 0.95692 0.90223 0.50909 0.0
H1170 H 0.98409 0.92401 0.49108 0.0
H1171 H 0.98557 0.95678 0.52522 0.0
H1172 H 0.71357 0.97449 0.45082 0.0
H1173 H 0.68113 0.97123 0.48994 0.0
H1174 H 0.67316 0.03106 0.46748 0.0
H1175 H 0.70568 0.0344 0.43158 0.0
H1176 H 0.65851 0.02115 0.57171 0.0
H1177 H 0.63336 0.96988 0.39511 0.0
H1178 H 0.65275 0.96116 0.43986 0.0
H1179 H 0.65609 0.98123 0.3895 0.0
C1180 C 0.70482 0.98689 0.45428 0.0
C1181 C 0.71218 0.0047 0.43842 0.0
C1182 C 0.68621 0.98502 0.47616 0.0
C1183 C 0.67441 1.00085 0.48077 0.0
C1184 C 0.68185 0.0186 0.46464 0.0
H1185 H 0.5522 1.00028 0.49832 0.0
H1186 H 0.58553 1.00001 0.4692 0.0
C1187 C 0.70048 0.02051 0.44409 0.0
C1188 C 0.65446 0.99926 0.50333 0.0
H1189 H 0.61238 0.97673 0.47805 0.0
C1190 C 0.64843 0.01145 0.55099 0.0
C1191 C 0.64112 0.98677 0.47614 0.0
C1192 C 0.64608 0.97416 0.42192 0.0
C1193 C 0.62957 0.01177 0.57145 0.0
C1194 C 0.61632 0.99891 0.54551 0.0
C1195 C 0.62243 0.98652 0.49844 0.0
C1196 C 0.59594 0.99864 0.56411 0.0
C1197 C 0.62403 0.02648 0.61886 0.0
C1198 C 0.59042 0.99764 0.62717 0.0
C1199 C 0.57132 0.99829 0.64393 0.0
C1200 C 0.55724 0.99928 0.59796 0.0
C1201 C 0.56269 0.99946 0.53487 0.0
C1202 C 0.5818 0.99929 0.51819 0.0
H1203 H 0.63392 0.03868 0.61836 0.0
H1204 H 0.60958 0.03178 0.61026 0.0
H1205 H 0.62452 0.02021 0.66623 0.0
H1206 H 0.60086 0.99639 0.66366 0.0
H1207 H 0.56758 0.99782 0.69291 0.0
H1208 H 0.53065 0.72283 0.45118 0.0
H1209 H 0.53396 0.69062 0.49154 0.0
H1210 H 0.47338 0.68467 0.4969 0.0
H1211 H 0.47017 0.71703 0.46011 0.0
H1212 H 0.4865 0.67048 0.59646 0.0
H1213 H 0.52938 0.64213 0.40232 0.0
H1214 H 0.54076 0.66152 0.44081 0.0
H1215 H 0.51903 0.66521 0.39936 0.0
C1216 C 0.51811 0.71457 0.46111 0.0
C1217 C 0.50017 0.72243 0.45287 0.0
C1218 C 0.51997 0.69609 0.48361 0.0
C1219 C 0.50392 0.68492 0.49633 0.0
C1220 C 0.48602 0.69287 0.48771 0.0
H1221 H 0.50011 0.56294 0.53105 0.0
H1222 H 0.50043 0.59576 0.4963 0.0
C1223 C 0.48418 0.71139 0.46666 0.0
C1224 C 0.50548 0.66514 0.51997 0.0
H1225 H 0.5252 0.62223 0.4903 0.0
C1226 C 0.49494 0.65994 0.57298 0.0
C1227 C 0.51626 0.65119 0.48919 0.0
C1228 C 0.52683 0.65522 0.42943 0.0
C1229 C 0.49467 0.64133 0.59554 0.0
C1230 C 0.50599 0.62753 0.56614 0.0
C1231 C 0.51666 0.63275 0.51342 0.0
C1232 C 0.50639 0.60748 0.58761 0.0
C1233 C 0.48159 0.63661 0.64908 0.0
C1234 C 0.50997 0.6029 0.65035 0.0
C1235 C 0.50933 0.58413 0.67056 0.0
C1236 C 0.50574 0.56944 0.62811 0.0
C1237 C 0.50296 0.57392 0.56491 0.0
C1238 C 0.50316 0.59272 0.54499 0.0
H1239 H 0.46984 0.64682 0.6525 0.0
H1240 H 0.47546 0.62226 0.64407 0.0
H1241 H 0.48956 0.6373 0.69354 0.0
H1242 H 0.51318 0.61384 0.68393 0.0
H1243 H 0.51177 0.58113 0.71945 0.0
H1244 H 0.79897 0.53758 0.38309 0.0
H1245 H 0.83158 0.54062 0.41935 0.0
H1246 H 0.8229 0.49408 0.54543 0.0
H1247 H 0.79054 0.49062 0.5088 0.0
H1248 H 0.84261 0.52585 0.59868 0.0
H1249 H 0.8736 0.50262 0.37306 0.0
H1250 H 0.85725 0.52181 0.36878 0.0
H1251 H 0.84907 0.49889 0.39232 0.0
C1252 C 0.80397 0.52795 0.41845 0.0
C1253 C 0.79199 0.51383 0.44279 0.0
C1254 C 0.82264 0.52973 0.43917 0.0
C1255 C 0.82975 0.51742 0.48457 0.0
C1256 C 0.81772 0.50374 0.51039 0.0
H1257 H 0.93609 0.49567 0.67116 0.0
H1258 H 0.90309 0.49737 0.63971 0.0
C1259 C 0.79911 0.50189 0.48961 0.0
C1260 C 0.84984 0.5184 0.50432 0.0
H1261 H 0.89483 0.51139 0.45247 0.0
C1262 C 0.85405 0.52274 0.56673 0.0
C1263 C 0.86475 0.51435 0.46258 0.0
C1264 C 0.86105 0.50901 0.39552 0.0
C1265 C 0.87276 0.52328 0.58842 0.0
C1266 C 0.88768 0.51889 0.54694 0.0
C1267 C 0.88344 0.51475 0.48434 0.0
C1268 C 0.90775 0.51822 0.56746 0.0
C1269 C 0.87635 0.52887 0.65532 0.0
C1270 C 0.92156 0.52898 0.53642 0.0
C1271 C 0.94054 0.52787 0.55385 0.0
C1272 C 0.94618 0.51594 0.60276 0.0
C1273 C 0.9323 0.50518 0.63382 0.0
C1274 C 0.91334 0.50622 0.61609 0.0
H1275 H 0.86453 0.53727 0.6746 0.0
H1276 H 0.87768 0.51599 0.68422 0.0
H1277 H 0.88957 0.53722 0.65974 0.0
H1278 H 0.91766 0.53826 0.49854 0.0
H1279 H 0.95079 0.53637 0.52879 0.0
loop_
_geom_bond_atom_site_label_1
_geom_bond_atom_site_label_2
_geom_bond_distance
_geom_bond_site_symmetry_2
_ccdc_geom_bond_type
P0 O11 1.490 . S
P0 C14 1.812 . S
P0 C20 1.803 . S
P0 C26 1.819 . S
H1 C15 0.941 . S
H2 C16 0.939 . S
H3 C18 0.940 . S
H4 C19 0.940 . S
H5 C21 0.939 . S
H6 C22 0.942 . S
H7 C24 0.940 . S
H8 C25 0.939 . S
H9 C27 0.941 . S
H10 C31 0.939 . S
O11 P0 1.490 . S
H12 C28 0.939 . S
H13 C30 0.940 . S
C14 P0 1.812 . S
C14 C15 1.389 . S
C14 C19 1.391 . S
C15 H1 0.941 . S
C15 C14 1.389 . S
C15 C16 1.397 . S
C16 H2 0.939 . S
C16 C15 1.397 . S
C16 C17 1.378 . S
C17 C16 1.378 . S
C17 C18 1.378 . S
C18 H3 0.940 . S
C18 C17 1.378 . S
C18 C19 1.396 . S
C19 H4 0.940 . S
C19 C14 1.391 . S
C19 C18 1.396 . S
C20 P0 1.803 . S
C20 C21 1.378 . S
C20 C25 1.400 . S
C21 H5 0.939 . S
C21 C20 1.378 . S
C21 C22 1.361 . S
C22 H6 0.942 . S
C22 C21 1.361 . S
C22 C23 1.369 . S
C23 C22 1.369 . S
C23 C24 1.404 . S
C24 H7 0.940 . S
C24 C23 1.404 . S
C24 C25 1.389 . S
C25 H8 0.939 . S
C25 C20 1.400 . S
C25 C24 1.389 . S
C26 P0 1.819 . S
C26 C27 1.391 . S
C26 C31 1.391 . S
C27 H9 0.941 . S
C27 C26 1.391 . S
C27 C28 1.396 . S
C28 H12 0.939 . S
C28 C27 1.396 . S
C28 C29 1.397 . S
C29 C28 1.397 . S
C29 C30 1.385 . S
C30 H13 0.940 . S
C30 C29 1.385 . S
C30 C31 1.388 . S
C31 H10 0.939 . S
C31 C26 1.391 . S
C31 C30 1.388 . S
P32 O43 1.490 . S
P32 C46 1.812 . S
P32 C52 1.803 . S
P32 C58 1.819 . S
H33 C47 0.941 . S
H34 C48 0.939 . S
H35 C50 0.940 . S
H36 C51 0.950 . S
H37 C53 0.939 . S
H38 C54 0.942 . S
H39 C56 0.940 . S
H40 C57 0.959 . S
H41 C59 0.941 . S
H42 C63 0.929 1_655 S
O43 P32 1.490 . S
H44 C60 0.939 . S
H45 C62 0.940 . S
C46 P32 1.812 . S
C46 C47 1.389 . S
C46 C51 1.375 1_455 S
C47 H33 0.941 . S
C47 C46 1.389 . S
C47 C48 1.397 . S
C48 H34 0.939 . S
C48 C47 1.397 . S
C48 C49 1.378 . S
C49 C48 1.378 . S
C49 C50 1.378 1_455 S
C50 H35 0.940 . S
C50 C49 1.378 1_655 S
C50 C51 1.403 . S
C51 H36 0.950 . S
C51 C46 1.375 1_655 S
C51 C50 1.403 . S
C52 P32 1.803 . S
C52 C53 1.378 . S
C52 C57 1.368 1_455 S
C53 H37 0.939 . S
C53 C52 1.378 . S
C53 C54 1.361 . S
C54 H38 0.942 . S
C54 C53 1.361 . S
C54 C55 1.369 . S
C55 C54 1.369 . S
C55 C56 1.404 1_455 S
C56 H39 0.940 . S
C56 C55 1.404 1_655 S
C56 C57 1.402 . S
C57 H40 0.959 . S
C57 C52 1.368 1_655 S
C57 C56 1.402 . S
C58 P32 1.819 . S
C58 C59 1.391 . S
C58 C63 1.391 . S
C59 H41 0.941 . S
C59 C58 1.391 . S
C59 C60 1.396 . S
C60 H44 0.939 . S
C60 C59 1.396 . S
C60 C61 1.397 . S
C61 C60 1.397 . S
C61 C62 1.385 1_455 S
C62 H45 0.940 . S
C62 C61 1.385 1_655 S
C62 C63 1.388 1_655 S
C63 H42 0.929 1_455 S
C63 C58 1.391 . S
C63 C62 1.388 1_455 S
P64 O75 1.490 . S
P64 C78 1.812 . S
P64 C84 1.803 . S
P64 C90 1.819 . S
H65 C79 0.941 . S
H66 C80 0.939 . S
H67 C82 0.940 . S
H68 C83 0.940 . S
H69 C85 0.939 . S
H70 C86 0.942 . S
H71 C88 0.940 . S
H72 C89 0.939 . S
H73 C91 0.941 . S
H74 C95 0.939 . S
O75 P64 1.490 . S
H76 C92 0.939 . S
H77 C94 0.940 . S
C78 P64 1.812 . S
C78 C79 1.389 . S
C78 C83 1.391 1_545 S
C79 H65 0.941 . S
C79 C78 1.389 . S
C79 C80 1.397 . S
C80 H66 0.939 . S
C80 C79 1.397 . S
C80 C81 1.378 1_545 S
C81 C80 1.378 1_565 S
C81 C82 1.378 . S
C82 H67 0.940 . S
C82 C81 1.378 . S
C82 C83 1.396 . S
C83 H68 0.940 . S
C83 C78 1.391 1_565 S
C83 C82 1.396 . S
C84 P64 1.803 . S
C84 C85 1.378 . S
C84 C89 1.400 1_545 S
C85 H69 0.939 . S
C85 C84 1.378 . S
C85 C86 1.361 . S
C86 H70 0.942 . S
C86 C85 1.361 . S
C86 C87 1.369 1_545 S
C87 C86 1.369 1_565 S
C87 C88 1.404 . S
C88 H71 0.940 . S
C88 C87 1.404 . S
C88 C89 1.389 . S
C89 H72 0.939 . S
C89 C84 1.400 1_565 S
C89 C88 1.389 . S
C90 P64 1.819 . S
C90 C91 1.391 . S
C90 C95 1.391 1_545 S
C91 H73 0.941 . S
C91 C90 1.391 . S
C91 C92 1.396 . S
C92 H76 0.939 . S
C92 C91 1.396 . S
C92 C93 1.397 1_545 S
C93 C92 1.397 1_565 S
C93 C94 1.385 . S
C94 H77 0.940 . S
C94 C93 1.385 . S
C94 C95 1.388 . S
C95 H74 0.939 . S
C95 C90 1.391 1_565 S
C95 C94 1.388 . S
P96 O107 1.490 . S
P96 C110 1.812 . S
P96 C116 1.803 . S
P96 C122 1.819 . S
H97 C111 0.941 . S
H98 C112 0.939 . S
H99 C114 0.940 . S
H100 C115 0.940 . S
H101 C117 0.939 . S
H102 C118 0.942 . S
H103 C120 0.940 . S
H104 C121 0.939 . S
H105 C123 0.941 . S
H106 C127 0.939 . S
O107 P96 1.490 . S
H108 C124 0.939 . S
H109 C126 0.940 . S
C110 P96 1.812 . S
C110 C111 1.389 . S
C110 C115 1.391 . S
C111 H97 0.941 . S
C111 C110 1.389 . S
C111 C112 1.397 . S
C112 H98 0.939 . S
C112 C111 1.397 . S
C112 C113 1.378 . S
C113 C112 1.378 . S
C113 C114 1.378 . S
C114 H99 0.940 . S
C114 C113 1.378 . S
C114 C115 1.396 . S
C115 H100 0.940 . S
C115 C110 1.391 . S
C115 C114 1.396 . S
C116 P96 1.803 . S
C116 C117 1.378 . S
C116 C121 1.400 . S
C117 H101 0.939 . S
C117 C116 1.378 . S
C117 C118 1.361 . S
C118 H102 0.942 . S
C118 C117 1.361 . S
C118 C119 1.369 . S
C119 C118 1.369 . S
C119 C120 1.404 . S
C120 H103 0.940 . S
C120 C119 1.404 . S
C120 C121 1.389 . S
C121 H104 0.939 . S
C121 C116 1.400 . S
C121 C120 1.389 . S
C122 P96 1.819 . S
C122 C123 1.391 . S
C122 C127 1.391 . S
C123 H105 0.941 . S
C123 C122 1.391 . S
C123 C124 1.396 . S
C124 H108 0.939 . S
C124 C123 1.396 . S
C124 C125 1.397 . S
C125 C124 1.397 . S
C125 C126 1.385 . S
C126 H109 0.940 . S
C126 C125 1.385 . S
C126 C127 1.388 . S
C127 H106 0.939 . S
C127 C122 1.391 . S
C127 C126 1.388 . S
P128 O139 1.490 . S
P128 C142 1.812 1_554 S
P128 C148 1.803 . S
P128 C154 1.819 . S
H129 C143 0.941 . S
H130 C144 0.939 . S
H131 C146 0.940 . S
H132 C147 0.940 . S
H133 C149 0.939 . S
H134 C150 0.942 . S
H135 C152 0.940 . S
H136 C153 0.939 . S
H137 C155 0.941 . S
H138 C159 0.939 . S
O139 P128 1.490 . S
H140 C156 0.939 . S
H141 C158 0.940 . S
C142 P128 1.812 1_556 S
C142 C143 1.389 . S
C142 C147 1.391 . S
C143 H129 0.941 . S
C143 C142 1.389 . S
C143 C144 1.397 . S
C144 H130 0.939 . S
C144 C143 1.397 . S
C144 C145 1.378 . S
C145 C144 1.378 . S
C145 C146 1.378 . S
C146 H131 0.940 . S
C146 C145 1.378 . S
C146 C147 1.396 . S
C147 H132 0.940 . S
C147 C142 1.391 . S
C147 C146 1.396 . S
C148 P128 1.803 . S
C148 C149 1.378 . S
C148 C153 1.400 . S
C149 H133 0.939 . S
C149 C148 1.378 . S
C149 C150 1.361 . S
C150 H134 0.942 . S
C150 C149 1.361 . S
C150 C151 1.369 . S
C151 C150 1.369 . S
C151 C152 1.404 . S
C152 H135 0.940 . S
C152 C151 1.404 . S
C152 C153 1.389 . S
C153 H136 0.939 . S
C153 C148 1.400 . S
C153 C152 1.389 . S
C154 P128 1.819 . S
C154 C155 1.391 . S
C154 C159 1.391 . S
C155 H137 0.941 . S
C155 C154 1.391 . S
C155 C156 1.396 . S
C156 H140 0.939 . S
C156 C155 1.396 . S
C156 C157 1.397 . S
C157 C156 1.397 . S
C157 C158 1.385 . S
C158 H141 0.940 . S
C158 C157 1.385 . S
C158 C159 1.388 . S
C159 H138 0.939 . S
C159 C154 1.391 . S
C159 C158 1.388 . S
P160 O171 1.490 . S
P160 C174 1.812 1_554 S
P160 C180 1.803 . S
P160 C186 1.819 . S
H161 C175 0.941 . S
H162 C176 0.939 . S
H163 C178 0.940 . S
H164 C179 0.942 . S
H165 C181 0.939 . S
H166 C182 0.942 . S
H167 C184 0.940 . S
H168 C185 0.951 . S
H169 C187 0.941 . S
H170 C191 0.934 1_655 S
O171 P160 1.490 . S
H172 C188 0.939 . S
H173 C190 0.940 . S
C174 P160 1.812 1_556 S
C174 C175 1.389 . S
C174 C179 1.388 1_455 S
C175 H161 0.941 . S
C175 C174 1.389 . S
C175 C176 1.397 . S
C176 H162 0.939 . S
C176 C175 1.397 . S
C176 C177 1.378 . S
C177 C176 1.378 . S
C177 C178 1.378 1_455 S
C178 H163 0.940 . S
C178 C177 1.378 1_655 S
C178 C179 1.398 . S
C179 H164 0.942 . S
C179 C174 1.388 1_655 S
C179 C178 1.398 . S
C180 P160 1.803 . S
C180 C181 1.378 . S
C180 C185 1.381 1_455 S
C181 H165 0.939 . S
C181 C180 1.378 . S
C181 C182 1.361 . S
C182 H166 0.942 . S
C182 C181 1.361 . S
C182 C183 1.369 . S
C183 C182 1.369 . S
C183 C184 1.404 1_455 S
C184 H167 0.940 . S
C184 C183 1.404 1_655 S
C184 C185 1.397 . S
C185 H168 0.951 . S
C185 C180 1.381 1_655 S
C185 C184 1.397 . S
C186 P160 1.819 . S
C186 C187 1.391 . S
C186 C191 1.391 . S
C187 H169 0.941 . S
C187 C186 1.391 . S
C187 C188 1.396 . S
C188 H172 0.939 . S
C188 C187 1.396 . S
C188 C189 1.397 . S
C189 C188 1.397 . S
C189 C190 1.385 1_455 S
C190 H173 0.940 . S
C190 C189 1.385 1_655 S
C190 C191 1.388 1_655 S
C191 H170 0.934 1_455 S
C191 C186 1.391 . S
C191 C190 1.388 1_455 S
P192 O203 1.490 . S
P192 C206 1.812 1_554 S
P192 C212 1.803 . S
P192 C218 1.819 . S
H193 C207 0.941 . S
H194 C208 0.939 . S
H195 C210 0.940 . S
H196 C211 0.940 . S
H197 C213 0.939 . S
H198 C214 0.942 . S
H199 C216 0.940 . S
H200 C217 0.939 . S
H201 C219 0.941 . S
H202 C223 0.939 . S
O203 P192 1.490 . S
H204 C220 0.939 . S
H205 C222 0.940 . S
C206 P192 1.812 1_556 S
C206 C207 1.389 . S
C206 C211 1.391 . S
C207 H193 0.941 . S
C207 C206 1.389 . S
C207 C208 1.397 . S
C208 H194 0.939 . S
C208 C207 1.397 . S
C208 C209 1.378 . S
C209 C208 1.378 . S
C209 C210 1.378 . S
C210 H195 0.940 . S
C210 C209 1.378 . S
C210 C211 1.396 . S
C211 H196 0.940 . S
C211 C206 1.391 . S
C211 C210 1.396 . S
C212 P192 1.803 . S
C212 C213 1.378 . S
C212 C217 1.400 . S
C213 H197 0.939 . S
C213 C212 1.378 . S
C213 C214 1.361 . S
C214 H198 0.942 . S
C214 C213 1.361 . S
C214 C215 1.369 . S
C215 C214 1.369 . S
C215 C216 1.404 . S
C216 H199 0.940 . S
C216 C215 1.404 . S
C216 C217 1.389 . S
C217 H200 0.939 . S
C217 C212 1.400 . S
C217 C216 1.389 . S
C218 P192 1.819 . S
C218 C219 1.391 . S
C218 C223 1.391 . S
C219 H201 0.941 . S
C219 C218 1.391 . S
C219 C220 1.396 . S
C220 H204 0.939 . S
C220 C219 1.396 . S
C220 C221 1.397 . S
C221 C220 1.397 . S
C221 C222 1.385 . S
C222 H205 0.940 . S
C222 C221 1.385 . S
C222 C223 1.388 . S
C223 H202 0.939 . S
C223 C218 1.391 . S
C223 C222 1.388 . S
P224 O235 1.490 . S
P224 C238 1.812 1_554 S
P224 C244 1.803 . S
P224 C250 1.819 . S
H225 C239 0.941 . S
H226 C240 0.939 . S
H227 C242 0.940 . S
H228 C243 0.940 . S
H229 C245 0.939 . S
H230 C246 0.942 . S
H231 C248 0.940 . S
H232 C249 0.939 . S
H233 C251 0.941 . S
H234 C255 0.939 . S
O235 P224 1.490 . S
H236 C252 0.939 . S
H237 C254 0.940 . S
C238 P224 1.812 1_556 S
C238 C239 1.389 . S
C238 C243 1.391 . S
C239 H225 0.941 . S
C239 C238 1.389 . S
C239 C240 1.397 . S
C240 H226 0.939 . S
C240 C239 1.397 . S
C240 C241 1.378 . S
C241 C240 1.378 . S
C241 C242 1.378 . S
C242 H227 0.940 . S
C242 C241 1.378 . S
C242 C243 1.396 . S
C243 H228 0.940 . S
C243 C238 1.391 . S
C243 C242 1.396 . S
C244 P224 1.803 . S
C244 C245 1.378 . S
C244 C249 1.400 . S
C245 H229 0.939 . S
C245 C244 1.378 . S
C245 C246 1.361 . S
C246 H230 0.942 . S
C246 C245 1.361 . S
C246 C247 1.369 . S
C247 C246 1.369 . S
C247 C248 1.404 . S
C248 H231 0.940 . S
C248 C247 1.404 . S
C248 C249 1.389 . S
C249 H232 0.939 . S
C249 C244 1.400 . S
C249 C248 1.389 . S
C250 P224 1.819 . S
C250 C251 1.391 . S
C250 C255 1.391 . S
C251 H233 0.941 . S
C251 C250 1.391 . S
C251 C252 1.396 . S
C252 H236 0.939 . S
C252 C251 1.396 . S
C252 C253 1.397 . S
C253 C252 1.397 . S
C253 C254 1.385 . S
C254 H237 0.940 . S
C254 C253 1.385 . S
C254 C255 1.388 . S
C255 H234 0.939 . S
C255 C250 1.391 . S
C255 C254 1.388 . S
Gd256 C259 2.818 . S
Gd256 O276 2.377 . S
Gd256 O278 2.448 . S
Gd256 O279 2.506 . S
Gd256 O280 2.435 . S
Gd256 O281 2.717 1_565 S
Gd256 O283 2.395 1_565 S
Gd256 O287 2.324 1_465 S
Gd257 C268 2.818 . S
Gd257 O277 2.395 1_545 S
Gd257 O281 2.327 1_655 S
Gd257 O282 2.377 . S
Gd257 O284 2.448 . S
Gd257 O285 2.506 . S
Gd257 O286 2.435 . S
Gd257 O287 2.724 . S
C258 O276 1.240 1_655 S
C258 O277 1.240 . S
C259 Gd256 2.818 . S
C259 C260 1.510 . S
C259 O278 1.249 . S
C259 O279 1.252 . S
C260 C259 1.510 . S
C260 C261 1.404 . S
C260 C262 1.352 . S
C261 C260 1.404 . S
C261 C265 1.389 . S
C261 H288 0.930 . S
C262 C260 1.352 . S
C262 C264 1.374 . S
C262 H289 0.931 1_455 S
C263 C264 1.359 . S
C263 C265 1.364 . S
C264 C262 1.374 . S
C264 C263 1.359 . S
C264 H290 0.931 1_455 S
C265 C261 1.389 . S
C265 C263 1.364 . S
C265 H291 0.931 . S
C266 O280 1.256 1_545 S
C266 O281 1.257 . S
C267 O282 1.240 1_455 S
C267 O283 1.240 . S
C268 Gd257 2.818 . S
C268 C269 1.510 . S
C268 O284 1.249 . S
C268 O285 1.252 . S
C269 C268 1.510 . S
C269 C270 1.404 . S
C269 C271 1.352 . S
C270 C269 1.404 . S
C270 C274 1.389 . S
C270 H292 0.930 . S
C271 C269 1.352 . S
C271 C273 1.374 . S
C271 H293 0.931 1_655 S
C272 C273 1.359 . S
C272 C274 1.364 . S
C273 C271 1.374 . S
C273 C272 1.359 . S
C273 H294 0.931 1_655 S
C274 C270 1.389 . S
C274 C272 1.364 . S
C274 H295 0.931 . S
C275 O286 1.256 . S
C275 O287 1.262 . S
O276 Gd256 2.377 . S
O276 C258 1.240 1_455 S
O277 Gd257 2.395 1_565 S
O277 C258 1.240 . S
O278 Gd256 2.448 . S
O278 C259 1.249 . S
O279 Gd256 2.506 . S
O279 C259 1.252 . S
O280 Gd256 2.435 . S
O280 C266 1.256 1_565 S
O281 Gd256 2.717 1_545 S
O281 Gd257 2.327 1_455 S
O281 C266 1.257 . S
O282 Gd257 2.377 . S
O282 C267 1.240 1_655 S
O283 Gd256 2.395 1_545 S
O283 C267 1.240 . S
O284 Gd257 2.448 . S
O284 C268 1.249 . S
O285 Gd257 2.506 . S
O285 C268 1.252 . S
O286 Gd257 2.435 . S
O286 C275 1.256 . S
O287 Gd256 2.324 1_645 S
O287 Gd257 2.724 . S
O287 C275 1.262 . S
H288 C261 0.930 . S
H289 C262 0.931 1_655 S
H290 C264 0.931 1_655 S
H291 C265 0.931 . S
H292 C270 0.930 . S
H293 C271 0.931 1_455 S
H294 C273 0.931 1_455 S
H295 C274 0.931 . S
Gd296 C299 2.818 . S
Gd296 O316 2.377 . S
Gd296 O318 2.448 . S
Gd296 O319 2.506 . S
Gd296 O320 2.435 . S
Gd296 O321 2.717 . S
Gd296 O323 2.395 . S
Gd296 O327 2.327 1_545 S
Gd297 C308 2.818 . S
Gd297 O317 2.395 . S
Gd297 O321 2.327 1_565 S
Gd297 O322 2.367 1_565 S
Gd297 O324 2.448 . S
Gd297 O325 2.506 1_565 S
Gd297 O326 2.435 . S
Gd297 O327 2.717 . S
C298 O316 1.240 1_565 S
C298 O317 1.240 . S
C299 Gd296 2.818 . S
C299 C300 1.510 . S
C299 O318 1.249 . S
C299 O319 1.252 . S
C300 C299 1.510 . S
C300 C301 1.404 . S
C300 C302 1.352 . S
C301 C300 1.404 . S
C301 C305 1.389 . S
C301 H328 0.930 . S
C302 C300 1.352 . S
C302 C304 1.374 . S
C302 H329 0.931 1_545 S
C303 C304 1.359 . S
C303 C305 1.364 . S
C304 C302 1.374 . S
C304 C303 1.359 . S
C304 H330 0.931 1_545 S
C305 C301 1.389 . S
C305 C303 1.364 . S
C305 H331 0.931 . S
C306 O320 1.256 . S
C306 O321 1.257 . S
C307 O322 1.266 . S
C307 O323 1.240 . S
C308 Gd297 2.818 . S
C308 C309 1.510 . S
C308 O324 1.249 . S
C308 O325 1.252 1_565 S
C309 C308 1.510 . S
C309 C310 1.404 . S
C309 C311 1.352 1_565 S
C310 C309 1.404 . S
C310 C314 1.389 . S
C310 H332 0.930 . S
C311 C309 1.352 1_545 S
C311 C313 1.374 . S
C311 H333 0.931 . S
C312 C313 1.359 1_565 S
C312 C314 1.364 . S
C313 C311 1.374 . S
C313 C312 1.359 1_545 S
C313 H334 0.931 . S
C314 C310 1.389 . S
C314 C312 1.364 . S
C314 H335 0.931 . S
C315 O326 1.256 . S
C315 O327 1.257 . S
O316 Gd296 2.377 . S
O316 C298 1.240 1_545 S
O317 Gd297 2.395 . S
O317 C298 1.240 . S
O318 Gd296 2.448 . S
O318 C299 1.249 . S
O319 Gd296 2.506 . S
O319 C299 1.252 . S
O320 Gd296 2.435 . S
O320 C306 1.256 . S
O321 Gd296 2.717 . S
O321 Gd297 2.327 1_545 S
O321 C306 1.257 . S
O322 Gd297 2.367 1_545 S
O322 C307 1.266 . S
O323 Gd296 2.395 . S
O323 C307 1.240 . S
O324 Gd297 2.448 . S
O324 C308 1.249 . S
O325 Gd297 2.506 1_545 S
O325 C308 1.252 1_545 S
O326 Gd297 2.435 . S
O326 C315 1.256 . S
O327 Gd296 2.327 1_565 S
O327 Gd297 2.717 . S
O327 C315 1.257 . S
H328 C301 0.930 . S
H329 C302 0.931 1_565 S
H330 C304 0.931 1_565 S
H331 C305 0.931 . S
H332 C310 0.930 . S
H333 C311 0.931 . S
H334 C313 0.931 . S
H335 C314 0.931 . S
Gd336 C339 2.818 . S
Gd336 O356 2.377 . S
Gd336 O358 2.448 . S
Gd336 O359 2.506 . S
Gd336 O360 2.435 . S
Gd336 O361 2.717 . S
Gd336 O363 2.395 . S
Gd336 O367 2.327 . S
Gd337 C348 2.818 . S
Gd337 O357 2.395 . S
Gd337 O361 2.327 . S
Gd337 O362 2.377 . S
Gd337 O364 2.448 . S
Gd337 O365 2.506 . S
Gd337 O366 2.435 . S
Gd337 O367 2.717 . S
C338 O356 1.240 . S
C338 O357 1.240 . S
C339 Gd336 2.818 . S
C339 C340 1.510 . S
C339 O358 1.249 . S
C339 O359 1.252 . S
C340 C339 1.510 . S
C340 C341 1.404 . S
C340 C342 1.352 . S
C341 C340 1.404 . S
C341 C345 1.389 . S
C341 H368 0.930 . S
C342 C340 1.352 . S
C342 C344 1.374 . S
C342 H369 0.931 . S
C343 C344 1.359 . S
C343 C345 1.364 . S
C344 C342 1.374 . S
C344 C343 1.359 . S
C344 H370 0.931 . S
C345 C341 1.389 . S
C345 C343 1.364 . S
C345 H371 0.931 . S
C346 O360 1.256 . S
C346 O361 1.257 . S
C347 O362 1.240 . S
C347 O363 1.240 . S
C348 Gd337 2.818 . S
C348 C349 1.510 . S
C348 O364 1.249 . S
C348 O365 1.252 . S
C349 C348 1.510 . S
C349 C350 1.404 . S
C349 C351 1.352 . S
C350 C349 1.404 . S
C350 C354 1.389 . S
C350 H372 0.930 . S
C351 C349 1.352 . S
C351 C353 1.374 . S
C351 H373 0.931 . S
C352 C353 1.359 . S
C352 C354 1.364 . S
C353 C351 1.374 . S
C353 C352 1.359 . S
C353 H374 0.931 . S
C354 C350 1.389 . S
C354 C352 1.364 . S
C354 H375 0.931 . S
C355 O366 1.256 . S
C355 O367 1.257 . S
O356 Gd336 2.377 . S
O356 C338 1.240 . S
O357 Gd337 2.395 . S
O357 C338 1.240 . S
O358 Gd336 2.448 . S
O358 C339 1.249 . S
O359 Gd336 2.506 . S
O359 C339 1.252 . S
O360 Gd336 2.435 . S
O360 C346 1.256 . S
O361 Gd336 2.717 . S
O361 Gd337 2.327 . S
O361 C346 1.257 . S
O362 Gd337 2.377 . S
O362 C347 1.240 . S
O363 Gd336 2.395 . S
O363 C347 1.240 . S
O364 Gd337 2.448 . S
O364 C348 1.249 . S
O365 Gd337 2.506 . S
O365 C348 1.252 . S
O366 Gd337 2.435 . S
O366 C355 1.256 . S
O367 Gd336 2.327 . S
O367 Gd337 2.717 . S
O367 C355 1.257 . S
H368 C341 0.930 . S
H369 C342 0.931 . S
H370 C344 0.931 . S
H371 C345 0.931 . S
H372 C350 0.930 . S
H373 C351 0.931 . S
H374 C353 0.931 . S
H375 C354 0.931 . S
Gd376 C379 2.818 . S
Gd376 O396 2.377 . S
Gd376 O398 2.448 . S
Gd376 O399 2.506 . S
Gd376 O400 2.435 . S
Gd376 O401 2.717 1_655 S
Gd376 O403 2.395 1_655 S
Gd376 O407 2.327 . S
Gd377 C388 2.818 . S
Gd377 O397 2.395 1_455 S
Gd377 O401 2.327 . S
Gd377 O402 2.377 . S
Gd377 O404 2.448 . S
Gd377 O405 2.506 . S
Gd377 O406 2.435 . S
Gd377 O407 2.717 1_455 S
C378 O396 1.240 . S
C378 O397 1.240 . S
C379 Gd376 2.818 . S
C379 C380 1.510 . S
C379 O398 1.249 . S
C379 O399 1.252 . S
C380 C379 1.510 . S
C380 C381 1.404 . S
C380 C382 1.352 . S
C381 C380 1.404 . S
C381 C385 1.389 . S
C381 H408 0.930 . S
C382 C380 1.352 . S
C382 C384 1.374 . S
C382 H409 0.931 . S
C383 C384 1.359 . S
C383 C385 1.364 . S
C384 C382 1.374 . S
C384 C383 1.359 . S
C384 H410 0.931 . S
C385 C381 1.389 . S
C385 C383 1.364 . S
C385 H411 0.931 . S
C386 O400 1.256 . S
C386 O401 1.257 1_655 S
C387 O402 1.240 . S
C387 O403 1.240 . S
C388 Gd377 2.818 . S
C388 C389 1.510 . S
C388 O404 1.249 . S
C388 O405 1.252 . S
C389 C388 1.510 . S
C389 C390 1.404 . S
C389 C391 1.352 . S
C390 C389 1.404 . S
C390 C394 1.389 . S
C390 H412 0.930 . S
C391 C389 1.352 . S
C391 C393 1.374 . S
C391 H413 0.931 . S
C392 C393 1.359 . S
C392 C394 1.364 . S
C393 C391 1.374 . S
C393 C392 1.359 . S
C393 H414 0.931 . S
C394 C390 1.389 . S
C394 C392 1.364 . S
C394 H415 0.931 . S
C395 O406 1.256 . S
C395 O407 1.257 1_455 S
O396 Gd376 2.377 . S
O396 C378 1.240 . S
O397 Gd377 2.395 1_655 S
O397 C378 1.240 . S
O398 Gd376 2.448 . S
O398 C379 1.249 . S
O399 Gd376 2.506 . S
O399 C379 1.252 . S
O400 Gd376 2.435 . S
O400 C386 1.256 . S
O401 Gd376 2.717 1_455 S
O401 Gd377 2.327 . S
O401 C386 1.257 1_455 S
O402 Gd377 2.377 . S
O402 C387 1.240 . S
O403 Gd376 2.395 1_455 S
O403 C387 1.240 . S
O404 Gd377 2.448 . S
O404 C388 1.249 . S
O405 Gd377 2.506 . S
O405 C388 1.252 . S
O406 Gd377 2.435 . S
O406 C395 1.256 . S
O407 Gd376 2.327 . S
O407 Gd377 2.717 1_655 S
O407 C395 1.257 1_655 S
H408 C381 0.930 . S
H409 C382 0.931 . S
H410 C384 0.931 . S
H411 C385 0.931 . S
H412 C390 0.930 . S
H413 C391 0.931 . S
H414 C393 0.931 . S
H415 C394 0.931 . S
H416 C424 0.929 . S
H417 C426 0.930 . S
H418 C428 0.930 . S
H419 C431 0.929 . S
H420 C434 0.930 . S
H421 C436 0.960 . S
H422 C436 0.960 . S
H423 C436 0.960 1_545 S
C424 H416 0.929 . S
C424 C425 1.377 . S
C424 C426 1.384 . S
C425 C424 1.377 . S
C425 C431 1.390 . S
C426 H417 0.930 . S
C426 C424 1.384 . S
C426 C427 1.372 . S
C427 C426 1.372 . S
C427 C428 1.400 . S
C427 C432 1.490 . S
C428 H418 0.930 . S
C428 C427 1.400 . S
C428 C431 1.386 . S
H429 C445 0.930 . S
H430 C446 0.931 . S
C431 H419 0.929 . S
C431 C425 1.390 . S
C431 C428 1.386 . S
C432 C427 1.490 . S
C432 C434 1.395 . S
C432 C435 1.403 . S
H433 C439 0.943 . S
C434 H420 0.930 . S
C434 C432 1.395 . S
C434 C437 1.403 . S
C435 C432 1.403 . S
C435 C436 1.524 1_545 S
C435 C439 1.400 . S
C436 H421 0.960 . S
C436 H422 0.960 . S
C436 H423 0.960 1_565 S
C436 C435 1.524 1_565 S
C437 C434 1.403 . S
C437 C438 1.392 . S
C437 C441 1.495 . S
C438 C437 1.392 . S
C438 C439 1.385 . S
C438 C440 1.478 . S
C439 H433 0.943 . S
C439 C435 1.400 . S
C439 C438 1.385 . S
C440 C438 1.478 . S
C440 C442 1.381 . S
C440 C446 1.383 . S
C441 C437 1.495 . S
C441 H447 0.959 . S
C441 H448 0.961 . S
C441 H449 0.960 . S
C442 C440 1.381 . S
C442 C443 1.394 . S
C442 H450 0.930 1_545 S
C443 C442 1.394 . S
C443 C444 1.383 . S
C443 H451 0.929 1_545 S
C444 C443 1.383 . S
C444 C445 1.377 . S
C445 H429 0.930 . S
C445 C444 1.377 . S
C445 C446 1.379 . S
C446 H430 0.931 . S
C446 C440 1.383 . S
C446 C445 1.379 . S
H447 C441 0.959 . S
H448 C441 0.961 . S
H449 C441 0.960 . S
H450 C442 0.930 1_565 S
H451 C443 0.929 1_565 S
H452 C460 0.929 . S
H453 C462 0.930 . S
H454 C464 0.930 . S
H455 C467 0.929 . S
H456 C470 0.930 . S
H457 C472 0.960 . S
H458 C472 0.960 . S
H459 C472 0.960 . S
C460 H452 0.929 . S
C460 C461 1.377 . S
C460 C462 1.384 . S
C461 C460 1.377 . S
C461 C467 1.390 . S
C462 H453 0.930 . S
C462 C460 1.384 . S
C462 C463 1.372 . S
C463 C462 1.372 . S
C463 C464 1.400 . S
C463 C468 1.490 . S
C464 H454 0.930 . S
C464 C463 1.400 . S
C464 C467 1.386 . S
H465 C481 0.930 . S
H466 C482 0.931 . S
C467 H455 0.929 . S
C467 C461 1.390 . S
C467 C464 1.386 . S
C468 C463 1.490 . S
C468 C470 1.395 . S
C468 C471 1.403 . S
H469 C475 0.930 . S
C470 H456 0.930 . S
C470 C468 1.395 . S
C470 C473 1.403 . S
C471 C468 1.403 . S
C471 C472 1.524 . S
C471 C475 1.400 . S
C472 H457 0.960 . S
C472 H458 0.960 . S
C472 H459 0.960 . S
C472 C471 1.524 . S
C473 C470 1.403 . S
C473 C474 1.392 . S
C473 C477 1.495 . S
C474 C473 1.392 . S
C474 C475 1.385 . S
C474 C476 1.478 . S
C475 H469 0.930 . S
C475 C471 1.400 . S
C475 C474 1.385 . S
C476 C474 1.478 . S
C476 C478 1.381 . S
C476 C482 1.383 . S
C477 C473 1.495 . S
C477 H483 0.959 . S
C477 H484 0.961 . S
C477 H485 0.960 . S
C478 C476 1.381 . S
C478 C479 1.394 . S
C478 H486 0.930 . S
C479 C478 1.394 . S
C479 C480 1.383 . S
C479 H487 0.929 . S
C480 C479 1.383 . S
C480 C481 1.377 . S
C481 H465 0.930 . S
C481 C480 1.377 . S
C481 C482 1.379 . S
C482 H466 0.931 . S
C482 C476 1.383 . S
C482 C481 1.379 . S
H483 C477 0.959 . S
H484 C477 0.961 . S
H485 C477 0.960 . S
H486 C478 0.930 . S
H487 C479 0.929 . S
H488 C496 0.929 . S
H489 C498 0.930 . S
H490 C500 0.930 . S
H491 C503 0.929 . S
H492 C506 0.930 . S
H493 C508 0.960 . S
H494 C508 0.960 . S
H495 C508 0.960 . S
C496 H488 0.929 . S
C496 C497 1.377 . S
C496 C498 1.384 . S
C497 C496 1.377 . S
C497 C503 1.390 . S
C498 H489 0.930 . S
C498 C496 1.384 . S
C498 C499 1.372 . S
C499 C498 1.372 . S
C499 C500 1.400 . S
C499 C504 1.490 . S
C500 H490 0.930 . S
C500 C499 1.400 . S
C500 C503 1.386 . S
H501 C517 0.930 . S
H502 C518 0.931 . S
C503 H491 0.929 . S
C503 C497 1.390 . S
C503 C500 1.386 . S
C504 C499 1.490 . S
C504 C506 1.395 . S
C504 C507 1.403 . S
H505 C511 0.930 . S
C506 H492 0.930 . S
C506 C504 1.395 . S
C506 C509 1.403 . S
C507 C504 1.403 . S
C507 C508 1.524 . S
C507 C511 1.400 . S
C508 H493 0.960 . S
C508 H494 0.960 . S
C508 H495 0.960 . S
C508 C507 1.524 . S
C509 C506 1.403 . S
C509 C510 1.392 . S
C509 C513 1.495 . S
C510 C509 1.392 . S
C510 C511 1.385 . S
C510 C512 1.478 . S
C511 H505 0.930 . S
C511 C507 1.400 . S
C511 C510 1.385 . S
C512 C510 1.478 . S
C512 C514 1.381 . S
C512 C518 1.383 . S
C513 C509 1.495 . S
C513 H519 0.959 . S
C513 H520 0.961 . S
C513 H521 0.960 . S
C514 C512 1.381 . S
C514 C515 1.394 . S
C514 H522 0.930 . S
C515 C514 1.394 . S
C515 C516 1.383 . S
C515 H523 0.929 . S
C516 C515 1.383 . S
C516 C517 1.377 . S
C517 H501 0.930 . S
C517 C516 1.377 . S
C517 C518 1.379 . S
C518 H502 0.931 . S
C518 C512 1.383 . S
C518 C517 1.379 . S
H519 C513 0.959 . S
H520 C513 0.961 . S
H521 C513 0.960 . S
H522 C514 0.930 . S
H523 C515 0.929 . S
H524 C532 0.929 . S
H525 C534 0.930 . S
H526 C536 0.930 . S
H527 C539 0.929 . S
H528 C542 0.930 . S
H529 C544 0.960 . S
H530 C544 0.960 . S
H531 C544 0.960 . S
C532 H524 0.929 . S
C532 C533 1.373 1_655 S
C532 C534 1.384 . S
C533 C532 1.373 1_455 S
C533 C539 1.395 . S
C534 H525 0.930 . S
C534 C532 1.384 . S
C534 C535 1.372 . S
C535 C534 1.372 . S
C535 C536 1.400 1_655 S
C535 C540 1.489 . S
C536 H526 0.930 . S
C536 C535 1.400 1_455 S
C536 C539 1.386 . S
H537 C553 0.930 . S
H538 C554 0.931 . S
C539 H527 0.929 . S
C539 C533 1.395 . S
C539 C536 1.386 . S
C540 C535 1.489 . S
C540 C542 1.434 . S
C540 C543 1.366 1_655 S
H541 C547 0.930 . S
C542 H528 0.930 . S
C542 C540 1.434 . S
C542 C545 1.403 . S
C543 C540 1.366 1_455 S
C543 C544 1.524 . S
C543 C547 1.400 . S
C544 H529 0.960 . S
C544 H530 0.960 . S
C544 H531 0.960 . S
C544 C543 1.524 . S
C545 C542 1.403 . S
C545 C546 1.392 . S
C545 C549 1.495 . S
C546 C545 1.392 . S
C546 C547 1.385 1_655 S
C546 C548 1.478 . S
C547 H541 0.930 . S
C547 C543 1.400 . S
C547 C546 1.385 1_455 S
C548 C546 1.478 . S
C548 C550 1.381 . S
C548 C554 1.383 1_655 S
C549 C545 1.495 . S
C549 H555 0.959 . S
C549 H556 0.961 . S
C549 H557 0.960 . S
C550 C548 1.381 . S
C550 C551 1.394 . S
C550 H558 0.930 . S
C551 C550 1.394 . S
C551 C552 1.402 . S
C551 H559 0.929 . S
C552 C551 1.402 . S
C552 C553 1.362 1_655 S
C553 H537 0.930 . S
C553 C552 1.362 1_455 S
C553 C554 1.379 . S
C554 H538 0.931 . S
C554 C548 1.383 1_455 S
C554 C553 1.379 . S
H555 C549 0.959 . S
H556 C549 0.961 . S
H557 C549 0.960 . S
H558 C550 0.930 . S
H559 C551 0.929 . S
H560 C568 0.929 . S
H561 C570 0.930 . S
H562 C572 0.930 . S
H563 C575 0.929 . S
H564 C578 0.930 . S
H565 C580 0.960 . S
H566 C580 0.960 . S
H567 C580 0.960 . S
C568 H560 0.929 . S
C568 C569 1.377 . S
C568 C570 1.384 . S
C569 C568 1.377 . S
C569 C575 1.390 1_565 S
C570 H561 0.930 . S
C570 C568 1.384 . S
C570 C571 1.372 . S
C571 C570 1.372 . S
C571 C572 1.400 1_565 S
C571 C576 1.490 . S
C572 H562 0.930 . S
C572 C571 1.400 1_545 S
C572 C575 1.386 . S
H573 C589 0.930 . S
H574 C590 0.931 . S
C575 H563 0.929 . S
C575 C569 1.390 1_545 S
C575 C572 1.386 . S
C576 C571 1.490 . S
C576 C578 1.395 . S
C576 C579 1.403 1_565 S
H577 C583 0.930 . S
C578 H564 0.930 . S
C578 C576 1.395 . S
C578 C581 1.403 1_554 S
C579 C576 1.403 1_545 S
C579 C580 1.524 . S
C579 C583 1.400 1_554 S
C580 H565 0.960 . S
C580 H566 0.960 . S
C580 H567 0.960 . S
C580 C579 1.524 . S
C581 C578 1.403 1_556 S
C581 C582 1.392 . S
C581 C585 1.495 . S
C582 C581 1.392 . S
C582 C583 1.385 1_565 S
C582 C584 1.478 . S
C583 H577 0.930 . S
C583 C579 1.400 1_556 S
C583 C582 1.385 1_545 S
C584 C582 1.478 . S
C584 C586 1.381 . S
C584 C590 1.383 1_565 S
C585 C581 1.495 . S
C585 H591 0.959 . S
C585 H592 0.961 . S
C585 H593 0.960 . S
C586 C584 1.381 . S
C586 C587 1.394 . S
C586 H594 0.930 . S
C587 C586 1.394 . S
C587 C588 1.396 . S
C587 H595 0.929 . S
C588 C587 1.396 . S
C588 C589 1.367 1_565 S
C589 H573 0.930 . S
C589 C588 1.367 1_545 S
C589 C590 1.379 . S
C590 H574 0.931 . S
C590 C584 1.383 1_545 S
C590 C589 1.379 . S
H591 C585 0.959 . S
H592 C585 0.961 . S
H593 C585 0.960 . S
H594 C586 0.930 . S
H595 C587 0.929 . S
H596 C604 0.929 . S
H597 C606 0.930 . S
H598 C608 0.930 . S
H599 C611 0.929 . S
H600 C614 0.930 . S
H601 C616 0.960 . S
H602 C616 0.960 . S
H603 C616 0.960 . S
C604 H596 0.929 . S
C604 C605 1.377 . S
C604 C606 1.384 . S
C605 C604 1.377 . S
C605 C611 1.390 . S
C606 H597 0.930 . S
C606 C604 1.384 . S
C606 C607 1.372 . S
C607 C606 1.372 . S
C607 C608 1.400 . S
C607 C612 1.490 . S
C608 H598 0.930 . S
C608 C607 1.400 . S
C608 C611 1.386 . S
H609 C625 0.930 . S
H610 C626 0.931 . S
C611 H599 0.929 . S
C611 C605 1.390 . S
C611 C608 1.386 . S
C612 C607 1.490 . S
C612 C614 1.395 . S
C612 C615 1.403 . S
H613 C619 0.930 . S
C614 H600 0.930 . S
C614 C612 1.395 . S
C614 C617 1.403 1_554 S
C615 C612 1.403 . S
C615 C616 1.524 . S
C615 C619 1.400 1_554 S
C616 H601 0.960 . S
C616 H602 0.960 . S
C616 H603 0.960 . S
C616 C615 1.524 . S
C617 C614 1.403 1_556 S
C617 C618 1.392 . S
C617 C621 1.495 . S
C618 C617 1.392 . S
C618 C619 1.385 . S
C618 C620 1.478 . S
C619 H613 0.930 . S
C619 C615 1.400 1_556 S
C619 C618 1.385 . S
C620 C618 1.478 . S
C620 C622 1.381 . S
C620 C626 1.383 . S
C621 C617 1.495 . S
C621 H627 0.959 . S
C621 H628 0.961 . S
C621 H629 0.960 . S
C622 C620 1.381 . S
C622 C623 1.394 . S
C622 H630 0.930 . S
C623 C622 1.394 . S
C623 C624 1.383 . S
C623 H631 0.929 . S
C624 C623 1.383 . S
C624 C625 1.377 . S
C625 H609 0.930 . S
C625 C624 1.377 . S
C625 C626 1.379 . S
C626 H610 0.931 . S
C626 C620 1.383 . S
C626 C625 1.379 . S
H627 C621 0.959 . S
H628 C621 0.961 . S
H629 C621 0.960 . S
H630 C622 0.930 . S
H631 C623 0.929 . S
H632 C640 0.929 . S
H633 C642 0.930 . S
H634 C644 0.930 . S
H635 C647 0.929 . S
H636 C650 0.930 . S
H637 C652 0.960 . S
H638 C652 0.960 . S
H639 C652 0.960 . S
C640 H632 0.929 . S
C640 C641 1.377 . S
C640 C642 1.384 . S
C641 C640 1.377 . S
C641 C647 1.390 . S
C642 H633 0.930 . S
C642 C640 1.384 . S
C642 C643 1.372 . S
C643 C642 1.372 . S
C643 C644 1.400 . S
C643 C648 1.490 . S
C644 H634 0.930 . S
C644 C643 1.400 . S
C644 C647 1.386 . S
H645 C661 0.930 . S
H646 C662 0.931 . S
C647 H635 0.929 . S
C647 C641 1.390 . S
C647 C644 1.386 . S
C648 C643 1.490 . S
C648 C650 1.395 1_554 S
C648 C651 1.403 . S
H649 C655 0.930 . S
C650 H636 0.930 . S
C650 C648 1.395 1_556 S
C650 C653 1.403 . S
C651 C648 1.403 . S
C651 C652 1.524 . S
C651 C655 1.400 1_554 S
C652 H637 0.960 . S
C652 H638 0.960 . S
C652 H639 0.960 . S
C652 C651 1.524 . S
C653 C650 1.403 . S
C653 C654 1.392 . S
C653 C657 1.495 . S
C654 C653 1.392 . S
C654 C655 1.385 . S
C654 C656 1.478 . S
C655 H649 0.930 . S
C655 C651 1.400 1_556 S
C655 C654 1.385 . S
C656 C654 1.478 . S
C656 C658 1.381 . S
C656 C662 1.383 . S
C657 C653 1.495 . S
C657 H663 0.959 . S
C657 H664 0.961 . S
C657 H665 0.960 . S
C658 C656 1.381 . S
C658 C659 1.394 . S
C658 H666 0.930 . S
C659 C658 1.394 . S
C659 C660 1.383 . S
C659 H667 0.929 . S
C660 C659 1.383 . S
C660 C661 1.377 . S
C661 H645 0.930 . S
C661 C660 1.377 . S
C661 C662 1.379 . S
C662 H646 0.931 . S
C662 C656 1.383 . S
C662 C661 1.379 . S
H663 C657 0.959 . S
H664 C657 0.961 . S
H665 C657 0.960 . S
H666 C658 0.930 . S
H667 C659 0.929 . S
H668 C676 0.929 . S
H669 C678 0.930 . S
H670 C680 0.930 . S
H671 C683 0.929 . S
H672 C686 0.930 . S
H673 C688 0.960 . S
H674 C688 0.960 . S
H675 C688 0.960 . S
C676 H668 0.929 . S
C676 C677 1.377 . S
C676 C678 1.384 . S
C677 C676 1.377 . S
C677 C683 1.390 1_655 S
C678 H669 0.930 . S
C678 C676 1.384 . S
C678 C679 1.399 . S
C679 C678 1.399 . S
C679 C680 1.373 1_655 S
C679 C684 1.492 . S
C680 H670 0.930 . S
C680 C679 1.373 1_455 S
C680 C683 1.386 . S
H681 C697 0.930 . S
H682 C698 0.931 . S
C683 H671 0.929 . S
C683 C677 1.390 1_455 S
C683 C680 1.386 . S
C684 C679 1.492 . S
C684 C686 1.395 . S
C684 C687 1.403 1_655 S
H685 C691 0.930 . S
C686 H672 0.930 . S
C686 C684 1.395 . S
C686 C689 1.403 1_554 S
C687 C684 1.403 1_455 S
C687 C688 1.524 . S
C687 C691 1.400 1_554 S
C688 H673 0.960 . S
C688 H674 0.960 . S
C688 H675 0.960 . S
C688 C687 1.524 . S
C689 C686 1.403 1_556 S
C689 C690 1.392 . S
C689 C693 1.495 . S
C690 C689 1.392 . S
C690 C691 1.385 1_655 S
C690 C692 1.478 . S
C691 H685 0.930 . S
C691 C687 1.400 1_556 S
C691 C690 1.385 1_455 S
C692 C690 1.478 . S
C692 C694 1.381 . S
C692 C698 1.383 1_655 S
C693 C689 1.495 . S
C693 H699 0.959 . S
C693 H700 0.961 . S
C693 H701 0.960 . S
C694 C692 1.381 . S
C694 C695 1.394 . S
C694 H702 0.930 . S
C695 C694 1.394 . S
C695 C696 1.383 . S
C695 H703 0.929 . S
C696 C695 1.383 . S
C696 C697 1.377 1_655 S
C697 H681 0.930 . S
C697 C696 1.377 1_455 S
C697 C698 1.379 . S
C698 H682 0.931 . S
C698 C692 1.383 1_455 S
C698 C697 1.379 . S
H699 C693 0.959 . S
H700 C693 0.961 . S
H701 C693 0.960 . S
H702 C694 0.930 . S
H703 C695 0.929 . S
H704 C712 0.929 . S
H705 C714 0.930 . S
H706 C716 0.930 . S
H707 C719 0.929 . S
H708 C722 0.930 . S
H709 C724 0.960 . S
H710 C724 0.960 . S
H711 C724 0.960 . S
C712 H704 0.929 . S
C712 C713 1.377 1_655 S
C712 C714 1.384 . S
C713 C712 1.377 1_455 S
C713 C719 1.390 . S
C714 H705 0.930 . S
C714 C712 1.384 . S
C714 C715 1.372 . S
C715 C714 1.372 . S
C715 C716 1.400 1_655 S
C715 C720 1.490 . S
C716 H706 0.930 . S
C716 C715 1.400 1_455 S
C716 C719 1.386 . S
H717 C733 0.930 . S
H718 C734 0.931 . S
C719 H707 0.929 . S
C719 C713 1.390 . S
C719 C716 1.386 . S
C720 C715 1.490 . S
C720 C722 1.395 . S
C720 C723 1.396 1_655 S
H721 C727 0.930 1_455 S
C722 H708 0.930 . S
C722 C720 1.395 . S
C722 C725 1.403 . S
C723 C720 1.396 1_455 S
C723 C724 1.533 . S
C723 C727 1.397 1_455 S
C724 H709 0.960 . S
C724 H710 0.960 . S
C724 H711 0.960 . S
C724 C723 1.533 . S
C725 C722 1.403 . S
C725 C726 1.392 . S
C725 C729 1.495 . S
C726 C725 1.392 . S
C726 C727 1.385 . S
C726 C728 1.478 . S
C727 H721 0.930 1_655 S
C727 C723 1.397 1_655 S
C727 C726 1.385 . S
C728 C726 1.478 . S
C728 C730 1.381 . S
C728 C734 1.383 . S
C729 C725 1.495 . S
C729 H735 0.959 . S
C729 H736 0.961 . S
C729 H737 0.960 . S
C730 C728 1.381 . S
C730 C731 1.394 . S
C730 H738 0.930 . S
C731 C730 1.394 . S
C731 C732 1.383 . S
C731 H739 0.929 . S
C732 C731 1.383 . S
C732 C733 1.377 . S
C733 H717 0.930 . S
C733 C732 1.377 . S
C733 C734 1.379 . S
C734 H718 0.931 . S
C734 C728 1.383 . S
C734 C733 1.379 . S
H735 C729 0.959 . S
H736 C729 0.961 . S
H737 C729 0.960 . S
H738 C730 0.930 . S
H739 C731 0.929 . S
H740 C748 0.929 . S
H741 C750 0.930 . S
H742 C752 0.930 . S
H743 C755 0.929 . S
H744 C758 0.930 . S
H745 C760 0.960 . S
H746 C760 0.960 . S
H747 C760 0.960 . S
C748 H740 0.929 . S
C748 C749 1.377 . S
C748 C750 1.384 . S
C749 C748 1.377 . S
C749 C755 1.390 . S
C750 H741 0.930 . S
C750 C748 1.384 . S
C750 C751 1.372 . S
C751 C750 1.372 . S
C751 C752 1.400 . S
C751 C756 1.490 . S
C752 H742 0.930 . S
C752 C751 1.400 . S
C752 C755 1.386 . S
H753 C769 0.930 . S
H754 C770 0.931 . S
C755 H743 0.929 . S
C755 C749 1.390 . S
C755 C752 1.386 . S
C756 C751 1.490 . S
C756 C758 1.395 1_545 S
C756 C759 1.403 . S
H757 C763 0.930 . S
C758 H744 0.930 . S
C758 C756 1.395 1_565 S
C758 C761 1.403 . S
C759 C756 1.403 . S
C759 C760 1.524 . S
C759 C763 1.400 . S
C760 H745 0.960 . S
C760 H746 0.960 . S
C760 H747 0.960 . S
C760 C759 1.524 . S
C761 C758 1.403 . S
C761 C762 1.392 . S
C761 C765 1.495 . S
C762 C761 1.392 . S
C762 C763 1.385 1_565 S
C762 C764 1.478 . S
C763 H757 0.930 . S
C763 C759 1.400 . S
C763 C762 1.385 1_545 S
C764 C762 1.478 . S
C764 C766 1.381 . S
C764 C770 1.383 . S
C765 C761 1.495 . S
C765 H771 0.959 . S
C765 H772 0.961 . S
C765 H773 0.960 . S
C766 C764 1.381 . S
C766 C767 1.394 . S
C766 H774 0.930 . S
C767 C766 1.394 . S
C767 C768 1.383 . S
C767 H775 0.929 . S
C768 C767 1.383 . S
C768 C769 1.377 . S
C769 H753 0.930 . S
C769 C768 1.377 . S
C769 C770 1.379 . S
C770 H754 0.931 . S
C770 C764 1.383 . S
C770 C769 1.379 . S
H771 C765 0.959 . S
H772 C765 0.961 . S
H773 C765 0.960 . S
H774 C766 0.930 . S
H775 C767 0.929 . S
H776 C784 0.929 . S
H777 C786 0.930 . S
H778 C788 0.930 . S
H779 C791 0.929 . S
H780 C794 0.930 . S
H781 C796 0.960 . S
H782 C796 0.960 . S
H783 C796 0.960 . S
C784 H776 0.929 . S
C784 C785 1.377 . S
C784 C786 1.384 . S
C785 C784 1.377 . S
C785 C791 1.390 . S
C786 H777 0.930 . S
C786 C784 1.384 . S
C786 C787 1.372 . S
C787 C786 1.372 . S
C787 C788 1.400 . S
C787 C792 1.490 . S
C788 H778 0.930 . S
C788 C787 1.400 . S
C788 C791 1.386 . S
H789 C805 0.930 . S
H790 C806 0.931 . S
C791 H779 0.929 . S
C791 C785 1.390 . S
C791 C788 1.386 . S
C792 C787 1.490 . S
C792 C794 1.395 . S
C792 C795 1.403 . S
H793 C799 0.930 . S
C794 H780 0.930 . S
C794 C792 1.395 . S
C794 C797 1.403 . S
C795 C792 1.403 . S
C795 C796 1.524 . S
C795 C799 1.400 . S
C796 H781 0.960 . S
C796 H782 0.960 . S
C796 H783 0.960 . S
C796 C795 1.524 . S
C797 C794 1.403 . S
C797 C798 1.392 . S
C797 C801 1.495 . S
C798 C797 1.392 . S
C798 C799 1.385 . S
C798 C800 1.478 . S
C799 H793 0.930 . S
C799 C795 1.400 . S
C799 C798 1.385 . S
C800 C798 1.478 . S
C800 C802 1.381 . S
C800 C806 1.383 . S
C801 C797 1.495 . S
C801 H807 0.959 . S
C801 H808 0.961 . S
C801 H809 0.960 . S
C802 C800 1.381 . S
C802 C803 1.394 . S
C802 H810 0.930 . S
C803 C802 1.394 . S
C803 C804 1.383 . S
C803 H811 0.929 . S
C804 C803 1.383 . S
C804 C805 1.377 . S
C805 H789 0.930 . S
C805 C804 1.377 . S
C805 C806 1.379 . S
C806 H790 0.931 . S
C806 C800 1.383 . S
C806 C805 1.379 . S
H807 C801 0.959 . S
H808 C801 0.961 . S
H809 C801 0.960 . S
H810 C802 0.930 . S
H811 C803 0.929 . S
H812 C820 0.929 . S
H813 C822 0.930 . S
H814 C824 0.930 . S
H815 C827 0.929 . S
H816 C830 0.930 . S
H817 C832 0.960 . S
H818 C832 0.960 . S
H819 C832 0.960 . S
C820 H812 0.929 . S
C820 C821 1.377 . S
C820 C822 1.384 . S
C821 C820 1.377 . S
C821 C827 1.390 . S
C822 H813 0.930 . S
C822 C820 1.384 . S
C822 C823 1.372 . S
C823 C822 1.372 . S
C823 C824 1.400 . S
C823 C828 1.490 . S
C824 H814 0.930 . S
C824 C823 1.400 . S
C824 C827 1.386 . S
H825 C841 0.930 . S
H826 C842 0.931 . S
C827 H815 0.929 . S
C827 C821 1.390 . S
C827 C824 1.386 . S
C828 C823 1.490 . S
C828 C830 1.395 . S
C828 C831 1.403 . S
H829 C835 0.930 . S
C830 H816 0.930 . S
C830 C828 1.395 . S
C830 C833 1.403 . S
C831 C828 1.403 . S
C831 C832 1.524 . S
C831 C835 1.400 . S
C832 H817 0.960 . S
C832 H818 0.960 . S
C832 H819 0.960 . S
C832 C831 1.524 . S
C833 C830 1.403 . S
C833 C834 1.392 . S
C833 C837 1.495 . S
C834 C833 1.392 . S
C834 C835 1.385 . S
C834 C836 1.478 . S
C835 H829 0.930 . S
C835 C831 1.400 . S
C835 C834 1.385 . S
C836 C834 1.478 . S
C836 C838 1.381 . S
C836 C842 1.383 . S
C837 C833 1.495 . S
C837 H843 0.959 . S
C837 H844 0.961 . S
C837 H845 0.960 . S
C838 C836 1.381 . S
C838 C839 1.394 . S
C838 H846 0.930 . S
C839 C838 1.394 . S
C839 C840 1.383 . S
C839 H847 0.929 . S
C840 C839 1.383 . S
C840 C841 1.377 . S
C841 H825 0.930 . S
C841 C840 1.377 . S
C841 C842 1.379 . S
C842 H826 0.931 . S
C842 C836 1.383 . S
C842 C841 1.379 . S
H843 C837 0.959 . S
H844 C837 0.961 . S
H845 C837 0.960 . S
H846 C838 0.930 . S
H847 C839 0.929 . S
H848 C856 0.929 . S
H849 C858 0.934 . S
H850 C860 0.930 . S
H851 C863 0.929 . S
H852 C866 0.930 1_556 S
H853 C868 0.960 . S
H854 C868 0.960 . S
H855 C868 0.960 . S
C856 H848 0.929 . S
C856 C857 1.377 . S
C856 C858 1.384 1_655 S
C857 C856 1.377 . S
C857 C863 1.390 1_655 S
C858 H849 0.934 . S
C858 C856 1.384 1_455 S
C858 C859 1.372 . S
C859 C858 1.372 . S
C859 C860 1.400 . S
C859 C864 1.490 . S
C860 H850 0.930 . S
C860 C859 1.400 . S
C860 C863 1.386 . S
H861 C877 0.930 . S
H862 C878 0.931 1_554 S
C863 H851 0.929 . S
C863 C857 1.390 1_455 S
C863 C860 1.386 . S
C864 C859 1.490 . S
C864 C866 1.395 1_455 S
C864 C867 1.403 . S
H865 C871 0.930 . S
C866 H852 0.930 1_554 S
C866 C864 1.395 1_655 S
C866 C869 1.403 1_554 S
C867 C864 1.403 . S
C867 C868 1.524 . S
C867 C871 1.400 . S
C868 H853 0.960 . S
C868 H854 0.960 . S
C868 H855 0.960 . S
C868 C867 1.524 . S
C869 C866 1.403 1_556 S
C869 C870 1.392 1_655 S
C869 C873 1.495 . S
C870 C869 1.392 1_455 S
C870 C871 1.385 1_556 S
C870 C872 1.478 . S
C871 H865 0.930 . S
C871 C867 1.400 . S
C871 C870 1.385 1_554 S
C872 C870 1.478 . S
C872 C874 1.381 . S
C872 C878 1.383 . S
C873 C869 1.495 . S
C873 H879 0.959 . S
C873 H880 0.961 . S
C873 H881 0.960 . S
C874 C872 1.381 . S
C874 C875 1.394 . S
C874 H882 0.930 . S
C875 C874 1.394 . S
C875 C876 1.383 . S
C875 H883 0.929 . S
C876 C875 1.383 . S
C876 C877 1.377 . S
C877 H861 0.930 . S
C877 C876 1.377 . S
C877 C878 1.379 . S
C878 H862 0.931 1_556 S
C878 C872 1.383 . S
C878 C877 1.379 . S
H879 C873 0.959 . S
H880 C873 0.961 . S
H881 C873 0.960 . S
H882 C874 0.930 . S
H883 C875 0.929 . S
H884 C892 0.929 . S
H885 C894 0.930 . S
H886 C896 0.930 . S
H887 C899 0.929 . S
H888 C902 0.930 . S
H889 C904 0.960 . S
H890 C904 0.960 . S
H891 C904 0.960 . S
C892 H884 0.929 . S
C892 C893 1.377 . S
C892 C894 1.384 . S
C893 C892 1.377 . S
C893 C899 1.390 1_565 S
C894 H885 0.930 . S
C894 C892 1.384 . S
C894 C895 1.372 . S
C895 C894 1.372 . S
C895 C896 1.400 1_565 S
C895 C900 1.490 1_565 S
C896 H886 0.930 . S
C896 C895 1.400 1_545 S
C896 C899 1.386 . S
H897 C913 0.930 . S
H898 C914 0.931 . S
C899 H887 0.929 . S
C899 C893 1.390 1_545 S
C899 C896 1.386 . S
C900 C895 1.490 1_545 S
C900 C902 1.395 1_545 S
C900 C903 1.403 1_554 S
H901 C907 0.930 . S
C902 H888 0.930 . S
C902 C900 1.395 1_565 S
C902 C905 1.408 . S
C903 C900 1.403 1_556 S
C903 C904 1.524 . S
C903 C907 1.400 . S
C904 H889 0.960 . S
C904 H890 0.960 . S
C904 H891 0.960 . S
C904 C903 1.524 . S
C905 C902 1.408 . S
C905 C906 1.382 1_564 S
C905 C909 1.501 . S
C906 C905 1.382 1_546 S
C906 C907 1.385 . S
C906 C908 1.478 . S
C907 H901 0.930 . S
C907 C903 1.400 . S
C907 C906 1.385 . S
C908 C906 1.478 . S
C908 C910 1.381 . S
C908 C914 1.383 . S
C909 C905 1.501 . S
C909 H915 0.959 . S
C909 H916 0.961 1_565 S
C909 H917 0.960 . S
C910 C908 1.381 . S
C910 C911 1.394 . S
C910 H918 0.930 1_545 S
C911 C910 1.394 . S
C911 C912 1.383 . S
C911 H919 0.907 1_545 S
C912 C911 1.383 . S
C912 C913 1.377 . S
C913 H897 0.930 . S
C913 C912 1.377 . S
C913 C914 1.379 . S
C914 H898 0.931 . S
C914 C908 1.383 . S
C914 C913 1.379 . S
H915 C909 0.959 . S
H916 C909 0.961 1_545 S
H917 C909 0.960 . S
H918 C910 0.930 1_565 S
H919 C911 0.907 1_565 S
H920 C928 0.929 . S
H921 C930 0.930 . S
H922 C932 0.930 . S
H923 C935 0.929 . S
H924 C938 0.930 1_556 S
H925 C940 0.960 . S
H926 C940 0.960 . S
H927 C940 0.960 . S
C928 H920 0.929 . S
C928 C929 1.377 . S
C928 C930 1.384 . S
C929 C928 1.377 . S
C929 C935 1.390 . S
C930 H921 0.930 . S
C930 C928 1.384 . S
C930 C931 1.372 . S
C931 C930 1.372 . S
C931 C932 1.400 . S
C931 C936 1.490 . S
C932 H922 0.930 . S
C932 C931 1.400 . S
C932 C935 1.386 . S
H933 C949 0.930 . S
H934 C950 0.931 . S
C935 H923 0.929 . S
C935 C929 1.390 . S
C935 C932 1.386 . S
C936 C931 1.490 . S
C936 C938 1.395 . S
C936 C939 1.403 . S
H937 C943 0.930 . S
C938 H924 0.930 1_554 S
C938 C936 1.395 . S
C938 C941 1.403 1_554 S
C939 C936 1.403 . S
C939 C940 1.524 . S
C939 C943 1.400 . S
C940 H925 0.960 . S
C940 H926 0.960 . S
C940 H927 0.960 . S
C940 C939 1.524 . S
C941 C938 1.403 1_556 S
C941 C942 1.392 . S
C941 C945 1.495 . S
C942 C941 1.392 . S
C942 C943 1.385 1_556 S
C942 C944 1.478 . S
C943 H937 0.930 . S
C943 C939 1.400 . S
C943 C942 1.385 1_554 S
C944 C942 1.478 . S
C944 C946 1.381 . S
C944 C950 1.383 . S
C945 C941 1.495 . S
C945 H951 0.959 . S
C945 H952 0.961 . S
C945 H953 0.960 . S
C946 C944 1.381 . S
C946 C947 1.394 . S
C946 H954 0.930 . S
C947 C946 1.394 . S
C947 C948 1.383 . S
C947 H955 0.929 . S
C948 C947 1.383 . S
C948 C949 1.377 . S
C949 H933 0.930 . S
C949 C948 1.377 . S
C949 C950 1.379 . S
C950 H934 0.931 . S
C950 C944 1.383 . S
C950 C949 1.379 . S
H951 C945 0.959 . S
H952 C945 0.961 . S
H953 C945 0.960 . S
H954 C946 0.930 . S
H955 C947 0.929 . S
H956 C964 0.929 . S
H957 C966 0.930 . S
H958 C968 0.930 . S
H959 C971 0.929 . S
H960 C974 0.930 . S
H961 C976 0.960 . S
H962 C976 0.960 . S
H963 C976 0.960 . S
C964 H956 0.929 . S
C964 C965 1.377 . S
C964 C966 1.384 . S
C965 C964 1.377 . S
C965 C971 1.390 . S
C966 H957 0.930 . S
C966 C964 1.384 . S
C966 C967 1.372 . S
C967 C966 1.372 . S
C967 C968 1.400 . S
C967 C972 1.490 . S
C968 H958 0.930 . S
C968 C967 1.400 . S
C968 C971 1.386 . S
H969 C985 0.930 . S
H970 C986 0.931 . S
C971 H959 0.929 . S
C971 C965 1.390 . S
C971 C968 1.386 . S
C972 C967 1.490 . S
C972 C974 1.395 . S
C972 C975 1.403 . S
H973 C979 0.930 1_556 S
C974 H960 0.930 . S
C974 C972 1.395 . S
C974 C977 1.403 1_554 S
C975 C972 1.403 . S
C975 C976 1.524 . S
C975 C979 1.400 . S
C976 H961 0.960 . S
C976 H962 0.960 . S
C976 H963 0.960 . S
C976 C975 1.524 . S
C977 C974 1.403 1_556 S
C977 C978 1.392 . S
C977 C981 1.495 . S
C978 C977 1.392 . S
C978 C979 1.385 1_556 S
C978 C980 1.478 . S
C979 H973 0.930 1_554 S
C979 C975 1.400 . S
C979 C978 1.385 1_554 S
C980 C978 1.478 . S
C980 C982 1.381 . S
C980 C986 1.383 . S
C981 C977 1.495 . S
C981 H987 0.959 . S
C981 H988 0.961 . S
C981 H989 0.960 . S
C982 C980 1.381 . S
C982 C983 1.394 . S
C982 H990 0.930 . S
C983 C982 1.394 . S
C983 C984 1.383 . S
C983 H991 0.929 . S
C984 C983 1.383 . S
C984 C985 1.377 . S
C985 H969 0.930 . S
C985 C984 1.377 . S
C985 C986 1.379 . S
C986 H970 0.931 . S
C986 C980 1.383 . S
C986 C985 1.379 . S
H987 C981 0.959 . S
H988 C981 0.961 . S
H989 C981 0.960 . S
H990 C982 0.930 . S
H991 C983 0.929 . S
H992 C1000 0.929 . S
H993 C1002 0.930 . S
H994 C1004 0.930 . S
H995 C1007 0.929 . S
H996 C1010 0.930 . S
H997 C1012 0.960 . S
H998 C1012 0.960 . S
H999 C1012 0.960 . S
C1000 H992 0.929 . S
C1000 C1001 1.377 1_655 S
C1000 C1002 1.384 . S
C1001 C1000 1.377 1_455 S
C1001 C1007 1.390 . S
C1002 H993 0.930 . S
C1002 C1000 1.384 . S
C1002 C1003 1.372 1_655 S
C1003 C1002 1.372 1_455 S
C1003 C1004 1.400 . S
C1003 C1008 1.490 . S
C1004 H994 0.930 . S
C1004 C1003 1.400 . S
C1004 C1007 1.386 . S
H1005 C1021 0.930 . S
H1006 C1022 0.931 . S
C1007 H995 0.929 . S
C1007 C1001 1.390 . S
C1007 C1004 1.386 . S
C1008 C1003 1.490 . S
C1008 C1010 1.395 1_455 S
C1008 C1011 1.403 . S
H1009 C1015 0.930 . S
C1010 H996 0.930 . S
C1010 C1008 1.395 1_655 S
C1010 C1013 1.403 . S
C1011 C1008 1.403 . S
C1011 C1012 1.524 . S
C1011 C1015 1.400 . S
C1012 H997 0.960 . S
C1012 H998 0.960 . S
C1012 H999 0.960 . S
C1012 C1011 1.524 . S
C1013 C1010 1.403 . S
C1013 C1014 1.392 1_655 S
C1013 C1017 1.495 . S
C1014 C1013 1.392 1_455 S
C1014 C1015 1.385 . S
C1014 C1016 1.478 . S
C1015 H1009 0.930 . S
C1015 C1011 1.400 . S
C1015 C1014 1.385 . S
C1016 C1014 1.478 . S
C1016 C1018 1.381 1_455 S
C1016 C1022 1.383 . S
C1017 C1013 1.495 . S
C1017 H1023 0.959 . S
C1017 H1024 0.961 . S
C1017 H1025 0.960 . S
C1018 C1016 1.381 1_655 S
C1018 C1019 1.394 . S
C1018 H1026 0.930 . S
C1019 C1018 1.394 . S
C1019 C1020 1.383 1_655 S
C1019 H1027 0.929 . S
C1020 C1019 1.383 1_455 S
C1020 C1021 1.377 . S
C1021 H1005 0.930 . S
C1021 C1020 1.377 . S
C1021 C1022 1.379 . S
C1022 H1006 0.931 . S
C1022 C1016 1.383 . S
C1022 C1021 1.379 . S
H1023 C1017 0.959 . S
H1024 C1017 0.961 . S
H1025 C1017 0.960 . S
H1026 C1018 0.930 . S
H1027 C1019 0.929 . S
H1028 C1036 0.929 . S
H1029 C1038 0.930 . S
H1030 C1040 0.930 . S
H1031 C1043 0.929 . S
H1032 C1046 0.930 1_565 S
H1033 C1048 0.960 . S
H1034 C1048 0.960 . S
H1035 C1048 0.960 . S
C1036 H1028 0.929 . S
C1036 C1037 1.377 . S
C1036 C1038 1.384 . S
C1037 C1036 1.377 . S
C1037 C1043 1.390 . S
C1038 H1029 0.930 . S
C1038 C1036 1.384 . S
C1038 C1039 1.372 . S
C1039 C1038 1.372 . S
C1039 C1040 1.400 . S
C1039 C1044 1.490 . S
C1040 H1030 0.930 . S
C1040 C1039 1.400 . S
C1040 C1043 1.386 . S
H1041 C1057 0.930 . S
H1042 C1058 0.931 . S
C1043 H1031 0.929 . S
C1043 C1037 1.390 . S
C1043 C1040 1.386 . S
C1044 C1039 1.490 . S
C1044 C1046 1.395 . S
C1044 C1047 1.403 . S
H1045 C1051 0.930 . S
C1046 H1032 0.930 1_545 S
C1046 C1044 1.395 . S
C1046 C1049 1.398 1_545 S
C1047 C1044 1.403 . S
C1047 C1048 1.524 . S
C1047 C1051 1.400 . S
C1048 H1033 0.960 . S
C1048 H1034 0.960 . S
C1048 H1035 0.960 . S
C1048 C1047 1.524 . S
C1049 C1046 1.398 1_565 S
C1049 C1050 1.348 1_565 S
C1049 C1053 1.546 . S
C1050 C1049 1.348 1_545 S
C1050 C1051 1.385 . S
C1050 C1052 1.478 . S
C1051 H1045 0.930 . S
C1051 C1047 1.400 . S
C1051 C1050 1.385 . S
C1052 C1050 1.478 . S
C1052 C1054 1.381 . S
C1052 C1058 1.383 . S
C1053 C1049 1.546 . S
C1053 H1059 0.959 . S
C1053 H1060 0.961 . S
C1053 H1061 0.960 . S
C1054 C1052 1.381 . S
C1054 C1055 1.394 . S
C1054 H1062 0.930 . S
C1055 C1054 1.394 . S
C1055 C1056 1.383 . S
C1055 H1063 0.929 . S
C1056 C1055 1.383 . S
C1056 C1057 1.377 . S
C1057 H1041 0.930 . S
C1057 C1056 1.377 . S
C1057 C1058 1.379 . S
C1058 H1042 0.931 . S
C1058 C1052 1.383 . S
C1058 C1057 1.379 . S
H1059 C1053 0.959 . S
H1060 C1053 0.961 . S
H1061 C1053 0.960 . S
H1062 C1054 0.930 . S
H1063 C1055 0.929 . S
H1064 C1072 0.929 . S
H1065 C1074 0.930 . S
H1066 C1076 0.930 . S
H1067 C1079 0.929 . S
H1068 C1082 0.930 . S
H1069 C1084 0.960 . S
H1070 C1084 0.960 . S
H1071 C1084 0.960 . S
C1072 H1064 0.929 . S
C1072 C1073 1.377 . S
C1072 C1074 1.384 . S
C1073 C1072 1.377 . S
C1073 C1079 1.390 . S
C1074 H1065 0.930 . S
C1074 C1072 1.384 . S
C1074 C1075 1.372 . S
C1075 C1074 1.372 . S
C1075 C1076 1.400 . S
C1075 C1080 1.490 . S
C1076 H1066 0.930 . S
C1076 C1075 1.400 . S
C1076 C1079 1.386 . S
H1077 C1093 0.930 . S
H1078 C1094 0.931 . S
C1079 H1067 0.929 . S
C1079 C1073 1.390 . S
C1079 C1076 1.386 . S
C1080 C1075 1.490 . S
C1080 C1082 1.395 . S
C1080 C1083 1.403 . S
H1081 C1087 0.930 . S
C1082 H1068 0.930 . S
C1082 C1080 1.395 . S
C1082 C1085 1.403 . S
C1083 C1080 1.403 . S
C1083 C1084 1.524 . S
C1083 C1087 1.400 . S
C1084 H1069 0.960 . S
C1084 H1070 0.960 . S
C1084 H1071 0.960 . S
C1084 C1083 1.524 . S
C1085 C1082 1.403 . S
C1085 C1086 1.392 . S
C1085 C1089 1.495 . S
C1086 C1085 1.392 . S
C1086 C1087 1.385 . S
C1086 C1088 1.478 . S
C1087 H1081 0.930 . S
C1087 C1083 1.400 . S
C1087 C1086 1.385 . S
C1088 C1086 1.478 . S
C1088 C1090 1.381 . S
C1088 C1094 1.383 . S
C1089 C1085 1.495 . S
C1089 H1095 0.959 . S
C1089 H1096 0.961 . S
C1089 H1097 0.960 . S
C1090 C1088 1.381 . S
C1090 C1091 1.394 . S
C1090 H1098 0.930 . S
C1091 C1090 1.394 . S
C1091 C1092 1.383 . S
C1091 H1099 0.929 . S
C1092 C1091 1.383 . S
C1092 C1093 1.377 . S
C1093 H1077 0.930 . S
C1093 C1092 1.377 . S
C1093 C1094 1.379 . S
C1094 H1078 0.931 . S
C1094 C1088 1.383 . S
C1094 C1093 1.379 . S
H1095 C1089 0.959 . S
H1096 C1089 0.961 . S
H1097 C1089 0.960 . S
H1098 C1090 0.930 . S
H1099 C1091 0.929 . S
H1100 C1108 0.929 . S
H1101 C1110 0.930 . S
H1102 C1112 0.930 . S
H1103 C1115 0.929 . S
H1104 C1118 0.930 . S
H1105 C1120 0.960 . S
H1106 C1120 0.960 . S
H1107 C1120 0.960 . S
C1108 H1100 0.929 . S
C1108 C1109 1.377 . S
C1108 C1110 1.384 . S
C1109 C1108 1.377 . S
C1109 C1115 1.390 . S
C1110 H1101 0.930 . S
C1110 C1108 1.384 . S
C1110 C1111 1.372 . S
C1111 C1110 1.372 . S
C1111 C1112 1.400 . S
C1111 C1116 1.490 . S
C1112 H1102 0.930 . S
C1112 C1111 1.400 . S
C1112 C1115 1.386 . S
H1113 C1129 0.930 . S
H1114 C1130 0.931 . S
C1115 H1103 0.929 . S
C1115 C1109 1.390 . S
C1115 C1112 1.386 . S
C1116 C1111 1.490 . S
C1116 C1118 1.395 . S
C1116 C1119 1.403 . S
H1117 C1123 0.930 . S
C1118 H1104 0.930 . S
C1118 C1116 1.395 . S
C1118 C1121 1.403 . S
C1119 C1116 1.403 . S
C1119 C1120 1.524 . S
C1119 C1123 1.400 . S
C1120 H1105 0.960 . S
C1120 H1106 0.960 . S
C1120 H1107 0.960 . S
C1120 C1119 1.524 . S
C1121 C1118 1.403 . S
C1121 C1122 1.392 . S
C1121 C1125 1.495 . S
C1122 C1121 1.392 . S
C1122 C1123 1.385 . S
C1122 C1124 1.478 . S
C1123 H1117 0.930 . S
C1123 C1119 1.400 . S
C1123 C1122 1.385 . S
C1124 C1122 1.478 . S
C1124 C1126 1.381 . S
C1124 C1130 1.383 . S
C1125 C1121 1.495 . S
C1125 H1131 0.959 . S
C1125 H1132 0.961 . S
C1125 H1133 0.960 . S
C1126 C1124 1.381 . S
C1126 C1127 1.394 . S
C1126 H1134 0.930 . S
C1127 C1126 1.394 . S
C1127 C1128 1.383 . S
C1127 H1135 0.929 . S
C1128 C1127 1.383 . S
C1128 C1129 1.377 . S
C1129 H1113 0.930 . S
C1129 C1128 1.377 . S
C1129 C1130 1.379 . S
C1130 H1114 0.931 . S
C1130 C1124 1.383 . S
C1130 C1129 1.379 . S
H1131 C1125 0.959 . S
H1132 C1125 0.961 . S
H1133 C1125 0.960 . S
H1134 C1126 0.930 . S
H1135 C1127 0.929 . S
H1136 C1144 0.929 . S
H1137 C1146 0.933 . S
H1138 C1148 0.930 . S
H1139 C1151 0.929 . S
H1140 C1154 0.930 . S
H1141 C1156 0.960 . S
H1142 C1156 0.960 . S
H1143 C1156 0.960 . S
C1144 H1136 0.929 . S
C1144 C1145 1.372 1_455 S
C1144 C1146 1.386 . S
C1145 C1144 1.372 1_655 S
C1145 C1151 1.401 . S
C1146 H1137 0.933 . S
C1146 C1144 1.386 . S
C1146 C1147 1.368 1_455 S
C1147 C1146 1.368 1_655 S
C1147 C1148 1.400 . S
C1147 C1152 1.490 . S
C1148 H1138 0.930 . S
C1148 C1147 1.400 . S
C1148 C1151 1.386 . S
H1149 C1165 0.930 . S
H1150 C1166 0.931 . S
C1151 H1139 0.929 . S
C1151 C1145 1.401 . S
C1151 C1148 1.386 . S
C1152 C1147 1.490 . S
C1152 C1154 1.395 . S
C1152 C1155 1.403 1_655 S
H1153 C1159 0.930 . S
C1154 H1140 0.930 . S
C1154 C1152 1.395 . S
C1154 C1157 1.403 . S
C1155 C1152 1.403 1_455 S
C1155 C1156 1.524 . S
C1155 C1159 1.400 . S
C1156 H1141 0.960 . S
C1156 H1142 0.960 . S
C1156 H1143 0.960 . S
C1156 C1155 1.524 . S
C1157 C1154 1.403 . S
C1157 C1158 1.392 . S
C1157 C1161 1.495 . S
C1158 C1157 1.392 . S
C1158 C1159 1.385 1_655 S
C1158 C1160 1.478 . S
C1159 H1153 0.930 . S
C1159 C1155 1.400 . S
C1159 C1158 1.385 1_455 S
C1160 C1158 1.478 . S
C1160 C1162 1.381 . S
C1160 C1166 1.383 . S
C1161 C1157 1.495 . S
C1161 H1167 0.959 . S
C1161 H1168 0.961 . S
C1161 H1169 0.960 . S
C1162 C1160 1.381 . S
C1162 C1163 1.394 . S
C1162 H1170 0.930 . S
C1163 C1162 1.394 . S
C1163 C1164 1.383 . S
C1163 H1171 0.929 . S
C1164 C1163 1.383 . S
C1164 C1165 1.377 . S
C1165 H1149 0.930 . S
C1165 C1164 1.377 . S
C1165 C1166 1.379 . S
C1166 H1150 0.931 . S
C1166 C1160 1.383 . S
C1166 C1165 1.379 . S
H1167 C1161 0.959 . S
H1168 C1161 0.961 . S
H1169 C1161 0.960 . S
H1170 C1162 0.930 . S
H1171 C1163 0.929 . S
H1172 C1180 0.929 . S
H1173 C1182 0.930 . S
H1174 C1184 0.930 . S
H1175 C1187 0.929 . S
H1176 C1190 0.930 . S
H1177 C1192 0.960 . S
H1178 C1192 0.960 . S
H1179 C1192 0.960 . S
C1180 H1172 0.929 . S
C1180 C1181 1.377 . S
C1180 C1182 1.384 . S
C1181 C1180 1.377 . S
C1181 C1187 1.390 1_565 S
C1182 H1173 0.930 . S
C1182 C1180 1.384 . S
C1182 C1183 1.372 . S
C1183 C1182 1.372 . S
C1183 C1184 1.400 1_565 S
C1183 C1188 1.490 . S
C1184 H1174 0.930 . S
C1184 C1183 1.400 1_545 S
C1184 C1187 1.386 . S
H1185 C1201 0.930 . S
H1186 C1202 0.931 . S
C1187 H1175 0.929 . S
C1187 C1181 1.390 1_545 S
C1187 C1184 1.386 . S
C1188 C1183 1.490 . S
C1188 C1190 1.395 . S
C1188 C1191 1.403 . S
H1189 C1195 0.930 . S
C1190 H1176 0.930 . S
C1190 C1188 1.395 . S
C1190 C1193 1.403 . S
C1191 C1188 1.403 . S
C1191 C1192 1.524 . S
C1191 C1195 1.400 . S
C1192 H1177 0.960 . S
C1192 H1178 0.960 . S
C1192 H1179 0.960 . S
C1192 C1191 1.524 . S
C1193 C1190 1.403 . S
C1193 C1194 1.392 . S
C1193 C1197 1.490 1_565 S
C1194 C1193 1.392 . S
C1194 C1195 1.385 . S
C1194 C1196 1.478 . S
C1195 H1189 0.930 . S
C1195 C1191 1.400 . S
C1195 C1194 1.385 . S
C1196 C1194 1.478 . S
C1196 C1198 1.381 . S
C1196 C1202 1.383 1_565 S
C1197 C1193 1.490 1_545 S
C1197 H1203 0.962 . S
C1197 H1204 0.980 . S
C1197 H1205 0.943 1_545 S
C1198 C1196 1.381 . S
C1198 C1199 1.394 . S
C1198 H1206 0.930 . S
C1199 C1198 1.394 . S
C1199 C1200 1.383 . S
C1199 H1207 0.929 . S
C1200 C1199 1.383 . S
C1200 C1201 1.377 1_565 S
C1201 H1185 0.930 . S
C1201 C1200 1.377 1_545 S
C1201 C1202 1.379 . S
C1202 H1186 0.931 . S
C1202 C1196 1.383 1_545 S
C1202 C1201 1.379 . S
H1203 C1197 0.962 . S
H1204 C1197 0.980 . S
H1205 C1197 0.943 1_565 S
H1206 C1198 0.930 . S
H1207 C1199 0.929 . S
H1208 C1216 0.929 . S
H1209 C1218 0.930 . S
H1210 C1220 0.930 . S
H1211 C1223 0.929 . S
H1212 C1226 0.930 . S
H1213 C1228 0.960 . S
H1214 C1228 0.960 . S
H1215 C1228 0.960 . S
C1216 H1208 0.929 . S
C1216 C1217 1.377 . S
C1216 C1218 1.384 . S
C1217 C1216 1.377 . S
C1217 C1223 1.390 . S
C1218 H1209 0.930 . S
C1218 C1216 1.384 . S
C1218 C1219 1.372 . S
C1219 C1218 1.372 . S
C1219 C1220 1.400 . S
C1219 C1224 1.490 . S
C1220 H1210 0.930 . S
C1220 C1219 1.400 . S
C1220 C1223 1.386 . S
H1221 C1237 0.930 . S
H1222 C1238 0.931 . S
C1223 H1211 0.929 . S
C1223 C1217 1.390 . S
C1223 C1220 1.386 . S
C1224 C1219 1.490 . S
C1224 C1226 1.395 . S
C1224 C1227 1.403 . S
H1225 C1231 0.930 . S
C1226 H1212 0.930 . S
C1226 C1224 1.395 . S
C1226 C1229 1.403 . S
C1227 C1224 1.403 . S
C1227 C1228 1.524 . S
C1227 C1231 1.400 . S
C1228 H1213 0.960 . S
C1228 H1214 0.960 . S
C1228 H1215 0.960 . S
C1228 C1227 1.524 . S
C1229 C1226 1.403 . S
C1229 C1230 1.392 . S
C1229 C1233 1.495 . S
C1230 C1229 1.392 . S
C1230 C1231 1.385 . S
C1230 C1232 1.478 . S
C1231 H1225 0.930 . S
C1231 C1227 1.400 . S
C1231 C1230 1.385 . S
C1232 C1230 1.478 . S
C1232 C1234 1.381 . S
C1232 C1238 1.383 . S
C1233 C1229 1.495 . S
C1233 H1239 0.959 . S
C1233 H1240 0.961 . S
C1233 H1241 0.960 . S
C1234 C1232 1.381 . S
C1234 C1235 1.394 . S
C1234 H1242 0.930 . S
C1235 C1234 1.394 . S
C1235 C1236 1.383 . S
C1235 H1243 0.929 . S
C1236 C1235 1.383 . S
C1236 C1237 1.377 . S
C1237 H1221 0.930 . S
C1237 C1236 1.377 . S
C1237 C1238 1.379 . S
C1238 H1222 0.931 . S
C1238 C1232 1.383 . S
C1238 C1237 1.379 . S
H1239 C1233 0.959 . S
H1240 C1233 0.961 . S
H1241 C1233 0.960 . S
H1242 C1234 0.930 . S
H1243 C1235 0.929 . S
H1244 C1252 0.929 . S
H1245 C1254 0.930 . S
H1246 C1256 0.930 . S
H1247 C1259 0.929 . S
H1248 C1262 0.930 . S
H1249 C1264 0.960 . S
H1250 C1264 0.960 . S
H1251 C1264 0.960 . S
C1252 H1244 0.929 . S
C1252 C1253 1.377 . S
C1252 C1254 1.384 . S
C1253 C1252 1.377 . S
C1253 C1259 1.390 . S
C1254 H1245 0.930 . S
C1254 C1252 1.384 . S
C1254 C1255 1.372 . S
C1255 C1254 1.372 . S
C1255 C1256 1.400 . S
C1255 C1260 1.490 . S
C1256 H1246 0.930 . S
C1256 C1255 1.400 . S
C1256 C1259 1.386 . S
H1257 C1273 0.930 . S
H1258 C1274 0.931 . S
C1259 H1247 0.929 . S
C1259 C1253 1.390 . S
C1259 C1256 1.386 . S
C1260 C1255 1.490 . S
C1260 C1262 1.395 . S
C1260 C1263 1.403 . S
H1261 C1267 0.930 . S
C1262 H1248 0.930 . S
C1262 C1260 1.395 . S
C1262 C1265 1.403 . S
C1263 C1260 1.403 . S
C1263 C1264 1.524 . S
C1263 C1267 1.400 . S
C1264 H1249 0.960 . S
C1264 H1250 0.960 . S
C1264 H1251 0.960 . S
C1264 C1263 1.524 . S
C1265 C1262 1.403 . S
C1265 C1266 1.392 . S
C1265 C1269 1.495 . S
C1266 C1265 1.392 . S
C1266 C1267 1.385 . S
C1266 C1268 1.478 . S
C1267 H1261 0.930 . S
C1267 C1263 1.400 . S
C1267 C1266 1.385 . S
C1268 C1266 1.478 . S
C1268 C1270 1.381 . S
C1268 C1274 1.383 . S
C1269 C1265 1.495 . S
C1269 H1275 0.959 . S
C1269 H1276 0.961 . S
C1269 H1277 0.960 . S
C1270 C1268 1.381 . S
C1270 C1271 1.394 . S
C1270 H1278 0.930 . S
C1271 C1270 1.394 . S
C1271 C1272 1.383 . S
C1271 H1279 0.929 . S
C1272 C1271 1.383 . S
C1272 C1273 1.377 . S
C1273 H1257 0.930 . S
C1273 C1272 1.377 . S
C1273 C1274 1.379 . S
C1274 H1258 0.931 . S
C1274 C1268 1.383 . S
C1274 C1273 1.379 . S
H1275 C1269 0.959 . S
H1276 C1269 0.961 . S
H1277 C1269 0.960 . S
H1278 C1270 0.930 . S
H1279 C1271 0.929 . S
C425 C215 1.811 . S
C444 C266 1.899 . S
C480 C306 1.883 . S
C461 C247 1.796 . S
C516 C346 1.899 . S
C497 C151 1.806 . S
C552 C386 1.880 . S
C533 C183 1.793 . S
C588 C275 1.903 1_565 S
C569 C87 1.795 . S
C605 C119 1.790 . S
C624 C315 1.881 . S
C641 C23 1.793 . S
C660 C355 1.903 . S
C677 C55 1.793 1_655 S
C696 C395 1.899 1_655 S
C732 C272 0.381 . S
C713 C189 0.260 . S
C768 C312 0.425 . S
C749 C221 0.239 . S
C804 C352 0.314 . S
C785 C253 0.268 . S
C821 C157 0.245 . S
C840 C392 0.395 . S
C857 C61 0.429 1_655 S
C876 C263 0.222 . S
C912 C303 0.284 . S
C893 C93 0.492 . S
C948 C343 0.395 . S
C929 C125 0.422 . S
C965 C29 0.471 . S
C984 C383 0.427 . S
C1001 C177 2.224 . S
C1020 C267 2.466 . S
C1037 C209 2.234 . S
C1056 C307 2.463 . S
C1092 C347 2.463 . S
C1073 C241 2.219 . S
C1128 C387 2.472 . S
C1109 C145 2.237 . S
C1145 C49 2.233 1_655 S
C1164 C258 2.482 . S
C1200 C298 2.469 . S
C1181 C81 2.235 . S
C1236 C338 2.464 . S
C1217 C113 2.244 . S
C1253 C17 2.238 . S
C1272 C378 2.491 . S
