# Generated by pormake.
# Topology ctn, (3,4)-cn, num edge types: 1
# Building blocks:
#     Node 0, Type 0, BuildingBlock: PAMTOO_clean_linker_0, # of connection points: 3
#     Node 1, Type 0, BuildingBlock: PAMTOO_clean_linker_0, # of connection points: 3
#     Node 2, Type 0, BuildingBlock: PAMTOO_clean_linker_0, # of connection points: 3
#     Node 3, Type 0, BuildingBlock: PAMTOO_clean_linker_0, # of connection points: 3
#     Node 4, Type 0, BuildingBlock: PAMTOO_clean_linker_0, # of connection points: 3
#     Node 5, Type 0, BuildingBlock: PAMTOO_clean_linker_0, # of connection points: 3
#     Node 6, Type 0, BuildingBlock: PAMTOO_clean_linker_0, # of connection points: 3
#     Node 7, Type 0, BuildingBlock: PAMTOO_clean_linker_0, # of connection points: 3
#     Node 8, Type 0, BuildingBlock: PAMTOO_clean_linker_0, # of connection points: 3
#     Node 9, Type 0, BuildingBlock: PAMTOO_clean_linker_0, # of connection points: 3
#     Node 10, Type 0, BuildingBlock: PAMTOO_clean_linker_0, # of connection points: 3
#     Node 11, Type 0, BuildingBlock: PAMTOO_clean_linker_0, # of connection points: 3
#     Node 12, Type 0, BuildingBlock: PAMTOO_clean_linker_0, # of connection points: 3
#     Node 13, Type 0, BuildingBlock: PAMTOO_clean_linker_0, # of connection points: 3
#     Node 14, Type 0, BuildingBlock: PAMTOO_clean_linker_0, # of connection points: 3
#     Node 15, Type 0, BuildingBlock: PAMTOO_clean_linker_0, # of connection points: 3
#     Node 16, Type 1, BuildingBlock: UXUYUI_clean_sbu_0, # of connection points: 4
#     Node 17, Type 1, BuildingBlock: UXUYUI_clean_sbu_0, # of connection points: 4
#     Node 18, Type 1, BuildingBlock: UXUYUI_clean_sbu_0, # of connection points: 4
#     Node 19, Type 1, BuildingBlock: UXUYUI_clean_sbu_0, # of connection points: 4
#     Node 20, Type 1, BuildingBlock: UXUYUI_clean_sbu_0, # of connection points: 4
#     Node 21, Type 1, BuildingBlock: UXUYUI_clean_sbu_0, # of connection points: 4
#     Node 22, Type 1, BuildingBlock: UXUYUI_clean_sbu_0, # of connection points: 4
#     Node 23, Type 1, BuildingBlock: UXUYUI_clean_sbu_0, # of connection points: 4
#     Node 24, Type 1, BuildingBlock: UXUYUI_clean_sbu_0, # of connection points: 4
#     Node 25, Type 1, BuildingBlock: UXUYUI_clean_sbu_0, # of connection points: 4
#     Node 26, Type 1, BuildingBlock: UXUYUI_clean_sbu_0, # of connection points: 4
#     Node 27, Type 1, BuildingBlock: UXUYUI_clean_sbu_0, # of connection points: 4
#     Edge 28, Type (0, 1), None
#     Edge 29, Type (0, 1), None
#     Edge 30, Type (0, 1), None
#     Edge 31, Type (0, 1), None
#     Edge 32, Type (0, 1), None
#     Edge 33, Type (0, 1), None
#     Edge 34, Type (0, 1), None
#     Edge 35, Type (0, 1), None
#     Edge 36, Type (0, 1), None
#     Edge 37, Type (0, 1), None
#     Edge 38, Type (0, 1), None
#     Edge 39, Type (0, 1), None
#     Edge 40, Type (0, 1), None
#     Edge 41, Type (0, 1), None
#     Edge 42, Type (0, 1), None
#     Edge 43, Type (0, 1), None
#     Edge 44, Type (0, 1), None
#     Edge 45, Type (0, 1), None
#     Edge 46, Type (0, 1), None
#     Edge 47, Type (0, 1), None
#     Edge 48, Type (0, 1), None
#     Edge 49, Type (0, 1), None
#     Edge 50, Type (0, 1), None
#     Edge 51, Type (0, 1), None
#     Edge 52, Type (0, 1), None
#     Edge 53, Type (0, 1), None
#     Edge 54, Type (0, 1), None
#     Edge 55, Type (0, 1), None
#     Edge 56, Type (0, 1), None
#     Edge 57, Type (0, 1), None
#     Edge 58, Type (0, 1), None
#     Edge 59, Type (0, 1), None
#     Edge 60, Type (0, 1), None
#     Edge 61, Type (0, 1), None
#     Edge 62, Type (0, 1), None
#     Edge 63, Type (0, 1), None
#     Edge 64, Type (0, 1), None
#     Edge 65, Type (0, 1), None
#     Edge 66, Type (0, 1), None
#     Edge 67, Type (0, 1), None
#     Edge 68, Type (0, 1), None
#     Edge 69, Type (0, 1), None
#     Edge 70, Type (0, 1), None
#     Edge 71, Type (0, 1), None
#     Edge 72, Type (0, 1), None
#     Edge 73, Type (0, 1), None
#     Edge 74, Type (0, 1), None
#     Edge 75, Type (0, 1), None
# Relax obj value: 0.071
# Max RMSD: 0.180
# Mean RMSD: 0.114
data_MOF--net-ctn--node1-UXUYUI_clean_sbu_0--node2-PAMTOO_clean_linker_0--edge1-none
_symmetry_space_group_name_H-M    P1
_symmetry_Int_Tables_number       1
_symmetry_cell_setting            triclinic
loop_
_symmetry_equiv_pos_as_xyz
'x, y, z'
_cell_length_a     35.950371
_cell_length_b     36.086224
_cell_length_c     36.967792
_cell_angle_alpha  84.916768
_cell_angle_beta   92.592891
_cell_angle_gamma 97.889759
loop_
_atom_site_label
_atom_site_type_symbol
_atom_site_fract_x
_atom_site_fract_y
_atom_site_fract_z
_atom_type_partial_charge
H0 H 0.99583 0.12151 0.0842 0.0
H1 H 0.04937 0.02498 0.12269 0.0
H2 H 0.0874 0.09123 0.02643 0.0
H3 H 0.07322 1.00796 0.02462 0.0
C4 C 0.08896 1.00084 0.05039 0.0
O5 O 0.09668 0.0323 0.06973 0.0
H6 H 0.0711 0.97848 0.06674 0.0
C7 C 0.01688 0.10329 0.08136 0.0
C8 C 0.04098 0.11045 0.05171 0.0
C9 C 0.01975 0.0728 0.10752 0.0
C10 C 0.04692 0.04895 0.10333 0.0
C11 C 0.0707 0.0554 0.07373 0.0
C12 C 0.068 0.08622 0.04845 0.0
H13 H 0.33388 0.67324 0.30967 0.0
H14 H 0.27699 0.69824 0.20674 0.0
H15 H 0.37125 0.77359 0.24174 0.0
H16 H 0.3099 0.81192 0.20992 0.0
C17 C 0.29604 0.79027 0.19229 0.0
O18 O 0.31831 0.76207 0.19159 0.0
H19 H 0.26849 0.77862 0.20411 0.0
C20 C 0.33109 0.69109 0.28482 0.0
C21 C 0.3567 0.72415 0.27864 0.0
C22 C 0.30192 0.68117 0.25912 0.0
C23 C 0.29873 0.70511 0.22723 0.0
C24 C 0.32335 0.7384 0.22134 0.0
C25 C 0.35249 0.7476 0.24667 0.0
H26 H 0.98529 0.54815 0.1391 0.0
H27 H 0.94264 0.4958 0.0423 0.0
H28 H 0.03325 0.45399 0.10468 0.0
H29 H 0.04227 0.45993 0.02691 0.0
C30 C 0.01265 0.45242 0.0173 0.0
O31 O 0.98971 0.4462 0.04691 0.0
H32 H 1.00457 0.47644 0.99904 0.0
C33 C 0.98624 0.52705 0.12019 0.0
C34 C 0.01311 0.5015 0.12593 0.0
C35 C 0.96029 0.52514 0.09013 0.0
C36 C 0.96196 0.49767 0.06564 0.0
C37 C 0.98859 0.4726 0.07069 0.0
C38 C 0.01362 0.47436 0.10081 0.0
H39 H 0.71568 0.86767 0.3031 0.0
H40 H 0.68381 0.75923 0.26176 0.0
H41 H 0.78343 0.82872 0.22486 0.0
H42 H 0.73029 0.79359 0.17016 0.0
C43 C 0.72748 0.76444 0.18345 0.0
O44 O 0.7411 0.76477 0.219 0.0
H45 H 0.69716 0.7529 0.1836 0.0
C46 C 0.72077 0.84631 0.28578 0.0
C47 C 0.7527 0.85242 0.2642 0.0
C48 C 0.69555 0.81276 0.28534 0.0
C49 C 0.70256 0.78538 0.26245 0.0
C50 C 0.73424 0.79125 0.24076 0.0
C51 C 0.7592 0.82452 0.24189 0.0
H52 H 0.13392 0.96163 0.55758 0.0
H53 H 0.03344 0.93133 0.49246 0.0
H54 H 0.10995 0.02808 0.45863 0.0
H55 H 0.03435 0.04083 0.44835 0.0
C56 C 0.01995 0.01191 0.44525 0.0
O57 O 0.0464 0.98777 0.44367 0.0
H58 H 1.00242 1.00297 0.46938 0.0
C59 C 0.11608 0.96667 0.53378 0.0
C60 C 0.12605 0.99847 0.50935 0.0
C61 C 0.08292 0.94166 0.52791 0.0
C62 C 0.05969 0.94916 0.49716 0.0
C63 C 0.06951 0.98032 0.47255 0.0
C64 C 0.10276 1.00439 0.47831 0.0
H65 H 0.18012 0.80532 0.82838 0.0
H66 H 0.21023 0.70871 0.78082 0.0
H67 H 0.27488 0.75218 0.87122 0.0
H68 H 0.32209 0.72886 0.81471 0.0
C69 C 0.30014 0.70909 0.80162 0.0
O70 O 0.26892 0.70224 0.82297 0.0
H71 H 0.29274 0.72276 0.77454 0.0
C72 C 0.19793 0.78355 0.82752 0.0
C73 C 0.22778 0.78161 0.85351 0.0
C74 C 0.1909 0.75737 0.80083 0.0
C75 C 0.21497 0.72969 0.80032 0.0
C76 C 0.24546 0.72832 0.82507 0.0
C77 C 0.25145 0.7538 0.85191 0.0
H78 H 0.93168 0.58239 0.55287 0.0
H79 H 0.97383 0.52088 0.47227 0.0
H80 H 0.04463 0.61294 0.51492 0.0
H81 H 0.05742 0.60613 0.43525 0.0
C82 C 0.0429 0.57693 0.4345 0.0
O83 O 0.03961 0.56044 0.4696 0.0
H84 H 0.01457 0.57869 0.42142 0.0
C85 C 0.95413 0.57801 0.5358 0.0
C86 C 0.9888 0.60193 0.53695 0.0
C87 C 0.94836 0.5483 0.51279 0.0
C88 C 0.97764 0.54301 0.49063 0.0
C89 C 0.01193 0.56642 0.49123 0.0
C90 C 0.01755 0.5956 0.51437 0.0
H91 H 0.75528 0.81941 0.88775 0.0
H92 H 0.84705 0.76858 0.85036 0.0
H93 H 0.80532 0.85837 0.7848 0.0
H94 H 0.82532 0.79664 0.743 0.0
C95 C 0.84725 0.78664 0.76222 0.0
O96 O 0.85426 0.81055 0.7897 0.0
H97 H 0.83666 0.75792 0.77417 0.0
C98 C 0.77565 0.81761 0.86748 0.0
C99 C 0.77714 0.84281 0.83567 0.0
C100 C 0.80067 0.79024 0.87316 0.0
C101 C 0.82707 0.78862 0.84653 0.0
C102 C 0.82848 0.81285 0.81483 0.0
C103 C 0.80378 0.83983 0.80956 0.0
H104 H 0.25529 0.31946 0.38779 0.0
H105 H 0.34699 0.26862 0.35026 0.0
H106 H 0.30517 0.3584 0.28477 0.0
H107 H 0.32512 0.29666 0.24289 0.0
C108 C 0.347 0.28662 0.26214 0.0
O109 O 0.35408 0.31057 0.28958 0.0
H110 H 0.3359 0.2579 0.27371 0.0
C111 C 0.27563 0.31765 0.36749 0.0
C112 C 0.27707 0.34285 0.33568 0.0
C113 C 0.30065 0.29028 0.37313 0.0
C114 C 0.327 0.28866 0.34646 0.0
C115 C 0.32837 0.31288 0.31476 0.0
C116 C 0.30366 0.33986 0.30952 0.0
H117 H 0.48542 0.04825 0.63906 0.0
H118 H 0.44268 0.99588 0.5423 0.0
H119 H 0.53326 0.95399 0.60467 0.0
H120 H 0.54232 0.95988 0.52673 0.0
C121 C 0.51263 0.95229 0.51734 0.0
O122 O 0.48965 0.94619 0.54693 0.0
H123 H 0.50413 0.97615 0.49913 0.0
C124 C 0.48634 0.02714 0.62015 0.0
C125 C 0.51319 1.00156 0.6259 0.0
C126 C 0.46038 0.02524 0.59011 0.0
C127 C 0.46202 0.99775 0.56562 0.0
C128 C 0.48861 0.97265 0.57068 0.0
C129 C 0.51366 0.97439 0.60079 0.0
H130 H 0.21561 0.36765 0.80314 0.0
H131 H 0.18376 0.25924 0.76175 0.0
H132 H 0.28335 0.32878 0.72484 0.0
H133 H 0.23029 0.29372 0.67011 0.0
C134 C 0.22743 0.26457 0.6834 0.0
O135 O 0.24103 0.26483 0.71896 0.0
H136 H 0.19698 0.25353 0.68311 0.0
C137 C 0.22071 0.3463 0.7858 0.0
C138 C 0.25262 0.35244 0.76421 0.0
C139 C 0.1955 0.31275 0.78535 0.0
C140 C 0.2025 0.28539 0.76244 0.0
C141 C 0.23418 0.29129 0.74075 0.0
C142 C 0.25913 0.32456 0.74188 0.0
H143 H 0.83384 0.1733 0.80979 0.0
H144 H 0.77699 0.19827 0.70683 0.0
H145 H 0.87123 0.27363 0.74185 0.0
H146 H 0.81049 0.31199 0.70959 0.0
C147 C 0.79606 0.2903 0.69229 0.0
O148 O 0.81833 0.26209 0.69166 0.0
H149 H 0.76854 0.27871 0.70423 0.0
C150 C 0.83106 0.19114 0.78493 0.0
C151 C 0.85666 0.2242 0.77876 0.0
C152 C 0.8019 0.18121 0.75923 0.0
C153 C 0.79872 0.20515 0.72733 0.0
C154 C 0.82334 0.23844 0.72144 0.0
C155 C 0.85247 0.24765 0.74678 0.0
H156 H 0.49576 0.62149 0.5841 0.0
H157 H 0.54969 0.52531 0.62289 0.0
H158 H 0.5875 0.59137 0.52644 0.0
H159 H 0.57332 0.50804 0.52484 0.0
C160 C 0.58914 0.50101 0.55059 0.0
O161 O 0.59689 0.53253 0.56983 0.0
H162 H 0.57133 0.47868 0.56703 0.0
C163 C 0.51691 0.60336 0.58132 0.0
C164 C 0.54102 0.61053 0.55168 0.0
C165 C 0.51989 0.57297 0.60755 0.0
C166 C 0.54716 0.5492 0.60345 0.0
C167 C 0.5709 0.55562 0.57382 0.0
C168 C 0.56811 0.58637 0.54847 0.0
H169 H 0.63373 0.4616 0.05747 0.0
H170 H 0.53326 0.43135 0.99233 0.0
H171 H 0.60983 0.52805 0.9585 0.0
H172 H 0.53424 0.54086 0.94828 0.0
C173 C 0.51982 0.51196 0.94515 0.0
O174 O 0.54626 0.4878 0.94355 0.0
H175 H 0.50229 0.50303 0.96928 0.0
C176 C 0.6159 0.46664 0.03366 0.0
C177 C 0.62591 0.49843 1.00923 0.0
C178 C 0.58273 0.44165 0.02778 0.0
C179 C 0.55952 0.44916 0.99702 0.0
C180 C 0.56936 0.48032 0.97241 0.0
C181 C 0.60263 0.50437 0.97818 0.0
H182 H 0.67993 0.3055 0.32835 0.0
H183 H 0.70977 0.20871 0.28091 0.0
H184 H 0.77451 0.25211 0.37128 0.0
H185 H 0.82153 0.2283 0.31509 0.0
C186 C 0.7996 0.20873 0.30172 0.0
O187 O 0.7684 0.20208 0.3231 0.0
H188 H 0.79192 0.22212 0.27459 0.0
C189 C 0.69768 0.28367 0.32752 0.0
C190 C 0.72751 0.28167 0.35353 0.0
C191 C 0.69059 0.25747 0.30085 0.0
C192 C 0.71457 0.2297 0.30038 0.0
C193 C 0.74504 0.22828 0.32514 0.0
C194 C 0.7511 0.25379 0.35195 0.0
H195 H 0.43161 0.08242 0.0528 0.0
H196 H 0.4738 0.02083 0.9723 0.0
H197 H 0.54458 0.11293 0.0149 0.0
H198 H 0.55788 0.10574 0.93557 0.0
C199 C 0.5429 0.07675 0.9345 0.0
O200 O 0.53959 0.06036 0.96964 0.0
H201 H 0.51455 0.07847 0.92147 0.0
C202 C 0.45406 0.07802 0.03575 0.0
C203 C 0.48874 0.10193 0.03691 0.0
C204 C 0.44831 0.04829 0.01277 0.0
C205 C 0.4776 0.04297 0.99063 0.0
C206 C 0.51189 0.06638 0.99123 0.0
C207 C 0.5175 0.09558 0.01434 0.0
Li208 Li 0.30021 0.93755 1.00911 0.0
Li209 Li 0.26923 0.88137 0.04625 0.0
Li210 Li 0.25687 0.88776 0.97972 0.0
Li211 Li 0.23009 0.92708 0.02003 0.0
C212 C 0.32164 0.85688 0.9922 0.0
N213 N 0.35136 0.80154 0.96029 0.0
C214 C 0.31746 0.82006 1.00827 0.0
C215 C 0.34126 0.86562 0.9601 0.0
C216 C 0.33263 0.79247 0.99168 0.0
C217 C 0.35596 0.83723 0.94432 0.0
C218 C 0.28366 0.93496 0.09121 0.0
C219 C 0.26985 0.91876 0.15437 0.0
N220 N 0.30616 0.93106 0.16379 0.0
C221 C 0.32082 0.94753 0.10154 0.0
C222 C 0.25791 0.92058 0.11785 0.0
C223 C 0.33164 0.94532 0.13837 0.0
C224 C 0.34389 0.01054 1.00959 0.0
N225 N 0.34519 0.97327 1.00749 0.0
C226 C 0.4124 0.98359 1.00954 0.0
C227 C 0.37854 0.95954 1.00753 0.0
C228 C 0.41216 0.02231 0.01166 0.0
C229 C 0.37721 0.03569 0.01172 0.0
H230 H 0.31697 0.02067 0.01011 0.0
H231 H 0.37886 0.92971 1.00668 0.0
C232 C 0.24896 0.82537 0.10394 0.0
N233 N 0.27809 0.84829 0.08828 0.0
C234 C 0.25443 0.80506 0.1373 0.0
C235 C 0.3201 0.83099 0.13697 0.0
C236 C 0.3134 0.85069 0.10356 0.0
C237 C 0.2902 0.80852 0.15457 0.0
H238 H 0.22125 0.82376 0.09112 0.0
H239 H 0.33606 0.86908 0.09042 0.0
C240 C 0.26279 0.9592 0.93913 0.0
N241 N 0.27483 0.9906 0.86904 0.0
C242 C 0.23348 0.97295 0.91827 0.0
C243 C 0.29829 0.96173 0.92449 0.0
C244 C 0.24011 0.98864 0.88284 0.0
C245 C 0.3038 0.97762 0.88897 0.0
C246 C 0.18256 0.86528 0.01878 0.0
C247 C 0.16208 0.85958 0.98623 0.0
C248 C 0.16357 0.86591 0.05085 0.0
C249 C 0.12285 0.85471 0.98631 0.0
C250 C 0.12432 0.86103 0.04978 0.0
N251 N 0.10495 0.85556 0.01781 0.0
C252 C 0.24412 0.81944 0.94644 0.0
C253 C 0.24362 0.87129 0.90266 0.0
C254 C 0.23802 0.7944 0.91926 0.0
N255 N 0.24753 0.85723 0.9379 0.0
C256 C 0.23661 0.84713 0.87462 0.0
C257 C 0.23413 0.80809 0.88273 0.0
H258 H 0.24607 0.80864 0.97458 0.0
H259 H 0.24574 0.90116 0.89602 0.0
C260 C 0.18565 0.96773 0.06041 0.0
N261 N 0.1876 0.95255 0.02823 0.0
C262 C 0.15417 0.98426 0.06802 0.0
C263 C 0.12763 0.97042 1.0088 0.0
C264 C 0.15955 0.95401 1.00239 0.0
C265 C 0.12469 0.98595 0.04194 0.0
H266 H 0.20833 0.96666 0.08045 0.0
H267 H 0.1616 0.94169 0.97705 0.0
O268 O 0.30648 0.88417 1.00775 0.0
O269 O 0.27274 0.93607 0.05521 0.0
O270 O 0.25676 0.94383 0.97385 0.0
O271 O 0.22098 0.87074 0.01915 0.0
H272 H 0.30224 0.8127 0.03301 0.0
H273 H 0.34498 0.89395 0.94737 0.0
H274 H 0.32939 0.76382 1.00369 0.0
H275 H 0.37103 0.84356 0.91937 0.0
H276 H 0.25029 0.90738 0.17521 0.0
H277 H 0.34121 0.9586 0.08138 0.0
H278 H 0.22917 0.91024 0.11035 0.0
H279 H 0.36034 0.95482 0.14672 0.0
H280 H 0.43856 0.9718 0.01001 0.0
H281 H 0.3756 0.06528 0.01302 0.0
H282 H 0.23074 0.78778 0.14999 0.0
H283 H 0.34804 0.83418 0.14953 0.0
H284 H 0.20587 0.97139 0.92927 0.0
H285 H 0.32133 0.95158 0.94036 0.0
H286 H 0.21766 0.99925 0.86632 0.0
H287 H 0.33112 0.97966 0.87725 0.0
H288 H 0.17627 0.85926 0.96111 0.0
H289 H 0.17896 0.87071 0.0762 0.0
H290 H 0.10664 0.85039 0.96131 0.0
H291 H 0.10927 0.86172 0.07434 0.0
H292 H 0.23578 0.7645 0.92682 0.0
H293 H 0.23377 0.85888 0.8468 0.0
H294 H 0.15271 0.99525 0.09417 0.0
H295 H 0.10519 0.97048 0.98825 0.0
Li296 Li 0.13525 0.51151 0.32493 0.0
Li297 Li 0.17583 0.47113 0.30074 0.0
Li298 Li 0.18496 0.53888 0.28598 0.0
Li299 Li 0.12748 0.50231 0.25959 0.0
C300 C 0.19758 0.49489 0.36781 0.0
N301 N 0.21296 0.46075 0.43568 0.0
C302 C 0.17267 0.4648 0.3827 0.0
C303 C 0.2303 0.50758 0.3874 0.0
C304 C 0.18096 0.44792 0.41705 0.0
C305 C 0.23756 0.48997 0.42169 0.0
C306 C 0.10454 0.42938 0.29024 0.0
C307 C 0.10318 0.38356 0.24634 0.0
N308 N 0.07661 0.36057 0.26566 0.0
C309 C 0.07722 0.40533 0.30964 0.0
C310 C 0.11767 0.41846 0.25831 0.0
C311 C 0.06346 0.37064 0.29679 0.0
C312 C 0.06889 0.51777 0.36135 0.0
N313 N 0.10704 0.52311 0.36479 0.0
C314 C 0.10434 0.55832 0.4164 0.0
C315 C 0.12492 0.54215 0.3922 0.0
C316 C 0.06509 0.5551 0.41217 0.0
C317 C 0.04724 0.53346 0.38499 0.0
H318 H 0.05539 0.5032 0.33891 0.0
H319 H 0.15527 0.54697 0.39389 0.0
C320 C 0.24235 0.43692 0.30836 0.0
N321 N 0.20459 0.42848 0.31219 0.0
C322 C 0.26627 0.4095 0.31635 0.0
C323 C 0.21265 0.36503 0.33418 0.0
C324 C 0.18953 0.39334 0.32535 0.0
C325 C 0.25165 0.37277 0.32924 0.0
H326 H 0.25405 0.46526 0.29935 0.0
H327 H 0.15963 0.38718 0.32924 0.0
C328 C 0.12034 0.57943 0.29698 0.0
N329 N 0.09429 0.63782 0.32741 0.0
C330 C 0.08418 0.58812 0.288 0.0
C331 C 0.14331 0.60056 0.32133 0.0
C332 C 0.07151 0.61771 0.30371 0.0
C333 C 0.12963 0.62995 0.33643 0.0
C334 C 0.20396 0.51759 0.22466 0.0
C335 C 0.19071 0.54667 0.20238 0.0
C336 C 0.24024 0.50919 0.22046 0.0
C337 C 0.21413 0.56705 0.17639 0.0
C338 C 0.2628 0.53023 0.19414 0.0
N339 N 0.2494 0.5585 0.17285 0.0
C340 C 0.25845 0.58117 0.28842 0.0
C341 C 0.21085 0.61376 0.25968 0.0
C342 C 0.28514 0.61314 0.28293 0.0
N343 N 0.2221 0.5821 0.27685 0.0
C344 C 0.23639 0.64636 0.25401 0.0
C345 C 0.27425 0.64649 0.26557 0.0
H346 H 0.26669 0.55558 0.30196 0.0
H347 H 0.18184 0.61382 0.25063 0.0
C348 C 0.05543 0.50682 0.2226 0.0
N349 N 0.09129 0.50018 0.21808 0.0
C350 C 0.02962 0.50817 0.1929 0.0
C351 C 0.07769 0.49505 0.15436 0.0
C352 C 0.10254 0.49406 0.18471 0.0
C353 C 0.0405 0.50221 0.15801 0.0
H354 H 0.04677 0.51113 0.24937 0.0
H355 H 0.13101 0.48869 0.18149 0.0
O356 O 0.19046 0.51167 0.33403 0.0
O357 O 0.11832 0.46329 0.30277 0.0
O358 O 0.1329 0.54985 0.28273 0.0
O359 O 0.18174 0.49813 0.25096 0.0
H360 H 0.14725 0.45449 0.36797 0.0
H361 H 0.24989 0.53077 0.37617 0.0
H362 H 0.16197 0.4246 0.4289 0.0
H363 H 0.26279 0.4995 0.43717 0.0
H364 H 0.11308 0.37474 0.22168 0.0
H365 H 0.06684 0.41339 0.33444 0.0
H366 H 0.13883 0.43657 0.24291 0.0
H367 H 0.04234 0.35172 0.31156 0.0
H368 H 0.11903 0.57484 0.43703 0.0
H369 H 0.01698 0.53027 0.38094 0.0
H370 H 0.29615 0.41713 0.31271 0.0
H371 H 0.20003 0.33719 0.34402 0.0
H372 H 0.06602 0.57216 0.2692 0.0
H373 H 0.17117 0.59388 0.32905 0.0
H374 H 0.04354 0.62466 0.29708 0.0
H375 H 0.14701 0.64633 0.35551 0.0
H376 H 0.16287 0.55386 0.2056 0.0
H377 H 0.25089 0.48667 0.23726 0.0
H378 H 0.20433 0.5898 0.15916 0.0
H379 H 0.29097 0.52408 0.19064 0.0
H380 H 0.31402 0.61158 0.29187 0.0
H381 H 0.22628 0.67136 0.24112 0.0
H382 H 1.00122 0.51311 0.19739 0.0
H383 H 0.08773 0.49055 0.12813 0.0
Li384 Li 0.76359 0.61691 0.03946 0.0
Li385 Li 0.78946 0.6662 0.07761 0.0
Li386 Li 0.80077 0.67612 0.0112 0.0
Li387 Li 0.8328 0.62668 0.05448 0.0
C388 C 0.72345 0.68328 0.05037 0.0
N389 N 0.66738 0.7128 0.08254 0.0
C390 C 0.69922 0.66046 0.07417 0.0
C391 C 0.71898 0.72107 0.04278 0.0
C392 C 0.67107 0.6759 0.09016 0.0
C393 C 0.69053 0.73549 0.05937 0.0
C394 C 0.78535 0.59315 0.12015 0.0
C395 C 0.8106 0.57199 0.17873 0.0
N396 N 0.77566 0.55554 0.18819 0.0
C397 C 0.74979 0.57559 0.13026 0.0
C398 C 0.81611 0.59097 0.14439 0.0
C399 C 0.74543 0.5569 0.16485 0.0
C400 C 0.72382 0.54214 0.03939 0.0
N401 N 0.72166 0.5792 0.03054 0.0
C402 C 0.65844 0.56492 1.00785 0.0
C403 C 0.68991 0.59084 0.01479 0.0
C404 C 0.65958 0.52633 0.01661 0.0
C405 C 0.693 0.51508 0.03258 0.0
H406 H 0.74955 0.53359 0.05161 0.0
H407 H 0.689 0.6204 1.0076 0.0
C408 C 0.78637 0.73255 0.11184 0.0
N409 N 0.77746 0.69459 0.11674 0.0
C410 C 0.77204 0.75584 0.13454 0.0
C411 C 0.74091 0.70068 0.16805 0.0
C412 C 0.75591 0.67841 0.14476 0.0
C413 C 0.74814 0.73994 0.16246 0.0
H414 H 0.80291 0.74483 0.08899 0.0
H415 H 0.74832 0.64837 0.14776 0.0
C416 C 0.79146 0.59717 0.98077 0.0
N417 N 0.7578 0.54586 0.93407 0.0
C418 C 0.80425 0.56237 0.98026 0.0
C419 C 0.76171 0.60598 0.95735 0.0
C420 C 0.78684 0.5368 0.95647 0.0
C421 C 0.74501 0.57963 0.93401 0.0
C422 C 0.86785 0.69931 0.07373 0.0
C423 C 0.89575 0.72535 0.05734 0.0
C424 C 0.87059 0.68913 0.111 0.0
C425 C 0.92625 0.74056 0.07857 0.0
C426 C 0.90151 0.70497 0.13129 0.0
N427 N 0.92849 0.73012 0.11479 0.0
C428 C 0.79876 0.74907 0.97218 0.0
C429 C 0.80678 0.70077 0.93517 0.0
C430 C 0.79686 0.77478 0.94143 0.0
N431 N 0.80329 0.71268 0.9686 0.0
C432 C 0.80522 0.72548 0.90384 0.0
C433 C 0.80015 0.76317 0.90652 0.0
H434 H 0.79649 0.75822 0.99896 0.0
H435 H 0.8105 0.67191 0.93269 0.0
C436 C 0.86587 0.56019 0.06875 0.0
N437 N 0.87539 0.59815 0.06648 0.0
C438 C 0.89309 0.53612 0.07702 0.0
C439 C 0.93974 0.59021 0.08262 0.0
C440 C 0.9116 0.61342 0.07353 0.0
C441 C 0.93075 0.5509 0.08394 0.0
H442 H 0.83689 0.5485 0.06401 0.0
H443 H 0.91885 0.64358 0.07198 0.0
O444 O 0.75199 0.66889 0.03545 0.0
O445 O 0.79022 0.61114 0.08622 0.0
O446 O 0.80727 0.62217 1.00466 0.0
O447 O 0.8379 0.6841 0.0533 0.0
H448 H 0.70249 0.63127 0.08068 0.0
H449 H 0.73739 0.73918 0.0245 0.0
H450 H 0.65232 0.65859 0.10881 0.0
H451 H 0.68691 0.76475 0.05388 0.0
H452 H 0.83413 0.5702 0.19781 0.0
H453 H 0.72577 0.57648 0.11165 0.0
H454 H 0.84401 0.60352 0.13672 0.0
H455 H 0.71803 0.54341 0.17312 0.0
H456 H 0.63329 0.57521 0.99612 0.0
H457 H 0.69552 0.48571 0.03938 0.0
H458 H 0.77815 0.78601 0.12923 0.0
H459 H 0.72235 0.68745 0.18912 0.0
H460 H 0.82737 0.55517 0.998 0.0
H461 H 0.75115 0.63262 0.95774 0.0
H462 H 0.79639 0.50971 0.95586 0.0
H463 H 0.72175 0.58595 0.91598 0.0
H464 H 0.89389 0.73361 0.0285 0.0
H465 H 0.84895 0.66946 0.12414 0.0
H466 H 0.94814 0.76067 0.06625 0.0
H467 H 0.90401 0.69732 0.16018 0.0
H468 H 0.79361 0.8036 0.94504 0.0
H469 H 0.8077 0.71498 0.87762 0.0
H470 H 0.88471 0.50606 0.07803 0.0
H471 H 0.96842 0.60287 0.08754 0.0
Li472 Li 0.87143 0.06588 0.27806 0.0
Li473 Li 0.918 0.0264 0.30644 0.0
Li474 Li 0.91574 0.04106 0.24013 0.0
Li475 Li 0.86552 0.99823 0.27171 0.0
C476 C 0.93866 0.11177 0.26272 0.0
N477 N 0.96075 0.18303 0.23067 0.0
C478 C 0.96964 0.13423 0.277 0.0
C479 C 0.9189 0.12551 0.23211 0.0
C480 C 0.98037 0.1702 0.26042 0.0
C481 C 0.93051 0.16162 0.21631 0.0
C482 C 0.83169 1.00687 0.33206 0.0
C483 C 0.79731 0.95451 0.36684 0.0
N484 N 0.76544 0.97088 0.36105 0.0
C485 C 0.79862 0.02327 0.32664 0.0
C486 C 0.8311 0.97232 0.35254 0.0
C487 C 0.76541 1.00462 0.34148 0.0
C488 C 0.82029 0.1203 0.26116 0.0
N489 N 0.8469 0.10871 0.28528 0.0
C490 C 0.84165 0.15934 0.32173 0.0
C491 C 0.85751 0.1273 0.31531 0.0
C492 C 0.81465 0.17239 0.29697 0.0
C493 C 0.80367 0.15223 0.26656 0.0
H494 H 0.81229 0.10501 0.23756 0.0
H495 H 0.8787 0.11745 0.33407 0.0
C496 C 0.9883 0.02395 0.34555 0.0
N497 N 0.95035 0.02023 0.34845 0.0
C498 C 1.0116 0.02037 0.37671 0.0
C499 C 0.95631 1.0089 0.41302 0.0
C500 C 0.93415 0.0128 0.38128 0.0
C501 C 0.99555 0.01268 0.41097 0.0
H502 H 1.00044 0.03008 0.31908 0.0
H503 H 0.90397 1.0104 0.38289 0.0
C504 C 0.84724 0.02463 0.201 0.0
N505 N 0.82257 0.99386 0.1369 0.0
C506 C 0.8626 0.99392 0.19025 0.0
C507 C 0.81924 0.03957 0.17919 0.0
C508 C 0.84977 0.9788 0.15775 0.0
C509 C 0.80718 0.02366 0.14686 0.0
C510 C 0.94153 0.96577 0.2808 0.0
C511 C 0.97196 0.95951 0.26101 0.0
C512 C 0.93396 0.9448 0.3139 0.0
C513 C 0.99477 0.93291 0.27503 0.0
C514 C 0.95748 0.91854 0.32708 0.0
N515 N 0.98718 0.9132 0.30754 0.0
C516 C 0.98416 0.04916 0.20332 0.0
C517 C 0.93282 0.06312 0.1646 0.0
C518 C 1.00837 0.05555 0.17413 0.0
N519 N 0.94697 0.05222 0.19804 0.0
C520 C 0.95607 0.07 0.13467 0.0
C521 C 0.99441 0.06592 0.13909 0.0
H522 H 0.99506 0.04169 0.23034 0.0
H523 H 0.90348 0.06655 0.16097 0.0
C524 C 0.79264 0.95544 0.26498 0.0
N525 N 0.83017 0.95324 0.2679 0.0
C526 C 0.76671 0.92281 0.264 0.0
C527 C 0.81847 0.88638 0.26715 0.0
C528 C 0.84333 0.91961 0.26848 0.0
C529 C 0.77955 0.88764 0.26521 0.0
H530 H 0.78282 0.98255 0.26364 0.0
H531 H 0.87317 0.91843 0.27 0.0
O532 O 0.92794 0.07648 0.27866 0.0
O533 O 0.86439 0.02445 0.31726 0.0
O534 O 0.85908 0.03986 0.23283 0.0
O535 O 0.91878 0.99166 0.26741 0.0
H536 H 0.98523 0.12393 0.30067 0.0
H537 H 0.89488 0.10854 0.22063 0.0
H538 H 1.0043 0.18791 0.27118 0.0
H539 H 0.91549 0.17261 0.19262 0.0
H540 H 0.79642 0.92764 0.38252 0.0
H541 H 0.79841 0.04989 0.3108 0.0
H542 H 0.85636 0.95922 0.3572 0.0
H543 H 0.73959 0.0169 0.33731 0.0
H544 H 0.85087 0.1742 0.34543 0.0
H545 H 0.78296 0.16148 0.24685 0.0
H546 H 0.04181 0.0241 0.37419 0.0
H547 H 0.94292 1.0036 0.43898 0.0
H548 H 0.88426 0.98186 0.20666 0.0
H549 H 0.80696 0.06325 0.18712 0.0
H550 H 0.86145 0.95508 0.1491 0.0
H551 H 0.78557 0.03499 0.1297 0.0
H552 H 0.97762 0.97456 0.23484 0.0
H553 H 0.91027 0.94889 0.32931 0.0
H554 H 0.01842 0.92781 0.25997 0.0
H555 H 0.95208 0.90237 0.35281 0.0
H556 H 0.03784 0.05289 0.17907 0.0
H557 H 0.94397 0.07793 0.10823 0.0
H558 H 0.73695 0.92512 0.26186 0.0
H559 H 0.82962 0.85989 0.2682 0.0
Li560 Li 0.28958 0.16634 0.57762 0.0
Li561 Li 0.26372 0.11701 0.53949 0.0
Li562 Li 0.33293 0.12682 0.55449 0.0
Li563 Li 0.30088 0.17621 0.5112 0.0
C564 C 0.28554 0.09329 0.62019 0.0
N565 N 0.27597 0.05566 0.68823 0.0
C566 C 0.25 0.0757 0.63033 0.0
C567 C 0.31633 0.09115 0.64439 0.0
C568 C 0.2457 0.057 0.66493 0.0
C569 C 0.31087 0.07216 0.67874 0.0
C570 C 0.22353 0.18335 0.55033 0.0
C571 C 0.19045 0.23551 0.55911 0.0
N572 N 0.16739 0.21286 0.5824 0.0
C573 C 0.19939 0.16057 0.57423 0.0
C574 C 0.21893 0.22109 0.54257 0.0
C575 C 0.17121 0.176 0.59017 0.0
C576 C 0.28624 0.23273 0.61166 0.0
N577 N 0.27752 0.19476 0.6167 0.0
C578 C 0.24104 0.20086 0.66807 0.0
C579 C 0.25613 0.17857 0.64483 0.0
C580 C 0.24793 0.24011 0.66222 0.0
C581 C 0.27181 0.25602 0.63429 0.0
H582 H 0.3027 0.245 0.58876 0.0
H583 H 0.24874 0.14852 0.648 0.0
C584 C 0.22397 0.04222 0.53945 0.0
N585 N 0.22179 0.07928 0.53061 0.0
C586 C 0.19315 0.01515 0.53267 0.0
C587 C 0.15856 0.06497 0.50797 0.0
C588 C 0.19002 0.0909 0.51489 0.0
C589 C 0.15972 0.02638 0.51672 0.0
H590 H 0.24972 0.03368 0.55165 0.0
H591 H 0.18909 0.12046 0.5077 0.0
C592 C 0.368 0.19934 0.57375 0.0
N593 N 0.42874 0.22989 0.61485 0.0
C594 C 0.39606 0.2252 0.55736 0.0
C595 C 0.37064 0.18922 0.61103 0.0
C596 C 0.42661 0.24028 0.57861 0.0
C597 C 0.40161 0.20492 0.63135 0.0
C598 C 0.29157 0.09726 0.4808 0.0
C599 C 0.30438 0.06247 0.48028 0.0
C600 C 0.26181 0.10605 0.4574 0.0
C601 C 0.28697 0.03688 0.4565 0.0
C602 C 0.2451 0.0797 0.43407 0.0
N603 N 0.25791 0.04594 0.43412 0.0
C604 C 0.36598 0.06033 0.56877 0.0
C605 C 0.41173 0.11354 0.57353 0.0
C606 C 0.39319 0.03625 0.57702 0.0
N607 N 0.37552 0.09829 0.56649 0.0
C608 C 0.43987 0.09031 0.5826 0.0
C609 C 0.43085 0.05101 0.58393 0.0
H610 H 0.33699 0.04865 0.56403 0.0
H611 H 0.419 0.1437 0.57198 0.0
C612 C 0.29883 0.24914 0.47216 0.0
N613 N 0.30337 0.21275 0.46858 0.0
C614 C 0.2969 0.27484 0.44141 0.0
C615 C 0.30526 0.22554 0.40382 0.0
C616 C 0.30686 0.20084 0.43516 0.0
C617 C 0.30017 0.26322 0.4065 0.0
H618 H 0.29656 0.25828 0.49895 0.0
H619 H 0.31058 0.17197 0.43268 0.0
O620 O 0.29035 0.11129 0.58625 0.0
O621 O 0.25211 0.16897 0.53544 0.0
O622 O 0.33802 0.18426 0.5533 0.0
O623 O 0.30739 0.12226 0.50469 0.0
H624 H 0.22596 0.07655 0.61175 0.0
H625 H 0.34421 0.10373 0.6367 0.0
H626 H 0.21832 0.04347 0.67323 0.0
H627 H 0.33443 0.0704 0.6978 0.0
H628 H 0.18673 0.26473 0.55351 0.0
H629 H 0.20276 0.13142 0.58086 0.0
H630 H 0.23727 0.23917 0.52419 0.0
H631 H 0.15253 0.15873 0.60892 0.0
H632 H 0.22266 0.18762 0.68927 0.0
H633 H 0.2778 0.2862 0.6289 0.0
H634 H 0.1957 0.98579 0.53945 0.0
H635 H 0.13339 0.07525 0.49626 0.0
H636 H 0.39429 0.23341 0.52851 0.0
H637 H 0.34888 0.16969 0.62417 0.0
H638 H 0.44862 0.26023 0.56629 0.0
H639 H 0.40403 0.19732 0.66025 0.0
H640 H 0.32751 0.05527 0.49801 0.0
H641 H 0.25123 0.13269 0.4578 0.0
H642 H 0.29653 1.00981 0.45587 0.0
H643 H 0.22183 0.08601 0.41606 0.0
H644 H 0.38479 1.00619 0.57804 0.0
H645 H 0.46854 0.10296 0.58751 0.0
H646 H 0.29363 0.30366 0.44502 0.0
H647 H 0.30773 0.21503 0.37761 0.0
Li648 Li 0.4179 0.52636 0.80629 0.0
Li649 Li 0.37157 0.56597 0.77797 0.0
Li650 Li 0.36547 0.49822 0.77172 0.0
Li651 Li 0.41585 0.54092 0.74014 0.0
C652 C 0.33144 0.50731 0.83184 0.0
N653 N 0.26478 0.47199 0.86057 0.0
C654 C 0.29855 0.52398 0.82611 0.0
C655 C 0.33044 0.47281 0.85251 0.0
C656 C 0.26514 0.50567 0.84082 0.0
C657 C 0.29646 0.45535 0.86666 0.0
C658 C 0.43887 0.61162 0.76256 0.0
C659 C 0.43088 0.66142 0.71606 0.0
N660 N 0.46118 0.68277 0.73036 0.0
C661 C 0.46993 0.63401 0.77679 0.0
C662 C 0.41915 0.62537 0.73194 0.0
C663 C 0.48078 0.66993 0.76013 0.0
C664 C 0.48821 0.52462 0.8455 0.0
N665 N 0.45023 0.52028 0.84835 0.0
C666 C 0.45618 0.50834 0.91287 0.0
C667 C 0.43401 0.51225 0.88113 0.0
C668 C 0.49545 0.51277 0.91086 0.0
C669 C 0.51152 0.52105 0.87666 0.0
H670 H 0.50037 0.53121 0.81907 0.0
H671 H 0.40381 0.50937 0.8827 0.0
C672 C 0.32054 0.62055 0.76107 0.0
N673 N 0.34724 0.60898 0.78509 0.0
C674 C 0.30409 0.65258 0.76642 0.0
C675 C 0.34237 0.6598 0.8214 0.0
C676 C 0.35804 0.62765 0.81503 0.0
C677 C 0.31551 0.67299 0.79658 0.0
H678 H 0.31229 0.60512 0.73759 0.0
H679 H 0.37922 0.61774 0.83377 0.0
C680 C 0.44189 0.46633 0.78188 0.0
N681 N 0.48863 0.41581 0.81117 0.0
C682 C 0.47388 0.46138 0.76371 0.0
C683 C 0.43332 0.44501 0.8146 0.0
C684 C 0.49723 0.43583 0.77902 0.0
C685 C 0.45741 0.41983 0.8291 0.0
C686 C 0.3471 0.52467 0.70104 0.0
C687 C 0.36222 0.49385 0.69021 0.0
C688 C 0.31904 0.5397 0.67939 0.0
C689 C 0.34911 0.47873 0.65779 0.0
C690 C 0.3067 0.52379 0.64713 0.0
N691 N 0.32186 0.49389 0.6371 0.0
C692 C 0.29251 0.45548 0.76502 0.0
C693 C 0.34322 0.41969 0.76845 0.0
C694 C 0.26659 0.42284 0.76403 0.0
N695 N 0.33003 0.4533 0.76791 0.0
C696 C 0.31838 0.38645 0.76712 0.0
C697 C 0.27946 0.38768 0.76522 0.0
H698 H 0.28266 0.48258 0.76369 0.0
H699 H 0.37308 0.41855 0.76992 0.0
C700 C 0.48441 0.54992 0.70342 0.0
N701 N 0.44708 0.5522 0.69801 0.0
C702 C 0.50864 0.55637 0.67424 0.0
C703 C 0.45608 0.56948 0.63453 0.0
C704 C 0.43281 0.56251 0.66444 0.0
C705 C 0.49455 0.56607 0.63909 0.0
H706 H 0.49542 0.54308 0.73053 0.0
H707 H 0.40337 0.56543 0.6607 0.0
O708 O 0.36433 0.52456 0.81719 0.0
O709 O 0.42806 0.57638 0.77857 0.0
O710 O 0.41869 0.49132 0.76735 0.0
O711 O 0.35919 0.53986 0.73283 0.0
H712 H 0.29862 0.55054 0.81012 0.0
H713 H 0.35554 0.4595 0.85742 0.0
H714 H 0.23946 0.51817 0.8364 0.0
H715 H 0.29527 0.42854 0.88248 0.0
H716 H 0.41589 0.67241 0.69235 0.0
H717 H 0.48551 0.62371 0.80046 0.0
H718 H 0.39507 0.60844 0.72048 0.0
H719 H 0.50477 0.68759 0.77085 0.0
H720 H 0.44277 0.50255 0.93878 0.0
H721 H 0.54174 0.52525 0.87419 0.0
H722 H 0.28321 0.66177 0.74685 0.0
H723 H 0.35166 0.67466 0.84508 0.0
H724 H 0.48039 0.47664 0.73782 0.0
H725 H 0.40846 0.4481 0.82876 0.0
H726 H 0.52211 0.43179 0.76525 0.0
H727 H 0.45125 0.40344 0.85459 0.0
H728 H 0.38391 0.48172 0.70651 0.0
H729 H 0.30693 0.56345 0.68739 0.0
H730 H 0.3606 0.45493 0.64908 0.0
H731 H 0.28504 0.53519 0.63009 0.0
H732 H 0.23683 0.42513 0.76192 0.0
H733 H 0.32955 0.35998 0.76813 0.0
H734 H 0.53822 0.55428 0.67926 0.0
H735 H 0.44391 0.57695 0.608 0.0
Li736 Li 0.80025 0.43757 0.50912 0.0
Li737 Li 0.76927 0.38138 0.54626 0.0
Li738 Li 0.75686 0.38781 0.47974 0.0
Li739 Li 0.73016 0.42714 0.52009 0.0
C740 C 0.82158 0.35687 0.49214 0.0
N741 N 0.85119 0.3015 0.46017 0.0
C742 C 0.81735 0.32004 0.50818 0.0
C743 C 0.84121 0.36561 0.46004 0.0
C744 C 0.83246 0.29243 0.49156 0.0
C745 C 0.85585 0.3372 0.44423 0.0
C746 C 0.78378 0.43493 0.59125 0.0
C747 C 0.76999 0.41871 0.65441 0.0
N748 N 0.80632 0.43097 0.66381 0.0
C749 C 0.82095 0.44747 0.60156 0.0
C750 C 0.75803 0.42057 0.61789 0.0
C751 C 0.83179 0.44523 0.63838 0.0
C752 C 0.84394 0.51054 0.50964 0.0
N753 N 0.84525 0.47327 0.5075 0.0
C754 C 0.91245 0.4836 0.50951 0.0
C755 C 0.8786 0.45955 0.5075 0.0
C756 C 0.91222 0.52232 0.51168 0.0
C757 C 0.87726 0.53569 0.51178 0.0
H758 H 0.81702 0.52066 0.51019 0.0
H759 H 0.87892 0.42972 0.50662 0.0
C760 C 0.749 0.32538 0.60395 0.0
N761 N 0.77813 0.34827 0.58826 0.0
C762 C 0.75449 0.30503 0.63728 0.0
C763 C 0.82017 0.33089 0.63691 0.0
C764 C 0.81346 0.35063 0.60351 0.0
C765 C 0.79029 0.30834 0.65448 0.0
H766 H 0.72127 0.32384 0.59118 0.0
H767 H 0.83611 0.36903 0.59038 0.0
C768 C 0.76282 0.45926 0.43917 0.0
N769 N 0.77486 0.49066 0.36908 0.0
C770 C 0.73352 0.47304 0.41832 0.0
C771 C 0.79831 0.46176 0.42452 0.0
C772 C 0.74015 0.48873 0.3829 0.0
C773 C 0.80382 0.47765 0.389 0.0
C774 C 0.68257 0.36538 0.51884 0.0
C775 C 0.66206 0.35972 0.48631 0.0
C776 C 0.66361 0.36602 0.55093 0.0
C777 C 0.62283 0.35488 0.48642 0.0
C778 C 0.62436 0.36117 0.54989 0.0
N779 N 0.60496 0.35575 0.51792 0.0
C780 C 0.74396 0.31951 0.44645 0.0
C781 C 0.74355 0.37136 0.40266 0.0
C782 C 0.73779 0.29446 0.41927 0.0
N783 N 0.74744 0.3573 0.4379 0.0
C784 C 0.73647 0.3472 0.37462 0.0
C785 C 0.73392 0.30816 0.38274 0.0
H786 H 0.74589 0.3087 0.47459 0.0
H787 H 0.74574 0.40123 0.39602 0.0
C788 C 0.6858 0.46783 0.56053 0.0
N789 N 0.68771 0.45266 0.52834 0.0
C790 C 0.65434 0.48438 0.56816 0.0
C791 C 0.62776 0.47059 0.50895 0.0
C792 C 0.65965 0.45415 0.50251 0.0
C793 C 0.62486 0.48611 0.5421 0.0
H794 H 0.70849 0.46673 0.58055 0.0
H795 H 0.66167 0.44184 0.47717 0.0
O796 O 0.80649 0.38417 0.50772 0.0
O797 O 0.77283 0.43608 0.55525 0.0
O798 O 0.75679 0.44389 0.47389 0.0
O799 O 0.72099 0.37081 0.51919 0.0
H800 H 0.80213 0.31268 0.53292 0.0
H801 H 0.84498 0.39395 0.44734 0.0
H802 H 0.82917 0.26377 0.50354 0.0
H803 H 0.87092 0.34353 0.41928 0.0
H804 H 0.75045 0.40734 0.67526 0.0
H805 H 0.84133 0.45853 0.58139 0.0
H806 H 0.72928 0.41026 0.61041 0.0
H807 H 0.8605 0.4547 0.64672 0.0
H808 H 0.93861 0.47182 0.50995 0.0
H809 H 0.87565 0.56528 0.51312 0.0
H810 H 0.73078 0.28782 0.65002 0.0
H811 H 0.84812 0.33409 0.64945 0.0
H812 H 0.70592 0.4715 0.42933 0.0
H813 H 0.82135 0.45159 0.44039 0.0
H814 H 0.7177 0.49936 0.36638 0.0
H815 H 0.83113 0.47967 0.37728 0.0
H816 H 0.67622 0.35939 0.46117 0.0
H817 H 0.67902 0.3708 0.57627 0.0
H818 H 0.6066 0.35059 0.46142 0.0
H819 H 0.60933 0.36187 0.57446 0.0
H820 H 0.73548 0.26456 0.42683 0.0
H821 H 0.73366 0.35896 0.3468 0.0
H822 H 0.65291 0.49538 0.59432 0.0
H823 H 0.60531 0.47067 0.48841 0.0
Li824 Li 0.6759 0.9711 0.80069 0.0
Li825 Li 0.63529 0.01142 0.82492 0.0
Li826 Li 0.62754 1.0023 0.75957 0.0
Li827 Li 0.68499 0.03886 0.786 0.0
C828 C 0.60462 0.92934 0.79011 0.0
N829 N 0.57671 0.86059 0.7654 0.0
C830 C 0.57722 0.9053 0.80941 0.0
C831 C 0.61785 0.91844 0.75822 0.0
C832 C 0.56346 0.87064 0.79648 0.0
C833 C 0.60336 0.88357 0.74617 0.0
C834 C 0.69762 0.99478 0.86779 0.0
C835 C 0.73762 0.98977 0.92165 0.0
N836 N 0.71301 0.96054 0.93561 0.0
C837 C 0.67271 0.96467 0.88265 0.0
C838 C 0.73035 1.00743 0.88738 0.0
C839 C 0.68101 0.94775 0.91698 0.0
C840 C 0.74242 0.93688 0.80829 0.0
N841 N 0.70466 0.92844 0.81212 0.0
C842 C 0.71272 0.865 0.83413 0.0
C843 C 0.68961 0.89331 0.82529 0.0
C844 C 0.75172 0.87273 0.8292 0.0
C845 C 0.76635 0.90946 0.8163 0.0
H846 H 0.75413 0.96522 0.79928 0.0
H847 H 0.6597 0.88716 0.82918 0.0
C848 C 0.56892 0.01764 0.86134 0.0
N849 N 0.60707 0.02295 0.86481 0.0
C850 C 0.54725 0.03325 0.88503 0.0
C851 C 0.60435 0.05802 0.91652 0.0
C852 C 0.62494 0.04193 0.89226 0.0
C853 C 0.56507 0.05465 0.91241 0.0
H854 H 0.55543 1.00318 0.83883 0.0
H855 H 0.65528 0.0468 0.89392 0.0
C856 C 0.70401 0.01767 0.72465 0.0
N857 N 0.74942 0.05868 0.67287 0.0
C858 C 0.69073 0.04673 0.70238 0.0
C859 C 0.74032 1.00934 0.72045 0.0
C860 C 0.71412 0.06717 0.6764 0.0
C861 C 0.76286 0.03043 0.69414 0.0
C862 C 0.62037 0.07936 0.79706 0.0
C863 C 0.58422 0.08809 0.78808 0.0
C864 C 0.64335 0.10045 0.82144 0.0
C865 C 0.57156 0.11765 0.80384 0.0
C866 C 0.62967 0.12982 0.83659 0.0
N867 N 0.59435 0.13771 0.82758 0.0
C868 C 0.55551 1.00686 0.72257 0.0
C869 C 0.6026 0.99405 0.68468 0.0
C870 C 0.5297 1.00822 0.69286 0.0
N871 N 0.59136 1.00019 0.71805 0.0
C872 C 0.57775 0.99505 0.65433 0.0
C873 C 0.54058 1.00225 0.65797 0.0
H874 H 0.54686 0.01118 0.74934 0.0
H875 H 0.63107 0.98865 0.68146 0.0
C876 C 0.75846 0.08119 0.78849 0.0
N877 N 0.72212 0.08211 0.77691 0.0
C878 C 0.78514 0.11318 0.78302 0.0
C879 C 0.73638 0.14638 0.75409 0.0
C880 C 0.71086 0.11377 0.75975 0.0
C881 C 0.77424 0.14653 0.76566 0.0
H882 H 0.76671 0.05561 0.80202 0.0
H883 H 0.68185 0.11382 0.75069 0.0
O884 O 0.61839 0.96322 0.80271 0.0
O885 O 0.6905 0.01159 0.83402 0.0
O886 O 0.68182 0.99816 0.75094 0.0
O887 O 0.63292 0.0498 0.78276 0.0
H888 H 0.56676 0.91335 0.83418 0.0
H889 H 0.63908 0.93655 0.7429 0.0
H890 H 0.54226 0.85173 0.81117 0.0
H891 H 0.61333 0.87476 0.72155 0.0
H892 H 0.76285 0.99927 0.93713 0.0
H893 H 0.64728 0.95439 0.86791 0.0
H894 H 0.74995 0.03063 0.87617 0.0
H895 H 0.66201 0.92442 0.9288 0.0
H896 H 0.70009 0.83716 0.84398 0.0
H897 H 0.79623 0.91709 0.81266 0.0
H898 H 0.51701 0.03014 0.88092 0.0
H899 H 0.61904 0.07455 0.93713 0.0
H900 H 0.66286 0.05387 0.7056 0.0
H901 H 0.75101 0.98683 0.73724 0.0
H902 H 0.70429 0.08991 0.65919 0.0
H903 H 0.79105 0.02434 0.69065 0.0
H904 H 0.56607 0.07216 0.76926 0.0
H905 H 0.6712 0.09374 0.82915 0.0
H906 H 0.54359 0.12462 0.79723 0.0
H907 H 0.64706 0.14616 0.85569 0.0
H908 H 0.50131 0.01318 0.69735 0.0
H909 H 0.58779 0.99054 0.62811 0.0
H910 H 0.81402 0.11163 0.79196 0.0
H911 H 0.72626 0.17138 0.7412 0.0
Li912 Li 0.05711 0.2844 0.88402 0.0
Li913 Li 0.01829 0.31252 0.93118 0.0
Li914 Li 0.02656 0.24443 0.9369 0.0
Li915 Li 0.98918 0.2688 0.88762 0.0
C916 C 0.0914 0.27557 0.96275 0.0
N917 N 0.13905 0.24419 0.01369 0.0
C918 C 0.09269 0.28506 0.99865 0.0
C919 C 0.11442 0.25026 0.95267 0.0
C920 C 0.11697 0.26887 0.02402 0.0
C921 C 0.13829 0.23466 0.97885 0.0
C922 C 0.9978 0.33623 0.84945 0.0
C923 C 0.94194 0.36295 0.82862 0.0
N924 N 0.95499 0.36811 0.79433 0.0
C925 C 1.01085 0.34215 0.81409 0.0
C926 C 0.96326 0.34704 0.8569 0.0
C927 C 0.98872 0.35819 0.78656 0.0
C928 C 0.09604 0.28453 0.81842 0.0
N929 N 0.10003 0.29392 0.85336 0.0
C930 C 0.16532 0.31605 0.84515 0.0
C931 C 0.1338 0.30956 0.86693 0.0
C932 C 0.16219 0.30624 0.80902 0.0
C933 C 0.12687 0.29029 0.79576 0.0
H934 H 0.0688 0.27279 0.80802 0.0
H935 H 0.13632 0.31689 0.89476 0.0
C936 C 1.01053 0.3506 0.99451 0.0
N937 N 0.01446 0.35536 0.95786 0.0
C938 C 1.00902 0.3816 0.01451 0.0
C939 C 0.01458 0.42168 0.95862 0.0
C940 C 0.01623 0.39 0.93974 0.0
C941 C 1.01103 0.41778 0.99653 0.0
H942 H 1.00904 0.32274 1.00829 0.0
H943 H 0.01942 0.39311 0.91063 0.0
C944 C 1.00796 0.20366 0.87013 0.0
N945 N 0.96623 0.14414 0.83846 0.0
C946 C 0.97827 0.18206 0.88854 0.0
C947 C 0.01668 0.19474 0.83576 0.0
C948 C 0.95744 0.15216 0.87204 0.0
C949 C 0.99519 0.16459 0.82017 0.0
C950 C 0.94654 0.26298 0.95485 0.0
C951 C 0.9313 0.22762 0.97008 0.0
C952 C 0.92629 0.29335 0.9551 0.0
C953 C 0.89563 0.22307 0.98466 0.0
C954 C 0.89071 0.28766 0.96996 0.0
N955 N 0.87622 0.25293 0.98426 0.0
C956 C 0.02524 0.20686 1.00779 0.0
C957 C 0.04175 0.1709 0.9619 0.0
C958 C 0.02835 0.17708 0.0342 0.0
N959 N 0.03192 0.20326 0.97245 0.0
C960 C 0.04464 0.14025 0.98728 0.0
C961 C 0.03794 0.14296 0.02413 0.0
H962 H 0.01756 0.23298 0.01546 0.0
H963 H 0.04709 0.16877 0.93367 0.0
C964 C 0.95292 0.25742 0.8194 0.0
N965 N 0.94573 0.25601 0.85536 0.0
C966 C 0.92421 0.24724 0.79399 0.0
C967 C 0.881 0.23294 0.84292 0.0
C968 C 0.91052 0.24388 0.86741 0.0
C969 C 0.88763 0.23472 0.80562 0.0
H970 H 0.98125 0.26593 0.81044 0.0
H971 H 0.90518 0.24213 0.89597 0.0
O972 O 0.06693 0.29007 0.93777 0.0
O973 O 0.01878 0.32001 0.87664 0.0
O974 O 0.02784 0.23379 0.88547 0.0
O975 O 0.98151 0.268 0.94067 0.0
H976 H 0.07494 0.3045 1.00689 0.0
H977 H 0.11344 0.24238 0.92502 0.0
H978 H 0.11818 0.27582 0.05196 0.0
H979 H 0.15611 0.21486 0.9715 0.0
H980 H 0.91502 0.37117 0.83395 0.0
H981 H 0.03766 0.33422 0.80793 0.0
H982 H 0.9529 0.34287 0.88413 0.0
H983 H 0.99835 0.36271 0.75902 0.0
H984 H 0.192 0.3281 0.85669 0.0
H985 H 0.12294 0.28282 0.76798 0.0
H986 H 1.00686 0.3774 0.04375 0.0
H987 H 0.01677 0.44911 0.94378 0.0
H988 H 0.97111 0.18865 0.91509 0.0
H989 H 0.03967 0.21095 0.82119 0.0
H990 H 0.9342 0.13542 0.88589 0.0
H991 H 1.00151 0.15749 0.7935 0.0
H992 H 0.94683 0.20392 0.97068 0.0
H993 H 0.93796 0.32106 0.94415 0.0
H994 H 0.88341 0.19583 0.99638 0.0
H995 H 0.87465 0.31089 0.97021 0.0
H996 H 0.02361 0.18099 0.06224 0.0
H997 H 0.05153 0.11452 0.97789 0.0
H998 H 0.93072 0.24853 0.76555 0.0
H999 H 0.85317 0.22361 0.85304 0.0
Li1000 Li 0.55713 0.78444 0.38395 0.0
Li1001 Li 0.51827 0.81252 0.43109 0.0
Li1002 Li 0.52656 0.74444 0.4368 0.0
Li1003 Li 0.4892 0.76881 0.38751 0.0
C1004 C 0.59142 0.77556 0.46262 0.0
N1005 N 0.63912 0.7441 0.51345 0.0
C1006 C 0.59277 0.785 0.49855 0.0
C1007 C 0.6144 0.75025 0.45247 0.0
C1008 C 0.61708 0.76877 0.52386 0.0
C1009 C 0.6383 0.73461 0.47859 0.0
C1010 C 0.49779 0.83623 0.34934 0.0
C1011 C 0.44192 0.86289 0.32846 0.0
N1012 N 0.455 0.86806 0.29418 0.0
C1013 C 0.51087 0.84215 0.31399 0.0
C1014 C 0.46324 0.847 0.35675 0.0
C1015 C 0.48875 0.85816 0.28644 0.0
C1016 C 0.59608 0.78458 0.31836 0.0
N1017 N 0.60005 0.79398 0.3533 0.0
C1018 C 0.66534 0.8161 0.34511 0.0
C1019 C 0.63381 0.80963 0.36688 0.0
C1020 C 0.66223 0.80628 0.30898 0.0
C1021 C 0.62691 0.79032 0.29572 0.0
H1022 H 0.56884 0.77283 0.30796 0.0
H1023 H 0.63632 0.81697 0.3947 0.0
C1024 C 0.51056 0.85055 0.49445 0.0
N1025 N 0.51437 0.85533 0.45779 0.0
C1026 C 0.50896 0.88152 0.51447 0.0
C1027 C 0.51426 0.92161 0.45859 0.0
C1028 C 0.51601 0.88997 0.43969 0.0
C1029 C 0.51053 0.91766 0.49648 0.0
H1030 H 0.50928 0.8227 0.50823 0.0
H1031 H 0.5192 0.89311 0.41058 0.0
C1032 C 0.50803 0.70368 0.37003 0.0
N1033 N 0.46635 0.64412 0.33835 0.0
C1034 C 0.47834 0.68206 0.38843 0.0
C1035 C 0.51677 0.69476 0.33566 0.0
C1036 C 0.45753 0.65215 0.37193 0.0
C1037 C 0.49531 0.66459 0.32007 0.0
C1038 C 0.44653 0.76297 0.45473 0.0
C1039 C 0.43129 0.72761 0.46997 0.0
C1040 C 0.42628 0.79335 0.45499 0.0
C1041 C 0.39562 0.72307 0.48456 0.0
C1042 C 0.3907 0.78766 0.46984 0.0
N1043 N 0.37622 0.75292 0.48416 0.0
C1044 C 0.52519 0.70688 0.50768 0.0
C1045 C 0.54178 0.67092 0.46183 0.0
C1046 C 0.52829 0.67712 0.53411 0.0
N1047 N 0.5319 0.70327 0.47236 0.0
C1048 C 0.54467 0.64028 0.48723 0.0
C1049 C 0.53793 0.643 0.52407 0.0
H1050 H 0.51748 0.733 0.51533 0.0
H1051 H 0.54715 0.66878 0.43361 0.0
C1052 C 0.45295 0.75741 0.31927 0.0
N1053 N 0.44575 0.75599 0.35524 0.0
C1054 C 0.42424 0.74721 0.29387 0.0
C1055 C 0.38103 0.7329 0.3428 0.0
C1056 C 0.41055 0.74385 0.36728 0.0
C1057 C 0.38766 0.73468 0.30549 0.0
H1058 H 0.48128 0.76593 0.31032 0.0
H1059 H 0.40521 0.74211 0.39585 0.0
O1060 O 0.56692 0.79009 0.4377 0.0
O1061 O 0.51878 0.82004 0.37655 0.0
O1062 O 0.52788 0.73382 0.38537 0.0
O1063 O 0.4815 0.76799 0.44054 0.0
H1064 H 0.57505 0.80444 0.50683 0.0
H1065 H 0.61337 0.7424 0.42481 0.0
H1066 H 0.61833 0.77569 0.55181 0.0
H1067 H 0.65609 0.71481 0.47119 0.0
H1068 H 0.41498 0.87108 0.33376 0.0
H1069 H 0.5377 0.83425 0.30786 0.0
H1070 H 0.45286 0.84283 0.38398 0.0
H1071 H 0.4984 0.86268 0.2589 0.0
H1072 H 0.69202 0.82816 0.35665 0.0
H1073 H 0.623 0.78285 0.26794 0.0
H1074 H 0.507 0.87731 0.54373 0.0
H1075 H 0.51643 0.94905 0.44378 0.0
H1076 H 0.47115 0.68866 0.41497 0.0
H1077 H 0.53976 0.71097 0.3211 0.0
H1078 H 0.4343 0.63539 0.38576 0.0
H1079 H 0.50165 0.65749 0.29341 0.0
H1080 H 0.44682 0.70391 0.47056 0.0
H1081 H 0.43795 0.82105 0.44402 0.0
H1082 H 0.3834 0.69583 0.49628 0.0
H1083 H 0.37465 0.81088 0.4701 0.0
H1084 H 0.52352 0.68103 0.56213 0.0
H1085 H 0.5516 0.61456 0.47786 0.0
H1086 H 0.43075 0.74849 0.26543 0.0
H1087 H 0.35321 0.72356 0.35292 0.0
Li1088 Li 0.03558 0.80252 0.63539 0.0
Li1089 Li 0.99083 0.77101 0.67936 0.0
Li1090 Li 0.05762 0.7635 0.6872 0.0
Li1091 Li 0.01846 0.73371 0.63821 0.0
C1092 C 0.02132 0.84252 0.69472 0.0
N1093 N 0.99444 0.90775 0.70878 0.0
C1094 C 0.99567 0.85811 0.67038 0.0
C1095 C 0.03329 0.86008 0.72621 0.0
C1096 C 0.98241 0.8911 0.67797 0.0
C1097 C 0.01938 0.89306 0.73282 0.0
C1098 C 0.95098 0.75689 0.61407 0.0
C1099 C 0.89767 0.70894 0.62268 0.0
N1100 N 0.88136 0.72279 0.59136 0.0
C1101 C 0.93373 0.77065 0.582 0.0
C1102 C 0.93286 0.72579 0.63462 0.0
C1103 C 0.8985 0.75303 0.57097 0.0
C1104 C 0.04299 0.84371 0.56674 0.0
N1105 N 0.05008 0.84635 0.6029 0.0
C1106 C 0.07902 0.90999 0.5917 0.0
C1107 C 0.06807 0.87854 0.61564 0.0
C1108 C 0.07194 0.90828 0.55409 0.0
C1109 C 0.0538 0.87435 0.54179 0.0
H1110 H 0.02917 0.81762 0.55726 0.0
H1111 H 0.07403 0.87988 0.64444 0.0
C1112 C 0.94325 0.76201 0.74025 0.0
N1113 N 0.94653 0.77664 0.70514 0.0
C1114 C 0.91149 0.76568 0.75962 0.0
C1115 C 0.88732 0.7999 0.70663 0.0
C1116 C 0.91943 0.79552 0.68827 0.0
C1117 C 0.88295 0.78467 0.74271 0.0
H1118 H 0.96523 0.74729 0.75315 0.0
H1119 H 0.92263 0.8071 0.66043 0.0
C1120 C 0.10462 0.77993 0.62622 0.0
N1121 N 0.17561 0.81421 0.60816 0.0
C1122 C 0.12355 0.7669 0.59874 0.0
C1123 C 0.12173 0.81045 0.64448 0.0
C1124 C 0.15946 0.78459 0.59003 0.0
C1125 C 0.15764 0.82739 0.63496 0.0
C1126 C 0.02527 0.69006 0.70383 0.0
C1127 C 0.05604 0.67897 0.68785 0.0
C1128 C 1.0071 0.66683 0.73174 0.0
C1129 C 0.06812 0.64474 0.70015 0.0
C1130 C 0.02003 0.6328 0.74326 0.0
N1131 N 0.05002 0.62255 0.72736 0.0
C1132 C 0.09496 0.77063 0.75645 0.0
C1133 C 0.13084 0.74753 0.71351 0.0
C1134 C 0.1246 0.77013 0.78243 0.0
N1135 N 0.09858 0.75958 0.72268 0.0
C1136 C 0.16136 0.74723 0.73834 0.0
C1137 C 0.15867 0.75851 0.77358 0.0
H1138 H 0.06897 0.77994 0.76322 0.0
H1139 H 0.1332 0.73861 0.68666 0.0
C1140 C 0.02283 0.69661 0.57407 0.0
N1141 N 1.00897 0.69146 0.60805 0.0
C1142 C 0.01637 0.66789 0.55046 0.0
C1143 C 0.9811 0.6289 0.59691 0.0
C1144 C 0.98826 0.65841 0.61968 0.0
C1145 C 0.9953 0.63326 0.56168 0.0
H1146 H 0.03875 0.72325 0.56517 0.0
H1147 H 0.97714 0.65488 0.64664 0.0
O1148 O 0.03445 0.81003 0.6881 0.0
O1149 O 0.98555 0.77381 0.62501 0.0
O1150 O 0.06927 0.7632 0.6347 0.0
O1151 O 0.0128 0.72343 0.69238 0.0
H1152 H 0.98608 0.84489 0.64588 0.0
H1153 H 0.05312 0.84833 0.74533 0.0
H1154 H 0.96254 0.90346 0.65938 0.0
H1155 H 0.0284 0.90696 0.75709 0.0
H1156 H 0.88333 0.68484 0.6383 0.0
H1157 H 0.94745 0.7947 0.56579 0.0
H1158 H 0.94574 0.71474 0.65954 0.0
H1159 H 0.8848 0.76338 0.54619 0.0
H1160 H 0.09244 0.93548 0.60271 0.0
H1161 H 0.04833 0.87125 0.5131 0.0
H1162 H 0.90899 0.75344 0.78738 0.0
H1163 H 0.86588 0.81462 0.69259 0.0
H1164 H 0.11062 0.74336 0.5843 0.0
H1165 H 0.10744 0.82094 0.66578 0.0
H1166 H 0.17447 0.77479 0.56883 0.0
H1167 H 0.17121 0.85102 0.64886 0.0
H1168 H 0.0704 0.69643 0.66613 0.0
H1169 H 0.98322 0.67504 0.74435 0.0
H1170 H 0.09188 0.6358 0.68802 0.0
H1171 H 1.00622 0.61453 0.76484 0.0
H1172 H 0.12057 0.7784 0.80926 0.0
H1173 H 0.18698 0.73867 0.72961 0.0
H1174 H 0.02743 0.67304 0.52345 0.0
H1175 H 0.96506 0.60274 0.60708 0.0
Li1176 Li 0.53532 0.30256 0.1353 0.0
Li1177 Li 0.49057 0.27103 0.17924 0.0
Li1178 Li 0.55738 0.26361 0.18713 0.0
Li1179 Li 0.51828 0.23375 0.13813 0.0
C1180 C 0.52094 0.34259 0.19455 0.0
N1181 N 0.49391 0.40779 0.20845 0.0
C1182 C 0.49529 0.3581 0.17015 0.0
C1183 C 0.53284 0.36021 0.22601 0.0
C1184 C 0.48195 0.39108 0.17766 0.0
C1185 C 0.51886 0.39318 0.23255 0.0
C1186 C 0.45079 0.25684 0.11394 0.0
C1187 C 0.39752 0.20883 0.12253 0.0
N1188 N 0.38123 0.22263 0.09118 0.0
C1189 C 0.43355 0.27054 0.08183 0.0
C1190 C 0.43267 0.22573 0.1345 0.0
C1191 C 0.39836 0.25286 0.07078 0.0
C1192 C 0.54275 0.34373 0.06662 0.0
N1193 N 0.54982 0.34639 0.10279 0.0
C1194 C 0.57877 0.41002 0.09158 0.0
C1195 C 0.56779 0.37858 0.11552 0.0
C1196 C 0.57172 0.40829 0.05397 0.0
C1197 C 0.55358 0.37436 0.04167 0.0
H1198 H 0.52894 0.31763 0.05715 0.0
H1199 H 0.57374 0.37994 0.14433 0.0
C1200 C 0.44298 0.262 0.24013 0.0
N1201 N 0.44624 0.27659 0.205 0.0
C1202 C 0.4112 0.26562 0.25948 0.0
C1203 C 0.38698 0.29976 0.20646 0.0
C1204 C 0.41912 0.29544 0.18812 0.0
C1205 C 0.38256 0.28443 0.24251 0.0
H1206 H 0.46501 0.24737 0.25305 0.0
H1207 H 0.42232 0.30703 0.16028 0.0
C1208 C 0.6044 0.28006 0.12615 0.0
N1209 N 0.67534 0.31444 0.10803 0.0
C1210 C 0.62332 0.26708 0.09863 0.0
C1211 C 0.6215 0.31058 0.14442 0.0
C1212 C 0.6592 0.28482 0.08989 0.0
C1213 C 0.65738 0.32756 0.13487 0.0
C1214 C 0.52511 0.19015 0.20378 0.0
C1215 C 0.55588 0.17906 0.18781 0.0
C1216 C 0.50697 0.16694 0.23173 0.0
C1217 C 0.56801 0.14486 0.20013 0.0
C1218 C 0.51994 0.13293 0.24328 0.0
N1219 N 0.54994 0.1227 0.22738 0.0
C1220 C 0.5947 0.27084 0.2564 0.0
C1221 C 0.63058 0.24767 0.21349 0.0
C1222 C 0.62434 0.27035 0.28239 0.0
N1223 N 0.59833 0.25975 0.22264 0.0
C1224 C 0.66109 0.24736 0.23834 0.0
C1225 C 0.65839 0.25867 0.27356 0.0
H1226 H 0.56873 0.28018 0.26314 0.0
H1227 H 0.63294 0.23873 0.18665 0.0
C1228 C 0.52273 0.19663 0.07401 0.0
N1229 N 0.50886 0.19149 0.10798 0.0
C1230 C 0.5163 0.16791 0.0504 0.0
C1231 C 0.48102 0.12891 0.09686 0.0
C1232 C 0.48816 0.15843 0.11961 0.0
C1233 C 0.49524 0.13327 0.06162 0.0
H1234 H 0.53864 0.22328 0.0651 0.0
H1235 H 0.47703 0.15491 0.14657 0.0
O1236 O 0.53414 0.31012 0.18799 0.0
O1237 O 0.48533 0.2738 0.12489 0.0
O1238 O 0.56907 0.2633 0.13466 0.0
O1239 O 0.5126 0.2235 0.1923 0.0
H1240 H 0.48575 0.34482 0.14566 0.0
H1241 H 0.55267 0.34853 0.24517 0.0
H1242 H 0.46208 0.40337 0.15903 0.0
H1243 H 0.52782 0.40713 0.2568 0.0
H1244 H 0.38319 0.18473 0.13816 0.0
H1245 H 0.44726 0.29459 0.06561 0.0
H1246 H 0.44555 0.21472 0.15944 0.0
H1247 H 0.38467 0.26317 0.04597 0.0
H1248 H 0.59218 0.43552 0.10258 0.0
H1249 H 0.54813 0.37125 0.01298 0.0
H1250 H 0.40874 0.25345 0.28727 0.0
H1251 H 0.36555 0.3145 0.19244 0.0
H1252 H 0.61039 0.24355 0.08418 0.0
H1253 H 0.60722 0.32103 0.16575 0.0
H1254 H 0.6742 0.27506 0.06866 0.0
H1255 H 0.67095 0.3512 0.14877 0.0
H1256 H 0.57022 0.19651 0.16606 0.0
H1257 H 0.48309 0.17514 0.24433 0.0
H1258 H 0.59177 0.13593 0.18801 0.0
H1259 H 0.50616 0.11468 0.26489 0.0
H1260 H 0.62031 0.27865 0.3092 0.0
H1261 H 0.6867 0.23876 0.22964 0.0
H1262 H 0.52736 0.17305 0.0234 0.0
H1263 H 0.46499 0.10276 0.10702 0.0
loop_
_geom_bond_atom_site_label_1
_geom_bond_atom_site_label_2
_geom_bond_distance
_geom_bond_site_symmetry_2
_ccdc_geom_bond_type
H0 C7 0.929 . S
H1 C10 0.930 1_565 S
H2 C12 0.929 1_556 S
H3 C4 0.969 . S
C4 H3 0.969 . S
C4 O5 1.550 1_565 S
C4 H6 0.973 . S
O5 C4 1.550 1_545 S
O5 C11 1.412 . S
H6 C4 0.973 . S
C7 H0 0.929 . S
C7 C8 1.400 1_655 S
C7 C9 1.364 . S
C8 C7 1.400 1_455 S
C8 C12 1.377 . S
C9 C7 1.364 . S
C9 C10 1.374 1_655 S
C10 H1 0.930 1_545 S
C10 C9 1.374 1_455 S
C10 C11 1.383 . S
C11 O5 1.412 . S
C11 C10 1.383 . S
C11 C12 1.394 . S
C12 H2 0.929 1_554 S
C12 C8 1.377 . S
C12 C11 1.394 . S
H13 C20 0.929 . S
H14 C23 0.930 . S
H15 C25 0.929 . S
H16 C17 0.969 . S
C17 H16 0.969 . S
C17 O18 1.550 . S
C17 H19 0.973 . S
O18 C17 1.550 . S
O18 C24 1.412 . S
H19 C17 0.973 . S
C20 H13 0.929 . S
C20 C21 1.400 . S
C20 C22 1.364 . S
C21 C20 1.400 . S
C21 C25 1.377 . S
C22 C20 1.364 . S
C22 C23 1.374 . S
C23 H14 0.930 . S
C23 C22 1.374 . S
C23 C24 1.383 . S
C24 O18 1.412 . S
C24 C23 1.383 . S
C24 C25 1.394 . S
C25 H15 0.929 . S
C25 C21 1.377 . S
C25 C24 1.394 . S
H26 C33 0.929 . S
H27 C36 0.930 . S
H28 C38 0.929 . S
H29 C30 0.969 1_556 S
C30 H29 0.969 1_554 S
C30 O31 1.550 . S
C30 H32 0.973 . S
O31 C30 1.550 . S
O31 C37 1.412 . S
H32 C30 0.973 . S
C33 H26 0.929 . S
C33 C34 1.400 1_655 S
C33 C35 1.364 . S
C34 C33 1.400 1_455 S
C34 C38 1.377 . S
C35 C33 1.364 . S
C35 C36 1.374 . S
C36 H27 0.930 . S
C36 C35 1.374 . S
C36 C37 1.383 . S
C37 O31 1.412 . S
C37 C36 1.383 . S
C37 C38 1.394 1_655 S
C38 H28 0.929 . S
C38 C34 1.377 . S
C38 C37 1.394 1_455 S
H39 C46 0.929 . S
H40 C49 0.930 . S
H41 C51 0.929 . S
H42 C43 0.969 . S
C43 H42 0.969 . S
C43 O44 1.550 . S
C43 H45 0.973 . S
O44 C43 1.550 . S
O44 C50 1.412 . S
H45 C43 0.973 . S
C46 H39 0.929 . S
C46 C47 1.400 . S
C46 C48 1.364 . S
C47 C46 1.400 . S
C47 C51 1.377 . S
C48 C46 1.364 . S
C48 C49 1.374 . S
C49 H40 0.930 . S
C49 C48 1.374 . S
C49 C50 1.383 . S
C50 O44 1.412 . S
C50 C49 1.383 . S
C50 C51 1.394 . S
C51 H41 0.929 . S
C51 C47 1.377 . S
C51 C50 1.394 . S
H52 C59 0.929 . S
H53 C62 0.930 . S
H54 C64 0.929 . S
H55 C56 0.969 . S
C56 H55 0.969 . S
C56 O57 1.550 1_655 S
C56 H58 0.973 . S
O57 C56 1.550 1_455 S
O57 C63 1.412 . S
H58 C56 0.973 . S
C59 H52 0.929 . S
C59 C60 1.402 1_565 S
C59 C61 1.364 . S
C60 C59 1.402 1_545 S
C60 C64 1.376 . S
C61 C59 1.364 . S
C61 C62 1.374 . S
C62 H53 0.930 . S
C62 C61 1.374 . S
C62 C63 1.383 . S
C63 O57 1.412 . S
C63 C62 1.383 . S
C63 C64 1.394 1_565 S
C64 H54 0.929 . S
C64 C60 1.376 . S
C64 C63 1.394 1_545 S
H65 C72 0.929 . S
H66 C75 0.930 . S
H67 C77 0.929 . S
H68 C69 0.969 . S
C69 H68 0.969 . S
C69 O70 1.550 . S
C69 H71 0.973 . S
O70 C69 1.550 . S
O70 C76 1.412 . S
H71 C69 0.973 . S
C72 H65 0.929 . S
C72 C73 1.400 . S
C72 C74 1.364 . S
C73 C72 1.400 . S
C73 C77 1.377 . S
C74 C72 1.364 . S
C74 C75 1.374 . S
C75 H66 0.930 . S
C75 C74 1.374 . S
C75 C76 1.383 . S
C76 O70 1.412 . S
C76 C75 1.383 . S
C76 C77 1.394 . S
C77 H67 0.929 . S
C77 C73 1.377 . S
C77 C76 1.394 . S
H78 C85 0.929 . S
H79 C88 0.930 . S
H80 C90 0.929 . S
H81 C82 0.969 . S
C82 H81 0.969 . S
C82 O83 1.550 . S
C82 H84 0.973 . S
O83 C82 1.550 . S
O83 C89 1.412 . S
H84 C82 0.973 . S
C85 H78 0.929 . S
C85 C86 1.400 . S
C85 C87 1.364 . S
C86 C85 1.400 . S
C86 C90 1.377 1_655 S
C87 C85 1.364 . S
C87 C88 1.374 . S
C88 H79 0.930 . S
C88 C87 1.374 . S
C88 C89 1.383 1_655 S
C89 O83 1.412 . S
C89 C88 1.383 1_455 S
C89 C90 1.394 . S
C90 H80 0.929 . S
C90 C86 1.377 1_455 S
C90 C89 1.394 . S
H91 C98 0.929 . S
H92 C101 0.930 . S
H93 C103 0.929 . S
H94 C95 0.969 . S
C95 H94 0.969 . S
C95 O96 1.550 . S
C95 H97 0.973 . S
O96 C95 1.550 . S
O96 C102 1.412 . S
H97 C95 0.973 . S
C98 H91 0.929 . S
C98 C99 1.400 . S
C98 C100 1.364 . S
C99 C98 1.400 . S
C99 C103 1.377 . S
C100 C98 1.364 . S
C100 C101 1.374 . S
C101 H92 0.930 . S
C101 C100 1.374 . S
C101 C102 1.383 . S
C102 O96 1.412 . S
C102 C101 1.383 . S
C102 C103 1.394 . S
C103 H93 0.929 . S
C103 C99 1.377 . S
C103 C102 1.394 . S
H104 C111 0.929 . S
H105 C114 0.930 . S
H106 C116 0.929 . S
H107 C108 0.969 . S
C108 H107 0.969 . S
C108 O109 1.550 . S
C108 H110 0.973 . S
O109 C108 1.550 . S
O109 C115 1.412 . S
H110 C108 0.973 . S
C111 H104 0.929 . S
C111 C112 1.400 . S
C111 C113 1.364 . S
C112 C111 1.400 . S
C112 C116 1.377 . S
C113 C111 1.364 . S
C113 C114 1.374 . S
C114 H105 0.930 . S
C114 C113 1.374 . S
C114 C115 1.383 . S
C115 O109 1.412 . S
C115 C114 1.383 . S
C115 C116 1.394 . S
C116 H106 0.929 . S
C116 C112 1.377 . S
C116 C115 1.394 . S
H117 C124 0.929 . S
H118 C127 0.930 . S
H119 C129 0.929 . S
H120 C121 0.969 . S
C121 H120 0.969 . S
C121 O122 1.550 . S
C121 H123 0.973 . S
O122 C121 1.550 . S
O122 C128 1.412 . S
H123 C121 0.973 . S
C124 H117 0.929 . S
C124 C125 1.400 1_545 S
C124 C126 1.364 1_545 S
C125 C124 1.400 1_565 S
C125 C129 1.377 . S
C126 C124 1.364 1_565 S
C126 C127 1.374 . S
C127 H118 0.930 . S
C127 C126 1.374 . S
C127 C128 1.383 . S
C128 O122 1.412 . S
C128 C127 1.383 . S
C128 C129 1.394 . S
C129 H119 0.929 . S
C129 C125 1.377 . S
C129 C128 1.394 . S
H130 C137 0.929 . S
H131 C140 0.930 . S
H132 C142 0.929 . S
H133 C134 0.969 . S
C134 H133 0.969 . S
C134 O135 1.550 . S
C134 H136 0.973 . S
O135 C134 1.550 . S
O135 C141 1.412 . S
H136 C134 0.973 . S
C137 H130 0.929 . S
C137 C138 1.400 . S
C137 C139 1.364 . S
C138 C137 1.400 . S
C138 C142 1.377 . S
C139 C137 1.364 . S
C139 C140 1.374 . S
C140 H131 0.930 . S
C140 C139 1.374 . S
C140 C141 1.383 . S
C141 O135 1.412 . S
C141 C140 1.383 . S
C141 C142 1.394 . S
C142 H132 0.929 . S
C142 C138 1.377 . S
C142 C141 1.394 . S
H143 C150 0.929 . S
H144 C153 0.930 . S
H145 C155 0.929 . S
H146 C147 0.969 . S
C147 H146 0.969 . S
C147 O148 1.550 . S
C147 H149 0.973 . S
O148 C147 1.550 . S
O148 C154 1.412 . S
H149 C147 0.973 . S
C150 H143 0.929 . S
C150 C151 1.400 . S
C150 C152 1.364 . S
C151 C150 1.400 . S
C151 C155 1.377 . S
C152 C150 1.364 . S
C152 C153 1.374 . S
C153 H144 0.930 . S
C153 C152 1.374 . S
C153 C154 1.383 . S
C154 O148 1.412 . S
C154 C153 1.383 . S
C154 C155 1.394 . S
C155 H145 0.929 . S
C155 C151 1.377 . S
C155 C154 1.394 . S
H156 C163 0.929 . S
H157 C166 0.930 . S
H158 C168 0.929 . S
H159 C160 0.969 . S
C160 H159 0.969 . S
C160 O161 1.550 . S
C160 H162 0.973 . S
O161 C160 1.550 . S
O161 C167 1.412 . S
H162 C160 0.973 . S
C163 H156 0.929 . S
C163 C164 1.400 . S
C163 C165 1.364 . S
C164 C163 1.400 . S
C164 C168 1.377 . S
C165 C163 1.364 . S
C165 C166 1.374 . S
C166 H157 0.930 . S
C166 C165 1.374 . S
C166 C167 1.383 . S
C167 O161 1.412 . S
C167 C166 1.383 . S
C167 C168 1.394 . S
C168 H158 0.929 . S
C168 C164 1.377 . S
C168 C167 1.394 . S
H169 C176 0.929 . S
H170 C179 0.930 . S
H171 C181 0.929 . S
H172 C173 0.969 . S
C173 H172 0.969 . S
C173 O174 1.550 . S
C173 H175 0.973 . S
O174 C173 1.550 . S
O174 C180 1.412 . S
H175 C173 0.973 . S
C176 H169 0.929 . S
C176 C177 1.400 . S
C176 C178 1.364 . S
C177 C176 1.400 . S
C177 C181 1.377 1_554 S
C178 C176 1.364 . S
C178 C179 1.374 1_554 S
C179 H170 0.930 . S
C179 C178 1.374 1_556 S
C179 C180 1.383 . S
C180 O174 1.412 . S
C180 C179 1.383 . S
C180 C181 1.394 . S
C181 H171 0.929 . S
C181 C177 1.377 1_556 S
C181 C180 1.394 . S
H182 C189 0.929 . S
H183 C192 0.930 . S
H184 C194 0.929 . S
H185 C186 0.969 . S
C186 H185 0.969 . S
C186 O187 1.550 . S
C186 H188 0.973 . S
O187 C186 1.550 . S
O187 C193 1.412 . S
H188 C186 0.973 . S
C189 H182 0.929 . S
C189 C190 1.400 . S
C189 C191 1.364 . S
C190 C189 1.400 . S
C190 C194 1.377 . S
C191 C189 1.364 . S
C191 C192 1.374 . S
C192 H183 0.930 . S
C192 C191 1.374 . S
C192 C193 1.383 . S
C193 O187 1.412 . S
C193 C192 1.383 . S
C193 C194 1.394 . S
C194 H184 0.929 . S
C194 C190 1.377 . S
C194 C193 1.394 . S
H195 C202 0.929 . S
H196 C205 0.930 . S
H197 C207 0.929 . S
H198 C199 0.969 . S
C199 H198 0.969 . S
C199 O200 1.550 . S
C199 H201 0.973 . S
O200 C199 1.550 . S
O200 C206 1.412 . S
H201 C199 0.973 . S
C202 H195 0.929 . S
C202 C203 1.400 . S
C202 C204 1.364 . S
C203 C202 1.400 . S
C203 C207 1.377 . S
C204 C202 1.364 . S
C204 C205 1.374 1_554 S
C205 H196 0.930 . S
C205 C204 1.374 1_556 S
C205 C206 1.383 . S
C206 O200 1.412 . S
C206 C205 1.383 . S
C206 C207 1.394 1_556 S
C207 H197 0.929 . S
C207 C203 1.377 . S
C207 C206 1.394 1_554 S
Li208 N225 1.990 . S
Li208 O268 1.956 . S
Li208 O269 1.970 1_556 S
Li208 O270 1.961 . S
Li209 N233 1.990 . S
Li209 O268 1.966 1_554 S
Li209 O269 1.956 . S
Li209 O271 1.961 . S
Li210 N255 1.990 . S
Li210 O268 1.965 . S
Li210 O270 1.956 . S
Li210 O271 1.970 1_556 S
Li211 N261 1.990 . S
Li211 O269 1.961 . S
Li211 O270 1.970 1_554 S
Li211 O271 1.956 . S
C212 C214 1.348 1_556 S
C212 C215 1.356 . S
C212 O268 1.326 . S
N213 C216 1.314 1_556 S
N213 C217 1.279 . S
C214 C212 1.348 1_554 S
C214 C216 1.353 . S
C214 H272 0.929 . S
C215 C212 1.356 . S
C215 C217 1.358 . S
C215 H273 0.930 . S
C216 N213 1.314 1_554 S
C216 C214 1.353 . S
C216 H274 0.930 . S
C217 N213 1.279 . S
C217 C215 1.358 . S
C217 H275 0.930 . S
C218 C221 1.348 . S
C218 C222 1.356 . S
C218 O269 1.325 . S
C219 N220 1.279 . S
C219 C222 1.358 . S
C219 H276 0.930 . S
N220 C219 1.279 . S
N220 C223 1.314 . S
C221 C218 1.348 . S
C221 C223 1.353 . S
C221 H277 0.929 . S
C222 C218 1.356 . S
C222 C219 1.358 . S
C222 H278 0.930 . S
C223 N220 1.314 . S
C223 C221 1.353 . S
C223 H279 0.930 . S
C224 N225 1.332 . S
C224 C229 1.342 1_565 S
C224 H230 0.922 1_565 S
N225 Li208 1.990 . S
N225 C224 1.332 . S
N225 C227 1.279 . S
C226 C227 1.358 . S
C226 C228 1.356 1_565 S
C226 H280 0.929 1_556 S
C227 N225 1.279 . S
C227 C226 1.358 . S
C227 H231 0.930 1_556 S
C228 C226 1.356 1_545 S
C228 C229 1.348 . S
C229 C224 1.342 1_545 S
C229 C228 1.348 . S
C229 H281 0.929 . S
H230 C224 0.922 1_545 S
H231 C227 0.930 1_554 S
C232 N233 1.314 . S
C232 C234 1.353 . S
C232 H238 0.930 . S
N233 Li209 1.990 . S
N233 C232 1.314 . S
N233 C236 1.279 . S
C234 C232 1.353 . S
C234 C237 1.348 . S
C234 H282 0.929 . S
C235 C236 1.358 . S
C235 C237 1.356 . S
C235 H283 0.930 . S
C236 N233 1.279 . S
C236 C235 1.358 . S
C236 H239 0.930 . S
C237 C234 1.348 . S
C237 C235 1.356 . S
H238 C232 0.930 . S
H239 C236 0.930 . S
C240 C242 1.348 . S
C240 C243 1.356 . S
C240 O270 1.325 . S
N241 C244 1.314 1_545 S
N241 C245 1.277 1_545 S
C242 C240 1.348 . S
C242 C244 1.353 . S
C242 H284 0.929 . S
C243 C240 1.356 . S
C243 C245 1.358 . S
C243 H285 0.930 . S
C244 N241 1.314 1_565 S
C244 C242 1.353 . S
C244 H286 0.928 1_565 S
C245 N241 1.277 1_565 S
C245 C243 1.358 . S
C245 H287 0.930 . S
C246 C247 1.348 1_554 S
C246 C248 1.356 . S
C246 O271 1.325 . S
C247 C246 1.348 1_556 S
C247 C249 1.353 . S
C247 H288 0.929 . S
C248 C246 1.356 . S
C248 C250 1.358 . S
C248 H289 0.930 . S
C249 C247 1.353 . S
C249 N251 1.314 1_556 S
C249 H290 0.930 . S
C250 C248 1.358 . S
C250 N251 1.279 . S
C250 H291 0.930 . S
N251 C249 1.314 1_554 S
N251 C250 1.279 . S
C252 C254 1.353 . S
C252 N255 1.314 . S
C252 H258 0.930 . S
C253 N255 1.279 . S
C253 C256 1.358 . S
C253 H259 0.930 . S
C254 C252 1.353 . S
C254 C257 1.348 . S
C254 H292 0.929 . S
N255 Li210 1.990 . S
N255 C252 1.314 . S
N255 C253 1.279 . S
C256 C253 1.358 . S
C256 C257 1.356 . S
C256 H293 0.930 . S
C257 C254 1.348 . S
C257 C256 1.356 . S
H258 C252 0.930 . S
H259 C253 0.930 . S
C260 N261 1.314 . S
C260 C262 1.354 . S
C260 H266 0.930 . S
N261 Li211 1.990 . S
N261 C260 1.314 . S
N261 C264 1.279 . S
C262 C260 1.354 . S
C262 C265 1.348 . S
C262 H294 0.927 1_565 S
C263 C264 1.358 . S
C263 C265 1.356 . S
C263 H295 0.930 . S
C264 N261 1.279 . S
C264 C263 1.358 . S
C264 H267 0.923 1_554 S
C265 C262 1.348 . S
C265 C263 1.356 . S
H266 C260 0.930 . S
H267 C264 0.923 1_556 S
O268 Li208 1.956 . S
O268 Li209 1.966 1_556 S
O268 Li210 1.965 . S
O268 C212 1.326 . S
O269 Li208 1.970 1_554 S
O269 Li209 1.956 . S
O269 Li211 1.961 . S
O269 C218 1.325 . S
O270 Li208 1.961 . S
O270 Li210 1.956 . S
O270 Li211 1.970 1_556 S
O270 C240 1.325 . S
O271 Li209 1.961 . S
O271 Li210 1.970 1_554 S
O271 Li211 1.956 . S
O271 C246 1.325 . S
H272 C214 0.929 . S
H273 C215 0.930 . S
H274 C216 0.930 . S
H275 C217 0.930 . S
H276 C219 0.930 . S
H277 C221 0.929 . S
H278 C222 0.930 . S
H279 C223 0.930 . S
H280 C226 0.929 1_554 S
H281 C229 0.929 . S
H282 C234 0.929 . S
H283 C235 0.930 . S
H284 C242 0.929 . S
H285 C243 0.930 . S
H286 C244 0.928 1_545 S
H287 C245 0.930 . S
H288 C247 0.929 . S
H289 C248 0.930 . S
H290 C249 0.930 . S
H291 C250 0.930 . S
H292 C254 0.929 . S
H293 C256 0.930 . S
H294 C262 0.927 1_545 S
H295 C263 0.930 . S
Li296 N313 1.990 . S
Li296 O356 1.956 . S
Li296 O357 1.970 . S
Li296 O358 1.961 . S
Li297 N321 1.990 . S
Li297 O356 1.970 . S
Li297 O357 1.956 . S
Li297 O359 1.961 . S
Li298 N343 1.990 . S
Li298 O356 1.961 . S
Li298 O358 1.956 . S
Li298 O359 1.970 . S
Li299 N349 1.990 . S
Li299 O357 1.961 . S
Li299 O358 1.970 . S
Li299 O359 1.956 . S
C300 C302 1.348 . S
C300 C303 1.356 . S
C300 O356 1.325 . S
N301 C304 1.314 . S
N301 C305 1.279 . S
C302 C300 1.348 . S
C302 C304 1.353 . S
C302 H360 0.929 . S
C303 C300 1.356 . S
C303 C305 1.358 . S
C303 H361 0.930 . S
C304 N301 1.314 . S
C304 C302 1.353 . S
C304 H362 0.930 . S
C305 N301 1.279 . S
C305 C303 1.358 . S
C305 H363 0.930 . S
C306 C309 1.348 . S
C306 C310 1.356 . S
C306 O357 1.325 . S
C307 N308 1.279 . S
C307 C310 1.358 . S
C307 H364 0.930 . S
N308 C307 1.279 . S
N308 C311 1.314 . S
C309 C306 1.348 . S
C309 C311 1.353 . S
C309 H365 0.929 . S
C310 C306 1.356 . S
C310 C307 1.358 . S
C310 H366 0.930 . S
C311 N308 1.314 . S
C311 C309 1.353 . S
C311 H367 0.930 . S
C312 N313 1.314 . S
C312 C317 1.353 . S
C312 H318 0.930 . S
N313 Li296 1.990 . S
N313 C312 1.314 . S
N313 C315 1.279 . S
C314 C315 1.358 . S
C314 C316 1.356 . S
C314 H368 0.930 . S
C315 N313 1.279 . S
C315 C314 1.358 . S
C315 H319 0.930 . S
C316 C314 1.356 . S
C316 C317 1.348 . S
C317 C312 1.353 . S
C317 C316 1.348 . S
C317 H369 0.929 . S
H318 C312 0.930 . S
H319 C315 0.930 . S
C320 N321 1.314 . S
C320 C322 1.353 . S
C320 H326 0.930 . S
N321 Li297 1.990 . S
N321 C320 1.314 . S
N321 C324 1.279 . S
C322 C320 1.353 . S
C322 C325 1.348 . S
C322 H370 0.929 . S
C323 C324 1.358 . S
C323 C325 1.356 . S
C323 H371 0.930 . S
C324 N321 1.279 . S
C324 C323 1.358 . S
C324 H327 0.930 . S
C325 C322 1.348 . S
C325 C323 1.356 . S
H326 C320 0.930 . S
H327 C324 0.930 . S
C328 C330 1.348 . S
C328 C331 1.356 . S
C328 O358 1.325 . S
N329 C332 1.314 . S
N329 C333 1.279 . S
C330 C328 1.348 . S
C330 C332 1.353 . S
C330 H372 0.929 . S
C331 C328 1.356 . S
C331 C333 1.358 . S
C331 H373 0.930 . S
C332 N329 1.314 . S
C332 C330 1.353 . S
C332 H374 0.930 . S
C333 N329 1.279 . S
C333 C331 1.358 . S
C333 H375 0.930 . S
C334 C335 1.348 . S
C334 C336 1.356 . S
C334 O359 1.325 . S
C335 C334 1.348 . S
C335 C337 1.353 . S
C335 H376 0.929 . S
C336 C334 1.356 . S
C336 C338 1.358 . S
C336 H377 0.930 . S
C337 C335 1.353 . S
C337 N339 1.314 . S
C337 H378 0.930 . S
C338 C336 1.358 . S
C338 N339 1.279 . S
C338 H379 0.930 . S
N339 C337 1.314 . S
N339 C338 1.279 . S
C340 C342 1.353 . S
C340 N343 1.314 . S
C340 H346 0.930 . S
C341 N343 1.279 . S
C341 C344 1.358 . S
C341 H347 0.930 . S
C342 C340 1.353 . S
C342 C345 1.348 . S
C342 H380 0.929 . S
N343 Li298 1.990 . S
N343 C340 1.314 . S
N343 C341 1.279 . S
C344 C341 1.358 . S
C344 C345 1.356 . S
C344 H381 0.930 . S
C345 C342 1.348 . S
C345 C344 1.356 . S
H346 C340 0.930 . S
H347 C341 0.930 . S
C348 N349 1.314 . S
C348 C350 1.353 . S
C348 H354 0.930 . S
N349 Li299 1.990 . S
N349 C348 1.314 . S
N349 C352 1.279 . S
C350 C348 1.353 . S
C350 C353 1.348 . S
C350 H382 0.929 . S
C351 C352 1.358 . S
C351 C353 1.356 . S
C351 H383 0.930 . S
C352 N349 1.279 . S
C352 C351 1.358 . S
C352 H355 0.930 . S
C353 C350 1.348 . S
C353 C351 1.356 . S
H354 C348 0.930 . S
H355 C352 0.930 . S
O356 Li296 1.956 . S
O356 Li297 1.970 . S
O356 Li298 1.961 . S
O356 C300 1.325 . S
O357 Li296 1.970 . S
O357 Li297 1.956 . S
O357 Li299 1.961 . S
O357 C306 1.325 . S
O358 Li296 1.961 . S
O358 Li298 1.956 . S
O358 Li299 1.970 . S
O358 C328 1.325 . S
O359 Li297 1.961 . S
O359 Li298 1.970 . S
O359 Li299 1.956 . S
O359 C334 1.325 . S
H360 C302 0.929 . S
H361 C303 0.930 . S
H362 C304 0.930 . S
H363 C305 0.930 . S
H364 C307 0.930 . S
H365 C309 0.929 . S
H366 C310 0.930 . S
H367 C311 0.930 . S
H368 C314 0.930 . S
H369 C317 0.929 . S
H370 C322 0.929 . S
H371 C323 0.930 . S
H372 C330 0.929 . S
H373 C331 0.930 . S
H374 C332 0.930 . S
H375 C333 0.930 . S
H376 C335 0.929 . S
H377 C336 0.930 . S
H378 C337 0.930 . S
H379 C338 0.930 . S
H380 C342 0.929 . S
H381 C344 0.930 . S
H382 C350 0.929 . S
H383 C351 0.930 . S
Li384 N401 1.990 . S
Li384 O444 1.956 . S
Li384 O445 1.970 . S
Li384 O446 1.961 . S
Li385 N409 1.990 . S
Li385 O444 1.970 . S
Li385 O445 1.956 . S
Li385 O447 1.961 . S
Li386 N431 1.990 1_554 S
Li386 O444 1.961 . S
Li386 O446 1.956 . S
Li386 O447 1.970 . S
Li387 N437 1.990 . S
Li387 O445 1.961 . S
Li387 O446 1.970 . S
Li387 O447 1.956 . S
C388 C390 1.348 . S
C388 C391 1.356 1_554 S
C388 O444 1.325 . S
N389 C392 1.314 . S
N389 C393 1.279 1_554 S
C390 C388 1.348 . S
C390 C392 1.353 . S
C390 H448 0.929 . S
C391 C388 1.356 1_556 S
C391 C393 1.358 . S
C391 H449 0.930 . S
C392 N389 1.314 . S
C392 C390 1.353 . S
C392 H450 0.930 . S
C393 N389 1.279 1_556 S
C393 C391 1.358 . S
C393 H451 0.930 . S
C394 C397 1.348 . S
C394 C398 1.356 . S
C394 O445 1.325 . S
C395 N396 1.279 . S
C395 C398 1.358 . S
C395 H452 0.930 . S
N396 C395 1.279 . S
N396 C399 1.314 . S
C397 C394 1.348 . S
C397 C399 1.353 . S
C397 H453 0.929 . S
C398 C394 1.356 . S
C398 C395 1.358 . S
C398 H454 0.930 . S
C399 N396 1.314 . S
C399 C397 1.353 . S
C399 H455 0.930 . S
C400 N401 1.314 . S
C400 C405 1.353 . S
C400 H406 0.930 . S
N401 Li384 1.990 . S
N401 C400 1.314 . S
N401 C403 1.279 . S
C402 C403 1.358 . S
C402 C404 1.356 . S
C402 H456 0.930 . S
C403 N401 1.279 . S
C403 C402 1.358 . S
C403 H407 0.930 . S
C404 C402 1.356 . S
C404 C405 1.348 . S
C405 C400 1.353 . S
C405 C404 1.348 . S
C405 H457 0.929 . S
H406 C400 0.930 . S
H407 C403 0.930 . S
C408 N409 1.314 . S
C408 C410 1.353 . S
C408 H414 0.930 . S
N409 Li385 1.990 . S
N409 C408 1.314 . S
N409 C412 1.279 . S
C410 C408 1.353 . S
C410 C413 1.348 . S
C410 H458 0.929 . S
C411 C412 1.358 . S
C411 C413 1.356 . S
C411 H459 0.930 . S
C412 N409 1.279 . S
C412 C411 1.358 . S
C412 H415 0.930 . S
C413 C410 1.348 . S
C413 C411 1.356 . S
H414 C408 0.930 . S
H415 C412 0.930 . S
C416 C418 1.348 . S
C416 C419 1.356 . S
C416 O446 1.325 1_556 S
N417 C420 1.314 . S
N417 C421 1.279 . S
C418 C416 1.348 . S
C418 C420 1.353 . S
C418 H460 0.929 . S
C419 C416 1.356 . S
C419 C421 1.358 . S
C419 H461 0.930 . S
C420 N417 1.314 . S
C420 C418 1.353 . S
C420 H462 0.930 . S
C421 N417 1.279 . S
C421 C419 1.358 . S
C421 H463 0.930 . S
C422 C423 1.348 . S
C422 C424 1.356 . S
C422 O447 1.325 . S
C423 C422 1.348 . S
C423 C425 1.353 . S
C423 H464 0.929 . S
C424 C422 1.356 . S
C424 C426 1.358 . S
C424 H465 0.930 . S
C425 C423 1.353 . S
C425 N427 1.314 . S
C425 H466 0.930 . S
C426 C424 1.358 . S
C426 N427 1.279 . S
C426 H467 0.930 . S
N427 C425 1.314 . S
N427 C426 1.279 . S
C428 C430 1.353 . S
C428 N431 1.314 . S
C428 H434 0.930 . S
C429 N431 1.279 . S
C429 C432 1.358 . S
C429 H435 0.930 . S
C430 C428 1.353 . S
C430 C433 1.348 . S
C430 H468 0.929 . S
N431 Li386 1.990 1_556 S
N431 C428 1.314 . S
N431 C429 1.279 . S
C432 C429 1.358 . S
C432 C433 1.356 . S
C432 H469 0.930 . S
C433 C430 1.348 . S
C433 C432 1.356 . S
H434 C428 0.930 . S
H435 C429 0.930 . S
C436 N437 1.314 . S
C436 C438 1.353 . S
C436 H442 0.930 . S
N437 Li387 1.990 . S
N437 C436 1.314 . S
N437 C440 1.279 . S
C438 C436 1.353 . S
C438 C441 1.348 . S
C438 H470 0.929 . S
C439 C440 1.358 . S
C439 C441 1.356 . S
C439 H471 0.930 . S
C440 N437 1.279 . S
C440 C439 1.358 . S
C440 H443 0.930 . S
C441 C438 1.348 . S
C441 C439 1.356 . S
H442 C436 0.930 . S
H443 C440 0.930 . S
O444 Li384 1.956 . S
O444 Li385 1.970 . S
O444 Li386 1.961 . S
O444 C388 1.325 . S
O445 Li384 1.970 . S
O445 Li385 1.956 . S
O445 Li387 1.961 . S
O445 C394 1.325 . S
O446 Li384 1.961 . S
O446 Li386 1.956 . S
O446 Li387 1.970 . S
O446 C416 1.325 1_554 S
O447 Li385 1.961 . S
O447 Li386 1.970 . S
O447 Li387 1.956 . S
O447 C422 1.325 . S
H448 C390 0.929 . S
H449 C391 0.930 . S
H450 C392 0.930 . S
H451 C393 0.930 . S
H452 C395 0.930 . S
H453 C397 0.929 . S
H454 C398 0.930 . S
H455 C399 0.930 . S
H456 C402 0.930 . S
H457 C405 0.929 . S
H458 C410 0.929 . S
H459 C411 0.930 . S
H460 C418 0.929 . S
H461 C419 0.930 . S
H462 C420 0.930 . S
H463 C421 0.930 . S
H464 C423 0.929 . S
H465 C424 0.930 . S
H466 C425 0.930 . S
H467 C426 0.930 . S
H468 C430 0.929 . S
H469 C432 0.930 . S
H470 C438 0.929 . S
H471 C439 0.930 . S
Li472 N489 1.990 . S
Li472 O532 1.956 . S
Li472 O533 1.970 . S
Li472 O534 1.961 . S
Li473 N497 1.990 . S
Li473 O532 1.970 . S
Li473 O533 1.956 . S
Li473 O535 1.961 1_545 S
Li474 N519 1.990 . S
Li474 O532 1.961 . S
Li474 O534 1.956 . S
Li474 O535 1.970 1_545 S
Li475 N525 1.990 . S
Li475 O533 1.961 1_565 S
Li475 O534 1.970 1_565 S
Li475 O535 1.956 . S
C476 C478 1.348 . S
C476 C479 1.356 . S
C476 O532 1.325 . S
N477 C480 1.314 . S
N477 C481 1.279 . S
C478 C476 1.348 . S
C478 C480 1.353 . S
C478 H536 0.929 . S
C479 C476 1.356 . S
C479 C481 1.358 . S
C479 H537 0.930 . S
C480 N477 1.314 . S
C480 C478 1.353 . S
C480 H538 0.930 . S
C481 N477 1.279 . S
C481 C479 1.358 . S
C481 H539 0.930 . S
C482 C485 1.348 . S
C482 C486 1.356 1_545 S
C482 O533 1.325 . S
C483 N484 1.279 . S
C483 C486 1.358 . S
C483 H540 0.930 . S
N484 C483 1.279 . S
N484 C487 1.314 1_565 S
C485 C482 1.348 . S
C485 C487 1.353 . S
C485 H541 0.929 . S
C486 C482 1.356 1_565 S
C486 C483 1.358 . S
C486 H542 0.930 . S
C487 N484 1.314 1_545 S
C487 C485 1.353 . S
C487 H543 0.930 . S
C488 N489 1.314 . S
C488 C493 1.353 . S
C488 H494 0.930 . S
N489 Li472 1.990 . S
N489 C488 1.314 . S
N489 C491 1.279 . S
C490 C491 1.358 . S
C490 C492 1.356 . S
C490 H544 0.930 . S
C491 N489 1.279 . S
C491 C490 1.358 . S
C491 H495 0.930 . S
C492 C490 1.356 . S
C492 C493 1.348 . S
C493 C488 1.353 . S
C493 C492 1.348 . S
C493 H545 0.929 . S
H494 C488 0.930 . S
H495 C491 0.930 . S
C496 N497 1.315 1_565 S
C496 C498 1.353 . S
C496 H502 0.929 . S
N497 Li473 1.990 . S
N497 C496 1.315 1_545 S
N497 C500 1.279 . S
C498 C496 1.353 . S
C498 C501 1.348 1_565 S
C498 H546 0.929 1_655 S
C499 C500 1.358 . S
C499 C501 1.356 . S
C499 H547 0.930 . S
C500 N497 1.279 . S
C500 C499 1.358 . S
C500 H503 0.930 . S
C501 C498 1.348 1_545 S
C501 C499 1.356 . S
H502 C496 0.929 . S
H503 C500 0.930 . S
C504 C506 1.334 1_545 S
C504 C507 1.356 . S
C504 O534 1.325 . S
N505 C508 1.314 . S
N505 C509 1.279 . S
C506 C504 1.334 1_565 S
C506 C508 1.350 1_565 S
C506 H548 0.947 . S
C507 C504 1.356 . S
C507 C509 1.358 . S
C507 H549 0.930 . S
C508 N505 1.314 . S
C508 C506 1.350 1_545 S
C508 H550 0.930 1_545 S
C509 N505 1.279 . S
C509 C507 1.358 . S
C509 H551 0.930 . S
C510 C511 1.348 . S
C510 C512 1.356 . S
C510 O535 1.325 . S
C511 C510 1.348 . S
C511 C513 1.353 . S
C511 H552 0.929 . S
C512 C510 1.356 . S
C512 C514 1.358 . S
C512 H553 0.930 . S
C513 C511 1.353 . S
C513 N515 1.314 . S
C513 H554 0.930 . S
C514 C512 1.358 . S
C514 N515 1.279 . S
C514 H555 0.930 . S
N515 C513 1.314 . S
N515 C514 1.279 . S
C516 C518 1.353 . S
C516 N519 1.314 . S
C516 H522 0.930 . S
C517 N519 1.279 . S
C517 C520 1.358 . S
C517 H523 0.930 . S
C518 C516 1.353 . S
C518 C521 1.348 . S
C518 H556 0.929 1_655 S
N519 Li474 1.990 . S
N519 C516 1.314 . S
N519 C517 1.279 . S
C520 C517 1.358 . S
C520 C521 1.356 . S
C520 H557 0.930 . S
C521 C518 1.348 . S
C521 C520 1.356 . S
H522 C516 0.930 . S
H523 C517 0.930 . S
C524 N525 1.314 . S
C524 C526 1.353 . S
C524 H530 0.930 . S
N525 Li475 1.990 . S
N525 C524 1.314 . S
N525 C528 1.279 . S
C526 C524 1.353 . S
C526 C529 1.348 . S
C526 H558 0.929 . S
C527 C528 1.358 . S
C527 C529 1.356 . S
C527 H559 0.930 . S
C528 N525 1.279 . S
C528 C527 1.358 . S
C528 H531 0.930 . S
C529 C526 1.348 . S
C529 C527 1.356 . S
H530 C524 0.930 . S
H531 C528 0.930 . S
O532 Li472 1.956 . S
O532 Li473 1.970 . S
O532 Li474 1.961 . S
O532 C476 1.325 . S
O533 Li472 1.970 . S
O533 Li473 1.956 . S
O533 Li475 1.961 1_545 S
O533 C482 1.325 . S
O534 Li472 1.961 . S
O534 Li474 1.956 . S
O534 Li475 1.970 1_545 S
O534 C504 1.325 . S
O535 Li473 1.961 1_565 S
O535 Li474 1.970 1_565 S
O535 Li475 1.956 . S
O535 C510 1.325 . S
H536 C478 0.929 . S
H537 C479 0.930 . S
H538 C480 0.930 . S
H539 C481 0.930 . S
H540 C483 0.930 . S
H541 C485 0.929 . S
H542 C486 0.930 . S
H543 C487 0.930 . S
H544 C490 0.930 . S
H545 C493 0.929 . S
H546 C498 0.929 1_455 S
H547 C499 0.930 . S
H548 C506 0.947 . S
H549 C507 0.930 . S
H550 C508 0.930 1_565 S
H551 C509 0.930 . S
H552 C511 0.929 . S
H553 C512 0.930 . S
H554 C513 0.930 . S
H555 C514 0.930 . S
H556 C518 0.929 1_455 S
H557 C520 0.930 . S
H558 C526 0.929 . S
H559 C527 0.930 . S
Li560 N577 1.990 . S
Li560 O620 1.956 . S
Li560 O621 1.970 . S
Li560 O622 1.961 . S
Li561 N585 1.990 . S
Li561 O620 1.970 . S
Li561 O621 1.956 . S
Li561 O623 1.961 . S
Li562 N607 1.990 . S
Li562 O620 1.961 . S
Li562 O622 1.956 . S
Li562 O623 1.970 . S
Li563 N613 1.990 . S
Li563 O621 1.961 . S
Li563 O622 1.970 . S
Li563 O623 1.956 . S
C564 C566 1.348 . S
C564 C567 1.356 . S
C564 O620 1.325 . S
N565 C568 1.314 . S
N565 C569 1.279 . S
C566 C564 1.348 . S
C566 C568 1.353 . S
C566 H624 0.929 . S
C567 C564 1.356 . S
C567 C569 1.358 . S
C567 H625 0.930 . S
C568 N565 1.314 . S
C568 C566 1.353 . S
C568 H626 0.930 . S
C569 N565 1.279 . S
C569 C567 1.358 . S
C569 H627 0.930 . S
C570 C573 1.348 . S
C570 C574 1.356 . S
C570 O621 1.325 . S
C571 N572 1.279 . S
C571 C574 1.358 . S
C571 H628 0.930 . S
N572 C571 1.279 . S
N572 C575 1.314 . S
C573 C570 1.348 . S
C573 C575 1.353 . S
C573 H629 0.929 . S
C574 C570 1.356 . S
C574 C571 1.358 . S
C574 H630 0.930 . S
C575 N572 1.314 . S
C575 C573 1.353 . S
C575 H631 0.930 . S
C576 N577 1.314 . S
C576 C581 1.353 . S
C576 H582 0.930 . S
N577 Li560 1.990 . S
N577 C576 1.314 . S
N577 C579 1.279 . S
C578 C579 1.358 . S
C578 C580 1.356 . S
C578 H632 0.930 . S
C579 N577 1.279 . S
C579 C578 1.358 . S
C579 H583 0.930 . S
C580 C578 1.356 . S
C580 C581 1.348 . S
C581 C576 1.353 . S
C581 C580 1.348 . S
C581 H633 0.929 . S
H582 C576 0.930 . S
H583 C579 0.930 . S
C584 N585 1.314 . S
C584 C586 1.353 . S
C584 H590 0.930 . S
N585 Li561 1.990 . S
N585 C584 1.314 . S
N585 C588 1.279 . S
C586 C584 1.353 . S
C586 C589 1.348 . S
C586 H634 0.929 1_545 S
C587 C588 1.358 . S
C587 C589 1.356 . S
C587 H635 0.930 . S
C588 N585 1.279 . S
C588 C587 1.358 . S
C588 H591 0.930 . S
C589 C586 1.348 . S
C589 C587 1.356 . S
H590 C584 0.930 . S
H591 C588 0.930 . S
C592 C594 1.348 . S
C592 C595 1.356 . S
C592 O622 1.325 . S
N593 C596 1.314 . S
N593 C597 1.279 . S
C594 C592 1.348 . S
C594 C596 1.353 . S
C594 H636 0.929 . S
C595 C592 1.356 . S
C595 C597 1.358 . S
C595 H637 0.930 . S
C596 N593 1.314 . S
C596 C594 1.353 . S
C596 H638 0.930 . S
C597 N593 1.279 . S
C597 C595 1.358 . S
C597 H639 0.930 . S
C598 C599 1.348 . S
C598 C600 1.356 . S
C598 O623 1.325 . S
C599 C598 1.348 . S
C599 C601 1.353 . S
C599 H640 0.929 . S
C600 C598 1.356 . S
C600 C602 1.358 . S
C600 H641 0.930 . S
C601 C599 1.353 . S
C601 N603 1.314 . S
C601 H642 0.930 . S
C602 C600 1.358 . S
C602 N603 1.279 . S
C602 H643 0.930 . S
N603 C601 1.314 . S
N603 C602 1.279 . S
C604 C606 1.353 . S
C604 N607 1.314 . S
C604 H610 0.930 . S
C605 N607 1.279 . S
C605 C608 1.358 . S
C605 H611 0.930 . S
C606 C604 1.353 . S
C606 C609 1.348 . S
C606 H644 0.929 1_545 S
N607 Li562 1.990 . S
N607 C604 1.314 . S
N607 C605 1.279 . S
C608 C605 1.358 . S
C608 C609 1.356 . S
C608 H645 0.930 . S
C609 C606 1.348 . S
C609 C608 1.356 . S
H610 C604 0.930 . S
H611 C605 0.930 . S
C612 N613 1.314 . S
C612 C614 1.353 . S
C612 H618 0.930 . S
N613 Li563 1.990 . S
N613 C612 1.314 . S
N613 C616 1.279 . S
C614 C612 1.353 . S
C614 C617 1.348 . S
C614 H646 0.929 . S
C615 C616 1.358 . S
C615 C617 1.356 . S
C615 H647 0.930 . S
C616 N613 1.279 . S
C616 C615 1.358 . S
C616 H619 0.930 . S
C617 C614 1.348 . S
C617 C615 1.356 . S
H618 C612 0.930 . S
H619 C616 0.930 . S
O620 Li560 1.956 . S
O620 Li561 1.970 . S
O620 Li562 1.961 . S
O620 C564 1.325 . S
O621 Li560 1.970 . S
O621 Li561 1.956 . S
O621 Li563 1.961 . S
O621 C570 1.325 . S
O622 Li560 1.961 . S
O622 Li562 1.956 . S
O622 Li563 1.970 . S
O622 C592 1.325 . S
O623 Li561 1.961 . S
O623 Li562 1.970 . S
O623 Li563 1.956 . S
O623 C598 1.325 . S
H624 C566 0.929 . S
H625 C567 0.930 . S
H626 C568 0.930 . S
H627 C569 0.930 . S
H628 C571 0.930 . S
H629 C573 0.929 . S
H630 C574 0.930 . S
H631 C575 0.930 . S
H632 C578 0.930 . S
H633 C581 0.929 . S
H634 C586 0.929 1_565 S
H635 C587 0.930 . S
H636 C594 0.929 . S
H637 C595 0.930 . S
H638 C596 0.930 . S
H639 C597 0.930 . S
H640 C599 0.929 . S
H641 C600 0.930 . S
H642 C601 0.930 . S
H643 C602 0.930 . S
H644 C606 0.929 1_565 S
H645 C608 0.930 . S
H646 C614 0.929 . S
H647 C615 0.930 . S
Li648 N665 1.990 . S
Li648 O708 1.956 . S
Li648 O709 1.970 . S
Li648 O710 1.961 . S
Li649 N673 1.990 . S
Li649 O708 1.970 . S
Li649 O709 1.956 . S
Li649 O711 1.961 . S
Li650 N695 1.990 . S
Li650 O708 1.961 . S
Li650 O710 1.956 . S
Li650 O711 1.970 . S
Li651 N701 1.990 . S
Li651 O709 1.961 . S
Li651 O710 1.970 . S
Li651 O711 1.956 . S
C652 C654 1.348 . S
C652 C655 1.356 . S
C652 O708 1.325 . S
N653 C656 1.314 . S
N653 C657 1.279 . S
C654 C652 1.348 . S
C654 C656 1.353 . S
C654 H712 0.929 . S
C655 C652 1.356 . S
C655 C657 1.358 . S
C655 H713 0.930 . S
C656 N653 1.314 . S
C656 C654 1.353 . S
C656 H714 0.930 . S
C657 N653 1.279 . S
C657 C655 1.358 . S
C657 H715 0.930 . S
C658 C661 1.348 . S
C658 C662 1.356 . S
C658 O709 1.325 . S
C659 N660 1.279 . S
C659 C662 1.358 . S
C659 H716 0.930 . S
N660 C659 1.279 . S
N660 C663 1.314 . S
C661 C658 1.348 . S
C661 C663 1.353 . S
C661 H717 0.929 . S
C662 C658 1.356 . S
C662 C659 1.358 . S
C662 H718 0.930 . S
C663 N660 1.314 . S
C663 C661 1.353 . S
C663 H719 0.930 . S
C664 N665 1.314 . S
C664 C669 1.353 . S
C664 H670 0.930 . S
N665 Li648 1.990 . S
N665 C664 1.314 . S
N665 C667 1.279 . S
C666 C667 1.358 . S
C666 C668 1.356 . S
C666 H720 0.930 . S
C667 N665 1.279 . S
C667 C666 1.358 . S
C667 H671 0.930 . S
C668 C666 1.356 . S
C668 C669 1.348 . S
C669 C664 1.353 . S
C669 C668 1.348 . S
C669 H721 0.929 . S
H670 C664 0.930 . S
H671 C667 0.930 . S
C672 N673 1.314 . S
C672 C674 1.353 . S
C672 H678 0.930 . S
N673 Li649 1.990 . S
N673 C672 1.314 . S
N673 C676 1.279 . S
C674 C672 1.353 . S
C674 C677 1.348 . S
C674 H722 0.929 . S
C675 C676 1.358 . S
C675 C677 1.356 . S
C675 H723 0.930 . S
C676 N673 1.279 . S
C676 C675 1.358 . S
C676 H679 0.930 . S
C677 C674 1.348 . S
C677 C675 1.356 . S
H678 C672 0.930 . S
H679 C676 0.930 . S
C680 C682 1.348 . S
C680 C683 1.356 . S
C680 O710 1.325 . S
N681 C684 1.314 . S
N681 C685 1.279 . S
C682 C680 1.348 . S
C682 C684 1.353 . S
C682 H724 0.929 . S
C683 C680 1.356 . S
C683 C685 1.358 . S
C683 H725 0.930 . S
C684 N681 1.314 . S
C684 C682 1.353 . S
C684 H726 0.930 . S
C685 N681 1.279 . S
C685 C683 1.358 . S
C685 H727 0.930 . S
C686 C687 1.348 . S
C686 C688 1.356 . S
C686 O711 1.325 . S
C687 C686 1.348 . S
C687 C689 1.353 . S
C687 H728 0.929 . S
C688 C686 1.356 . S
C688 C690 1.358 . S
C688 H729 0.930 . S
C689 C687 1.353 . S
C689 N691 1.314 . S
C689 H730 0.930 . S
C690 C688 1.358 . S
C690 N691 1.279 . S
C690 H731 0.930 . S
N691 C689 1.314 . S
N691 C690 1.279 . S
C692 C694 1.353 . S
C692 N695 1.314 . S
C692 H698 0.930 . S
C693 N695 1.279 . S
C693 C696 1.358 . S
C693 H699 0.930 . S
C694 C692 1.353 . S
C694 C697 1.348 . S
C694 H732 0.929 . S
N695 Li650 1.990 . S
N695 C692 1.314 . S
N695 C693 1.279 . S
C696 C693 1.358 . S
C696 C697 1.356 . S
C696 H733 0.930 . S
C697 C694 1.348 . S
C697 C696 1.356 . S
H698 C692 0.930 . S
H699 C693 0.930 . S
C700 N701 1.314 . S
C700 C702 1.353 . S
C700 H706 0.930 . S
N701 Li651 1.990 . S
N701 C700 1.314 . S
N701 C704 1.279 . S
C702 C700 1.353 . S
C702 C705 1.348 . S
C702 H734 0.929 . S
C703 C704 1.358 . S
C703 C705 1.356 . S
C703 H735 0.930 . S
C704 N701 1.279 . S
C704 C703 1.358 . S
C704 H707 0.930 . S
C705 C702 1.348 . S
C705 C703 1.356 . S
H706 C700 0.930 . S
H707 C704 0.930 . S
O708 Li648 1.956 . S
O708 Li649 1.970 . S
O708 Li650 1.961 . S
O708 C652 1.325 . S
O709 Li648 1.970 . S
O709 Li649 1.956 . S
O709 Li651 1.961 . S
O709 C658 1.325 . S
O710 Li648 1.961 . S
O710 Li650 1.956 . S
O710 Li651 1.970 . S
O710 C680 1.325 . S
O711 Li649 1.961 . S
O711 Li650 1.970 . S
O711 Li651 1.956 . S
O711 C686 1.325 . S
H712 C654 0.929 . S
H713 C655 0.930 . S
H714 C656 0.930 . S
H715 C657 0.930 . S
H716 C659 0.930 . S
H717 C661 0.929 . S
H718 C662 0.930 . S
H719 C663 0.930 . S
H720 C666 0.930 . S
H721 C669 0.929 . S
H722 C674 0.929 . S
H723 C675 0.930 . S
H724 C682 0.929 . S
H725 C683 0.930 . S
H726 C684 0.930 . S
H727 C685 0.930 . S
H728 C687 0.929 . S
H729 C688 0.930 . S
H730 C689 0.930 . S
H731 C690 0.930 . S
H732 C694 0.929 . S
H733 C696 0.930 . S
H734 C702 0.929 . S
H735 C703 0.930 . S
Li736 N753 1.990 . S
Li736 O796 1.956 . S
Li736 O797 1.970 . S
Li736 O798 1.961 . S
Li737 N761 1.990 . S
Li737 O796 1.970 . S
Li737 O797 1.956 . S
Li737 O799 1.961 . S
Li738 N783 1.990 . S
Li738 O796 1.961 . S
Li738 O798 1.956 . S
Li738 O799 1.970 . S
Li739 N789 1.990 . S
Li739 O797 1.961 . S
Li739 O798 1.970 . S
Li739 O799 1.956 . S
C740 C742 1.348 . S
C740 C743 1.356 . S
C740 O796 1.325 . S
N741 C744 1.314 . S
N741 C745 1.279 . S
C742 C740 1.348 . S
C742 C744 1.353 . S
C742 H800 0.929 . S
C743 C740 1.356 . S
C743 C745 1.358 . S
C743 H801 0.930 . S
C744 N741 1.314 . S
C744 C742 1.353 . S
C744 H802 0.930 . S
C745 N741 1.279 . S
C745 C743 1.358 . S
C745 H803 0.930 . S
C746 C749 1.348 . S
C746 C750 1.356 . S
C746 O797 1.325 . S
C747 N748 1.279 . S
C747 C750 1.358 . S
C747 H804 0.930 . S
N748 C747 1.279 . S
N748 C751 1.314 . S
C749 C746 1.348 . S
C749 C751 1.353 . S
C749 H805 0.929 . S
C750 C746 1.356 . S
C750 C747 1.358 . S
C750 H806 0.930 . S
C751 N748 1.314 . S
C751 C749 1.353 . S
C751 H807 0.930 . S
C752 N753 1.314 . S
C752 C757 1.353 . S
C752 H758 0.930 . S
N753 Li736 1.990 . S
N753 C752 1.314 . S
N753 C755 1.279 . S
C754 C755 1.358 . S
C754 C756 1.356 . S
C754 H808 0.930 . S
C755 N753 1.279 . S
C755 C754 1.358 . S
C755 H759 0.930 . S
C756 C754 1.356 . S
C756 C757 1.348 . S
C757 C752 1.353 . S
C757 C756 1.348 . S
C757 H809 0.929 . S
H758 C752 0.930 . S
H759 C755 0.930 . S
C760 N761 1.314 . S
C760 C762 1.353 . S
C760 H766 0.930 . S
N761 Li737 1.990 . S
N761 C760 1.314 . S
N761 C764 1.279 . S
C762 C760 1.353 . S
C762 C765 1.348 . S
C762 H810 0.929 . S
C763 C764 1.358 . S
C763 C765 1.356 . S
C763 H811 0.930 . S
C764 N761 1.279 . S
C764 C763 1.358 . S
C764 H767 0.930 . S
C765 C762 1.348 . S
C765 C763 1.356 . S
H766 C760 0.930 . S
H767 C764 0.930 . S
C768 C770 1.348 . S
C768 C771 1.356 . S
C768 O798 1.325 . S
N769 C772 1.314 . S
N769 C773 1.279 . S
C770 C768 1.348 . S
C770 C772 1.353 . S
C770 H812 0.929 . S
C771 C768 1.356 . S
C771 C773 1.358 . S
C771 H813 0.930 . S
C772 N769 1.314 . S
C772 C770 1.353 . S
C772 H814 0.930 . S
C773 N769 1.279 . S
C773 C771 1.358 . S
C773 H815 0.930 . S
C774 C775 1.348 . S
C774 C776 1.356 . S
C774 O799 1.325 . S
C775 C774 1.348 . S
C775 C777 1.353 . S
C775 H816 0.929 . S
C776 C774 1.356 . S
C776 C778 1.358 . S
C776 H817 0.930 . S
C777 C775 1.353 . S
C777 N779 1.314 . S
C777 H818 0.930 . S
C778 C776 1.358 . S
C778 N779 1.279 . S
C778 H819 0.930 . S
N779 C777 1.314 . S
N779 C778 1.279 . S
C780 C782 1.353 . S
C780 N783 1.314 . S
C780 H786 0.930 . S
C781 N783 1.279 . S
C781 C784 1.358 . S
C781 H787 0.930 . S
C782 C780 1.353 . S
C782 C785 1.348 . S
C782 H820 0.929 . S
N783 Li738 1.990 . S
N783 C780 1.314 . S
N783 C781 1.279 . S
C784 C781 1.358 . S
C784 C785 1.356 . S
C784 H821 0.930 . S
C785 C782 1.348 . S
C785 C784 1.356 . S
H786 C780 0.930 . S
H787 C781 0.930 . S
C788 N789 1.314 . S
C788 C790 1.353 . S
C788 H794 0.930 . S
N789 Li739 1.990 . S
N789 C788 1.314 . S
N789 C792 1.279 . S
C790 C788 1.353 . S
C790 C793 1.348 . S
C790 H822 0.929 . S
C791 C792 1.358 . S
C791 C793 1.356 . S
C791 H823 0.930 . S
C792 N789 1.279 . S
C792 C791 1.358 . S
C792 H795 0.930 . S
C793 C790 1.348 . S
C793 C791 1.356 . S
H794 C788 0.930 . S
H795 C792 0.930 . S
O796 Li736 1.956 . S
O796 Li737 1.970 . S
O796 Li738 1.961 . S
O796 C740 1.325 . S
O797 Li736 1.970 . S
O797 Li737 1.956 . S
O797 Li739 1.961 . S
O797 C746 1.325 . S
O798 Li736 1.961 . S
O798 Li738 1.956 . S
O798 Li739 1.970 . S
O798 C768 1.325 . S
O799 Li737 1.961 . S
O799 Li738 1.970 . S
O799 Li739 1.956 . S
O799 C774 1.325 . S
H800 C742 0.929 . S
H801 C743 0.930 . S
H802 C744 0.930 . S
H803 C745 0.930 . S
H804 C747 0.930 . S
H805 C749 0.929 . S
H806 C750 0.930 . S
H807 C751 0.930 . S
H808 C754 0.930 . S
H809 C757 0.929 . S
H810 C762 0.929 . S
H811 C763 0.930 . S
H812 C770 0.929 . S
H813 C771 0.930 . S
H814 C772 0.930 . S
H815 C773 0.930 . S
H816 C775 0.929 . S
H817 C776 0.930 . S
H818 C777 0.930 . S
H819 C778 0.930 . S
H820 C782 0.929 . S
H821 C784 0.930 . S
H822 C790 0.929 . S
H823 C791 0.930 . S
Li824 N841 1.990 . S
Li824 O884 1.956 . S
Li824 O885 1.970 1_565 S
Li824 O886 1.961 . S
Li825 N849 1.990 . S
Li825 O884 1.970 1_545 S
Li825 O885 1.956 . S
Li825 O887 1.961 . S
Li826 N871 1.990 . S
Li826 O884 1.961 . S
Li826 O886 1.956 . S
Li826 O887 1.970 1_565 S
Li827 N877 1.990 . S
Li827 O885 1.961 . S
Li827 O886 1.970 1_545 S
Li827 O887 1.956 . S
C828 C830 1.348 . S
C828 C831 1.356 . S
C828 O884 1.325 . S
N829 C832 1.314 . S
N829 C833 1.279 . S
C830 C828 1.348 . S
C830 C832 1.353 . S
C830 H888 0.929 . S
C831 C828 1.356 . S
C831 C833 1.358 . S
C831 H889 0.930 . S
C832 N829 1.314 . S
C832 C830 1.353 . S
C832 H890 0.930 . S
C833 N829 1.279 . S
C833 C831 1.358 . S
C833 H891 0.930 . S
C834 C837 1.348 1_545 S
C834 C838 1.356 . S
C834 O885 1.325 . S
C835 N836 1.279 . S
C835 C838 1.358 . S
C835 H892 0.930 . S
N836 C835 1.279 . S
N836 C839 1.314 . S
C837 C834 1.348 1_565 S
C837 C839 1.353 1_565 S
C837 H893 0.929 . S
C838 C834 1.356 . S
C838 C835 1.358 . S
C838 H894 0.930 . S
C839 N836 1.314 . S
C839 C837 1.353 1_545 S
C839 H895 0.930 1_545 S
C840 N841 1.314 . S
C840 C845 1.353 . S
C840 H846 0.930 . S
N841 Li824 1.990 . S
N841 C840 1.314 . S
N841 C843 1.279 . S
C842 C843 1.358 . S
C842 C844 1.356 . S
C842 H896 0.930 . S
C843 N841 1.279 . S
C843 C842 1.358 . S
C843 H847 0.930 . S
C844 C842 1.356 . S
C844 C845 1.348 . S
C845 C840 1.353 . S
C845 C844 1.348 . S
C845 H897 0.929 . S
H846 C840 0.930 . S
H847 C843 0.930 . S
C848 N849 1.314 . S
C848 C850 1.353 . S
C848 H854 0.930 . S
N849 Li825 1.990 . S
N849 C848 1.314 . S
N849 C852 1.279 . S
C850 C848 1.353 . S
C850 C853 1.348 . S
C850 H898 0.929 . S
C851 C852 1.358 . S
C851 C853 1.356 . S
C851 H899 0.930 . S
C852 N849 1.279 . S
C852 C851 1.358 . S
C852 H855 0.930 . S
C853 C850 1.348 . S
C853 C851 1.356 . S
H854 C848 0.930 . S
H855 C852 0.930 . S
C856 C858 1.348 1_565 S
C856 C859 1.356 . S
C856 O886 1.325 . S
N857 C860 1.314 1_565 S
N857 C861 1.279 . S
C858 C856 1.348 1_545 S
C858 C860 1.353 . S
C858 H900 0.929 . S
C859 C856 1.356 . S
C859 C861 1.358 . S
C859 H901 0.930 . S
C860 N857 1.314 1_545 S
C860 C858 1.353 . S
C860 H902 0.930 . S
C861 N857 1.279 . S
C861 C859 1.358 . S
C861 H903 0.930 . S
C862 C863 1.348 . S
C862 C864 1.356 . S
C862 O887 1.325 . S
C863 C862 1.348 . S
C863 C865 1.353 . S
C863 H904 0.929 . S
C864 C862 1.356 . S
C864 C866 1.358 . S
C864 H905 0.930 . S
C865 C863 1.353 . S
C865 N867 1.314 . S
C865 H906 0.930 . S
C866 C864 1.358 . S
C866 N867 1.279 . S
C866 H907 0.930 . S
N867 C865 1.314 . S
N867 C866 1.279 . S
C868 C870 1.353 . S
C868 N871 1.314 . S
C868 H874 0.930 . S
C869 N871 1.279 . S
C869 C872 1.358 . S
C869 H875 0.930 . S
C870 C868 1.353 . S
C870 C873 1.348 . S
C870 H908 0.929 . S
N871 Li826 1.990 . S
N871 C868 1.314 . S
N871 C869 1.279 . S
C872 C869 1.358 . S
C872 C873 1.356 . S
C872 H909 0.930 . S
C873 C870 1.348 . S
C873 C872 1.356 . S
H874 C868 0.930 . S
H875 C869 0.930 . S
C876 N877 1.314 . S
C876 C878 1.353 . S
C876 H882 0.930 . S
N877 Li827 1.990 . S
N877 C876 1.314 . S
N877 C880 1.279 . S
C878 C876 1.353 . S
C878 C881 1.348 . S
C878 H910 0.929 . S
C879 C880 1.358 . S
C879 C881 1.356 . S
C879 H911 0.930 . S
C880 N877 1.279 . S
C880 C879 1.358 . S
C880 H883 0.930 . S
C881 C878 1.348 . S
C881 C879 1.356 . S
H882 C876 0.930 . S
H883 C880 0.930 . S
O884 Li824 1.956 . S
O884 Li825 1.970 1_565 S
O884 Li826 1.961 . S
O884 C828 1.325 . S
O885 Li824 1.970 1_545 S
O885 Li825 1.956 . S
O885 Li827 1.961 . S
O885 C834 1.325 . S
O886 Li824 1.961 . S
O886 Li826 1.956 . S
O886 Li827 1.970 1_565 S
O886 C856 1.325 . S
O887 Li825 1.961 . S
O887 Li826 1.970 1_545 S
O887 Li827 1.956 . S
O887 C862 1.325 . S
H888 C830 0.929 . S
H889 C831 0.930 . S
H890 C832 0.930 . S
H891 C833 0.930 . S
H892 C835 0.930 . S
H893 C837 0.929 . S
H894 C838 0.930 . S
H895 C839 0.930 1_565 S
H896 C842 0.930 . S
H897 C845 0.929 . S
H898 C850 0.929 . S
H899 C851 0.930 . S
H900 C858 0.929 . S
H901 C859 0.930 . S
H902 C860 0.930 . S
H903 C861 0.930 . S
H904 C863 0.929 . S
H905 C864 0.930 . S
H906 C865 0.930 . S
H907 C866 0.930 . S
H908 C870 0.929 . S
H909 C872 0.930 . S
H910 C878 0.929 . S
H911 C879 0.930 . S
Li912 N929 1.990 . S
Li912 O972 1.956 . S
Li912 O973 1.951 1_455 S
Li912 O974 1.961 . S
Li913 N937 1.990 . S
Li913 O972 1.970 1_655 S
Li913 O973 1.957 . S
Li913 O975 1.961 . S
Li914 N959 1.990 . S
Li914 O972 1.961 . S
Li914 O974 1.956 . S
Li914 O975 1.970 1_455 S
Li915 N965 1.990 . S
Li915 O973 1.975 . S
Li915 O974 1.970 1_655 S
Li915 O975 1.956 . S
C916 C918 1.348 . S
C916 C919 1.356 . S
C916 O972 1.325 . S
N917 C920 1.314 . S
N917 C921 1.279 . S
C918 C916 1.348 . S
C918 C920 1.353 . S
C918 H976 0.929 . S
C919 C916 1.356 . S
C919 C921 1.358 . S
C919 H977 0.930 . S
C920 N917 1.314 . S
C920 C918 1.353 . S
C920 H978 0.930 . S
C921 N917 1.279 . S
C921 C919 1.358 . S
C921 H979 0.930 . S
C922 C925 1.348 1_655 S
C922 C926 1.356 . S
C922 O973 1.329 . S
C923 N924 1.279 . S
C923 C926 1.358 . S
C923 H980 0.930 . S
N924 C923 1.279 . S
N924 C927 1.314 1_655 S
C925 C922 1.348 1_455 S
C925 C927 1.353 . S
C925 H981 0.929 . S
C926 C922 1.356 . S
C926 C923 1.358 . S
C926 H982 0.930 . S
C927 N924 1.314 1_455 S
C927 C925 1.353 . S
C927 H983 0.930 . S
C928 N929 1.314 . S
C928 C933 1.353 . S
C928 H934 0.930 . S
N929 Li912 1.990 . S
N929 C928 1.314 . S
N929 C931 1.279 . S
C930 C931 1.358 . S
C930 C932 1.356 . S
C930 H984 0.930 . S
C931 N929 1.279 . S
C931 C930 1.358 . S
C931 H935 0.930 . S
C932 C930 1.356 . S
C932 C933 1.348 . S
C933 C928 1.353 . S
C933 C932 1.348 . S
C933 H985 0.929 . S
H934 C928 0.930 . S
H935 C931 0.930 . S
C936 N937 1.314 . S
C936 C938 1.353 1_556 S
C936 H942 0.930 . S
N937 Li913 1.990 . S
N937 C936 1.314 . S
N937 C940 1.279 1_655 S
C938 C936 1.353 1_554 S
C938 C941 1.348 1_554 S
C938 H986 0.929 . S
C939 C940 1.363 . S
C939 C941 1.351 1_455 S
C939 H987 0.931 . S
C940 N937 1.279 1_455 S
C940 C939 1.363 . S
C940 H943 0.930 . S
C941 C938 1.348 1_556 S
C941 C939 1.351 1_655 S
H942 C936 0.930 . S
H943 C940 0.930 . S
C944 C946 1.348 1_455 S
C944 C947 1.356 . S
C944 O974 1.325 . S
N945 C948 1.314 1_455 S
N945 C949 1.279 . S
C946 C944 1.348 1_655 S
C946 C948 1.353 . S
C946 H988 0.929 . S
C947 C944 1.356 . S
C947 C949 1.358 . S
C947 H989 0.930 . S
C948 N945 1.314 1_655 S
C948 C946 1.353 . S
C948 H990 0.930 . S
C949 N945 1.279 . S
C949 C947 1.358 . S
C949 H991 0.930 . S
C950 C951 1.348 . S
C950 C952 1.356 . S
C950 O975 1.325 . S
C951 C950 1.348 . S
C951 C953 1.353 . S
C951 H992 0.929 . S
C952 C950 1.356 . S
C952 C954 1.358 . S
C952 H993 0.930 . S
C953 C951 1.353 . S
C953 N955 1.314 . S
C953 H994 0.930 . S
C954 C952 1.358 . S
C954 N955 1.279 . S
C954 H995 0.930 . S
N955 C953 1.314 . S
N955 C954 1.279 . S
C956 C958 1.353 1_556 S
C956 N959 1.314 . S
C956 H962 0.930 . S
C957 N959 1.279 1_655 S
C957 C960 1.358 . S
C957 H963 0.930 . S
C958 C956 1.353 1_554 S
C958 C961 1.348 1_554 S
C958 H996 0.929 . S
N959 Li914 1.990 . S
N959 C956 1.314 . S
N959 C957 1.279 1_455 S
C960 C957 1.358 . S
C960 C961 1.356 1_655 S
C960 H997 0.930 . S
C961 C958 1.348 1_556 S
C961 C960 1.356 1_455 S
H962 C956 0.930 . S
H963 C957 0.930 . S
C964 N965 1.314 . S
C964 C966 1.353 . S
C964 H970 0.930 . S
N965 Li915 1.990 . S
N965 C964 1.314 . S
N965 C968 1.279 . S
C966 C964 1.353 . S
C966 C969 1.348 . S
C966 H998 0.929 . S
C967 C968 1.358 . S
C967 C969 1.356 . S
C967 H999 0.930 . S
C968 N965 1.279 . S
C968 C967 1.358 . S
C968 H971 0.930 . S
C969 C966 1.348 . S
C969 C967 1.356 . S
H970 C964 0.930 . S
H971 C968 0.930 . S
O972 Li912 1.956 . S
O972 Li913 1.970 1_455 S
O972 Li914 1.961 . S
O972 C916 1.325 . S
O973 Li912 1.951 1_655 S
O973 Li913 1.957 . S
O973 Li915 1.975 . S
O973 C922 1.329 . S
O974 Li912 1.961 . S
O974 Li914 1.956 . S
O974 Li915 1.970 1_455 S
O974 C944 1.325 . S
O975 Li913 1.961 . S
O975 Li914 1.970 1_655 S
O975 Li915 1.956 . S
O975 C950 1.325 . S
H976 C918 0.929 . S
H977 C919 0.930 . S
H978 C920 0.930 . S
H979 C921 0.930 . S
H980 C923 0.930 . S
H981 C925 0.929 . S
H982 C926 0.930 . S
H983 C927 0.930 . S
H984 C930 0.930 . S
H985 C933 0.929 . S
H986 C938 0.929 . S
H987 C939 0.931 . S
H988 C946 0.929 . S
H989 C947 0.930 . S
H990 C948 0.930 . S
H991 C949 0.930 . S
H992 C951 0.929 . S
H993 C952 0.930 . S
H994 C953 0.930 . S
H995 C954 0.930 . S
H996 C958 0.929 . S
H997 C960 0.930 . S
H998 C966 0.929 . S
H999 C967 0.930 . S
Li1000 N1017 1.990 . S
Li1000 O1060 1.956 . S
Li1000 O1061 1.970 . S
Li1000 O1062 1.961 . S
Li1001 N1025 1.990 . S
Li1001 O1060 1.970 . S
Li1001 O1061 1.956 . S
Li1001 O1063 1.961 . S
Li1002 N1047 1.990 . S
Li1002 O1060 1.961 . S
Li1002 O1062 1.956 . S
Li1002 O1063 1.970 . S
Li1003 N1053 1.990 . S
Li1003 O1061 1.961 . S
Li1003 O1062 1.970 . S
Li1003 O1063 1.956 . S
C1004 C1006 1.348 . S
C1004 C1007 1.356 . S
C1004 O1060 1.325 . S
N1005 C1008 1.314 . S
N1005 C1009 1.279 . S
C1006 C1004 1.348 . S
C1006 C1008 1.353 . S
C1006 H1064 0.929 . S
C1007 C1004 1.356 . S
C1007 C1009 1.358 . S
C1007 H1065 0.930 . S
C1008 N1005 1.314 . S
C1008 C1006 1.353 . S
C1008 H1066 0.930 . S
C1009 N1005 1.279 . S
C1009 C1007 1.358 . S
C1009 H1067 0.930 . S
C1010 C1013 1.348 . S
C1010 C1014 1.356 . S
C1010 O1061 1.325 . S
C1011 N1012 1.279 . S
C1011 C1014 1.358 . S
C1011 H1068 0.930 . S
N1012 C1011 1.279 . S
N1012 C1015 1.314 . S
C1013 C1010 1.348 . S
C1013 C1015 1.353 . S
C1013 H1069 0.929 . S
C1014 C1010 1.356 . S
C1014 C1011 1.358 . S
C1014 H1070 0.930 . S
C1015 N1012 1.314 . S
C1015 C1013 1.353 . S
C1015 H1071 0.930 . S
C1016 N1017 1.314 . S
C1016 C1021 1.353 . S
C1016 H1022 0.930 . S
N1017 Li1000 1.990 . S
N1017 C1016 1.314 . S
N1017 C1019 1.279 . S
C1018 C1019 1.358 . S
C1018 C1020 1.356 . S
C1018 H1072 0.930 . S
C1019 N1017 1.279 . S
C1019 C1018 1.358 . S
C1019 H1023 0.930 . S
C1020 C1018 1.356 . S
C1020 C1021 1.348 . S
C1021 C1016 1.353 . S
C1021 C1020 1.348 . S
C1021 H1073 0.929 . S
H1022 C1016 0.930 . S
H1023 C1019 0.930 . S
C1024 N1025 1.314 . S
C1024 C1026 1.353 . S
C1024 H1030 0.930 . S
N1025 Li1001 1.990 . S
N1025 C1024 1.314 . S
N1025 C1028 1.279 . S
C1026 C1024 1.353 . S
C1026 C1029 1.348 . S
C1026 H1074 0.929 . S
C1027 C1028 1.358 . S
C1027 C1029 1.356 . S
C1027 H1075 0.930 . S
C1028 N1025 1.279 . S
C1028 C1027 1.358 . S
C1028 H1031 0.930 . S
C1029 C1026 1.348 . S
C1029 C1027 1.356 . S
H1030 C1024 0.930 . S
H1031 C1028 0.930 . S
C1032 C1034 1.348 . S
C1032 C1035 1.356 . S
C1032 O1062 1.325 . S
N1033 C1036 1.314 . S
N1033 C1037 1.279 . S
C1034 C1032 1.348 . S
C1034 C1036 1.353 . S
C1034 H1076 0.929 . S
C1035 C1032 1.356 . S
C1035 C1037 1.358 . S
C1035 H1077 0.930 . S
C1036 N1033 1.314 . S
C1036 C1034 1.353 . S
C1036 H1078 0.930 . S
C1037 N1033 1.279 . S
C1037 C1035 1.358 . S
C1037 H1079 0.930 . S
C1038 C1039 1.348 . S
C1038 C1040 1.356 . S
C1038 O1063 1.325 . S
C1039 C1038 1.348 . S
C1039 C1041 1.353 . S
C1039 H1080 0.929 . S
C1040 C1038 1.356 . S
C1040 C1042 1.358 . S
C1040 H1081 0.930 . S
C1041 C1039 1.353 . S
C1041 N1043 1.314 . S
C1041 H1082 0.930 . S
C1042 C1040 1.358 . S
C1042 N1043 1.279 . S
C1042 H1083 0.930 . S
N1043 C1041 1.314 . S
N1043 C1042 1.279 . S
C1044 C1046 1.353 . S
C1044 N1047 1.314 . S
C1044 H1050 0.930 . S
C1045 N1047 1.279 . S
C1045 C1048 1.358 . S
C1045 H1051 0.930 . S
C1046 C1044 1.353 . S
C1046 C1049 1.348 . S
C1046 H1084 0.929 . S
N1047 Li1002 1.990 . S
N1047 C1044 1.314 . S
N1047 C1045 1.279 . S
C1048 C1045 1.358 . S
C1048 C1049 1.356 . S
C1048 H1085 0.930 . S
C1049 C1046 1.348 . S
C1049 C1048 1.356 . S
H1050 C1044 0.930 . S
H1051 C1045 0.930 . S
C1052 N1053 1.314 . S
C1052 C1054 1.353 . S
C1052 H1058 0.930 . S
N1053 Li1003 1.990 . S
N1053 C1052 1.314 . S
N1053 C1056 1.279 . S
C1054 C1052 1.353 . S
C1054 C1057 1.348 . S
C1054 H1086 0.929 . S
C1055 C1056 1.358 . S
C1055 C1057 1.356 . S
C1055 H1087 0.930 . S
C1056 N1053 1.279 . S
C1056 C1055 1.358 . S
C1056 H1059 0.930 . S
C1057 C1054 1.348 . S
C1057 C1055 1.356 . S
H1058 C1052 0.930 . S
H1059 C1056 0.930 . S
O1060 Li1000 1.956 . S
O1060 Li1001 1.970 . S
O1060 Li1002 1.961 . S
O1060 C1004 1.325 . S
O1061 Li1000 1.970 . S
O1061 Li1001 1.956 . S
O1061 Li1003 1.961 . S
O1061 C1010 1.325 . S
O1062 Li1000 1.961 . S
O1062 Li1002 1.956 . S
O1062 Li1003 1.970 . S
O1062 C1032 1.325 . S
O1063 Li1001 1.961 . S
O1063 Li1002 1.970 . S
O1063 Li1003 1.956 . S
O1063 C1038 1.325 . S
H1064 C1006 0.929 . S
H1065 C1007 0.930 . S
H1066 C1008 0.930 . S
H1067 C1009 0.930 . S
H1068 C1011 0.930 . S
H1069 C1013 0.929 . S
H1070 C1014 0.930 . S
H1071 C1015 0.930 . S
H1072 C1018 0.930 . S
H1073 C1021 0.929 . S
H1074 C1026 0.929 . S
H1075 C1027 0.930 . S
H1076 C1034 0.929 . S
H1077 C1035 0.930 . S
H1078 C1036 0.930 . S
H1079 C1037 0.930 . S
H1080 C1039 0.929 . S
H1081 C1040 0.930 . S
H1082 C1041 0.930 . S
H1083 C1042 0.930 . S
H1084 C1046 0.929 . S
H1085 C1048 0.930 . S
H1086 C1054 0.929 . S
H1087 C1055 0.930 . S
Li1088 N1105 1.990 . S
Li1088 O1148 1.956 . S
Li1088 O1149 1.970 1_455 S
Li1088 O1150 1.961 . S
Li1089 N1113 1.990 . S
Li1089 O1148 1.970 1_655 S
Li1089 O1149 1.956 . S
Li1089 O1151 1.961 1_655 S
Li1090 N1135 1.990 . S
Li1090 O1148 1.961 . S
Li1090 O1150 1.956 . S
Li1090 O1151 1.970 . S
Li1091 N1141 1.990 1_455 S
Li1091 O1149 1.961 1_455 S
Li1091 O1150 1.970 . S
Li1091 O1151 1.956 . S
C1092 C1094 1.348 . S
C1092 C1095 1.356 . S
C1092 O1148 1.325 . S
N1093 C1096 1.314 . S
N1093 C1097 1.279 . S
C1094 C1092 1.348 . S
C1094 C1096 1.353 . S
C1094 H1152 0.929 1_455 S
C1095 C1092 1.356 . S
C1095 C1097 1.358 . S
C1095 H1153 0.930 . S
C1096 N1093 1.314 . S
C1096 C1094 1.353 . S
C1096 H1154 0.930 . S
C1097 N1093 1.279 . S
C1097 C1095 1.358 . S
C1097 H1155 0.930 . S
C1098 C1101 1.348 . S
C1098 C1102 1.356 . S
C1098 O1149 1.325 . S
C1099 N1100 1.279 . S
C1099 C1102 1.358 . S
C1099 H1156 0.930 . S
N1100 C1099 1.279 . S
N1100 C1103 1.314 . S
C1101 C1098 1.348 . S
C1101 C1103 1.353 . S
C1101 H1157 0.929 . S
C1102 C1098 1.356 . S
C1102 C1099 1.358 . S
C1102 H1158 0.930 . S
C1103 N1100 1.314 . S
C1103 C1101 1.353 . S
C1103 H1159 0.930 . S
C1104 N1105 1.314 . S
C1104 C1109 1.353 . S
C1104 H1110 0.930 . S
N1105 Li1088 1.990 . S
N1105 C1104 1.314 . S
N1105 C1107 1.279 . S
C1106 C1107 1.358 . S
C1106 C1108 1.356 . S
C1106 H1160 0.930 . S
C1107 N1105 1.279 . S
C1107 C1106 1.358 . S
C1107 H1111 0.930 . S
C1108 C1106 1.356 . S
C1108 C1109 1.348 . S
C1109 C1104 1.353 . S
C1109 C1108 1.348 . S
C1109 H1161 0.929 . S
H1110 C1104 0.930 . S
H1111 C1107 0.930 . S
C1112 N1113 1.314 . S
C1112 C1114 1.353 . S
C1112 H1118 0.930 . S
N1113 Li1089 1.990 . S
N1113 C1112 1.314 . S
N1113 C1116 1.279 . S
C1114 C1112 1.353 . S
C1114 C1117 1.348 . S
C1114 H1162 0.929 . S
C1115 C1116 1.358 . S
C1115 C1117 1.356 . S
C1115 H1163 0.930 . S
C1116 N1113 1.279 . S
C1116 C1115 1.358 . S
C1116 H1119 0.930 . S
C1117 C1114 1.348 . S
C1117 C1115 1.356 . S
H1118 C1112 0.930 . S
H1119 C1116 0.930 . S
C1120 C1122 1.348 . S
C1120 C1123 1.356 . S
C1120 O1150 1.325 . S
N1121 C1124 1.314 . S
N1121 C1125 1.279 . S
C1122 C1120 1.348 . S
C1122 C1124 1.353 . S
C1122 H1164 0.929 . S
C1123 C1120 1.356 . S
C1123 C1125 1.358 . S
C1123 H1165 0.930 . S
C1124 N1121 1.314 . S
C1124 C1122 1.353 . S
C1124 H1166 0.930 . S
C1125 N1121 1.279 . S
C1125 C1123 1.358 . S
C1125 H1167 0.930 . S
C1126 C1127 1.348 . S
C1126 C1128 1.356 1_455 S
C1126 O1151 1.325 . S
C1127 C1126 1.348 . S
C1127 C1129 1.353 . S
C1127 H1168 0.929 . S
C1128 C1126 1.356 1_655 S
C1128 C1130 1.358 . S
C1128 H1169 0.930 . S
C1129 C1127 1.353 . S
C1129 N1131 1.314 . S
C1129 H1170 0.930 . S
C1130 C1128 1.358 . S
C1130 N1131 1.279 1_655 S
C1130 H1171 0.930 . S
N1131 C1129 1.314 . S
N1131 C1130 1.279 1_455 S
C1132 C1134 1.353 . S
C1132 N1135 1.314 . S
C1132 H1138 0.930 . S
C1133 N1135 1.279 . S
C1133 C1136 1.358 . S
C1133 H1139 0.930 . S
C1134 C1132 1.353 . S
C1134 C1137 1.348 . S
C1134 H1172 0.929 . S
N1135 Li1090 1.990 . S
N1135 C1132 1.314 . S
N1135 C1133 1.279 . S
C1136 C1133 1.358 . S
C1136 C1137 1.356 . S
C1136 H1173 0.930 . S
C1137 C1134 1.348 . S
C1137 C1136 1.356 . S
H1138 C1132 0.930 . S
H1139 C1133 0.930 . S
C1140 N1141 1.314 . S
C1140 C1142 1.353 . S
C1140 H1146 0.930 . S
N1141 Li1091 1.990 1_655 S
N1141 C1140 1.314 . S
N1141 C1144 1.277 1_655 S
C1142 C1140 1.353 . S
C1142 C1145 1.348 . S
C1142 H1174 0.929 . S
C1143 C1144 1.358 1_655 S
C1143 C1145 1.356 . S
C1143 H1175 0.930 . S
C1144 N1141 1.277 1_455 S
C1144 C1143 1.358 1_455 S
C1144 H1147 0.933 . S
C1145 C1142 1.348 . S
C1145 C1143 1.356 . S
H1146 C1140 0.930 . S
H1147 C1144 0.933 . S
O1148 Li1088 1.956 . S
O1148 Li1089 1.970 1_455 S
O1148 Li1090 1.961 . S
O1148 C1092 1.325 . S
O1149 Li1088 1.970 1_655 S
O1149 Li1089 1.956 . S
O1149 Li1091 1.961 1_655 S
O1149 C1098 1.325 . S
O1150 Li1088 1.961 . S
O1150 Li1090 1.956 . S
O1150 Li1091 1.970 . S
O1150 C1120 1.325 . S
O1151 Li1089 1.961 1_455 S
O1151 Li1090 1.970 . S
O1151 Li1091 1.956 . S
O1151 C1126 1.325 . S
H1152 C1094 0.929 1_655 S
H1153 C1095 0.930 . S
H1154 C1096 0.930 . S
H1155 C1097 0.930 . S
H1156 C1099 0.930 . S
H1157 C1101 0.929 . S
H1158 C1102 0.930 . S
H1159 C1103 0.930 . S
H1160 C1106 0.930 . S
H1161 C1109 0.929 . S
H1162 C1114 0.929 . S
H1163 C1115 0.930 . S
H1164 C1122 0.929 . S
H1165 C1123 0.930 . S
H1166 C1124 0.930 . S
H1167 C1125 0.930 . S
H1168 C1127 0.929 . S
H1169 C1128 0.930 . S
H1170 C1129 0.930 . S
H1171 C1130 0.930 . S
H1172 C1134 0.929 . S
H1173 C1136 0.930 . S
H1174 C1142 0.929 . S
H1175 C1143 0.930 . S
Li1176 N1193 1.990 . S
Li1176 O1236 1.956 . S
Li1176 O1237 1.970 . S
Li1176 O1238 1.961 . S
Li1177 N1201 1.990 . S
Li1177 O1236 1.970 . S
Li1177 O1237 1.956 . S
Li1177 O1239 1.961 . S
Li1178 N1223 1.990 . S
Li1178 O1236 1.961 . S
Li1178 O1238 1.956 . S
Li1178 O1239 1.970 . S
Li1179 N1229 1.990 . S
Li1179 O1237 1.961 . S
Li1179 O1238 1.970 . S
Li1179 O1239 1.956 . S
C1180 C1182 1.348 . S
C1180 C1183 1.356 . S
C1180 O1236 1.325 . S
N1181 C1184 1.314 . S
N1181 C1185 1.279 . S
C1182 C1180 1.348 . S
C1182 C1184 1.353 . S
C1182 H1240 0.929 . S
C1183 C1180 1.356 . S
C1183 C1185 1.358 . S
C1183 H1241 0.930 . S
C1184 N1181 1.314 . S
C1184 C1182 1.353 . S
C1184 H1242 0.930 . S
C1185 N1181 1.279 . S
C1185 C1183 1.358 . S
C1185 H1243 0.930 . S
C1186 C1189 1.348 . S
C1186 C1190 1.356 . S
C1186 O1237 1.325 . S
C1187 N1188 1.279 . S
C1187 C1190 1.358 . S
C1187 H1244 0.930 . S
N1188 C1187 1.279 . S
N1188 C1191 1.314 . S
C1189 C1186 1.348 . S
C1189 C1191 1.353 . S
C1189 H1245 0.929 . S
C1190 C1186 1.356 . S
C1190 C1187 1.358 . S
C1190 H1246 0.930 . S
C1191 N1188 1.314 . S
C1191 C1189 1.353 . S
C1191 H1247 0.930 . S
C1192 N1193 1.314 . S
C1192 C1197 1.353 . S
C1192 H1198 0.930 . S
N1193 Li1176 1.990 . S
N1193 C1192 1.314 . S
N1193 C1195 1.279 . S
C1194 C1195 1.358 . S
C1194 C1196 1.356 . S
C1194 H1248 0.930 . S
C1195 N1193 1.279 . S
C1195 C1194 1.358 . S
C1195 H1199 0.930 . S
C1196 C1194 1.356 . S
C1196 C1197 1.348 . S
C1197 C1192 1.353 . S
C1197 C1196 1.348 . S
C1197 H1249 0.929 . S
H1198 C1192 0.930 . S
H1199 C1195 0.930 . S
C1200 N1201 1.314 . S
C1200 C1202 1.353 . S
C1200 H1206 0.930 . S
N1201 Li1177 1.990 . S
N1201 C1200 1.314 . S
N1201 C1204 1.279 . S
C1202 C1200 1.353 . S
C1202 C1205 1.348 . S
C1202 H1250 0.929 . S
C1203 C1204 1.358 . S
C1203 C1205 1.356 . S
C1203 H1251 0.930 . S
C1204 N1201 1.279 . S
C1204 C1203 1.358 . S
C1204 H1207 0.930 . S
C1205 C1202 1.348 . S
C1205 C1203 1.356 . S
H1206 C1200 0.930 . S
H1207 C1204 0.930 . S
C1208 C1210 1.348 . S
C1208 C1211 1.356 . S
C1208 O1238 1.325 . S
N1209 C1212 1.314 . S
N1209 C1213 1.279 . S
C1210 C1208 1.348 . S
C1210 C1212 1.353 . S
C1210 H1252 0.929 . S
C1211 C1208 1.356 . S
C1211 C1213 1.358 . S
C1211 H1253 0.930 . S
C1212 N1209 1.314 . S
C1212 C1210 1.353 . S
C1212 H1254 0.930 . S
C1213 N1209 1.279 . S
C1213 C1211 1.358 . S
C1213 H1255 0.930 . S
C1214 C1215 1.348 . S
C1214 C1216 1.356 . S
C1214 O1239 1.325 . S
C1215 C1214 1.348 . S
C1215 C1217 1.353 . S
C1215 H1256 0.929 . S
C1216 C1214 1.356 . S
C1216 C1218 1.358 . S
C1216 H1257 0.930 . S
C1217 C1215 1.353 . S
C1217 N1219 1.314 . S
C1217 H1258 0.930 . S
C1218 C1216 1.358 . S
C1218 N1219 1.279 . S
C1218 H1259 0.930 . S
N1219 C1217 1.314 . S
N1219 C1218 1.279 . S
C1220 C1222 1.353 . S
C1220 N1223 1.314 . S
C1220 H1226 0.930 . S
C1221 N1223 1.279 . S
C1221 C1224 1.358 . S
C1221 H1227 0.930 . S
C1222 C1220 1.353 . S
C1222 C1225 1.348 . S
C1222 H1260 0.929 . S
N1223 Li1178 1.990 . S
N1223 C1220 1.314 . S
N1223 C1221 1.279 . S
C1224 C1221 1.358 . S
C1224 C1225 1.356 . S
C1224 H1261 0.930 . S
C1225 C1222 1.348 . S
C1225 C1224 1.356 . S
H1226 C1220 0.930 . S
H1227 C1221 0.930 . S
C1228 N1229 1.314 . S
C1228 C1230 1.353 . S
C1228 H1234 0.930 . S
N1229 Li1179 1.990 . S
N1229 C1228 1.314 . S
N1229 C1232 1.279 . S
C1230 C1228 1.353 . S
C1230 C1233 1.348 . S
C1230 H1262 0.929 . S
C1231 C1232 1.358 . S
C1231 C1233 1.356 . S
C1231 H1263 0.930 . S
C1232 N1229 1.279 . S
C1232 C1231 1.358 . S
C1232 H1235 0.930 . S
C1233 C1230 1.348 . S
C1233 C1231 1.356 . S
H1234 C1228 0.930 . S
H1235 C1232 0.930 . S
O1236 Li1176 1.956 . S
O1236 Li1177 1.970 . S
O1236 Li1178 1.961 . S
O1236 C1180 1.325 . S
O1237 Li1176 1.970 . S
O1237 Li1177 1.956 . S
O1237 Li1179 1.961 . S
O1237 C1186 1.325 . S
O1238 Li1176 1.961 . S
O1238 Li1178 1.956 . S
O1238 Li1179 1.970 . S
O1238 C1208 1.325 . S
O1239 Li1177 1.961 . S
O1239 Li1178 1.970 . S
O1239 Li1179 1.956 . S
O1239 C1214 1.325 . S
H1240 C1182 0.929 . S
H1241 C1183 0.930 . S
H1242 C1184 0.930 . S
H1243 C1185 0.930 . S
H1244 C1187 0.930 . S
H1245 C1189 0.929 . S
H1246 C1190 0.930 . S
H1247 C1191 0.930 . S
H1248 C1194 0.930 . S
H1249 C1197 0.929 . S
H1250 C1202 0.929 . S
H1251 C1203 0.930 . S
H1252 C1210 0.929 . S
H1253 C1211 0.930 . S
H1254 C1212 0.930 . S
H1255 C1213 0.930 . S
H1256 C1215 0.929 . S
H1257 C1216 0.930 . S
H1258 C1217 0.930 . S
H1259 C1218 0.930 . S
H1260 C1222 0.929 . S
H1261 C1224 0.930 . S
H1262 C1230 0.929 . S
H1263 C1231 0.930 . S
C257 C73 2.011 . S
C316 C82 1.279 . S
C100 C433 2.201 . S
C501 C56 1.425 1_545 S
C580 C134 1.753 . S
C705 C165 1.976 . S
C147 C765 1.028 . S
C873 C125 2.152 . S
C151 C969 1.431 . S
C1029 C121 1.444 . S
C139 C932 1.997 . S
C1049 C164 1.264 . S
C95 C1117 1.240 . S
C61 C1108 1.507 . S
C74 C1137 1.519 . S
C86 C1145 1.924 . S
C47 C529 1.560 . S
C186 C492 1.309 . S
C228 C204 1.892 1_556 S
C325 C112 2.048 . S
C60 C589 1.348 . S
C881 C152 1.412 . S
C609 C126 2.154 1_545 S
C793 C160 1.688 . S
C785 C190 2.011 . S
C199 C853 1.276 . S
C113 C617 2.201 . S
C668 C173 1.425 . S
C43 C413 1.753 . S
C521 C9 1.976 . S
C237 C17 1.028 . S
C353 C34 2.153 . S
C21 C1057 1.428 . S
C30 C941 1.445 1_554 S
C48 C1020 2.000 . S
C8 C961 1.264 1_554 S
C1205 C108 1.240 . S
C1196 C178 1.507 . S
C1225 C191 1.518 . S
C203 C1233 1.926 . S
C138 C697 1.560 . S
C677 C69 1.308 . S
C756 C87 1.893 . S
C844 C99 2.050 . S
C177 C404 1.349 . S
C345 C22 1.414 . S
C35 C441 2.154 . S
C265 C4 1.688 . S
