# Generated by pormake.
# Topology ctn, (3,4)-cn, num edge types: 1
# Building blocks:
#     Node 0, Type 0, BuildingBlock: PAMTOO_clean_linker_0, # of connection points: 3
#     Node 1, Type 0, BuildingBlock: PAMTOO_clean_linker_0, # of connection points: 3
#     Node 2, Type 0, BuildingBlock: PAMTOO_clean_linker_0, # of connection points: 3
#     Node 3, Type 0, BuildingBlock: PAMTOO_clean_linker_0, # of connection points: 3
#     Node 4, Type 0, BuildingBlock: PAMTOO_clean_linker_0, # of connection points: 3
#     Node 5, Type 0, BuildingBlock: PAMTOO_clean_linker_0, # of connection points: 3
#     Node 6, Type 0, BuildingBlock: PAMTOO_clean_linker_0, # of connection points: 3
#     Node 7, Type 0, BuildingBlock: PAMTOO_clean_linker_0, # of connection points: 3
#     Node 8, Type 0, BuildingBlock: PAMTOO_clean_linker_0, # of connection points: 3
#     Node 9, Type 0, BuildingBlock: PAMTOO_clean_linker_0, # of connection points: 3
#     Node 10, Type 0, BuildingBlock: PAMTOO_clean_linker_0, # of connection points: 3
#     Node 11, Type 0, BuildingBlock: PAMTOO_clean_linker_0, # of connection points: 3
#     Node 12, Type 0, BuildingBlock: PAMTOO_clean_linker_0, # of connection points: 3
#     Node 13, Type 0, BuildingBlock: PAMTOO_clean_linker_0, # of connection points: 3
#     Node 14, Type 0, BuildingBlock: PAMTOO_clean_linker_0, # of connection points: 3
#     Node 15, Type 0, BuildingBlock: PAMTOO_clean_linker_0, # of connection points: 3
#     Node 16, Type 1, BuildingBlock: AZAVOO_clean_sbu_0, # of connection points: 4
#     Node 17, Type 1, BuildingBlock: AZAVOO_clean_sbu_0, # of connection points: 4
#     Node 18, Type 1, BuildingBlock: AZAVOO_clean_sbu_0, # of connection points: 4
#     Node 19, Type 1, BuildingBlock: AZAVOO_clean_sbu_0, # of connection points: 4
#     Node 20, Type 1, BuildingBlock: AZAVOO_clean_sbu_0, # of connection points: 4
#     Node 21, Type 1, BuildingBlock: AZAVOO_clean_sbu_0, # of connection points: 4
#     Node 22, Type 1, BuildingBlock: AZAVOO_clean_sbu_0, # of connection points: 4
#     Node 23, Type 1, BuildingBlock: AZAVOO_clean_sbu_0, # of connection points: 4
#     Node 24, Type 1, BuildingBlock: AZAVOO_clean_sbu_0, # of connection points: 4
#     Node 25, Type 1, BuildingBlock: AZAVOO_clean_sbu_0, # of connection points: 4
#     Node 26, Type 1, BuildingBlock: AZAVOO_clean_sbu_0, # of connection points: 4
#     Node 27, Type 1, BuildingBlock: AZAVOO_clean_sbu_0, # of connection points: 4
#     Edge 28, Type (0, 1), BuildingBlock: TEMPAE_clean_linker_10, # of connection points: 2
#     Edge 29, Type (0, 1), BuildingBlock: TEMPAE_clean_linker_10, # of connection points: 2
#     Edge 30, Type (0, 1), BuildingBlock: TEMPAE_clean_linker_10, # of connection points: 2
#     Edge 31, Type (0, 1), BuildingBlock: TEMPAE_clean_linker_10, # of connection points: 2
#     Edge 32, Type (0, 1), BuildingBlock: TEMPAE_clean_linker_10, # of connection points: 2
#     Edge 33, Type (0, 1), BuildingBlock: TEMPAE_clean_linker_10, # of connection points: 2
#     Edge 34, Type (0, 1), BuildingBlock: TEMPAE_clean_linker_10, # of connection points: 2
#     Edge 35, Type (0, 1), BuildingBlock: TEMPAE_clean_linker_10, # of connection points: 2
#     Edge 36, Type (0, 1), BuildingBlock: TEMPAE_clean_linker_10, # of connection points: 2
#     Edge 37, Type (0, 1), BuildingBlock: TEMPAE_clean_linker_10, # of connection points: 2
#     Edge 38, Type (0, 1), BuildingBlock: TEMPAE_clean_linker_10, # of connection points: 2
#     Edge 39, Type (0, 1), BuildingBlock: TEMPAE_clean_linker_10, # of connection points: 2
#     Edge 40, Type (0, 1), BuildingBlock: TEMPAE_clean_linker_10, # of connection points: 2
#     Edge 41, Type (0, 1), BuildingBlock: TEMPAE_clean_linker_10, # of connection points: 2
#     Edge 42, Type (0, 1), BuildingBlock: TEMPAE_clean_linker_10, # of connection points: 2
#     Edge 43, Type (0, 1), BuildingBlock: TEMPAE_clean_linker_10, # of connection points: 2
#     Edge 44, Type (0, 1), BuildingBlock: TEMPAE_clean_linker_10, # of connection points: 2
#     Edge 45, Type (0, 1), BuildingBlock: TEMPAE_clean_linker_10, # of connection points: 2
#     Edge 46, Type (0, 1), BuildingBlock: TEMPAE_clean_linker_10, # of connection points: 2
#     Edge 47, Type (0, 1), BuildingBlock: TEMPAE_clean_linker_10, # of connection points: 2
#     Edge 48, Type (0, 1), BuildingBlock: TEMPAE_clean_linker_10, # of connection points: 2
#     Edge 49, Type (0, 1), BuildingBlock: TEMPAE_clean_linker_10, # of connection points: 2
#     Edge 50, Type (0, 1), BuildingBlock: TEMPAE_clean_linker_10, # of connection points: 2
#     Edge 51, Type (0, 1), BuildingBlock: TEMPAE_clean_linker_10, # of connection points: 2
#     Edge 52, Type (0, 1), BuildingBlock: TEMPAE_clean_linker_10, # of connection points: 2
#     Edge 53, Type (0, 1), BuildingBlock: TEMPAE_clean_linker_10, # of connection points: 2
#     Edge 54, Type (0, 1), BuildingBlock: TEMPAE_clean_linker_10, # of connection points: 2
#     Edge 55, Type (0, 1), BuildingBlock: TEMPAE_clean_linker_10, # of connection points: 2
#     Edge 56, Type (0, 1), BuildingBlock: TEMPAE_clean_linker_10, # of connection points: 2
#     Edge 57, Type (0, 1), BuildingBlock: TEMPAE_clean_linker_10, # of connection points: 2
#     Edge 58, Type (0, 1), BuildingBlock: TEMPAE_clean_linker_10, # of connection points: 2
#     Edge 59, Type (0, 1), BuildingBlock: TEMPAE_clean_linker_10, # of connection points: 2
#     Edge 60, Type (0, 1), BuildingBlock: TEMPAE_clean_linker_10, # of connection points: 2
#     Edge 61, Type (0, 1), BuildingBlock: TEMPAE_clean_linker_10, # of connection points: 2
#     Edge 62, Type (0, 1), BuildingBlock: TEMPAE_clean_linker_10, # of connection points: 2
#     Edge 63, Type (0, 1), BuildingBlock: TEMPAE_clean_linker_10, # of connection points: 2
#     Edge 64, Type (0, 1), BuildingBlock: TEMPAE_clean_linker_10, # of connection points: 2
#     Edge 65, Type (0, 1), BuildingBlock: TEMPAE_clean_linker_10, # of connection points: 2
#     Edge 66, Type (0, 1), BuildingBlock: TEMPAE_clean_linker_10, # of connection points: 2
#     Edge 67, Type (0, 1), BuildingBlock: TEMPAE_clean_linker_10, # of connection points: 2
#     Edge 68, Type (0, 1), BuildingBlock: TEMPAE_clean_linker_10, # of connection points: 2
#     Edge 69, Type (0, 1), BuildingBlock: TEMPAE_clean_linker_10, # of connection points: 2
#     Edge 70, Type (0, 1), BuildingBlock: TEMPAE_clean_linker_10, # of connection points: 2
#     Edge 71, Type (0, 1), BuildingBlock: TEMPAE_clean_linker_10, # of connection points: 2
#     Edge 72, Type (0, 1), BuildingBlock: TEMPAE_clean_linker_10, # of connection points: 2
#     Edge 73, Type (0, 1), BuildingBlock: TEMPAE_clean_linker_10, # of connection points: 2
#     Edge 74, Type (0, 1), BuildingBlock: TEMPAE_clean_linker_10, # of connection points: 2
#     Edge 75, Type (0, 1), BuildingBlock: TEMPAE_clean_linker_10, # of connection points: 2
# Relax obj value: 0.057
# Max RMSD: 0.171
# Mean RMSD: 0.109
data_MOF--net-ctn--node1-AZAVOO_clean_sbu_0--node2-PAMTOO_clean_linker_0--edge1-TEMPAE_clean_linker_10
_symmetry_space_group_name_H-M    P1
_symmetry_Int_Tables_number       1
_symmetry_cell_setting            triclinic
loop_
_symmetry_equiv_pos_as_xyz
'x, y, z'
_cell_length_a     53.520047
_cell_length_b     54.776706
_cell_length_c     55.943299
_cell_angle_alpha  85.078843
_cell_angle_beta   95.462298
_cell_angle_gamma 100.96149
loop_
_atom_site_label
_atom_site_type_symbol
_atom_site_fract_x
_atom_site_fract_y
_atom_site_fract_z
_atom_type_partial_charge
H0 H 0.99552 0.0677 0.04545 0.0
H1 H 0.025 0.00016 0.06495 0.0
H2 H 0.04687 0.04496 0.00081 0.0
H3 H 0.03581 0.99178 0.99526 0.0
C4 C 0.0439 0.98483 0.01307 0.0
O5 O 0.05216 0.00438 0.02759 0.0
H6 H 0.0285 0.97119 0.02149 0.0
C7 C 0.00687 0.05429 0.04161 0.0
C8 C 0.02055 0.05858 0.02106 0.0
C9 C 0.00858 0.03352 0.05781 0.0
C10 C 0.02329 0.01622 0.05259 0.0
C11 C 0.03692 0.02029 0.03193 0.0
C12 C 0.03582 0.04163 0.01641 0.0
H13 H 0.32033 0.701 0.28787 0.0
H14 H 0.28687 0.72188 0.21758 0.0
H15 H 0.35317 0.76863 0.24861 0.0
H16 H 0.32095 0.79998 0.21929 0.0
C17 C 0.30693 0.78406 0.21215 0.0
O18 O 0.31878 0.76378 0.21213 0.0
H19 H 0.29097 0.77998 0.22418 0.0
C20 C 0.32041 0.71345 0.27173 0.0
C21 C 0.33937 0.73504 0.2704 0.0
C22 C 0.30126 0.70819 0.25281 0.0
C23 C 0.3011 0.72537 0.23259 0.0
C24 C 0.31955 0.74719 0.23137 0.0
C25 C 0.33876 0.75187 0.25005 0.0
H26 H 0.972 0.5327 0.1096 0.0
H27 H 0.94194 0.5029 0.04162 0.0
H28 H 0.00198 0.47328 0.08319 0.0
H29 H 0.00653 0.48592 0.03089 0.0
C30 C 0.98719 0.47587 0.02474 0.0
O31 O 0.97195 0.47021 0.04376 0.0
H32 H 0.9786 0.48839 0.01096 0.0
C33 C 0.97193 0.51973 0.09601 0.0
C34 C 0.98903 0.50282 0.09928 0.0
C35 C 0.95487 0.52012 0.07518 0.0
C36 C 0.95506 0.50323 0.05764 0.0
C37 C 0.97198 0.48643 0.06068 0.0
C38 C 0.98878 0.4862 0.08139 0.0
H39 H 0.71377 0.86081 0.2761 0.0
H40 H 0.68237 0.78469 0.26068 0.0
H41 H 0.7489 0.82326 0.2276 0.0
H42 H 0.70161 0.79531 0.19756 0.0
C43 C 0.70229 0.77744 0.20851 0.0
O44 O 0.71573 0.78175 0.23052 0.0
H45 H 0.68236 0.7683 0.21164 0.0
C46 C 0.71426 0.84425 0.26701 0.0
C47 C 0.73381 0.84461 0.2518 0.0
C48 C 0.69543 0.8228 0.27049 0.0
C49 C 0.69617 0.80172 0.258 0.0
C50 C 0.71513 0.80216 0.24228 0.0
C51 C 0.7339 0.82349 0.23926 0.0
H52 H 0.0888 0.98303 0.54621 0.0
H53 H 0.0212 0.96101 0.49865 0.0
H54 H 0.06922 0.03157 0.48537 0.0
H55 H 0.01479 0.03271 0.47842 0.0
C56 C 0.00766 0.01393 0.47162 0.0
O57 O 0.02778 0.00167 0.47078 0.0
H58 H 0.99393 0.00329 0.48419 0.0
C59 C 0.07606 0.9868 0.53067 0.0
C60 C 0.08205 0.00931 0.51641 0.0
C61 C 0.05401 0.96904 0.52467 0.0
C62 C 0.03784 0.97446 0.50431 0.0
C63 C 0.04327 0.997 0.49048 0.0
C64 C 0.0653 0.01425 0.49642 0.0
H65 H 0.16702 0.74649 0.79132 0.0
H66 H 0.19298 0.69337 0.75138 0.0
H67 H 0.23184 0.71379 0.81931 0.0
H68 H 0.26466 0.7128 0.78079 0.0
C69 C 0.25345 0.69675 0.77119 0.0
O70 O 0.23141 0.68735 0.78241 0.0
H71 H 0.24849 0.70382 0.75242 0.0
C72 C 0.18023 0.73416 0.78942 0.0
C73 C 0.19968 0.73182 0.80776 0.0
C74 C 0.17725 0.72003 0.76911 0.0
C75 C 0.19446 0.70394 0.76712 0.0
C76 C 0.21421 0.70192 0.78507 0.0
C77 C 0.21651 0.7155 0.8055 0.0
H78 H 0.92229 0.53276 0.51215 0.0
H79 H 0.94466 0.49298 0.45672 0.0
H80 H 0.99357 0.55907 0.48058 0.0
H81 H 0.98929 0.55188 0.42719 0.0
C82 C 0.98696 0.5312 0.42828 0.0
O83 O 0.98833 0.52242 0.45218 0.0
H84 H 0.96792 0.52359 0.41935 0.0
C85 C 0.93549 0.53088 0.4992 0.0
C86 C 0.95817 0.54864 0.49784 0.0
C87 C 0.93016 0.51049 0.48458 0.0
C88 C 0.94824 0.50809 0.46859 0.0
C89 C 0.97103 0.52542 0.46732 0.0
C90 C 0.97599 0.54561 0.48192 0.0
H91 H 0.75563 0.79682 0.83973 0.0
H92 H 0.81695 0.76423 0.81912 0.0
H93 H 0.78999 0.82232 0.77334 0.0
H94 H 0.79951 0.7817 0.74707 0.0
C95 C 0.81452 0.77487 0.7596 0.0
O96 O 0.82161 0.79068 0.778 0.0
H97 H 0.80609 0.75589 0.76706 0.0
C98 C 0.76921 0.79548 0.82692 0.0
C99 C 0.77069 0.81163 0.80596 0.0
C100 C 0.78612 0.77857 0.83207 0.0
C101 C 0.80401 0.77735 0.81558 0.0
C102 C 0.80507 0.79278 0.79425 0.0
C103 C 0.78878 0.81019 0.78971 0.0
H104 H 0.2556 0.29794 0.34196 0.0
H105 H 0.31412 0.26356 0.3182 0.0
H106 H 0.28217 0.31789 0.27133 0.0
H107 H 0.29266 0.27522 0.24676 0.0
C108 C 0.30886 0.27041 0.25909 0.0
O109 O 0.31548 0.28799 0.27595 0.0
H110 H 0.30253 0.25166 0.26817 0.0
C111 C 0.26774 0.29563 0.32818 0.0
C112 C 0.26665 0.30992 0.3061 0.0
C113 C 0.28469 0.2787 0.33272 0.0
C114 C 0.30083 0.27637 0.31498 0.0
C115 C 0.29967 0.29026 0.29281 0.0
C116 C 0.28255 0.30689 0.28836 0.0
H117 H 0.47064 0.03076 0.61162 0.0
H118 H 0.44163 0.0014 0.54321 0.0
H119 H 0.50137 0.97178 0.5853 0.0
H120 H 0.50671 0.98495 0.53323 0.0
C121 C 0.48752 0.97482 0.52675 0.0
O122 O 0.47192 0.96893 0.5455 0.0
H123 H 0.47906 0.98736 0.5129 0.0
C124 C 0.47081 0.01791 0.59798 0.0
C125 C 0.48799 0.00108 0.60135 0.0
C126 C 0.45398 0.01836 0.57699 0.0
C127 C 0.45454 0.00166 0.55936 0.0
C128 C 0.47157 0.98496 0.5625 0.0
C129 C 0.48809 0.98463 0.5834 0.0
H130 H 0.21281 0.36209 0.77485 0.0
H131 H 0.18072 0.28603 0.7597 0.0
H132 H 0.24754 0.32382 0.72664 0.0
H133 H 0.20016 0.29613 0.69662 0.0
C134 C 0.20064 0.27827 0.70764 0.0
O135 O 0.21401 0.28257 0.72969 0.0
H136 H 0.18064 0.26929 0.71072 0.0
C137 C 0.21313 0.34544 0.76582 0.0
C138 C 0.23266 0.34552 0.75067 0.0
C139 C 0.19411 0.32415 0.76934 0.0
C140 C 0.19465 0.30295 0.75696 0.0
C141 C 0.2136 0.30311 0.74132 0.0
C142 C 0.23256 0.32427 0.73824 0.0
H143 H 0.82311 0.19648 0.78486 0.0
H144 H 0.78909 0.21764 0.71485 0.0
H145 H 0.85343 0.26593 0.74719 0.0
H146 H 0.81997 0.2962 0.7188 0.0
C147 C 0.80663 0.28019 0.71102 0.0
O148 O 0.81939 0.26063 0.71042 0.0
H149 H 0.7905 0.27499 0.72281 0.0
C150 C 0.82276 0.20919 0.76895 0.0
C151 C 0.84087 0.23143 0.76812 0.0
C152 C 0.8038 0.20372 0.74988 0.0
C153 C 0.80314 0.22125 0.72998 0.0
C154 C 0.82078 0.24367 0.72927 0.0
C155 C 0.8397 0.24863 0.74815 0.0
H156 H 0.49633 0.56616 0.54367 0.0
H157 H 0.52419 0.49743 0.5609 0.0
H158 H 0.54468 0.54254 0.49653 0.0
H159 H 0.53077 0.4888 0.49087 0.0
C160 C 0.53948 0.48163 0.5083 0.0
O161 O 0.54952 0.50123 0.52235 0.0
H162 H 0.52418 0.46873 0.5176 0.0
C163 C 0.50707 0.5525 0.53919 0.0
C164 C 0.51994 0.55669 0.51814 0.0
C165 C 0.50872 0.53142 0.55498 0.0
C166 C 0.5226 0.51377 0.54891 0.0
C167 C 0.53538 0.51772 0.52772 0.0
C168 C 0.53433 0.53934 0.51258 0.0
H169 H 0.58299 0.48647 0.05113 0.0
H170 H 0.5202 0.46123 -0.00049 0.0
H171 H 0.56884 0.53099 0.9854 0.0
H172 H 0.51428 0.53234 0.9764 0.0
C173 C 0.50755 0.5133 0.97007 0.0
O174 O 0.52788 0.50104 0.97061 0.0
H175 H 0.49334 0.50304 0.98239 0.0
C176 C 0.57212 0.48921 0.03411 0.0
C177 C 0.57899 0.51126 0.01928 0.0
C178 C 0.55101 0.47076 0.02723 0.0
C179 C 0.53626 0.47509 0.00562 0.0
C180 C 0.54242 0.49708 0.99116 0.0
C181 C 0.56392 0.51472 -0.00237 0.0
H182 H 0.66337 0.24681 0.29145 0.0
H183 H 0.68839 0.19317 0.25142 0.0
H184 H 0.72817 0.21383 0.31892 0.0
H185 H 0.76015 0.21273 0.27961 0.0
C186 C 0.74895 0.19632 0.27053 0.0
O187 O 0.72709 0.18712 0.2821 0.0
H188 H 0.7437 0.20282 0.25164 0.0
C189 C 0.67643 0.23435 0.28947 0.0
C190 C 0.69605 0.23201 0.30762 0.0
C191 C 0.6731 0.22009 0.26922 0.0
C192 C 0.69013 0.20385 0.26713 0.0
C193 C 0.71005 0.20182 0.2849 0.0
C194 C 0.71271 0.21555 0.30526 0.0
H195 H 0.4189 0.03483 0.0111 0.0
H196 H 0.44156 0.99467 0.95611 0.0
H197 H 0.49028 0.06099 0.97965 0.0
H198 H 0.48607 0.05337 0.92638 0.0
C199 C 0.48403 0.03271 0.92764 0.0
O200 O 0.48524 0.02411 0.95158 0.0
H201 H 0.46516 0.02481 0.91857 0.0
C202 C 0.43214 0.03288 -0.00179 0.0
C203 C 0.45481 0.05065 0.99681 0.0
C204 C 0.42691 0.01236 0.98375 0.0
C205 C 0.44505 0.00988 0.96786 0.0
C206 C 0.46783 0.02723 0.96655 0.0
C207 C 0.4727 0.04754 0.981 0.0
Mg208 Mg 0.213 0.84747 0.00553 0.0
O209 O 0.2506 0.87585 0.00066 0.0
O210 O 0.28253 0.85433 0.00811 0.0
Mg211 Mg 0.26595 0.81298 0.01406 0.0
C212 C 0.27437 0.87473 0.00302 0.0
C213 C 0.1911 0.89606 0.00294 0.0
O214 O 0.20984 0.90006 0.01992 0.0
O215 O 0.21429 0.83357 0.96834 0.0
O216 O 0.2466 0.81259 0.97531 0.0
O217 O 0.21736 0.8517 0.04502 0.0
O218 O 0.23287 0.82361 0.02789 0.0
C219 C 0.22894 0.82021 0.96125 0.0
C220 C 0.23072 0.83417 0.04712 0.0
O221 O 0.18839 0.87647 0.99154 0.0
Mg222 Mg 0.15474 0.5031 0.28931 0.0
O223 O 0.12884 0.50224 0.25376 0.0
O224 O 0.15466 0.50852 0.22385 0.0
Mg225 Mg 0.19635 0.51534 0.23952 0.0
C226 C 0.13231 0.50443 0.23131 0.0
C227 C 0.12399 0.4923 0.3334 0.0
O228 O 0.14743 0.50071 0.34216 0.0
O229 O 0.16421 0.4643 0.28457 0.0
O230 O 0.19237 0.47537 0.25675 0.0
O231 O 0.1575 0.54434 0.28994 0.0
O232 O 0.18423 0.52708 0.27233 0.0
C233 C 0.18084 0.45912 0.27171 0.0
C234 C 0.17702 0.54702 0.27737 0.0
O235 O 0.12019 0.48845 0.31112 0.0
Mg236 Mg 0.79291 0.67414 0.05256 0.0
O237 O 0.75429 0.64693 0.04888 0.0
O238 O 0.72359 0.66988 0.04716 0.0
Mg239 Mg 0.74183 0.71116 0.04762 0.0
C240 C 0.73077 0.64892 0.04752 0.0
C241 C 0.83855 0.64768 0.05543 0.0
O242 O 0.84778 0.66953 0.06387 0.0
O243 O 0.78879 0.68592 0.01191 0.0
O244 O 0.75951 0.71018 0.012 0.0
O245 O 0.79122 0.67339 0.09288 0.0
O246 O 0.77583 0.70033 0.06689 0.0
C247 C 0.77513 0.701 0.0011 0.0
C248 C 0.77909 0.69183 0.08884 0.0
O249 O 0.81508 0.64306 0.04774 0.0
Mg250 Mg 0.90886 0.04692 0.24959 0.0
O251 O 0.88243 0.00865 0.2479 0.0
O252 O 0.90696 0.98034 0.24534 0.0
Mg253 Mg 0.94861 9e-05 0.24505 0.0
C254 C 0.8851 0.98614 0.24639 0.0
C255 C 0.87681 0.08699 0.25189 0.0
O256 O 0.89532 0.09752 0.23848 0.0
O257 O 0.92224 0.0371 0.28882 0.0
O258 O 0.94765 0.0102 0.28395 0.0
O259 O 0.9061 0.05177 0.20931 0.0
O260 O 0.93556 0.03449 0.23099 0.0
C261 C 0.93778 0.02287 0.29743 0.0
C262 C 0.92539 0.04051 0.21008 0.0
O263 O 0.87643 0.06464 0.26041 0.0
Mg264 Mg 0.29321 0.17371 0.55394 0.0
O265 O 0.25402 0.14759 0.54878 0.0
O266 O 0.22469 0.17208 0.54399 0.0
Mg267 Mg 0.24393 0.21283 0.54706 0.0
C268 C 0.23076 0.15053 0.5452 0.0
C269 C 0.33825 0.14645 0.55729 0.0
O270 O 0.3477 0.16832 0.5656 0.0
O271 O 0.29128 0.18635 0.51331 0.0
O272 O 0.26357 0.21238 0.51261 0.0
O273 O 0.28988 0.17246 0.59405 0.0
O274 O 0.2763 0.20024 0.56779 0.0
C275 C 0.27916 0.2026 0.50228 0.0
C276 C 0.27842 0.19134 0.58972 0.0
O277 O 0.31478 0.14205 0.54955 0.0
Mg278 Mg 0.41075 0.54543 0.74742 0.0
O279 O 0.3837 0.50751 0.74585 0.0
O280 O 0.40755 0.47861 0.74331 0.0
Mg281 Mg 0.44941 0.4977 0.7428 0.0
C282 C 0.3859 0.48486 0.74441 0.0
C283 C 0.37944 0.58615 0.75006 0.0
O284 O 0.39794 0.59655 0.73659 0.0
O285 O 0.42411 0.53543 0.78658 0.0
O286 O 0.44892 0.50798 0.78172 0.0
O287 O 0.4079 0.55027 0.70715 0.0
O288 O 0.43701 0.53244 0.72876 0.0
C289 C 0.43937 0.52093 0.79519 0.0
C290 C 0.42691 0.53865 0.70787 0.0
O291 O 0.37882 0.56372 0.75843 0.0
Mg292 Mg 0.71429 0.34857 0.50541 0.0
O293 O 0.75246 0.376 0.5005 0.0
O294 O 0.78359 0.35345 0.50753 0.0
Mg295 Mg 0.76582 0.31237 0.51325 0.0
C296 C 0.77607 0.37419 0.50267 0.0
C297 C 0.66682 0.37141 0.49041 0.0
O298 O 0.6577 0.34745 0.49378 0.0
O299 O 0.71469 0.33472 0.46804 0.0
O300 O 0.7462 0.31271 0.47461 0.0
O301 O 0.71919 0.35264 0.54488 0.0
O302 O 0.73339 0.32389 0.52744 0.0
C303 C 0.72877 0.32091 0.46074 0.0
C304 C 0.73182 0.33454 0.54677 0.0
O305 O 0.69092 0.37864 0.49196 0.0
Mg306 Mg 0.65424 0.00128 0.79116 0.0
O307 O 0.62803 0.00018 0.75569 0.0
O308 O 0.65332 0.00425 0.72552 0.0
Mg309 Mg 0.69495 0.00877 0.74089 0.0
C310 C 0.63117 0.00153 0.73319 0.0
C311 C 0.62314 0.99364 0.83526 0.0
O312 O 0.64658 0.00198 0.84406 0.0
O313 O 0.6617 0.96162 0.78805 0.0
O314 O 0.68812 0.96871 0.75847 0.0
O315 O 0.65902 0.04265 0.79017 0.0
O316 O 0.68452 0.02302 0.77342 0.0
C317 C 0.67625 0.95414 0.77446 0.0
C318 C 0.67839 0.04377 0.77768 0.0
O319 O 0.61946 0.98895 0.81318 0.0
Mg320 Mg 0.0318 0.27761 0.93203 0.0
O321 O 0.99438 0.26969 0.90784 0.0
O322 O 0.96353 0.25232 0.93153 0.0
Mg323 Mg 0.98092 0.24968 0.97046 0.0
C324 C 0.97107 0.26015 0.91078 0.0
C325 C 0.0743 0.29318 0.90101 0.0
O326 O 0.0811 0.27768 0.9186 0.0
O327 O 0.01963 0.31146 0.94569 0.0
O328 O 0.98995 0.29265 0.97009 0.0
O329 O 0.03823 0.23949 0.92749 0.0
O330 O 0.01801 0.24874 0.95717 0.0
C331 C 0.00339 0.31241 0.96079 0.0
C332 C 0.02563 0.23208 0.94618 0.0
O333 O 0.05279 0.29982 0.90115 0.0
Mg334 Mg 0.53263 0.77709 0.43283 0.0
O335 O 0.49508 0.76996 0.40872 0.0
O336 O 0.4642 0.75279 0.43247 0.0
Mg337 Mg 0.48174 0.74924 0.47127 0.0
C338 C 0.4717 0.76077 0.41174 0.0
C339 C 0.57521 0.79249 0.402 0.0
O340 O 0.58177 0.77689 0.41961 0.0
O341 O 0.52103 0.811 0.44706 0.0
O342 O 0.49134 0.79214 0.47143 0.0
O343 O 0.53846 0.73893 0.42765 0.0
O344 O 0.51859 0.74798 0.45765 0.0
C345 C 0.50492 0.81191 0.46231 0.0
C346 C 0.52588 0.73138 0.44632 0.0
O347 O 0.55382 0.79938 0.40209 0.0
Mg348 Mg 0.98059 0.74015 0.61437 0.0
O349 O 0.01758 0.73536 0.6375 0.0
O350 O 0.0465 0.73302 0.61188 0.0
Mg351 Mg 0.02805 0.73423 0.57315 0.0
C352 C 0.04016 0.73338 0.63329 0.0
C353 C 0.93846 0.74448 0.64549 0.0
O354 O 0.92726 0.7318 0.62727 0.0
O355 O 0.99848 0.78066 0.60347 0.0
O356 O 0.02415 0.77503 0.57585 0.0
O357 O 0.9676 0.69854 0.61435 0.0
O358 O 0.99056 0.72106 0.58694 0.0
C359 C 0.01392 0.78924 0.58736 0.0
C360 C 0.97956 0.69944 0.59515 0.0
O361 O 0.96259 0.75158 0.64641 0.0
Mg362 Mg 0.47655 0.24139 0.11452 0.0
O363 O 0.5134 0.23626 0.13776 0.0
O364 O 0.54248 0.23421 0.11221 0.0
Mg365 Mg 0.52441 0.23612 0.07338 0.0
C366 C 0.536 0.23429 0.1336 0.0
C367 C 0.44387 0.23609 0.15872 0.0
O368 O 0.4414 0.21275 0.15361 0.0
O369 O 0.49459 0.282 0.10419 0.0
O370 O 0.52067 0.27686 0.07677 0.0
O371 O 0.4636 0.19979 0.11378 0.0
O372 O 0.48676 0.22271 0.08679 0.0
C373 C 0.51031 0.29087 0.0884 0.0
C374 C 0.47573 0.20098 0.09466 0.0
O375 O 0.45846 0.25276 0.14667 0.0
C376 C 0.20544 0.77249 0.82678 0.0
C377 C 0.20255 0.74645 0.82927 0.0
C378 C 0.20938 0.78659 0.8471 0.0
C379 C 0.20983 0.77427 0.87043 0.0
C380 C 0.20622 0.74789 0.87296 0.0
C381 C 0.20294 0.73433 0.85235 0.0
C382 C 0.21373 0.81467 0.84364 0.0
C383 C 0.20604 0.73398 0.89746 0.0
C384 C 0.24458 0.80569 0.92523 0.0
C385 C 0.2244 0.81151 0.93658 0.0
C386 C 0.24024 0.79472 0.90307 0.0
C387 C 0.215 0.78882 0.89228 0.0
C388 C 0.19464 0.79534 0.90328 0.0
C389 C 0.19963 0.8069 0.92518 0.0
C390 C 0.26258 0.78868 0.89164 0.0
C391 C 0.16742 0.78896 0.89259 0.0
H392 H 0.20531 0.78184 0.80889 0.0
H393 H 0.20049 0.71416 0.85424 0.0
H394 H 0.19968 0.82199 0.85307 0.0
H395 H 0.233 0.82262 0.8517 0.0
H396 H 0.21218 0.82137 0.82434 0.0
H397 H 0.20145 0.71344 0.8963 0.0
H398 H 0.225 0.73882 0.9075 0.0
H399 H 0.19182 0.73957 0.90807 0.0
H400 H 0.26379 0.8094 0.93388 0.0
H401 H 0.18394 0.81118 0.93397 0.0
H402 H 0.26236 0.79587 0.87248 0.0
H403 H 0.26107 0.76817 0.89207 0.0
H404 H 0.28119 0.79671 0.90102 0.0
H405 H 0.16589 0.79608 0.87345 0.0
H406 H 0.154 0.79674 0.90245 0.0
H407 H 0.16136 0.7684 0.8931 0.0
C408 C 0.02453 0.54074 0.40269 0.0
C409 C 0.00718 0.52308 0.41532 0.0
C410 C 0.0427 0.53339 0.38966 0.0
C411 C 0.04358 0.50773 0.38924 0.0
C412 C 0.02609 0.4898 0.402 0.0
C413 C 0.00801 0.4977 0.4148 0.0
C414 C 0.06092 0.55313 0.37625 0.0
C415 C 0.02647 0.46231 0.4021 0.0
C416 C 0.07749 0.49149 0.33753 0.0
C417 C 0.10235 0.49199 0.34828 0.0
C418 C 0.05782 0.4955 0.3509 0.0
C419 C 0.06309 0.49992 0.37563 0.0
C420 C 0.08775 0.49893 0.38686 0.0
C421 C 0.10707 0.49505 0.37306 0.0
C422 C 0.03178 0.49639 0.33822 0.0
C423 C 0.09413 0.50323 0.41323 0.0
H424 H 0.02378 0.56036 0.40287 0.0
H425 H 0.99439 0.48404 0.42437 0.0
H426 H 0.0809 0.55216 0.38303 0.0
H427 H 0.05892 0.54975 0.35683 0.0
H428 H 0.05756 0.57224 0.37818 0.0
H429 H 0.01168 0.45077 0.41301 0.0
H430 H 0.02326 0.45636 0.38342 0.0
H431 H 0.04548 0.45856 0.40941 0.0
H432 H 0.07364 0.48918 0.31841 0.0
H433 H 0.12616 0.49529 0.38158 0.0
H434 H 0.02815 0.51574 0.33727 0.0
H435 H 0.0167 0.48445 0.34846 0.0
H436 H 0.03005 0.49022 0.31963 0.0
H437 H 0.09362 0.52289 0.41621 0.0
H438 H 0.11335 0.49938 0.41978 0.0
H439 H 0.07975 0.49125 0.42422 0.0
C440 C 0.7629 0.74881 0.86261 0.0
C441 C 0.7858 0.76309 0.85519 0.0
C442 C 0.76201 0.7357 0.88533 0.0
C443 C 0.78444 0.73744 0.90123 0.0
C444 C 0.8078 0.75117 0.89346 0.0
C445 C 0.80824 0.76364 0.87043 0.0
C446 C 0.73683 0.72089 0.89271 0.0
C447 C 0.83203 0.754 0.90997 0.0
C448 C 0.77381 0.73375 0.96759 0.0
C449 C 0.77828 0.70984 0.97555 0.0
C450 C 0.77624 0.74296 0.94363 0.0
C451 C 0.78275 0.72773 0.92689 0.0
C452 C 0.78732 0.70353 0.93473 0.0
C453 C 0.78536 0.69496 0.95911 0.0
C454 C 0.77177 0.76909 0.93625 0.0
C455 C 0.79382 0.68659 0.9173 0.0
H456 H 0.74559 0.74817 0.85073 0.0
H457 H 0.82593 0.77481 0.86476 0.0
H458 H 0.73926 0.70215 0.90071 0.0
H459 H 0.72977 0.73049 0.90666 0.0
H460 H 0.72208 0.71864 0.87729 0.0
H461 H 0.84902 0.76314 0.90046 0.0
H462 H 0.83018 0.76543 0.92493 0.0
H463 H 0.83528 0.73557 0.91811 0.0
H464 H 0.76868 0.74551 0.98025 0.0
H465 H 0.78874 0.67645 0.96517 0.0
H466 H 0.75527 0.76846 0.92258 0.0
H467 H 0.7887 0.78021 0.9279 0.0
H468 H 0.76793 0.7789 0.95171 0.0
H469 H 0.77808 0.68309 0.90289 0.0
H470 H 0.79701 0.6684 0.92624 0.0
H471 H 0.81124 0.69568 0.90847 0.0
C472 C 0.00596 0.03489 0.42986 0.0
C473 C 0.99475 0.01667 0.44669 0.0
C474 C 0.99521 0.03673 0.40603 0.0
C475 C 0.97278 0.01983 0.39888 0.0
C476 C 0.96116 0.00164 0.41596 0.0
C477 C 0.9724 0.00016 0.43965 0.0
C478 C 0.00831 0.05624 0.38834 0.0
C479 C 0.93727 0.98327 0.40904 0.0
C480 C 0.93621 0.03549 0.33947 0.0
C481 C 0.94553 0.0214 0.32368 0.0
C482 C 0.94457 0.03491 0.3641 0.0
C483 C 0.96271 0.01995 0.37312 0.0
C484 C 0.97185 0.0054 0.35738 0.0
C485 C 0.96313 0.00626 0.33295 0.0
C486 C 0.9343 0.05056 0.38041 0.0
C487 C 0.99122 0.98921 0.36626 0.0
H488 H 0.02343 0.04743 0.43531 0.0
H489 H 0.96392 0.98588 0.45262 0.0
H490 H 0.01543 0.04702 0.37413 0.0
H491 H 0.99457 0.06757 0.37932 0.0
H492 H 0.02469 0.0689 0.39709 0.0
H493 H 0.92954 0.97156 0.42482 0.0
H494 H 0.92232 0.99327 0.40016 0.0
H495 H 0.94149 0.97085 0.39589 0.0
H496 H 0.92259 0.04721 0.33256 0.0
H497 H 0.97048 0.99522 0.32103 0.0
H498 H 0.95012 0.06458 0.38806 0.0
H499 H 0.92584 0.03866 0.39574 0.0
H500 H 0.91956 0.06043 0.37082 0.0
H501 H 0.00904 0.00094 0.37366 0.0
H502 H 0.99601 0.97863 0.35178 0.0
H503 H 0.98384 0.97576 0.38104 0.0
C504 C 0.19822 0.24228 0.68172 0.0
C505 C 0.21313 0.26207 0.69382 0.0
C506 C 0.20914 0.22875 0.6666 0.0
C507 C 0.23558 0.23528 0.66343 0.0
C508 C 0.25086 0.25476 0.67622 0.0
C509 C 0.2394 0.26809 0.69109 0.0
C510 C 0.19214 0.2083 0.65311 0.0
C511 C 0.27911 0.26227 0.67338 0.0
C512 C 0.26729 0.19117 0.63247 0.0
C513 C 0.26735 0.20208 0.60884 0.0
C514 C 0.25707 0.20175 0.65055 0.0
C515 C 0.24663 0.22364 0.64479 0.0
C516 C 0.24668 0.23467 0.62098 0.0
C517 C 0.25715 0.22387 0.6034 0.0
C518 C 0.25751 0.18959 0.6758 0.0
C519 C 0.23569 0.25798 0.61402 0.0
H520 H 0.17785 0.23784 0.68355 0.0
H521 H 0.25086 0.28364 0.70016 0.0
H522 H 0.19087 0.21402 0.63358 0.0
H523 H 0.20035 0.19104 0.65541 0.0
H524 H 0.17252 0.204 0.6592 0.0
H525 H 0.28874 0.2759 0.68647 0.0
H526 H 0.28839 0.24566 0.67577 0.0
H527 H 0.28212 0.27081 0.65492 0.0
H528 H 0.27526 0.17442 0.63686 0.0
H529 H 0.25753 0.23275 0.58537 0.0
H530 H 0.23778 0.18424 0.68143 0.0
H531 H 0.26828 0.20301 0.68853 0.0
H532 H 0.2664 0.17271 0.67739 0.0
H533 H 0.21538 0.25476 0.61807 0.0
H534 H 0.23683 0.26398 0.59461 0.0
H535 H 0.24608 0.27344 0.62474 0.0
C536 C 0.50113 0.54967 0.59234 0.0
C537 C 0.49706 0.52906 0.57829 0.0
C538 C 0.48905 0.54879 0.6136 0.0
C539 C 0.47242 0.52673 0.62108 0.0
C540 C 0.46869 0.50559 0.60731 0.0
C541 C 0.48118 0.50697 0.58606 0.0
C542 C 0.49382 0.57167 0.62787 0.0
C543 C 0.45109 0.48177 0.61474 0.0
C544 C 0.45948 0.52316 0.68689 0.0
C545 C 0.43686 0.5328 0.68561 0.0
C546 C 0.47059 0.5198 0.66595 0.0
C547 C 0.4588 0.52626 0.64316 0.0
C548 C 0.43534 0.53489 0.64172 0.0
C549 C 0.42468 0.53812 0.66297 0.0
C550 C 0.49564 0.51061 0.66828 0.0
C551 C 0.42212 0.54187 0.61775 0.0
H552 H 0.51374 0.56664 0.58657 0.0
H553 H 0.47795 0.49105 0.57517 0.0
H554 H 0.47564 0.57835 0.62879 0.0
H555 H 0.50112 0.567 0.6466 0.0
H556 H 0.50778 0.58713 0.61986 0.0
H557 H 0.45108 0.46669 0.60266 0.0
H558 H 0.4568 0.47524 0.63342 0.0
H559 H 0.43131 0.48526 0.61453 0.0
H560 H 0.4691 0.51905 0.70428 0.0
H561 H 0.40713 0.54545 0.66182 0.0
H562 H 0.51107 0.526 0.66263 0.0
H563 H 0.49478 0.49533 0.65627 0.0
H564 H 0.50085 0.5038 0.68704 0.0
H565 H 0.43373 0.55874 0.60919 0.0
H566 H 0.4028 0.54578 0.61958 0.0
H567 H 0.42034 0.52668 0.60543 0.0
C568 C 0.77178 0.27723 0.67726 0.0
C569 C 0.79659 0.28761 0.68596 0.0
C570 C 0.76189 0.28448 0.65416 0.0
C571 C 0.77736 0.30228 0.63935 0.0
C572 C 0.80276 0.31217 0.6478 0.0
C573 C 0.8121 0.30464 0.67103 0.0
C574 C 0.73474 0.27346 0.64578 0.0
C575 C 0.8199 0.331 0.63246 0.0
C576 C 0.7571 0.30647 0.57234 0.0
C577 C 0.74448 0.32688 0.57018 0.0
C578 C 0.76828 0.29849 0.59467 0.0
C579 C 0.76664 0.31112 0.61534 0.0
C580 C 0.75417 0.33189 0.61323 0.0
C581 C 0.74328 0.33953 0.59068 0.0
C582 C 0.7815 0.27632 0.5962 0.0
C583 C 0.75199 0.34581 0.63488 0.0
H584 H 0.75999 0.26371 0.68872 0.0
H585 H 0.83145 0.31229 0.67769 0.0
H586 H 0.72328 0.28846 0.64228 0.0
H587 H 0.73431 0.2646 0.62861 0.0
H588 H 0.72551 0.25932 0.65922 0.0
H589 H 0.83947 0.33612 0.64131 0.0
H590 H 0.82123 0.32348 0.61492 0.0
H591 H 0.81163 0.34816 0.62859 0.0
H592 H 0.75797 0.29646 0.55665 0.0
H593 H 0.73356 0.35531 0.58919 0.0
H594 H 0.77149 0.26105 0.60808 0.0
H595 H 0.80136 0.28141 0.60431 0.0
H596 H 0.78204 0.26919 0.57829 0.0
H597 H 0.74123 0.33303 0.64838 0.0
H598 H 0.74215 0.3619 0.63011 0.0
H599 H 0.77125 0.35274 0.64357 0.0
C600 C 0.51983 0.02346 0.63189 0.0
C601 C 0.50638 0.001 0.62314 0.0
C602 C 0.53876 0.02357 0.65115 0.0
C603 C 0.54446 0.0007 0.66194 0.0
C604 C 0.53032 0.97797 0.65376 0.0
C605 C 0.51147 0.9784 0.63452 0.0
C606 C 0.55336 0.04822 0.65933 0.0
C607 C 0.5357 0.95317 0.66479 0.0
C608 C 0.61182 0.00081 0.69056 0.0
C609 C 0.60865 0.00062 0.71522 0.0
C610 C 0.59111 0.00075 0.67316 0.0
C611 C 0.56645 0.00054 0.68047 0.0
C612 C 0.56299 0.00017 0.7053 0.0
C613 C 0.5841 0.00018 0.72238 0.0
C614 C 0.59566 0.00103 0.64689 0.0
C615 C 0.53701 -5e-05 0.7138 0.0
H616 H 0.51623 0.04101 0.62311 0.0
H617 H 0.50088 0.96095 0.62818 0.0
H618 H 0.55333 0.04865 0.67912 0.0
H619 H 0.57356 0.05056 0.65513 0.0
H620 H 0.54526 0.06426 0.65049 0.0
H621 H 0.52187 0.93721 0.65753 0.0
H622 H 0.55521 0.95116 0.66116 0.0
H623 H 0.53506 0.95219 0.68461 0.0
H624 H 0.63062 0.0011 0.68472 0.0
H625 H 0.58137 8e-05 0.74134 0.0
H626 H 0.59002 0.0178 0.63694 0.0
H627 H 0.58366 0.98449 0.63881 0.0
H628 H 0.61595 0.00102 0.64418 0.0
H629 H 0.52969 0.0168 0.70602 0.0
H630 H 0.53741 -0.00057 0.73373 0.0
H631 H 0.52328 0.98353 0.70742 0.0
C632 C 0.87483 0.21843 0.79767 0.0
C633 C 0.86078 0.23672 0.7883 0.0
C634 C 0.89336 0.22292 0.81706 0.0
C635 C 0.89774 0.24616 0.82751 0.0
C636 C 0.88373 0.26477 0.81801 0.0
C637 C 0.8655 0.25987 0.79842 0.0
C638 C 0.9081 0.2027 0.8265 0.0
C639 C 0.88765 0.28967 0.82883 0.0
C640 C 0.92641 0.24737 0.89227 0.0
C641 C 0.9522 0.25747 0.88944 0.0
C642 C 0.90847 0.24391 0.8723 0.0
C643 C 0.91645 0.25066 0.84885 0.0
C644 C 0.94235 0.26115 0.84582 0.0
C645 C 0.9599 0.26445 0.86614 0.0
C646 C 0.88101 0.23275 0.87628 0.0
C647 C 0.95157 0.26853 0.82109 0.0
H648 H 0.8714 0.20062 0.7897 0.0
H649 H 0.85449 0.27396 0.79134 0.0
H650 H 0.92891 0.20989 0.82621 0.0
H651 H 0.90426 0.19693 0.8455 0.0
H652 H 0.90303 0.18601 0.81584 0.0
H653 H 0.87568 0.30236 0.81897 0.0
H654 H 0.88291 0.2869 0.84787 0.0
H655 H 0.90799 0.29888 0.82878 0.0
H656 H 0.92018 0.24194 0.91015 0.0
H657 H 0.97975 0.27228 0.8637 0.0
H658 H 0.87538 0.21488 0.86753 0.0
H659 H 0.86826 0.24542 0.86786 0.0
H660 H 0.87773 0.22919 0.89569 0.0
H661 H 0.94831 0.25193 0.81036 0.0
H662 H 0.9722 0.27695 0.82181 0.0
H663 H 0.94055 0.28211 0.81142 0.0
C664 C 0.50765 0.93675 0.52748 0.0
C665 C 0.49048 0.95126 0.51611 0.0
C666 C 0.51046 0.91454 0.51807 0.0
C667 C 0.49556 0.90659 0.49687 0.0
C668 C 0.47808 0.92118 0.48539 0.0
C669 C 0.47566 0.94329 0.49523 0.0
C670 C 0.52916 0.89946 0.53095 0.0
C671 C 0.46176 0.91329 0.46285 0.0
C672 C 0.51747 0.85867 0.46207 0.0
C673 C 0.50209 0.8364 0.47032 0.0
C674 C 0.5154 0.88169 0.47036 0.0
C675 C 0.49755 0.8825 0.48729 0.0
C676 C 0.48177 0.86017 0.49544 0.0
C677 C 0.48421 0.83747 0.48688 0.0
C678 C 0.53253 0.90513 0.46122 0.0
C679 C 0.46245 0.86021 0.51345 0.0
H680 H 0.51886 0.94282 0.5438 0.0
H681 H 0.46215 0.95439 0.48662 0.0
H682 H 0.51888 0.88075 0.53706 0.0
H683 H 0.54311 0.89663 0.51846 0.0
H684 H 0.5398 0.90856 0.54684 0.0
H685 H 0.44969 0.92709 0.45571 0.0
H686 H 0.47403 0.91074 0.4487 0.0
H687 H 0.44915 0.89508 0.46666 0.0
H688 H 0.53132 0.85812 0.4493 0.0
H689 H 0.47215 0.82047 0.49339 0.0
H690 H 0.54478 0.91388 0.47647 0.0
H691 H 0.52083 0.91882 0.45298 0.0
H692 H 0.545 0.90145 0.44767 0.0
H693 H 0.47231 0.86752 0.53043 0.0
H694 H 0.45129 0.8413 0.51764 0.0
H695 H 0.449 0.87272 0.50643 0.0
C696 C 0.14951 0.31044 0.7823 0.0
C697 C 0.1745 0.32363 0.78674 0.0
C698 C 0.13165 0.30775 0.79962 0.0
C699 C 0.13877 0.31891 0.82176 0.0
C700 C 0.16342 0.33349 0.82578 0.0
C701 C 0.18105 0.33542 0.80839 0.0
C702 C 0.10565 0.29181 0.79475 0.0
C703 C 0.17166 0.34596 0.84902 0.0
C704 C 0.08754 0.32068 0.86424 0.0
C705 C 0.09056 0.30042 0.88066 0.0
C706 C 0.10319 0.32714 0.84496 0.0
C707 C 0.12181 0.31266 0.84185 0.0
C708 C 0.12463 0.29203 0.85824 0.0
C709 C 0.10918 0.28634 0.87751 0.0
C710 C 0.10001 0.34955 0.82808 0.0
C711 C 0.14395 0.27584 0.85539 0.0
H712 H 0.144 0.30173 0.76545 0.0
H713 H 0.20033 0.34541 0.81226 0.0
H714 H 0.104 0.27455 0.80688 0.0
H715 H 0.09042 0.30176 0.79859 0.0
H716 H 0.1022 0.28645 0.77584 0.0
H717 H 0.18994 0.35944 0.84797 0.0
H718 H 0.15679 0.35591 0.85376 0.0
H719 H 0.1742 0.33162 0.86385 0.0
H720 H 0.07321 0.33163 0.86664 0.0
H721 H 0.11147 0.27048 0.88996 0.0
H722 H 0.09545 0.3439 0.80936 0.0
H723 H 0.1182 0.36324 0.82834 0.0
H724 H 0.08467 0.35887 0.83294 0.0
H725 H 0.1406 0.26826 0.83736 0.0
H726 H 0.14314 0.25999 0.86927 0.0
H727 H 0.16351 0.28713 0.85668 0.0
C728 C 0.54231 0.59709 0.49999 0.0
C729 C 0.51953 0.58022 0.50321 0.0
C730 C 0.54197 0.62114 0.48922 0.0
C731 C 0.51829 0.6282 0.48108 0.0
C732 C 0.49531 0.61072 0.48319 0.0
C733 C 0.49619 0.587 0.49453 0.0
C734 C 0.56686 0.63935 0.4876 0.0
C735 C 0.46977 0.61733 0.4742 0.0
C736 C 0.51659 0.69737 0.47866 0.0
C737 C 0.52091 0.70469 0.45457 0.0
C738 C 0.5152 0.67239 0.48743 0.0
C739 C 0.5176 0.65428 0.47157 0.0
C740 C 0.52062 0.6614 0.44695 0.0
C741 C 0.52255 0.68659 0.4388 0.0
C742 C 0.51229 0.66558 0.51388 0.0
C743 C 0.52256 0.64254 0.42937 0.0
H744 H 0.5603 0.59188 0.50701 0.0
H745 H 0.47859 0.57385 0.49707 0.0
H746 H 0.569 0.64702 0.46875 0.0
H747 H 0.56688 0.65527 0.49862 0.0
H748 H 0.58366 0.63067 0.494 0.0
H749 H 0.45403 0.6009 0.47502 0.0
H750 H 0.46545 0.63165 0.48524 0.0
H751 H 0.47027 0.62544 0.45534 0.0
H752 H 0.51545 0.71134 0.49091 0.0
H753 H 0.52569 0.69216 0.4201 0.0
H754 H 0.52939 0.65848 0.52226 0.0
H755 H 0.49555 0.65045 0.5163 0.0
H756 H 0.50989 0.6817 0.52365 0.0
H757 H 0.54048 0.63516 0.43387 0.0
H758 H 0.52245 0.65068 0.41048 0.0
H759 H 0.50647 0.62651 0.43068 0.0
C760 C 0.84397 0.79092 0.72678 0.0
C761 C 0.83716 0.77346 0.74594 0.0
C762 C 0.86294 0.7881 0.71202 0.0
C763 C 0.87545 0.76738 0.71665 0.0
C764 C 0.86976 0.75062 0.73697 0.0
C765 C 0.85073 0.75393 0.75143 0.0
C766 C 0.86854 0.80652 0.69069 0.0
C767 C 0.88269 0.72836 0.74265 0.0
C768 C 0.89642 0.74138 0.66258 0.0
C769 C 0.92286 0.75037 0.66411 0.0
C770 C 0.88096 0.74677 0.67958 0.0
C771 C 0.89209 0.76159 0.69871 0.0
C772 C 0.91878 0.77071 0.70049 0.0
C773 C 0.93387 0.76497 0.68317 0.0
C774 C 0.85262 0.73659 0.67698 0.0
C775 C 0.93133 0.78658 0.72062 0.0
H776 H 0.8337 0.80623 0.72276 0.0
H777 H 0.84571 0.74063 0.76649 0.0
H778 H 0.88943 0.81287 0.69002 0.0
H779 H 0.8613 0.79733 0.67382 0.0
H780 H 0.85945 0.82307 0.69118 0.0
H781 H 0.87832 0.71879 0.76049 0.0
H782 H 0.87623 0.71482 0.72868 0.0
H783 H 0.90369 0.7341 0.74237 0.0
H784 H 0.88766 0.73006 0.64798 0.0
H785 H 0.95426 0.77201 0.68451 0.0
H786 H 0.84184 0.75216 0.67509 0.0
H787 H 0.84679 0.72482 0.69338 0.0
H788 H 0.84696 0.72525 0.66114 0.0
H789 H 0.923 0.80371 0.71999 0.0
H790 H 0.9523 0.79207 0.7196 0.0
H791 H 0.92762 0.77632 0.73827 0.0
C792 C 0.0229 0.93255 0.54134 0.0
C793 C 0.0483 0.94438 0.53868 0.0
C794 C 0.01703 0.90804 0.55157 0.0
C795 C 0.03704 0.89517 0.56009 0.0
C796 C 0.06271 0.90754 0.55905 0.0
C797 C 0.06804 0.93183 0.54809 0.0
C798 C 0.98939 0.89544 0.55197 0.0
C799 C 0.08462 0.89469 0.56846 0.0
C800 C 0.02008 0.83383 0.59791 0.0
C801 C 0.01963 0.8164 0.58085 0.0
C802 C 0.02617 0.85961 0.59161 0.0
C803 C 0.03113 0.86803 0.56755 0.0
C804 C 0.03024 0.85043 0.55023 0.0
C805 C 0.02486 0.8249 0.55717 0.0
C806 C 0.02763 0.87779 0.61071 0.0
C807 C 0.03474 0.85855 0.52424 0.0
H808 H 0.00745 0.94223 0.53484 0.0
H809 H 0.08774 0.94051 0.54605 0.0
H810 H 0.98542 0.88007 0.53966 0.0
H811 H 0.98532 0.88706 0.57026 0.0
H812 H 0.97609 0.90854 0.54627 0.0
H813 H 0.10315 0.90791 0.56959 0.0
H814 H 0.08128 0.88534 0.58657 0.0
H815 H 0.08604 0.8801 0.55634 0.0
H816 H 0.01622 0.82732 0.61628 0.0
H817 H 0.02429 0.8115 0.54385 0.0
H818 H 0.01371 0.89036 0.60569 0.0
H819 H 0.04691 0.88967 0.61208 0.0
H820 H 0.0237 0.86825 0.62866 0.0
H821 H 0.02111 0.87072 0.51674 0.0
H822 H 0.03251 0.84249 0.51286 0.0
H823 H 0.05427 0.8696 0.52302 0.0
C824 C 0.14192 0.70067 0.74 0.0
C825 C 0.15631 0.72212 0.74995 0.0
C826 C 0.1224 0.70233 0.72161 0.0
C827 C 0.11719 0.72602 0.71284 0.0
C828 C 0.13148 0.74773 0.72295 0.0
C829 C 0.15081 0.74552 0.74142 0.0
C830 C 0.1075 0.67872 0.71143 0.0
C831 C 0.12664 0.77334 0.71398 0.0
C832 C 0.08526 0.73183 0.64944 0.0
C833 C 0.05978 0.73158 0.65377 0.0
C834 C 0.10409 0.73019 0.66847 0.0
C835 C 0.09736 0.72812 0.69252 0.0
C836 C 0.07172 0.72785 0.69709 0.0
C837 C 0.05326 0.72964 0.67768 0.0
C838 C 0.13123 0.73066 0.66283 0.0
C839 C 0.06377 0.72555 0.72249 0.0
H840 H 0.14582 0.68251 0.74674 0.0
H841 H 0.16203 0.76218 0.74884 0.0
H842 H 0.08679 0.67758 0.71298 0.0
H843 H 0.11027 0.67895 0.69201 0.0
H844 H 0.11337 0.66172 0.72073 0.0
H845 H 0.13888 0.78831 0.72422 0.0
H846 H 0.13033 0.77691 0.69469 0.0
H847 H 0.10634 0.77443 0.71535 0.0
H848 H 0.09061 0.7334 0.63109 0.0
H849 H 0.03367 0.7294 0.68129 0.0
H850 H 0.1375 0.71321 0.67038 0.0
H851 H 0.14421 0.74634 0.6714 0.0
H852 H 0.13341 0.73269 0.64317 0.0
H853 H 0.06806 0.70798 0.73193 0.0
H854 H 0.0431 0.72567 0.72302 0.0
H855 H 0.07486 0.74113 0.73265 0.0
C856 C 0.94364 0.58437 0.51404 0.0
C857 C 0.96289 0.57046 0.51287 0.0
C858 C 0.94763 0.60503 0.52808 0.0
C859 C 0.97136 0.61184 0.54156 0.0
C860 C 0.99083 0.59775 0.5406 0.0
C861 C 0.98644 0.57734 0.52612 0.0
C862 C 0.92648 0.61974 0.52828 0.0
C863 C 0.01626 0.60418 0.55495 0.0
C864 C 0.98794 0.67892 0.55918 0.0
C865 C 0.97983 0.67673 0.58252 0.0
C866 C 0.98591 0.6579 0.54589 0.0
C867 C 0.97579 0.63399 0.55628 0.0
C868 C 0.96851 0.63153 0.58019 0.0
C869 C 0.97044 0.65294 0.59297 0.0
C870 C 0.99364 0.66141 0.52038 0.0
C871 C 0.95799 0.60635 0.59205 0.0
H872 H 0.92552 0.57929 0.50363 0.0
H873 H 0.00129 0.56649 0.52544 0.0
H874 H 0.92104 0.61979 0.54691 0.0
H875 H 0.93324 0.63943 0.52188 0.0
H876 H 0.9092 0.61208 0.51672 0.0
H877 H 0.0292 0.59108 0.55265 0.0
H878 H 0.02579 0.62334 0.54935 0.0
H879 H 0.01333 0.60387 0.57435 0.0
H880 H 0.99509 0.69722 0.55089 0.0
H881 H 0.96421 0.65106 0.61102 0.0
H882 H 0.97664 0.65585 0.50772 0.0
H883 H 0.00747 0.64926 0.51797 0.0
H884 H 0.00238 0.68103 0.51537 0.0
H885 H 0.93936 0.59859 0.58262 0.0
H886 H 0.9552 0.60733 0.61134 0.0
H887 H 0.97106 0.59313 0.59065 0.0
C888 C 0.76647 0.87763 0.27099 0.0
C889 C 0.7548 0.86657 0.25005 0.0
C890 C 0.78703 0.89772 0.26992 0.0
C891 C 0.7961 0.90707 0.24735 0.0
C892 C 0.78412 0.89628 0.22609 0.0
C893 C 0.76366 0.87607 0.2277 0.0
C894 C 0.79943 0.90856 0.29302 0.0
C895 C 0.79314 0.90587 0.20168 0.0
C896 C 0.83754 0.97168 0.24429 0.0
C897 C 0.86218 0.96601 0.24604 0.0
C898 C 0.81581 0.9527 0.24425 0.0
C899 C 0.81879 0.92746 0.24618 0.0
C900 C 0.84355 0.9216 0.24778 0.0
C901 C 0.86492 0.94092 0.24761 0.0
C902 C 0.78967 0.95965 0.24236 0.0
C903 C 0.84752 0.8949 0.25004 0.0
H904 H 0.75993 0.87013 0.28834 0.0
H905 H 0.75453 0.86771 0.21147 0.0
H906 H 0.81962 0.90605 0.29558 0.0
H907 H 0.7995 0.92889 0.29206 0.0
H908 H 0.78954 0.8997 0.30901 0.0
H909 H 0.78108 0.89616 0.18682 0.0
H910 H 0.79302 0.92614 0.19872 0.0
H911 H 0.81311 0.90334 0.20086 0.0
H912 H 0.83519 0.99099 0.24295 0.0
H913 H 0.88383 0.93628 0.24901 0.0
H914 H 0.77987 0.95236 0.25881 0.0
H915 H 0.77779 0.95097 0.22688 0.0
H916 H 0.79057 0.98014 0.24008 0.0
H917 H 0.83958 0.88524 0.26667 0.0
H918 H 0.86801 0.89349 0.25066 0.0
H919 H 0.83715 0.88482 0.23463 0.0
C920 C 0.76097 0.16014 0.25209 0.0
C921 C 0.76508 0.17653 0.27056 0.0
C922 C 0.77755 0.14341 0.25042 0.0
C923 C 0.79862 0.14299 0.26774 0.0
C924 C 0.80189 0.1585 0.28725 0.0
C925 C 0.785 0.17503 0.28847 0.0
C926 C 0.77325 0.1271 0.22945 0.0
C927 C 0.82399 0.15856 0.30616 0.0
C928 C 0.83624 0.09008 0.26998 0.0
C929 C 0.85677 0.10106 0.25645 0.0
C930 C 0.81713 0.10345 0.27391 0.0
C931 C 0.81862 0.12835 0.26408 0.0
C932 C 0.83935 0.13951 0.25051 0.0
C933 C 0.8581 0.12577 0.24687 0.0
C934 C 0.79533 0.09092 0.28848 0.0
C935 C 0.84172 0.16602 0.23972 0.0
H936 H 0.74531 0.16109 0.23845 0.0
H937 H 0.78792 0.18746 0.30295 0.0
H938 H 0.78874 0.13332 0.21722 0.0
H939 H 0.7739 0.10748 0.23583 0.0
H940 H 0.75466 0.12778 0.21897 0.0
H941 H 0.82238 0.16976 0.3214 0.0
H942 H 0.82517 0.13925 0.31331 0.0
H943 H 0.84213 0.16644 0.29796 0.0
H944 H 0.83502 0.071 0.27744 0.0
H945 H 0.87385 0.13448 0.2364 0.0
H946 H 0.77693 0.09049 0.2774 0.0
H947 H 0.79461 0.10174 0.3042 0.0
H948 H 0.79702 0.07153 0.29504 0.0
H949 H 0.82473 0.16792 0.2272 0.0
H950 H 0.85908 0.172 0.22972 0.0
H951 H 0.84243 0.17891 0.25413 0.0
C952 C 0.40257 0.96822 0.98229 0.0
C953 C 0.40281 0.99344 0.9855 0.0
C954 C 0.38022 0.95021 0.9841 0.0
C955 C 0.35762 0.9573 0.9901 0.0
C956 C 0.35761 0.98261 0.99342 0.0
C957 C 0.38003 0.00041 0.99069 0.0
C958 C 0.38094 0.92347 0.97995 0.0
C959 C 0.33407 0.99083 0.00038 0.0
C960 C 0.29516 0.91178 0.9783 0.0
C961 C 0.29353 0.89771 0.00037 0.0
C962 C 0.31568 0.93165 0.97476 0.0
C963 C 0.33446 0.9379 0.994 0.0
C964 C 0.332 0.92446 0.01669 0.0
C965 C 0.31181 0.90421 0.01946 0.0
C966 C 0.318 0.94505 0.95012 0.0
C967 C 0.35111 0.93095 0.03788 0.0
H968 H 0.41998 0.96232 0.97878 0.0
H969 H 0.37962 0.01981 0.99269 0.0
H970 H 0.3782 0.91172 0.99699 0.0
H971 H 0.36513 0.91617 0.96666 0.0
H972 H 0.39929 0.9214 0.97333 0.0
H973 H 0.33712 0.01124 0.00217 0.0
H974 H 0.31787 0.9857 0.98676 0.0
H975 H 0.32842 0.98104 0.01779 0.0
H976 H 0.28111 0.90645 0.9635 0.0
H977 H 0.31042 0.89322 0.03652 0.0
H978 H 0.33518 0.94137 0.94244 0.0
H979 H 0.32054 0.96548 0.95138 0.0
H980 H 0.30103 0.93901 0.93753 0.0
H981 H 0.36983 0.92669 0.03439 0.0
H982 H 0.34499 0.92042 0.05484 0.0
H983 H 0.354 0.95119 0.04042 0.0
C984 C 0.25156 0.34708 0.31862 0.0
C985 C 0.24994 0.32893 0.30205 0.0
C986 C 0.23762 0.36653 0.31414 0.0
C987 C 0.22121 0.3676 0.29278 0.0
C988 C 0.21854 0.34856 0.27658 0.0
C989 C 0.2332 0.32965 0.28124 0.0
C990 C 0.24156 0.3867 0.33163 0.0
C991 C 0.20086 0.34865 0.2539 0.0
C992 C 0.17597 0.41438 0.28911 0.0
C993 C 0.18944 0.43464 0.27568 0.0
C994 C 0.18554 0.39202 0.29415 0.0
C995 C 0.2094 0.39013 0.28608 0.0
C996 C 0.22283 0.41039 0.27226 0.0
C997 C 0.21259 0.43215 0.26704 0.0
C998 C 0.17036 0.37059 0.30843 0.0
C999 C 0.24853 0.40946 0.26363 0.0
H1000 H 0.26462 0.34666 0.33464 0.0
H1001 H 0.23173 0.31548 0.26853 0.0
H1002 H 0.25102 0.40456 0.32284 0.0
H1003 H 0.22294 0.3896 0.33688 0.0
H1004 H 0.25353 0.38225 0.34817 0.0
H1005 H 0.19834 0.33093 0.24491 0.0
H1006 H 0.18186 0.35173 0.25799 0.0
H1007 H 0.2087 0.36418 0.24109 0.0
H1008 H 0.15806 0.41603 0.29581 0.0
H1009 H 0.22336 0.44764 0.25678 0.0
H1010 H 0.18087 0.3673 0.32612 0.0
H1011 H 0.16792 0.35325 0.29888 0.0
H1012 H 0.15122 0.37414 0.31157 0.0
H1013 H 0.2623 0.40664 0.2793 0.0
H1014 H 0.25648 0.42678 0.25297 0.0
H1015 H 0.24694 0.39347 0.25234 0.0
C1016 C 0.12052 0.03941 0.5033 0.0
C1017 C 0.10583 0.02767 0.52197 0.0
C1018 C 0.14197 0.05806 0.5078 0.0
C1019 C 0.14907 0.06515 0.53159 0.0
C1020 C 0.13492 0.05275 0.55067 0.0
C1021 C 0.11345 0.03415 0.54563 0.0
C1022 C 0.15656 0.07073 0.48694 0.0
C1023 C 0.1419 0.05975 0.57629 0.0
C1024 C 0.21535 0.10417 0.54406 0.0
C1025 C 0.20999 0.12841 0.54233 0.0
C1026 C 0.19571 0.08331 0.54104 0.0
C1027 C 0.17011 0.08677 0.53612 0.0
C1028 C 0.16456 0.11113 0.53461 0.0
C1029 C 0.1845 0.13159 0.53775 0.0
C1030 C 0.20236 0.05761 0.54285 0.0
C1031 C 0.13754 0.11567 0.52932 0.0
H1032 H 0.11506 0.03415 0.48503 0.0
H1033 H 0.10215 0.02528 0.56014 0.0
H1034 H 0.15477 0.09066 0.48467 0.0
H1035 H 0.17717 0.07007 0.4906 0.0
H1036 H 0.14953 0.06203 0.46976 0.0
H1037 H 0.13035 0.04697 0.58929 0.0
H1038 H 0.16241 0.05954 0.58136 0.0
H1039 H 0.13884 0.079 0.57791 0.0
H1040 H 0.23493 0.10144 0.54766 0.0
H1041 H 0.18002 0.15016 0.5364 0.0
H1042 H 0.19699 0.04901 0.5254 0.0
H1043 H 0.19133 0.04544 0.55657 0.0
H1044 H 0.22304 0.05797 0.54768 0.0
H1045 H 0.12975 0.10905 0.51144 0.0
H1046 H 0.13634 0.13569 0.52937 0.0
H1047 H 0.12514 0.10493 0.54285 0.0
C1048 C 0.79132 0.15814 0.76267 0.0
C1049 C 0.78458 0.18003 0.75108 0.0
C1050 C 0.77315 0.13618 0.76541 0.0
C1051 C 0.74771 0.1357 0.75559 0.0
C1052 C 0.74094 0.1573 0.74295 0.0
C1053 C 0.75931 0.17929 0.74119 0.0
C1054 C 0.78105 0.11367 0.77942 0.0
C1055 C 0.71417 0.15734 0.73167 0.0
C1056 C 0.70794 0.07077 0.74993 0.0
C1057 C 0.69403 0.068 0.77029 0.0
C1058 C 0.72459 0.0932 0.74421 0.0
C1059 C 0.728 0.11293 0.7597 0.0
C1060 C 0.71359 0.11034 0.78002 0.0
C1061 C 0.69648 0.08805 0.78484 0.0
C1062 C 0.73894 0.09558 0.72192 0.0
C1063 C 0.71711 0.13066 0.79733 0.0
H1064 H 0.81085 0.15812 0.7698 0.0
H1065 H 0.75361 0.19603 0.73248 0.0
H1066 H 0.76946 0.10826 0.7951 0.0
H1067 H 0.77743 0.0976 0.76799 0.0
H1068 H 0.80156 0.11715 0.78606 0.0
H1069 H 0.71269 0.17473 0.72029 0.0
H1070 H 0.70785 0.1412 0.72044 0.0
H1071 H 0.70078 0.15542 0.74596 0.0
H1072 H 0.70587 0.05542 0.73851 0.0
H1073 H 0.6859 0.08588 0.80072 0.0
H1074 H 0.75959 0.09649 0.72712 0.0
H1075 H 0.73682 0.11311 0.71107 0.0
H1076 H 0.73217 0.07964 0.71048 0.0
H1077 H 0.73706 0.13386 0.80557 0.0
H1078 H 0.70399 0.12596 0.81196 0.0
H1079 H 0.71383 0.14843 0.78762 0.0
C1080 C 0.42236 0.04073 0.59227 0.0
C1081 C 0.436 0.03636 0.57333 0.0
C1082 C 0.40555 0.05781 0.58905 0.0
C1083 C 0.40231 0.07096 0.56637 0.0
C1084 C 0.41582 0.06646 0.54712 0.0
C1085 C 0.43245 0.04923 0.55082 0.0
C1086 C 0.39145 0.06199 0.61003 0.0
C1087 C 0.41309 0.0802 0.52271 0.0
C1088 C 0.34422 0.10251 0.55304 0.0
C1089 C 0.35456 0.12715 0.55838 0.0
C1090 C 0.35953 0.08403 0.55539 0.0
C1091 C 0.3858 0.09034 0.56315 0.0
C1092 C 0.39639 0.11526 0.56815 0.0
C1093 C 0.38068 0.13329 0.56575 0.0
C1094 C 0.34752 0.05767 0.5499 0.0
C1095 C 0.42432 0.12286 0.57633 0.0
H1096 H 0.42469 0.03061 0.60961 0.0
H1097 H 0.44312 0.04621 0.53615 0.0
H1098 H 0.39718 0.08164 0.61479 0.0
H1099 H 0.37059 0.05871 0.605 0.0
H1100 H 0.39529 0.0496 0.62621 0.0
H1101 H 0.42404 0.07379 0.50933 0.0
H1102 H 0.3927 0.07764 0.51582 0.0
H1103 H 0.41995 0.10047 0.52428 0.0
H1104 H 0.32408 0.09756 0.54739 0.0
H1105 H 0.38893 0.15225 0.56985 0.0
H1106 H 0.34939 0.04495 0.56624 0.0
H1107 H 0.35766 0.05135 0.53586 0.0
H1108 H 0.32697 0.05586 0.54361 0.0
H1109 H 0.42881 0.11234 0.59355 0.0
H1110 H 0.42972 0.14311 0.57898 0.0
H1111 H 0.43633 0.1182 0.5629 0.0
C1112 C 0.56815 0.46728 0.48102 0.0
C1113 C 0.56012 0.46753 0.50413 0.0
C1114 C 0.58647 0.45316 0.47687 0.0
C1115 C 0.59708 0.43908 0.49632 0.0
C1116 C 0.58949 0.43984 0.5198 0.0
C1117 C 0.57108 0.45404 0.5234 0.0
C1118 C 0.594 0.45282 0.45159 0.0
C1119 C 0.60042 0.42522 0.54106 0.0
C1120 C 0.62277 0.38115 0.48587 0.0
C1121 C 0.64926 0.38957 0.48872 0.0
C1122 C 0.60562 0.39731 0.48742 0.0
C1123 C 0.61513 0.42253 0.49206 0.0
C1124 C 0.64184 0.43143 0.49395 0.0
C1125 C 0.6586 0.41486 0.49218 0.0
C1126 C 0.57728 0.38711 0.48502 0.0
C1127 C 0.65274 0.45819 0.49888 0.0
H1128 H 0.55976 0.47782 0.46611 0.0
H1129 H 0.56491 0.45436 0.54127 0.0
H1130 H 0.61504 0.45797 0.45122 0.0
H1131 H 0.58825 0.4337 0.4454 0.0
H1132 H 0.585 0.46579 0.43868 0.0
H1133 H 0.59345 0.42875 0.55829 0.0
H1134 H 0.59513 0.40498 0.53843 0.0
H1135 H 0.62157 0.43006 0.54248 0.0
H1136 H 0.61535 0.36169 0.48304 0.0
H1137 H 0.67903 0.42154 0.49445 0.0
H1138 H 0.56751 0.39876 0.47137 0.0
H1139 H 0.56912 0.38778 0.50241 0.0
H1140 H 0.57295 0.36755 0.47979 0.0
H1141 H 0.64384 0.47102 0.48578 0.0
H1142 H 0.67378 0.46268 0.49796 0.0
H1143 H 0.6483 0.46182 0.51708 0.0
C1144 C 0.7025 0.27286 0.32642 0.0
C1145 C 0.69931 0.2468 0.32905 0.0
C1146 C 0.70689 0.28711 0.34666 0.0
C1147 C 0.7075 0.27491 0.37004 0.0
C1148 C 0.70355 0.24853 0.37271 0.0
C1149 C 0.69982 0.23481 0.35218 0.0
C1150 C 0.71159 0.31518 0.34304 0.0
C1151 C 0.70352 0.23476 0.39729 0.0
C1152 C 0.74352 0.30616 0.4244 0.0
C1153 C 0.72372 0.31233 0.43604 0.0
C1154 C 0.73865 0.29518 0.40226 0.0
C1155 C 0.71325 0.28959 0.39179 0.0
C1156 C 0.69328 0.29651 0.40307 0.0
C1157 C 0.6988 0.30809 0.42494 0.0
C1158 C 0.7606 0.28872 0.39053 0.0
C1159 C 0.66589 0.29048 0.39274 0.0
H1160 H 0.70227 0.2821 0.30849 0.0
H1161 H 0.69715 0.21464 0.35418 0.0
H1162 H 0.69792 0.32279 0.35268 0.0
H1163 H 0.73106 0.32294 0.35076 0.0
H1164 H 0.70976 0.32177 0.32372 0.0
H1165 H 0.69856 0.21422 0.39625 0.0
H1166 H 0.72265 0.23938 0.40707 0.0
H1167 H 0.68965 0.24069 0.40807 0.0
H1168 H 0.76285 0.30959 0.43283 0.0
H1169 H 0.6834 0.31264 0.43397 0.0
H1170 H 0.76015 0.29579 0.37133 0.0
H1171 H 0.75881 0.26818 0.39105 0.0
H1172 H 0.77942 0.29659 0.39963 0.0
H1173 H 0.66419 0.29745 0.37356 0.0
H1174 H 0.65285 0.29863 0.40272 0.0
H1175 H 0.65948 0.26995 0.39344 0.0
C1176 C 0.52167 0.04253 0.90213 0.0
C1177 C 0.50462 0.02481 0.91502 0.0
C1178 C 0.54022 0.03535 0.88946 0.0
C1179 C 0.54177 0.00979 0.88965 0.0
C1180 C 0.52457 0.99179 0.90265 0.0
C1181 C 0.5061 -0.00049 0.91507 0.0
C1182 C 0.5581 0.05515 0.87577 0.0
C1183 C 0.52566 0.9644 0.90339 0.0
C1184 C 0.57654 0.99284 0.83887 0.0
C1185 C 0.60139 0.99392 0.84983 0.0
C1186 C 0.55665 0.99699 0.85186 0.0
C1187 C 0.56168 0.00214 0.87644 0.0
C1188 C 0.58638 0.00186 0.8879 0.0
C1189 C 0.60592 0.99784 0.87446 0.0
C1190 C 0.53058 0.99713 0.83896 0.0
C1191 C 0.59251 0.00697 0.91411 0.0
H1192 H 0.5204 0.06207 0.90185 0.0
H1193 H 0.4927 0.98579 0.92482 0.0
H1194 H 0.57816 0.05478 0.88272 0.0
H1195 H 0.55633 0.05131 0.85647 0.0
H1196 H 0.55421 0.07416 0.8772 0.0
H1197 H 0.51102 0.95278 0.91441 0.0
H1198 H 0.52276 0.95801 0.88488 0.0
H1199 H 0.54481 0.96124 0.91095 0.0
H1200 H 0.57283 0.98987 0.81985 0.0
H1201 H 0.62501 0.99853 0.88314 0.0
H1202 H 0.52645 0.01632 0.83763 0.0
H1203 H 0.51564 0.98506 0.84926 0.0
H1204 H 0.52915 0.99066 0.82051 0.0
H1205 H 0.59137 0.0266 0.91657 0.0
H1206 H 0.61191 0.0038 0.9209 0.0
H1207 H 0.57834 0.99491 0.92528 0.0
C1208 C 0.26331 0.25089 0.36558 0.0
C1209 C 0.28582 0.2639 0.3562 0.0
C1210 C 0.26385 0.23817 0.38846 0.0
C1211 C 0.28742 0.23886 0.4025 0.0
C1212 C 0.31032 0.25122 0.39274 0.0
C1213 C 0.30926 0.26345 0.36962 0.0
C1214 C 0.23902 0.22494 0.39803 0.0
C1215 C 0.33578 0.25276 0.40722 0.0
C1216 C 0.28159 0.23643 0.46964 0.0
C1217 C 0.2836 0.21171 0.47705 0.0
C1218 C 0.28375 0.24561 0.44565 0.0
C1219 C 0.28757 0.22956 0.42836 0.0
C1220 C 0.29026 0.2047 0.43576 0.0
C1221 C 0.28851 0.1961 0.46016 0.0
C1222 C 0.28129 0.27239 0.43873 0.0
C1223 C 0.29405 0.18697 0.41779 0.0
H1224 H 0.24521 0.25091 0.35509 0.0
H1225 H 0.32668 0.27358 0.36243 0.0
H1226 H 0.24076 0.20588 0.40559 0.0
H1227 H 0.23445 0.23519 0.41282 0.0
H1228 H 0.22286 0.22356 0.3839 0.0
H1229 H 0.352 0.26051 0.39615 0.0
H1230 H 0.33648 0.26489 0.42226 0.0
H1231 H 0.33829 0.23407 0.41527 0.0
H1232 H 0.27816 0.24871 0.48269 0.0
H1233 H 0.29 0.17696 0.46582 0.0
H1234 H 0.26388 0.27298 0.4264 0.0
H1235 H 0.29788 0.28209 0.42898 0.0
H1236 H 0.28009 0.28285 0.45461 0.0
H1237 H 0.2768 0.18345 0.405 0.0
H1238 H 0.29757 0.16884 0.4266 0.0
H1239 H 0.31035 0.19535 0.40709 0.0
C1240 C 0.47313 0.49886 0.9376 0.0
C1241 C 0.49551 0.51528 0.94472 0.0
C1242 C 0.46231 0.50003 0.91375 0.0
C1243 C 0.47439 0.51783 0.8966 0.0
C1244 C 0.49696 0.53452 0.90379 0.0
C1245 C 0.50729 0.53298 0.92777 0.0
C1246 C 0.43826 0.48189 0.90678 0.0
C1247 C 0.51053 0.55361 0.88601 0.0
C1248 C 0.46445 0.504 0.83074 0.0
C1249 C 0.44717 0.51946 0.82142 0.0
C1250 C 0.47317 0.50313 0.85517 0.0
C1251 C 0.46437 0.51799 0.87084 0.0
C1252 C 0.44657 0.5333 0.86176 0.0
C1253 C 0.43819 0.53388 0.83714 0.0
C1254 C 0.49216 0.48656 0.86413 0.0
C1255 C 0.43668 0.54931 0.87799 0.0
H1256 H 0.4642 0.48499 0.95069 0.0
H1257 H 0.52476 0.54547 0.93331 0.0
H1258 H 0.42345 0.49211 0.89798 0.0
H1259 H 0.44228 0.46946 0.89355 0.0
H1260 H 0.43043 0.4702 0.92253 0.0
H1261 H 0.52721 0.56594 0.89472 0.0
H1262 H 0.51727 0.54404 0.87184 0.0
H1263 H 0.49717 0.56534 0.87696 0.0
H1264 H 0.47152 0.49272 0.81886 0.0
H1265 H 0.42483 0.54586 0.83018 0.0
H1266 H 0.48458 0.4733 0.87897 0.0
H1267 H 0.51016 0.49804 0.87149 0.0
H1268 H 0.4967 0.47575 0.84971 0.0
H1269 H 0.42798 0.53761 0.89331 0.0
H1270 H 0.42224 0.5595 0.86833 0.0
H1271 H 0.45275 0.56309 0.88564 0.0
C1272 C 0.70014 0.74131 0.1828 0.0
C1273 C 0.71488 0.76145 0.19453 0.0
C1274 C 0.71107 0.72798 0.1675 0.0
C1275 C 0.73734 0.73506 0.16376 0.0
C1276 C 0.75249 0.75488 0.17621 0.0
C1277 C 0.74101 0.76798 0.19128 0.0
C1278 C 0.6942 0.70714 0.15441 0.0
C1279 C 0.78056 0.76299 0.17275 0.0
C1280 C 0.76928 0.69171 0.132 0.0
C1281 C 0.76843 0.70243 0.10831 0.0
C1282 C 0.75933 0.70212 0.15037 0.0
C1283 C 0.74825 0.72367 0.14484 0.0
C1284 C 0.74743 0.73454 0.12097 0.0
C1285 C 0.75764 0.7239 0.10311 0.0
C1286 C 0.76068 0.69013 0.17565 0.0
C1287 C 0.73576 0.75748 0.11425 0.0
H1288 H 0.67986 0.73643 0.18505 0.0
H1289 H 0.75233 0.78378 0.20008 0.0
H1290 H 0.69232 0.71272 0.13487 0.0
H1291 H 0.70291 0.69017 0.15655 0.0
H1292 H 0.6748 0.70241 0.16097 0.0
H1293 H 0.79019 0.7768 0.18567 0.0
H1294 H 0.79028 0.74667 0.17493 0.0
H1295 H 0.78296 0.77153 0.1542 0.0
H1296 H 0.77771 0.67521 0.13621 0.0
H1297 H 0.75731 0.73265 0.08501 0.0
H1298 H 0.74117 0.6843 0.18174 0.0
H1299 H 0.77141 0.70382 0.18816 0.0
H1300 H 0.77007 0.67358 0.17706 0.0
H1301 H 0.71557 0.75383 0.11873 0.0
H1302 H 0.73634 0.76345 0.09479 0.0
H1303 H 0.74605 0.77313 0.12478 0.0
C1304 C -0.00034 0.05217 0.09447 0.0
C1305 C 0.99636 0.03132 0.08083 0.0
C1306 C 0.98735 0.05131 0.11559 0.0
C1307 C 0.97124 0.02901 0.12334 0.0
C1308 C 0.96818 0.00768 0.10992 0.0
C1309 C 0.98092 0.00905 0.08882 0.0
C1310 C 0.9914 0.0744 0.12949 0.0
C1311 C 0.95112 0.98361 0.11763 0.0
C1312 C 0.9585 0.02579 0.18918 0.0
C1313 C 0.93551 0.03479 0.18786 0.0
C1314 C 0.9697 0.02254 0.16826 0.0
C1315 C 0.95762 0.02843 0.14545 0.0
C1316 C 0.93382 0.03641 0.14397 0.0
C1317 C 0.92308 0.03957 0.1652 0.0
C1318 C 0.99514 0.01409 0.17063 0.0
C1319 C 0.92027 0.04273 0.11997 0.0
H1320 H 0.01195 0.0693 0.08855 0.0
H1321 H 0.97829 0.99294 0.07825 0.0
H1322 H 0.97292 0.08051 0.13036 0.0
H1323 H 0.99894 0.07023 0.14826 0.0
H1324 H 0.00492 0.0901 0.12124 0.0
H1325 H 0.95136 0.96852 0.10564 0.0
H1326 H 0.95716 0.97735 0.13631 0.0
H1327 H 0.9312 0.98665 0.11757 0.0
H1328 H 0.96831 0.02211 0.20658 0.0
H1329 H 0.90524 0.0464 0.16402 0.0
H1330 H 0.01016 0.02973 0.16469 0.0
H1331 H 0.99466 0.99868 0.15887 0.0
H1332 H 0.00066 0.00772 0.18945 0.0
H1333 H 0.93139 0.05977 0.1112 0.0
H1334 H 0.90073 0.0461 0.12181 0.0
H1335 H 0.91891 0.02746 0.10784 0.0
C1336 C 0.27208 0.77978 0.17844 0.0
C1337 C 0.29672 0.79084 0.18698 0.0
C1338 C 0.26198 0.78638 0.15522 0.0
C1339 C 0.27706 0.80424 0.14015 0.0
C1340 C 0.30231 0.81483 0.14845 0.0
C1341 C 0.31187 0.80792 0.17179 0.0
C1342 C 0.23502 0.77461 0.147 0.0
C1343 C 0.31903 0.83376 0.13284 0.0
C1344 C 0.25675 0.80708 0.07311 0.0
C1345 C 0.24353 0.82708 0.07064 0.0
C1346 C 0.2681 0.79965 0.09556 0.0
C1347 C 0.26607 0.81244 0.11603 0.0
C1348 C 0.253 0.8328 0.11359 0.0
C1349 C 0.24192 0.83988 0.09094 0.0
C1350 C 0.28195 0.7779 0.09744 0.0
C1351 C 0.2504 0.8469 0.135 0.0
H1352 H 0.26058 0.76623 0.19012 0.0
H1353 H 0.33111 0.81611 0.17833 0.0
H1354 H 0.22309 0.78921 0.14329 0.0
H1355 H 0.23483 0.76556 0.12998 0.0
H1356 H 0.22613 0.76047 0.16062 0.0
H1357 H 0.33855 0.83946 0.14161 0.0
H1358 H 0.32057 0.82605 0.11545 0.0
H1359 H 0.31028 0.8506 0.12869 0.0
H1360 H 0.25793 0.79696 0.05758 0.0
H1361 H 0.23175 0.85535 0.0892 0.0
H1362 H 0.27231 0.76263 0.10956 0.0
H1363 H 0.30177 0.78356 0.10545 0.0
H1364 H 0.28265 0.77053 0.07967 0.0
H1365 H 0.23994 0.83408 0.14867 0.0
H1366 H 0.24009 0.86261 0.12999 0.0
H1367 H 0.26956 0.8544 0.14359 0.0
C1368 C 0.02112 0.52526 0.1296 0.0
C1369 C 0.00767 0.50278 0.1209 0.0
C1370 C 0.04015 0.52543 0.14878 0.0
C1371 C 0.04598 0.50258 0.15951 0.0
C1372 C 0.03192 0.47983 0.15133 0.0
C1373 C 0.01294 0.48021 0.13221 0.0
C1374 C 0.05464 0.5501 0.15699 0.0
C1375 C 0.03746 0.45506 0.16228 0.0
C1376 C 0.1133 0.50329 0.18856 0.0
C1377 C 0.1099 0.50305 0.21317 0.0
C1378 C 0.09266 0.50297 0.17103 0.0
C1379 C 0.06788 0.5025 0.17816 0.0
C1380 C 0.06419 0.50203 0.20295 0.0
C1381 C 0.08521 0.50225 0.22016 0.0
C1382 C 0.09743 0.5033 0.14481 0.0
C1383 C 0.03809 0.50158 0.21127 0.0
H1384 H 0.01741 0.5428 0.12088 0.0
H1385 H 0.00234 0.46273 0.12592 0.0
H1386 H 0.05447 0.55054 0.17677 0.0
H1387 H 0.07489 0.55249 0.15292 0.0
H1388 H 0.04655 0.56612 0.14809 0.0
H1389 H 0.02384 0.43906 0.15487 0.0
H1390 H 0.05708 0.45327 0.15881 0.0
H1391 H 0.03662 0.45395 0.18209 0.0
H1392 H 0.13221 0.50383 0.18287 0.0
H1393 H 0.08231 0.50213 0.23908 0.0
H1394 H 0.09182 0.52008 0.13483 0.0
H1395 H 0.08553 0.48677 0.13664 0.0
H1396 H 0.11777 0.50335 0.14224 0.0
H1397 H 0.03072 0.51842 0.20354 0.0
H1398 H 0.03831 0.50091 0.2312 0.0
H1399 H 0.0245 0.48515 0.20471 0.0
C1400 C 0.36655 0.76367 0.29925 0.0
C1401 C 0.3597 0.73995 0.29034 0.0
C1402 C 0.38522 0.76828 0.31855 0.0
C1403 C 0.39741 0.74872 0.32908 0.0
C1404 C 0.39086 0.72484 0.31989 0.0
C1405 C 0.37205 0.72073 0.30068 0.0
C1406 C 0.39157 0.79394 0.32796 0.0
C1407 C 0.40355 0.70354 0.33051 0.0
C1408 C 0.46051 0.76378 0.36706 0.0
C1409 C 0.45268 0.75873 0.39052 0.0
C1410 C 0.44272 0.7609 0.34688 0.0
C1411 C 0.41645 0.75293 0.35022 0.0
C1412 C 0.40836 0.74826 0.37381 0.0
C1413 C 0.42655 0.75115 0.39364 0.0
C1414 C 0.45207 0.76596 0.32199 0.0
C1415 C 0.3805 0.73988 0.37811 0.0
H1416 H 0.35688 0.77852 0.29147 0.0
H1417 H 0.36707 0.70245 0.29363 0.0
H1418 H 0.38688 0.79286 0.34697 0.0
H1419 H 0.41233 0.80134 0.32766 0.0
H1420 H 0.38096 0.80732 0.3173 0.0
H1421 H 0.39686 0.68633 0.32081 0.0
H1422 H 0.42457 0.70886 0.32998 0.0
H1423 H 0.39958 0.69932 0.34968 0.0
H1424 H 0.48063 0.76961 0.36441 0.0
H1425 H 0.42022 0.74732 0.41164 0.0
H1426 H 0.44233 0.78008 0.31152 0.0
H1427 H 0.44727 0.74867 0.31222 0.0
H1428 H 0.47303 0.77272 0.32246 0.0
H1429 H 0.36915 0.75344 0.36892 0.0
H1430 H 0.37725 0.73789 0.39756 0.0
H1431 H 0.37313 0.72167 0.37034 0.0
C1432 C 0.00678 0.43747 0.02547 0.0
C1433 C 0.98976 0.45217 0.01414 0.0
C1434 C 0.00925 0.41515 0.01609 0.0
C1435 C 0.99417 0.40726 0.99496 0.0
C1436 C 0.97682 0.42202 0.98353 0.0
C1437 C 0.97473 0.44425 0.99334 0.0
C1438 C 0.02782 0.39988 0.02892 0.0
C1439 C 0.96032 0.41421 0.96107 0.0
C1440 C 0.01577 0.35917 0.96019 0.0
C1441 C 0.0004 0.33695 0.96855 0.0
C1442 C 0.01374 0.38224 0.96839 0.0
C1443 C 0.99594 0.38315 0.98533 0.0
C1444 C 0.98011 0.36087 0.99353 0.0
C1445 C 0.98251 0.33811 0.98506 0.0
C1446 C 0.03091 0.40562 0.95918 0.0
C1447 C 0.96085 0.36101 0.01157 0.0
H1448 H 0.01814 0.44351 0.04172 0.0
H1449 H 0.96133 0.45549 0.98476 0.0
H1450 H 0.01742 0.38121 0.03498 0.0
H1451 H 0.0417 0.39698 0.01639 0.0
H1452 H 0.03854 0.40889 0.04482 0.0
H1453 H 0.9483 0.42809 0.95401 0.0
H1454 H 0.97246 0.4116 0.94683 0.0
H1455 H 0.94765 0.39604 0.96491 0.0
H1456 H 0.02963 0.35855 0.94744 0.0
H1457 H 0.97046 0.32114 0.99164 0.0
H1458 H 0.04332 0.41429 0.97437 0.0
H1459 H 0.01926 0.41941 0.95106 0.0
H1460 H 0.04322 0.4019 0.94551 0.0
H1461 H 0.97078 0.36819 0.02857 0.0
H1462 H 0.94954 0.34216 0.01569 0.0
H1463 H 0.94752 0.37368 0.00462 0.0
C1464 C 0.68232 0.83383 0.3096 0.0
C1465 C 0.67583 0.82204 0.28795 0.0
C1466 C 0.66464 0.83189 0.32696 0.0
C1467 C 0.64 0.81731 0.3229 0.0
C1468 C 0.63297 0.80606 0.3008 0.0
C1469 C 0.65088 0.80874 0.28351 0.0
C1470 C 0.67281 0.84443 0.35018 0.0
C1471 C 0.60699 0.79011 0.2959 0.0
C1472 C 0.61009 0.78526 0.3787 0.0
C1473 C 0.59156 0.7995 0.38168 0.0
C1474 C 0.6256 0.79071 0.35946 0.0
C1475 C 0.62292 0.81125 0.34291 0.0
C1476 C 0.60437 0.82588 0.34583 0.0
C1477 C 0.58867 0.81966 0.3651 0.0
C1478 C 0.64485 0.77437 0.35683 0.0
C1479 C 0.60133 0.84819 0.32877 0.0
H1480 H 0.70157 0.84387 0.31349 0.0
H1481 H 0.64542 0.80001 0.26667 0.0
H1482 H 0.65798 0.85452 0.35475 0.0
H1483 H 0.67516 0.83011 0.36508 0.0
H1484 H 0.69117 0.8578 0.3492 0.0
H1485 H 0.60364 0.78458 0.27704 0.0
H1486 H 0.60524 0.77295 0.30817 0.0
H1487 H 0.59174 0.80014 0.29952 0.0
H1488 H 0.61229 0.76947 0.39127 0.0
H1489 H 0.5744 0.83073 0.36735 0.0
H1490 H 0.66444 0.78559 0.35813 0.0
H1491 H 0.64154 0.76668 0.33885 0.0
H1492 H 0.64391 0.75861 0.3708 0.0
H1493 H 0.61955 0.86183 0.32902 0.0
H1494 H 0.586 0.85761 0.33346 0.0
H1495 H 0.59684 0.8424 0.31009 0.0
C1496 C 0.04287 0.09895 0.00277 0.0
C1497 C 0.02015 0.08191 0.00578 0.0
C1498 C 0.04247 0.12279 0.99153 0.0
C1499 C 0.0188 0.12948 0.98271 0.0
C1500 C 0.99592 0.11182 0.98463 0.0
C1501 C 0.99684 0.08831 0.99643 0.0
C1502 C 0.06726 0.14121 0.99013 0.0
C1503 C 0.9704 0.11803 0.97492 0.0
C1504 C 0.0162 0.19851 0.97888 0.0
C1505 C 0.02095 0.20549 0.95483 0.0
C1506 C 0.01496 0.17368 0.98809 0.0
C1507 C 0.01798 0.15538 0.9727 0.0
C1508 C 0.02148 0.16214 0.9481 0.0
C1509 C 0.02322 0.18719 0.93952 0.0
C1510 C 0.01152 0.16725 0.01451 0.0
C1511 C 0.02411 0.14306 0.93101 0.0
H1512 H 0.06084 0.09404 0.0103 0.0
H1513 H 0.97929 0.07503 -0.00122 0.0
H1514 H 0.06973 0.1486 0.97126 0.0
H1515 H 0.06681 0.15727 0.0008 0.0
H1516 H 0.08408 0.1328 0.99706 0.0
H1517 H 0.95479 0.10148 0.97573 0.0
H1518 H 0.96562 0.1325 0.98551 0.0
H1519 H 0.97124 0.12582 0.95598 0.0
H1520 H 0.01456 0.21263 0.99079 0.0
H1521 H 0.02671 0.19251 0.92084 0.0
H1522 H 0.02859 0.16044 0.02339 0.0
H1523 H 0.99486 0.15201 0.01684 0.0
H1524 H 0.00869 0.18348 0.02388 0.0
H1525 H 0.04208 0.13592 0.93608 0.0
H1526 H 0.02436 0.1509 0.91203 0.0
H1527 H 0.00813 0.12691 0.93224 0.0
C1528 C 0.35502 0.26659 0.25726 0.0
C1529 C 0.33139 0.2692 0.24515 0.0
C1530 C 0.37542 0.2631 0.24459 0.0
C1531 C 0.37194 0.26176 0.21928 0.0
C1532 C 0.34821 0.26478 0.20697 0.0
C1533 C 0.32824 0.26841 0.22006 0.0
C1534 C 0.40041 0.26006 0.25839 0.0
C1535 C 0.34359 0.26327 0.18004 0.0
C1536 C 0.42772 0.26787 0.18018 0.0
C1537 C 0.42751 0.24286 0.17623 0.0
C1538 C 0.41037 0.27433 0.19487 0.0
C1539 C 0.3923 0.25535 0.20576 0.0
C1540 C 0.39265 0.23006 0.20254 0.0
C1541 C 0.41024 0.22415 0.1879 0.0
C1542 C 0.41078 0.30148 0.19806 0.0
C1543 C 0.37374 0.20922 0.21379 0.0
H1544 H 0.35735 0.2668 0.27671 0.0
H1545 H 0.30989 0.27006 0.21068 0.0
H1546 H 0.40363 0.24077 0.25738 0.0
H1547 H 0.4165 0.27284 0.25023 0.0
H1548 H 0.4008 0.26379 0.27764 0.0
H1549 H 0.32459 0.26735 0.17303 0.0
H1550 H 0.35852 0.2766 0.1708 0.0
H1551 H 0.34482 0.2443 0.17526 0.0
H1552 H 0.44102 0.28247 0.17132 0.0
H1553 H 0.40994 0.20476 0.1851 0.0
H1554 H 0.41152 0.30466 0.21746 0.0
H1555 H 0.39296 0.30691 0.18934 0.0
H1556 H 0.42731 0.31385 0.19012 0.0
H1557 H 0.37446 0.21082 0.23348 0.0
H1558 H 0.3774 0.19051 0.2106 0.0
H1559 H 0.35409 0.21063 0.20623 0.0
C1560 C 0.51944 0.43414 0.04296 0.0
C1561 C 0.54489 0.44645 0.04172 0.0
C1562 C 0.5135 0.40963 0.05318 0.0
C1563 C 0.53343 0.39726 0.06309 0.0
C1564 C 0.55903 0.4102 0.06363 0.0
C1565 C 0.56448 0.4345 0.05271 0.0
C1566 C 0.48597 0.39646 0.05195 0.0
C1567 C 0.58081 0.3979 0.07453 0.0
C1568 C 0.51513 0.33521 0.09947 0.0
C1569 C 0.51625 0.31815 0.08245 0.0
C1570 C 0.52118 0.36108 0.09367 0.0
C1571 C 0.52777 0.37001 0.07013 0.0
C1572 C 0.52859 0.3528 0.05286 0.0
C1573 C 0.52314 0.32716 0.05931 0.0
C1574 C 0.52075 0.37885 0.11274 0.0
C1575 C 0.53493 0.36144 0.02739 0.0
H1576 H 0.50406 0.44337 0.03521 0.0
H1577 H 0.58422 0.44363 0.05183 0.0
H1578 H 0.48325 0.38137 0.0394 0.0
H1579 H 0.48087 0.38764 0.06985 0.0
H1580 H 0.47257 0.40929 0.0456 0.0
H1581 H 0.59894 0.41153 0.07691 0.0
H1582 H 0.57631 0.3882 0.09227 0.0
H1583 H 0.58376 0.38366 0.06264 0.0
H1584 H 0.50999 0.32833 0.11742 0.0
H1585 H 0.5238 0.31409 0.04599 0.0
H1586 H 0.50661 0.39102 0.10695 0.0
H1587 H 0.53969 0.39118 0.11522 0.0
H1588 H 0.51588 0.36896 0.13034 0.0
H1589 H 0.52135 0.3733 0.019 0.0
H1590 H 0.53413 0.34564 0.01598 0.0
H1591 H 0.55435 0.37298 0.0275 0.0
C1592 C 0.6466 0.24567 0.24169 0.0
C1593 C 0.65202 0.22223 0.25022 0.0
C1594 C 0.62719 0.24794 0.22332 0.0
C1595 C 0.61274 0.22626 0.21328 0.0
C1596 C 0.61785 0.20254 0.22207 0.0
C1597 C 0.63744 0.20081 0.24037 0.0
C1598 C 0.62247 0.27359 0.21434 0.0
C1599 C 0.60279 0.17896 0.21195 0.0
C1600 C 0.54894 0.23029 0.17803 0.0
C1601 C 0.55551 0.23222 0.15413 0.0
C1602 C 0.56734 0.22834 0.19747 0.0
C1603 C 0.59295 0.22844 0.19295 0.0
C1604 C 0.59972 0.23046 0.16891 0.0
C1605 C 0.58096 0.23227 0.14985 0.0
C1606 C 0.55935 0.22611 0.22285 0.0
C1607 C 0.62684 0.23073 0.16331 0.0
H1608 H 0.65796 0.26231 0.24903 0.0
H1609 H 0.64127 0.18263 0.2471 0.0
H1610 H 0.62621 0.27715 0.19507 0.0
H1611 H 0.60219 0.27476 0.21567 0.0
H1612 H 0.63475 0.28852 0.2246 0.0
H1613 H 0.60852 0.16192 0.22132 0.0
H1614 H 0.58209 0.17798 0.21347 0.0
H1615 H 0.60557 0.17909 0.19254 0.0
H1616 H 0.52937 0.2302 0.1816 0.0
H1617 H 0.58635 0.23382 0.13151 0.0
H1618 H 0.57048 0.24168 0.233 0.0
H1619 H 0.56356 0.20853 0.23232 0.0
H1620 H 0.53869 0.22631 0.22334 0.0
H1621 H 0.6399 0.24639 0.17184 0.0
H1622 H 0.62905 0.23268 0.14365 0.0
H1623 H 0.63299 0.21325 0.17092 0.0
C1624 C 0.48306 0.07946 0.025 0.0
C1625 C 0.45952 0.07253 0.01175 0.0
C1626 C 0.48744 0.0999 0.03944 0.0
C1627 C 0.46794 0.11396 0.04038 0.0
C1628 C 0.44422 0.10714 0.02686 0.0
C1629 C 0.44027 0.08646 0.01286 0.0
C1630 C 0.51284 0.10635 0.05381 0.0
C1631 C 0.42305 0.12182 0.02705 0.0
C1632 C 0.46678 0.15457 0.09208 0.0
C1633 C 0.47613 0.17845 0.08182 0.0
C1634 C 0.46493 0.1333 0.07913 0.0
C1635 C 0.47227 0.13599 0.05523 0.0
C1636 C 0.48237 0.16 0.04504 0.0
C1637 C 0.48432 0.18089 0.0585 0.0
C1638 C 0.45442 0.10801 0.09079 0.0
C1639 C 0.49018 0.16375 0.01955 0.0
H1640 H 0.49791 0.06861 0.02437 0.0
H1641 H 0.42214 0.08134 0.00245 0.0
H1642 H 0.52228 0.12559 0.04836 0.0
H1643 H 0.50989 0.10585 0.07323 0.0
H1644 H 0.52588 0.09337 0.05139 0.0
H1645 H 0.40584 0.11422 0.01538 0.0
H1646 H 0.4175 0.12173 0.04567 0.0
H1647 H 0.42983 0.14154 0.02079 0.0
H1648 H 0.46049 0.15251 0.11012 0.0
H1649 H 0.49145 0.19927 0.05036 0.0
H1650 H 0.46754 0.09487 0.08934 0.0
H1651 H 0.43584 0.10028 0.08126 0.0
H1652 H 0.45153 0.10883 0.11009 0.0
H1653 H 0.50402 0.15165 0.01706 0.0
H1654 H 0.49891 0.1834 0.0147 0.0
H1655 H 0.4732 0.15827 0.00683 0.0
C1656 C 0.26566 0.37837 0.76971 0.0
C1657 C 0.25384 0.36729 0.74883 0.0
C1658 C 0.28649 0.39818 0.76856 0.0
C1659 C 0.29568 0.40723 0.74596 0.0
C1660 C 0.28353 0.39645 0.72475 0.0
C1661 C 0.2628 0.37652 0.72645 0.0
C1662 C 0.29907 0.40902 0.7916 0.0
C1663 C 0.29267 0.40574 0.70032 0.0
C1664 C 0.33825 0.47126 0.74247 0.0
C1665 C 0.36268 0.46509 0.74423 0.0
C1666 C 0.31622 0.45263 0.74259 0.0
C1667 C 0.31869 0.42724 0.74471 0.0
C1668 C 0.34325 0.42089 0.74634 0.0
C1669 C 0.36491 0.43986 0.746 0.0
C1670 C 0.29033 0.4601 0.74066 0.0
C1671 C 0.34667 0.39401 0.7488 0.0
H1672 H 0.25903 0.37108 0.78708 0.0
H1673 H 0.25356 0.36816 0.71026 0.0
H1674 H 0.31913 0.4061 0.79424 0.0
H1675 H 0.29957 0.42942 0.7905 0.0
H1676 H 0.28903 0.40047 0.80761 0.0
H1677 H 0.28042 0.39614 0.6855 0.0
H1678 H 0.29298 0.42607 0.69727 0.0
H1679 H 0.3125 0.40276 0.69953 0.0
H1680 H 0.33629 0.49068 0.74098 0.0
H1681 H 0.38366 0.43484 0.74742 0.0
H1682 H 0.28044 0.45309 0.75712 0.0
H1683 H 0.27829 0.45152 0.72521 0.0
H1684 H 0.29163 0.48064 0.73828 0.0
H1685 H 0.33857 0.38462 0.76547 0.0
H1686 H 0.36705 0.3922 0.74949 0.0
H1687 H 0.33613 0.38396 0.73344 0.0
C1688 C 0.26494 0.66072 0.75207 0.0
C1689 C 0.26938 0.67687 0.77075 0.0
C1690 C 0.28127 0.64385 0.75 0.0
C1691 C 0.30244 0.64305 0.76713 0.0
C1692 C 0.30608 0.65834 0.78683 0.0
C1693 C 0.28943 0.67501 0.78845 0.0
C1694 C 0.27658 0.62779 0.72883 0.0
C1695 C 0.3283 0.65799 0.80555 0.0
C1696 C 0.33919 0.58959 0.76851 0.0
C1697 C 0.3597 0.60045 0.75489 0.0
C1698 C 0.32037 0.60318 0.77273 0.0
C1699 C 0.32213 0.62818 0.76313 0.0
C1700 C 0.34283 0.63922 0.74947 0.0
C1701 C 0.3613 0.62526 0.74553 0.0
C1702 C 0.29858 0.59077 0.78737 0.0
C1703 C 0.34548 0.66583 0.73892 0.0
H1704 H 0.24918 0.66194 0.73859 0.0
H1705 H 0.29261 0.68726 0.8031 0.0
H1706 H 0.29202 0.63394 0.71654 0.0
H1707 H 0.27699 0.60806 0.73499 0.0
H1708 H 0.25798 0.6288 0.7185 0.0
H1709 H 0.32703 0.66912 0.82093 0.0
H1710 H 0.32926 0.63858 0.8125 0.0
H1711 H 0.34641 0.66572 0.79722 0.0
H1712 H 0.33778 0.57044 0.7758 0.0
H1713 H 0.37704 0.63387 0.73501 0.0
H1714 H 0.28014 0.59068 0.77644 0.0
H1715 H 0.29818 0.60147 0.80324 0.0
H1716 H 0.30003 0.57127 0.7937 0.0
H1717 H 0.32846 0.66805 0.72655 0.0
H1718 H 0.36277 0.67169 0.72881 0.0
H1719 H 0.3465 0.67861 0.75347 0.0
C1720 C 0.90558 0.46646 0.48274 0.0
C1721 C 0.90598 0.49166 0.4862 0.0
C1722 C 0.88313 0.44855 0.48438 0.0
C1723 C 0.8606 0.45571 0.49047 0.0
C1724 C 0.86076 0.48099 0.49405 0.0
C1725 C 0.88327 0.49869 0.49148 0.0
C1726 C 0.88366 0.42185 0.47995 0.0
C1727 C 0.8373 0.48928 0.50111 0.0
C1728 C 0.79767 0.41101 0.47818 0.0
C1729 C 0.79576 0.39678 0.50014 0.0
C1730 C 0.8185 0.43061 0.47481 0.0
C1731 C 0.8373 0.43643 0.49412 0.0
C1732 C 0.83462 0.42277 0.5167 0.0
C1733 C 0.81412 0.4028 0.51928 0.0
C1734 C 0.82105 0.44422 0.45029 0.0
C1735 C 0.85376 0.42881 0.53796 0.0
H1736 H 0.92294 0.4605 0.47915 0.0
H1737 H 0.88298 0.51809 0.49366 0.0
H1738 H 0.88079 0.40991 0.49686 0.0
H1739 H 0.86786 0.4148 0.46655 0.0
H1740 H 0.902 0.41973 0.47331 0.0
H1741 H 0.84051 0.50965 0.5032 0.0
H1742 H 0.82113 0.48447 0.48738 0.0
H1743 H 0.8315 0.47927 0.51838 0.0
H1744 H 0.78355 0.40605 0.46333 0.0
H1745 H 0.81251 0.39168 0.53626 0.0
H1746 H 0.83828 0.44057 0.44266 0.0
H1747 H 0.82364 0.46463 0.45173 0.0
H1748 H 0.80416 0.43836 0.43755 0.0
H1749 H 0.87242 0.42449 0.53438 0.0
H1750 H 0.84755 0.41808 0.55481 0.0
H1751 H 0.85681 0.44901 0.54079 0.0
C1752 C 0.76486 0.85587 0.7979 0.0
C1753 C 0.75401 0.83062 0.80151 0.0
C1754 C 0.74952 0.87422 0.79417 0.0
C1755 C 0.72257 0.86712 0.79342 0.0
C1756 C 0.71149 0.84155 0.79684 0.0
C1757 C 0.72738 0.82362 0.80118 0.0
C1758 C 0.7622 0.90127 0.79113 0.0
C1759 C 0.68289 0.83313 0.79556 0.0
C1760 C 0.68705 0.91913 0.80287 0.0
C1761 C 0.68274 0.92893 0.77917 0.0
C1762 C 0.69902 0.89827 0.80781 0.0
C1763 C 0.70623 0.88658 0.78855 0.0
C1764 C 0.70001 0.89525 0.76454 0.0
C1765 C 0.68872 0.91653 0.76015 0.0
C1766 C 0.70568 0.88997 0.83368 0.0
C1767 C 0.70662 0.88294 0.74344 0.0
H1768 H 0.78547 0.8613 0.79841 0.0
H1769 H 0.71898 0.80406 0.80388 0.0
H1770 H 0.75654 0.90926 0.77297 0.0
H1771 H 0.75579 0.91212 0.80448 0.0
H1772 H 0.78336 0.90377 0.79336 0.0
H1773 H 0.67728 0.81258 0.79861 0.0
H1774 H 0.67461 0.84211 0.80917 0.0
H1775 H 0.67435 0.83901 0.77763 0.0
H1776 H 0.68278 0.92884 0.81764 0.0
H1777 H 0.68537 0.92402 0.74179 0.0
H1778 H 0.72669 0.8945 0.83771 0.0
H1779 H 0.69984 0.86949 0.83679 0.0
H1780 H 0.6965 0.89921 0.84648 0.0
H1781 H 0.7276 0.88701 0.74229 0.0
H1782 H 0.69737 0.88962 0.72612 0.0
H1783 H 0.7007 0.8624 0.74589 0.0
C1784 C 0.60227 0.55584 0.01896 0.0
C1785 C 0.60195 0.5305 0.02593 0.0
C1786 C 0.62423 0.57396 0.02327 0.0
C1787 C 0.64625 0.56692 0.03588 0.0
C1788 C 0.64584 0.54164 0.04392 0.0
C1789 C 0.62391 0.52369 0.03849 0.0
C1790 C 0.62396 0.60064 0.01395 0.0
C1791 C 0.66863 0.53352 0.05814 0.0
C1792 C 0.70941 0.6109 0.02708 0.0
C1793 C 0.71091 0.62634 0.04603 0.0
C1794 C 0.6887 0.59109 0.02381 0.0
C1795 C 0.66962 0.58617 0.04041 0.0
C1796 C 0.67193 0.60096 0.06035 0.0
C1797 C 0.69227 0.62123 0.06262 0.0
C1798 C 0.68655 0.57632 0.00189 0.0
C1799 C 0.65256 0.59581 0.07895 0.0
H1800 H 0.58534 0.56167 0.00997 0.0
H1801 H 0.62424 0.50426 0.04377 0.0
H1802 H 0.62681 0.61282 0.02919 0.0
H1803 H 0.63992 0.60737 0.00234 0.0
H1804 H 0.60577 0.60283 0.00339 0.0
H1805 H 0.66458 0.51355 0.06471 0.0
H1806 H 0.68498 0.5365 0.0468 0.0
H1807 H 0.67461 0.54496 0.07385 0.0
H1808 H 0.72377 0.6151 0.01416 0.0
H1809 H 0.69359 0.6332 0.07733 0.0
H1810 H 0.66929 0.57922 0.99014 0.0
H1811 H 0.68424 0.55611 0.00726 0.0
H1812 H 0.70348 0.58182 0.99126 0.0
H1813 H 0.6341 0.6003 0.07086 0.0
H1814 H 0.6588 0.60699 0.09482 0.0
H1815 H 0.64911 0.57574 0.08513 0.0
C1816 C 0.28796 0.66281 0.26578 0.0
C1817 C 0.28157 0.68489 0.2543 0.0
C1818 C 0.26955 0.64101 0.26829 0.0
C1819 C 0.24419 0.64091 0.2584 0.0
C1820 C 0.23768 0.6628 0.24613 0.0
C1821 C 0.25633 0.6846 0.24452 0.0
C1822 C 0.2772 0.61816 0.28184 0.0
C1823 C 0.21098 0.66324 0.23485 0.0
C1824 C 0.2055 0.57604 0.2502 0.0
C1825 C 0.19159 0.57198 0.27061 0.0
C1826 C 0.22165 0.59895 0.24524 0.0
C1827 C 0.22449 0.61794 0.26148 0.0
C1828 C 0.20985 0.61418 0.28173 0.0
C1829 C 0.1933 0.59134 0.28585 0.0
C1830 C 0.23629 0.60254 0.22304 0.0
C1831 C 0.21274 0.63371 0.29977 0.0
H1832 H 0.30746 0.66247 0.27285 0.0
H1833 H 0.25094 0.70152 0.2359 0.0
H1834 H 0.26512 0.61209 0.2971 0.0
H1835 H 0.27405 0.60256 0.26985 0.0
H1836 H 0.29755 0.62152 0.28902 0.0
H1837 H 0.20947 0.68118 0.22444 0.0
H1838 H 0.20495 0.64787 0.22267 0.0
H1839 H 0.19738 0.66023 0.24905 0.0
H1840 H 0.20395 0.56125 0.2382 0.0
H1841 H 0.18268 0.58819 0.30174 0.0
H1842 H 0.25691 0.60336 0.22837 0.0
H1843 H 0.23421 0.62047 0.21293 0.0
H1844 H 0.22976 0.58719 0.21087 0.0
H1845 H 0.2324 0.63647 0.30869 0.0
H1846 H 0.199 0.62843 0.31385 0.0
H1847 H 0.2099 0.65185 0.2906 0.0
C1848 C 0.93331 0.55095 0.04901 0.0
C1849 C 0.937 0.53822 0.07157 0.0
C1850 C 0.91668 0.56818 0.04531 0.0
C1851 C 0.90332 0.57282 0.06461 0.0
C1852 C 0.90675 0.55985 0.08736 0.0
C1853 C 0.92357 0.54277 0.09058 0.0
C1854 C 0.91375 0.58173 0.02083 0.0
C1855 C 0.89281 0.56419 0.10839 0.0
C1856 C 0.88122 0.63495 0.06364 0.0
C1857 C 0.85508 0.62857 0.05645 0.0
C1858 C 0.8971 0.61707 0.06608 0.0
C1859 C 0.88665 0.59206 0.06131 0.0
C1860 C 0.86036 0.58551 0.05372 0.0
C1861 C 0.84489 0.60385 0.05131 0.0
C1862 C 0.92504 0.62493 0.07405 0.0
C1863 C 0.8485 0.55904 0.04849 0.0
H1864 H 0.94383 0.54779 0.03429 0.0
H1865 H 0.92603 0.53278 0.10797 0.0
H1866 H 0.89333 0.57896 0.01401 0.0
H1867 H 0.92044 0.60205 0.02225 0.0
H1868 H 0.92472 0.57533 0.00746 0.0
H1869 H 0.89688 0.55201 0.12466 0.0
H1870 H 0.89844 0.58391 0.11291 0.0
H1871 H 0.87192 0.56071 0.10352 0.0
H1872 H 0.88934 0.65399 0.06758 0.0
H1873 H 0.82473 0.59871 0.04581 0.0
H1874 H 0.93701 0.62019 0.06062 0.0
H1875 H 0.92971 0.61462 0.09135 0.0
H1876 H 0.93033 0.64523 0.07648 0.0
H1877 H 0.85862 0.55266 0.03447 0.0
H1878 H 0.82791 0.55704 0.04229 0.0
H1879 H 0.85055 0.54649 0.06493 0.0
C1880 C 0.07098 0.95211 0.02501 0.0
C1881 C 0.06601 0.97244 0.00958 0.0
C1882 C 0.09172 0.94058 0.02221 0.0
C1883 C 0.10805 0.94979 0.00366 0.0
C1884 C 0.10326 0.97054 0.98819 0.0
C1885 C 0.08234 0.9817 0.99142 0.0
C1886 C 0.09623 0.91859 0.03917 0.0
C1887 C 0.12028 0.98102 0.96833 0.0
C1888 C 0.17407 0.93288 0.01362 0.0
C1889 C 0.17115 0.91184 0.00023 0.0
C1890 C 0.15403 0.94601 0.01412 0.0
C1891 C 0.13041 0.93793 0.00093 0.0
C1892 C 0.12773 0.91747 0.98643 0.0
C1893 C 0.14814 0.90468 0.98622 0.0
C1894 C 0.15777 0.96784 0.02966 0.0
C1895 C 0.1029 0.90836 0.972 0.0
H1896 H 0.05856 0.94521 0.03928 0.0
H1897 H 0.07867 0.99768 0.97973 0.0
H1898 H 0.09612 0.90218 0.02881 0.0
H1899 H 0.11529 0.92292 0.04915 0.0
H1900 H 0.08156 0.91348 0.0524 0.0
H1901 H 0.11372 0.99698 0.95762 0.0
H1902 H 0.1401 0.98731 0.97609 0.0
H1903 H 0.12089 0.96631 0.95606 0.0
H1904 H 0.19181 0.93867 0.0244 0.0
H1905 H 0.14567 0.88848 0.97579 0.0
H1906 H 0.14535 0.96311 0.04481 0.0
H1907 H 0.1521 0.9843 0.01914 0.0
H1908 H 0.17787 0.97305 0.03721 0.0
H1909 H 0.08787 0.90075 0.9844 0.0
H1910 H 0.10453 0.89358 0.96013 0.0
H1911 H 0.09648 0.92404 0.96075 0.0
loop_
_geom_bond_atom_site_label_1
_geom_bond_atom_site_label_2
_geom_bond_distance
_geom_bond_site_symmetry_2
_ccdc_geom_bond_type
H0 C7 0.929 . S
H1 C10 0.930 . S
H2 C12 0.929 1_556 S
H3 C4 0.969 . S
C4 H3 0.969 . S
C4 O5 1.550 1_565 S
C4 H6 0.973 . S
O5 C4 1.550 1_545 S
O5 C11 1.412 . S
H6 C4 0.973 . S
C7 H0 0.929 . S
C7 C8 1.400 1_655 S
C7 C9 1.364 . S
C8 C7 1.400 1_455 S
C8 C12 1.377 . S
C9 C7 1.364 . S
C9 C10 1.374 1_655 S
C10 H1 0.930 . S
C10 C9 1.374 1_455 S
C10 C11 1.383 . S
C11 O5 1.412 . S
C11 C10 1.383 . S
C11 C12 1.394 . S
C12 H2 0.929 1_554 S
C12 C8 1.377 . S
C12 C11 1.394 . S
H13 C20 0.929 . S
H14 C23 0.930 . S
H15 C25 0.929 . S
H16 C17 0.969 . S
C17 H16 0.969 . S
C17 O18 1.550 . S
C17 H19 0.973 . S
O18 C17 1.550 . S
O18 C24 1.412 . S
H19 C17 0.973 . S
C20 H13 0.929 . S
C20 C21 1.400 . S
C20 C22 1.364 . S
C21 C20 1.400 . S
C21 C25 1.377 . S
C22 C20 1.364 . S
C22 C23 1.374 . S
C23 H14 0.930 . S
C23 C22 1.374 . S
C23 C24 1.383 . S
C24 O18 1.412 . S
C24 C23 1.383 . S
C24 C25 1.394 . S
C25 H15 0.929 . S
C25 C21 1.377 . S
C25 C24 1.394 . S
H26 C33 0.929 . S
H27 C36 0.930 . S
H28 C38 0.958 . S
H29 C30 0.969 . S
C30 H29 0.969 . S
C30 O31 1.550 . S
C30 H32 0.973 . S
O31 C30 1.550 . S
O31 C37 1.412 . S
H32 C30 0.973 . S
C33 H26 0.929 . S
C33 C34 1.400 . S
C33 C35 1.364 . S
C34 C33 1.400 . S
C34 C38 1.364 1_655 S
C35 C33 1.364 . S
C35 C36 1.374 . S
C36 H27 0.930 . S
C36 C35 1.374 . S
C36 C37 1.383 . S
C37 O31 1.412 . S
C37 C36 1.383 . S
C37 C38 1.378 1_655 S
C38 H28 0.958 . S
C38 C34 1.364 1_455 S
C38 C37 1.378 1_455 S
H39 C46 0.929 . S
H40 C49 0.930 . S
H41 C51 0.929 . S
H42 C43 0.969 . S
C43 H42 0.969 . S
C43 O44 1.550 . S
C43 H45 0.973 . S
O44 C43 1.550 . S
O44 C50 1.412 . S
H45 C43 0.973 . S
C46 H39 0.929 . S
C46 C47 1.400 . S
C46 C48 1.364 . S
C47 C46 1.400 . S
C47 C51 1.377 . S
C48 C46 1.364 . S
C48 C49 1.374 . S
C49 H40 0.930 . S
C49 C48 1.374 . S
C49 C50 1.383 . S
C50 O44 1.412 . S
C50 C49 1.383 . S
C50 C51 1.394 . S
C51 H41 0.929 . S
C51 C47 1.377 . S
C51 C50 1.394 . S
H52 C59 0.929 . S
H53 C62 0.930 . S
H54 C64 0.929 . S
H55 C56 0.969 . S
C56 H55 0.969 . S
C56 O57 1.550 . S
C56 H58 0.973 . S
O57 C56 1.550 . S
O57 C63 1.412 . S
H58 C56 0.973 . S
C59 H52 0.929 . S
C59 C60 1.400 . S
C59 C61 1.364 . S
C60 C59 1.400 . S
C60 C64 1.377 1_565 S
C61 C59 1.364 . S
C61 C62 1.374 . S
C62 H53 0.930 . S
C62 C61 1.374 . S
C62 C63 1.383 . S
C63 O57 1.412 . S
C63 C62 1.383 . S
C63 C64 1.394 1_565 S
C64 H54 0.929 . S
C64 C60 1.377 1_545 S
C64 C63 1.394 1_545 S
H65 C72 0.929 . S
H66 C75 0.930 . S
H67 C77 0.929 . S
H68 C69 0.969 . S
C69 H68 0.969 . S
C69 O70 1.550 . S
C69 H71 0.973 . S
O70 C69 1.550 . S
O70 C76 1.412 . S
H71 C69 0.973 . S
C72 H65 0.929 . S
C72 C73 1.400 . S
C72 C74 1.364 . S
C73 C72 1.400 . S
C73 C77 1.377 . S
C74 C72 1.364 . S
C74 C75 1.374 . S
C75 H66 0.930 . S
C75 C74 1.374 . S
C75 C76 1.383 . S
C76 O70 1.412 . S
C76 C75 1.383 . S
C76 C77 1.394 . S
C77 H67 0.929 . S
C77 C73 1.377 . S
C77 C76 1.394 . S
H78 C85 0.929 . S
H79 C88 0.930 . S
H80 C90 0.929 1_455 S
H81 C82 0.983 . S
C82 H81 0.983 . S
C82 O83 1.549 1_655 S
C82 H84 0.981 . S
O83 C82 1.549 1_455 S
O83 C89 1.412 1_455 S
H84 C82 0.981 . S
C85 H78 0.929 . S
C85 C86 1.400 . S
C85 C87 1.364 . S
C86 C85 1.400 . S
C86 C90 1.377 . S
C87 C85 1.364 . S
C87 C88 1.374 . S
C88 H79 0.930 . S
C88 C87 1.374 . S
C88 C89 1.383 . S
C89 O83 1.412 1_655 S
C89 C88 1.383 . S
C89 C90 1.394 . S
C90 H80 0.929 1_655 S
C90 C86 1.377 . S
C90 C89 1.394 . S
H91 C98 0.929 . S
H92 C101 0.930 . S
H93 C103 0.929 . S
H94 C95 0.969 . S
C95 H94 0.969 . S
C95 O96 1.550 . S
C95 H97 0.973 . S
O96 C95 1.550 . S
O96 C102 1.412 . S
H97 C95 0.973 . S
C98 H91 0.929 . S
C98 C99 1.400 . S
C98 C100 1.364 . S
C99 C98 1.400 . S
C99 C103 1.377 . S
C100 C98 1.364 . S
C100 C101 1.374 . S
C101 H92 0.930 . S
C101 C100 1.374 . S
C101 C102 1.383 . S
C102 O96 1.412 . S
C102 C101 1.383 . S
C102 C103 1.394 . S
C103 H93 0.929 . S
C103 C99 1.377 . S
C103 C102 1.394 . S
H104 C111 0.929 . S
H105 C114 0.930 . S
H106 C116 0.929 . S
H107 C108 0.969 . S
C108 H107 0.969 . S
C108 O109 1.550 . S
C108 H110 0.973 . S
O109 C108 1.550 . S
O109 C115 1.412 . S
H110 C108 0.973 . S
C111 H104 0.929 . S
C111 C112 1.400 . S
C111 C113 1.364 . S
C112 C111 1.400 . S
C112 C116 1.377 . S
C113 C111 1.364 . S
C113 C114 1.374 . S
C114 H105 0.930 . S
C114 C113 1.374 . S
C114 C115 1.383 . S
C115 O109 1.412 . S
C115 C114 1.383 . S
C115 C116 1.394 . S
C116 H106 0.929 . S
C116 C112 1.377 . S
C116 C115 1.394 . S
H117 C124 0.929 . S
H118 C127 0.930 . S
H119 C129 0.929 . S
H120 C121 0.969 . S
C121 H120 0.969 . S
C121 O122 1.550 . S
C121 H123 0.973 . S
O122 C121 1.550 . S
O122 C128 1.412 . S
H123 C121 0.973 . S
C124 H117 0.929 . S
C124 C125 1.400 . S
C124 C126 1.364 . S
C125 C124 1.400 . S
C125 C129 1.377 . S
C126 C124 1.364 . S
C126 C127 1.374 . S
C127 H118 0.930 . S
C127 C126 1.374 . S
C127 C128 1.383 . S
C128 O122 1.412 . S
C128 C127 1.383 . S
C128 C129 1.394 . S
C129 H119 0.929 . S
C129 C125 1.377 . S
C129 C128 1.394 . S
H130 C137 0.929 . S
H131 C140 0.930 . S
H132 C142 0.929 . S
H133 C134 0.969 . S
C134 H133 0.969 . S
C134 O135 1.550 . S
C134 H136 0.973 . S
O135 C134 1.550 . S
O135 C141 1.412 . S
H136 C134 0.973 . S
C137 H130 0.929 . S
C137 C138 1.400 . S
C137 C139 1.364 . S
C138 C137 1.400 . S
C138 C142 1.377 . S
C139 C137 1.364 . S
C139 C140 1.374 . S
C140 H131 0.930 . S
C140 C139 1.374 . S
C140 C141 1.383 . S
C141 O135 1.412 . S
C141 C140 1.383 . S
C141 C142 1.394 . S
C142 H132 0.929 . S
C142 C138 1.377 . S
C142 C141 1.394 . S
H143 C150 0.929 . S
H144 C153 0.930 . S
H145 C155 0.929 . S
H146 C147 0.969 . S
C147 H146 0.969 . S
C147 O148 1.550 . S
C147 H149 0.973 . S
O148 C147 1.550 . S
O148 C154 1.412 . S
H149 C147 0.973 . S
C150 H143 0.929 . S
C150 C151 1.400 . S
C150 C152 1.364 . S
C151 C150 1.400 . S
C151 C155 1.377 . S
C152 C150 1.364 . S
C152 C153 1.374 . S
C153 H144 0.930 . S
C153 C152 1.374 . S
C153 C154 1.383 . S
C154 O148 1.412 . S
C154 C153 1.383 . S
C154 C155 1.394 . S
C155 H145 0.929 . S
C155 C151 1.377 . S
C155 C154 1.394 . S
H156 C163 0.929 . S
H157 C166 0.930 . S
H158 C168 0.929 . S
H159 C160 0.969 . S
C160 H159 0.969 . S
C160 O161 1.550 . S
C160 H162 0.973 . S
O161 C160 1.550 . S
O161 C167 1.412 . S
H162 C160 0.973 . S
C163 H156 0.929 . S
C163 C164 1.400 . S
C163 C165 1.364 . S
C164 C163 1.400 . S
C164 C168 1.377 . S
C165 C163 1.364 . S
C165 C166 1.374 . S
C166 H157 0.930 . S
C166 C165 1.374 . S
C166 C167 1.383 . S
C167 O161 1.412 . S
C167 C166 1.383 . S
C167 C168 1.394 . S
C168 H158 0.929 . S
C168 C164 1.377 . S
C168 C167 1.394 . S
H169 C176 0.964 . S
H170 C179 0.930 . S
H171 C181 0.929 . S
H172 C173 0.969 . S
C173 H172 0.969 . S
C173 O174 1.550 . S
C173 H175 0.973 . S
O174 C173 1.550 . S
O174 C180 1.412 . S
H175 C173 0.973 . S
C176 H169 0.964 . S
C176 C177 1.378 1_554 S
C176 C178 1.352 1_554 S
C177 C176 1.378 1_556 S
C177 C181 1.377 . S
C178 C176 1.352 1_556 S
C178 C179 1.374 . S
C179 H170 0.930 . S
C179 C178 1.374 . S
C179 C180 1.383 . S
C180 O174 1.412 . S
C180 C179 1.383 . S
C180 C181 1.394 . S
C181 H171 0.929 . S
C181 C177 1.377 . S
C181 C180 1.394 . S
H182 C189 0.929 . S
H183 C192 0.930 . S
H184 C194 0.929 . S
H185 C186 0.969 . S
C186 H185 0.969 . S
C186 O187 1.550 . S
C186 H188 0.973 . S
O187 C186 1.550 . S
O187 C193 1.412 . S
H188 C186 0.973 . S
C189 H182 0.929 . S
C189 C190 1.400 . S
C189 C191 1.364 . S
C190 C189 1.400 . S
C190 C194 1.377 . S
C191 C189 1.364 . S
C191 C192 1.374 . S
C192 H183 0.930 . S
C192 C191 1.374 . S
C192 C193 1.383 . S
C193 O187 1.412 . S
C193 C192 1.383 . S
C193 C194 1.394 . S
C194 H184 0.929 . S
C194 C190 1.377 . S
C194 C193 1.394 . S
H195 C202 0.929 . S
H196 C205 0.930 . S
H197 C207 0.929 . S
H198 C199 0.969 . S
C199 H198 0.969 . S
C199 O200 1.550 . S
C199 H201 0.973 . S
O200 C199 1.550 . S
O200 C206 1.412 . S
H201 C199 0.973 . S
C202 H195 0.929 . S
C202 C203 1.400 . S
C202 C204 1.364 . S
C203 C202 1.400 . S
C203 C207 1.377 . S
C204 C202 1.364 . S
C204 C205 1.374 1_554 S
C205 H196 0.930 . S
C205 C204 1.374 1_556 S
C205 C206 1.383 . S
C206 O200 1.412 . S
C206 C205 1.383 . S
C206 C207 1.394 1_556 S
C207 H197 0.929 . S
C207 C203 1.377 . S
C207 C206 1.394 1_554 S
Mg208 O209 2.028 . S
Mg208 O215 1.986 1_554 S
Mg208 O217 2.114 . S
Mg208 O218 2.251 . S
Mg208 O221 2.010 . S
O209 Mg208 2.028 . S
O209 C212 1.254 . S
O210 Mg211 2.026 1_554 S
O210 C212 1.246 . S
Mg211 O210 2.026 1_556 S
Mg211 O216 2.041 . S
Mg211 O218 2.072 1_556 S
C212 O209 1.254 . S
C212 O210 1.246 . S
C213 O214 1.264 . S
C213 O221 1.249 . S
O214 C213 1.264 . S
O215 Mg208 1.986 1_556 S
O215 C219 1.246 . S
O216 Mg211 2.041 . S
O216 C219 1.259 . S
O217 Mg208 2.114 . S
O217 C220 1.252 . S
O218 Mg208 2.251 . S
O218 Mg211 2.072 1_554 S
O218 C220 1.273 . S
C219 O215 1.246 . S
C219 O216 1.259 . S
C220 O217 1.252 . S
C220 O218 1.273 . S
O221 Mg208 2.010 . S
O221 C213 1.249 . S
Mg222 O223 2.028 . S
Mg222 O229 1.986 . S
Mg222 O231 2.114 . S
Mg222 O232 2.251 . S
Mg222 O235 2.010 . S
O223 Mg222 2.028 . S
O223 C226 1.250 . S
O224 Mg225 2.028 . S
O224 C226 1.248 . S
Mg225 O224 2.028 . S
Mg225 O230 2.032 . S
Mg225 O232 2.079 . S
C226 O223 1.250 . S
C226 O224 1.248 . S
C227 O228 1.264 . S
C227 O235 1.249 . S
O228 C227 1.264 . S
O229 Mg222 1.986 . S
O229 C233 1.246 . S
O230 Mg225 2.032 . S
O230 C233 1.259 . S
O231 Mg222 2.114 . S
O231 C234 1.252 . S
O232 Mg222 2.251 . S
O232 Mg225 2.079 . S
O232 C234 1.273 . S
C233 O229 1.246 . S
C233 O230 1.259 . S
C234 O231 1.252 . S
C234 O232 1.273 . S
O235 Mg222 2.010 . S
O235 C227 1.249 . S
Mg236 O237 2.028 . S
Mg236 O243 1.986 . S
Mg236 O245 2.114 . S
Mg236 O246 2.251 . S
Mg236 O249 2.010 . S
O237 Mg236 2.028 . S
O237 C240 1.250 . S
O238 Mg239 2.028 . S
O238 C240 1.248 . S
Mg239 O238 2.028 . S
Mg239 O244 2.032 . S
Mg239 O246 2.079 . S
C240 O237 1.250 . S
C240 O238 1.248 . S
C241 O242 1.264 . S
C241 O249 1.249 . S
O242 C241 1.264 . S
O243 Mg236 1.986 . S
O243 C247 1.246 . S
O244 Mg239 2.032 . S
O244 C247 1.259 . S
O245 Mg236 2.114 . S
O245 C248 1.252 . S
O246 Mg236 2.251 . S
O246 Mg239 2.079 . S
O246 C248 1.273 . S
C247 O243 1.246 . S
C247 O244 1.259 . S
C248 O245 1.252 . S
C248 O246 1.273 . S
O249 Mg236 2.010 . S
O249 C241 1.249 . S
Mg250 O251 2.028 . S
Mg250 O257 1.986 . S
Mg250 O259 2.114 . S
Mg250 O260 2.251 . S
Mg250 O263 2.010 . S
O251 Mg250 2.028 . S
O251 C254 1.250 1_545 S
O252 Mg253 2.028 . S
O252 C254 1.248 . S
Mg253 O252 2.028 . S
Mg253 O258 2.032 1_565 S
Mg253 O260 2.079 1_565 S
C254 O251 1.250 1_565 S
C254 O252 1.248 . S
C255 O256 1.264 . S
C255 O263 1.249 . S
O256 C255 1.264 . S
O257 Mg250 1.986 . S
O257 C261 1.246 . S
O258 Mg253 2.032 1_545 S
O258 C261 1.259 . S
O259 Mg250 2.114 . S
O259 C262 1.252 . S
O260 Mg250 2.251 . S
O260 Mg253 2.079 1_545 S
O260 C262 1.273 . S
C261 O257 1.246 . S
C261 O258 1.259 . S
C262 O259 1.252 . S
C262 O260 1.273 . S
O263 Mg250 2.010 . S
O263 C255 1.249 . S
Mg264 O265 2.028 . S
Mg264 O271 1.986 . S
Mg264 O273 2.114 . S
Mg264 O274 2.251 . S
Mg264 O277 2.010 . S
O265 Mg264 2.028 . S
O265 C268 1.250 . S
O266 Mg267 2.028 . S
O266 C268 1.248 . S
Mg267 O266 2.028 . S
Mg267 O272 2.032 . S
Mg267 O274 2.079 . S
C268 O265 1.250 . S
C268 O266 1.248 . S
C269 O270 1.264 . S
C269 O277 1.249 . S
O270 C269 1.264 . S
O271 Mg264 1.986 . S
O271 C275 1.246 . S
O272 Mg267 2.032 . S
O272 C275 1.259 . S
O273 Mg264 2.114 . S
O273 C276 1.252 . S
O274 Mg264 2.251 . S
O274 Mg267 2.079 . S
O274 C276 1.273 . S
C275 O271 1.246 . S
C275 O272 1.259 . S
C276 O273 1.252 . S
C276 O274 1.273 . S
O277 Mg264 2.010 . S
O277 C269 1.249 . S
Mg278 O279 2.028 . S
Mg278 O285 1.986 . S
Mg278 O287 2.114 . S
Mg278 O288 2.251 . S
Mg278 O291 2.010 . S
O279 Mg278 2.028 . S
O279 C282 1.250 . S
O280 Mg281 2.028 . S
O280 C282 1.248 . S
Mg281 O280 2.028 . S
Mg281 O286 2.032 . S
Mg281 O288 2.079 . S
C282 O279 1.250 . S
C282 O280 1.248 . S
C283 O284 1.264 . S
C283 O291 1.249 . S
O284 C283 1.264 . S
O285 Mg278 1.986 . S
O285 C289 1.246 . S
O286 Mg281 2.032 . S
O286 C289 1.259 . S
O287 Mg278 2.114 . S
O287 C290 1.252 . S
O288 Mg278 2.251 . S
O288 Mg281 2.079 . S
O288 C290 1.273 . S
C289 O285 1.246 . S
C289 O286 1.259 . S
C290 O287 1.252 . S
C290 O288 1.273 . S
O291 Mg278 2.010 . S
O291 C283 1.249 . S
Mg292 O293 2.028 . S
Mg292 O299 1.986 . S
Mg292 O301 2.114 . S
Mg292 O302 2.251 . S
Mg292 O305 2.010 . S
O293 Mg292 2.028 . S
O293 C296 1.250 . S
O294 Mg295 2.028 . S
O294 C296 1.248 . S
Mg295 O294 2.028 . S
Mg295 O300 2.032 . S
Mg295 O302 2.079 . S
C296 O293 1.250 . S
C296 O294 1.248 . S
C297 O298 1.264 . S
C297 O305 1.249 . S
O298 C297 1.264 . S
O299 Mg292 1.986 . S
O299 C303 1.246 . S
O300 Mg295 2.032 . S
O300 C303 1.259 . S
O301 Mg292 2.114 . S
O301 C304 1.252 . S
O302 Mg292 2.251 . S
O302 Mg295 2.079 . S
O302 C304 1.273 . S
C303 O299 1.246 . S
C303 O300 1.259 . S
C304 O301 1.252 . S
C304 O302 1.273 . S
O305 Mg292 2.010 . S
O305 C297 1.249 . S
Mg306 O307 2.028 1_545 S
Mg306 O313 1.986 1_545 S
Mg306 O315 2.114 . S
Mg306 O316 2.251 . S
Mg306 O319 2.010 . S
O307 Mg306 2.028 1_565 S
O307 C310 1.250 . S
O308 Mg309 2.028 . S
O308 C310 1.248 . S
Mg309 O308 2.028 . S
Mg309 O314 2.032 . S
Mg309 O316 2.079 1_565 S
C310 O307 1.250 . S
C310 O308 1.248 . S
C311 O312 1.264 . S
C311 O319 1.249 . S
O312 C311 1.264 . S
O313 Mg306 1.986 1_565 S
O313 C317 1.246 . S
O314 Mg309 2.032 . S
O314 C317 1.259 . S
O315 Mg306 2.114 . S
O315 C318 1.252 . S
O316 Mg306 2.251 . S
O316 Mg309 2.079 1_545 S
O316 C318 1.273 . S
C317 O313 1.246 . S
C317 O314 1.259 . S
C318 O315 1.252 . S
C318 O316 1.273 . S
O319 Mg306 2.010 . S
O319 C311 1.249 . S
Mg320 O321 2.028 1_455 S
Mg320 O327 1.986 . S
Mg320 O329 2.114 . S
Mg320 O330 2.251 1_455 S
Mg320 O333 2.010 . S
O321 Mg320 2.028 1_655 S
O321 C324 1.250 . S
O322 Mg323 2.028 . S
O322 C324 1.248 . S
Mg323 O322 2.028 . S
Mg323 O328 2.032 . S
Mg323 O330 2.079 . S
C324 O321 1.250 . S
C324 O322 1.248 . S
C325 O326 1.264 . S
C325 O333 1.249 . S
O326 C325 1.264 . S
O327 Mg320 1.986 . S
O327 C331 1.218 1_455 S
O328 Mg323 2.032 . S
O328 C331 1.289 . S
O329 Mg320 2.114 . S
O329 C332 1.252 . S
O330 Mg320 2.251 1_655 S
O330 Mg323 2.079 . S
O330 C332 1.273 1_655 S
C331 O327 1.218 1_655 S
C331 O328 1.289 . S
C332 O329 1.252 . S
C332 O330 1.273 1_455 S
O333 Mg320 2.010 . S
O333 C325 1.249 . S
Mg334 O335 2.028 . S
Mg334 O341 1.986 . S
Mg334 O343 2.114 . S
Mg334 O344 2.251 . S
Mg334 O347 2.010 . S
O335 Mg334 2.028 . S
O335 C338 1.250 . S
O336 Mg337 2.028 . S
O336 C338 1.248 . S
Mg337 O336 2.028 . S
Mg337 O342 2.032 . S
Mg337 O344 2.079 . S
C338 O335 1.250 . S
C338 O336 1.248 . S
C339 O340 1.264 . S
C339 O347 1.249 . S
O340 C339 1.264 . S
O341 Mg334 1.986 . S
O341 C345 1.246 . S
O342 Mg337 2.032 . S
O342 C345 1.259 . S
O343 Mg334 2.114 . S
O343 C346 1.252 . S
O344 Mg334 2.251 . S
O344 Mg337 2.079 . S
O344 C346 1.273 . S
C345 O341 1.246 . S
C345 O342 1.259 . S
C346 O343 1.252 . S
C346 O344 1.273 . S
O347 Mg334 2.010 . S
O347 C339 1.249 . S
Mg348 O349 2.028 1_655 S
Mg348 O355 1.986 1_655 S
Mg348 O357 2.114 . S
Mg348 O358 2.251 1_655 S
Mg348 O361 2.010 . S
O349 Mg348 2.028 1_455 S
O349 C352 1.250 . S
O350 Mg351 2.028 . S
O350 C352 1.248 . S
Mg351 O350 2.028 . S
Mg351 O356 2.032 . S
Mg351 O358 2.079 . S
C352 O349 1.250 . S
C352 O350 1.248 . S
C353 O354 1.264 . S
C353 O361 1.249 . S
O354 C353 1.264 . S
O355 Mg348 1.986 1_455 S
O355 C359 1.246 . S
O356 Mg351 2.032 . S
O356 C359 1.259 . S
O357 Mg348 2.114 . S
O357 C360 1.252 . S
O358 Mg348 2.251 1_455 S
O358 Mg351 2.079 . S
O358 C360 1.273 1_455 S
C359 O355 1.246 . S
C359 O356 1.259 . S
C360 O357 1.252 . S
C360 O358 1.273 1_655 S
O361 Mg348 2.010 . S
O361 C353 1.249 . S
Mg362 O363 2.028 . S
Mg362 O369 1.986 . S
Mg362 O371 2.114 . S
Mg362 O372 2.251 . S
Mg362 O375 2.010 . S
O363 Mg362 2.028 . S
O363 C366 1.250 . S
O364 Mg365 2.028 . S
O364 C366 1.248 . S
Mg365 O364 2.028 . S
Mg365 O370 2.032 . S
Mg365 O372 2.079 . S
C366 O363 1.250 . S
C366 O364 1.248 . S
C367 O368 1.264 . S
C367 O375 1.249 . S
O368 C367 1.264 . S
O369 Mg362 1.986 . S
O369 C373 1.246 . S
O370 Mg365 2.032 . S
O370 C373 1.259 . S
O371 Mg362 2.114 . S
O371 C374 1.252 . S
O372 Mg362 2.251 . S
O372 Mg365 2.079 . S
O372 C374 1.273 . S
C373 O369 1.246 . S
C373 O370 1.259 . S
C374 O371 1.252 . S
C374 O372 1.273 . S
O375 Mg362 2.010 . S
O375 C367 1.249 . S
C376 C377 1.391 . S
C376 C378 1.394 . S
C376 H392 0.931 . S
C377 C376 1.391 . S
C377 C381 1.376 . S
C378 C376 1.394 . S
C378 C379 1.369 . S
C378 C382 1.531 . S
C379 C378 1.369 . S
C379 C380 1.410 . S
C379 C387 1.503 . S
C380 C379 1.410 . S
C380 C381 1.392 . S
C380 C383 1.511 . S
C381 C377 1.376 . S
C381 C380 1.392 . S
C381 H393 0.929 . S
C382 C378 1.531 . S
C382 H394 0.960 . S
C382 H395 0.962 . S
C382 H396 0.960 . S
C383 C380 1.511 . S
C383 H397 0.961 . S
C383 H398 0.961 . S
C383 H399 0.961 . S
C384 C385 1.370 . S
C384 C386 1.363 . S
C384 H400 0.931 . S
C385 C384 1.370 . S
C385 C389 1.408 . S
C386 C384 1.363 . S
C386 C387 1.370 . S
C386 C390 1.524 . S
C387 C379 1.503 . S
C387 C386 1.370 . S
C387 C388 1.403 . S
C388 C387 1.403 . S
C388 C389 1.404 . S
C388 C391 1.539 . S
C389 C385 1.408 . S
C389 C388 1.404 . S
C389 H401 0.930 . S
C390 C386 1.524 . S
C390 H402 0.956 . S
C390 H403 0.961 . S
C390 H404 0.961 . S
C391 C388 1.539 . S
C391 H405 0.958 . S
C391 H406 0.961 . S
C391 H407 0.960 . S
H392 C376 0.931 . S
H393 C381 0.929 . S
H394 C382 0.960 . S
H395 C382 0.962 . S
H396 C382 0.960 . S
H397 C383 0.961 . S
H398 C383 0.961 . S
H399 C383 0.961 . S
H400 C384 0.931 . S
H401 C389 0.930 . S
H402 C390 0.956 . S
H403 C390 0.961 . S
H404 C390 0.961 . S
H405 C391 0.958 . S
H406 C391 0.961 . S
H407 C391 0.960 . S
C408 C409 1.391 . S
C408 C410 1.394 . S
C408 H424 0.931 1_455 S
C409 C408 1.391 . S
C409 C413 1.376 . S
C410 C408 1.394 . S
C410 C411 1.369 . S
C410 C414 1.531 . S
C411 C410 1.369 . S
C411 C412 1.410 . S
C411 C419 1.503 . S
C412 C411 1.410 . S
C412 C413 1.392 . S
C412 C415 1.511 . S
C413 C409 1.376 . S
C413 C412 1.392 . S
C413 H425 0.929 . S
C414 C410 1.531 . S
C414 H426 0.960 . S
C414 H427 0.962 . S
C414 H428 0.960 . S
C415 C412 1.511 . S
C415 H429 0.961 . S
C415 H430 0.961 . S
C415 H431 0.961 . S
C416 C417 1.370 . S
C416 C418 1.363 . S
C416 H432 0.931 . S
C417 C416 1.370 . S
C417 C421 1.408 . S
C418 C416 1.363 . S
C418 C419 1.370 . S
C418 C422 1.524 . S
C419 C411 1.503 . S
C419 C418 1.370 . S
C419 C420 1.403 . S
C420 C419 1.403 . S
C420 C421 1.404 . S
C420 C423 1.539 . S
C421 C417 1.408 . S
C421 C420 1.404 . S
C421 H433 0.930 . S
C422 C418 1.524 . S
C422 H434 0.956 . S
C422 H435 0.961 . S
C422 H436 0.961 . S
C423 C420 1.539 . S
C423 H437 0.958 . S
C423 H438 0.961 . S
C423 H439 0.960 . S
H424 C408 0.931 1_655 S
H425 C413 0.929 . S
H426 C414 0.960 . S
H427 C414 0.962 . S
H428 C414 0.960 . S
H429 C415 0.961 . S
H430 C415 0.961 . S
H431 C415 0.961 . S
H432 C416 0.931 . S
H433 C421 0.930 . S
H434 C422 0.956 . S
H435 C422 0.961 . S
H436 C422 0.961 . S
H437 C423 0.958 . S
H438 C423 0.961 . S
H439 C423 0.960 . S
C440 C441 1.391 . S
C440 C442 1.394 . S
C440 H456 0.931 . S
C441 C440 1.391 . S
C441 C445 1.376 . S
C442 C440 1.394 . S
C442 C443 1.369 . S
C442 C446 1.531 . S
C443 C442 1.369 . S
C443 C444 1.410 . S
C443 C451 1.503 . S
C444 C443 1.410 . S
C444 C445 1.392 . S
C444 C447 1.511 . S
C445 C441 1.376 . S
C445 C444 1.392 . S
C445 H457 0.929 . S
C446 C442 1.531 . S
C446 H458 0.960 . S
C446 H459 0.962 . S
C446 H460 0.960 . S
C447 C444 1.511 . S
C447 H461 0.961 . S
C447 H462 0.961 . S
C447 H463 0.961 . S
C448 C449 1.370 . S
C448 C450 1.363 . S
C448 H464 0.931 . S
C449 C448 1.370 . S
C449 C453 1.408 . S
C450 C448 1.363 . S
C450 C451 1.370 . S
C450 C454 1.524 . S
C451 C443 1.503 . S
C451 C450 1.370 . S
C451 C452 1.403 . S
C452 C451 1.403 . S
C452 C453 1.404 . S
C452 C455 1.539 . S
C453 C449 1.408 . S
C453 C452 1.404 . S
C453 H465 0.930 . S
C454 C450 1.524 . S
C454 H466 0.956 . S
C454 H467 0.961 . S
C454 H468 0.961 . S
C455 C452 1.539 . S
C455 H469 0.958 . S
C455 H470 0.961 . S
C455 H471 0.960 . S
H456 C440 0.931 . S
H457 C445 0.929 . S
H458 C446 0.960 . S
H459 C446 0.962 . S
H460 C446 0.960 . S
H461 C447 0.961 . S
H462 C447 0.961 . S
H463 C447 0.961 . S
H464 C448 0.931 . S
H465 C453 0.930 . S
H466 C454 0.956 . S
H467 C454 0.961 . S
H468 C454 0.961 . S
H469 C455 0.958 . S
H470 C455 0.961 . S
H471 C455 0.960 . S
C472 C473 1.391 . S
C472 C474 1.394 1_455 S
C472 H488 0.931 . S
C473 C472 1.391 . S
C473 C477 1.376 1_455 S
C474 C472 1.394 1_655 S
C474 C475 1.369 . S
C474 C478 1.521 1_655 S
C475 C474 1.369 . S
C475 C476 1.410 1_565 S
C475 C483 1.503 1_565 S
C476 C475 1.410 1_545 S
C476 C477 1.392 1_545 S
C476 C479 1.511 . S
C477 C473 1.376 1_655 S
C477 C476 1.392 1_565 S
C477 H489 0.928 1_565 S
C478 C474 1.521 1_455 S
C478 H490 0.942 1_455 S
C478 H491 0.972 1_565 S
C478 H492 0.979 . S
C479 C476 1.511 . S
C479 H493 0.961 . S
C479 H494 0.961 . S
C479 H495 0.961 1_545 S
C480 C481 1.370 . S
C480 C482 1.363 . S
C480 H496 0.931 . S
C481 C480 1.370 . S
C481 C485 1.408 1_545 S
C482 C480 1.363 . S
C482 C483 1.370 . S
C482 C486 1.524 . S
C483 C475 1.503 1_545 S
C483 C482 1.370 . S
C483 C484 1.403 1_545 S
C484 C483 1.403 1_565 S
C484 C485 1.404 . S
C484 C487 1.539 . S
C485 C481 1.408 1_565 S
C485 C484 1.404 . S
C485 H497 0.930 . S
C486 C482 1.524 . S
C486 H498 0.956 . S
C486 H499 0.961 . S
C486 H500 0.961 . S
C487 C484 1.539 . S
C487 H501 0.958 . S
C487 H502 0.961 . S
C487 H503 0.960 . S
H488 C472 0.931 . S
H489 C477 0.928 1_545 S
H490 C478 0.942 1_655 S
H491 C478 0.972 1_545 S
H492 C478 0.979 . S
H493 C479 0.961 . S
H494 C479 0.961 . S
H495 C479 0.961 1_565 S
H496 C480 0.931 . S
H497 C485 0.930 . S
H498 C486 0.956 . S
H499 C486 0.961 . S
H500 C486 0.961 . S
H501 C487 0.958 . S
H502 C487 0.961 . S
H503 C487 0.960 . S
C504 C505 1.391 . S
C504 C506 1.394 . S
C504 H520 0.931 . S
C505 C504 1.391 . S
C505 C509 1.376 . S
C506 C504 1.394 . S
C506 C507 1.369 . S
C506 C510 1.531 . S
C507 C506 1.369 . S
C507 C508 1.410 . S
C507 C515 1.503 . S
C508 C507 1.410 . S
C508 C509 1.392 . S
C508 C511 1.511 . S
C509 C505 1.376 . S
C509 C508 1.392 . S
C509 H521 0.929 . S
C510 C506 1.531 . S
C510 H522 0.960 . S
C510 H523 0.962 . S
C510 H524 0.960 . S
C511 C508 1.511 . S
C511 H525 0.961 . S
C511 H526 0.961 . S
C511 H527 0.961 . S
C512 C513 1.370 . S
C512 C514 1.363 . S
C512 H528 0.931 . S
C513 C512 1.370 . S
C513 C517 1.408 . S
C514 C512 1.363 . S
C514 C515 1.370 . S
C514 C518 1.524 . S
C515 C507 1.503 . S
C515 C514 1.370 . S
C515 C516 1.403 . S
C516 C515 1.403 . S
C516 C517 1.404 . S
C516 C519 1.539 . S
C517 C513 1.408 . S
C517 C516 1.404 . S
C517 H529 0.930 . S
C518 C514 1.524 . S
C518 H530 0.956 . S
C518 H531 0.961 . S
C518 H532 0.961 . S
C519 C516 1.539 . S
C519 H533 0.958 . S
C519 H534 0.961 . S
C519 H535 0.960 . S
H520 C504 0.931 . S
H521 C509 0.929 . S
H522 C510 0.960 . S
H523 C510 0.962 . S
H524 C510 0.960 . S
H525 C511 0.961 . S
H526 C511 0.961 . S
H527 C511 0.961 . S
H528 C512 0.931 . S
H529 C517 0.930 . S
H530 C518 0.956 . S
H531 C518 0.961 . S
H532 C518 0.961 . S
H533 C519 0.958 . S
H534 C519 0.961 . S
H535 C519 0.960 . S
C536 C537 1.391 . S
C536 C538 1.394 . S
C536 H552 0.931 . S
C537 C536 1.391 . S
C537 C541 1.376 . S
C538 C536 1.394 . S
C538 C539 1.369 . S
C538 C542 1.531 . S
C539 C538 1.369 . S
C539 C540 1.410 . S
C539 C547 1.503 . S
C540 C539 1.410 . S
C540 C541 1.392 . S
C540 C543 1.511 . S
C541 C537 1.376 . S
C541 C540 1.392 . S
C541 H553 0.929 . S
C542 C538 1.531 . S
C542 H554 0.960 . S
C542 H555 0.962 . S
C542 H556 0.960 . S
C543 C540 1.511 . S
C543 H557 0.961 . S
C543 H558 0.961 . S
C543 H559 0.961 . S
C544 C545 1.370 . S
C544 C546 1.363 . S
C544 H560 0.931 . S
C545 C544 1.370 . S
C545 C549 1.408 . S
C546 C544 1.363 . S
C546 C547 1.370 . S
C546 C550 1.524 . S
C547 C539 1.503 . S
C547 C546 1.370 . S
C547 C548 1.403 . S
C548 C547 1.403 . S
C548 C549 1.404 . S
C548 C551 1.539 . S
C549 C545 1.408 . S
C549 C548 1.404 . S
C549 H561 0.930 . S
C550 C546 1.524 . S
C550 H562 0.956 . S
C550 H563 0.961 . S
C550 H564 0.961 . S
C551 C548 1.539 . S
C551 H565 0.958 . S
C551 H566 0.961 . S
C551 H567 0.960 . S
H552 C536 0.931 . S
H553 C541 0.929 . S
H554 C542 0.960 . S
H555 C542 0.962 . S
H556 C542 0.960 . S
H557 C543 0.961 . S
H558 C543 0.961 . S
H559 C543 0.961 . S
H560 C544 0.931 . S
H561 C549 0.930 . S
H562 C550 0.956 . S
H563 C550 0.961 . S
H564 C550 0.961 . S
H565 C551 0.958 . S
H566 C551 0.961 . S
H567 C551 0.960 . S
C568 C569 1.391 . S
C568 C570 1.394 . S
C568 H584 0.931 . S
C569 C568 1.391 . S
C569 C573 1.376 . S
C570 C568 1.394 . S
C570 C571 1.369 . S
C570 C574 1.531 . S
C571 C570 1.369 . S
C571 C572 1.410 . S
C571 C579 1.503 . S
C572 C571 1.410 . S
C572 C573 1.392 . S
C572 C575 1.511 . S
C573 C569 1.376 . S
C573 C572 1.392 . S
C573 H585 0.929 . S
C574 C570 1.531 . S
C574 H586 0.960 . S
C574 H587 0.962 . S
C574 H588 0.960 . S
C575 C572 1.511 . S
C575 H589 0.961 . S
C575 H590 0.961 . S
C575 H591 0.961 . S
C576 C577 1.370 . S
C576 C578 1.363 . S
C576 H592 0.931 . S
C577 C576 1.370 . S
C577 C581 1.408 . S
C578 C576 1.363 . S
C578 C579 1.370 . S
C578 C582 1.524 . S
C579 C571 1.503 . S
C579 C578 1.370 . S
C579 C580 1.403 . S
C580 C579 1.403 . S
C580 C581 1.404 . S
C580 C583 1.539 . S
C581 C577 1.408 . S
C581 C580 1.404 . S
C581 H593 0.930 . S
C582 C578 1.524 . S
C582 H594 0.956 . S
C582 H595 0.961 . S
C582 H596 0.961 . S
C583 C580 1.539 . S
C583 H597 0.958 . S
C583 H598 0.961 . S
C583 H599 0.960 . S
H584 C568 0.931 . S
H585 C573 0.929 . S
H586 C574 0.960 . S
H587 C574 0.962 . S
H588 C574 0.960 . S
H589 C575 0.961 . S
H590 C575 0.961 . S
H591 C575 0.961 . S
H592 C576 0.931 . S
H593 C581 0.930 . S
H594 C582 0.956 . S
H595 C582 0.961 . S
H596 C582 0.961 . S
H597 C583 0.958 . S
H598 C583 0.961 . S
H599 C583 0.960 . S
C600 C601 1.391 . S
C600 C602 1.394 . S
C600 H616 0.931 1_565 S
C601 C600 1.391 . S
C601 C605 1.376 . S
C602 C600 1.394 . S
C602 C603 1.369 . S
C602 C606 1.531 1_565 S
C603 C602 1.369 . S
C603 C604 1.410 . S
C603 C611 1.503 . S
C604 C603 1.410 . S
C604 C605 1.392 . S
C604 C607 1.511 . S
C605 C601 1.376 . S
C605 C604 1.392 . S
C605 H617 0.929 . S
C606 C602 1.531 1_545 S
C606 H618 0.960 . S
C606 H619 0.962 . S
C606 H620 0.960 . S
C607 C604 1.511 . S
C607 H621 0.961 . S
C607 H622 0.961 . S
C607 H623 0.961 . S
C608 C609 1.370 . S
C608 C610 1.363 . S
C608 H624 0.931 . S
C609 C608 1.370 . S
C609 C613 1.408 1_565 S
C610 C608 1.363 . S
C610 C611 1.370 . S
C610 C614 1.524 . S
C611 C603 1.503 . S
C611 C610 1.370 . S
C611 C612 1.403 1_565 S
C612 C611 1.403 1_545 S
C612 C613 1.404 . S
C612 C615 1.539 . S
C613 C609 1.408 1_545 S
C613 C612 1.404 . S
C613 H625 0.930 . S
C614 C610 1.524 . S
C614 H626 0.956 . S
C614 H627 0.961 . S
C614 H628 0.961 . S
C615 C612 1.539 . S
C615 H629 0.958 . S
C615 H630 0.961 . S
C615 H631 0.960 . S
H616 C600 0.931 1_545 S
H617 C605 0.929 . S
H618 C606 0.960 . S
H619 C606 0.962 . S
H620 C606 0.960 . S
H621 C607 0.961 . S
H622 C607 0.961 . S
H623 C607 0.961 . S
H624 C608 0.931 . S
H625 C613 0.930 . S
H626 C614 0.956 . S
H627 C614 0.961 . S
H628 C614 0.961 . S
H629 C615 0.958 . S
H630 C615 0.961 . S
H631 C615 0.960 . S
C632 C633 1.391 . S
C632 C634 1.394 . S
C632 H648 0.931 . S
C633 C632 1.391 . S
C633 C637 1.376 . S
C634 C632 1.394 . S
C634 C635 1.369 . S
C634 C638 1.531 . S
C635 C634 1.369 . S
C635 C636 1.410 . S
C635 C643 1.503 . S
C636 C635 1.410 . S
C636 C637 1.392 . S
C636 C639 1.511 . S
C637 C633 1.376 . S
C637 C636 1.392 . S
C637 H649 0.929 . S
C638 C634 1.531 . S
C638 H650 0.960 . S
C638 H651 0.962 . S
C638 H652 0.960 . S
C639 C636 1.511 . S
C639 H653 0.961 . S
C639 H654 0.961 . S
C639 H655 0.961 . S
C640 C641 1.370 . S
C640 C642 1.363 . S
C640 H656 0.931 . S
C641 C640 1.370 . S
C641 C645 1.408 . S
C642 C640 1.363 . S
C642 C643 1.370 . S
C642 C646 1.524 . S
C643 C635 1.503 . S
C643 C642 1.370 . S
C643 C644 1.403 . S
C644 C643 1.403 . S
C644 C645 1.404 . S
C644 C647 1.539 . S
C645 C641 1.408 . S
C645 C644 1.404 . S
C645 H657 0.930 . S
C646 C642 1.524 . S
C646 H658 0.956 . S
C646 H659 0.961 . S
C646 H660 0.961 . S
C647 C644 1.539 . S
C647 H661 0.958 . S
C647 H662 0.961 . S
C647 H663 0.960 . S
H648 C632 0.931 . S
H649 C637 0.929 . S
H650 C638 0.960 . S
H651 C638 0.962 . S
H652 C638 0.960 . S
H653 C639 0.961 . S
H654 C639 0.961 . S
H655 C639 0.961 . S
H656 C640 0.931 . S
H657 C645 0.930 . S
H658 C646 0.956 . S
H659 C646 0.961 . S
H660 C646 0.961 . S
H661 C647 0.958 . S
H662 C647 0.961 . S
H663 C647 0.960 . S
C664 C665 1.391 . S
C664 C666 1.394 . S
C664 H680 0.931 . S
C665 C664 1.391 . S
C665 C669 1.376 . S
C666 C664 1.394 . S
C666 C667 1.369 . S
C666 C670 1.531 . S
C667 C666 1.369 . S
C667 C668 1.410 . S
C667 C675 1.503 . S
C668 C667 1.410 . S
C668 C669 1.392 . S
C668 C671 1.511 . S
C669 C665 1.376 . S
C669 C668 1.392 . S
C669 H681 0.929 . S
C670 C666 1.531 . S
C670 H682 0.960 . S
C670 H683 0.962 . S
C670 H684 0.960 . S
C671 C668 1.511 . S
C671 H685 0.961 . S
C671 H686 0.961 . S
C671 H687 0.961 . S
C672 C673 1.370 . S
C672 C674 1.363 . S
C672 H688 0.931 . S
C673 C672 1.370 . S
C673 C677 1.408 . S
C674 C672 1.363 . S
C674 C675 1.370 . S
C674 C678 1.524 . S
C675 C667 1.503 . S
C675 C674 1.370 . S
C675 C676 1.403 . S
C676 C675 1.403 . S
C676 C677 1.404 . S
C676 C679 1.539 . S
C677 C673 1.408 . S
C677 C676 1.404 . S
C677 H689 0.930 . S
C678 C674 1.524 . S
C678 H690 0.956 . S
C678 H691 0.961 . S
C678 H692 0.961 . S
C679 C676 1.539 . S
C679 H693 0.958 . S
C679 H694 0.961 . S
C679 H695 0.960 . S
H680 C664 0.931 . S
H681 C669 0.929 . S
H682 C670 0.960 . S
H683 C670 0.962 . S
H684 C670 0.960 . S
H685 C671 0.961 . S
H686 C671 0.961 . S
H687 C671 0.961 . S
H688 C672 0.931 . S
H689 C677 0.930 . S
H690 C678 0.956 . S
H691 C678 0.961 . S
H692 C678 0.961 . S
H693 C679 0.958 . S
H694 C679 0.961 . S
H695 C679 0.960 . S
C696 C697 1.391 . S
C696 C698 1.394 . S
C696 H712 0.931 . S
C697 C696 1.391 . S
C697 C701 1.376 . S
C698 C696 1.394 . S
C698 C699 1.369 . S
C698 C702 1.531 . S
C699 C698 1.369 . S
C699 C700 1.410 . S
C699 C707 1.503 . S
C700 C699 1.410 . S
C700 C701 1.392 . S
C700 C703 1.511 . S
C701 C697 1.376 . S
C701 C700 1.392 . S
C701 H713 0.929 . S
C702 C698 1.531 . S
C702 H714 0.960 . S
C702 H715 0.962 . S
C702 H716 0.960 . S
C703 C700 1.511 . S
C703 H717 0.961 . S
C703 H718 0.961 . S
C703 H719 0.961 . S
C704 C705 1.370 . S
C704 C706 1.363 . S
C704 H720 0.931 . S
C705 C704 1.370 . S
C705 C709 1.408 . S
C706 C704 1.363 . S
C706 C707 1.370 . S
C706 C710 1.524 . S
C707 C699 1.503 . S
C707 C706 1.370 . S
C707 C708 1.403 . S
C708 C707 1.403 . S
C708 C709 1.404 . S
C708 C711 1.539 . S
C709 C705 1.408 . S
C709 C708 1.404 . S
C709 H721 0.930 . S
C710 C706 1.524 . S
C710 H722 0.956 . S
C710 H723 0.961 . S
C710 H724 0.961 . S
C711 C708 1.539 . S
C711 H725 0.958 . S
C711 H726 0.961 . S
C711 H727 0.960 . S
H712 C696 0.931 . S
H713 C701 0.929 . S
H714 C702 0.960 . S
H715 C702 0.962 . S
H716 C702 0.960 . S
H717 C703 0.961 . S
H718 C703 0.961 . S
H719 C703 0.961 . S
H720 C704 0.931 . S
H721 C709 0.930 . S
H722 C710 0.956 . S
H723 C710 0.961 . S
H724 C710 0.961 . S
H725 C711 0.958 . S
H726 C711 0.961 . S
H727 C711 0.960 . S
C728 C729 1.391 . S
C728 C730 1.394 . S
C728 H744 0.931 . S
C729 C728 1.391 . S
C729 C733 1.376 . S
C730 C728 1.394 . S
C730 C731 1.369 . S
C730 C734 1.531 . S
C731 C730 1.369 . S
C731 C732 1.410 . S
C731 C739 1.503 . S
C732 C731 1.410 . S
C732 C733 1.392 . S
C732 C735 1.511 . S
C733 C729 1.376 . S
C733 C732 1.392 . S
C733 H745 0.929 . S
C734 C730 1.531 . S
C734 H746 0.960 . S
C734 H747 0.962 . S
C734 H748 0.960 . S
C735 C732 1.511 . S
C735 H749 0.961 . S
C735 H750 0.961 . S
C735 H751 0.961 . S
C736 C737 1.370 . S
C736 C738 1.363 . S
C736 H752 0.931 . S
C737 C736 1.370 . S
C737 C741 1.408 . S
C738 C736 1.363 . S
C738 C739 1.370 . S
C738 C742 1.524 . S
C739 C731 1.503 . S
C739 C738 1.370 . S
C739 C740 1.403 . S
C740 C739 1.403 . S
C740 C741 1.404 . S
C740 C743 1.539 . S
C741 C737 1.408 . S
C741 C740 1.404 . S
C741 H753 0.930 . S
C742 C738 1.524 . S
C742 H754 0.956 . S
C742 H755 0.961 . S
C742 H756 0.961 . S
C743 C740 1.539 . S
C743 H757 0.958 . S
C743 H758 0.961 . S
C743 H759 0.960 . S
H744 C728 0.931 . S
H745 C733 0.929 . S
H746 C734 0.960 . S
H747 C734 0.962 . S
H748 C734 0.960 . S
H749 C735 0.961 . S
H750 C735 0.961 . S
H751 C735 0.961 . S
H752 C736 0.931 . S
H753 C741 0.930 . S
H754 C742 0.956 . S
H755 C742 0.961 . S
H756 C742 0.961 . S
H757 C743 0.958 . S
H758 C743 0.961 . S
H759 C743 0.960 . S
C760 C761 1.391 . S
C760 C762 1.394 . S
C760 H776 0.931 . S
C761 C760 1.391 . S
C761 C765 1.376 . S
C762 C760 1.394 . S
C762 C763 1.369 . S
C762 C766 1.531 . S
C763 C762 1.369 . S
C763 C764 1.410 . S
C763 C771 1.503 . S
C764 C763 1.410 . S
C764 C765 1.392 . S
C764 C767 1.511 . S
C765 C761 1.376 . S
C765 C764 1.392 . S
C765 H777 0.929 . S
C766 C762 1.531 . S
C766 H778 0.960 . S
C766 H779 0.962 . S
C766 H780 0.960 . S
C767 C764 1.511 . S
C767 H781 0.961 . S
C767 H782 0.961 . S
C767 H783 0.961 . S
C768 C769 1.370 . S
C768 C770 1.363 . S
C768 H784 0.931 . S
C769 C768 1.370 . S
C769 C773 1.408 . S
C770 C768 1.363 . S
C770 C771 1.370 . S
C770 C774 1.524 . S
C771 C763 1.503 . S
C771 C770 1.370 . S
C771 C772 1.403 . S
C772 C771 1.403 . S
C772 C773 1.404 . S
C772 C775 1.539 . S
C773 C769 1.408 . S
C773 C772 1.404 . S
C773 H785 0.930 . S
C774 C770 1.524 . S
C774 H786 0.956 . S
C774 H787 0.961 . S
C774 H788 0.961 . S
C775 C772 1.539 . S
C775 H789 0.958 . S
C775 H790 0.961 . S
C775 H791 0.960 . S
H776 C760 0.931 . S
H777 C765 0.929 . S
H778 C766 0.960 . S
H779 C766 0.962 . S
H780 C766 0.960 . S
H781 C767 0.961 . S
H782 C767 0.961 . S
H783 C767 0.961 . S
H784 C768 0.931 . S
H785 C773 0.930 . S
H786 C774 0.956 . S
H787 C774 0.961 . S
H788 C774 0.961 . S
H789 C775 0.958 . S
H790 C775 0.961 . S
H791 C775 0.960 . S
C792 C793 1.391 . S
C792 C794 1.394 . S
C792 H808 0.931 . S
C793 C792 1.391 . S
C793 C797 1.376 . S
C794 C792 1.394 . S
C794 C795 1.369 . S
C794 C798 1.531 1_455 S
C795 C794 1.369 . S
C795 C796 1.410 . S
C795 C803 1.503 . S
C796 C795 1.410 . S
C796 C797 1.392 . S
C796 C799 1.511 . S
C797 C793 1.376 . S
C797 C796 1.392 . S
C797 H809 0.929 . S
C798 C794 1.531 1_655 S
C798 H810 0.960 . S
C798 H811 0.962 . S
C798 H812 0.960 . S
C799 C796 1.511 . S
C799 H813 0.961 . S
C799 H814 0.961 . S
C799 H815 0.961 . S
C800 C801 1.370 . S
C800 C802 1.363 . S
C800 H816 0.931 . S
C801 C800 1.370 . S
C801 C805 1.408 . S
C802 C800 1.363 . S
C802 C803 1.370 . S
C802 C806 1.524 . S
C803 C795 1.503 . S
C803 C802 1.370 . S
C803 C804 1.403 . S
C804 C803 1.403 . S
C804 C805 1.404 . S
C804 C807 1.539 . S
C805 C801 1.408 . S
C805 C804 1.404 . S
C805 H817 0.930 . S
C806 C802 1.524 . S
C806 H818 0.956 . S
C806 H819 0.961 . S
C806 H820 0.961 . S
C807 C804 1.539 . S
C807 H821 0.958 1_455 S
C807 H822 0.961 . S
C807 H823 0.960 . S
H808 C792 0.931 . S
H809 C797 0.929 . S
H810 C798 0.960 . S
H811 C798 0.962 . S
H812 C798 0.960 . S
H813 C799 0.961 . S
H814 C799 0.961 . S
H815 C799 0.961 . S
H816 C800 0.931 . S
H817 C805 0.930 . S
H818 C806 0.956 . S
H819 C806 0.961 . S
H820 C806 0.961 . S
H821 C807 0.958 1_655 S
H822 C807 0.961 . S
H823 C807 0.960 . S
C824 C825 1.391 . S
C824 C826 1.394 . S
C824 H840 0.931 . S
C825 C824 1.391 . S
C825 C829 1.376 . S
C826 C824 1.394 . S
C826 C827 1.369 . S
C826 C830 1.531 . S
C827 C826 1.369 . S
C827 C828 1.410 . S
C827 C835 1.503 . S
C828 C827 1.410 . S
C828 C829 1.392 . S
C828 C831 1.511 . S
C829 C825 1.376 . S
C829 C828 1.392 . S
C829 H841 0.929 . S
C830 C826 1.531 . S
C830 H842 0.960 . S
C830 H843 0.962 . S
C830 H844 0.960 . S
C831 C828 1.511 . S
C831 H845 0.961 . S
C831 H846 0.961 . S
C831 H847 0.961 . S
C832 C833 1.370 . S
C832 C834 1.363 . S
C832 H848 0.931 . S
C833 C832 1.370 . S
C833 C837 1.408 . S
C834 C832 1.363 . S
C834 C835 1.370 . S
C834 C838 1.524 . S
C835 C827 1.503 . S
C835 C834 1.370 . S
C835 C836 1.403 . S
C836 C835 1.403 . S
C836 C837 1.404 . S
C836 C839 1.539 . S
C837 C833 1.408 . S
C837 C836 1.404 . S
C837 H849 0.930 . S
C838 C834 1.524 . S
C838 H850 0.956 . S
C838 H851 0.961 . S
C838 H852 0.961 . S
C839 C836 1.539 . S
C839 H853 0.958 . S
C839 H854 0.961 . S
C839 H855 0.960 . S
H840 C824 0.931 . S
H841 C829 0.929 . S
H842 C830 0.960 . S
H843 C830 0.962 . S
H844 C830 0.960 . S
H845 C831 0.961 . S
H846 C831 0.961 . S
H847 C831 0.961 . S
H848 C832 0.931 . S
H849 C837 0.930 . S
H850 C838 0.956 . S
H851 C838 0.961 . S
H852 C838 0.961 . S
H853 C839 0.958 . S
H854 C839 0.961 . S
H855 C839 0.960 . S
C856 C857 1.391 . S
C856 C858 1.394 . S
C856 H872 0.931 . S
C857 C856 1.391 . S
C857 C861 1.376 . S
C858 C856 1.394 . S
C858 C859 1.369 . S
C858 C862 1.531 . S
C859 C858 1.369 . S
C859 C860 1.410 . S
C859 C867 1.503 . S
C860 C859 1.410 . S
C860 C861 1.392 . S
C860 C863 1.511 1_655 S
C861 C857 1.376 . S
C861 C860 1.392 . S
C861 H873 0.929 . S
C862 C858 1.531 . S
C862 H874 0.960 . S
C862 H875 0.962 . S
C862 H876 0.960 . S
C863 C860 1.511 1_455 S
C863 H877 0.961 . S
C863 H878 0.961 . S
C863 H879 0.961 1_455 S
C864 C865 1.370 1_455 S
C864 C866 1.363 1_455 S
C864 H880 0.931 . S
C865 C864 1.370 1_655 S
C865 C869 1.408 . S
C866 C864 1.363 1_655 S
C866 C867 1.370 . S
C866 C870 1.524 1_655 S
C867 C859 1.503 . S
C867 C866 1.370 . S
C867 C868 1.403 . S
C868 C867 1.403 . S
C868 C869 1.404 . S
C868 C871 1.539 . S
C869 C865 1.408 . S
C869 C868 1.404 . S
C869 H881 0.930 . S
C870 C866 1.524 1_455 S
C870 H882 0.956 . S
C870 H883 0.961 . S
C870 H884 0.961 . S
C871 C868 1.539 . S
C871 H885 0.958 . S
C871 H886 0.961 . S
C871 H887 0.960 . S
H872 C856 0.931 . S
H873 C861 0.929 . S
H874 C862 0.960 . S
H875 C862 0.962 . S
H876 C862 0.960 . S
H877 C863 0.961 . S
H878 C863 0.961 . S
H879 C863 0.961 1_655 S
H880 C864 0.931 . S
H881 C869 0.930 . S
H882 C870 0.956 . S
H883 C870 0.961 . S
H884 C870 0.961 . S
H885 C871 0.958 . S
H886 C871 0.961 . S
H887 C871 0.960 . S
C888 C889 1.391 . S
C888 C890 1.394 . S
C888 H904 0.931 . S
C889 C888 1.391 . S
C889 C893 1.376 . S
C890 C888 1.394 . S
C890 C891 1.369 . S
C890 C894 1.531 . S
C891 C890 1.369 . S
C891 C892 1.410 . S
C891 C899 1.503 . S
C892 C891 1.410 . S
C892 C893 1.392 . S
C892 C895 1.511 . S
C893 C889 1.376 . S
C893 C892 1.392 . S
C893 H905 0.929 . S
C894 C890 1.531 . S
C894 H906 0.960 . S
C894 H907 0.962 . S
C894 H908 0.960 . S
C895 C892 1.511 . S
C895 H909 0.961 . S
C895 H910 0.961 . S
C895 H911 0.961 . S
C896 C897 1.370 . S
C896 C898 1.363 . S
C896 H912 0.931 . S
C897 C896 1.370 . S
C897 C901 1.408 . S
C898 C896 1.363 . S
C898 C899 1.370 . S
C898 C902 1.524 . S
C899 C891 1.503 . S
C899 C898 1.370 . S
C899 C900 1.403 . S
C900 C899 1.403 . S
C900 C901 1.404 . S
C900 C903 1.539 . S
C901 C897 1.408 . S
C901 C900 1.404 . S
C901 H913 0.930 . S
C902 C898 1.524 . S
C902 H914 0.956 . S
C902 H915 0.961 . S
C902 H916 0.961 . S
C903 C900 1.539 . S
C903 H917 0.958 . S
C903 H918 0.961 . S
C903 H919 0.960 . S
H904 C888 0.931 . S
H905 C893 0.929 . S
H906 C894 0.960 . S
H907 C894 0.962 . S
H908 C894 0.960 . S
H909 C895 0.961 . S
H910 C895 0.961 . S
H911 C895 0.961 . S
H912 C896 0.931 . S
H913 C901 0.930 . S
H914 C902 0.956 . S
H915 C902 0.961 . S
H916 C902 0.961 . S
H917 C903 0.958 . S
H918 C903 0.961 . S
H919 C903 0.960 . S
C920 C921 1.391 . S
C920 C922 1.394 . S
C920 H936 0.931 . S
C921 C920 1.391 . S
C921 C925 1.376 . S
C922 C920 1.394 . S
C922 C923 1.369 . S
C922 C926 1.531 . S
C923 C922 1.369 . S
C923 C924 1.410 . S
C923 C931 1.503 . S
C924 C923 1.410 . S
C924 C925 1.392 . S
C924 C927 1.511 . S
C925 C921 1.376 . S
C925 C924 1.392 . S
C925 H937 0.929 . S
C926 C922 1.531 . S
C926 H938 0.960 . S
C926 H939 0.962 . S
C926 H940 0.960 . S
C927 C924 1.511 . S
C927 H941 0.961 . S
C927 H942 0.961 . S
C927 H943 0.961 . S
C928 C929 1.370 . S
C928 C930 1.363 . S
C928 H944 0.931 . S
C929 C928 1.370 . S
C929 C933 1.408 . S
C930 C928 1.363 . S
C930 C931 1.370 . S
C930 C934 1.524 . S
C931 C923 1.503 . S
C931 C930 1.370 . S
C931 C932 1.403 . S
C932 C931 1.403 . S
C932 C933 1.404 . S
C932 C935 1.539 . S
C933 C929 1.408 . S
C933 C932 1.404 . S
C933 H945 0.930 . S
C934 C930 1.524 . S
C934 H946 0.956 . S
C934 H947 0.961 . S
C934 H948 0.961 . S
C935 C932 1.539 . S
C935 H949 0.958 . S
C935 H950 0.961 . S
C935 H951 0.960 . S
H936 C920 0.931 . S
H937 C925 0.929 . S
H938 C926 0.960 . S
H939 C926 0.962 . S
H940 C926 0.960 . S
H941 C927 0.961 . S
H942 C927 0.961 . S
H943 C927 0.961 . S
H944 C928 0.931 . S
H945 C933 0.930 . S
H946 C934 0.956 . S
H947 C934 0.961 . S
H948 C934 0.961 . S
H949 C935 0.958 . S
H950 C935 0.961 . S
H951 C935 0.960 . S
C952 C953 1.391 1_565 S
C952 C954 1.394 . S
C952 H968 0.931 . S
C953 C952 1.391 1_545 S
C953 C957 1.376 . S
C954 C952 1.394 . S
C954 C955 1.369 . S
C954 C958 1.531 . S
C955 C954 1.369 . S
C955 C956 1.410 1_565 S
C955 C963 1.503 . S
C956 C955 1.410 1_545 S
C956 C957 1.392 . S
C956 C959 1.512 1_554 S
C957 C953 1.376 . S
C957 C956 1.392 . S
C957 H969 0.934 . S
C958 C954 1.531 . S
C958 H970 0.960 . S
C958 H971 0.962 . S
C958 H972 0.960 . S
C959 C956 1.512 1_556 S
C959 H973 0.958 . S
C959 H974 0.959 . S
C959 H975 0.965 1_556 S
C960 C961 1.370 1_556 S
C960 C962 1.363 . S
C960 H976 0.931 . S
C961 C960 1.370 1_554 S
C961 C965 1.408 . S
C962 C960 1.363 . S
C962 C963 1.370 1_556 S
C962 C966 1.524 . S
C963 C955 1.503 . S
C963 C962 1.370 1_554 S
C963 C964 1.403 . S
C964 C963 1.403 . S
C964 C965 1.404 . S
C964 C967 1.539 . S
C965 C961 1.408 . S
C965 C964 1.404 . S
C965 H977 0.930 . S
C966 C962 1.524 . S
C966 H978 0.956 . S
C966 H979 0.961 . S
C966 H980 0.961 . S
C967 C964 1.539 . S
C967 H981 0.958 . S
C967 H982 0.961 . S
C967 H983 0.960 . S
H968 C952 0.931 . S
H969 C957 0.934 . S
H970 C958 0.960 . S
H971 C958 0.962 . S
H972 C958 0.960 . S
H973 C959 0.958 . S
H974 C959 0.959 . S
H975 C959 0.965 1_554 S
H976 C960 0.931 . S
H977 C965 0.930 . S
H978 C966 0.956 . S
H979 C966 0.961 . S
H980 C966 0.961 . S
H981 C967 0.958 . S
H982 C967 0.961 . S
H983 C967 0.960 . S
C984 C985 1.391 . S
C984 C986 1.394 . S
C984 H1000 0.931 . S
C985 C984 1.391 . S
C985 C989 1.376 . S
C986 C984 1.394 . S
C986 C987 1.369 . S
C986 C990 1.531 . S
C987 C986 1.369 . S
C987 C988 1.410 . S
C987 C995 1.503 . S
C988 C987 1.410 . S
C988 C989 1.392 . S
C988 C991 1.511 . S
C989 C985 1.376 . S
C989 C988 1.392 . S
C989 H1001 0.929 . S
C990 C986 1.531 . S
C990 H1002 0.960 . S
C990 H1003 0.962 . S
C990 H1004 0.960 . S
C991 C988 1.511 . S
C991 H1005 0.961 . S
C991 H1006 0.961 . S
C991 H1007 0.961 . S
C992 C993 1.370 . S
C992 C994 1.363 . S
C992 H1008 0.931 . S
C993 C992 1.370 . S
C993 C997 1.408 . S
C994 C992 1.363 . S
C994 C995 1.370 . S
C994 C998 1.524 . S
C995 C987 1.503 . S
C995 C994 1.370 . S
C995 C996 1.403 . S
C996 C995 1.403 . S
C996 C997 1.404 . S
C996 C999 1.539 . S
C997 C993 1.408 . S
C997 C996 1.404 . S
C997 H1009 0.930 . S
C998 C994 1.524 . S
C998 H1010 0.956 . S
C998 H1011 0.961 . S
C998 H1012 0.961 . S
C999 C996 1.539 . S
C999 H1013 0.958 . S
C999 H1014 0.961 . S
C999 H1015 0.960 . S
H1000 C984 0.931 . S
H1001 C989 0.929 . S
H1002 C990 0.960 . S
H1003 C990 0.962 . S
H1004 C990 0.960 . S
H1005 C991 0.961 . S
H1006 C991 0.961 . S
H1007 C991 0.961 . S
H1008 C992 0.931 . S
H1009 C997 0.930 . S
H1010 C998 0.956 . S
H1011 C998 0.961 . S
H1012 C998 0.961 . S
H1013 C999 0.958 . S
H1014 C999 0.961 . S
H1015 C999 0.960 . S
C1016 C1017 1.391 . S
C1016 C1018 1.394 . S
C1016 H1032 0.931 1_545 S
C1017 C1016 1.391 . S
C1017 C1021 1.376 . S
C1018 C1016 1.394 . S
C1018 C1019 1.369 . S
C1018 C1022 1.531 . S
C1019 C1018 1.369 . S
C1019 C1020 1.410 . S
C1019 C1027 1.503 . S
C1020 C1019 1.410 . S
C1020 C1021 1.392 . S
C1020 C1023 1.511 . S
C1021 C1017 1.376 . S
C1021 C1020 1.392 . S
C1021 H1033 0.929 . S
C1022 C1018 1.531 . S
C1022 H1034 0.960 . S
C1022 H1035 0.962 . S
C1022 H1036 0.960 . S
C1023 C1020 1.511 . S
C1023 H1037 0.961 . S
C1023 H1038 0.961 . S
C1023 H1039 0.961 . S
C1024 C1025 1.370 . S
C1024 C1026 1.363 . S
C1024 H1040 0.931 . S
C1025 C1024 1.370 . S
C1025 C1029 1.408 . S
C1026 C1024 1.363 . S
C1026 C1027 1.370 . S
C1026 C1030 1.524 . S
C1027 C1019 1.503 . S
C1027 C1026 1.370 . S
C1027 C1028 1.403 . S
C1028 C1027 1.403 . S
C1028 C1029 1.404 . S
C1028 C1031 1.539 . S
C1029 C1025 1.408 . S
C1029 C1028 1.404 . S
C1029 H1041 0.930 . S
C1030 C1026 1.524 . S
C1030 H1042 0.956 . S
C1030 H1043 0.961 . S
C1030 H1044 0.961 . S
C1031 C1028 1.539 . S
C1031 H1045 0.958 . S
C1031 H1046 0.961 . S
C1031 H1047 0.960 . S
H1032 C1016 0.931 1_565 S
H1033 C1021 0.929 . S
H1034 C1022 0.960 . S
H1035 C1022 0.962 . S
H1036 C1022 0.960 . S
H1037 C1023 0.961 . S
H1038 C1023 0.961 . S
H1039 C1023 0.961 . S
H1040 C1024 0.931 . S
H1041 C1029 0.930 . S
H1042 C1030 0.956 . S
H1043 C1030 0.961 . S
H1044 C1030 0.961 . S
H1045 C1031 0.958 . S
H1046 C1031 0.961 . S
H1047 C1031 0.960 . S
C1048 C1049 1.391 . S
C1048 C1050 1.394 . S
C1048 H1064 0.931 . S
C1049 C1048 1.391 . S
C1049 C1053 1.376 . S
C1050 C1048 1.394 . S
C1050 C1051 1.369 . S
C1050 C1054 1.531 . S
C1051 C1050 1.369 . S
C1051 C1052 1.410 . S
C1051 C1059 1.503 . S
C1052 C1051 1.410 . S
C1052 C1053 1.392 . S
C1052 C1055 1.511 . S
C1053 C1049 1.376 . S
C1053 C1052 1.392 . S
C1053 H1065 0.929 . S
C1054 C1050 1.531 . S
C1054 H1066 0.960 . S
C1054 H1067 0.962 . S
C1054 H1068 0.960 . S
C1055 C1052 1.511 . S
C1055 H1069 0.961 . S
C1055 H1070 0.961 . S
C1055 H1071 0.961 . S
C1056 C1057 1.370 . S
C1056 C1058 1.363 . S
C1056 H1072 0.931 . S
C1057 C1056 1.370 . S
C1057 C1061 1.408 . S
C1058 C1056 1.363 . S
C1058 C1059 1.370 . S
C1058 C1062 1.524 . S
C1059 C1051 1.503 . S
C1059 C1058 1.370 . S
C1059 C1060 1.403 . S
C1060 C1059 1.403 . S
C1060 C1061 1.404 . S
C1060 C1063 1.539 . S
C1061 C1057 1.408 . S
C1061 C1060 1.404 . S
C1061 H1073 0.930 . S
C1062 C1058 1.524 . S
C1062 H1074 0.956 . S
C1062 H1075 0.961 . S
C1062 H1076 0.961 . S
C1063 C1060 1.539 . S
C1063 H1077 0.958 . S
C1063 H1078 0.961 . S
C1063 H1079 0.960 . S
H1064 C1048 0.931 . S
H1065 C1053 0.929 . S
H1066 C1054 0.960 . S
H1067 C1054 0.962 . S
H1068 C1054 0.960 . S
H1069 C1055 0.961 . S
H1070 C1055 0.961 . S
H1071 C1055 0.961 . S
H1072 C1056 0.931 . S
H1073 C1061 0.930 . S
H1074 C1062 0.956 . S
H1075 C1062 0.961 . S
H1076 C1062 0.961 . S
H1077 C1063 0.958 . S
H1078 C1063 0.961 . S
H1079 C1063 0.960 . S
C1080 C1081 1.386 . S
C1080 C1082 1.386 1_565 S
C1080 H1096 0.937 . S
C1081 C1080 1.386 . S
C1081 C1085 1.354 1_565 S
C1082 C1080 1.386 1_545 S
C1082 C1083 1.369 . S
C1082 C1086 1.531 . S
C1083 C1082 1.369 . S
C1083 C1084 1.410 . S
C1083 C1091 1.503 . S
C1084 C1083 1.410 . S
C1084 C1085 1.392 . S
C1084 C1087 1.511 . S
C1085 C1081 1.354 1_545 S
C1085 C1084 1.392 . S
C1085 H1097 0.929 . S
C1086 C1082 1.531 . S
C1086 H1098 0.960 . S
C1086 H1099 0.962 . S
C1086 H1100 0.960 . S
C1087 C1084 1.511 . S
C1087 H1101 0.961 . S
C1087 H1102 0.961 . S
C1087 H1103 0.961 . S
C1088 C1089 1.370 . S
C1088 C1090 1.363 . S
C1088 H1104 0.931 . S
C1089 C1088 1.370 . S
C1089 C1093 1.408 . S
C1090 C1088 1.363 . S
C1090 C1091 1.370 . S
C1090 C1094 1.524 . S
C1091 C1083 1.503 . S
C1091 C1090 1.370 . S
C1091 C1092 1.403 . S
C1092 C1091 1.403 . S
C1092 C1093 1.404 . S
C1092 C1095 1.539 . S
C1093 C1089 1.408 . S
C1093 C1092 1.404 . S
C1093 H1105 0.930 . S
C1094 C1090 1.524 . S
C1094 H1106 0.938 1_545 S
C1094 H1107 0.961 . S
C1094 H1108 0.961 . S
C1095 C1092 1.539 . S
C1095 H1109 0.958 . S
C1095 H1110 0.961 . S
C1095 H1111 0.960 . S
H1096 C1080 0.937 . S
H1097 C1085 0.929 . S
H1098 C1086 0.960 . S
H1099 C1086 0.962 . S
H1100 C1086 0.960 . S
H1101 C1087 0.961 . S
H1102 C1087 0.961 . S
H1103 C1087 0.961 . S
H1104 C1088 0.931 . S
H1105 C1093 0.930 . S
H1106 C1094 0.938 1_565 S
H1107 C1094 0.961 . S
H1108 C1094 0.961 . S
H1109 C1095 0.958 . S
H1110 C1095 0.961 . S
H1111 C1095 0.960 . S
C1112 C1113 1.391 . S
C1112 C1114 1.394 . S
C1112 H1128 0.931 . S
C1113 C1112 1.391 . S
C1113 C1117 1.376 . S
C1114 C1112 1.394 . S
C1114 C1115 1.369 . S
C1114 C1118 1.531 . S
C1115 C1114 1.369 . S
C1115 C1116 1.410 . S
C1115 C1123 1.503 . S
C1116 C1115 1.410 . S
C1116 C1117 1.392 . S
C1116 C1119 1.511 . S
C1117 C1113 1.376 . S
C1117 C1116 1.392 . S
C1117 H1129 0.929 . S
C1118 C1114 1.531 . S
C1118 H1130 0.960 . S
C1118 H1131 0.962 . S
C1118 H1132 0.960 . S
C1119 C1116 1.511 . S
C1119 H1133 0.961 . S
C1119 H1134 0.961 . S
C1119 H1135 0.961 . S
C1120 C1121 1.370 . S
C1120 C1122 1.363 . S
C1120 H1136 0.931 . S
C1121 C1120 1.370 . S
C1121 C1125 1.408 . S
C1122 C1120 1.363 . S
C1122 C1123 1.370 . S
C1122 C1126 1.524 . S
C1123 C1115 1.503 . S
C1123 C1122 1.370 . S
C1123 C1124 1.403 . S
C1124 C1123 1.403 . S
C1124 C1125 1.404 . S
C1124 C1127 1.539 . S
C1125 C1121 1.408 . S
C1125 C1124 1.404 . S
C1125 H1137 0.930 . S
C1126 C1122 1.524 . S
C1126 H1138 0.956 . S
C1126 H1139 0.961 . S
C1126 H1140 0.961 . S
C1127 C1124 1.539 . S
C1127 H1141 0.958 . S
C1127 H1142 0.961 . S
C1127 H1143 0.960 . S
H1128 C1112 0.931 . S
H1129 C1117 0.929 . S
H1130 C1118 0.960 . S
H1131 C1118 0.962 . S
H1132 C1118 0.960 . S
H1133 C1119 0.961 . S
H1134 C1119 0.961 . S
H1135 C1119 0.961 . S
H1136 C1120 0.931 . S
H1137 C1125 0.930 . S
H1138 C1126 0.956 . S
H1139 C1126 0.961 . S
H1140 C1126 0.961 . S
H1141 C1127 0.958 . S
H1142 C1127 0.961 . S
H1143 C1127 0.960 . S
C1144 C1145 1.391 . S
C1144 C1146 1.394 . S
C1144 H1160 0.931 . S
C1145 C1144 1.391 . S
C1145 C1149 1.376 . S
C1146 C1144 1.394 . S
C1146 C1147 1.369 . S
C1146 C1150 1.531 . S
C1147 C1146 1.369 . S
C1147 C1148 1.410 . S
C1147 C1155 1.503 . S
C1148 C1147 1.410 . S
C1148 C1149 1.392 . S
C1148 C1151 1.511 . S
C1149 C1145 1.376 . S
C1149 C1148 1.392 . S
C1149 H1161 0.929 . S
C1150 C1146 1.531 . S
C1150 H1162 0.960 . S
C1150 H1163 0.962 . S
C1150 H1164 0.960 . S
C1151 C1148 1.511 . S
C1151 H1165 0.961 . S
C1151 H1166 0.961 . S
C1151 H1167 0.961 . S
C1152 C1153 1.370 . S
C1152 C1154 1.363 . S
C1152 H1168 0.931 . S
C1153 C1152 1.370 . S
C1153 C1157 1.408 . S
C1154 C1152 1.363 . S
C1154 C1155 1.370 . S
C1154 C1158 1.524 . S
C1155 C1147 1.503 . S
C1155 C1154 1.370 . S
C1155 C1156 1.403 . S
C1156 C1155 1.403 . S
C1156 C1157 1.404 . S
C1156 C1159 1.539 . S
C1157 C1153 1.408 . S
C1157 C1156 1.404 . S
C1157 H1169 0.930 . S
C1158 C1154 1.524 . S
C1158 H1170 0.956 . S
C1158 H1171 0.961 . S
C1158 H1172 0.961 . S
C1159 C1156 1.539 . S
C1159 H1173 0.958 . S
C1159 H1174 0.961 . S
C1159 H1175 0.960 . S
H1160 C1144 0.931 . S
H1161 C1149 0.929 . S
H1162 C1150 0.960 . S
H1163 C1150 0.962 . S
H1164 C1150 0.960 . S
H1165 C1151 0.961 . S
H1166 C1151 0.961 . S
H1167 C1151 0.961 . S
H1168 C1152 0.931 . S
H1169 C1157 0.930 . S
H1170 C1158 0.956 . S
H1171 C1158 0.961 . S
H1172 C1158 0.961 . S
H1173 C1159 0.958 . S
H1174 C1159 0.961 . S
H1175 C1159 0.960 . S
C1176 C1177 1.391 . S
C1176 C1178 1.394 . S
C1176 H1192 0.931 . S
C1177 C1176 1.391 . S
C1177 C1181 1.376 . S
C1178 C1176 1.394 . S
C1178 C1179 1.369 . S
C1178 C1182 1.531 . S
C1179 C1178 1.369 . S
C1179 C1180 1.410 . S
C1179 C1187 1.503 . S
C1180 C1179 1.410 . S
C1180 C1181 1.392 . S
C1180 C1183 1.511 . S
C1181 C1177 1.376 . S
C1181 C1180 1.392 . S
C1181 H1193 0.929 . S
C1182 C1178 1.531 . S
C1182 H1194 0.960 . S
C1182 H1195 0.997 . S
C1182 H1196 0.960 . S
C1183 C1180 1.511 . S
C1183 H1197 0.961 . S
C1183 H1198 0.961 . S
C1183 H1199 0.961 . S
C1184 C1185 1.370 1_565 S
C1184 C1186 1.363 . S
C1184 H1200 0.931 . S
C1185 C1184 1.370 1_545 S
C1185 C1189 1.408 . S
C1186 C1184 1.363 . S
C1186 C1187 1.370 1_565 S
C1186 C1190 1.524 . S
C1187 C1179 1.503 . S
C1187 C1186 1.370 1_545 S
C1187 C1188 1.403 . S
C1188 C1187 1.403 . S
C1188 C1189 1.404 . S
C1188 C1191 1.539 . S
C1189 C1185 1.408 . S
C1189 C1188 1.404 . S
C1189 H1201 0.930 . S
C1190 C1186 1.524 . S
C1190 H1202 0.956 . S
C1190 H1203 0.961 . S
C1190 H1204 0.961 . S
C1191 C1188 1.539 . S
C1191 H1205 0.958 . S
C1191 H1206 0.961 . S
C1191 H1207 0.960 . S
H1192 C1176 0.931 . S
H1193 C1181 0.929 . S
H1194 C1182 0.960 . S
H1195 C1182 0.997 . S
H1196 C1182 0.960 . S
H1197 C1183 0.961 . S
H1198 C1183 0.961 . S
H1199 C1183 0.961 . S
H1200 C1184 0.931 . S
H1201 C1189 0.930 . S
H1202 C1190 0.956 . S
H1203 C1190 0.961 . S
H1204 C1190 0.961 . S
H1205 C1191 0.958 . S
H1206 C1191 0.961 . S
H1207 C1191 0.960 . S
C1208 C1209 1.391 . S
C1208 C1210 1.394 . S
C1208 H1224 0.931 . S
C1209 C1208 1.391 . S
C1209 C1213 1.376 . S
C1210 C1208 1.394 . S
C1210 C1211 1.369 . S
C1210 C1214 1.531 . S
C1211 C1210 1.369 . S
C1211 C1212 1.410 . S
C1211 C1219 1.503 . S
C1212 C1211 1.410 . S
C1212 C1213 1.392 . S
C1212 C1215 1.511 . S
C1213 C1209 1.376 . S
C1213 C1212 1.392 . S
C1213 H1225 0.929 . S
C1214 C1210 1.531 . S
C1214 H1226 0.960 . S
C1214 H1227 0.962 . S
C1214 H1228 0.960 . S
C1215 C1212 1.511 . S
C1215 H1229 0.961 . S
C1215 H1230 0.961 . S
C1215 H1231 0.961 . S
C1216 C1217 1.370 . S
C1216 C1218 1.363 . S
C1216 H1232 0.931 . S
C1217 C1216 1.370 . S
C1217 C1221 1.408 . S
C1218 C1216 1.363 . S
C1218 C1219 1.370 . S
C1218 C1222 1.524 . S
C1219 C1211 1.503 . S
C1219 C1218 1.370 . S
C1219 C1220 1.403 . S
C1220 C1219 1.403 . S
C1220 C1221 1.404 . S
C1220 C1223 1.539 . S
C1221 C1217 1.408 . S
C1221 C1220 1.404 . S
C1221 H1233 0.930 . S
C1222 C1218 1.524 . S
C1222 H1234 0.956 . S
C1222 H1235 0.961 . S
C1222 H1236 0.961 . S
C1223 C1220 1.539 . S
C1223 H1237 0.958 . S
C1223 H1238 0.961 . S
C1223 H1239 0.960 . S
H1224 C1208 0.931 . S
H1225 C1213 0.929 . S
H1226 C1214 0.960 . S
H1227 C1214 0.962 . S
H1228 C1214 0.960 . S
H1229 C1215 0.961 . S
H1230 C1215 0.961 . S
H1231 C1215 0.961 . S
H1232 C1216 0.931 . S
H1233 C1221 0.930 . S
H1234 C1222 0.956 . S
H1235 C1222 0.961 . S
H1236 C1222 0.961 . S
H1237 C1223 0.958 . S
H1238 C1223 0.961 . S
H1239 C1223 0.960 . S
C1240 C1241 1.391 . S
C1240 C1242 1.394 . S
C1240 H1256 0.931 . S
C1241 C1240 1.391 . S
C1241 C1245 1.376 . S
C1242 C1240 1.394 . S
C1242 C1243 1.369 . S
C1242 C1246 1.531 . S
C1243 C1242 1.369 . S
C1243 C1244 1.410 . S
C1243 C1251 1.503 . S
C1244 C1243 1.410 . S
C1244 C1245 1.392 . S
C1244 C1247 1.511 . S
C1245 C1241 1.376 . S
C1245 C1244 1.392 . S
C1245 H1257 0.929 . S
C1246 C1242 1.531 . S
C1246 H1258 0.960 . S
C1246 H1259 0.962 . S
C1246 H1260 0.960 . S
C1247 C1244 1.511 . S
C1247 H1261 0.961 . S
C1247 H1262 0.961 . S
C1247 H1263 0.961 . S
C1248 C1249 1.370 . S
C1248 C1250 1.363 . S
C1248 H1264 0.931 . S
C1249 C1248 1.370 . S
C1249 C1253 1.408 . S
C1250 C1248 1.363 . S
C1250 C1251 1.370 . S
C1250 C1254 1.524 . S
C1251 C1243 1.503 . S
C1251 C1250 1.370 . S
C1251 C1252 1.403 . S
C1252 C1251 1.403 . S
C1252 C1253 1.404 . S
C1252 C1255 1.539 . S
C1253 C1249 1.408 . S
C1253 C1252 1.404 . S
C1253 H1265 0.930 . S
C1254 C1250 1.524 . S
C1254 H1266 0.956 . S
C1254 H1267 0.961 . S
C1254 H1268 0.961 . S
C1255 C1252 1.539 . S
C1255 H1269 0.958 . S
C1255 H1270 0.961 . S
C1255 H1271 0.960 . S
H1256 C1240 0.931 . S
H1257 C1245 0.929 . S
H1258 C1246 0.960 . S
H1259 C1246 0.962 . S
H1260 C1246 0.960 . S
H1261 C1247 0.961 . S
H1262 C1247 0.961 . S
H1263 C1247 0.961 . S
H1264 C1248 0.931 . S
H1265 C1253 0.930 . S
H1266 C1254 0.956 . S
H1267 C1254 0.961 . S
H1268 C1254 0.961 . S
H1269 C1255 0.958 . S
H1270 C1255 0.961 . S
H1271 C1255 0.960 . S
C1272 C1273 1.391 . S
C1272 C1274 1.394 . S
C1272 H1288 0.931 . S
C1273 C1272 1.391 . S
C1273 C1277 1.376 . S
C1274 C1272 1.394 . S
C1274 C1275 1.369 . S
C1274 C1278 1.531 . S
C1275 C1274 1.369 . S
C1275 C1276 1.410 . S
C1275 C1283 1.503 . S
C1276 C1275 1.410 . S
C1276 C1277 1.392 . S
C1276 C1279 1.511 . S
C1277 C1273 1.376 . S
C1277 C1276 1.392 . S
C1277 H1289 0.929 . S
C1278 C1274 1.531 . S
C1278 H1290 0.960 . S
C1278 H1291 0.962 . S
C1278 H1292 0.960 . S
C1279 C1276 1.511 . S
C1279 H1293 0.961 . S
C1279 H1294 0.961 . S
C1279 H1295 0.961 . S
C1280 C1281 1.370 . S
C1280 C1282 1.363 . S
C1280 H1296 0.931 . S
C1281 C1280 1.370 . S
C1281 C1285 1.408 . S
C1282 C1280 1.363 . S
C1282 C1283 1.370 . S
C1282 C1286 1.524 . S
C1283 C1275 1.503 . S
C1283 C1282 1.370 . S
C1283 C1284 1.403 . S
C1284 C1283 1.403 . S
C1284 C1285 1.404 . S
C1284 C1287 1.539 . S
C1285 C1281 1.408 . S
C1285 C1284 1.404 . S
C1285 H1297 0.930 . S
C1286 C1282 1.524 . S
C1286 H1298 0.956 . S
C1286 H1299 0.961 . S
C1286 H1300 0.961 . S
C1287 C1284 1.539 . S
C1287 H1301 0.958 . S
C1287 H1302 0.961 . S
C1287 H1303 0.960 . S
H1288 C1272 0.931 . S
H1289 C1277 0.929 . S
H1290 C1278 0.960 . S
H1291 C1278 0.962 . S
H1292 C1278 0.960 . S
H1293 C1279 0.961 . S
H1294 C1279 0.961 . S
H1295 C1279 0.961 . S
H1296 C1280 0.931 . S
H1297 C1285 0.930 . S
H1298 C1286 0.956 . S
H1299 C1286 0.961 . S
H1300 C1286 0.961 . S
H1301 C1287 0.958 . S
H1302 C1287 0.961 . S
H1303 C1287 0.960 . S
C1304 C1305 1.391 . S
C1304 C1306 1.394 . S
C1304 H1320 0.931 1_655 S
C1305 C1304 1.391 . S
C1305 C1309 1.376 . S
C1306 C1304 1.394 . S
C1306 C1307 1.369 . S
C1306 C1310 1.531 . S
C1307 C1306 1.369 . S
C1307 C1308 1.410 . S
C1307 C1315 1.503 . S
C1308 C1307 1.410 . S
C1308 C1309 1.392 . S
C1308 C1311 1.511 . S
C1309 C1305 1.376 . S
C1309 C1308 1.392 . S
C1309 H1321 0.929 . S
C1310 C1306 1.531 . S
C1310 H1322 0.960 . S
C1310 H1323 0.975 . S
C1310 H1324 0.960 1_655 S
C1311 C1308 1.511 . S
C1311 H1325 0.961 . S
C1311 H1326 0.961 . S
C1311 H1327 0.961 . S
C1312 C1313 1.370 . S
C1312 C1314 1.363 . S
C1312 H1328 0.931 . S
C1313 C1312 1.370 . S
C1313 C1317 1.408 . S
C1314 C1312 1.363 . S
C1314 C1315 1.370 . S
C1314 C1318 1.527 1_545 S
C1315 C1307 1.503 . S
C1315 C1314 1.370 . S
C1315 C1316 1.403 . S
C1316 C1315 1.403 . S
C1316 C1317 1.404 . S
C1316 C1319 1.539 . S
C1317 C1313 1.408 . S
C1317 C1316 1.404 . S
C1317 H1329 0.930 . S
C1318 C1314 1.527 1_565 S
C1318 H1330 0.956 1_565 S
C1318 H1331 0.960 . S
C1318 H1332 0.959 . S
C1319 C1316 1.539 . S
C1319 H1333 0.958 . S
C1319 H1334 0.961 . S
C1319 H1335 0.960 . S
H1320 C1304 0.931 1_455 S
H1321 C1309 0.929 . S
H1322 C1310 0.960 . S
H1323 C1310 0.975 . S
H1324 C1310 0.960 1_455 S
H1325 C1311 0.961 . S
H1326 C1311 0.961 . S
H1327 C1311 0.961 . S
H1328 C1312 0.931 . S
H1329 C1317 0.930 . S
H1330 C1318 0.956 1_545 S
H1331 C1318 0.960 . S
H1332 C1318 0.959 . S
H1333 C1319 0.958 . S
H1334 C1319 0.961 . S
H1335 C1319 0.960 . S
C1336 C1337 1.391 . S
C1336 C1338 1.394 . S
C1336 H1352 0.931 . S
C1337 C1336 1.391 . S
C1337 C1341 1.376 . S
C1338 C1336 1.394 . S
C1338 C1339 1.369 . S
C1338 C1342 1.531 . S
C1339 C1338 1.369 . S
C1339 C1340 1.410 . S
C1339 C1347 1.503 . S
C1340 C1339 1.410 . S
C1340 C1341 1.392 . S
C1340 C1343 1.511 . S
C1341 C1337 1.376 . S
C1341 C1340 1.392 . S
C1341 H1353 0.929 . S
C1342 C1338 1.531 . S
C1342 H1354 0.960 . S
C1342 H1355 0.962 . S
C1342 H1356 0.960 . S
C1343 C1340 1.511 . S
C1343 H1357 0.961 . S
C1343 H1358 0.961 . S
C1343 H1359 0.961 . S
C1344 C1345 1.370 . S
C1344 C1346 1.363 . S
C1344 H1360 0.931 . S
C1345 C1344 1.370 . S
C1345 C1349 1.408 . S
C1346 C1344 1.363 . S
C1346 C1347 1.370 . S
C1346 C1350 1.524 . S
C1347 C1339 1.503 . S
C1347 C1346 1.370 . S
C1347 C1348 1.403 . S
C1348 C1347 1.403 . S
C1348 C1349 1.404 . S
C1348 C1351 1.539 . S
C1349 C1345 1.408 . S
C1349 C1348 1.404 . S
C1349 H1361 0.930 . S
C1350 C1346 1.524 . S
C1350 H1362 0.956 . S
C1350 H1363 0.961 . S
C1350 H1364 0.961 . S
C1351 C1348 1.539 . S
C1351 H1365 0.958 . S
C1351 H1366 0.961 . S
C1351 H1367 0.960 . S
H1352 C1336 0.931 . S
H1353 C1341 0.929 . S
H1354 C1342 0.960 . S
H1355 C1342 0.962 . S
H1356 C1342 0.960 . S
H1357 C1343 0.961 . S
H1358 C1343 0.961 . S
H1359 C1343 0.961 . S
H1360 C1344 0.931 . S
H1361 C1349 0.930 . S
H1362 C1350 0.956 . S
H1363 C1350 0.961 . S
H1364 C1350 0.961 . S
H1365 C1351 0.958 . S
H1366 C1351 0.961 . S
H1367 C1351 0.960 . S
C1368 C1369 1.391 . S
C1368 C1370 1.394 . S
C1368 H1384 0.931 . S
C1369 C1368 1.391 . S
C1369 C1373 1.376 . S
C1370 C1368 1.394 . S
C1370 C1371 1.369 . S
C1370 C1374 1.531 . S
C1371 C1370 1.369 . S
C1371 C1372 1.410 . S
C1371 C1379 1.503 . S
C1372 C1371 1.410 . S
C1372 C1373 1.392 . S
C1372 C1375 1.511 . S
C1373 C1369 1.376 . S
C1373 C1372 1.392 . S
C1373 H1385 0.929 . S
C1374 C1370 1.531 . S
C1374 H1386 0.960 . S
C1374 H1387 0.962 . S
C1374 H1388 0.960 . S
C1375 C1372 1.511 . S
C1375 H1389 0.961 . S
C1375 H1390 0.961 . S
C1375 H1391 0.961 . S
C1376 C1377 1.370 . S
C1376 C1378 1.363 . S
C1376 H1392 0.931 . S
C1377 C1376 1.370 . S
C1377 C1381 1.408 . S
C1378 C1376 1.363 . S
C1378 C1379 1.370 . S
C1378 C1382 1.524 . S
C1379 C1371 1.503 . S
C1379 C1378 1.370 . S
C1379 C1380 1.403 . S
C1380 C1379 1.403 . S
C1380 C1381 1.404 . S
C1380 C1383 1.539 . S
C1381 C1377 1.408 . S
C1381 C1380 1.404 . S
C1381 H1393 0.930 . S
C1382 C1378 1.524 . S
C1382 H1394 0.956 . S
C1382 H1395 0.961 . S
C1382 H1396 0.961 . S
C1383 C1380 1.539 . S
C1383 H1397 0.958 . S
C1383 H1398 0.961 . S
C1383 H1399 0.960 . S
H1384 C1368 0.931 . S
H1385 C1373 0.929 . S
H1386 C1374 0.960 . S
H1387 C1374 0.962 . S
H1388 C1374 0.960 . S
H1389 C1375 0.961 . S
H1390 C1375 0.961 . S
H1391 C1375 0.961 . S
H1392 C1376 0.931 . S
H1393 C1381 0.930 . S
H1394 C1382 0.956 . S
H1395 C1382 0.961 . S
H1396 C1382 0.961 . S
H1397 C1383 0.958 . S
H1398 C1383 0.961 . S
H1399 C1383 0.960 . S
C1400 C1401 1.391 . S
C1400 C1402 1.394 . S
C1400 H1416 0.931 . S
C1401 C1400 1.391 . S
C1401 C1405 1.376 . S
C1402 C1400 1.394 . S
C1402 C1403 1.369 . S
C1402 C1406 1.531 . S
C1403 C1402 1.369 . S
C1403 C1404 1.410 . S
C1403 C1411 1.503 . S
C1404 C1403 1.410 . S
C1404 C1405 1.392 . S
C1404 C1407 1.511 . S
C1405 C1401 1.376 . S
C1405 C1404 1.392 . S
C1405 H1417 0.929 . S
C1406 C1402 1.531 . S
C1406 H1418 0.960 . S
C1406 H1419 0.962 . S
C1406 H1420 0.960 . S
C1407 C1404 1.511 . S
C1407 H1421 0.961 . S
C1407 H1422 0.961 . S
C1407 H1423 0.961 . S
C1408 C1409 1.370 . S
C1408 C1410 1.363 . S
C1408 H1424 0.931 . S
C1409 C1408 1.370 . S
C1409 C1413 1.408 . S
C1410 C1408 1.363 . S
C1410 C1411 1.370 . S
C1410 C1414 1.524 . S
C1411 C1403 1.503 . S
C1411 C1410 1.370 . S
C1411 C1412 1.403 . S
C1412 C1411 1.403 . S
C1412 C1413 1.404 . S
C1412 C1415 1.539 . S
C1413 C1409 1.408 . S
C1413 C1412 1.404 . S
C1413 H1425 0.930 . S
C1414 C1410 1.524 . S
C1414 H1426 0.956 . S
C1414 H1427 0.961 . S
C1414 H1428 0.961 . S
C1415 C1412 1.539 . S
C1415 H1429 0.958 . S
C1415 H1430 0.961 . S
C1415 H1431 0.960 . S
H1416 C1400 0.931 . S
H1417 C1405 0.929 . S
H1418 C1406 0.960 . S
H1419 C1406 0.962 . S
H1420 C1406 0.960 . S
H1421 C1407 0.961 . S
H1422 C1407 0.961 . S
H1423 C1407 0.961 . S
H1424 C1408 0.931 . S
H1425 C1413 0.930 . S
H1426 C1414 0.956 . S
H1427 C1414 0.961 . S
H1428 C1414 0.961 . S
H1429 C1415 0.958 . S
H1430 C1415 0.961 . S
H1431 C1415 0.960 . S
C1432 C1433 1.391 1_455 S
C1432 C1434 1.394 . S
C1432 H1448 0.931 . S
C1433 C1432 1.391 1_655 S
C1433 C1437 1.376 . S
C1434 C1432 1.394 . S
C1434 C1435 1.369 1_455 S
C1434 C1438 1.531 . S
C1435 C1434 1.369 1_655 S
C1435 C1436 1.409 . S
C1435 C1443 1.504 1_554 S
C1436 C1435 1.409 . S
C1436 C1437 1.392 . S
C1436 C1439 1.511 1_554 S
C1437 C1433 1.376 . S
C1437 C1436 1.392 . S
C1437 H1449 0.929 . S
C1438 C1434 1.531 . S
C1438 H1450 0.960 . S
C1438 H1451 0.954 1_554 S
C1438 H1452 0.960 . S
C1439 C1436 1.511 1_556 S
C1439 H1453 0.961 . S
C1439 H1454 0.961 . S
C1439 H1455 0.961 . S
C1440 C1441 1.368 . S
C1440 C1442 1.363 1_455 S
C1440 H1456 0.931 . S
C1441 C1440 1.368 . S
C1441 C1445 1.404 1_455 S
C1442 C1440 1.363 1_655 S
C1442 C1443 1.370 . S
C1442 C1446 1.524 1_655 S
C1443 C1435 1.504 1_556 S
C1443 C1442 1.370 . S
C1443 C1444 1.403 . S
C1444 C1443 1.403 . S
C1444 C1445 1.404 . S
C1444 C1447 1.539 1_556 S
C1445 C1441 1.404 1_655 S
C1445 C1444 1.404 . S
C1445 H1457 0.930 . S
C1446 C1442 1.524 1_455 S
C1446 H1458 0.953 . S
C1446 H1459 0.965 1_455 S
C1446 H1460 0.960 . S
C1447 C1444 1.539 1_554 S
C1447 H1461 0.921 1_655 S
C1447 H1462 0.961 . S
C1447 H1463 0.960 . S
H1448 C1432 0.931 . S
H1449 C1437 0.929 . S
H1450 C1438 0.960 . S
H1451 C1438 0.954 1_556 S
H1452 C1438 0.960 . S
H1453 C1439 0.961 . S
H1454 C1439 0.961 . S
H1455 C1439 0.961 . S
H1456 C1440 0.931 . S
H1457 C1445 0.930 . S
H1458 C1446 0.953 . S
H1459 C1446 0.965 1_655 S
H1460 C1446 0.960 . S
H1461 C1447 0.921 1_455 S
H1462 C1447 0.961 . S
H1463 C1447 0.960 . S
C1464 C1465 1.391 . S
C1464 C1466 1.394 . S
C1464 H1480 0.931 . S
C1465 C1464 1.391 . S
C1465 C1469 1.376 . S
C1466 C1464 1.394 . S
C1466 C1467 1.369 . S
C1466 C1470 1.531 . S
C1467 C1466 1.369 . S
C1467 C1468 1.410 . S
C1467 C1475 1.503 . S
C1468 C1467 1.410 . S
C1468 C1469 1.392 . S
C1468 C1471 1.511 . S
C1469 C1465 1.376 . S
C1469 C1468 1.392 . S
C1469 H1481 0.929 . S
C1470 C1466 1.531 . S
C1470 H1482 0.960 . S
C1470 H1483 0.962 . S
C1470 H1484 0.960 . S
C1471 C1468 1.511 . S
C1471 H1485 0.961 . S
C1471 H1486 0.961 . S
C1471 H1487 0.961 . S
C1472 C1473 1.370 . S
C1472 C1474 1.363 . S
C1472 H1488 0.931 . S
C1473 C1472 1.370 . S
C1473 C1477 1.408 . S
C1474 C1472 1.363 . S
C1474 C1475 1.370 . S
C1474 C1478 1.524 . S
C1475 C1467 1.503 . S
C1475 C1474 1.370 . S
C1475 C1476 1.403 . S
C1476 C1475 1.403 . S
C1476 C1477 1.404 . S
C1476 C1479 1.539 . S
C1477 C1473 1.408 . S
C1477 C1476 1.404 . S
C1477 H1489 0.930 . S
C1478 C1474 1.524 . S
C1478 H1490 0.956 . S
C1478 H1491 0.961 . S
C1478 H1492 0.961 . S
C1479 C1476 1.539 . S
C1479 H1493 0.958 . S
C1479 H1494 0.961 . S
C1479 H1495 0.960 . S
H1480 C1464 0.931 . S
H1481 C1469 0.929 . S
H1482 C1470 0.960 . S
H1483 C1470 0.962 . S
H1484 C1470 0.960 . S
H1485 C1471 0.961 . S
H1486 C1471 0.961 . S
H1487 C1471 0.961 . S
H1488 C1472 0.931 . S
H1489 C1477 0.930 . S
H1490 C1478 0.956 . S
H1491 C1478 0.961 . S
H1492 C1478 0.961 . S
H1493 C1479 0.958 . S
H1494 C1479 0.961 . S
H1495 C1479 0.960 . S
C1496 C1497 1.389 . S
C1496 C1498 1.394 1_554 S
C1496 H1512 0.931 . S
C1497 C1496 1.389 . S
C1497 C1501 1.381 1_454 S
C1498 C1496 1.394 1_556 S
C1498 C1499 1.369 . S
C1498 C1502 1.531 1_556 S
C1499 C1498 1.369 . S
C1499 C1500 1.410 1_455 S
C1499 C1507 1.503 . S
C1500 C1499 1.410 1_655 S
C1500 C1501 1.392 . S
C1500 C1503 1.511 . S
C1501 C1497 1.381 1_656 S
C1501 C1500 1.392 . S
C1501 H1513 0.929 . S
C1502 C1498 1.531 1_554 S
C1502 H1514 0.960 1_554 S
C1502 H1515 0.962 . S
C1502 H1516 0.960 . S
C1503 C1500 1.511 . S
C1503 H1517 0.961 . S
C1503 H1518 0.961 . S
C1503 H1519 0.961 . S
C1504 C1505 1.370 1_655 S
C1504 C1506 1.363 . S
C1504 H1520 0.931 . S
C1505 C1504 1.370 1_455 S
C1505 C1509 1.408 . S
C1506 C1504 1.363 . S
C1506 C1507 1.370 1_655 S
C1506 C1510 1.524 . S
C1507 C1499 1.503 . S
C1507 C1506 1.370 1_455 S
C1507 C1508 1.403 . S
C1508 C1507 1.403 . S
C1508 C1509 1.404 . S
C1508 C1511 1.539 . S
C1509 C1505 1.408 . S
C1509 C1508 1.404 . S
C1509 H1521 0.930 . S
C1510 C1506 1.524 . S
C1510 H1522 0.956 . S
C1510 H1523 0.961 . S
C1510 H1524 0.961 . S
C1511 C1508 1.539 . S
C1511 H1525 0.958 . S
C1511 H1526 0.961 . S
C1511 H1527 0.960 . S
H1512 C1496 0.931 . S
H1513 C1501 0.929 . S
H1514 C1502 0.960 1_556 S
H1515 C1502 0.962 . S
H1516 C1502 0.960 . S
H1517 C1503 0.961 . S
H1518 C1503 0.961 . S
H1519 C1503 0.961 . S
H1520 C1504 0.931 . S
H1521 C1509 0.930 . S
H1522 C1510 0.956 . S
H1523 C1510 0.961 . S
H1524 C1510 0.961 . S
H1525 C1511 0.958 . S
H1526 C1511 0.961 . S
H1527 C1511 0.960 . S
C1528 C1529 1.391 . S
C1528 C1530 1.394 . S
C1528 H1544 0.931 . S
C1529 C1528 1.391 . S
C1529 C1533 1.376 . S
C1530 C1528 1.394 . S
C1530 C1531 1.369 . S
C1530 C1534 1.531 . S
C1531 C1530 1.369 . S
C1531 C1532 1.410 . S
C1531 C1539 1.503 . S
C1532 C1531 1.410 . S
C1532 C1533 1.392 . S
C1532 C1535 1.511 . S
C1533 C1529 1.376 . S
C1533 C1532 1.392 . S
C1533 H1545 0.929 . S
C1534 C1530 1.531 . S
C1534 H1546 0.960 . S
C1534 H1547 0.962 . S
C1534 H1548 0.960 . S
C1535 C1532 1.511 . S
C1535 H1549 0.961 . S
C1535 H1550 0.961 . S
C1535 H1551 0.961 . S
C1536 C1537 1.370 . S
C1536 C1538 1.363 . S
C1536 H1552 0.931 . S
C1537 C1536 1.370 . S
C1537 C1541 1.408 . S
C1538 C1536 1.363 . S
C1538 C1539 1.370 . S
C1538 C1542 1.524 . S
C1539 C1531 1.503 . S
C1539 C1538 1.370 . S
C1539 C1540 1.403 . S
C1540 C1539 1.403 . S
C1540 C1541 1.404 . S
C1540 C1543 1.539 . S
C1541 C1537 1.408 . S
C1541 C1540 1.404 . S
C1541 H1553 0.930 . S
C1542 C1538 1.524 . S
C1542 H1554 0.956 . S
C1542 H1555 0.961 . S
C1542 H1556 0.961 . S
C1543 C1540 1.539 . S
C1543 H1557 0.958 . S
C1543 H1558 0.961 . S
C1543 H1559 0.960 . S
H1544 C1528 0.931 . S
H1545 C1533 0.929 . S
H1546 C1534 0.960 . S
H1547 C1534 0.962 . S
H1548 C1534 0.960 . S
H1549 C1535 0.961 . S
H1550 C1535 0.961 . S
H1551 C1535 0.961 . S
H1552 C1536 0.931 . S
H1553 C1541 0.930 . S
H1554 C1542 0.956 . S
H1555 C1542 0.961 . S
H1556 C1542 0.961 . S
H1557 C1543 0.958 . S
H1558 C1543 0.961 . S
H1559 C1543 0.960 . S
C1560 C1561 1.391 . S
C1560 C1562 1.394 . S
C1560 H1576 0.931 . S
C1561 C1560 1.391 . S
C1561 C1565 1.376 . S
C1562 C1560 1.394 . S
C1562 C1563 1.369 . S
C1562 C1566 1.531 . S
C1563 C1562 1.369 . S
C1563 C1564 1.410 . S
C1563 C1571 1.503 . S
C1564 C1563 1.410 . S
C1564 C1565 1.392 . S
C1564 C1567 1.511 . S
C1565 C1561 1.376 . S
C1565 C1564 1.392 . S
C1565 H1577 0.929 . S
C1566 C1562 1.531 . S
C1566 H1578 0.960 . S
C1566 H1579 0.962 . S
C1566 H1580 0.960 . S
C1567 C1564 1.511 . S
C1567 H1581 0.961 . S
C1567 H1582 0.961 . S
C1567 H1583 0.961 . S
C1568 C1569 1.370 . S
C1568 C1570 1.363 . S
C1568 H1584 0.931 . S
C1569 C1568 1.370 . S
C1569 C1573 1.408 . S
C1570 C1568 1.363 . S
C1570 C1571 1.370 . S
C1570 C1574 1.524 . S
C1571 C1563 1.503 . S
C1571 C1570 1.370 . S
C1571 C1572 1.403 . S
C1572 C1571 1.403 . S
C1572 C1573 1.404 . S
C1572 C1575 1.539 . S
C1573 C1569 1.408 . S
C1573 C1572 1.404 . S
C1573 H1585 0.930 . S
C1574 C1570 1.524 . S
C1574 H1586 0.956 . S
C1574 H1587 0.961 . S
C1574 H1588 0.961 . S
C1575 C1572 1.539 . S
C1575 H1589 0.958 . S
C1575 H1590 0.961 . S
C1575 H1591 0.960 . S
H1576 C1560 0.931 . S
H1577 C1565 0.929 . S
H1578 C1566 0.960 . S
H1579 C1566 0.962 . S
H1580 C1566 0.960 . S
H1581 C1567 0.961 . S
H1582 C1567 0.961 . S
H1583 C1567 0.961 . S
H1584 C1568 0.931 . S
H1585 C1573 0.930 . S
H1586 C1574 0.956 . S
H1587 C1574 0.961 . S
H1588 C1574 0.961 . S
H1589 C1575 0.958 . S
H1590 C1575 0.961 . S
H1591 C1575 0.960 . S
C1592 C1593 1.391 . S
C1592 C1594 1.394 . S
C1592 H1608 0.931 . S
C1593 C1592 1.391 . S
C1593 C1597 1.376 . S
C1594 C1592 1.394 . S
C1594 C1595 1.369 . S
C1594 C1598 1.531 . S
C1595 C1594 1.369 . S
C1595 C1596 1.410 . S
C1595 C1603 1.503 . S
C1596 C1595 1.410 . S
C1596 C1597 1.392 . S
C1596 C1599 1.511 . S
C1597 C1593 1.376 . S
C1597 C1596 1.392 . S
C1597 H1609 0.929 . S
C1598 C1594 1.531 . S
C1598 H1610 0.960 . S
C1598 H1611 0.962 . S
C1598 H1612 0.960 . S
C1599 C1596 1.511 . S
C1599 H1613 0.961 . S
C1599 H1614 0.961 . S
C1599 H1615 0.961 . S
C1600 C1601 1.370 . S
C1600 C1602 1.363 . S
C1600 H1616 0.931 . S
C1601 C1600 1.370 . S
C1601 C1605 1.408 . S
C1602 C1600 1.363 . S
C1602 C1603 1.370 . S
C1602 C1606 1.524 . S
C1603 C1595 1.503 . S
C1603 C1602 1.370 . S
C1603 C1604 1.403 . S
C1604 C1603 1.403 . S
C1604 C1605 1.404 . S
C1604 C1607 1.539 . S
C1605 C1601 1.408 . S
C1605 C1604 1.404 . S
C1605 H1617 0.930 . S
C1606 C1602 1.524 . S
C1606 H1618 0.956 . S
C1606 H1619 0.961 . S
C1606 H1620 0.961 . S
C1607 C1604 1.539 . S
C1607 H1621 0.958 . S
C1607 H1622 0.961 . S
C1607 H1623 0.960 . S
H1608 C1592 0.931 . S
H1609 C1597 0.929 . S
H1610 C1598 0.960 . S
H1611 C1598 0.962 . S
H1612 C1598 0.960 . S
H1613 C1599 0.961 . S
H1614 C1599 0.961 . S
H1615 C1599 0.961 . S
H1616 C1600 0.931 . S
H1617 C1605 0.930 . S
H1618 C1606 0.956 . S
H1619 C1606 0.961 . S
H1620 C1606 0.961 . S
H1621 C1607 0.958 . S
H1622 C1607 0.961 . S
H1623 C1607 0.960 . S
C1624 C1625 1.391 . S
C1624 C1626 1.394 . S
C1624 H1640 0.931 . S
C1625 C1624 1.391 . S
C1625 C1629 1.376 . S
C1626 C1624 1.394 . S
C1626 C1627 1.369 . S
C1626 C1630 1.531 . S
C1627 C1626 1.369 . S
C1627 C1628 1.410 . S
C1627 C1635 1.503 . S
C1628 C1627 1.410 . S
C1628 C1629 1.392 . S
C1628 C1631 1.511 . S
C1629 C1625 1.376 . S
C1629 C1628 1.392 . S
C1629 H1641 0.929 . S
C1630 C1626 1.531 . S
C1630 H1642 0.960 . S
C1630 H1643 0.962 . S
C1630 H1644 0.960 . S
C1631 C1628 1.511 . S
C1631 H1645 0.961 . S
C1631 H1646 0.961 . S
C1631 H1647 0.961 . S
C1632 C1633 1.370 . S
C1632 C1634 1.363 . S
C1632 H1648 0.931 . S
C1633 C1632 1.370 . S
C1633 C1637 1.408 . S
C1634 C1632 1.363 . S
C1634 C1635 1.370 . S
C1634 C1638 1.524 . S
C1635 C1627 1.503 . S
C1635 C1634 1.370 . S
C1635 C1636 1.403 . S
C1636 C1635 1.403 . S
C1636 C1637 1.404 . S
C1636 C1639 1.539 . S
C1637 C1633 1.408 . S
C1637 C1636 1.404 . S
C1637 H1649 0.930 . S
C1638 C1634 1.524 . S
C1638 H1650 0.956 . S
C1638 H1651 0.961 . S
C1638 H1652 0.961 . S
C1639 C1636 1.539 . S
C1639 H1653 0.958 . S
C1639 H1654 0.961 . S
C1639 H1655 0.960 . S
H1640 C1624 0.931 . S
H1641 C1629 0.929 . S
H1642 C1630 0.960 . S
H1643 C1630 0.962 . S
H1644 C1630 0.960 . S
H1645 C1631 0.961 . S
H1646 C1631 0.961 . S
H1647 C1631 0.961 . S
H1648 C1632 0.931 . S
H1649 C1637 0.930 . S
H1650 C1638 0.956 . S
H1651 C1638 0.961 . S
H1652 C1638 0.961 . S
H1653 C1639 0.958 . S
H1654 C1639 0.961 . S
H1655 C1639 0.960 . S
C1656 C1657 1.391 . S
C1656 C1658 1.394 . S
C1656 H1672 0.931 . S
C1657 C1656 1.391 . S
C1657 C1661 1.376 . S
C1658 C1656 1.394 . S
C1658 C1659 1.369 . S
C1658 C1662 1.531 . S
C1659 C1658 1.369 . S
C1659 C1660 1.410 . S
C1659 C1667 1.503 . S
C1660 C1659 1.410 . S
C1660 C1661 1.392 . S
C1660 C1663 1.511 . S
C1661 C1657 1.376 . S
C1661 C1660 1.392 . S
C1661 H1673 0.929 . S
C1662 C1658 1.531 . S
C1662 H1674 0.960 . S
C1662 H1675 0.962 . S
C1662 H1676 0.960 . S
C1663 C1660 1.511 . S
C1663 H1677 0.961 . S
C1663 H1678 0.961 . S
C1663 H1679 0.961 . S
C1664 C1665 1.370 . S
C1664 C1666 1.363 . S
C1664 H1680 0.931 . S
C1665 C1664 1.370 . S
C1665 C1669 1.408 . S
C1666 C1664 1.363 . S
C1666 C1667 1.370 . S
C1666 C1670 1.524 . S
C1667 C1659 1.503 . S
C1667 C1666 1.370 . S
C1667 C1668 1.403 . S
C1668 C1667 1.403 . S
C1668 C1669 1.404 . S
C1668 C1671 1.539 . S
C1669 C1665 1.408 . S
C1669 C1668 1.404 . S
C1669 H1681 0.930 . S
C1670 C1666 1.524 . S
C1670 H1682 0.956 . S
C1670 H1683 0.961 . S
C1670 H1684 0.961 . S
C1671 C1668 1.539 . S
C1671 H1685 0.958 . S
C1671 H1686 0.961 . S
C1671 H1687 0.960 . S
H1672 C1656 0.931 . S
H1673 C1661 0.929 . S
H1674 C1662 0.960 . S
H1675 C1662 0.962 . S
H1676 C1662 0.960 . S
H1677 C1663 0.961 . S
H1678 C1663 0.961 . S
H1679 C1663 0.961 . S
H1680 C1664 0.931 . S
H1681 C1669 0.930 . S
H1682 C1670 0.956 . S
H1683 C1670 0.961 . S
H1684 C1670 0.961 . S
H1685 C1671 0.958 . S
H1686 C1671 0.961 . S
H1687 C1671 0.960 . S
C1688 C1689 1.391 . S
C1688 C1690 1.394 . S
C1688 H1704 0.931 . S
C1689 C1688 1.391 . S
C1689 C1693 1.376 . S
C1690 C1688 1.394 . S
C1690 C1691 1.369 . S
C1690 C1694 1.531 . S
C1691 C1690 1.369 . S
C1691 C1692 1.410 . S
C1691 C1699 1.503 . S
C1692 C1691 1.410 . S
C1692 C1693 1.392 . S
C1692 C1695 1.511 . S
C1693 C1689 1.376 . S
C1693 C1692 1.392 . S
C1693 H1705 0.929 . S
C1694 C1690 1.531 . S
C1694 H1706 0.960 . S
C1694 H1707 0.962 . S
C1694 H1708 0.960 . S
C1695 C1692 1.511 . S
C1695 H1709 0.961 . S
C1695 H1710 0.961 . S
C1695 H1711 0.961 . S
C1696 C1697 1.370 . S
C1696 C1698 1.363 . S
C1696 H1712 0.931 . S
C1697 C1696 1.370 . S
C1697 C1701 1.408 . S
C1698 C1696 1.363 . S
C1698 C1699 1.370 . S
C1698 C1702 1.524 . S
C1699 C1691 1.503 . S
C1699 C1698 1.370 . S
C1699 C1700 1.403 . S
C1700 C1699 1.403 . S
C1700 C1701 1.404 . S
C1700 C1703 1.539 . S
C1701 C1697 1.408 . S
C1701 C1700 1.404 . S
C1701 H1713 0.930 . S
C1702 C1698 1.524 . S
C1702 H1714 0.956 . S
C1702 H1715 0.961 . S
C1702 H1716 0.961 . S
C1703 C1700 1.539 . S
C1703 H1717 0.958 . S
C1703 H1718 0.961 . S
C1703 H1719 0.960 . S
H1704 C1688 0.931 . S
H1705 C1693 0.929 . S
H1706 C1694 0.960 . S
H1707 C1694 0.962 . S
H1708 C1694 0.960 . S
H1709 C1695 0.961 . S
H1710 C1695 0.961 . S
H1711 C1695 0.961 . S
H1712 C1696 0.931 . S
H1713 C1701 0.930 . S
H1714 C1702 0.956 . S
H1715 C1702 0.961 . S
H1716 C1702 0.961 . S
H1717 C1703 0.958 . S
H1718 C1703 0.961 . S
H1719 C1703 0.960 . S
C1720 C1721 1.391 . S
C1720 C1722 1.394 . S
C1720 H1736 0.931 . S
C1721 C1720 1.391 . S
C1721 C1725 1.376 . S
C1722 C1720 1.394 . S
C1722 C1723 1.369 . S
C1722 C1726 1.531 . S
C1723 C1722 1.369 . S
C1723 C1724 1.410 . S
C1723 C1731 1.503 . S
C1724 C1723 1.410 . S
C1724 C1725 1.392 . S
C1724 C1727 1.511 . S
C1725 C1721 1.376 . S
C1725 C1724 1.392 . S
C1725 H1737 0.929 . S
C1726 C1722 1.531 . S
C1726 H1738 0.960 . S
C1726 H1739 0.962 . S
C1726 H1740 0.960 . S
C1727 C1724 1.511 . S
C1727 H1741 0.961 . S
C1727 H1742 0.961 . S
C1727 H1743 0.961 . S
C1728 C1729 1.370 . S
C1728 C1730 1.363 . S
C1728 H1744 0.931 . S
C1729 C1728 1.370 . S
C1729 C1733 1.408 . S
C1730 C1728 1.363 . S
C1730 C1731 1.370 . S
C1730 C1734 1.524 . S
C1731 C1723 1.503 . S
C1731 C1730 1.370 . S
C1731 C1732 1.403 . S
C1732 C1731 1.403 . S
C1732 C1733 1.404 . S
C1732 C1735 1.539 . S
C1733 C1729 1.408 . S
C1733 C1732 1.404 . S
C1733 H1745 0.930 . S
C1734 C1730 1.524 . S
C1734 H1746 0.956 . S
C1734 H1747 0.961 . S
C1734 H1748 0.961 . S
C1735 C1732 1.539 . S
C1735 H1749 0.958 . S
C1735 H1750 0.961 . S
C1735 H1751 0.960 . S
H1736 C1720 0.931 . S
H1737 C1725 0.929 . S
H1738 C1726 0.960 . S
H1739 C1726 0.962 . S
H1740 C1726 0.960 . S
H1741 C1727 0.961 . S
H1742 C1727 0.961 . S
H1743 C1727 0.961 . S
H1744 C1728 0.931 . S
H1745 C1733 0.930 . S
H1746 C1734 0.956 . S
H1747 C1734 0.961 . S
H1748 C1734 0.961 . S
H1749 C1735 0.958 . S
H1750 C1735 0.961 . S
H1751 C1735 0.960 . S
C1752 C1753 1.391 . S
C1752 C1754 1.394 . S
C1752 H1768 0.931 . S
C1753 C1752 1.391 . S
C1753 C1757 1.376 . S
C1754 C1752 1.394 . S
C1754 C1755 1.369 . S
C1754 C1758 1.531 . S
C1755 C1754 1.369 . S
C1755 C1756 1.410 . S
C1755 C1763 1.503 . S
C1756 C1755 1.410 . S
C1756 C1757 1.392 . S
C1756 C1759 1.511 . S
C1757 C1753 1.376 . S
C1757 C1756 1.392 . S
C1757 H1769 0.929 . S
C1758 C1754 1.531 . S
C1758 H1770 0.960 . S
C1758 H1771 0.962 . S
C1758 H1772 0.960 . S
C1759 C1756 1.511 . S
C1759 H1773 0.961 . S
C1759 H1774 0.961 . S
C1759 H1775 0.961 . S
C1760 C1761 1.370 . S
C1760 C1762 1.363 . S
C1760 H1776 0.931 . S
C1761 C1760 1.370 . S
C1761 C1765 1.408 . S
C1762 C1760 1.363 . S
C1762 C1763 1.370 . S
C1762 C1766 1.524 . S
C1763 C1755 1.503 . S
C1763 C1762 1.370 . S
C1763 C1764 1.403 . S
C1764 C1763 1.403 . S
C1764 C1765 1.404 . S
C1764 C1767 1.539 . S
C1765 C1761 1.408 . S
C1765 C1764 1.404 . S
C1765 H1777 0.930 . S
C1766 C1762 1.524 . S
C1766 H1778 0.956 . S
C1766 H1779 0.961 . S
C1766 H1780 0.961 . S
C1767 C1764 1.539 . S
C1767 H1781 0.958 . S
C1767 H1782 0.961 . S
C1767 H1783 0.960 . S
H1768 C1752 0.931 . S
H1769 C1757 0.929 . S
H1770 C1758 0.960 . S
H1771 C1758 0.962 . S
H1772 C1758 0.960 . S
H1773 C1759 0.961 . S
H1774 C1759 0.961 . S
H1775 C1759 0.961 . S
H1776 C1760 0.931 . S
H1777 C1765 0.930 . S
H1778 C1766 0.956 . S
H1779 C1766 0.961 . S
H1780 C1766 0.961 . S
H1781 C1767 0.958 . S
H1782 C1767 0.961 . S
H1783 C1767 0.960 . S
C1784 C1785 1.391 . S
C1784 C1786 1.394 1_556 S
C1784 H1800 0.931 . S
C1785 C1784 1.391 . S
C1785 C1789 1.376 1_556 S
C1786 C1784 1.394 1_554 S
C1786 C1787 1.369 . S
C1786 C1790 1.529 1_554 S
C1787 C1786 1.369 . S
C1787 C1788 1.410 . S
C1787 C1795 1.503 . S
C1788 C1787 1.410 . S
C1788 C1789 1.392 . S
C1788 C1791 1.511 . S
C1789 C1785 1.376 1_554 S
C1789 C1788 1.392 . S
C1789 H1801 0.929 . S
C1790 C1786 1.529 1_556 S
C1790 H1802 0.937 1_556 S
C1790 H1803 0.988 . S
C1790 H1804 0.960 . S
C1791 C1788 1.511 . S
C1791 H1805 0.961 . S
C1791 H1806 0.961 . S
C1791 H1807 0.961 . S
C1792 C1793 1.370 . S
C1792 C1794 1.363 . S
C1792 H1808 0.931 . S
C1793 C1792 1.370 . S
C1793 C1797 1.408 . S
C1794 C1792 1.363 . S
C1794 C1795 1.370 . S
C1794 C1798 1.524 1_554 S
C1795 C1787 1.503 . S
C1795 C1794 1.370 . S
C1795 C1796 1.403 . S
C1796 C1795 1.403 . S
C1796 C1797 1.404 . S
C1796 C1799 1.539 . S
C1797 C1793 1.408 . S
C1797 C1796 1.404 . S
C1797 H1809 0.930 . S
C1798 C1794 1.524 1_556 S
C1798 H1810 0.956 . S
C1798 H1811 0.961 . S
C1798 H1812 0.961 . S
C1799 C1796 1.539 . S
C1799 H1813 0.958 . S
C1799 H1814 0.961 . S
C1799 H1815 0.960 . S
H1800 C1784 0.931 . S
H1801 C1789 0.929 . S
H1802 C1790 0.937 1_554 S
H1803 C1790 0.988 . S
H1804 C1790 0.960 . S
H1805 C1791 0.961 . S
H1806 C1791 0.961 . S
H1807 C1791 0.961 . S
H1808 C1792 0.931 . S
H1809 C1797 0.930 . S
H1810 C1798 0.956 . S
H1811 C1798 0.961 . S
H1812 C1798 0.961 . S
H1813 C1799 0.958 . S
H1814 C1799 0.961 . S
H1815 C1799 0.960 . S
C1816 C1817 1.391 . S
C1816 C1818 1.394 . S
C1816 H1832 0.931 . S
C1817 C1816 1.391 . S
C1817 C1821 1.376 . S
C1818 C1816 1.394 . S
C1818 C1819 1.369 . S
C1818 C1822 1.531 . S
C1819 C1818 1.369 . S
C1819 C1820 1.410 . S
C1819 C1827 1.503 . S
C1820 C1819 1.410 . S
C1820 C1821 1.392 . S
C1820 C1823 1.511 . S
C1821 C1817 1.376 . S
C1821 C1820 1.392 . S
C1821 H1833 0.929 . S
C1822 C1818 1.531 . S
C1822 H1834 0.960 . S
C1822 H1835 0.962 . S
C1822 H1836 0.960 . S
C1823 C1820 1.511 . S
C1823 H1837 0.961 . S
C1823 H1838 0.961 . S
C1823 H1839 0.961 . S
C1824 C1825 1.370 . S
C1824 C1826 1.363 . S
C1824 H1840 0.931 . S
C1825 C1824 1.370 . S
C1825 C1829 1.408 . S
C1826 C1824 1.363 . S
C1826 C1827 1.370 . S
C1826 C1830 1.524 . S
C1827 C1819 1.503 . S
C1827 C1826 1.370 . S
C1827 C1828 1.403 . S
C1828 C1827 1.403 . S
C1828 C1829 1.404 . S
C1828 C1831 1.539 . S
C1829 C1825 1.408 . S
C1829 C1828 1.404 . S
C1829 H1841 0.930 . S
C1830 C1826 1.524 . S
C1830 H1842 0.956 . S
C1830 H1843 0.961 . S
C1830 H1844 0.961 . S
C1831 C1828 1.539 . S
C1831 H1845 0.958 . S
C1831 H1846 0.961 . S
C1831 H1847 0.960 . S
H1832 C1816 0.931 . S
H1833 C1821 0.929 . S
H1834 C1822 0.960 . S
H1835 C1822 0.962 . S
H1836 C1822 0.960 . S
H1837 C1823 0.961 . S
H1838 C1823 0.961 . S
H1839 C1823 0.961 . S
H1840 C1824 0.931 . S
H1841 C1829 0.930 . S
H1842 C1830 0.956 . S
H1843 C1830 0.961 . S
H1844 C1830 0.961 . S
H1845 C1831 0.958 . S
H1846 C1831 0.961 . S
H1847 C1831 0.960 . S
C1848 C1849 1.391 . S
C1848 C1850 1.394 . S
C1848 H1864 0.931 . S
C1849 C1848 1.391 . S
C1849 C1853 1.376 . S
C1850 C1848 1.394 . S
C1850 C1851 1.369 . S
C1850 C1854 1.531 . S
C1851 C1850 1.369 . S
C1851 C1852 1.410 . S
C1851 C1859 1.503 . S
C1852 C1851 1.410 . S
C1852 C1853 1.392 . S
C1852 C1855 1.511 . S
C1853 C1849 1.376 . S
C1853 C1852 1.392 . S
C1853 H1865 0.929 . S
C1854 C1850 1.531 . S
C1854 H1866 0.960 . S
C1854 H1867 0.962 . S
C1854 H1868 0.960 . S
C1855 C1852 1.511 . S
C1855 H1869 0.961 . S
C1855 H1870 0.961 . S
C1855 H1871 0.961 . S
C1856 C1857 1.370 . S
C1856 C1858 1.363 . S
C1856 H1872 0.931 . S
C1857 C1856 1.370 . S
C1857 C1861 1.408 . S
C1858 C1856 1.363 . S
C1858 C1859 1.370 . S
C1858 C1862 1.524 . S
C1859 C1851 1.503 . S
C1859 C1858 1.370 . S
C1859 C1860 1.403 . S
C1860 C1859 1.403 . S
C1860 C1861 1.404 . S
C1860 C1863 1.539 . S
C1861 C1857 1.408 . S
C1861 C1860 1.404 . S
C1861 H1873 0.930 . S
C1862 C1858 1.524 . S
C1862 H1874 0.956 . S
C1862 H1875 0.961 . S
C1862 H1876 0.961 . S
C1863 C1860 1.539 . S
C1863 H1877 0.958 . S
C1863 H1878 0.961 . S
C1863 H1879 0.960 . S
H1864 C1848 0.931 . S
H1865 C1853 0.929 . S
H1866 C1854 0.960 . S
H1867 C1854 0.962 . S
H1868 C1854 0.960 . S
H1869 C1855 0.961 . S
H1870 C1855 0.961 . S
H1871 C1855 0.961 . S
H1872 C1856 0.931 . S
H1873 C1861 0.930 . S
H1874 C1862 0.956 . S
H1875 C1862 0.961 . S
H1876 C1862 0.961 . S
H1877 C1863 0.958 . S
H1878 C1863 0.961 . S
H1879 C1863 0.960 . S
C1880 C1881 1.391 . S
C1880 C1882 1.394 . S
C1880 H1896 0.931 1_565 S
C1881 C1880 1.391 . S
C1881 C1885 1.376 . S
C1882 C1880 1.394 . S
C1882 C1883 1.369 . S
C1882 C1886 1.531 . S
C1883 C1882 1.369 . S
C1883 C1884 1.410 . S
C1883 C1891 1.503 . S
C1884 C1883 1.410 . S
C1884 C1885 1.392 . S
C1884 C1887 1.511 1_554 S
C1885 C1881 1.376 . S
C1885 C1884 1.392 . S
C1885 H1897 0.936 . S
C1886 C1882 1.531 . S
C1886 H1898 0.960 . S
C1886 H1899 0.962 1_565 S
C1886 H1900 0.960 . S
C1887 C1884 1.511 1_556 S
C1887 H1901 0.961 . S
C1887 H1902 0.961 . S
C1887 H1903 0.961 . S
C1888 C1889 1.370 1_556 S
C1888 C1890 1.376 . S
C1888 H1904 0.931 . S
C1889 C1888 1.370 1_554 S
C1889 C1893 1.408 . S
C1890 C1888 1.376 . S
C1890 C1891 1.338 1_556 S
C1890 C1894 1.545 . S
C1891 C1883 1.503 . S
C1891 C1890 1.338 1_554 S
C1891 C1892 1.403 . S
C1892 C1891 1.403 . S
C1892 C1893 1.404 . S
C1892 C1895 1.539 . S
C1893 C1889 1.408 . S
C1893 C1892 1.404 . S
C1893 H1905 0.930 . S
C1894 C1890 1.545 . S
C1894 H1906 0.921 1_565 S
C1894 H1907 0.961 . S
C1894 H1908 0.961 . S
C1895 C1892 1.539 . S
C1895 H1909 0.958 . S
C1895 H1910 0.961 . S
C1895 H1911 0.960 . S
H1896 C1880 0.931 1_545 S
H1897 C1885 0.936 . S
H1898 C1886 0.960 . S
H1899 C1886 0.962 1_545 S
H1900 C1886 0.960 . S
H1901 C1887 0.961 . S
H1902 C1887 0.961 . S
H1903 C1887 0.961 . S
H1904 C1888 0.931 . S
H1905 C1893 0.930 . S
H1906 C1894 0.921 1_545 S
H1907 C1894 0.961 . S
H1908 C1894 0.961 . S
H1909 C1895 0.958 . S
H1910 C1895 0.961 . S
H1911 C1895 0.960 . S
C385 C219 1.691 . S
C377 C73 1.714 . S
C417 C227 1.119 . S
C409 C82 1.269 1_455 S
C441 C100 1.756 . S
C449 C247 1.719 1_556 S
C481 C261 1.316 . S
C473 C56 1.291 . S
C513 C276 1.409 . S
C505 C134 1.361 . S
C545 C290 1.729 . S
C537 C165 1.716 . S
C569 C147 1.217 . S
C577 C304 1.279 . S
C609 C310 1.756 . S
C601 C125 1.800 . S
C633 C151 1.416 . S
C641 C324 1.385 . S
C673 C345 1.451 . S
C665 C121 1.469 . S
C697 C139 1.717 . S
C705 C325 1.445 . S
C737 C346 1.348 . S
C729 C164 1.332 . S
C761 C95 1.294 . S
C769 C353 1.173 . S
C793 C61 1.524 . S
C801 C359 1.495 . S
C825 C74 1.422 . S
C833 C352 1.396 . S
C857 C86 1.710 . S
C865 C360 1.714 . S
C889 C47 1.410 . S
C897 C254 1.344 . S
C921 C186 1.272 . S
C929 C255 1.103 . S
C961 C212 1.497 . S
C953 C204 1.551 . S
C993 C233 1.759 . S
C985 C112 1.802 . S
C1017 C60 1.373 1_545 S
C1025 C268 1.318 . S
C1057 C318 1.456 . S
C1049 C152 1.438 . S
C1089 C269 1.553 . S
C1081 C126 1.855 . S
C1121 C297 1.130 . S
C1113 C160 1.356 . S
C1153 C303 1.684 . S
C1145 C190 1.710 . S
C1177 C199 1.284 . S
C1185 C311 1.123 . S
C1209 C113 1.755 . S
C1217 C275 1.719 . S
C1249 C289 1.331 . S
C1241 C173 1.329 . S
C1273 C43 1.406 . S
C1281 C248 1.412 . S
C1313 C262 1.732 . S
C1305 C9 1.698 . S
C1345 C220 1.280 . S
C1337 C17 1.201 . S
C1377 C226 1.760 . S
C1369 C34 1.799 1_455 S
C1401 C21 1.418 . S
C1409 C338 1.391 . S
C1433 C30 1.477 . S
C1441 C331 1.464 1_455 S
C1465 C48 1.701 . S
C1473 C339 1.480 . S
C1497 C8 1.333 . S
C1505 C332 1.347 . S
C1537 C367 1.153 . S
C1529 C108 1.250 . S
C1569 C373 1.494 . S
C1561 C178 1.524 1_554 S
C1601 C366 1.398 . S
C1593 C191 1.427 . S
C1625 C203 1.706 . S
C1633 C374 1.713 . S
C1657 C138 1.395 . S
C1665 C282 1.355 . S
C1697 C283 1.104 . S
C1689 C69 1.272 . S
C1729 C296 1.491 . S
C1721 C87 1.554 . S
C1761 C317 1.758 . S
C1753 C99 1.801 . S
C1785 C177 1.366 . S
C1793 C240 1.332 . S
C1825 C234 1.456 . S
C1817 C22 1.435 . S
C1849 C35 1.843 . S
C1857 C241 1.592 . S
C1889 C213 1.073 . S
C1881 C4 1.321 . S
