# Generated by pormake.
# Topology bwt, (3,3)-cn, num edge types: 1
# Building blocks:
#     Node 0, Type 0, BuildingBlock: WUSLED_clean_sbu_0, # of connection points: 3
#     Node 1, Type 0, BuildingBlock: WUSLED_clean_sbu_0, # of connection points: 3
#     Node 2, Type 0, BuildingBlock: WUSLED_clean_sbu_0, # of connection points: 3
#     Node 3, Type 0, BuildingBlock: WUSLED_clean_sbu_0, # of connection points: 3
#     Node 4, Type 0, BuildingBlock: WUSLED_clean_sbu_0, # of connection points: 3
#     Node 5, Type 0, BuildingBlock: WUSLED_clean_sbu_0, # of connection points: 3
#     Node 6, Type 0, BuildingBlock: WUSLED_clean_sbu_0, # of connection points: 3
#     Node 7, Type 0, BuildingBlock: WUSLED_clean_sbu_0, # of connection points: 3
#     Node 8, Type 0, BuildingBlock: WUSLED_clean_sbu_0, # of connection points: 3
#     Node 9, Type 0, BuildingBlock: WUSLED_clean_sbu_0, # of connection points: 3
#     Node 10, Type 0, BuildingBlock: WUSLED_clean_sbu_0, # of connection points: 3
#     Node 11, Type 0, BuildingBlock: WUSLED_clean_sbu_0, # of connection points: 3
#     Node 12, Type 0, BuildingBlock: WUSLED_clean_sbu_0, # of connection points: 3
#     Node 13, Type 0, BuildingBlock: WUSLED_clean_sbu_0, # of connection points: 3
#     Node 14, Type 0, BuildingBlock: WUSLED_clean_sbu_0, # of connection points: 3
#     Node 15, Type 0, BuildingBlock: WUSLED_clean_sbu_0, # of connection points: 3
#     Node 16, Type 0, BuildingBlock: WUSLED_clean_sbu_0, # of connection points: 3
#     Node 17, Type 0, BuildingBlock: WUSLED_clean_sbu_0, # of connection points: 3
#     Node 18, Type 0, BuildingBlock: WUSLED_clean_sbu_0, # of connection points: 3
#     Node 19, Type 0, BuildingBlock: WUSLED_clean_sbu_0, # of connection points: 3
#     Node 20, Type 0, BuildingBlock: WUSLED_clean_sbu_0, # of connection points: 3
#     Node 21, Type 0, BuildingBlock: WUSLED_clean_sbu_0, # of connection points: 3
#     Node 22, Type 0, BuildingBlock: WUSLED_clean_sbu_0, # of connection points: 3
#     Node 23, Type 0, BuildingBlock: WUSLED_clean_sbu_0, # of connection points: 3
#     Node 24, Type 1, BuildingBlock: CUQRIR_clean_linker_1, # of connection points: 3
#     Node 25, Type 1, BuildingBlock: CUQRIR_clean_linker_1, # of connection points: 3
#     Node 26, Type 1, BuildingBlock: CUQRIR_clean_linker_1, # of connection points: 3
#     Node 27, Type 1, BuildingBlock: CUQRIR_clean_linker_1, # of connection points: 3
#     Node 28, Type 1, BuildingBlock: CUQRIR_clean_linker_1, # of connection points: 3
#     Node 29, Type 1, BuildingBlock: CUQRIR_clean_linker_1, # of connection points: 3
#     Node 30, Type 1, BuildingBlock: CUQRIR_clean_linker_1, # of connection points: 3
#     Node 31, Type 1, BuildingBlock: CUQRIR_clean_linker_1, # of connection points: 3
#     Node 32, Type 1, BuildingBlock: CUQRIR_clean_linker_1, # of connection points: 3
#     Node 33, Type 1, BuildingBlock: CUQRIR_clean_linker_1, # of connection points: 3
#     Node 34, Type 1, BuildingBlock: CUQRIR_clean_linker_1, # of connection points: 3
#     Node 35, Type 1, BuildingBlock: CUQRIR_clean_linker_1, # of connection points: 3
#     Node 36, Type 1, BuildingBlock: CUQRIR_clean_linker_1, # of connection points: 3
#     Node 37, Type 1, BuildingBlock: CUQRIR_clean_linker_1, # of connection points: 3
#     Node 38, Type 1, BuildingBlock: CUQRIR_clean_linker_1, # of connection points: 3
#     Node 39, Type 1, BuildingBlock: CUQRIR_clean_linker_1, # of connection points: 3
#     Node 40, Type 1, BuildingBlock: CUQRIR_clean_linker_1, # of connection points: 3
#     Node 41, Type 1, BuildingBlock: CUQRIR_clean_linker_1, # of connection points: 3
#     Node 42, Type 1, BuildingBlock: CUQRIR_clean_linker_1, # of connection points: 3
#     Node 43, Type 1, BuildingBlock: CUQRIR_clean_linker_1, # of connection points: 3
#     Node 44, Type 1, BuildingBlock: CUQRIR_clean_linker_1, # of connection points: 3
#     Node 45, Type 1, BuildingBlock: CUQRIR_clean_linker_1, # of connection points: 3
#     Node 46, Type 1, BuildingBlock: CUQRIR_clean_linker_1, # of connection points: 3
#     Node 47, Type 1, BuildingBlock: CUQRIR_clean_linker_1, # of connection points: 3
#     Edge 48, Type (0, 1), BuildingBlock: ZUJKAS_clean_linker_0, # of connection points: 2
#     Edge 49, Type (0, 1), BuildingBlock: ZUJKAS_clean_linker_0, # of connection points: 2
#     Edge 50, Type (0, 1), BuildingBlock: ZUJKAS_clean_linker_0, # of connection points: 2
#     Edge 51, Type (0, 1), BuildingBlock: ZUJKAS_clean_linker_0, # of connection points: 2
#     Edge 52, Type (0, 1), BuildingBlock: ZUJKAS_clean_linker_0, # of connection points: 2
#     Edge 53, Type (0, 1), BuildingBlock: ZUJKAS_clean_linker_0, # of connection points: 2
#     Edge 54, Type (0, 1), BuildingBlock: ZUJKAS_clean_linker_0, # of connection points: 2
#     Edge 55, Type (0, 1), BuildingBlock: ZUJKAS_clean_linker_0, # of connection points: 2
#     Edge 56, Type (0, 1), BuildingBlock: ZUJKAS_clean_linker_0, # of connection points: 2
#     Edge 57, Type (0, 1), BuildingBlock: ZUJKAS_clean_linker_0, # of connection points: 2
#     Edge 58, Type (0, 1), BuildingBlock: ZUJKAS_clean_linker_0, # of connection points: 2
#     Edge 59, Type (0, 1), BuildingBlock: ZUJKAS_clean_linker_0, # of connection points: 2
#     Edge 60, Type (0, 1), BuildingBlock: ZUJKAS_clean_linker_0, # of connection points: 2
#     Edge 61, Type (0, 1), BuildingBlock: ZUJKAS_clean_linker_0, # of connection points: 2
#     Edge 62, Type (0, 1), BuildingBlock: ZUJKAS_clean_linker_0, # of connection points: 2
#     Edge 63, Type (0, 1), BuildingBlock: ZUJKAS_clean_linker_0, # of connection points: 2
#     Edge 64, Type (0, 1), BuildingBlock: ZUJKAS_clean_linker_0, # of connection points: 2
#     Edge 65, Type (0, 1), BuildingBlock: ZUJKAS_clean_linker_0, # of connection points: 2
#     Edge 66, Type (0, 1), BuildingBlock: ZUJKAS_clean_linker_0, # of connection points: 2
#     Edge 67, Type (0, 1), BuildingBlock: ZUJKAS_clean_linker_0, # of connection points: 2
#     Edge 68, Type (0, 1), BuildingBlock: ZUJKAS_clean_linker_0, # of connection points: 2
#     Edge 69, Type (0, 1), BuildingBlock: ZUJKAS_clean_linker_0, # of connection points: 2
#     Edge 70, Type (0, 1), BuildingBlock: ZUJKAS_clean_linker_0, # of connection points: 2
#     Edge 71, Type (0, 1), BuildingBlock: ZUJKAS_clean_linker_0, # of connection points: 2
#     Edge 72, Type (0, 1), BuildingBlock: ZUJKAS_clean_linker_0, # of connection points: 2
#     Edge 73, Type (0, 1), BuildingBlock: ZUJKAS_clean_linker_0, # of connection points: 2
#     Edge 74, Type (0, 1), BuildingBlock: ZUJKAS_clean_linker_0, # of connection points: 2
#     Edge 75, Type (0, 1), BuildingBlock: ZUJKAS_clean_linker_0, # of connection points: 2
#     Edge 76, Type (0, 1), BuildingBlock: ZUJKAS_clean_linker_0, # of connection points: 2
#     Edge 77, Type (0, 1), BuildingBlock: ZUJKAS_clean_linker_0, # of connection points: 2
#     Edge 78, Type (0, 1), BuildingBlock: ZUJKAS_clean_linker_0, # of connection points: 2
#     Edge 79, Type (0, 1), BuildingBlock: ZUJKAS_clean_linker_0, # of connection points: 2
#     Edge 80, Type (0, 1), BuildingBlock: ZUJKAS_clean_linker_0, # of connection points: 2
#     Edge 81, Type (0, 1), BuildingBlock: ZUJKAS_clean_linker_0, # of connection points: 2
#     Edge 82, Type (0, 1), BuildingBlock: ZUJKAS_clean_linker_0, # of connection points: 2
#     Edge 83, Type (0, 1), BuildingBlock: ZUJKAS_clean_linker_0, # of connection points: 2
#     Edge 84, Type (0, 1), BuildingBlock: ZUJKAS_clean_linker_0, # of connection points: 2
#     Edge 85, Type (0, 1), BuildingBlock: ZUJKAS_clean_linker_0, # of connection points: 2
#     Edge 86, Type (0, 1), BuildingBlock: ZUJKAS_clean_linker_0, # of connection points: 2
#     Edge 87, Type (0, 1), BuildingBlock: ZUJKAS_clean_linker_0, # of connection points: 2
#     Edge 88, Type (0, 1), BuildingBlock: ZUJKAS_clean_linker_0, # of connection points: 2
#     Edge 89, Type (0, 1), BuildingBlock: ZUJKAS_clean_linker_0, # of connection points: 2
#     Edge 90, Type (0, 1), BuildingBlock: ZUJKAS_clean_linker_0, # of connection points: 2
#     Edge 91, Type (0, 1), BuildingBlock: ZUJKAS_clean_linker_0, # of connection points: 2
#     Edge 92, Type (0, 1), BuildingBlock: ZUJKAS_clean_linker_0, # of connection points: 2
#     Edge 93, Type (0, 1), BuildingBlock: ZUJKAS_clean_linker_0, # of connection points: 2
#     Edge 94, Type (0, 1), BuildingBlock: ZUJKAS_clean_linker_0, # of connection points: 2
#     Edge 95, Type (0, 1), BuildingBlock: ZUJKAS_clean_linker_0, # of connection points: 2
#     Edge 96, Type (0, 1), BuildingBlock: ZUJKAS_clean_linker_0, # of connection points: 2
#     Edge 97, Type (0, 1), BuildingBlock: ZUJKAS_clean_linker_0, # of connection points: 2
#     Edge 98, Type (0, 1), BuildingBlock: ZUJKAS_clean_linker_0, # of connection points: 2
#     Edge 99, Type (0, 1), BuildingBlock: ZUJKAS_clean_linker_0, # of connection points: 2
#     Edge 100, Type (0, 1), BuildingBlock: ZUJKAS_clean_linker_0, # of connection points: 2
#     Edge 101, Type (0, 1), BuildingBlock: ZUJKAS_clean_linker_0, # of connection points: 2
#     Edge 102, Type (0, 1), BuildingBlock: ZUJKAS_clean_linker_0, # of connection points: 2
#     Edge 103, Type (0, 1), BuildingBlock: ZUJKAS_clean_linker_0, # of connection points: 2
#     Edge 104, Type (0, 1), BuildingBlock: ZUJKAS_clean_linker_0, # of connection points: 2
#     Edge 105, Type (0, 1), BuildingBlock: ZUJKAS_clean_linker_0, # of connection points: 2
#     Edge 106, Type (0, 1), BuildingBlock: ZUJKAS_clean_linker_0, # of connection points: 2
#     Edge 107, Type (0, 1), BuildingBlock: ZUJKAS_clean_linker_0, # of connection points: 2
#     Edge 108, Type (0, 1), BuildingBlock: ZUJKAS_clean_linker_0, # of connection points: 2
#     Edge 109, Type (0, 1), BuildingBlock: ZUJKAS_clean_linker_0, # of connection points: 2
#     Edge 110, Type (0, 1), BuildingBlock: ZUJKAS_clean_linker_0, # of connection points: 2
#     Edge 111, Type (0, 1), BuildingBlock: ZUJKAS_clean_linker_0, # of connection points: 2
#     Edge 112, Type (0, 1), BuildingBlock: ZUJKAS_clean_linker_0, # of connection points: 2
#     Edge 113, Type (0, 1), BuildingBlock: ZUJKAS_clean_linker_0, # of connection points: 2
#     Edge 114, Type (0, 1), BuildingBlock: ZUJKAS_clean_linker_0, # of connection points: 2
#     Edge 115, Type (0, 1), BuildingBlock: ZUJKAS_clean_linker_0, # of connection points: 2
#     Edge 116, Type (0, 1), BuildingBlock: ZUJKAS_clean_linker_0, # of connection points: 2
#     Edge 117, Type (0, 1), BuildingBlock: ZUJKAS_clean_linker_0, # of connection points: 2
#     Edge 118, Type (0, 1), BuildingBlock: ZUJKAS_clean_linker_0, # of connection points: 2
#     Edge 119, Type (0, 1), BuildingBlock: ZUJKAS_clean_linker_0, # of connection points: 2
# Relax obj value: 0.126
# Max RMSD: 0.180
# Mean RMSD: 0.086
data_MOF--net-bwt--node1-WUSLED_clean_sbu_0--node2-CUQRIR_clean_linker_1--edge1-ZUJKAS_clean_linker_0
_symmetry_space_group_name_H-M    P1
_symmetry_Int_Tables_number       1
_symmetry_cell_setting            triclinic
loop_
_symmetry_equiv_pos_as_xyz
'x, y, z'
_cell_length_a     79.629544
_cell_length_b     79.572793
_cell_length_c     79.567144
_cell_angle_alpha  96.382904
_cell_angle_beta   96.332174
_cell_angle_gamma 96.333451
loop_
_atom_site_label
_atom_site_type_symbol
_atom_site_fract_x
_atom_site_fract_y
_atom_site_fract_z
_atom_type_partial_charge
C0 C 0.31723 0.6721 0.3846 0.0
C1 C 0.32625 0.65951 0.39101 0.0
C2 C 0.35093 0.66955 0.37775 0.0
C3 C 0.34287 0.65817 0.3875 0.0
C4 C 0.34211 0.68252 0.37178 0.0
C5 C 0.3253 0.6837 0.37507 0.0
U6 U 0.28491 0.66494 0.41482 0.0
O7 O 0.2658 0.68052 0.42413 0.0
O8 O 0.25786 0.65462 0.41104 0.0
C9 C 0.253 0.6689 0.41768 0.0
C10 C 0.29983 0.67365 0.38876 0.0
C11 C 0.23862 0.67495 0.40778 0.0
C12 C 0.2231 0.67899 0.38075 0.0
C13 C 0.23759 0.67452 0.39001 0.0
C14 C 0.21083 0.68497 0.40698 0.0
C15 C 0.20944 0.68404 0.38912 0.0
C16 C 0.22528 0.68044 0.4162 0.0
C17 C 0.30164 0.64463 0.45462 0.0
C18 C 0.3135 0.64408 0.48402 0.0
C19 C 0.29059 0.62255 0.47081 0.0
C20 C 0.2901 0.63021 0.45577 0.0
C21 C 0.30258 0.62919 0.48497 0.0
C22 C 0.31315 0.6516 0.46897 0.0
C23 C 0.30312 0.65168 0.43835 0.0
O24 O 0.29006 0.65913 0.38834 0.0
O25 O 0.29888 0.68446 0.40227 0.0
O26 O 0.30263 0.66817 0.43861 0.0
O27 O 0.29479 0.64268 0.42447 0.0
H28 H 0.32044 0.65069 0.39875 0.0
H29 H 0.34948 0.64824 0.39249 0.0
H30 H 0.34807 0.6915 0.36429 0.0
H31 H 0.31868 0.69373 0.37033 0.0
H32 H 0.22251 0.67834 0.36703 0.0
H33 H 0.24782 0.67041 0.38327 0.0
H34 H 0.2005 0.68862 0.41381 0.0
H35 H 0.22584 0.68082 0.42991 0.0
H36 H 0.32251 0.64973 0.49485 0.0
H37 H 0.28204 0.61104 0.47111 0.0
H38 H 0.28108 0.62449 0.44491 0.0
H39 H 0.32225 0.66261 0.46837 0.0
C40 C 0.20678 0.3393 0.77432 0.0
C41 C 0.19496 0.34569 0.78439 0.0
C42 C 0.17171 0.32812 0.7658 0.0
C43 C 0.17756 0.34012 0.78019 0.0
C44 C 0.18371 0.32145 0.75603 0.0
C45 C 0.20109 0.32702 0.76026 0.0
U46 U 0.24283 0.36985 0.80015 0.0
O47 O 0.26948 0.36645 0.80828 0.0
O48 O 0.26369 0.38594 0.79175 0.0
C49 C 0.27551 0.37794 0.7991 0.0
C50 C 0.2249 0.34604 0.77781 0.0
C51 C 0.28847 0.37292 0.7884 0.0
C52 C 0.29656 0.36129 0.76134 0.0
C53 C 0.28394 0.3647 0.77172 0.0
C54 C 0.31831 0.3738 0.78443 0.0
C55 C 0.31389 0.36598 0.76753 0.0
C56 C 0.3057 0.37725 0.79474 0.0
C57 C 0.23465 0.40116 0.83659 0.0
C58 C 0.25751 0.423 0.84961 0.0
C59 C 0.2297 0.42225 0.8594 0.0
C60 C 0.22378 0.40791 0.84754 0.0
C61 C 0.24658 0.43009 0.86039 0.0
C62 C 0.2516 0.40865 0.83782 0.0
C63 C 0.22817 0.38683 0.82339 0.0
O64 O 0.22846 0.36187 0.77482 0.0
O65 O 0.23288 0.34286 0.79227 0.0
O66 O 0.23419 0.37239 0.82557 0.0
O67 O 0.22806 0.39056 0.8077 0.0
H68 H 0.19916 0.35527 0.79527 0.0
H69 H 0.16866 0.34565 0.78786 0.0
H70 H 0.17964 0.31203 0.74502 0.0
H71 H 0.21007 0.32196 0.75237 0.0
H72 H 0.29277 0.3551 0.74844 0.0
H73 H 0.27066 0.36122 0.76664 0.0
H74 H 0.3315 0.37778 0.78952 0.0
H75 H 0.3094 0.38366 0.80758 0.0
H76 H 0.27063 0.4286 0.85022 0.0
H77 H 0.22094 0.4275 0.86742 0.0
H78 H 0.21064 0.40228 0.8467 0.0
H79 H 0.26018 0.40355 0.82946 0.0
C80 C 0.67073 0.96596 0.62464 0.0
C81 C 0.68497 0.96342 0.61619 0.0
C82 C 0.70236 0.96351 0.64334 0.0
C83 C 0.70063 0.96219 0.62545 0.0
C84 C 0.68798 0.96591 0.65175 0.0
C85 C 0.67227 0.96712 0.64245 0.0
U86 U 0.64682 0.97003 0.58228 0.0
O87 O 0.62134 0.959 0.56989 0.0
O88 O 0.62778 0.98678 0.57488 0.0
C89 C 0.61569 0.97395 0.57021 0.0
C90 C 0.65452 0.96795 0.61481 0.0
C91 C 0.60003 0.97531 0.57822 0.0
C92 C 0.58414 0.97214 0.60229 0.0
C93 C 0.59895 0.97065 0.59461 0.0
C94 C 0.57136 0.98318 0.57739 0.0
C95 C 0.57017 0.97844 0.59379 0.0
C96 C 0.58617 0.98159 0.56967 0.0
C97 C 0.6747 0.96841 0.54525 0.0
C98 C 0.66595 0.97209 0.51581 0.0
C99 C 0.69441 0.96546 0.52425 0.0
C100 C 0.69073 0.96521 0.54097 0.0
C101 C 0.6821 0.96895 0.51145 0.0
C102 C 0.66227 0.97182 0.53261 0.0
C103 C 0.67146 0.96811 0.56302 0.0
O104 O 0.65431 0.98253 0.60852 0.0
O105 O 0.64795 0.95476 0.6037 0.0
O106 O 0.66172 0.9547 0.56621 0.0
O107 O 0.66815 0.98251 0.57101 0.0
H108 H 0.68401 0.96263 0.60243 0.0
H109 H 0.71149 0.96065 0.61858 0.0
H110 H 0.68888 0.96683 0.66551 0.0
H111 H 0.66139 0.9691 0.64915 0.0
H112 H 0.58373 0.96863 0.61502 0.0
H113 H 0.60961 0.96593 0.60148 0.0
H114 H 0.56077 0.98795 0.57046 0.0
H115 H 0.58682 0.98529 0.55703 0.0
H116 H 0.65623 0.97497 0.50629 0.0
H117 H 0.70686 0.96269 0.52131 0.0
H118 H 0.70044 0.96249 0.55059 0.0
H119 H 0.64981 0.97433 0.53574 0.0
C120 C 0.82971 0.00233 0.30553 0.0
C121 C 0.82091 0.9882 0.31138 0.0
C122 C 0.79964 0.00565 0.32067 0.0
C123 C 0.806 0.98987 0.3189 0.0
C124 C 0.80929 0.02004 0.31635 0.0
C125 C 0.82424 0.01843 0.30897 0.0
U126 U 0.84146 0.9921 0.26124 0.0
O127 O 0.86091 0.00429 0.24741 0.0
O128 O 0.8605 0.97724 0.2509 0.0
C129 C 0.86849 0.99048 0.24533 0.0
C130 C 0.84323 1.00009 0.29431 0.0
C131 C 0.8871 0.99307 0.24927 0.0
C132 C 0.913 0.99459 0.2689 0.0
C133 C 0.89519 0.99222 0.26569 0.0
C134 C 0.91464 0.99891 0.23941 0.0
C135 C 0.9229 0.99798 0.25578 0.0
C136 C 0.89691 0.99647 0.23621 0.0
C137 C 0.80546 0.98168 0.22492 0.0
C138 C 0.81151 0.97513 0.19582 0.0
C139 C 0.7823 0.97493 0.20181 0.0
C140 C 0.78801 0.97939 0.21916 0.0
C141 C 0.79398 0.97268 0.18994 0.0
C142 C 0.8172 0.9796 0.21317 0.0
C143 C 0.81133 0.98614 0.24318 0.0
O144 O 0.84373 0.98447 0.2871 0.0
O145 O 0.8451 0.01151 0.28368 0.0
O146 O 0.81959 0.0015 0.24751 0.0
O147 O 0.81867 0.97437 0.25052 0.0
H148 H 0.82494 0.97566 0.30924 0.0
H149 H 0.79876 0.97857 0.32209 0.0
H150 H 0.8047 0.03239 0.31774 0.0
H151 H 0.83091 0.02965 0.30501 0.0
H152 H 0.91901 0.99394 0.28166 0.0
H153 H 0.88777 0.98971 0.27595 0.0
H154 H 0.92189 1.00123 0.22898 0.0
H155 H 0.89084 0.99714 0.22347 0.0
H156 H 0.82084 0.9737 0.18701 0.0
H157 H 0.76872 0.97292 0.19774 0.0
H158 H 0.77879 0.98092 0.22809 0.0
H159 H 0.83075 0.9814 0.21744 0.0
C160 C 0.38375 0.30932 0.66256 0.0
C161 C 0.39495 0.32189 0.65717 0.0
C162 C 0.37568 0.34292 0.6629 0.0
C163 C 0.39095 0.33852 0.6573 0.0
C164 C 0.36466 0.33035 0.66869 0.0
C165 C 0.36864 0.31362 0.66844 0.0
U166 U 0.41519 0.27877 0.65365 0.0
O167 O 0.42274 0.25689 0.66601 0.0
O168 O 0.41222 0.25331 0.639 0.0
C169 C 0.41688 0.24592 0.65246 0.0
C170 C 0.38787 0.29174 0.66172 0.0
C171 C 0.4056 0.23058 0.65517 0.0
C172 C 0.38524 0.20574 0.64363 0.0
C173 C 0.39534 0.22061 0.64129 0.0
C174 C 0.39551 0.21033 0.67376 0.0
C175 C 0.38527 0.20037 0.65988 0.0
C176 C 0.40558 0.22523 0.67143 0.0
C177 C 0.45744 0.29852 0.6409 0.0
C178 C 0.47977 0.28215 0.63238 0.0
C179 C 0.48352 0.31292 0.63337 0.0
C180 C 0.46737 0.31351 0.63854 0.0
C181 C 0.48982 0.29722 0.63009 0.0
C182 C 0.46372 0.28281 0.63788 0.0
C183 C 0.44049 0.29959 0.64622 0.0
O184 O 0.38928 0.28465 0.6463 0.0
O185 O 0.40027 0.28924 0.67315 0.0
O186 O 0.43878 0.29627 0.6618 0.0
O187 O 0.42762 0.29252 0.63497 0.0
H188 H 0.40677 0.31881 0.65273 0.0
H189 H 0.39987 0.34796 0.65308 0.0
H190 H 0.3528 0.33336 0.67305 0.0
H191 H 0.3599 0.30405 0.67271 0.0
H192 H 0.37772 0.19822 0.63262 0.0
H193 H 0.39525 0.22418 0.62854 0.0
H194 H 0.39572 0.20662 0.68647 0.0
H195 H 0.41347 0.23248 0.68238 0.0
H196 H 0.48435 0.2699 0.62993 0.0
H197 H 0.49086 0.32469 0.63144 0.0
H198 H 0.46253 0.32568 0.64048 0.0
H199 H 0.45614 0.27109 0.63959 0.0
C200 C 0.25697 0.81838 0.03819 0.0
C201 C 0.2446 0.80407 0.03469 0.0
C202 C 0.26669 0.78526 0.03433 0.0
C203 C 0.24939 0.7877 0.03278 0.0
C204 C 0.27908 0.79965 0.03845 0.0
C205 C 0.27424 0.81611 0.04031 0.0
U206 U 0.22134 0.84308 0.02754 0.0
O207 O 0.21268 0.86641 0.03941 0.0
O208 O 0.21883 0.86479 0.01306 0.0
C209 C 0.21427 0.87434 0.02592 0.0
C210 C 0.25159 0.83544 0.03786 0.0
C211 C 0.22255 0.892 0.02906 0.0
C212 C 0.24775 0.91299 0.0344 0.0
C213 C 0.2403 0.89597 0.03255 0.0
C214 C 0.21973 0.92207 0.02957 0.0
C215 C 0.23752 0.9262 0.03266 0.0
C216 C 0.21234 0.90514 0.02777 0.0
C217 C 0.17937 0.81515 0.00988 0.0
C218 C 0.15584 0.8241 0.99236 0.0
C219 C 0.15273 0.79651 0.00265 0.0
C220 C 0.16933 0.79983 0.01099 0.0
C221 C 0.1459 0.80848 0.99298 0.0
C222 C 0.17245 0.82745 1.0008 0.0
C223 C 0.19729 0.81756 0.01735 0.0
O224 O 0.2473 0.8392 0.02242 0.0
O225 O 0.24056 0.83923 0.04841 0.0
O226 O 0.20051 0.82476 0.03324 0.0
O227 O 0.20823 0.82335 0.00751 0.0
H228 H 0.23119 0.80558 0.03282 0.0
H229 H 0.23949 0.77701 0.02931 0.0
H230 H 0.29251 0.79821 0.03992 0.0
H231 H 0.28396 0.82704 0.04292 0.0
H232 H 0.26148 0.91578 0.03673 0.0
H233 H 0.24836 0.88592 0.03356 0.0
H234 H 0.21148 0.93195 0.02848 0.0
H235 H 0.19862 0.90229 0.02513 0.0
H236 H 0.15087 0.83363 0.98515 0.0
H237 H 0.14549 0.78428 0.0032 0.0
H238 H 0.17451 0.7902 0.01792 0.0
H239 H 0.18002 0.83941 0.99989 0.0
C240 C 0.78474 0.21757 0.33537 0.0
C241 C 0.7967 0.20635 0.33887 0.0
C242 C 0.77679 0.1824 0.32416 0.0
C243 C 0.79279 0.18892 0.33327 0.0
C244 C 0.76498 0.19381 0.32047 0.0
C245 C 0.76893 0.21124 0.32604 0.0
U246 U 0.81169 0.25389 0.36468 0.0
O247 O 0.81952 0.28044 0.3606 0.0
O248 O 0.80425 0.27504 0.38119 0.0
C249 C 0.81088 0.28667 0.37249 0.0
C250 C 0.78831 0.23573 0.34205 0.0
C251 C 0.80006 0.29978 0.3679 0.0
C252 C 0.77272 0.31086 0.36578 0.0
C253 C 0.78239 0.29755 0.36852 0.0
C254 C 0.79808 0.32854 0.36099 0.0
C255 C 0.7805 0.32663 0.36226 0.0
C256 C 0.80775 0.31528 0.36387 0.0
C257 C 0.84985 0.24579 0.39396 0.0
C258 C 0.8678 0.26949 0.41135 0.0
C259 C 0.8701 0.24057 0.41734 0.0
C260 C 0.85748 0.23444 0.40372 0.0
C261 C 0.87531 0.25818 0.42137 0.0
C262 C 0.85511 0.26336 0.3978 0.0
C263 C 0.83576 0.23935 0.38048 0.0
O264 O 0.78625 0.23932 0.35816 0.0
O265 O 0.80233 0.24382 0.33802 0.0
O266 O 0.83695 0.24502 0.3657 0.0
O267 O 0.82052 0.23954 0.38532 0.0
H268 H 0.80898 0.21104 0.34611 0.0
H269 H 0.80225 0.18054 0.33616 0.0
H270 H 0.75246 0.18923 0.31373 0.0
H271 H 0.75952 0.21974 0.32333 0.0
H272 H 0.75926 0.30896 0.36702 0.0
H273 H 0.77609 0.2857 0.37157 0.0
H274 H 0.80445 0.34037 0.35798 0.0
H275 H 0.82135 0.31727 0.36328 0.0
H276 H 0.87137 0.28313 0.41427 0.0
H277 H 0.87577 0.23154 0.42473 0.0
H278 H 0.8535 0.22085 0.40097 0.0
H279 H 0.8492 0.27233 0.39051 0.0
C280 C 0.6284 0.6651 0.97692 0.0
C281 C 0.61851 0.67856 0.97883 0.0
C282 C 0.6431 0.69902 0.97681 0.0
C283 C 0.62579 0.69535 0.97885 0.0
C284 C 0.65292 0.68542 0.97474 0.0
C285 C 0.64561 0.6686 0.97481 0.0
U286 U 0.58899 0.63344 0.97403 0.0
O287 O 0.58272 0.60712 0.96133 0.0
O288 O 0.58253 0.61255 0.98897 0.0
C289 C 0.58144 0.60079 0.97578 0.0
C290 C 0.62073 0.64745 0.97703 0.0
C291 C 0.59119 0.58651 0.97849 0.0
C292 C 0.61803 0.57555 0.98555 0.0
C293 C 0.60896 0.58922 0.9825 0.0
C294 C 0.59166 0.55634 0.9804 0.0
C295 C 0.60946 0.55896 0.9846 0.0
C296 C 0.58261 0.57002 0.97739 0.0
C297 C 0.54602 0.65056 0.96757 0.0
C298 C 0.51895 0.63273 0.96608 0.0
C299 C 0.51959 0.66302 0.96435 0.0
C300 C 0.53734 0.66476 0.96589 0.0
C301 C 0.51016 0.64699 0.96443 0.0
C302 C 0.53677 0.63451 0.96762 0.0
C303 C 0.56469 0.65284 0.96952 0.0
O304 O 0.61255 0.64486 0.99017 0.0
O305 O 0.61231 0.64011 0.96245 0.0
O306 O 0.57166 0.64544 0.9569 0.0
O307 O 0.57214 0.65086 0.98462 0.0
H308 H 0.60516 0.67608 0.98043 0.0
H309 H 0.6179 0.70548 0.98074 0.0
H310 H 0.66621 0.68774 0.97291 0.0
H311 H 0.6534 0.65833 0.9732 0.0
H312 H 0.63174 0.57795 0.98856 0.0
H313 H 0.61578 0.60191 0.98335 0.0
H314 H 0.58466 0.54378 0.97978 0.0
H315 H 0.56889 0.56774 0.97436 0.0
H316 H 0.51207 0.62021 0.96607 0.0
H317 H 0.51327 0.67431 0.96344 0.0
H318 H 0.54432 0.67725 0.96593 0.0
H319 H 0.54332 0.6234 0.96892 0.0
C320 C 0.67578 0.37767 0.31988 0.0
C321 C 0.67768 0.3909 0.3334 0.0
C322 C 0.67669 0.3704 0.35401 0.0
C323 C 0.67847 0.38736 0.35025 0.0
C324 C 0.67477 0.35716 0.3403 0.0
C325 C 0.67445 0.36077 0.32345 0.0
U326 U 0.6624 0.40772 0.28951 0.0
O327 O 0.67318 0.41712 0.26743 0.0
O328 O 0.64713 0.40383 0.26432 0.0
C329 C 0.65969 0.41049 0.25673 0.0
C330 C 0.67379 0.38152 0.30213 0.0
C331 C 0.6629 0.40105 0.24049 0.0
C332 C 0.65744 0.37622 0.21884 0.0
C333 C 0.65542 0.3842 0.23499 0.0
C334 C 0.6748 0.40158 0.21361 0.0
C335 C 0.66696 0.38489 0.20782 0.0
C336 C 0.67273 0.40955 0.2297 0.0
C337 C 0.64542 0.44705 0.31249 0.0
C338 C 0.64218 0.47506 0.304 0.0
C339 C 0.62645 0.46474 0.32594 0.0
C340 C 0.63387 0.44965 0.3243 0.0
C341 C 0.63052 0.47768 0.31585 0.0
C342 C 0.64956 0.45986 0.30231 0.0
C343 C 0.65303 0.43098 0.31147 0.0
O344 O 0.65793 0.38132 0.2954 0.0
O345 O 0.68389 0.39474 0.299 0.0
O346 O 0.66858 0.43141 0.3073 0.0
O347 O 0.64289 0.41734 0.30425 0.0
H348 H 0.67815 0.40401 0.33088 0.0
H349 H 0.68027 0.39801 0.36025 0.0
H350 H 0.67292 0.34392 0.34243 0.0
H351 H 0.67265 0.35036 0.31316 0.0
H352 H 0.65107 0.36344 0.21479 0.0
H353 H 0.64772 0.37729 0.24298 0.0
H354 H 0.68249 0.40856 0.20566 0.0
H355 H 0.67861 0.42255 0.23361 0.0
H356 H 0.64581 0.48485 0.2962 0.0
H357 H 0.61736 0.46615 0.33501 0.0
H358 H 0.63054 0.43992 0.33229 0.0
H359 H 0.65852 0.45815 0.29314 0.0
C360 C 0.98235 0.28195 0.81519 0.0
C361 C 0.98818 0.27306 0.8012 0.0
C362 C 0.97533 0.29128 0.78215 0.0
C363 C 0.98485 0.27775 0.78493 0.0
C364 C 0.96959 0.3003 0.79623 0.0
C365 C 0.97306 0.29564 0.81263 0.0
U366 U 0.98656 0.24476 0.83902 0.0
O367 O 0.00367 0.23988 0.86103 0.0
O368 O 0.97599 0.23684 0.86176 0.0
C369 C 0.99116 0.23712 0.87029 0.0
C370 C 0.98481 0.27591 0.83202 0.0
C371 C 0.99372 0.24572 0.88799 0.0
C372 C 0.01149 0.26335 0.91177 0.0
C373 C 0.00855 0.25687 0.89448 0.0
C374 C 0.9846 0.24816 0.91625 0.0
C375 C 0.99965 0.25887 0.92288 0.0
C376 C 0.98172 0.2416 0.89901 0.0
C377 C 0.98238 0.20217 0.81019 0.0
C378 C 0.98286 0.17476 0.82083 0.0
C379 C 0.97588 0.17609 0.79061 0.0
C380 C 0.97806 0.19384 0.7936 0.0
C381 C 0.97804 0.1663 0.8042 0.0
C382 C 0.98499 0.19259 0.82381 0.0
C383 C 0.98305 0.22075 0.81302 0.0
O384 O 0.97163 0.26614 0.83568 0.0
O385 O 0.99935 0.26988 0.83564 0.0
O386 O 0.99783 0.22927 0.81958 0.0
O387 O 0.97014 0.22635 0.81988 0.0
H388 H 0.99519 0.2623 0.80279 0.0
H389 H 0.98985 0.27076 0.77452 0.0
H390 H 0.96216 0.31073 0.79453 0.0
H391 H 0.96824 0.3025 0.82325 0.0
H392 H 0.02313 0.27169 0.91649 0.0
H393 H 0.01808 0.26029 0.88634 0.0
H394 H 0.97535 0.24428 0.92452 0.0
H395 H 0.97028 0.2329 0.89438 0.0
H396 H 0.98476 0.16761 0.83155 0.0
H397 H 0.97184 0.17006 0.7777 0.0
H398 H 0.97589 0.20108 0.78297 0.0
H399 H 0.98831 0.19888 0.83673 0.0
C400 C 0.3325 0.7837 0.19902 0.0
C401 C 0.34384 0.79197 0.18941 0.0
C402 C 0.32583 0.78006 0.16312 0.0
C403 C 0.3406 0.79011 0.17166 0.0
C404 C 0.31426 0.77213 0.17288 0.0
C405 C 0.3176 0.77391 0.1907 0.0
U406 U 0.35963 0.80598 0.23816 0.0
O407 O 0.35447 0.81399 0.26432 0.0
O408 O 0.37359 0.7966 0.25984 0.0
C409 C 0.36533 0.80457 0.27107 0.0
C410 C 0.33654 0.78516 0.21764 0.0
C411 C 0.35971 0.79474 0.28443 0.0
C412 C 0.34719 0.76872 0.29392 0.0
C413 C 0.35095 0.77821 0.28068 0.0
C414 C 0.36056 0.79237 0.31463 0.0
C415 C 0.35213 0.77564 0.31107 0.0
C416 C 0.36428 0.8018 0.30145 0.0
C417 C 0.39286 0.84199 0.23246 0.0
C418 C 0.41462 0.85385 0.25582 0.0
C419 C 0.41292 0.86636 0.22934 0.0
C420 C 0.39897 0.85434 0.22264 0.0
C421 C 0.421 0.86611 0.24594 0.0
C422 C 0.40063 0.84191 0.24915 0.0
C423 C 0.37864 0.82902 0.22517 0.0
O424 O 0.35164 0.78109 0.22287 0.0
O425 O 0.33313 0.79934 0.22601 0.0
O426 O 0.36382 0.83155 0.23012 0.0
O427 O 0.3819 0.8132 0.22534 0.0
H428 H 0.35541 0.79964 0.19564 0.0
H429 H 0.34996 0.79617 0.16465 0.0
H430 H 0.30264 0.76449 0.16677 0.0
H431 H 0.30865 0.76754 0.19794 0.0
H432 H 0.34054 0.75594 0.29074 0.0
H433 H 0.34734 0.77256 0.26757 0.0
H434 H 0.36485 0.79803 0.32762 0.0
H435 H 0.37116 0.81449 0.30456 0.0
H436 H 0.42045 0.8535 0.26872 0.0
H437 H 0.41766 0.87556 0.22139 0.0
H438 H 0.39308 0.85455 0.20974 0.0
H439 H 0.39597 0.83251 0.25693 0.0
C440 C 0.97775 0.61184 0.66156 0.0
C441 C 0.97116 0.60312 0.67424 0.0
C442 C 0.97434 0.62965 0.69342 0.0
C443 C 0.96945 0.61195 0.69003 0.0
C444 C 0.98071 0.63835 0.68053 0.0
C445 C 0.9824 0.6295 0.66473 0.0
U446 U 0.97632 0.56996 0.63358 0.0
O447 O 0.96875 0.56241 0.60616 0.0
O448 O 0.99487 0.56061 0.61736 0.0
C449 C 0.98419 0.55946 0.60334 0.0
C450 C 0.98044 0.60246 0.64532 0.0
C451 C 0.99093 0.56718 0.58911 0.0
C452 C 0.99281 0.58976 0.57097 0.0
C453 C 0.98686 0.58309 0.58505 0.0
C454 C 0.00741 0.56499 0.56523 0.0
C455 C 0.00304 0.58072 0.56079 0.0
C456 C 0.00137 0.55828 0.57923 0.0
C457 C 0.96121 0.52875 0.64988 0.0
C458 C 0.96118 0.50169 0.63243 0.0
C459 C 0.95316 0.50226 0.66099 0.0
C460 C 0.95575 0.52006 0.66304 0.0
C461 C 0.95601 0.49287 0.64572 0.0
C462 C 0.96379 0.5195 0.63451 0.0
C463 C 0.96462 0.5474 0.65241 0.0
O464 O 0.99277 0.59279 0.64642 0.0
O465 O 0.96656 0.59483 0.63579 0.0
O466 O 0.95469 0.55525 0.64242 0.0
O467 O 0.98078 0.55355 0.65368 0.0
H468 H 0.96761 0.58944 0.67201 0.0
H469 H 0.96473 0.60483 0.69973 0.0
H470 H 0.9844 0.652 0.68266 0.0
H471 H 0.98752 0.6364 0.65506 0.0
H472 H 0.98903 0.60181 0.56783 0.0
H473 H 0.97888 0.59022 0.59259 0.0
H474 H 0.01552 0.55783 0.55788 0.0
H475 H 0.00474 0.54604 0.58226 0.0
H476 H 0.96367 0.49484 0.6206 0.0
H477 H 0.94896 0.49584 0.67137 0.0
H478 H 0.95366 0.52704 0.67496 0.0
H479 H 0.96807 0.52607 0.62423 0.0
C480 C 0.68552 0.34013 0.62827 0.0
C481 C 0.67406 0.34234 0.61421 0.0
C482 C 0.65059 0.34048 0.63136 0.0
C483 C 0.65674 0.34233 0.61568 0.0
C484 C 0.66211 0.33793 0.64534 0.0
C485 C 0.67944 0.33771 0.64378 0.0
U486 U 0.72048 0.35149 0.60237 0.0
O487 O 0.74577 0.36651 0.60898 0.0
O488 O 0.74348 0.33998 0.59698 0.0
C489 C 0.75379 0.35354 0.60422 0.0
C490 C 0.70388 0.34156 0.6269 0.0
C491 C 0.76833 0.35058 0.61624 0.0
C492 C 0.78152 0.33452 0.63732 0.0
C493 C 0.76714 0.33754 0.62677 0.0
C494 C 0.79824 0.35782 0.62731 0.0
C495 C 0.79733 0.34448 0.63753 0.0
C496 C 0.78392 0.36079 0.61677 0.0
C497 C 0.70281 0.36584 0.55914 0.0
C498 C 0.71536 0.38466 0.54053 0.0
C499 C 0.68862 0.36691 0.53076 0.0
C500 C 0.68923 0.36031 0.5463 0.0
C501 C 0.70155 0.3793 0.52771 0.0
C502 C 0.71602 0.37794 0.55613 0.0
C503 C 0.70193 0.35966 0.57582 0.0
O504 O 0.70838 0.33085 0.6149 0.0
O505 O 0.71113 0.35726 0.62711 0.0
O506 O 0.70786 0.37053 0.5894 0.0
O507 O 0.70561 0.34412 0.57706 0.0
H508 H 0.67856 0.34432 0.60213 0.0
H509 H 0.64822 0.34401 0.60457 0.0
H510 H 0.65787 0.33666 0.65766 0.0
H511 H 0.68813 0.33611 0.65479 0.0
H512 H 0.78037 0.32408 0.64494 0.0
H513 H 0.75519 0.32954 0.62663 0.0
H514 H 0.81008 0.36598 0.62739 0.0
H515 H 0.78508 0.37098 0.60884 0.0
H516 H 0.72558 0.39411 0.53853 0.0
H517 H 0.67769 0.36278 0.52136 0.0
H518 H 0.67878 0.3512 0.54848 0.0
H519 H 0.72663 0.38242 0.56592 0.0
C520 C 0.80055 0.67013 0.2386 0.0
C521 C 0.81241 0.65976 0.23282 0.0
C522 C 0.83577 0.68064 0.24698 0.0
C523 C 0.82985 0.66493 0.23702 0.0
C524 C 0.82384 0.69124 0.2523 0.0
C525 C 0.80635 0.68597 0.2482 0.0
U526 U 0.76425 0.63989 0.21328 0.0
O527 O 0.74242 0.62496 0.2214 0.0
O528 O 0.73809 0.64365 0.20352 0.0
C529 C 0.7312 0.63273 0.2128 0.0
C530 C 0.78219 0.66422 0.23503 0.0
C531 C 0.71729 0.63813 0.222 0.0
C532 C 0.70655 0.64938 0.24785 0.0
C533 C 0.72027 0.64593 0.23894 0.0
C534 C 0.68687 0.6378 0.22276 0.0
C535 C 0.68967 0.64512 0.23991 0.0
C536 C 0.70055 0.63434 0.21392 0.0
C537 C 0.77368 0.60679 0.17866 0.0
C538 C 0.75304 0.5823 0.16712 0.0
C539 C 0.77821 0.58873 0.1533 0.0
C540 C 0.78352 0.60289 0.16554 0.0
C541 C 0.76296 0.57817 0.15401 0.0
C542 C 0.75832 0.59652 0.17928 0.0
C543 C 0.77955 0.62145 0.1917 0.0
O544 O 0.77481 0.6669 0.22011 0.0
O545 O 0.77769 0.64884 0.23885 0.0
O546 O 0.77868 0.61843 0.20751 0.0
O547 O 0.77405 0.63588 0.18848 0.0
H548 H 0.80817 0.64754 0.22525 0.0
H549 H 0.83873 0.65661 0.23252 0.0
H550 H 0.82802 0.70336 0.26006 0.0
H551 H 0.79735 0.69415 0.25273 0.0
H552 H 0.70915 0.65521 0.26098 0.0
H553 H 0.73314 0.649 0.24538 0.0
H554 H 0.67407 0.63413 0.21632 0.0
H555 H 0.69802 0.62823 0.20087 0.0
H556 H 0.74137 0.57436 0.16824 0.0
H557 H 0.78602 0.58612 0.14324 0.0
H558 H 0.79535 0.61077 0.16481 0.0
H559 H 0.7505 0.59937 0.18929 0.0
C560 C 0.32859 0.03098 0.36764 0.0
C561 C 0.31355 0.03406 0.37442 0.0
C562 C 0.29853 0.03226 0.34582 0.0
C563 C 0.29865 0.03467 0.36363 0.0
C564 C 0.31373 0.02936 0.33909 0.0
C565 C 0.32866 0.02873 0.34994 0.0
U566 U 0.35008 0.03263 0.41239 0.0
O567 O 0.36732 0.01614 0.42384 0.0
O568 O 0.37575 0.04343 0.42447 0.0
C569 C 0.38014 0.02841 0.42714 0.0
C570 C 0.344 0.02971 0.37909 0.0
C571 C 0.39578 0.02436 0.42034 0.0
C572 C 0.41061 0.0163 0.39622 0.0
C573 C 0.39569 0.01994 0.40277 0.0
C574 C 0.42591 0.02151 0.42476 0.0
C575 C 0.4259 0.01709 0.40714 0.0
C576 C 0.41093 0.0251 0.43131 0.0
C577 C 0.3243 0.04155 0.44901 0.0
C578 C 0.33728 0.04383 0.47836 0.0
C579 C 0.30671 0.04315 0.472 0.0
C580 C 0.30827 0.04195 0.4546 0.0
C581 C 0.32118 0.04396 0.48407 0.0
C582 C 0.33882 0.04259 0.46095 0.0
C583 C 0.32567 0.03942 0.4307 0.0
O584 O 0.35073 0.04401 0.38847 0.0
O585 O 0.34293 0.0166 0.38777 0.0
O586 O 0.32759 0.02391 0.42429 0.0
O587 O 0.33592 0.05129 0.42541 0.0
H588 H 0.31329 0.03574 0.3881 0.0
H589 H 0.28712 0.03662 0.36924 0.0
H590 H 0.31409 0.0276 0.32544 0.0
H591 H 0.34021 0.02635 0.34453 0.0
H592 H 0.41025 0.01319 0.38257 0.0
H593 H 0.38408 0.01943 0.39412 0.0
H594 H 0.43746 0.02207 0.43348 0.0
H595 H 0.41117 0.02849 0.44492 0.0
H596 H 0.34869 0.04464 0.48732 0.0
H597 H 0.29411 0.04295 0.47595 0.0
H598 H 0.29694 0.04105 0.4455 0.0
H599 H 0.3513 0.04226 0.4568 0.0
C600 C 0.18514 0.00458 0.7339 0.0
C601 C 0.19853 0.01745 0.74052 0.0
C602 C 0.21654 0.00602 0.72042 0.0
C603 C 0.21402 0.01822 0.73376 0.0
C604 C 0.20311 0.99319 0.71374 0.0
C605 C 0.18752 0.99252 0.7204 0.0
U606 U 0.16476 0.00694 0.77409 0.0
O607 O 0.14263 0.01859 0.78191 0.0
O608 O 0.14367 0.99122 0.78275 0.0
C609 C 0.13463 0.00401 0.78471 0.0
C610 C 0.16927 0.00296 0.7419 0.0
C611 C 0.1166 1.00049 0.77764 0.0
C612 C 0.094 0.99673 0.75388 0.0
C613 C 0.11137 0.99958 0.7601 0.0
C614 C 0.08707 0.99554 0.78267 0.0
C615 C 0.08165 0.99471 0.76513 0.0
C616 C 0.10437 0.99839 0.78883 0.0
C617 C 0.19585 0.01814 0.81506 0.0
C618 C 0.18767 0.0277 0.8427 0.0
C619 C 0.21654 0.02161 0.84031 0.0
C620 C 0.21231 0.01714 0.82277 0.0
C621 C 0.20436 0.02723 0.85045 0.0
C622 C 0.18344 0.02317 0.82513 0.0
C623 C 0.19207 0.01446 0.79647 0.0
O624 O 0.16744 0.99009 0.75086 0.0
O625 O 0.16526 0.0172 0.7496 0.0
O626 O 0.18451 0.02595 0.78888 0.0
O627 O 0.18559 0.99873 0.79058 0.0
H628 H 0.19718 0.02674 0.75116 0.0
H629 H 0.22419 0.02811 0.73932 0.0
H630 H 0.20467 0.98368 0.70337 0.0
H631 H 0.17742 0.98241 0.71521 0.0
H632 H 0.09024 0.99602 0.74029 0.0
H633 H 0.1207 1.00116 0.75128 0.0
H634 H 0.07793 0.99435 0.79172 0.0
H635 H 0.10821 0.99915 0.80242 0.0
H636 H 0.17804 0.03211 0.85011 0.0
H637 H 0.22941 0.02082 0.84592 0.0
H638 H 0.222 0.01316 0.81516 0.0
H639 H 0.17062 0.02393 0.81935 0.0
C640 C 0.62492 0.69073 0.33562 0.0
C641 C 0.61668 0.68079 0.34649 0.0
C642 C 0.63181 0.65693 0.3379 0.0
C643 C 0.62015 0.66415 0.3477 0.0
C644 C 0.63977 0.66679 0.32667 0.0
C645 C 0.63638 0.6836 0.32559 0.0
U646 U 0.59413 0.72196 0.3428 0.0
O647 O 0.59684 0.74867 0.35429 0.0
O648 O 0.58457 0.74148 0.32797 0.0
C649 C 0.59019 0.75395 0.34024 0.0
C650 C 0.62097 0.70826 0.33452 0.0
C651 C 0.59944 0.76925 0.33516 0.0
C652 C 0.62556 0.78578 0.3301 0.0
C653 C 0.61699 0.77063 0.33404 0.0
C654 C 0.59903 0.79811 0.32806 0.0
C655 C 0.61668 0.79975 0.32717 0.0
C656 C 0.59053 0.78302 0.33201 0.0
C657 C 0.55389 0.70264 0.36019 0.0
C658 C 0.53312 0.71804 0.37351 0.0
C659 C 0.52713 0.68754 0.36527 0.0
C660 C 0.54293 0.68745 0.35926 0.0
C661 C 0.52209 0.70279 0.37256 0.0
C662 C 0.54888 0.71799 0.36724 0.0
C663 C 0.57057 0.70193 0.35407 0.0
O664 O 0.60791 0.70957 0.32332 0.0
O665 O 0.62068 0.71739 0.34929 0.0
O666 O 0.58368 0.71062 0.36397 0.0
O667 O 0.57102 0.70332 0.33783 0.0
H668 H 0.60748 0.68591 0.35406 0.0
H669 H 0.6134 0.6568 0.35609 0.0
H670 H 0.64878 0.66163 0.3189 0.0
H671 H 0.64266 0.69099 0.31691 0.0
H672 H 0.63911 0.78655 0.32936 0.0
H673 H 0.62408 0.76008 0.3364 0.0
H674 H 0.59182 0.80866 0.32616 0.0
H675 H 0.57698 0.78221 0.3329 0.0
H676 H 0.5295 0.72998 0.37904 0.0
H677 H 0.51901 0.6756 0.36461 0.0
H678 H 0.5467 0.67547 0.35404 0.0
H679 H 0.55719 0.72986 0.36805 0.0
C680 C 0.73619 0.18584 0.98544 0.0
C681 C 0.73282 0.19392 1.00114 0.0
C682 C 0.72892 0.22002 0.98865 0.0
C683 C 0.72932 0.21078 0.00273 0.0
C684 C 0.73137 0.21168 0.97273 0.0
C685 C 0.73493 0.19476 0.97114 0.0
U686 U 0.773 0.16087 0.99299 0.0
O687 O 0.77629 0.13798 0.00538 0.0
O688 O 0.78152 0.13854 0.97887 0.0
C689 C 0.78051 0.12949 0.99166 0.0
C690 C 0.7425 0.1689 0.98439 0.0
C691 C 0.77248 0.11176 0.98756 0.0
C692 C 0.74819 0.09004 0.98608 0.0
C693 C 0.75499 0.10725 0.98794 0.0
C694 C 0.77617 0.08181 0.98281 0.0
C695 C 0.75878 0.07711 0.98381 0.0
C696 C 0.78291 0.09895 0.98466 0.0
C697 C 0.81497 0.1876 0.01169 0.0
C698 C 0.84024 0.17486 0.02086 0.0
C699 C 0.84063 0.20557 0.02485 0.0
C700 C 0.82375 0.2038 0.01734 0.0
C701 C 0.84902 0.19112 0.02686 0.0
C702 C 0.8233 0.17311 0.01336 0.0
C703 C 0.79698 0.18604 0.00474 0.0
O704 O 0.7533 0.16623 0.97326 0.0
O705 O 0.74711 0.16355 0.99907 0.0
O706 O 0.78634 0.17913 0.01425 0.0
O707 O 0.79338 0.18025 0.98847 0.0
H708 H 0.73353 0.18746 0.01244 0.0
H709 H 0.72766 0.21679 0.01523 0.0
H710 H 0.73083 0.2183 0.96154 0.0
H711 H 0.73725 0.18885 0.95881 0.0
H712 H 0.73471 0.08687 0.9867 0.0
H713 H 0.74673 0.117 0.99016 0.0
H714 H 0.78476 0.07226 0.98136 0.0
H715 H 0.79646 0.10221 0.98444 0.0
H716 H 0.84632 0.1635 0.02233 0.0
H717 H 0.84714 0.21827 0.02906 0.0
H718 H 0.81748 0.2151 0.01611 0.0
H719 H 0.81661 0.16049 0.00909 0.0
C720 C 0.23605 0.78352 0.65404 0.0
C721 C 0.22706 0.79572 0.64688 0.0
C722 C 0.24784 0.81849 0.66239 0.0
C723 C 0.2329 0.81307 0.65103 0.0
C724 C 0.25661 0.80616 0.66975 0.0
C725 C 0.25075 0.78881 0.66558 0.0
U726 U 0.20513 0.74746 0.62861 0.0
O727 O 0.21028 0.72429 0.61332 0.0
O728 O 0.19585 0.7222 0.63512 0.0
C729 C 0.20342 0.71415 0.62333 0.0
C730 C 0.23061 0.76527 0.64897 0.0
C731 C 0.2141 0.70148 0.62905 0.0
C732 C 0.23827 0.69401 0.64684 0.0
C733 C 0.22768 0.70605 0.64215 0.0
C734 C 0.22174 0.67275 0.62541 0.0
C735 C 0.23549 0.67723 0.63845 0.0
C736 C 0.21115 0.68478 0.62078 0.0
C737 C 0.16697 0.75624 0.59982 0.0
C738 C 0.14775 0.73249 0.5841 0.0
C739 C 0.14655 0.76097 0.57634 0.0
C740 C 0.15963 0.76731 0.58948 0.0
C741 C 0.14066 0.74343 0.57332 0.0
C742 C 0.16083 0.73882 0.59718 0.0
C743 C 0.18182 0.76265 0.61243 0.0
O744 O 0.2164 0.75917 0.65433 0.0
O745 O 0.23149 0.75997 0.63289 0.0
O746 O 0.19656 0.76069 0.60701 0.0
O747 O 0.1809 0.75842 0.62785 0.0
H748 H 0.2157 0.7918 0.63787 0.0
H749 H 0.22597 0.8222 0.64497 0.0
H750 H 0.26801 0.80991 0.67871 0.0
H751 H 0.25782 0.77952 0.67122 0.0
H752 H 0.24863 0.69784 0.65703 0.0
H753 H 0.23017 0.71896 0.64862 0.0
H754 H 0.2194 0.66006 0.61846 0.0
H755 H 0.20081 0.6811 0.61053 0.0
H756 H 0.14335 0.71896 0.58228 0.0
H757 H 0.14153 0.76972 0.56816 0.0
H758 H 0.16433 0.78077 0.59128 0.0
H759 H 0.16642 0.73007 0.60501 0.0
C760 C 0.36653 0.33685 0.02885 0.0
C761 C 0.37408 0.32224 0.02398 0.0
C762 C 0.35122 0.30431 0.03371 0.0
C763 C 0.36645 0.30614 0.02627 0.0
C764 C 0.34371 0.31903 0.0386 0.0
C765 C 0.35131 0.33516 0.03617 0.0
U766 U 0.40707 0.36526 0.02716 0.0
O767 O 0.41389 0.38443 0.01039 0.0
O768 O 0.41613 0.39173 0.03806 0.0
C769 C 0.41695 0.39692 0.02301 0.0
C770 C 0.37493 0.35385 0.02703 0.0
C771 C 0.40868 0.4121 0.02016 0.0
C772 C 0.38386 0.4273 0.01952 0.0
C773 C 0.39152 0.41273 0.02241 0.0
C774 C 0.41039 0.44064 0.01196 0.0
C775 C 0.39321 0.44141 0.01424 0.0
C776 C 0.41804 0.4261 0.01491 0.0
C777 C 0.44852 0.34605 0.03236 0.0
C778 C 0.47575 0.36368 0.03449 0.0
C779 C 0.47461 0.33296 0.03278 0.0
C780 C 0.45689 0.33147 0.03193 0.0
C781 C 0.48426 0.34909 0.03412 0.0
C782 C 0.45801 0.36217 0.03359 0.0
C783 C 0.42993 0.34431 0.03148 0.0
O784 O 0.38456 0.36166 0.04076 0.0
O785 O 0.38214 0.35489 0.01302 0.0
O786 O 0.42179 0.34572 0.01651 0.0
O787 O 0.42403 0.35285 0.04419 0.0
H788 H 0.38593 0.32327 0.01844 0.0
H789 H 0.37245 0.29511 0.02207 0.0
H790 H 0.33213 0.31814 0.04458 0.0
H791 H 0.34541 0.34632 0.04019 0.0
H792 H 0.37056 0.42745 0.0212 0.0
H793 H 0.38408 0.40194 0.02634 0.0
H794 H 0.41797 0.45136 0.0081 0.0
H795 H 0.43131 0.42579 0.01312 0.0
H796 H 0.4828 0.37629 0.03567 0.0
H797 H 0.48073 0.32145 0.03215 0.0
H798 H 0.44971 0.31893 0.03088 0.0
H799 H 0.45168 0.37356 0.0339 0.0
C800 C 0.32928 0.63706 0.68507 0.0
C801 C 0.33415 0.62569 0.67229 0.0
C802 C 0.33037 0.64592 0.65178 0.0
C803 C 0.33468 0.63007 0.65586 0.0
C804 C 0.3249 0.65707 0.66451 0.0
C805 C 0.32439 0.65267 0.68105 0.0
U806 U 0.34205 0.60663 0.71513 0.0
O807 O 0.35764 0.61035 0.74013 0.0
O808 O 0.33147 0.59744 0.73734 0.0
C809 C 0.34529 0.6035 0.74781 0.0
C810 C 0.33071 0.63298 0.70271 0.0
C811 C 0.34275 0.61286 0.76415 0.0
C812 C 0.33413 0.63715 0.78096 0.0
C813 C 0.33604 0.62847 0.76507 0.0
C814 C 0.34565 0.61466 0.795 0.0
C815 C 0.33888 0.6303 0.79613 0.0
C816 C 0.34753 0.60605 0.77919 0.0
C817 C 0.35871 0.56694 0.69418 0.0
C818 C 0.37217 0.54649 0.70991 0.0
C819 C 0.36778 0.54203 0.67906 0.0
C820 C 0.36035 0.5571 0.67891 0.0
C821 C 0.37394 0.53652 0.69455 0.0
C822 C 0.36457 0.56154 0.70972 0.0
C823 C 0.35135 0.58301 0.69354 0.0
O824 O 0.3206 0.61956 0.70532 0.0
O825 O 0.34648 0.63313 0.70971 0.0
O826 O 0.36144 0.5968 0.70043 0.0
O827 O 0.33572 0.58288 0.69741 0.0
H828 H 0.33793 0.61354 0.67513 0.0
H829 H 0.3388 0.62116 0.64639 0.0
H830 H 0.32168 0.66947 0.6619 0.0
H831 H 0.32066 0.66164 0.6908 0.0
H832 H 0.32878 0.6491 0.78136 0.0
H833 H 0.33233 0.63393 0.75355 0.0
H834 H 0.34976 0.60917 0.80638 0.0
H835 H 0.35286 0.59407 0.77871 0.0
H836 H 0.37702 0.54295 0.7221 0.0
H837 H 0.36859 0.53472 0.66694 0.0
H838 H 0.35595 0.56112 0.66681 0.0
H839 H 0.3635 0.5691 0.72167 0.0
C840 C 0.98011 0.71799 0.17018 0.0
C841 C 0.98075 0.72784 0.18604 0.0
C842 C 0.99036 0.70463 0.20049 0.0
C843 C 0.98576 0.72121 0.20104 0.0
C844 C 0.98902 0.6945 0.18461 0.0
C845 C 0.98401 0.70119 0.16953 0.0
U846 U 0.98009 0.75859 0.15125 0.0
O847 O 0.99153 0.76772 0.12956 0.0
O848 O 0.96402 0.76742 0.13046 0.0
C849 C 0.97681 0.77012 0.12156 0.0
C850 C 0.97737 0.72607 0.15453 0.0
C851 C 0.97368 0.76333 0.10342 0.0
C852 C 0.97374 0.74063 0.08033 0.0
C853 C 0.97557 0.74637 0.0978 0.0
C854 C 0.96767 0.76862 0.07405 0.0
C855 C 0.96994 0.75176 0.06825 0.0
C856 C 0.96953 0.77433 0.09147 0.0
C857 C 0.99194 0.79866 0.18354 0.0
C858 C 1.00105 0.82648 0.17554 0.0
C859 C 1.00018 0.82289 0.2053 0.0
C860 C 0.99418 0.80565 0.20069 0.0
C861 C 0.00409 0.83341 0.19282 0.0
C862 C 0.99503 0.80921 0.17093 0.0
C863 C 0.98785 0.78015 0.1792 0.0
O864 O 0.96416 0.73466 0.15337 0.0
O865 O 0.99124 0.73449 0.1506 0.0
O866 O 0.99919 0.77272 0.17126 0.0
O867 O 0.97207 0.77456 0.17266 0.0
H868 H 0.97792 0.7409 0.18681 0.0
H869 H 0.98643 0.72922 0.21309 0.0
H870 H 0.99258 0.68171 0.18381 0.0
H871 H 0.98377 0.69348 0.15737 0.0
H872 H 0.9754 0.72753 0.07628 0.0
H873 H 0.97875 0.7377 0.1069 0.0
H874 H 0.96499 0.7776 0.06513 0.0
H875 H 0.9681 0.78748 0.09561 0.0
H876 H 0.00407 0.83419 0.16563 0.0
H877 H 0.00214 0.82791 0.21869 0.0
H878 H 0.99182 0.79766 0.21056 0.0
H879 H 0.99339 0.80395 0.15761 0.0
C880 C 0.65994 0.22382 0.80263 0.0
C881 C 0.64713 0.21895 0.81254 0.0
C882 C 0.66582 0.23046 0.83853 0.0
C883 C 0.65001 0.22233 0.83031 0.0
C884 C 0.67878 0.23494 0.82858 0.0
C885 C 0.67583 0.2317 0.81076 0.0
U886 U 0.63571 0.19834 0.76269 0.0
O887 O 0.62364 0.20617 0.73915 0.0
O888 O 0.64376 0.18942 0.7379 0.0
C889 C 0.6335 0.19833 0.72951 0.0
C890 C 0.65678 0.2207 0.78388 0.0
C891 C 0.64071 0.208 0.71666 0.0
C892 C 0.65004 0.23475 0.70638 0.0
C893 C 0.64505 0.22576 0.71957 0.0
C894 C 0.64703 0.20824 0.6875 0.0
C895 C 0.65073 0.22611 0.69008 0.0
C896 C 0.64205 0.19931 0.70065 0.0
C897 C 0.60246 0.16162 0.76831 0.0
C898 C 0.5835 0.14563 0.74448 0.0
C899 C 0.58174 0.13846 0.7731 0.0
C900 C 0.59497 0.15141 0.77939 0.0
C901 C 0.57573 0.1355 0.75559 0.0
C902 C 0.59676 0.1586 0.7508 0.0
C903 C 0.61589 0.17558 0.77528 0.0
O904 O 0.66121 0.20632 0.77696 0.0
O905 O 0.64179 0.22386 0.77715 0.0
O906 O 0.61207 0.19096 0.77336 0.0
O907 O 0.63132 0.17332 0.77188 0.0
H908 H 0.63483 0.21264 0.80653 0.0
H909 H 0.63986 0.21852 0.83764 0.0
H910 H 0.69105 0.24133 0.83455 0.0
H911 H 0.6859 0.23547 0.80333 0.0
H912 H 0.6527 0.2485 0.70878 0.0
H913 H 0.64413 0.23274 0.73185 0.0
H914 H 0.64775 0.20115 0.67522 0.0
H915 H 0.63879 0.1856 0.69816 0.0
H916 H 0.57907 0.14381 0.73096 0.0
H917 H 0.57622 0.13074 0.78197 0.0
H918 H 0.59928 0.15355 0.79294 0.0
H919 H 0.60241 0.16641 0.74207 0.0
C920 C 0.00267 0.38321 0.32433 0.0
C921 C 0.00424 0.39098 0.30952 0.0
C922 C 0.00752 0.36373 0.29385 0.0
C923 C 0.00669 0.38135 0.29443 0.0
C924 C 0.00565 0.35595 0.3087 0.0
C925 C 0.00327 0.36564 0.32384 0.0
U926 U 0.99789 0.42593 0.34753 0.0
O927 O 0.98399 0.43345 0.36899 0.0
O928 O 0.01177 0.43971 0.37138 0.0
C929 C 0.99807 0.43914 0.37923 0.0
C930 C 1.00119 0.3936 0.34038 0.0
C931 C 0.99979 0.4319 0.3954 0.0
C932 C 1.0007 0.40728 0.41078 0.0
C933 C 0.99865 0.41419 0.39542 0.0
C934 C 0.00523 0.43574 0.42627 0.0
C935 C 0.00403 0.41798 0.42638 0.0
C936 C 0.00309 0.44264 0.41087 0.0
C937 C 0.99441 0.46326 0.32124 0.0
C938 C 0.97911 0.4851 0.30968 0.0
C939 C 0.00731 0.49279 0.32523 0.0
C940 C 0.00803 0.47584 0.32788 0.0
C941 C 0.99291 0.49764 0.31598 0.0
C942 C 0.9799 0.46807 0.31222 0.0
C943 C 0.9955 0.44507 0.32281 0.0
O944 O 0.01414 0.40543 0.34557 0.0
O945 O 0.98636 0.39916 0.34149 0.0
O946 O 0.98217 0.43652 0.32769 0.0
O947 O 0.01007 0.44134 0.33001 0.0
H948 H 0.00388 0.40458 0.30972 0.0
H949 H 0.00834 0.38782 0.28334 0.0
H950 H 0.00599 0.34238 0.30863 0.0
H951 H 0.00207 0.35947 0.3352 0.0
H952 H 0.99995 0.39357 0.41043 0.0
H953 H 0.99629 0.40572 0.38353 0.0
H954 H 0.00764 0.44428 0.4381 0.0
H955 H 0.00408 0.45635 0.41104 0.0
H956 H 0.96775 0.4884 0.30267 0.0
H957 H 0.01832 0.502 0.32999 0.0
H958 H 0.01946 0.47259 0.33483 0.0
H959 H 0.96924 0.45861 0.30693 0.0
C960 C 0.32951 0.52245 0.64818 0.0
N961 N 0.3264 0.53508 0.63865 0.0
N962 N 0.33467 0.50931 0.63853 0.0
C963 C 0.3265 0.52245 0.66651 0.0
C964 C 0.33458 0.51441 0.62284 0.0
N965 N 0.32957 0.5301 0.62294 0.0
C966 C 0.33857 0.50372 0.60734 0.0
H967 H 0.3361 0.51595 0.6736 0.0
H968 H 0.31379 0.51536 0.66696 0.0
H969 H 0.32677 0.5356 0.67292 0.0
H970 H 0.32669 0.4959 0.60102 0.0
H971 H 0.34794 0.49501 0.61095 0.0
H972 H 0.3436 0.51177 0.59807 0.0
C973 C 0.31471 0.60494 0.98946 0.0
N974 N 0.313 0.58874 0.98166 0.0
N975 N 0.30326 0.61386 0.98169 0.0
C976 C 0.32662 0.61167 0.00538 0.0
C977 C 0.29454 0.60251 0.9689 0.0
N978 N 0.30047 0.58723 0.96889 0.0
C979 C 0.28087 0.60664 0.95594 0.0
H980 H 0.32936 0.60128 0.01309 0.0
H981 H 0.3212 0.62163 0.01324 0.0
H982 H 0.33879 0.61745 0.0017 0.0
H983 H 0.28266 0.62036 0.9543 0.0
H984 H 0.26829 0.60367 0.96041 0.0
H985 H 0.28088 0.59887 0.94346 0.0
C986 C 0.70184 0.98495 0.3244 0.0
N987 N 0.68766 0.97193 0.32607 0.0
N988 N 0.70164 0.00875 0.3247 0.0
C989 C 0.71605 0.97053 0.31414 0.0
C990 C 0.7001 0.99203 0.32574 0.0
N991 N 0.70018 0.97924 0.33701 0.0
C992 C 0.69255 0.01963 0.32803 0.0
H993 H 0.72073 0.96199 0.3232 0.0
H994 H 0.72798 0.97564 0.30957 0.0
H995 H 0.70856 0.96219 0.30312 0.0
H996 H 0.68563 0.02593 0.3164 0.0
H997 H 0.6984 0.03115 0.33921 0.0
H998 H 0.68073 0.02405 0.33377 0.0
C999 C 0.71581 0.8875 0.99639 0.0
N1000 N 0.72332 0.9015 0.00693 0.0
N1001 N 0.71605 0.87341 0.00452 0.0
C1002 C 0.70922 0.88742 0.97794 0.0
C1003 C 0.72392 0.87937 0.02037 0.0
N1004 N 0.72848 0.8964 0.02178 0.0
C1005 C 0.72568 0.86884 0.03492 0.0
H1006 H 0.69571 0.88985 0.97695 0.0
H1007 H 0.70991 0.8749 0.97054 0.0
H1008 H 0.71657 0.8976 0.97232 0.0
H1009 H 0.73815 0.8638 0.03538 0.0
H1010 H 0.71545 0.85791 0.03322 0.0
H1011 H 0.72521 0.87665 0.04727 0.0
C1012 C 0.65952 0.31796 0.53187 0.0
N1013 N 0.65032 0.31402 0.54455 0.0
N1014 N 0.64987 0.32469 0.51977 0.0
C1015 C 0.67769 0.31479 0.53105 0.0
C1016 C 0.63447 0.32461 0.52559 0.0
N1017 N 0.63479 0.31812 0.54061 0.0
C1018 C 0.61914 0.33068 0.51643 0.0
H1019 H 0.68408 0.32352 0.52312 0.0
H1020 H 0.67786 0.30145 0.52533 0.0
H1021 H 0.68491 0.31646 0.54398 0.0
H1022 H 0.61852 0.32714 0.50247 0.0
H1023 H 0.6203 0.34477 0.51901 0.0
H1024 H 0.60711 0.32545 0.52075 0.0
C1025 C 0.9735 0.7141 0.87581 0.0
N1026 N 0.98237 0.72355 0.88984 0.0
N1027 N 0.98184 0.7158 0.86201 0.0
C1028 C 0.95645 0.70379 0.87542 0.0
C1029 C 0.99614 0.72654 0.8682 0.0
N1030 N 0.99638 0.73132 0.88508 0.0
C1031 C 0.0106 0.73098 0.85816 0.0
H1032 H 0.95841 0.69081 0.87844 0.0
H1033 H 0.94903 0.70265 0.86261 0.0
H1034 H 0.9491 0.70966 0.88509 0.0
H1035 H 0.00842 0.74266 0.85224 0.0
H1036 H 0.01134 0.72056 0.84787 0.0
H1037 H 0.02296 0.73352 0.86649 0.0
C1038 C 0.01114 0.33473 0.59038 0.0
N1039 N 0.00384 0.33323 0.57402 0.0
N1040 N 0.003 0.32312 0.59892 0.0
C1041 C 0.02567 0.34796 0.59815 0.0
C1042 C 0.99038 0.31465 0.58715 0.0
N1043 N 0.99092 0.32084 0.57204 0.0
C1044 C 0.97739 0.30061 0.59061 0.0
H1045 H 0.03485 0.35024 0.5889 0.0
H1046 H 0.03242 0.34405 0.60976 0.0
H1047 H 0.02059 0.36014 0.60164 0.0
H1048 H 0.96629 0.29795 0.58064 0.0
H1049 H 0.9729 0.3039 0.60315 0.0
H1050 H 0.98341 0.28872 0.59107 0.0
C1051 C 0.33227 0.71341 0.97844 0.0
N1052 N 0.33958 0.70152 0.96921 0.0
N1053 N 0.33734 0.71366 0.99531 0.0
C1054 C 0.3202 0.72467 0.97103 0.0
C1055 C 0.34819 0.7017 0.99595 0.0
N1056 N 0.34946 0.69425 0.9801 0.0
C1057 C 0.35881 0.69854 0.0119 0.0
H1058 H 0.32772 0.73602 0.96746 0.0
H1059 H 0.31185 0.7291 0.98042 0.0
H1060 H 0.31235 0.71792 0.95935 0.0
H1061 H 0.35243 0.68738 0.01692 0.0
H1062 H 0.36032 0.7097 0.02186 0.0
H1063 H 0.37163 0.69568 0.00917 0.0
C1064 C 0.52734 0.64514 0.32673 0.0
N1065 N 0.5406 0.63612 0.32466 0.0
N1066 N 0.51608 0.63692 0.33556 0.0
C1067 C 0.52555 0.66213 0.32061 0.0
C1068 C 0.52287 0.62253 0.33864 0.0
N1069 N 0.53776 0.62204 0.33202 0.0
C1070 C 0.51437 0.60844 0.34705 0.0
H1071 H 0.51757 0.66952 0.32849 0.0
H1072 H 0.51925 0.66002 0.30727 0.0
H1073 H 0.53822 0.6696 0.32087 0.0
H1074 H 0.50035 0.60843 0.34562 0.0
H1075 H 0.51915 0.61043 0.36085 0.0
H1076 H 0.51741 0.59585 0.34162 0.0
C1077 C 0.88785 0.97722 0.723 0.0
N1078 N 0.90134 0.98815 0.73093 0.0
N1079 N 0.87316 0.98396 0.72481 0.0
C1080 C 0.88911 0.96065 0.71246 0.0
C1081 C 0.87822 0.99942 0.73398 0.0
N1082 N 0.89536 0.00195 0.73766 0.0
C1083 C 0.86651 0.01241 0.73835 0.0
H1084 H 0.89306 0.96335 0.69999 0.0
H1085 H 0.8767 0.95241 0.71022 0.0
H1086 H 0.89892 0.95382 0.71882 0.0
H1087 H 0.85436 0.0062 0.74163 0.0
H1088 H 0.86352 0.01909 0.72707 0.0
H1089 H 0.87247 0.02195 0.74919 0.0
C1090 C 0.59046 0.99527 0.3307 0.0
N1091 N 0.57394 0.98873 0.32654 0.0
N1092 N 0.60021 0.98769 0.31996 0.0
C1093 C 0.59722 0.00809 0.34594 0.0
C1094 C 0.58906 0.97625 0.30918 0.0
N1095 N 0.57308 0.97685 0.31325 0.0
C1096 C 0.5939 0.96388 0.29537 0.0
H1097 H 0.58848 0.01786 0.3478 0.0
H1098 H 0.61003 0.01446 0.34459 0.0
H1099 H 0.59816 1.00142 0.35748 0.0
H1100 H 0.59743 0.95241 0.30098 0.0
H1101 H 0.60503 0.96946 0.28975 0.0
H1102 H 0.58311 0.9599 0.28514 0.0
C1103 C 0.98 0.31787 0.6883 0.0
N1104 N 0.96293 0.32143 0.6865 0.0
N1105 N 0.99139 0.30767 0.69277 0.0
C1106 C 0.99188 0.29249 0.68971 0.0
C1107 C 0.97727 0.32455 0.68764 0.0
N1108 N 0.9658 0.32492 0.67162 0.0
C1109 C 0.98107 0.3483 0.69447 0.0
H1110 H 0.99232 0.28434 0.70179 0.0
H1111 H 0.00238 0.28782 0.68089 0.0
H1112 H 0.98561 0.27898 0.6836 0.0
H1113 H 0.9926 0.35461 0.70284 0.0
H1114 H 0.97038 0.35231 0.70117 0.0
H1115 H 0.98182 0.35538 0.68329 0.0
C1116 C 0.68152 0.48064 0.36117 0.0
N1117 N 0.68366 0.46734 0.3701 0.0
N1118 N 0.67009 0.49018 0.3677 0.0
C1119 C 0.6919 0.48527 0.34728 0.0
C1120 C 0.66535 0.48206 0.38089 0.0
N1121 N 0.67364 0.46825 0.3824 0.0
C1122 C 0.65184 0.48694 0.39164 0.0
H1123 H 0.70433 0.48016 0.34862 0.0
H1124 H 0.69424 0.49929 0.34746 0.0
H1125 H 0.6848 0.47969 0.33476 0.0
H1126 H 0.64236 0.4935 0.3844 0.0
H1127 H 0.65786 0.49566 0.40308 0.0
H1128 H 0.64523 0.47548 0.396 0.0
C1129 C 0.69846 0.40425 0.02119 0.0
N1130 N 0.69955 0.42057 0.02854 0.0
N1131 N 0.70961 0.39568 0.02992 0.0
C1132 C 0.68754 0.39707 0.00477 0.0
C1133 C 0.71752 0.40741 0.04282 0.0
N1134 N 0.71145 0.42257 0.04194 0.0
C1135 C 0.73024 0.40371 0.05694 0.0
H1136 H 0.67509 0.3912 0.00773 0.0
H1137 H 0.6936 0.38711 0.99759 0.0
H1138 H 0.6852 0.40723 0.99663 0.0
H1139 H 0.74326 0.40657 0.05343 0.0
H1140 H 0.72823 0.39009 0.05895 0.0
H1141 H 0.72931 0.41179 0.06902 0.0
C1142 C 0.30799 0.02389 0.68895 0.0
N1143 N 0.3063 0.03302 0.67239 0.0
N1144 N 0.30129 0.99811 0.67622 0.0
C1145 C 0.31278 0.03419 0.70688 0.0
C1146 C 0.29804 0.00172 0.65664 0.0
N1147 N 0.30128 0.0214 0.65606 0.0
C1148 C 0.2942 0.9884 0.64133 0.0
H1149 H 0.31253 0.04794 0.70601 0.0
H1150 H 0.32591 0.0327 0.71227 0.0
H1151 H 0.30393 0.03132 0.71627 0.0
H1152 H 0.28021 0.98594 0.63775 0.0
H1153 H 0.29892 0.97628 0.64408 0.0
H1154 H 0.30009 0.99287 0.63038 0.0
C1155 C 0.2821 0.11838 0.04052 0.0
N1156 N 0.27379 0.10409 0.03103 0.0
N1157 N 0.27921 0.13232 0.0328 0.0
C1158 C 0.29245 0.1188 0.05757 0.0
C1159 C 0.269 0.12597 0.01821 0.0
N1160 N 0.26557 0.10885 0.01724 0.0
C1161 C 0.26389 0.13625 0.00411 0.0
H1162 H 0.29262 0.13125 0.06544 0.0
H1163 H 0.30573 0.11697 0.05558 0.0
H1164 H 0.2873 0.10838 0.06445 0.0
H1165 H 0.27336 0.14759 0.00416 0.0
H1166 H 0.25141 0.14066 0.00601 0.0
H1167 H 0.26256 0.12848 0.99146 0.0
C1168 C 0.35469 0.68973 0.47362 0.0
N1169 N 0.36347 0.6912 0.46015 0.0
N1170 N 0.36318 0.68156 0.4853 0.0
C1171 C 0.33855 0.69743 0.47594 0.0
C1172 C 0.37749 0.67819 0.47844 0.0
N1173 N 0.37767 0.68412 0.46314 0.0
C1174 C 0.3917 0.67011 0.48715 0.0
H1175 H 0.34178 0.71134 0.47983 0.0
H1176 H 0.3318 0.69177 0.48584 0.0
H1177 H 0.32993 0.69559 0.46377 0.0
H1178 H 0.38665 0.65997 0.49439 0.0
H1179 H 0.3999 0.67998 0.49634 0.0
H1180 H 0.39958 0.66459 0.47782 0.0
C1181 C 0.02912 0.28128 0.11743 0.0
N1182 N 0.02081 0.27093 0.1037 0.0
N1183 N 0.02371 0.27656 0.13196 0.0
C1184 C 0.04252 0.29596 0.11673 0.0
C1185 C 0.01167 0.26307 0.12655 0.0
N1186 N 0.01001 0.25956 0.10937 0.0
C1187 C 1.00011 0.25473 0.13782 0.0
H1188 H 0.05148 0.29836 0.1287 0.0
H1189 H 0.03628 0.30759 0.11523 0.0
H1190 H 0.04966 0.29341 0.1057 0.0
H1191 H 0.98726 0.25033 0.13085 0.0
H1192 H 0.99879 0.26356 0.14927 0.0
H1193 H 0.00564 0.24348 0.14207 0.0
C1194 C 0.04128 0.64874 0.39508 0.0
N1195 N 0.04461 0.65382 0.412 0.0
N1196 N 0.04428 0.66217 0.38617 0.0
C1197 C 0.03542 0.63063 0.38738 0.0
C1198 C 0.04955 0.67557 0.39851 0.0
N1199 N 0.04972 0.67041 0.41414 0.0
C1200 C 0.05418 0.69372 0.39539 0.0
H1201 H 0.03961 0.62804 0.37461 0.0
H1202 H 0.02131 0.62839 0.38614 0.0
H1203 H 0.04043 0.62155 0.39568 0.0
H1204 H 0.04646 0.69658 0.38381 0.0
H1205 H 0.06784 0.69568 0.39358 0.0
H1206 H 0.05224 0.70284 0.40636 0.0
C1207 C 0.67463 0.30542 0.02399 0.0
N1208 N 0.66558 0.31567 0.03324 0.0
N1209 N 0.66813 0.30314 0.00726 0.0
C1210 C 0.69009 0.29824 0.03119 0.0
C1211 C 0.65464 0.31216 0.00679 0.0
N1212 N 0.65323 0.31989 0.02249 0.0
C1213 C 0.64178 0.3119 0.99134 0.0
H1214 H 0.69801 0.30777 0.04095 0.0
H1215 H 0.69766 0.29427 0.02098 0.0
H1216 H 0.68604 0.2869 0.03738 0.0
H1217 H 0.64156 0.30023 0.98225 0.0
H1218 H 0.64519 0.32319 0.98481 0.0
H1219 H 0.62881 0.31251 0.99503 0.0
C1220 C 0.47234 0.36614 0.67615 0.0
N1221 N 0.46029 0.37595 0.68053 0.0
N1222 N 0.48592 0.37586 0.67176 0.0
C1223 C 0.47034 0.34704 0.67518 0.0
C1224 C 0.48163 0.39195 0.67381 0.0
N1225 N 0.46605 0.39196 0.67904 0.0
C1226 C 0.49323 0.40782 0.67227 0.0
H1227 H 0.47428 0.34345 0.68798 0.0
H1228 H 0.47839 0.34141 0.66611 0.0
H1229 H 0.45683 0.34166 0.67126 0.0
H1230 H 0.49113 0.41096 0.65902 0.0
H1231 H 0.50679 0.40593 0.67525 0.0
H1232 H 0.49047 0.41878 0.68097 0.0
C1233 C 0.11609 0.0167 0.26123 0.0
N1234 N 0.10218 0.00591 0.25418 0.0
N1235 N 0.13048 0.01032 0.25737 0.0
C1236 C 0.11566 0.0326 0.27319 0.0
C1237 C 0.12476 0.99517 0.24782 0.0
N1238 N 0.10755 0.99247 0.24594 0.0
C1239 C 0.13605 0.98247 0.24159 0.0
H1240 H 0.10504 0.03952 0.26863 0.0
H1241 H 0.12786 0.04113 0.27447 0.0
H1242 H 0.11343 0.029 0.28591 0.0
H1243 H 0.14078 0.97584 0.25238 0.0
H1244 H 0.14724 0.98899 0.23678 0.0
H1245 H 0.1291 0.97289 0.23125 0.0
C1246 C 0.41072 0.99413 0.68302 0.0
N1247 N 0.42754 1.00002 0.68572 0.0
N1248 N 0.40226 0.00224 0.69474 0.0
C1249 C 0.40232 0.98145 0.66825 0.0
C1250 C 0.41459 0.01327 0.70462 0.0
N1251 N 0.42993 0.01184 0.69921 0.0
C1252 C 0.41141 0.02656 0.71848 0.0
H1253 H 0.39712 0.98844 0.65794 0.0
H1254 H 0.39158 0.97325 0.67208 0.0
H1255 H 0.41153 0.9733 0.66324 0.0
H1256 H 0.39896 0.02325 0.72309 0.0
H1257 H 0.41147 0.03901 0.71341 0.0
H1258 H 0.42167 0.02797 0.72933 0.0
C1259 C 0.03327 0.67502 0.28596 0.0
N1260 N 0.04971 0.68371 0.28721 0.0
N1261 N 0.01193 0.6818 0.29129 0.0
C1262 C 0.04813 0.68318 0.26753 0.0
C1263 C 0.01694 0.67145 0.29115 0.0
N1264 N 0.03815 0.66999 0.28794 0.0
C1265 C 1.00064 0.66004 0.29911 0.0
H1266 H 0.06126 0.67907 0.26474 0.0
H1267 H 0.04787 0.6965 0.26358 0.0
H1268 H 0.04275 0.67527 0.25519 0.0
H1269 H 0.99214 0.65168 0.28874 0.0
H1270 H 0.99231 0.66773 0.30649 0.0
H1271 H 0.00348 0.65127 0.30851 0.0
H1272 H 0.19266 0.66579 0.35981 0.0
H1273 H 0.16539 0.66999 0.34453 0.0
H1274 H 0.16219 0.71349 0.38098 0.0
H1275 H 0.1897 0.70956 0.39625 0.0
H1276 H 0.13392 0.67011 0.36033 0.0
H1277 H 0.15187 0.73009 0.33295 0.0
H1278 H 0.16744 0.71652 0.33964 0.0
H1279 H 0.15841 0.72955 0.35526 0.0
C1280 C 0.18635 0.67646 0.36442 0.0
C1281 C 0.1934 0.68737 0.37923 0.0
C1282 C 0.17071 0.67877 0.35573 0.0
C1283 C 0.16184 0.69211 0.36156 0.0
C1284 C 0.16893 0.70323 0.37616 0.0
H1285 H 0.06227 0.71166 0.3112 0.0
H1286 H 0.08793 0.71511 0.3318 0.0
C1287 C 0.18457 0.70087 0.38494 0.0
C1288 C 0.14478 0.69367 0.35275 0.0
H1289 H 0.12345 0.71726 0.32613 0.0
C1290 C 0.13158 0.68051 0.353 0.0
C1291 C 0.14172 0.70735 0.34337 0.0
C1292 C 0.15557 0.72169 0.34263 0.0
C1293 C 0.11556 0.68037 0.34366 0.0
C1294 C 0.11275 0.69358 0.33355 0.0
C1295 C 0.12567 0.70717 0.3339 0.0
C1296 C 0.09721 0.69223 0.32115 0.0
C1297 C 0.10183 0.66587 0.34436 0.0
C1298 C 0.09453 0.67919 0.30752 0.0
C1299 C 0.07957 0.67695 0.29625 0.0
C1300 C 0.06597 0.68656 0.29918 0.0
C1301 C 0.07033 0.7016 0.31085 0.0
C1302 C 0.08545 0.70405 0.32222 0.0
H1303 H 0.10426 0.65953 0.35599 0.0
H1304 H 0.08914 0.67043 0.34408 0.0
H1305 H 0.10149 0.65622 0.33309 0.0
H1306 H 0.10418 0.67085 0.30543 0.0
H1307 H 0.07901 0.66771 0.28512 0.0
H1308 H 0.34475 0.35474 0.77538 0.0
H1309 H 0.36805 0.35367 0.75778 0.0
H1310 H 0.33682 0.37034 0.71659 0.0
H1311 H 0.31357 0.37187 0.73424 0.0
H1312 H 0.36936 0.33571 0.72417 0.0
H1313 H 0.37975 0.40633 0.72623 0.0
H1314 H 0.36791 0.39595 0.74111 0.0
H1315 H 0.35836 0.3962 0.71964 0.0
C1316 C 0.34283 0.35817 0.76257 0.0
C1317 C 0.32737 0.36356 0.75627 0.0
C1318 C 0.35611 0.35745 0.75251 0.0
C1319 C 0.3542 0.36216 0.73601 0.0
C1320 C 0.33858 0.36687 0.7294 0.0
H1321 H 0.42937 0.38185 0.6669 0.0
H1322 H 0.40273 0.37727 0.67936 0.0
C1323 C 0.32527 0.36758 0.73944 0.0
C1324 C 0.36885 0.36285 0.72606 0.0
H1325 H 0.39721 0.39056 0.71043 0.0
C1326 C 0.37544 0.34767 0.72108 0.0
C1327 C 0.37673 0.37849 0.72213 0.0
C1328 C 0.37047 0.39522 0.72762 0.0
C1329 C 0.38972 0.34772 0.71218 0.0
C1330 C 0.39774 0.3634 0.70843 0.0
C1331 C 0.39102 0.37854 0.71329 0.0
C1332 C 0.41344 0.36462 0.7 0.0
C1333 C 0.39605 0.33097 0.70693 0.0
C1334 C 0.42836 0.35918 0.70755 0.0
C1335 C 0.44364 0.36212 0.70061 0.0
C1336 C 0.44419 0.37053 0.68607 0.0
C1337 C 0.42916 0.37535 0.67815 0.0
C1338 C 0.41396 0.37266 0.6852 0.0
H1339 H 0.38563 0.32021 0.70538 0.0
H1340 H 0.40177 0.33111 0.69484 0.0
H1341 H 0.40596 0.32857 0.71702 0.0
H1342 H 0.42838 0.35338 0.71923 0.0
H1343 H 0.45519 0.35863 0.70707 0.0
H1344 H 0.55381 0.95573 0.61182 0.0
H1345 H 0.52856 0.959 0.62626 0.0
H1346 H 0.52572 0.00817 0.60892 0.0
H1347 H 0.55117 0.00514 0.59467 0.0
H1348 H 0.52324 0.00746 0.64443 0.0
H1349 H 0.47864 0.95651 0.60388 0.0
H1350 H 0.49855 0.95001 0.61202 0.0
H1351 H 0.49831 0.96551 0.59724 0.0
C1352 C 0.54783 0.96726 0.6111 0.0
C1353 C 0.55449 0.98018 0.60208 0.0
C1354 C 0.53331 0.96903 0.61922 0.0
C1355 C 0.52516 0.98374 0.61848 0.0
C1356 C 0.53177 0.99667 0.60954 0.0
H1357 H 0.4273 0.00174 0.65196 0.0
H1358 H 0.45093 0.99751 0.63511 0.0
C1359 C 0.54624 0.99488 0.60133 0.0
C1360 C 0.51009 0.98585 0.62755 0.0
H1361 H 0.46919 0.9686 0.62932 0.0
C1362 C 0.5114 0.99902 0.64109 0.0
C1363 C 0.49462 0.97492 0.62304 0.0
C1364 C 0.49231 0.96102 0.60816 0.0
C1365 C 0.49774 1.00131 0.65051 0.0
C1366 C 0.48245 0.99003 0.64636 0.0
C1367 C 0.481 0.97712 0.63256 0.0
C1368 C 0.46783 0.99148 0.65621 0.0
C1369 C 0.49972 0.01586 0.66477 0.0
C1370 C 0.4694 0.98907 0.6735 0.0
C1371 C 0.45589 0.99128 0.683 0.0
C1372 C 0.44059 0.99584 0.67537 0.0
C1373 C 0.43887 0.99785 0.65798 0.0
C1374 C 0.45237 0.99558 0.64843 0.0
H1375 H 0.51044 0.0257 0.66362 0.0
H1376 H 0.48787 0.022 0.66498 0.0
H1377 H 0.50239 0.01088 0.67715 0.0
H1378 H 0.48114 0.98567 0.67968 0.0
H1379 H 0.45743 0.98974 0.69641 0.0
H1380 H 0.94348 0.97904 0.2737 0.0
H1381 H 0.97467 0.98159 0.27697 0.0
H1382 H 0.97603 0.02403 0.24763 0.0
H1383 H 0.94498 0.02185 0.24465 0.0
H1384 H 0.99442 0.97853 0.2499 0.0
H1385 H 0.01133 0.04152 0.28909 0.0
H1386 H 0.99039 0.02962 0.28715 0.0
H1387 H 0.9964 0.04175 0.27051 0.0
C1388 C 0.95045 0.98914 0.26825 0.0
C1389 C 0.94178 1.00024 0.2589 0.0
C1390 C 0.96824 0.99051 0.27005 0.0
C1391 C 0.97764 0.00312 0.2627 0.0
C1392 C 0.96904 0.01441 0.25365 0.0
H1393 H 0.08118 0.02744 0.24268 0.0
H1394 H 0.05073 0.02686 0.24596 0.0
C1395 C 0.95128 0.01302 0.2518 0.0
C1396 C 0.99636 0.00378 0.26345 0.0
H1397 H 0.03365 0.02999 0.27567 0.0
C1398 C 0.00304 0.98969 0.2557 0.0
C1399 C 0.00752 0.0184 0.27096 0.0
C1400 C 1.00109 0.03363 0.28004 0.0
C1401 C 0.02056 0.99003 0.25479 0.0
C1402 C 0.03169 0.00475 0.2621 0.0
C1403 C 0.02505 0.01875 0.27006 0.0
C1404 C 0.05023 0.00596 0.26124 0.0
C1405 C 0.02696 0.97486 0.2455 0.0
C1406 C 0.06003 0.99475 0.26913 0.0
C1407 C 0.07729 0.99516 0.26728 0.0
C1408 C 0.08497 0.00684 0.25763 0.0
C1409 C 0.07538 0.01847 0.25027 0.0
C1410 C 0.05809 0.01807 0.2521 0.0
H1411 H 0.01652 0.96639 0.23726 0.0
H1412 H 0.03683 0.97901 0.23748 0.0
H1413 H 0.03282 0.96728 0.25495 0.0
H1414 H 0.05426 0.98551 0.27647 0.0
H1415 H 0.08462 0.98615 0.27305 0.0
H1416 H 0.35267 0.18808 0.64565 0.0
H1417 H 0.33639 0.16086 0.64874 0.0
H1418 H 0.37857 0.14875 0.68216 0.0
H1419 H 0.3949 0.17585 0.67913 0.0
H1420 H 0.34445 0.12853 0.64019 0.0
H1421 H 0.33888 0.13939 0.70921 0.0
H1422 H 0.34526 0.15646 0.69721 0.0
H1423 H 0.36047 0.14299 0.70468 0.0
C1424 C 0.35846 0.17962 0.65368 0.0
C1425 C 0.37506 0.18417 0.66221 0.0
C1426 C 0.34912 0.16412 0.65548 0.0
C1427 C 0.35615 0.15291 0.66591 0.0
C1428 C 0.37271 0.1574 0.67442 0.0
H1429 H 0.33648 0.05006 0.68634 0.0
H1430 H 0.347 0.07985 0.68477 0.0
C1431 C 0.38204 0.1729 0.67265 0.0
C1432 C 0.34657 0.13613 0.66725 0.0
H1433 H 0.33278 0.11049 0.69592 0.0
C1434 C 0.34168 0.12465 0.65233 0.0
C1435 C 0.34293 0.13113 0.68311 0.0
C1436 C 0.347 0.1432 0.69944 0.0
C1437 C 0.33391 0.10805 0.65295 0.0
C1438 C 0.33078 0.10289 0.66888 0.0
C1439 C 0.33525 0.1145 0.68373 0.0
C1440 C 0.32387 0.08518 0.6705 0.0
C1441 C 0.3297 0.09592 0.63667 0.0
C1442 C 0.3073 0.0784 0.66324 0.0
C1443 C 0.30128 0.06139 0.66427 0.0
C1444 C 0.31171 0.05096 0.67261 0.0
C1445 C 0.32816 0.05789 0.68006 0.0
C1446 C 0.33416 0.07487 0.67912 0.0
H1447 H 0.33576 0.10085 0.62598 0.0
H1448 H 0.33384 0.08329 0.63848 0.0
H1449 H 0.3157 0.09401 0.633 0.0
H1450 H 0.29911 0.08622 0.65666 0.0
H1451 H 0.28861 0.05636 0.65829 0.0
H1452 H 0.26367 0.9436 0.05564 0.0
H1453 H 0.27483 0.97392 0.05796 0.0
H1454 H 0.23958 0.97973 0.01441 0.0
H1455 H 0.2287 0.94954 0.01178 0.0
H1456 H 0.27296 0.99601 0.01403 0.0
H1457 H 0.24769 0.01236 0.07554 0.0
H1458 H 0.26135 0.9958 0.07479 0.0
H1459 H 0.24086 0.99238 0.0622 0.0
C1460 C 0.25846 0.95132 0.04646 0.0
C1461 C 0.24516 0.94424 0.03366 0.0
C1462 C 0.26475 0.96864 0.04788 0.0
C1463 C 0.25784 0.9791 0.0365 0.0
C1464 C 0.24501 0.97191 0.02338 0.0
H1465 H 0.2458 0.08279 0.03305 0.0
H1466 H 0.24431 0.05234 0.03623 0.0
C1467 C 0.23872 0.95468 0.02198 0.0
C1468 C 0.26343 0.99767 0.03837 0.0
H1469 H 0.26074 0.035 0.06309 0.0
C1470 C 0.27056 0.00455 0.02487 0.0
C1471 C 0.26009 0.00874 0.05246 0.0
C1472 C 0.25197 0.00205 0.06706 0.0
C1473 C 0.27396 0.02224 0.02485 0.0
C1474 C 0.2703 0.03329 0.03879 0.0
C1475 C 0.26365 0.02643 0.05251 0.0
C1476 C 0.27159 0.05194 0.03845 0.0
C1477 C 0.28063 0.02902 0.00956 0.0
C1478 C 0.28744 0.06181 0.03901 0.0
C1479 C 0.28825 0.07918 0.03725 0.0
C1480 C 0.27324 0.08682 0.03487 0.0
C1481 C 0.25748 0.07705 0.03487 0.0
C1482 C 0.25665 0.05976 0.0367 0.0
H1483 H 0.28055 0.01879 0.99884 0.0
H1484 H 0.27288 0.0388 0.00506 0.0
H1485 H 0.29391 0.0352 0.01322 0.0
H1486 H 0.2991 0.056 0.04044 0.0
H1487 H 0.3005 0.08653 0.03709 0.0
H1488 H 0.79062 0.36018 0.37442 0.0
H1489 H 0.77397 0.38409 0.37315 0.0
H1490 H 0.73097 0.35036 0.34632 0.0
H1491 H 0.74769 0.32631 0.34705 0.0
H1492 H 0.75514 0.39521 0.34185 0.0
H1493 H 0.71468 0.37529 0.39084 0.0
H1494 H 0.73552 0.36863 0.38958 0.0
H1495 H 0.71807 0.35946 0.37393 0.0
C1496 C 0.77774 0.35783 0.36794 0.0
C1497 C 0.77052 0.34127 0.36081 0.0
C1498 C 0.76822 0.37151 0.36734 0.0
C1499 C 0.75126 0.36892 0.35975 0.0
C1500 C 0.74402 0.35254 0.35238 0.0
H1501 H 0.68483 0.44693 0.34104 0.0
H1502 H 0.70256 0.42372 0.33708 0.0
C1503 C 0.75357 0.33882 0.35288 0.0
C1504 C 0.74112 0.3834 0.35997 0.0
H1505 H 0.70999 0.40072 0.37968 0.0
C1506 C 0.74517 0.3964 0.35 0.0
C1507 C 0.72827 0.38489 0.37075 0.0
C1508 C 0.72382 0.37142 0.38199 0.0
C1509 C 0.7367 0.41099 0.35062 0.0
C1510 C 0.7239 0.41252 0.36147 0.0
C1511 C 0.71981 0.39946 0.37136 0.0
C1512 C 0.7148 0.42773 0.3631 0.0
C1513 C 0.74182 0.42487 0.34004 0.0
C1514 C 0.71643 0.43808 0.3788 0.0
C1515 C 0.70686 0.45167 0.38084 0.0
C1516 C 0.69507 0.45473 0.3674 0.0
C1517 C 0.69384 0.44472 0.35154 0.0
C1518 C 0.7038 0.43143 0.34935 0.0
H1519 H 0.75419 0.42337 0.33517 0.0
H1520 H 0.73195 0.42439 0.32894 0.0
H1521 H 0.74277 0.43762 0.34759 0.0
H1522 H 0.72497 0.43551 0.38952 0.0
H1523 H 0.7083 0.45951 0.39305 0.0
H1524 H 0.60501 0.52663 0.96751 0.0
H1525 H 0.61998 0.50251 0.97435 0.0
H1526 H 0.65064 0.53442 0.01651 0.0
H1527 H 0.63546 0.55849 0.01004 0.0
H1528 H 0.65524 0.49947 0.9763 0.0
H1529 H 0.63048 0.4932 0.03817 0.0
H1530 H 0.62107 0.50538 0.02259 0.0
H1531 H 0.64029 0.5142 0.03615 0.0
C1532 C 0.61485 0.52848 0.97833 0.0
C1533 C 0.61898 0.54446 0.9883 0.0
C1534 C 0.62345 0.51472 0.98214 0.0
C1535 C 0.63624 0.51664 0.99607 0.0
C1536 C 0.64062 0.53262 0.00586 0.0
H1537 H 0.71288 0.45071 0.0203 0.0
H1538 H 0.69719 0.47389 0.01166 0.0
C1539 C 0.63205 0.5464 0.00204 0.0
C1540 C 0.64506 0.50192 1.0003 0.0
H1541 H 0.65244 0.47659 0.03159 0.0
C1542 C 0.6546 0.49442 0.98836 0.0
C1543 C 0.644 0.49524 0.01595 0.0
C1544 C 0.63329 0.50229 0.02891 0.0
C1545 C 0.66341 0.4806 0.9918 0.0
C1546 C 0.6628 0.47428 0.00768 0.0
C1547 C 0.65298 0.48156 0.01948 0.0
C1548 C 0.67229 0.46015 0.01236 0.0
C1549 C 0.67315 0.47275 0.97837 0.0
C1550 C 0.66351 0.44489 0.01586 0.0
C1551 C 0.67247 0.43176 0.02088 0.0
C1552 C 0.69032 0.43377 0.0226 0.0
C1553 C 0.6991 0.44898 0.01904 0.0
C1554 C 0.69016 0.46211 0.01401 0.0
H1555 H 0.6689 0.47615 0.96554 0.0
H1556 H 0.68689 0.4775 0.9816 0.0
H1557 H 0.67167 0.45865 0.9778 0.0
H1558 H 0.64973 0.44318 0.01476 0.0
H1559 H 0.66553 0.42015 0.02374 0.0
H1560 H 0.66628 0.40003 0.17844 0.0
H1561 H 0.66811 0.38692 0.14956 0.0
H1562 H 0.67208 0.33843 0.16803 0.0
H1563 H 0.67054 0.35149 0.1971 0.0
H1564 H 0.6943 0.3692 0.13696 0.0
H1565 H 0.63212 0.32802 0.12909 0.0
H1566 H 0.63773 0.34573 0.14578 0.0
H1567 H 0.64647 0.32607 0.14766 0.0
C1568 C 0.66775 0.38661 0.17646 0.0
C1569 C 0.66827 0.37685 0.19019 0.0
C1570 C 0.66869 0.37912 0.15989 0.0
C1571 C 0.67004 0.36166 0.15659 0.0
C1572 C 0.67074 0.35187 0.17022 0.0
H1573 H 0.66815 0.29694 0.05956 0.0
H1574 H 0.67108 0.30764 0.09009 0.0
C1575 C 0.66983 0.35936 0.18685 0.0
C1576 C 0.67075 0.35382 0.13885 0.0
H1577 H 0.64883 0.32525 0.10649 0.0
C1578 C 0.68438 0.35956 0.1303 0.0
C1579 C 0.65784 0.3412 0.13019 0.0
C1580 C 0.64262 0.33494 0.13855 0.0
C1581 C 0.68547 0.35301 0.11335 0.0
C1582 C 0.67237 0.34064 0.10456 0.0
C1583 C 0.65888 0.3347 0.11322 0.0
C1584 C 0.67199 0.33421 0.0862 0.0
C1585 C 0.70074 0.35929 0.10508 0.0
C1586 C 0.67158 0.34555 0.07386 0.0
C1587 C 0.6701 0.33944 0.05653 0.0
C1588 C 0.66884 0.32189 0.05117 0.0
C1589 C 0.66945 0.31054 0.06345 0.0
C1590 C 0.67096 0.31664 0.08083 0.0
H1591 H 0.71181 0.36438 0.11474 0.0
H1592 H 0.70454 0.34896 0.09624 0.0
H1593 H 0.69754 0.36977 0.09767 0.0
H1594 H 0.67194 0.3591 0.07761 0.0
H1595 H 0.66959 0.34838 0.04722 0.0
H1596 H 0.97806 0.27082 0.94456 0.0
H1597 H 0.98339 0.27682 0.97566 0.0
H1598 H 0.03479 0.26481 0.97435 0.0
H1599 H 0.02958 0.25892 0.94329 0.0
H1600 H 0.991 0.25358 0.99652 0.0
H1601 H 0.04234 0.30799 0.00788 0.0
H1602 H 0.02971 0.30167 0.98741 0.0
H1603 H 0.04726 0.29042 0.99387 0.0
C1604 C 0.99056 0.26967 0.9509 0.0
C1605 C 0.00339 0.26439 0.94149 0.0
C1606 C 0.99361 0.27316 0.96865 0.0
C1607 C 0.00955 0.27146 0.97732 0.0
C1608 C 0.02253 0.26663 0.96792 0.0
H1609 H 0.02691 0.24628 0.08013 0.0
H1610 H 0.02521 0.24724 0.04925 0.0
C1611 C 0.01952 0.26323 0.95016 0.0
C1612 C 0.01202 0.27301 0.9962 0.0
H1613 H 0.03758 0.29294 0.03175 0.0
C1614 C 1.0011 0.2623 0.00422 0.0
C1615 C 0.02512 0.28448 0.00625 0.0
C1616 C 0.03667 0.29692 0.99844 0.0
C1617 C 0.00314 0.26245 0.02195 0.0
C1618 C 0.0167 0.27334 0.03193 0.0
C1619 C 0.02736 0.28441 0.02402 0.0
C1620 C 0.01979 0.2734 0.05063 0.0
C1621 C 0.99064 0.25102 0.02985 0.0
C1622 C 0.01804 0.28799 0.06163 0.0
C1623 C 0.01915 0.28745 0.07922 0.0
C1624 C 0.02211 0.27234 0.08601 0.0
C1625 C 0.02461 0.25801 0.07507 0.0
C1626 C 0.02356 0.25856 0.05751 0.0
H1627 H 0.97865 0.24698 0.02112 0.0
H1628 H 0.99638 0.23939 0.03264 0.0
H1629 H 0.98749 0.25749 0.04199 0.0
H1630 H 0.0151 0.29955 0.05655 0.0
H1631 H 0.01687 0.29853 0.08745 0.0
H1632 H 0.3426 0.78618 0.34219 0.0
H1633 H 0.34216 0.77055 0.36687 0.0
H1634 H 0.35422 0.72596 0.33681 0.0
H1635 H 0.35555 0.7418 0.31223 0.0
H1636 H 0.32402 0.74158 0.37361 0.0
H1637 H 0.39263 0.7335 0.3757 0.0
H1638 H 0.38267 0.74709 0.36198 0.0
H1639 H 0.37981 0.72436 0.35618 0.0
C1640 C 0.34522 0.77307 0.34081 0.0
C1641 C 0.34942 0.76536 0.32529 0.0
C1642 C 0.34482 0.7641 0.35491 0.0
C1643 C 0.34853 0.74721 0.35379 0.0
C1644 C 0.35171 0.73912 0.33806 0.0
H1645 H 0.33743 0.68293 0.43508 0.0
H1646 H 0.33239 0.69722 0.40959 0.0
C1647 C 0.35224 0.74813 0.32395 0.0
C1648 C 0.3498 0.7385 0.36935 0.0
H1649 H 0.37774 0.72141 0.39624 0.0
C1650 C 0.33573 0.73706 0.37853 0.0
C1651 C 0.36517 0.73285 0.37587 0.0
C1652 C 0.38099 0.73464 0.36703 0.0
C1653 C 0.33663 0.73021 0.39409 0.0
C1654 C 0.35194 0.72435 0.40047 0.0
C1655 C 0.36597 0.72577 0.39127 0.0
C1656 C 0.35387 0.71674 0.41669 0.0
C1657 C 0.32134 0.72989 0.40374 0.0
C1658 C 0.36755 0.72308 0.42931 0.0
C1659 C 0.37031 0.71504 0.44392 0.0
C1660 C 0.35951 0.7005 0.44608 0.0
C1661 C 0.34568 0.69432 0.4337 0.0
C1662 C 0.34287 0.70242 0.41913 0.0
H1663 H 0.31316 0.73973 0.40024 0.0
H1664 H 0.31354 0.71728 0.40043 0.0
H1665 H 0.32516 0.73201 0.41773 0.0
H1666 H 0.37625 0.7341 0.42773 0.0
H1667 H 0.3811 0.71988 0.45338 0.0
H1668 H 0.01372 0.61385 0.55665 0.0
H1669 H 0.02138 0.62486 0.53066 0.0
H1670 H 0.01369 0.57377 0.50421 0.0
H1671 H 0.00521 0.56273 0.52983 0.0
H1672 H 0.04683 0.61854 0.51098 0.0
H1673 H 0.98328 0.59852 0.47368 0.0
H1674 H 0.98698 0.5984 0.49644 0.0
H1675 H 0.99277 0.58137 0.48226 0.0
C1676 C 0.01348 0.60496 0.54526 0.0
C1677 C 0.00869 0.58741 0.54532 0.0
C1678 C 0.01801 0.61126 0.53046 0.0
C1679 C 0.01784 0.60016 0.51543 0.0
C1680 C 0.01359 0.5826 0.51557 0.0
H1681 H 0.06068 0.62865 0.42407 0.0
H1682 H 0.05464 0.61453 0.44921 0.0
C1683 C 0.00895 0.57629 0.53032 0.0
C1684 C 0.02185 0.607 0.49956 0.0
H1685 H 0.00521 0.60955 0.45862 0.0
C1686 C 0.03776 0.61655 0.49951 0.0
C1687 C 0.00988 0.60459 0.4847 0.0
C1688 C 0.99221 0.59531 0.48425 0.0
C1689 C 0.04206 0.62369 0.48495 0.0
C1690 C 0.03024 0.6209 0.47 0.0
C1691 C 0.01432 0.61142 0.47006 0.0
C1692 C 0.03367 0.62867 0.45448 0.0
C1693 C 0.05897 0.63459 0.48581 0.0
C1694 C 0.02363 0.64089 0.44896 0.0
C1695 C 0.027 0.64872 0.43466 0.0
C1696 C 0.04029 0.64433 0.42557 0.0
C1697 C 0.05019 0.63192 0.43084 0.0
C1698 C 0.04686 0.62406 0.44522 0.0
H1699 H 0.06507 0.63832 0.49915 0.0
H1700 H 0.06769 0.62734 0.47877 0.0
H1701 H 0.05739 0.64633 0.47975 0.0
H1702 H 0.01341 0.64461 0.45593 0.0
H1703 H 0.01944 0.65847 0.4308 0.0
H1704 H 0.82941 0.34504 0.62829 0.0
H1705 H 0.85527 0.33954 0.64506 0.0
H1706 H 0.82692 0.3295 0.68674 0.0
H1707 H 0.8008 0.33527 0.67005 0.0
H1708 H 0.87017 0.35685 0.67787 0.0
H1709 H 0.85293 0.2871 0.67826 0.0
H1710 H 0.84205 0.29876 0.66311 0.0
H1711 H 0.83813 0.30127 0.68495 0.0
C1712 C 0.82862 0.34184 0.64108 0.0
C1713 C 0.81299 0.34073 0.64784 0.0
C1714 C 0.84344 0.33861 0.65063 0.0
C1715 C 0.84303 0.33406 0.66712 0.0
C1716 C 0.82748 0.33281 0.67396 0.0
H1717 H 0.94854 0.33213 0.71509 0.0
H1718 H 0.91797 0.334 0.7164 0.0
C1719 C 0.81257 0.33608 0.66438 0.0
C1720 C 0.85909 0.33082 0.67691 0.0
H1721 H 0.88105 0.29858 0.68862 0.0
C1722 C 0.87248 0.3442 0.68066 0.0
C1723 C 0.86202 0.31429 0.68047 0.0
C1724 C 0.84811 0.29944 0.67646 0.0
C1725 C 0.889 0.34132 0.68681 0.0
C1726 C 0.89218 0.3246 0.68949 0.0
C1727 C 0.87854 0.31141 0.68678 0.0
C1728 C 0.90984 0.32008 0.69132 0.0
C1729 C 0.90321 0.35589 0.68893 0.0
C1730 C 0.91522 0.31073 0.67737 0.0
C1731 C 0.93245 0.30969 0.67667 0.0
C1732 C 0.94476 0.31779 0.68999 0.0
C1733 C 0.93929 0.32561 0.70479 0.0
C1734 C 0.92189 0.32685 0.70542 0.0
H1735 H 0.89874 0.36783 0.68513 0.0
H1736 H 0.90896 0.35842 0.70246 0.0
H1737 H 0.91332 0.3525 0.6811 0.0
H1738 H 0.90621 0.3054 0.66635 0.0
H1739 H 0.93635 0.30367 0.6651 0.0
H1740 H 0.68648 0.63867 0.2726 0.0
H1741 H 0.66128 0.63976 0.28754 0.0
H1742 H 0.63417 0.65698 0.24403 0.0
H1743 H 0.65948 0.65646 0.22917 0.0
H1744 H 0.62887 0.6742 0.27603 0.0
H1745 H 0.61915 0.60374 0.27451 0.0
H1746 H 0.64 0.6138 0.28347 0.0
H1747 H 0.63295 0.61428 0.26131 0.0
C1748 C 0.67527 0.643 0.26631 0.0
C1749 C 0.67496 0.64734 0.24962 0.0
C1750 C 0.66083 0.64342 0.2748 0.0
C1751 C 0.64578 0.64811 0.26673 0.0
C1752 C 0.64562 0.65317 0.2504 0.0
H1753 H 0.54203 0.64569 0.29317 0.0
H1754 H 0.56773 0.65022 0.27885 0.0
C1755 C 0.66006 0.65276 0.2419 0.0
C1756 C 0.63003 0.6472 0.2751 0.0
H1757 H 0.60133 0.61946 0.29036 0.0
C1758 C 0.6228 0.66223 0.2791 0.0
C1759 C 0.62203 0.63153 0.27889 0.0
C1760 C 0.6288 0.61488 0.27421 0.0
C1761 C 0.60798 0.66204 0.2872 0.0
C1762 C 0.60026 0.64644 0.29132 0.0
C1763 C 0.60735 0.6314 0.28716 0.0
C1764 C 0.58495 0.64544 0.3003 0.0
C1765 C 0.60075 0.67848 0.29148 0.0
C1766 C 0.58624 0.64154 0.31709 0.0
C1767 C 0.57176 0.63956 0.3254 0.0
C1768 C 0.55564 0.6408 0.31684 0.0
C1769 C 0.55436 0.64498 0.3001 0.0
C1770 C 0.56897 0.64741 0.29191 0.0
H1771 H 0.61004 0.68979 0.29076 0.0
H1772 H 0.58929 0.6789 0.2823 0.0
H1773 H 0.59675 0.67924 0.30444 0.0
H1774 H 0.59841 0.63969 0.32364 0.0
H1775 H 0.57304 0.63645 0.33835 0.0
H1776 H 0.4577 0.03481 0.41568 0.0
H1777 H 0.48356 0.03 0.40276 0.0
H1778 H 0.45592 0.98686 0.36968 0.0
H1779 H 0.43003 0.99155 0.38254 0.0
H1780 H 0.5012 1.00134 0.40008 0.0
H1781 H 0.47624 0.01703 0.3365 0.0
H1782 H 0.46609 0.02197 0.35533 0.0
H1783 H 0.46297 1.00066 0.34433 0.0
C1784 C 0.45718 0.02419 0.40578 0.0
C1785 C 0.4418 0.01364 0.40002 0.0
C1786 C 0.47193 0.02151 0.39837 0.0
C1787 C 0.47154 0.00828 0.38507 0.0
C1788 C 0.45636 0.99739 0.37966 0.0
H1789 H 0.55638 0.96662 0.34321 0.0
H1790 H 0.53159 0.97163 0.35809 0.0
C1791 C 0.44161 1.00009 0.38702 0.0
C1792 C 0.48698 0.00593 0.37676 0.0
H1793 H 0.50259 0.0056 0.33848 0.0
C1794 C 0.50155 0.00232 0.38663 0.0
C1795 C 0.48742 0.00745 0.35927 0.0
C1796 C 0.47241 0.01214 0.34824 0.0
C1797 C 0.51651 0.99987 0.37937 0.0
C1798 C 0.51676 1.00085 0.36176 0.0
C1799 C 0.50229 0.00474 0.35196 0.0
C1800 C 0.53193 0.9979 0.35321 0.0
C1801 C 0.53198 0.99646 0.39062 0.0
C1802 C 0.54004 0.01088 0.34527 0.0
C1803 C 0.55405 0.00795 0.33672 0.0
C1804 C 0.56006 0.99203 0.33599 0.0
C1805 C 0.55193 0.97903 0.34384 0.0
C1806 C 0.53791 0.98192 0.35237 0.0
H1807 H 0.53109 1.00035 0.40431 0.0
H1808 H 0.53306 0.98261 0.3889 0.0
H1809 H 0.54378 0.00331 0.38717 0.0
H1810 H 0.53549 0.02323 0.34564 0.0
H1811 H 0.56005 0.01797 0.33043 0.0
H1812 H 0.05665 0.97313 0.77536 0.0
H1813 H 0.02595 0.97077 0.76691 0.0
H1814 H 0.03391 0.00799 0.73221 0.0
H1815 H 0.06468 0.01064 0.74077 0.0
H1816 H 0.00629 0.9986 0.77048 0.0
H1817 H 1.00108 0.96858 0.70325 0.0
H1818 H 0.01955 0.9681 0.7185 0.0
H1819 H 0.01651 0.98718 0.70905 0.0
C1820 C 0.0519 0.9808 0.76591 0.0
C1821 C 0.06313 0.99215 0.75881 0.0
C1822 C 0.03435 0.97937 0.76103 0.0
C1823 C 0.02768 0.9891 0.74885 0.0
C1824 C 0.03883 1.00014 0.74142 0.0
H1825 H 0.92398 0.00661 0.71555 0.0
H1826 H 0.95506 0.00641 0.71901 0.0
C1827 C 0.05642 0.00162 0.74632 0.0
C1828 C 0.00899 0.98845 0.74481 0.0
H1829 H 0.97591 0.97735 0.7129 0.0
C1830 C 0.99964 0.99389 0.75791 0.0
C1831 C 1.0004 0.98244 0.72837 0.0
C1832 C 0.00983 0.97611 0.71397 0.0
C1833 C 0.9819 0.99355 0.75499 0.0
C1834 C 0.97329 0.98728 0.73863 0.0
C1835 C 0.98261 0.98202 0.72545 0.0
C1836 C 0.95456 0.9862 0.7351 0.0
C1837 C 0.97249 1.00015 0.76932 0.0
C1838 C 0.94407 0.97464 0.74267 0.0
C1839 C 0.92642 0.97472 0.74061 0.0
C1840 C 0.91909 0.98633 0.73096 0.0
C1841 C 0.92951 0.99749 0.72292 0.0
C1842 C 0.94715 0.99738 0.72491 0.0
H1843 H 0.98127 0.00762 0.78005 0.0
H1844 H 0.96296 0.00831 0.76469 0.0
H1845 H 0.96557 0.98922 0.77424 0.0
H1846 H 0.94959 0.96588 0.75053 0.0
H1847 H 0.91852 0.96622 0.74708 0.0
H1848 H 0.64774 0.81592 0.34245 0.0
H1849 H 0.66124 0.84424 0.33879 0.0
H1850 H 0.61958 0.84939 0.30103 0.0
H1851 H 0.60609 0.82103 0.3044 0.0
H1852 H 0.6708 0.85893 0.30852 0.0
H1853 H 0.62068 0.89043 0.33862 0.0
H1854 H 0.62374 0.86854 0.3405 0.0
H1855 H 0.61312 0.87407 0.32115 0.0
C1856 C 0.64158 0.82293 0.33314 0.0
C1857 C 0.62572 0.81625 0.32385 0.0
C1858 C 0.64929 0.83915 0.33112 0.0
C1859 C 0.64127 0.849 0.31984 0.0
C1860 C 0.62582 0.84211 0.31003 0.0
H1861 H 0.66061 0.95619 0.30632 0.0
H1862 H 0.64983 0.92575 0.30232 0.0
C1863 C 0.61812 0.82591 0.31201 0.0
C1864 C 0.64865 0.86677 0.31889 0.0
H1865 H 0.64148 0.90815 0.3278 0.0
C1866 C 0.66441 0.86972 0.3127 0.0
C1867 C 0.64026 0.8808 0.32435 0.0
C1868 C 0.62358 0.8784 0.33166 0.0
C1869 C 0.67194 0.88636 0.31165 0.0
C1870 C 0.66362 0.9004 0.31729 0.0
C1871 C 0.6478 0.89739 0.32338 0.0
C1872 C 0.67129 0.91838 0.31771 0.0
C1873 C 0.68857 0.88872 0.30428 0.0
C1874 C 0.68702 0.92435 0.32745 0.0
C1875 C 0.69325 0.94169 0.32959 0.0
C1876 C 0.68373 0.95352 0.32209 0.0
C1877 C 0.66826 0.94736 0.312 0.0
C1878 C 0.66208 0.93002 0.30979 0.0
H1879 H 0.69045 0.87716 0.29583 0.0
H1880 H 0.68923 0.89977 0.2969 0.0
H1881 H 0.69923 0.89106 0.31482 0.0
H1882 H 0.69416 0.91572 0.33408 0.0
H1883 H 0.70506 0.94563 0.33778 0.0
H1884 H 0.736 0.0635 0.0036 0.0
H1885 H 0.72774 0.03339 0.00578 0.0
H1886 H 0.75893 0.01922 0.96682 0.0
H1887 H 0.76669 0.04928 0.964 0.0
H1888 H 0.72839 0.99824 0.96353 0.0
H1889 H 0.76074 0.00557 0.02988 0.0
H1890 H 0.74464 0.0194 0.02664 0.0
H1891 H 0.76342 0.02191 0.01606 0.0
C1892 C 0.74082 0.054 0.9952 0.0
C1893 C 0.75217 0.05885 0.98374 0.0
C1894 C 0.73625 0.03678 0.99663 0.0
C1895 C 0.74306 0.02409 0.98676 0.0
C1896 C 0.75367 0.02882 0.97469 0.0
H1897 H 0.75319 0.92161 0.0099 0.0
H1898 H 0.75765 0.95136 0.00415 0.0
C1899 C 0.75819 0.04602 0.97319 0.0
C1900 C 0.73972 0.00593 0.98947 0.0
H1901 H 0.74517 0.97871 0.01936 0.0
C1902 C 0.73203 0.99395 0.97574 0.0
C1903 C 0.74477 1.00033 0.00533 0.0
C1904 C 0.754 0.01243 0.02029 0.0
C1905 C 0.72911 0.97651 0.97747 0.0
C1906 C 0.73373 0.971 0.99346 0.0
C1907 C 0.74151 0.98298 0.00715 0.0
C1908 C 0.73099 0.95282 0.99626 0.0
C1909 C 0.7215 0.96413 0.96206 0.0
C1910 C 0.71454 0.9438 0.99383 0.0
C1911 C 0.71205 0.92684 0.99706 0.0
C1912 C 0.72593 0.91872 0.00293 0.0
C1913 C 0.74235 0.92772 0.0054 0.0
C1914 C 0.74487 0.94463 0.00211 0.0
H1915 H 0.723 0.96966 0.95 0.0
H1916 H 0.72749 0.95216 0.9617 0.0
H1917 H 0.70768 0.96091 0.96264 0.0
H1918 H 0.7036 0.94997 0.98975 0.0
H1919 H 0.69927 0.92014 0.99537 0.0
H1920 H 0.22707 0.64332 0.64078 0.0
H1921 H 0.24641 0.62193 0.64515 0.0
H1922 H 0.28944 0.66083 0.65088 0.0
H1923 H 0.27031 0.68232 0.64587 0.0
H1924 H 0.28307 0.6254 0.6223 0.0
H1925 H 0.28499 0.6207 0.69179 0.0
H1926 H 0.26551 0.62498 0.68005 0.0
H1927 H 0.28387 0.6407 0.68319 0.0
C1928 C 0.24065 0.64736 0.64293 0.0
C1929 C 0.24713 0.66453 0.64278 0.0
C1930 C 0.25165 0.63515 0.64557 0.0
C1931 C 0.26931 0.63987 0.64824 0.0
C1932 C 0.27585 0.657 0.64873 0.0
H1933 H 0.3422 0.56596 0.63604 0.0
H1934 H 0.33041 0.59296 0.63986 0.0
C1935 C 0.26487 0.66926 0.64602 0.0
C1936 C 0.28077 0.62654 0.64905 0.0
H1937 H 0.29678 0.59947 0.67527 0.0
C1938 C 0.2863 0.61983 0.63388 0.0
C1939 C 0.28489 0.61945 0.66422 0.0
C1940 C 0.27962 0.62678 0.68084 0.0
C1941 C 0.29519 0.60554 0.63329 0.0
C1942 C 0.29886 0.59803 0.6484 0.0
C1943 C 0.29383 0.60518 0.66371 0.0
C1944 C 0.30708 0.58221 0.64827 0.0
C1945 C 0.29982 0.59817 0.61632 0.0
C1946 C 0.2982 0.56724 0.65234 0.0
C1947 C 0.30495 0.55176 0.65008 0.0
C1948 C 0.32071 0.55114 0.64389 0.0
C1949 C 0.32999 0.56625 0.64079 0.0
C1950 C 0.32325 0.58166 0.64297 0.0
H1951 H 0.29252 0.60287 0.60546 0.0
H1952 H 0.31355 0.60198 0.61575 0.0
H1953 H 0.29746 0.58403 0.61466 0.0
H1954 H 0.28568 0.56738 0.65645 0.0
H1955 H 0.29753 0.54016 0.65231 0.0
H1956 H 0.39604 0.46022 0.98773 0.0
H1957 H 0.38318 0.48613 0.98295 0.0
H1958 H 0.35902 0.48328 0.02863 0.0
H1959 H 0.37209 0.45755 0.0337 0.0
H1960 H 0.34775 0.49015 0.97924 0.0
H1961 H 0.38451 0.53241 0.03446 0.0
H1962 H 0.39101 0.51238 0.02623 0.0
H1963 H 0.37416 0.51267 0.03948 0.0
C1964 C 0.38812 0.46521 0.99684 0.0
C1965 C 0.38514 0.45691 0.01114 0.0
C1966 C 0.38072 0.47993 0.99404 0.0
C1967 C 0.37035 0.48669 0.00555 0.0
C1968 C 0.3672 0.47837 0.01974 0.0
H1969 H 0.29869 0.55932 0.99033 0.0
H1970 H 0.31305 0.53451 0.99636 0.0
C1971 C 0.37453 0.4636 0.02252 0.0
C1972 C 0.36259 0.50231 0.00255 0.0
H1973 H 0.36168 0.54353 0.01938 0.0
C1974 C 0.35081 0.50185 0.98797 0.0
C1975 C 0.3668 0.51757 0.01388 0.0
C1976 C 0.37992 0.51893 0.02933 0.0
C1977 C 0.34284 0.51619 0.9846 0.0
C1978 C 0.34665 0.53128 0.99623 0.0
C1979 C 0.3587 0.53187 0.0106 0.0
C1980 C 0.33817 0.54657 0.99366 0.0
C1981 C 0.33051 0.51513 0.96856 0.0
C1982 C 0.34766 0.56171 0.9908 0.0
C1983 C 0.33945 0.57584 0.9874 0.0
C1984 C 0.32172 0.57498 0.98693 0.0
C1985 C 0.31236 0.56008 0.99049 0.0
C1986 C 0.32053 0.54597 0.99385 0.0
H1987 H 0.33216 0.50429 0.95906 0.0
H1988 H 0.31728 0.51322 0.9718 0.0
H1989 H 0.33209 0.5271 0.96262 0.0
H1990 H 0.36131 0.56241 0.99071 0.0
H1991 H 0.3468 0.58724 0.9846 0.0
H1992 H 0.32813 0.61644 0.82366 0.0
H1993 H 0.32714 0.63085 0.85221 0.0
H1994 H 0.34425 0.67901 0.83586 0.0
H1995 H 0.34555 0.66464 0.80722 0.0
H1996 H 0.35572 0.65036 0.87331 0.0
H1997 H 0.30228 0.68859 0.86062 0.0
H1998 H 0.30558 0.67046 0.84611 0.0
H1999 H 0.3189 0.69035 0.84709 0.0
C2000 C 0.33171 0.6301 0.82609 0.0
C2001 C 0.33703 0.63936 0.81313 0.0
C2002 C 0.33104 0.63832 0.84241 0.0
C2003 C 0.3355 0.656 0.84613 0.0
C2004 C 0.34049 0.66539 0.83319 0.0
H2005 H 0.34413 0.72117 0.94402 0.0
H2006 H 0.34283 0.71103 0.91343 0.0
C2007 C 0.3412 0.65715 0.81682 0.0
C2008 C 0.33579 0.66432 0.86382 0.0
H2009 H 0.31645 0.69224 0.88873 0.0
C2010 C 0.34715 0.65953 0.87668 0.0
C2011 C 0.32471 0.6764 0.86814 0.0
C2012 C 0.31206 0.68173 0.85483 0.0
C2013 C 0.34765 0.66639 0.89378 0.0
C2014 C 0.33621 0.67807 0.8982 0.0
C2015 C 0.32513 0.6832 0.8853 0.0
C2016 C 0.33531 0.6846 0.91623 0.0
C2017 C 0.36053 0.66115 0.90697 0.0
C2018 C 0.33093 0.67322 0.92777 0.0
C2019 C 0.33163 0.679 0.94507 0.0
C2020 C 0.33657 0.69626 0.95112 0.0
C2021 C 0.34012 0.70783 0.93952 0.0
C2022 C 0.33946 0.70204 0.92214 0.0
H2023 H 0.37126 0.65606 0.9011 0.0
H2024 H 0.36576 0.67204 0.91679 0.0
H2025 H 0.35425 0.65096 0.91343 0.0
H2026 H 0.32737 0.65977 0.92343 0.0
H2027 H 0.32877 0.66994 0.95387 0.0
H2028 H 0.99101 0.73218 0.05208 0.0
H2029 H 0.99124 0.72523 0.02138 0.0
H2030 H 0.94787 0.7523 0.01167 0.0
H2031 H 0.94719 0.75886 0.04235 0.0
H2032 H 0.94608 0.7212 0.99027 0.0
H2033 H 0.008 0.76152 0.99201 0.0
H2034 H 0.00821 0.74541 0.00613 0.0
H2035 H 0.99552 0.7625 0.00962 0.0
C2036 C 0.98132 0.73639 0.04343 0.0
C2037 C 0.96916 0.74621 0.04968 0.0
C2038 C 0.98158 0.73256 0.02589 0.0
C2039 C 0.96977 0.73853 0.01428 0.0
C2040 C 0.95718 0.74769 0.02043 0.0
H2041 H 0.98002 0.75261 0.90957 0.0
H2042 H 0.97572 0.75575 0.93978 0.0
C2043 C 0.95689 0.75153 0.03796 0.0
C2044 C 0.97089 0.73581 0.99572 0.0
H2045 H 0.99659 0.74549 0.96564 0.0
C2046 C 0.95712 0.72648 0.98485 0.0
C2047 C 0.98521 0.74293 0.98871 0.0
C2048 C 1.00003 0.75379 0.99967 0.0
C2049 C 0.95735 0.72396 0.96712 0.0
C2050 C 0.97183 0.73078 0.96015 0.0
C2051 C 0.98554 0.74019 0.97103 0.0
C2052 C 0.97299 0.72866 0.94159 0.0
C2053 C 0.94196 0.71435 0.95596 0.0
C2054 C 0.97277 0.7124 0.93258 0.0
C2055 C 0.97519 0.71065 0.91535 0.0
C2056 C 0.97796 0.72512 0.90696 0.0
C2057 C 0.97786 0.74132 0.91587 0.0
C2058 C 0.97543 0.74309 0.93306 0.0
H2059 H 0.93048 0.71369 0.96274 0.0
H2060 H 0.9392 0.7204 0.9442 0.0
H2061 H 0.94451 0.70112 0.95214 0.0
H2062 H 0.97129 0.70112 0.93901 0.0
H2063 H 0.97559 0.69808 0.90875 0.0
H2064 H 0.67457 0.2539 0.68984 0.0
H2065 H 0.67971 0.2698 0.66581 0.0
H2066 H 0.64016 0.2359 0.63354 0.0
H2067 H 0.63491 0.22006 0.65736 0.0
H2068 H 0.66987 0.24226 0.61822 0.0
H2069 H 0.64859 0.30231 0.64612 0.0
H2070 H 0.6656 0.2947 0.65871 0.0
H2071 H 0.6448 0.28262 0.65507 0.0
C2072 C 0.66692 0.24989 0.67764 0.0
C2073 C 0.65434 0.23567 0.67554 0.0
C2074 C 0.66988 0.25899 0.66393 0.0
C2075 C 0.66021 0.25413 0.64792 0.0
C2076 C 0.64781 0.23985 0.64576 0.0
H2077 H 0.63698 0.28275 0.54918 0.0
H2078 H 0.64223 0.26844 0.57464 0.0
C2079 C 0.64488 0.23075 0.6594 0.0
C2080 C 0.66268 0.26387 0.63332 0.0
H2081 H 0.6569 0.30186 0.61871 0.0
C2082 C 0.66718 0.25535 0.61838 0.0
C2083 C 0.65935 0.281 0.63359 0.0
C2084 C 0.6542 0.29071 0.64918 0.0
C2085 C 0.66794 0.2633 0.60354 0.0
C2086 C 0.66374 0.28012 0.60354 0.0
C2087 C 0.66005 0.28894 0.61871 0.0
C2088 C 0.66164 0.28825 0.58764 0.0
C2089 C 0.6731 0.25355 0.58797 0.0
C2090 C 0.67058 0.30425 0.58655 0.0
C2091 C 0.6673 0.31256 0.57213 0.0
C2092 C 0.65517 0.30487 0.55856 0.0
C2093 C 0.64651 0.28875 0.55949 0.0
C2094 C 0.64961 0.28056 0.57394 0.0
H2095 H 0.6813 0.24375 0.59152 0.0
H2096 H 0.66152 0.24687 0.57989 0.0
H2097 H 0.68005 0.26218 0.5803 0.0
H2098 H 0.67988 0.31039 0.59699 0.0
H2099 H 0.6738 0.32516 0.57173 0.0
H2100 H 0.02814 0.42853 0.45393 0.0
H2101 H 0.0321 0.41567 0.48047 0.0
H2102 H 0.98886 0.37803 0.46212 0.0
H2103 H 0.98486 0.39073 0.43562 0.0
H2104 H 0.01043 0.41105 0.5046 0.0
H2105 H 0.0256 0.34879 0.47591 0.0
H2106 H 0.02559 0.36716 0.46448 0.0
H2107 H 0.00592 0.35422 0.46598 0.0
C2108 C 0.01944 0.41756 0.4556 0.0
C2109 C 0.00627 0.41055 0.44264 0.0
C2110 C 0.02177 0.41019 0.47071 0.0
C2111 C 0.01099 0.39569 0.47309 0.0
C2112 C 0.99761 0.38892 0.46034 0.0
H2113 H 0.98297 0.35408 0.56131 0.0
H2114 H 0.98715 0.37085 0.53773 0.0
C2115 C 0.99532 0.39621 0.44523 0.0
C2116 C 0.01335 0.38784 0.48907 0.0
H2117 H 0.01743 0.34981 0.50412 0.0
C2118 C 0.01219 0.39772 0.50455 0.0
C2119 C 0.016 0.37055 0.48902 0.0
C2120 C 0.01854 0.35961 0.47297 0.0
C2121 C 0.01272 0.39051 0.51989 0.0
C2122 C 0.01412 0.37291 0.51962 0.0
C2123 C 0.01617 0.36326 0.50428 0.0
C2124 C 0.01233 0.36397 0.5348 0.0
C2125 C 0.01164 0.40177 0.53619 0.0
C2126 C 0.02496 0.3543 0.54077 0.0
C2127 C 0.02244 0.34459 0.5541 0.0
C2128 C 0.0073 0.34446 0.56157 0.0
C2129 C 0.99481 0.35426 0.55577 0.0
C2130 C 0.99726 0.3639 0.54244 0.0
H2131 H 0.01633 0.41528 0.53528 0.0
H2132 H 0.99814 0.4012 0.5386 0.0
H2133 H 0.01911 0.39757 0.54723 0.0
H2134 H 0.03658 0.354 0.5349 0.0
H2135 H 0.03203 0.33679 0.55826 0.0
H2136 H 0.27747 0.61437 0.50158 0.0
H2137 H 0.28102 0.59833 0.52608 0.0
H2138 H 0.33556 0.60714 0.52714 0.0
H2139 H 0.33213 0.62297 0.50265 0.0
H2140 H 0.29719 0.56886 0.52772 0.0
H2141 H 0.32875 0.62098 0.57696 0.0
H2142 H 0.31697 0.62475 0.55729 0.0
H2143 H 0.33839 0.61957 0.55755 0.0
C2144 C 0.29021 0.61291 0.50707 0.0
C2145 C 0.30452 0.62006 0.50026 0.0
C2146 C 0.29222 0.60382 0.5211 0.0
C2147 C 0.30856 0.60178 0.5286 0.0
C2148 C 0.32285 0.60889 0.52182 0.0
H2149 H 0.35248 0.54428 0.60457 0.0
H2150 H 0.34671 0.56177 0.5814 0.0
C2151 C 0.32086 0.61794 0.50781 0.0
C2152 C 0.31072 0.59139 0.54287 0.0
H2153 H 0.32945 0.59264 0.58383 0.0
C2154 C 0.30411 0.57407 0.54004 0.0
C2155 C 0.31975 0.59824 0.55893 0.0
C2156 C 0.32627 0.61694 0.56299 0.0
C2157 C 0.30674 0.56331 0.55266 0.0
C2158 C 0.31608 0.5701 0.56857 0.0
C2159 C 0.32244 0.58746 0.57153 0.0
C2160 C 0.31948 0.55931 0.58226 0.0
C2161 C 0.29993 0.54466 0.54877 0.0
C2162 C 0.3061 0.55223 0.59037 0.0
C2163 C 0.30941 0.54223 0.60343 0.0
C2164 C 0.3261 0.53916 0.60853 0.0
C2165 C 0.33949 0.54625 0.60047 0.0
C2166 C 0.33621 0.5563 0.58743 0.0
H2167 H 0.29594 0.54081 0.53492 0.0
H2168 H 0.30966 0.53663 0.55323 0.0
H2169 H 0.28868 0.54204 0.5556 0.0
H2170 H 0.29316 0.55465 0.58676 0.0
H2171 H 0.299 0.53706 0.60977 0.0
H2172 H 0.2656 0.45865 0.85357 0.0
H2173 H 0.27506 0.48509 0.8726 0.0
H2174 H 0.25023 0.46425 0.91253 0.0
H2175 H 0.24093 0.43756 0.89364 0.0
H2176 H 0.25338 0.50653 0.88879 0.0
H2177 H 0.29954 0.48253 0.93525 0.0
H2178 H 0.29217 0.47117 0.91433 0.0
H2179 H 0.27869 0.47054 0.93097 0.0
C2180 C 0.26235 0.45958 0.86648 0.0
C2181 C 0.25259 0.44598 0.87214 0.0
C2182 C 0.26768 0.47473 0.87729 0.0
C2183 C 0.26348 0.47654 0.894 0.0
C2184 C 0.25378 0.463 0.89974 0.0
H2185 H 0.26841 0.57119 0.96188 0.0
H2186 H 0.25896 0.54421 0.94336 0.0
C2187 C 0.24836 0.44784 0.88889 0.0
C2188 C 0.26876 0.49285 0.90514 0.0
H2189 H 0.29398 0.511 0.94155 0.0
C2190 C 0.26224 0.50753 0.90034 0.0
C2191 C 0.28044 0.49409 0.92009 0.0
C2192 C 0.28827 0.4788 0.92547 0.0
C2193 C 0.267 0.52345 0.91018 0.0
C2194 C 0.27846 0.52464 0.92527 0.0
C2195 C 0.2851 0.50999 0.93001 0.0
C2196 C 0.28396 0.54106 0.93616 0.0
C2197 C 0.26 0.53892 0.90418 0.0
C2198 C 0.30113 0.54808 0.93831 0.0
C2199 C 0.30644 0.56349 0.9487 0.0
C2200 C 0.29471 0.572 0.95725 0.0
C2201 C 0.27755 0.56497 0.95511 0.0
C2202 C 0.2722 0.54959 0.94463 0.0
H2203 H 0.25445 0.53653 0.89057 0.0
H2204 H 0.24982 0.54238 0.91189 0.0
H2205 H 0.27011 0.54998 0.90587 0.0
H2206 H 0.3104 0.54165 0.93191 0.0
H2207 H 0.31973 0.56875 0.95021 0.0
H2208 H 0.71187 0.98213 0.5009 0.0
H2209 H 0.71897 0.9816 0.47177 0.0
H2210 H 0.66869 0.95636 0.45255 0.0
H2211 H 0.6617 0.95619 0.48172 0.0
H2212 H 0.69413 0.94172 0.43727 0.0
H2213 H 0.70244 0.012 0.43722 0.0
H2214 H 0.7154 0.00457 0.4541 0.0
H2215 H 0.69262 0.00189 0.45351 0.0
C2216 C 0.70235 0.97635 0.4905 0.0
C2217 C 0.68619 0.96921 0.49367 0.0
C2218 C 0.70638 0.97622 0.47383 0.0
C2219 C 0.69429 0.96914 0.45998 0.0
C2220 C 0.67818 0.96196 0.46307 0.0
H2221 H 0.67491 0.96585 0.35412 0.0
H2222 H 0.67657 0.96092 0.38385 0.0
C2223 C 0.67415 0.96202 0.47974 0.0
C2224 C 0.69838 0.96913 0.44224 0.0
H2225 H 0.70822 0.99536 0.41261 0.0
C2226 C 0.69734 0.95344 0.43191 0.0
C2227 C 0.70262 0.98445 0.43529 0.0
C2228 C 0.70321 0.0017 0.44552 0.0
C2229 C 0.70005 0.9527 0.41472 0.0
C2230 C 0.70388 0.968 0.40773 0.0
C2231 C 0.70551 0.98365 0.41815 0.0
C2232 C 0.70376 0.96827 0.38918 0.0
C2233 C 0.69843 0.93561 0.404 0.0
C2234 C 0.71863 0.97335 0.38216 0.0
C2235 C 0.71771 0.97594 0.36495 0.0
C2236 C 0.70183 0.97454 0.3549 0.0
C2237 C 0.68726 0.96787 0.36171 0.0
C2238 C 0.68818 0.96496 0.37869 0.0
H2239 H 0.69929 0.92505 0.41197 0.0
H2240 H 0.68588 0.93334 0.39597 0.0
H2241 H 0.70848 0.93535 0.39537 0.0
H2242 H 0.73084 0.97563 0.39004 0.0
H2243 H 0.72928 0.97963 0.35967 0.0
H2244 H 0.76816 0.98418 0.17037 0.0
H2245 H 0.75732 0.97446 0.14047 0.0
H2246 H 0.79514 0.93972 0.13803 0.0
H2247 H 0.80598 0.94927 0.16793 0.0
H2248 H 0.79132 0.95832 0.10951 0.0
H2249 H 0.72928 0.9277 0.12416 0.0
H2250 H 0.73476 0.94976 0.13263 0.0
H2251 H 0.74731 0.93412 0.14029 0.0
C2252 C 0.77411 0.97441 0.1635 0.0
C2253 C 0.78786 0.96741 0.17157 0.0
C2254 C 0.76792 0.9689 0.14642 0.0
C2255 C 0.77529 0.95622 0.13713 0.0
C2256 C 0.78928 0.94952 0.145 0.0
H2257 H 0.75812 0.89368 0.04037 0.0
H2258 H 0.76999 0.91034 0.06774 0.0
C2259 C 0.79549 0.95504 0.16206 0.0
C2260 C 0.76821 0.94958 0.11933 0.0
H2261 H 0.73318 0.92697 0.0952 0.0
C2262 C 0.77859 0.95152 0.10634 0.0
C2263 C 0.75158 0.94077 0.11527 0.0
C2264 C 0.74009 0.9378 0.1288 0.0
C2265 C 0.77278 0.9448 0.08936 0.0
C2266 C 0.75629 0.93564 0.08537 0.0
C2267 C 0.7458 0.93404 0.0983 0.0
C2268 C 0.74999 0.92671 0.0681 0.0
C2269 C 0.78431 0.9476 0.07584 0.0
C2270 C 0.73477 0.93028 0.05931 0.0
C2271 C 0.72795 0.92065 0.0438 0.0
C2272 C 0.73621 0.90728 0.03694 0.0
C2273 C 0.75161 0.90396 0.04552 0.0
C2274 C 0.75843 0.91356 0.06102 0.0
H2275 H 0.79402 0.95888 0.07986 0.0
H2276 H 0.79113 0.93628 0.07358 0.0
H2277 H 0.77692 0.94936 0.06363 0.0
H2278 H 0.72799 0.94028 0.06464 0.0
H2279 H 0.71597 0.92326 0.0374 0.0
H2280 H 0.49673 0.27677 0.60256 0.0
H2281 H 0.52313 0.27813 0.58935 0.0
H2282 H 0.54664 0.31763 0.62911 0.0
H2283 H 0.52017 0.31662 0.6422 0.0
H2284 H 0.53646 0.30792 0.57754 0.0
H2285 H 0.58426 0.28718 0.62458 0.0
H2286 H 0.56163 0.28309 0.62553 0.0
H2287 H 0.57294 0.30389 0.63294 0.0
C2288 C 0.50764 0.28552 0.60865 0.0
C2289 C 0.5064 0.29663 0.62335 0.0
C2290 C 0.52269 0.28631 0.60109 0.0
C2291 C 0.53685 0.298 0.60826 0.0
C2292 C 0.5359 0.30854 0.62339 0.0
H2293 H 0.63258 0.33326 0.5721 0.0
H2294 H 0.60891 0.32826 0.58917 0.0
C2295 C 0.52076 0.30797 0.63081 0.0
C2296 C 0.5518 0.30052 0.59883 0.0
H2297 H 0.59479 0.29958 0.60129 0.0
C2298 C 0.54919 0.30592 0.58266 0.0
C2299 C 0.56845 0.2983 0.60572 0.0
C2300 C 0.57203 0.29267 0.6231 0.0
C2301 C 0.56276 0.30936 0.57323 0.0
C2302 C 0.57935 0.30672 0.57989 0.0
C2303 C 0.58203 0.3014 0.59612 0.0
C2304 C 0.59399 0.30932 0.57004 0.0
C2305 C 0.55923 0.31628 0.55645 0.0
C2306 C 0.59361 0.3001 0.55386 0.0
C2307 C 0.60695 0.30313 0.54415 0.0
C2308 C 0.62091 0.31532 0.5505 0.0
C2309 C 0.62168 0.32407 0.56693 0.0
C2310 C 0.60827 0.32114 0.57664 0.0
H2311 H 0.54728 0.32232 0.5557 0.0
H2312 H 0.56985 0.32583 0.55445 0.0
H2313 H 0.55773 0.30565 0.54591 0.0
H2314 H 0.58297 0.29057 0.54873 0.0
H2315 H 0.60647 0.29591 0.5317 0.0
H2316 H 0.11665 0.7928 0.00243 0.0
H2317 H 0.08997 0.78217 0.98408 0.0
H2318 H 0.1102 0.80347 0.94191 0.0
H2319 H 0.13701 0.81387 0.96004 0.0
H2320 H 0.06642 0.7996 0.96223 0.0
H2321 H 0.09873 0.75067 0.92703 0.0
H2322 H 0.10777 0.76188 0.94758 0.0
H2323 H 0.10862 0.77234 0.92877 0.0
C2324 C 0.11536 0.79532 0.98928 0.0
C2325 C 0.12898 0.80404 0.98264 0.0
C2326 C 0.1001 0.78934 0.97887 0.0
C2327 C 0.09825 0.7919 0.96165 0.0
C2328 C 0.11148 0.80128 0.95517 0.0
H2329 H 0.00989 0.76374 0.88439 0.0
H2330 H 0.03432 0.77962 0.90355 0.0
C2331 C 0.12673 0.80732 0.96557 0.0
C2332 C 0.08297 0.7837 0.95019 0.0
H2333 H 0.06983 0.75182 0.91748 0.0
C2334 C 0.06712 0.78921 0.95239 0.0
C2335 C 0.08399 0.77002 0.93754 0.0
C2336 C 0.10064 0.76323 0.93509 0.0
C2337 C 0.05222 0.78142 0.94209 0.0
C2338 C 0.05331 0.76787 0.92935 0.0
C2339 C 0.06913 0.76232 0.92722 0.0
C2340 C 0.0381 0.75884 0.91838 0.0
C2341 C 0.03535 0.78743 0.94505 0.0
C2342 C 0.03233 0.74197 0.9204 0.0
C2343 C 0.0185 0.73301 0.90954 0.0
C2344 C 0.01036 0.74076 0.89646 0.0
C2345 C 0.01609 0.75764 0.89445 0.0
C2346 C 0.02988 0.76667 0.90538 0.0
H2347 H 0.03636 0.79652 0.95688 0.0
H2348 H 0.03063 0.79386 0.9341 0.0
H2349 H 0.02577 0.77639 0.94588 0.0
H2350 H 0.03862 0.73572 0.9303 0.0
H2351 H 0.01429 0.71994 0.91113 0.0
H2352 H 0.87727 0.24806 0.45316 0.0
H2353 H 0.89776 0.2595 0.47807 0.0
H2354 H 0.9228 0.29454 0.44839 0.0
H2355 H 0.90224 0.28323 0.42342 0.0
H2356 H 0.93231 0.2606 0.48311 0.0
H2357 H 0.91403 0.32612 0.48937 0.0
H2358 H 0.90131 0.30861 0.47572 0.0
H2359 H 0.92003 0.3192 0.46887 0.0
C2360 C 0.88721 0.25812 0.4519 0.0
C2361 C 0.88811 0.26478 0.43634 0.0
C2362 C 0.89886 0.26469 0.46617 0.0
C2363 C 0.91164 0.27806 0.46517 0.0
C2364 C 0.91279 0.28451 0.44956 0.0
H2365 H 1.00011 0.30729 0.54254 0.0
H2366 H 0.98137 0.2974 0.51577 0.0
C2367 C 0.90107 0.27801 0.4353 0.0
C2368 C 0.92382 0.28504 0.48047 0.0
H2369 H 0.93827 0.3214 0.50753 0.0
C2370 C 0.93363 0.27389 0.48845 0.0
C2371 C 0.92535 0.30235 0.48752 0.0
C2372 C 0.91451 0.31475 0.48005 0.0
C2373 C 0.94496 0.27957 0.5033 0.0
C2374 C 0.9468 0.29697 0.51012 0.0
C2375 C 0.93696 0.30811 0.50216 0.0
C2376 C 0.95837 0.30369 0.5259 0.0
C2377 C 0.9545 0.26679 0.51179 0.0
C2378 C 0.95178 0.31114 0.54021 0.0
C2379 C 0.9625 0.31692 0.55534 0.0
C2380 C 0.9799 0.3152 0.55641 0.0
C2381 C 0.98662 0.30836 0.54196 0.0
C2382 C 0.97594 0.30266 0.52679 0.0
H2383 H 0.94848 0.2535 0.50754 0.0
H2384 H 0.9677 0.26784 0.50843 0.0
H2385 H 0.95516 0.26925 0.52587 0.0
H2386 H 0.9383 0.31224 0.53974 0.0
H2387 H 0.95724 0.32261 0.56628 0.0
H2388 H 0.48925 0.62819 0.98248 0.0
H2389 H 0.45849 0.628 0.98251 0.0
H2390 H 0.45786 0.66279 0.94462 0.0
H2391 H 0.48835 0.66248 0.94399 0.0
H2392 H 0.44362 0.65534 0.99214 0.0
H2393 H 0.41602 0.63018 0.92631 0.0
H2394 H 0.43754 0.62773 0.93461 0.0
H2395 H 0.43283 0.64715 0.92642 0.0
C2396 C 0.48247 0.63541 0.9738 0.0
C2397 C 0.49128 0.64542 0.96329 0.0
C2398 C 0.4649 0.63534 0.97389 0.0
C2399 C 0.4558 0.64518 0.9634 0.0
C2400 C 0.46449 0.65476 0.95253 0.0
H2401 H 0.37305 0.70054 0.95927 0.0
H2402 H 0.39679 0.68431 0.95424 0.0
C2403 C 0.482 0.65479 0.95239 0.0
C2404 C 0.43775 0.64717 0.9652 0.0
H2405 H 0.39927 0.6487 0.94212 0.0
C2406 C 0.43379 0.65347 0.98129 0.0
C2407 C 0.42492 0.64468 0.95105 0.0
C2408 C 0.42802 0.63688 0.93368 0.0
C2409 C 0.41774 0.65852 0.98338 0.0
C2410 C 0.40527 0.65704 0.96901 0.0
C2411 C 0.40889 0.64985 0.9531 0.0
C2412 C 0.38936 0.66491 0.96994 0.0
C2413 C 0.41461 0.66645 1.00072 0.0
C2414 C 0.37702 0.65901 0.97993 0.0
C2415 C 0.36339 0.66824 0.98269 0.0
C2416 C 0.36199 0.68343 0.9755 0.0
C2417 C 0.37383 0.68877 0.96478 0.0
C2418 C 0.38737 0.67954 0.96196 0.0
H2419 H 0.42638 0.66878 0.00997 0.0
H2420 H 0.4094 0.67874 0.99974 0.0
H2421 H 0.40507 0.65781 0.00584 0.0
H2422 H 0.37826 0.64763 0.98604 0.0
H2423 H 0.35425 0.66389 0.99087 0.0
H2424 H 0.61937 0.49644 0.29082 0.0
H2425 H 0.60553 0.52231 0.29408 0.0
H2426 H 0.61004 0.52145 0.34849 0.0
H2427 H 0.62354 0.49543 0.34533 0.0
H2428 H 0.57882 0.52578 0.33641 0.0
H2429 H 0.62374 0.57101 0.30999 0.0
H2430 H 0.61613 0.5523 0.29529 0.0
H2431 H 0.62898 0.55046 0.31492 0.0
C2432 C 0.61766 0.50189 0.30351 0.0
C2433 C 0.62262 0.49381 0.3178 0.0
C2434 C 0.60982 0.51676 0.30537 0.0
C2435 C 0.60702 0.52404 0.32157 0.0
C2436 C 0.61207 0.51609 0.33585 0.0
H2437 H 0.55304 0.60816 0.35813 0.0
H2438 H 0.5708 0.58475 0.35611 0.0
C2439 C 0.61968 0.50111 0.33399 0.0
C2440 C 0.5976 0.53911 0.32354 0.0
H2441 H 0.59662 0.5799 0.31414 0.0
C2442 C 0.58283 0.53767 0.3317 0.0
C2443 C 0.60274 0.55459 0.31725 0.0
C2444 C 0.61886 0.55727 0.30903 0.0
C2445 C 0.57287 0.55109 0.33344 0.0
C2446 C 0.57795 0.56652 0.3271 0.0
C2447 C 0.59273 0.56803 0.31896 0.0
C2448 C 0.56785 0.58109 0.32851 0.0
C2449 C 0.5567 0.54841 0.3416 0.0
C2450 C 0.5607 0.58704 0.31372 0.0
C2451 C 0.55067 0.60035 0.31491 0.0
C2452 C 0.54769 0.60798 0.3309 0.0
C2453 C 0.55499 0.6022 0.34571 0.0
C2454 C 0.5651 0.58891 0.34453 0.0
H2455 H 0.5524 0.53467 0.34177 0.0
H2456 H 0.55902 0.55461 0.35498 0.0
H2457 H 0.54627 0.55418 0.33478 0.0
H2458 H 0.5627 0.58122 0.30124 0.0
H2459 H 0.54514 0.6047 0.30337 0.0
H2460 H 0.98517 0.14464 0.77735 0.0
H2461 H 0.97367 0.11471 0.76942 0.0
H2462 H 0.95077 0.11502 0.81608 0.0
H2463 H 0.96145 0.14518 0.82372 0.0
H2464 H 0.97503 0.08436 0.78352 0.0
H2465 H 0.9099 0.10388 0.77944 0.0
H2466 H 0.92879 0.11912 0.78202 0.0
H2467 H 0.92227 0.10938 0.79998 0.0
C2468 C 0.97773 0.13834 0.78597 0.0
C2469 C 0.97392 0.14744 0.80099 0.0
C2470 C 0.97132 0.12118 0.78149 0.0
C2471 C 0.96105 0.11277 0.79198 0.0
C2472 C 0.95839 0.12139 0.80765 0.0
H2473 H 0.91738 0.0051 0.76635 0.0
H2474 H 0.93454 0.03144 0.78075 0.0
C2475 C 0.96467 0.13861 0.81207 0.0
C2476 C 0.95186 0.09563 0.78568 0.0
H2477 H 0.91193 0.0747 0.77313 0.0
C2478 C 0.96123 0.08217 0.78135 0.0
C2479 C 0.93386 0.09292 0.78262 0.0
C2480 C 0.92308 0.1071 0.7861 0.0
C2481 C 0.95306 0.0661 0.77384 0.0
C2482 C 0.93506 0.06343 0.77087 0.0
C2483 C 0.92573 0.0768 0.77548 0.0
C2484 C 0.92552 0.04725 0.76204 0.0
C2485 C 0.96374 0.05234 0.76859 0.0
C2486 C 0.91466 0.04746 0.74693 0.0
C2487 C 0.90481 0.03256 0.73892 0.0
C2488 C 0.90561 0.01724 0.74593 0.0
C2489 C 0.91664 0.01689 0.76086 0.0
C2490 C 0.92647 0.03184 0.76896 0.0
H2491 H 0.97715 0.05762 0.768 0.0
H2492 H 0.96381 0.0431 0.77805 0.0
H2493 H 0.95841 0.04529 0.75595 0.0
H2494 H 0.91376 0.0592 0.74136 0.0
H2495 H 0.89654 0.03293 0.72725 0.0
H2496 H 0.42624 0.9004 0.24396 0.0
H2497 H 0.45201 0.92019 0.25473 0.0
H2498 H 0.476 0.87907 0.27414 0.0
H2499 H 0.45045 0.85921 0.26327 0.0
H2500 H 0.4693 0.92651 0.29041 0.0
H2501 H 0.50935 0.90111 0.24292 0.0
H2502 H 0.48636 0.89754 0.23957 0.0
H2503 H 0.498 0.8855 0.25358 0.0
C2504 C 0.43705 0.89558 0.25045 0.0
C2505 C 0.43635 0.87826 0.25275 0.0
C2506 C 0.45169 0.90689 0.25665 0.0
C2507 C 0.46589 0.901 0.26505 0.0
C2508 C 0.46519 0.88379 0.26753 0.0
H2509 H 0.56739 0.94263 0.31027 0.0
H2510 H 0.54079 0.9246 0.29828 0.0
C2511 C 0.45055 0.8725 0.26144 0.0
C2512 C 0.48151 0.91283 0.27132 0.0
H2513 H 0.52336 0.92109 0.26582 0.0
C2514 C 0.48111 0.92546 0.28499 0.0
C2515 C 0.49684 0.9113 0.2642 0.0
C2516 C 0.49774 0.89823 0.24916 0.0
C2517 C 0.49586 0.93636 0.29209 0.0
C2518 C 0.51125 0.93477 0.28503 0.0
C2519 C 0.51155 0.92226 0.2712 0.0
C2520 C 0.5273 0.9457 0.29201 0.0
C2521 C 0.49497 0.9491 0.30742 0.0
C2522 C 0.52856 0.96346 0.29218 0.0
C2523 C 0.54371 0.97367 0.29898 0.0
C2524 C 0.55783 0.96624 0.30546 0.0
C2525 C 0.55667 0.9485 0.30506 0.0
C2526 C 0.54152 0.93828 0.29833 0.0
H2527 H 0.4836 0.94573 0.31388 0.0
H2528 H 0.50654 0.95 0.3168 0.0
H2529 H 0.49411 0.96186 0.30325 0.0
H2530 H 0.51785 0.9694 0.28705 0.0
H2531 H 0.54448 0.98736 0.2992 0.0
H2532 H 0.9416 0.47011 0.618 0.0
H2533 H 0.93963 0.43889 0.61519 0.0
H2534 H 0.96441 0.44182 0.66661 0.0
H2535 H 0.96678 0.47286 0.6694 0.0
H2536 H 0.9781 0.42039 0.64107 0.0
H2537 H 0.90776 0.40639 0.63945 0.0
H2538 H 0.91584 0.42035 0.62508 0.0
H2539 H 0.9191 0.42713 0.64758 0.0
C2540 C 0.94666 0.46408 0.62868 0.0
C2541 C 0.95427 0.47396 0.64396 0.0
C2542 C 0.94541 0.44627 0.62709 0.0
C2543 C 0.95175 0.4381 0.64074 0.0
C2544 C 0.95937 0.44791 0.65595 0.0
H2545 H 0.9453 0.34916 0.68378 0.0
H2546 H 0.93941 0.37414 0.67083 0.0
C2547 C 0.96059 0.46565 0.65757 0.0
C2548 C 0.95087 0.41932 0.63937 0.0
H2549 H 0.9237 0.38333 0.64075 0.0
C2550 C 0.96621 0.41218 0.64065 0.0
C2551 C 0.93529 0.40876 0.63885 0.0
C2552 C 0.91851 0.41595 0.63774 0.0
C2553 C 0.96651 0.39487 0.64241 0.0
C2554 C 0.95097 0.3844 0.6426 0.0
C2555 C 0.93554 0.39137 0.64041 0.0
C2556 C 0.95084 0.36718 0.64802 0.0
C2557 C 0.98355 0.38827 0.64529 0.0
C2558 C 0.95816 0.3543 0.63899 0.0
C2559 C 0.96167 0.3398 0.64651 0.0
C2560 C 0.9582 0.33808 0.66317 0.0
C2561 C 0.94882 0.35001 0.67121 0.0
C2562 C 0.94532 0.36446 0.66373 0.0
H2563 H 0.99434 0.39868 0.64731 0.0
H2564 H 0.98418 0.38116 0.65655 0.0
H2565 H 0.98524 0.37938 0.63401 0.0
H2566 H 0.96204 0.35591 0.62658 0.0
H2567 H 0.96809 0.33038 0.63974 0.0
H2568 H 0.7079 0.41299 0.5233 0.0
H2569 H 0.7028 0.42581 0.4969 0.0
H2570 H 0.68665 0.376 0.46908 0.0
H2571 H 0.69155 0.3631 0.49549 0.0
H2572 H 0.71601 0.42148 0.4664 0.0
H2573 H 0.64629 0.40053 0.45616 0.0
H2574 H 0.65923 0.39911 0.47593 0.0
H2575 H 0.65941 0.3837 0.45767 0.0
C2576 C 0.70346 0.40474 0.51152 0.0
C2577 C 0.70001 0.38702 0.51149 0.0
C2578 C 0.70046 0.41208 0.49645 0.0
C2579 C 0.69397 0.40187 0.48106 0.0
C2580 C 0.69118 0.38413 0.48087 0.0
H2581 H 0.66712 0.43387 0.37992 0.0
H2582 H 0.67186 0.41624 0.40319 0.0
C2583 C 0.69407 0.37679 0.49594 0.0
C2584 C 0.69011 0.40987 0.46527 0.0
H2585 H 0.65776 0.41544 0.43514 0.0
C2586 C 0.70327 0.42014 0.45958 0.0
C2587 C 0.67351 0.40793 0.4562 0.0
C2588 C 0.65875 0.39734 0.46184 0.0
C2589 C 0.70025 0.42876 0.44528 0.0
C2590 C 0.68356 0.42736 0.43664 0.0
C2591 C 0.67051 0.4166 0.4419 0.0
C2592 C 0.67934 0.43774 0.42274 0.0
C2593 C 0.71498 0.43929 0.4395 0.0
C2594 C 0.6814 0.45558 0.42616 0.0
C2595 C 0.67869 0.46556 0.41298 0.0
C2596 C 0.67377 0.45788 0.39616 0.0
C2597 C 0.67089 0.44001 0.39283 0.0
C2598 C 0.67363 0.42999 0.40605 0.0
H2599 H 0.7274 0.43533 0.4443 0.0
H2600 H 0.71384 0.43826 0.42537 0.0
H2601 H 0.71501 0.45288 0.44452 0.0
H2602 H 0.68553 0.46181 0.43899 0.0
H2603 H 0.68119 0.47929 0.41577 0.0
H2604 H 0.7831 0.55571 0.14042 0.0
H2605 H 0.77421 0.52996 0.12029 0.0
H2606 H 0.72179 0.53913 0.11977 0.0
H2607 H 0.73062 0.56537 0.13919 0.0
H2608 H 0.75397 0.50179 0.12477 0.0
H2609 H 0.7251 0.5299 0.06948 0.0
H2610 H 0.7382 0.54267 0.08733 0.0
H2611 H 0.71617 0.53568 0.08872 0.0
C2612 C 0.76971 0.55248 0.13575 0.0
C2613 C 0.7576 0.5627 0.1414 0.0
C2614 C 0.76464 0.53766 0.12434 0.0
C2615 C 0.74736 0.53273 0.11832 0.0
C2616 C 0.73523 0.54286 0.12393 0.0
H2617 H 0.69116 0.4416 0.05881 0.0
H2618 H 0.69993 0.46862 0.0775 0.0
C2619 C 0.74029 0.55775 0.13525 0.0
C2620 C 0.74202 0.51656 0.10684 0.0
H2621 H 0.71997 0.49967 0.06827 0.0
C2622 C 0.74663 0.50135 0.11237 0.0
C2623 C 0.73242 0.516 0.09066 0.0
C2624 C 0.72782 0.53195 0.0836 0.0
C2625 C 0.74172 0.48559 0.10228 0.0
C2626 C 0.73201 0.48505 0.08622 0.0
C2627 C 0.72736 0.50019 0.08065 0.0
C2628 C 0.72672 0.46884 0.07494 0.0
C2629 C 0.74669 0.46958 0.10894 0.0
C2630 C 0.73888 0.46019 0.06725 0.0
C2631 C 0.73386 0.44493 0.05651 0.0
C2632 C 0.71664 0.43808 0.05335 0.0
C2633 C 0.70449 0.44675 0.06105 0.0
C2634 C 0.70948 0.46209 0.07169 0.0
H2635 H 0.75137 0.47178 0.12278 0.0
H2636 H 0.73571 0.45936 0.10669 0.0
H2637 H 0.757 0.46498 0.10203 0.0
H2638 H 0.75221 0.46534 0.06944 0.0
H2639 H 0.74336 0.43856 0.05045 0.0
H2640 H 0.33788 0.02664 0.50718 0.0
H2641 H 0.33386 0.02584 0.53707 0.0
H2642 H 0.296 0.0604 0.53245 0.0
H2643 H 0.30038 0.06178 0.50261 0.0
H2644 H 0.31891 0.06786 0.5629 0.0
H2645 H 0.29135 0.99984 0.55138 0.0
H2646 H 0.31189 0.00381 0.54428 0.0
H2647 H 0.29406 0.01264 0.53429 0.0
C2648 C 0.3289 0.03431 0.51256 0.0
C2649 C 0.31938 0.04421 0.50247 0.0
C2650 C 0.32649 0.03368 0.5296 0.0
C2651 C 0.31442 0.04282 0.53684 0.0
C2652 C 0.30528 0.05315 0.52702 0.0
H2653 H 0.27583 0.01789 0.62993 0.0
H2654 H 0.27793 0.02556 0.60132 0.0
C2655 C 0.30771 0.05382 0.50996 0.0
C2656 C 0.31106 0.0412 0.55453 0.0
H2657 H 0.29825 0.01203 0.58029 0.0
C2658 C 0.31428 0.0557 0.56673 0.0
C2659 C 0.30476 0.02536 0.55937 0.0
C2660 C 0.30014 0.00955 0.54662 0.0
C2661 C 0.31183 0.05467 0.58381 0.0
C2662 C 0.30625 0.03867 0.58879 0.0
C2663 C 0.30262 0.02428 0.57647 0.0
C2664 C 0.30442 0.0363 0.60672 0.0
C2665 C 0.31512 0.0707 0.59632 0.0
C2666 C 0.31854 0.04 0.61934 0.0
C2667 C 0.31728 0.03573 0.63575 0.0
C2668 C 0.30193 0.02763 0.63979 0.0
C2669 C 0.28773 0.02432 0.62727 0.0
C2670 C 0.28895 0.02865 0.6109 0.0
H2671 H 0.31416 0.08226 0.58979 0.0
H2672 H 0.30604 0.07053 0.60595 0.0
H2673 H 0.32822 0.07171 0.60306 0.0
H2674 H 0.33073 0.04549 0.61632 0.0
H2675 H 0.32849 0.03814 0.64508 0.0
H2676 H 0.23359 0.04698 0.86514 0.0
H2677 H 0.24158 0.05806 0.89511 0.0
H2678 H 0.19417 0.03357 0.9073 0.0
H2679 H 0.18625 0.02189 0.87727 0.0
H2680 H 0.22353 0.07961 0.91426 0.0
H2681 H 0.23026 0.01961 0.94281 0.0
H2682 H 0.22995 0.02074 0.92023 0.0
H2683 H 0.21049 0.02025 0.9297 0.0
C2684 C 0.22498 0.04363 0.87421 0.0
C2685 C 0.20932 0.03344 0.86882 0.0
C2686 C 0.22953 0.05009 0.89132 0.0
C2687 C 0.21855 0.04649 0.90343 0.0
C2688 C 0.20293 0.03627 0.89818 0.0
H2689 H 0.23323 0.10849 0.00313 0.0
H2690 H 0.21958 0.0918 0.97627 0.0
C2691 C 0.19836 0.02977 0.88101 0.0
C2692 C 0.22324 0.05427 0.92134 0.0
H2693 H 0.23417 0.04519 0.96177 0.0
C2694 C 0.22575 0.0721 0.92468 0.0
C2695 C 0.22623 0.04439 0.93483 0.0
C2696 C 0.22424 0.02518 0.93179 0.0
C2697 C 0.23145 0.08038 0.94112 0.0
C2698 C 0.2344 0.07052 0.95465 0.0
C2699 C 0.23171 0.05267 0.95137 0.0
C2700 C 0.24142 0.07865 0.972 0.0
C2701 C 0.23488 0.0996 0.94373 0.0
C2702 C 0.25786 0.07616 0.97881 0.0
C2703 C 0.26555 0.0856 0.9941 0.0
C2704 C 0.25687 0.09758 0.00277 0.0
C2705 C 0.24011 0.09939 0.99646 0.0
C2706 C 0.23238 0.08992 0.9812 0.0
H2707 H 0.23551 0.10498 0.93148 0.0
H2708 H 0.22447 0.10485 0.94999 0.0
H2709 H 0.24704 0.10397 0.9521 0.0
H2710 H 0.26502 0.0675 0.9719 0.0
H2711 H 0.27854 0.08415 0.99877 0.0
H2712 H 0.49085 0.68766 0.35732 0.0
H2713 H 0.46405 0.68564 0.36989 0.0
H2714 H 0.48956 0.71432 0.4165 0.0
H2715 H 0.51627 0.71698 0.40388 0.0
H2716 H 0.4573 0.66988 0.39694 0.0
H2717 H 0.44727 0.73756 0.40919 0.0
H2718 H 0.46244 0.73046 0.39555 0.0
H2719 H 0.46799 0.73401 0.41834 0.0
C2720 C 0.49068 0.6937 0.37019 0.0
C2721 C 0.50562 0.70253 0.37963 0.0
C2722 C 0.47539 0.69248 0.37731 0.0
C2723 C 0.47473 0.69987 0.39402 0.0
C2724 C 0.48962 0.70885 0.40342 0.0
H2725 H 0.41021 0.69794 0.47248 0.0
H2726 H 0.43279 0.70087 0.45398 0.0
C2727 C 0.50489 0.71031 0.39623 0.0
C2728 C 0.45881 0.69721 0.40202 0.0
H2729 H 0.43179 0.71815 0.42474 0.0
C2730 C 0.45158 0.68043 0.40283 0.0
C2731 C 0.4512 0.71097 0.40949 0.0
C2732 C 0.45752 0.72925 0.40794 0.0
C2733 C 0.43762 0.67706 0.41184 0.0
C2734 C 0.43062 0.69085 0.42009 0.0
C2735 C 0.43734 0.70761 0.4186 0.0
C2736 C 0.41703 0.68825 0.4312 0.0
C2737 C 0.43101 0.65882 0.41322 0.0
C2738 C 0.40072 0.68013 0.42453 0.0
C2739 C 0.38794 0.67825 0.43516 0.0
C2740 C 0.39125 0.68455 0.45256 0.0
C2741 C 0.40754 0.69263 0.4592 0.0
C2742 C 0.42033 0.69446 0.44861 0.0
H2743 H 0.43949 0.64973 0.40833 0.0
H2744 H 0.4296 0.65713 0.42668 0.0
H2745 H 0.41825 0.65555 0.4057 0.0
H2746 H 0.3978 0.67552 0.41108 0.0
H2747 H 0.37537 0.67215 0.42979 0.0
H2748 H 0.8756 0.1745 0.01754 0.0
H2749 H 0.90524 0.17922 0.03104 0.0
H2750 H 0.89212 0.2174 0.06856 0.0
H2751 H 0.86255 0.2124 0.05553 0.0
H2752 H 0.92647 0.20891 0.03419 0.0
H2753 H 0.92031 0.18998 0.0981 0.0
H2754 H 0.90367 0.18401 0.08041 0.0
H2755 H 0.90559 0.20465 0.09284 0.0
C2756 C 0.879 0.18364 0.02887 0.0
C2757 C 0.86677 0.19314 0.03544 0.0
C2758 C 0.89592 0.18635 0.03653 0.0
C2759 C 0.90082 0.19845 0.05096 0.0
C2760 C 0.88856 0.20771 0.05767 0.0
H2761 H 0.98601 0.26896 0.08715 0.0
H2762 H 0.96135 0.25082 0.07113 0.0
C2763 C 0.8717 0.20503 0.05005 0.0
C2764 C 0.91894 0.2027 0.05818 0.0
H2765 H 0.94479 0.21043 0.09605 0.0
C2766 C 0.93059 0.20888 0.04765 0.0
C2767 C 0.92442 0.20237 0.07566 0.0
C2768 C 0.91286 0.19471 0.08735 0.0
C2769 C 0.9472 0.21597 0.05439 0.0
C2770 C 0.95214 0.21716 0.07215 0.0
C2771 C 0.94092 0.20976 0.08246 0.0
C2772 C 0.96803 0.22759 0.08052 0.0
C2773 C 0.9591 0.2226 0.0425 0.0
C2774 C 0.97989 0.22061 0.09127 0.0
C2775 C 0.99401 0.23102 0.1004 0.0
C2776 C 0.99635 0.24852 0.09896 0.0
C2777 C 0.98461 0.25542 0.08809 0.0
C2778 C 0.97058 0.24506 0.07895 0.0
H2779 H 0.95599 0.21553 0.02948 0.0
H2780 H 0.95765 0.23618 0.04153 0.0
H2781 H 0.97258 0.22166 0.04719 0.0
H2782 H 0.97805 0.2072 0.0928 0.0
H2783 H 0.00293 0.22556 0.10883 0.0
H2784 H 0.11205 0.75679 0.56088 0.0
H2785 H 0.09217 0.74569 0.53527 0.0
H2786 H 0.12091 0.70341 0.52627 0.0
H2787 H 0.1408 0.7144 0.5516 0.0
H2788 H 0.09969 0.74036 0.50211 0.0
H2789 H 0.07242 0.67963 0.52163 0.0
H2790 H 0.08398 0.69676 0.53673 0.0
H2791 H 0.09526 0.68221 0.52464 0.0
C2792 C 0.11408 0.74509 0.55347 0.0
C2793 C 0.12795 0.73641 0.55837 0.0
C2794 C 0.10267 0.73873 0.5389 0.0
C2795 C 0.10487 0.72354 0.52907 0.0
C2796 C 0.11867 0.71488 0.53395 0.0
H2797 H 0.07761 0.66483 0.43337 0.0
H2798 H 0.08891 0.67907 0.46196 0.0
C2799 C 0.13005 0.72119 0.54845 0.0
C2800 C 0.09354 0.71722 0.51303 0.0
H2801 H 0.07011 0.68126 0.4914 0.0
C2802 C 0.09291 0.72757 0.49984 0.0
C2803 C 0.08464 0.70056 0.51016 0.0
C2804 C 0.08395 0.68922 0.52411 0.0
C2805 C 0.08454 0.72129 0.48351 0.0
C2806 C 0.07652 0.70431 0.48041 0.0
C2807 C 0.07639 0.69426 0.49382 0.0
C2808 C 0.06962 0.69617 0.46304 0.0
C2809 C 0.08513 0.7325 0.46944 0.0
C2810 C 0.05502 0.70108 0.45424 0.0
C2811 C 0.04861 0.69292 0.43792 0.0
C2812 C 0.05681 0.6799 0.43025 0.0
C2813 C 0.07134 0.67503 0.43907 0.0
C2814 C 0.07769 0.68308 0.45534 0.0
H2815 H 0.09368 0.74462 0.47344 0.0
H2816 H 0.08952 0.72568 0.4581 0.0
H2817 H 0.07213 0.73562 0.46556 0.0
H2818 H 0.04847 0.71097 0.46011 0.0
H2819 H 0.0371 0.69646 0.43141 0.0
H2820 H 0.50511 0.37042 0.01836 0.0
H2821 H 0.536 0.37176 0.01872 0.0
H2822 H 0.53679 0.33217 0.05157 0.0
H2823 H 0.50606 0.33122 0.05186 0.0
H2824 H 0.5637 0.35878 0.06087 0.0
H2825 H 0.55729 0.33455 0.99178 0.0
H2826 H 0.54775 0.35356 0.99706 0.0
H2827 H 0.53936 0.33385 0.0038 0.0
C2828 C 0.51189 0.36219 0.02589 0.0
C2829 C 0.50309 0.35058 0.03495 0.0
C2830 C 0.52951 0.36287 0.02595 0.0
C2831 C 0.53861 0.35187 0.03494 0.0
C2832 C 0.52997 0.3407 0.04446 0.0
H2833 H 0.63207 0.31099 0.04487 0.0
H2834 H 0.60557 0.32268 0.04968 0.0
C2835 C 0.51239 0.34005 0.04447 0.0
C2836 C 0.55697 0.35131 0.03389 0.0
H2837 H 0.5849 0.3397 0.00647 0.0
C2838 C 0.56839 0.35478 0.04896 0.0
C2839 C 0.56303 0.34613 0.01831 0.0
C2840 C 0.55125 0.34167 0.00181 0.0
C2841 C 0.58569 0.35281 0.04892 0.0
C2842 C 0.5916 0.34701 0.03346 0.0
C2843 C 0.58032 0.34422 0.0183 0.0
C2844 C 0.6089 0.34206 0.03283 0.0
C2845 C 0.59744 0.35674 0.06545 0.0
C2846 C 0.61961 0.34914 0.02187 0.0
C2847 C 0.63471 0.34243 0.01915 0.0
C2848 C 0.63919 0.32849 0.02723 0.0
C2849 C 0.62889 0.32191 0.03874 0.0
C2850 C 0.61383 0.32862 0.0415 0.0
H2851 H 0.59254 0.36602 0.07461 0.0
H2852 H 0.59833 0.34484 0.07138 0.0
H2853 H 0.61044 0.36195 0.0633 0.0
H2854 H 0.61596 0.35943 0.01497 0.0
H2855 H 0.6426 0.34765 0.01026 0.0
H2856 H 0.39395 0.52393 0.67135 0.0
H2857 H 0.40775 0.49827 0.67104 0.0
H2858 H 0.38941 0.48854 0.7185 0.0
H2859 H 0.37396 0.51333 0.71799 0.0
H2860 H 0.43243 0.492 0.69135 0.0
H2861 H 0.37901 0.44191 0.69502 0.0
H2862 H 0.37541 0.4635 0.6926 0.0
H2863 H 0.38276 0.45791 0.71316 0.0
C2864 C 0.39235 0.51614 0.68151 0.0
C2865 C 0.38259 0.52077 0.6946 0.0
C2866 C 0.40048 0.50149 0.68142 0.0
C2867 C 0.39951 0.49122 0.69463 0.0
C2868 C 0.39002 0.49589 0.70789 0.0
H2869 H 0.45433 0.40242 0.70853 0.0
H2870 H 0.43806 0.42664 0.71395 0.0
C2871 C 0.38145 0.51035 0.70775 0.0
C2872 C 0.40943 0.47641 0.69479 0.0
H2873 H 0.40669 0.43339 0.69626 0.0
C2874 C 0.42669 0.47919 0.69234 0.0
C2875 C 0.40217 0.45967 0.69656 0.0
C2876 C 0.3838 0.45553 0.69933 0.0
C2877 C 0.43666 0.46578 0.69094 0.0
C2878 C 0.42921 0.44904 0.69193 0.0
C2879 C 0.41226 0.44626 0.69529 0.0
C2880 C 0.43866 0.43424 0.68872 0.0
C2881 C 0.45513 0.46966 0.6884 0.0
C2882 C 0.44415 0.43042 0.67271 0.0
C2883 C 0.45338 0.4167 0.66966 0.0
C2884 C 0.45715 0.40651 0.68252 0.0
C2885 C 0.45154 0.4102 0.69848 0.0
C2886 C 0.44226 0.42393 0.70154 0.0
H2887 H 0.46005 0.48326 0.69266 0.0
H2888 H 0.46319 0.46156 0.69543 0.0
H2889 H 0.45641 0.46702 0.67463 0.0
H2890 H 0.4412 0.43802 0.66254 0.0
H2891 H 0.45737 0.41382 0.65719 0.0
H2892 H 0.02977 0.84437 0.21855 0.0
H2893 H 0.04528 0.87292 0.22589 0.0
H2894 H 0.014 0.8909 0.18557 0.0
H2895 H 0.99808 0.8623 0.17829 0.0
H2896 H 0.06306 0.89047 0.20139 0.0
H2897 H 0.01437 0.92668 0.22892 0.0
H2898 H 0.01314 0.90376 0.2278 0.0
H2899 H 0.00811 0.91342 0.20886 0.0
C2900 C 0.0259 0.85445 0.21146 0.0
C2901 C 0.01262 0.85109 0.19789 0.0
C2902 C 0.03487 0.87073 0.2156 0.0
C2903 C 0.03069 0.88399 0.20635 0.0
C2904 C 0.01726 0.88084 0.19298 0.0
H2905 H 0.08084 0.98944 0.22147 0.0
H2906 H 0.06149 0.96332 0.21027 0.0
C2907 C 0.00829 0.86449 0.18876 0.0
C2908 C 0.04122 0.90077 0.21013 0.0
H2909 H 0.04131 0.94184 0.22796 0.0
C2910 C 0.0583 0.90174 0.2071 0.0
C2911 C 0.03487 0.91543 0.21742 0.0
C2912 C 0.01665 0.91489 0.22107 0.0
C2913 C 0.06934 0.91695 0.21148 0.0
C2914 C 0.06321 0.93145 0.21942 0.0
C2915 C 0.04597 0.93066 0.22193 0.0
C2916 C 0.07474 0.94722 0.22601 0.0
C2917 C 0.08749 0.91734 0.20757 0.0
C2918 C 0.08834 0.94683 0.23873 0.0
C2919 C 0.09929 0.96163 0.24505 0.0
C2920 C 0.09681 0.97706 0.23875 0.0
C2921 C 0.08305 0.97755 0.22625 0.0
C2922 C 0.07204 0.96273 0.21994 0.0
H2923 H 0.08876 0.90718 0.19719 0.0
H2924 H 0.09224 0.92987 0.20382 0.0
H2925 H 0.09574 0.91519 0.21912 0.0
H2926 H 0.09036 0.93509 0.24393 0.0
H2927 H 0.1095 0.96115 0.25509 0.0
H2928 H 0.5718 0.11281 0.72639 0.0
H2929 H 0.54736 0.0914 0.71549 0.0
H2930 H 0.52255 0.10636 0.7593 0.0
H2931 H 0.54661 0.12806 0.77003 0.0
H2932 H 0.53304 0.06369 0.73081 0.0
H2933 H 0.48679 0.10959 0.71881 0.0
H2934 H 0.50951 0.11586 0.72238 0.0
H2935 H 0.49777 0.11283 0.74009 0.0
C2936 C 0.56107 0.11165 0.73362 0.0
C2937 C 0.56114 0.1222 0.74905 0.0
C2938 C 0.54718 0.09934 0.72743 0.0
C2939 C 0.53307 0.09746 0.73648 0.0
C2940 C 0.5332 0.10779 0.75198 0.0
H2941 H 0.45044 0.01547 0.72896 0.0
H2942 H 0.47638 0.0359 0.7374 0.0
C2943 C 0.54706 0.12006 0.75819 0.0
C2944 C 0.51819 0.08467 0.7298 0.0
H2945 H 0.47533 0.08047 0.71745 0.0
C2946 C 0.52043 0.06734 0.72779 0.0
C2947 C 0.50181 0.0895 0.72564 0.0
C2948 C 0.49879 0.10796 0.72667 0.0
C2949 C 0.5066 0.05467 0.72221 0.0
C2950 C 0.49013 0.05949 0.71877 0.0
C2951 C 0.48797 0.07683 0.7203 0.0
C2952 C 0.4749 0.04676 0.71358 0.0
C2953 C 0.5097 0.03623 0.7199 0.0
C2954 C 0.46543 0.04631 0.69755 0.0
C2955 C 0.45067 0.03479 0.69286 0.0
C2956 C 0.44512 0.02367 0.70417 0.0
C2957 C 0.45456 0.02407 0.72018 0.0
C2958 C 0.46937 0.03557 0.72488 0.0
H2959 H 0.50579 0.03004 0.73092 0.0
H2960 H 0.50205 0.02931 0.70816 0.0
H2961 H 0.52336 0.03493 0.71916 0.0
H2962 H 0.46946 0.05488 0.68869 0.0
H2963 H 0.44346 0.03459 0.68046 0.0
H2964 H 0.97987 0.50891 0.28642 0.0
H2965 H 0.98282 0.53805 0.27922 0.0
H2966 H 0.00963 0.55584 0.32923 0.0
H2967 H 0.00576 0.52699 0.33694 0.0
H2968 H 0.98894 0.57839 0.31847 0.0
H2969 H 0.02793 0.55849 0.26759 0.0
H2970 H 0.00658 0.54782 0.26501 0.0
H2971 H 0.02148 0.54456 0.2827 0.0
C2972 C 0.98601 0.51907 0.29606 0.0
C2973 C 0.99285 0.51553 0.31219 0.0
C2974 C 0.98788 0.5357 0.29182 0.0
C2975 C 0.99688 0.54903 0.30351 0.0
C2976 C 0.0028 0.54571 0.31993 0.0
H2977 H 0.06034 0.6508 0.31746 0.0
H2978 H 0.03531 0.62327 0.32182 0.0
C2979 C 1.00075 0.52916 0.32426 0.0
C2980 C 1.00123 0.56621 0.29847 0.0
H2981 H 0.02498 0.58743 0.27249 0.0
C2982 C 0.99668 0.58038 0.3083 0.0
C2983 C 0.01125 0.56879 0.28512 0.0
C2984 C 0.01724 0.55415 0.27457 0.0
C2985 C 0.00242 0.59706 0.30557 0.0
C2986 C 0.01302 0.59959 0.29273 0.0
C2987 C 0.01675 0.58547 0.28227 0.0
C2988 C 0.02229 0.61636 0.29123 0.0
C2989 C 0.99705 0.61173 0.31648 0.0
C2990 C 0.02437 0.62258 0.27053 0.0
C2991 C 0.04003 0.64008 0.26822 0.0
C2992 C 0.05073 0.65319 0.28676 0.0
C2993 C 0.0508 0.64525 0.30699 0.0
C2994 C 0.03528 0.62796 0.30958 0.0
H2995 H 0.98467 0.60806 0.32114 0.0
H2996 H 0.00669 0.61559 0.3278 0.0
H2997 H 0.99583 0.62276 0.30929 0.0
H2998 H 0.01732 0.61499 0.25932 0.0
H2999 H 0.04182 0.64349 0.25567 0.0
H3000 H 0.37897 0.69355 0.38138 0.0
H3001 H 0.40775 0.68931 0.37488 0.0
H3002 H 0.39039 0.6363 0.35733 0.0
H3003 H 0.36194 0.64041 0.36444 0.0
H3004 H 0.41974 0.63932 0.37667 0.0
H3005 H 0.42449 0.68487 0.32899 0.0
H3006 H 0.42072 0.69449 0.3495 0.0
H3007 H 0.4048 0.67872 0.33721 0.0
C3008 C 0.38134 0.68107 0.37602 0.0
C3009 C 0.36825 0.66734 0.37337 0.0
C3010 C 0.39774 0.67865 0.37222 0.0
C3011 C 0.40118 0.66254 0.36528 0.0
C3012 C 0.38807 0.64885 0.36264 0.0
H3013 H 0.48884 0.64073 0.31381 0.0
H3014 H 0.46079 0.64688 0.32117 0.0
C3015 C 0.37181 0.6512 0.3667 0.0
C3016 C 0.41845 0.65965 0.36103 0.0
H3017 H 0.44935 0.67234 0.33697 0.0
C3018 C 0.42626 0.64662 0.36806 0.0
C3019 C 0.42677 0.66886 0.34944 0.0
C3020 C 0.41871 0.6824 0.34071 0.0
C3021 C 0.44219 0.64263 0.36402 0.0
C3022 C 0.45082 0.65222 0.3529 0.0
C3023 C 0.44285 0.66505 0.34559 0.0
C3024 C 0.46799 0.64902 0.34848 0.0
C3025 C 0.44922 0.62775 0.37132 0.0
C3026 C 0.48153 0.64855 0.3613 0.0
C3027 C 0.49733 0.64461 0.35704 0.0
C3028 C 0.50009 0.64176 0.33992 0.0
C3029 C 0.48689 0.64297 0.32709 0.0
C3030 C 0.47094 0.64648 0.33132 0.0
H3031 H 0.4389 0.61855 0.37458 0.0
H3032 H 0.45652 0.62085 0.36228 0.0
H3033 H 0.45779 0.63251 0.38326 0.0
H3034 H 0.47987 0.65115 0.37462 0.0
H3035 H 0.50748 0.64386 0.36707 0.0
H3036 H 0.15478 0.32421 0.73357 0.0
H3037 H 0.1242 0.31744 0.72482 0.0
H3038 H 0.11592 0.31432 0.7771 0.0
H3039 H 0.14662 0.32109 0.786 0.0
H3040 H 0.10154 0.28911 0.72895 0.0
H3041 H 0.08454 0.34895 0.76244 0.0
H3042 H 0.10617 0.34613 0.75916 0.0
H3043 H 0.09641 0.33616 0.77544 0.0
C3044 C 0.14651 0.32188 0.74321 0.0
C3045 C 0.15315 0.32323 0.7605 0.0
C3046 C 0.12902 0.31808 0.73819 0.0
C3047 C 0.11777 0.3156 0.75033 0.0
C3048 C 0.12434 0.31653 0.76756 0.0
H3049 H 0.0059 0.30179 0.72882 0.0
H3050 H 0.03437 0.30184 0.74356 0.0
C3051 C 0.14188 0.32038 0.77262 0.0
C3052 C 0.09918 0.31231 0.74476 0.0
H3053 H 0.06215 0.33004 0.74656 0.0
C3054 C 0.09289 0.29798 0.73292 0.0
C3055 C 0.08791 0.32385 0.75004 0.0
C3056 C 0.09404 0.33972 0.76237 0.0
C3057 C 0.07573 0.29511 0.72586 0.0
C3058 C 0.06464 0.30702 0.73059 0.0
C3059 C 0.07072 0.32094 0.74299 0.0
C3060 C 0.0472 0.30624 0.72164 0.0
C3061 C 0.06965 0.2795 0.71318 0.0
C3062 C 0.04488 0.30806 0.7043 0.0
C3063 C 0.02864 0.30858 0.69598 0.0
C3064 C 0.01406 0.30885 0.70497 0.0
C3065 C 0.01661 0.30448 0.72191 0.0
C3066 C 0.03292 0.30407 0.73032 0.0
H3067 H 0.07793 0.26929 0.71483 0.0
H3068 H 0.05635 0.27441 0.71442 0.0
H3069 H 0.07005 0.28294 0.70008 0.0
H3070 H 0.05569 0.30917 0.69716 0.0
H3071 H 0.02747 0.30916 0.68239 0.0
H3072 H 0.72624 0.94239 0.63608 0.0
H3073 H 0.75506 0.94339 0.65072 0.0
H3074 H 0.74556 0.98428 0.68741 0.0
H3075 H 0.7169 0.98374 0.67253 0.0
H3076 H 0.77537 0.99115 0.67323 0.0
H3077 H 0.77184 0.92766 0.69621 0.0
H3078 H 0.76504 0.92702 0.67383 0.0
H3079 H 0.75312 0.93711 0.68912 0.0
C3080 C 0.73026 0.95156 0.6473 0.0
C3081 C 0.71928 0.96301 0.65312 0.0
C3082 C 0.74667 0.95198 0.65577 0.0
C3083 C 0.75237 0.96377 0.67027 0.0
C3084 C 0.74135 0.975 0.6763 0.0
H3085 H 0.84578 0.97391 0.73977 0.0
H3086 H 0.81616 0.9677 0.72603 0.0
C3087 C 0.72494 0.9746 0.66785 0.0
C3088 C 0.7702 0.96522 0.67843 0.0
H3089 H 0.79946 0.94327 0.69828 0.0
C3090 C 0.78062 0.9807 0.67876 0.0
C3091 C 0.77697 0.9516 0.68572 0.0
C3092 C 0.76614 0.93495 0.68638 0.0
C3093 C 0.7977 0.98288 0.68602 0.0
C3094 C 0.80462 0.96911 0.69287 0.0
C3095 C 0.79415 0.9537 0.69279 0.0
C3096 C 0.82256 0.9708 0.70072 0.0
C3097 C 0.80813 1.00001 0.68655 0.0
C3098 C 0.83593 0.97401 0.69093 0.0
C3099 C 0.85274 0.97754 0.69878 0.0
C3100 C 0.85635 0.97784 0.71646 0.0
C3101 C 0.84311 0.97374 0.7261 0.0
C3102 C 0.8263 0.97021 0.71828 0.0
H3103 H 0.79998 0.01022 0.68435 0.0
H3104 H 0.81619 0.00362 0.69902 0.0
H3105 H 0.81667 0.99934 0.67644 0.0
H3106 H 0.8333 0.97428 0.67732 0.0
H3107 H 0.86286 0.98073 0.69121 0.0
H3108 H 0.78328 0.99457 0.34702 0.0
H3109 H 0.75264 0.99373 0.34967 0.0
H3110 H 0.74549 0.0169 0.30332 0.0
H3111 H 0.77559 0.01814 0.30092 0.0
H3112 H 0.72404 0.01115 0.36125 0.0
H3113 H 0.70897 0.98646 0.27576 0.0
H3114 H 0.73068 0.99056 0.28652 0.0
H3115 H 0.72005 0.00763 0.27927 0.0
C3116 C 0.77507 0.99967 0.3376 0.0
C3117 C 0.78176 0.00649 0.3238 0.0
C3118 C 0.75761 0.99918 0.33911 0.0
C3119 C 0.74667 0.00491 0.32651 0.0
C3120 C 0.7535 0.01202 0.31302 0.0
H3121 H 0.61907 0.99988 0.29702 0.0
H3122 H 0.65026 0.0036 0.29895 0.0
C3123 C 0.77084 0.01296 0.31177 0.0
C3124 C 0.728 0.00284 0.32648 0.0
H3125 H 0.67633 0.99373 0.2895 0.0
C3126 C 0.71611 0.00708 0.34923 0.0
C3127 C 0.71122 0.99835 0.3015 0.0
C3128 C 0.71821 0.9955 0.28482 0.0
C3129 C 0.68885 0.00283 0.34896 0.0
C3130 C 0.67268 0.99635 0.32446 0.0
C3131 C 0.68435 0.9962 0.3016 0.0
C3132 C 0.65406 0.99416 0.32343 0.0
C3133 C 0.68138 0.00769 0.36496 0.0
C3134 C 0.64595 0.98761 0.33647 0.0
C3135 C 0.6282 0.98545 0.33531 0.0
C3136 C 0.61842 0.9898 0.32107 0.0
C3137 C 0.62652 0.99633 0.30801 0.0
C3138 C 0.64426 0.99841 0.30913 0.0
H3139 H 0.69172 0.01251 0.37545 0.0
H3140 H 0.67299 0.01767 0.36278 0.0
H3141 H 0.67342 0.99672 0.36858 0.0
H3142 H 0.6532 0.98375 0.34734 0.0
H3143 H 0.62206 0.98026 0.34542 0.0
H3144 H 0.37921 0.36284 0.63744 0.0
H3145 H 0.37334 0.39218 0.63697 0.0
H3146 H 0.35682 0.39248 0.68684 0.0
H3147 H 0.3619 0.36268 0.68698 0.0
H3148 H 0.3361 0.40698 0.66763 0.0
H3149 H 0.40085 0.43492 0.65922 0.0
H3150 H 0.39333 0.41723 0.6433 0.0
H3151 H 0.39655 0.41385 0.6654 0.0
C3152 C 0.37446 0.36919 0.64838 0.0
C3153 C 0.37134 0.36055 0.66242 0.0
C3154 C 0.37127 0.38605 0.64817 0.0
C3155 C 0.36527 0.39482 0.66215 0.0
C3156 C 0.36172 0.38609 0.67602 0.0
H3157 H 0.3606 0.50449 0.66124 0.0
H3158 H 0.36832 0.47723 0.6692 0.0
C3159 C 0.36458 0.36905 0.67608 0.0
C3160 C 0.36171 0.41272 0.66169 0.0
H3161 H 0.37817 0.45126 0.65162 0.0
C3162 C 0.3454 0.41671 0.66436 0.0
C3163 C 0.37393 0.42561 0.65785 0.0
C3164 C 0.39219 0.42274 0.6565 0.0
C3165 C 0.34068 0.43292 0.6624 0.0
C3166 C 0.3524 0.44531 0.65702 0.0
C3167 C 0.36902 0.44164 0.65529 0.0
C3168 C 0.34751 0.46191 0.65261 0.0
C3169 C 0.32318 0.43658 0.66614 0.0
C3170 C 0.33352 0.46243 0.64032 0.0
C3171 C 0.32913 0.47803 0.6359 0.0
C3172 C 0.33874 0.49331 0.64355 0.0
C3173 C 0.35286 0.49282 0.65556 0.0
C3174 C 0.35726 0.47725 0.66004 0.0
H3175 H 0.31837 0.42849 0.67553 0.0
H3176 H 0.32317 0.45015 0.67119 0.0
H3177 H 0.31417 0.43362 0.65423 0.0
H3178 H 0.32614 0.45077 0.63396 0.0
H3179 H 0.31831 0.47822 0.62643 0.0
H3180 H 0.25147 0.75493 0.04226 0.0
H3181 H 0.25716 0.72626 0.03219 0.0
H3182 H 0.29851 0.74724 0.00733 0.0
H3183 H 0.29247 0.77605 0.01654 0.0
H3184 H 0.28334 0.71481 0.00233 0.0
H3185 H 0.2689 0.70447 0.04541 0.0
H3186 H 0.2874 0.7202 0.04814 0.0
H3187 H 0.28961 0.69843 0.0509 0.0
C3188 C 0.26193 0.7535 0.03482 0.0
C3189 C 0.2716 0.76787 0.03034 0.0
C3190 C 0.26537 0.73706 0.02936 0.0
C3191 C 0.27886 0.73465 0.01978 0.0
C3192 C 0.28848 0.74891 0.01527 0.0
H3193 H 0.32556 0.64242 0.98498 0.0
H3194 H 0.31979 0.67174 0.99359 0.0
C3195 C 0.28504 0.76536 0.02062 0.0
C3196 C 0.28239 0.71574 0.01196 0.0
H3197 H 0.28829 0.67715 0.02719 0.0
C3198 C 0.28498 0.70998 0.99291 0.0
C3199 C 0.28379 0.70285 0.02453 0.0
C3200 C 0.28245 0.70681 0.04328 0.0
C3201 C 0.28838 0.69328 0.98882 0.0
C3202 C 0.28966 0.68189 1.00129 0.0
C3203 C 0.28719 0.68655 0.01837 0.0
C3204 C 0.29338 0.66435 0.99652 0.0
C3205 C 0.2902 0.68762 0.97046 0.0
C3206 C 0.2805 0.65064 0.99556 0.0
C3207 C 0.28379 0.63406 0.99066 0.0
C3208 C 0.30001 0.63096 0.98678 0.0
C3209 C 0.31299 0.64464 0.98797 0.0
C3210 C 0.30969 0.66128 0.99281 0.0
H3211 H 0.28675 0.69725 0.96201 0.0
H3212 H 0.30355 0.68539 0.96933 0.0
H3213 H 0.28197 0.67541 0.96591 0.0
H3214 H 0.26787 0.65282 0.99844 0.0
H3215 H 0.27372 0.62359 0.98997 0.0
H3216 H 0.78395 0.15679 0.34302 0.0
H3217 H 0.77445 0.12637 0.3361 0.0
H3218 H 0.74897 0.13514 0.28775 0.0
H3219 H 0.75865 0.16571 0.29448 0.0
H3220 H 0.72831 0.11645 0.30648 0.0
H3221 H 0.78893 0.08904 0.3033 0.0
H3222 H 0.78924 0.10348 0.32237 0.0
H3223 H 0.78727 0.11133 0.30197 0.0
C3224 C 0.77671 0.15225 0.33072 0.0
C3225 C 0.7721 0.16372 0.3193 0.0
C3226 C 0.7713 0.13481 0.32677 0.0
C3227 C 0.76124 0.12844 0.31129 0.0
C3228 C 0.75683 0.13979 0.29972 0.0
H3229 H 0.70159 0.02675 0.29241 0.0
H3230 H 0.71631 0.053 0.28562 0.0
C3231 C 0.76227 0.15725 0.30364 0.0
C3232 C 0.75402 0.11022 0.30809 0.0
H3233 H 0.76488 0.06994 0.30857 0.0
C3234 C 0.73626 0.10622 0.30654 0.0
C3235 C 0.76444 0.09693 0.30814 0.0
C3236 C 0.78352 0.10039 0.30886 0.0
C3237 C 0.72869 0.08939 0.30625 0.0
C3238 C 0.73917 0.07618 0.30718 0.0
C3239 C 0.75688 0.08008 0.30783 0.0
C3240 C 0.7322 0.05876 0.30981 0.0
C3241 C 0.70963 0.08603 0.30606 0.0
C3242 C 0.73641 0.05309 0.32553 0.0
C3243 C 0.72837 0.03778 0.32934 0.0
C3244 C 0.71656 0.02657 0.31713 0.0
C3245 C 0.71204 0.03321 0.3015 0.0
C3246 C 0.72012 0.04862 0.29771 0.0
H3247 H 0.70375 0.09799 0.30822 0.0
H3248 H 0.70386 0.07918 0.29348 0.0
H3249 H 0.70639 0.07788 0.31599 0.0
H3250 H 0.74523 0.06106 0.33534 0.0
H3251 H 0.73112 0.03498 0.34223 0.0
H3252 H 0.67483 0.7138 0.9916 0.0
H3253 H 0.68703 0.74361 0.99313 0.0
H3254 H 0.64116 0.75486 0.96482 0.0
H3255 H 0.62899 0.72499 0.96278 0.0
H3256 H 0.69063 0.76496 0.96417 0.0
H3257 H 0.64903 0.78777 0.01152 0.0
H3258 H 0.653 0.7658 0.00813 0.0
H3259 H 0.63884 0.77404 0.99283 0.0
C3260 C 0.66742 0.72252 0.98545 0.0
C3261 C 0.65087 0.71698 0.97715 0.0
C3262 C 0.67439 0.73957 0.98642 0.0
C3263 C 0.66491 0.75141 0.97923 0.0
C3264 C 0.64857 0.74591 0.97062 0.0
H3265 H 0.684 0.86239 0.98979 0.0
H3266 H 0.67144 0.83264 0.98122 0.0
C3267 C 0.64162 0.72886 0.96956 0.0
C3268 C 0.67195 0.76961 0.98116 0.0
H3269 H 0.66792 0.80849 0.00206 0.0
C3270 C 0.68568 0.77453 0.97241 0.0
C3271 C 0.66535 0.78199 0.99183 0.0
C3272 C 0.65081 0.77723 0.00174 0.0
C3273 C 0.69299 0.79162 0.97403 0.0
C3274 C 0.68665 0.80398 0.98504 0.0
C3275 C 0.67275 0.79903 0.99359 0.0
C3276 C 0.69464 0.82198 0.98853 0.0
C3277 C 0.70725 0.79627 0.96375 0.0
C3278 C 0.71185 0.82587 0.99535 0.0
C3279 C 0.71902 0.8428 1.0 0.0
C3280 C 0.70906 0.85613 0.99817 0.0
C3281 C 0.69194 0.85229 0.99109 0.0
C3282 C 0.68478 0.83535 0.98633 0.0
H3283 H 0.70679 0.78693 0.95219 0.0
H3284 H 0.70676 0.80917 0.95977 0.0
H3285 H 0.71964 0.7962 0.97163 0.0
H3286 H 0.71962 0.8158 0.99756 0.0
H3287 H 0.73225 0.84553 0.0054 0.0
H3288 H 0.68671 0.34261 0.36867 0.0
H3289 H 0.68296 0.33524 0.39701 0.0
H3290 H 0.66302 0.38269 0.40932 0.0
H3291 H 0.66507 0.38946 0.38056 0.0
H3292 H 0.69535 0.34859 0.42811 0.0
H3293 H 0.62565 0.3506 0.42121 0.0
H3294 H 0.63783 0.35208 0.40353 0.0
H3295 H 0.63723 0.37058 0.41864 0.0
C3296 C 0.68115 0.35137 0.37718 0.0
C3297 C 0.67594 0.36655 0.37195 0.0
C3298 C 0.67925 0.34721 0.39355 0.0
C3299 C 0.67225 0.35817 0.40519 0.0
C3300 C 0.66791 0.37374 0.4004 0.0
H3301 H 0.64644 0.35469 0.5078 0.0
H3302 H 0.65277 0.3626 0.48008 0.0
C3303 C 0.66946 0.37775 0.38393 0.0
C3304 C 0.66932 0.35317 0.42222 0.0
H3305 H 0.63881 0.34783 0.44882 0.0
C3306 C 0.68296 0.34836 0.43261 0.0
C3307 C 0.65312 0.35271 0.42807 0.0
C3308 C 0.63759 0.3566 0.41721 0.0
C3309 C 0.68097 0.34346 0.44878 0.0
C3310 C 0.66485 0.34338 0.45476 0.0
C3311 C 0.6512 0.34805 0.44432 0.0
C3312 C 0.66177 0.33869 0.47183 0.0
C3313 C 0.69626 0.33872 0.45934 0.0
C3314 C 0.66459 0.32259 0.47642 0.0
C3315 C 0.66095 0.31809 0.49227 0.0
C3316 C 0.65433 0.32956 0.50375 0.0
C3317 C 0.65142 0.34559 0.49911 0.0
C3318 C 0.6551 0.35012 0.48332 0.0
H3319 H 0.70834 0.34482 0.4557 0.0
H3320 H 0.69602 0.3424 0.47314 0.0
H3321 H 0.69628 0.32471 0.4571 0.0
H3322 H 0.66928 0.31337 0.46761 0.0
H3323 H 0.6629 0.30551 0.49542 0.0
H3324 H 0.96717 0.26982 0.75233 0.0
H3325 H 0.96723 0.27727 0.72347 0.0
H3326 H 0.97377 0.33058 0.74294 0.0
H3327 H 0.97523 0.32331 0.7721 0.0
H3328 H 0.9666 0.29803 0.70291 0.0
H3329 H 0.01575 0.34623 0.72785 0.0
H3330 H 0.00484 0.33199 0.74062 0.0
H3331 H 0.99472 0.34927 0.73307 0.0
C3332 C 0.96875 0.28317 0.75053 0.0
C3333 C 0.9719 0.29596 0.76461 0.0
C3334 C 0.96851 0.28741 0.73398 0.0
C3335 C 0.9713 0.30448 0.73113 0.0
C3336 C 0.97259 0.31732 0.74494 0.0
H3337 H 0.00427 0.34831 0.62497 0.0
H3338 H 0.00242 0.34462 0.65493 0.0
C3339 C 0.97306 0.31312 0.7616 0.0
C3340 C 0.97516 0.30846 0.71356 0.0
H3341 H 0.01736 0.34132 0.68922 0.0
C3342 C 0.96343 0.29299 0.69019 0.0
C3343 C 0.99553 0.32847 0.71382 0.0
C3344 C 0.00326 0.3396 0.72984 0.0
C3345 C 0.97412 0.29679 0.66657 0.0
C3346 C 0.9965 0.31453 0.66725 0.0
C3347 C 0.00688 0.33153 0.6896 0.0
C3348 C 0.00248 0.3173 0.65097 0.0
C3349 C 0.96603 0.28682 0.65021 0.0
C3350 C 0.00407 0.30328 0.63925 0.0
C3351 C 0.0058 0.30546 0.62235 0.0
C3352 C 0.00529 0.32158 0.61686 0.0
C3353 C 0.0049 0.33579 0.62893 0.0
C3354 C 0.00383 0.33368 0.64601 0.0
H3355 H 0.95308 0.28092 0.65169 0.0
H3356 H 0.96554 0.29529 0.64004 0.0
H3357 H 0.9739 0.27665 0.64659 0.0
H3358 H 0.00328 0.29057 0.643 0.0
H3359 H 0.00657 0.29442 0.61334 0.0
H3360 H 0.33307 0.80294 0.14063 0.0
H3361 H 0.33182 0.7971 0.10964 0.0
H3362 H 0.31098 0.74509 0.11151 0.0
H3363 H 0.3127 0.75058 0.14247 0.0
H3364 H 0.34952 0.77154 0.0934 0.0
H3365 H 0.28021 0.76086 0.07184 0.0
H3366 H 0.28909 0.77218 0.09242 0.0
H3367 H 0.28643 0.74927 0.08916 0.0
C3368 C 0.32817 0.79026 0.13447 0.0
C3369 C 0.32309 0.7772 0.14413 0.0
C3370 C 0.32734 0.787 0.11674 0.0
C3371 C 0.32115 0.77073 0.10829 0.0
C3372 C 0.31549 0.75784 0.11777 0.0
H3373 H 0.32409 0.70242 0.02206 0.0
H3374 H 0.31954 0.71962 0.04831 0.0
C3375 C 0.31646 0.76102 0.1355 0.0
C3376 C 0.32215 0.7666 0.08985 0.0
H3377 H 0.29832 0.74925 0.0525 0.0
C3378 C 0.33831 0.76698 0.08433 0.0
C3379 C 0.3075 0.76077 0.07807 0.0
C3380 C 0.28981 0.76088 0.08311 0.0
C3381 C 0.34027 0.76049 0.06761 0.0
C3382 C 0.32567 0.75367 0.05614 0.0
C3383 C 0.30947 0.75431 0.06136 0.0
C3384 C 0.32713 0.74378 0.0396 0.0
C3385 C 0.35795 0.75998 0.06258 0.0
C3386 C 0.33283 0.75172 0.02601 0.0
C3387 C 0.33552 0.74186 0.01104 0.0
C3388 C 0.33256 0.724 0.00957 0.0
C3389 C 0.32637 0.71618 0.02298 0.0
C3390 C 0.32372 0.72597 0.03788 0.0
H3391 H 0.36801 0.76467 0.07341 0.0
H3392 H 0.35966 0.74674 0.05764 0.0
H3393 H 0.35968 0.76801 0.05221 0.0
H3394 H 0.33552 0.76547 0.02713 0.0
H3395 H 0.34049 0.74809 1.00088 0.0
H3396 H 0.9977 0.65452 0.71199 0.0
H3397 H 0.9966 0.66889 0.74057 0.0
H3398 H 0.94802 0.63976 0.74245 0.0
H3399 H 0.94876 0.62563 0.71361 0.0
H3400 H 0.94959 0.67483 0.75455 0.0
H3401 H 0.00401 0.64589 0.7842 0.0
H3402 H 0.0086 0.65659 0.7662 0.0
H3403 H 0.99311 0.63794 0.76324 0.0
C3404 C 0.98667 0.65131 0.71837 0.0
C3405 C 0.97335 0.63887 0.71053 0.0
C3406 C 0.98615 0.6594 0.73478 0.0
C3407 C 0.97236 0.65517 0.74371 0.0
C3408 C 0.95884 0.6431 0.7358 0.0
H3409 H 0.97539 0.68183 0.85331 0.0
H3410 H 0.97091 0.66648 0.82433 0.0
C3411 C 0.95934 0.63497 0.71938 0.0
C3412 C 0.97216 0.66326 0.76137 0.0
H3413 H 0.99414 0.66827 0.80129 0.0
C3414 C 0.95926 0.67334 0.76481 0.0
C3415 C 0.98465 0.66106 0.77476 0.0
C3416 C 0.9983 0.64966 0.77201 0.0
C3417 C 0.95879 0.6817 0.78123 0.0
C3418 C 0.97169 0.68006 0.79446 0.0
C3419 C 0.98432 0.6696 0.7911 0.0
C3420 C 0.97262 0.68932 0.81183 0.0
C3421 C 0.94444 0.6921 0.78431 0.0
C3422 C 0.97493 0.70722 0.81439 0.0
C3423 C 0.97735 0.71592 0.8309 0.0
C3424 C 0.97761 0.70688 0.84507 0.0
C3425 C 0.97496 0.68901 0.84252 0.0
C3426 C 0.97253 0.68029 0.82602 0.0
H3427 H 0.93327 0.68822 0.77444 0.0
H3428 H 0.94033 0.69084 0.79705 0.0
H3429 H 0.94887 0.70573 0.78381 0.0
H3430 H 0.9754 0.71444 0.80366 0.0
H3431 H 0.97942 0.72971 0.83266 0.0
H3432 H 0.62932 0.32236 0.64978 0.0
H3433 H 0.60028 0.32681 0.65455 0.0
H3434 H 0.60182 0.36728 0.62275 0.0
H3435 H 0.63082 0.36292 0.61784 0.0
H3436 H 0.59105 0.35717 0.66973 0.0
H3437 H 0.55617 0.33944 0.60482 0.0
H3438 H 0.57786 0.3353 0.61012 0.0
H3439 H 0.57343 0.35622 0.60615 0.0
C3440 C 0.62347 0.33211 0.64366 0.0
C3441 C 0.63246 0.34222 0.63336 0.0
C3442 C 0.60683 0.3346 0.64637 0.0
C3443 C 0.59882 0.34725 0.63886 0.0
C3444 C 0.60761 0.3572 0.62837 0.0
H3445 H 0.50108 0.38505 0.64489 0.0
H3446 H 0.5287 0.37833 0.63725 0.0
C3447 C 0.62422 0.35466 0.62558 0.0
C3448 C 0.58181 0.35089 0.64308 0.0
H3449 H 0.54089 0.35227 0.62584 0.0
C3450 C 0.58002 0.35598 0.66017 0.0
C3451 C 0.5676 0.34983 0.63051 0.0
C3452 C 0.56879 0.34476 0.61188 0.0
C3453 C 0.56447 0.3602 0.66507 0.0
C3454 C 0.54999 0.35842 0.65261 0.0
C3455 C 0.55186 0.35348 0.63546 0.0
C3456 C 0.53294 0.36205 0.65701 0.0
C3457 C 0.56404 0.36726 0.68342 0.0
C3458 C 0.52582 0.35488 0.6704 0.0
C3459 C 0.51041 0.35939 0.67526 0.0
C3460 C 0.50141 0.37052 0.66632 0.0
C3461 C 0.50798 0.37681 0.65226 0.0
C3462 C 0.52367 0.37279 0.64778 0.0
H3463 H 0.57683 0.37331 0.68951 0.0
H3464 H 0.55501 0.37688 0.68453 0.0
H3465 H 0.56008 0.35669 0.69069 0.0
H3466 H 0.53229 0.346 0.6773 0.0
H3467 H 0.50566 0.35439 0.68617 0.0
H3468 H 0.85871 0.66075 0.25945 0.0
H3469 H 0.88929 0.66839 0.2678 0.0
H3470 H 0.88548 0.7192 0.25503 0.0
H3471 H 0.8547 0.71158 0.2465 0.0
H3472 H 0.91259 0.70186 0.24121 0.0
H3473 H 0.91313 0.70075 0.31077 0.0
H3474 H 0.90092 0.68239 0.29819 0.0
H3475 H 0.8942 0.7031 0.29688 0.0
C3476 C 0.86436 0.67354 0.25837 0.0
C3477 C 0.85431 0.68555 0.25228 0.0
C3478 C 0.88181 0.67794 0.2633 0.0
C3479 C 0.88959 0.69441 0.26224 0.0
C3480 C 0.87966 0.70646 0.25608 0.0
H3481 H 0.99857 0.70965 0.3035 0.0
H3482 H 0.96999 0.71789 0.29646 0.0
C3483 C 0.86211 0.70211 0.25127 0.0
C3484 C 0.90823 0.69856 0.26695 0.0
H3485 H 0.93957 0.6973 0.29953 0.0
C3486 C 0.91852 0.70127 0.25404 0.0
C3487 C 0.91595 0.69807 0.28374 0.0
C3488 C 0.90549 0.69609 0.29825 0.0
C3489 C 0.93633 0.70212 0.25723 0.0
C3490 C 0.94393 0.70008 0.27369 0.0
C3491 C 0.93372 0.69877 0.28689 0.0
C3492 C 0.96184 0.69662 0.27682 0.0
C3493 C 0.94681 0.70449 0.24279 0.0
C3494 C 0.96662 0.6819 0.26828 0.0
C3495 C 0.98271 0.67712 0.27236 0.0
C3496 C 0.99482 0.68716 0.28498 0.0
C3497 C 0.98988 0.70196 0.29342 0.0
C3498 C 0.97357 0.70665 0.28945 0.0
H3499 H 0.9403 0.71144 0.23313 0.0
H3500 H 0.95957 0.71158 0.2475 0.0
H3501 H 0.94859 0.69181 0.23637 0.0
H3502 H 0.95759 0.67364 0.25891 0.0
H3503 H 0.9853 0.66526 0.26588 0.0
H3504 H 0.274 0.0535 0.34931 0.0
H3505 H 0.2461 0.05126 0.33242 0.0
H3506 H 0.25885 0.00903 0.29942 0.0
H3507 H 0.28654 0.01073 0.31664 0.0
H3508 H 0.23581 0.05268 0.29787 0.0
H3509 H 0.21544 0.98927 0.3171 0.0
H3510 H 0.23428 0.00275 0.32744 0.0
H3511 H 0.23463 0.99045 0.30714 0.0
C3512 C 0.27086 0.0437 0.33848 0.0
C3513 C 0.2824 0.03214 0.33446 0.0
C3514 C 0.25497 0.04254 0.32877 0.0
C3515 C 0.25033 0.0298 0.31487 0.0
C3516 C 0.2621 0.01876 0.31029 0.0
H3517 H 0.15798 0.01979 0.24215 0.0
H3518 H 0.18767 0.02562 0.25572 0.0
C3519 C 0.27799 0.01987 0.32004 0.0
C3520 C 0.23286 0.0276 0.30573 0.0
H3521 H 0.19633 0.99976 0.29717 0.0
C3522 C 0.22716 0.04111 0.29766 0.0
C3523 C 0.22156 0.01257 0.30572 0.0
C3524 C 0.22668 0.99798 0.31493 0.0
C3525 C 0.21043 0.03997 0.28951 0.0
C3526 C 0.19925 0.02482 0.28927 0.0
C3527 C 0.20497 0.01133 0.29733 0.0
C3528 C 0.18138 0.02272 0.28113 0.0
C3529 C 0.20474 0.05512 0.28165 0.0
C3530 C 0.16808 0.01907 0.29087 0.0
C3531 C 0.15128 0.01555 0.2831 0.0
C3532 C 0.14753 0.01563 0.26549 0.0
C3533 C 0.16073 0.0197 0.25577 0.0
C3534 C 0.17758 0.02315 0.26353 0.0
H3535 H 0.21331 0.06703 0.28661 0.0
H3536 H 0.20487 0.05289 0.26765 0.0
H3537 H 0.19156 0.05698 0.28411 0.0
H3538 H 0.17075 0.01859 0.30445 0.0
H3539 H 0.14124 0.01223 0.29072 0.0
H3540 H 0.23628 0.03369 0.71245 0.0
H3541 H 0.26405 0.03436 0.7018 0.0
H3542 H 0.26261 0.98025 0.70351 0.0
H3543 H 0.23488 0.97948 0.71405 0.0
H3544 H 0.29349 0.99682 0.71755 0.0
H3545 H 0.26498 0.00907 0.65375 0.0
H3546 H 0.27202 0.03144 0.65942 0.0
H3547 H 0.2573 0.02047 0.67118 0.0
C3548 C 0.24188 0.02193 0.71048 0.0
C3549 C 0.23328 0.00647 0.71381 0.0
C3550 C 0.25767 0.02232 0.70431 0.0
C3551 C 0.26511 0.00727 0.70126 0.0
C3552 C 0.25687 0.99194 0.70519 0.0
H3553 H 0.37838 0.97677 0.69922 0.0
H3554 H 0.34748 0.9775 0.69686 0.0
C3555 C 0.241 0.99149 0.7112 0.0
C3556 C 0.28162 0.00764 0.69439 0.0
H3557 H 0.33075 0.01518 0.66213 0.0
C3558 C 0.29739 1.00107 0.70595 0.0
C3559 C 0.28356 0.01475 0.67613 0.0
C3560 C 0.26867 0.01934 0.66455 0.0
C3561 C 0.31785 0.99993 0.70415 0.0
C3562 C 0.33005 0.00467 0.68935 0.0
C3563 C 0.32315 0.01211 0.6722 0.0
C3564 C 0.34871 0.0038 0.69166 0.0
C3565 C 0.32694 0.99402 0.71963 0.0
C3566 C 0.3598 0.01806 0.68919 0.0
C3567 C 0.37731 0.01749 0.69026 0.0
C3568 C 0.38417 0.00265 0.69385 0.0
C3569 C 0.37325 0.98833 0.6964 0.0
C3570 C 0.35561 0.98886 0.69523 0.0
H3571 H 0.32001 0.99588 0.73092 0.0
H3572 H 0.3279 0.9802 0.71692 0.0
H3573 H 0.33993 1.00099 0.72303 0.0
H3574 H 0.35493 0.02971 0.68631 0.0
H3575 H 0.38555 0.02861 0.68811 0.0
H3576 H 0.63641 0.6322 0.31248 0.0
H3577 H 0.64054 0.60249 0.31491 0.0
H3578 H 0.64035 0.61198 0.36932 0.0
H3579 H 0.63571 0.64142 0.36687 0.0
H3580 H 0.66576 0.58923 0.33121 0.0
H3581 H 0.60685 0.56981 0.35849 0.0
H3582 H 0.61039 0.58985 0.35003 0.0
H3583 H 0.61914 0.58778 0.37146 0.0
C3584 C 0.6371 0.6279 0.32491 0.0
C3585 C 0.63533 0.63911 0.33939 0.0
C3586 C 0.63945 0.61091 0.3263 0.0
C3587 C 0.64027 0.60482 0.34225 0.0
C3588 C 0.63911 0.61615 0.35679 0.0
H3589 H 0.66929 0.5191 0.38875 0.0
H3590 H 0.66095 0.54614 0.38088 0.0
C3591 C 0.63654 0.63305 0.35537 0.0
C3592 C 0.64324 0.58692 0.34391 0.0
H3593 H 0.62906 0.55169 0.36172 0.0
C3594 C 0.65761 0.58094 0.33768 0.0
C3595 C 0.63253 0.57603 0.35225 0.0
C3596 C 0.61628 0.58115 0.35826 0.0
C3597 C 0.66203 0.56474 0.34032 0.0
C3598 C 0.65173 0.5542 0.3493 0.0
C3599 C 0.63704 0.5599 0.35499 0.0
C3600 C 0.65653 0.53764 0.35381 0.0
C3601 C 0.67804 0.55927 0.33407 0.0
C3602 C 0.65679 0.52389 0.3412 0.0
C3603 C 0.66117 0.50828 0.34574 0.0
C3604 C 0.66548 0.50622 0.36294 0.0
C3605 C 0.66551 0.52014 0.37547 0.0
C3606 C 0.66089 0.53562 0.37097 0.0
H3607 H 0.6861 0.57 0.32997 0.0
H3608 H 0.68567 0.55382 0.34419 0.0
H3609 H 0.67454 0.54921 0.32302 0.0
H3610 H 0.65328 0.52513 0.32789 0.0
H3611 H 0.66096 0.49775 0.33586 0.0
H3612 H 0.7454 0.24578 0.97401 0.0
H3613 H 0.74436 0.27646 0.98021 0.0
H3614 H 0.70769 0.2669 0.01511 0.0
H3615 H 0.70818 0.23631 0.00861 0.0
H3616 H 0.71653 0.29619 0.97757 0.0
H3617 H 0.74689 0.29981 0.04417 0.0
H3618 H 0.74738 0.28174 0.02839 0.0
H3619 H 0.7287 0.28387 0.03888 0.0
C3620 C 0.73685 0.25017 0.98276 0.0
C3621 C 0.72701 0.23853 0.99096 0.0
C3622 C 0.73641 0.26773 0.9864 0.0
C3623 C 0.72625 0.27397 0.9984 0.0
C3624 C 0.71592 0.2624 0.00609 0.0
H3625 H 0.68669 0.36742 0.0246 0.0
H3626 H 0.69234 0.33804 0.0165 0.0
C3627 C 0.71623 0.24488 0.00237 0.0
C3628 C 0.72639 0.29256 0.00299 0.0
H3629 H 0.73322 0.32388 0.03692 0.0
C3630 C 0.72031 0.30225 0.99048 0.0
C3631 C 0.7318 0.3006 0.01979 0.0
C3632 C 0.73923 0.29102 0.03356 0.0
C3633 C 0.71853 0.31952 0.99454 0.0
C3634 C 0.72274 0.32717 0.01157 0.0
C3635 C 0.72975 0.31782 0.02391 0.0
C3636 C 0.71947 0.34477 0.0168 0.0
C3637 C 0.71237 0.32964 0.98066 0.0
C3638 C 0.73288 0.35812 0.01974 0.0
C3639 C 0.72963 0.37484 0.02417 0.0
C3640 C 0.71296 0.37839 0.02585 0.0
C3641 C 0.6996 0.36495 0.02319 0.0
C3642 C 0.70282 0.34824 0.01867 0.0
H3643 H 0.70996 0.32189 0.96794 0.0
H3644 H 0.70048 0.33479 0.98356 0.0
H3645 H 0.72203 0.34071 0.98017 0.0
H3646 H 0.74579 0.35562 0.01834 0.0
H3647 H 0.74007 0.38507 0.026 0.0
H3648 H 0.28097 0.83303 0.66505 0.0
H3649 H 0.29184 0.86336 0.67015 0.0
H3650 H 0.24075 0.87589 0.6724 0.0
H3651 H 0.22982 0.84559 0.66789 0.0
H3652 H 0.28365 0.88792 0.64979 0.0
H3653 H 0.26691 0.90441 0.7149 0.0
H3654 H 0.26704 0.88267 0.70559 0.0
H3655 H 0.24923 0.89393 0.70009 0.0
C3656 C 0.27207 0.84222 0.66697 0.0
C3657 C 0.25452 0.83688 0.66613 0.0
C3658 C 0.2783 0.85955 0.66977 0.0
C3659 C 0.26714 0.87186 0.67189 0.0
C3660 C 0.24963 0.86659 0.67114 0.0
H3661 H 0.27013 0.97967 0.67373 0.0
H3662 H 0.26314 0.94924 0.67427 0.0
C3663 C 0.24338 0.84927 0.66835 0.0
C3664 C 0.27366 0.89023 0.67389 0.0
H3665 H 0.27474 0.92773 0.69967 0.0
C3666 C 0.2819 0.89661 0.66078 0.0
C3667 C 0.27133 0.90151 0.68826 0.0
C3668 C 0.26329 0.89528 0.70309 0.0
C3669 C 0.28735 0.91407 0.66136 0.0
C3670 C 0.28471 0.92538 0.67557 0.0
C3671 C 0.27675 0.91898 0.68882 0.0
C3672 C 0.28929 0.94401 0.67647 0.0
C3673 C 0.29532 0.92037 0.64651 0.0
C3674 C 0.30629 0.95117 0.67728 0.0
C3675 C 0.31031 0.96875 0.67743 0.0
C3676 C 0.29754 0.9797 0.6778 0.0
C3677 C 0.28047 0.97212 0.67577 0.0
C3678 C 0.27641 0.9546 0.67563 0.0
H3679 H 0.29326 0.91058 0.63514 0.0
H3680 H 0.29007 0.93203 0.64297 0.0
H3681 H 0.30925 0.92365 0.65019 0.0
H3682 H 0.31641 0.94313 0.67738 0.0
H3683 H 0.32331 0.97352 0.67654 0.0
H3684 H 0.36719 0.27754 0.04356 0.0
H3685 H 0.35429 0.24873 0.04585 0.0
H3686 H 0.30439 0.26347 0.03311 0.0
H3687 H 0.31722 0.29207 0.02984 0.0
H3688 H 0.33175 0.23633 0.06608 0.0
H3689 H 0.30399 0.2225 0.99818 0.0
H3690 H 0.31923 0.24092 0.0061 0.0
H3691 H 0.29717 0.24102 0.00912 0.0
C3692 C 0.35348 0.27462 0.04101 0.0
C3693 C 0.34327 0.2871 0.03625 0.0
C3694 C 0.34612 0.25818 0.04251 0.0
C3695 C 0.3284 0.25385 0.03934 0.0
C3696 C 0.31812 0.26642 0.03523 0.0
H3697 H 0.26187 0.15934 0.03619 0.0
H3698 H 0.27389 0.18949 0.03999 0.0
C3699 C 0.32547 0.28284 0.03359 0.0
C3700 C 0.32078 0.23612 0.04005 0.0
H3701 H 0.29625 0.20197 0.01624 0.0
C3702 C 0.324 0.2288 0.05519 0.0
C3703 C 0.31078 0.22627 0.02577 0.0
C3704 C 0.30771 0.233 0.00882 0.0
C3705 C 0.31729 0.21197 0.05647 0.0
C3706 C 0.30718 0.20226 0.04225 0.0
C3707 C 0.30391 0.20956 0.02716 0.0
C3708 C 0.3001 0.18431 0.04247 0.0
C3709 C 0.3209 0.20471 0.07302 0.0
C3710 C 0.31088 0.1715 0.04291 0.0
C3711 C 0.30401 0.15433 0.04064 0.0
C3712 C 0.2863 0.1498 0.03789 0.0
C3713 C 0.27556 0.16264 0.03826 0.0
C3714 C 0.2824 0.17978 0.04043 0.0
H3715 H 0.32603 0.21479 0.08372 0.0
H3716 H 0.30915 0.19759 0.0763 0.0
H3717 H 0.33043 0.19564 0.07162 0.0
H3718 H 0.32457 0.17475 0.04419 0.0
H3719 H 0.31247 0.14458 0.04014 0.0
H3720 H 0.35569 0.63914 0.63233 0.0
H3721 H 0.35934 0.64691 0.60417 0.0
H3722 H 0.31453 0.67277 0.60413 0.0
H3723 H 0.31019 0.66422 0.63211 0.0
H3724 H 0.31556 0.65383 0.57359 0.0
H3725 H 0.37747 0.69352 0.5938 0.0
H3726 H 0.37778 0.67244 0.59965 0.0
H3727 H 0.36382 0.68622 0.60885 0.0
C3728 C 0.34641 0.64626 0.62632 0.0
C3729 C 0.33256 0.65097 0.63458 0.0
C3730 C 0.3487 0.65095 0.61028 0.0
C3731 C 0.33745 0.66077 0.60221 0.0
C3732 C 0.32348 0.66534 0.61023 0.0
H3733 H 0.36047 0.70602 0.51065 0.0
H3734 H 0.35288 0.70194 0.5392 0.0
C3735 C 0.32108 0.66053 0.62629 0.0
C3736 C 0.34025 0.66591 0.58527 0.0
H3737 H 0.37055 0.68465 0.56374 0.0
C3738 C 0.32752 0.66068 0.57145 0.0
C3739 C 0.35572 0.67521 0.58255 0.0
C3740 C 0.36939 0.68233 0.59704 0.0
C3741 C 0.33025 0.66362 0.55481 0.0
C3742 C 0.34612 0.67196 0.55199 0.0
C3743 C 0.3585 0.67798 0.56592 0.0
C3744 C 0.35026 0.6744 0.53467 0.0
C3745 C 0.31618 0.65773 0.54037 0.0
C3746 C 0.35153 0.66028 0.52282 0.0
C3747 C 0.3559 0.66264 0.50662 0.0
C3748 C 0.35907 0.67911 0.50207 0.0
C3749 C 0.35795 0.69322 0.51396 0.0
C3750 C 0.35364 0.69089 0.53018 0.0
H3751 H 0.30362 0.65517 0.54505 0.0
H3752 H 0.31538 0.66733 0.53129 0.0
H3753 H 0.31896 0.64575 0.53333 0.0
H3754 H 0.34924 0.64747 0.52614 0.0
H3755 H 0.35659 0.65163 0.49753 0.0
H3756 H 0.983 0.67342 0.21152 0.0
H3757 H 0.99451 0.66411 0.23819 0.0
H3758 H 0.02619 0.71239 0.25123 0.0
H3759 H 0.01449 0.72181 0.22505 0.0
H3760 H 0.01044 0.64699 0.25498 0.0
H3761 H 0.04025 0.72522 0.2779 0.0
H3762 H 0.03088 0.72794 0.29749 0.0
H3763 H 0.01737 0.72376 0.27713 0.0
C3764 C 0.99238 0.68204 0.22019 0.0
C3765 C 0.99753 0.6985 0.21638 0.0
C3766 C 0.99898 0.67674 0.23551 0.0
C3767 C 0.01075 0.68782 0.24733 0.0
C3768 C 0.0164 0.70393 0.2431 0.0
H3769 H 0.06554 0.6779 0.36675 0.0
H3770 H 0.05969 0.68062 0.33647 0.0
C3771 C 0.0098 0.70927 0.22789 0.0
C3772 C 0.01696 0.68261 0.26401 0.0
H3773 H 0.03735 0.70281 0.32147 0.0
C3774 C 0.01508 0.65574 0.26638 0.0
C3775 C 0.02845 0.70234 0.2854 0.0
C3776 C 0.02922 0.72098 0.28443 0.0
C3777 C 0.02433 0.64547 0.29104 0.0
C3778 C 0.03232 0.66703 0.31441 0.0
C3779 C 0.03409 0.69337 0.31037 0.0
C3780 C 0.03575 0.66418 0.33255 0.0
C3781 C 0.05039 0.62288 0.28666 0.0
C3782 C 0.02406 0.65435 0.34059 0.0
C3783 C 0.02681 0.6538 0.35816 0.0
C3784 C 0.04169 0.66237 0.36794 0.0
C3785 C 0.05372 0.67156 0.35972 0.0
C3786 C 0.05049 0.67293 0.34234 0.0
H3787 H 0.05393 0.61377 0.29601 0.0
H3788 H 0.06392 0.62856 0.28603 0.0
H3789 H 0.05004 0.61314 0.27509 0.0
H3790 H 0.01245 0.64758 0.33371 0.0
H3791 H 0.01708 0.64697 0.36415 0.0
H3792 H 0.69341 0.22598 0.86075 0.0
H3793 H 0.69782 0.2335 0.89181 0.0
H3794 H 0.64914 0.25271 0.88969 0.0
H3795 H 0.64453 0.24487 0.85886 0.0
H3796 H 0.70086 0.26313 0.91042 0.0
H3797 H 0.64518 0.22434 0.92768 0.0
H3798 H 0.6519 0.22132 0.90674 0.0
H3799 H 0.63843 0.23744 0.91195 0.0
C3800 C 0.68362 0.23171 0.86696 0.0
C3801 C 0.66855 0.2347 0.85739 0.0
C3802 C 0.68612 0.23594 0.88471 0.0
C3803 C 0.67364 0.2433 0.89319 0.0
C3804 C 0.6587 0.24648 0.88358 0.0
H3805 H 0.67452 0.31475 0.97798 0.0
H3806 H 0.67979 0.29806 0.95186 0.0
C3807 C 0.65611 0.24209 0.86591 0.0
C3808 C 0.67659 0.24878 0.9119 0.0
H3809 H 0.65682 0.24919 0.94789 0.0
C3810 C 0.69135 0.25985 0.91867 0.0
C3811 C 0.66452 0.24409 0.92289 0.0
C3812 C 0.64924 0.23098 0.91696 0.0
C3813 C 0.69368 0.26736 0.93573 0.0
C3814 C 0.68074 0.26405 0.94619 0.0
C3815 C 0.66663 0.25199 0.93981 0.0
C3816 C 0.68045 0.27442 0.96286 0.0
C3817 C 0.71 0.27866 0.94252 0.0
C3818 C 0.67897 0.26673 0.9778 0.0
C3819 C 0.6758 0.27633 0.99276 0.0
C3820 C 0.67394 0.2937 0.99293 0.0
C3821 C 0.67605 0.30143 0.97817 0.0
C3822 C 0.67919 0.29191 0.96329 0.0
H3823 H 0.71977 0.27779 0.93362 0.0
H3824 H 0.70754 0.29213 0.94465 0.0
H3825 H 0.71521 0.27491 0.95487 0.0
H3826 H 0.67967 0.2532 0.97771 0.0
H3827 H 0.67398 0.27005 0.00394 0.0
H3828 H 0.99453 0.36657 0.26109 0.0
H3829 H 1.00096 0.35104 0.23476 0.0
H3830 H 0.03375 0.32235 0.26392 0.0
H3831 H 0.02784 0.33817 0.2904 0.0
H3832 H 0.03868 0.34773 0.22651 0.0
H3833 H 0.99589 0.28778 0.22862 0.0
H3834 H 0.99162 0.30808 0.23875 0.0
H3835 H 0.00889 0.298 0.24781 0.0
C3836 C 0.00322 0.35707 0.26195 0.0
C3837 C 0.01071 0.35366 0.27788 0.0
C3838 C 0.00681 0.34817 0.2469 0.0
C3839 C 0.01779 0.33561 0.24749 0.0
C3840 C 0.02516 0.33198 0.26329 0.0
H3841 H 0.03546 0.26484 0.16086 0.0
H3842 H 0.03712 0.2795 0.19002 0.0
C3843 C 0.02167 0.34094 0.27838 0.0
C3844 C 0.02162 0.32644 0.23148 0.0
H3845 H 0.0105 0.28945 0.20466 0.0
C3846 C 0.03266 0.33493 0.22174 0.0
C3847 C 0.01384 0.30974 0.22549 0.0
C3848 C 0.00184 0.30026 0.2356 0.0
C3849 C 0.03593 0.32719 0.20591 0.0
C3850 C 0.02756 0.31072 0.19953 0.0
C3851 C 0.01691 0.30206 0.20956 0.0
C3852 C 0.02869 0.30267 0.18204 0.0
C3853 C 0.04834 0.33671 0.19623 0.0
C3854 C 0.02358 0.31087 0.16793 0.0
C3855 C 0.0228 0.30258 0.1514 0.0
C3856 C 0.02692 0.28589 0.14873 0.0
C3857 C 0.0324 0.27779 0.16276 0.0
C3858 C 0.03328 0.28612 0.17932 0.0
H3859 H 0.05773 0.34594 0.20499 0.0
H3860 H 0.05533 0.32786 0.18868 0.0
H3861 H 0.04126 0.34403 0.18737 0.0
H3862 H 0.01948 0.32341 0.16969 0.0
H3863 H 0.01816 0.30883 0.14072 0.0
loop_
_geom_bond_atom_site_label_1
_geom_bond_atom_site_label_2
_geom_bond_distance
_geom_bond_site_symmetry_2
_ccdc_geom_bond_type
C0 C1 1.264 . S
C0 C5 1.479 . S
C0 C10 1.465 . S
C1 C0 1.264 . S
C1 C3 1.339 . S
C1 H28 0.931 . S
C2 C3 1.395 . S
C2 C4 1.320 . S
C3 C1 1.339 . S
C3 C2 1.395 . S
C3 H29 0.929 . S
C4 C2 1.320 . S
C4 C5 1.405 . S
C4 H30 0.930 . S
C5 C0 1.479 . S
C5 C4 1.405 . S
C5 H31 0.931 . S
U6 O7 2.454 . S
U6 O8 2.458 . S
U6 C9 2.984 . S
U6 C10 2.847 . S
U6 C23 2.882 . S
U6 O24 2.441 . S
U6 O25 2.420 . S
U6 O26 2.455 . S
U6 O27 2.449 . S
O7 U6 2.454 . S
O7 C9 1.353 . S
O8 U6 2.458 . S
O8 C9 1.286 . S
C9 U6 2.984 . S
C9 O7 1.353 . S
C9 O8 1.286 . S
C9 C11 1.363 . S
C10 C0 1.465 . S
C10 U6 2.847 . S
C10 O24 1.249 . S
C10 O25 1.202 . S
C11 C9 1.363 . S
C11 C13 1.408 . S
C11 C16 1.342 . S
C12 C13 1.310 . S
C12 C15 1.461 . S
C12 H32 0.932 . S
C13 C11 1.408 . S
C13 C12 1.310 . S
C13 H33 0.930 . S
C14 C15 1.474 . S
C14 C16 1.285 . S
C14 H34 0.929 . S
C15 C12 1.461 . S
C15 C14 1.474 . S
C16 C11 1.342 . S
C16 C14 1.285 . S
C16 H35 0.930 . S
C17 C20 1.424 . S
C17 C22 1.245 . S
C17 C23 1.428 . S
C18 C21 1.260 . S
C18 C22 1.477 . S
C18 H36 0.932 . S
C19 C20 1.384 . S
C19 C21 1.479 . S
C19 H37 0.929 . S
C20 C17 1.424 . S
C20 C19 1.384 . S
C20 H38 0.928 . S
C21 C18 1.260 . S
C21 C19 1.479 . S
C22 C17 1.245 . S
C22 C18 1.477 . S
C22 H39 0.932 . S
C23 U6 2.882 . S
C23 C17 1.428 . S
C23 O26 1.301 . S
C23 O27 1.282 . S
O24 U6 2.441 . S
O24 C10 1.249 . S
O25 U6 2.420 . S
O25 C10 1.202 . S
O26 U6 2.455 . S
O26 C23 1.301 . S
O27 U6 2.449 . S
O27 C23 1.282 . S
H28 C1 0.931 . S
H29 C3 0.929 . S
H30 C4 0.930 . S
H31 C5 0.931 . S
H32 C12 0.932 . S
H33 C13 0.930 . S
H34 C14 0.929 . S
H35 C16 0.930 . S
H36 C18 0.932 . S
H37 C19 0.929 . S
H38 C20 0.928 . S
H39 C22 0.932 . S
C40 C41 1.264 . S
C40 C45 1.479 . S
C40 C50 1.465 . S
C41 C40 1.264 . S
C41 C43 1.339 . S
C41 H68 0.931 . S
C42 C43 1.395 . S
C42 C44 1.320 . S
C43 C41 1.339 . S
C43 C42 1.395 . S
C43 H69 0.929 . S
C44 C42 1.320 . S
C44 C45 1.405 . S
C44 H70 0.930 . S
C45 C40 1.479 . S
C45 C44 1.405 . S
C45 H71 0.931 . S
U46 O47 2.454 . S
U46 O48 2.458 . S
U46 C49 2.984 . S
U46 C50 2.847 . S
U46 C63 2.882 . S
U46 O64 2.441 . S
U46 O65 2.420 . S
U46 O66 2.455 . S
U46 O67 2.449 . S
O47 U46 2.454 . S
O47 C49 1.353 . S
O48 U46 2.458 . S
O48 C49 1.286 . S
C49 U46 2.984 . S
C49 O47 1.353 . S
C49 O48 1.286 . S
C49 C51 1.363 . S
C50 C40 1.465 . S
C50 U46 2.847 . S
C50 O64 1.249 . S
C50 O65 1.202 . S
C51 C49 1.363 . S
C51 C53 1.408 . S
C51 C56 1.342 . S
C52 C53 1.310 . S
C52 C55 1.461 . S
C52 H72 0.932 . S
C53 C51 1.408 . S
C53 C52 1.310 . S
C53 H73 0.930 . S
C54 C55 1.474 . S
C54 C56 1.285 . S
C54 H74 0.929 . S
C55 C52 1.461 . S
C55 C54 1.474 . S
C56 C51 1.342 . S
C56 C54 1.285 . S
C56 H75 0.930 . S
C57 C60 1.424 . S
C57 C62 1.245 . S
C57 C63 1.428 . S
C58 C61 1.260 . S
C58 C62 1.477 . S
C58 H76 0.932 . S
C59 C60 1.384 . S
C59 C61 1.479 . S
C59 H77 0.929 . S
C60 C57 1.424 . S
C60 C59 1.384 . S
C60 H78 0.928 . S
C61 C58 1.260 . S
C61 C59 1.479 . S
C62 C57 1.245 . S
C62 C58 1.477 . S
C62 H79 0.932 . S
C63 U46 2.882 . S
C63 C57 1.428 . S
C63 O66 1.301 . S
C63 O67 1.282 . S
O64 U46 2.441 . S
O64 C50 1.249 . S
O65 U46 2.420 . S
O65 C50 1.202 . S
O66 U46 2.455 . S
O66 C63 1.301 . S
O67 U46 2.449 . S
O67 C63 1.282 . S
H68 C41 0.931 . S
H69 C43 0.929 . S
H70 C44 0.930 . S
H71 C45 0.931 . S
H72 C52 0.932 . S
H73 C53 0.930 . S
H74 C54 0.929 . S
H75 C56 0.930 . S
H76 C58 0.932 . S
H77 C59 0.929 . S
H78 C60 0.928 . S
H79 C62 0.932 . S
C80 C81 1.264 . S
C80 C85 1.479 . S
C80 C90 1.465 . S
C81 C80 1.264 . S
C81 C83 1.339 . S
C81 H108 0.931 . S
C82 C83 1.395 . S
C82 C84 1.320 . S
C83 C81 1.339 . S
C83 C82 1.395 . S
C83 H109 0.929 . S
C84 C82 1.320 . S
C84 C85 1.405 . S
C84 H110 0.926 1_565 S
C85 C80 1.479 . S
C85 C84 1.405 . S
C85 H111 0.931 . S
U86 O87 2.454 . S
U86 O88 2.458 . S
U86 C89 2.984 . S
U86 C90 2.847 . S
U86 C103 2.882 . S
U86 O104 2.441 . S
U86 O105 2.420 . S
U86 O106 2.455 . S
U86 O107 2.449 . S
O87 U86 2.454 . S
O87 C89 1.353 . S
O88 U86 2.458 . S
O88 C89 1.286 . S
C89 U86 2.984 . S
C89 O87 1.353 . S
C89 O88 1.286 . S
C89 C91 1.363 . S
C90 C80 1.465 . S
C90 U86 2.847 . S
C90 O104 1.249 . S
C90 O105 1.202 . S
C91 C89 1.363 . S
C91 C93 1.408 . S
C91 C96 1.342 . S
C92 C93 1.310 . S
C92 C95 1.461 . S
C92 H112 0.930 . S
C93 C91 1.408 . S
C93 C92 1.310 . S
C93 H113 0.930 . S
C94 C95 1.473 1_545 S
C94 C96 1.284 1_545 S
C94 H114 0.932 . S
C95 C92 1.461 . S
C95 C94 1.473 1_565 S
C96 C91 1.342 . S
C96 C94 1.284 1_565 S
C96 H115 0.935 . S
C97 C100 1.424 . S
C97 C102 1.245 . S
C97 C103 1.428 . S
C98 C101 1.260 . S
C98 C102 1.477 . S
C98 H116 0.932 . S
C99 C100 1.384 . S
C99 C101 1.479 . S
C99 H117 0.929 . S
C100 C97 1.424 . S
C100 C99 1.384 . S
C100 H118 0.928 . S
C101 C98 1.260 . S
C101 C99 1.479 . S
C102 C97 1.245 . S
C102 C98 1.477 . S
C102 H119 0.932 . S
C103 U86 2.882 . S
C103 C97 1.428 . S
C103 O106 1.301 . S
C103 O107 1.282 . S
O104 U86 2.441 . S
O104 C90 1.249 . S
O105 U86 2.420 . S
O105 C90 1.202 . S
O106 U86 2.455 . S
O106 C103 1.301 . S
O107 U86 2.449 . S
O107 C103 1.282 . S
H108 C81 0.931 . S
H109 C83 0.929 . S
H110 C84 0.926 1_545 S
H111 C85 0.931 . S
H112 C92 0.930 . S
H113 C93 0.930 . S
H114 C94 0.932 . S
H115 C96 0.935 . S
H116 C98 0.932 . S
H117 C99 0.929 . S
H118 C100 0.928 . S
H119 C102 0.932 . S
C120 C121 1.264 . S
C120 C125 1.479 . S
C120 C130 1.465 . S
C121 C120 1.264 . S
C121 C123 1.339 . S
C121 H148 0.931 . S
C122 C123 1.395 . S
C122 C124 1.320 . S
C123 C121 1.339 . S
C123 C122 1.395 . S
C123 H149 0.929 . S
C124 C122 1.320 . S
C124 C125 1.405 . S
C124 H150 0.930 . S
C125 C120 1.479 . S
C125 C124 1.405 . S
C125 H151 0.931 . S
U126 O127 2.454 . S
U126 O128 2.458 . S
U126 C129 2.984 . S
U126 C130 2.847 . S
U126 C143 2.882 1_545 S
U126 O144 2.441 . S
U126 O145 2.420 . S
U126 O146 2.455 . S
U126 O147 2.449 . S
O127 U126 2.454 . S
O127 C129 1.353 . S
O128 U126 2.458 . S
O128 C129 1.286 . S
C129 U126 2.984 . S
C129 O127 1.353 . S
C129 O128 1.286 . S
C129 C131 1.363 . S
C130 C120 1.465 . S
C130 U126 2.847 . S
C130 O144 1.249 . S
C130 O145 1.202 . S
C131 C129 1.363 . S
C131 C133 1.408 . S
C131 C136 1.342 . S
C132 C133 1.310 . S
C132 C135 1.461 . S
C132 H152 0.932 . S
C133 C131 1.408 . S
C133 C132 1.310 . S
C133 H153 0.930 . S
C134 C135 1.474 . S
C134 C136 1.285 . S
C134 H154 0.929 . S
C135 C132 1.461 . S
C135 C134 1.474 . S
C136 C131 1.342 . S
C136 C134 1.285 . S
C136 H155 0.930 . S
C137 C140 1.424 . S
C137 C142 1.245 . S
C137 C143 1.428 . S
C138 C141 1.260 . S
C138 C142 1.477 . S
C138 H156 0.932 . S
C139 C140 1.384 . S
C139 C141 1.479 . S
C139 H157 0.929 . S
C140 C137 1.424 . S
C140 C139 1.384 . S
C140 H158 0.928 . S
C141 C138 1.260 . S
C141 C139 1.479 . S
C142 C137 1.245 . S
C142 C138 1.477 . S
C142 H159 0.932 . S
C143 U126 2.882 1_565 S
C143 C137 1.428 . S
C143 O146 1.301 1_565 S
C143 O147 1.282 1_565 S
O144 U126 2.441 . S
O144 C130 1.249 . S
O145 U126 2.420 . S
O145 C130 1.202 . S
O146 U126 2.455 . S
O146 C143 1.301 1_545 S
O147 U126 2.449 . S
O147 C143 1.282 1_545 S
H148 C121 0.931 . S
H149 C123 0.929 . S
H150 C124 0.930 . S
H151 C125 0.931 . S
H152 C132 0.932 . S
H153 C133 0.930 . S
H154 C134 0.929 . S
H155 C136 0.930 . S
H156 C138 0.932 . S
H157 C139 0.929 . S
H158 C140 0.928 . S
H159 C142 0.932 . S
C160 C161 1.264 . S
C160 C165 1.479 . S
C160 C170 1.465 . S
C161 C160 1.264 . S
C161 C163 1.339 . S
C161 H188 0.931 . S
C162 C163 1.395 . S
C162 C164 1.320 . S
C163 C161 1.339 . S
C163 C162 1.395 . S
C163 H189 0.929 . S
C164 C162 1.320 . S
C164 C165 1.405 . S
C164 H190 0.930 . S
C165 C160 1.479 . S
C165 C164 1.405 . S
C165 H191 0.931 . S
U166 O167 2.454 . S
U166 O168 2.458 . S
U166 C169 2.984 . S
U166 C170 2.847 . S
U166 C183 2.882 . S
U166 O184 2.441 . S
U166 O185 2.420 . S
U166 O186 2.455 . S
U166 O187 2.449 . S
O167 U166 2.454 . S
O167 C169 1.353 . S
O168 U166 2.458 . S
O168 C169 1.286 . S
C169 U166 2.984 . S
C169 O167 1.353 . S
C169 O168 1.286 . S
C169 C171 1.363 . S
C170 C160 1.465 . S
C170 U166 2.847 . S
C170 O184 1.249 . S
C170 O185 1.202 . S
C171 C169 1.363 . S
C171 C173 1.408 . S
C171 C176 1.342 . S
C172 C173 1.310 . S
C172 C175 1.461 . S
C172 H192 0.932 . S
C173 C171 1.408 . S
C173 C172 1.310 . S
C173 H193 0.930 . S
C174 C175 1.474 . S
C174 C176 1.285 . S
C174 H194 0.929 . S
C175 C172 1.461 . S
C175 C174 1.474 . S
C176 C171 1.342 . S
C176 C174 1.285 . S
C176 H195 0.930 . S
C177 C180 1.424 . S
C177 C182 1.245 . S
C177 C183 1.428 . S
C178 C181 1.260 . S
C178 C182 1.477 . S
C178 H196 0.932 . S
C179 C180 1.384 . S
C179 C181 1.479 . S
C179 H197 0.929 . S
C180 C177 1.424 . S
C180 C179 1.384 . S
C180 H198 0.928 . S
C181 C178 1.260 . S
C181 C179 1.479 . S
C182 C177 1.245 . S
C182 C178 1.477 . S
C182 H199 0.932 . S
C183 U166 2.882 . S
C183 C177 1.428 . S
C183 O186 1.301 . S
C183 O187 1.282 . S
O184 U166 2.441 . S
O184 C170 1.249 . S
O185 U166 2.420 . S
O185 C170 1.202 . S
O186 U166 2.455 . S
O186 C183 1.301 . S
O187 U166 2.449 . S
O187 C183 1.282 . S
H188 C161 0.931 . S
H189 C163 0.929 . S
H190 C164 0.930 . S
H191 C165 0.931 . S
H192 C172 0.932 . S
H193 C173 0.930 . S
H194 C174 0.929 . S
H195 C176 0.930 . S
H196 C178 0.932 . S
H197 C179 0.929 . S
H198 C180 0.928 . S
H199 C182 0.932 . S
C200 C201 1.264 . S
C200 C205 1.479 . S
C200 C210 1.465 . S
C201 C200 1.264 . S
C201 C203 1.339 . S
C201 H228 0.931 . S
C202 C203 1.395 . S
C202 C204 1.320 . S
C203 C201 1.339 . S
C203 C202 1.395 . S
C203 H229 0.929 . S
C204 C202 1.320 . S
C204 C205 1.405 . S
C204 H230 0.930 . S
C205 C200 1.479 . S
C205 C204 1.405 . S
C205 H231 0.931 . S
U206 O207 2.454 . S
U206 O208 2.458 . S
U206 C209 2.984 . S
U206 C210 2.847 . S
U206 C223 2.882 1_554 S
U206 O224 2.441 . S
U206 O225 2.420 . S
U206 O226 2.455 . S
U206 O227 2.449 . S
O207 U206 2.454 . S
O207 C209 1.353 . S
O208 U206 2.458 . S
O208 C209 1.286 . S
C209 U206 2.984 . S
C209 O207 1.353 . S
C209 O208 1.286 . S
C209 C211 1.363 . S
C210 C200 1.465 . S
C210 U206 2.847 . S
C210 O224 1.249 . S
C210 O225 1.202 . S
C211 C209 1.363 . S
C211 C213 1.408 . S
C211 C216 1.342 . S
C212 C213 1.310 . S
C212 C215 1.461 . S
C212 H232 0.932 . S
C213 C211 1.408 . S
C213 C212 1.310 . S
C213 H233 0.930 . S
C214 C215 1.474 . S
C214 C216 1.285 . S
C214 H234 0.929 . S
C215 C212 1.461 . S
C215 C214 1.474 . S
C216 C211 1.342 . S
C216 C214 1.285 . S
C216 H235 0.930 . S
C217 C220 1.424 . S
C217 C222 1.245 . S
C217 C223 1.428 . S
C218 C221 1.260 . S
C218 C222 1.477 . S
C218 H236 0.932 . S
C219 C220 1.384 . S
C219 C221 1.479 . S
C219 H237 0.929 . S
C220 C217 1.424 . S
C220 C219 1.384 . S
C220 H238 0.928 . S
C221 C218 1.260 . S
C221 C219 1.479 . S
C222 C217 1.245 . S
C222 C218 1.477 . S
C222 H239 0.932 . S
C223 U206 2.882 1_556 S
C223 C217 1.428 . S
C223 O226 1.301 1_556 S
C223 O227 1.282 1_556 S
O224 U206 2.441 . S
O224 C210 1.249 . S
O225 U206 2.420 . S
O225 C210 1.202 . S
O226 U206 2.455 . S
O226 C223 1.301 1_554 S
O227 U206 2.449 . S
O227 C223 1.282 1_554 S
H228 C201 0.931 . S
H229 C203 0.929 . S
H230 C204 0.930 . S
H231 C205 0.931 . S
H232 C212 0.932 . S
H233 C213 0.930 . S
H234 C214 0.929 . S
H235 C216 0.930 . S
H236 C218 0.932 . S
H237 C219 0.929 . S
H238 C220 0.928 . S
H239 C222 0.932 . S
C240 C241 1.264 . S
C240 C245 1.479 . S
C240 C250 1.465 . S
C241 C240 1.264 . S
C241 C243 1.339 . S
C241 H268 0.931 . S
C242 C243 1.395 . S
C242 C244 1.320 . S
C243 C241 1.339 . S
C243 C242 1.395 . S
C243 H269 0.929 . S
C244 C242 1.320 . S
C244 C245 1.405 . S
C244 H270 0.930 . S
C245 C240 1.479 . S
C245 C244 1.405 . S
C245 H271 0.931 . S
U246 O247 2.454 . S
U246 O248 2.458 . S
U246 C249 2.984 . S
U246 C250 2.847 . S
U246 C263 2.882 . S
U246 O264 2.441 . S
U246 O265 2.420 . S
U246 O266 2.455 . S
U246 O267 2.449 . S
O247 U246 2.454 . S
O247 C249 1.353 . S
O248 U246 2.458 . S
O248 C249 1.286 . S
C249 U246 2.984 . S
C249 O247 1.353 . S
C249 O248 1.286 . S
C249 C251 1.363 . S
C250 C240 1.465 . S
C250 U246 2.847 . S
C250 O264 1.249 . S
C250 O265 1.202 . S
C251 C249 1.363 . S
C251 C253 1.408 . S
C251 C256 1.342 . S
C252 C253 1.310 . S
C252 C255 1.461 . S
C252 H272 0.932 . S
C253 C251 1.408 . S
C253 C252 1.310 . S
C253 H273 0.930 . S
C254 C255 1.474 . S
C254 C256 1.285 . S
C254 H274 0.929 . S
C255 C252 1.461 . S
C255 C254 1.474 . S
C256 C251 1.342 . S
C256 C254 1.285 . S
C256 H275 0.930 . S
C257 C260 1.424 . S
C257 C262 1.245 . S
C257 C263 1.428 . S
C258 C261 1.260 . S
C258 C262 1.477 . S
C258 H276 0.932 . S
C259 C260 1.384 . S
C259 C261 1.479 . S
C259 H277 0.929 . S
C260 C257 1.424 . S
C260 C259 1.384 . S
C260 H278 0.928 . S
C261 C258 1.260 . S
C261 C259 1.479 . S
C262 C257 1.245 . S
C262 C258 1.477 . S
C262 H279 0.932 . S
C263 U246 2.882 . S
C263 C257 1.428 . S
C263 O266 1.301 . S
C263 O267 1.282 . S
O264 U246 2.441 . S
O264 C250 1.249 . S
O265 U246 2.420 . S
O265 C250 1.202 . S
O266 U246 2.455 . S
O266 C263 1.301 . S
O267 U246 2.449 . S
O267 C263 1.282 . S
H268 C241 0.931 . S
H269 C243 0.929 . S
H270 C244 0.930 . S
H271 C245 0.931 . S
H272 C252 0.932 . S
H273 C253 0.930 . S
H274 C254 0.929 . S
H275 C256 0.930 . S
H276 C258 0.932 . S
H277 C259 0.929 . S
H278 C260 0.928 . S
H279 C262 0.932 . S
C280 C281 1.264 . S
C280 C285 1.479 . S
C280 C290 1.465 . S
C281 C280 1.264 . S
C281 C283 1.339 . S
C281 H308 0.931 . S
C282 C283 1.395 . S
C282 C284 1.320 . S
C283 C281 1.339 . S
C283 C282 1.395 . S
C283 H309 0.929 . S
C284 C282 1.320 . S
C284 C285 1.405 . S
C284 H310 0.926 1_556 S
C285 C280 1.479 . S
C285 C284 1.405 . S
C285 H311 0.931 . S
U286 O287 2.454 . S
U286 O288 2.458 . S
U286 C289 2.984 . S
U286 C290 2.847 . S
U286 C303 2.882 . S
U286 O304 2.441 . S
U286 O305 2.420 . S
U286 O306 2.455 . S
U286 O307 2.449 . S
O287 U286 2.454 . S
O287 C289 1.353 . S
O288 U286 2.458 . S
O288 C289 1.286 . S
C289 U286 2.984 . S
C289 O287 1.353 . S
C289 O288 1.286 . S
C289 C291 1.363 . S
C290 C280 1.465 . S
C290 U286 2.847 . S
C290 O304 1.249 . S
C290 O305 1.202 . S
C291 C289 1.363 . S
C291 C293 1.408 . S
C291 C296 1.342 . S
C292 C293 1.310 . S
C292 C295 1.461 . S
C292 H312 0.930 . S
C293 C291 1.408 . S
C293 C292 1.310 . S
C293 H313 0.930 . S
C294 C295 1.473 1_554 S
C294 C296 1.284 1_554 S
C294 H314 0.932 . S
C295 C292 1.461 . S
C295 C294 1.473 1_556 S
C296 C291 1.342 . S
C296 C294 1.284 1_556 S
C296 H315 0.935 . S
C297 C300 1.424 . S
C297 C302 1.245 . S
C297 C303 1.428 . S
C298 C301 1.260 . S
C298 C302 1.477 . S
C298 H316 0.932 . S
C299 C300 1.384 . S
C299 C301 1.479 . S
C299 H317 0.929 . S
C300 C297 1.424 . S
C300 C299 1.384 . S
C300 H318 0.928 . S
C301 C298 1.260 . S
C301 C299 1.479 . S
C302 C297 1.245 . S
C302 C298 1.477 . S
C302 H319 0.932 . S
C303 U286 2.882 . S
C303 C297 1.428 . S
C303 O306 1.301 . S
C303 O307 1.282 . S
O304 U286 2.441 . S
O304 C290 1.249 . S
O305 U286 2.420 . S
O305 C290 1.202 . S
O306 U286 2.455 . S
O306 C303 1.301 . S
O307 U286 2.449 . S
O307 C303 1.282 . S
H308 C281 0.931 . S
H309 C283 0.929 . S
H310 C284 0.926 1_554 S
H311 C285 0.931 . S
H312 C292 0.930 . S
H313 C293 0.930 . S
H314 C294 0.932 . S
H315 C296 0.935 . S
H316 C298 0.932 . S
H317 C299 0.929 . S
H318 C300 0.928 . S
H319 C302 0.932 . S
C320 C321 1.264 . S
C320 C325 1.479 . S
C320 C330 1.465 . S
C321 C320 1.264 . S
C321 C323 1.339 . S
C321 H348 0.931 . S
C322 C323 1.395 . S
C322 C324 1.320 . S
C323 C321 1.339 . S
C323 C322 1.395 . S
C323 H349 0.929 . S
C324 C322 1.320 . S
C324 C325 1.405 . S
C324 H350 0.930 . S
C325 C320 1.479 . S
C325 C324 1.405 . S
C325 H351 0.931 . S
U326 O327 2.454 . S
U326 O328 2.458 . S
U326 C329 2.984 . S
U326 C330 2.847 . S
U326 C343 2.882 . S
U326 O344 2.441 . S
U326 O345 2.420 . S
U326 O346 2.455 . S
U326 O347 2.449 . S
O327 U326 2.454 . S
O327 C329 1.353 . S
O328 U326 2.458 . S
O328 C329 1.286 . S
C329 U326 2.984 . S
C329 O327 1.353 . S
C329 O328 1.286 . S
C329 C331 1.363 . S
C330 C320 1.465 . S
C330 U326 2.847 . S
C330 O344 1.249 . S
C330 O345 1.202 . S
C331 C329 1.363 . S
C331 C333 1.408 . S
C331 C336 1.342 . S
C332 C333 1.310 . S
C332 C335 1.461 . S
C332 H352 0.932 . S
C333 C331 1.408 . S
C333 C332 1.310 . S
C333 H353 0.930 . S
C334 C335 1.474 . S
C334 C336 1.285 . S
C334 H354 0.929 . S
C335 C332 1.461 . S
C335 C334 1.474 . S
C336 C331 1.342 . S
C336 C334 1.285 . S
C336 H355 0.930 . S
C337 C340 1.424 . S
C337 C342 1.245 . S
C337 C343 1.428 . S
C338 C341 1.260 . S
C338 C342 1.477 . S
C338 H356 0.932 . S
C339 C340 1.384 . S
C339 C341 1.479 . S
C339 H357 0.929 . S
C340 C337 1.424 . S
C340 C339 1.384 . S
C340 H358 0.928 . S
C341 C338 1.260 . S
C341 C339 1.479 . S
C342 C337 1.245 . S
C342 C338 1.477 . S
C342 H359 0.932 . S
C343 U326 2.882 . S
C343 C337 1.428 . S
C343 O346 1.301 . S
C343 O347 1.282 . S
O344 U326 2.441 . S
O344 C330 1.249 . S
O345 U326 2.420 . S
O345 C330 1.202 . S
O346 U326 2.455 . S
O346 C343 1.301 . S
O347 U326 2.449 . S
O347 C343 1.282 . S
H348 C321 0.931 . S
H349 C323 0.929 . S
H350 C324 0.930 . S
H351 C325 0.931 . S
H352 C332 0.932 . S
H353 C333 0.930 . S
H354 C334 0.929 . S
H355 C336 0.930 . S
H356 C338 0.932 . S
H357 C339 0.929 . S
H358 C340 0.928 . S
H359 C342 0.932 . S
C360 C361 1.264 . S
C360 C365 1.479 . S
C360 C370 1.465 . S
C361 C360 1.264 . S
C361 C363 1.339 . S
C361 H388 0.931 . S
C362 C363 1.395 . S
C362 C364 1.320 . S
C363 C361 1.339 . S
C363 C362 1.395 . S
C363 H389 0.929 . S
C364 C362 1.320 . S
C364 C365 1.405 . S
C364 H390 0.930 . S
C365 C360 1.479 . S
C365 C364 1.405 . S
C365 H391 0.931 . S
U366 O367 2.454 . S
U366 O368 2.458 . S
U366 C369 2.984 . S
U366 C370 2.847 . S
U366 C383 2.882 1_455 S
U366 O384 2.441 . S
U366 O385 2.420 . S
U366 O386 2.455 . S
U366 O387 2.449 . S
O367 U366 2.454 . S
O367 C369 1.353 . S
O368 U366 2.458 . S
O368 C369 1.286 . S
C369 U366 2.984 . S
C369 O367 1.353 . S
C369 O368 1.286 . S
C369 C371 1.363 . S
C370 C360 1.465 . S
C370 U366 2.847 . S
C370 O384 1.249 . S
C370 O385 1.202 . S
C371 C369 1.363 . S
C371 C373 1.408 . S
C371 C376 1.342 . S
C372 C373 1.310 . S
C372 C375 1.461 . S
C372 H392 0.932 . S
C373 C371 1.408 . S
C373 C372 1.310 . S
C373 H393 0.930 . S
C374 C375 1.474 . S
C374 C376 1.285 . S
C374 H394 0.929 . S
C375 C372 1.461 . S
C375 C374 1.474 . S
C376 C371 1.342 . S
C376 C374 1.285 . S
C376 H395 0.930 . S
C377 C380 1.424 . S
C377 C382 1.245 . S
C377 C383 1.428 . S
C378 C381 1.260 . S
C378 C382 1.477 . S
C378 H396 0.932 . S
C379 C380 1.384 . S
C379 C381 1.479 . S
C379 H397 0.929 . S
C380 C377 1.424 . S
C380 C379 1.384 . S
C380 H398 0.928 . S
C381 C378 1.260 . S
C381 C379 1.479 . S
C382 C377 1.245 . S
C382 C378 1.477 . S
C382 H399 0.932 . S
C383 U366 2.882 1_655 S
C383 C377 1.428 . S
C383 O386 1.301 1_655 S
C383 O387 1.282 1_655 S
O384 U366 2.441 . S
O384 C370 1.249 . S
O385 U366 2.420 . S
O385 C370 1.202 . S
O386 U366 2.455 . S
O386 C383 1.301 1_455 S
O387 U366 2.449 . S
O387 C383 1.282 1_455 S
H388 C361 0.931 . S
H389 C363 0.929 . S
H390 C364 0.930 . S
H391 C365 0.931 . S
H392 C372 0.932 . S
H393 C373 0.930 . S
H394 C374 0.929 . S
H395 C376 0.930 . S
H396 C378 0.932 . S
H397 C379 0.929 . S
H398 C380 0.928 . S
H399 C382 0.932 . S
C400 C401 1.264 . S
C400 C405 1.479 . S
C400 C410 1.465 . S
C401 C400 1.264 . S
C401 C403 1.339 . S
C401 H428 0.931 . S
C402 C403 1.395 . S
C402 C404 1.320 . S
C403 C401 1.339 . S
C403 C402 1.395 . S
C403 H429 0.929 . S
C404 C402 1.320 . S
C404 C405 1.405 . S
C404 H430 0.930 . S
C405 C400 1.479 . S
C405 C404 1.405 . S
C405 H431 0.931 . S
U406 O407 2.454 . S
U406 O408 2.458 . S
U406 C409 2.984 . S
U406 C410 2.847 . S
U406 C423 2.882 . S
U406 O424 2.441 . S
U406 O425 2.420 . S
U406 O426 2.455 . S
U406 O427 2.449 . S
O407 U406 2.454 . S
O407 C409 1.353 . S
O408 U406 2.458 . S
O408 C409 1.286 . S
C409 U406 2.984 . S
C409 O407 1.353 . S
C409 O408 1.286 . S
C409 C411 1.363 . S
C410 C400 1.465 . S
C410 U406 2.847 . S
C410 O424 1.249 . S
C410 O425 1.202 . S
C411 C409 1.363 . S
C411 C413 1.408 . S
C411 C416 1.342 . S
C412 C413 1.310 . S
C412 C415 1.461 . S
C412 H432 0.932 . S
C413 C411 1.408 . S
C413 C412 1.310 . S
C413 H433 0.930 . S
C414 C415 1.474 . S
C414 C416 1.285 . S
C414 H434 0.929 . S
C415 C412 1.461 . S
C415 C414 1.474 . S
C416 C411 1.342 . S
C416 C414 1.285 . S
C416 H435 0.930 . S
C417 C420 1.424 . S
C417 C422 1.245 . S
C417 C423 1.428 . S
C418 C421 1.260 . S
C418 C422 1.477 . S
C418 H436 0.932 . S
C419 C420 1.384 . S
C419 C421 1.479 . S
C419 H437 0.929 . S
C420 C417 1.424 . S
C420 C419 1.384 . S
C420 H438 0.928 . S
C421 C418 1.260 . S
C421 C419 1.479 . S
C422 C417 1.245 . S
C422 C418 1.477 . S
C422 H439 0.932 . S
C423 U406 2.882 . S
C423 C417 1.428 . S
C423 O426 1.301 . S
C423 O427 1.282 . S
O424 U406 2.441 . S
O424 C410 1.249 . S
O425 U406 2.420 . S
O425 C410 1.202 . S
O426 U406 2.455 . S
O426 C423 1.301 . S
O427 U406 2.449 . S
O427 C423 1.282 . S
H428 C401 0.931 . S
H429 C403 0.929 . S
H430 C404 0.930 . S
H431 C405 0.931 . S
H432 C412 0.932 . S
H433 C413 0.930 . S
H434 C414 0.929 . S
H435 C416 0.930 . S
H436 C418 0.932 . S
H437 C419 0.929 . S
H438 C420 0.928 . S
H439 C422 0.932 . S
C440 C441 1.264 . S
C440 C445 1.479 . S
C440 C450 1.465 . S
C441 C440 1.264 . S
C441 C443 1.339 . S
C441 H468 0.931 . S
C442 C443 1.395 . S
C442 C444 1.320 . S
C443 C441 1.339 . S
C443 C442 1.395 . S
C443 H469 0.929 . S
C444 C442 1.320 . S
C444 C445 1.405 . S
C444 H470 0.926 1_655 S
C445 C440 1.479 . S
C445 C444 1.405 . S
C445 H471 0.931 . S
U446 O447 2.454 . S
U446 O448 2.458 . S
U446 C449 2.984 . S
U446 C450 2.847 . S
U446 C463 2.882 . S
U446 O464 2.441 . S
U446 O465 2.420 . S
U446 O466 2.455 . S
U446 O467 2.449 . S
O447 U446 2.454 . S
O447 C449 1.353 . S
O448 U446 2.458 . S
O448 C449 1.286 . S
C449 U446 2.984 . S
C449 O447 1.353 . S
C449 O448 1.286 . S
C449 C451 1.363 . S
C450 C440 1.465 . S
C450 U446 2.847 . S
C450 O464 1.249 . S
C450 O465 1.202 . S
C451 C449 1.363 . S
C451 C453 1.408 . S
C451 C456 1.342 . S
C452 C453 1.310 . S
C452 C455 1.461 . S
C452 H472 0.930 . S
C453 C451 1.408 . S
C453 C452 1.310 . S
C453 H473 0.930 . S
C454 C455 1.473 1_455 S
C454 C456 1.284 1_455 S
C454 H474 0.932 . S
C455 C452 1.461 . S
C455 C454 1.473 1_655 S
C456 C451 1.342 . S
C456 C454 1.284 1_655 S
C456 H475 0.935 . S
C457 C460 1.424 . S
C457 C462 1.245 . S
C457 C463 1.428 . S
C458 C461 1.260 . S
C458 C462 1.477 . S
C458 H476 0.932 . S
C459 C460 1.384 . S
C459 C461 1.479 . S
C459 H477 0.929 . S
C460 C457 1.424 . S
C460 C459 1.384 . S
C460 H478 0.928 . S
C461 C458 1.260 . S
C461 C459 1.479 . S
C462 C457 1.245 . S
C462 C458 1.477 . S
C462 H479 0.932 . S
C463 U446 2.882 . S
C463 C457 1.428 . S
C463 O466 1.301 . S
C463 O467 1.282 . S
O464 U446 2.441 . S
O464 C450 1.249 . S
O465 U446 2.420 . S
O465 C450 1.202 . S
O466 U446 2.455 . S
O466 C463 1.301 . S
O467 U446 2.449 . S
O467 C463 1.282 . S
H468 C441 0.931 . S
H469 C443 0.929 . S
H470 C444 0.926 1_455 S
H471 C445 0.931 . S
H472 C452 0.930 . S
H473 C453 0.930 . S
H474 C454 0.932 . S
H475 C456 0.935 . S
H476 C458 0.932 . S
H477 C459 0.929 . S
H478 C460 0.928 . S
H479 C462 0.932 . S
C480 C481 1.264 . S
C480 C485 1.479 . S
C480 C490 1.465 . S
C481 C480 1.264 . S
C481 C483 1.339 . S
C481 H508 0.931 . S
C482 C483 1.395 . S
C482 C484 1.320 . S
C483 C481 1.339 . S
C483 C482 1.395 . S
C483 H509 0.929 . S
C484 C482 1.320 . S
C484 C485 1.405 . S
C484 H510 0.930 . S
C485 C480 1.479 . S
C485 C484 1.405 . S
C485 H511 0.931 . S
U486 O487 2.454 . S
U486 O488 2.458 . S
U486 C489 2.984 . S
U486 C490 2.847 . S
U486 C503 2.882 . S
U486 O504 2.441 . S
U486 O505 2.420 . S
U486 O506 2.455 . S
U486 O507 2.449 . S
O487 U486 2.454 . S
O487 C489 1.353 . S
O488 U486 2.458 . S
O488 C489 1.286 . S
C489 U486 2.984 . S
C489 O487 1.353 . S
C489 O488 1.286 . S
C489 C491 1.363 . S
C490 C480 1.465 . S
C490 U486 2.847 . S
C490 O504 1.249 . S
C490 O505 1.202 . S
C491 C489 1.363 . S
C491 C493 1.408 . S
C491 C496 1.342 . S
C492 C493 1.310 . S
C492 C495 1.461 . S
C492 H512 0.932 . S
C493 C491 1.408 . S
C493 C492 1.310 . S
C493 H513 0.930 . S
C494 C495 1.474 . S
C494 C496 1.285 . S
C494 H514 0.929 . S
C495 C492 1.461 . S
C495 C494 1.474 . S
C496 C491 1.342 . S
C496 C494 1.285 . S
C496 H515 0.930 . S
C497 C500 1.424 . S
C497 C502 1.245 . S
C497 C503 1.428 . S
C498 C501 1.260 . S
C498 C502 1.477 . S
C498 H516 0.932 . S
C499 C500 1.384 . S
C499 C501 1.479 . S
C499 H517 0.929 . S
C500 C497 1.424 . S
C500 C499 1.384 . S
C500 H518 0.928 . S
C501 C498 1.260 . S
C501 C499 1.479 . S
C502 C497 1.245 . S
C502 C498 1.477 . S
C502 H519 0.932 . S
C503 U486 2.882 . S
C503 C497 1.428 . S
C503 O506 1.301 . S
C503 O507 1.282 . S
O504 U486 2.441 . S
O504 C490 1.249 . S
O505 U486 2.420 . S
O505 C490 1.202 . S
O506 U486 2.455 . S
O506 C503 1.301 . S
O507 U486 2.449 . S
O507 C503 1.282 . S
H508 C481 0.931 . S
H509 C483 0.929 . S
H510 C484 0.930 . S
H511 C485 0.931 . S
H512 C492 0.932 . S
H513 C493 0.930 . S
H514 C494 0.929 . S
H515 C496 0.930 . S
H516 C498 0.932 . S
H517 C499 0.929 . S
H518 C500 0.928 . S
H519 C502 0.932 . S
C520 C521 1.264 . S
C520 C525 1.479 . S
C520 C530 1.465 . S
C521 C520 1.264 . S
C521 C523 1.339 . S
C521 H548 0.931 . S
C522 C523 1.395 . S
C522 C524 1.320 . S
C523 C521 1.339 . S
C523 C522 1.395 . S
C523 H549 0.929 . S
C524 C522 1.320 . S
C524 C525 1.405 . S
C524 H550 0.930 . S
C525 C520 1.479 . S
C525 C524 1.405 . S
C525 H551 0.931 . S
U526 O527 2.454 . S
U526 O528 2.458 . S
U526 C529 2.984 . S
U526 C530 2.847 . S
U526 C543 2.882 . S
U526 O544 2.441 . S
U526 O545 2.420 . S
U526 O546 2.455 . S
U526 O547 2.449 . S
O527 U526 2.454 . S
O527 C529 1.353 . S
O528 U526 2.458 . S
O528 C529 1.286 . S
C529 U526 2.984 . S
C529 O527 1.353 . S
C529 O528 1.286 . S
C529 C531 1.363 . S
C530 C520 1.465 . S
C530 U526 2.847 . S
C530 O544 1.249 . S
C530 O545 1.202 . S
C531 C529 1.363 . S
C531 C533 1.408 . S
C531 C536 1.342 . S
C532 C533 1.310 . S
C532 C535 1.461 . S
C532 H552 0.932 . S
C533 C531 1.408 . S
C533 C532 1.310 . S
C533 H553 0.930 . S
C534 C535 1.474 . S
C534 C536 1.285 . S
C534 H554 0.929 . S
C535 C532 1.461 . S
C535 C534 1.474 . S
C536 C531 1.342 . S
C536 C534 1.285 . S
C536 H555 0.930 . S
C537 C540 1.424 . S
C537 C542 1.245 . S
C537 C543 1.428 . S
C538 C541 1.260 . S
C538 C542 1.477 . S
C538 H556 0.932 . S
C539 C540 1.384 . S
C539 C541 1.479 . S
C539 H557 0.929 . S
C540 C537 1.424 . S
C540 C539 1.384 . S
C540 H558 0.928 . S
C541 C538 1.260 . S
C541 C539 1.479 . S
C542 C537 1.245 . S
C542 C538 1.477 . S
C542 H559 0.932 . S
C543 U526 2.882 . S
C543 C537 1.428 . S
C543 O546 1.301 . S
C543 O547 1.282 . S
O544 U526 2.441 . S
O544 C530 1.249 . S
O545 U526 2.420 . S
O545 C530 1.202 . S
O546 U526 2.455 . S
O546 C543 1.301 . S
O547 U526 2.449 . S
O547 C543 1.282 . S
H548 C521 0.931 . S
H549 C523 0.929 . S
H550 C524 0.930 . S
H551 C525 0.931 . S
H552 C532 0.932 . S
H553 C533 0.930 . S
H554 C534 0.929 . S
H555 C536 0.930 . S
H556 C538 0.932 . S
H557 C539 0.929 . S
H558 C540 0.928 . S
H559 C542 0.932 . S
C560 C561 1.264 . S
C560 C565 1.479 . S
C560 C570 1.465 . S
C561 C560 1.264 . S
C561 C563 1.339 . S
C561 H588 0.931 . S
C562 C563 1.395 . S
C562 C564 1.320 . S
C563 C561 1.339 . S
C563 C562 1.395 . S
C563 H589 0.929 . S
C564 C562 1.320 . S
C564 C565 1.405 . S
C564 H590 0.920 1_565 S
C565 C560 1.479 . S
C565 C564 1.405 . S
C565 H591 0.931 . S
U566 O567 2.454 . S
U566 O568 2.458 . S
U566 C569 2.984 . S
U566 C570 2.847 . S
U566 C583 2.882 . S
U566 O584 2.441 . S
U566 O585 2.420 . S
U566 O586 2.455 . S
U566 O587 2.449 . S
O567 U566 2.454 . S
O567 C569 1.353 . S
O568 U566 2.458 . S
O568 C569 1.286 . S
C569 U566 2.984 . S
C569 O567 1.353 . S
C569 O568 1.286 . S
C569 C571 1.363 . S
C570 C560 1.465 . S
C570 U566 2.847 . S
C570 O584 1.249 . S
C570 O585 1.202 . S
C571 C569 1.363 . S
C571 C573 1.408 . S
C571 C576 1.342 . S
C572 C573 1.310 . S
C572 C575 1.459 . S
C572 H592 0.932 . S
C573 C571 1.408 . S
C573 C572 1.310 . S
C573 H593 0.930 . S
C574 C575 1.475 1_545 S
C574 C576 1.285 1_545 S
C574 H594 0.930 . S
C575 C572 1.459 . S
C575 C574 1.475 1_565 S
C576 C571 1.342 . S
C576 C574 1.285 1_565 S
C576 H595 0.929 . S
C577 C580 1.424 . S
C577 C582 1.245 . S
C577 C583 1.428 . S
C578 C581 1.260 . S
C578 C582 1.477 . S
C578 H596 0.932 . S
C579 C580 1.384 . S
C579 C581 1.479 . S
C579 H597 0.929 . S
C580 C577 1.424 . S
C580 C579 1.384 . S
C580 H598 0.928 . S
C581 C578 1.260 . S
C581 C579 1.479 . S
C582 C577 1.245 . S
C582 C578 1.477 . S
C582 H599 0.932 . S
C583 U566 2.882 . S
C583 C577 1.428 . S
C583 O586 1.301 . S
C583 O587 1.282 . S
O584 U566 2.441 . S
O584 C570 1.249 . S
O585 U566 2.420 . S
O585 C570 1.202 . S
O586 U566 2.455 . S
O586 C583 1.301 . S
O587 U566 2.449 . S
O587 C583 1.282 . S
H588 C561 0.931 . S
H589 C563 0.929 . S
H590 C564 0.920 1_545 S
H591 C565 0.931 . S
H592 C572 0.932 . S
H593 C573 0.930 . S
H594 C574 0.930 . S
H595 C576 0.929 . S
H596 C578 0.932 . S
H597 C579 0.929 . S
H598 C580 0.928 . S
H599 C582 0.932 . S
C600 C601 1.262 1_565 S
C600 C605 1.479 . S
C600 C610 1.465 1_565 S
C601 C600 1.262 1_545 S
C601 C603 1.328 1_545 S
C601 H628 0.944 . S
C602 C603 1.395 . S
C602 C604 1.320 . S
C603 C601 1.328 1_565 S
C603 C602 1.395 . S
C603 H629 0.929 . S
C604 C602 1.320 . S
C604 C605 1.405 . S
C604 H630 0.930 . S
C605 C600 1.479 . S
C605 C604 1.405 . S
C605 H631 0.931 . S
U606 O607 2.454 1_545 S
U606 O608 2.458 . S
U606 C609 2.984 1_545 S
U606 C610 2.847 . S
U606 C623 2.882 . S
U606 O624 2.441 1_545 S
U606 O625 2.420 . S
U606 O626 2.455 . S
U606 O627 2.449 . S
O607 U606 2.454 1_565 S
O607 C609 1.353 . S
O608 U606 2.458 . S
O608 C609 1.286 1_545 S
C609 U606 2.984 1_565 S
C609 O607 1.353 . S
C609 O608 1.286 1_565 S
C609 C611 1.363 . S
C610 C600 1.465 1_545 S
C610 U606 2.847 . S
C610 O624 1.249 1_545 S
C610 O625 1.202 . S
C611 C609 1.363 . S
C611 C613 1.408 . S
C611 C616 1.342 . S
C612 C613 1.310 . S
C612 C615 1.461 . S
C612 H632 0.932 . S
C613 C611 1.408 . S
C613 C612 1.310 . S
C613 H633 0.930 . S
C614 C615 1.474 . S
C614 C616 1.285 . S
C614 H634 0.929 . S
C615 C612 1.461 . S
C615 C614 1.474 . S
C616 C611 1.342 . S
C616 C614 1.285 . S
C616 H635 0.930 . S
C617 C620 1.424 . S
C617 C622 1.245 . S
C617 C623 1.428 . S
C618 C621 1.260 . S
C618 C622 1.477 . S
C618 H636 0.932 . S
C619 C620 1.384 . S
C619 C621 1.479 . S
C619 H637 0.929 . S
C620 C617 1.424 . S
C620 C619 1.384 . S
C620 H638 0.928 . S
C621 C618 1.260 . S
C621 C619 1.479 . S
C622 C617 1.245 . S
C622 C618 1.477 . S
C622 H639 0.932 . S
C623 U606 2.882 . S
C623 C617 1.428 . S
C623 O626 1.301 . S
C623 O627 1.282 . S
O624 U606 2.441 1_565 S
O624 C610 1.249 1_565 S
O625 U606 2.420 . S
O625 C610 1.202 . S
O626 U606 2.455 . S
O626 C623 1.301 . S
O627 U606 2.449 . S
O627 C623 1.282 . S
H628 C601 0.944 . S
H629 C603 0.929 . S
H630 C604 0.930 . S
H631 C605 0.931 . S
H632 C612 0.932 . S
H633 C613 0.930 . S
H634 C614 0.929 . S
H635 C616 0.930 . S
H636 C618 0.932 . S
H637 C619 0.929 . S
H638 C620 0.928 . S
H639 C622 0.932 . S
C640 C641 1.264 . S
C640 C645 1.479 . S
C640 C650 1.465 . S
C641 C640 1.264 . S
C641 C643 1.339 . S
C641 H668 0.931 . S
C642 C643 1.395 . S
C642 C644 1.320 . S
C643 C641 1.339 . S
C643 C642 1.395 . S
C643 H669 0.929 . S
C644 C642 1.320 . S
C644 C645 1.405 . S
C644 H670 0.930 . S
C645 C640 1.479 . S
C645 C644 1.405 . S
C645 H671 0.931 . S
U646 O647 2.454 . S
U646 O648 2.458 . S
U646 C649 2.984 . S
U646 C650 2.847 . S
U646 C663 2.882 . S
U646 O664 2.441 . S
U646 O665 2.420 . S
U646 O666 2.455 . S
U646 O667 2.449 . S
O647 U646 2.454 . S
O647 C649 1.353 . S
O648 U646 2.458 . S
O648 C649 1.286 . S
C649 U646 2.984 . S
C649 O647 1.353 . S
C649 O648 1.286 . S
C649 C651 1.363 . S
C650 C640 1.465 . S
C650 U646 2.847 . S
C650 O664 1.249 . S
C650 O665 1.202 . S
C651 C649 1.363 . S
C651 C653 1.408 . S
C651 C656 1.342 . S
C652 C653 1.310 . S
C652 C655 1.461 . S
C652 H672 0.932 . S
C653 C651 1.408 . S
C653 C652 1.310 . S
C653 H673 0.930 . S
C654 C655 1.474 . S
C654 C656 1.285 . S
C654 H674 0.929 . S
C655 C652 1.461 . S
C655 C654 1.474 . S
C656 C651 1.342 . S
C656 C654 1.285 . S
C656 H675 0.930 . S
C657 C660 1.424 . S
C657 C662 1.245 . S
C657 C663 1.428 . S
C658 C661 1.260 . S
C658 C662 1.477 . S
C658 H676 0.932 . S
C659 C660 1.384 . S
C659 C661 1.479 . S
C659 H677 0.929 . S
C660 C657 1.424 . S
C660 C659 1.384 . S
C660 H678 0.928 . S
C661 C658 1.260 . S
C661 C659 1.479 . S
C662 C657 1.245 . S
C662 C658 1.477 . S
C662 H679 0.932 . S
C663 U646 2.882 . S
C663 C657 1.428 . S
C663 O666 1.301 . S
C663 O667 1.282 . S
O664 U646 2.441 . S
O664 C650 1.249 . S
O665 U646 2.420 . S
O665 C650 1.202 . S
O666 U646 2.455 . S
O666 C663 1.301 . S
O667 U646 2.449 . S
O667 C663 1.282 . S
H668 C641 0.931 . S
H669 C643 0.929 . S
H670 C644 0.930 . S
H671 C645 0.931 . S
H672 C652 0.932 . S
H673 C653 0.930 . S
H674 C654 0.929 . S
H675 C656 0.930 . S
H676 C658 0.932 . S
H677 C659 0.929 . S
H678 C660 0.928 . S
H679 C662 0.932 . S
C680 C681 1.262 1_556 S
C680 C685 1.479 . S
C680 C690 1.465 1_556 S
C681 C680 1.262 1_554 S
C681 C683 1.328 1_554 S
C681 H708 0.944 . S
C682 C683 1.395 . S
C682 C684 1.320 . S
C683 C681 1.328 1_556 S
C683 C682 1.395 . S
C683 H709 0.929 . S
C684 C682 1.320 . S
C684 C685 1.405 . S
C684 H710 0.930 . S
C685 C680 1.479 . S
C685 C684 1.405 . S
C685 H711 0.931 . S
U686 O687 2.454 1_554 S
U686 O688 2.458 . S
U686 C689 2.984 1_554 S
U686 C690 2.847 . S
U686 C703 2.882 . S
U686 O704 2.441 1_554 S
U686 O705 2.420 . S
U686 O706 2.455 . S
U686 O707 2.449 . S
O687 U686 2.454 1_556 S
O687 C689 1.353 . S
O688 U686 2.458 . S
O688 C689 1.286 1_554 S
C689 U686 2.984 1_556 S
C689 O687 1.353 . S
C689 O688 1.286 1_556 S
C689 C691 1.363 . S
C690 C680 1.465 1_554 S
C690 U686 2.847 . S
C690 O704 1.249 1_554 S
C690 O705 1.202 . S
C691 C689 1.363 . S
C691 C693 1.408 . S
C691 C696 1.342 . S
C692 C693 1.310 . S
C692 C695 1.461 . S
C692 H712 0.932 . S
C693 C691 1.408 . S
C693 C692 1.310 . S
C693 H713 0.930 . S
C694 C695 1.474 . S
C694 C696 1.285 . S
C694 H714 0.929 . S
C695 C692 1.461 . S
C695 C694 1.474 . S
C696 C691 1.342 . S
C696 C694 1.285 . S
C696 H715 0.930 . S
C697 C700 1.424 . S
C697 C702 1.245 . S
C697 C703 1.428 . S
C698 C701 1.260 . S
C698 C702 1.477 . S
C698 H716 0.932 . S
C699 C700 1.384 . S
C699 C701 1.479 . S
C699 H717 0.929 . S
C700 C697 1.424 . S
C700 C699 1.384 . S
C700 H718 0.928 . S
C701 C698 1.260 . S
C701 C699 1.479 . S
C702 C697 1.245 . S
C702 C698 1.477 . S
C702 H719 0.932 . S
C703 U686 2.882 . S
C703 C697 1.428 . S
C703 O706 1.301 . S
C703 O707 1.282 . S
O704 U686 2.441 1_556 S
O704 C690 1.249 1_556 S
O705 U686 2.420 . S
O705 C690 1.202 . S
O706 U686 2.455 . S
O706 C703 1.301 . S
O707 U686 2.449 . S
O707 C703 1.282 . S
H708 C681 0.944 . S
H709 C683 0.929 . S
H710 C684 0.930 . S
H711 C685 0.931 . S
H712 C692 0.932 . S
H713 C693 0.930 . S
H714 C694 0.929 . S
H715 C696 0.930 . S
H716 C698 0.932 . S
H717 C699 0.929 . S
H718 C700 0.928 . S
H719 C702 0.932 . S
C720 C721 1.264 . S
C720 C725 1.479 . S
C720 C730 1.465 . S
C721 C720 1.264 . S
C721 C723 1.339 . S
C721 H748 0.931 . S
C722 C723 1.395 . S
C722 C724 1.320 . S
C723 C721 1.339 . S
C723 C722 1.395 . S
C723 H749 0.929 . S
C724 C722 1.320 . S
C724 C725 1.405 . S
C724 H750 0.930 . S
C725 C720 1.479 . S
C725 C724 1.405 . S
C725 H751 0.931 . S
U726 O727 2.454 . S
U726 O728 2.458 . S
U726 C729 2.984 . S
U726 C730 2.847 . S
U726 C743 2.882 . S
U726 O744 2.441 . S
U726 O745 2.420 . S
U726 O746 2.455 . S
U726 O747 2.449 . S
O727 U726 2.454 . S
O727 C729 1.353 . S
O728 U726 2.458 . S
O728 C729 1.286 . S
C729 U726 2.984 . S
C729 O727 1.353 . S
C729 O728 1.286 . S
C729 C731 1.363 . S
C730 C720 1.465 . S
C730 U726 2.847 . S
C730 O744 1.249 . S
C730 O745 1.202 . S
C731 C729 1.363 . S
C731 C733 1.408 . S
C731 C736 1.342 . S
C732 C733 1.310 . S
C732 C735 1.461 . S
C732 H752 0.932 . S
C733 C731 1.408 . S
C733 C732 1.310 . S
C733 H753 0.930 . S
C734 C735 1.474 . S
C734 C736 1.285 . S
C734 H754 0.929 . S
C735 C732 1.461 . S
C735 C734 1.474 . S
C736 C731 1.342 . S
C736 C734 1.285 . S
C736 H755 0.930 . S
C737 C740 1.424 . S
C737 C742 1.245 . S
C737 C743 1.428 . S
C738 C741 1.260 . S
C738 C742 1.477 . S
C738 H756 0.932 . S
C739 C740 1.384 . S
C739 C741 1.479 . S
C739 H757 0.929 . S
C740 C737 1.424 . S
C740 C739 1.384 . S
C740 H758 0.928 . S
C741 C738 1.260 . S
C741 C739 1.479 . S
C742 C737 1.245 . S
C742 C738 1.477 . S
C742 H759 0.932 . S
C743 U726 2.882 . S
C743 C737 1.428 . S
C743 O746 1.301 . S
C743 O747 1.282 . S
O744 U726 2.441 . S
O744 C730 1.249 . S
O745 U726 2.420 . S
O745 C730 1.202 . S
O746 U726 2.455 . S
O746 C743 1.301 . S
O747 U726 2.449 . S
O747 C743 1.282 . S
H748 C721 0.931 . S
H749 C723 0.929 . S
H750 C724 0.930 . S
H751 C725 0.931 . S
H752 C732 0.932 . S
H753 C733 0.930 . S
H754 C734 0.929 . S
H755 C736 0.930 . S
H756 C738 0.932 . S
H757 C739 0.929 . S
H758 C740 0.928 . S
H759 C742 0.932 . S
C760 C761 1.264 . S
C760 C765 1.479 . S
C760 C770 1.465 . S
C761 C760 1.264 . S
C761 C763 1.339 . S
C761 H788 0.931 . S
C762 C763 1.395 . S
C762 C764 1.320 . S
C763 C761 1.339 . S
C763 C762 1.395 . S
C763 H789 0.929 . S
C764 C762 1.320 . S
C764 C765 1.405 . S
C764 H790 0.920 1_556 S
C765 C760 1.479 . S
C765 C764 1.405 . S
C765 H791 0.931 . S
U766 O767 2.454 . S
U766 O768 2.458 . S
U766 C769 2.984 . S
U766 C770 2.847 . S
U766 C783 2.882 . S
U766 O784 2.441 . S
U766 O785 2.420 . S
U766 O786 2.455 . S
U766 O787 2.449 . S
O767 U766 2.454 . S
O767 C769 1.353 . S
O768 U766 2.458 . S
O768 C769 1.286 . S
C769 U766 2.984 . S
C769 O767 1.353 . S
C769 O768 1.286 . S
C769 C771 1.363 . S
C770 C760 1.465 . S
C770 U766 2.847 . S
C770 O784 1.249 . S
C770 O785 1.202 . S
C771 C769 1.363 . S
C771 C773 1.408 . S
C771 C776 1.342 . S
C772 C773 1.310 . S
C772 C775 1.459 . S
C772 H792 0.932 . S
C773 C771 1.408 . S
C773 C772 1.310 . S
C773 H793 0.930 . S
C774 C775 1.475 1_554 S
C774 C776 1.285 1_554 S
C774 H794 0.930 . S
C775 C772 1.459 . S
C775 C774 1.475 1_556 S
C776 C771 1.342 . S
C776 C774 1.285 1_556 S
C776 H795 0.929 . S
C777 C780 1.424 . S
C777 C782 1.245 . S
C777 C783 1.428 . S
C778 C781 1.260 . S
C778 C782 1.477 . S
C778 H796 0.932 . S
C779 C780 1.384 . S
C779 C781 1.479 . S
C779 H797 0.929 . S
C780 C777 1.424 . S
C780 C779 1.384 . S
C780 H798 0.928 . S
C781 C778 1.260 . S
C781 C779 1.479 . S
C782 C777 1.245 . S
C782 C778 1.477 . S
C782 H799 0.932 . S
C783 U766 2.882 . S
C783 C777 1.428 . S
C783 O786 1.301 . S
C783 O787 1.282 . S
O784 U766 2.441 . S
O784 C770 1.249 . S
O785 U766 2.420 . S
O785 C770 1.202 . S
O786 U766 2.455 . S
O786 C783 1.301 . S
O787 U766 2.449 . S
O787 C783 1.282 . S
H788 C761 0.931 . S
H789 C763 0.929 . S
H790 C764 0.920 1_554 S
H791 C765 0.931 . S
H792 C772 0.932 . S
H793 C773 0.930 . S
H794 C774 0.930 . S
H795 C776 0.929 . S
H796 C778 0.932 . S
H797 C779 0.929 . S
H798 C780 0.928 . S
H799 C782 0.932 . S
C800 C801 1.264 . S
C800 C805 1.479 . S
C800 C810 1.465 . S
C801 C800 1.264 . S
C801 C803 1.339 . S
C801 H828 0.931 . S
C802 C803 1.395 . S
C802 C804 1.320 . S
C803 C801 1.339 . S
C803 C802 1.395 . S
C803 H829 0.929 . S
C804 C802 1.320 . S
C804 C805 1.405 . S
C804 H830 0.930 . S
C805 C800 1.479 . S
C805 C804 1.405 . S
C805 H831 0.931 . S
U806 O807 2.454 . S
U806 O808 2.458 . S
U806 C809 2.984 . S
U806 C810 2.847 . S
U806 C823 2.882 . S
U806 O824 2.441 . S
U806 O825 2.420 . S
U806 O826 2.455 . S
U806 O827 2.449 . S
O807 U806 2.454 . S
O807 C809 1.353 . S
O808 U806 2.458 . S
O808 C809 1.286 . S
C809 U806 2.984 . S
C809 O807 1.353 . S
C809 O808 1.286 . S
C809 C811 1.363 . S
C810 C800 1.465 . S
C810 U806 2.847 . S
C810 O824 1.249 . S
C810 O825 1.202 . S
C811 C809 1.363 . S
C811 C813 1.408 . S
C811 C816 1.342 . S
C812 C813 1.310 . S
C812 C815 1.461 . S
C812 H832 0.932 . S
C813 C811 1.408 . S
C813 C812 1.310 . S
C813 H833 0.930 . S
C814 C815 1.474 . S
C814 C816 1.285 . S
C814 H834 0.929 . S
C815 C812 1.461 . S
C815 C814 1.474 . S
C816 C811 1.342 . S
C816 C814 1.285 . S
C816 H835 0.930 . S
C817 C820 1.424 . S
C817 C822 1.245 . S
C817 C823 1.428 . S
C818 C821 1.260 . S
C818 C822 1.477 . S
C818 H836 0.932 . S
C819 C820 1.384 . S
C819 C821 1.479 . S
C819 H837 0.929 . S
C820 C817 1.424 . S
C820 C819 1.384 . S
C820 H838 0.928 . S
C821 C818 1.260 . S
C821 C819 1.479 . S
C822 C817 1.245 . S
C822 C818 1.477 . S
C822 H839 0.932 . S
C823 U806 2.882 . S
C823 C817 1.428 . S
C823 O826 1.301 . S
C823 O827 1.282 . S
O824 U806 2.441 . S
O824 C810 1.249 . S
O825 U806 2.420 . S
O825 C810 1.202 . S
O826 U806 2.455 . S
O826 C823 1.301 . S
O827 U806 2.449 . S
O827 C823 1.282 . S
H828 C801 0.931 . S
H829 C803 0.929 . S
H830 C804 0.930 . S
H831 C805 0.931 . S
H832 C812 0.932 . S
H833 C813 0.930 . S
H834 C814 0.929 . S
H835 C816 0.930 . S
H836 C818 0.932 . S
H837 C819 0.929 . S
H838 C820 0.928 . S
H839 C822 0.932 . S
C840 C841 1.262 1_655 S
C840 C845 1.479 . S
C840 C850 1.465 1_655 S
C841 C840 1.262 1_455 S
C841 C843 1.328 1_455 S
C841 H868 0.944 . S
C842 C843 1.395 . S
C842 C844 1.320 . S
C843 C841 1.328 1_655 S
C843 C842 1.395 . S
C843 H869 0.929 . S
C844 C842 1.320 . S
C844 C845 1.405 . S
C844 H870 0.930 . S
C845 C840 1.479 . S
C845 C844 1.405 . S
C845 H871 0.931 . S
U846 O847 2.454 1_455 S
U846 O848 2.458 . S
U846 C849 2.984 1_455 S
U846 C850 2.847 . S
U846 C863 2.882 . S
U846 O864 2.441 1_455 S
U846 O865 2.420 . S
U846 O866 2.455 . S
U846 O867 2.449 . S
O847 U846 2.454 1_655 S
O847 C849 1.353 . S
O848 U846 2.458 . S
O848 C849 1.286 1_455 S
C849 U846 2.984 1_655 S
C849 O847 1.353 . S
C849 O848 1.286 1_655 S
C849 C851 1.363 . S
C850 C840 1.465 1_455 S
C850 U846 2.847 . S
C850 O864 1.249 1_455 S
C850 O865 1.202 . S
C851 C849 1.363 . S
C851 C853 1.408 . S
C851 C856 1.342 . S
C852 C853 1.310 . S
C852 C855 1.461 . S
C852 H872 0.932 . S
C853 C851 1.408 . S
C853 C852 1.310 . S
C853 H873 0.930 . S
C854 C855 1.474 . S
C854 C856 1.285 . S
C854 H874 0.929 . S
C855 C852 1.461 . S
C855 C854 1.474 . S
C856 C851 1.342 . S
C856 C854 1.285 . S
C856 H875 0.930 . S
C857 C860 1.424 . S
C857 C862 1.245 . S
C857 C863 1.428 . S
C858 C861 1.260 . S
C858 C862 1.477 . S
C858 H876 0.932 . S
C859 C860 1.384 . S
C859 C861 1.479 . S
C859 H877 0.929 . S
C860 C857 1.424 . S
C860 C859 1.384 . S
C860 H878 0.928 . S
C861 C858 1.260 . S
C861 C859 1.479 . S
C862 C857 1.245 . S
C862 C858 1.477 . S
C862 H879 0.932 . S
C863 U846 2.882 . S
C863 C857 1.428 . S
C863 O866 1.301 . S
C863 O867 1.282 . S
O864 U846 2.441 1_655 S
O864 C850 1.249 1_655 S
O865 U846 2.420 . S
O865 C850 1.202 . S
O866 U846 2.455 . S
O866 C863 1.301 . S
O867 U846 2.449 . S
O867 C863 1.282 . S
H868 C841 0.944 . S
H869 C843 0.929 . S
H870 C844 0.930 . S
H871 C845 0.931 . S
H872 C852 0.932 . S
H873 C853 0.930 . S
H874 C854 0.929 . S
H875 C856 0.930 . S
H876 C858 0.932 . S
H877 C859 0.929 . S
H878 C860 0.928 . S
H879 C862 0.932 . S
C880 C881 1.264 . S
C880 C885 1.479 . S
C880 C890 1.465 . S
C881 C880 1.264 . S
C881 C883 1.339 . S
C881 H908 0.931 . S
C882 C883 1.395 . S
C882 C884 1.320 . S
C883 C881 1.339 . S
C883 C882 1.395 . S
C883 H909 0.929 . S
C884 C882 1.320 . S
C884 C885 1.405 . S
C884 H910 0.930 . S
C885 C880 1.479 . S
C885 C884 1.405 . S
C885 H911 0.931 . S
U886 O887 2.454 . S
U886 O888 2.458 . S
U886 C889 2.984 . S
U886 C890 2.847 . S
U886 C903 2.882 . S
U886 O904 2.441 . S
U886 O905 2.420 . S
U886 O906 2.455 . S
U886 O907 2.449 . S
O887 U886 2.454 . S
O887 C889 1.353 . S
O888 U886 2.458 . S
O888 C889 1.286 . S
C889 U886 2.984 . S
C889 O887 1.353 . S
C889 O888 1.286 . S
C889 C891 1.363 . S
C890 C880 1.465 . S
C890 U886 2.847 . S
C890 O904 1.249 . S
C890 O905 1.202 . S
C891 C889 1.363 . S
C891 C893 1.408 . S
C891 C896 1.342 . S
C892 C893 1.310 . S
C892 C895 1.461 . S
C892 H912 0.932 . S
C893 C891 1.408 . S
C893 C892 1.310 . S
C893 H913 0.930 . S
C894 C895 1.474 . S
C894 C896 1.285 . S
C894 H914 0.929 . S
C895 C892 1.461 . S
C895 C894 1.474 . S
C896 C891 1.342 . S
C896 C894 1.285 . S
C896 H915 0.930 . S
C897 C900 1.424 . S
C897 C902 1.245 . S
C897 C903 1.428 . S
C898 C901 1.260 . S
C898 C902 1.477 . S
C898 H916 0.932 . S
C899 C900 1.384 . S
C899 C901 1.479 . S
C899 H917 0.929 . S
C900 C897 1.424 . S
C900 C899 1.384 . S
C900 H918 0.928 . S
C901 C898 1.260 . S
C901 C899 1.479 . S
C902 C897 1.245 . S
C902 C898 1.477 . S
C902 H919 0.932 . S
C903 U886 2.882 . S
C903 C897 1.428 . S
C903 O906 1.301 . S
C903 O907 1.282 . S
O904 U886 2.441 . S
O904 C890 1.249 . S
O905 U886 2.420 . S
O905 C890 1.202 . S
O906 U886 2.455 . S
O906 C903 1.301 . S
O907 U886 2.449 . S
O907 C903 1.282 . S
H908 C881 0.931 . S
H909 C883 0.929 . S
H910 C884 0.930 . S
H911 C885 0.931 . S
H912 C892 0.932 . S
H913 C893 0.930 . S
H914 C894 0.929 . S
H915 C896 0.930 . S
H916 C898 0.932 . S
H917 C899 0.929 . S
H918 C900 0.928 . S
H919 C902 0.932 . S
C920 C921 1.264 . S
C920 C925 1.479 . S
C920 C930 1.465 . S
C921 C920 1.264 . S
C921 C923 1.339 . S
C921 H948 0.931 . S
C922 C923 1.395 . S
C922 C924 1.320 . S
C923 C921 1.339 . S
C923 C922 1.395 . S
C923 H949 0.929 . S
C924 C922 1.320 . S
C924 C925 1.405 . S
C924 H950 0.920 1_655 S
C925 C920 1.479 . S
C925 C924 1.405 . S
C925 H951 0.931 . S
U926 O927 2.454 . S
U926 O928 2.458 . S
U926 C929 2.984 . S
U926 C930 2.847 . S
U926 C943 2.882 . S
U926 O944 2.441 . S
U926 O945 2.420 . S
U926 O946 2.455 . S
U926 O947 2.449 . S
O927 U926 2.454 . S
O927 C929 1.353 . S
O928 U926 2.458 . S
O928 C929 1.286 . S
C929 U926 2.984 . S
C929 O927 1.353 . S
C929 O928 1.286 . S
C929 C931 1.363 . S
C930 C920 1.465 . S
C930 U926 2.847 . S
C930 O944 1.249 . S
C930 O945 1.202 . S
C931 C929 1.363 . S
C931 C933 1.408 . S
C931 C936 1.342 . S
C932 C933 1.310 . S
C932 C935 1.459 . S
C932 H952 0.932 . S
C933 C931 1.408 . S
C933 C932 1.310 . S
C933 H953 0.930 . S
C934 C935 1.475 1_455 S
C934 C936 1.285 1_455 S
C934 H954 0.930 . S
C935 C932 1.459 . S
C935 C934 1.475 1_655 S
C936 C931 1.342 . S
C936 C934 1.285 1_655 S
C936 H955 0.929 . S
C937 C940 1.424 . S
C937 C942 1.245 . S
C937 C943 1.428 . S
C938 C941 1.260 . S
C938 C942 1.477 . S
C938 H956 0.932 . S
C939 C940 1.384 . S
C939 C941 1.479 . S
C939 H957 0.929 . S
C940 C937 1.424 . S
C940 C939 1.384 . S
C940 H958 0.928 . S
C941 C938 1.260 . S
C941 C939 1.479 . S
C942 C937 1.245 . S
C942 C938 1.477 . S
C942 H959 0.932 . S
C943 U926 2.882 . S
C943 C937 1.428 . S
C943 O946 1.301 . S
C943 O947 1.282 . S
O944 U926 2.441 . S
O944 C930 1.249 . S
O945 U926 2.420 . S
O945 C930 1.202 . S
O946 U926 2.455 . S
O946 C943 1.301 . S
O947 U926 2.449 . S
O947 C943 1.282 . S
H948 C921 0.931 . S
H949 C923 0.929 . S
H950 C924 0.920 1_455 S
H951 C925 0.931 . S
H952 C932 0.932 . S
H953 C933 0.930 . S
H954 C934 0.930 . S
H955 C936 0.929 . S
H956 C938 0.932 . S
H957 C939 0.929 . S
H958 C940 0.928 . S
H959 C942 0.932 . S
C960 N961 1.317 . S
C960 N962 1.348 . S
C960 C963 1.485 . S
N961 C960 1.317 . S
N961 N965 1.370 . S
N962 C960 1.348 . S
N962 C964 1.346 . S
C963 C960 1.485 . S
C963 H967 0.960 . S
C963 H968 0.961 . S
C963 H969 0.960 . S
C964 N962 1.346 . S
C964 N965 1.307 . S
C964 C966 1.486 . S
N965 N961 1.370 . S
N965 C964 1.307 . S
C966 C964 1.486 . S
C966 H970 0.960 . S
C966 H971 0.960 . S
C966 H972 0.959 . S
H967 C963 0.960 . S
H968 C963 0.961 . S
H969 C963 0.960 . S
H970 C966 0.960 . S
H971 C966 0.960 . S
H972 C966 0.959 . S
C973 N974 1.317 . S
C973 N975 1.348 . S
C973 C976 1.485 . S
N974 C973 1.317 . S
N974 N978 1.370 1_554 S
N975 C973 1.348 . S
N975 C977 1.346 1_554 S
C976 C973 1.485 . S
C976 H980 0.960 . S
C976 H981 0.961 . S
C976 H982 0.960 . S
C977 N975 1.346 1_556 S
C977 N978 1.307 . S
C977 C979 1.486 . S
N978 N974 1.370 1_556 S
N978 C977 1.307 . S
C979 C977 1.486 . S
C979 H983 0.960 . S
C979 H984 0.960 . S
C979 H985 0.959 . S
H980 C976 0.960 . S
H981 C976 0.961 . S
H982 C976 0.960 . S
H983 C979 0.960 . S
H984 C979 0.960 . S
H985 C979 0.959 . S
C986 N987 1.317 . S
C986 N988 1.348 1_565 S
C986 C989 1.485 . S
N987 C986 1.317 . S
N987 N991 1.359 1_565 S
N988 C986 1.348 1_545 S
N988 C990 1.346 . S
C989 C986 1.485 . S
C989 H993 0.960 . S
C989 H994 0.967 1_565 S
C989 H995 0.960 . S
C990 N988 1.346 . S
C990 N991 1.326 . S
C990 C992 1.486 . S
N991 N987 1.359 1_545 S
N991 C990 1.326 . S
C992 C990 1.486 . S
C992 H996 0.960 . S
C992 H997 0.960 . S
C992 H998 0.959 . S
H993 C989 0.960 . S
H994 C989 0.967 1_545 S
H995 C989 0.960 . S
H996 C992 0.960 . S
H997 C992 0.960 . S
H998 C992 0.959 . S
C999 N1000 1.317 . S
C999 N1001 1.348 . S
C999 C1002 1.485 . S
N1000 C999 1.317 . S
N1000 N1004 1.370 1_556 S
N1001 C999 1.348 . S
N1001 C1003 1.346 1_556 S
C1002 C999 1.485 . S
C1002 H1006 0.960 . S
C1002 H1007 0.961 . S
C1002 H1008 0.960 . S
C1003 N1001 1.346 1_554 S
C1003 N1004 1.307 . S
C1003 C1005 1.486 . S
N1004 N1000 1.370 1_554 S
N1004 C1003 1.307 . S
C1005 C1003 1.486 . S
C1005 H1009 0.960 . S
C1005 H1010 0.960 . S
C1005 H1011 0.959 . S
H1006 C1002 0.960 . S
H1007 C1002 0.961 . S
H1008 C1002 0.960 . S
H1009 C1005 0.960 . S
H1010 C1005 0.960 . S
H1011 C1005 0.959 . S
C1012 N1013 1.317 . S
C1012 N1014 1.348 . S
C1012 C1015 1.485 . S
N1013 C1012 1.317 . S
N1013 N1017 1.370 . S
N1014 C1012 1.348 . S
N1014 C1016 1.346 . S
C1015 C1012 1.485 . S
C1015 H1019 0.960 . S
C1015 H1020 0.961 . S
C1015 H1021 0.960 . S
C1016 N1014 1.346 . S
C1016 N1017 1.307 . S
C1016 C1018 1.486 . S
N1017 N1013 1.370 . S
N1017 C1016 1.307 . S
C1018 C1016 1.486 . S
C1018 H1022 0.960 . S
C1018 H1023 0.960 . S
C1018 H1024 0.959 . S
H1019 C1015 0.960 . S
H1020 C1015 0.961 . S
H1021 C1015 0.960 . S
H1022 C1018 0.960 . S
H1023 C1018 0.960 . S
H1024 C1018 0.959 . S
C1025 N1026 1.317 . S
C1025 N1027 1.348 . S
C1025 C1028 1.485 . S
N1026 C1025 1.317 . S
N1026 N1030 1.370 1_655 S
N1027 C1025 1.348 . S
N1027 C1029 1.346 1_655 S
C1028 C1025 1.485 . S
C1028 H1032 0.960 . S
C1028 H1033 0.961 . S
C1028 H1034 0.960 . S
C1029 N1027 1.346 1_455 S
C1029 N1030 1.307 . S
C1029 C1031 1.486 . S
N1030 N1026 1.370 1_455 S
N1030 C1029 1.307 . S
C1031 C1029 1.486 . S
C1031 H1035 0.960 . S
C1031 H1036 0.960 . S
C1031 H1037 0.959 . S
H1032 C1028 0.960 . S
H1033 C1028 0.961 . S
H1034 C1028 0.960 . S
H1035 C1031 0.960 . S
H1036 C1031 0.960 . S
H1037 C1031 0.959 . S
C1038 N1039 1.317 . S
C1038 N1040 1.348 . S
C1038 C1041 1.485 . S
N1039 C1038 1.317 . S
N1039 N1043 1.370 1_455 S
N1040 C1038 1.348 . S
N1040 C1042 1.346 1_455 S
C1041 C1038 1.485 . S
C1041 H1045 0.960 . S
C1041 H1046 0.961 . S
C1041 H1047 0.960 . S
C1042 N1040 1.346 1_655 S
C1042 N1043 1.307 . S
C1042 C1044 1.486 . S
N1043 N1039 1.370 1_655 S
N1043 C1042 1.307 . S
C1044 C1042 1.486 . S
C1044 H1048 0.960 . S
C1044 H1049 0.960 . S
C1044 H1050 0.959 . S
H1045 C1041 0.960 . S
H1046 C1041 0.961 . S
H1047 C1041 0.960 . S
H1048 C1044 0.960 . S
H1049 C1044 0.960 . S
H1050 C1044 0.959 . S
C1051 N1052 1.317 . S
C1051 N1053 1.348 1_556 S
C1051 C1054 1.485 . S
N1052 C1051 1.317 . S
N1052 N1056 1.359 1_556 S
N1053 C1051 1.348 1_554 S
N1053 C1055 1.346 . S
C1054 C1051 1.485 . S
C1054 H1058 0.960 . S
C1054 H1059 0.967 1_556 S
C1054 H1060 0.960 . S
C1055 N1053 1.346 . S
C1055 N1056 1.326 . S
C1055 C1057 1.486 . S
N1056 N1052 1.359 1_554 S
N1056 C1055 1.326 . S
C1057 C1055 1.486 . S
C1057 H1061 0.960 . S
C1057 H1062 0.960 . S
C1057 H1063 0.959 . S
H1058 C1054 0.960 . S
H1059 C1054 0.967 1_554 S
H1060 C1054 0.960 . S
H1061 C1057 0.960 . S
H1062 C1057 0.960 . S
H1063 C1057 0.959 . S
C1064 N1065 1.317 . S
C1064 N1066 1.348 . S
C1064 C1067 1.485 . S
N1065 C1064 1.317 . S
N1065 N1069 1.370 . S
N1066 C1064 1.348 . S
N1066 C1068 1.346 . S
C1067 C1064 1.485 . S
C1067 H1071 0.960 . S
C1067 H1072 0.961 . S
C1067 H1073 0.960 . S
C1068 N1066 1.346 . S
C1068 N1069 1.307 . S
C1068 C1070 1.486 . S
N1069 N1065 1.370 . S
N1069 C1068 1.307 . S
C1070 C1068 1.486 . S
C1070 H1074 0.960 . S
C1070 H1075 0.960 . S
C1070 H1076 0.959 . S
H1071 C1067 0.960 . S
H1072 C1067 0.961 . S
H1073 C1067 0.960 . S
H1074 C1070 0.960 . S
H1075 C1070 0.960 . S
H1076 C1070 0.959 . S
C1077 N1078 1.317 . S
C1077 N1079 1.348 . S
C1077 C1080 1.485 . S
N1078 C1077 1.317 . S
N1078 N1082 1.370 1_565 S
N1079 C1077 1.348 . S
N1079 C1081 1.346 1_565 S
C1080 C1077 1.485 . S
C1080 H1084 0.960 . S
C1080 H1085 0.961 . S
C1080 H1086 0.960 . S
C1081 N1079 1.346 1_545 S
C1081 N1082 1.307 . S
C1081 C1083 1.486 . S
N1082 N1078 1.370 1_545 S
N1082 C1081 1.307 . S
C1083 C1081 1.486 . S
C1083 H1087 0.960 . S
C1083 H1088 0.960 . S
C1083 H1089 0.959 . S
H1084 C1080 0.960 . S
H1085 C1080 0.961 . S
H1086 C1080 0.960 . S
H1087 C1083 0.960 . S
H1088 C1083 0.960 . S
H1089 C1083 0.959 . S
C1090 N1091 1.317 . S
C1090 N1092 1.348 . S
C1090 C1093 1.485 . S
N1091 C1090 1.317 . S
N1091 N1095 1.370 1_545 S
N1092 C1090 1.348 . S
N1092 C1094 1.346 1_545 S
C1093 C1090 1.485 . S
C1093 H1097 0.960 . S
C1093 H1098 0.961 . S
C1093 H1099 0.960 . S
C1094 N1092 1.346 1_565 S
C1094 N1095 1.307 . S
C1094 C1096 1.486 . S
N1095 N1091 1.370 1_565 S
N1095 C1094 1.307 . S
C1096 C1094 1.486 . S
C1096 H1100 0.960 . S
C1096 H1101 0.960 . S
C1096 H1102 0.959 . S
H1097 C1093 0.960 . S
H1098 C1093 0.961 . S
H1099 C1093 0.960 . S
H1100 C1096 0.960 . S
H1101 C1096 0.960 . S
H1102 C1096 0.959 . S
C1103 N1104 1.317 . S
C1103 N1105 1.348 1_655 S
C1103 C1106 1.485 . S
N1104 C1103 1.317 . S
N1104 N1108 1.359 1_655 S
N1105 C1103 1.348 1_455 S
N1105 C1107 1.346 . S
C1106 C1103 1.485 . S
C1106 H1110 0.960 . S
C1106 H1111 0.967 1_655 S
C1106 H1112 0.960 . S
C1107 N1105 1.346 . S
C1107 N1108 1.326 . S
C1107 C1109 1.486 . S
N1108 N1104 1.359 1_455 S
N1108 C1107 1.326 . S
C1109 C1107 1.486 . S
C1109 H1113 0.960 . S
C1109 H1114 0.960 . S
C1109 H1115 0.959 . S
H1110 C1106 0.960 . S
H1111 C1106 0.967 1_455 S
H1112 C1106 0.960 . S
H1113 C1109 0.960 . S
H1114 C1109 0.960 . S
H1115 C1109 0.959 . S
C1116 N1117 1.317 . S
C1116 N1118 1.348 . S
C1116 C1119 1.485 . S
N1117 C1116 1.317 . S
N1117 N1121 1.370 . S
N1118 C1116 1.348 . S
N1118 C1120 1.346 . S
C1119 C1116 1.485 . S
C1119 H1123 0.960 . S
C1119 H1124 0.961 . S
C1119 H1125 0.960 . S
C1120 N1118 1.346 . S
C1120 N1121 1.307 . S
C1120 C1122 1.486 . S
N1121 N1117 1.370 . S
N1121 C1120 1.307 . S
C1122 C1120 1.486 . S
C1122 H1126 0.960 . S
C1122 H1127 0.960 . S
C1122 H1128 0.959 . S
H1123 C1119 0.960 . S
H1124 C1119 0.961 . S
H1125 C1119 0.960 . S
H1126 C1122 0.960 . S
H1127 C1122 0.960 . S
H1128 C1122 0.959 . S
C1129 N1130 1.317 . S
C1129 N1131 1.348 . S
C1129 C1132 1.485 . S
N1130 C1129 1.317 . S
N1130 N1134 1.370 1_556 S
N1131 C1129 1.348 . S
N1131 C1133 1.346 1_556 S
C1132 C1129 1.485 . S
C1132 H1136 0.960 . S
C1132 H1137 0.961 . S
C1132 H1138 0.960 . S
C1133 N1131 1.346 1_554 S
C1133 N1134 1.307 . S
C1133 C1135 1.486 . S
N1134 N1130 1.370 1_554 S
N1134 C1133 1.307 . S
C1135 C1133 1.486 . S
C1135 H1139 0.960 . S
C1135 H1140 0.960 . S
C1135 H1141 0.959 . S
H1136 C1132 0.960 . S
H1137 C1132 0.961 . S
H1138 C1132 0.960 . S
H1139 C1135 0.960 . S
H1140 C1135 0.960 . S
H1141 C1135 0.959 . S
C1142 N1143 1.317 . S
C1142 N1144 1.348 1_545 S
C1142 C1145 1.485 . S
N1143 C1142 1.317 . S
N1143 N1147 1.362 1_545 S
N1144 C1142 1.348 1_565 S
N1144 C1146 1.346 . S
C1145 C1142 1.485 . S
C1145 H1149 0.960 . S
C1145 H1150 0.961 . S
C1145 H1151 0.960 . S
C1146 N1144 1.346 . S
C1146 N1147 1.321 . S
C1146 C1148 1.486 . S
N1147 N1143 1.362 1_565 S
N1147 C1146 1.321 . S
C1148 C1146 1.486 . S
C1148 H1152 0.960 . S
C1148 H1153 0.960 . S
C1148 H1154 0.959 . S
H1149 C1145 0.960 . S
H1150 C1145 0.961 . S
H1151 C1145 0.960 . S
H1152 C1148 0.960 . S
H1153 C1148 0.960 . S
H1154 C1148 0.959 . S
C1155 N1156 1.317 . S
C1155 N1157 1.348 . S
C1155 C1158 1.485 . S
N1156 C1155 1.317 . S
N1156 N1160 1.370 1_554 S
N1157 C1155 1.348 . S
N1157 C1159 1.346 1_554 S
C1158 C1155 1.485 . S
C1158 H1162 0.960 . S
C1158 H1163 0.961 . S
C1158 H1164 0.960 . S
C1159 N1157 1.346 1_556 S
C1159 N1160 1.307 . S
C1159 C1161 1.486 . S
N1160 N1156 1.370 1_556 S
N1160 C1159 1.307 . S
C1161 C1159 1.486 . S
C1161 H1165 0.960 . S
C1161 H1166 0.960 . S
C1161 H1167 0.959 . S
H1162 C1158 0.960 . S
H1163 C1158 0.961 . S
H1164 C1158 0.960 . S
H1165 C1161 0.960 . S
H1166 C1161 0.960 . S
H1167 C1161 0.959 . S
C1168 N1169 1.317 . S
C1168 N1170 1.348 . S
C1168 C1171 1.485 . S
N1169 C1168 1.317 . S
N1169 N1173 1.370 . S
N1170 C1168 1.348 . S
N1170 C1172 1.346 . S
C1171 C1168 1.485 . S
C1171 H1175 0.960 . S
C1171 H1176 0.961 . S
C1171 H1177 0.960 . S
C1172 N1170 1.346 . S
C1172 N1173 1.307 . S
C1172 C1174 1.486 . S
N1173 N1169 1.370 . S
N1173 C1172 1.307 . S
C1174 C1172 1.486 . S
C1174 H1178 0.960 . S
C1174 H1179 0.960 . S
C1174 H1180 0.959 . S
H1175 C1171 0.960 . S
H1176 C1171 0.961 . S
H1177 C1171 0.960 . S
H1178 C1174 0.960 . S
H1179 C1174 0.960 . S
H1180 C1174 0.959 . S
C1181 N1182 1.317 . S
C1181 N1183 1.348 . S
C1181 C1184 1.485 . S
N1182 C1181 1.317 . S
N1182 N1186 1.370 1_455 S
N1183 C1181 1.348 . S
N1183 C1185 1.346 1_455 S
C1184 C1181 1.485 . S
C1184 H1188 0.960 . S
C1184 H1189 0.961 . S
C1184 H1190 0.960 . S
C1185 N1183 1.346 1_655 S
C1185 N1186 1.307 . S
C1185 C1187 1.486 . S
N1186 N1182 1.370 1_655 S
N1186 C1185 1.307 . S
C1187 C1185 1.486 . S
C1187 H1191 0.960 . S
C1187 H1192 0.960 . S
C1187 H1193 0.959 . S
H1188 C1184 0.960 . S
H1189 C1184 0.961 . S
H1190 C1184 0.960 . S
H1191 C1187 0.960 . S
H1192 C1187 0.960 . S
H1193 C1187 0.959 . S
C1194 N1195 1.317 . S
C1194 N1196 1.348 . S
C1194 C1197 1.485 . S
N1195 C1194 1.317 . S
N1195 N1199 1.370 1_655 S
N1196 C1194 1.348 . S
N1196 C1198 1.346 1_655 S
C1197 C1194 1.485 . S
C1197 H1201 0.960 . S
C1197 H1202 0.961 . S
C1197 H1203 0.960 . S
C1198 N1196 1.346 1_455 S
C1198 N1199 1.307 . S
C1198 C1200 1.486 . S
N1199 N1195 1.370 1_455 S
N1199 C1198 1.307 . S
C1200 C1198 1.486 . S
C1200 H1204 0.960 . S
C1200 H1205 0.960 . S
C1200 H1206 0.959 . S
H1201 C1197 0.960 . S
H1202 C1197 0.961 . S
H1203 C1197 0.960 . S
H1204 C1200 0.960 . S
H1205 C1200 0.960 . S
H1206 C1200 0.959 . S
C1207 N1208 1.317 . S
C1207 N1209 1.348 1_554 S
C1207 C1210 1.485 . S
N1208 C1207 1.317 . S
N1208 N1212 1.362 1_554 S
N1209 C1207 1.348 1_556 S
N1209 C1211 1.346 . S
C1210 C1207 1.485 . S
C1210 H1214 0.960 . S
C1210 H1215 0.961 . S
C1210 H1216 0.960 . S
C1211 N1209 1.346 . S
C1211 N1212 1.321 . S
C1211 C1213 1.486 . S
N1212 N1208 1.362 1_556 S
N1212 C1211 1.321 . S
C1213 C1211 1.486 . S
C1213 H1217 0.960 . S
C1213 H1218 0.960 . S
C1213 H1219 0.959 . S
H1214 C1210 0.960 . S
H1215 C1210 0.961 . S
H1216 C1210 0.960 . S
H1217 C1213 0.960 . S
H1218 C1213 0.960 . S
H1219 C1213 0.959 . S
C1220 N1221 1.317 . S
C1220 N1222 1.348 . S
C1220 C1223 1.485 . S
N1221 C1220 1.317 . S
N1221 N1225 1.370 . S
N1222 C1220 1.348 . S
N1222 C1224 1.346 . S
C1223 C1220 1.485 . S
C1223 H1227 0.960 . S
C1223 H1228 0.961 . S
C1223 H1229 0.960 . S
C1224 N1222 1.346 . S
C1224 N1225 1.307 . S
C1224 C1226 1.486 . S
N1225 N1221 1.370 . S
N1225 C1224 1.307 . S
C1226 C1224 1.486 . S
C1226 H1230 0.960 . S
C1226 H1231 0.960 . S
C1226 H1232 0.959 . S
H1227 C1223 0.960 . S
H1228 C1223 0.961 . S
H1229 C1223 0.960 . S
H1230 C1226 0.960 . S
H1231 C1226 0.960 . S
H1232 C1226 0.959 . S
C1233 N1234 1.317 . S
C1233 N1235 1.348 . S
C1233 C1236 1.485 . S
N1234 C1233 1.317 . S
N1234 N1238 1.370 1_545 S
N1235 C1233 1.348 . S
N1235 C1237 1.346 1_545 S
C1236 C1233 1.485 . S
C1236 H1240 0.960 . S
C1236 H1241 0.961 . S
C1236 H1242 0.960 . S
C1237 N1235 1.346 1_565 S
C1237 N1238 1.307 . S
C1237 C1239 1.486 . S
N1238 N1234 1.370 1_565 S
N1238 C1237 1.307 . S
C1239 C1237 1.486 . S
C1239 H1243 0.960 . S
C1239 H1244 0.960 . S
C1239 H1245 0.959 . S
H1240 C1236 0.960 . S
H1241 C1236 0.961 . S
H1242 C1236 0.960 . S
H1243 C1239 0.960 . S
H1244 C1239 0.960 . S
H1245 C1239 0.959 . S
C1246 N1247 1.317 . S
C1246 N1248 1.348 . S
C1246 C1249 1.485 . S
N1247 C1246 1.317 . S
N1247 N1251 1.370 1_565 S
N1248 C1246 1.348 . S
N1248 C1250 1.346 1_565 S
C1249 C1246 1.485 . S
C1249 H1253 0.960 . S
C1249 H1254 0.961 . S
C1249 H1255 0.960 . S
C1250 N1248 1.346 1_545 S
C1250 N1251 1.307 . S
C1250 C1252 1.486 . S
N1251 N1247 1.370 1_545 S
N1251 C1250 1.307 . S
C1252 C1250 1.486 . S
C1252 H1256 0.960 . S
C1252 H1257 0.960 . S
C1252 H1258 0.959 . S
H1253 C1249 0.960 . S
H1254 C1249 0.961 . S
H1255 C1249 0.960 . S
H1256 C1252 0.960 . S
H1257 C1252 0.960 . S
H1258 C1252 0.959 . S
C1259 N1260 1.317 . S
C1259 N1261 1.348 1_455 S
C1259 C1262 1.485 . S
N1260 C1259 1.317 . S
N1260 N1264 1.362 1_455 S
N1261 C1259 1.348 1_655 S
N1261 C1263 1.346 . S
C1262 C1259 1.485 . S
C1262 H1266 0.960 . S
C1262 H1267 0.961 . S
C1262 H1268 0.960 . S
C1263 N1261 1.346 . S
C1263 N1264 1.321 . S
C1263 C1265 1.486 . S
N1264 N1260 1.362 1_655 S
N1264 C1263 1.321 . S
C1265 C1263 1.486 . S
C1265 H1269 0.960 . S
C1265 H1270 0.960 . S
C1265 H1271 0.959 . S
H1266 C1262 0.960 . S
H1267 C1262 0.961 . S
H1268 C1262 0.960 . S
H1269 C1265 0.960 . S
H1270 C1265 0.960 . S
H1271 C1265 0.959 . S
H1272 C1280 0.929 . S
H1273 C1282 0.930 . S
H1274 C1284 0.930 . S
H1275 C1287 0.929 . S
H1276 C1290 0.930 . S
H1277 C1292 0.960 . S
H1278 C1292 0.960 . S
H1279 C1292 0.960 . S
C1280 H1272 0.929 . S
C1280 C1281 1.377 . S
C1280 C1282 1.384 . S
C1281 C1280 1.377 . S
C1281 C1287 1.390 . S
C1282 H1273 0.930 . S
C1282 C1280 1.384 . S
C1282 C1283 1.372 . S
C1283 C1282 1.372 . S
C1283 C1284 1.400 . S
C1283 C1288 1.490 . S
C1284 H1274 0.930 . S
C1284 C1283 1.400 . S
C1284 C1287 1.386 . S
H1285 C1301 0.930 . S
H1286 C1302 0.931 . S
C1287 H1275 0.929 . S
C1287 C1281 1.390 . S
C1287 C1284 1.386 . S
C1288 C1283 1.490 . S
C1288 C1290 1.395 . S
C1288 C1291 1.403 . S
H1289 C1295 0.930 . S
C1290 H1276 0.930 . S
C1290 C1288 1.395 . S
C1290 C1293 1.403 . S
C1291 C1288 1.403 . S
C1291 C1292 1.524 . S
C1291 C1295 1.400 . S
C1292 H1277 0.960 . S
C1292 H1278 0.960 . S
C1292 H1279 0.960 . S
C1292 C1291 1.524 . S
C1293 C1290 1.403 . S
C1293 C1294 1.392 . S
C1293 C1297 1.495 . S
C1294 C1293 1.392 . S
C1294 C1295 1.385 . S
C1294 C1296 1.478 . S
C1295 H1289 0.930 . S
C1295 C1291 1.400 . S
C1295 C1294 1.385 . S
C1296 C1294 1.478 . S
C1296 C1298 1.381 . S
C1296 C1302 1.383 . S
C1297 C1293 1.495 . S
C1297 H1303 0.959 . S
C1297 H1304 0.961 . S
C1297 H1305 0.960 . S
C1298 C1296 1.381 . S
C1298 C1299 1.394 . S
C1298 H1306 0.930 . S
C1299 C1298 1.394 . S
C1299 C1300 1.383 . S
C1299 H1307 0.929 . S
C1300 C1299 1.383 . S
C1300 C1301 1.377 . S
C1301 H1285 0.930 . S
C1301 C1300 1.377 . S
C1301 C1302 1.379 . S
C1302 H1286 0.931 . S
C1302 C1296 1.383 . S
C1302 C1301 1.379 . S
H1303 C1297 0.959 . S
H1304 C1297 0.961 . S
H1305 C1297 0.960 . S
H1306 C1298 0.930 . S
H1307 C1299 0.929 . S
H1308 C1316 0.929 . S
H1309 C1318 0.930 . S
H1310 C1320 0.930 . S
H1311 C1323 0.929 . S
H1312 C1326 0.930 . S
H1313 C1328 0.960 . S
H1314 C1328 0.960 . S
H1315 C1328 0.960 . S
C1316 H1308 0.929 . S
C1316 C1317 1.377 . S
C1316 C1318 1.384 . S
C1317 C1316 1.377 . S
C1317 C1323 1.390 . S
C1318 H1309 0.930 . S
C1318 C1316 1.384 . S
C1318 C1319 1.372 . S
C1319 C1318 1.372 . S
C1319 C1320 1.400 . S
C1319 C1324 1.490 . S
C1320 H1310 0.930 . S
C1320 C1319 1.400 . S
C1320 C1323 1.386 . S
H1321 C1337 0.930 . S
H1322 C1338 0.931 . S
C1323 H1311 0.929 . S
C1323 C1317 1.390 . S
C1323 C1320 1.386 . S
C1324 C1319 1.490 . S
C1324 C1326 1.395 . S
C1324 C1327 1.403 . S
H1325 C1331 0.930 . S
C1326 H1312 0.930 . S
C1326 C1324 1.395 . S
C1326 C1329 1.403 . S
C1327 C1324 1.403 . S
C1327 C1328 1.524 . S
C1327 C1331 1.400 . S
C1328 H1313 0.960 . S
C1328 H1314 0.960 . S
C1328 H1315 0.960 . S
C1328 C1327 1.524 . S
C1329 C1326 1.403 . S
C1329 C1330 1.392 . S
C1329 C1333 1.495 . S
C1330 C1329 1.392 . S
C1330 C1331 1.385 . S
C1330 C1332 1.478 . S
C1331 H1325 0.930 . S
C1331 C1327 1.400 . S
C1331 C1330 1.385 . S
C1332 C1330 1.478 . S
C1332 C1334 1.381 . S
C1332 C1338 1.383 . S
C1333 C1329 1.495 . S
C1333 H1339 0.959 . S
C1333 H1340 0.961 . S
C1333 H1341 0.960 . S
C1334 C1332 1.381 . S
C1334 C1335 1.394 . S
C1334 H1342 0.930 . S
C1335 C1334 1.394 . S
C1335 C1336 1.383 . S
C1335 H1343 0.929 . S
C1336 C1335 1.383 . S
C1336 C1337 1.377 . S
C1337 H1321 0.930 . S
C1337 C1336 1.377 . S
C1337 C1338 1.379 . S
C1338 H1322 0.931 . S
C1338 C1332 1.383 . S
C1338 C1337 1.379 . S
H1339 C1333 0.959 . S
H1340 C1333 0.961 . S
H1341 C1333 0.960 . S
H1342 C1334 0.930 . S
H1343 C1335 0.929 . S
H1344 C1352 0.929 . S
H1345 C1354 0.930 . S
H1346 C1356 0.930 . S
H1347 C1359 0.929 . S
H1348 C1362 0.930 . S
H1349 C1364 0.960 . S
H1350 C1364 0.960 . S
H1351 C1364 0.960 . S
C1352 H1344 0.929 . S
C1352 C1353 1.378 1_565 S
C1352 C1354 1.384 . S
C1353 C1352 1.378 1_545 S
C1353 C1359 1.389 . S
C1354 H1345 0.930 . S
C1354 C1352 1.384 . S
C1354 C1355 1.372 . S
C1355 C1354 1.372 . S
C1355 C1356 1.400 1_565 S
C1355 C1360 1.490 . S
C1356 H1346 0.930 . S
C1356 C1355 1.400 1_545 S
C1356 C1359 1.386 . S
H1357 C1373 0.913 1_545 S
H1358 C1374 0.931 . S
C1359 H1347 0.929 . S
C1359 C1353 1.389 . S
C1359 C1356 1.386 . S
C1360 C1355 1.490 . S
C1360 C1362 1.395 1_565 S
C1360 C1363 1.403 . S
H1361 C1367 0.930 . S
C1362 H1348 0.930 . S
C1362 C1360 1.395 1_545 S
C1362 C1365 1.403 . S
C1363 C1360 1.403 . S
C1363 C1364 1.524 . S
C1363 C1367 1.400 . S
C1364 H1349 0.960 . S
C1364 H1350 0.960 . S
C1364 H1351 0.960 . S
C1364 C1363 1.524 . S
C1365 C1362 1.403 . S
C1365 C1366 1.392 1_545 S
C1365 C1369 1.495 . S
C1366 C1365 1.392 1_565 S
C1366 C1367 1.385 . S
C1366 C1368 1.478 . S
C1367 H1361 0.930 . S
C1367 C1363 1.400 . S
C1367 C1366 1.385 . S
C1368 C1366 1.478 . S
C1368 C1370 1.381 . S
C1368 C1374 1.383 1_565 S
C1369 C1365 1.495 . S
C1369 H1375 0.959 . S
C1369 H1376 0.961 . S
C1369 H1377 0.960 . S
C1370 C1368 1.381 . S
C1370 C1371 1.394 . S
C1370 H1378 0.930 . S
C1371 C1370 1.394 . S
C1371 C1372 1.383 . S
C1371 H1379 0.929 . S
C1372 C1371 1.383 . S
C1372 C1373 1.395 . S
C1373 H1357 0.913 1_565 S
C1373 C1372 1.395 . S
C1373 C1374 1.379 1_565 S
C1374 H1358 0.931 . S
C1374 C1368 1.383 1_545 S
C1374 C1373 1.379 1_545 S
H1375 C1369 0.959 . S
H1376 C1369 0.961 . S
H1377 C1369 0.960 . S
H1378 C1370 0.930 . S
H1379 C1371 0.929 . S
H1380 C1388 0.929 1_565 S
H1381 C1390 0.930 1_565 S
H1382 C1392 0.930 . S
H1383 C1395 0.929 . S
H1384 C1398 0.930 1_655 S
H1385 C1400 0.960 . S
H1386 C1400 0.960 . S
H1387 C1400 0.963 1_655 S
C1388 H1380 0.929 1_545 S
C1388 C1389 1.377 . S
C1388 C1390 1.384 . S
C1389 C1388 1.377 . S
C1389 C1395 1.390 . S
C1390 H1381 0.930 1_545 S
C1390 C1388 1.384 . S
C1390 C1391 1.372 . S
C1391 C1390 1.372 . S
C1391 C1392 1.400 . S
C1391 C1396 1.490 . S
C1392 H1382 0.930 . S
C1392 C1391 1.400 . S
C1392 C1395 1.386 . S
H1393 C1409 0.930 . S
H1394 C1410 0.931 . S
C1395 H1383 0.929 . S
C1395 C1389 1.390 . S
C1395 C1392 1.386 . S
C1396 C1391 1.490 . S
C1396 C1398 1.395 1_645 S
C1396 C1399 1.403 1_655 S
H1397 C1403 0.930 . S
C1398 H1384 0.930 1_455 S
C1398 C1396 1.395 1_465 S
C1398 C1401 1.403 . S
C1399 C1396 1.403 1_455 S
C1399 C1400 1.524 . S
C1399 C1403 1.400 . S
C1400 H1385 0.960 . S
C1400 H1386 0.960 . S
C1400 H1387 0.963 1_455 S
C1400 C1399 1.524 . S
C1401 C1398 1.403 . S
C1401 C1402 1.392 1_565 S
C1401 C1405 1.495 . S
C1402 C1401 1.392 1_545 S
C1402 C1403 1.385 . S
C1402 C1404 1.478 . S
C1403 H1397 0.930 . S
C1403 C1399 1.400 . S
C1403 C1402 1.385 . S
C1404 C1402 1.478 . S
C1404 C1406 1.381 1_545 S
C1404 C1410 1.383 . S
C1405 C1401 1.495 . S
C1405 H1411 0.959 . S
C1405 H1412 0.961 . S
C1405 H1413 0.960 . S
C1406 C1404 1.381 1_565 S
C1406 C1407 1.394 . S
C1406 H1414 0.930 . S
C1407 C1406 1.394 . S
C1407 C1408 1.383 1_565 S
C1407 H1415 0.929 . S
C1408 C1407 1.383 1_545 S
C1408 C1409 1.377 . S
C1409 H1393 0.930 . S
C1409 C1408 1.377 . S
C1409 C1410 1.379 . S
C1410 H1394 0.931 . S
C1410 C1404 1.383 . S
C1410 C1409 1.379 . S
H1411 C1405 0.959 . S
H1412 C1405 0.961 . S
H1413 C1405 0.960 . S
H1414 C1406 0.930 . S
H1415 C1407 0.929 . S
H1416 C1424 0.929 . S
H1417 C1426 0.930 . S
H1418 C1428 0.930 . S
H1419 C1431 0.929 . S
H1420 C1434 0.930 . S
H1421 C1436 0.960 . S
H1422 C1436 0.960 . S
H1423 C1436 0.960 . S
C1424 H1416 0.929 . S
C1424 C1425 1.377 . S
C1424 C1426 1.384 . S
C1425 C1424 1.377 . S
C1425 C1431 1.390 . S
C1426 H1417 0.930 . S
C1426 C1424 1.384 . S
C1426 C1427 1.372 . S
C1427 C1426 1.372 . S
C1427 C1428 1.400 . S
C1427 C1432 1.490 . S
C1428 H1418 0.930 . S
C1428 C1427 1.400 . S
C1428 C1431 1.386 . S
H1429 C1445 0.930 . S
H1430 C1446 0.931 . S
C1431 H1419 0.929 . S
C1431 C1425 1.390 . S
C1431 C1428 1.386 . S
C1432 C1427 1.490 . S
C1432 C1434 1.395 . S
C1432 C1435 1.403 . S
H1433 C1439 0.930 . S
C1434 H1420 0.930 . S
C1434 C1432 1.395 . S
C1434 C1437 1.403 . S
C1435 C1432 1.403 . S
C1435 C1436 1.524 . S
C1435 C1439 1.400 . S
C1436 H1421 0.960 . S
C1436 H1422 0.960 . S
C1436 H1423 0.960 . S
C1436 C1435 1.524 . S
C1437 C1434 1.403 . S
C1437 C1438 1.392 . S
C1437 C1441 1.495 . S
C1438 C1437 1.392 . S
C1438 C1439 1.385 . S
C1438 C1440 1.478 . S
C1439 H1433 0.930 . S
C1439 C1435 1.400 . S
C1439 C1438 1.385 . S
C1440 C1438 1.478 . S
C1440 C1442 1.381 . S
C1440 C1446 1.383 . S
C1441 C1437 1.495 . S
C1441 H1447 0.959 . S
C1441 H1448 0.961 . S
C1441 H1449 0.960 . S
C1442 C1440 1.381 . S
C1442 C1443 1.394 . S
C1442 H1450 0.930 . S
C1443 C1442 1.394 . S
C1443 C1444 1.383 . S
C1443 H1451 0.929 . S
C1444 C1443 1.383 . S
C1444 C1445 1.377 . S
C1445 H1429 0.930 . S
C1445 C1444 1.377 . S
C1445 C1446 1.379 . S
C1446 H1430 0.931 . S
C1446 C1440 1.383 . S
C1446 C1445 1.379 . S
H1447 C1441 0.959 . S
H1448 C1441 0.961 . S
H1449 C1441 0.960 . S
H1450 C1442 0.930 . S
H1451 C1443 0.929 . S
H1452 C1460 0.929 . S
H1453 C1462 0.930 . S
H1454 C1464 0.930 . S
H1455 C1467 0.929 . S
H1456 C1470 0.930 . S
H1457 C1472 0.916 1_545 S
H1458 C1472 0.991 . S
H1459 C1472 1.004 . S
C1460 H1452 0.929 . S
C1460 C1461 1.377 . S
C1460 C1462 1.384 . S
C1461 C1460 1.377 . S
C1461 C1467 1.390 . S
C1462 H1453 0.930 . S
C1462 C1460 1.384 . S
C1462 C1463 1.372 . S
C1463 C1462 1.372 . S
C1463 C1464 1.400 . S
C1463 C1468 1.550 . S
C1464 H1454 0.930 . S
C1464 C1463 1.400 . S
C1464 C1467 1.386 . S
H1465 C1481 0.930 . S
H1466 C1482 0.931 . S
C1467 H1455 0.929 . S
C1467 C1461 1.390 . S
C1467 C1464 1.386 . S
C1468 C1463 1.550 . S
C1468 C1470 1.367 1_565 S
C1468 C1471 1.372 1_565 S
H1469 C1475 0.930 . S
C1470 H1456 0.930 . S
C1470 C1468 1.367 1_545 S
C1470 C1473 1.403 . S
C1471 C1468 1.372 1_545 S
C1471 C1472 1.498 1_545 S
C1471 C1475 1.400 . S
C1472 H1457 0.916 1_565 S
C1472 H1458 0.991 . S
C1472 H1459 1.004 . S
C1472 C1471 1.498 1_565 S
C1473 C1470 1.403 . S
C1473 C1474 1.392 . S
C1473 C1477 1.495 1_554 S
C1474 C1473 1.392 . S
C1474 C1475 1.385 . S
C1474 C1476 1.478 . S
C1475 H1469 0.930 . S
C1475 C1471 1.400 . S
C1475 C1474 1.385 . S
C1476 C1474 1.478 . S
C1476 C1478 1.381 . S
C1476 C1482 1.383 1_554 S
C1477 C1473 1.495 1_556 S
C1477 H1483 0.959 . S
C1477 H1484 0.961 . S
C1477 H1485 0.960 1_556 S
C1478 C1476 1.381 . S
C1478 C1479 1.394 . S
C1478 H1486 0.930 . S
C1479 C1478 1.394 . S
C1479 C1480 1.383 . S
C1479 H1487 0.929 . S
C1480 C1479 1.383 . S
C1480 C1481 1.377 1_554 S
C1481 H1465 0.930 . S
C1481 C1480 1.377 1_556 S
C1481 C1482 1.379 . S
C1482 H1466 0.931 . S
C1482 C1476 1.383 1_556 S
C1482 C1481 1.379 . S
H1483 C1477 0.959 . S
H1484 C1477 0.961 . S
H1485 C1477 0.960 1_554 S
H1486 C1478 0.930 . S
H1487 C1479 0.929 . S
H1488 C1496 0.929 . S
H1489 C1498 0.930 . S
H1490 C1500 0.930 . S
H1491 C1503 0.929 . S
H1492 C1506 0.930 . S
H1493 C1508 0.960 . S
H1494 C1508 0.960 . S
H1495 C1508 0.960 . S
C1496 H1488 0.929 . S
C1496 C1497 1.377 . S
C1496 C1498 1.384 . S
C1497 C1496 1.377 . S
C1497 C1503 1.390 . S
C1498 H1489 0.930 . S
C1498 C1496 1.384 . S
C1498 C1499 1.372 . S
C1499 C1498 1.372 . S
C1499 C1500 1.400 . S
C1499 C1504 1.490 . S
C1500 H1490 0.930 . S
C1500 C1499 1.400 . S
C1500 C1503 1.386 . S
H1501 C1517 0.930 . S
H1502 C1518 0.931 . S
C1503 H1491 0.929 . S
C1503 C1497 1.390 . S
C1503 C1500 1.386 . S
C1504 C1499 1.490 . S
C1504 C1506 1.395 . S
C1504 C1507 1.403 . S
H1505 C1511 0.930 . S
C1506 H1492 0.930 . S
C1506 C1504 1.395 . S
C1506 C1509 1.403 . S
C1507 C1504 1.403 . S
C1507 C1508 1.524 . S
C1507 C1511 1.400 . S
C1508 H1493 0.960 . S
C1508 H1494 0.960 . S
C1508 H1495 0.960 . S
C1508 C1507 1.524 . S
C1509 C1506 1.403 . S
C1509 C1510 1.392 . S
C1509 C1513 1.495 . S
C1510 C1509 1.392 . S
C1510 C1511 1.385 . S
C1510 C1512 1.478 . S
C1511 H1505 0.930 . S
C1511 C1507 1.400 . S
C1511 C1510 1.385 . S
C1512 C1510 1.478 . S
C1512 C1514 1.381 . S
C1512 C1518 1.383 . S
C1513 C1509 1.495 . S
C1513 H1519 0.959 . S
C1513 H1520 0.961 . S
C1513 H1521 0.960 . S
C1514 C1512 1.381 . S
C1514 C1515 1.394 . S
C1514 H1522 0.930 . S
C1515 C1514 1.394 . S
C1515 C1516 1.383 . S
C1515 H1523 0.929 . S
C1516 C1515 1.383 . S
C1516 C1517 1.377 . S
C1517 H1501 0.930 . S
C1517 C1516 1.377 . S
C1517 C1518 1.379 . S
C1518 H1502 0.931 . S
C1518 C1512 1.383 . S
C1518 C1517 1.379 . S
H1519 C1513 0.959 . S
H1520 C1513 0.961 . S
H1521 C1513 0.960 . S
H1522 C1514 0.930 . S
H1523 C1515 0.929 . S
H1524 C1532 0.929 . S
H1525 C1534 0.930 . S
H1526 C1536 0.930 . S
H1527 C1539 0.929 . S
H1528 C1542 0.930 . S
H1529 C1544 0.960 . S
H1530 C1544 0.960 . S
H1531 C1544 0.960 . S
C1532 H1524 0.929 . S
C1532 C1533 1.368 1_556 S
C1532 C1534 1.384 . S
C1533 C1532 1.368 1_554 S
C1533 C1539 1.400 . S
C1534 H1525 0.930 . S
C1534 C1532 1.384 . S
C1534 C1535 1.372 . S
C1535 C1534 1.372 . S
C1535 C1536 1.400 1_556 S
C1535 C1540 1.490 . S
C1536 H1526 0.930 . S
C1536 C1535 1.400 1_554 S
C1536 C1539 1.386 . S
H1537 C1553 0.930 1_554 S
H1538 C1554 0.931 1_554 S
C1539 H1527 0.929 . S
C1539 C1533 1.400 . S
C1539 C1536 1.386 . S
C1540 C1535 1.490 . S
C1540 C1542 1.395 . S
C1540 C1543 1.403 1_556 S
H1541 C1547 0.930 . S
C1542 H1528 0.930 . S
C1542 C1540 1.395 . S
C1542 C1545 1.403 . S
C1543 C1540 1.403 1_554 S
C1543 C1544 1.524 . S
C1543 C1547 1.400 . S
C1544 H1529 0.960 . S
C1544 H1530 0.960 . S
C1544 H1531 0.960 . S
C1544 C1543 1.524 . S
C1545 C1542 1.403 . S
C1545 C1546 1.392 . S
C1545 C1549 1.495 . S
C1546 C1545 1.392 . S
C1546 C1547 1.385 1_556 S
C1546 C1548 1.478 . S
C1547 H1541 0.930 . S
C1547 C1543 1.400 . S
C1547 C1546 1.385 1_554 S
C1548 C1546 1.478 . S
C1548 C1550 1.381 . S
C1548 C1554 1.383 . S
C1549 C1545 1.495 . S
C1549 H1555 0.959 . S
C1549 H1556 0.961 . S
C1549 H1557 0.960 . S
C1550 C1548 1.381 . S
C1550 C1551 1.394 . S
C1550 H1558 0.930 . S
C1551 C1550 1.394 . S
C1551 C1552 1.383 . S
C1551 H1559 0.929 . S
C1552 C1551 1.383 . S
C1552 C1553 1.377 . S
C1553 H1537 0.930 1_556 S
C1553 C1552 1.377 . S
C1553 C1554 1.379 . S
C1554 H1538 0.931 1_556 S
C1554 C1548 1.383 . S
C1554 C1553 1.379 . S
H1555 C1549 0.959 . S
H1556 C1549 0.961 . S
H1557 C1549 0.960 . S
H1558 C1550 0.930 . S
H1559 C1551 0.929 . S
H1560 C1568 0.929 . S
H1561 C1570 0.930 . S
H1562 C1572 0.930 . S
H1563 C1575 0.929 . S
H1564 C1578 0.930 . S
H1565 C1580 0.960 . S
H1566 C1580 0.960 . S
H1567 C1580 0.960 . S
C1568 H1560 0.929 . S
C1568 C1569 1.377 . S
C1568 C1570 1.384 . S
C1569 C1568 1.377 . S
C1569 C1575 1.390 . S
C1570 H1561 0.930 . S
C1570 C1568 1.384 . S
C1570 C1571 1.372 . S
C1571 C1570 1.372 . S
C1571 C1572 1.400 . S
C1571 C1576 1.490 . S
C1572 H1562 0.930 . S
C1572 C1571 1.400 . S
C1572 C1575 1.386 . S
H1573 C1589 0.930 . S
H1574 C1590 0.931 . S
C1575 H1563 0.929 . S
C1575 C1569 1.390 . S
C1575 C1572 1.386 . S
C1576 C1571 1.490 . S
C1576 C1578 1.395 . S
C1576 C1579 1.403 . S
H1577 C1583 0.930 . S
C1578 H1564 0.930 . S
C1578 C1576 1.395 . S
C1578 C1581 1.403 . S
C1579 C1576 1.403 . S
C1579 C1580 1.524 . S
C1579 C1583 1.400 . S
C1580 H1565 0.960 . S
C1580 H1566 0.960 . S
C1580 H1567 0.960 . S
C1580 C1579 1.524 . S
C1581 C1578 1.403 . S
C1581 C1582 1.392 . S
C1581 C1585 1.495 . S
C1582 C1581 1.392 . S
C1582 C1583 1.385 . S
C1582 C1584 1.478 . S
C1583 H1577 0.930 . S
C1583 C1579 1.400 . S
C1583 C1582 1.385 . S
C1584 C1582 1.478 . S
C1584 C1586 1.381 . S
C1584 C1590 1.383 . S
C1585 C1581 1.495 . S
C1585 H1591 0.959 . S
C1585 H1592 0.961 . S
C1585 H1593 0.960 . S
C1586 C1584 1.381 . S
C1586 C1587 1.394 . S
C1586 H1594 0.930 . S
C1587 C1586 1.394 . S
C1587 C1588 1.383 . S
C1587 H1595 0.929 . S
C1588 C1587 1.383 . S
C1588 C1589 1.377 . S
C1589 H1573 0.930 . S
C1589 C1588 1.377 . S
C1589 C1590 1.379 . S
C1590 H1574 0.931 . S
C1590 C1584 1.383 . S
C1590 C1589 1.379 . S
H1591 C1585 0.959 . S
H1592 C1585 0.961 . S
H1593 C1585 0.960 . S
H1594 C1586 0.930 . S
H1595 C1587 0.929 . S
H1596 C1604 0.929 1_655 S
H1597 C1606 0.930 . S
H1598 C1608 0.930 . S
H1599 C1611 0.929 . S
H1600 C1614 0.910 1_656 S
H1601 C1616 0.960 . S
H1602 C1616 0.960 . S
H1603 C1616 0.960 . S
C1604 H1596 0.929 1_455 S
C1604 C1605 1.377 . S
C1604 C1606 1.384 1_455 S
C1605 C1604 1.377 . S
C1605 C1611 1.390 . S
C1606 H1597 0.930 . S
C1606 C1604 1.384 1_655 S
C1606 C1607 1.372 1_655 S
C1607 C1606 1.372 1_455 S
C1607 C1608 1.400 . S
C1607 C1612 1.490 . S
C1608 H1598 0.930 . S
C1608 C1607 1.400 . S
C1608 C1611 1.386 . S
H1609 C1625 0.930 . S
H1610 C1626 0.931 . S
C1611 H1599 0.929 . S
C1611 C1605 1.390 . S
C1611 C1608 1.386 . S
C1612 C1607 1.490 . S
C1612 C1614 1.427 1_556 S
C1612 C1615 1.403 1_556 S
H1613 C1619 0.930 . S
C1614 H1600 0.910 1_454 S
C1614 C1612 1.427 1_554 S
C1614 C1617 1.385 1_455 S
C1615 C1612 1.403 1_554 S
C1615 C1616 1.524 . S
C1615 C1619 1.400 . S
C1616 H1601 0.960 . S
C1616 H1602 0.960 . S
C1616 H1603 0.960 . S
C1616 C1615 1.524 . S
C1617 C1614 1.385 1_655 S
C1617 C1618 1.370 1_655 S
C1617 C1621 1.531 . S
C1618 C1617 1.370 1_455 S
C1618 C1619 1.385 . S
C1618 C1620 1.478 . S
C1619 H1613 0.930 . S
C1619 C1615 1.400 . S
C1619 C1618 1.385 . S
C1620 C1618 1.478 . S
C1620 C1622 1.381 1_455 S
C1620 C1626 1.383 . S
C1621 C1617 1.531 . S
C1621 H1627 0.959 . S
C1621 H1628 0.961 . S
C1621 H1629 0.960 . S
C1622 C1620 1.381 1_655 S
C1622 C1623 1.394 . S
C1622 H1630 0.930 . S
C1623 C1622 1.394 . S
C1623 C1624 1.383 1_655 S
C1623 H1631 0.929 . S
C1624 C1623 1.383 1_455 S
C1624 C1625 1.377 . S
C1625 H1609 0.930 . S
C1625 C1624 1.377 . S
C1625 C1626 1.379 . S
C1626 H1610 0.931 . S
C1626 C1620 1.383 . S
C1626 C1625 1.379 . S
H1627 C1621 0.959 . S
H1628 C1621 0.961 . S
H1629 C1621 0.960 . S
H1630 C1622 0.930 . S
H1631 C1623 0.929 . S
H1632 C1640 0.929 . S
H1633 C1642 0.930 . S
H1634 C1644 0.930 . S
H1635 C1647 0.929 . S
H1636 C1650 0.930 . S
H1637 C1652 0.960 . S
H1638 C1652 0.960 . S
H1639 C1652 0.960 . S
C1640 H1632 0.929 . S
C1640 C1641 1.377 . S
C1640 C1642 1.384 . S
C1641 C1640 1.377 . S
C1641 C1647 1.390 . S
C1642 H1633 0.930 . S
C1642 C1640 1.384 . S
C1642 C1643 1.372 . S
C1643 C1642 1.372 . S
C1643 C1644 1.400 . S
C1643 C1648 1.490 . S
C1644 H1634 0.930 . S
C1644 C1643 1.400 . S
C1644 C1647 1.386 . S
H1645 C1661 0.930 . S
H1646 C1662 0.931 . S
C1647 H1635 0.929 . S
C1647 C1641 1.390 . S
C1647 C1644 1.386 . S
C1648 C1643 1.490 . S
C1648 C1650 1.395 . S
C1648 C1651 1.403 . S
H1649 C1655 0.930 . S
C1650 H1636 0.930 . S
C1650 C1648 1.395 . S
C1650 C1653 1.403 . S
C1651 C1648 1.403 . S
C1651 C1652 1.524 . S
C1651 C1655 1.400 . S
C1652 H1637 0.960 . S
C1652 H1638 0.960 . S
C1652 H1639 0.960 . S
C1652 C1651 1.524 . S
C1653 C1650 1.403 . S
C1653 C1654 1.392 . S
C1653 C1657 1.495 . S
C1654 C1653 1.392 . S
C1654 C1655 1.385 . S
C1654 C1656 1.478 . S
C1655 H1649 0.930 . S
C1655 C1651 1.400 . S
C1655 C1654 1.385 . S
C1656 C1654 1.478 . S
C1656 C1658 1.381 . S
C1656 C1662 1.383 . S
C1657 C1653 1.495 . S
C1657 H1663 0.959 . S
C1657 H1664 0.961 . S
C1657 H1665 0.960 . S
C1658 C1656 1.381 . S
C1658 C1659 1.394 . S
C1658 H1666 0.930 . S
C1659 C1658 1.394 . S
C1659 C1660 1.383 . S
C1659 H1667 0.929 . S
C1660 C1659 1.383 . S
C1660 C1661 1.377 . S
C1661 H1645 0.930 . S
C1661 C1660 1.377 . S
C1661 C1662 1.379 . S
C1662 H1646 0.931 . S
C1662 C1656 1.383 . S
C1662 C1661 1.379 . S
H1663 C1657 0.959 . S
H1664 C1657 0.961 . S
H1665 C1657 0.960 . S
H1666 C1658 0.930 . S
H1667 C1659 0.929 . S
H1668 C1676 0.929 . S
H1669 C1678 0.930 . S
H1670 C1680 0.930 . S
H1671 C1683 0.929 . S
H1672 C1686 0.930 . S
H1673 C1688 0.960 . S
H1674 C1688 0.960 . S
H1675 C1688 0.960 . S
C1676 H1668 0.929 . S
C1676 C1677 1.378 . S
C1676 C1678 1.384 . S
C1677 C1676 1.378 . S
C1677 C1683 1.389 1_455 S
C1678 H1669 0.930 . S
C1678 C1676 1.384 . S
C1678 C1679 1.372 1_455 S
C1679 C1678 1.372 1_655 S
C1679 C1680 1.400 . S
C1679 C1684 1.490 . S
C1680 H1670 0.930 . S
C1680 C1679 1.400 . S
C1680 C1683 1.386 . S
H1681 C1697 0.930 . S
H1682 C1698 0.931 . S
C1683 H1671 0.929 . S
C1683 C1677 1.389 1_655 S
C1683 C1680 1.386 . S
C1684 C1679 1.490 . S
C1684 C1686 1.395 1_655 S
C1684 C1687 1.403 . S
H1685 C1691 0.930 . S
C1686 H1672 0.930 . S
C1686 C1684 1.395 1_455 S
C1686 C1689 1.403 . S
C1687 C1684 1.403 . S
C1687 C1688 1.524 . S
C1687 C1691 1.400 . S
C1688 H1673 0.960 . S
C1688 H1674 0.960 . S
C1688 H1675 0.960 . S
C1688 C1687 1.524 . S
C1689 C1686 1.403 . S
C1689 C1690 1.392 1_455 S
C1689 C1693 1.495 . S
C1690 C1689 1.392 1_655 S
C1690 C1691 1.385 . S
C1690 C1692 1.478 . S
C1691 H1685 0.930 . S
C1691 C1687 1.400 . S
C1691 C1690 1.385 . S
C1692 C1690 1.478 . S
C1692 C1694 1.384 . S
C1692 C1698 1.383 . S
C1693 C1689 1.495 . S
C1693 H1699 0.959 . S
C1693 H1700 0.961 . S
C1693 H1701 0.960 . S
C1694 C1692 1.384 . S
C1694 C1695 1.400 . S
C1694 H1702 0.928 1_655 S
C1695 C1694 1.400 . S
C1695 C1696 1.383 . S
C1695 H1703 0.929 . S
C1696 C1695 1.383 . S
C1696 C1697 1.377 . S
C1697 H1681 0.930 . S
C1697 C1696 1.377 . S
C1697 C1698 1.379 . S
C1698 H1682 0.931 . S
C1698 C1692 1.383 . S
C1698 C1697 1.379 . S
H1699 C1693 0.959 . S
H1700 C1693 0.961 . S
H1701 C1693 0.960 . S
H1702 C1694 0.928 1_455 S
H1703 C1695 0.929 . S
H1704 C1712 0.929 . S
H1705 C1714 0.930 . S
H1706 C1716 0.930 . S
H1707 C1719 0.929 . S
H1708 C1722 0.930 . S
H1709 C1724 0.960 . S
H1710 C1724 0.960 . S
H1711 C1724 0.960 . S
C1712 H1704 0.929 . S
C1712 C1713 1.377 . S
C1712 C1714 1.384 . S
C1713 C1712 1.377 . S
C1713 C1719 1.390 . S
C1714 H1705 0.930 . S
C1714 C1712 1.384 . S
C1714 C1715 1.372 . S
C1715 C1714 1.372 . S
C1715 C1716 1.400 . S
C1715 C1720 1.490 . S
C1716 H1706 0.930 . S
C1716 C1715 1.400 . S
C1716 C1719 1.386 . S
H1717 C1733 0.930 . S
H1718 C1734 0.931 . S
C1719 H1707 0.929 . S
C1719 C1713 1.390 . S
C1719 C1716 1.386 . S
C1720 C1715 1.490 . S
C1720 C1722 1.395 . S
C1720 C1723 1.403 . S
H1721 C1727 0.930 . S
C1722 H1708 0.930 . S
C1722 C1720 1.395 . S
C1722 C1725 1.403 . S
C1723 C1720 1.403 . S
C1723 C1724 1.524 . S
C1723 C1727 1.400 . S
C1724 H1709 0.960 . S
C1724 H1710 0.960 . S
C1724 H1711 0.960 . S
C1724 C1723 1.524 . S
C1725 C1722 1.403 . S
C1725 C1726 1.392 . S
C1725 C1729 1.495 . S
C1726 C1725 1.392 . S
C1726 C1727 1.385 . S
C1726 C1728 1.478 . S
C1727 H1721 0.930 . S
C1727 C1723 1.400 . S
C1727 C1726 1.385 . S
C1728 C1726 1.478 . S
C1728 C1730 1.381 . S
C1728 C1734 1.383 . S
C1729 C1725 1.495 . S
C1729 H1735 0.959 . S
C1729 H1736 0.961 . S
C1729 H1737 0.960 . S
C1730 C1728 1.381 . S
C1730 C1731 1.394 . S
C1730 H1738 0.930 . S
C1731 C1730 1.394 . S
C1731 C1732 1.383 . S
C1731 H1739 0.929 . S
C1732 C1731 1.383 . S
C1732 C1733 1.377 . S
C1733 H1717 0.930 . S
C1733 C1732 1.377 . S
C1733 C1734 1.379 . S
C1734 H1718 0.931 . S
C1734 C1728 1.383 . S
C1734 C1733 1.379 . S
H1735 C1729 0.959 . S
H1736 C1729 0.961 . S
H1737 C1729 0.960 . S
H1738 C1730 0.930 . S
H1739 C1731 0.929 . S
H1740 C1748 0.929 . S
H1741 C1750 0.930 . S
H1742 C1752 0.930 . S
H1743 C1755 0.929 . S
H1744 C1758 0.930 . S
H1745 C1760 0.960 . S
H1746 C1760 0.960 . S
H1747 C1760 0.960 . S
C1748 H1740 0.929 . S
C1748 C1749 1.377 . S
C1748 C1750 1.384 . S
C1749 C1748 1.377 . S
C1749 C1755 1.390 . S
C1750 H1741 0.930 . S
C1750 C1748 1.384 . S
C1750 C1751 1.372 . S
C1751 C1750 1.372 . S
C1751 C1752 1.400 . S
C1751 C1756 1.490 . S
C1752 H1742 0.930 . S
C1752 C1751 1.400 . S
C1752 C1755 1.386 . S
H1753 C1769 0.930 . S
H1754 C1770 0.931 . S
C1755 H1743 0.929 . S
C1755 C1749 1.390 . S
C1755 C1752 1.386 . S
C1756 C1751 1.490 . S
C1756 C1758 1.395 . S
C1756 C1759 1.403 . S
H1757 C1763 0.930 . S
C1758 H1744 0.930 . S
C1758 C1756 1.395 . S
C1758 C1761 1.403 . S
C1759 C1756 1.403 . S
C1759 C1760 1.524 . S
C1759 C1763 1.400 . S
C1760 H1745 0.960 . S
C1760 H1746 0.960 . S
C1760 H1747 0.960 . S
C1760 C1759 1.524 . S
C1761 C1758 1.403 . S
C1761 C1762 1.392 . S
C1761 C1765 1.495 . S
C1762 C1761 1.392 . S
C1762 C1763 1.385 . S
C1762 C1764 1.478 . S
C1763 H1757 0.930 . S
C1763 C1759 1.400 . S
C1763 C1762 1.385 . S
C1764 C1762 1.478 . S
C1764 C1766 1.381 . S
C1764 C1770 1.383 . S
C1765 C1761 1.495 . S
C1765 H1771 0.959 . S
C1765 H1772 0.961 . S
C1765 H1773 0.960 . S
C1766 C1764 1.381 . S
C1766 C1767 1.394 . S
C1766 H1774 0.930 . S
C1767 C1766 1.394 . S
C1767 C1768 1.383 . S
C1767 H1775 0.929 . S
C1768 C1767 1.383 . S
C1768 C1769 1.377 . S
C1769 H1753 0.930 . S
C1769 C1768 1.377 . S
C1769 C1770 1.379 . S
C1770 H1754 0.931 . S
C1770 C1764 1.383 . S
C1770 C1769 1.379 . S
H1771 C1765 0.959 . S
H1772 C1765 0.961 . S
H1773 C1765 0.960 . S
H1774 C1766 0.930 . S
H1775 C1767 0.929 . S
H1776 C1784 0.929 . S
H1777 C1786 0.930 . S
H1778 C1788 0.930 . S
H1779 C1791 0.929 . S
H1780 C1794 0.928 1_565 S
H1781 C1796 0.960 . S
H1782 C1796 0.960 . S
H1783 C1796 0.960 . S
C1784 H1776 0.929 . S
C1784 C1785 1.379 1_545 S
C1784 C1786 1.384 . S
C1785 C1784 1.379 1_565 S
C1785 C1791 1.388 . S
C1786 H1777 0.930 . S
C1786 C1784 1.384 . S
C1786 C1787 1.372 . S
C1787 C1786 1.372 . S
C1787 C1788 1.400 1_545 S
C1787 C1792 1.490 . S
C1788 H1778 0.930 . S
C1788 C1787 1.400 1_565 S
C1788 C1791 1.386 . S
H1789 C1805 0.930 . S
H1790 C1806 0.931 . S
C1791 H1779 0.929 . S
C1791 C1785 1.388 . S
C1791 C1788 1.386 . S
C1792 C1787 1.490 . S
C1792 C1794 1.397 . S
C1792 C1795 1.403 . S
H1793 C1799 0.930 . S
C1794 H1780 0.928 1_545 S
C1794 C1792 1.397 . S
C1794 C1797 1.406 . S
C1795 C1792 1.403 . S
C1795 C1796 1.524 . S
C1795 C1799 1.400 . S
C1796 H1781 0.960 . S
C1796 H1782 0.960 . S
C1796 H1783 0.960 . S
C1796 C1795 1.524 . S
C1797 C1794 1.406 . S
C1797 C1798 1.407 . S
C1797 C1801 1.479 1_545 S
C1798 C1797 1.407 . S
C1798 C1799 1.385 . S
C1798 C1800 1.478 . S
C1799 H1793 0.930 . S
C1799 C1795 1.400 . S
C1799 C1798 1.385 . S
C1800 C1798 1.478 . S
C1800 C1802 1.381 . S
C1800 C1806 1.383 1_545 S
C1801 C1797 1.479 1_565 S
C1801 H1807 0.959 . S
C1801 H1808 0.961 . S
C1801 H1809 0.960 1_565 S
C1802 C1800 1.381 . S
C1802 C1803 1.394 . S
C1802 H1810 0.930 . S
C1803 C1802 1.394 . S
C1803 C1804 1.383 . S
C1803 H1811 0.929 . S
C1804 C1803 1.383 . S
C1804 C1805 1.377 1_545 S
C1805 H1789 0.930 . S
C1805 C1804 1.377 1_565 S
C1805 C1806 1.379 . S
C1806 H1790 0.931 . S
C1806 C1800 1.383 1_565 S
C1806 C1805 1.379 . S
H1807 C1801 0.959 . S
H1808 C1801 0.961 . S
H1809 C1801 0.960 1_545 S
H1810 C1802 0.930 . S
H1811 C1803 0.929 . S
H1812 C1820 0.929 . S
H1813 C1822 0.930 . S
H1814 C1824 0.930 1_545 S
H1815 C1827 0.929 1_545 S
H1816 C1830 0.930 1_455 S
H1817 C1832 0.960 . S
H1818 C1832 0.960 . S
H1819 C1832 0.960 1_455 S
C1820 H1812 0.929 . S
C1820 C1821 1.377 . S
C1820 C1822 1.384 . S
C1821 C1820 1.377 . S
C1821 C1827 1.390 . S
C1822 H1813 0.930 . S
C1822 C1820 1.384 . S
C1822 C1823 1.372 . S
C1823 C1822 1.372 . S
C1823 C1824 1.400 . S
C1823 C1828 1.490 . S
C1824 H1814 0.930 1_565 S
C1824 C1823 1.400 . S
C1824 C1827 1.386 . S
H1825 C1841 0.930 . S
H1826 C1842 0.931 . S
C1827 H1815 0.929 1_565 S
C1827 C1821 1.390 . S
C1827 C1824 1.386 . S
C1828 C1823 1.490 . S
C1828 C1830 1.395 1_455 S
C1828 C1831 1.403 1_455 S
H1829 C1835 0.930 . S
C1830 H1816 0.930 1_655 S
C1830 C1828 1.395 1_655 S
C1830 C1833 1.403 . S
C1831 C1828 1.403 1_655 S
C1831 C1832 1.524 . S
C1831 C1835 1.400 . S
C1832 H1817 0.960 . S
C1832 H1818 0.960 . S
C1832 H1819 0.960 1_655 S
C1832 C1831 1.524 . S
C1833 C1830 1.403 . S
C1833 C1834 1.392 . S
C1833 C1837 1.495 . S
C1834 C1833 1.392 . S
C1834 C1835 1.385 . S
C1834 C1836 1.478 . S
C1835 H1829 0.930 . S
C1835 C1831 1.400 . S
C1835 C1834 1.385 . S
C1836 C1834 1.478 . S
C1836 C1838 1.381 . S
C1836 C1842 1.383 1_565 S
C1837 C1833 1.495 . S
C1837 H1843 0.959 . S
C1837 H1844 0.961 1_565 S
C1837 H1845 0.960 . S
C1838 C1836 1.381 . S
C1838 C1839 1.394 . S
C1838 H1846 0.930 . S
C1839 C1838 1.394 . S
C1839 C1840 1.383 . S
C1839 H1847 0.929 . S
C1840 C1839 1.383 . S
C1840 C1841 1.377 1_565 S
C1841 H1825 0.930 . S
C1841 C1840 1.377 1_545 S
C1841 C1842 1.379 . S
C1842 H1826 0.931 . S
C1842 C1836 1.383 1_545 S
C1842 C1841 1.379 . S
H1843 C1837 0.959 . S
H1844 C1837 0.961 1_545 S
H1845 C1837 0.960 . S
H1846 C1838 0.930 . S
H1847 C1839 0.929 . S
H1848 C1856 0.929 . S
H1849 C1858 0.930 . S
H1850 C1860 0.930 . S
H1851 C1863 0.929 . S
H1852 C1866 0.930 . S
H1853 C1868 0.960 . S
H1854 C1868 0.960 . S
H1855 C1868 0.960 . S
C1856 H1848 0.929 . S
C1856 C1857 1.377 . S
C1856 C1858 1.384 . S
C1857 C1856 1.377 . S
C1857 C1863 1.390 . S
C1858 H1849 0.930 . S
C1858 C1856 1.384 . S
C1858 C1859 1.372 . S
C1859 C1858 1.372 . S
C1859 C1860 1.400 . S
C1859 C1864 1.490 . S
C1860 H1850 0.930 . S
C1860 C1859 1.400 . S
C1860 C1863 1.386 . S
H1861 C1877 0.930 . S
H1862 C1878 0.931 . S
C1863 H1851 0.929 . S
C1863 C1857 1.390 . S
C1863 C1860 1.386 . S
C1864 C1859 1.490 . S
C1864 C1866 1.395 . S
C1864 C1867 1.403 . S
H1865 C1871 0.930 . S
C1866 H1852 0.930 . S
C1866 C1864 1.395 . S
C1866 C1869 1.403 . S
C1867 C1864 1.403 . S
C1867 C1868 1.524 . S
C1867 C1871 1.400 . S
C1868 H1853 0.960 . S
C1868 H1854 0.960 . S
C1868 H1855 0.960 . S
C1868 C1867 1.524 . S
C1869 C1866 1.403 . S
C1869 C1870 1.392 . S
C1869 C1873 1.495 . S
C1870 C1869 1.392 . S
C1870 C1871 1.385 . S
C1870 C1872 1.478 . S
C1871 H1865 0.930 . S
C1871 C1867 1.400 . S
C1871 C1870 1.385 . S
C1872 C1870 1.478 . S
C1872 C1874 1.381 . S
C1872 C1878 1.383 . S
C1873 C1869 1.495 . S
C1873 H1879 0.959 . S
C1873 H1880 0.961 . S
C1873 H1881 0.960 . S
C1874 C1872 1.381 . S
C1874 C1875 1.394 . S
C1874 H1882 0.930 . S
C1875 C1874 1.394 . S
C1875 C1876 1.383 . S
C1875 H1883 0.929 . S
C1876 C1875 1.383 . S
C1876 C1877 1.377 . S
C1877 H1861 0.930 . S
C1877 C1876 1.377 . S
C1877 C1878 1.379 . S
C1878 H1862 0.931 . S
C1878 C1872 1.383 . S
C1878 C1877 1.379 . S
H1879 C1873 0.959 . S
H1880 C1873 0.961 . S
H1881 C1873 0.960 . S
H1882 C1874 0.930 . S
H1883 C1875 0.929 . S
H1884 C1892 0.929 . S
H1885 C1894 0.930 . S
H1886 C1896 0.930 . S
H1887 C1899 0.929 . S
H1888 C1902 0.930 . S
H1889 C1904 0.957 . S
H1890 C1904 0.960 . S
H1891 C1904 0.960 . S
C1892 H1884 0.929 . S
C1892 C1893 1.377 . S
C1892 C1894 1.384 . S
C1893 C1892 1.377 . S
C1893 C1899 1.390 . S
C1894 H1885 0.930 . S
C1894 C1892 1.384 . S
C1894 C1895 1.372 . S
C1895 C1894 1.372 . S
C1895 C1896 1.400 . S
C1895 C1900 1.550 . S
C1896 H1886 0.930 . S
C1896 C1895 1.400 . S
C1896 C1899 1.386 . S
H1897 C1913 0.930 . S
H1898 C1914 0.931 . S
C1899 H1887 0.929 . S
C1899 C1893 1.390 . S
C1899 C1896 1.386 . S
C1900 C1895 1.550 . S
C1900 C1902 1.364 1_545 S
C1900 C1903 1.338 1_546 S
H1901 C1907 0.933 1_554 S
C1902 H1888 0.930 . S
C1902 C1900 1.364 1_565 S
C1902 C1905 1.403 . S
C1903 C1900 1.338 1_564 S
C1903 C1904 1.557 1_565 S
C1903 C1907 1.403 1_554 S
C1904 H1889 0.957 . S
C1904 H1890 0.960 . S
C1904 H1891 0.960 . S
C1904 C1903 1.557 1_545 S
C1905 C1902 1.403 . S
C1905 C1906 1.392 . S
C1905 C1909 1.495 . S
C1906 C1905 1.392 . S
C1906 C1907 1.383 . S
C1906 C1908 1.478 . S
C1907 H1901 0.933 1_556 S
C1907 C1903 1.403 1_556 S
C1907 C1906 1.383 . S
C1908 C1906 1.478 . S
C1908 C1910 1.381 . S
C1908 C1914 1.383 . S
C1909 C1905 1.495 . S
C1909 H1915 0.959 . S
C1909 H1916 0.961 . S
C1909 H1917 0.960 . S
C1910 C1908 1.381 . S
C1910 C1911 1.394 . S
C1910 H1918 0.930 . S
C1911 C1910 1.394 . S
C1911 C1912 1.383 . S
C1911 H1919 0.929 . S
C1912 C1911 1.383 . S
C1912 C1913 1.377 . S
C1913 H1897 0.930 . S
C1913 C1912 1.377 . S
C1913 C1914 1.379 . S
C1914 H1898 0.931 . S
C1914 C1908 1.383 . S
C1914 C1913 1.379 . S
H1915 C1909 0.959 . S
H1916 C1909 0.961 . S
H1917 C1909 0.960 . S
H1918 C1910 0.930 . S
H1919 C1911 0.929 . S
H1920 C1928 0.929 . S
H1921 C1930 0.930 . S
H1922 C1932 0.930 . S
H1923 C1935 0.929 . S
H1924 C1938 0.930 . S
H1925 C1940 0.960 . S
H1926 C1940 0.960 . S
H1927 C1940 0.960 . S
C1928 H1920 0.929 . S
C1928 C1929 1.377 . S
C1928 C1930 1.384 . S
C1929 C1928 1.377 . S
C1929 C1935 1.390 . S
C1930 H1921 0.930 . S
C1930 C1928 1.384 . S
C1930 C1931 1.372 . S
C1931 C1930 1.372 . S
C1931 C1932 1.400 . S
C1931 C1936 1.490 . S
C1932 H1922 0.930 . S
C1932 C1931 1.400 . S
C1932 C1935 1.386 . S
H1933 C1949 0.930 . S
H1934 C1950 0.931 . S
C1935 H1923 0.929 . S
C1935 C1929 1.390 . S
C1935 C1932 1.386 . S
C1936 C1931 1.490 . S
C1936 C1938 1.395 . S
C1936 C1939 1.403 . S
H1937 C1943 0.930 . S
C1938 H1924 0.930 . S
C1938 C1936 1.395 . S
C1938 C1941 1.403 . S
C1939 C1936 1.403 . S
C1939 C1940 1.524 . S
C1939 C1943 1.400 . S
C1940 H1925 0.960 . S
C1940 H1926 0.960 . S
C1940 H1927 0.960 . S
C1940 C1939 1.524 . S
C1941 C1938 1.403 . S
C1941 C1942 1.392 . S
C1941 C1945 1.495 . S
C1942 C1941 1.392 . S
C1942 C1943 1.385 . S
C1942 C1944 1.478 . S
C1943 H1937 0.930 . S
C1943 C1939 1.400 . S
C1943 C1942 1.385 . S
C1944 C1942 1.478 . S
C1944 C1946 1.381 . S
C1944 C1950 1.383 . S
C1945 C1941 1.495 . S
C1945 H1951 0.959 . S
C1945 H1952 0.961 . S
C1945 H1953 0.960 . S
C1946 C1944 1.381 . S
C1946 C1947 1.394 . S
C1946 H1954 0.930 . S
C1947 C1946 1.394 . S
C1947 C1948 1.383 . S
C1947 H1955 0.929 . S
C1948 C1947 1.383 . S
C1948 C1949 1.377 . S
C1949 H1933 0.930 . S
C1949 C1948 1.377 . S
C1949 C1950 1.379 . S
C1950 H1934 0.931 . S
C1950 C1944 1.383 . S
C1950 C1949 1.379 . S
H1951 C1945 0.959 . S
H1952 C1945 0.961 . S
H1953 C1945 0.960 . S
H1954 C1946 0.930 . S
H1955 C1947 0.929 . S
H1956 C1964 0.929 . S
H1957 C1966 0.930 . S
H1958 C1968 0.930 . S
H1959 C1971 0.929 . S
H1960 C1974 0.930 . S
H1961 C1976 0.960 . S
H1962 C1976 0.960 . S
H1963 C1976 0.960 . S
C1964 H1956 0.929 . S
C1964 C1965 1.380 . S
C1964 C1966 1.384 . S
C1965 C1964 1.380 . S
C1965 C1971 1.388 1_556 S
C1966 H1957 0.930 . S
C1966 C1964 1.384 . S
C1966 C1967 1.372 1_556 S
C1967 C1966 1.372 1_554 S
C1967 C1968 1.400 . S
C1967 C1972 1.490 . S
C1968 H1958 0.930 . S
C1968 C1967 1.400 . S
C1968 C1971 1.386 . S
H1969 C1985 0.930 . S
H1970 C1986 0.931 . S
C1971 H1959 0.929 . S
C1971 C1965 1.388 1_554 S
C1971 C1968 1.386 . S
C1972 C1967 1.490 . S
C1972 C1974 1.395 1_554 S
C1972 C1975 1.403 . S
H1973 C1979 0.930 . S
C1974 H1960 0.930 . S
C1974 C1972 1.395 1_556 S
C1974 C1977 1.403 . S
C1975 C1972 1.403 . S
C1975 C1976 1.524 . S
C1975 C1979 1.400 . S
C1976 H1961 0.960 . S
C1976 H1962 0.960 . S
C1976 H1963 0.960 . S
C1976 C1975 1.524 . S
C1977 C1974 1.403 . S
C1977 C1978 1.392 1_556 S
C1977 C1981 1.495 . S
C1978 C1977 1.392 1_554 S
C1978 C1979 1.385 . S
C1978 C1980 1.478 . S
C1979 H1973 0.930 . S
C1979 C1975 1.400 . S
C1979 C1978 1.385 . S
C1980 C1978 1.478 . S
C1980 C1982 1.398 . S
C1980 C1986 1.383 . S
C1981 C1977 1.495 . S
C1981 H1987 0.959 . S
C1981 H1988 0.961 . S
C1981 H1989 0.960 . S
C1982 C1980 1.398 . S
C1982 C1983 1.399 . S
C1982 H1990 0.913 1_554 S
C1983 C1982 1.399 . S
C1983 C1984 1.383 . S
C1983 H1991 0.929 . S
C1984 C1983 1.383 . S
C1984 C1985 1.377 . S
C1985 H1969 0.930 . S
C1985 C1984 1.377 . S
C1985 C1986 1.379 . S
C1986 H1970 0.931 . S
C1986 C1980 1.383 . S
C1986 C1985 1.379 . S
H1987 C1981 0.959 . S
H1988 C1981 0.961 . S
H1989 C1981 0.960 . S
H1990 C1982 0.913 1_556 S
H1991 C1983 0.929 . S
H1992 C2000 0.929 . S
H1993 C2002 0.930 . S
H1994 C2004 0.930 . S
H1995 C2007 0.929 . S
H1996 C2010 0.930 . S
H1997 C2012 0.960 . S
H1998 C2012 0.960 . S
H1999 C2012 0.960 . S
C2000 H1992 0.929 . S
C2000 C2001 1.377 . S
C2000 C2002 1.384 . S
C2001 C2000 1.377 . S
C2001 C2007 1.390 . S
C2002 H1993 0.930 . S
C2002 C2000 1.384 . S
C2002 C2003 1.372 . S
C2003 C2002 1.372 . S
C2003 C2004 1.400 . S
C2003 C2008 1.490 . S
C2004 H1994 0.930 . S
C2004 C2003 1.400 . S
C2004 C2007 1.386 . S
H2005 C2021 0.930 . S
H2006 C2022 0.931 . S
C2007 H1995 0.929 . S
C2007 C2001 1.390 . S
C2007 C2004 1.386 . S
C2008 C2003 1.490 . S
C2008 C2010 1.395 . S
C2008 C2011 1.403 . S
H2009 C2015 0.930 . S
C2010 H1996 0.930 . S
C2010 C2008 1.395 . S
C2010 C2013 1.403 . S
C2011 C2008 1.403 . S
C2011 C2012 1.524 . S
C2011 C2015 1.400 . S
C2012 H1997 0.960 . S
C2012 H1998 0.960 . S
C2012 H1999 0.960 . S
C2012 C2011 1.524 . S
C2013 C2010 1.403 . S
C2013 C2014 1.392 . S
C2013 C2017 1.495 . S
C2014 C2013 1.392 . S
C2014 C2015 1.385 . S
C2014 C2016 1.478 . S
C2015 H2009 0.930 . S
C2015 C2011 1.400 . S
C2015 C2014 1.385 . S
C2016 C2014 1.478 . S
C2016 C2018 1.381 . S
C2016 C2022 1.383 . S
C2017 C2013 1.495 . S
C2017 H2023 0.959 . S
C2017 H2024 0.961 . S
C2017 H2025 0.960 . S
C2018 C2016 1.381 . S
C2018 C2019 1.394 . S
C2018 H2026 0.930 . S
C2019 C2018 1.394 . S
C2019 C2020 1.383 . S
C2019 H2027 0.929 . S
C2020 C2019 1.383 . S
C2020 C2021 1.377 . S
C2021 H2005 0.930 . S
C2021 C2020 1.377 . S
C2021 C2022 1.379 . S
C2022 H2006 0.931 . S
C2022 C2016 1.383 . S
C2022 C2021 1.379 . S
H2023 C2017 0.959 . S
H2024 C2017 0.961 . S
H2025 C2017 0.960 . S
H2026 C2018 0.930 . S
H2027 C2019 0.929 . S
H2028 C2036 0.929 1_455 S
H2029 C2038 0.891 1_455 S
H2030 C2040 0.930 . S
H2031 C2043 0.929 . S
H2032 C2046 0.930 . S
H2033 C2048 0.960 1_556 S
H2034 C2048 0.938 1_455 S
H2035 C2048 0.960 . S
C2036 H2028 0.929 1_655 S
C2036 C2037 1.377 . S
C2036 C2038 1.392 . S
C2037 C2036 1.377 . S
C2037 C2043 1.390 . S
C2038 H2029 0.891 1_655 S
C2038 C2036 1.392 . S
C2038 C2039 1.403 . S
C2039 C2038 1.403 . S
C2039 C2040 1.400 . S
C2039 C2044 1.490 . S
C2040 H2030 0.930 . S
C2040 C2039 1.400 . S
C2040 C2043 1.386 . S
H2041 C2057 0.930 . S
H2042 C2058 0.931 . S
C2043 H2031 0.929 . S
C2043 C2037 1.390 . S
C2043 C2040 1.386 . S
C2044 C2039 1.490 . S
C2044 C2046 1.395 1_554 S
C2044 C2047 1.403 1_554 S
H2045 C2051 0.930 . S
C2046 H2032 0.930 . S
C2046 C2044 1.395 1_556 S
C2046 C2049 1.403 . S
C2047 C2044 1.403 1_556 S
C2047 C2048 1.524 1_556 S
C2047 C2051 1.400 . S
C2048 H2033 0.960 1_554 S
C2048 H2034 0.938 1_655 S
C2048 H2035 0.960 . S
C2048 C2047 1.524 1_554 S
C2049 C2046 1.403 . S
C2049 C2050 1.392 . S
C2049 C2053 1.495 . S
C2050 C2049 1.392 . S
C2050 C2051 1.385 . S
C2050 C2052 1.478 . S
C2051 H2045 0.930 . S
C2051 C2047 1.400 . S
C2051 C2050 1.385 . S
C2052 C2050 1.478 . S
C2052 C2054 1.381 1_655 S
C2052 C2058 1.383 . S
C2053 C2049 1.495 . S
C2053 H2059 0.959 . S
C2053 H2060 0.961 . S
C2053 H2061 0.960 . S
C2054 C2052 1.381 1_455 S
C2054 C2055 1.394 . S
C2054 H2062 0.930 . S
C2055 C2054 1.394 . S
C2055 C2056 1.383 1_455 S
C2055 H2063 0.929 . S
C2056 C2055 1.383 1_655 S
C2056 C2057 1.377 . S
C2057 H2041 0.930 . S
C2057 C2056 1.377 . S
C2057 C2058 1.379 . S
C2058 H2042 0.931 . S
C2058 C2052 1.383 . S
C2058 C2057 1.379 . S
H2059 C2053 0.959 . S
H2060 C2053 0.961 . S
H2061 C2053 0.960 . S
H2062 C2054 0.930 . S
H2063 C2055 0.929 . S
H2064 C2072 0.929 . S
H2065 C2074 0.930 . S
H2066 C2076 0.930 . S
H2067 C2079 0.929 . S
H2068 C2082 0.930 . S
H2069 C2084 0.960 . S
H2070 C2084 0.960 . S
H2071 C2084 0.960 . S
C2072 H2064 0.929 . S
C2072 C2073 1.377 . S
C2072 C2074 1.384 . S
C2073 C2072 1.377 . S
C2073 C2079 1.390 . S
C2074 H2065 0.930 . S
C2074 C2072 1.384 . S
C2074 C2075 1.372 . S
C2075 C2074 1.372 . S
C2075 C2076 1.400 . S
C2075 C2080 1.490 . S
C2076 H2066 0.930 . S
C2076 C2075 1.400 . S
C2076 C2079 1.386 . S
H2077 C2093 0.930 . S
H2078 C2094 0.931 . S
C2079 H2067 0.929 . S
C2079 C2073 1.390 . S
C2079 C2076 1.386 . S
C2080 C2075 1.490 . S
C2080 C2082 1.395 . S
C2080 C2083 1.403 . S
H2081 C2087 0.930 . S
C2082 H2068 0.930 . S
C2082 C2080 1.395 . S
C2082 C2085 1.403 . S
C2083 C2080 1.403 . S
C2083 C2084 1.524 . S
C2083 C2087 1.400 . S
C2084 H2069 0.960 . S
C2084 H2070 0.960 . S
C2084 H2071 0.960 . S
C2084 C2083 1.524 . S
C2085 C2082 1.403 . S
C2085 C2086 1.392 . S
C2085 C2089 1.495 . S
C2086 C2085 1.392 . S
C2086 C2087 1.385 . S
C2086 C2088 1.478 . S
C2087 H2081 0.930 . S
C2087 C2083 1.400 . S
C2087 C2086 1.385 . S
C2088 C2086 1.478 . S
C2088 C2090 1.381 . S
C2088 C2094 1.383 . S
C2089 C2085 1.495 . S
C2089 H2095 0.959 . S
C2089 H2096 0.961 . S
C2089 H2097 0.960 . S
C2090 C2088 1.381 . S
C2090 C2091 1.394 . S
C2090 H2098 0.930 . S
C2091 C2090 1.394 . S
C2091 C2092 1.383 . S
C2091 H2099 0.929 . S
C2092 C2091 1.383 . S
C2092 C2093 1.377 . S
C2093 H2077 0.930 . S
C2093 C2092 1.377 . S
C2093 C2094 1.379 . S
C2094 H2078 0.931 . S
C2094 C2088 1.383 . S
C2094 C2093 1.379 . S
H2095 C2089 0.959 . S
H2096 C2089 0.961 . S
H2097 C2089 0.960 . S
H2098 C2090 0.930 . S
H2099 C2091 0.929 . S
H2100 C2108 0.929 . S
H2101 C2110 0.930 . S
H2102 C2112 0.930 . S
H2103 C2115 0.929 . S
H2104 C2118 0.915 1_655 S
H2105 C2120 0.960 . S
H2106 C2120 0.960 . S
H2107 C2120 0.960 . S
C2108 H2100 0.929 . S
C2108 C2109 1.379 1_455 S
C2108 C2110 1.384 . S
C2109 C2108 1.379 1_655 S
C2109 C2115 1.388 . S
C2110 H2101 0.930 . S
C2110 C2108 1.384 . S
C2110 C2111 1.372 . S
C2111 C2110 1.372 . S
C2111 C2112 1.400 1_455 S
C2111 C2116 1.490 . S
C2112 H2102 0.930 . S
C2112 C2111 1.400 1_655 S
C2112 C2115 1.386 . S
H2113 C2129 0.930 . S
H2114 C2130 0.931 . S
C2115 H2103 0.929 . S
C2115 C2109 1.388 . S
C2115 C2112 1.386 . S
C2116 C2111 1.490 . S
C2116 C2118 1.416 . S
C2116 C2119 1.403 . S
H2117 C2123 0.930 . S
C2118 H2104 0.915 1_455 S
C2118 C2116 1.416 . S
C2118 C2121 1.402 . S
C2119 C2116 1.403 . S
C2119 C2120 1.524 . S
C2119 C2123 1.400 . S
C2120 H2105 0.960 . S
C2120 H2106 0.960 . S
C2120 H2107 0.960 . S
C2120 C2119 1.524 . S
C2121 C2118 1.402 . S
C2121 C2122 1.392 . S
C2121 C2125 1.495 1_455 S
C2122 C2121 1.392 . S
C2122 C2123 1.385 . S
C2122 C2124 1.478 . S
C2123 H2117 0.930 . S
C2123 C2119 1.400 . S
C2123 C2122 1.385 . S
C2124 C2122 1.478 . S
C2124 C2126 1.381 . S
C2124 C2130 1.383 1_455 S
C2125 C2121 1.495 1_655 S
C2125 H2131 0.959 . S
C2125 H2132 0.961 . S
C2125 H2133 0.960 1_655 S
C2126 C2124 1.381 . S
C2126 C2127 1.394 . S
C2126 H2134 0.930 . S
C2127 C2126 1.394 . S
C2127 C2128 1.383 . S
C2127 H2135 0.929 . S
C2128 C2127 1.383 . S
C2128 C2129 1.377 1_455 S
C2129 H2113 0.930 . S
C2129 C2128 1.377 1_655 S
C2129 C2130 1.379 . S
C2130 H2114 0.931 . S
C2130 C2124 1.383 1_655 S
C2130 C2129 1.379 . S
H2131 C2125 0.959 . S
H2132 C2125 0.961 . S
H2133 C2125 0.960 1_455 S
H2134 C2126 0.930 . S
H2135 C2127 0.929 . S
H2136 C2144 0.929 . S
H2137 C2146 0.930 . S
H2138 C2148 0.930 . S
H2139 C2151 0.929 . S
H2140 C2154 0.930 . S
H2141 C2156 0.960 . S
H2142 C2156 0.960 . S
H2143 C2156 0.960 . S
C2144 H2136 0.929 . S
C2144 C2145 1.377 . S
C2144 C2146 1.384 . S
C2145 C2144 1.377 . S
C2145 C2151 1.390 . S
C2146 H2137 0.930 . S
C2146 C2144 1.384 . S
C2146 C2147 1.372 . S
C2147 C2146 1.372 . S
C2147 C2148 1.400 . S
C2147 C2152 1.490 . S
C2148 H2138 0.930 . S
C2148 C2147 1.400 . S
C2148 C2151 1.386 . S
H2149 C2165 0.930 . S
H2150 C2166 0.931 . S
C2151 H2139 0.929 . S
C2151 C2145 1.390 . S
C2151 C2148 1.386 . S
C2152 C2147 1.490 . S
C2152 C2154 1.395 . S
C2152 C2155 1.403 . S
H2153 C2159 0.930 . S
C2154 H2140 0.930 . S
C2154 C2152 1.395 . S
C2154 C2157 1.403 . S
C2155 C2152 1.403 . S
C2155 C2156 1.524 . S
C2155 C2159 1.400 . S
C2156 H2141 0.960 . S
C2156 H2142 0.960 . S
C2156 H2143 0.960 . S
C2156 C2155 1.524 . S
C2157 C2154 1.403 . S
C2157 C2158 1.392 . S
C2157 C2161 1.495 . S
C2158 C2157 1.392 . S
C2158 C2159 1.385 . S
C2158 C2160 1.478 . S
C2159 H2153 0.930 . S
C2159 C2155 1.400 . S
C2159 C2158 1.385 . S
C2160 C2158 1.478 . S
C2160 C2162 1.381 . S
C2160 C2166 1.383 . S
C2161 C2157 1.495 . S
C2161 H2167 0.959 . S
C2161 H2168 0.961 . S
C2161 H2169 0.960 . S
C2162 C2160 1.381 . S
C2162 C2163 1.394 . S
C2162 H2170 0.930 . S
C2163 C2162 1.394 . S
C2163 C2164 1.383 . S
C2163 H2171 0.929 . S
C2164 C2163 1.383 . S
C2164 C2165 1.377 . S
C2165 H2149 0.930 . S
C2165 C2164 1.377 . S
C2165 C2166 1.379 . S
C2166 H2150 0.931 . S
C2166 C2160 1.383 . S
C2166 C2165 1.379 . S
H2167 C2161 0.959 . S
H2168 C2161 0.961 . S
H2169 C2161 0.960 . S
H2170 C2162 0.930 . S
H2171 C2163 0.929 . S
H2172 C2180 0.929 . S
H2173 C2182 0.930 . S
H2174 C2184 0.930 . S
H2175 C2187 0.929 . S
H2176 C2190 0.930 . S
H2177 C2192 0.960 . S
H2178 C2192 0.960 . S
H2179 C2192 0.960 . S
C2180 H2172 0.929 . S
C2180 C2181 1.377 . S
C2180 C2182 1.384 . S
C2181 C2180 1.377 . S
C2181 C2187 1.390 . S
C2182 H2173 0.930 . S
C2182 C2180 1.384 . S
C2182 C2183 1.372 . S
C2183 C2182 1.372 . S
C2183 C2184 1.400 . S
C2183 C2188 1.490 . S
C2184 H2174 0.930 . S
C2184 C2183 1.400 . S
C2184 C2187 1.386 . S
H2185 C2201 0.930 1_554 S
H2186 C2202 0.931 . S
C2187 H2175 0.929 . S
C2187 C2181 1.390 . S
C2187 C2184 1.386 . S
C2188 C2183 1.490 . S
C2188 C2190 1.395 . S
C2188 C2191 1.403 . S
H2189 C2195 0.930 . S
C2190 H2176 0.930 . S
C2190 C2188 1.395 . S
C2190 C2193 1.403 . S
C2191 C2188 1.403 . S
C2191 C2192 1.524 . S
C2191 C2195 1.400 . S
C2192 H2177 0.960 . S
C2192 H2178 0.960 . S
C2192 H2179 0.960 . S
C2192 C2191 1.524 . S
C2193 C2190 1.403 . S
C2193 C2194 1.392 . S
C2193 C2197 1.495 . S
C2194 C2193 1.392 . S
C2194 C2195 1.385 . S
C2194 C2196 1.478 . S
C2195 H2189 0.930 . S
C2195 C2191 1.400 . S
C2195 C2194 1.385 . S
C2196 C2194 1.478 . S
C2196 C2198 1.381 . S
C2196 C2202 1.383 . S
C2197 C2193 1.495 . S
C2197 H2203 0.959 . S
C2197 H2204 0.961 . S
C2197 H2205 0.960 . S
C2198 C2196 1.381 . S
C2198 C2199 1.394 . S
C2198 H2206 0.930 . S
C2199 C2198 1.394 . S
C2199 C2200 1.383 . S
C2199 H2207 0.929 . S
C2200 C2199 1.383 . S
C2200 C2201 1.377 . S
C2201 H2185 0.930 1_556 S
C2201 C2200 1.377 . S
C2201 C2202 1.379 . S
C2202 H2186 0.931 . S
C2202 C2196 1.383 . S
C2202 C2201 1.379 . S
H2203 C2197 0.959 . S
H2204 C2197 0.961 . S
H2205 C2197 0.960 . S
H2206 C2198 0.930 . S
H2207 C2199 0.929 . S
H2208 C2216 0.929 . S
H2209 C2218 0.930 . S
H2210 C2220 0.930 . S
H2211 C2223 0.929 . S
H2212 C2226 0.930 . S
H2213 C2228 0.960 . S
H2214 C2228 0.960 . S
H2215 C2228 0.960 . S
C2216 H2208 0.929 . S
C2216 C2217 1.388 . S
C2216 C2218 1.384 . S
C2217 C2216 1.388 . S
C2217 C2223 1.380 1_545 S
C2218 H2209 0.930 . S
C2218 C2216 1.384 . S
C2218 C2219 1.382 . S
C2219 C2218 1.382 . S
C2219 C2220 1.389 1_545 S
C2219 C2224 1.491 1_545 S
C2220 H2210 0.930 . S
C2220 C2219 1.389 1_565 S
C2220 C2223 1.386 . S
H2221 C2237 0.930 . S
H2222 C2238 0.931 . S
C2223 H2211 0.929 . S
C2223 C2217 1.380 1_565 S
C2223 C2220 1.386 . S
C2224 C2219 1.491 1_565 S
C2224 C2226 1.394 . S
C2224 C2227 1.404 1_565 S
H2225 C2231 0.930 . S
C2226 H2212 0.930 . S
C2226 C2224 1.394 . S
C2226 C2229 1.403 . S
C2227 C2224 1.404 1_545 S
C2227 C2228 1.524 . S
C2227 C2231 1.400 . S
C2228 H2213 0.960 . S
C2228 H2214 0.960 . S
C2228 H2215 0.960 . S
C2228 C2227 1.524 . S
C2229 C2226 1.403 . S
C2229 C2230 1.392 . S
C2229 C2233 1.495 . S
C2230 C2229 1.392 . S
C2230 C2231 1.385 1_565 S
C2230 C2232 1.478 . S
C2231 H2225 0.930 . S
C2231 C2227 1.400 . S
C2231 C2230 1.385 1_545 S
C2232 C2230 1.478 . S
C2232 C2234 1.381 1_565 S
C2232 C2238 1.383 . S
C2233 C2229 1.495 . S
C2233 H2239 0.959 . S
C2233 H2240 0.961 . S
C2233 H2241 0.960 . S
C2234 C2232 1.381 1_545 S
C2234 C2235 1.394 . S
C2234 H2242 0.930 . S
C2235 C2234 1.394 . S
C2235 C2236 1.383 1_545 S
C2235 H2243 0.929 . S
C2236 C2235 1.383 1_565 S
C2236 C2237 1.377 . S
C2237 H2221 0.930 . S
C2237 C2236 1.377 . S
C2237 C2238 1.379 . S
C2238 H2222 0.931 . S
C2238 C2232 1.383 . S
C2238 C2237 1.379 . S
H2239 C2233 0.959 . S
H2240 C2233 0.961 . S
H2241 C2233 0.960 . S
H2242 C2234 0.930 . S
H2243 C2235 0.929 . S
H2244 C2252 0.929 . S
H2245 C2254 0.930 . S
H2246 C2256 0.930 . S
H2247 C2259 0.929 . S
H2248 C2262 0.930 . S
H2249 C2264 0.960 . S
H2250 C2264 0.960 . S
H2251 C2264 0.960 . S
C2252 H2244 0.929 . S
C2252 C2253 1.377 . S
C2252 C2254 1.384 . S
C2253 C2252 1.377 . S
C2253 C2259 1.390 . S
C2254 H2245 0.930 . S
C2254 C2252 1.384 . S
C2254 C2255 1.372 . S
C2255 C2254 1.372 . S
C2255 C2256 1.400 . S
C2255 C2260 1.490 . S
C2256 H2246 0.930 . S
C2256 C2255 1.400 . S
C2256 C2259 1.386 . S
H2257 C2273 0.930 . S
H2258 C2274 0.931 . S
C2259 H2247 0.929 . S
C2259 C2253 1.390 . S
C2259 C2256 1.386 . S
C2260 C2255 1.490 . S
C2260 C2262 1.395 . S
C2260 C2263 1.403 . S
H2261 C2267 0.930 . S
C2262 H2248 0.930 . S
C2262 C2260 1.395 . S
C2262 C2265 1.403 . S
C2263 C2260 1.403 . S
C2263 C2264 1.524 . S
C2263 C2267 1.400 . S
C2264 H2249 0.960 . S
C2264 H2250 0.960 . S
C2264 H2251 0.960 . S
C2264 C2263 1.524 . S
C2265 C2262 1.403 . S
C2265 C2266 1.392 . S
C2265 C2269 1.495 . S
C2266 C2265 1.392 . S
C2266 C2267 1.385 . S
C2266 C2268 1.478 . S
C2267 H2261 0.930 . S
C2267 C2263 1.400 . S
C2267 C2266 1.385 . S
C2268 C2266 1.478 . S
C2268 C2270 1.381 . S
C2268 C2274 1.383 . S
C2269 C2265 1.495 . S
C2269 H2275 0.959 . S
C2269 H2276 0.961 . S
C2269 H2277 0.960 . S
C2270 C2268 1.381 . S
C2270 C2271 1.394 . S
C2270 H2278 0.930 . S
C2271 C2270 1.394 . S
C2271 C2272 1.383 . S
C2271 H2279 0.929 . S
C2272 C2271 1.383 . S
C2272 C2273 1.377 . S
C2273 H2257 0.930 . S
C2273 C2272 1.377 . S
C2273 C2274 1.379 . S
C2274 H2258 0.931 . S
C2274 C2268 1.383 . S
C2274 C2273 1.379 . S
H2275 C2269 0.959 . S
H2276 C2269 0.961 . S
H2277 C2269 0.960 . S
H2278 C2270 0.930 . S
H2279 C2271 0.929 . S
H2280 C2288 0.929 . S
H2281 C2290 0.930 . S
H2282 C2292 0.930 . S
H2283 C2295 0.929 . S
H2284 C2298 0.930 . S
H2285 C2300 0.960 . S
H2286 C2300 0.960 . S
H2287 C2300 0.960 . S
C2288 H2280 0.929 . S
C2288 C2289 1.377 . S
C2288 C2290 1.384 . S
C2289 C2288 1.377 . S
C2289 C2295 1.390 . S
C2290 H2281 0.930 . S
C2290 C2288 1.384 . S
C2290 C2291 1.372 . S
C2291 C2290 1.372 . S
C2291 C2292 1.400 . S
C2291 C2296 1.490 . S
C2292 H2282 0.930 . S
C2292 C2291 1.400 . S
C2292 C2295 1.386 . S
H2293 C2309 0.930 . S
H2294 C2310 0.931 . S
C2295 H2283 0.929 . S
C2295 C2289 1.390 . S
C2295 C2292 1.386 . S
C2296 C2291 1.490 . S
C2296 C2298 1.395 . S
C2296 C2299 1.403 . S
H2297 C2303 0.930 . S
C2298 H2284 0.930 . S
C2298 C2296 1.395 . S
C2298 C2301 1.403 . S
C2299 C2296 1.403 . S
C2299 C2300 1.524 . S
C2299 C2303 1.400 . S
C2300 H2285 0.960 . S
C2300 H2286 0.960 . S
C2300 H2287 0.960 . S
C2300 C2299 1.524 . S
C2301 C2298 1.403 . S
C2301 C2302 1.392 . S
C2301 C2305 1.495 . S
C2302 C2301 1.392 . S
C2302 C2303 1.385 . S
C2302 C2304 1.478 . S
C2303 H2297 0.930 . S
C2303 C2299 1.400 . S
C2303 C2302 1.385 . S
C2304 C2302 1.478 . S
C2304 C2306 1.381 . S
C2304 C2310 1.383 . S
C2305 C2301 1.495 . S
C2305 H2311 0.959 . S
C2305 H2312 0.961 . S
C2305 H2313 0.960 . S
C2306 C2304 1.381 . S
C2306 C2307 1.394 . S
C2306 H2314 0.930 . S
C2307 C2306 1.394 . S
C2307 C2308 1.383 . S
C2307 H2315 0.929 . S
C2308 C2307 1.383 . S
C2308 C2309 1.377 . S
C2309 H2293 0.930 . S
C2309 C2308 1.377 . S
C2309 C2310 1.379 . S
C2310 H2294 0.931 . S
C2310 C2304 1.383 . S
C2310 C2309 1.379 . S
H2311 C2305 0.959 . S
H2312 C2305 0.961 . S
H2313 C2305 0.960 . S
H2314 C2306 0.930 . S
H2315 C2307 0.929 . S
H2316 C2324 0.929 . S
H2317 C2326 0.930 . S
H2318 C2328 0.930 . S
H2319 C2331 0.929 . S
H2320 C2334 0.930 . S
H2321 C2336 0.960 . S
H2322 C2336 0.960 . S
H2323 C2336 0.960 . S
C2324 H2316 0.929 . S
C2324 C2325 1.377 . S
C2324 C2326 1.384 . S
C2325 C2324 1.377 . S
C2325 C2331 1.390 . S
C2326 H2317 0.930 . S
C2326 C2324 1.384 . S
C2326 C2327 1.372 . S
C2327 C2326 1.372 . S
C2327 C2328 1.400 . S
C2327 C2332 1.490 . S
C2328 H2318 0.930 . S
C2328 C2327 1.400 . S
C2328 C2331 1.386 . S
H2329 C2345 0.930 . S
H2330 C2346 0.931 . S
C2331 H2319 0.929 . S
C2331 C2325 1.390 . S
C2331 C2328 1.386 . S
C2332 C2327 1.490 . S
C2332 C2334 1.395 . S
C2332 C2335 1.403 . S
H2333 C2339 0.930 . S
C2334 H2320 0.930 . S
C2334 C2332 1.395 . S
C2334 C2337 1.403 . S
C2335 C2332 1.403 . S
C2335 C2336 1.524 . S
C2335 C2339 1.400 . S
C2336 H2321 0.960 . S
C2336 H2322 0.960 . S
C2336 H2323 0.960 . S
C2336 C2335 1.524 . S
C2337 C2334 1.403 . S
C2337 C2338 1.392 . S
C2337 C2341 1.495 . S
C2338 C2337 1.392 . S
C2338 C2339 1.385 . S
C2338 C2340 1.478 . S
C2339 H2333 0.930 . S
C2339 C2335 1.400 . S
C2339 C2338 1.385 . S
C2340 C2338 1.478 . S
C2340 C2342 1.381 . S
C2340 C2346 1.383 . S
C2341 C2337 1.495 . S
C2341 H2347 0.959 . S
C2341 H2348 0.961 . S
C2341 H2349 0.960 . S
C2342 C2340 1.381 . S
C2342 C2343 1.394 . S
C2342 H2350 0.930 . S
C2343 C2342 1.394 . S
C2343 C2344 1.383 . S
C2343 H2351 0.929 . S
C2344 C2343 1.383 . S
C2344 C2345 1.377 . S
C2345 H2329 0.930 . S
C2345 C2344 1.377 . S
C2345 C2346 1.379 . S
C2346 H2330 0.931 . S
C2346 C2340 1.383 . S
C2346 C2345 1.379 . S
H2347 C2341 0.959 . S
H2348 C2341 0.961 . S
H2349 C2341 0.960 . S
H2350 C2342 0.930 . S
H2351 C2343 0.929 . S
H2352 C2360 0.929 . S
H2353 C2362 0.930 . S
H2354 C2364 0.930 . S
H2355 C2367 0.929 . S
H2356 C2370 0.930 . S
H2357 C2372 0.960 . S
H2358 C2372 0.960 . S
H2359 C2372 0.960 . S
C2360 H2352 0.929 . S
C2360 C2361 1.377 . S
C2360 C2362 1.384 . S
C2361 C2360 1.377 . S
C2361 C2367 1.390 . S
C2362 H2353 0.930 . S
C2362 C2360 1.384 . S
C2362 C2363 1.372 . S
C2363 C2362 1.372 . S
C2363 C2364 1.400 . S
C2363 C2368 1.490 . S
C2364 H2354 0.930 . S
C2364 C2363 1.400 . S
C2364 C2367 1.386 . S
H2365 C2381 0.930 . S
H2366 C2382 0.931 . S
C2367 H2355 0.929 . S
C2367 C2361 1.390 . S
C2367 C2364 1.386 . S
C2368 C2363 1.490 . S
C2368 C2370 1.395 . S
C2368 C2371 1.403 . S
H2369 C2375 0.930 . S
C2370 H2356 0.930 . S
C2370 C2368 1.395 . S
C2370 C2373 1.403 . S
C2371 C2368 1.403 . S
C2371 C2372 1.524 . S
C2371 C2375 1.400 . S
C2372 H2357 0.960 . S
C2372 H2358 0.960 . S
C2372 H2359 0.960 . S
C2372 C2371 1.524 . S
C2373 C2370 1.403 . S
C2373 C2374 1.392 . S
C2373 C2377 1.495 . S
C2374 C2373 1.392 . S
C2374 C2375 1.385 . S
C2374 C2376 1.478 . S
C2375 H2369 0.930 . S
C2375 C2371 1.400 . S
C2375 C2374 1.385 . S
C2376 C2374 1.478 . S
C2376 C2378 1.381 . S
C2376 C2382 1.383 . S
C2377 C2373 1.495 . S
C2377 H2383 0.959 . S
C2377 H2384 0.961 . S
C2377 H2385 0.960 . S
C2378 C2376 1.381 . S
C2378 C2379 1.394 . S
C2378 H2386 0.930 . S
C2379 C2378 1.394 . S
C2379 C2380 1.383 . S
C2379 H2387 0.929 . S
C2380 C2379 1.383 . S
C2380 C2381 1.377 . S
C2381 H2365 0.930 . S
C2381 C2380 1.377 . S
C2381 C2382 1.379 . S
C2382 H2366 0.931 . S
C2382 C2376 1.383 . S
C2382 C2381 1.379 . S
H2383 C2377 0.959 . S
H2384 C2377 0.961 . S
H2385 C2377 0.960 . S
H2386 C2378 0.930 . S
H2387 C2379 0.929 . S
H2388 C2396 0.929 . S
H2389 C2398 0.930 . S
H2390 C2400 0.930 . S
H2391 C2403 0.929 . S
H2392 C2406 0.930 . S
H2393 C2408 0.960 . S
H2394 C2408 0.960 . S
H2395 C2408 0.960 . S
C2396 H2388 0.929 . S
C2396 C2397 1.381 1_554 S
C2396 C2398 1.384 . S
C2397 C2396 1.381 1_556 S
C2397 C2403 1.386 . S
C2398 H2389 0.930 . S
C2398 C2396 1.384 . S
C2398 C2399 1.372 1_554 S
C2399 C2398 1.372 1_556 S
C2399 C2400 1.399 . S
C2399 C2404 1.489 1_556 S
C2400 H2390 0.930 . S
C2400 C2399 1.399 . S
C2400 C2403 1.386 . S
H2401 C2417 0.930 . S
H2402 C2418 0.931 . S
C2403 H2391 0.929 . S
C2403 C2397 1.386 . S
C2403 C2400 1.386 . S
C2404 C2399 1.489 1_554 S
C2404 C2406 1.407 . S
C2404 C2407 1.392 1_554 S
H2405 C2411 0.930 . S
C2406 H2392 0.930 . S
C2406 C2404 1.407 . S
C2406 C2409 1.403 . S
C2407 C2404 1.392 1_556 S
C2407 C2408 1.524 . S
C2407 C2411 1.400 . S
C2408 H2393 0.960 . S
C2408 H2394 0.960 . S
C2408 H2395 0.960 . S
C2408 C2407 1.524 . S
C2409 C2406 1.403 . S
C2409 C2410 1.392 . S
C2409 C2413 1.495 . S
C2410 C2409 1.392 . S
C2410 C2411 1.385 1_554 S
C2410 C2412 1.478 . S
C2411 H2405 0.930 . S
C2411 C2407 1.400 . S
C2411 C2410 1.385 1_556 S
C2412 C2410 1.478 . S
C2412 C2414 1.381 . S
C2412 C2418 1.383 1_554 S
C2413 C2409 1.495 . S
C2413 H2419 0.959 . S
C2413 H2420 0.961 . S
C2413 H2421 0.960 . S
C2414 C2412 1.381 . S
C2414 C2415 1.394 . S
C2414 H2422 0.930 . S
C2415 C2414 1.394 . S
C2415 C2416 1.364 1_554 S
C2415 H2423 0.929 . S
C2416 C2415 1.364 1_556 S
C2416 C2417 1.396 . S
C2417 H2401 0.930 . S
C2417 C2416 1.396 . S
C2417 C2418 1.379 . S
C2418 H2402 0.931 . S
C2418 C2412 1.383 1_556 S
C2418 C2417 1.379 . S
H2419 C2413 0.959 . S
H2420 C2413 0.961 . S
H2421 C2413 0.960 . S
H2422 C2414 0.930 . S
H2423 C2415 0.929 . S
H2424 C2432 0.929 . S
H2425 C2434 0.930 . S
H2426 C2436 0.930 . S
H2427 C2439 0.929 . S
H2428 C2442 0.930 . S
H2429 C2444 0.960 . S
H2430 C2444 0.960 . S
H2431 C2444 0.960 . S
C2432 H2424 0.929 . S
C2432 C2433 1.377 . S
C2432 C2434 1.384 . S
C2433 C2432 1.377 . S
C2433 C2439 1.390 . S
C2434 H2425 0.930 . S
C2434 C2432 1.384 . S
C2434 C2435 1.372 . S
C2435 C2434 1.372 . S
C2435 C2436 1.400 . S
C2435 C2440 1.490 . S
C2436 H2426 0.930 . S
C2436 C2435 1.400 . S
C2436 C2439 1.386 . S
H2437 C2453 0.930 . S
H2438 C2454 0.931 . S
C2439 H2427 0.929 . S
C2439 C2433 1.390 . S
C2439 C2436 1.386 . S
C2440 C2435 1.490 . S
C2440 C2442 1.395 . S
C2440 C2443 1.403 . S
H2441 C2447 0.930 . S
C2442 H2428 0.930 . S
C2442 C2440 1.395 . S
C2442 C2445 1.403 . S
C2443 C2440 1.403 . S
C2443 C2444 1.524 . S
C2443 C2447 1.400 . S
C2444 H2429 0.960 . S
C2444 H2430 0.960 . S
C2444 H2431 0.960 . S
C2444 C2443 1.524 . S
C2445 C2442 1.403 . S
C2445 C2446 1.392 . S
C2445 C2449 1.495 . S
C2446 C2445 1.392 . S
C2446 C2447 1.385 . S
C2446 C2448 1.478 . S
C2447 H2441 0.930 . S
C2447 C2443 1.400 . S
C2447 C2446 1.385 . S
C2448 C2446 1.478 . S
C2448 C2450 1.381 . S
C2448 C2454 1.383 . S
C2449 C2445 1.495 . S
C2449 H2455 0.959 . S
C2449 H2456 0.961 . S
C2449 H2457 0.960 . S
C2450 C2448 1.381 . S
C2450 C2451 1.394 . S
C2450 H2458 0.930 . S
C2451 C2450 1.394 . S
C2451 C2452 1.383 . S
C2451 H2459 0.929 . S
C2452 C2451 1.383 . S
C2452 C2453 1.377 . S
C2453 H2437 0.930 . S
C2453 C2452 1.377 . S
C2453 C2454 1.379 . S
C2454 H2438 0.931 . S
C2454 C2448 1.383 . S
C2454 C2453 1.379 . S
H2455 C2449 0.959 . S
H2456 C2449 0.961 . S
H2457 C2449 0.960 . S
H2458 C2450 0.930 . S
H2459 C2451 0.929 . S
H2460 C2468 0.929 . S
H2461 C2470 0.930 . S
H2462 C2472 0.930 . S
H2463 C2475 0.929 . S
H2464 C2478 0.930 . S
H2465 C2480 0.960 . S
H2466 C2480 0.960 . S
H2467 C2480 0.960 . S
C2468 H2460 0.929 . S
C2468 C2469 1.377 . S
C2468 C2470 1.384 . S
C2469 C2468 1.377 . S
C2469 C2475 1.390 . S
C2470 H2461 0.930 . S
C2470 C2468 1.384 . S
C2470 C2471 1.372 . S
C2471 C2470 1.372 . S
C2471 C2472 1.400 . S
C2471 C2476 1.490 . S
C2472 H2462 0.930 . S
C2472 C2471 1.400 . S
C2472 C2475 1.386 . S
H2473 C2489 0.930 . S
H2474 C2490 0.931 . S
C2475 H2463 0.929 . S
C2475 C2469 1.390 . S
C2475 C2472 1.386 . S
C2476 C2471 1.490 . S
C2476 C2478 1.395 . S
C2476 C2479 1.403 . S
H2477 C2483 0.930 . S
C2478 H2464 0.930 . S
C2478 C2476 1.395 . S
C2478 C2481 1.403 . S
C2479 C2476 1.403 . S
C2479 C2480 1.524 . S
C2479 C2483 1.400 . S
C2480 H2465 0.960 . S
C2480 H2466 0.960 . S
C2480 H2467 0.960 . S
C2480 C2479 1.524 . S
C2481 C2478 1.403 . S
C2481 C2482 1.392 . S
C2481 C2485 1.495 . S
C2482 C2481 1.392 . S
C2482 C2483 1.385 . S
C2482 C2484 1.478 . S
C2483 H2477 0.930 . S
C2483 C2479 1.400 . S
C2483 C2482 1.385 . S
C2484 C2482 1.478 . S
C2484 C2486 1.381 . S
C2484 C2490 1.383 . S
C2485 C2481 1.495 . S
C2485 H2491 0.959 . S
C2485 H2492 0.961 . S
C2485 H2493 0.960 . S
C2486 C2484 1.381 . S
C2486 C2487 1.394 . S
C2486 H2494 0.930 . S
C2487 C2486 1.394 . S
C2487 C2488 1.383 . S
C2487 H2495 0.929 . S
C2488 C2487 1.383 . S
C2488 C2489 1.377 . S
C2489 H2473 0.930 . S
C2489 C2488 1.377 . S
C2489 C2490 1.379 . S
C2490 H2474 0.931 . S
C2490 C2484 1.383 . S
C2490 C2489 1.379 . S
H2491 C2485 0.959 . S
H2492 C2485 0.961 . S
H2493 C2485 0.960 . S
H2494 C2486 0.930 . S
H2495 C2487 0.929 . S
H2496 C2504 0.929 . S
H2497 C2506 0.930 . S
H2498 C2508 0.930 . S
H2499 C2511 0.929 . S
H2500 C2514 0.930 . S
H2501 C2516 0.960 . S
H2502 C2516 0.960 . S
H2503 C2516 0.960 . S
C2504 H2496 0.929 . S
C2504 C2505 1.377 . S
C2504 C2506 1.384 . S
C2505 C2504 1.377 . S
C2505 C2511 1.390 . S
C2506 H2497 0.930 . S
C2506 C2504 1.384 . S
C2506 C2507 1.372 . S
C2507 C2506 1.372 . S
C2507 C2508 1.400 . S
C2507 C2512 1.490 . S
C2508 H2498 0.930 . S
C2508 C2507 1.400 . S
C2508 C2511 1.386 . S
H2509 C2525 0.930 . S
H2510 C2526 0.931 . S
C2511 H2499 0.929 . S
C2511 C2505 1.390 . S
C2511 C2508 1.386 . S
C2512 C2507 1.490 . S
C2512 C2514 1.395 . S
C2512 C2515 1.403 . S
H2513 C2519 0.930 . S
C2514 H2500 0.930 . S
C2514 C2512 1.395 . S
C2514 C2517 1.403 . S
C2515 C2512 1.403 . S
C2515 C2516 1.524 . S
C2515 C2519 1.400 . S
C2516 H2501 0.960 . S
C2516 H2502 0.960 . S
C2516 H2503 0.960 . S
C2516 C2515 1.524 . S
C2517 C2514 1.403 . S
C2517 C2518 1.392 . S
C2517 C2521 1.495 . S
C2518 C2517 1.392 . S
C2518 C2519 1.385 . S
C2518 C2520 1.478 . S
C2519 H2513 0.930 . S
C2519 C2515 1.400 . S
C2519 C2518 1.385 . S
C2520 C2518 1.478 . S
C2520 C2522 1.381 . S
C2520 C2526 1.383 . S
C2521 C2517 1.495 . S
C2521 H2527 0.959 . S
C2521 H2528 0.973 . S
C2521 H2529 0.960 . S
C2522 C2520 1.381 . S
C2522 C2523 1.394 . S
C2522 H2530 0.930 . S
C2523 C2522 1.394 . S
C2523 C2524 1.383 . S
C2523 H2531 0.929 . S
C2524 C2523 1.383 . S
C2524 C2525 1.377 . S
C2525 H2509 0.930 . S
C2525 C2524 1.377 . S
C2525 C2526 1.379 . S
C2526 H2510 0.931 . S
C2526 C2520 1.383 . S
C2526 C2525 1.379 . S
H2527 C2521 0.959 . S
H2528 C2521 0.973 . S
H2529 C2521 0.960 . S
H2530 C2522 0.930 . S
H2531 C2523 0.929 . S
H2532 C2540 0.929 . S
H2533 C2542 0.930 . S
H2534 C2544 0.932 . S
H2535 C2547 0.926 . S
H2536 C2550 0.930 . S
H2537 C2552 0.960 . S
H2538 C2552 0.960 . S
H2539 C2552 0.960 . S
C2540 H2532 0.929 . S
C2540 C2541 1.377 . S
C2540 C2542 1.384 . S
C2541 C2540 1.377 . S
C2541 C2547 1.393 1_655 S
C2542 H2533 0.930 . S
C2542 C2540 1.384 . S
C2542 C2543 1.371 . S
C2543 C2542 1.371 . S
C2543 C2544 1.408 1_655 S
C2543 C2548 1.488 . S
C2544 H2534 0.932 . S
C2544 C2543 1.408 1_455 S
C2544 C2547 1.388 . S
H2545 C2561 0.930 . S
H2546 C2562 0.931 . S
C2547 H2535 0.926 . S
C2547 C2541 1.393 1_455 S
C2547 C2544 1.388 . S
C2548 C2543 1.488 . S
C2548 C2550 1.376 1_655 S
C2548 C2551 1.419 . S
H2549 C2555 0.930 . S
C2550 H2536 0.930 . S
C2550 C2548 1.376 1_455 S
C2550 C2553 1.403 . S
C2551 C2548 1.419 . S
C2551 C2552 1.524 . S
C2551 C2555 1.400 . S
C2552 H2537 0.960 . S
C2552 H2538 0.960 . S
C2552 H2539 0.960 . S
C2552 C2551 1.524 . S
C2553 C2550 1.403 . S
C2553 C2554 1.392 . S
C2553 C2557 1.495 . S
C2554 C2553 1.392 . S
C2554 C2555 1.385 1_455 S
C2554 C2556 1.478 . S
C2555 H2549 0.930 . S
C2555 C2551 1.400 . S
C2555 C2554 1.385 1_655 S
C2556 C2554 1.478 . S
C2556 C2558 1.381 1_455 S
C2556 C2562 1.383 . S
C2557 C2553 1.495 . S
C2557 H2563 0.959 . S
C2557 H2564 0.961 . S
C2557 H2565 0.960 . S
C2558 C2556 1.381 1_655 S
C2558 C2559 1.394 . S
C2558 H2566 0.930 . S
C2559 C2558 1.394 . S
C2559 C2560 1.386 . S
C2559 H2567 0.929 . S
C2560 C2559 1.386 . S
C2560 C2561 1.377 1_655 S
C2561 H2545 0.930 . S
C2561 C2560 1.377 1_455 S
C2561 C2562 1.379 . S
C2562 H2546 0.931 . S
C2562 C2556 1.383 . S
C2562 C2561 1.379 . S
H2563 C2557 0.959 . S
H2564 C2557 0.961 . S
H2565 C2557 0.960 . S
H2566 C2558 0.930 . S
H2567 C2559 0.929 . S
H2568 C2576 0.929 . S
H2569 C2578 0.930 . S
H2570 C2580 0.930 . S
H2571 C2583 0.929 . S
H2572 C2586 0.930 . S
H2573 C2588 0.960 . S
H2574 C2588 0.960 . S
H2575 C2588 0.960 . S
C2576 H2568 0.929 . S
C2576 C2577 1.377 . S
C2576 C2578 1.384 . S
C2577 C2576 1.377 . S
C2577 C2583 1.390 . S
C2578 H2569 0.930 . S
C2578 C2576 1.384 . S
C2578 C2579 1.372 . S
C2579 C2578 1.372 . S
C2579 C2580 1.400 . S
C2579 C2584 1.490 . S
C2580 H2570 0.930 . S
C2580 C2579 1.400 . S
C2580 C2583 1.386 . S
H2581 C2597 0.930 . S
H2582 C2598 0.931 . S
C2583 H2571 0.929 . S
C2583 C2577 1.390 . S
C2583 C2580 1.386 . S
C2584 C2579 1.490 . S
C2584 C2586 1.395 . S
C2584 C2587 1.403 . S
H2585 C2591 0.930 . S
C2586 H2572 0.930 . S
C2586 C2584 1.395 . S
C2586 C2589 1.403 . S
C2587 C2584 1.403 . S
C2587 C2588 1.524 . S
C2587 C2591 1.400 . S
C2588 H2573 0.960 . S
C2588 H2574 0.960 . S
C2588 H2575 0.960 . S
C2588 C2587 1.524 . S
C2589 C2586 1.403 . S
C2589 C2590 1.392 . S
C2589 C2593 1.495 . S
C2590 C2589 1.392 . S
C2590 C2591 1.385 . S
C2590 C2592 1.478 . S
C2591 H2585 0.930 . S
C2591 C2587 1.400 . S
C2591 C2590 1.385 . S
C2592 C2590 1.478 . S
C2592 C2594 1.381 . S
C2592 C2598 1.383 . S
C2593 C2589 1.495 . S
C2593 H2599 0.959 . S
C2593 H2600 0.961 . S
C2593 H2601 0.960 . S
C2594 C2592 1.381 . S
C2594 C2595 1.394 . S
C2594 H2602 0.930 . S
C2595 C2594 1.394 . S
C2595 C2596 1.383 . S
C2595 H2603 0.929 . S
C2596 C2595 1.383 . S
C2596 C2597 1.377 . S
C2597 H2581 0.930 . S
C2597 C2596 1.377 . S
C2597 C2598 1.379 . S
C2598 H2582 0.931 . S
C2598 C2592 1.383 . S
C2598 C2597 1.379 . S
H2599 C2593 0.959 . S
H2600 C2593 0.961 . S
H2601 C2593 0.960 . S
H2602 C2594 0.930 . S
H2603 C2595 0.929 . S
H2604 C2612 0.929 . S
H2605 C2614 0.930 . S
H2606 C2616 0.930 . S
H2607 C2619 0.929 . S
H2608 C2622 0.930 . S
H2609 C2624 0.960 . S
H2610 C2624 0.960 . S
H2611 C2624 0.960 . S
C2612 H2604 0.929 . S
C2612 C2613 1.377 . S
C2612 C2614 1.384 . S
C2613 C2612 1.377 . S
C2613 C2619 1.390 . S
C2614 H2605 0.930 . S
C2614 C2612 1.384 . S
C2614 C2615 1.372 . S
C2615 C2614 1.372 . S
C2615 C2616 1.400 . S
C2615 C2620 1.490 . S
C2616 H2606 0.930 . S
C2616 C2615 1.400 . S
C2616 C2619 1.386 . S
H2617 C2633 0.930 . S
H2618 C2634 0.931 . S
C2619 H2607 0.929 . S
C2619 C2613 1.390 . S
C2619 C2616 1.386 . S
C2620 C2615 1.490 . S
C2620 C2622 1.395 . S
C2620 C2623 1.403 . S
H2621 C2627 0.930 . S
C2622 H2608 0.930 . S
C2622 C2620 1.395 . S
C2622 C2625 1.403 . S
C2623 C2620 1.403 . S
C2623 C2624 1.524 . S
C2623 C2627 1.400 . S
C2624 H2609 0.960 . S
C2624 H2610 0.960 . S
C2624 H2611 0.960 . S
C2624 C2623 1.524 . S
C2625 C2622 1.403 . S
C2625 C2626 1.392 . S
C2625 C2629 1.495 . S
C2626 C2625 1.392 . S
C2626 C2627 1.385 . S
C2626 C2628 1.478 . S
C2627 H2621 0.930 . S
C2627 C2623 1.400 . S
C2627 C2626 1.385 . S
C2628 C2626 1.478 . S
C2628 C2630 1.381 . S
C2628 C2634 1.383 . S
C2629 C2625 1.495 . S
C2629 H2635 0.959 . S
C2629 H2636 0.961 . S
C2629 H2637 0.960 . S
C2630 C2628 1.381 . S
C2630 C2631 1.394 . S
C2630 H2638 0.930 . S
C2631 C2630 1.394 . S
C2631 C2632 1.383 . S
C2631 H2639 0.929 . S
C2632 C2631 1.383 . S
C2632 C2633 1.377 . S
C2633 H2617 0.930 . S
C2633 C2632 1.377 . S
C2633 C2634 1.379 . S
C2634 H2618 0.931 . S
C2634 C2628 1.383 . S
C2634 C2633 1.379 . S
H2635 C2629 0.959 . S
H2636 C2629 0.961 . S
H2637 C2629 0.960 . S
H2638 C2630 0.930 . S
H2639 C2631 0.929 . S
H2640 C2648 0.929 . S
H2641 C2650 0.930 . S
H2642 C2652 0.930 . S
H2643 C2655 0.929 . S
H2644 C2658 0.930 . S
H2645 C2660 0.960 . S
H2646 C2660 0.960 . S
H2647 C2660 0.960 . S
C2648 H2640 0.929 . S
C2648 C2649 1.391 . S
C2648 C2650 1.384 . S
C2649 C2648 1.391 . S
C2649 C2655 1.378 1_565 S
C2650 H2641 0.930 . S
C2650 C2648 1.384 . S
C2650 C2651 1.381 . S
C2651 C2650 1.381 . S
C2651 C2652 1.390 1_565 S
C2651 C2656 1.491 1_565 S
C2652 H2642 0.930 . S
C2652 C2651 1.390 1_545 S
C2652 C2655 1.386 . S
H2653 C2669 0.930 . S
H2654 C2670 0.931 . S
C2655 H2643 0.929 . S
C2655 C2649 1.378 1_545 S
C2655 C2652 1.386 . S
C2656 C2651 1.491 1_545 S
C2656 C2658 1.397 . S
C2656 C2659 1.400 1_545 S
H2657 C2663 0.930 . S
C2658 H2644 0.930 . S
C2658 C2656 1.397 . S
C2658 C2661 1.403 . S
C2659 C2656 1.400 1_565 S
C2659 C2660 1.524 . S
C2659 C2663 1.400 . S
C2660 H2645 0.960 . S
C2660 H2646 0.960 . S
C2660 H2647 0.960 . S
C2660 C2659 1.524 . S
C2661 C2658 1.403 . S
C2661 C2662 1.392 . S
C2661 C2665 1.495 . S
C2662 C2661 1.392 . S
C2662 C2663 1.385 1_545 S
C2662 C2664 1.478 . S
C2663 H2657 0.930 . S
C2663 C2659 1.400 . S
C2663 C2662 1.385 1_565 S
C2664 C2662 1.478 . S
C2664 C2666 1.381 1_545 S
C2664 C2670 1.383 . S
C2665 C2661 1.495 . S
C2665 H2671 0.959 . S
C2665 H2672 0.961 . S
C2665 H2673 0.960 . S
C2666 C2664 1.381 1_565 S
C2666 C2667 1.394 . S
C2666 H2674 0.930 . S
C2667 C2666 1.394 . S
C2667 C2668 1.383 1_565 S
C2667 H2675 0.929 . S
C2668 C2667 1.383 1_545 S
C2668 C2669 1.377 . S
C2669 H2653 0.930 . S
C2669 C2668 1.377 . S
C2669 C2670 1.379 . S
C2670 H2654 0.931 . S
C2670 C2664 1.383 . S
C2670 C2669 1.379 . S
H2671 C2665 0.959 . S
H2672 C2665 0.961 . S
H2673 C2665 0.960 . S
H2674 C2666 0.930 . S
H2675 C2667 0.929 . S
H2676 C2684 0.929 . S
H2677 C2686 0.930 . S
H2678 C2688 0.930 . S
H2679 C2691 0.929 . S
H2680 C2694 0.930 . S
H2681 C2696 0.960 . S
H2682 C2696 0.960 . S
H2683 C2696 0.960 . S
C2684 H2676 0.929 . S
C2684 C2685 1.377 . S
C2684 C2686 1.384 . S
C2685 C2684 1.377 . S
C2685 C2691 1.390 . S
C2686 H2677 0.930 . S
C2686 C2684 1.384 . S
C2686 C2687 1.372 . S
C2687 C2686 1.372 . S
C2687 C2688 1.400 . S
C2687 C2692 1.490 . S
C2688 H2678 0.930 . S
C2688 C2687 1.400 . S
C2688 C2691 1.386 . S
H2689 C2705 0.930 . S
H2690 C2706 0.931 . S
C2691 H2679 0.929 . S
C2691 C2685 1.390 . S
C2691 C2688 1.386 . S
C2692 C2687 1.490 . S
C2692 C2694 1.395 . S
C2692 C2695 1.403 . S
H2693 C2699 0.930 . S
C2694 H2680 0.930 . S
C2694 C2692 1.395 . S
C2694 C2697 1.403 . S
C2695 C2692 1.403 . S
C2695 C2696 1.524 . S
C2695 C2699 1.400 . S
C2696 H2681 0.960 . S
C2696 H2682 0.960 . S
C2696 H2683 0.960 . S
C2696 C2695 1.524 . S
C2697 C2694 1.403 . S
C2697 C2698 1.392 . S
C2697 C2701 1.495 . S
C2698 C2697 1.392 . S
C2698 C2699 1.385 . S
C2698 C2700 1.478 . S
C2699 H2693 0.930 . S
C2699 C2695 1.400 . S
C2699 C2698 1.385 . S
C2700 C2698 1.478 . S
C2700 C2702 1.381 . S
C2700 C2706 1.383 . S
C2701 C2697 1.495 . S
C2701 H2707 0.959 . S
C2701 H2708 0.961 . S
C2701 H2709 0.960 . S
C2702 C2700 1.381 . S
C2702 C2703 1.394 . S
C2702 H2710 0.930 . S
C2703 C2702 1.394 . S
C2703 C2704 1.383 . S
C2703 H2711 0.929 . S
C2704 C2703 1.383 . S
C2704 C2705 1.377 . S
C2705 H2689 0.930 . S
C2705 C2704 1.377 . S
C2705 C2706 1.379 . S
C2706 H2690 0.931 . S
C2706 C2700 1.383 . S
C2706 C2705 1.379 . S
H2707 C2701 0.959 . S
H2708 C2701 0.961 . S
H2709 C2701 0.960 . S
H2710 C2702 0.930 . S
H2711 C2703 0.929 . S
H2712 C2720 0.929 . S
H2713 C2722 0.930 . S
H2714 C2724 0.930 . S
H2715 C2727 0.929 . S
H2716 C2730 0.930 . S
H2717 C2732 0.960 . S
H2718 C2732 0.960 . S
H2719 C2732 0.960 . S
C2720 H2712 0.929 . S
C2720 C2721 1.377 . S
C2720 C2722 1.384 . S
C2721 C2720 1.377 . S
C2721 C2727 1.390 . S
C2722 H2713 0.930 . S
C2722 C2720 1.384 . S
C2722 C2723 1.372 . S
C2723 C2722 1.372 . S
C2723 C2724 1.400 . S
C2723 C2728 1.490 . S
C2724 H2714 0.930 . S
C2724 C2723 1.400 . S
C2724 C2727 1.386 . S
H2725 C2741 0.930 . S
H2726 C2742 0.931 . S
C2727 H2715 0.929 . S
C2727 C2721 1.390 . S
C2727 C2724 1.386 . S
C2728 C2723 1.490 . S
C2728 C2730 1.395 . S
C2728 C2731 1.403 . S
H2729 C2735 0.930 . S
C2730 H2716 0.930 . S
C2730 C2728 1.395 . S
C2730 C2733 1.403 . S
C2731 C2728 1.403 . S
C2731 C2732 1.524 . S
C2731 C2735 1.400 . S
C2732 H2717 0.960 . S
C2732 H2718 0.960 . S
C2732 H2719 0.960 . S
C2732 C2731 1.524 . S
C2733 C2730 1.403 . S
C2733 C2734 1.392 . S
C2733 C2737 1.495 . S
C2734 C2733 1.392 . S
C2734 C2735 1.385 . S
C2734 C2736 1.478 . S
C2735 H2729 0.930 . S
C2735 C2731 1.400 . S
C2735 C2734 1.385 . S
C2736 C2734 1.478 . S
C2736 C2738 1.381 . S
C2736 C2742 1.383 . S
C2737 C2733 1.495 . S
C2737 H2743 0.959 . S
C2737 H2744 0.961 . S
C2737 H2745 0.960 . S
C2738 C2736 1.381 . S
C2738 C2739 1.394 . S
C2738 H2746 0.930 . S
C2739 C2738 1.394 . S
C2739 C2740 1.383 . S
C2739 H2747 0.929 . S
C2740 C2739 1.383 . S
C2740 C2741 1.377 . S
C2741 H2725 0.930 . S
C2741 C2740 1.377 . S
C2741 C2742 1.379 . S
C2742 H2726 0.931 . S
C2742 C2736 1.383 . S
C2742 C2741 1.379 . S
H2743 C2737 0.959 . S
H2744 C2737 0.961 . S
H2745 C2737 0.960 . S
H2746 C2738 0.930 . S
H2747 C2739 0.929 . S
H2748 C2756 0.929 . S
H2749 C2758 0.930 . S
H2750 C2760 0.930 . S
H2751 C2763 0.929 . S
H2752 C2766 0.930 . S
H2753 C2768 0.960 . S
H2754 C2768 0.960 . S
H2755 C2768 0.960 . S
C2756 H2748 0.929 . S
C2756 C2757 1.377 . S
C2756 C2758 1.384 . S
C2757 C2756 1.377 . S
C2757 C2763 1.390 . S
C2758 H2749 0.930 . S
C2758 C2756 1.384 . S
C2758 C2759 1.372 . S
C2759 C2758 1.372 . S
C2759 C2760 1.400 . S
C2759 C2764 1.490 . S
C2760 H2750 0.930 . S
C2760 C2759 1.400 . S
C2760 C2763 1.386 . S
H2761 C2777 0.930 . S
H2762 C2778 0.931 . S
C2763 H2751 0.929 . S
C2763 C2757 1.390 . S
C2763 C2760 1.386 . S
C2764 C2759 1.490 . S
C2764 C2766 1.395 . S
C2764 C2767 1.403 . S
H2765 C2771 0.930 . S
C2766 H2752 0.930 . S
C2766 C2764 1.395 . S
C2766 C2769 1.403 . S
C2767 C2764 1.403 . S
C2767 C2768 1.524 . S
C2767 C2771 1.400 . S
C2768 H2753 0.960 . S
C2768 H2754 0.960 . S
C2768 H2755 0.960 . S
C2768 C2767 1.524 . S
C2769 C2766 1.403 . S
C2769 C2770 1.392 . S
C2769 C2773 1.495 . S
C2770 C2769 1.392 . S
C2770 C2771 1.385 . S
C2770 C2772 1.478 . S
C2771 H2765 0.930 . S
C2771 C2767 1.400 . S
C2771 C2770 1.385 . S
C2772 C2770 1.478 . S
C2772 C2774 1.381 . S
C2772 C2778 1.383 . S
C2773 C2769 1.495 . S
C2773 H2779 0.959 . S
C2773 H2780 0.961 . S
C2773 H2781 0.960 . S
C2774 C2772 1.381 . S
C2774 C2775 1.394 . S
C2774 H2782 0.930 . S
C2775 C2774 1.394 . S
C2775 C2776 1.383 . S
C2775 H2783 0.929 . S
C2776 C2775 1.383 . S
C2776 C2777 1.377 . S
C2777 H2761 0.930 . S
C2777 C2776 1.377 . S
C2777 C2778 1.379 . S
C2778 H2762 0.931 . S
C2778 C2772 1.383 . S
C2778 C2777 1.379 . S
H2779 C2773 0.959 . S
H2780 C2773 0.961 . S
H2781 C2773 0.960 . S
H2782 C2774 0.930 . S
H2783 C2775 0.929 . S
H2784 C2792 0.929 . S
H2785 C2794 0.930 . S
H2786 C2796 0.930 . S
H2787 C2799 0.929 . S
H2788 C2802 0.930 . S
H2789 C2804 0.960 . S
H2790 C2804 0.960 . S
H2791 C2804 0.960 . S
C2792 H2784 0.929 . S
C2792 C2793 1.377 . S
C2792 C2794 1.384 . S
C2793 C2792 1.377 . S
C2793 C2799 1.390 . S
C2794 H2785 0.930 . S
C2794 C2792 1.384 . S
C2794 C2795 1.372 . S
C2795 C2794 1.372 . S
C2795 C2796 1.400 . S
C2795 C2800 1.490 . S
C2796 H2786 0.930 . S
C2796 C2795 1.400 . S
C2796 C2799 1.386 . S
H2797 C2813 0.930 . S
H2798 C2814 0.931 . S
C2799 H2787 0.929 . S
C2799 C2793 1.390 . S
C2799 C2796 1.386 . S
C2800 C2795 1.490 . S
C2800 C2802 1.395 . S
C2800 C2803 1.403 . S
H2801 C2807 0.930 . S
C2802 H2788 0.930 . S
C2802 C2800 1.395 . S
C2802 C2805 1.403 . S
C2803 C2800 1.403 . S
C2803 C2804 1.524 . S
C2803 C2807 1.400 . S
C2804 H2789 0.960 . S
C2804 H2790 0.960 . S
C2804 H2791 0.960 . S
C2804 C2803 1.524 . S
C2805 C2802 1.403 . S
C2805 C2806 1.392 . S
C2805 C2809 1.495 . S
C2806 C2805 1.392 . S
C2806 C2807 1.385 . S
C2806 C2808 1.478 . S
C2807 H2801 0.930 . S
C2807 C2803 1.400 . S
C2807 C2806 1.385 . S
C2808 C2806 1.478 . S
C2808 C2810 1.381 . S
C2808 C2814 1.383 . S
C2809 C2805 1.495 . S
C2809 H2815 0.959 . S
C2809 H2816 0.961 . S
C2809 H2817 0.960 . S
C2810 C2808 1.381 . S
C2810 C2811 1.394 . S
C2810 H2818 0.930 . S
C2811 C2810 1.394 . S
C2811 C2812 1.383 . S
C2811 H2819 0.953 . S
C2812 C2811 1.383 . S
C2812 C2813 1.377 . S
C2813 H2797 0.930 . S
C2813 C2812 1.377 . S
C2813 C2814 1.379 . S
C2814 H2798 0.931 . S
C2814 C2808 1.383 . S
C2814 C2813 1.379 . S
H2815 C2809 0.959 . S
H2816 C2809 0.961 . S
H2817 C2809 0.960 . S
H2818 C2810 0.930 . S
H2819 C2811 0.953 . S
H2820 C2828 0.929 . S
H2821 C2830 0.930 . S
H2822 C2832 0.930 . S
H2823 C2835 0.929 . S
H2824 C2838 0.930 . S
H2825 C2840 0.960 . S
H2826 C2840 0.960 . S
H2827 C2840 0.941 1_554 S
C2828 H2820 0.929 . S
C2828 C2829 1.393 . S
C2828 C2830 1.384 . S
C2829 C2828 1.393 . S
C2829 C2835 1.376 1_556 S
C2830 H2821 0.930 . S
C2830 C2828 1.384 . S
C2830 C2831 1.389 . S
C2831 C2830 1.389 . S
C2831 C2832 1.382 1_556 S
C2831 C2836 1.492 . S
C2832 H2822 0.930 . S
C2832 C2831 1.382 1_554 S
C2832 C2835 1.386 . S
H2833 C2849 0.930 . S
H2834 C2850 0.931 . S
C2835 H2823 0.929 . S
C2835 C2829 1.376 1_554 S
C2835 C2832 1.386 . S
C2836 C2831 1.492 . S
C2836 C2838 1.395 1_556 S
C2836 C2839 1.402 . S
H2837 C2843 0.930 . S
C2838 H2824 0.930 . S
C2838 C2836 1.395 1_554 S
C2838 C2841 1.403 . S
C2839 C2836 1.402 . S
C2839 C2840 1.524 . S
C2839 C2843 1.400 . S
C2840 H2825 0.960 . S
C2840 H2826 0.960 . S
C2840 H2827 0.941 1_556 S
C2840 C2839 1.524 . S
C2841 C2838 1.403 . S
C2841 C2842 1.392 . S
C2841 C2845 1.495 . S
C2842 C2841 1.392 . S
C2842 C2843 1.385 1_554 S
C2842 C2844 1.478 . S
C2843 H2837 0.930 . S
C2843 C2839 1.400 . S
C2843 C2842 1.385 1_556 S
C2844 C2842 1.478 . S
C2844 C2846 1.381 1_554 S
C2844 C2850 1.383 . S
C2845 C2841 1.495 . S
C2845 H2851 0.959 . S
C2845 H2852 0.961 . S
C2845 H2853 0.948 1_554 S
C2846 C2844 1.381 1_556 S
C2846 C2847 1.394 . S
C2846 H2854 0.930 . S
C2847 C2846 1.394 . S
C2847 C2848 1.383 1_556 S
C2847 H2855 0.929 . S
C2848 C2847 1.383 1_554 S
C2848 C2849 1.377 . S
C2849 H2833 0.930 . S
C2849 C2848 1.377 . S
C2849 C2850 1.379 . S
C2850 H2834 0.931 . S
C2850 C2844 1.383 . S
C2850 C2849 1.379 . S
H2851 C2845 0.959 . S
H2852 C2845 0.961 . S
H2853 C2845 0.948 1_556 S
H2854 C2846 0.930 . S
H2855 C2847 0.929 . S
H2856 C2864 0.929 . S
H2857 C2866 0.930 . S
H2858 C2868 0.930 . S
H2859 C2871 0.929 . S
H2860 C2874 0.930 . S
H2861 C2876 0.960 . S
H2862 C2876 0.960 . S
H2863 C2876 0.960 . S
C2864 H2856 0.929 . S
C2864 C2865 1.377 . S
C2864 C2866 1.384 . S
C2865 C2864 1.377 . S
C2865 C2871 1.390 . S
C2866 H2857 0.930 . S
C2866 C2864 1.384 . S
C2866 C2867 1.372 . S
C2867 C2866 1.372 . S
C2867 C2868 1.400 . S
C2867 C2872 1.490 . S
C2868 H2858 0.930 . S
C2868 C2867 1.400 . S
C2868 C2871 1.386 . S
H2869 C2885 0.930 . S
H2870 C2886 0.931 . S
C2871 H2859 0.929 . S
C2871 C2865 1.390 . S
C2871 C2868 1.386 . S
C2872 C2867 1.490 . S
C2872 C2874 1.395 . S
C2872 C2875 1.403 . S
H2873 C2879 0.930 . S
C2874 H2860 0.930 . S
C2874 C2872 1.395 . S
C2874 C2877 1.403 . S
C2875 C2872 1.403 . S
C2875 C2876 1.524 . S
C2875 C2879 1.400 . S
C2876 H2861 0.960 . S
C2876 H2862 0.960 . S
C2876 H2863 0.960 . S
C2876 C2875 1.524 . S
C2877 C2874 1.403 . S
C2877 C2878 1.392 . S
C2877 C2881 1.495 . S
C2878 C2877 1.392 . S
C2878 C2879 1.385 . S
C2878 C2880 1.478 . S
C2879 H2873 0.930 . S
C2879 C2875 1.400 . S
C2879 C2878 1.385 . S
C2880 C2878 1.478 . S
C2880 C2882 1.381 . S
C2880 C2886 1.383 . S
C2881 C2877 1.495 . S
C2881 H2887 0.959 . S
C2881 H2888 0.961 . S
C2881 H2889 0.960 . S
C2882 C2880 1.381 . S
C2882 C2883 1.394 . S
C2882 H2890 0.930 . S
C2883 C2882 1.394 . S
C2883 C2884 1.383 . S
C2883 H2891 0.929 . S
C2884 C2883 1.383 . S
C2884 C2885 1.377 . S
C2885 H2869 0.930 . S
C2885 C2884 1.377 . S
C2885 C2886 1.379 . S
C2886 H2870 0.931 . S
C2886 C2880 1.383 . S
C2886 C2885 1.379 . S
H2887 C2881 0.959 . S
H2888 C2881 0.961 . S
H2889 C2881 0.960 . S
H2890 C2882 0.930 . S
H2891 C2883 0.929 . S
H2892 C2900 0.929 . S
H2893 C2902 0.930 . S
H2894 C2904 0.930 . S
H2895 C2907 0.929 . S
H2896 C2910 0.930 . S
H2897 C2912 0.960 . S
H2898 C2912 0.960 . S
H2899 C2912 0.960 . S
C2900 H2892 0.929 . S
C2900 C2901 1.377 . S
C2900 C2902 1.384 . S
C2901 C2900 1.377 . S
C2901 C2907 1.390 . S
C2902 H2893 0.930 . S
C2902 C2900 1.384 . S
C2902 C2903 1.372 . S
C2903 C2902 1.372 . S
C2903 C2904 1.400 . S
C2903 C2908 1.490 . S
C2904 H2894 0.930 . S
C2904 C2903 1.400 . S
C2904 C2907 1.386 . S
H2905 C2921 0.930 . S
H2906 C2922 0.931 . S
C2907 H2895 0.929 . S
C2907 C2901 1.390 . S
C2907 C2904 1.386 . S
C2908 C2903 1.490 . S
C2908 C2910 1.395 . S
C2908 C2911 1.403 . S
H2909 C2915 0.930 . S
C2910 H2896 0.930 . S
C2910 C2908 1.395 . S
C2910 C2913 1.403 . S
C2911 C2908 1.403 . S
C2911 C2912 1.524 . S
C2911 C2915 1.400 . S
C2912 H2897 0.960 . S
C2912 H2898 0.960 . S
C2912 H2899 0.960 . S
C2912 C2911 1.524 . S
C2913 C2910 1.403 . S
C2913 C2914 1.392 . S
C2913 C2917 1.495 . S
C2914 C2913 1.392 . S
C2914 C2915 1.385 . S
C2914 C2916 1.478 . S
C2915 H2909 0.930 . S
C2915 C2911 1.400 . S
C2915 C2914 1.385 . S
C2916 C2914 1.478 . S
C2916 C2918 1.381 . S
C2916 C2922 1.383 . S
C2917 C2913 1.495 . S
C2917 H2923 0.959 . S
C2917 H2924 0.961 . S
C2917 H2925 0.960 . S
C2918 C2916 1.381 . S
C2918 C2919 1.394 . S
C2918 H2926 0.930 . S
C2919 C2918 1.394 . S
C2919 C2920 1.383 . S
C2919 H2927 0.929 . S
C2920 C2919 1.383 . S
C2920 C2921 1.377 . S
C2921 H2905 0.930 . S
C2921 C2920 1.377 . S
C2921 C2922 1.379 . S
C2922 H2906 0.931 . S
C2922 C2916 1.383 . S
C2922 C2921 1.379 . S
H2923 C2917 0.959 . S
H2924 C2917 0.961 . S
H2925 C2917 0.960 . S
H2926 C2918 0.930 . S
H2927 C2919 0.929 . S
H2928 C2936 0.929 . S
H2929 C2938 0.930 . S
H2930 C2940 0.930 . S
H2931 C2943 0.929 . S
H2932 C2946 0.930 . S
H2933 C2948 0.960 . S
H2934 C2948 0.960 . S
H2935 C2948 0.960 . S
C2936 H2928 0.929 . S
C2936 C2937 1.377 . S
C2936 C2938 1.384 . S
C2937 C2936 1.377 . S
C2937 C2943 1.390 . S
C2938 H2929 0.930 . S
C2938 C2936 1.384 . S
C2938 C2939 1.372 . S
C2939 C2938 1.372 . S
C2939 C2940 1.400 . S
C2939 C2944 1.490 . S
C2940 H2930 0.930 . S
C2940 C2939 1.400 . S
C2940 C2943 1.386 . S
H2941 C2957 0.930 . S
H2942 C2958 0.931 . S
C2943 H2931 0.929 . S
C2943 C2937 1.390 . S
C2943 C2940 1.386 . S
C2944 C2939 1.490 . S
C2944 C2946 1.395 . S
C2944 C2947 1.403 . S
H2945 C2951 0.930 . S
C2946 H2932 0.930 . S
C2946 C2944 1.395 . S
C2946 C2949 1.403 . S
C2947 C2944 1.403 . S
C2947 C2948 1.524 . S
C2947 C2951 1.400 . S
C2948 H2933 0.960 . S
C2948 H2934 0.960 . S
C2948 H2935 0.960 . S
C2948 C2947 1.524 . S
C2949 C2946 1.403 . S
C2949 C2950 1.392 . S
C2949 C2953 1.495 . S
C2950 C2949 1.392 . S
C2950 C2951 1.385 . S
C2950 C2952 1.478 . S
C2951 H2945 0.930 . S
C2951 C2947 1.400 . S
C2951 C2950 1.385 . S
C2952 C2950 1.478 . S
C2952 C2954 1.381 . S
C2952 C2958 1.383 . S
C2953 C2949 1.495 . S
C2953 H2959 0.959 . S
C2953 H2960 0.961 . S
C2953 H2961 0.960 . S
C2954 C2952 1.381 . S
C2954 C2955 1.394 . S
C2954 H2962 0.930 . S
C2955 C2954 1.394 . S
C2955 C2956 1.383 . S
C2955 H2963 0.929 . S
C2956 C2955 1.383 . S
C2956 C2957 1.377 . S
C2957 H2941 0.930 . S
C2957 C2956 1.377 . S
C2957 C2958 1.379 . S
C2958 H2942 0.931 . S
C2958 C2952 1.383 . S
C2958 C2957 1.379 . S
H2959 C2953 0.959 . S
H2960 C2953 0.961 . S
H2961 C2953 0.960 . S
H2962 C2954 0.930 . S
H2963 C2955 0.929 . S
H2964 C2972 0.929 . S
H2965 C2974 0.930 . S
H2966 C2976 0.930 . S
H2967 C2979 0.929 . S
H2968 C2982 0.930 . S
H2969 C2984 0.960 . S
H2970 C2984 0.960 . S
H2971 C2984 0.960 . S
C2972 H2964 0.929 . S
C2972 C2973 1.382 . S
C2972 C2974 1.384 . S
C2973 C2972 1.382 . S
C2973 C2979 1.385 1_655 S
C2974 H2965 0.930 . S
C2974 C2972 1.384 . S
C2974 C2975 1.391 . S
C2975 C2974 1.391 . S
C2975 C2976 1.378 1_655 S
C2975 C2980 1.489 . S
C2976 H2966 0.930 . S
C2976 C2975 1.378 1_455 S
C2976 C2979 1.386 . S
H2977 C2993 0.930 . S
H2978 C2994 0.931 . S
C2979 H2967 0.929 . S
C2979 C2973 1.385 1_455 S
C2979 C2976 1.386 . S
C2980 C2975 1.489 . S
C2980 C2982 1.428 . S
C2980 C2983 1.375 1_655 S
H2981 C2987 0.930 . S
C2982 H2968 0.930 . S
C2982 C2980 1.428 . S
C2982 C2985 1.403 . S
C2983 C2980 1.375 1_455 S
C2983 C2984 1.524 . S
C2983 C2987 1.400 . S
C2984 H2969 0.960 . S
C2984 H2970 0.960 . S
C2984 H2971 0.960 . S
C2984 C2983 1.524 . S
C2985 C2982 1.403 . S
C2985 C2986 1.392 . S
C2985 C2989 1.495 . S
C2986 C2985 1.392 . S
C2986 C2987 1.385 1_655 S
C2986 C2988 1.478 . S
C2987 H2981 0.930 . S
C2987 C2983 1.400 . S
C2987 C2986 1.385 1_455 S
C2988 C2986 1.478 . S
C2988 C2990 1.381 . S
C2988 C2994 1.383 1_655 S
C2989 C2985 1.495 . S
C2989 H2995 0.959 . S
C2989 H2996 0.961 . S
C2989 H2997 0.960 . S
C2990 C2988 1.381 . S
C2990 C2991 1.394 . S
C2990 H2998 0.930 . S
C2991 C2990 1.394 . S
C2991 C2992 1.383 1_655 S
C2991 H2999 0.929 . S
C2992 C2991 1.383 1_455 S
C2992 C2993 1.377 . S
C2993 H2977 0.930 . S
C2993 C2992 1.377 . S
C2993 C2994 1.379 . S
C2994 H2978 0.931 . S
C2994 C2988 1.383 1_455 S
C2994 C2993 1.379 . S
H2995 C2989 0.959 . S
H2996 C2989 0.961 . S
H2997 C2989 0.960 . S
H2998 C2990 0.930 . S
H2999 C2991 0.929 . S
H3000 C3008 0.929 . S
H3001 C3010 0.930 . S
H3002 C3012 0.930 . S
H3003 C3015 0.929 . S
H3004 C3018 0.930 . S
H3005 C3020 0.960 . S
H3006 C3020 0.960 . S
H3007 C3020 0.960 . S
C3008 H3000 0.929 . S
C3008 C3009 1.377 . S
C3008 C3010 1.384 . S
C3009 C3008 1.377 . S
C3009 C3015 1.390 . S
C3010 H3001 0.930 . S
C3010 C3008 1.384 . S
C3010 C3011 1.372 . S
C3011 C3010 1.372 . S
C3011 C3012 1.400 . S
C3011 C3016 1.490 . S
C3012 H3002 0.930 . S
C3012 C3011 1.400 . S
C3012 C3015 1.386 . S
H3013 C3029 0.930 . S
H3014 C3030 0.931 . S
C3015 H3003 0.929 . S
C3015 C3009 1.390 . S
C3015 C3012 1.386 . S
C3016 C3011 1.490 . S
C3016 C3018 1.395 . S
C3016 C3019 1.403 . S
H3017 C3023 0.930 . S
C3018 H3004 0.930 . S
C3018 C3016 1.395 . S
C3018 C3021 1.403 . S
C3019 C3016 1.403 . S
C3019 C3020 1.524 . S
C3019 C3023 1.400 . S
C3020 H3005 0.960 . S
C3020 H3006 0.960 . S
C3020 H3007 0.960 . S
C3020 C3019 1.524 . S
C3021 C3018 1.403 . S
C3021 C3022 1.392 . S
C3021 C3025 1.495 . S
C3022 C3021 1.392 . S
C3022 C3023 1.385 . S
C3022 C3024 1.478 . S
C3023 H3017 0.930 . S
C3023 C3019 1.400 . S
C3023 C3022 1.385 . S
C3024 C3022 1.478 . S
C3024 C3026 1.381 . S
C3024 C3030 1.383 . S
C3025 C3021 1.495 . S
C3025 H3031 0.959 . S
C3025 H3032 0.961 . S
C3025 H3033 0.960 . S
C3026 C3024 1.381 . S
C3026 C3027 1.394 . S
C3026 H3034 0.930 . S
C3027 C3026 1.394 . S
C3027 C3028 1.383 . S
C3027 H3035 0.929 . S
C3028 C3027 1.383 . S
C3028 C3029 1.377 . S
C3029 H3013 0.930 . S
C3029 C3028 1.377 . S
C3029 C3030 1.379 . S
C3030 H3014 0.931 . S
C3030 C3024 1.383 . S
C3030 C3029 1.379 . S
H3031 C3025 0.959 . S
H3032 C3025 0.961 . S
H3033 C3025 0.960 . S
H3034 C3026 0.930 . S
H3035 C3027 0.929 . S
H3036 C3044 0.929 . S
H3037 C3046 0.930 . S
H3038 C3048 0.930 . S
H3039 C3051 0.929 . S
H3040 C3054 0.930 . S
H3041 C3056 0.960 . S
H3042 C3056 0.960 . S
H3043 C3056 0.960 . S
C3044 H3036 0.929 . S
C3044 C3045 1.377 . S
C3044 C3046 1.384 . S
C3045 C3044 1.377 . S
C3045 C3051 1.390 . S
C3046 H3037 0.930 . S
C3046 C3044 1.384 . S
C3046 C3047 1.372 . S
C3047 C3046 1.372 . S
C3047 C3048 1.400 . S
C3047 C3052 1.490 . S
C3048 H3038 0.930 . S
C3048 C3047 1.400 . S
C3048 C3051 1.386 . S
H3049 C3065 0.930 . S
H3050 C3066 0.931 . S
C3051 H3039 0.929 . S
C3051 C3045 1.390 . S
C3051 C3048 1.386 . S
C3052 C3047 1.490 . S
C3052 C3054 1.395 . S
C3052 C3055 1.403 . S
H3053 C3059 0.930 . S
C3054 H3040 0.930 . S
C3054 C3052 1.395 . S
C3054 C3057 1.403 . S
C3055 C3052 1.403 . S
C3055 C3056 1.524 . S
C3055 C3059 1.400 . S
C3056 H3041 0.960 . S
C3056 H3042 0.960 . S
C3056 H3043 0.960 . S
C3056 C3055 1.524 . S
C3057 C3054 1.403 . S
C3057 C3058 1.392 . S
C3057 C3061 1.495 . S
C3058 C3057 1.392 . S
C3058 C3059 1.385 . S
C3058 C3060 1.478 . S
C3059 H3053 0.930 . S
C3059 C3055 1.400 . S
C3059 C3058 1.385 . S
C3060 C3058 1.478 . S
C3060 C3062 1.381 . S
C3060 C3066 1.383 . S
C3061 C3057 1.495 . S
C3061 H3067 0.959 . S
C3061 H3068 0.961 . S
C3061 H3069 0.960 . S
C3062 C3060 1.381 . S
C3062 C3063 1.394 . S
C3062 H3070 0.930 . S
C3063 C3062 1.394 . S
C3063 C3064 1.383 . S
C3063 H3071 0.929 . S
C3064 C3063 1.383 . S
C3064 C3065 1.377 . S
C3065 H3049 0.930 . S
C3065 C3064 1.377 . S
C3065 C3066 1.379 . S
C3066 H3050 0.931 . S
C3066 C3060 1.383 . S
C3066 C3065 1.379 . S
H3067 C3061 0.959 . S
H3068 C3061 0.961 . S
H3069 C3061 0.960 . S
H3070 C3062 0.930 . S
H3071 C3063 0.929 . S
H3072 C3080 0.929 . S
H3073 C3082 0.930 . S
H3074 C3084 0.930 . S
H3075 C3087 0.929 . S
H3076 C3090 0.930 . S
H3077 C3092 0.960 . S
H3078 C3092 0.960 . S
H3079 C3092 0.960 . S
C3080 H3072 0.929 . S
C3080 C3081 1.405 . S
C3080 C3082 1.384 . S
C3081 C3080 1.405 . S
C3081 C3087 1.375 1_565 S
C3082 H3073 0.930 . S
C3082 C3080 1.384 . S
C3082 C3083 1.372 . S
C3083 C3082 1.372 . S
C3083 C3084 1.400 1_565 S
C3083 C3088 1.490 . S
C3084 H3074 0.930 . S
C3084 C3083 1.400 1_545 S
C3084 C3087 1.386 . S
H3085 C3101 0.930 . S
H3086 C3102 0.931 . S
C3087 H3075 0.929 . S
C3087 C3081 1.375 1_545 S
C3087 C3084 1.386 . S
C3088 C3083 1.490 . S
C3088 C3090 1.395 1_565 S
C3088 C3091 1.403 . S
H3089 C3095 0.930 . S
C3090 H3076 0.930 . S
C3090 C3088 1.395 1_545 S
C3090 C3093 1.403 . S
C3091 C3088 1.403 . S
C3091 C3092 1.524 . S
C3091 C3095 1.400 . S
C3092 H3077 0.960 . S
C3092 H3078 0.960 . S
C3092 H3079 0.960 . S
C3092 C3091 1.524 . S
C3093 C3090 1.403 . S
C3093 C3094 1.392 1_545 S
C3093 C3097 1.495 . S
C3094 C3093 1.392 1_565 S
C3094 C3095 1.385 . S
C3094 C3096 1.478 . S
C3095 H3089 0.930 . S
C3095 C3091 1.400 . S
C3095 C3094 1.385 . S
C3096 C3094 1.478 . S
C3096 C3098 1.381 . S
C3096 C3102 1.383 1_565 S
C3097 C3093 1.495 . S
C3097 H3103 0.959 . S
C3097 H3104 0.961 . S
C3097 H3105 0.960 . S
C3098 C3096 1.381 . S
C3098 C3099 1.394 . S
C3098 H3106 0.930 . S
C3099 C3098 1.394 . S
C3099 C3100 1.383 . S
C3099 H3107 0.929 . S
C3100 C3099 1.383 . S
C3100 C3101 1.377 1_565 S
C3101 H3085 0.930 . S
C3101 C3100 1.377 1_545 S
C3101 C3102 1.379 . S
C3102 H3086 0.931 . S
C3102 C3096 1.383 1_545 S
C3102 C3101 1.379 . S
H3103 C3097 0.959 . S
H3104 C3097 0.961 . S
H3105 C3097 0.960 . S
H3106 C3098 0.930 . S
H3107 C3099 0.929 . S
H3108 C3116 0.898 1_565 S
H3109 C3118 0.930 1_565 S
H3110 C3120 0.930 . S
H3111 C3123 0.929 . S
H3112 C3126 0.930 . S
H3113 C3128 0.957 1_565 S
H3114 C3128 0.932 1_565 S
H3115 C3128 0.985 . S
C3116 H3108 0.898 1_545 S
C3116 C3117 1.377 . S
C3116 C3118 1.384 . S
C3117 C3116 1.377 . S
C3117 C3123 1.390 . S
C3118 H3109 0.930 1_545 S
C3118 C3116 1.384 . S
C3118 C3119 1.372 . S
C3119 C3118 1.372 . S
C3119 C3120 1.400 . S
C3119 C3124 1.490 . S
C3120 H3110 0.930 . S
C3120 C3119 1.400 . S
C3120 C3123 1.386 . S
H3121 C3137 0.930 . S
H3122 C3138 0.931 . S
C3123 H3111 0.929 . S
C3123 C3117 1.390 . S
C3123 C3120 1.386 . S
C3124 C3119 1.490 . S
C3124 C3126 1.395 . S
C3124 C3127 1.403 . S
H3125 C3131 0.930 . S
C3126 H3112 0.930 . S
C3126 C3124 1.395 . S
C3126 C3129 1.403 . S
C3127 C3124 1.403 . S
C3127 C3128 1.531 . S
C3127 C3131 1.400 . S
C3128 H3113 0.957 1_545 S
C3128 H3114 0.932 1_545 S
C3128 H3115 0.985 . S
C3128 C3127 1.531 . S
C3129 C3126 1.403 . S
C3129 C3130 1.392 . S
C3129 C3133 1.495 . S
C3130 C3129 1.392 . S
C3130 C3131 1.385 . S
C3130 C3132 1.478 . S
C3131 H3125 0.930 . S
C3131 C3127 1.400 . S
C3131 C3130 1.385 . S
C3132 C3130 1.478 . S
C3132 C3134 1.381 1_545 S
C3132 C3138 1.383 . S
C3133 C3129 1.495 . S
C3133 H3139 0.959 . S
C3133 H3140 0.961 . S
C3133 H3141 0.960 . S
C3134 C3132 1.381 1_565 S
C3134 C3135 1.394 . S
C3134 H3142 0.930 . S
C3135 C3134 1.394 . S
C3135 C3136 1.383 1_565 S
C3135 H3143 0.929 . S
C3136 C3135 1.383 1_545 S
C3136 C3137 1.377 . S
C3137 H3121 0.930 . S
C3137 C3136 1.377 . S
C3137 C3138 1.379 . S
C3138 H3122 0.931 . S
C3138 C3132 1.383 . S
C3138 C3137 1.379 . S
H3139 C3133 0.959 . S
H3140 C3133 0.961 . S
H3141 C3133 0.960 . S
H3142 C3134 0.930 . S
H3143 C3135 0.929 . S
H3144 C3152 0.929 . S
H3145 C3154 0.930 . S
H3146 C3156 0.930 . S
H3147 C3159 0.929 . S
H3148 C3162 0.930 . S
H3149 C3164 0.960 . S
H3150 C3164 0.960 . S
H3151 C3164 0.960 . S
C3152 H3144 0.929 . S
C3152 C3153 1.377 . S
C3152 C3154 1.384 . S
C3153 C3152 1.377 . S
C3153 C3159 1.390 . S
C3154 H3145 0.930 . S
C3154 C3152 1.384 . S
C3154 C3155 1.372 . S
C3155 C3154 1.372 . S
C3155 C3156 1.400 . S
C3155 C3160 1.490 . S
C3156 H3146 0.930 . S
C3156 C3155 1.400 . S
C3156 C3159 1.386 . S
H3157 C3173 0.930 . S
H3158 C3174 0.931 . S
C3159 H3147 0.929 . S
C3159 C3153 1.390 . S
C3159 C3156 1.386 . S
C3160 C3155 1.490 . S
C3160 C3162 1.395 . S
C3160 C3163 1.403 . S
H3161 C3167 0.930 . S
C3162 H3148 0.930 . S
C3162 C3160 1.395 . S
C3162 C3165 1.403 . S
C3163 C3160 1.403 . S
C3163 C3164 1.524 . S
C3163 C3167 1.400 . S
C3164 H3149 0.960 . S
C3164 H3150 0.960 . S
C3164 H3151 0.960 . S
C3164 C3163 1.524 . S
C3165 C3162 1.403 . S
C3165 C3166 1.392 . S
C3165 C3169 1.495 . S
C3166 C3165 1.392 . S
C3166 C3167 1.385 . S
C3166 C3168 1.478 . S
C3167 H3161 0.930 . S
C3167 C3163 1.400 . S
C3167 C3166 1.385 . S
C3168 C3166 1.478 . S
C3168 C3170 1.381 . S
C3168 C3174 1.383 . S
C3169 C3165 1.495 . S
C3169 H3175 0.959 . S
C3169 H3176 0.961 . S
C3169 H3177 0.960 . S
C3170 C3168 1.381 . S
C3170 C3171 1.394 . S
C3170 H3178 0.930 . S
C3171 C3170 1.394 . S
C3171 C3172 1.383 . S
C3171 H3179 0.929 . S
C3172 C3171 1.383 . S
C3172 C3173 1.377 . S
C3173 H3157 0.930 . S
C3173 C3172 1.377 . S
C3173 C3174 1.379 . S
C3174 H3158 0.931 . S
C3174 C3168 1.383 . S
C3174 C3173 1.379 . S
H3175 C3169 0.959 . S
H3176 C3169 0.961 . S
H3177 C3169 0.960 . S
H3178 C3170 0.930 . S
H3179 C3171 0.929 . S
H3180 C3188 0.929 . S
H3181 C3190 0.930 . S
H3182 C3192 0.930 . S
H3183 C3195 0.929 . S
H3184 C3198 0.925 1_556 S
H3185 C3200 0.960 . S
H3186 C3200 0.960 . S
H3187 C3200 0.960 . S
C3188 H3180 0.929 . S
C3188 C3189 1.377 . S
C3188 C3190 1.384 . S
C3189 C3188 1.377 . S
C3189 C3195 1.390 . S
C3190 H3181 0.930 . S
C3190 C3188 1.384 . S
C3190 C3191 1.372 . S
C3191 C3190 1.372 . S
C3191 C3192 1.400 . S
C3191 C3196 1.490 . S
C3192 H3182 0.930 . S
C3192 C3191 1.400 . S
C3192 C3195 1.386 . S
H3193 C3209 0.928 . S
H3194 C3210 0.918 1_556 S
C3195 H3183 0.929 . S
C3195 C3189 1.390 . S
C3195 C3192 1.386 . S
C3196 C3191 1.490 . S
C3196 C3198 1.400 . S
C3196 C3199 1.403 . S
H3197 C3203 0.930 . S
C3198 H3184 0.925 1_554 S
C3198 C3196 1.400 . S
C3198 C3201 1.403 1_554 S
C3199 C3196 1.403 . S
C3199 C3200 1.524 . S
C3199 C3203 1.400 . S
C3200 H3185 0.960 . S
C3200 H3186 0.960 . S
C3200 H3187 0.960 . S
C3200 C3199 1.524 . S
C3201 C3198 1.403 1_556 S
C3201 C3202 1.392 1_556 S
C3201 C3205 1.495 . S
C3202 C3201 1.392 1_554 S
C3202 C3203 1.385 . S
C3202 C3204 1.478 . S
C3203 H3197 0.930 . S
C3203 C3199 1.400 . S
C3203 C3202 1.385 . S
C3204 C3202 1.478 . S
C3204 C3206 1.381 . S
C3204 C3210 1.395 . S
C3205 C3201 1.495 . S
C3205 H3211 0.959 . S
C3205 H3212 0.961 . S
C3205 H3213 0.960 . S
C3206 C3204 1.381 . S
C3206 C3207 1.394 . S
C3206 H3214 0.930 . S
C3207 C3206 1.394 . S
C3207 C3208 1.383 . S
C3207 H3215 0.929 . S
C3208 C3207 1.383 . S
C3208 C3209 1.378 1_554 S
C3209 H3193 0.928 . S
C3209 C3208 1.378 1_556 S
C3209 C3210 1.381 1_556 S
C3210 H3194 0.918 1_554 S
C3210 C3204 1.395 . S
C3210 C3209 1.381 1_554 S
H3211 C3205 0.959 . S
H3212 C3205 0.961 . S
H3213 C3205 0.960 . S
H3214 C3206 0.930 . S
H3215 C3207 0.929 . S
H3216 C3224 0.929 . S
H3217 C3226 0.930 . S
H3218 C3228 0.930 . S
H3219 C3231 0.929 . S
H3220 C3234 0.930 . S
H3221 C3236 0.960 . S
H3222 C3236 0.960 . S
H3223 C3236 0.960 . S
C3224 H3216 0.929 . S
C3224 C3225 1.377 . S
C3224 C3226 1.384 . S
C3225 C3224 1.377 . S
C3225 C3231 1.390 . S
C3226 H3217 0.930 . S
C3226 C3224 1.384 . S
C3226 C3227 1.372 . S
C3227 C3226 1.372 . S
C3227 C3228 1.400 . S
C3227 C3232 1.490 . S
C3228 H3218 0.930 . S
C3228 C3227 1.400 . S
C3228 C3231 1.386 . S
H3229 C3245 0.930 . S
H3230 C3246 0.931 . S
C3231 H3219 0.929 . S
C3231 C3225 1.390 . S
C3231 C3228 1.386 . S
C3232 C3227 1.490 . S
C3232 C3234 1.395 . S
C3232 C3235 1.403 . S
H3233 C3239 0.930 . S
C3234 H3220 0.930 . S
C3234 C3232 1.395 . S
C3234 C3237 1.403 . S
C3235 C3232 1.403 . S
C3235 C3236 1.524 . S
C3235 C3239 1.400 . S
C3236 H3221 0.960 . S
C3236 H3222 0.960 . S
C3236 H3223 0.960 . S
C3236 C3235 1.524 . S
C3237 C3234 1.403 . S
C3237 C3238 1.392 . S
C3237 C3241 1.495 . S
C3238 C3237 1.392 . S
C3238 C3239 1.385 . S
C3238 C3240 1.478 . S
C3239 H3233 0.930 . S
C3239 C3235 1.400 . S
C3239 C3238 1.385 . S
C3240 C3238 1.478 . S
C3240 C3242 1.381 . S
C3240 C3246 1.383 . S
C3241 C3237 1.495 . S
C3241 H3247 0.959 . S
C3241 H3248 0.961 . S
C3241 H3249 0.960 . S
C3242 C3240 1.381 . S
C3242 C3243 1.394 . S
C3242 H3250 0.930 . S
C3243 C3242 1.394 . S
C3243 C3244 1.383 . S
C3243 H3251 0.929 . S
C3244 C3243 1.383 . S
C3244 C3245 1.377 . S
C3245 H3229 0.930 . S
C3245 C3244 1.377 . S
C3245 C3246 1.379 . S
C3246 H3230 0.931 . S
C3246 C3240 1.383 . S
C3246 C3245 1.379 . S
H3247 C3241 0.959 . S
H3248 C3241 0.961 . S
H3249 C3241 0.960 . S
H3250 C3242 0.930 . S
H3251 C3243 0.929 . S
H3252 C3260 0.929 . S
H3253 C3262 0.930 . S
H3254 C3264 0.930 . S
H3255 C3267 0.929 . S
H3256 C3270 0.930 . S
H3257 C3272 0.960 . S
H3258 C3272 0.960 . S
H3259 C3272 0.960 1_556 S
C3260 H3252 0.929 . S
C3260 C3261 1.373 1_554 S
C3260 C3262 1.384 . S
C3261 C3260 1.373 1_556 S
C3261 C3267 1.396 . S
C3262 H3253 0.930 . S
C3262 C3260 1.384 . S
C3262 C3263 1.372 1_554 S
C3263 C3262 1.372 1_556 S
C3263 C3264 1.400 . S
C3263 C3268 1.490 . S
C3264 H3254 0.930 . S
C3264 C3263 1.400 . S
C3264 C3267 1.386 . S
H3265 C3281 0.930 . S
H3266 C3282 0.931 . S
C3267 H3255 0.929 . S
C3267 C3261 1.396 . S
C3267 C3264 1.386 . S
C3268 C3263 1.490 . S
C3268 C3270 1.395 . S
C3268 C3271 1.399 1_556 S
H3269 C3275 0.927 1_554 S
C3270 H3256 0.930 . S
C3270 C3268 1.395 . S
C3270 C3273 1.403 . S
C3271 C3268 1.399 1_554 S
C3271 C3272 1.534 . S
C3271 C3275 1.393 1_554 S
C3272 H3257 0.960 . S
C3272 H3258 0.960 . S
C3272 H3259 0.960 1_554 S
C3272 C3271 1.534 . S
C3273 C3270 1.403 . S
C3273 C3274 1.392 . S
C3273 C3277 1.495 . S
C3274 C3273 1.392 . S
C3274 C3275 1.385 . S
C3274 C3276 1.478 . S
C3275 H3269 0.927 1_556 S
C3275 C3271 1.393 1_556 S
C3275 C3274 1.385 . S
C3276 C3274 1.478 . S
C3276 C3278 1.381 1_556 S
C3276 C3282 1.383 . S
C3277 C3273 1.495 . S
C3277 H3283 0.959 . S
C3277 H3284 0.961 . S
C3277 H3285 0.960 . S
C3278 C3276 1.381 1_554 S
C3278 C3279 1.394 . S
C3278 H3286 0.930 . S
C3279 C3278 1.394 . S
C3279 C3280 1.383 1_554 S
C3279 H3287 0.929 . S
C3280 C3279 1.383 1_556 S
C3280 C3281 1.377 . S
C3281 H3265 0.930 . S
C3281 C3280 1.377 . S
C3281 C3282 1.379 . S
C3282 H3266 0.931 . S
C3282 C3276 1.383 . S
C3282 C3281 1.379 . S
H3283 C3277 0.959 . S
H3284 C3277 0.961 . S
H3285 C3277 0.960 . S
H3286 C3278 0.930 . S
H3287 C3279 0.929 . S
H3288 C3296 0.929 . S
H3289 C3298 0.930 . S
H3290 C3300 0.930 . S
H3291 C3303 0.929 . S
H3292 C3306 0.930 . S
H3293 C3308 0.960 . S
H3294 C3308 0.960 . S
H3295 C3308 0.960 . S
C3296 H3288 0.929 . S
C3296 C3297 1.377 . S
C3296 C3298 1.384 . S
C3297 C3296 1.377 . S
C3297 C3303 1.390 . S
C3298 H3289 0.930 . S
C3298 C3296 1.384 . S
C3298 C3299 1.372 . S
C3299 C3298 1.372 . S
C3299 C3300 1.400 . S
C3299 C3304 1.490 . S
C3300 H3290 0.930 . S
C3300 C3299 1.400 . S
C3300 C3303 1.386 . S
H3301 C3317 0.930 . S
H3302 C3318 0.931 . S
C3303 H3291 0.929 . S
C3303 C3297 1.390 . S
C3303 C3300 1.386 . S
C3304 C3299 1.490 . S
C3304 C3306 1.395 . S
C3304 C3307 1.403 . S
H3305 C3311 0.930 . S
C3306 H3292 0.930 . S
C3306 C3304 1.395 . S
C3306 C3309 1.403 . S
C3307 C3304 1.403 . S
C3307 C3308 1.524 . S
C3307 C3311 1.400 . S
C3308 H3293 0.960 . S
C3308 H3294 0.960 . S
C3308 H3295 0.960 . S
C3308 C3307 1.524 . S
C3309 C3306 1.403 . S
C3309 C3310 1.392 . S
C3309 C3313 1.495 . S
C3310 C3309 1.392 . S
C3310 C3311 1.385 . S
C3310 C3312 1.478 . S
C3311 H3305 0.930 . S
C3311 C3307 1.400 . S
C3311 C3310 1.385 . S
C3312 C3310 1.478 . S
C3312 C3314 1.381 . S
C3312 C3318 1.383 . S
C3313 C3309 1.495 . S
C3313 H3319 0.959 . S
C3313 H3320 0.961 . S
C3313 H3321 0.960 . S
C3314 C3312 1.381 . S
C3314 C3315 1.394 . S
C3314 H3322 0.930 . S
C3315 C3314 1.394 . S
C3315 C3316 1.383 . S
C3315 H3323 0.929 . S
C3316 C3315 1.383 . S
C3316 C3317 1.377 . S
C3317 H3301 0.930 . S
C3317 C3316 1.377 . S
C3317 C3318 1.379 . S
C3318 H3302 0.931 . S
C3318 C3312 1.383 . S
C3318 C3317 1.379 . S
H3319 C3313 0.959 . S
H3320 C3313 0.961 . S
H3321 C3313 0.960 . S
H3322 C3314 0.930 . S
H3323 C3315 0.929 . S
H3324 C3332 0.929 . S
H3325 C3334 0.930 . S
H3326 C3336 0.930 . S
H3327 C3339 0.929 . S
H3328 C3342 0.930 . S
H3329 C3344 0.960 . S
H3330 C3344 0.960 . S
H3331 C3344 0.960 . S
C3332 H3324 0.929 . S
C3332 C3333 1.377 . S
C3332 C3334 1.384 . S
C3333 C3332 1.377 . S
C3333 C3339 1.390 . S
C3334 H3325 0.930 . S
C3334 C3332 1.384 . S
C3334 C3335 1.372 . S
C3335 C3334 1.372 . S
C3335 C3336 1.400 . S
C3335 C3340 1.490 . S
C3336 H3326 0.930 . S
C3336 C3335 1.400 . S
C3336 C3339 1.386 . S
H3337 C3353 0.930 . S
H3338 C3354 0.931 . S
C3339 H3327 0.929 . S
C3339 C3333 1.390 . S
C3339 C3336 1.386 . S
C3340 C3335 1.490 . S
C3340 C3342 1.395 1_455 S
C3340 C3343 1.403 . S
H3341 C3347 0.930 . S
C3342 H3328 0.930 . S
C3342 C3340 1.395 1_655 S
C3342 C3345 1.403 . S
C3343 C3340 1.403 . S
C3343 C3344 1.524 . S
C3343 C3347 1.400 . S
C3344 H3329 0.960 . S
C3344 H3330 0.960 . S
C3344 H3331 0.960 . S
C3344 C3343 1.524 . S
C3345 C3342 1.403 . S
C3345 C3346 1.392 1_655 S
C3345 C3349 1.495 . S
C3346 C3345 1.392 1_455 S
C3346 C3347 1.385 . S
C3346 C3348 1.478 . S
C3347 H3341 0.930 . S
C3347 C3343 1.400 . S
C3347 C3346 1.385 . S
C3348 C3346 1.478 . S
C3348 C3350 1.381 . S
C3348 C3354 1.383 . S
C3349 C3345 1.495 . S
C3349 H3355 0.959 . S
C3349 H3356 0.961 . S
C3349 H3357 0.960 . S
C3350 C3348 1.381 . S
C3350 C3351 1.394 . S
C3350 H3358 0.930 . S
C3351 C3350 1.394 . S
C3351 C3352 1.383 . S
C3351 H3359 0.929 . S
C3352 C3351 1.383 . S
C3352 C3353 1.377 . S
C3353 H3337 0.930 . S
C3353 C3352 1.377 . S
C3353 C3354 1.379 . S
C3354 H3338 0.931 . S
C3354 C3348 1.383 . S
C3354 C3353 1.379 . S
H3355 C3349 0.959 . S
H3356 C3349 0.961 . S
H3357 C3349 0.960 . S
H3358 C3350 0.930 . S
H3359 C3351 0.929 . S
H3360 C3368 0.929 . S
H3361 C3370 0.930 . S
H3362 C3372 0.930 . S
H3363 C3375 0.929 . S
H3364 C3378 0.930 . S
H3365 C3380 0.960 . S
H3366 C3380 0.960 . S
H3367 C3380 0.960 . S
C3368 H3360 0.929 . S
C3368 C3369 1.377 . S
C3368 C3370 1.384 . S
C3369 C3368 1.377 . S
C3369 C3375 1.390 . S
C3370 H3361 0.930 . S
C3370 C3368 1.384 . S
C3370 C3371 1.372 . S
C3371 C3370 1.372 . S
C3371 C3372 1.400 . S
C3371 C3376 1.490 . S
C3372 H3362 0.930 . S
C3372 C3371 1.400 . S
C3372 C3375 1.386 . S
H3373 C3389 0.930 . S
H3374 C3390 0.931 . S
C3375 H3363 0.929 . S
C3375 C3369 1.390 . S
C3375 C3372 1.386 . S
C3376 C3371 1.490 . S
C3376 C3378 1.395 . S
C3376 C3379 1.403 . S
H3377 C3383 0.930 . S
C3378 H3364 0.930 . S
C3378 C3376 1.395 . S
C3378 C3381 1.403 . S
C3379 C3376 1.403 . S
C3379 C3380 1.524 . S
C3379 C3383 1.400 . S
C3380 H3365 0.960 . S
C3380 H3366 0.960 . S
C3380 H3367 0.960 . S
C3380 C3379 1.524 . S
C3381 C3378 1.403 . S
C3381 C3382 1.392 . S
C3381 C3385 1.495 . S
C3382 C3381 1.392 . S
C3382 C3383 1.385 . S
C3382 C3384 1.478 . S
C3383 H3377 0.930 . S
C3383 C3379 1.400 . S
C3383 C3382 1.385 . S
C3384 C3382 1.478 . S
C3384 C3386 1.381 . S
C3384 C3390 1.383 . S
C3385 C3381 1.495 . S
C3385 H3391 0.959 . S
C3385 H3392 0.961 . S
C3385 H3393 0.960 . S
C3386 C3384 1.381 . S
C3386 C3387 1.394 . S
C3386 H3394 0.930 . S
C3387 C3386 1.394 . S
C3387 C3388 1.383 . S
C3387 H3395 0.929 . S
C3388 C3387 1.383 . S
C3388 C3389 1.377 . S
C3389 H3373 0.930 . S
C3389 C3388 1.377 . S
C3389 C3390 1.379 . S
C3390 H3374 0.931 . S
C3390 C3384 1.383 . S
C3390 C3389 1.379 . S
H3391 C3385 0.959 . S
H3392 C3385 0.961 . S
H3393 C3385 0.960 . S
H3394 C3386 0.930 . S
H3395 C3387 0.929 . S
H3396 C3404 0.929 . S
H3397 C3406 0.930 . S
H3398 C3408 0.930 . S
H3399 C3411 0.929 . S
H3400 C3414 0.930 . S
H3401 C3416 0.960 . S
H3402 C3416 0.960 . S
H3403 C3416 0.960 1_655 S
C3404 H3396 0.929 . S
C3404 C3405 1.372 1_455 S
C3404 C3406 1.384 . S
C3405 C3404 1.372 1_655 S
C3405 C3411 1.397 . S
C3406 H3397 0.930 . S
C3406 C3404 1.384 . S
C3406 C3407 1.372 1_455 S
C3407 C3406 1.372 1_655 S
C3407 C3408 1.400 . S
C3407 C3412 1.490 . S
C3408 H3398 0.930 . S
C3408 C3407 1.400 . S
C3408 C3411 1.386 . S
H3409 C3425 0.930 . S
H3410 C3426 0.931 . S
C3411 H3399 0.929 . S
C3411 C3405 1.397 . S
C3411 C3408 1.386 . S
C3412 C3407 1.490 . S
C3412 C3414 1.395 . S
C3412 C3415 1.403 . S
H3413 C3419 0.930 . S
C3414 H3400 0.930 . S
C3414 C3412 1.395 . S
C3414 C3417 1.403 . S
C3415 C3412 1.403 . S
C3415 C3416 1.524 1_655 S
C3415 C3419 1.400 . S
C3416 H3401 0.960 . S
C3416 H3402 0.960 . S
C3416 H3403 0.960 1_455 S
C3416 C3415 1.524 1_455 S
C3417 C3414 1.403 . S
C3417 C3418 1.392 . S
C3417 C3421 1.495 . S
C3418 C3417 1.392 . S
C3418 C3419 1.385 . S
C3418 C3420 1.478 . S
C3419 H3413 0.930 . S
C3419 C3415 1.400 . S
C3419 C3418 1.385 . S
C3420 C3418 1.478 . S
C3420 C3422 1.381 1_655 S
C3420 C3426 1.383 . S
C3421 C3417 1.495 . S
C3421 H3427 0.959 . S
C3421 H3428 0.961 . S
C3421 H3429 0.963 1_655 S
C3422 C3420 1.381 1_455 S
C3422 C3423 1.394 . S
C3422 H3430 0.930 . S
C3423 C3422 1.394 . S
C3423 C3424 1.383 1_455 S
C3423 H3431 0.929 . S
C3424 C3423 1.383 1_655 S
C3424 C3425 1.377 . S
C3425 H3409 0.930 . S
C3425 C3424 1.377 . S
C3425 C3426 1.379 . S
C3426 H3410 0.931 . S
C3426 C3420 1.383 . S
C3426 C3425 1.379 . S
H3427 C3421 0.959 . S
H3428 C3421 0.961 . S
H3429 C3421 0.963 1_455 S
H3430 C3422 0.930 . S
H3431 C3423 0.929 . S
H3432 C3440 0.929 . S
H3433 C3442 0.930 . S
H3434 C3444 0.930 . S
H3435 C3447 0.929 . S
H3436 C3450 0.930 . S
H3437 C3452 0.960 . S
H3438 C3452 0.960 . S
H3439 C3452 0.960 . S
C3440 H3432 0.929 . S
C3440 C3441 1.377 . S
C3440 C3442 1.384 . S
C3441 C3440 1.377 . S
C3441 C3447 1.390 . S
C3442 H3433 0.930 . S
C3442 C3440 1.384 . S
C3442 C3443 1.372 . S
C3443 C3442 1.372 . S
C3443 C3444 1.400 . S
C3443 C3448 1.490 . S
C3444 H3434 0.930 . S
C3444 C3443 1.400 . S
C3444 C3447 1.386 . S
H3445 C3461 0.930 . S
H3446 C3462 0.931 . S
C3447 H3435 0.929 . S
C3447 C3441 1.390 . S
C3447 C3444 1.386 . S
C3448 C3443 1.490 . S
C3448 C3450 1.395 . S
C3448 C3451 1.403 . S
H3449 C3455 0.930 . S
C3450 H3436 0.930 . S
C3450 C3448 1.395 . S
C3450 C3453 1.403 . S
C3451 C3448 1.403 . S
C3451 C3452 1.524 . S
C3451 C3455 1.400 . S
C3452 H3437 0.960 . S
C3452 H3438 0.960 . S
C3452 H3439 0.960 . S
C3452 C3451 1.524 . S
C3453 C3450 1.403 . S
C3453 C3454 1.392 . S
C3453 C3457 1.495 . S
C3454 C3453 1.392 . S
C3454 C3455 1.385 . S
C3454 C3456 1.478 . S
C3455 H3449 0.930 . S
C3455 C3451 1.400 . S
C3455 C3454 1.385 . S
C3456 C3454 1.478 . S
C3456 C3458 1.381 . S
C3456 C3462 1.383 . S
C3457 C3453 1.495 . S
C3457 H3463 0.959 . S
C3457 H3464 0.961 . S
C3457 H3465 0.960 . S
C3458 C3456 1.381 . S
C3458 C3459 1.394 . S
C3458 H3466 0.930 . S
C3459 C3458 1.394 . S
C3459 C3460 1.383 . S
C3459 H3467 0.929 . S
C3460 C3459 1.383 . S
C3460 C3461 1.377 . S
C3461 H3445 0.930 . S
C3461 C3460 1.377 . S
C3461 C3462 1.379 . S
C3462 H3446 0.931 . S
C3462 C3456 1.383 . S
C3462 C3461 1.379 . S
H3463 C3457 0.959 . S
H3464 C3457 0.961 . S
H3465 C3457 0.960 . S
H3466 C3458 0.930 . S
H3467 C3459 0.929 . S
H3468 C3476 0.929 . S
H3469 C3478 0.930 . S
H3470 C3480 0.930 . S
H3471 C3483 0.929 . S
H3472 C3486 0.930 . S
H3473 C3488 0.960 . S
H3474 C3488 0.960 . S
H3475 C3488 0.960 . S
C3476 H3468 0.929 . S
C3476 C3477 1.377 . S
C3476 C3478 1.384 . S
C3477 C3476 1.377 . S
C3477 C3483 1.390 . S
C3478 H3469 0.930 . S
C3478 C3476 1.384 . S
C3478 C3479 1.372 . S
C3479 C3478 1.372 . S
C3479 C3480 1.400 . S
C3479 C3484 1.490 . S
C3480 H3470 0.930 . S
C3480 C3479 1.400 . S
C3480 C3483 1.386 . S
H3481 C3497 0.930 . S
H3482 C3498 0.931 . S
C3483 H3471 0.929 . S
C3483 C3477 1.390 . S
C3483 C3480 1.386 . S
C3484 C3479 1.490 . S
C3484 C3486 1.395 . S
C3484 C3487 1.403 . S
H3485 C3491 0.930 . S
C3486 H3472 0.930 . S
C3486 C3484 1.395 . S
C3486 C3489 1.403 . S
C3487 C3484 1.403 . S
C3487 C3488 1.524 . S
C3487 C3491 1.400 . S
C3488 H3473 0.960 . S
C3488 H3474 0.960 . S
C3488 H3475 0.960 . S
C3488 C3487 1.524 . S
C3489 C3486 1.403 . S
C3489 C3490 1.392 . S
C3489 C3493 1.495 . S
C3490 C3489 1.392 . S
C3490 C3491 1.385 . S
C3490 C3492 1.478 . S
C3491 H3485 0.930 . S
C3491 C3487 1.400 . S
C3491 C3490 1.385 . S
C3492 C3490 1.478 . S
C3492 C3494 1.381 . S
C3492 C3498 1.383 . S
C3493 C3489 1.495 . S
C3493 H3499 0.959 . S
C3493 H3500 0.961 . S
C3493 H3501 0.960 . S
C3494 C3492 1.381 . S
C3494 C3495 1.394 . S
C3494 H3502 0.930 . S
C3495 C3494 1.394 . S
C3495 C3496 1.383 . S
C3495 H3503 0.929 . S
C3496 C3495 1.383 . S
C3496 C3497 1.377 . S
C3497 H3481 0.930 . S
C3497 C3496 1.377 . S
C3497 C3498 1.379 . S
C3498 H3482 0.931 . S
C3498 C3492 1.383 . S
C3498 C3497 1.379 . S
H3499 C3493 0.959 . S
H3500 C3493 0.961 . S
H3501 C3493 0.960 . S
H3502 C3494 0.930 . S
H3503 C3495 0.929 . S
H3504 C3512 0.929 . S
H3505 C3514 0.930 . S
H3506 C3516 0.930 . S
H3507 C3519 0.929 . S
H3508 C3522 0.930 . S
H3509 C3524 0.960 . S
H3510 C3524 0.960 . S
H3511 C3524 0.960 . S
C3512 H3504 0.929 . S
C3512 C3513 1.390 . S
C3512 C3514 1.384 . S
C3513 C3512 1.390 . S
C3513 C3519 1.383 1_545 S
C3514 H3505 0.930 . S
C3514 C3512 1.384 . S
C3514 C3515 1.372 . S
C3515 C3514 1.372 . S
C3515 C3516 1.400 1_545 S
C3515 C3520 1.490 . S
C3516 H3506 0.930 . S
C3516 C3515 1.400 1_565 S
C3516 C3519 1.386 . S
H3517 C3533 0.930 1_565 S
H3518 C3534 0.911 1_565 S
C3519 H3507 0.929 . S
C3519 C3513 1.383 1_565 S
C3519 C3516 1.386 . S
C3520 C3515 1.490 . S
C3520 C3522 1.395 . S
C3520 C3523 1.403 1_545 S
H3521 C3527 0.930 . S
C3522 H3508 0.930 . S
C3522 C3520 1.395 . S
C3522 C3525 1.403 . S
C3523 C3520 1.403 1_565 S
C3523 C3524 1.524 . S
C3523 C3527 1.400 . S
C3524 H3509 0.960 . S
C3524 H3510 0.960 . S
C3524 H3511 0.960 . S
C3524 C3523 1.524 . S
C3525 C3522 1.403 . S
C3525 C3526 1.392 . S
C3525 C3529 1.495 . S
C3526 C3525 1.392 . S
C3526 C3527 1.385 1_545 S
C3526 C3528 1.478 . S
C3527 H3521 0.930 . S
C3527 C3523 1.400 . S
C3527 C3526 1.385 1_565 S
C3528 C3526 1.478 . S
C3528 C3530 1.381 . S
C3528 C3534 1.383 . S
C3529 C3525 1.495 . S
C3529 H3535 0.959 . S
C3529 H3536 0.961 . S
C3529 H3537 0.960 . S
C3530 C3528 1.381 . S
C3530 C3531 1.394 . S
C3530 H3538 0.930 . S
C3531 C3530 1.394 . S
C3531 C3532 1.383 . S
C3531 H3539 0.929 . S
C3532 C3531 1.383 . S
C3532 C3533 1.377 . S
C3533 H3517 0.930 1_545 S
C3533 C3532 1.377 . S
C3533 C3534 1.379 . S
C3534 H3518 0.911 1_545 S
C3534 C3528 1.383 . S
C3534 C3533 1.379 . S
H3535 C3529 0.959 . S
H3536 C3529 0.961 . S
H3537 C3529 0.960 . S
H3538 C3530 0.930 . S
H3539 C3531 0.929 . S
H3540 C3548 0.929 1_545 S
H3541 C3550 0.905 1_545 S
H3542 C3552 0.930 . S
H3543 C3555 0.929 . S
H3544 C3558 0.930 . S
H3545 C3560 0.960 . S
H3546 C3560 0.960 . S
H3547 C3560 0.960 . S
C3548 H3540 0.929 1_565 S
C3548 C3549 1.377 . S
C3548 C3550 1.385 . S
C3549 C3548 1.377 . S
C3549 C3555 1.390 . S
C3550 H3541 0.905 1_565 S
C3550 C3548 1.385 . S
C3550 C3551 1.397 . S
C3551 C3550 1.397 . S
C3551 C3552 1.400 . S
C3551 C3556 1.490 . S
C3552 H3542 0.930 . S
C3552 C3551 1.400 . S
C3552 C3555 1.386 . S
H3553 C3569 0.930 . S
H3554 C3570 0.931 . S
C3555 H3543 0.929 . S
C3555 C3549 1.390 . S
C3555 C3552 1.386 . S
C3556 C3551 1.490 . S
C3556 C3558 1.395 . S
C3556 C3559 1.403 . S
H3557 C3563 0.930 . S
C3558 H3544 0.930 . S
C3558 C3556 1.395 . S
C3558 C3561 1.403 . S
C3559 C3556 1.403 . S
C3559 C3560 1.524 . S
C3559 C3563 1.400 . S
C3560 H3545 0.960 . S
C3560 H3546 0.960 . S
C3560 H3547 0.960 . S
C3560 C3559 1.524 . S
C3561 C3558 1.403 . S
C3561 C3562 1.392 . S
C3561 C3565 1.495 . S
C3562 C3561 1.392 . S
C3562 C3563 1.385 . S
C3562 C3564 1.478 . S
C3563 H3557 0.930 . S
C3563 C3559 1.400 . S
C3563 C3562 1.385 . S
C3564 C3562 1.478 . S
C3564 C3566 1.381 1_565 S
C3564 C3570 1.383 . S
C3565 C3561 1.495 . S
C3565 H3571 0.959 . S
C3565 H3572 0.961 . S
C3565 H3573 0.960 1_565 S
C3566 C3564 1.381 1_545 S
C3566 C3567 1.394 . S
C3566 H3574 0.930 . S
C3567 C3566 1.394 . S
C3567 C3568 1.383 1_545 S
C3567 H3575 0.929 . S
C3568 C3567 1.383 1_565 S
C3568 C3569 1.377 . S
C3569 H3553 0.930 . S
C3569 C3568 1.377 . S
C3569 C3570 1.379 . S
C3570 H3554 0.931 . S
C3570 C3564 1.383 . S
C3570 C3569 1.379 . S
H3571 C3565 0.959 . S
H3572 C3565 0.961 . S
H3573 C3565 0.960 1_545 S
H3574 C3566 0.930 . S
H3575 C3567 0.929 . S
H3576 C3584 0.929 . S
H3577 C3586 0.930 . S
H3578 C3588 0.930 . S
H3579 C3591 0.929 . S
H3580 C3594 0.930 . S
H3581 C3596 0.960 . S
H3582 C3596 0.960 . S
H3583 C3596 0.960 . S
C3584 H3576 0.929 . S
C3584 C3585 1.377 . S
C3584 C3586 1.384 . S
C3585 C3584 1.377 . S
C3585 C3591 1.390 . S
C3586 H3577 0.930 . S
C3586 C3584 1.384 . S
C3586 C3587 1.372 . S
C3587 C3586 1.372 . S
C3587 C3588 1.400 . S
C3587 C3592 1.490 . S
C3588 H3578 0.930 . S
C3588 C3587 1.400 . S
C3588 C3591 1.386 . S
H3589 C3605 0.930 . S
H3590 C3606 0.931 . S
C3591 H3579 0.929 . S
C3591 C3585 1.390 . S
C3591 C3588 1.386 . S
C3592 C3587 1.490 . S
C3592 C3594 1.395 . S
C3592 C3595 1.403 . S
H3593 C3599 0.930 . S
C3594 H3580 0.930 . S
C3594 C3592 1.395 . S
C3594 C3597 1.403 . S
C3595 C3592 1.403 . S
C3595 C3596 1.524 . S
C3595 C3599 1.400 . S
C3596 H3581 0.960 . S
C3596 H3582 0.960 . S
C3596 H3583 0.960 . S
C3596 C3595 1.524 . S
C3597 C3594 1.403 . S
C3597 C3598 1.392 . S
C3597 C3601 1.495 . S
C3598 C3597 1.392 . S
C3598 C3599 1.385 . S
C3598 C3600 1.478 . S
C3599 H3593 0.930 . S
C3599 C3595 1.400 . S
C3599 C3598 1.385 . S
C3600 C3598 1.478 . S
C3600 C3602 1.381 . S
C3600 C3606 1.383 . S
C3601 C3597 1.495 . S
C3601 H3607 0.959 . S
C3601 H3608 0.961 . S
C3601 H3609 0.960 . S
C3602 C3600 1.381 . S
C3602 C3603 1.394 . S
C3602 H3610 0.930 . S
C3603 C3602 1.394 . S
C3603 C3604 1.383 . S
C3603 H3611 0.929 . S
C3604 C3603 1.383 . S
C3604 C3605 1.377 . S
C3605 H3589 0.930 . S
C3605 C3604 1.377 . S
C3605 C3606 1.379 . S
C3606 H3590 0.931 . S
C3606 C3600 1.383 . S
C3606 C3605 1.379 . S
H3607 C3601 0.959 . S
H3608 C3601 0.961 . S
H3609 C3601 0.960 . S
H3610 C3602 0.930 . S
H3611 C3603 0.929 . S
H3612 C3620 0.929 . S
H3613 C3622 0.930 . S
H3614 C3624 0.930 1_554 S
H3615 C3627 0.929 1_554 S
H3616 C3630 0.930 . S
H3617 C3632 0.960 . S
H3618 C3632 0.960 . S
H3619 C3632 0.960 . S
C3620 H3612 0.929 . S
C3620 C3621 1.377 . S
C3620 C3622 1.384 . S
C3621 C3620 1.377 . S
C3621 C3627 1.390 . S
C3622 H3613 0.930 . S
C3622 C3620 1.384 . S
C3622 C3623 1.372 . S
C3623 C3622 1.372 . S
C3623 C3624 1.400 . S
C3623 C3628 1.490 . S
C3624 H3614 0.930 1_556 S
C3624 C3623 1.400 . S
C3624 C3627 1.386 . S
H3625 C3641 0.930 . S
H3626 C3642 0.892 1_554 S
C3627 H3615 0.929 1_556 S
C3627 C3621 1.390 . S
C3627 C3624 1.386 . S
C3628 C3623 1.490 . S
C3628 C3630 1.395 . S
C3628 C3631 1.403 1_556 S
H3629 C3635 0.930 . S
C3630 H3616 0.930 . S
C3630 C3628 1.395 . S
C3630 C3633 1.403 . S
C3631 C3628 1.403 1_554 S
C3631 C3632 1.524 . S
C3631 C3635 1.400 . S
C3632 H3617 0.960 . S
C3632 H3618 0.960 . S
C3632 H3619 0.960 . S
C3632 C3631 1.524 . S
C3633 C3630 1.403 . S
C3633 C3634 1.392 . S
C3633 C3637 1.495 . S
C3634 C3633 1.392 . S
C3634 C3635 1.385 1_556 S
C3634 C3636 1.478 . S
C3635 H3629 0.930 . S
C3635 C3631 1.400 . S
C3635 C3634 1.385 1_554 S
C3636 C3634 1.478 . S
C3636 C3638 1.381 . S
C3636 C3642 1.428 . S
C3637 C3633 1.495 . S
C3637 H3643 0.959 . S
C3637 H3644 0.961 . S
C3637 H3645 0.960 . S
C3638 C3636 1.381 . S
C3638 C3639 1.394 . S
C3638 H3646 0.930 . S
C3639 C3638 1.394 . S
C3639 C3640 1.383 . S
C3639 H3647 0.929 . S
C3640 C3639 1.383 . S
C3640 C3641 1.377 1_556 S
C3641 H3625 0.930 . S
C3641 C3640 1.377 1_554 S
C3641 C3642 1.377 1_554 S
C3642 H3626 0.892 1_556 S
C3642 C3636 1.428 . S
C3642 C3641 1.377 1_556 S
H3643 C3637 0.959 . S
H3644 C3637 0.961 . S
H3645 C3637 0.960 . S
H3646 C3638 0.930 . S
H3647 C3639 0.929 . S
H3648 C3656 0.929 . S
H3649 C3658 0.930 . S
H3650 C3660 0.930 . S
H3651 C3663 0.929 . S
H3652 C3666 0.930 . S
H3653 C3668 0.960 . S
H3654 C3668 0.960 . S
H3655 C3668 0.960 . S
C3656 H3648 0.929 . S
C3656 C3657 1.377 . S
C3656 C3658 1.384 . S
C3657 C3656 1.377 . S
C3657 C3663 1.390 . S
C3658 H3649 0.930 . S
C3658 C3656 1.384 . S
C3658 C3659 1.372 . S
C3659 C3658 1.372 . S
C3659 C3660 1.400 . S
C3659 C3664 1.490 . S
C3660 H3650 0.930 . S
C3660 C3659 1.400 . S
C3660 C3663 1.386 . S
H3661 C3677 0.930 . S
H3662 C3678 0.931 . S
C3663 H3651 0.929 . S
C3663 C3657 1.390 . S
C3663 C3660 1.386 . S
C3664 C3659 1.490 . S
C3664 C3666 1.395 . S
C3664 C3667 1.403 . S
H3665 C3671 0.930 . S
C3666 H3652 0.930 . S
C3666 C3664 1.395 . S
C3666 C3669 1.403 . S
C3667 C3664 1.403 . S
C3667 C3668 1.524 . S
C3667 C3671 1.400 . S
C3668 H3653 0.960 . S
C3668 H3654 0.960 . S
C3668 H3655 0.960 . S
C3668 C3667 1.524 . S
C3669 C3666 1.403 . S
C3669 C3670 1.392 . S
C3669 C3673 1.495 . S
C3670 C3669 1.392 . S
C3670 C3671 1.385 . S
C3670 C3672 1.478 . S
C3671 H3665 0.930 . S
C3671 C3667 1.400 . S
C3671 C3670 1.385 . S
C3672 C3670 1.478 . S
C3672 C3674 1.381 . S
C3672 C3678 1.383 . S
C3673 C3669 1.495 . S
C3673 H3679 0.959 . S
C3673 H3680 0.961 . S
C3673 H3681 0.960 . S
C3674 C3672 1.381 . S
C3674 C3675 1.394 . S
C3674 H3682 0.930 . S
C3675 C3674 1.394 . S
C3675 C3676 1.383 . S
C3675 H3683 0.929 . S
C3676 C3675 1.383 . S
C3676 C3677 1.377 . S
C3677 H3661 0.930 . S
C3677 C3676 1.377 . S
C3677 C3678 1.379 . S
C3678 H3662 0.931 . S
C3678 C3672 1.383 . S
C3678 C3677 1.379 . S
H3679 C3673 0.959 . S
H3680 C3673 0.961 . S
H3681 C3673 0.960 . S
H3682 C3674 0.930 . S
H3683 C3675 0.929 . S
H3684 C3692 0.929 . S
H3685 C3694 0.930 . S
H3686 C3696 0.934 . S
H3687 C3699 0.930 . S
H3688 C3702 0.930 . S
H3689 C3704 0.960 . S
H3690 C3704 0.960 . S
H3691 C3704 0.960 . S
C3692 H3684 0.929 . S
C3692 C3693 1.379 . S
C3692 C3694 1.384 . S
C3693 C3692 1.379 . S
C3693 C3699 1.392 1_554 S
C3694 H3685 0.930 . S
C3694 C3692 1.384 . S
C3694 C3695 1.372 . S
C3695 C3694 1.372 . S
C3695 C3696 1.408 . S
C3695 C3700 1.490 . S
C3696 H3686 0.934 . S
C3696 C3695 1.408 . S
C3696 C3699 1.374 1_554 S
H3697 C3713 0.930 . S
H3698 C3714 0.931 . S
C3699 H3687 0.930 . S
C3699 C3693 1.392 1_556 S
C3699 C3696 1.374 1_556 S
C3700 C3695 1.490 . S
C3700 C3702 1.395 . S
C3700 C3703 1.403 1_554 S
H3701 C3707 0.930 . S
C3702 H3688 0.930 . S
C3702 C3700 1.395 . S
C3702 C3705 1.403 . S
C3703 C3700 1.403 1_556 S
C3703 C3704 1.524 . S
C3703 C3707 1.400 . S
C3704 H3689 0.960 . S
C3704 H3690 0.960 . S
C3704 H3691 0.960 . S
C3704 C3703 1.524 . S
C3705 C3702 1.403 . S
C3705 C3706 1.392 . S
C3705 C3709 1.495 . S
C3706 C3705 1.392 . S
C3706 C3707 1.385 1_554 S
C3706 C3708 1.478 . S
C3707 H3701 0.930 . S
C3707 C3703 1.400 . S
C3707 C3706 1.385 1_556 S
C3708 C3706 1.478 . S
C3708 C3710 1.381 . S
C3708 C3714 1.383 . S
C3709 C3705 1.495 . S
C3709 H3715 0.959 . S
C3709 H3716 0.961 . S
C3709 H3717 0.960 . S
C3710 C3708 1.381 . S
C3710 C3711 1.394 . S
C3710 H3718 0.930 . S
C3711 C3710 1.394 . S
C3711 C3712 1.383 . S
C3711 H3719 0.929 . S
C3712 C3711 1.383 . S
C3712 C3713 1.377 . S
C3713 H3697 0.930 . S
C3713 C3712 1.377 . S
C3713 C3714 1.379 . S
C3714 H3698 0.931 . S
C3714 C3708 1.383 . S
C3714 C3713 1.379 . S
H3715 C3709 0.959 . S
H3716 C3709 0.961 . S
H3717 C3709 0.960 . S
H3718 C3710 0.930 . S
H3719 C3711 0.929 . S
H3720 C3728 0.929 . S
H3721 C3730 0.930 . S
H3722 C3732 0.930 . S
H3723 C3735 0.929 . S
H3724 C3738 0.930 . S
H3725 C3740 0.960 . S
H3726 C3740 0.960 . S
H3727 C3740 0.960 . S
C3728 H3720 0.929 . S
C3728 C3729 1.377 . S
C3728 C3730 1.384 . S
C3729 C3728 1.377 . S
C3729 C3735 1.390 . S
C3730 H3721 0.930 . S
C3730 C3728 1.384 . S
C3730 C3731 1.372 . S
C3731 C3730 1.372 . S
C3731 C3732 1.400 . S
C3731 C3736 1.490 . S
C3732 H3722 0.930 . S
C3732 C3731 1.400 . S
C3732 C3735 1.386 . S
H3733 C3749 0.930 . S
H3734 C3750 0.931 . S
C3735 H3723 0.929 . S
C3735 C3729 1.390 . S
C3735 C3732 1.386 . S
C3736 C3731 1.490 . S
C3736 C3738 1.395 . S
C3736 C3739 1.403 . S
H3737 C3743 0.930 . S
C3738 H3724 0.930 . S
C3738 C3736 1.395 . S
C3738 C3741 1.403 . S
C3739 C3736 1.403 . S
C3739 C3740 1.524 . S
C3739 C3743 1.400 . S
C3740 H3725 0.960 . S
C3740 H3726 0.960 . S
C3740 H3727 0.960 . S
C3740 C3739 1.524 . S
C3741 C3738 1.403 . S
C3741 C3742 1.392 . S
C3741 C3745 1.495 . S
C3742 C3741 1.392 . S
C3742 C3743 1.385 . S
C3742 C3744 1.478 . S
C3743 H3737 0.930 . S
C3743 C3739 1.400 . S
C3743 C3742 1.385 . S
C3744 C3742 1.478 . S
C3744 C3746 1.381 . S
C3744 C3750 1.383 . S
C3745 C3741 1.495 . S
C3745 H3751 0.959 . S
C3745 H3752 0.961 . S
C3745 H3753 0.960 . S
C3746 C3744 1.381 . S
C3746 C3747 1.394 . S
C3746 H3754 0.930 . S
C3747 C3746 1.394 . S
C3747 C3748 1.383 . S
C3747 H3755 0.929 . S
C3748 C3747 1.383 . S
C3748 C3749 1.377 . S
C3749 H3733 0.930 . S
C3749 C3748 1.377 . S
C3749 C3750 1.379 . S
C3750 H3734 0.931 . S
C3750 C3744 1.383 . S
C3750 C3749 1.379 . S
H3751 C3745 0.959 . S
H3752 C3745 0.961 . S
H3753 C3745 0.960 . S
H3754 C3746 0.930 . S
H3755 C3747 0.929 . S
H3756 C3764 0.929 . S
H3757 C3766 0.930 . S
H3758 C3768 0.930 1_455 S
H3759 C3771 0.929 1_455 S
H3760 C3774 0.930 . S
H3761 C3776 0.960 . S
H3762 C3776 0.960 . S
H3763 C3776 0.960 . S
C3764 H3756 0.929 . S
C3764 C3765 1.377 . S
C3764 C3766 1.384 . S
C3765 C3764 1.377 . S
C3765 C3771 1.390 . S
C3766 H3757 0.930 . S
C3766 C3764 1.384 . S
C3766 C3767 1.372 . S
C3767 C3766 1.372 . S
C3767 C3768 1.400 . S
C3767 C3772 1.490 . S
C3768 H3758 0.930 1_655 S
C3768 C3767 1.400 . S
C3768 C3771 1.386 . S
H3769 C3785 0.930 . S
H3770 C3786 0.931 . S
C3771 H3759 0.929 1_655 S
C3771 C3765 1.390 . S
C3771 C3768 1.386 . S
C3772 C3767 1.490 . S
C3772 C3774 1.395 . S
C3772 C3775 1.403 . S
H3773 C3779 0.930 . S
C3774 H3760 0.930 . S
C3774 C3772 1.395 . S
C3774 C3777 1.403 . S
C3775 C3772 1.403 . S
C3775 C3776 1.524 . S
C3775 C3779 1.400 . S
C3776 H3761 0.960 . S
C3776 H3762 0.960 . S
C3776 H3763 0.960 . S
C3776 C3775 1.524 . S
C3777 C3774 1.403 . S
C3777 C3778 1.392 . S
C3777 C3781 1.495 . S
C3778 C3777 1.392 . S
C3778 C3779 1.385 . S
C3778 C3780 1.478 . S
C3779 H3773 0.930 . S
C3779 C3775 1.400 . S
C3779 C3778 1.385 . S
C3780 C3778 1.478 . S
C3780 C3782 1.381 . S
C3780 C3786 1.383 1_655 S
C3781 C3777 1.495 . S
C3781 H3787 0.959 . S
C3781 H3788 0.961 1_655 S
C3781 H3789 0.960 . S
C3782 C3780 1.381 . S
C3782 C3783 1.394 . S
C3782 H3790 0.930 . S
C3783 C3782 1.394 . S
C3783 C3784 1.383 . S
C3783 H3791 0.929 . S
C3784 C3783 1.383 . S
C3784 C3785 1.377 1_655 S
C3785 H3769 0.930 . S
C3785 C3784 1.377 1_455 S
C3785 C3786 1.379 . S
C3786 H3770 0.931 . S
C3786 C3780 1.383 1_455 S
C3786 C3785 1.379 . S
H3787 C3781 0.959 . S
H3788 C3781 0.961 1_455 S
H3789 C3781 0.960 . S
H3790 C3782 0.930 . S
H3791 C3783 0.929 . S
H3792 C3800 0.929 . S
H3793 C3802 0.930 . S
H3794 C3804 0.930 . S
H3795 C3807 0.929 . S
H3796 C3810 0.930 . S
H3797 C3812 0.960 . S
H3798 C3812 0.960 . S
H3799 C3812 0.960 . S
C3800 H3792 0.929 . S
C3800 C3801 1.377 . S
C3800 C3802 1.384 . S
C3801 C3800 1.377 . S
C3801 C3807 1.390 . S
C3802 H3793 0.930 . S
C3802 C3800 1.384 . S
C3802 C3803 1.372 . S
C3803 C3802 1.372 . S
C3803 C3804 1.400 . S
C3803 C3808 1.490 . S
C3804 H3794 0.930 . S
C3804 C3803 1.400 . S
C3804 C3807 1.386 . S
H3805 C3821 0.930 . S
H3806 C3822 0.931 . S
C3807 H3795 0.929 . S
C3807 C3801 1.390 . S
C3807 C3804 1.386 . S
C3808 C3803 1.490 . S
C3808 C3810 1.395 . S
C3808 C3811 1.403 . S
H3809 C3815 0.930 . S
C3810 H3796 0.930 . S
C3810 C3808 1.395 . S
C3810 C3813 1.403 . S
C3811 C3808 1.403 . S
C3811 C3812 1.524 . S
C3811 C3815 1.400 . S
C3812 H3797 0.960 . S
C3812 H3798 0.960 . S
C3812 H3799 0.960 . S
C3812 C3811 1.524 . S
C3813 C3810 1.403 . S
C3813 C3814 1.392 . S
C3813 C3817 1.495 . S
C3814 C3813 1.392 . S
C3814 C3815 1.385 . S
C3814 C3816 1.478 . S
C3815 H3809 0.930 . S
C3815 C3811 1.400 . S
C3815 C3814 1.385 . S
C3816 C3814 1.478 . S
C3816 C3818 1.381 . S
C3816 C3822 1.383 . S
C3817 C3813 1.495 . S
C3817 H3823 0.959 . S
C3817 H3824 0.961 . S
C3817 H3825 0.960 . S
C3818 C3816 1.381 . S
C3818 C3819 1.394 . S
C3818 H3826 0.930 . S
C3819 C3818 1.394 . S
C3819 C3820 1.383 . S
C3819 H3827 0.929 . S
C3820 C3819 1.383 . S
C3820 C3821 1.377 . S
C3821 H3805 0.930 . S
C3821 C3820 1.377 . S
C3821 C3822 1.379 . S
C3822 H3806 0.931 . S
C3822 C3816 1.383 . S
C3822 C3821 1.379 . S
H3823 C3817 0.959 . S
H3824 C3817 0.961 . S
H3825 C3817 0.960 . S
H3826 C3818 0.930 . S
H3827 C3819 0.929 . S
H3828 C3836 0.929 . S
H3829 C3838 0.930 . S
H3830 C3840 0.930 . S
H3831 C3843 0.929 . S
H3832 C3846 0.930 . S
H3833 C3848 0.960 . S
H3834 C3848 0.989 . S
H3835 C3848 0.960 . S
C3836 H3828 0.929 . S
C3836 C3837 1.368 1_655 S
C3836 C3838 1.384 . S
C3837 C3836 1.368 1_455 S
C3837 C3843 1.402 . S
C3838 H3829 0.930 . S
C3838 C3836 1.384 . S
C3838 C3839 1.372 1_655 S
C3839 C3838 1.372 1_455 S
C3839 C3840 1.400 . S
C3839 C3844 1.490 . S
C3840 H3830 0.930 . S
C3840 C3839 1.400 . S
C3840 C3843 1.386 . S
H3841 C3857 0.930 . S
H3842 C3858 0.931 . S
C3843 H3831 0.929 . S
C3843 C3837 1.402 . S
C3843 C3840 1.386 . S
C3844 C3839 1.490 . S
C3844 C3846 1.395 1_455 S
C3844 C3847 1.403 . S
H3845 C3851 0.930 . S
C3846 H3832 0.930 . S
C3846 C3844 1.395 1_655 S
C3846 C3849 1.409 . S
C3847 C3844 1.403 . S
C3847 C3848 1.524 . S
C3847 C3851 1.400 . S
C3848 H3833 0.960 . S
C3848 H3834 0.989 . S
C3848 H3835 0.960 . S
C3848 C3847 1.524 . S
C3849 C3846 1.409 . S
C3849 C3850 1.382 1_655 S
C3849 C3853 1.500 . S
C3850 C3849 1.382 1_455 S
C3850 C3851 1.385 . S
C3850 C3852 1.478 . S
C3851 H3845 0.930 . S
C3851 C3847 1.400 . S
C3851 C3850 1.385 . S
C3852 C3850 1.478 . S
C3852 C3854 1.381 1_455 S
C3852 C3858 1.383 . S
C3853 C3849 1.500 . S
C3853 H3859 0.959 . S
C3853 H3860 0.961 1_655 S
C3853 H3861 0.960 . S
C3854 C3852 1.381 1_655 S
C3854 C3855 1.394 . S
C3854 H3862 0.930 . S
C3855 C3854 1.394 . S
C3855 C3856 1.383 1_655 S
C3855 H3863 0.929 . S
C3856 C3855 1.383 1_455 S
C3856 C3857 1.377 . S
C3857 H3841 0.930 . S
C3857 C3856 1.377 . S
C3857 C3858 1.379 . S
C3858 H3842 0.931 . S
C3858 C3852 1.383 . S
C3858 C3857 1.379 . S
H3859 C3853 0.959 . S
H3860 C3853 0.961 1_455 S
H3861 C3853 0.960 . S
H3862 C3854 0.930 . S
H3863 C3855 0.929 . S
C1300 N1260 1.699 . S
C1281 C15 1.724 . S
C1336 N1221 1.396 . S
C1317 C55 1.349 . S
C1372 N1247 0.443 . S
C1353 C95 0.458 1_545 S
C1408 N1234 1.386 . S
C1389 C135 1.402 . S
C1444 N1143 1.695 . S
C1425 C175 1.724 . S
C1461 C215 1.400 . S
C1480 N1156 1.367 . S
C1516 N1117 1.403 . S
C1497 C255 1.341 . S
C1533 C295 0.459 1_554 S
C1552 N1130 0.543 . S
C1588 N1208 1.714 . S
C1569 C335 1.722 . S
C1605 C375 1.400 . S
C1624 N1182 1.400 . S
C1641 C415 1.348 . S
C1660 N1169 1.397 . S
C1696 N1195 0.464 . S
C1677 C455 0.458 1_455 S
C1732 N1104 1.708 . S
C1713 C495 1.722 . S
C1749 C535 1.332 . S
C1768 N1065 1.403 . S
C1804 N1091 0.526 . S
C1785 C575 0.459 . S
C1821 C615 1.400 . S
C1840 N1078 1.424 . S
C1876 N987 1.721 . S
C1857 C655 1.718 . S
C1912 N1000 1.416 . S
C1893 C695 1.397 . S
C1929 C735 1.345 . S
C1948 N961 1.391 . S
C1965 C775 0.460 . S
C1984 N974 0.456 . S
C2001 C815 1.715 . S
C2020 N1052 1.719 . S
C2037 C855 1.393 . S
C2056 N1026 1.404 . S
C2092 N1013 1.396 . S
C2073 C895 1.340 . S
C2109 C935 0.459 . S
C2128 N1039 0.528 . S
C2164 N965 1.707 . S
C2145 C21 1.710 . S
C2200 N978 1.814 . S
C2181 C61 1.791 . S
C2217 C101 0.790 1_545 S
C2236 N991 0.787 1_565 S
C2253 C141 0.878 . S
C2272 N1004 0.892 . S
C2308 N1017 1.705 . S
C2289 C181 1.710 . S
C2325 C221 0.878 . S
C2344 N1030 0.891 . S
C2380 N1043 1.804 . S
C2361 C261 1.790 . S
C2416 N1056 0.760 1_556 S
C2397 C301 0.792 . S
C2452 N1069 1.705 . S
C2433 C341 1.710 . S
C2469 C381 0.878 . S
C2488 N1082 0.887 . S
C2505 C421 1.795 . S
C2524 N1095 1.798 . S
C2541 C461 0.791 . S
C2560 N1108 0.767 1_655 S
C2577 C501 1.666 . S
C2596 N1121 1.709 . S
C2613 C541 1.681 . S
C2632 N1134 1.813 . S
C2649 C581 0.790 . S
C2668 N1147 0.809 1_545 S
C2685 C621 0.874 . S
C2704 N1160 0.865 . S
C2721 C661 1.674 . S
C2740 N1173 1.706 . S
C2776 N1186 0.892 . S
C2757 C701 0.861 . S
C2812 N1199 1.809 . S
C2793 C741 1.678 . S
C2848 N1212 0.807 1_554 S
C2829 C781 0.789 . S
C2884 N1225 1.707 . S
C2865 C821 1.671 . S
C2901 C861 0.876 . S
C2920 N1238 0.855 . S
C2937 C901 1.669 . S
C2956 N1251 1.796 . S
C2973 C941 0.787 . S
C2992 N1264 0.783 1_455 S
C3009 C2 1.649 . S
C3028 N1066 1.644 . S
C3064 N1105 1.858 . S
C3045 C42 1.858 . S
C3081 C82 1.508 . S
C3100 N1079 1.494 . S
C3136 N1092 1.536 . S
C3117 C122 1.515 . S
C3153 C162 1.649 . S
C3172 N962 1.636 . S
C3189 C202 1.514 . S
C3208 N975 1.534 . S
C3225 C242 1.868 . S
C3244 N988 1.837 . S
C3261 C282 1.517 . S
C3280 N1001 1.511 . S
C3316 N1014 1.648 . S
C3297 C322 1.650 . S
C3352 N1040 1.532 . S
C3333 C362 1.513 . S
C3369 C402 1.868 . S
C3388 N1053 1.835 . S
C3405 C442 1.517 . S
C3424 N1027 1.509 . S
C3460 N1222 1.643 . S
C3441 C482 1.625 . S
C3496 N1261 1.833 . S
C3477 C522 1.762 . S
C3513 C562 1.518 1_545 S
C3532 N1235 1.515 . S
C3568 N1248 1.537 . S
C3549 C602 1.495 . S
C3585 C642 1.623 . S
C3604 N1118 1.649 . S
C3621 C682 1.495 . S
C3640 N1131 1.540 . S
C3657 C722 1.778 . S
C3676 N1144 1.836 . S
C3712 N1157 1.511 . S
C3693 C762 1.520 1_554 S
C3748 N1170 1.643 . S
C3729 C802 1.617 . S
C3784 N1196 1.539 . S
C3765 C842 1.501 . S
C3801 C882 1.778 . S
C3820 N1209 1.853 . S
C3856 N1183 1.486 . S
C3837 C922 1.520 1_455 S
