# Generated by pormake.
# Topology pts, (4,4)-cn, num edge types: 1
# Building blocks:
#     Node 0, Type 0, BuildingBlock: AZAVOO_clean_linker_0, # of connection points: 4
#     Node 1, Type 0, BuildingBlock: AZAVOO_clean_linker_0, # of connection points: 4
#     Node 2, Type 1, BuildingBlock: AZAVOO_clean_sbu_0, # of connection points: 4
#     Node 3, Type 1, BuildingBlock: AZAVOO_clean_sbu_0, # of connection points: 4
#     Edge 4, Type (0, 1), BuildingBlock: ZUJKAS_clean_linker_0, # of connection points: 2
#     Edge 5, Type (0, 1), BuildingBlock: ZUJKAS_clean_linker_0, # of connection points: 2
#     Edge 6, Type (0, 1), BuildingBlock: ZUJKAS_clean_linker_0, # of connection points: 2
#     Edge 7, Type (0, 1), BuildingBlock: ZUJKAS_clean_linker_0, # of connection points: 2
#     Edge 8, Type (0, 1), BuildingBlock: ZUJKAS_clean_linker_0, # of connection points: 2
#     Edge 9, Type (0, 1), BuildingBlock: ZUJKAS_clean_linker_0, # of connection points: 2
#     Edge 10, Type (0, 1), BuildingBlock: ZUJKAS_clean_linker_0, # of connection points: 2
#     Edge 11, Type (0, 1), BuildingBlock: ZUJKAS_clean_linker_0, # of connection points: 2
# Relax obj value: 0.111
# Max RMSD: 0.230
# Mean RMSD: 0.159
data_MOF--net-pts--node1-AZAVOO_clean_sbu_0--node2-AZAVOO_clean_linker_0--edge1-ZUJKAS_clean_linker_0
_symmetry_space_group_name_H-M    P1
_symmetry_Int_Tables_number       1
_symmetry_cell_setting            triclinic
loop_
_symmetry_equiv_pos_as_xyz
'x, y, z'
_cell_length_a     33.122937
_cell_length_b     34.307432
_cell_length_c     58.883182
_cell_angle_alpha  90.478494
_cell_angle_beta   96.77815
_cell_angle_gamma 90.493529
loop_
_atom_site_label
_atom_site_type_symbol
_atom_site_fract_x
_atom_site_fract_y
_atom_site_fract_z
_atom_type_partial_charge
H0 H 0.48462 0.08412 0.84547 0.0
H1 H 0.81154 0.97727 0.04543 0.0
H2 H 0.47163 0.09805 0.96786 0.0
H3 H 0.40409 0.098 0.94601 0.0
H4 H 0.39105 0.97513 0.95954 0.0
H5 H 0.45828 0.97584 0.98184 0.0
H6 H 0.54917 0.09926 0.94204 0.0
H7 H 0.52618 0.10416 0.9011 0.0
H8 H 0.48323 0.98469 0.90048 0.0
H9 H 0.50683 0.98007 0.94133 0.0
H10 H 0.63447 0.09741 0.97376 0.0
H11 H 0.68608 0.10518 0.94761 0.0
H12 H 0.65593 -0.00955 0.91934 0.0
H13 H 0.6041 0.98312 0.94553 0.0
H14 H 0.646 0.08647 0.02332 0.0
H15 H 0.71657 0.07982 0.04043 0.0
H16 H 0.71694 0.96134 0.01479 0.0
H17 H 0.64617 0.96831 -0.00203 0.0
H18 H 0.57948 0.08295 0.0506 0.0
H19 H 0.62759 0.07729 0.08531 0.0
H20 H 0.63952 0.95433 0.0715 0.0
H21 H 0.59168 0.96036 0.03682 0.0
H22 H 0.4802 0.09345 0.01824 0.0
H23 H 0.42957 0.09712 0.04521 0.0
H24 H 0.4527 0.97697 0.06358 0.0
H25 H 0.50343 0.97362 0.03648 0.0
O26 O 0.49373 0.08149 0.8616 0.0
O27 O 0.47184 0.02009 0.86227 0.0
O28 O 0.78225 0.04214 0.05099 0.0
O29 O 0.78402 0.98104 0.03827 0.0
C30 C 0.51356 0.0352 0.98519 0.0
C31 C 0.54286 0.0366 0.96953 0.0
C32 C 0.58464 0.03536 0.97757 0.0
C33 C 0.59706 0.0307 0.00109 0.0
C34 C 0.56778 0.02819 0.01671 0.0
C35 C 0.526 0.03159 0.00889 0.0
C36 C 0.46982 0.03692 0.9763 0.0
C37 C 0.45365 0.07142 0.9666 0.0
C38 C 0.41526 0.07121 0.95396 0.0
C39 C 0.39245 0.0364 0.95071 0.0
C40 C 0.40766 0.00248 0.96182 0.0
C41 C 0.44606 0.00278 0.97456 0.0
C42 C 0.52964 0.03934 0.9446 0.0
C43 C 0.535 0.07414 0.93298 0.0
C44 C 0.52173 0.07687 0.90962 0.0
C45 C 0.5028 0.04483 0.89752 0.0
C46 C 0.49765 0.00993 0.90928 0.0
C47 C 0.51105 0.00721 0.9326 0.0
C48 C 0.61563 0.03973 0.9615 0.0
C49 C 0.63913 0.07395 0.96194 0.0
C50 C 0.66868 0.07825 0.94707 0.0
C51 C 0.67516 0.04839 0.93144 0.0
C52 C 0.65136 0.01414 0.93101 0.0
C53 C 0.62187 0.00983 0.94596 0.0
C54 C 0.64103 0.02782 0.00951 0.0
C55 C 0.6615 0.05921 0.0213 0.0
C56 C 0.70177 0.0553 0.03107 0.0
C57 C 0.72236 0.01996 0.02907 0.0
C58 C 0.70198 -0.0111 0.0167 0.0
C59 C 0.66165 -0.00716 0.00698 0.0
C60 C 0.58234 0.02211 0.04118 0.0
C61 C 0.5909 0.05446 0.05571 0.0
C62 C 0.61863 0.0512 0.07544 0.0
C63 C 0.63799 0.01553 0.08077 0.0
C64 C 0.62563 0.98231 0.06755 0.0
C65 C 0.59787 0.98557 0.04793 0.0
C66 C 0.49551 0.03329 0.02542 0.0
C67 C 0.4742 0.06788 0.02803 0.0
C68 C 0.44517 0.06986 0.04337 0.0
C69 C 0.43703 0.03731 0.05651 0.0
C70 C 0.45857 0.00267 0.05388 0.0
C71 C 0.4875 0.00067 0.03842 0.0
C72 C 0.48848 0.04789 0.87275 0.0
C73 C 0.76469 0.01524 0.04008 0.0
H74 H 0.03459 0.44525 0.35783 0.0
H75 H 0.11403 0.78396 0.53933 0.0
H76 H 0.00711 0.4496 0.47813 0.0
H77 H 0.00967 0.39331 0.45265 0.0
H78 H 0.14044 0.39103 0.46852 0.0
H79 H 0.13727 0.44655 0.49442 0.0
H80 H 0.00955 0.51776 0.44532 0.0
H81 H 0.00815 0.49092 0.40655 0.0
H82 H 0.13784 0.47222 0.41858 0.0
H83 H 0.13877 0.49931 0.45722 0.0
H84 H 0.01211 0.60925 0.46861 0.0
H85 H 0.01066 0.65711 0.4379 0.0
H86 H 0.13497 0.62932 0.42918 0.0
H87 H 0.13609 0.58156 0.45994 0.0
H88 H 0.01141 0.61616 0.52079 0.0
H89 H 0.01327 0.68468 0.53276 0.0
H90 H 0.13913 0.69262 0.52023 0.0
H91 H 0.137 0.62387 0.50864 0.0
H92 H 0.00541 0.5456 0.54742 0.0
H93 H -0.00052 0.57975 0.58361 0.0
H94 H 0.12821 0.60577 0.59074 0.0
H95 H 0.13383 0.57162 0.55456 0.0
H96 H 0.00253 0.46555 0.52673 0.0
H97 H -0.00361 0.41544 0.55549 0.0
H98 H 0.12564 0.4249 0.57689 0.0
H99 H 0.13096 0.47597 0.54856 0.0
O100 O 0.03606 0.45728 0.37285 0.0
O101 O 0.1029 0.44907 0.37972 0.0
O102 O 0.04779 0.75108 0.54101 0.0
O103 O 0.11241 0.75681 0.53463 0.0
C104 C 0.07219 0.49352 0.49517 0.0
C105 C 0.07409 0.52235 0.47831 0.0
C106 C 0.07434 0.56211 0.48443 0.0
C107 C 0.07334 0.57313 0.50749 0.0
C108 C 0.07159 0.54421 0.52437 0.0
C109 C 0.07055 0.50438 0.51816 0.0
C110 C 0.07201 0.45211 0.488 0.0
C111 C 0.03602 0.43562 0.47698 0.0
C112 C 0.03767 0.40396 0.46211 0.0
C113 C 0.07539 0.38849 0.45804 0.0
C114 C 0.11092 0.40225 0.47123 0.0
C115 C 0.10918 0.43382 0.4862 0.0
C116 C 0.07424 0.51044 0.454 0.0
C117 C 0.03768 0.5084 0.43938 0.0
C118 C 0.03696 0.49285 0.41732 0.0
C119 C 0.07285 0.47918 0.40951 0.0
C120 C 0.10964 0.48238 0.42405 0.0
C121 C 0.11031 0.49796 0.44609 0.0
C122 C 0.0742 0.59206 0.46646 0.0
C123 C 0.03907 0.61375 0.46015 0.0
C124 C 0.03832 0.64101 0.44264 0.0
C125 C 0.07267 0.64681 0.43109 0.0
C126 C 0.10788 0.62505 0.43755 0.0
C127 C 0.10866 0.59798 0.45515 0.0
C128 C 0.07413 0.61506 0.51399 0.0
C129 C 0.03938 0.63273 0.52072 0.0
C130 C 0.04051 0.67189 0.5275 0.0
C131 C 0.0764 0.69413 0.52749 0.0
C132 C 0.11104 0.67635 0.52047 0.0
C133 C 0.10989 0.63713 0.51379 0.0
C134 C 0.07 0.55632 0.54843 0.0
C135 C 0.03251 0.55756 0.55721 0.0
C136 C 0.02915 0.57725 0.57774 0.0
C137 C 0.06335 0.59561 0.58983 0.0
C138 C 0.10146 0.5916 0.58187 0.0
C139 C 0.10472 0.5722 0.56123 0.0
C140 C 0.06718 0.47414 0.5356 0.0
C141 C 0.02941 0.45677 0.53772 0.0
C142 C 0.02606 0.42805 0.55408 0.0
C143 C 0.06055 0.41599 0.5685 0.0
C144 C 0.09835 0.43383 0.56634 0.0
C145 C 0.10158 0.46276 0.55006 0.0
C146 C 0.0717 0.46103 0.38646 0.0
C147 C 0.07784 0.73569 0.53479 0.0
Mg148 Mg 0.09802 0.02693 0.25807 0.0
O149 O 0.0335 0.02543 0.23796 0.0
O150 O 0.99024 0.01894 0.26419 0.0
Mg151 Mg 0.0248 0.01463 0.29972 0.0
C152 C -0.00266 0.02269 0.24348 0.0
C153 C 0.16428 0.03529 0.22842 0.0
O154 O 0.17908 0.01661 0.24691 0.0
O155 O 0.08869 0.08944 0.27058 0.0
O156 O 0.04563 0.07768 0.29639 0.0
O157 O 0.10197 0.96172 0.25654 0.0
O158 O 0.07777 -0.00542 0.28419 0.0
C159 C 0.06707 0.10104 0.2859 0.0
C160 C 0.08563 0.96145 0.27545 0.0
O161 O 0.12756 0.04651 0.22689 0.0
Mg162 Mg -0.0026 0.0061 0.72917 0.0
O163 O 0.0529 0.00558 0.75659 0.0
O164 O 0.10763 -0.0077 0.7392 0.0
Mg165 Mg 0.08754 0.98498 0.70093 0.0
C166 C 0.09107 -0.00011 0.75722 0.0
C167 C 0.96867 0.05364 0.77175 0.0
O168 O 0.00665 0.06556 0.77581 0.0
O169 O 0.01632 0.06577 0.71689 0.0
O170 O 0.07005 0.04981 0.69911 0.0
O171 O 0.98934 0.9421 0.73323 0.0
O172 O 0.02637 0.96865 0.70848 0.0
C173 C 0.04519 0.07502 0.70529 0.0
C174 C 0.01364 0.93772 0.71774 0.0
O175 O 0.95781 0.03184 0.75452 0.0
H176 H 0.36194 0.07113 0.05041 0.0
H177 H 0.31277 0.07691 0.07824 0.0
H178 H 0.39349 0.01415 0.12756 0.0
H179 H 0.44314 0.00896 0.10006 0.0
H180 H 0.27469 0.01623 0.10117 0.0
H181 H 0.36787 0.11471 0.16195 0.0
H182 H 0.37852 0.10705 0.13287 0.0
H183 H 0.39389 0.07162 0.15442 0.0
C184 C 0.36936 0.05886 0.06726 0.0
C185 C 0.40656 0.03977 0.07308 0.0
C186 C 0.34116 0.06201 0.08307 0.0
C187 C 0.34978 0.04648 0.10505 0.0
C188 C 0.38656 0.0269 0.1108 0.0
H189 H 0.24255 0.0127 0.2275 0.0
H190 H 0.28438 0.01888 0.19639 0.0
C191 C 0.4147 0.0236 0.09499 0.0
C192 C 0.32018 0.05014 0.12194 0.0
H193 H 0.30998 0.08502 0.17539 0.0
C194 C 0.2821 0.03164 0.1173 0.0
C195 C 0.32994 0.07047 0.14288 0.0
C196 C 0.36962 0.09243 0.14831 0.0
C197 C 0.25426 0.03128 0.13357 0.0
C198 C 0.26459 0.05058 0.15483 0.0
C199 C 0.30214 0.07019 0.1591 0.0
C200 C 0.23853 0.0481 0.17361 0.0
C201 C 0.21489 0.00877 0.12829 0.0
C202 C 0.19887 0.063 0.17129 0.0
C203 C 0.1746 0.05938 0.18914 0.0
C204 C 0.18977 0.04101 0.20963 0.0
C205 C 0.22978 0.02693 0.21198 0.0
C206 C 0.25385 0.03047 0.19419 0.0
H207 H 0.21524 -0.01082 0.11319 0.0
H208 H 0.20862 -0.00902 0.14317 0.0
H209 H 0.18953 0.02954 0.12456 0.0
H210 H 0.18671 0.07738 0.15569 0.0
H211 H 0.14398 0.07069 0.18685 0.0
H212 H 0.09962 0.41035 0.61217 0.0
H213 H 0.09757 0.35572 0.63849 0.0
H214 H 0.0108 0.29597 0.58961 0.0
H215 H 0.01411 0.34937 0.56279 0.0
H216 H 0.03501 0.32106 0.65873 0.0
H217 H 0.10122 0.21686 0.60123 0.0
H218 H 0.10099 0.26874 0.59653 0.0
H219 H 0.05611 0.23982 0.58797 0.0
C220 C 0.08037 0.38543 0.60692 0.0
C221 C 0.05737 0.38413 0.58523 0.0
C222 C 0.07895 0.35441 0.62208 0.0
C223 C 0.05456 0.32153 0.61584 0.0
C224 C 0.03042 0.32076 0.59459 0.0
H225 H 0.98587 0.13052 0.69969 0.0
H226 H 0.98934 0.1931 0.68032 0.0
C227 C 0.03201 0.35158 0.57938 0.0
C228 C 0.05521 0.28747 0.63121 0.0
H229 H 0.07434 0.18999 0.63335 0.0
C230 C 0.0438 0.29239 0.65328 0.0
C231 C 0.06738 0.25029 0.62419 0.0
C232 C 0.08252 0.24358 0.60128 0.0
C233 C 0.04339 0.26084 0.66835 0.0
C234 C 0.05395 0.22333 0.66094 0.0
C235 C 0.06601 0.21869 0.63901 0.0
C236 C 0.05288 0.18817 0.6754 0.0
C237 C 0.0323 0.26813 0.69213 0.0
C238 C 0.08739 0.16459 0.67916 0.0
C239 C 0.08528 0.12859 0.68983 0.0
C240 C 0.04864 0.11546 0.69711 0.0
C241 C 0.01461 0.13996 0.69443 0.0
C242 C 0.01661 0.17586 0.68345 0.0
H243 H 0.03718 0.29917 0.69735 0.0
H244 H -0.00038 0.26108 0.69246 0.0
H245 H 0.05035 0.24958 0.70485 0.0
H246 H 0.11571 0.17349 0.67315 0.0
H247 H 0.11211 0.11053 0.69179 0.0
H248 H 0.64892 0.04748 0.12399 0.0
H249 H 0.71172 0.04838 0.15081 0.0
H250 H 0.77256 0.98257 0.10247 0.0
H251 H 0.71023 0.98146 0.0757 0.0
H252 H 0.76171 0.9746 0.16655 0.0
H253 H 0.84246 0.08704 0.12064 0.0
H254 H 0.78762 0.08348 0.11791 0.0
H255 H 0.81618 0.04814 0.10409 0.0
C256 C 0.67566 0.03308 0.11917 0.0
C257 C 0.67459 0.01413 0.09786 0.0
C258 C 0.71139 0.03361 0.13445 0.0
C259 C 0.74666 0.01577 0.12846 0.0
C260 C 0.74563 -0.00338 0.10731 0.0
H261 H -0.00458 0.00815 0.19733 0.0
H262 H 0.93509 0.00539 0.16874 0.0
C263 C 0.70991 -0.00427 0.09215 0.0
C264 C 0.78459 0.01685 0.1444 0.0
H265 H 0.87872 0.05942 0.15339 0.0
C266 C 0.78732 -0.00685 0.16376 0.0
C267 C 0.818 0.04062 0.14038 0.0
C268 C 0.81619 0.06649 0.1197 0.0
C269 C 0.82279 -0.00743 0.17933 0.0
C270 C 0.85589 0.01735 0.17577 0.0
C271 C 0.85331 0.0406 0.15615 0.0
C272 C 0.89275 0.02045 0.19268 0.0
C273 C 0.82466 0.96485 0.19919 0.0
C274 C 0.8891 0.03096 0.2154 0.0
C275 C 0.92321 0.03212 0.2317 0.0
C276 C 0.96198 0.02355 0.22557 0.0
C277 C 0.96596 0.01477 0.20258 0.0
C278 C 0.93155 0.01314 0.18626 0.0
H279 H 0.80334 0.93982 0.19542 0.0
H280 H 0.85582 0.95337 0.20358 0.0
H281 H 0.81569 0.98046 0.21437 0.0
H282 H 0.8597 0.038 0.22059 0.0
H283 H 0.91913 0.03971 0.24917 0.0
H284 H 0.00781 0.65306 0.59 0.0
H285 H 0.00419 0.7039 0.61883 0.0
H286 H 0.10414 0.65171 0.66124 0.0
H287 H 0.10863 0.60109 0.6319 0.0
H288 H 0.99091 0.70435 0.66264 0.0
H289 H 0.14663 0.76086 0.65514 0.0
H290 H 0.12205 0.72475 0.63569 0.0
H291 H 0.14406 0.71096 0.66382 0.0
C292 C 0.02857 0.65201 0.60564 0.0
C293 C 0.05847 0.62316 0.60876 0.0
C294 C 0.02659 0.68117 0.62208 0.0
C295 C 0.05432 0.68201 0.64204 0.0
C296 C 0.08308 0.65218 0.64572 0.0
H297 H 0.00574 0.86823 0.73941 0.0
H298 H 0.02029 0.80306 0.72528 0.0
C299 C 0.08545 0.62318 0.62907 0.0
C300 C 0.05357 0.71525 0.65825 0.0
H301 H 0.10836 0.79476 0.67981 0.0
C302 C 0.0167 0.72395 0.66663 0.0
C303 C 0.08723 0.74089 0.66326 0.0
C304 C 0.12715 0.73422 0.65389 0.0
C305 C 0.01186 0.75848 0.6789 0.0
C306 C 0.04536 0.78439 0.68366 0.0
C307 C 0.08281 0.77475 0.67624 0.0
C308 C 0.04099 0.82356 0.69391 0.0
C309 C 0.97021 0.7679 0.68536 0.0
C310 C 0.04996 0.8568 0.68162 0.0
C311 C 0.04258 0.89397 0.68989 0.0
C312 C 0.0257 0.89863 0.71051 0.0
C313 C 0.01829 0.86546 0.72331 0.0
C314 C 0.02633 0.82822 0.71519 0.0
H315 H 0.94606 0.74945 0.67583 0.0
H316 H 0.96968 0.76257 0.70388 0.0
H317 H 0.96271 0.79895 0.68197 0.0
H318 H 0.06141 0.85397 0.6652 0.0
H319 H 0.04862 0.91896 0.67964 0.0
H320 H 0.32074 -0.0029 0.95435 0.0
H321 H 0.26192 -0.00979 0.92503 0.0
H322 H 0.32127 0.06434 0.88008 0.0
H323 H 0.3801 0.07093 0.90895 0.0
H324 H 0.23703 0.08102 0.88203 0.0
H325 H 0.26595 0.9241 0.86586 0.0
H326 H 0.26143 0.93815 0.89494 0.0
H327 H 0.30366 0.95572 0.88133 0.0
C328 C 0.32119 0.01197 0.93823 0.0
C329 C 0.3551 0.03462 0.93402 0.0
C330 C 0.28759 0.00803 0.92153 0.0
C331 C 0.28747 0.02653 0.90035 0.0
C332 C 0.32072 0.04997 0.89637 0.0
H333 H 0.17312 -0.01127 0.76534 0.0
H334 H 0.21655 -0.00549 0.80166 0.0
C335 C 0.35424 0.05388 0.91297 0.0
C336 C 0.25367 0.02053 0.88181 0.0
H337 H 0.2116 0.95298 0.84294 0.0
C338 C 0.23102 0.05295 0.87363 0.0
C339 C 0.24633 0.98392 0.87082 0.0
C340 C 0.2707 0.94843 0.87849 0.0
C341 C 0.20183 0.04994 0.85435 0.0
C342 C 0.19494 0.01345 0.84315 0.0
C343 C 0.21687 0.98083 0.85168 0.0
C344 C 0.1677 0.0092 0.82144 0.0
C345 C 0.17989 0.08611 0.84549 0.0
C346 C 0.12569 0.01515 0.82058 0.0
C347 C 0.10063 0.0119 0.79977 0.0
C348 C 0.11719 0.00256 0.77947 0.0
C349 C 0.15926 -0.00392 0.78056 0.0
C350 C 0.18419 -0.00072 0.80133 0.0
H351 H 0.1938 0.11308 0.8537 0.0
H352 H 0.17991 0.08834 0.82669 0.0
H353 H 0.14778 0.08444 0.84908 0.0
H354 H 0.11232 0.02229 0.836 0.0
H355 H 0.06835 0.01683 0.79961 0.0
H356 H 0.12436 0.32471 0.45583 0.0
H357 H 0.13081 0.28317 0.42246 0.0
H358 H 0.03868 0.35006 0.38256 0.0
H359 H 0.03339 0.3926 0.4154 0.0
H360 H 0.0741 0.23735 0.40012 0.0
H361 H 0.12404 0.34473 0.33935 0.0
H362 H 0.12466 0.35529 0.36949 0.0
H363 H 0.07824 0.35924 0.35044 0.0
C364 C 0.1058 0.33078 0.43988 0.0
C365 C 0.07813 0.36174 0.43834 0.0
C366 C 0.10951 0.30706 0.42083 0.0
C367 C 0.0858 0.31397 0.39989 0.0
C368 C 0.05803 0.34473 0.39835 0.0
H369 H 0.0058 0.14475 0.29847 0.0
H370 H 0.01311 0.20223 0.32343 0.0
C371 C 0.05443 0.36853 0.41732 0.0
C372 C 0.08764 0.28713 0.3802 0.0
H373 H 0.09775 0.28355 0.32306 0.0
C374 C 0.07981 0.24745 0.38337 0.0
C375 C 0.09544 0.30026 0.35836 0.0
C376 C 0.10649 0.34215 0.35424 0.0
C377 C 0.07807 0.22076 0.36518 0.0
C378 C 0.08355 0.23421 0.3431 0.0
C379 C 0.09296 0.27356 0.33997 0.0
C380 C 0.07817 0.2073 0.32323 0.0
C381 C 0.06982 0.17832 0.36966 0.0
C382 C 0.11201 0.19299 0.31364 0.0
C383 C 0.1078 0.16035 0.29904 0.0
C384 C 0.06978 0.14168 0.29422 0.0
C385 C 0.03544 0.15857 0.30204 0.0
C386 C 0.03958 0.19129 0.31632 0.0
H387 H 0.07567 0.1714 0.38815 0.0
H388 H 0.03745 0.17141 0.3638 0.0
H389 H 0.08892 0.15918 0.3601 0.0
H390 H 0.14203 0.20509 0.31882 0.0
H391 H 0.13476 0.14766 0.29336 0.0
H392 H 0.75211 0.07848 0.94112 0.0
H393 H 0.80344 0.08717 0.91484 0.0
H394 H 0.72121 0.03652 0.86005 0.0
H395 H 0.66933 0.02872 0.88603 0.0
H396 H 0.83862 0.02966 0.88966 0.0
H397 H 0.75761 0.1386 0.83249 0.0
H398 H 0.74312 0.1274 0.86035 0.0
H399 H 0.72794 0.09563 0.83636 0.0
C400 C 0.74477 0.06966 0.9234 0.0
C401 C 0.70657 0.05311 0.91562 0.0
C402 C 0.77419 0.07446 0.90846 0.0
C403 C 0.76585 0.0631 0.88544 0.0
C404 C 0.72795 0.04619 0.87766 0.0
H405 H 0.88769 0.03597 0.76706 0.0
H406 H 0.84063 0.04261 0.79569 0.0
C407 C 0.69853 0.04132 0.89259 0.0
C408 C 0.79724 0.06761 0.86969 0.0
H409 H 0.81509 0.10833 0.81909 0.0
C410 C 0.83378 0.04724 0.87437 0.0
C411 C 0.79077 0.09067 0.84982 0.0
C412 C 0.75291 0.11464 0.84451 0.0
C413 C 0.86335 0.04791 0.85914 0.0
C414 C 0.85639 0.07014 0.83895 0.0
C415 C 0.82032 0.09136 0.8346 0.0
C416 C 0.88472 0.06928 0.8213 0.0
C417 C 0.90096 0.02349 0.86429 0.0
C418 C 0.92489 0.08309 0.82601 0.0
C419 C 0.95205 0.0793 0.80963 0.0
C420 C 0.93934 0.06171 0.78829 0.0
C421 C 0.89859 0.04943 0.78337 0.0
C422 C 0.87158 0.05325 0.79969 0.0
H423 H 0.89789 0.00223 0.87813 0.0
H424 H 0.90762 0.00729 0.84877 0.0
H425 H 0.92735 0.04284 0.86985 0.0
H426 H 0.9354 0.09619 0.84247 0.0
H427 H 0.98317 0.08919 0.81392 0.0
H428 H 0.10125 0.63865 0.38958 0.0
H429 H 0.10238 0.68796 0.3597 0.0
H430 H 0.04316 0.76928 0.4008 0.0
H431 H 0.04248 0.72055 0.43084 0.0
H432 H 0.03306 0.73298 0.33603 0.0
H433 H 0.15179 0.82338 0.38677 0.0
H434 H 0.14296 0.77274 0.39295 0.0
H435 H 0.10958 0.80956 0.40164 0.0
C436 C 0.08862 0.66711 0.39225 0.0
C437 C 0.07199 0.67587 0.41258 0.0
C438 C 0.08902 0.69505 0.37513 0.0
C439 C 0.07315 0.73219 0.37821 0.0
C440 C 0.05581 0.74077 0.39825 0.0
H441 H 0.05274 0.95343 0.31544 0.0
H442 H 0.04779 0.8946 0.33765 0.0
C443 C 0.05522 0.71287 0.4153 0.0
C444 C 0.0757 0.76264 0.36087 0.0
H445 H 0.11767 0.85195 0.35339 0.0
C446 C 0.0518 0.75888 0.33963 0.0
C447 C 0.10046 0.79609 0.36571 0.0
C448 C 0.12797 0.80071 0.38792 0.0
C449 C 0.05064 0.7888 0.32341 0.0
C450 C 0.07439 0.82283 0.32861 0.0
C451 C 0.09929 0.82587 0.34956 0.0
C452 C 0.07254 0.85681 0.31328 0.0
C453 C 0.02295 0.78455 0.30127 0.0
C454 C 0.08733 0.85487 0.29193 0.0
C455 C 0.08989 0.88866 0.27897 0.0
C456 C 0.07795 0.92481 0.28731 0.0
C457 C 0.06186 0.92617 0.30835 0.0
C458 C 0.05916 0.89253 0.32116 0.0
H459 H 0.00135 0.75966 0.30162 0.0
H460 H 0.00536 0.81164 0.29756 0.0
H461 H 0.04155 0.77955 0.28706 0.0
H462 H 0.09839 0.82763 0.28573 0.0
H463 H 0.10264 0.88671 0.26289 0.0
loop_
_geom_bond_atom_site_label_1
_geom_bond_atom_site_label_2
_geom_bond_distance
_geom_bond_site_symmetry_2
_ccdc_geom_bond_type
H0 O26 0.856 . S
H1 O29 0.854 . S
H2 C37 0.930 . S
H3 C38 0.930 . S
H4 C40 0.930 1_565 S
H5 C41 0.930 1_565 S
H6 C43 0.931 . S
H7 C44 0.930 . S
H8 C46 0.930 . S
H9 C47 0.929 . S
H10 C49 0.930 . S
H11 C50 0.931 . S
H12 C52 0.930 . S
H13 C53 0.929 . S
H14 C55 0.931 . S
H15 C56 0.930 . S
H16 C58 0.930 . S
H17 C59 0.932 . S
H18 C61 0.930 . S
H19 C62 0.929 . S
H20 C64 0.931 1_565 S
H21 C65 0.930 1_565 S
H22 C67 0.929 . S
H23 C68 0.931 . S
H24 C70 0.930 . S
H25 C71 0.929 . S
O26 H0 0.856 . S
O26 C72 1.300 . S
O27 C72 1.209 1_565 S
O28 C73 1.199 . S
O29 H1 0.854 . S
O29 C73 1.297 1_565 S
C30 C31 1.404 . S
C30 C35 1.397 1_556 S
C30 C36 1.492 . S
C31 C30 1.404 . S
C31 C32 1.396 . S
C31 C42 1.492 . S
C32 C31 1.396 . S
C32 C33 1.397 1_556 S
C32 C48 1.509 . S
C33 C32 1.397 1_554 S
C33 C34 1.412 . S
C33 C54 1.485 . S
C34 C33 1.412 . S
C34 C35 1.388 . S
C34 C60 1.490 . S
C35 C30 1.397 1_554 S
C35 C34 1.388 . S
C35 C66 1.519 . S
C36 C30 1.492 . S
C36 C37 1.363 . S
C36 C41 1.390 . S
C37 H2 0.930 . S
C37 C36 1.363 . S
C37 C38 1.372 . S
C38 H3 0.930 . S
C38 C37 1.372 . S
C38 C39 1.383 . S
C39 C38 1.383 . S
C39 C40 1.395 . S
C40 H4 0.930 1_545 S
C40 C39 1.395 . S
C40 C41 1.362 . S
C41 H5 0.930 1_545 S
C41 C36 1.390 . S
C41 C40 1.362 . S
C42 C31 1.492 . S
C42 C43 1.377 . S
C42 C47 1.397 1_545 S
C43 H6 0.931 . S
C43 C42 1.377 . S
C43 C44 1.376 . S
C44 H7 0.930 . S
C44 C43 1.376 . S
C44 C45 1.376 . S
C45 C44 1.376 . S
C45 C46 1.378 1_545 S
C45 C72 1.486 . S
C46 H8 0.930 . S
C46 C45 1.378 1_565 S
C46 C47 1.376 . S
C47 H9 0.929 . S
C47 C42 1.397 1_565 S
C47 C46 1.376 . S
C48 C32 1.509 . S
C48 C49 1.391 . S
C48 C53 1.386 1_545 S
C49 H10 0.930 . S
C49 C48 1.391 . S
C49 C50 1.375 . S
C50 H11 0.931 . S
C50 C49 1.375 . S
C50 C51 1.375 . S
C51 C50 1.375 . S
C51 C52 1.361 1_545 S
C52 H12 0.930 . S
C52 C51 1.361 1_565 S
C52 C53 1.399 . S
C53 H13 0.929 . S
C53 C48 1.386 1_565 S
C53 C52 1.399 . S
C54 C33 1.485 . S
C54 C55 1.394 . S
C54 C59 1.360 1_545 S
C55 H14 0.931 . S
C55 C54 1.394 . S
C55 C56 1.372 . S
C56 H15 0.930 . S
C56 C55 1.372 . S
C56 C57 1.397 . S
C57 C56 1.397 . S
C57 C58 1.390 1_545 S
C57 C73 1.476 . S
C58 H16 0.930 . S
C58 C57 1.390 1_565 S
C58 C59 1.366 . S
C59 H17 0.932 . S
C59 C54 1.360 1_565 S
C59 C58 1.366 . S
C60 C34 1.490 . S
C60 C61 1.380 . S
C60 C65 1.386 . S
C61 H18 0.930 . S
C61 C60 1.380 . S
C61 C62 1.381 . S
C62 H19 0.929 . S
C62 C61 1.381 . S
C62 C63 1.371 . S
C63 C62 1.371 . S
C63 C64 1.380 . S
C64 H20 0.931 1_545 S
C64 C63 1.380 . S
C64 C65 1.387 . S
C65 H21 0.930 1_545 S
C65 C60 1.386 . S
C65 C64 1.387 . S
C66 C35 1.519 . S
C66 C67 1.377 . S
C66 C71 1.361 1_545 S
C67 H22 0.929 . S
C67 C66 1.377 . S
C67 C68 1.386 . S
C68 H23 0.931 . S
C68 C67 1.386 . S
C68 C69 1.363 . S
C69 C68 1.363 . S
C69 C70 1.385 1_545 S
C70 H24 0.930 . S
C70 C69 1.385 1_565 S
C70 C71 1.396 . S
C71 H25 0.929 . S
C71 C66 1.361 1_565 S
C71 C70 1.396 . S
C72 O26 1.300 . S
C72 O27 1.209 1_545 S
C72 C45 1.486 . S
C73 O28 1.199 . S
C73 O29 1.297 1_545 S
C73 C57 1.476 . S
H74 O100 0.856 . S
H75 O103 0.854 . S
H76 C111 0.930 . S
H77 C112 0.930 1_655 S
H78 C114 0.930 . S
H79 C115 0.930 . S
H80 C117 0.931 . S
H81 C118 0.930 . S
H82 C120 0.930 . S
H83 C121 0.929 . S
H84 C123 0.930 . S
H85 C124 0.931 . S
H86 C126 0.930 . S
H87 C127 0.929 . S
H88 C129 0.931 . S
H89 C130 0.930 . S
H90 C132 0.930 . S
H91 C133 0.932 . S
H92 C135 0.946 . S
H93 C136 0.929 1_655 S
H94 C138 0.931 . S
H95 C139 0.930 . S
H96 C141 0.929 . S
H97 C142 0.931 . S
H98 C144 0.930 . S
H99 C145 0.929 . S
O100 H74 0.856 . S
O100 C146 1.300 . S
O101 C146 1.209 . S
O102 C147 1.199 . S
O103 H75 0.854 . S
O103 C147 1.297 . S
C104 C105 1.404 . S
C104 C109 1.397 . S
C104 C110 1.492 . S
C105 C104 1.404 . S
C105 C106 1.396 . S
C105 C116 1.492 . S
C106 C105 1.396 . S
C106 C107 1.397 . S
C106 C122 1.509 . S
C107 C106 1.397 . S
C107 C108 1.412 . S
C107 C128 1.485 . S
C108 C107 1.412 . S
C108 C109 1.388 . S
C108 C134 1.490 . S
C109 C104 1.397 . S
C109 C108 1.388 . S
C109 C140 1.519 . S
C110 C104 1.492 . S
C110 C111 1.363 . S
C110 C115 1.390 . S
C111 H76 0.930 . S
C111 C110 1.363 . S
C111 C112 1.372 . S
C112 H77 0.930 1_455 S
C112 C111 1.372 . S
C112 C113 1.383 . S
C113 C112 1.383 . S
C113 C114 1.395 . S
C114 H78 0.930 . S
C114 C113 1.395 . S
C114 C115 1.362 . S
C115 H79 0.930 . S
C115 C110 1.390 . S
C115 C114 1.362 . S
C116 C105 1.492 . S
C116 C117 1.377 . S
C116 C121 1.397 . S
C117 H80 0.931 . S
C117 C116 1.377 . S
C117 C118 1.376 . S
C118 H81 0.930 . S
C118 C117 1.376 . S
C118 C119 1.376 . S
C119 C118 1.376 . S
C119 C120 1.378 . S
C119 C146 1.486 . S
C120 H82 0.930 . S
C120 C119 1.378 . S
C120 C121 1.376 . S
C121 H83 0.929 . S
C121 C116 1.397 . S
C121 C120 1.376 . S
C122 C106 1.509 . S
C122 C123 1.391 . S
C122 C127 1.386 . S
C123 H84 0.930 . S
C123 C122 1.391 . S
C123 C124 1.375 . S
C124 H85 0.931 . S
C124 C123 1.375 . S
C124 C125 1.375 . S
C125 C124 1.375 . S
C125 C126 1.361 . S
C126 H86 0.930 . S
C126 C125 1.361 . S
C126 C127 1.399 . S
C127 H87 0.929 . S
C127 C122 1.386 . S
C127 C126 1.399 . S
C128 C107 1.485 . S
C128 C129 1.394 . S
C128 C133 1.360 . S
C129 H88 0.931 . S
C129 C128 1.394 . S
C129 C130 1.372 . S
C130 H89 0.930 . S
C130 C129 1.372 . S
C130 C131 1.397 . S
C131 C130 1.397 . S
C131 C132 1.390 . S
C131 C147 1.476 . S
C132 H90 0.930 . S
C132 C131 1.390 . S
C132 C133 1.366 . S
C133 H91 0.932 . S
C133 C128 1.360 . S
C133 C132 1.366 . S
C134 C108 1.490 . S
C134 C135 1.380 . S
C134 C139 1.386 . S
C135 H92 0.946 . S
C135 C134 1.380 . S
C135 C136 1.381 . S
C136 H93 0.929 1_455 S
C136 C135 1.381 . S
C136 C137 1.371 . S
C137 C136 1.371 . S
C137 C138 1.380 . S
C138 H94 0.931 . S
C138 C137 1.380 . S
C138 C139 1.387 . S
C139 H95 0.930 . S
C139 C134 1.386 . S
C139 C138 1.387 . S
C140 C109 1.519 . S
C140 C141 1.377 . S
C140 C145 1.361 . S
C141 H96 0.929 . S
C141 C140 1.377 . S
C141 C142 1.386 . S
C142 H97 0.931 . S
C142 C141 1.386 . S
C142 C143 1.363 . S
C143 C142 1.363 . S
C143 C144 1.385 . S
C144 H98 0.930 . S
C144 C143 1.385 . S
C144 C145 1.396 . S
C145 H99 0.929 . S
C145 C140 1.361 . S
C145 C144 1.396 . S
C146 O100 1.300 . S
C146 O101 1.209 . S
C146 C119 1.486 . S
C147 O102 1.199 . S
C147 O103 1.297 . S
C147 C131 1.476 . S
Mg148 O149 2.028 . S
Mg148 O155 1.986 . S
Mg148 O157 2.114 1_545 S
Mg148 O158 2.251 . S
Mg148 O161 2.010 . S
O149 Mg148 2.028 . S
O149 C152 1.250 . S
O150 Mg151 2.028 1_655 S
O150 C152 1.248 1_655 S
Mg151 O150 2.028 1_455 S
Mg151 O156 2.032 . S
Mg151 O158 2.079 . S
C152 O149 1.250 . S
C152 O150 1.248 1_455 S
C153 O154 1.264 . S
C153 O161 1.249 . S
O154 C153 1.264 . S
O155 Mg148 1.986 . S
O155 C159 1.246 . S
O156 Mg151 2.032 . S
O156 C159 1.259 . S
O157 Mg148 2.114 1_565 S
O157 C160 1.252 . S
O158 Mg148 2.251 . S
O158 Mg151 2.079 . S
O158 C160 1.273 1_545 S
C159 O155 1.246 . S
C159 O156 1.259 . S
C160 O157 1.252 . S
C160 O158 1.273 1_565 S
O161 Mg148 2.010 . S
O161 C153 1.249 . S
Mg162 O163 2.028 . S
Mg162 O169 1.986 . S
Mg162 O171 2.114 1_545 S
Mg162 O172 2.251 1_545 S
Mg162 O175 2.010 1_455 S
O163 Mg162 2.028 . S
O163 C166 1.250 . S
O164 Mg165 2.028 . S
O164 C166 1.248 . S
Mg165 O164 2.028 . S
Mg165 O170 2.032 . S
Mg165 O172 2.079 1_545 S
C166 O163 1.250 . S
C166 O164 1.248 . S
C167 O168 1.264 . S
C167 O175 1.249 . S
O168 C167 1.264 . S
O169 Mg162 1.986 . S
O169 C173 1.246 . S
O170 Mg165 2.032 . S
O170 C173 1.259 . S
O171 Mg162 2.114 1_565 S
O171 C174 1.252 . S
O172 Mg162 2.251 1_565 S
O172 Mg165 2.079 1_565 S
O172 C174 1.273 . S
C173 O169 1.246 . S
C173 O170 1.259 . S
C174 O171 1.252 . S
C174 O172 1.273 . S
O175 Mg162 2.010 1_655 S
O175 C167 1.249 . S
H176 C184 0.929 . S
H177 C186 0.930 . S
H178 C188 0.930 . S
H179 C191 0.929 . S
H180 C194 0.930 . S
H181 C196 0.960 . S
H182 C196 0.960 . S
H183 C196 0.960 . S
C184 H176 0.929 . S
C184 C185 1.377 . S
C184 C186 1.384 . S
C185 C184 1.377 . S
C185 C191 1.390 1_545 S
C186 H177 0.930 . S
C186 C184 1.384 . S
C186 C187 1.372 . S
C187 C186 1.372 . S
C187 C188 1.400 1_545 S
C187 C192 1.490 . S
C188 H178 0.930 . S
C188 C187 1.400 1_565 S
C188 C191 1.386 . S
H189 C205 0.930 1_565 S
H190 C206 0.931 1_565 S
C191 H179 0.929 . S
C191 C185 1.390 1_565 S
C191 C188 1.386 . S
C192 C187 1.490 . S
C192 C194 1.395 . S
C192 C195 1.403 . S
H193 C199 0.930 . S
C194 H180 0.930 . S
C194 C192 1.395 . S
C194 C197 1.403 . S
C195 C192 1.403 . S
C195 C196 1.524 . S
C195 C199 1.400 . S
C196 H181 0.960 . S
C196 H182 0.960 . S
C196 H183 0.960 . S
C196 C195 1.524 . S
C197 C194 1.403 . S
C197 C198 1.392 . S
C197 C201 1.495 . S
C198 C197 1.392 . S
C198 C199 1.385 . S
C198 C200 1.478 . S
C199 H193 0.930 . S
C199 C195 1.400 . S
C199 C198 1.385 . S
C200 C198 1.478 . S
C200 C202 1.381 . S
C200 C206 1.383 . S
C201 C197 1.495 . S
C201 H207 0.959 . S
C201 H208 0.961 . S
C201 H209 0.960 . S
C202 C200 1.381 . S
C202 C203 1.394 . S
C202 H210 0.930 . S
C203 C202 1.394 . S
C203 C204 1.383 . S
C203 H211 0.929 . S
C204 C203 1.383 . S
C204 C205 1.377 . S
C205 H189 0.930 1_545 S
C205 C204 1.377 . S
C205 C206 1.379 . S
C206 H190 0.931 1_545 S
C206 C200 1.383 . S
C206 C205 1.379 . S
H207 C201 0.959 . S
H208 C201 0.961 . S
H209 C201 0.960 . S
H210 C202 0.930 . S
H211 C203 0.929 . S
H212 C220 0.929 . S
H213 C222 0.930 . S
H214 C224 0.930 . S
H215 C227 0.929 . S
H216 C230 0.930 . S
H217 C232 0.960 . S
H218 C232 0.960 . S
H219 C232 0.960 . S
C220 H212 0.929 . S
C220 C221 1.377 . S
C220 C222 1.384 . S
C221 C220 1.377 . S
C221 C227 1.390 . S
C222 H213 0.930 . S
C222 C220 1.384 . S
C222 C223 1.372 . S
C223 C222 1.372 . S
C223 C224 1.400 . S
C223 C228 1.490 . S
C224 H214 0.930 . S
C224 C223 1.400 . S
C224 C227 1.386 . S
H225 C241 0.930 1_655 S
H226 C242 0.931 1_655 S
C227 H215 0.929 . S
C227 C221 1.390 . S
C227 C224 1.386 . S
C228 C223 1.490 . S
C228 C230 1.395 . S
C228 C231 1.403 . S
H229 C235 0.930 . S
C230 H216 0.930 . S
C230 C228 1.395 . S
C230 C233 1.403 . S
C231 C228 1.403 . S
C231 C232 1.524 . S
C231 C235 1.400 . S
C232 H217 0.960 . S
C232 H218 0.960 . S
C232 H219 0.960 . S
C232 C231 1.524 . S
C233 C230 1.403 . S
C233 C234 1.392 . S
C233 C237 1.495 . S
C234 C233 1.392 . S
C234 C235 1.385 . S
C234 C236 1.478 . S
C235 H229 0.930 . S
C235 C231 1.400 . S
C235 C234 1.385 . S
C236 C234 1.478 . S
C236 C238 1.381 . S
C236 C242 1.383 . S
C237 C233 1.495 . S
C237 H243 0.959 . S
C237 H244 0.961 . S
C237 H245 0.960 . S
C238 C236 1.381 . S
C238 C239 1.394 . S
C238 H246 0.930 . S
C239 C238 1.394 . S
C239 C240 1.383 . S
C239 H247 0.929 . S
C240 C239 1.383 . S
C240 C241 1.377 . S
C241 H225 0.930 1_455 S
C241 C240 1.377 . S
C241 C242 1.379 . S
C242 H226 0.931 1_455 S
C242 C236 1.383 . S
C242 C241 1.379 . S
H243 C237 0.959 . S
H244 C237 0.961 . S
H245 C237 0.960 . S
H246 C238 0.930 . S
H247 C239 0.929 . S
H248 C256 0.929 . S
H249 C258 0.930 . S
H250 C260 0.930 . S
H251 C263 0.929 . S
H252 C266 0.930 . S
H253 C268 0.960 . S
H254 C268 0.960 . S
H255 C268 0.960 . S
C256 H248 0.929 . S
C256 C257 1.377 . S
C256 C258 1.384 . S
C257 C256 1.377 . S
C257 C263 1.390 . S
C258 H249 0.930 . S
C258 C256 1.384 . S
C258 C259 1.372 . S
C259 C258 1.372 . S
C259 C260 1.400 . S
C259 C264 1.490 . S
C260 H250 0.930 . S
C260 C259 1.400 . S
C260 C263 1.386 . S
H261 C277 0.930 1_565 S
H262 C278 0.931 1_565 S
C263 H251 0.929 . S
C263 C257 1.390 . S
C263 C260 1.386 . S
C264 C259 1.490 . S
C264 C266 1.395 . S
C264 C267 1.403 . S
H265 C271 0.930 . S
C266 H252 0.930 . S
C266 C264 1.395 . S
C266 C269 1.403 . S
C267 C264 1.403 . S
C267 C268 1.524 . S
C267 C271 1.400 . S
C268 H253 0.960 . S
C268 H254 0.960 . S
C268 H255 0.960 . S
C268 C267 1.524 . S
C269 C266 1.403 . S
C269 C270 1.392 . S
C269 C273 1.495 . S
C270 C269 1.392 . S
C270 C271 1.385 . S
C270 C272 1.478 . S
C271 H265 0.930 . S
C271 C267 1.400 . S
C271 C270 1.385 . S
C272 C270 1.478 . S
C272 C274 1.381 . S
C272 C278 1.383 . S
C273 C269 1.495 . S
C273 H279 0.959 . S
C273 H280 0.961 . S
C273 H281 0.960 . S
C274 C272 1.381 . S
C274 C275 1.394 . S
C274 H282 0.930 . S
C275 C274 1.394 . S
C275 C276 1.383 . S
C275 H283 0.929 . S
C276 C275 1.383 . S
C276 C277 1.377 . S
C277 H261 0.930 1_545 S
C277 C276 1.377 . S
C277 C278 1.379 . S
C278 H262 0.931 1_545 S
C278 C272 1.383 . S
C278 C277 1.379 . S
H279 C273 0.959 . S
H280 C273 0.961 . S
H281 C273 0.960 . S
H282 C274 0.930 . S
H283 C275 0.929 . S
H284 C292 0.929 . S
H285 C294 0.930 . S
H286 C296 0.930 . S
H287 C299 0.929 . S
H288 C302 0.930 . S
H289 C304 0.960 . S
H290 C304 0.960 . S
H291 C304 0.960 . S
C292 H284 0.929 . S
C292 C293 1.377 . S
C292 C294 1.384 . S
C293 C292 1.377 . S
C293 C299 1.390 . S
C294 H285 0.930 . S
C294 C292 1.384 . S
C294 C295 1.372 . S
C295 C294 1.372 . S
C295 C296 1.400 . S
C295 C300 1.490 . S
C296 H286 0.930 . S
C296 C295 1.400 . S
C296 C299 1.386 . S
H297 C313 0.930 . S
H298 C314 0.931 . S
C299 H287 0.929 . S
C299 C293 1.390 . S
C299 C296 1.386 . S
C300 C295 1.490 . S
C300 C302 1.395 1_455 S
C300 C303 1.403 . S
H301 C307 0.930 . S
C302 H288 0.930 . S
C302 C300 1.395 1_655 S
C302 C305 1.403 . S
C303 C300 1.403 . S
C303 C304 1.524 . S
C303 C307 1.400 . S
C304 H289 0.960 . S
C304 H290 0.960 . S
C304 H291 0.960 . S
C304 C303 1.524 . S
C305 C302 1.403 . S
C305 C306 1.392 1_655 S
C305 C309 1.495 . S
C306 C305 1.392 1_455 S
C306 C307 1.385 . S
C306 C308 1.478 . S
C307 H301 0.930 . S
C307 C303 1.400 . S
C307 C306 1.385 . S
C308 C306 1.478 . S
C308 C310 1.381 . S
C308 C314 1.383 . S
C309 C305 1.495 . S
C309 H315 0.959 . S
C309 H316 0.961 . S
C309 H317 0.960 . S
C310 C308 1.381 . S
C310 C311 1.394 . S
C310 H318 0.930 . S
C311 C310 1.394 . S
C311 C312 1.383 . S
C311 H319 0.929 . S
C312 C311 1.383 . S
C312 C313 1.377 . S
C313 H297 0.930 . S
C313 C312 1.377 . S
C313 C314 1.379 . S
C314 H298 0.931 . S
C314 C308 1.383 . S
C314 C313 1.379 . S
H315 C309 0.959 . S
H316 C309 0.961 . S
H317 C309 0.960 . S
H318 C310 0.930 . S
H319 C311 0.929 . S
H320 C328 0.929 . S
H321 C330 0.930 . S
H322 C332 0.930 . S
H323 C335 0.929 . S
H324 C338 0.930 . S
H325 C340 0.960 . S
H326 C340 0.960 . S
H327 C340 0.960 . S
C328 H320 0.929 . S
C328 C329 1.377 . S
C328 C330 1.384 . S
C329 C328 1.377 . S
C329 C335 1.390 . S
C330 H321 0.930 . S
C330 C328 1.384 . S
C330 C331 1.372 . S
C331 C330 1.372 . S
C331 C332 1.400 . S
C331 C336 1.490 . S
C332 H322 0.930 . S
C332 C331 1.400 . S
C332 C335 1.386 . S
H333 C349 0.930 . S
H334 C350 0.931 . S
C335 H323 0.929 . S
C335 C329 1.390 . S
C335 C332 1.386 . S
C336 C331 1.490 . S
C336 C338 1.395 . S
C336 C339 1.403 . S
H337 C343 0.930 1_565 S
C338 H324 0.930 . S
C338 C336 1.395 . S
C338 C341 1.403 . S
C339 C336 1.403 . S
C339 C340 1.524 1_545 S
C339 C343 1.400 . S
C340 H325 0.960 . S
C340 H326 0.960 . S
C340 H327 0.960 . S
C340 C339 1.524 1_565 S
C341 C338 1.403 . S
C341 C342 1.392 . S
C341 C345 1.495 . S
C342 C341 1.392 . S
C342 C343 1.385 . S
C342 C344 1.478 . S
C343 H337 0.930 1_545 S
C343 C339 1.400 . S
C343 C342 1.385 . S
C344 C342 1.478 . S
C344 C346 1.381 . S
C344 C350 1.383 . S
C345 C341 1.495 . S
C345 H351 0.959 . S
C345 H352 0.961 . S
C345 H353 0.960 . S
C346 C344 1.381 . S
C346 C347 1.394 . S
C346 H354 0.930 . S
C347 C346 1.394 . S
C347 C348 1.383 . S
C347 H355 0.929 . S
C348 C347 1.383 . S
C348 C349 1.377 . S
C349 H333 0.930 . S
C349 C348 1.377 . S
C349 C350 1.379 . S
C350 H334 0.931 . S
C350 C344 1.383 . S
C350 C349 1.379 . S
H351 C345 0.959 . S
H352 C345 0.961 . S
H353 C345 0.960 . S
H354 C346 0.930 . S
H355 C347 0.929 . S
H356 C364 0.929 . S
H357 C366 0.930 . S
H358 C368 0.930 . S
H359 C371 0.929 . S
H360 C374 0.930 . S
H361 C376 0.960 . S
H362 C376 0.960 . S
H363 C376 0.960 . S
C364 H356 0.929 . S
C364 C365 1.377 . S
C364 C366 1.384 . S
C365 C364 1.377 . S
C365 C371 1.390 . S
C366 H357 0.930 . S
C366 C364 1.384 . S
C366 C367 1.372 . S
C367 C366 1.372 . S
C367 C368 1.400 . S
C367 C372 1.490 . S
C368 H358 0.930 . S
C368 C367 1.400 . S
C368 C371 1.386 . S
H369 C385 0.930 . S
H370 C386 0.931 . S
C371 H359 0.929 . S
C371 C365 1.390 . S
C371 C368 1.386 . S
C372 C367 1.490 . S
C372 C374 1.395 . S
C372 C375 1.403 . S
H373 C379 0.930 . S
C374 H360 0.930 . S
C374 C372 1.395 . S
C374 C377 1.403 . S
C375 C372 1.403 . S
C375 C376 1.524 . S
C375 C379 1.400 . S
C376 H361 0.960 . S
C376 H362 0.960 . S
C376 H363 0.960 . S
C376 C375 1.524 . S
C377 C374 1.403 . S
C377 C378 1.392 . S
C377 C381 1.510 . S
C378 C377 1.392 . S
C378 C379 1.385 . S
C378 C380 1.478 . S
C379 H373 0.930 . S
C379 C375 1.400 . S
C379 C378 1.385 . S
C380 C378 1.478 . S
C380 C382 1.381 . S
C380 C386 1.383 . S
C381 C377 1.510 . S
C381 H387 0.945 1_455 S
C381 H388 0.952 1_455 S
C381 H389 0.969 . S
C382 C380 1.381 . S
C382 C383 1.394 . S
C382 H390 0.930 . S
C383 C382 1.394 . S
C383 C384 1.383 . S
C383 H391 0.929 . S
C384 C383 1.383 . S
C384 C385 1.377 . S
C385 H369 0.930 . S
C385 C384 1.377 . S
C385 C386 1.379 . S
C386 H370 0.931 . S
C386 C380 1.383 . S
C386 C385 1.379 . S
H387 C381 0.945 1_655 S
H388 C381 0.952 1_655 S
H389 C381 0.969 . S
H390 C382 0.930 . S
H391 C383 0.929 . S
H392 C400 0.929 . S
H393 C402 0.930 . S
H394 C404 0.930 . S
H395 C407 0.929 . S
H396 C410 0.930 . S
H397 C412 0.960 . S
H398 C412 0.960 . S
H399 C412 0.960 1_565 S
C400 H392 0.929 . S
C400 C401 1.377 . S
C400 C402 1.384 . S
C401 C400 1.377 . S
C401 C407 1.390 1_545 S
C402 H393 0.930 . S
C402 C400 1.384 . S
C402 C403 1.372 . S
C403 C402 1.372 . S
C403 C404 1.400 1_545 S
C403 C408 1.490 . S
C404 H394 0.930 . S
C404 C403 1.400 1_565 S
C404 C407 1.386 . S
H405 C421 0.930 . S
H406 C422 0.931 . S
C407 H395 0.929 . S
C407 C401 1.390 1_565 S
C407 C404 1.386 . S
C408 C403 1.490 . S
C408 C410 1.395 . S
C408 C411 1.403 . S
H409 C415 0.930 . S
C410 H396 0.930 . S
C410 C408 1.395 . S
C410 C413 1.403 . S
C411 C408 1.403 . S
C411 C412 1.524 . S
C411 C415 1.400 . S
C412 H397 0.960 . S
C412 H398 0.960 . S
C412 H399 0.960 1_545 S
C412 C411 1.524 . S
C413 C410 1.403 . S
C413 C414 1.392 . S
C413 C417 1.495 . S
C414 C413 1.392 . S
C414 C415 1.385 . S
C414 C416 1.478 . S
C415 H409 0.930 . S
C415 C411 1.400 . S
C415 C414 1.385 . S
C416 C414 1.478 . S
C416 C418 1.381 . S
C416 C422 1.383 1_545 S
C417 C413 1.495 . S
C417 H423 0.959 . S
C417 H424 0.961 . S
C417 H425 0.960 . S
C418 C416 1.381 . S
C418 C419 1.394 . S
C418 H426 0.930 . S
C419 C418 1.394 . S
C419 C420 1.383 . S
C419 H427 0.929 . S
C420 C419 1.383 . S
C420 C421 1.377 1_545 S
C421 H405 0.930 . S
C421 C420 1.377 1_565 S
C421 C422 1.379 . S
C422 H406 0.931 . S
C422 C416 1.383 1_565 S
C422 C421 1.379 . S
H423 C417 0.959 . S
H424 C417 0.961 . S
H425 C417 0.960 . S
H426 C418 0.930 . S
H427 C419 0.929 . S
H428 C436 0.929 . S
H429 C438 0.930 . S
H430 C440 0.930 . S
H431 C443 0.929 . S
H432 C446 0.930 . S
H433 C448 0.960 . S
H434 C448 0.960 . S
H435 C448 0.960 . S
C436 H428 0.929 . S
C436 C437 1.377 . S
C436 C438 1.384 . S
C437 C436 1.377 . S
C437 C443 1.390 . S
C438 H429 0.930 . S
C438 C436 1.384 . S
C438 C439 1.372 . S
C439 C438 1.372 . S
C439 C440 1.400 . S
C439 C444 1.490 . S
C440 H430 0.930 . S
C440 C439 1.400 . S
C440 C443 1.386 . S
H441 C457 0.930 . S
H442 C458 0.931 . S
C443 H431 0.929 . S
C443 C437 1.390 . S
C443 C440 1.386 . S
C444 C439 1.490 . S
C444 C446 1.395 . S
C444 C447 1.403 . S
H445 C451 0.930 . S
C446 H432 0.930 . S
C446 C444 1.395 . S
C446 C449 1.403 . S
C447 C444 1.403 . S
C447 C448 1.524 . S
C447 C451 1.400 . S
C448 H433 0.960 . S
C448 H434 0.960 . S
C448 H435 0.960 . S
C448 C447 1.524 . S
C449 C446 1.403 . S
C449 C450 1.392 . S
C449 C453 1.495 . S
C450 C449 1.392 . S
C450 C451 1.385 . S
C450 C452 1.478 . S
C451 H445 0.930 . S
C451 C447 1.400 . S
C451 C450 1.385 . S
C452 C450 1.478 . S
C452 C454 1.381 . S
C452 C458 1.383 . S
C453 C449 1.495 . S
C453 H459 0.959 . S
C453 H460 0.961 . S
C453 H461 0.960 . S
C454 C452 1.381 . S
C454 C455 1.394 . S
C454 H462 0.930 . S
C455 C454 1.394 . S
C455 C456 1.383 . S
C455 H463 0.929 . S
C456 C455 1.383 . S
C456 C457 1.377 . S
C457 H441 0.930 . S
C457 C456 1.377 . S
C457 C458 1.379 . S
C458 H442 0.931 . S
C458 C452 1.383 . S
C458 C457 1.379 . S
H459 C453 0.959 . S
H460 C453 0.961 . S
H461 C453 0.960 . S
H462 C454 0.930 . S
H463 C455 0.929 . S
C204 C153 1.969 . S
C185 C69 2.206 . S
C240 C173 2.206 . S
C221 C143 2.245 . S
C276 C152 1.410 1_655 S
C257 C63 1.397 . S
C312 C174 1.474 . S
C293 C137 1.385 . S
C348 C166 1.385 . S
C329 C39 1.336 . S
C384 C159 1.261 . S
C365 C113 1.284 . S
C420 C167 0.808 . S
C401 C51 0.674 . S
C437 C125 0.699 . S
C456 C160 0.707 . S
