# Generated by pormake.
# Topology ptr, (4,4)-cn, num edge types: 1
# Building blocks:
#     Node 0, Type 0, BuildingBlock: CEKHIL_clean_sbu_0, # of connection points: 4
#     Node 1, Type 0, BuildingBlock: CEKHIL_clean_sbu_0, # of connection points: 4
#     Node 2, Type 0, BuildingBlock: CEKHIL_clean_sbu_0, # of connection points: 4
#     Node 3, Type 0, BuildingBlock: CEKHIL_clean_sbu_0, # of connection points: 4
#     Node 4, Type 0, BuildingBlock: CEKHIL_clean_sbu_0, # of connection points: 4
#     Node 5, Type 0, BuildingBlock: CEKHIL_clean_sbu_0, # of connection points: 4
#     Node 6, Type 0, BuildingBlock: CEKHIL_clean_sbu_0, # of connection points: 4
#     Node 7, Type 0, BuildingBlock: CEKHIL_clean_sbu_0, # of connection points: 4
#     Node 8, Type 0, BuildingBlock: CEKHIL_clean_sbu_0, # of connection points: 4
#     Node 9, Type 0, BuildingBlock: CEKHIL_clean_sbu_0, # of connection points: 4
#     Node 10, Type 0, BuildingBlock: CEKHIL_clean_sbu_0, # of connection points: 4
#     Node 11, Type 0, BuildingBlock: CEKHIL_clean_sbu_0, # of connection points: 4
#     Node 12, Type 0, BuildingBlock: CEKHIL_clean_sbu_0, # of connection points: 4
#     Node 13, Type 0, BuildingBlock: CEKHIL_clean_sbu_0, # of connection points: 4
#     Node 14, Type 0, BuildingBlock: CEKHIL_clean_sbu_0, # of connection points: 4
#     Node 15, Type 0, BuildingBlock: CEKHIL_clean_sbu_0, # of connection points: 4
#     Node 16, Type 0, BuildingBlock: CEKHIL_clean_sbu_0, # of connection points: 4
#     Node 17, Type 0, BuildingBlock: CEKHIL_clean_sbu_0, # of connection points: 4
#     Node 18, Type 1, BuildingBlock: KUFVIS_clean_linker_0, # of connection points: 4
#     Node 19, Type 1, BuildingBlock: KUFVIS_clean_linker_0, # of connection points: 4
#     Node 20, Type 1, BuildingBlock: KUFVIS_clean_linker_0, # of connection points: 4
#     Node 21, Type 1, BuildingBlock: KUFVIS_clean_linker_0, # of connection points: 4
#     Node 22, Type 1, BuildingBlock: KUFVIS_clean_linker_0, # of connection points: 4
#     Node 23, Type 1, BuildingBlock: KUFVIS_clean_linker_0, # of connection points: 4
#     Node 24, Type 1, BuildingBlock: KUFVIS_clean_linker_0, # of connection points: 4
#     Node 25, Type 1, BuildingBlock: KUFVIS_clean_linker_0, # of connection points: 4
#     Node 26, Type 1, BuildingBlock: KUFVIS_clean_linker_0, # of connection points: 4
#     Node 27, Type 1, BuildingBlock: KUFVIS_clean_linker_0, # of connection points: 4
#     Node 28, Type 1, BuildingBlock: KUFVIS_clean_linker_0, # of connection points: 4
#     Node 29, Type 1, BuildingBlock: KUFVIS_clean_linker_0, # of connection points: 4
#     Node 30, Type 1, BuildingBlock: KUFVIS_clean_linker_0, # of connection points: 4
#     Node 31, Type 1, BuildingBlock: KUFVIS_clean_linker_0, # of connection points: 4
#     Node 32, Type 1, BuildingBlock: KUFVIS_clean_linker_0, # of connection points: 4
#     Node 33, Type 1, BuildingBlock: KUFVIS_clean_linker_0, # of connection points: 4
#     Node 34, Type 1, BuildingBlock: KUFVIS_clean_linker_0, # of connection points: 4
#     Node 35, Type 1, BuildingBlock: KUFVIS_clean_linker_0, # of connection points: 4
#     Edge 36, Type (0, 1), BuildingBlock: XIVTED_clean_linker_0, # of connection points: 2
#     Edge 37, Type (0, 1), BuildingBlock: XIVTED_clean_linker_0, # of connection points: 2
#     Edge 38, Type (0, 1), BuildingBlock: XIVTED_clean_linker_0, # of connection points: 2
#     Edge 39, Type (0, 1), BuildingBlock: XIVTED_clean_linker_0, # of connection points: 2
#     Edge 40, Type (0, 1), BuildingBlock: XIVTED_clean_linker_0, # of connection points: 2
#     Edge 41, Type (0, 1), BuildingBlock: XIVTED_clean_linker_0, # of connection points: 2
#     Edge 42, Type (0, 1), BuildingBlock: XIVTED_clean_linker_0, # of connection points: 2
#     Edge 43, Type (0, 1), BuildingBlock: XIVTED_clean_linker_0, # of connection points: 2
#     Edge 44, Type (0, 1), BuildingBlock: XIVTED_clean_linker_0, # of connection points: 2
#     Edge 45, Type (0, 1), BuildingBlock: XIVTED_clean_linker_0, # of connection points: 2
#     Edge 46, Type (0, 1), BuildingBlock: XIVTED_clean_linker_0, # of connection points: 2
#     Edge 47, Type (0, 1), BuildingBlock: XIVTED_clean_linker_0, # of connection points: 2
#     Edge 48, Type (0, 1), BuildingBlock: XIVTED_clean_linker_0, # of connection points: 2
#     Edge 49, Type (0, 1), BuildingBlock: XIVTED_clean_linker_0, # of connection points: 2
#     Edge 50, Type (0, 1), BuildingBlock: XIVTED_clean_linker_0, # of connection points: 2
#     Edge 51, Type (0, 1), BuildingBlock: XIVTED_clean_linker_0, # of connection points: 2
#     Edge 52, Type (0, 1), BuildingBlock: XIVTED_clean_linker_0, # of connection points: 2
#     Edge 53, Type (0, 1), BuildingBlock: XIVTED_clean_linker_0, # of connection points: 2
#     Edge 54, Type (0, 1), BuildingBlock: XIVTED_clean_linker_0, # of connection points: 2
#     Edge 55, Type (0, 1), BuildingBlock: XIVTED_clean_linker_0, # of connection points: 2
#     Edge 56, Type (0, 1), BuildingBlock: XIVTED_clean_linker_0, # of connection points: 2
#     Edge 57, Type (0, 1), BuildingBlock: XIVTED_clean_linker_0, # of connection points: 2
#     Edge 58, Type (0, 1), BuildingBlock: XIVTED_clean_linker_0, # of connection points: 2
#     Edge 59, Type (0, 1), BuildingBlock: XIVTED_clean_linker_0, # of connection points: 2
#     Edge 60, Type (0, 1), BuildingBlock: XIVTED_clean_linker_0, # of connection points: 2
#     Edge 61, Type (0, 1), BuildingBlock: XIVTED_clean_linker_0, # of connection points: 2
#     Edge 62, Type (0, 1), BuildingBlock: XIVTED_clean_linker_0, # of connection points: 2
#     Edge 63, Type (0, 1), BuildingBlock: XIVTED_clean_linker_0, # of connection points: 2
#     Edge 64, Type (0, 1), BuildingBlock: XIVTED_clean_linker_0, # of connection points: 2
#     Edge 65, Type (0, 1), BuildingBlock: XIVTED_clean_linker_0, # of connection points: 2
#     Edge 66, Type (0, 1), BuildingBlock: XIVTED_clean_linker_0, # of connection points: 2
#     Edge 67, Type (0, 1), BuildingBlock: XIVTED_clean_linker_0, # of connection points: 2
#     Edge 68, Type (0, 1), BuildingBlock: XIVTED_clean_linker_0, # of connection points: 2
#     Edge 69, Type (0, 1), BuildingBlock: XIVTED_clean_linker_0, # of connection points: 2
#     Edge 70, Type (0, 1), BuildingBlock: XIVTED_clean_linker_0, # of connection points: 2
#     Edge 71, Type (0, 1), BuildingBlock: XIVTED_clean_linker_0, # of connection points: 2
#     Edge 72, Type (0, 1), BuildingBlock: XIVTED_clean_linker_0, # of connection points: 2
#     Edge 73, Type (0, 1), BuildingBlock: XIVTED_clean_linker_0, # of connection points: 2
#     Edge 74, Type (0, 1), BuildingBlock: XIVTED_clean_linker_0, # of connection points: 2
#     Edge 75, Type (0, 1), BuildingBlock: XIVTED_clean_linker_0, # of connection points: 2
#     Edge 76, Type (0, 1), BuildingBlock: XIVTED_clean_linker_0, # of connection points: 2
#     Edge 77, Type (0, 1), BuildingBlock: XIVTED_clean_linker_0, # of connection points: 2
#     Edge 78, Type (0, 1), BuildingBlock: XIVTED_clean_linker_0, # of connection points: 2
#     Edge 79, Type (0, 1), BuildingBlock: XIVTED_clean_linker_0, # of connection points: 2
#     Edge 80, Type (0, 1), BuildingBlock: XIVTED_clean_linker_0, # of connection points: 2
#     Edge 81, Type (0, 1), BuildingBlock: XIVTED_clean_linker_0, # of connection points: 2
#     Edge 82, Type (0, 1), BuildingBlock: XIVTED_clean_linker_0, # of connection points: 2
#     Edge 83, Type (0, 1), BuildingBlock: XIVTED_clean_linker_0, # of connection points: 2
#     Edge 84, Type (0, 1), BuildingBlock: XIVTED_clean_linker_0, # of connection points: 2
#     Edge 85, Type (0, 1), BuildingBlock: XIVTED_clean_linker_0, # of connection points: 2
#     Edge 86, Type (0, 1), BuildingBlock: XIVTED_clean_linker_0, # of connection points: 2
#     Edge 87, Type (0, 1), BuildingBlock: XIVTED_clean_linker_0, # of connection points: 2
#     Edge 88, Type (0, 1), BuildingBlock: XIVTED_clean_linker_0, # of connection points: 2
#     Edge 89, Type (0, 1), BuildingBlock: XIVTED_clean_linker_0, # of connection points: 2
#     Edge 90, Type (0, 1), BuildingBlock: XIVTED_clean_linker_0, # of connection points: 2
#     Edge 91, Type (0, 1), BuildingBlock: XIVTED_clean_linker_0, # of connection points: 2
#     Edge 92, Type (0, 1), BuildingBlock: XIVTED_clean_linker_0, # of connection points: 2
#     Edge 93, Type (0, 1), BuildingBlock: XIVTED_clean_linker_0, # of connection points: 2
#     Edge 94, Type (0, 1), BuildingBlock: XIVTED_clean_linker_0, # of connection points: 2
#     Edge 95, Type (0, 1), BuildingBlock: XIVTED_clean_linker_0, # of connection points: 2
#     Edge 96, Type (0, 1), BuildingBlock: XIVTED_clean_linker_0, # of connection points: 2
#     Edge 97, Type (0, 1), BuildingBlock: XIVTED_clean_linker_0, # of connection points: 2
#     Edge 98, Type (0, 1), BuildingBlock: XIVTED_clean_linker_0, # of connection points: 2
#     Edge 99, Type (0, 1), BuildingBlock: XIVTED_clean_linker_0, # of connection points: 2
#     Edge 100, Type (0, 1), BuildingBlock: XIVTED_clean_linker_0, # of connection points: 2
#     Edge 101, Type (0, 1), BuildingBlock: XIVTED_clean_linker_0, # of connection points: 2
#     Edge 102, Type (0, 1), BuildingBlock: XIVTED_clean_linker_0, # of connection points: 2
#     Edge 103, Type (0, 1), BuildingBlock: XIVTED_clean_linker_0, # of connection points: 2
#     Edge 104, Type (0, 1), BuildingBlock: XIVTED_clean_linker_0, # of connection points: 2
#     Edge 105, Type (0, 1), BuildingBlock: XIVTED_clean_linker_0, # of connection points: 2
#     Edge 106, Type (0, 1), BuildingBlock: XIVTED_clean_linker_0, # of connection points: 2
#     Edge 107, Type (0, 1), BuildingBlock: XIVTED_clean_linker_0, # of connection points: 2
# Relax obj value: 0.047
# Max RMSD: 0.105
# Mean RMSD: 0.081
data_MOF--net-ptr--node1-CEKHIL_clean_sbu_0--node2-KUFVIS_clean_linker_0--edge1-XIVTED_clean_linker_0
_symmetry_space_group_name_H-M    P1
_symmetry_Int_Tables_number       1
_symmetry_cell_setting            triclinic
loop_
_symmetry_equiv_pos_as_xyz
'x, y, z'
_cell_length_a     79.043955
_cell_length_b     78.214808
_cell_length_c     49.871875
_cell_angle_alpha  90.574084
_cell_angle_beta   89.742024
_cell_angle_gamma 120.96937
loop_
_atom_site_label
_atom_site_type_symbol
_atom_site_fract_x
_atom_site_fract_y
_atom_site_fract_z
_atom_type_partial_charge
Co0 Co 0.01605 0.36169 0.00654 0.0
O1 O 0.0291 0.35206 0.02914 0.0
O2 O 0.04429 0.37614 -0.00049 0.0
C3 C 0.99072 0.33112 0.9944 0.0
O4 O 1.00765 0.37522 0.97897 0.0
Co5 Co 0.97349 0.35247 0.01899 0.0
O6 O 0.97541 0.36459 0.98364 0.0
C7 C 1.0076 0.38508 0.04825 0.0
C8 C 0.04548 0.36494 0.01762 0.0
C9 C 0.99182 0.37479 0.97149 0.0
O10 O 0.01976 0.38226 0.03441 0.0
O11 O 0.98882 0.37409 0.04611 0.0
O12 O 1.00767 0.33884 0.98229 0.0
O13 O 0.99013 0.34127 0.01452 0.0
Co14 Co 0.65757 0.6552 0.00474 0.0
O15 O 0.68118 0.66679 0.98324 0.0
O16 O 0.67254 0.64239 0.01218 0.0
C17 C 0.66053 0.68438 0.0178 0.0
O18 O 0.63503 0.63994 0.03126 0.0
Co19 Co 0.62257 0.66134 0.99191 0.0
O20 O 0.61194 0.64835 0.02689 0.0
C21 C 0.62652 0.63033 0.9627 0.0
C22 C 0.68525 0.65451 0.99475 0.0
C23 C 0.61892 0.63896 0.03876 0.0
O24 O 0.64213 0.63461 0.97608 0.0
O25 O 0.61744 0.63988 0.9652 0.0
O26 O 0.67019 0.67749 0.03017 0.0
O27 O 0.65079 0.67444 -0.00314 0.0
Co28 Co 0.36068 0.00631 0.00578 0.0
O29 O 0.3506 0.01907 0.98314 0.0
O30 O 0.37492 0.03495 0.01225 0.0
C31 C 0.33067 0.98065 0.01872 0.0
O32 O 0.37486 0.99871 0.0333 0.0
Co33 Co 0.35157 0.96304 0.99461 0.0
O34 O 0.36553 0.96638 0.02887 0.0
C35 C 0.3827 0.99677 0.96346 0.0
C36 C 0.3635 0.03584 0.99435 0.0
C37 C 0.37546 0.98325 0.04063 0.0
O38 O 0.38056 0.0095 0.97746 0.0
O39 O 0.37161 0.97787 0.96606 0.0
O40 O 0.33834 0.99798 0.0305 0.0
O41 O 0.34051 0.97988 -0.00142 0.0
Co42 Co 1.00533 0.6525 0.00699 0.0
O43 O 0.99412 0.66341 0.98324 0.0
O44 O 0.9768 0.63844 0.01095 0.0
C45 C 0.03005 0.68269 0.0217 0.0
O46 O 0.01144 0.63746 0.03515 0.0
Co47 Co 0.04839 0.66168 -3e-05 0.0
O48 O 0.04338 0.64636 0.03335 0.0
C49 C 0.01638 0.63115 0.96545 0.0
C50 C 0.97703 0.65059 0.99312 0.0
C51 C 0.02621 0.63628 0.04359 0.0
O52 O 1.00322 0.63294 0.97843 0.0
O53 O 0.03493 0.64225 0.96981 0.0
O54 O 0.01256 0.67462 0.03228 0.0
O55 O 0.03171 0.67293 0.00192 0.0
Co56 Co 0.36042 0.35677 0.00671 0.0
O57 O 0.33826 0.34542 0.03089 0.0
O58 O 0.34561 0.37018 0.00314 0.0
C59 C 0.35503 0.32688 0.99188 0.0
O60 O 0.38138 0.37214 0.97812 0.0
Co61 Co 0.39507 0.34897 0.01187 0.0
O62 O 0.40482 0.36402 0.97808 0.0
C63 C 0.39353 0.37898 0.04711 0.0
C64 C 0.33368 0.35782 0.02103 0.0
C65 C 0.39733 0.37373 0.96863 0.0
O66 O 0.3781 0.37659 0.03494 0.0
O67 O 0.40134 0.36846 0.04201 0.0
O68 O 0.34536 0.33457 0.98165 0.0
O69 O 0.36677 0.33687 0.01136 0.0
Co70 Co 0.65718 0.00737 0.00877 0.0
O71 O 0.66751 0.99509 0.03161 0.0
O72 O 0.64341 0.97864 0.00238 0.0
C73 C 0.68718 0.03299 -0.00406 0.0
O74 O 0.64307 0.01507 0.9811 0.0
Co75 Co 0.666 0.05032 0.02095 0.0
O76 O 0.65338 0.04765 0.98577 0.0
C77 C 0.63408 0.0161 0.05046 0.0
C78 C 0.65505 0.9782 0.02039 0.0
C79 C 0.64321 0.03094 0.97371 0.0
O80 O 0.63701 1.00376 0.03683 0.0
O81 O 0.64482 0.03506 0.04813 0.0
O82 O 0.67945 0.01568 0.98416 0.0
O83 O 0.67737 0.03381 0.01616 0.0
Co84 Co 0.67948 0.69434 0.34004 0.0
O85 O 0.69072 0.68343 0.36373 0.0
O86 O 0.70804 0.70853 0.33623 0.0
C87 C 0.65489 0.66417 0.32506 0.0
O88 O 0.67335 0.70943 0.31198 0.0
Co89 Co 0.63639 0.68499 0.34713 0.0
O90 O 0.64138 0.70044 0.31387 0.0
C91 C 0.6683 0.71552 0.38173 0.0
C92 C 0.70782 0.69635 0.35399 0.0
C93 C 0.65854 0.71059 0.30363 0.0
O94 O 0.68147 0.71377 0.36872 0.0
O95 O 0.64975 0.7044 0.37734 0.0
O96 O 0.67242 0.67238 0.31458 0.0
O97 O 0.65311 0.67378 0.34494 0.0
Co98 Co 0.32544 0.98813 0.34217 0.0
O99 O 0.34771 0.99874 0.31811 0.0
O100 O 0.33962 0.97418 0.34656 0.0
C101 C 0.33116 0.01837 0.35605 0.0
O102 O 0.30432 0.97333 0.37072 0.0
Co103 Co 0.2912 0.99655 0.33607 0.0
O104 O 0.2808 0.98132 0.36963 0.0
C105 C 0.29216 0.96563 0.30213 0.0
C106 C 0.3517 0.98602 0.32839 0.0
C107 C 0.28822 0.9717 0.3796 0.0
O108 O 0.30761 0.96806 0.3143 0.0
O109 O 0.28458 0.97642 0.30673 0.0
O110 O 0.34068 0.01069 0.36678 0.0
O111 O 0.31945 0.00819 0.33667 0.0
Co112 Co 0.02924 0.34022 0.33874 0.0
O113 O 0.0186 0.35224 0.31588 0.0
O114 O 0.04329 0.36901 0.34417 0.0
C115 C 0.99935 0.31494 0.35267 0.0
O116 O 0.04389 0.33315 0.36628 0.0
Co117 Co 0.01986 0.29683 0.32861 0.0
O118 O 0.03427 0.3007 0.3626 0.0
C119 C 0.05067 0.32999 0.29632 0.0
C120 C 0.03138 0.36928 0.32648 0.0
C121 C 0.04446 0.31772 0.37389 0.0
O122 O 0.04869 0.34294 0.31003 0.0
O123 O 0.03962 0.31114 0.29952 0.0
O124 O 1.00739 0.33242 0.36408 0.0
O125 O 1.00887 0.31373 0.33242 0.0
Co126 Co 0.673 0.98765 0.3387 0.0
O127 O 0.66064 0.99772 0.31558 0.0
O128 O 0.64472 0.97389 0.34532 0.0
C129 C 0.69859 0.01801 0.35095 0.0
O130 O 0.68072 0.97381 0.36674 0.0
Co131 Co 0.71539 0.99602 0.32713 0.0
O132 O 0.71288 0.98391 0.36264 0.0
C133 C 0.68118 0.96365 0.29767 0.0
C134 C 0.64406 0.98529 0.32704 0.0
C135 C 0.69634 0.97394 0.37456 0.0
O136 O 0.66908 0.96682 0.3111 0.0
O137 O 0.69996 0.97439 0.30008 0.0
O138 O 0.68159 0.01062 0.36277 0.0
O139 O 0.69914 0.00767 0.33102 0.0
Co140 Co 0.02645 0.69043 0.34521 0.0
O141 O 1.0031 0.67921 0.36721 0.0
O142 O 0.01182 0.70368 0.33837 0.0
C143 C 0.02276 0.661 0.33182 0.0
O144 O 0.04874 0.70538 0.31826 0.0
Co145 Co 0.06109 0.68343 0.35671 0.0
O146 O 0.0715 0.69646 0.32169 0.0
C147 C 0.05818 0.71479 0.38671 0.0
C148 C 0.99917 0.69166 0.35592 0.0
C149 C 0.06461 0.70609 0.31024 0.0
O150 O 0.04252 0.7109 0.37374 0.0
O151 O 0.06686 0.70487 0.38374 0.0
O152 O 0.01321 0.66817 0.31983 0.0
O153 O 0.03286 0.67085 0.35258 0.0
Co154 Co 0.32397 0.33809 0.34094 0.0
O155 O 0.33363 0.32477 0.36315 0.0
O156 O 0.31011 0.30965 0.3328 0.0
C157 C 0.35411 0.36426 0.32966 0.0
O158 O 0.31047 0.34672 0.31366 0.0
Co159 Co 0.33239 0.38065 0.35545 0.0
O160 O 0.32037 0.37906 0.32011 0.0
C161 C 0.30004 0.34545 0.38283 0.0
C162 C 0.3211 0.3083 0.351 0.0
C163 C 0.31058 0.36272 0.3071 0.0
O164 O 0.30327 0.33359 0.36856 0.0
O165 O 0.31073 0.36448 0.38161 0.0
O166 O 0.3468 0.34728 0.31705 0.0
O167 O 0.34392 0.36433 0.34988 0.0
Co168 Co 0.34653 0.02623 0.6731 0.0
O169 O 0.35985 0.01628 0.69456 0.0
O170 O 0.3749 0.04181 0.66704 0.0
C171 C 0.32215 0.99588 0.65886 0.0
O172 O 0.33792 0.04039 0.64693 0.0
Co173 Co 0.30304 0.01455 0.68434 0.0
O174 O 0.30534 0.02841 0.65028 0.0
C175 C 0.33572 0.04619 0.71692 0.0
C176 C 0.37625 0.03006 0.68407 0.0
C177 C 0.322 0.03969 0.63924 0.0
O178 O 0.3488 0.04508 0.70274 0.0
O179 O 0.31712 0.03442 0.71379 0.0
O180 O 0.33912 1.00471 0.6467 0.0
O181 O 0.32092 1.00488 0.67983 0.0
Co182 Co 0.9934 0.32169 0.67169 0.0
O183 O 0.01552 0.33206 0.64749 0.0
O184 O 1.00825 0.30857 0.67743 0.0
C185 C 0.99833 0.35194 0.68395 0.0
O186 O 0.97255 0.30753 0.70073 0.0
Co187 Co 0.95837 0.32857 0.66352 0.0
O188 O 0.94894 0.31534 0.69857 0.0
C189 C 0.95967 0.29642 0.63313 0.0
C190 C 0.02004 0.32003 0.65875 0.0
C191 C 0.95659 0.30626 0.70952 0.0
O192 O 0.9758 0.30041 0.64488 0.0
O193 O 0.95129 0.30657 0.63681 0.0
O194 O 1.0083 0.34494 0.69518 0.0
O195 O 0.98675 0.34118 0.66472 0.0
Co196 Co 0.69705 0.67845 0.67413 0.0
O197 O 0.68688 0.69103 0.65151 0.0
O198 O 0.71162 0.70718 0.67999 0.0
C199 C 0.667 0.65337 0.68802 0.0
O200 O 0.71125 0.6708 0.70153 0.0
Co201 Co 0.68726 0.63509 0.66303 0.0
O202 O 0.70119 0.63828 0.69725 0.0
C203 C 0.71904 0.66845 0.63215 0.0
C204 C 0.69994 0.70788 0.66233 0.0
C205 C 0.71147 0.65515 0.7089 0.0
O206 O 0.71661 0.68121 0.64555 0.0
O207 O 0.70806 0.64956 0.63509 0.0
O208 O 0.67525 0.67087 0.69938 0.0
O209 O 0.67633 0.65204 0.66757 0.0
Co210 Co 0.34217 0.32173 0.67298 0.0
O211 O 0.33005 0.33173 0.64922 0.0
O212 O 0.31366 0.30724 0.67788 0.0
C213 C 0.36681 0.35225 0.68648 0.0
O214 O 0.34943 0.30768 0.70134 0.0
Co215 Co 0.38549 0.33172 0.66466 0.0
O216 O 0.38182 0.31834 0.69946 0.0
C217 C 0.35305 0.30008 0.63178 0.0
C218 C 0.31323 0.31883 0.6597 0.0
C219 C 0.36485 0.30779 0.71009 0.0
O220 O 0.33993 0.30182 0.64496 0.0
O221 O 0.37164 0.31151 0.63547 0.0
O222 O 0.34949 0.34425 0.69757 0.0
O223 O 0.36825 0.34229 0.66682 0.0
Co224 Co 0.69375 0.02616 0.67851 0.0
O225 O 0.67134 0.01523 0.70226 0.0
O226 O 0.67842 0.03871 0.67239 0.0
C227 C 0.68954 0.99622 0.66609 0.0
O228 O 0.71478 0.04075 0.64982 0.0
Co229 Co 0.7292 0.02008 0.68722 0.0
O230 O 0.73866 0.03334 0.65219 0.0
C231 C 0.72697 0.05172 0.71765 0.0
C232 C 0.6665 0.02693 0.69075 0.0
C233 C 0.73085 0.04224 0.64114 0.0
O234 O 0.71083 0.04747 0.7057 0.0
O235 O 0.73568 0.04187 0.71403 0.0
O236 O 0.67947 1.00304 0.65467 0.0
O237 O 0.7008 0.00696 0.68559 0.0
Co238 Co 0.98816 0.66993 0.67507 0.0
O239 O 0.99853 0.6574 0.69745 0.0
O240 O 0.97435 0.64133 0.66817 0.0
C241 C 0.0181 0.69587 0.66236 0.0
O242 O 0.97389 0.67753 0.64773 0.0
Co243 Co 0.99655 0.71267 0.68751 0.0
O244 O 0.98304 0.70976 0.65299 0.0
C245 C 0.96487 0.67822 0.71697 0.0
C246 C 0.98593 0.64063 0.686 0.0
C247 C 0.97328 0.69306 0.64078 0.0
O248 O 0.96795 0.66601 0.70328 0.0
O249 O 0.97545 0.6972 0.71469 0.0
O250 O 0.01051 0.67863 0.65038 0.0
O251 O 1.00823 0.69642 0.68268 0.0
H252 H 0.24298 0.35373 0.13467 0.0
H253 H 0.20195 0.36208 0.08986 0.0
H254 H 0.20473 0.36777 0.17697 0.0
H255 H 0.17543 0.36139 0.17594 0.0
H256 H 0.13723 0.3756 0.13479 0.0
H257 H 0.18203 0.37287 0.09025 0.0
C258 C 0.23094 0.35662 0.13437 0.0
C259 C 0.22393 0.35973 0.15846 0.0
C260 C 0.22342 0.35807 0.10984 0.0
C261 C 0.20781 0.36181 0.10924 0.0
C262 C 0.19993 0.36473 0.13343 0.0
C263 C 0.20901 0.36445 0.15796 0.0
C264 C 0.18241 0.36783 0.13339 0.0
C265 C 0.1719 0.36594 0.15748 0.0
C266 C 0.15613 0.36937 0.1582 0.0
C267 C 0.15006 0.37397 0.13455 0.0
C268 C 0.15899 0.37459 0.11011 0.0
C269 C 0.1753 0.37189 0.10948 0.0
H270 H 0.64221 0.88206 0.13348 0.0
H271 H 0.65533 0.84299 0.08944 0.0
H272 H 0.64473 0.836 0.17516 0.0
H273 H 0.66513 0.82534 0.17442 0.0
H274 H 0.66322 0.77529 0.13644 0.0
H275 H 0.64524 0.80983 0.09187 0.0
C276 C 0.64374 0.86905 0.13312 0.0
C277 C 0.64351 0.85993 0.15715 0.0
C278 C 0.64758 0.86278 0.10871 0.0
C279 C 0.65135 0.84699 0.10827 0.0
C280 C 0.65051 0.83694 0.1323 0.0
C281 C 0.64603 0.84344 0.15646 0.0
C282 C 0.65483 0.82024 0.13283 0.0
C283 C 0.66183 0.81608 0.1567 0.0
C284 C 0.66468 0.7998 0.15814 0.0
C285 C 0.66134 0.78807 0.13534 0.0
C286 C 0.6544 0.7916 0.11157 0.0
C287 C 0.65123 0.80771 0.11016 0.0
H288 H 0.24325 0.88827 0.1342 0.0
H289 H 0.19411 0.84404 0.08887 0.0
H290 H 0.19274 0.84437 0.17606 0.0
H291 H 0.17037 0.81453 0.17485 0.0
H292 H 0.11547 0.77713 0.13609 0.0
H293 H 0.16308 0.82218 0.09014 0.0
C294 C 0.22882 0.87475 0.13376 0.0
C295 C 0.2192 0.8663 0.15774 0.0
C296 C 0.21954 0.86712 0.10916 0.0
C297 C 0.20064 0.84976 0.10832 0.0
C298 C 0.19049 0.84043 0.13247 0.0
C299 C 0.20003 0.84961 0.15703 0.0
C300 C 0.16987 0.82201 0.13267 0.0
C301 C 0.16174 0.81118 0.15679 0.0
C302 C 0.14198 0.79572 0.15829 0.0
C303 C 0.1305 0.78971 0.13518 0.0
C304 C 0.13826 0.79883 0.11064 0.0
C305 C 0.15779 0.81509 0.10931 0.0
H306 H 0.37493 0.13078 0.88136 0.0
H307 H 0.36682 0.17301 0.92589 0.0
H308 H 0.36151 0.1693 0.83907 0.0
H309 H 0.36744 0.19879 0.83899 0.0
H310 H 0.346 0.23249 0.878 0.0
H311 H 0.35415 0.19163 0.92438 0.0
C312 C 0.37274 0.14339 0.88158 0.0
C313 C 0.36933 0.15004 0.85754 0.0
C314 C 0.37125 0.15122 0.90612 0.0
C315 C 0.36761 0.16712 0.90657 0.0
C316 C 0.36485 0.17486 0.88224 0.0
C317 C 0.36514 0.16541 0.85798 0.0
C318 C 0.36055 0.19172 0.88161 0.0
C319 C 0.36181 0.20166 0.85715 0.0
C320 C 0.35572 0.21563 0.85563 0.0
C321 C 0.3497 0.22092 0.87891 0.0
C322 C 0.34973 0.21275 0.90364 0.0
C323 C 0.35487 0.19802 0.90503 0.0
H324 H 0.7736 0.12803 0.88193 0.0
H325 H 0.82698 0.16529 0.9253 0.0
H326 H 0.82079 0.17826 0.84264 0.0
H327 H 0.85183 0.19082 0.84004 0.0
H328 H 0.90327 0.23515 0.88087 0.0
H329 H 0.85161 0.19706 0.92678 0.0
C330 C 0.78815 0.14138 0.88265 0.0
C331 C 0.79629 0.15245 0.85943 0.0
C332 C 0.79899 0.14623 0.90641 0.0
C333 C 0.81852 0.16253 0.90712 0.0
C334 C 0.8271 0.17448 0.88403 0.0
C335 C 0.81531 0.16941 0.86056 0.0
C336 C 0.84841 0.19136 0.88357 0.0
C337 C 0.85869 0.19796 0.85882 0.0
C338 C 0.87827 0.21389 0.85776 0.0
C339 C 0.88821 0.22263 0.8816 0.0
C340 C 0.87883 0.21635 0.90639 0.0
C341 C 0.85882 0.20109 0.90745 0.0
H342 H 0.77652 0.66063 0.88169 0.0
H343 H 0.81352 0.64483 0.92356 0.0
H344 H 0.82184 0.65823 0.83834 0.0
H345 H 0.83701 0.64254 0.83702 0.0
H346 H 0.88327 0.64052 0.87774 0.0
H347 H 0.84405 0.65166 0.92337 0.0
C348 C 0.78892 0.65828 0.88145 0.0
C349 C 0.79836 0.65943 0.85731 0.0
C350 C 0.79459 0.65338 0.90524 0.0
C351 C 0.80998 0.6493 0.90499 0.0
C352 C 0.82044 0.65096 0.88093 0.0
C353 C 0.8143 0.65622 0.85718 0.0
C354 C 0.83755 0.64729 0.88038 0.0
C355 C 0.84433 0.64368 0.85574 0.0
C356 C 0.86098 0.64165 0.85459 0.0
C357 C 0.87019 0.64172 0.87842 0.0
C358 C 0.86385 0.64491 0.90309 0.0
C359 C 0.84787 0.6481 0.90413 0.0
H360 H 0.9079 0.6866 0.46809 0.0
H361 H 0.87079 0.70192 0.42562 0.0
H362 H 0.86251 0.68911 0.51103 0.0
H363 H 0.84661 0.70396 0.51204 0.0
H364 H 0.80113 0.70679 0.47048 0.0
H365 H 0.84053 0.69554 0.4255 0.0
C366 C 0.89547 0.68889 0.46818 0.0
C367 C 0.886 0.68786 0.49226 0.0
C368 C 0.88978 0.69361 0.44427 0.0
C369 C 0.87432 0.6976 0.4443 0.0
C370 C 0.86382 0.69605 0.4683 0.0
C371 C 0.87002 0.691 0.4922 0.0
C372 C 0.84665 0.69965 0.46861 0.0
C373 C 0.83959 0.70306 0.49316 0.0
C374 C 0.82303 0.70526 0.49398 0.0
C375 C 0.81413 0.70545 0.47001 0.0
C376 C 0.82065 0.70231 0.44544 0.0
C377 C 0.83657 0.69902 0.44468 0.0
H378 H 0.3133 0.21629 0.46472 0.0
H379 H 0.31815 0.17154 0.42124 0.0
H380 H 0.32688 0.178 0.50749 0.0
H381 H 0.31853 0.14751 0.50835 0.0
H382 H 0.33965 0.11299 0.47083 0.0
H383 H 0.33234 0.15391 0.42313 0.0
C384 C 0.3152 0.20349 0.46479 0.0
C385 C 0.31912 0.19732 0.48887 0.0
C386 C 0.31542 0.19466 0.44046 0.0
C387 C 0.31843 0.17834 0.44032 0.0
C388 C 0.32191 0.17127 0.46471 0.0
C389 C 0.32282 0.18161 0.48867 0.0
C390 C 0.32565 0.15407 0.46571 0.0
C391 C 0.3241 0.14429 0.49039 0.0
C392 C 0.32997 0.13019 0.49241 0.0
C393 C 0.33598 0.12455 0.46944 0.0
C394 C 0.33622 0.13258 0.44448 0.0
C395 C 0.33132 0.14748 0.44256 0.0
H396 H 0.91235 0.22125 0.46966 0.0
H397 H 0.85967 0.18366 0.42502 0.0
H398 H 0.86529 0.1702 0.50769 0.0
H399 H 0.83419 0.15728 0.50981 0.0
H400 H 0.78342 0.11277 0.46792 0.0
H401 H 0.83524 0.15195 0.42304 0.0
C402 C 0.89786 0.20784 0.46859 0.0
C403 C 0.88968 0.19636 0.49147 0.0
C404 C 0.88726 0.20308 0.44463 0.0
C405 C 0.86791 0.18646 0.44342 0.0
C406 C 0.85923 0.17428 0.46629 0.0
C407 C 0.87079 0.17927 0.48995 0.0
C408 C 0.83802 0.15719 0.46634 0.0
C409 C 0.82756 0.15022 0.49089 0.0
C410 C 0.80809 0.13405 0.49159 0.0
C411 C 0.79841 0.12544 0.46754 0.0
C412 C 0.80798 0.13213 0.44293 0.0
C413 C 0.82789 0.14761 0.44225 0.0
H414 H 0.04212 0.46469 0.21273 0.0
H415 H 0.02806 0.50284 0.25734 0.0
H416 H 0.03987 0.51125 0.17199 0.0
H417 H 0.01893 0.52127 0.17262 0.0
H418 H 0.02018 0.57083 0.21113 0.0
H419 H 0.03804 0.5361 0.25553 0.0
C420 C 0.04048 0.47763 0.21332 0.0
C421 C 0.04097 0.48709 0.18949 0.0
C422 C 0.03628 0.48349 0.2378 0.0
C423 C 0.03232 0.49916 0.2385 0.0
C424 C 0.03339 0.50951 0.21468 0.0
C425 C 0.03833 0.50349 0.19049 0.0
C426 C 0.02887 0.52607 0.21436 0.0
C427 C 0.02202 0.53037 0.19047 0.0
C428 C 0.01907 0.54658 0.18916 0.0
C429 C 0.02213 0.55809 0.21212 0.0
C430 C 0.0289 0.5544 0.23594 0.0
C431 C 0.03217 0.53835 0.23721 0.0
H432 H 0.43983 0.45808 0.21655 0.0
H433 H 0.48875 0.5035 0.26111 0.0
H434 H 0.4913 0.50009 0.1743 0.0
H435 H 0.51256 0.53071 0.17462 0.0
H436 H 0.56763 0.56895 0.21265 0.0
H437 H 0.52035 0.52424 0.25953 0.0
C438 C 0.45433 0.47151 0.21675 0.0
C439 C 0.46437 0.47896 0.19269 0.0
C440 C 0.46332 0.47994 0.24128 0.0
C441 C 0.48238 0.4971 0.24181 0.0
C442 C 0.49283 0.50552 0.21753 0.0
C443 C 0.48362 0.49552 0.19321 0.0
C444 C 0.5134 0.52394 0.21699 0.0
C445 C 0.52135 0.53442 0.19261 0.0
C446 C 0.54107 0.54994 0.19081 0.0
C447 C 0.55264 0.55632 0.21384 0.0
C448 C 0.54504 0.54751 0.2386 0.0
C449 C 0.52556 0.53118 0.24024 0.0
H450 H 0.44266 0.99242 0.21264 0.0
H451 H 0.4808 0.97876 0.25555 0.0
H452 H 0.48803 0.98994 0.16967 0.0
H453 H 0.50506 0.97642 0.16912 0.0
H454 H 0.55093 0.97456 0.21099 0.0
H455 H 0.51084 0.98493 0.25568 0.0
C456 C 0.45523 0.99035 0.21259 0.0
C457 C 0.46452 0.99111 0.18847 0.0
C458 C 0.4613 0.98623 0.23662 0.0
C459 C 0.47699 0.98261 0.23671 0.0
C460 C 0.48734 0.9839 0.21267 0.0
C461 C 0.48071 0.98829 0.18859 0.0
C462 C 0.50478 0.9807 0.21253 0.0
C463 C 0.51205 0.97745 0.18806 0.0
C464 C 0.52884 0.97564 0.18735 0.0
C465 C 0.53775 0.97559 0.21138 0.0
C466 C 0.53105 0.97855 0.2359 0.0
C467 C 0.51493 0.98155 0.23652 0.0
H468 H 0.57406 0.01981 0.80161 0.0
H469 H 0.53333 0.02869 0.75693 0.0
H470 H 0.53643 0.03463 0.84401 0.0
H471 H 0.50741 0.02889 0.84315 0.0
H472 H 0.46903 0.04283 0.802 0.0
H473 H 0.51327 0.03926 0.7572 0.0
C474 C 0.56212 0.02285 0.80137 0.0
C475 C 0.55531 0.02619 0.82548 0.0
C476 C 0.55461 0.02437 0.77687 0.0
C477 C 0.53916 0.02834 0.7763 0.0
C478 C 0.53143 0.03144 0.80049 0.0
C479 C 0.54055 0.03114 0.825 0.0
C480 C 0.51403 0.03476 0.80046 0.0
C481 C 0.50377 0.03324 0.82462 0.0
C482 C 0.48804 0.03675 0.82539 0.0
C483 C 0.48183 0.04114 0.8017 0.0
C484 C 0.49053 0.04145 0.77719 0.0
C485 C 0.50675 0.03858 0.77651 0.0
H486 H 0.97889 0.54809 0.79846 0.0
H487 H 0.98414 0.50425 0.75343 0.0
H488 H 0.99399 0.5103 0.83952 0.0
H489 H 0.98694 0.48032 0.83979 0.0
H490 H 1.00643 0.44541 0.7993 0.0
H491 H 0.99768 0.48625 0.75375 0.0
C492 C 0.98103 0.53545 0.7981 0.0
C493 C 0.98549 0.52934 0.82183 0.0
C494 C 0.98112 0.52684 0.77351 0.0
C495 C 0.98453 0.51081 0.77274 0.0
C496 C 0.98851 0.50372 0.79672 0.0
C497 C 0.98956 0.51387 0.82098 0.0
C498 C 0.99249 0.48666 0.79686 0.0
C499 C 0.99184 0.477 0.82127 0.0
C500 C 0.99768 0.46283 0.82231 0.0
C501 C 1.00279 0.45703 0.79867 0.0
C502 C 1.00218 0.46497 0.77402 0.0
C503 C 0.99732 0.47993 0.77304 0.0
H504 H 0.58099 0.55514 0.80098 0.0
H505 H 0.52706 0.52009 0.75768 0.0
H506 H 0.53369 0.50367 0.83814 0.0
H507 H 0.50288 0.49297 0.84228 0.0
H508 H 0.45043 0.4503 0.80158 0.0
H509 H 0.50207 0.48801 0.75535 0.0
C510 C 0.56637 0.54193 0.79989 0.0
C511 C 0.55828 0.53001 0.82248 0.0
C512 C 0.55539 0.53812 0.77641 0.0
C513 C 0.5357 0.52207 0.77545 0.0
C514 C 0.52719 0.50938 0.79793 0.0
C515 C 0.53918 0.51324 0.82086 0.0
C516 C 0.5057 0.49303 0.79859 0.0
C517 C 0.49565 0.48627 0.82348 0.0
C518 C 0.47588 0.47072 0.82465 0.0
C519 C 0.4656 0.46261 0.80082 0.0
C520 C 0.47483 0.46904 0.77594 0.0
C521 C 0.49496 0.48388 0.77474 0.0
H522 H 0.70721 0.79975 0.54771 0.0
H523 H 0.7028 0.84412 0.59261 0.0
H524 H 0.69167 0.83725 0.5068 0.0
H525 H 0.69866 0.86722 0.50621 0.0
H526 H 0.6809 0.90332 0.54735 0.0
H527 H 0.68978 0.86248 0.59262 0.0
C528 C 0.70512 0.81242 0.54805 0.0
C529 C 0.70035 0.81833 0.5244 0.0
C530 C 0.70541 0.82129 0.57259 0.0
C531 C 0.70209 0.83736 0.57335 0.0
C532 C 0.6978 0.84425 0.54943 0.0
C533 C 0.69633 0.83384 0.52525 0.0
C534 C 0.69396 0.86141 0.54934 0.0
C535 C 0.69423 0.87084 0.52489 0.0
C536 C 0.68871 0.88527 0.52404 0.0
C537 C 0.6842 0.89147 0.54787 0.0
C538 C 0.68521 0.88374 0.57251 0.0
C539 C 0.68979 0.86857 0.5733 0.0
H540 H 0.10342 0.79277 0.54954 0.0
H541 H 0.15725 0.83044 0.59221 0.0
H542 H 0.15076 0.84256 0.50945 0.0
H543 H 0.18198 0.85178 0.50718 0.0
H544 H 0.23208 0.90085 0.54469 0.0
H545 H 0.18011 0.86497 0.59157 0.0
C546 C 0.11798 0.80611 0.55007 0.0
C547 C 0.12604 0.81699 0.52667 0.0
C548 C 0.12896 0.81104 0.57375 0.0
C549 C 0.14854 0.82735 0.57417 0.0
C550 C 0.15694 0.83897 0.55081 0.0
C551 C 0.14511 0.83384 0.5275 0.0
C552 C 0.17815 0.85572 0.54978 0.0
C553 C 0.18867 0.86053 0.52514 0.0
C554 C 0.208 0.87685 0.52322 0.0
C555 C 0.21726 0.88795 0.54619 0.0
C556 C 0.20736 0.88384 0.5707 0.0
C557 C 0.18785 0.86764 0.57268 0.0
H558 H 0.11149 0.32601 0.54581 0.0
H559 H 0.14896 0.31116 0.58839 0.0
H560 H 0.15674 0.32325 0.5028 0.0
H561 H 0.17166 0.30728 0.50226 0.0
H562 H 0.21861 0.3065 0.54287 0.0
H563 H 0.1797 0.31832 0.58819 0.0
C564 C 0.12395 0.32376 0.54571 0.0
C565 C 0.13327 0.32461 0.52157 0.0
C566 C 0.1298 0.31927 0.56967 0.0
C567 C 0.14527 0.31531 0.56967 0.0
C568 C 0.1556 0.31665 0.54563 0.0
C569 C 0.14928 0.32149 0.52165 0.0
C570 C 0.17274 0.31303 0.54536 0.0
C571 C 0.17924 0.30889 0.5209 0.0
C572 C 0.19597 0.30702 0.51977 0.0
C573 C 0.20547 0.30758 0.54357 0.0
C574 C 0.19937 0.3112 0.56817 0.0
C575 C 0.18336 0.31439 0.5691 0.0
H576 H 0.04432 0.40628 0.07201 0.0
H577 H 0.01778 0.48079 0.14583 0.0
H578 H 0.98876 0.40404 0.06536 0.0
H579 H 0.06378 0.4713 0.17431 0.0
H580 H 0.01249 0.45878 0.10783 0.0
H581 H 0.05615 0.43516 0.10253 0.0
C582 C 0.03467 0.41189 0.07688 0.0
C583 C 0.01543 0.40256 0.06646 0.0
C584 C 0.02395 0.46173 0.12219 0.0
C585 C 0.02896 0.43566 0.10061 0.0
C586 C 0.02716 0.47452 0.14373 0.0
C587 C 0.04109 0.47771 0.16349 0.0
C588 C 0.0347 0.45202 0.12033 0.0
C589 C 0.05264 0.46894 0.15977 0.0
C590 C 0.04143 0.42834 0.0942 0.0
C591 C 1.00357 0.4105 0.07326 0.0
N592 N 0.04902 0.45626 0.13878 0.0
N593 N 0.01053 0.42655 0.08985 0.0
H594 H 0.628 0.61571 0.06927 0.0
H595 H 0.52794 0.56716 0.15512 0.0
H596 H 0.58299 0.63075 0.05844 0.0
H597 H 0.57523 0.55604 0.16887 0.0
H598 H 0.54634 0.58817 0.11681 0.0
H599 H 0.60775 0.59213 0.10392 0.0
C600 C 0.61391 0.61415 0.07422 0.0
C601 C 0.60728 0.62535 0.06089 0.0
C602 C 0.5526 0.58098 0.12808 0.0
C603 C 0.58385 0.59812 0.10052 0.0
C604 C 0.54201 0.56886 0.14974 0.0
C605 C 0.55016 0.55999 0.16519 0.0
C606 C 0.57138 0.58413 0.12188 0.0
C607 C 0.56853 0.56279 0.15758 0.0
C608 C 0.6023 0.60059 0.09397 0.0
C609 C 0.5888 0.62253 0.06819 0.0
N610 N 0.57856 0.57469 0.13661 0.0
N611 N 0.57775 0.60921 0.08747 0.0
H612 H 0.38532 0.95587 0.05542 0.0
H613 H 0.45541 0.01958 0.17668 0.0
H614 H 0.39798 0.01533 0.07441 0.0
H615 H 0.45317 0.96731 0.14371 0.0
H616 H 0.43487 0.01886 0.13951 0.0
H617 H 0.40958 0.95975 0.08852 0.0
C618 C 0.39309 0.96974 0.06665 0.0
C619 C 0.38943 0.98527 0.06209 0.0
C620 C 0.43912 0.00773 0.14014 0.0
C621 C 0.41756 0.98983 0.10018 0.0
C622 C 0.4509 0.00818 0.16128 0.0
C623 C 0.45597 0.99345 0.16327 0.0
C624 C 0.43208 0.99225 0.12105 0.0
C625 C 0.44972 0.97901 0.14283 0.0
C626 C 0.40711 0.97199 0.08545 0.0
C627 C 0.4002 1.00292 0.07725 0.0
N628 N 0.43788 0.9786 0.12279 0.0
N629 N 0.4137 1.00468 0.0957 0.0
H630 H 0.3967 0.97487 0.94005 0.0
H631 H 0.47571 0.06093 0.84676 0.0
H632 H 0.40738 0.03485 0.94414 0.0
H633 H 0.4731 1.00517 0.85956 0.0
H634 H 0.4514 0.05252 0.8826 0.0
H635 H 0.42461 0.98619 0.91009 0.0
C636 C 0.40484 0.99046 0.93456 0.0
C637 C 0.39949 1.00389 0.94455 0.0
C638 C 0.45639 0.04229 0.87785 0.0
C639 C 0.43184 0.01702 0.91006 0.0
C640 C 0.47025 0.04707 0.85745 0.0
C641 C 0.47635 0.03367 0.85013 0.0
C642 C 0.4484 0.02386 0.89077 0.0
C643 C 0.46892 0.01598 0.86466 0.0
C644 C 0.42095 0.99694 0.91755 0.0
C645 C 0.41089 0.02395 0.93686 0.0
N646 N 0.45515 0.01148 0.88403 0.0
N647 N 0.42647 0.0299 0.91988 0.0
H648 H 0.96178 0.37879 0.95153 0.0
H649 H 0.02829 0.46037 0.84244 0.0
H650 H 0.02401 0.40114 0.94128 0.0
H651 H 0.96791 0.44277 0.85892 0.0
H652 H 0.02734 0.43958 0.87939 0.0
H653 H 0.96382 0.40204 0.91776 0.0
C654 C 0.9759 0.38849 0.9421 0.0
C655 C 0.99277 0.38789 0.94936 0.0
C656 C 0.01435 0.4404 0.87519 0.0
C657 C 0.99517 0.41483 0.91055 0.0
C658 C 0.01491 0.45234 0.85419 0.0
C659 C 0.99813 0.45325 0.84764 0.0
C660 C 0.99679 0.42908 0.88967 0.0
C661 C 0.98119 0.44257 0.86345 0.0
C662 C 0.97704 0.40188 0.92287 0.0
C663 C 0.01059 0.40095 0.93635 0.0
N664 N 0.98088 0.43075 0.88356 0.0
N665 N 0.01131 0.41386 0.91759 0.0
H666 H 0.64427 0.61249 0.93614 0.0
H667 H 0.54178 0.5307 0.87028 0.0
H668 H 0.58781 0.60718 0.95002 0.0
H669 H 0.5979 0.54721 0.83431 0.0
H670 H 0.55905 0.55161 0.90891 0.0
H671 H 0.62788 0.5829 0.90652 0.0
C672 C 0.62848 0.60507 0.93306 0.0
C673 C 0.61743 0.61251 0.94509 0.0
C674 C 0.5676 0.55038 0.89279 0.0
C675 C 0.59868 0.57859 0.91219 0.0
C676 C 0.55773 0.5382 0.87083 0.0
C677 C 0.56841 0.53751 0.84872 0.0
C678 C 0.58829 0.56205 0.89263 0.0
C679 C 0.58911 0.54773 0.85066 0.0
C680 C 0.61916 0.58821 0.9163 0.0
C681 C 0.59699 0.60225 0.94069 0.0
N682 N 0.59843 0.55993 0.87201 0.0
N683 N 0.58832 0.58587 0.92463 0.0
H684 H 0.97955 0.60684 0.94288 0.0
H685 H 0.0158 0.544 0.85797 0.0
H686 H 0.03899 0.61776 0.94306 0.0
H687 H 0.96079 0.54118 0.84214 0.0
H688 H 0.02189 0.56702 0.89513 0.0
H689 H 0.97021 0.57941 0.91063 0.0
C690 C 0.99062 0.60352 0.93617 0.0
C691 C 0.01013 0.61478 0.94554 0.0
C692 C 1.00839 0.56124 0.8837 0.0
C693 C 0.99949 0.58334 0.90915 0.0
C694 C 1.00481 0.54791 0.86267 0.0
C695 C 0.98782 0.54076 0.84688 0.0
C696 C 0.99489 0.56747 0.88901 0.0
C697 C 0.9742 0.54657 0.85367 0.0
C698 C 0.98527 0.58786 0.91784 0.0
C699 C 0.02382 0.60972 0.93625 0.0
N700 N 0.97809 0.55971 0.87412 0.0
N701 N 0.01823 0.59441 0.91867 0.0
H702 H 0.38636 0.39666 0.94046 0.0
H703 H 0.49028 0.458 0.86451 0.0
H704 H 0.43429 0.3857 0.94945 0.0
H705 H 0.43898 0.46059 0.84236 0.0
H706 H 0.47139 0.4355 0.90113 0.0
H707 H 0.40643 0.42309 0.90845 0.0
C708 C 0.40102 0.39969 0.93564 0.0
C709 C 0.40854 0.38878 0.94763 0.0
C710 C 0.46432 0.44118 0.88846 0.0
C711 C 0.43173 0.4193 0.91137 0.0
C712 C 0.47519 0.45425 0.8678 0.0
C713 C 0.46615 0.46108 0.8503 0.0
C714 C 0.44428 0.43496 0.89172 0.0
C715 C 0.44645 0.4555 0.85527 0.0
C716 C 0.4125 0.41485 0.91744 0.0
C717 C 0.42774 0.39354 0.94065 0.0
N718 N 0.43612 0.44264 0.87536 0.0
N719 N 0.43864 0.40843 0.9231 0.0
H720 H 0.63824 0.06091 0.95518 0.0
H721 H 0.55923 0.99537 0.84241 0.0
H722 H 0.61731 0.9984 0.94253 0.0
H723 H 0.57331 0.05458 0.86509 0.0
H724 H 0.57981 0.99576 0.87922 0.0
H725 H 0.61488 0.05875 0.92183 0.0
C726 C 0.62883 0.04669 0.94531 0.0
C727 C 0.62988 0.02979 0.9518 0.0
C728 C 0.57822 0.00858 0.87642 0.0
C729 C 0.60277 0.02726 0.91335 0.0
C730 C 0.56641 0.00833 0.8555 0.0
C731 C 0.56458 0.02499 0.85072 0.0
C732 C 0.58852 0.02572 0.89258 0.0
C733 C 0.57421 0.04139 0.8682 0.0
C734 C 0.61535 0.04548 0.92631 0.0
C735 C 0.61714 0.01185 0.93821 0.0
N736 N 0.58595 0.04144 0.88816 0.0
N737 N 0.60415 0.01107 0.91961 0.0
H738 H 0.61649 0.03591 0.06954 0.0
H739 H 0.54407 0.95267 0.17052 0.0
H740 H 0.61173 0.97842 0.072 0.0
H741 H 0.53798 1.00213 0.14685 0.0
H742 H 0.56796 0.96064 0.1342 0.0
H743 H 0.58774 0.02332 0.09838 0.0
C744 C 0.60947 0.02063 0.07626 0.0
C745 C 0.61673 0.00828 0.0685 0.0
C746 C 0.56109 0.96948 0.13662 0.0
C747 C 0.58348 0.99367 0.10165 0.0
C748 C 0.54742 0.96492 0.15727 0.0
C749 C 0.53912 0.97684 0.1618 0.0
C750 C 0.5667 0.98627 0.12069 0.0
C751 C 0.54393 0.99248 0.14403 0.0
C752 C 0.59288 0.01338 0.09256 0.0
C753 C 0.60671 0.9885 0.07758 0.0
N754 N 0.55764 0.99695 0.12457 0.0
N755 N 0.5907 0.98185 0.09393 0.0
H756 H 0.99394 0.61465 0.07662 0.0
H757 H 0.03937 0.5536 0.14218 0.0
H758 H 0.05115 0.62332 0.05735 0.0
H759 H 0.99148 0.55692 0.1783 0.0
H760 H 0.03928 0.57356 0.10472 0.0
H761 H 0.98914 0.58906 0.10907 0.0
C762 C 1.0055 0.61125 0.07922 0.0
C763 C 0.02306 0.62137 0.06435 0.0
C764 C 0.02857 0.56965 0.12063 0.0
C765 C 0.01745 0.59179 0.10093 0.0
C766 C 0.02843 0.55801 0.14181 0.0
C767 C 0.01548 0.55368 0.16343 0.0
C768 C 0.0156 0.57697 0.12099 0.0
C769 C 1.0018 0.56006 0.16208 0.0
C770 C 1.00271 0.59659 0.09766 0.0
C771 C 0.03745 0.61617 0.06848 0.0
N772 N 1.00234 0.57155 0.14139 0.0
N773 N 0.03429 0.60177 0.08625 0.0
H774 H 0.37988 0.40113 0.07244 0.0
H775 H 0.48083 0.46736 0.15362 0.0
H776 H 0.43076 0.39449 0.06671 0.0
H777 H 0.42675 0.46512 0.17479 0.0
H778 H 0.46391 0.44502 0.11574 0.0
H779 H 0.39786 0.42832 0.10514 0.0
C780 C 0.39477 0.40536 0.07801 0.0
C781 C 0.40371 0.39534 0.06702 0.0
C782 C 0.45577 0.44956 0.12851 0.0
C783 C 0.42438 0.4265 0.10392 0.0
C784 C 0.46549 0.46248 0.14996 0.0
C785 C 0.45514 0.46799 0.16743 0.0
C786 C 0.43555 0.44209 0.12448 0.0
C787 C 0.43518 0.461 0.16194 0.0
C788 C 0.40502 0.42087 0.09661 0.0
C789 C 0.42311 0.40154 0.07486 0.0
N790 N 0.42597 0.44828 0.14104 0.0
N791 N 0.43275 0.41667 0.09276 0.0
H792 H 0.70527 0.74019 0.40359 0.0
H793 H 0.66943 0.80308 0.48918 0.0
H794 H 0.64559 0.72857 0.40485 0.0
H795 H 0.72491 0.80654 0.5035 0.0
H796 H 0.66288 0.77965 0.45236 0.0
H797 H 0.71475 0.76774 0.4356 0.0
C798 C 0.69418 0.74337 0.41058 0.0
C799 C 0.67457 0.73189 0.40165 0.0
C800 C 0.67659 0.78566 0.46339 0.0
C801 C 0.68536 0.7635 0.43779 0.0
C802 C 0.68042 0.79922 0.48421 0.0
C803 C 0.69769 0.80668 0.49948 0.0
C804 C 0.69012 0.77953 0.45775 0.0
C805 C 0.7113 0.80094 0.49237 0.0
C806 C 0.6996 0.75911 0.42878 0.0
C807 C 0.66084 0.7368 0.4113 0.0
N808 N 0.70718 0.78758 0.47213 0.0
N809 N 0.66651 0.7522 0.42875 0.0
H810 H 0.29947 0.94989 0.40986 0.0
H811 H 0.19342 0.88551 0.47936 0.0
H812 H 0.25031 0.95826 0.39593 0.0
H813 H 0.24555 0.88729 0.50857 0.0
H814 H 0.2128 0.90714 0.44228 0.0
H815 H 0.27899 0.92313 0.44126 0.0
C816 C 0.28445 0.94622 0.41347 0.0
C817 C 0.27671 0.95652 0.40032 0.0
C818 C 0.21994 0.90253 0.45654 0.0
C819 C 0.25308 0.92559 0.43578 0.0
C820 C 0.2088 0.88992 0.47745 0.0
C821 C 0.21792 0.88468 0.49707 0.0
C822 C 0.24032 0.90987 0.45523 0.0
C823 C 0.238 0.8911 0.49388 0.0
C824 C 0.27274 0.93087 0.4313 0.0
C825 C 0.25705 0.95094 0.40572 0.0
N826 N 0.24859 0.90354 0.47355 0.0
N827 N 0.24594 0.93586 0.42293 0.0
H828 H 0.05455 0.29047 0.38829 0.0
H829 H 0.12415 0.35319 0.51034 0.0
H830 H 0.06718 0.34986 0.40766 0.0
H831 H 0.12226 0.30139 0.47623 0.0
H832 H 0.10383 0.35287 0.47312 0.0
H833 H 0.0788 0.29424 0.42126 0.0
C834 C 0.06232 0.30431 0.39957 0.0
C835 C 0.05863 0.31984 0.39515 0.0
C836 C 0.10811 0.34177 0.47352 0.0
C837 C 0.08678 0.32427 0.43318 0.0
C838 C 0.11977 0.34198 0.49469 0.0
C839 C 0.12487 0.32725 0.49639 0.0
C840 C 0.10123 0.32652 0.45409 0.0
C841 C 0.11879 0.31308 0.47561 0.0
C842 C 0.07635 0.3065 0.41831 0.0
C843 C 0.06943 0.33745 0.41038 0.0
N844 N 0.10707 0.3129 0.45556 0.0
N845 N 0.08292 0.33914 0.42882 0.0
H846 H 0.06382 0.30757 0.27207 0.0
H847 H 0.14417 0.39372 0.17996 0.0
H848 H 0.07576 0.36798 0.27703 0.0
H849 H 0.14046 0.33734 0.1917 0.0
H850 H 0.11967 0.3853 0.21552 0.0
H851 H 0.09162 0.31856 0.24193 0.0
C852 C 0.0722 0.32318 0.26673 0.0
C853 C 0.06726 0.33684 0.27707 0.0
C854 C 0.12444 0.37491 0.21061 0.0
C855 C 0.09948 0.34958 0.24238 0.0
C856 C 0.13842 0.37971 0.19037 0.0
C857 C 0.14429 0.36616 0.18285 0.0
C858 C 0.11608 0.35631 0.22315 0.0
C859 C 0.13646 0.34826 0.19698 0.0
C860 C 0.08825 0.32947 0.24962 0.0
C861 C 0.07895 0.3569 0.26951 0.0
N862 N 0.12258 0.34375 0.2162 0.0
N863 N 0.09446 0.36266 0.25246 0.0
H864 H 0.69067 0.73223 0.27035 0.0
H865 H 0.64478 0.79306 0.20541 0.0
H866 H 0.63357 0.7236 0.29029 0.0
H867 H 0.69243 0.78963 0.16869 0.0
H868 H 0.64517 0.77329 0.24292 0.0
H869 H 0.6953 0.75779 0.23795 0.0
C870 C 0.67911 0.73563 0.26792 0.0
C871 C 0.66161 0.72553 0.28294 0.0
C872 C 0.65577 0.77714 0.22687 0.0
C873 C 0.66703 0.75507 0.24642 0.0
C874 C 0.65573 0.78868 0.20566 0.0
C875 C 0.66852 0.79291 0.18386 0.0
C876 C 0.66874 0.76984 0.22635 0.0
C877 C 0.68223 0.78656 0.18506 0.0
C878 C 0.68179 0.75027 0.24951 0.0
C879 C 0.64722 0.73074 0.27902 0.0
N880 N 0.68186 0.77517 0.20577 0.0
N881 N 0.65027 0.74511 0.26127 0.0
H882 H 0.3057 0.94367 0.27597 0.0
H883 H 0.20303 0.87618 0.19918 0.0
H884 H 0.25425 0.94903 0.28509 0.0
H885 H 0.25716 0.88002 0.17398 0.0
H886 H 0.22046 0.89785 0.2374 0.0
H887 H 0.28715 0.91603 0.24403 0.0
C888 C 0.29055 0.93903 0.27133 0.0
C889 C 0.28162 0.94887 0.28292 0.0
C890 C 0.2285 0.89377 0.22368 0.0
C891 C 0.26033 0.91722 0.247 0.0
C892 C 0.21849 0.88123 0.20203 0.0
C893 C 0.22872 0.87645 0.18331 0.0
C894 C 0.24888 0.90161 0.22661 0.0
C895 C 0.24883 0.88361 0.18782 0.0
C896 C 0.27999 0.92328 0.25318 0.0
C897 C 0.2619 0.94216 0.27635 0.0
N898 N 0.25833 0.89601 0.2089 0.0
N899 N 0.25197 0.92681 0.25886 0.0
H900 H 0.6998 0.9443 0.28133 0.0
H901 H 0.62089 0.87588 0.17246 0.0
H902 H 0.64456 0.94257 0.27347 0.0
H903 H 0.66763 0.86726 0.20001 0.0
H904 H 0.62771 0.89901 0.21005 0.0
H905 H 0.68738 0.91554 0.25166 0.0
C906 C 0.68503 0.93791 0.27326 0.0
C907 C 0.67329 0.94604 0.27964 0.0
C908 C 0.63617 0.89172 0.20815 0.0
C909 C 0.65888 0.91284 0.24552 0.0
C910 C 0.63229 0.87853 0.18673 0.0
C911 C 0.64386 0.8698 0.18291 0.0
C912 C 0.65188 0.89636 0.22561 0.0
C913 C 0.6583 0.87357 0.20215 0.0
C914 C 0.67787 0.92131 0.25648 0.0
C915 C 0.65414 0.93683 0.26893 0.0
N916 N 0.66211 0.88682 0.22236 0.0
N917 N 0.64758 0.92083 0.25208 0.0
H918 H 0.0554 0.7294 0.28013 0.0
H919 H 0.15514 0.77828 0.19358 0.0
H920 H 0.10034 0.71417 0.28995 0.0
H921 H 0.1076 0.78909 0.18019 0.0
H922 H 0.13681 0.75703 0.23174 0.0
H923 H 0.07543 0.75297 0.24535 0.0
C924 C 0.06942 0.73092 0.27493 0.0
C925 C 0.07611 0.71967 0.28801 0.0
C926 C 0.13047 0.76419 0.22056 0.0
C927 C 0.09929 0.74689 0.24823 0.0
C928 C 0.14101 0.77644 0.19899 0.0
C929 C 0.13279 0.78531 0.1837 0.0
C930 C 0.11165 0.76091 0.22685 0.0
C931 C 0.11435 0.78233 0.19135 0.0
C932 C 0.08091 0.74446 0.25509 0.0
C933 C 0.0945 0.72242 0.28039 0.0
N934 N 0.10438 0.77032 0.21225 0.0
N935 N 0.10544 0.73574 0.26104 0.0
H936 H 0.30572 0.39301 0.28956 0.0
H937 H 0.22752 0.32873 0.17519 0.0
H938 H 0.28529 0.33085 0.27467 0.0
H939 H 0.24189 0.38796 0.19826 0.0
H940 H 0.24788 0.3288 0.21205 0.0
H941 H 0.28266 0.39136 0.25601 0.0
C942 C 0.29649 0.37899 0.27915 0.0
C943 C 0.29758 0.36202 0.28506 0.0
C944 C 0.24642 0.3417 0.20933 0.0
C945 C 0.27083 0.36007 0.24646 0.0
C946 C 0.23473 0.34163 0.18839 0.0
C947 C 0.23304 0.35837 0.18372 0.0
C948 C 0.25675 0.35876 0.22562 0.0
C949 C 0.24269 0.37471 0.20131 0.0
C950 C 0.28319 0.37806 0.26005 0.0
C951 C 0.28509 0.34433 0.27081 0.0
N952 N 0.25432 0.37458 0.22131 0.0
N953 N 0.27227 0.34383 0.25217 0.0
H954 H 0.27864 0.30765 0.40411 0.0
H955 H 0.20284 0.33168 0.47762 0.0
H956 H 0.28092 0.36394 0.40086 0.0
H957 H 0.21193 0.28453 0.5035 0.0
H958 H 0.22569 0.3385 0.4406 0.0
H959 H 0.24942 0.29473 0.43325 0.0
C960 C 0.27299 0.31724 0.40944 0.0
C961 C 0.28241 0.337 0.40035 0.0
C962 C 0.22245 0.32644 0.45413 0.0
C963 C 0.2489 0.32222 0.43295 0.0
C964 C 0.20919 0.32236 0.47507 0.0
C965 C 0.20563 0.30765 0.49386 0.0
C966 C 0.23222 0.31573 0.45188 0.0
C967 C 0.21451 0.29621 0.48967 0.0
C968 C 0.25634 0.30986 0.42598 0.0
C969 C 0.27438 0.34874 0.40772 0.0
N970 N 0.2276 0.30065 0.4693 0.0
N971 N 0.25814 0.34118 0.42352 0.0
H972 H 0.72582 0.96918 0.39479 0.0
H973 H 0.65858 0.88903 0.50482 0.0
H974 H 0.66383 0.94813 0.40477 0.0
H975 H 0.71804 0.90418 0.48659 0.0
H976 H 0.65986 0.90997 0.46783 0.0
H977 H 0.72318 0.94576 0.42865 0.0
C978 C 0.71162 0.95973 0.40418 0.0
C979 C 0.695 0.96074 0.3968 0.0
C980 C 0.67256 0.90856 0.47165 0.0
C981 C 0.69191 0.93359 0.43576 0.0
C982 C 0.67181 0.89655 0.49269 0.0
C983 C 0.68825 0.89491 0.49875 0.0
C984 C 0.68997 0.91923 0.45668 0.0
C985 C 0.70501 0.90494 0.48246 0.0
C986 C 0.71013 0.94623 0.42347 0.0
C987 C 0.67706 0.94798 0.40979 0.0
N988 N 0.70552 0.91686 0.46234 0.0
N989 N 0.676 0.93497 0.42863 0.0
H990 H 0.097 0.7367 0.39936 0.0
H991 H 0.08654 0.79999 0.5146 0.0
H992 H 0.04165 0.73375 0.41358 0.0
H993 H 0.14223 0.81354 0.48012 0.0
H994 H 0.06944 0.77761 0.47658 0.0
H995 H 0.11346 0.76585 0.42832 0.0
C996 C 0.08826 0.74215 0.40872 0.0
C997 C 0.06784 0.73256 0.4044 0.0
C998 C 0.08541 0.78588 0.47704 0.0
C999 C 0.08675 0.76623 0.43769 0.0
C1000 C 0.09518 0.79865 0.4987 0.0
C1001 C 0.11584 0.80839 0.50078 0.0
C1002 C 0.0964 0.78271 0.45757 0.0
C1003 C 0.12631 0.80635 0.47946 0.0
C1004 C 0.09774 0.75899 0.42506 0.0
C1005 C 0.05739 0.74061 0.4166 0.0
N1006 N 0.11647 0.79344 0.45904 0.0
N1007 N 0.06693 0.75687 0.43308 0.0
H1008 H 0.31282 0.05877 0.74026 0.0
H1009 H 0.39449 0.13843 0.83831 0.0
H1010 H 0.37293 0.07167 0.73767 0.0
H1011 H 0.33967 0.13549 0.82066 0.0
H1012 H 0.3878 0.11453 0.80176 0.0
H1013 H 0.32288 0.08658 0.77085 0.0
C1014 C 0.32817 0.06737 0.74625 0.0
C1015 C 0.34203 0.06272 0.73648 0.0
C1016 C 0.37744 0.11941 0.80561 0.0
C1017 C 0.3537 0.09494 0.77163 0.0
C1018 C 0.38123 0.13301 0.8264 0.0
C1019 C 0.36755 0.13884 0.83255 0.0
C1020 C 0.35972 0.11143 0.79119 0.0
C1021 C 0.35067 0.13152 0.8165 0.0
C1022 C 0.33394 0.08344 0.76358 0.0
C1023 C 0.36175 0.07468 0.74479 0.0
N1024 N 0.34712 0.11799 0.79681 0.0
N1025 N 0.367 0.0902 0.76211 0.0
H1026 H 0.96795 0.28497 0.74062 0.0
H1027 H 0.86383 0.22509 0.81621 0.0
H1028 H 0.91957 0.29477 0.72796 0.0
H1029 H 0.91552 0.2243 0.84149 0.0
H1030 H 0.88274 0.24659 0.77878 0.0
H1031 H 0.94803 0.25973 0.77404 0.0
C1032 C 0.95322 0.28194 0.74495 0.0
C1033 C 0.94552 0.29215 0.73148 0.0
C1034 C 0.88989 0.24153 0.79234 0.0
C1035 C 0.92251 0.26298 0.76935 0.0
C1036 C 0.87902 0.22904 0.81347 0.0
C1037 C 0.88816 0.22302 0.83202 0.0
C1038 C 0.91002 0.24796 0.78969 0.0
C1039 C 0.90798 0.22879 0.82774 0.0
C1040 C 0.94183 0.26746 0.76394 0.0
C1041 C 0.92625 0.28745 0.73788 0.0
N1042 N 0.9183 0.24107 0.80715 0.0
N1043 N 0.91543 0.2732 0.75625 0.0
H1044 H 0.72116 0.62751 0.72275 0.0
H1045 H 0.78927 0.68814 0.8469 0.0
H1046 H 0.73386 0.68672 0.74351 0.0
H1047 H 0.78789 0.63698 0.81134 0.0
H1048 H 0.76942 0.68846 0.8095 0.0
H1049 H 0.74499 0.63068 0.75605 0.0
C1050 C 0.72885 0.64118 0.73441 0.0
C1051 C 0.72532 0.65684 0.7303 0.0
C1052 C 0.77371 0.67736 0.80964 0.0
C1053 C 0.75296 0.66058 0.76865 0.0
C1054 C 0.78509 0.67721 0.83091 0.0
C1055 C 0.79017 0.66246 0.83223 0.0
C1056 C 0.76711 0.66247 0.78973 0.0
C1057 C 0.7844 0.64867 0.81102 0.0
C1058 C 0.74264 0.64303 0.75332 0.0
C1059 C 0.736 0.67423 0.74599 0.0
N1060 N 0.77294 0.64883 0.79086 0.0
N1061 N 0.74925 0.67558 0.76458 0.0
H1062 H 0.73538 0.64749 0.61277 0.0
H1063 H 0.80893 0.7292 0.51083 0.0
H1064 H 0.74208 0.70583 0.60996 0.0
H1065 H 0.81321 0.67869 0.53456 0.0
H1066 H 0.78529 0.72204 0.54726 0.0
H1067 H 0.76378 0.65908 0.5835 0.0
C1068 C 0.74275 0.66276 0.60589 0.0
C1069 C 0.73613 0.67564 0.6137 0.0
C1070 C 0.79171 0.71278 0.54483 0.0
C1071 C 0.76901 0.6891 0.58003 0.0
C1072 C 0.80523 0.71689 0.52412 0.0
C1073 C 0.81296 0.70445 0.51959 0.0
C1074 C 0.78565 0.69593 0.56082 0.0
C1075 C 0.80772 0.68873 0.5374 0.0
C1076 C 0.75915 0.66942 0.58933 0.0
C1077 C 0.74658 0.69535 0.60436 0.0
N1078 N 0.79415 0.68472 0.55692 0.0
N1079 N 0.7624 0.70144 0.58778 0.0
H1080 H 0.29192 0.04357 0.61891 0.0
H1081 H 0.36058 0.12952 0.51581 0.0
H1082 H 0.35467 0.06779 0.61148 0.0
H1083 H 0.29873 0.1082 0.52628 0.0
H1084 H 0.359 0.10838 0.55265 0.0
H1085 H 0.29422 0.0676 0.58611 0.0
C1086 C 0.3062 0.05386 0.61033 0.0
C1087 C 0.32314 0.05353 0.61804 0.0
C1088 C 0.3458 0.10846 0.54721 0.0
C1089 C 0.32584 0.08133 0.5804 0.0
C1090 C 0.34673 0.12063 0.52629 0.0
C1091 C 0.32976 0.1206 0.51807 0.0
C1092 C 0.32769 0.09594 0.5599 0.0
C1093 C 0.31217 0.10876 0.53218 0.0
C1094 C 0.30749 0.06768 0.59165 0.0
C1095 C 0.34119 0.06737 0.60617 0.0
N1096 N 0.31153 0.09672 0.55224 0.0
N1097 N 0.34205 0.08066 0.58797 0.0
H1098 H 0.92048 0.27473 0.62216 0.0
H1099 H 0.9289 0.21212 0.50374 0.0
H1100 H 0.9752 0.27708 0.60489 0.0
H1101 H 0.87359 0.19974 0.53817 0.0
H1102 H 0.94627 0.23365 0.54232 0.0
H1103 H 0.90322 0.24586 0.59275 0.0
C1104 C 0.9289 0.26918 0.61209 0.0
C1105 C 0.94938 0.27855 0.61565 0.0
C1106 C 0.93031 0.22584 0.54174 0.0
C1107 C 0.92958 0.24526 0.5818 0.0
C1108 C 0.92039 0.21353 0.51977 0.0
C1109 C 0.89979 0.20436 0.51757 0.0
C1110 C 0.91954 0.22917 0.56141 0.0
C1111 C 0.88946 0.20651 0.53899 0.0
C1112 C 0.91897 0.25253 0.59547 0.0
C1113 C 0.95942 0.2704 0.60251 0.0
N1114 N 0.89948 0.219 0.55974 0.0
N1115 N 0.94944 0.25436 0.58579 0.0
H1116 H 0.37535 0.28585 0.61102 0.0
H1117 H 0.29462 0.20972 0.50813 0.0
H1118 H 0.31637 0.27609 0.60868 0.0
H1119 H 0.34907 0.21178 0.52545 0.0
H1120 H 0.30141 0.23323 0.54519 0.0
H1121 H 0.3654 0.25853 0.57952 0.0
C1122 C 0.36027 0.27801 0.60379 0.0
C1123 C 0.34672 0.28345 0.61236 0.0
C1124 C 0.3117 0.2283 0.54112 0.0
C1125 C 0.33517 0.25184 0.57613 0.0
C1126 C 0.30786 0.21493 0.52 0.0
C1127 C 0.32136 0.2089 0.51367 0.0
C1128 C 0.32928 0.23583 0.55577 0.0
C1129 C 0.3382 0.21592 0.52974 0.0
C1130 C 0.35456 0.26225 0.58591 0.0
C1131 C 0.32732 0.27246 0.60253 0.0
N1132 N 0.34178 0.22919 0.54983 0.0
N1133 N 0.32215 0.25724 0.5847 0.0
H1134 H 0.71887 0.06265 0.60932 0.0
H1135 H 0.82282 0.12351 0.53355 0.0
H1136 H 0.76812 0.05439 0.62307 0.0
H1137 H 0.77038 0.12245 0.50723 0.0
H1138 H 0.80416 0.10216 0.5712 0.0
H1139 H 0.73838 0.08757 0.57533 0.0
C1140 C 0.73371 0.06596 0.60513 0.0
C1141 C 0.74178 0.05628 0.61905 0.0
C1142 C 0.79678 0.10676 0.55735 0.0
C1143 C 0.7643 0.08505 0.5805 0.0
C1144 C 0.80749 0.11916 0.53606 0.0
C1145 C 0.7981 0.12465 0.51718 0.0
C1146 C 0.77654 0.09988 0.55983 0.0
C1147 C 0.77812 0.11836 0.52121 0.0
C1148 C 0.74486 0.08025 0.58579 0.0
C1149 C 0.76116 0.06131 0.61279 0.0
N1150 N 0.76797 0.1062 0.54198 0.0
N1151 N 0.77174 0.07536 0.59409 0.0
H1152 H 0.96346 0.72058 0.62675 0.0
H1153 H 0.89497 0.65914 0.50316 0.0
H1154 H 0.95116 0.66151 0.60601 0.0
H1155 H 0.89671 0.71071 0.53787 0.0
H1156 H 0.91501 0.65912 0.54051 0.0
H1157 H 0.93956 0.71723 0.59345 0.0
C1158 C 0.95584 0.70691 0.6151 0.0
C1159 C 0.9595 0.69133 0.61923 0.0
C1160 C 0.91076 0.67025 0.54021 0.0
C1161 C 0.93177 0.68738 0.58087 0.0
C1162 C 0.89927 0.67022 0.51897 0.0
C1163 C 0.89422 0.68499 0.51742 0.0
C1164 C 0.91752 0.68534 0.55986 0.0
C1165 C 0.90015 0.69899 0.53838 0.0
C1166 C 0.94202 0.70496 0.59617 0.0
C1167 C 0.94893 0.67394 0.60352 0.0
N1168 N 0.91172 0.699 0.55852 0.0
N1169 N 0.93562 0.67248 0.58494 0.0
H1170 H 0.94302 0.64064 0.73901 0.0
H1171 H 0.86905 0.66716 0.81306 0.0
H1172 H 0.94668 0.69759 0.73542 0.0
H1173 H 0.87616 0.61856 0.83794 0.0
H1174 H 0.8921 0.67383 0.7763 0.0
H1175 H 0.91409 0.62851 0.76854 0.0
C1176 C 0.93776 0.65057 0.74437 0.0
C1177 C 0.94749 0.67026 0.735 0.0
C1178 C 0.8884 0.6615 0.78956 0.0
C1179 C 0.91426 0.65636 0.76811 0.0
C1180 C 0.87502 0.65752 0.81034 0.0
C1181 C 0.87081 0.6424 0.82875 0.0
C1182 C 0.89763 0.65027 0.78708 0.0
C1183 C 0.87922 0.63054 0.82438 0.0
C1184 C 0.92126 0.64363 0.76114 0.0
C1185 C 0.93992 0.68241 0.74245 0.0
N1186 N 0.89241 0.63486 0.80416 0.0
N1187 N 0.92381 0.67527 0.75847 0.0
H1188 H 0.33131 0.28065 0.73747 0.0
H1189 H 0.38668 0.23615 0.82081 0.0
H1190 H 0.39374 0.30264 0.73172 0.0
H1191 H 0.32602 0.21898 0.83377 0.0
H1192 H 0.3886 0.25802 0.78442 0.0
H1193 H 0.32836 0.25621 0.77038 0.0
C1194 C 0.34442 0.28048 0.74321 0.0
C1195 C 0.36281 0.29386 0.73175 0.0
C1196 C 0.3748 0.2493 0.79504 0.0
C1197 C 0.35947 0.26563 0.76918 0.0
C1198 C 0.37366 0.23665 0.81557 0.0
C1199 C 0.3562 0.2258 0.83033 0.0
C1200 C 0.35833 0.25104 0.7892 0.0
C1201 C 0.33981 0.2272 0.82296 0.0
C1202 C 0.34271 0.26642 0.76192 0.0
C1203 C 0.37924 0.29274 0.73996 0.0
N1204 N 0.3413 0.23967 0.80308 0.0
N1205 N 0.37717 0.27889 0.75804 0.0
H1206 H 0.76614 0.07406 0.72841 0.0
H1207 H 0.75688 0.13602 0.84735 0.0
H1208 H 0.7109 0.07039 0.74638 0.0
H1209 H 0.81229 0.14887 0.81273 0.0
H1210 H 0.73955 0.11415 0.809 0.0
H1211 H 0.78304 0.10282 0.75803 0.0
C1212 C 0.75752 0.07929 0.73869 0.0
C1213 C 0.737 0.06958 0.73524 0.0
C1214 C 0.75552 0.12212 0.80951 0.0
C1215 C 0.75642 0.10278 0.76939 0.0
C1216 C 0.76542 0.13462 0.83136 0.0
C1217 C 0.78606 0.14407 0.83345 0.0
C1218 C 0.76634 0.1189 0.7898 0.0
C1219 C 0.7964 0.14193 0.81202 0.0
C1220 C 0.76724 0.09589 0.75545 0.0
C1221 C 0.72672 0.07735 0.74866 0.0
N1222 N 0.78641 0.12929 0.79139 0.0
N1223 N 0.73651 0.09336 0.7655 0.0
H1224 H 0.05075 0.33604 0.03863 0.0
H1225 H 0.1584 0.40661 0.08987 0.0
H1226 H 0.08321 0.3974 0.01363 0.0
H1227 H 0.1346 0.34374 0.0776 0.0
H1228 H 0.13226 0.40464 0.06112 0.0
H1229 H 0.08159 0.33901 0.05343 0.0
C1230 C 0.06442 0.35014 0.03614 0.0
C1231 C 0.0644 0.36653 0.02501 0.0
C1232 C 0.13314 0.3914 0.06397 0.0
C1233 C 0.09985 0.37012 0.04223 0.0
C1234 C 0.14818 0.39259 0.0801 0.0
C1235 C 0.14883 0.37538 0.08567 0.0
C1236 C 0.11831 0.37275 0.05413 0.0
C1237 C 0.13482 0.35741 0.07335 0.0
C1238 C 0.08205 0.35178 0.04442 0.0
C1239 C 0.08258 0.3844 0.0221 0.0
N1240 N 0.11989 0.35646 0.05866 0.0
N1241 N 0.09956 0.38584 0.03109 0.0
H1242 H 0.66023 0.69405 0.07028 0.0
H1243 H 0.67267 0.79731 0.06276 0.0
H1244 H 0.65605 0.7118 0.99016 0.0
H1245 H 0.62652 0.75249 0.11201 0.0
H1246 H 0.67248 0.77058 0.03573 0.0
H1247 H 0.65506 0.72035 0.08824 0.0
C1248 C 0.65843 0.70363 0.05651 0.0
C1249 C 0.65856 0.70084 0.02877 0.0
C1250 C 0.66199 0.76671 0.05195 0.0
C1251 C 0.65294 0.73092 0.04907 0.0
C1252 C 0.66193 0.78188 0.0671 0.0
C1253 C 0.64956 0.777 0.08953 0.0
C1254 C 0.64999 0.7468 0.05993 0.0
C1255 C 0.63623 0.75679 0.0948 0.0
C1256 C 0.65533 0.71845 0.06672 0.0
C1257 C 0.65598 0.71353 0.01172 0.0
N1258 N 0.6372 0.74243 0.08064 0.0
N1259 N 0.6535 0.72827 0.02213 0.0
H1260 H 0.31736 0.94167 0.00593 0.0
H1261 H 0.21803 0.89876 0.09136 0.0
H1262 H 0.3021 0.97863 0.05238 0.0
H1263 H 0.24597 0.86474 0.07615 0.0
H1264 H 0.24397 0.92638 0.06546 0.0
H1265 H 0.28719 0.91202 0.02158 0.0
C1266 C 0.30764 0.94357 0.01935 0.0
C1267 C 0.31236 0.96268 0.02807 0.0
C1268 C 0.24412 0.91266 0.06712 0.0
C1269 C 0.27758 0.92878 0.0455 0.0
C1270 C 0.22913 0.89677 0.08142 0.0
C1271 C 0.2297 0.87935 0.08541 0.0
C1272 C 0.25978 0.91108 0.05666 0.0
C1273 C 0.2448 0.87777 0.073 0.0
C1274 C 0.29042 0.92663 0.02821 0.0
C1275 C 0.29914 0.9642 0.04537 0.0
N1276 N 0.25937 0.89352 0.05934 0.0
N1277 N 0.28232 0.94748 0.05346 0.0
H1278 H 0.39481 0.07412 0.00137 0.0
H1279 H 0.33903 0.12421 0.93375 0.0
H1280 H 0.33534 0.04104 0.97074 0.0
H1281 H 0.40212 0.15114 0.9305 0.0
H1282 H 0.33687 0.09696 0.96042 0.0
H1283 H 0.39702 0.10523 0.98696 0.0
C1284 C 0.38217 0.07341 0.99186 0.0
C1285 C 0.36492 0.05493 0.98703 0.0
C1286 C 0.35125 0.10914 0.95457 0.0
C1287 C 0.36722 0.09043 0.97108 0.0
C1288 C 0.3525 0.12488 0.9398 0.0
C1289 C 0.3708 0.14012 0.93032 0.0
C1290 C 0.36843 0.10867 0.96001 0.0
C1291 C 0.38778 0.13987 0.93788 0.0
C1292 C 0.38345 0.09115 0.98365 0.0
C1293 C 0.34899 0.05491 0.97462 0.0
N1294 N 0.38619 0.12429 0.95207 0.0
N1295 N 0.35051 0.07234 0.96714 0.0
H1296 H 0.98958 0.30224 0.96189 0.0
H1297 H 0.87476 0.2422 0.93932 0.0
H1298 H 0.95197 0.31672 0.00729 0.0
H1299 H 0.91102 0.21666 0.92524 0.0
H1300 H 0.90167 0.26902 0.96582 0.0
H1301 H 0.96043 0.27092 0.94766 0.0
C1302 C 0.97518 0.29882 0.96884 0.0
C1303 C 0.97319 0.31213 0.98567 0.0
C1304 C 0.9035 0.2572 0.95763 0.0
C1305 C 0.9397 0.27633 0.96944 0.0
C1306 C 0.88804 0.24175 0.94287 0.0
C1307 C 0.8907 0.2272 0.93028 0.0
C1308 C 0.92175 0.25818 0.95921 0.0
C1309 C 0.9084 0.22758 0.93482 0.0
C1310 C 0.95855 0.28087 0.96092 0.0
C1311 C 0.95415 0.30688 0.99425 0.0
N1312 N 0.9234 0.24306 0.94839 0.0
N1313 N 0.9381 0.28949 0.98578 0.0
H1314 H 0.7191 0.68504 0.97405 0.0
H1315 H 0.76456 0.62059 0.92968 0.0
H1316 H 0.69306 0.6242 0.00015 0.0
H1317 H 0.7983 0.68471 0.9337 0.0
H1318 H 0.7391 0.62076 0.95802 0.0
H1319 H 0.74862 0.68481 0.96036 0.0
C1320 C 0.71965 0.67163 0.97701 0.0
C1321 C 0.70356 0.65458 0.98808 0.0
C1322 C 0.75238 0.63476 0.95346 0.0
C1323 C 0.73737 0.6541 0.97217 0.0
C1324 C 0.767 0.63463 0.9376 0.0
C1325 C 0.7836 0.65266 0.9297 0.0
C1326 C 0.75428 0.65307 0.96085 0.0
C1327 C 0.78581 0.67051 0.93969 0.0
C1328 C 0.73659 0.67154 0.96935 0.0
C1329 C 0.70516 0.63767 0.99166 0.0
N1330 N 0.77116 0.67029 0.95429 0.0
N1331 N 0.72165 0.63773 0.98331 0.0
H1332 H 0.97485 0.6798 0.96697 0.0
H1333 H 0.86101 0.61492 0.93374 0.0
H1334 H 0.93807 0.62129 0.0005 0.0
H1335 H 0.8953 0.67851 0.92331 0.0
H1336 H 0.88776 0.6168 0.96093 0.0
H1337 H 0.94535 0.67952 0.95218 0.0
C1338 C 0.96053 0.66686 0.97125 0.0
C1339 C 0.95895 0.65047 0.98481 0.0
C1340 C 0.88921 0.63043 0.95342 0.0
C1341 C 0.92493 0.65002 0.96778 0.0
C1342 C 0.87384 0.62938 0.93822 0.0
C1343 C 0.87585 0.64664 0.92678 0.0
C1344 C 0.9069 0.64883 0.95654 0.0
C1345 C 0.89305 0.66494 0.93227 0.0
C1346 C 0.94365 0.66678 0.96296 0.0
C1347 C 0.93997 0.63422 0.99002 0.0
N1348 N 0.90804 0.66551 0.94636 0.0
N1349 N 0.92369 0.63429 0.9812 0.0
H1350 H 0.32652 0.29916 0.95846 0.0
H1351 H 0.37535 0.23324 0.94429 0.0
H1352 H 0.37692 0.31032 0.00557 0.0
H1353 H 0.317 0.21448 0.91544 0.0
H1354 H 0.37481 0.25935 0.97119 0.0
H1355 H 0.32195 0.26696 0.94463 0.0
C1356 C 0.33664 0.29484 0.96585 0.0
C1357 C 0.35223 0.30751 0.98295 0.0
C1358 C 0.36187 0.24914 0.95962 0.0
C1359 C 0.34706 0.27062 0.96739 0.0
C1360 C 0.36207 0.23404 0.94463 0.0
C1361 C 0.34624 0.22182 0.92759 0.0
C1362 C 0.34583 0.25211 0.95717 0.0
C1363 C 0.32951 0.22369 0.92833 0.0
C1364 C 0.33393 0.27637 0.95818 0.0
C1365 C 0.36477 0.30106 0.99219 0.0
N1366 N 0.32992 0.23888 0.94232 0.0
N1367 N 0.36204 0.28316 0.98408 0.0
H1368 H 0.70332 0.07201 0.01172 0.0
H1369 H 0.79683 0.11101 0.91461 0.0
H1370 H 0.714 0.03396 0.96011 0.0
H1371 H 0.77756 0.14937 0.94705 0.0
H1372 H 0.77123 0.08328 0.94068 0.0
H1373 H 0.73428 0.10087 -0.00378 0.0
C1374 C 0.7122 0.06971 -0.00279 0.0
C1375 C 0.70597 0.05056 0.98699 0.0
C1376 C 0.77291 0.09788 0.94269 0.0
C1377 C 0.74156 0.08347 0.96954 0.0
C1378 C 0.78775 0.11377 0.92821 0.0
C1379 C 0.78947 0.13252 0.92911 0.0
C1380 C 0.75962 0.10075 0.95805 0.0
C1381 C 0.77692 0.1352 0.94628 0.0
C1382 C 0.72989 0.08618 0.98843 0.0
C1383 C 0.71813 0.04846 0.96832 0.0
N1384 N 0.76234 0.11943 0.95987 0.0
N1385 N 0.73531 0.0647 0.9602 0.0
H1386 H 0.68383 0.9752 0.04572 0.0
H1387 H 0.61804 0.86043 0.07795 0.0
H1388 H 0.62562 0.93896 0.01191 0.0
H1389 H 0.68107 0.89398 0.08838 0.0
H1390 H 0.62034 0.88761 0.05089 0.0
H1391 H 0.68304 0.94506 0.05988 0.0
C1392 C 0.67086 0.96086 0.04119 0.0
C1393 C 0.65469 0.95964 0.02777 0.0
C1394 C 0.63375 0.88879 0.05836 0.0
C1395 C 0.65364 0.92483 0.04417 0.0
C1396 C 0.63246 0.87316 0.07348 0.0
C1397 C 0.64945 0.87482 0.08491 0.0
C1398 C 0.65212 0.90643 0.05528 0.0
C1399 C 0.66769 0.89195 0.07942 0.0
C1400 C 0.67047 0.9436 0.04915 0.0
C1401 C 0.63838 0.9406 0.02227 0.0
N1402 N 0.66851 0.90722 0.06542 0.0
N1403 N 0.63815 0.92394 0.03081 0.0
H1404 H 0.06876 0.69982 0.00713 0.0
H1405 H 0.1034 0.79627 0.0997 0.0
H1406 H 0.0296 0.71012 0.05592 0.0
H1407 H 0.14329 0.77846 0.06986 0.0
H1408 H 0.07678 0.76956 0.07319 0.0
H1409 H 0.09641 0.73227 0.02138 0.0
C1410 C 0.06597 0.70892 0.02083 0.0
C1411 C 0.04687 0.70216 0.0306 0.0
C1412 C 0.09147 0.7718 0.07183 0.0
C1413 C 0.07841 0.73948 0.04655 0.0
C1414 C 0.10673 0.78728 0.08654 0.0
C1415 C 0.12553 0.78954 0.08687 0.0
C1416 C 0.09504 0.75848 0.05739 0.0
C1417 C 0.12903 0.77728 0.06992 0.0
C1418 C 0.08175 0.72747 0.02885 0.0
C1419 C 0.04411 0.71464 0.04815 0.0
N1420 N 0.11382 0.762 0.05621 0.0
N1421 N 0.0597 0.73268 0.05558 0.0
H1422 H 0.30234 0.32795 0.04733 0.0
H1423 H 0.24854 0.3878 0.07639 0.0
H1424 H 0.3228 0.38567 0.01262 0.0
H1425 H 0.22221 0.32494 0.09053 0.0
H1426 H 0.27412 0.38713 0.04901 0.0
H1427 H 0.27202 0.32648 0.06102 0.0
C1428 C 0.30046 0.34036 0.0426 0.0
C1429 C 0.31523 0.35705 0.02905 0.0
C1430 C 0.26239 0.37335 0.05737 0.0
C1431 C 0.28034 0.35547 0.04472 0.0
C1432 C 0.24763 0.37369 0.07264 0.0
C1433 C 0.23322 0.35636 0.08549 0.0
C1434 C 0.2628 0.35561 0.05541 0.0
C1435 C 0.23299 0.33856 0.08071 0.0
C1436 C 0.28302 0.33944 0.05023 0.0
C1437 C 0.31182 0.37256 0.02317 0.0
N1438 N 0.24777 0.33871 0.0665 0.0
N1439 N 0.29482 0.37152 0.03134 0.0
H1440 H 0.71009 0.66705 0.37974 0.0
H1441 H 0.82345 0.73251 0.41531 0.0
H1442 H 0.74675 0.72595 0.3473 0.0
H1443 H 0.78968 0.66877 0.42425 0.0
H1444 H 0.79686 0.73062 0.38773 0.0
H1445 H 0.73961 0.66751 0.39487 0.0
C1446 C 0.72438 0.68011 0.37577 0.0
C1447 C 0.72592 0.69656 0.36242 0.0
C1448 C 0.7955 0.71697 0.395 0.0
C1449 C 0.75997 0.69721 0.37984 0.0
C1450 C 0.81078 0.71804 0.41042 0.0
C1451 C 0.80886 0.70072 0.42157 0.0
C1452 C 0.77798 0.6985 0.39134 0.0
C1453 C 0.79186 0.68239 0.41554 0.0
C1454 C 0.74128 0.68029 0.38425 0.0
C1455 C 0.74488 0.71297 0.3576 0.0
N1456 N 0.77694 0.68179 0.40124 0.0
N1457 N 0.76117 0.71299 0.36661 0.0
H1458 H 0.30914 0.03446 0.34111 0.0
H1459 H 0.36934 0.13135 0.43379 0.0
H1460 H 0.35894 0.04642 0.39019 0.0
H1461 H 0.31101 0.11135 0.40374 0.0
H1462 H 0.3701 0.10524 0.40733 0.0
H1463 H 0.31332 0.06645 0.35523 0.0
C1464 C 0.32099 0.04383 0.35484 0.0
C1465 C 0.33359 0.03766 0.36475 0.0
C1466 C 0.35733 0.10687 0.40594 0.0
C1467 C 0.33865 0.07447 0.38057 0.0
C1468 C 0.35704 0.12198 0.42065 0.0
C1469 C 0.34006 0.12342 0.42094 0.0
C1470 C 0.34051 0.09312 0.39143 0.0
C1471 C 0.32441 0.11078 0.4039 0.0
C1472 C 0.3234 0.06212 0.36279 0.0
C1473 C 0.34876 0.05049 0.38231 0.0
N1474 N 0.32484 0.09588 0.39018 0.0
N1475 N 0.35085 0.06828 0.3897 0.0
H1476 H 0.97981 0.27732 0.33118 0.0
H1477 H 0.90441 0.19713 0.40092 0.0
H1478 H 0.97586 0.31287 0.39479 0.0
H1479 H 0.89435 0.24066 0.43924 0.0
H1480 H 0.93039 0.22348 0.37385 0.0
H1481 H 0.94895 0.24867 0.34632 0.0
C1482 C 0.97251 0.27905 0.34852 0.0
C1483 C 0.98061 0.29749 0.36197 0.0
C1484 C 0.92206 0.22732 0.38729 0.0
C1485 C 0.94521 0.26447 0.37988 0.0
C1486 C 0.90705 0.21214 0.4026 0.0
C1487 C 0.89705 0.21672 0.42192 0.0
C1488 C 0.92718 0.24727 0.3916 0.0
C1489 C 0.90154 0.23652 0.42416 0.0
C1490 C 0.95486 0.26258 0.35729 0.0
C1491 C 0.9703 0.29891 0.384 0.0
N1492 N 0.91648 0.25109 0.40955 0.0
N1493 N 0.95319 0.28262 0.39229 0.0
H1494 H 0.06086 0.40836 0.33518 0.0
H1495 H 1.00268 0.45234 0.25801 0.0
H1496 H 1.00284 0.37252 0.30062 0.0
H1497 H 0.06574 0.48535 0.26822 0.0
H1498 H 1.00077 0.42522 0.28473 0.0
H1499 H 0.06133 0.43854 0.32041 0.0
C1500 C 0.04818 0.40684 0.32468 0.0
C1501 C 0.03187 0.38787 0.31888 0.0
C1502 C 0.01499 0.43862 0.28177 0.0
C1503 C 0.03217 0.42228 0.30239 0.0
C1504 C 0.01602 0.45423 0.26694 0.0
C1505 C 0.03434 0.47122 0.26137 0.0
C1506 C 0.03244 0.43999 0.291 0.0
C1507 C 0.0513 0.47264 0.27256 0.0
C1508 C 0.04845 0.42405 0.31628 0.0
C1509 C 0.01583 0.3868 0.30527 0.0
N1510 N 0.04998 0.45714 0.28662 0.0
N1511 N 0.01638 0.40371 0.29751 0.0
H1512 H 0.65584 0.63714 0.29068 0.0
H1513 H 0.53983 0.56774 0.27943 0.0
H1514 H 0.61606 0.64655 0.3394 0.0
H1515 H 0.58036 0.55092 0.24908 0.0
H1516 H 0.5668 0.59476 0.30535 0.0
H1517 H 0.6281 0.60463 0.27689 0.0
C1518 C 0.64126 0.63238 0.29842 0.0
C1519 C 0.63823 0.64464 0.31602 0.0
C1520 C 0.56969 0.58479 0.29368 0.0
C1521 C 0.60637 0.60737 0.30047 0.0
C1522 C 0.5542 0.56916 0.27926 0.0
C1523 C 0.55792 0.55712 0.26217 0.0
C1524 C 0.589 0.5885 0.29057 0.0
C1525 C 0.57693 0.55988 0.26214 0.0
C1526 C 0.62544 0.61373 0.29076 0.0
C1527 C 0.61904 0.63762 0.32567 0.0
N1528 N 0.59186 0.57555 0.27558 0.0
N1529 N 0.60381 0.61954 0.31758 0.0
H1530 H 0.35931 0.95564 0.33405 0.0
H1531 H 0.46521 0.018 0.26408 0.0
H1532 H 0.38476 0.01557 0.30446 0.0
H1533 H 0.43142 0.95383 0.2619 0.0
H1534 H 0.43972 0.01801 0.29212 0.0
H1535 H 0.38892 0.95544 0.3189 0.0
C1536 C 0.37117 0.96878 0.32456 0.0
C1537 C 0.36951 0.98558 0.32023 0.0
C1538 C 0.43811 1.00389 0.28616 0.0
C1539 C 0.40343 0.9856 0.30355 0.0
C1540 C 0.4528 1.00389 0.27056 0.0
C1541 C 0.45046 0.98589 0.26102 0.0
C1542 C 0.42089 0.98575 0.29213 0.0
C1543 C 0.43385 0.96799 0.26928 0.0
C1544 C 0.38801 0.96865 0.31597 0.0
C1545 C 0.3853 1.00222 0.3079 0.0
N1546 N 0.41951 0.96835 0.28411 0.0
N1547 N 0.40158 1.00182 0.30005 0.0
H1548 H 0.60563 0.95515 0.33552 0.0
H1549 H 0.56066 0.01249 0.25843 0.0
H1550 H 0.6403 0.01382 0.30158 0.0
H1551 H 0.52969 0.94857 0.26501 0.0
H1552 H 0.58731 0.01481 0.28622 0.0
H1553 H 0.57547 0.95403 0.32031 0.0
C1554 C 0.60689 0.96785 0.32512 0.0
C1555 C 0.62551 0.98452 0.31955 0.0
C1556 C 0.57444 1.0003 0.28223 0.0
C1557 C 0.59117 0.98348 0.3026 0.0
C1558 C 0.5591 0.99901 0.26677 0.0
C1559 C 0.54286 0.98035 0.25987 0.0
C1560 C 0.57355 0.98276 0.29076 0.0
C1561 C 0.54184 0.96325 0.27036 0.0
C1562 C 0.5897 0.96719 0.31645 0.0
C1563 C 0.62628 1.00057 0.30604 0.0
N1564 N 0.55707 0.96483 0.28508 0.0
N1565 N 0.6094 0.99964 0.29804 0.0
H1566 H 0.02225 0.65128 0.27916 0.0
H1567 H 0.01038 0.54816 0.28465 0.0
H1568 H 0.0273 0.63339 0.35882 0.0
H1569 H 0.05653 0.59359 0.23603 0.0
H1570 H 0.01031 0.57458 0.31214 0.0
H1571 H 0.0272 0.62498 0.26058 0.0
C1572 C 0.02416 0.64166 0.2927 0.0
C1573 C 0.02437 0.64442 0.32049 0.0
C1574 C 0.02084 0.57864 0.29594 0.0
C1575 C 0.02975 0.61436 0.29949 0.0
C1576 C 0.02105 0.56365 0.28053 0.0
C1577 C 0.03351 0.5688 0.25816 0.0
C1578 C 0.03277 0.59863 0.28827 0.0
C1579 C 0.04675 0.58909 0.25318 0.0
C1580 C 0.02714 0.62683 0.28214 0.0
C1581 C 0.02711 0.63168 0.33723 0.0
N1582 N 0.04564 0.60326 0.2676 0.0
N1583 N 0.02948 0.61696 0.32648 0.0
H1584 H 0.38348 0.36672 0.29769 0.0
H1585 H 0.46981 0.45397 0.26816 0.0
H1586 H 0.36649 0.40323 0.34184 0.0
H1587 H 0.43172 0.47818 0.26642 0.0
H1588 H 0.44487 0.42572 0.2943 0.0
H1589 H 0.41349 0.397 0.2831 0.0
C1590 C 0.38612 0.38111 0.30443 0.0
C1591 C 0.37247 0.38245 0.32101 0.0
C1592 C 0.44215 0.43744 0.28871 0.0
C1593 C 0.40687 0.41718 0.3046 0.0
C1594 C 0.45656 0.45378 0.27438 0.0
C1595 C 0.45288 0.46851 0.26547 0.0
C1596 C 0.42392 0.43585 0.2941 0.0
C1597 C 0.4352 0.46725 0.27331 0.0
C1598 C 0.40338 0.39838 0.29639 0.0
C1599 C 0.37666 0.40151 0.32913 0.0
N1600 N 0.42127 0.45108 0.287 0.0
N1601 N 0.39333 0.41815 0.3205 0.0
H1602 H 0.29123 0.27004 0.33875 0.0
H1603 H 0.28306 0.19152 0.41612 0.0
H1604 H 0.34749 0.3027 0.3789 0.0
H1605 H 0.34645 0.22292 0.4123 0.0
H1606 H 0.28327 0.21737 0.38851 0.0
H1607 H 0.28856 0.2387 0.35275 0.0
C1608 C 0.30304 0.27062 0.35042 0.0
C1609 C 0.31949 0.28906 0.35795 0.0
C1610 C 0.29711 0.21824 0.39266 0.0
C1611 C 0.31655 0.25326 0.37409 0.0
C1612 C 0.29696 0.20333 0.40823 0.0
C1613 C 0.31474 0.20482 0.4159 0.0
C1614 C 0.31524 0.23502 0.38527 0.0
C1615 C 0.33241 0.22096 0.40623 0.0
C1616 C 0.30145 0.25272 0.35855 0.0
C1617 C 0.33442 0.28888 0.37292 0.0
N1618 N 0.33225 0.23563 0.39197 0.0
N1619 N 0.33259 0.27133 0.38043 0.0
H1620 H 0.73735 0.03161 0.33905 0.0
H1621 H 0.77644 0.13259 0.42323 0.0
H1622 H 0.69998 0.04743 0.38253 0.0
H1623 H 0.81211 0.10627 0.41011 0.0
H1624 H 0.7503 0.10622 0.39573 0.0
H1625 H 0.76638 0.06284 0.35444 0.0
C1626 C 0.73524 0.04169 0.35172 0.0
C1627 C 0.71623 0.03686 0.35976 0.0
C1628 C 0.76404 0.10648 0.39825 0.0
C1629 C 0.74928 0.0727 0.3768 0.0
C1630 C 0.77906 0.12169 0.41354 0.0
C1631 C 0.79643 0.1216 0.41875 0.0
C1632 C 0.7664 0.09104 0.38812 0.0
C1633 C 0.799 0.10695 0.40625 0.0
C1634 C 0.7518 0.05949 0.36041 0.0
C1635 C 0.71436 0.05048 0.37609 0.0
N1636 N 0.78398 0.09202 0.39178 0.0
N1637 N 0.73066 0.06779 0.38403 0.0
H1638 H 0.96538 0.66144 0.37726 0.0
H1639 H 0.91996 0.72628 0.41985 0.0
H1640 H 0.99151 0.72206 0.35018 0.0
H1641 H 0.88604 0.66216 0.41611 0.0
H1642 H 0.94554 0.72592 0.39199 0.0
H1643 H 0.93591 0.66188 0.39071 0.0
C1644 C 0.96487 0.67485 0.37406 0.0
C1645 C 0.98097 0.69178 0.36276 0.0
C1646 C 0.93219 0.71196 0.39649 0.0
C1647 C 0.94721 0.69247 0.37835 0.0
C1648 C 0.9175 0.7122 0.41207 0.0
C1649 C 0.90081 0.69422 0.41992 0.0
C1650 C 0.93028 0.6936 0.38935 0.0
C1651 C 0.8986 0.67632 0.41014 0.0
C1652 C 0.94797 0.67505 0.38157 0.0
C1653 C 0.97942 0.70869 0.35887 0.0
N1654 N 0.91332 0.67643 0.39583 0.0
N1655 N 0.96294 0.70874 0.36705 0.0
H1656 H 0.38231 1.00121 0.70338 0.0
H1657 H 0.48929 0.07319 0.75722 0.0
H1658 H 0.41364 0.06333 0.68187 0.0
H1659 H 0.46644 0.01054 0.74444 0.0
H1660 H 0.46305 0.0709 0.72844 0.0
H1661 H 0.41332 1.00472 0.71843 0.0
C1662 C 0.39576 0.0156 0.7017 0.0
C1663 C 0.39536 0.03204 0.69148 0.0
C1664 C 0.46414 0.05779 0.7312 0.0
C1665 C 0.43103 0.03622 0.70902 0.0
C1666 C 0.47925 0.05916 0.74735 0.0
C1667 C 0.48022 0.04209 0.75279 0.0
C1668 C 0.44954 0.03909 0.72114 0.0
C1669 C 0.46643 0.0241 0.7403 0.0
C1670 C 0.41351 0.01755 0.71014 0.0
C1671 C 0.4133 0.05028 0.68961 0.0
N1672 N 0.45143 0.02297 0.72555 0.0
N1673 N 0.43037 0.05198 0.69872 0.0
H1674 H 0.97465 0.36652 0.67013 0.0
H1675 H 0.03545 0.46506 0.75994 0.0
H1676 H 0.0265 0.38108 0.71623 0.0
H1677 H 0.97535 0.44239 0.73546 0.0
H1678 H 0.03617 0.4393 0.73258 0.0
H1679 H 0.97793 0.39817 0.6845 0.0
C1680 C 0.98677 0.37641 0.68319 0.0
C1681 C 1.00021 0.37107 0.69226 0.0
C1682 C 0.02299 0.44026 0.73258 0.0
C1683 C 1.00424 0.40743 0.70828 0.0
C1684 C 0.0227 0.45517 0.7478 0.0
C1685 C 1.00532 0.45581 0.74988 0.0
C1686 C 1.00575 0.42585 0.71941 0.0
C1687 C 0.98907 0.44246 0.73417 0.0
C1688 C 0.98865 0.39448 0.69129 0.0
C1689 C 0.01568 0.3845 0.70901 0.0
N1690 N 0.98953 0.42775 0.71994 0.0
N1691 N 0.01726 0.40203 0.7165 0.0
H1692 H 0.64179 0.65323 0.726 0.0
H1693 H 0.57432 0.53504 0.73245 0.0
H1694 H 0.64923 0.61424 0.67188 0.0
H1695 H 0.56024 0.57494 0.77311 0.0
H1696 H 0.59999 0.56331 0.70701 0.0
H1697 H 0.61095 0.62459 0.74187 0.0
C1698 C 0.63693 0.63864 0.71744 0.0
C1699 C 0.6482 0.63613 0.69771 0.0
C1700 C 0.59092 0.56583 0.72092 0.0
C1701 C 0.61279 0.60316 0.71578 0.0
C1702 C 0.57607 0.54962 0.73511 0.0
C1703 C 0.56496 0.55265 0.75449 0.0
C1704 C 0.59492 0.58522 0.72665 0.0
C1705 C 0.56828 0.57197 0.75795 0.0
C1706 C 0.61923 0.62228 0.72638 0.0
C1707 C 0.64107 0.61686 0.68721 0.0
N1708 N 0.58315 0.58755 0.74452 0.0
N1709 N 0.62394 0.60111 0.69652 0.0
H1710 H 0.67063 0.71225 0.64153 0.0
H1711 H 0.73779 0.82204 0.59306 0.0
H1712 H 0.73153 0.7464 0.66635 0.0
H1713 H 0.67525 0.79575 0.60447 0.0
H1714 H 0.73685 0.79585 0.62094 0.0
H1715 H 0.6725 0.74302 0.62749 0.0
C1716 C 0.68441 0.72627 0.64409 0.0
C1717 C 0.70099 0.72675 0.65497 0.0
C1718 C 0.72345 0.79618 0.61811 0.0
C1719 C 0.70329 0.76213 0.63869 0.0
C1720 C 0.72404 0.81127 0.60251 0.0
C1721 C 0.70662 0.81123 0.5969 0.0
C1722 C 0.70521 0.78062 0.62742 0.0
C1723 C 0.68904 0.79652 0.60877 0.0
C1724 C 0.68542 0.74386 0.63627 0.0
C1725 C 0.71841 0.74537 0.65803 0.0
N1726 N 0.68869 0.78156 0.62295 0.0
N1727 N 0.71922 0.76231 0.64952 0.0
H1728 H 0.31125 0.98611 0.60647 0.0
H1729 H 0.22341 0.87871 0.61636 0.0
H1730 H 0.29282 0.9655 0.68721 0.0
H1731 H 0.21687 0.9222 0.57265 0.0
H1732 H 0.25119 0.90613 0.64136 0.0
H1733 H 0.27985 0.95793 0.58982 0.0
C1734 C 0.30073 0.97546 0.62059 0.0
C1735 C 0.30451 0.978 0.64816 0.0
C1736 C 0.24322 0.90952 0.62683 0.0
C1737 C 0.26899 0.94593 0.62941 0.0
C1738 C 0.22725 0.89394 0.61293 0.0
C1739 C 0.21781 0.89829 0.59266 0.0
C1740 C 0.24995 0.92932 0.61963 0.0
C1741 C 0.22371 0.91831 0.58833 0.0
C1742 C 0.28284 0.95958 0.61116 0.0
C1743 C 0.29033 0.96396 0.66576 0.0
N1744 N 0.23977 0.93312 0.60112 0.0
N1745 N 0.27318 0.94833 0.65608 0.0
H1746 H 0.05267 0.34981 0.63457 0.0
H1747 H 0.10035 0.28665 0.5951 0.0
H1748 H 0.02874 0.29048 0.66569 0.0
H1749 H 0.13306 0.35084 0.59692 0.0
H1750 H 0.07463 0.28679 0.6229 0.0
H1751 H 0.08232 0.34985 0.62086 0.0
C1752 C 0.05368 0.33677 0.63853 0.0
C1753 C 0.03817 0.32006 0.6511 0.0
C1754 C 0.08775 0.30083 0.61798 0.0
C1755 C 0.07216 0.31995 0.63531 0.0
C1756 C 0.10252 0.30073 0.60245 0.0
C1757 C 0.11888 0.31876 0.59405 0.0
C1758 C 0.08926 0.3191 0.6245 0.0
C1759 C 0.12076 0.33664 0.6033 0.0
C1760 C 0.0707 0.33686 0.63091 0.0
C1761 C 0.04038 0.30365 0.65598 0.0
N1762 N 0.10595 0.33637 0.61755 0.0
N1763 N 0.05695 0.30387 0.6477 0.0
H1764 H 0.27473 0.28865 0.66777 0.0
H1765 H 0.22988 0.34544 0.58882 0.0
H1766 H 0.30955 0.34702 0.63302 0.0
H1767 H 0.19819 0.28173 0.59832 0.0
H1768 H 0.25687 0.34798 0.61606 0.0
H1769 H 0.24464 0.28743 0.65204 0.0
C1770 C 0.27604 0.30125 0.65702 0.0
C1771 C 0.2947 0.31787 0.65146 0.0
C1772 C 0.24379 0.33347 0.61281 0.0
C1773 C 0.26039 0.31673 0.63389 0.0
C1774 C 0.22826 0.33208 0.59767 0.0
C1775 C 0.21167 0.3134 0.59179 0.0
C1776 C 0.24276 0.31602 0.62204 0.0
C1777 C 0.21059 0.29644 0.6029 0.0
C1778 C 0.25888 0.30054 0.64808 0.0
C1779 C 0.29551 0.33379 0.63751 0.0
N1780 N 0.226 0.29811 0.61729 0.0
N1781 N 0.27866 0.33283 0.62925 0.0
H1782 H 0.71085 0.98006 0.68455 0.0
H1783 H 0.71275 0.90442 0.61114 0.0
H1784 H 0.66482 0.96921 0.62861 0.0
H1785 H 0.65367 0.8868 0.58713 0.0
H1786 H 0.71375 0.9305 0.63967 0.0
H1787 H 0.70839 0.94892 0.67001 0.0
C1788 C 0.70029 0.97117 0.66908 0.0
C1789 C 0.68821 0.9774 0.65749 0.0
C1790 C 0.70023 0.92048 0.62911 0.0
C1791 C 0.68541 0.94175 0.6405 0.0
C1792 C 0.69963 0.90543 0.61297 0.0
C1793 C 0.6831 0.89346 0.59687 0.0
C1794 C 0.68416 0.92355 0.62894 0.0
C1795 C 0.66666 0.89573 0.59934 0.0
C1796 C 0.69896 0.95339 0.66069 0.0
C1797 C 0.6746 0.96514 0.63785 0.0
N1798 N 0.66777 0.91077 0.61456 0.0
N1799 N 0.6736 0.94795 0.62998 0.0
H1800 H 0.0335 0.73473 0.67837 0.0
H1801 H 0.12783 0.77633 0.58216 0.0
H1802 H 0.04525 0.69769 0.62627 0.0
H1803 H 0.10672 0.81331 0.614 0.0
H1804 H 0.10233 0.74811 0.60769 0.0
H1805 H 0.06409 0.76408 0.66298 0.0
C1806 C 0.04254 0.73275 0.66376 0.0
C1807 C 0.0367 0.71372 0.6534 0.0
C1808 C 0.10359 0.76252 0.60971 0.0
C1809 C 0.07192 0.74725 0.63606 0.0
C1810 C 0.11838 0.77871 0.59556 0.0
C1811 C 0.11958 0.79723 0.59643 0.0
C1812 C 0.08983 0.76486 0.62477 0.0
C1813 C 0.10652 0.79937 0.61328 0.0
C1814 C 0.06002 0.74951 0.65504 0.0
C1815 C 0.04907 0.71208 0.63461 0.0
N1816 N 0.09204 0.78332 0.62658 0.0
N1817 N 0.06607 0.7286 0.62655 0.0
H1818 H 0.01528 0.63661 0.70751 0.0
H1819 H 0.94884 0.52561 0.75184 0.0
H1820 H 0.95498 0.60191 0.68036 0.0
H1821 H 0.01174 0.55334 0.74306 0.0
H1822 H 0.94979 0.55204 0.72449 0.0
H1823 H 0.01381 0.60592 0.72092 0.0
C1824 C 1.00172 0.6225 0.70429 0.0
C1825 C 0.98519 0.62184 0.69294 0.0
C1826 C 0.9633 0.55199 0.72776 0.0
C1827 C 0.98334 0.58652 0.7085 0.0
C1828 C 0.96271 0.53676 0.74306 0.0
C1829 C 0.98019 0.53712 0.74926 0.0
C1830 C 0.98159 0.56799 0.71937 0.0
C1831 C 0.9979 0.55232 0.73827 0.0
C1832 C 1.00094 0.60494 0.71176 0.0
C1833 C 0.96806 0.60308 0.68906 0.0
N1834 N 0.99822 0.56738 0.72438 0.0
N1835 N 0.96746 0.58617 0.69723 0.0
H1836 H 0.40564 0.36756 0.67397 0.0
H1837 H 0.4418 0.46777 0.75854 0.0
H1838 H 0.36691 0.38083 0.71883 0.0
H1839 H 0.47972 0.44457 0.74141 0.0
H1840 H 0.41564 0.44066 0.73197 0.0
H1841 H 0.43387 0.39953 0.6886 0.0
C1842 C 0.40306 0.37722 0.68686 0.0
C1843 C 0.38391 0.37145 0.69545 0.0
C1844 C 0.42984 0.44177 0.73342 0.0
C1845 C 0.41609 0.40819 0.71166 0.0
C1846 C 0.44486 0.45741 0.74818 0.0
C1847 C 0.46288 0.45834 0.75209 0.0
C1848 C 0.4329 0.42699 0.72247 0.0
C1849 C 0.46606 0.44442 0.73864 0.0
C1850 C 0.41918 0.39546 0.69509 0.0
C1851 C 0.38144 0.3846 0.71199 0.0
N1852 N 0.45106 0.42907 0.72473 0.0
N1853 N 0.39734 0.40237 0.71953 0.0
H1854 H 0.6555 0.05428 0.67958 0.0
H1855 H 0.55284 0.99108 0.75713 0.0
H1856 H 0.63484 0.99743 0.71712 0.0
H1857 H 0.58009 0.05415 0.74379 0.0
H1858 H 0.57845 0.99075 0.72983 0.0
H1859 H 0.62449 0.05239 0.69248 0.0
C1860 C 0.64442 0.04137 0.69038 0.0
C1861 C 0.64785 0.0261 0.69761 0.0
C1862 C 0.57856 1.00459 0.73222 0.0
C1863 C 0.61231 0.02365 0.7118 0.0
C1864 C 0.56375 1.00469 0.74739 0.0
C1865 C 0.56434 0.02264 0.7525 0.0
C1866 C 0.59419 0.02261 0.7223 0.0
C1867 C 0.57905 0.03998 0.74 0.0
C1868 C 0.62674 0.04029 0.69765 0.0
C1869 C 0.63296 0.00967 0.71145 0.0
N1870 N 0.59365 0.03964 0.72582 0.0
N1871 N 0.6159 0.0089 0.71809 0.0
loop_
_geom_bond_atom_site_label_1
_geom_bond_atom_site_label_2
_geom_bond_distance
_geom_bond_site_symmetry_2
_ccdc_geom_bond_type
Co0 O1 2.216 . S
Co0 O2 2.091 . S
Co0 O4 2.004 1_554 S
Co0 O10 2.021 . S
Co0 O12 2.137 1_454 S
Co0 O13 2.244 1_455 S
O1 Co0 2.216 . S
O1 C8 1.247 . S
O2 Co0 2.091 . S
O2 C8 1.261 . S
C3 O12 1.247 . S
C3 O13 1.272 1_556 S
O4 Co0 2.004 1_556 S
O4 C9 1.259 1_455 S
Co5 O6 2.061 1_554 S
Co5 O11 2.052 . S
Co5 O13 2.135 . S
O6 Co5 2.061 1_556 S
O6 C9 1.235 . S
C7 O10 1.238 1_655 S
C7 O11 1.241 . S
C8 O1 1.247 . S
C8 O2 1.261 . S
C9 O4 1.259 1_655 S
C9 O6 1.235 . S
O10 Co0 2.021 . S
O10 C7 1.238 1_455 S
O11 Co5 2.052 . S
O11 C7 1.241 . S
O12 Co0 2.137 1_656 S
O12 C3 1.247 . S
O13 Co0 2.244 1_655 S
O13 C3 1.272 1_554 S
O13 Co5 2.135 . S
Co14 O15 2.216 1_554 S
Co14 O16 2.091 . S
Co14 O18 2.004 . S
Co14 O24 2.021 1_554 S
Co14 O26 2.137 . S
Co14 O27 2.244 . S
O15 Co14 2.216 1_556 S
O15 C22 1.247 . S
O16 Co14 2.091 . S
O16 C22 1.261 1_554 S
C17 O26 1.247 . S
C17 O27 1.272 . S
O18 Co14 2.004 . S
O18 C23 1.259 . S
Co19 O20 2.061 . S
Co19 O25 2.052 1_554 S
Co19 O27 2.135 . S
O20 Co19 2.061 . S
O20 C23 1.235 . S
C21 O24 1.238 . S
C21 O25 1.241 . S
C22 O15 1.247 . S
C22 O16 1.261 1_556 S
C23 O18 1.259 . S
C23 O20 1.235 . S
O24 Co14 2.021 1_556 S
O24 C21 1.238 . S
O25 Co19 2.052 1_556 S
O25 C21 1.241 . S
O26 Co14 2.137 . S
O26 C17 1.247 . S
O27 Co14 2.244 . S
O27 C17 1.272 . S
O27 Co19 2.135 . S
Co28 O29 2.216 1_554 S
Co28 O30 2.091 . S
Co28 O32 2.004 . S
Co28 O38 2.021 1_554 S
Co28 O40 2.137 1_545 S
Co28 O41 2.244 1_545 S
O29 Co28 2.216 1_556 S
O29 C36 1.247 . S
O30 Co28 2.091 . S
O30 C36 1.261 1_554 S
C31 O40 1.247 . S
C31 O41 1.272 . S
O32 Co28 2.004 . S
O32 C37 1.259 . S
Co33 O34 2.061 . S
Co33 O39 2.052 1_554 S
Co33 O41 2.135 . S
O34 Co33 2.061 . S
O34 C37 1.235 1_565 S
C35 O38 1.238 1_565 S
C35 O39 1.241 . S
C36 O29 1.247 . S
C36 O30 1.261 1_556 S
C37 O32 1.259 . S
C37 O34 1.235 1_545 S
O38 Co28 2.021 1_556 S
O38 C35 1.238 1_545 S
O39 Co33 2.052 1_556 S
O39 C35 1.241 . S
O40 Co28 2.137 1_565 S
O40 C31 1.247 . S
O41 Co28 2.244 1_565 S
O41 C31 1.272 . S
O41 Co33 2.135 . S
Co42 O43 2.216 1_554 S
Co42 O44 2.091 . S
Co42 O46 2.004 . S
Co42 O52 2.021 1_554 S
Co42 O54 2.137 1_655 S
Co42 O55 2.244 1_655 S
O43 Co42 2.216 1_556 S
O43 C50 1.247 . S
O44 Co42 2.091 . S
O44 C50 1.261 1_554 S
C45 O54 1.247 . S
C45 O55 1.272 . S
O46 Co42 2.004 . S
O46 C51 1.259 1_655 S
Co47 O48 2.061 . S
Co47 O53 2.052 1_554 S
Co47 O55 2.135 . S
O48 Co47 2.061 . S
O48 C51 1.235 . S
C49 O52 1.238 1_455 S
C49 O53 1.241 . S
C50 O43 1.247 . S
C50 O44 1.261 1_556 S
C51 O46 1.259 1_455 S
C51 O48 1.235 . S
O52 Co42 2.021 1_556 S
O52 C49 1.238 1_655 S
O53 Co47 2.052 1_556 S
O53 C49 1.241 . S
O54 Co42 2.137 1_455 S
O54 C45 1.247 . S
O55 Co42 2.244 1_455 S
O55 C45 1.272 . S
O55 Co47 2.135 . S
Co56 O57 2.216 . S
Co56 O58 2.091 . S
Co56 O60 2.004 1_554 S
Co56 O66 2.021 . S
Co56 O68 2.137 1_554 S
Co56 O69 2.244 . S
O57 Co56 2.216 . S
O57 C64 1.247 . S
O58 Co56 2.091 . S
O58 C64 1.261 . S
C59 O68 1.247 . S
C59 O69 1.272 1_556 S
O60 Co56 2.004 1_556 S
O60 C65 1.259 . S
Co61 O62 2.061 1_554 S
Co61 O67 2.052 . S
Co61 O69 2.135 . S
O62 Co61 2.061 1_556 S
O62 C65 1.235 . S
C63 O66 1.238 . S
C63 O67 1.241 . S
C64 O57 1.247 . S
C64 O58 1.261 . S
C65 O60 1.259 . S
C65 O62 1.235 . S
O66 Co56 2.021 . S
O66 C63 1.238 . S
O67 Co61 2.052 . S
O67 C63 1.241 . S
O68 Co56 2.137 1_556 S
O68 C59 1.247 . S
O69 Co56 2.244 . S
O69 C59 1.272 1_554 S
O69 Co61 2.135 . S
Co70 O71 2.216 . S
Co70 O72 2.091 . S
Co70 O74 2.004 1_554 S
Co70 O80 2.021 . S
Co70 O82 2.137 1_564 S
Co70 O83 2.244 1_565 S
O71 Co70 2.216 . S
O71 C78 1.247 . S
O72 Co70 2.091 . S
O72 C78 1.261 . S
C73 O82 1.247 . S
C73 O83 1.272 1_556 S
O74 Co70 2.004 1_556 S
O74 C79 1.259 1_565 S
Co75 O76 2.061 1_554 S
Co75 O81 2.052 . S
Co75 O83 2.135 . S
O76 Co75 2.061 1_556 S
O76 C79 1.235 . S
C77 O80 1.238 1_545 S
C77 O81 1.241 . S
C78 O71 1.247 . S
C78 O72 1.261 . S
C79 O74 1.259 1_545 S
C79 O76 1.235 . S
O80 Co70 2.021 . S
O80 C77 1.238 1_565 S
O81 Co75 2.052 . S
O81 C77 1.241 . S
O82 Co70 2.137 1_546 S
O82 C73 1.247 . S
O83 Co70 2.244 1_545 S
O83 C73 1.272 1_554 S
O83 Co75 2.135 . S
Co84 O85 2.216 . S
Co84 O86 2.091 . S
Co84 O88 2.004 . S
Co84 O94 2.021 . S
Co84 O96 2.137 . S
Co84 O97 2.244 . S
O85 Co84 2.216 . S
O85 C92 1.247 . S
O86 Co84 2.091 . S
O86 C92 1.261 . S
C87 O96 1.247 . S
C87 O97 1.272 . S
O88 Co84 2.004 . S
O88 C93 1.259 . S
Co89 O90 2.061 . S
Co89 O95 2.052 . S
Co89 O97 2.135 . S
O90 Co89 2.061 . S
O90 C93 1.235 . S
C91 O94 1.238 . S
C91 O95 1.241 . S
C92 O85 1.247 . S
C92 O86 1.261 . S
C93 O88 1.259 . S
C93 O90 1.235 . S
O94 Co84 2.021 . S
O94 C91 1.238 . S
O95 Co89 2.052 . S
O95 C91 1.241 . S
O96 Co84 2.137 . S
O96 C87 1.247 . S
O97 Co84 2.244 . S
O97 C87 1.272 . S
O97 Co89 2.135 . S
Co98 O99 2.215 . S
Co98 O100 2.091 . S
Co98 O102 2.004 . S
Co98 O108 2.021 . S
Co98 O110 2.137 1_565 S
Co98 O111 2.244 1_565 S
O99 Co98 2.215 . S
O99 C106 1.241 . S
O100 Co98 2.091 . S
O100 C106 1.261 . S
C101 O110 1.247 . S
C101 O111 1.272 . S
O102 Co98 2.004 . S
O102 C107 1.259 . S
Co103 O104 2.061 . S
Co103 O109 2.052 . S
Co103 O111 2.135 1_565 S
O104 Co103 2.061 . S
O104 C107 1.235 . S
C105 O108 1.238 . S
C105 O109 1.241 . S
C106 O99 1.241 . S
C106 O100 1.261 . S
C107 O102 1.259 . S
C107 O104 1.235 . S
O108 Co98 2.021 . S
O108 C105 1.238 . S
O109 Co103 2.052 . S
O109 C105 1.241 . S
O110 Co98 2.137 1_545 S
O110 C101 1.247 . S
O111 Co98 2.244 1_545 S
O111 C101 1.272 . S
O111 Co103 2.135 1_545 S
Co112 O113 2.216 . S
Co112 O114 2.091 . S
Co112 O116 2.004 . S
Co112 O122 2.021 . S
Co112 O124 2.137 1_455 S
Co112 O125 2.239 1_455 S
O113 Co112 2.216 . S
O113 C120 1.247 . S
O114 Co112 2.091 . S
O114 C120 1.261 . S
C115 O124 1.247 . S
C115 O125 1.309 . S
O116 Co112 2.004 . S
O116 C121 1.259 . S
Co117 O118 2.061 . S
Co117 O123 2.052 . S
Co117 O125 2.093 1_455 S
O118 Co117 2.061 . S
O118 C121 1.235 . S
C119 O122 1.238 . S
C119 O123 1.241 . S
C120 O113 1.247 . S
C120 O114 1.261 . S
C121 O116 1.259 . S
C121 O118 1.235 . S
O122 Co112 2.021 . S
O122 C119 1.238 . S
O123 Co117 2.052 . S
O123 C119 1.241 . S
O124 Co112 2.137 1_655 S
O124 C115 1.247 . S
O125 Co112 2.239 1_655 S
O125 C115 1.309 . S
O125 Co117 2.093 1_655 S
Co126 O127 2.221 1_565 S
Co126 O128 2.091 . S
Co126 O130 2.004 . S
Co126 O136 2.021 . S
Co126 O138 2.137 1_565 S
Co126 O139 2.244 1_565 S
O127 Co126 2.221 1_545 S
O127 C134 1.247 1_545 S
O128 Co126 2.091 . S
O128 C134 1.261 . S
C129 O138 1.247 . S
C129 O139 1.272 . S
O130 Co126 2.004 . S
O130 C135 1.259 . S
Co131 O132 2.061 . S
Co131 O137 2.052 . S
Co131 O139 2.135 1_565 S
O132 Co131 2.061 . S
O132 C135 1.235 . S
C133 O136 1.238 . S
C133 O137 1.241 . S
C134 O127 1.247 1_565 S
C134 O128 1.261 . S
C135 O130 1.259 . S
C135 O132 1.235 . S
O136 Co126 2.021 . S
O136 C133 1.238 . S
O137 Co131 2.052 . S
O137 C133 1.241 . S
O138 Co126 2.137 1_545 S
O138 C129 1.247 . S
O139 Co126 2.244 1_545 S
O139 C129 1.272 . S
O139 Co131 2.135 1_545 S
Co140 O141 2.216 1_455 S
Co140 O142 2.091 1_455 S
Co140 O144 2.004 . S
Co140 O150 2.021 . S
Co140 O152 2.137 1_455 S
Co140 O153 2.244 . S
O141 Co140 2.216 1_655 S
O141 C148 1.247 . S
O142 Co140 2.091 1_655 S
O142 C148 1.261 . S
C143 O152 1.247 1_455 S
C143 O153 1.272 . S
O144 Co140 2.004 . S
O144 C149 1.259 . S
Co145 O146 2.061 . S
Co145 O151 2.052 . S
Co145 O153 2.135 . S
O146 Co145 2.061 . S
O146 C149 1.235 . S
C147 O150 1.238 . S
C147 O151 1.241 . S
C148 O141 1.247 . S
C148 O142 1.261 . S
C149 O144 1.259 . S
C149 O146 1.235 . S
O150 Co140 2.021 . S
O150 C147 1.238 . S
O151 Co145 2.052 . S
O151 C147 1.241 . S
O152 Co140 2.137 1_655 S
O152 C143 1.247 1_655 S
O153 Co140 2.244 . S
O153 C143 1.272 . S
O153 Co145 2.135 . S
Co154 O155 2.216 . S
Co154 O156 2.091 . S
Co154 O158 2.004 . S
Co154 O164 2.021 . S
Co154 O166 2.137 . S
Co154 O167 2.244 . S
O155 Co154 2.216 . S
O155 C162 1.247 . S
O156 Co154 2.091 . S
O156 C162 1.261 . S
C157 O166 1.247 . S
C157 O167 1.272 . S
O158 Co154 2.004 . S
O158 C163 1.259 . S
Co159 O160 2.061 . S
Co159 O165 2.052 . S
Co159 O167 2.135 . S
O160 Co159 2.061 . S
O160 C163 1.235 . S
C161 O164 1.238 . S
C161 O165 1.241 . S
C162 O155 1.247 . S
C162 O156 1.261 . S
C163 O158 1.259 . S
C163 O160 1.235 . S
O164 Co154 2.021 . S
O164 C161 1.238 . S
O165 Co159 2.052 . S
O165 C161 1.241 . S
O166 Co154 2.137 . S
O166 C157 1.247 . S
O167 Co154 2.244 . S
O167 C157 1.272 . S
O167 Co159 2.135 . S
Co168 O169 2.216 . S
Co168 O170 2.091 . S
Co168 O172 2.004 . S
Co168 O178 2.021 . S
Co168 O180 2.137 1_545 S
Co168 O181 2.244 1_545 S
O169 Co168 2.216 . S
O169 C176 1.247 . S
O170 Co168 2.091 . S
O170 C176 1.261 . S
C171 O180 1.247 . S
C171 O181 1.272 . S
O172 Co168 2.004 . S
O172 C177 1.259 . S
Co173 O174 2.061 . S
Co173 O179 2.052 . S
Co173 O181 2.135 1_545 S
O174 Co173 2.061 . S
O174 C177 1.235 . S
C175 O178 1.238 . S
C175 O179 1.241 . S
C176 O169 1.247 . S
C176 O170 1.261 . S
C177 O172 1.259 . S
C177 O174 1.235 . S
O178 Co168 2.021 . S
O178 C175 1.238 . S
O179 Co173 2.052 . S
O179 C175 1.241 . S
O180 Co168 2.137 1_565 S
O180 C171 1.247 . S
O181 Co168 2.244 1_565 S
O181 C171 1.272 . S
O181 Co173 2.135 1_565 S
Co182 O183 2.216 1_655 S
Co182 O184 2.091 1_655 S
Co182 O186 2.004 . S
Co182 O192 2.021 . S
Co182 O194 2.137 1_655 S
Co182 O195 2.244 . S
O183 Co182 2.216 1_455 S
O183 C190 1.247 . S
O184 Co182 2.091 1_455 S
O184 C190 1.261 . S
C185 O194 1.247 1_655 S
C185 O195 1.272 . S
O186 Co182 2.004 . S
O186 C191 1.259 . S
Co187 O188 2.061 . S
Co187 O193 2.052 . S
Co187 O195 2.135 . S
O188 Co187 2.061 . S
O188 C191 1.235 . S
C189 O192 1.238 . S
C189 O193 1.241 . S
C190 O183 1.247 . S
C190 O184 1.261 . S
C191 O186 1.259 . S
C191 O188 1.235 . S
O192 Co182 2.021 . S
O192 C189 1.238 . S
O193 Co187 2.052 . S
O193 C189 1.241 . S
O194 Co182 2.137 1_455 S
O194 C185 1.247 1_455 S
O195 Co182 2.244 . S
O195 C185 1.272 . S
O195 Co187 2.135 . S
Co196 O197 2.216 . S
Co196 O198 2.091 . S
Co196 O200 2.004 . S
Co196 O206 2.021 . S
Co196 O208 2.137 . S
Co196 O209 2.244 . S
O197 Co196 2.216 . S
O197 C204 1.247 . S
O198 Co196 2.091 . S
O198 C204 1.261 . S
C199 O208 1.247 . S
C199 O209 1.272 . S
O200 Co196 2.004 . S
O200 C205 1.259 . S
Co201 O202 2.061 . S
Co201 O207 2.052 . S
Co201 O209 2.135 . S
O202 Co201 2.061 . S
O202 C205 1.235 . S
C203 O206 1.238 . S
C203 O207 1.241 . S
C204 O197 1.247 . S
C204 O198 1.261 . S
C205 O200 1.259 . S
C205 O202 1.235 . S
O206 Co196 2.021 . S
O206 C203 1.238 . S
O207 Co201 2.052 . S
O207 C203 1.241 . S
O208 Co196 2.137 . S
O208 C199 1.247 . S
O209 Co196 2.244 . S
O209 C199 1.272 . S
O209 Co201 2.135 . S
Co210 O211 2.216 . S
Co210 O212 2.091 . S
Co210 O214 2.004 . S
Co210 O220 2.021 . S
Co210 O222 2.137 . S
Co210 O223 2.244 . S
O211 Co210 2.216 . S
O211 C218 1.247 . S
O212 Co210 2.091 . S
O212 C218 1.261 . S
C213 O222 1.247 . S
C213 O223 1.272 . S
O214 Co210 2.004 . S
O214 C219 1.259 . S
Co215 O216 2.061 . S
Co215 O221 2.052 . S
Co215 O223 2.135 . S
O216 Co215 2.061 . S
O216 C219 1.235 . S
C217 O220 1.238 . S
C217 O221 1.241 . S
C218 O211 1.247 . S
C218 O212 1.261 . S
C219 O214 1.259 . S
C219 O216 1.235 . S
O220 Co210 2.021 . S
O220 C217 1.238 . S
O221 Co215 2.052 . S
O221 C217 1.241 . S
O222 Co210 2.137 . S
O222 C213 1.247 . S
O223 Co210 2.244 . S
O223 C213 1.272 . S
O223 Co215 2.135 . S
Co224 O225 2.216 . S
Co224 O226 2.091 . S
Co224 O228 2.004 . S
Co224 O234 2.021 . S
Co224 O236 2.137 1_545 S
Co224 O237 2.244 1_545 S
O225 Co224 2.216 . S
O225 C232 1.247 . S
O226 Co224 2.091 . S
O226 C232 1.261 . S
C227 O236 1.247 . S
C227 O237 1.272 . S
O228 Co224 2.004 . S
O228 C233 1.259 . S
Co229 O230 2.061 . S
Co229 O235 2.052 . S
Co229 O237 2.135 1_545 S
O230 Co229 2.061 . S
O230 C233 1.235 . S
C231 O234 1.238 . S
C231 O235 1.241 . S
C232 O225 1.247 . S
C232 O226 1.261 . S
C233 O228 1.259 . S
C233 O230 1.235 . S
O234 Co224 2.021 . S
O234 C231 1.238 . S
O235 Co229 2.052 . S
O235 C231 1.241 . S
O236 Co224 2.137 1_565 S
O236 C227 1.247 . S
O237 Co224 2.244 1_565 S
O237 C227 1.272 . S
O237 Co229 2.135 1_565 S
Co238 O239 2.216 . S
Co238 O240 2.091 . S
Co238 O242 2.004 . S
Co238 O248 2.021 . S
Co238 O250 2.137 1_655 S
Co238 O251 2.241 1_655 S
O239 Co238 2.216 . S
O239 C246 1.247 . S
O240 Co238 2.091 . S
O240 C246 1.261 . S
C241 O250 1.247 . S
C241 O251 1.294 . S
O242 Co238 2.004 . S
O242 C247 1.259 . S
Co243 O244 2.061 . S
Co243 O249 2.052 . S
Co243 O251 2.109 1_655 S
O244 Co243 2.061 . S
O244 C247 1.235 . S
C245 O248 1.238 . S
C245 O249 1.241 . S
C246 O239 1.247 . S
C246 O240 1.261 . S
C247 O242 1.259 . S
C247 O244 1.235 . S
O248 Co238 2.021 . S
O248 C245 1.238 . S
O249 Co243 2.052 . S
O249 C245 1.241 . S
O250 Co238 2.137 1_455 S
O250 C241 1.247 . S
O251 Co238 2.241 1_455 S
O251 C241 1.294 . S
O251 Co243 2.109 1_455 S
H252 C258 0.930 . S
H253 C261 0.931 . S
H254 C263 0.931 . S
H255 C265 0.930 . S
H256 C267 0.930 . S
H257 C269 0.931 . S
C258 H252 0.930 . S
C258 C259 1.380 . S
C258 C260 1.394 . S
C259 C258 1.380 . S
C259 C263 1.382 . S
C260 C258 1.394 . S
C260 C261 1.400 . S
C261 H253 0.931 . S
C261 C260 1.400 . S
C261 C262 1.375 . S
C262 C261 1.375 . S
C262 C263 1.415 . S
C262 C264 1.501 . S
C263 H254 0.931 . S
C263 C259 1.382 . S
C263 C262 1.415 . S
C264 C262 1.501 . S
C264 C265 1.384 . S
C264 C269 1.408 . S
C265 H255 0.930 . S
C265 C264 1.384 . S
C265 C266 1.389 . S
C266 C265 1.389 . S
C266 C267 1.405 . S
C267 H256 0.930 . S
C267 C266 1.405 . S
C267 C268 1.364 . S
C268 C267 1.364 . S
C268 C269 1.400 . S
C269 H257 0.931 . S
C269 C264 1.408 . S
C269 C268 1.400 . S
H270 C276 0.930 . S
H271 C279 0.931 . S
H272 C281 0.931 . S
H273 C283 0.930 . S
H274 C285 0.930 . S
H275 C287 0.931 . S
C276 H270 0.930 . S
C276 C277 1.380 . S
C276 C278 1.394 . S
C277 C276 1.380 . S
C277 C281 1.382 . S
C278 C276 1.394 . S
C278 C279 1.400 . S
C279 H271 0.931 . S
C279 C278 1.400 . S
C279 C280 1.375 . S
C280 C279 1.375 . S
C280 C281 1.415 . S
C280 C282 1.501 . S
C281 H272 0.931 . S
C281 C277 1.382 . S
C281 C280 1.415 . S
C282 C280 1.501 . S
C282 C283 1.384 . S
C282 C287 1.408 . S
C283 H273 0.930 . S
C283 C282 1.384 . S
C283 C284 1.389 . S
C284 C283 1.389 . S
C284 C285 1.405 . S
C285 H274 0.930 . S
C285 C284 1.405 . S
C285 C286 1.364 . S
C286 C285 1.364 . S
C286 C287 1.400 . S
C287 H275 0.931 . S
C287 C282 1.408 . S
C287 C286 1.400 . S
H288 C294 0.930 . S
H289 C297 0.931 . S
H290 C299 0.931 . S
H291 C301 0.930 . S
H292 C303 0.930 . S
H293 C305 0.931 . S
C294 H288 0.930 . S
C294 C295 1.380 . S
C294 C296 1.394 . S
C295 C294 1.380 . S
C295 C299 1.382 . S
C296 C294 1.394 . S
C296 C297 1.400 . S
C297 H289 0.931 . S
C297 C296 1.400 . S
C297 C298 1.375 . S
C298 C297 1.375 . S
C298 C299 1.415 . S
C298 C300 1.501 . S
C299 H290 0.931 . S
C299 C295 1.382 . S
C299 C298 1.415 . S
C300 C298 1.501 . S
C300 C301 1.384 . S
C300 C305 1.408 . S
C301 H291 0.930 . S
C301 C300 1.384 . S
C301 C302 1.389 . S
C302 C301 1.389 . S
C302 C303 1.405 . S
C303 H292 0.930 . S
C303 C302 1.405 . S
C303 C304 1.364 . S
C304 C303 1.364 . S
C304 C305 1.400 . S
C305 H293 0.931 . S
C305 C300 1.408 . S
C305 C304 1.400 . S
H306 C312 0.930 . S
H307 C315 0.931 . S
H308 C317 0.931 . S
H309 C319 0.930 . S
H310 C321 0.930 . S
H311 C323 0.931 . S
C312 H306 0.930 . S
C312 C313 1.380 . S
C312 C314 1.394 . S
C313 C312 1.380 . S
C313 C317 1.382 . S
C314 C312 1.394 . S
C314 C315 1.400 . S
C315 H307 0.931 . S
C315 C314 1.400 . S
C315 C316 1.375 . S
C316 C315 1.375 . S
C316 C317 1.415 . S
C316 C318 1.501 . S
C317 H308 0.931 . S
C317 C313 1.382 . S
C317 C316 1.415 . S
C318 C316 1.501 . S
C318 C319 1.384 . S
C318 C323 1.408 . S
C319 H309 0.930 . S
C319 C318 1.384 . S
C319 C320 1.389 . S
C320 C319 1.389 . S
C320 C321 1.405 . S
C321 H310 0.930 . S
C321 C320 1.405 . S
C321 C322 1.364 . S
C322 C321 1.364 . S
C322 C323 1.400 . S
C323 H311 0.931 . S
C323 C318 1.408 . S
C323 C322 1.400 . S
H324 C330 0.930 . S
H325 C333 0.931 . S
H326 C335 0.931 . S
H327 C337 0.930 . S
H328 C339 0.930 . S
H329 C341 0.931 . S
C330 H324 0.930 . S
C330 C331 1.380 . S
C330 C332 1.394 . S
C331 C330 1.380 . S
C331 C335 1.382 . S
C332 C330 1.394 . S
C332 C333 1.400 . S
C333 H325 0.931 . S
C333 C332 1.400 . S
C333 C334 1.375 . S
C334 C333 1.375 . S
C334 C335 1.415 . S
C334 C336 1.501 . S
C335 H326 0.931 . S
C335 C331 1.382 . S
C335 C334 1.415 . S
C336 C334 1.501 . S
C336 C337 1.384 . S
C336 C341 1.408 . S
C337 H327 0.930 . S
C337 C336 1.384 . S
C337 C338 1.389 . S
C338 C337 1.389 . S
C338 C339 1.405 . S
C339 H328 0.930 . S
C339 C338 1.405 . S
C339 C340 1.364 . S
C340 C339 1.364 . S
C340 C341 1.400 . S
C341 H329 0.931 . S
C341 C336 1.408 . S
C341 C340 1.400 . S
H342 C348 0.930 . S
H343 C351 0.931 . S
H344 C353 0.931 . S
H345 C355 0.930 . S
H346 C357 0.930 . S
H347 C359 0.931 . S
C348 H342 0.930 . S
C348 C349 1.380 . S
C348 C350 1.394 . S
C349 C348 1.380 . S
C349 C353 1.382 . S
C350 C348 1.394 . S
C350 C351 1.400 . S
C351 H343 0.931 . S
C351 C350 1.400 . S
C351 C352 1.375 . S
C352 C351 1.375 . S
C352 C353 1.415 . S
C352 C354 1.501 . S
C353 H344 0.931 . S
C353 C349 1.382 . S
C353 C352 1.415 . S
C354 C352 1.501 . S
C354 C355 1.384 . S
C354 C359 1.408 . S
C355 H345 0.930 . S
C355 C354 1.384 . S
C355 C356 1.389 . S
C356 C355 1.389 . S
C356 C357 1.405 . S
C357 H346 0.930 . S
C357 C356 1.405 . S
C357 C358 1.364 . S
C358 C357 1.364 . S
C358 C359 1.400 . S
C359 H347 0.931 . S
C359 C354 1.408 . S
C359 C358 1.400 . S
H360 C366 0.930 . S
H361 C369 0.931 . S
H362 C371 0.931 . S
H363 C373 0.930 . S
H364 C375 0.930 . S
H365 C377 0.931 . S
C366 H360 0.930 . S
C366 C367 1.380 . S
C366 C368 1.394 . S
C367 C366 1.380 . S
C367 C371 1.382 . S
C368 C366 1.394 . S
C368 C369 1.400 . S
C369 H361 0.931 . S
C369 C368 1.400 . S
C369 C370 1.375 . S
C370 C369 1.375 . S
C370 C371 1.415 . S
C370 C372 1.501 . S
C371 H362 0.931 . S
C371 C367 1.382 . S
C371 C370 1.415 . S
C372 C370 1.501 . S
C372 C373 1.384 . S
C372 C377 1.408 . S
C373 H363 0.930 . S
C373 C372 1.384 . S
C373 C374 1.389 . S
C374 C373 1.389 . S
C374 C375 1.405 . S
C375 H364 0.930 . S
C375 C374 1.405 . S
C375 C376 1.364 . S
C376 C375 1.364 . S
C376 C377 1.400 . S
C377 H365 0.931 . S
C377 C372 1.408 . S
C377 C376 1.400 . S
H378 C384 0.930 . S
H379 C387 0.931 . S
H380 C389 0.931 . S
H381 C391 0.930 . S
H382 C393 0.930 . S
H383 C395 0.931 . S
C384 H378 0.930 . S
C384 C385 1.380 . S
C384 C386 1.394 . S
C385 C384 1.380 . S
C385 C389 1.382 . S
C386 C384 1.394 . S
C386 C387 1.400 . S
C387 H379 0.931 . S
C387 C386 1.400 . S
C387 C388 1.375 . S
C388 C387 1.375 . S
C388 C389 1.415 . S
C388 C390 1.501 . S
C389 H380 0.931 . S
C389 C385 1.382 . S
C389 C388 1.415 . S
C390 C388 1.501 . S
C390 C391 1.384 . S
C390 C395 1.408 . S
C391 H381 0.930 . S
C391 C390 1.384 . S
C391 C392 1.389 . S
C392 C391 1.389 . S
C392 C393 1.405 . S
C393 H382 0.930 . S
C393 C392 1.405 . S
C393 C394 1.364 . S
C394 C393 1.364 . S
C394 C395 1.400 . S
C395 H383 0.931 . S
C395 C390 1.408 . S
C395 C394 1.400 . S
H396 C402 0.930 . S
H397 C405 0.931 . S
H398 C407 0.931 . S
H399 C409 0.930 . S
H400 C411 0.930 . S
H401 C413 0.931 . S
C402 H396 0.930 . S
C402 C403 1.380 . S
C402 C404 1.394 . S
C403 C402 1.380 . S
C403 C407 1.382 . S
C404 C402 1.394 . S
C404 C405 1.400 . S
C405 H397 0.931 . S
C405 C404 1.400 . S
C405 C406 1.375 . S
C406 C405 1.375 . S
C406 C407 1.415 . S
C406 C408 1.501 . S
C407 H398 0.931 . S
C407 C403 1.382 . S
C407 C406 1.415 . S
C408 C406 1.501 . S
C408 C409 1.384 . S
C408 C413 1.408 . S
C409 H399 0.930 . S
C409 C408 1.384 . S
C409 C410 1.389 . S
C410 C409 1.389 . S
C410 C411 1.405 . S
C411 H400 0.930 . S
C411 C410 1.405 . S
C411 C412 1.364 . S
C412 C411 1.364 . S
C412 C413 1.400 . S
C413 H401 0.931 . S
C413 C408 1.408 . S
C413 C412 1.400 . S
H414 C420 0.930 . S
H415 C423 0.931 . S
H416 C425 0.931 . S
H417 C427 0.930 . S
H418 C429 0.930 . S
H419 C431 0.940 1_655 S
C420 H414 0.930 . S
C420 C421 1.380 . S
C420 C422 1.394 1_655 S
C421 C420 1.380 . S
C421 C425 1.382 . S
C422 C420 1.394 1_455 S
C422 C423 1.400 . S
C423 H415 0.931 . S
C423 C422 1.400 . S
C423 C424 1.375 . S
C424 C423 1.375 . S
C424 C425 1.415 1_455 S
C424 C426 1.501 . S
C425 H416 0.931 . S
C425 C421 1.382 . S
C425 C424 1.415 1_655 S
C426 C424 1.501 . S
C426 C427 1.384 . S
C426 C431 1.416 . S
C427 H417 0.930 . S
C427 C426 1.384 . S
C427 C428 1.389 . S
C428 C427 1.389 . S
C428 C429 1.405 . S
C429 H418 0.930 . S
C429 C428 1.405 . S
C429 C430 1.364 . S
C430 C429 1.364 . S
C430 C431 1.389 . S
C431 H419 0.940 1_455 S
C431 C426 1.416 . S
C431 C430 1.389 . S
H432 C438 0.930 . S
H433 C441 0.931 . S
H434 C443 0.931 . S
H435 C445 0.930 . S
H436 C447 0.930 . S
H437 C449 0.931 . S
C438 H432 0.930 . S
C438 C439 1.380 . S
C438 C440 1.394 . S
C439 C438 1.380 . S
C439 C443 1.382 . S
C440 C438 1.394 . S
C440 C441 1.400 . S
C441 H433 0.931 . S
C441 C440 1.400 . S
C441 C442 1.375 . S
C442 C441 1.375 . S
C442 C443 1.415 . S
C442 C444 1.501 . S
C443 H434 0.931 . S
C443 C439 1.382 . S
C443 C442 1.415 . S
C444 C442 1.501 . S
C444 C445 1.384 . S
C444 C449 1.408 . S
C445 H435 0.930 . S
C445 C444 1.384 . S
C445 C446 1.389 . S
C446 C445 1.389 . S
C446 C447 1.405 . S
C447 H436 0.930 . S
C447 C446 1.405 . S
C447 C448 1.364 . S
C448 C447 1.364 . S
C448 C449 1.400 . S
C449 H437 0.931 . S
C449 C444 1.408 . S
C449 C448 1.400 . S
H450 C456 0.956 . S
H451 C459 0.931 . S
H452 C461 0.931 . S
H453 C463 0.930 . S
H454 C465 0.930 . S
H455 C467 0.920 1_545 S
C456 H450 0.956 . S
C456 C457 1.375 . S
C456 C458 1.375 1_545 S
C457 C456 1.375 . S
C457 C461 1.382 . S
C458 C456 1.375 1_565 S
C458 C459 1.400 . S
C459 H451 0.931 . S
C459 C458 1.400 . S
C459 C460 1.375 . S
C460 C459 1.375 . S
C460 C461 1.415 1_565 S
C460 C462 1.501 . S
C461 H452 0.931 . S
C461 C457 1.382 . S
C461 C460 1.415 1_545 S
C462 C460 1.501 . S
C462 C463 1.384 . S
C462 C467 1.397 . S
C463 H453 0.930 . S
C463 C462 1.384 . S
C463 C464 1.389 . S
C464 C463 1.389 . S
C464 C465 1.405 . S
C465 H454 0.930 . S
C465 C464 1.405 . S
C465 C466 1.378 . S
C466 C465 1.378 . S
C466 C467 1.403 . S
C467 H455 0.920 1_565 S
C467 C462 1.397 . S
C467 C466 1.403 . S
H468 C474 0.920 . S
H469 C477 0.931 . S
H470 C479 0.926 1_545 S
H471 C481 0.930 . S
H472 C483 0.902 . S
H473 C485 0.931 . S
C474 H468 0.920 . S
C474 C475 1.381 . S
C474 C476 1.399 1_545 S
C475 C474 1.381 . S
C475 C479 1.399 1_545 S
C476 C474 1.399 1_565 S
C476 C477 1.400 . S
C477 H469 0.931 . S
C477 C476 1.400 . S
C477 C478 1.375 . S
C478 C477 1.375 . S
C478 C479 1.412 . S
C478 C480 1.501 . S
C479 H470 0.926 1_565 S
C479 C475 1.399 1_565 S
C479 C478 1.412 . S
C480 C478 1.501 . S
C480 C481 1.384 . S
C480 C485 1.408 1_565 S
C481 H471 0.930 . S
C481 C480 1.384 . S
C481 C482 1.389 . S
C482 C481 1.389 . S
C482 C483 1.430 . S
C483 H472 0.902 . S
C483 C482 1.430 . S
C483 C484 1.371 1_565 S
C484 C483 1.371 1_545 S
C484 C485 1.400 . S
C485 H473 0.931 . S
C485 C480 1.408 1_545 S
C485 C484 1.400 . S
H486 C492 0.970 . S
H487 C495 0.931 . S
H488 C497 0.933 1_655 S
H489 C499 0.930 . S
H490 C501 0.930 . S
H491 C503 0.931 . S
C492 H486 0.970 . S
C492 C493 1.376 . S
C492 C494 1.366 1_655 S
C493 C492 1.376 . S
C493 C497 1.355 1_655 S
C494 C492 1.366 1_455 S
C494 C495 1.421 . S
C495 H487 0.931 . S
C495 C494 1.421 . S
C495 C496 1.375 . S
C496 C495 1.375 . S
C496 C497 1.415 . S
C496 C498 1.501 . S
C497 H488 0.933 1_455 S
C497 C493 1.355 1_455 S
C497 C496 1.415 . S
C498 C496 1.501 . S
C498 C499 1.384 . S
C498 C503 1.408 1_455 S
C499 H489 0.930 . S
C499 C498 1.384 . S
C499 C500 1.389 . S
C500 C499 1.389 . S
C500 C501 1.405 . S
C501 H490 0.930 . S
C501 C500 1.405 . S
C501 C502 1.364 1_455 S
C502 C501 1.364 1_655 S
C502 C503 1.400 . S
C503 H491 0.931 . S
C503 C498 1.408 1_655 S
C503 C502 1.400 . S
H504 C510 0.930 . S
H505 C513 0.931 . S
H506 C515 0.931 . S
H507 C517 0.930 . S
H508 C519 0.930 . S
H509 C521 0.931 . S
C510 H504 0.930 . S
C510 C511 1.380 . S
C510 C512 1.394 . S
C511 C510 1.380 . S
C511 C515 1.382 . S
C512 C510 1.394 . S
C512 C513 1.400 . S
C513 H505 0.931 . S
C513 C512 1.400 . S
C513 C514 1.375 . S
C514 C513 1.375 . S
C514 C515 1.415 . S
C514 C516 1.501 . S
C515 H506 0.931 . S
C515 C511 1.382 . S
C515 C514 1.415 . S
C516 C514 1.501 . S
C516 C517 1.384 . S
C516 C521 1.408 . S
C517 H507 0.930 . S
C517 C516 1.384 . S
C517 C518 1.389 . S
C518 C517 1.389 . S
C518 C519 1.405 . S
C519 H508 0.930 . S
C519 C518 1.405 . S
C519 C520 1.364 . S
C520 C519 1.364 . S
C520 C521 1.400 . S
C521 H509 0.931 . S
C521 C516 1.408 . S
C521 C520 1.400 . S
H522 C528 0.930 . S
H523 C531 0.931 . S
H524 C533 0.931 . S
H525 C535 0.930 . S
H526 C537 0.930 . S
H527 C539 0.931 . S
C528 H522 0.930 . S
C528 C529 1.380 . S
C528 C530 1.394 . S
C529 C528 1.380 . S
C529 C533 1.382 . S
C530 C528 1.394 . S
C530 C531 1.400 . S
C531 H523 0.931 . S
C531 C530 1.400 . S
C531 C532 1.375 . S
C532 C531 1.375 . S
C532 C533 1.415 . S
C532 C534 1.501 . S
C533 H524 0.931 . S
C533 C529 1.382 . S
C533 C532 1.415 . S
C534 C532 1.501 . S
C534 C535 1.384 . S
C534 C539 1.408 . S
C535 H525 0.930 . S
C535 C534 1.384 . S
C535 C536 1.389 . S
C536 C535 1.389 . S
C536 C537 1.405 . S
C537 H526 0.930 . S
C537 C536 1.405 . S
C537 C538 1.364 . S
C538 C537 1.364 . S
C538 C539 1.400 . S
C539 H527 0.931 . S
C539 C534 1.408 . S
C539 C538 1.400 . S
H540 C546 0.930 . S
H541 C549 0.931 . S
H542 C551 0.931 . S
H543 C553 0.930 . S
H544 C555 0.930 . S
H545 C557 0.931 . S
C546 H540 0.930 . S
C546 C547 1.380 . S
C546 C548 1.394 . S
C547 C546 1.380 . S
C547 C551 1.382 . S
C548 C546 1.394 . S
C548 C549 1.400 . S
C549 H541 0.931 . S
C549 C548 1.400 . S
C549 C550 1.375 . S
C550 C549 1.375 . S
C550 C551 1.415 . S
C550 C552 1.501 . S
C551 H542 0.931 . S
C551 C547 1.382 . S
C551 C550 1.415 . S
C552 C550 1.501 . S
C552 C553 1.384 . S
C552 C557 1.408 . S
C553 H543 0.930 . S
C553 C552 1.384 . S
C553 C554 1.389 . S
C554 C553 1.389 . S
C554 C555 1.405 . S
C555 H544 0.930 . S
C555 C554 1.405 . S
C555 C556 1.364 . S
C556 C555 1.364 . S
C556 C557 1.400 . S
C557 H545 0.931 . S
C557 C552 1.408 . S
C557 C556 1.400 . S
H558 C564 0.930 . S
H559 C567 0.931 . S
H560 C569 0.931 . S
H561 C571 0.930 . S
H562 C573 0.930 . S
H563 C575 0.931 . S
C564 H558 0.930 . S
C564 C565 1.380 . S
C564 C566 1.394 . S
C565 C564 1.380 . S
C565 C569 1.382 . S
C566 C564 1.394 . S
C566 C567 1.400 . S
C567 H559 0.931 . S
C567 C566 1.400 . S
C567 C568 1.375 . S
C568 C567 1.375 . S
C568 C569 1.415 . S
C568 C570 1.501 . S
C569 H560 0.931 . S
C569 C565 1.382 . S
C569 C568 1.415 . S
C570 C568 1.501 . S
C570 C571 1.384 . S
C570 C575 1.408 . S
C571 H561 0.930 . S
C571 C570 1.384 . S
C571 C572 1.389 . S
C572 C571 1.389 . S
C572 C573 1.405 . S
C573 H562 0.930 . S
C573 C572 1.405 . S
C573 C574 1.364 . S
C574 C573 1.364 . S
C574 C575 1.400 . S
C575 H563 0.931 . S
C575 C570 1.408 . S
C575 C574 1.400 . S
H576 C582 0.934 . S
H577 C586 0.930 . S
H578 C591 0.929 . S
H579 C589 0.986 1_455 S
H580 C584 0.929 . S
H581 C590 0.924 . S
C582 H576 0.934 . S
C582 C583 1.384 1_455 S
C582 C590 1.365 . S
C583 C582 1.384 1_655 S
C583 C591 1.433 . S
C584 H580 0.929 . S
C584 C586 1.378 . S
C584 C588 1.350 . S
C585 C588 1.463 . S
C585 C590 1.349 1_655 S
C585 N593 1.427 . S
C586 H577 0.930 . S
C586 C584 1.378 . S
C586 C587 1.367 . S
C587 C586 1.367 . S
C587 C589 1.437 . S
C588 C584 1.350 . S
C588 C585 1.463 . S
C588 N592 1.415 . S
C589 H579 0.986 1_655 S
C589 C587 1.437 . S
C589 N592 1.372 . S
C590 H581 0.924 . S
C590 C582 1.365 . S
C590 C585 1.349 1_455 S
C591 H578 0.929 . S
C591 C583 1.433 . S
C591 N593 1.384 . S
N592 C588 1.415 . S
N592 C589 1.372 . S
N593 C585 1.427 . S
N593 C591 1.384 . S
H594 C600 0.930 . S
H595 C604 0.930 . S
H596 C609 0.929 . S
H597 C607 0.929 . S
H598 C602 0.929 . S
H599 C608 0.929 . S
C600 H594 0.930 . S
C600 C601 1.367 . S
C600 C608 1.378 . S
C601 C600 1.367 . S
C601 C609 1.433 . S
C602 H598 0.929 . S
C602 C604 1.378 . S
C602 C606 1.350 . S
C603 C606 1.463 . S
C603 C608 1.350 . S
C603 N611 1.427 . S
C604 H595 0.930 . S
C604 C602 1.378 . S
C604 C605 1.367 . S
C605 C604 1.367 . S
C605 C607 1.433 . S
C606 C602 1.350 . S
C606 C603 1.463 . S
C606 N610 1.427 . S
C607 H597 0.929 . S
C607 C605 1.433 . S
C607 N610 1.384 . S
C608 H599 0.929 . S
C608 C600 1.378 . S
C608 C603 1.350 . S
C609 H596 0.929 . S
C609 C601 1.433 . S
C609 N611 1.384 . S
N610 C606 1.427 . S
N610 C607 1.384 . S
N611 C603 1.427 . S
N611 C609 1.384 . S
H612 C618 0.930 . S
H613 C622 0.930 . S
H614 C627 0.929 . S
H615 C625 0.929 . S
H616 C620 0.929 . S
H617 C626 0.929 . S
C618 H612 0.930 . S
C618 C619 1.367 1_565 S
C618 C626 1.378 . S
C619 C618 1.367 1_545 S
C619 C627 1.433 . S
C620 H616 0.929 . S
C620 C622 1.378 . S
C620 C624 1.350 . S
C621 C624 1.463 . S
C621 C626 1.350 1_545 S
C621 N629 1.427 . S
C622 H613 0.930 . S
C622 C620 1.378 . S
C622 C623 1.367 . S
C623 C622 1.367 . S
C623 C625 1.433 1_545 S
C624 C620 1.350 . S
C624 C621 1.463 . S
C624 N628 1.427 1_545 S
C625 H615 0.929 . S
C625 C623 1.433 1_565 S
C625 N628 1.384 . S
C626 H617 0.929 . S
C626 C618 1.378 . S
C626 C621 1.350 1_565 S
C627 H614 0.929 . S
C627 C619 1.433 . S
C627 N629 1.384 . S
N628 C624 1.427 1_565 S
N628 C625 1.384 . S
N629 C621 1.427 . S
N629 C627 1.384 . S
H630 C636 0.930 . S
H631 C640 0.930 . S
H632 C645 0.929 . S
H633 C643 0.929 . S
H634 C638 0.929 . S
H635 C644 0.929 . S
C636 H630 0.930 . S
C636 C637 1.385 . S
C636 C644 1.378 . S
C637 C636 1.385 . S
C637 C645 1.426 1_565 S
C638 H634 0.929 . S
C638 C640 1.378 . S
C638 C642 1.350 1_545 S
C639 C642 1.463 . S
C639 C644 1.350 . S
C639 N647 1.427 1_565 S
C640 H631 0.930 . S
C640 C638 1.378 . S
C640 C641 1.367 1_545 S
C641 C640 1.367 1_565 S
C641 C643 1.433 . S
C642 C638 1.350 1_565 S
C642 C639 1.463 . S
C642 N646 1.427 . S
C643 H633 0.929 . S
C643 C641 1.433 . S
C643 N646 1.384 . S
C644 H635 0.929 . S
C644 C636 1.378 . S
C644 C639 1.350 . S
C645 H632 0.929 . S
C645 C637 1.426 1_545 S
C645 N647 1.384 . S
N646 C642 1.427 . S
N646 C643 1.384 . S
N647 C639 1.427 1_545 S
N647 C645 1.384 . S
H648 C654 0.930 . S
H649 C658 0.930 . S
H650 C663 0.929 . S
H651 C661 0.929 . S
H652 C656 0.929 . S
H653 C662 0.929 . S
C654 H648 0.930 . S
C654 C655 1.367 1_655 S
C654 C662 1.378 . S
C655 C654 1.367 1_455 S
C655 C663 1.433 . S
C656 H652 0.929 . S
C656 C658 1.378 . S
C656 C660 1.350 . S
C657 C660 1.463 . S
C657 C662 1.350 1_455 S
C657 N665 1.427 . S
C658 H649 0.930 . S
C658 C656 1.378 . S
C658 C659 1.367 . S
C659 C658 1.367 . S
C659 C661 1.433 1_455 S
C660 C656 1.350 . S
C660 C657 1.463 . S
C660 N664 1.427 1_455 S
C661 H651 0.929 . S
C661 C659 1.433 1_655 S
C661 N664 1.384 . S
C662 H653 0.929 . S
C662 C654 1.378 . S
C662 C657 1.350 1_655 S
C663 H650 0.929 . S
C663 C655 1.433 . S
C663 N665 1.384 . S
N664 C660 1.427 1_655 S
N664 C661 1.384 . S
N665 C657 1.427 . S
N665 C663 1.384 . S
H666 C672 0.930 . S
H667 C676 0.930 . S
H668 C681 0.929 . S
H669 C679 0.929 . S
H670 C674 0.929 . S
H671 C680 0.929 . S
C672 H666 0.930 . S
C672 C673 1.367 . S
C672 C680 1.378 . S
C673 C672 1.367 . S
C673 C681 1.433 . S
C674 H670 0.929 . S
C674 C676 1.378 . S
C674 C678 1.350 . S
C675 C678 1.463 . S
C675 C680 1.350 . S
C675 N683 1.427 . S
C676 H667 0.930 . S
C676 C674 1.378 . S
C676 C677 1.367 . S
C677 C676 1.367 . S
C677 C679 1.433 . S
C678 C674 1.350 . S
C678 C675 1.463 . S
C678 N682 1.427 . S
C679 H669 0.929 . S
C679 C677 1.433 . S
C679 N682 1.384 . S
C680 H671 0.929 . S
C680 C672 1.378 . S
C680 C675 1.350 . S
C681 H668 0.929 . S
C681 C673 1.433 . S
C681 N683 1.384 . S
N682 C678 1.427 . S
N682 C679 1.384 . S
N683 C675 1.427 . S
N683 C681 1.384 . S
H684 C690 0.930 . S
H685 C694 0.930 . S
H686 C699 0.929 . S
H687 C697 0.929 . S
H688 C692 0.929 . S
H689 C698 0.929 . S
C690 H684 0.930 . S
C690 C691 1.367 1_655 S
C690 C698 1.378 . S
C691 C690 1.367 1_455 S
C691 C699 1.433 . S
C692 H688 0.929 . S
C692 C694 1.378 . S
C692 C696 1.389 . S
C693 C696 1.453 . S
C693 C698 1.326 1_455 S
C693 N701 1.436 . S
C694 H685 0.930 . S
C694 C692 1.378 . S
C694 C695 1.365 1_455 S
C695 C694 1.365 1_655 S
C695 C697 1.439 . S
C696 C692 1.389 . S
C696 C693 1.453 . S
C696 N700 1.416 1_455 S
C697 H687 0.929 . S
C697 C695 1.439 . S
C697 N700 1.384 . S
C698 H689 0.929 . S
C698 C690 1.378 . S
C698 C693 1.326 1_655 S
C699 H686 0.929 . S
C699 C691 1.433 . S
C699 N701 1.384 . S
N700 C696 1.416 1_655 S
N700 C697 1.384 . S
N701 C693 1.436 . S
N701 C699 1.384 . S
H702 C708 0.930 . S
H703 C712 0.930 . S
H704 C717 0.929 . S
H705 C715 0.929 . S
H706 C710 0.929 . S
H707 C716 0.929 . S
C708 H702 0.930 . S
C708 C709 1.367 . S
C708 C716 1.378 . S
C709 C708 1.367 . S
C709 C717 1.433 . S
C710 H706 0.929 . S
C710 C712 1.378 . S
C710 C714 1.350 . S
C711 C714 1.463 . S
C711 C716 1.350 . S
C711 N719 1.427 . S
C712 H703 0.930 . S
C712 C710 1.378 . S
C712 C713 1.367 . S
C713 C712 1.367 . S
C713 C715 1.433 . S
C714 C710 1.350 . S
C714 C711 1.463 . S
C714 N718 1.427 . S
C715 H705 0.929 . S
C715 C713 1.433 . S
C715 N718 1.384 . S
C716 H707 0.929 . S
C716 C708 1.378 . S
C716 C711 1.350 . S
C717 H704 0.929 . S
C717 C709 1.433 . S
C717 N719 1.384 . S
N718 C714 1.427 . S
N718 C715 1.384 . S
N719 C711 1.427 . S
N719 C717 1.384 . S
H720 C726 0.930 . S
H721 C730 0.930 . S
H722 C735 0.929 . S
H723 C733 0.929 . S
H724 C728 0.929 . S
H725 C734 0.929 . S
C726 H720 0.930 . S
C726 C727 1.367 1_545 S
C726 C734 1.378 . S
C727 C726 1.367 1_565 S
C727 C735 1.433 . S
C728 H724 0.929 . S
C728 C730 1.378 . S
C728 C732 1.376 . S
C729 C732 1.487 . S
C729 C734 1.348 1_565 S
C729 N737 1.431 . S
C730 H721 0.930 . S
C730 C728 1.378 . S
C730 C731 1.371 1_565 S
C731 C730 1.371 1_545 S
C731 C733 1.431 . S
C732 C728 1.376 . S
C732 C729 1.487 . S
C732 N736 1.376 1_565 S
C733 H723 0.929 . S
C733 C731 1.431 . S
C733 N736 1.384 . S
C734 H725 0.929 . S
C734 C726 1.378 . S
C734 C729 1.348 1_545 S
C735 H722 0.929 . S
C735 C727 1.433 . S
C735 N737 1.384 . S
N736 C732 1.376 1_545 S
N736 C733 1.384 . S
N737 C729 1.431 . S
N737 C735 1.384 . S
H738 C744 0.930 . S
H739 C748 0.930 . S
H740 C753 0.929 . S
H741 C751 0.929 . S
H742 C746 0.929 . S
H743 C752 0.929 . S
C744 H738 0.930 . S
C744 C745 1.367 . S
C744 C752 1.378 . S
C745 C744 1.367 . S
C745 C753 1.433 1_545 S
C746 H742 0.929 . S
C746 C748 1.378 . S
C746 C750 1.345 1_565 S
C747 C750 1.455 . S
C747 C752 1.350 . S
C747 N755 1.427 1_545 S
C748 H739 0.930 . S
C748 C746 1.378 . S
C748 C749 1.396 . S
C749 C748 1.396 . S
C749 C751 1.422 1_565 S
C750 C746 1.345 1_545 S
C750 C747 1.455 . S
C750 N754 1.441 . S
C751 H741 0.929 . S
C751 C749 1.422 1_545 S
C751 N754 1.384 . S
C752 H743 0.929 . S
C752 C744 1.378 . S
C752 C747 1.350 . S
C753 H740 0.929 . S
C753 C745 1.433 1_565 S
C753 N755 1.384 . S
N754 C750 1.441 . S
N754 C751 1.384 . S
N755 C747 1.427 1_565 S
N755 C753 1.384 . S
H756 C762 0.930 . S
H757 C766 0.930 . S
H758 C771 0.929 . S
H759 C769 0.929 . S
H760 C764 0.929 . S
H761 C770 0.929 . S
C762 H756 0.930 . S
C762 C763 1.367 . S
C762 C770 1.378 . S
C763 C762 1.367 . S
C763 C771 1.433 1_655 S
C764 H760 0.929 . S
C764 C766 1.378 . S
C764 C768 1.356 1_455 S
C765 C768 1.459 . S
C765 C770 1.350 . S
C765 N773 1.427 1_655 S
C766 H757 0.930 . S
C766 C764 1.378 . S
C766 C767 1.384 . S
C767 C766 1.384 . S
C767 C769 1.401 1_455 S
C768 C764 1.356 1_655 S
C768 C765 1.459 . S
C768 N772 1.424 . S
C769 H759 0.929 . S
C769 C767 1.401 1_655 S
C769 N772 1.384 . S
C770 H761 0.929 . S
C770 C762 1.378 . S
C770 C765 1.350 . S
C771 H758 0.929 . S
C771 C763 1.433 1_455 S
C771 N773 1.384 . S
N772 C768 1.424 . S
N772 C769 1.384 . S
N773 C765 1.427 1_455 S
N773 C771 1.384 . S
H774 C780 0.930 . S
H775 C784 0.930 . S
H776 C789 0.929 . S
H777 C787 0.929 . S
H778 C782 0.929 . S
H779 C788 0.929 . S
C780 H774 0.930 . S
C780 C781 1.367 . S
C780 C788 1.378 . S
C781 C780 1.367 . S
C781 C789 1.433 . S
C782 H778 0.929 . S
C782 C784 1.378 . S
C782 C786 1.350 . S
C783 C786 1.463 . S
C783 C788 1.350 . S
C783 N791 1.427 . S
C784 H775 0.930 . S
C784 C782 1.378 . S
C784 C785 1.367 . S
C785 C784 1.367 . S
C785 C787 1.433 . S
C786 C782 1.350 . S
C786 C783 1.463 . S
C786 N790 1.427 . S
C787 H777 0.929 . S
C787 C785 1.433 . S
C787 N790 1.384 . S
C788 H779 0.929 . S
C788 C780 1.378 . S
C788 C783 1.350 . S
C789 H776 0.929 . S
C789 C781 1.433 . S
C789 N791 1.384 . S
N790 C786 1.427 . S
N790 C787 1.384 . S
N791 C783 1.427 . S
N791 C789 1.384 . S
H792 C798 0.930 . S
H793 C802 0.930 . S
H794 C807 0.929 . S
H795 C805 0.929 . S
H796 C800 0.929 . S
H797 C806 0.929 . S
C798 H792 0.930 . S
C798 C799 1.367 . S
C798 C806 1.378 . S
C799 C798 1.367 . S
C799 C807 1.433 . S
C800 H796 0.929 . S
C800 C802 1.378 . S
C800 C804 1.350 . S
C801 C804 1.463 . S
C801 C806 1.350 . S
C801 N809 1.427 . S
C802 H793 0.930 . S
C802 C800 1.378 . S
C802 C803 1.367 . S
C803 C802 1.367 . S
C803 C805 1.433 . S
C804 C800 1.350 . S
C804 C801 1.463 . S
C804 N808 1.427 . S
C805 H795 0.929 . S
C805 C803 1.433 . S
C805 N808 1.384 . S
C806 H797 0.929 . S
C806 C798 1.378 . S
C806 C801 1.350 . S
C807 H794 0.929 . S
C807 C799 1.433 . S
C807 N809 1.384 . S
N808 C804 1.427 . S
N808 C805 1.384 . S
N809 C801 1.427 . S
N809 C807 1.384 . S
H810 C816 0.930 . S
H811 C820 0.930 . S
H812 C825 0.929 . S
H813 C823 0.929 . S
H814 C818 0.929 . S
H815 C824 0.929 . S
C816 H810 0.930 . S
C816 C817 1.367 . S
C816 C824 1.378 . S
C817 C816 1.367 . S
C817 C825 1.433 . S
C818 H814 0.929 . S
C818 C820 1.378 . S
C818 C822 1.350 . S
C819 C822 1.463 . S
C819 C824 1.350 . S
C819 N827 1.427 . S
C820 H811 0.930 . S
C820 C818 1.378 . S
C820 C821 1.367 . S
C821 C820 1.367 . S
C821 C823 1.433 . S
C822 C818 1.350 . S
C822 C819 1.463 . S
C822 N826 1.427 . S
C823 H813 0.929 . S
C823 C821 1.433 . S
C823 N826 1.384 . S
C824 H815 0.929 . S
C824 C816 1.378 . S
C824 C819 1.350 . S
C825 H812 0.929 . S
C825 C817 1.433 . S
C825 N827 1.384 . S
N826 C822 1.427 . S
N826 C823 1.384 . S
N827 C819 1.427 . S
N827 C825 1.384 . S
H828 C834 0.930 . S
H829 C838 0.930 . S
H830 C843 0.929 . S
H831 C841 0.929 . S
H832 C836 0.929 . S
H833 C842 0.929 . S
C834 H828 0.930 . S
C834 C835 1.367 . S
C834 C842 1.378 . S
C835 C834 1.367 . S
C835 C843 1.433 . S
C836 H832 0.929 . S
C836 C838 1.378 . S
C836 C840 1.350 . S
C837 C840 1.463 . S
C837 C842 1.350 . S
C837 N845 1.427 . S
C838 H829 0.930 . S
C838 C836 1.378 . S
C838 C839 1.367 . S
C839 C838 1.367 . S
C839 C841 1.433 . S
C840 C836 1.350 . S
C840 C837 1.463 . S
C840 N844 1.427 . S
C841 H831 0.929 . S
C841 C839 1.433 . S
C841 N844 1.384 . S
C842 H833 0.929 . S
C842 C834 1.378 . S
C842 C837 1.350 . S
C843 H830 0.929 . S
C843 C835 1.433 . S
C843 N845 1.384 . S
N844 C840 1.427 . S
N844 C841 1.384 . S
N845 C837 1.427 . S
N845 C843 1.384 . S
H846 C852 0.930 . S
H847 C856 0.930 . S
H848 C861 0.929 . S
H849 C859 0.929 . S
H850 C854 0.929 . S
H851 C860 0.929 . S
C852 H846 0.930 . S
C852 C853 1.367 . S
C852 C860 1.378 . S
C853 C852 1.367 . S
C853 C861 1.433 . S
C854 H850 0.929 . S
C854 C856 1.378 . S
C854 C858 1.350 . S
C855 C858 1.463 . S
C855 C860 1.350 . S
C855 N863 1.427 . S
C856 H847 0.930 . S
C856 C854 1.378 . S
C856 C857 1.367 . S
C857 C856 1.367 . S
C857 C859 1.433 . S
C858 C854 1.350 . S
C858 C855 1.463 . S
C858 N862 1.427 . S
C859 H849 0.929 . S
C859 C857 1.433 . S
C859 N862 1.384 . S
C860 H851 0.929 . S
C860 C852 1.378 . S
C860 C855 1.350 . S
C861 H848 0.929 . S
C861 C853 1.433 . S
C861 N863 1.384 . S
N862 C858 1.427 . S
N862 C859 1.384 . S
N863 C855 1.427 . S
N863 C861 1.384 . S
H864 C870 0.930 . S
H865 C874 0.930 . S
H866 C879 0.929 . S
H867 C877 0.929 . S
H868 C872 0.929 . S
H869 C878 0.929 . S
C870 H864 0.930 . S
C870 C871 1.367 . S
C870 C878 1.378 . S
C871 C870 1.367 . S
C871 C879 1.433 . S
C872 H868 0.929 . S
C872 C874 1.378 . S
C872 C876 1.350 . S
C873 C876 1.463 . S
C873 C878 1.350 . S
C873 N881 1.427 . S
C874 H865 0.930 . S
C874 C872 1.378 . S
C874 C875 1.367 . S
C875 C874 1.367 . S
C875 C877 1.433 . S
C876 C872 1.350 . S
C876 C873 1.463 . S
C876 N880 1.427 . S
C877 H867 0.929 . S
C877 C875 1.433 . S
C877 N880 1.384 . S
C878 H869 0.929 . S
C878 C870 1.378 . S
C878 C873 1.350 . S
C879 H866 0.929 . S
C879 C871 1.433 . S
C879 N881 1.384 . S
N880 C876 1.427 . S
N880 C877 1.384 . S
N881 C873 1.427 . S
N881 C879 1.384 . S
H882 C888 0.930 . S
H883 C892 0.930 . S
H884 C897 0.929 . S
H885 C895 0.929 . S
H886 C890 0.929 . S
H887 C896 0.929 . S
C888 H882 0.930 . S
C888 C889 1.367 . S
C888 C896 1.378 . S
C889 C888 1.367 . S
C889 C897 1.433 . S
C890 H886 0.929 . S
C890 C892 1.378 . S
C890 C894 1.350 . S
C891 C894 1.463 . S
C891 C896 1.350 . S
C891 N899 1.427 . S
C892 H883 0.930 . S
C892 C890 1.378 . S
C892 C893 1.367 . S
C893 C892 1.367 . S
C893 C895 1.433 . S
C894 C890 1.350 . S
C894 C891 1.463 . S
C894 N898 1.427 . S
C895 H885 0.929 . S
C895 C893 1.433 . S
C895 N898 1.384 . S
C896 H887 0.929 . S
C896 C888 1.378 . S
C896 C891 1.350 . S
C897 H884 0.929 . S
C897 C889 1.433 . S
C897 N899 1.384 . S
N898 C894 1.427 . S
N898 C895 1.384 . S
N899 C891 1.427 . S
N899 C897 1.384 . S
H900 C906 0.930 . S
H901 C910 0.930 . S
H902 C915 0.929 . S
H903 C913 0.929 . S
H904 C908 0.929 . S
H905 C914 0.929 . S
C906 H900 0.930 . S
C906 C907 1.367 . S
C906 C914 1.378 . S
C907 C906 1.367 . S
C907 C915 1.433 . S
C908 H904 0.929 . S
C908 C910 1.378 . S
C908 C912 1.350 . S
C909 C912 1.463 . S
C909 C914 1.350 . S
C909 N917 1.427 . S
C910 H901 0.930 . S
C910 C908 1.378 . S
C910 C911 1.367 . S
C911 C910 1.367 . S
C911 C913 1.433 . S
C912 C908 1.350 . S
C912 C909 1.463 . S
C912 N916 1.427 . S
C913 H903 0.929 . S
C913 C911 1.433 . S
C913 N916 1.384 . S
C914 H905 0.929 . S
C914 C906 1.378 . S
C914 C909 1.350 . S
C915 H902 0.929 . S
C915 C907 1.433 . S
C915 N917 1.384 . S
N916 C912 1.427 . S
N916 C913 1.384 . S
N917 C909 1.427 . S
N917 C915 1.384 . S
H918 C924 0.930 . S
H919 C928 0.930 . S
H920 C933 0.929 . S
H921 C931 0.929 . S
H922 C926 0.929 . S
H923 C932 0.929 . S
C924 H918 0.930 . S
C924 C925 1.367 . S
C924 C932 1.378 . S
C925 C924 1.367 . S
C925 C933 1.433 . S
C926 H922 0.929 . S
C926 C928 1.378 . S
C926 C930 1.350 . S
C927 C930 1.463 . S
C927 C932 1.350 . S
C927 N935 1.427 . S
C928 H919 0.930 . S
C928 C926 1.378 . S
C928 C929 1.367 . S
C929 C928 1.367 . S
C929 C931 1.433 . S
C930 C926 1.350 . S
C930 C927 1.463 . S
C930 N934 1.427 . S
C931 H921 0.929 . S
C931 C929 1.433 . S
C931 N934 1.384 . S
C932 H923 0.929 . S
C932 C924 1.378 . S
C932 C927 1.350 . S
C933 H920 0.929 . S
C933 C925 1.433 . S
C933 N935 1.384 . S
N934 C930 1.427 . S
N934 C931 1.384 . S
N935 C927 1.427 . S
N935 C933 1.384 . S
H936 C942 0.930 . S
H937 C946 0.930 . S
H938 C951 0.929 . S
H939 C949 0.929 . S
H940 C944 0.929 . S
H941 C950 0.929 . S
C942 H936 0.930 . S
C942 C943 1.367 . S
C942 C950 1.378 . S
C943 C942 1.367 . S
C943 C951 1.433 . S
C944 H940 0.929 . S
C944 C946 1.378 . S
C944 C948 1.350 . S
C945 C948 1.463 . S
C945 C950 1.350 . S
C945 N953 1.427 . S
C946 H937 0.930 . S
C946 C944 1.378 . S
C946 C947 1.367 . S
C947 C946 1.367 . S
C947 C949 1.433 . S
C948 C944 1.350 . S
C948 C945 1.463 . S
C948 N952 1.427 . S
C949 H939 0.929 . S
C949 C947 1.433 . S
C949 N952 1.384 . S
C950 H941 0.929 . S
C950 C942 1.378 . S
C950 C945 1.350 . S
C951 H938 0.929 . S
C951 C943 1.433 . S
C951 N953 1.384 . S
N952 C948 1.427 . S
N952 C949 1.384 . S
N953 C945 1.427 . S
N953 C951 1.384 . S
H954 C960 0.930 . S
H955 C964 0.930 . S
H956 C969 0.929 . S
H957 C967 0.929 . S
H958 C962 0.929 . S
H959 C968 0.929 . S
C960 H954 0.930 . S
C960 C961 1.367 . S
C960 C968 1.378 . S
C961 C960 1.367 . S
C961 C969 1.433 . S
C962 H958 0.929 . S
C962 C964 1.378 . S
C962 C966 1.350 . S
C963 C966 1.463 . S
C963 C968 1.350 . S
C963 N971 1.427 . S
C964 H955 0.930 . S
C964 C962 1.378 . S
C964 C965 1.367 . S
C965 C964 1.367 . S
C965 C967 1.433 . S
C966 C962 1.350 . S
C966 C963 1.463 . S
C966 N970 1.427 . S
C967 H957 0.929 . S
C967 C965 1.433 . S
C967 N970 1.384 . S
C968 H959 0.929 . S
C968 C960 1.378 . S
C968 C963 1.350 . S
C969 H956 0.929 . S
C969 C961 1.433 . S
C969 N971 1.384 . S
N970 C966 1.427 . S
N970 C967 1.384 . S
N971 C963 1.427 . S
N971 C969 1.384 . S
H972 C978 0.930 . S
H973 C982 0.930 . S
H974 C987 0.929 . S
H975 C985 0.929 . S
H976 C980 0.929 . S
H977 C986 0.929 . S
C978 H972 0.930 . S
C978 C979 1.367 . S
C978 C986 1.378 . S
C979 C978 1.367 . S
C979 C987 1.433 . S
C980 H976 0.929 . S
C980 C982 1.378 . S
C980 C984 1.350 . S
C981 C984 1.463 . S
C981 C986 1.350 . S
C981 N989 1.427 . S
C982 H973 0.930 . S
C982 C980 1.378 . S
C982 C983 1.367 . S
C983 C982 1.367 . S
C983 C985 1.433 . S
C984 C980 1.350 . S
C984 C981 1.463 . S
C984 N988 1.427 . S
C985 H975 0.929 . S
C985 C983 1.433 . S
C985 N988 1.384 . S
C986 H977 0.929 . S
C986 C978 1.378 . S
C986 C981 1.350 . S
C987 H974 0.929 . S
C987 C979 1.433 . S
C987 N989 1.384 . S
N988 C984 1.427 . S
N988 C985 1.384 . S
N989 C981 1.427 . S
N989 C987 1.384 . S
H990 C996 0.930 . S
H991 C1000 0.930 . S
H992 C1005 0.929 . S
H993 C1003 0.929 . S
H994 C998 0.929 . S
H995 C1004 0.929 . S
C996 H990 0.930 . S
C996 C997 1.367 . S
C996 C1004 1.378 . S
C997 C996 1.367 . S
C997 C1005 1.433 . S
C998 H994 0.929 . S
C998 C1000 1.378 . S
C998 C1002 1.350 . S
C999 C1002 1.463 . S
C999 C1004 1.350 . S
C999 N1007 1.427 . S
C1000 H991 0.930 . S
C1000 C998 1.378 . S
C1000 C1001 1.367 . S
C1001 C1000 1.367 . S
C1001 C1003 1.433 . S
C1002 C998 1.350 . S
C1002 C999 1.463 . S
C1002 N1006 1.427 . S
C1003 H993 0.929 . S
C1003 C1001 1.433 . S
C1003 N1006 1.384 . S
C1004 H995 0.929 . S
C1004 C996 1.378 . S
C1004 C999 1.350 . S
C1005 H992 0.929 . S
C1005 C997 1.433 . S
C1005 N1007 1.384 . S
N1006 C1002 1.427 . S
N1006 C1003 1.384 . S
N1007 C999 1.427 . S
N1007 C1005 1.384 . S
H1008 C1014 0.930 . S
H1009 C1018 0.930 . S
H1010 C1023 0.929 . S
H1011 C1021 0.929 . S
H1012 C1016 0.929 . S
H1013 C1022 0.929 . S
C1014 H1008 0.930 . S
C1014 C1015 1.367 . S
C1014 C1022 1.378 . S
C1015 C1014 1.367 . S
C1015 C1023 1.433 . S
C1016 H1012 0.929 . S
C1016 C1018 1.378 . S
C1016 C1020 1.350 . S
C1017 C1020 1.463 . S
C1017 C1022 1.350 . S
C1017 N1025 1.427 . S
C1018 H1009 0.930 . S
C1018 C1016 1.378 . S
C1018 C1019 1.367 . S
C1019 C1018 1.367 . S
C1019 C1021 1.433 . S
C1020 C1016 1.350 . S
C1020 C1017 1.463 . S
C1020 N1024 1.427 . S
C1021 H1011 0.929 . S
C1021 C1019 1.433 . S
C1021 N1024 1.384 . S
C1022 H1013 0.929 . S
C1022 C1014 1.378 . S
C1022 C1017 1.350 . S
C1023 H1010 0.929 . S
C1023 C1015 1.433 . S
C1023 N1025 1.384 . S
N1024 C1020 1.427 . S
N1024 C1021 1.384 . S
N1025 C1017 1.427 . S
N1025 C1023 1.384 . S
H1026 C1032 0.930 . S
H1027 C1036 0.930 . S
H1028 C1041 0.929 . S
H1029 C1039 0.929 . S
H1030 C1034 0.929 . S
H1031 C1040 0.929 . S
C1032 H1026 0.930 . S
C1032 C1033 1.367 . S
C1032 C1040 1.378 . S
C1033 C1032 1.367 . S
C1033 C1041 1.433 . S
C1034 H1030 0.929 . S
C1034 C1036 1.378 . S
C1034 C1038 1.350 . S
C1035 C1038 1.463 . S
C1035 C1040 1.350 . S
C1035 N1043 1.427 . S
C1036 H1027 0.930 . S
C1036 C1034 1.378 . S
C1036 C1037 1.367 . S
C1037 C1036 1.367 . S
C1037 C1039 1.433 . S
C1038 C1034 1.350 . S
C1038 C1035 1.463 . S
C1038 N1042 1.427 . S
C1039 H1029 0.929 . S
C1039 C1037 1.433 . S
C1039 N1042 1.384 . S
C1040 H1031 0.929 . S
C1040 C1032 1.378 . S
C1040 C1035 1.350 . S
C1041 H1028 0.929 . S
C1041 C1033 1.433 . S
C1041 N1043 1.384 . S
N1042 C1038 1.427 . S
N1042 C1039 1.384 . S
N1043 C1035 1.427 . S
N1043 C1041 1.384 . S
H1044 C1050 0.930 . S
H1045 C1054 0.930 . S
H1046 C1059 0.929 . S
H1047 C1057 0.929 . S
H1048 C1052 0.929 . S
H1049 C1058 0.929 . S
C1050 H1044 0.930 . S
C1050 C1051 1.367 . S
C1050 C1058 1.378 . S
C1051 C1050 1.367 . S
C1051 C1059 1.433 . S
C1052 H1048 0.929 . S
C1052 C1054 1.378 . S
C1052 C1056 1.350 . S
C1053 C1056 1.463 . S
C1053 C1058 1.350 . S
C1053 N1061 1.427 . S
C1054 H1045 0.930 . S
C1054 C1052 1.378 . S
C1054 C1055 1.367 . S
C1055 C1054 1.367 . S
C1055 C1057 1.433 . S
C1056 C1052 1.350 . S
C1056 C1053 1.463 . S
C1056 N1060 1.427 . S
C1057 H1047 0.929 . S
C1057 C1055 1.433 . S
C1057 N1060 1.384 . S
C1058 H1049 0.929 . S
C1058 C1050 1.378 . S
C1058 C1053 1.350 . S
C1059 H1046 0.929 . S
C1059 C1051 1.433 . S
C1059 N1061 1.384 . S
N1060 C1056 1.427 . S
N1060 C1057 1.384 . S
N1061 C1053 1.427 . S
N1061 C1059 1.384 . S
H1062 C1068 0.930 . S
H1063 C1072 0.930 . S
H1064 C1077 0.929 . S
H1065 C1075 0.929 . S
H1066 C1070 0.929 . S
H1067 C1076 0.929 . S
C1068 H1062 0.930 . S
C1068 C1069 1.367 . S
C1068 C1076 1.378 . S
C1069 C1068 1.367 . S
C1069 C1077 1.433 . S
C1070 H1066 0.929 . S
C1070 C1072 1.378 . S
C1070 C1074 1.350 . S
C1071 C1074 1.463 . S
C1071 C1076 1.350 . S
C1071 N1079 1.427 . S
C1072 H1063 0.930 . S
C1072 C1070 1.378 . S
C1072 C1073 1.367 . S
C1073 C1072 1.367 . S
C1073 C1075 1.433 . S
C1074 C1070 1.350 . S
C1074 C1071 1.463 . S
C1074 N1078 1.427 . S
C1075 H1065 0.929 . S
C1075 C1073 1.433 . S
C1075 N1078 1.384 . S
C1076 H1067 0.929 . S
C1076 C1068 1.378 . S
C1076 C1071 1.350 . S
C1077 H1064 0.929 . S
C1077 C1069 1.433 . S
C1077 N1079 1.384 . S
N1078 C1074 1.427 . S
N1078 C1075 1.384 . S
N1079 C1071 1.427 . S
N1079 C1077 1.384 . S
H1080 C1086 0.930 . S
H1081 C1090 0.930 . S
H1082 C1095 0.929 . S
H1083 C1093 0.929 . S
H1084 C1088 0.929 . S
H1085 C1094 0.929 . S
C1086 H1080 0.930 . S
C1086 C1087 1.367 . S
C1086 C1094 1.378 . S
C1087 C1086 1.367 . S
C1087 C1095 1.433 . S
C1088 H1084 0.929 . S
C1088 C1090 1.378 . S
C1088 C1092 1.350 . S
C1089 C1092 1.463 . S
C1089 C1094 1.350 . S
C1089 N1097 1.427 . S
C1090 H1081 0.930 . S
C1090 C1088 1.378 . S
C1090 C1091 1.367 . S
C1091 C1090 1.367 . S
C1091 C1093 1.433 . S
C1092 C1088 1.350 . S
C1092 C1089 1.463 . S
C1092 N1096 1.427 . S
C1093 H1083 0.929 . S
C1093 C1091 1.433 . S
C1093 N1096 1.384 . S
C1094 H1085 0.929 . S
C1094 C1086 1.378 . S
C1094 C1089 1.350 . S
C1095 H1082 0.929 . S
C1095 C1087 1.433 . S
C1095 N1097 1.384 . S
N1096 C1092 1.427 . S
N1096 C1093 1.384 . S
N1097 C1089 1.427 . S
N1097 C1095 1.384 . S
H1098 C1104 0.930 . S
H1099 C1108 0.930 . S
H1100 C1113 0.929 . S
H1101 C1111 0.929 . S
H1102 C1106 0.929 . S
H1103 C1112 0.929 . S
C1104 H1098 0.930 . S
C1104 C1105 1.367 . S
C1104 C1112 1.378 . S
C1105 C1104 1.367 . S
C1105 C1113 1.433 . S
C1106 H1102 0.929 . S
C1106 C1108 1.378 . S
C1106 C1110 1.350 . S
C1107 C1110 1.463 . S
C1107 C1112 1.350 . S
C1107 N1115 1.427 . S
C1108 H1099 0.930 . S
C1108 C1106 1.378 . S
C1108 C1109 1.367 . S
C1109 C1108 1.367 . S
C1109 C1111 1.433 . S
C1110 C1106 1.350 . S
C1110 C1107 1.463 . S
C1110 N1114 1.427 . S
C1111 H1101 0.929 . S
C1111 C1109 1.433 . S
C1111 N1114 1.384 . S
C1112 H1103 0.929 . S
C1112 C1104 1.378 . S
C1112 C1107 1.350 . S
C1113 H1100 0.929 . S
C1113 C1105 1.433 . S
C1113 N1115 1.384 . S
N1114 C1110 1.427 . S
N1114 C1111 1.384 . S
N1115 C1107 1.427 . S
N1115 C1113 1.384 . S
H1116 C1122 0.930 . S
H1117 C1126 0.930 . S
H1118 C1131 0.929 . S
H1119 C1129 0.929 . S
H1120 C1124 0.929 . S
H1121 C1130 0.929 . S
C1122 H1116 0.930 . S
C1122 C1123 1.367 . S
C1122 C1130 1.378 . S
C1123 C1122 1.367 . S
C1123 C1131 1.433 . S
C1124 H1120 0.929 . S
C1124 C1126 1.378 . S
C1124 C1128 1.350 . S
C1125 C1128 1.463 . S
C1125 C1130 1.350 . S
C1125 N1133 1.427 . S
C1126 H1117 0.930 . S
C1126 C1124 1.378 . S
C1126 C1127 1.367 . S
C1127 C1126 1.367 . S
C1127 C1129 1.433 . S
C1128 C1124 1.350 . S
C1128 C1125 1.463 . S
C1128 N1132 1.427 . S
C1129 H1119 0.929 . S
C1129 C1127 1.433 . S
C1129 N1132 1.384 . S
C1130 H1121 0.929 . S
C1130 C1122 1.378 . S
C1130 C1125 1.350 . S
C1131 H1118 0.929 . S
C1131 C1123 1.433 . S
C1131 N1133 1.384 . S
N1132 C1128 1.427 . S
N1132 C1129 1.384 . S
N1133 C1125 1.427 . S
N1133 C1131 1.384 . S
H1134 C1140 0.930 . S
H1135 C1144 0.930 . S
H1136 C1149 0.929 . S
H1137 C1147 0.929 . S
H1138 C1142 0.929 . S
H1139 C1148 0.929 . S
C1140 H1134 0.930 . S
C1140 C1141 1.367 . S
C1140 C1148 1.378 . S
C1141 C1140 1.367 . S
C1141 C1149 1.433 . S
C1142 H1138 0.929 . S
C1142 C1144 1.378 . S
C1142 C1146 1.350 . S
C1143 C1146 1.463 . S
C1143 C1148 1.350 . S
C1143 N1151 1.427 . S
C1144 H1135 0.930 . S
C1144 C1142 1.378 . S
C1144 C1145 1.367 . S
C1145 C1144 1.367 . S
C1145 C1147 1.433 . S
C1146 C1142 1.350 . S
C1146 C1143 1.463 . S
C1146 N1150 1.427 . S
C1147 H1137 0.929 . S
C1147 C1145 1.433 . S
C1147 N1150 1.384 . S
C1148 H1139 0.929 . S
C1148 C1140 1.378 . S
C1148 C1143 1.350 . S
C1149 H1136 0.929 . S
C1149 C1141 1.433 . S
C1149 N1151 1.384 . S
N1150 C1146 1.427 . S
N1150 C1147 1.384 . S
N1151 C1143 1.427 . S
N1151 C1149 1.384 . S
H1152 C1158 0.930 . S
H1153 C1162 0.930 . S
H1154 C1167 0.929 . S
H1155 C1165 0.929 . S
H1156 C1160 0.929 . S
H1157 C1166 0.929 . S
C1158 H1152 0.930 . S
C1158 C1159 1.367 . S
C1158 C1166 1.378 . S
C1159 C1158 1.367 . S
C1159 C1167 1.433 . S
C1160 H1156 0.929 . S
C1160 C1162 1.378 . S
C1160 C1164 1.350 . S
C1161 C1164 1.463 . S
C1161 C1166 1.350 . S
C1161 N1169 1.427 . S
C1162 H1153 0.930 . S
C1162 C1160 1.378 . S
C1162 C1163 1.367 . S
C1163 C1162 1.367 . S
C1163 C1165 1.433 . S
C1164 C1160 1.350 . S
C1164 C1161 1.463 . S
C1164 N1168 1.427 . S
C1165 H1155 0.929 . S
C1165 C1163 1.433 . S
C1165 N1168 1.384 . S
C1166 H1157 0.929 . S
C1166 C1158 1.378 . S
C1166 C1161 1.350 . S
C1167 H1154 0.929 . S
C1167 C1159 1.433 . S
C1167 N1169 1.384 . S
N1168 C1164 1.427 . S
N1168 C1165 1.384 . S
N1169 C1161 1.427 . S
N1169 C1167 1.384 . S
H1170 C1176 0.930 . S
H1171 C1180 0.930 . S
H1172 C1185 0.929 . S
H1173 C1183 0.929 . S
H1174 C1178 0.929 . S
H1175 C1184 0.929 . S
C1176 H1170 0.930 . S
C1176 C1177 1.367 . S
C1176 C1184 1.378 . S
C1177 C1176 1.367 . S
C1177 C1185 1.433 . S
C1178 H1174 0.929 . S
C1178 C1180 1.378 . S
C1178 C1182 1.350 . S
C1179 C1182 1.463 . S
C1179 C1184 1.350 . S
C1179 N1187 1.427 . S
C1180 H1171 0.930 . S
C1180 C1178 1.378 . S
C1180 C1181 1.367 . S
C1181 C1180 1.367 . S
C1181 C1183 1.433 . S
C1182 C1178 1.350 . S
C1182 C1179 1.463 . S
C1182 N1186 1.427 . S
C1183 H1173 0.929 . S
C1183 C1181 1.433 . S
C1183 N1186 1.384 . S
C1184 H1175 0.929 . S
C1184 C1176 1.378 . S
C1184 C1179 1.350 . S
C1185 H1172 0.929 . S
C1185 C1177 1.433 . S
C1185 N1187 1.384 . S
N1186 C1182 1.427 . S
N1186 C1183 1.384 . S
N1187 C1179 1.427 . S
N1187 C1185 1.384 . S
H1188 C1194 0.930 . S
H1189 C1198 0.930 . S
H1190 C1203 0.929 . S
H1191 C1201 0.929 . S
H1192 C1196 0.929 . S
H1193 C1202 0.929 . S
C1194 H1188 0.930 . S
C1194 C1195 1.367 . S
C1194 C1202 1.378 . S
C1195 C1194 1.367 . S
C1195 C1203 1.433 . S
C1196 H1192 0.929 . S
C1196 C1198 1.378 . S
C1196 C1200 1.350 . S
C1197 C1200 1.463 . S
C1197 C1202 1.350 . S
C1197 N1205 1.427 . S
C1198 H1189 0.930 . S
C1198 C1196 1.378 . S
C1198 C1199 1.367 . S
C1199 C1198 1.367 . S
C1199 C1201 1.433 . S
C1200 C1196 1.350 . S
C1200 C1197 1.463 . S
C1200 N1204 1.427 . S
C1201 H1191 0.929 . S
C1201 C1199 1.433 . S
C1201 N1204 1.384 . S
C1202 H1193 0.929 . S
C1202 C1194 1.378 . S
C1202 C1197 1.350 . S
C1203 H1190 0.929 . S
C1203 C1195 1.433 . S
C1203 N1205 1.384 . S
N1204 C1200 1.427 . S
N1204 C1201 1.384 . S
N1205 C1197 1.427 . S
N1205 C1203 1.384 . S
H1206 C1212 0.930 . S
H1207 C1216 0.930 . S
H1208 C1221 0.929 . S
H1209 C1219 0.929 . S
H1210 C1214 0.929 . S
H1211 C1220 0.929 . S
C1212 H1206 0.930 . S
C1212 C1213 1.367 . S
C1212 C1220 1.378 . S
C1213 C1212 1.367 . S
C1213 C1221 1.433 . S
C1214 H1210 0.929 . S
C1214 C1216 1.378 . S
C1214 C1218 1.350 . S
C1215 C1218 1.463 . S
C1215 C1220 1.350 . S
C1215 N1223 1.427 . S
C1216 H1207 0.930 . S
C1216 C1214 1.378 . S
C1216 C1217 1.367 . S
C1217 C1216 1.367 . S
C1217 C1219 1.433 . S
C1218 C1214 1.350 . S
C1218 C1215 1.463 . S
C1218 N1222 1.427 . S
C1219 H1209 0.929 . S
C1219 C1217 1.433 . S
C1219 N1222 1.384 . S
C1220 H1211 0.929 . S
C1220 C1212 1.378 . S
C1220 C1215 1.350 . S
C1221 H1208 0.929 . S
C1221 C1213 1.433 . S
C1221 N1223 1.384 . S
N1222 C1218 1.427 . S
N1222 C1219 1.384 . S
N1223 C1215 1.427 . S
N1223 C1221 1.384 . S
H1224 C1230 0.930 . S
H1225 C1234 0.930 . S
H1226 C1239 0.929 . S
H1227 C1237 0.929 . S
H1228 C1232 0.929 . S
H1229 C1238 0.929 . S
C1230 H1224 0.930 . S
C1230 C1231 1.367 . S
C1230 C1238 1.378 . S
C1231 C1230 1.367 . S
C1231 C1239 1.433 . S
C1232 H1228 0.929 . S
C1232 C1234 1.378 . S
C1232 C1236 1.350 . S
C1233 C1236 1.463 . S
C1233 C1238 1.350 . S
C1233 N1241 1.427 . S
C1234 H1225 0.930 . S
C1234 C1232 1.378 . S
C1234 C1235 1.367 . S
C1235 C1234 1.367 . S
C1235 C1237 1.433 . S
C1236 C1232 1.350 . S
C1236 C1233 1.463 . S
C1236 N1240 1.427 . S
C1237 H1227 0.929 . S
C1237 C1235 1.433 . S
C1237 N1240 1.384 . S
C1238 H1229 0.929 . S
C1238 C1230 1.378 . S
C1238 C1233 1.350 . S
C1239 H1226 0.929 . S
C1239 C1231 1.433 . S
C1239 N1241 1.384 . S
N1240 C1236 1.427 . S
N1240 C1237 1.384 . S
N1241 C1233 1.427 . S
N1241 C1239 1.384 . S
H1242 C1248 0.930 . S
H1243 C1252 0.930 . S
H1244 C1257 0.929 . S
H1245 C1255 0.929 . S
H1246 C1250 0.929 . S
H1247 C1256 0.929 . S
C1248 H1242 0.930 . S
C1248 C1249 1.367 . S
C1248 C1256 1.378 . S
C1249 C1248 1.367 . S
C1249 C1257 1.433 . S
C1250 H1246 0.929 . S
C1250 C1252 1.378 . S
C1250 C1254 1.350 . S
C1251 C1254 1.463 . S
C1251 C1256 1.350 . S
C1251 N1259 1.427 . S
C1252 H1243 0.930 . S
C1252 C1250 1.378 . S
C1252 C1253 1.367 . S
C1253 C1252 1.367 . S
C1253 C1255 1.433 . S
C1254 C1250 1.350 . S
C1254 C1251 1.463 . S
C1254 N1258 1.427 . S
C1255 H1245 0.929 . S
C1255 C1253 1.433 . S
C1255 N1258 1.384 . S
C1256 H1247 0.929 . S
C1256 C1248 1.378 . S
C1256 C1251 1.350 . S
C1257 H1244 0.929 . S
C1257 C1249 1.433 . S
C1257 N1259 1.384 . S
N1258 C1254 1.427 . S
N1258 C1255 1.384 . S
N1259 C1251 1.427 . S
N1259 C1257 1.384 . S
H1260 C1266 0.930 . S
H1261 C1270 0.930 . S
H1262 C1275 0.929 . S
H1263 C1273 0.929 . S
H1264 C1268 0.929 . S
H1265 C1274 0.929 . S
C1266 H1260 0.930 . S
C1266 C1267 1.367 . S
C1266 C1274 1.378 . S
C1267 C1266 1.367 . S
C1267 C1275 1.433 . S
C1268 H1264 0.929 . S
C1268 C1270 1.378 . S
C1268 C1272 1.350 . S
C1269 C1272 1.463 . S
C1269 C1274 1.350 . S
C1269 N1277 1.427 . S
C1270 H1261 0.930 . S
C1270 C1268 1.378 . S
C1270 C1271 1.367 . S
C1271 C1270 1.367 . S
C1271 C1273 1.433 . S
C1272 C1268 1.350 . S
C1272 C1269 1.463 . S
C1272 N1276 1.427 . S
C1273 H1263 0.929 . S
C1273 C1271 1.433 . S
C1273 N1276 1.384 . S
C1274 H1265 0.929 . S
C1274 C1266 1.378 . S
C1274 C1269 1.350 . S
C1275 H1262 0.929 . S
C1275 C1267 1.433 . S
C1275 N1277 1.384 . S
N1276 C1272 1.427 . S
N1276 C1273 1.384 . S
N1277 C1269 1.427 . S
N1277 C1275 1.384 . S
H1278 C1284 0.930 . S
H1279 C1288 0.930 . S
H1280 C1293 0.929 . S
H1281 C1291 0.929 . S
H1282 C1286 0.929 . S
H1283 C1292 0.929 . S
C1284 H1278 0.930 . S
C1284 C1285 1.367 . S
C1284 C1292 1.378 . S
C1285 C1284 1.367 . S
C1285 C1293 1.433 . S
C1286 H1282 0.929 . S
C1286 C1288 1.378 . S
C1286 C1290 1.350 . S
C1287 C1290 1.463 . S
C1287 C1292 1.350 . S
C1287 N1295 1.427 . S
C1288 H1279 0.930 . S
C1288 C1286 1.378 . S
C1288 C1289 1.367 . S
C1289 C1288 1.367 . S
C1289 C1291 1.433 . S
C1290 C1286 1.350 . S
C1290 C1287 1.463 . S
C1290 N1294 1.427 . S
C1291 H1281 0.929 . S
C1291 C1289 1.433 . S
C1291 N1294 1.384 . S
C1292 H1283 0.929 . S
C1292 C1284 1.378 . S
C1292 C1287 1.350 . S
C1293 H1280 0.929 . S
C1293 C1285 1.433 . S
C1293 N1295 1.384 . S
N1294 C1290 1.427 . S
N1294 C1291 1.384 . S
N1295 C1287 1.427 . S
N1295 C1293 1.384 . S
H1296 C1302 0.930 . S
H1297 C1306 0.930 . S
H1298 C1311 0.926 1_554 S
H1299 C1309 0.929 . S
H1300 C1304 0.929 . S
H1301 C1310 0.929 . S
C1302 H1296 0.930 . S
C1302 C1303 1.367 . S
C1302 C1310 1.378 . S
C1303 C1302 1.367 . S
C1303 C1311 1.433 . S
C1304 H1300 0.929 . S
C1304 C1306 1.378 . S
C1304 C1308 1.350 . S
C1305 C1308 1.463 . S
C1305 C1310 1.350 . S
C1305 N1313 1.427 . S
C1306 H1297 0.930 . S
C1306 C1304 1.378 . S
C1306 C1307 1.367 . S
C1307 C1306 1.367 . S
C1307 C1309 1.433 . S
C1308 C1304 1.350 . S
C1308 C1305 1.463 . S
C1308 N1312 1.427 . S
C1309 H1299 0.929 . S
C1309 C1307 1.433 . S
C1309 N1312 1.384 . S
C1310 H1301 0.929 . S
C1310 C1302 1.378 . S
C1310 C1305 1.350 . S
C1311 H1298 0.926 1_556 S
C1311 C1303 1.433 . S
C1311 N1313 1.384 . S
N1312 C1308 1.427 . S
N1312 C1309 1.384 . S
N1313 C1305 1.427 . S
N1313 C1311 1.384 . S
H1314 C1320 0.930 1_554 S
H1315 C1324 0.930 . S
H1316 C1329 0.929 . S
H1317 C1327 0.929 . S
H1318 C1322 0.929 . S
H1319 C1328 0.929 . S
C1320 H1314 0.930 1_556 S
C1320 C1321 1.367 . S
C1320 C1328 1.378 . S
C1321 C1320 1.367 . S
C1321 C1329 1.433 . S
C1322 H1318 0.929 . S
C1322 C1324 1.378 . S
C1322 C1326 1.350 . S
C1323 C1326 1.463 . S
C1323 C1328 1.350 . S
C1323 N1331 1.427 . S
C1324 H1315 0.930 . S
C1324 C1322 1.378 . S
C1324 C1325 1.367 . S
C1325 C1324 1.367 . S
C1325 C1327 1.433 . S
C1326 C1322 1.350 . S
C1326 C1323 1.463 . S
C1326 N1330 1.427 . S
C1327 H1317 0.929 . S
C1327 C1325 1.433 . S
C1327 N1330 1.384 . S
C1328 H1319 0.929 . S
C1328 C1320 1.378 . S
C1328 C1323 1.350 . S
C1329 H1316 0.929 . S
C1329 C1321 1.433 . S
C1329 N1331 1.384 . S
N1330 C1326 1.427 . S
N1330 C1327 1.384 . S
N1331 C1323 1.427 . S
N1331 C1329 1.384 . S
H1332 C1338 0.930 . S
H1333 C1342 0.930 . S
H1334 C1347 0.929 . S
H1335 C1345 0.929 . S
H1336 C1340 0.929 . S
H1337 C1346 0.929 . S
C1338 H1332 0.930 . S
C1338 C1339 1.367 . S
C1338 C1346 1.378 . S
C1339 C1338 1.367 . S
C1339 C1347 1.433 . S
C1340 H1336 0.929 . S
C1340 C1342 1.378 . S
C1340 C1344 1.350 . S
C1341 C1344 1.463 . S
C1341 C1346 1.350 . S
C1341 N1349 1.427 . S
C1342 H1333 0.930 . S
C1342 C1340 1.378 . S
C1342 C1343 1.367 . S
C1343 C1342 1.367 . S
C1343 C1345 1.433 . S
C1344 C1340 1.350 . S
C1344 C1341 1.463 . S
C1344 N1348 1.427 . S
C1345 H1335 0.929 . S
C1345 C1343 1.433 . S
C1345 N1348 1.384 . S
C1346 H1337 0.929 . S
C1346 C1338 1.378 . S
C1346 C1341 1.350 . S
C1347 H1334 0.929 . S
C1347 C1339 1.433 . S
C1347 N1349 1.384 . S
N1348 C1344 1.427 . S
N1348 C1345 1.384 . S
N1349 C1341 1.427 . S
N1349 C1347 1.384 . S
H1350 C1356 0.930 1_554 S
H1351 C1360 0.930 . S
H1352 C1365 0.929 . S
H1353 C1363 0.929 . S
H1354 C1358 0.929 . S
H1355 C1364 0.929 . S
C1356 H1350 0.930 1_556 S
C1356 C1357 1.367 . S
C1356 C1364 1.378 . S
C1357 C1356 1.367 . S
C1357 C1365 1.433 . S
C1358 H1354 0.929 . S
C1358 C1360 1.378 . S
C1358 C1362 1.350 . S
C1359 C1362 1.463 . S
C1359 C1364 1.350 . S
C1359 N1367 1.427 . S
C1360 H1351 0.930 . S
C1360 C1358 1.378 . S
C1360 C1361 1.367 . S
C1361 C1360 1.367 . S
C1361 C1363 1.433 . S
C1362 C1358 1.350 . S
C1362 C1359 1.463 . S
C1362 N1366 1.427 . S
C1363 H1353 0.929 . S
C1363 C1361 1.433 . S
C1363 N1366 1.384 . S
C1364 H1355 0.929 . S
C1364 C1356 1.378 . S
C1364 C1359 1.350 . S
C1365 H1352 0.929 . S
C1365 C1357 1.433 . S
C1365 N1367 1.384 . S
N1366 C1362 1.427 . S
N1366 C1363 1.384 . S
N1367 C1359 1.427 . S
N1367 C1365 1.384 . S
H1368 C1374 0.930 1_554 S
H1369 C1378 0.930 . S
H1370 C1383 0.929 . S
H1371 C1381 0.929 . S
H1372 C1376 0.929 . S
H1373 C1382 0.929 . S
C1374 H1368 0.930 1_556 S
C1374 C1375 1.367 . S
C1374 C1382 1.378 . S
C1375 C1374 1.367 . S
C1375 C1383 1.433 . S
C1376 H1372 0.929 . S
C1376 C1378 1.378 . S
C1376 C1380 1.350 . S
C1377 C1380 1.463 . S
C1377 C1382 1.350 . S
C1377 N1385 1.427 . S
C1378 H1369 0.930 . S
C1378 C1376 1.378 . S
C1378 C1379 1.367 . S
C1379 C1378 1.367 . S
C1379 C1381 1.433 . S
C1380 C1376 1.350 . S
C1380 C1377 1.463 . S
C1380 N1384 1.427 . S
C1381 H1371 0.929 . S
C1381 C1379 1.433 . S
C1381 N1384 1.384 . S
C1382 H1373 0.929 . S
C1382 C1374 1.378 . S
C1382 C1377 1.350 . S
C1383 H1370 0.929 . S
C1383 C1375 1.433 . S
C1383 N1385 1.384 . S
N1384 C1380 1.427 . S
N1384 C1381 1.384 . S
N1385 C1377 1.427 . S
N1385 C1383 1.384 . S
H1386 C1392 0.930 . S
H1387 C1396 0.930 . S
H1388 C1401 0.929 . S
H1389 C1399 0.929 . S
H1390 C1394 0.929 . S
H1391 C1400 0.929 . S
C1392 H1386 0.930 . S
C1392 C1393 1.367 . S
C1392 C1400 1.378 . S
C1393 C1392 1.367 . S
C1393 C1401 1.433 . S
C1394 H1390 0.929 . S
C1394 C1396 1.378 . S
C1394 C1398 1.350 . S
C1395 C1398 1.463 . S
C1395 C1400 1.350 . S
C1395 N1403 1.427 . S
C1396 H1387 0.930 . S
C1396 C1394 1.378 . S
C1396 C1397 1.367 . S
C1397 C1396 1.367 . S
C1397 C1399 1.433 . S
C1398 C1394 1.350 . S
C1398 C1395 1.463 . S
C1398 N1402 1.427 . S
C1399 H1389 0.929 . S
C1399 C1397 1.433 . S
C1399 N1402 1.384 . S
C1400 H1391 0.929 . S
C1400 C1392 1.378 . S
C1400 C1395 1.350 . S
C1401 H1388 0.929 . S
C1401 C1393 1.433 . S
C1401 N1403 1.384 . S
N1402 C1398 1.427 . S
N1402 C1399 1.384 . S
N1403 C1395 1.427 . S
N1403 C1401 1.384 . S
H1404 C1410 0.930 . S
H1405 C1414 0.930 . S
H1406 C1419 0.929 . S
H1407 C1417 0.929 . S
H1408 C1412 0.929 . S
H1409 C1418 0.929 . S
C1410 H1404 0.930 . S
C1410 C1411 1.367 . S
C1410 C1418 1.378 . S
C1411 C1410 1.367 . S
C1411 C1419 1.433 . S
C1412 H1408 0.929 . S
C1412 C1414 1.378 . S
C1412 C1416 1.350 . S
C1413 C1416 1.463 . S
C1413 C1418 1.350 . S
C1413 N1421 1.427 . S
C1414 H1405 0.930 . S
C1414 C1412 1.378 . S
C1414 C1415 1.367 . S
C1415 C1414 1.367 . S
C1415 C1417 1.433 . S
C1416 C1412 1.350 . S
C1416 C1413 1.463 . S
C1416 N1420 1.427 . S
C1417 H1407 0.929 . S
C1417 C1415 1.433 . S
C1417 N1420 1.384 . S
C1418 H1409 0.929 . S
C1418 C1410 1.378 . S
C1418 C1413 1.350 . S
C1419 H1406 0.929 . S
C1419 C1411 1.433 . S
C1419 N1421 1.384 . S
N1420 C1416 1.427 . S
N1420 C1417 1.384 . S
N1421 C1413 1.427 . S
N1421 C1419 1.384 . S
H1422 C1428 0.930 . S
H1423 C1432 0.930 . S
H1424 C1437 0.929 . S
H1425 C1435 0.929 . S
H1426 C1430 0.929 . S
H1427 C1436 0.929 . S
C1428 H1422 0.930 . S
C1428 C1429 1.367 . S
C1428 C1436 1.378 . S
C1429 C1428 1.367 . S
C1429 C1437 1.433 . S
C1430 H1426 0.929 . S
C1430 C1432 1.378 . S
C1430 C1434 1.350 . S
C1431 C1434 1.463 . S
C1431 C1436 1.350 . S
C1431 N1439 1.427 . S
C1432 H1423 0.930 . S
C1432 C1430 1.378 . S
C1432 C1433 1.367 . S
C1433 C1432 1.367 . S
C1433 C1435 1.433 . S
C1434 C1430 1.350 . S
C1434 C1431 1.463 . S
C1434 N1438 1.427 . S
C1435 H1425 0.929 . S
C1435 C1433 1.433 . S
C1435 N1438 1.384 . S
C1436 H1427 0.929 . S
C1436 C1428 1.378 . S
C1436 C1431 1.350 . S
C1437 H1424 0.929 . S
C1437 C1429 1.433 . S
C1437 N1439 1.384 . S
N1438 C1434 1.427 . S
N1438 C1435 1.384 . S
N1439 C1431 1.427 . S
N1439 C1437 1.384 . S
H1440 C1446 0.930 . S
H1441 C1450 0.930 . S
H1442 C1455 0.929 . S
H1443 C1453 0.929 . S
H1444 C1448 0.929 . S
H1445 C1454 0.929 . S
C1446 H1440 0.930 . S
C1446 C1447 1.367 . S
C1446 C1454 1.378 . S
C1447 C1446 1.367 . S
C1447 C1455 1.433 . S
C1448 H1444 0.929 . S
C1448 C1450 1.378 . S
C1448 C1452 1.350 . S
C1449 C1452 1.463 . S
C1449 C1454 1.350 . S
C1449 N1457 1.427 . S
C1450 H1441 0.930 . S
C1450 C1448 1.378 . S
C1450 C1451 1.367 . S
C1451 C1450 1.367 . S
C1451 C1453 1.433 . S
C1452 C1448 1.350 . S
C1452 C1449 1.463 . S
C1452 N1456 1.427 . S
C1453 H1443 0.929 . S
C1453 C1451 1.433 . S
C1453 N1456 1.384 . S
C1454 H1445 0.929 . S
C1454 C1446 1.378 . S
C1454 C1449 1.350 . S
C1455 H1442 0.929 . S
C1455 C1447 1.433 . S
C1455 N1457 1.384 . S
N1456 C1452 1.427 . S
N1456 C1453 1.384 . S
N1457 C1449 1.427 . S
N1457 C1455 1.384 . S
H1458 C1464 0.930 . S
H1459 C1468 0.930 . S
H1460 C1473 0.929 . S
H1461 C1471 0.929 . S
H1462 C1466 0.929 . S
H1463 C1472 0.929 . S
C1464 H1458 0.930 . S
C1464 C1465 1.367 . S
C1464 C1472 1.378 . S
C1465 C1464 1.367 . S
C1465 C1473 1.433 . S
C1466 H1462 0.929 . S
C1466 C1468 1.378 . S
C1466 C1470 1.350 . S
C1467 C1470 1.463 . S
C1467 C1472 1.350 . S
C1467 N1475 1.427 . S
C1468 H1459 0.930 . S
C1468 C1466 1.378 . S
C1468 C1469 1.367 . S
C1469 C1468 1.367 . S
C1469 C1471 1.433 . S
C1470 C1466 1.350 . S
C1470 C1467 1.463 . S
C1470 N1474 1.427 . S
C1471 H1461 0.929 . S
C1471 C1469 1.433 . S
C1471 N1474 1.384 . S
C1472 H1463 0.929 . S
C1472 C1464 1.378 . S
C1472 C1467 1.350 . S
C1473 H1460 0.929 . S
C1473 C1465 1.433 . S
C1473 N1475 1.384 . S
N1474 C1470 1.427 . S
N1474 C1471 1.384 . S
N1475 C1467 1.427 . S
N1475 C1473 1.384 . S
H1476 C1482 0.930 . S
H1477 C1486 0.930 . S
H1478 C1491 0.929 . S
H1479 C1489 0.929 . S
H1480 C1484 0.929 . S
H1481 C1490 0.929 . S
C1482 H1476 0.930 . S
C1482 C1483 1.367 . S
C1482 C1490 1.378 . S
C1483 C1482 1.367 . S
C1483 C1491 1.433 . S
C1484 H1480 0.929 . S
C1484 C1486 1.378 . S
C1484 C1488 1.350 . S
C1485 C1488 1.463 . S
C1485 C1490 1.350 . S
C1485 N1493 1.427 . S
C1486 H1477 0.930 . S
C1486 C1484 1.378 . S
C1486 C1487 1.367 . S
C1487 C1486 1.367 . S
C1487 C1489 1.433 . S
C1488 C1484 1.350 . S
C1488 C1485 1.463 . S
C1488 N1492 1.427 . S
C1489 H1479 0.929 . S
C1489 C1487 1.433 . S
C1489 N1492 1.384 . S
C1490 H1481 0.929 . S
C1490 C1482 1.378 . S
C1490 C1485 1.350 . S
C1491 H1478 0.929 . S
C1491 C1483 1.433 . S
C1491 N1493 1.384 . S
N1492 C1488 1.427 . S
N1492 C1489 1.384 . S
N1493 C1485 1.427 . S
N1493 C1491 1.384 . S
H1494 C1500 0.930 . S
H1495 C1504 0.930 . S
H1496 C1509 0.929 . S
H1497 C1507 0.929 . S
H1498 C1502 0.929 . S
H1499 C1508 0.929 . S
C1500 H1494 0.930 . S
C1500 C1501 1.367 . S
C1500 C1508 1.378 . S
C1501 C1500 1.367 . S
C1501 C1509 1.433 1_455 S
C1502 H1498 0.929 . S
C1502 C1504 1.378 . S
C1502 C1506 1.350 1_655 S
C1503 C1506 1.463 . S
C1503 C1508 1.350 . S
C1503 N1511 1.427 1_455 S
C1504 H1495 0.930 . S
C1504 C1502 1.378 . S
C1504 C1505 1.367 1_655 S
C1505 C1504 1.367 1_455 S
C1505 C1507 1.433 . S
C1506 C1502 1.350 1_455 S
C1506 C1503 1.463 . S
C1506 N1510 1.427 . S
C1507 H1497 0.929 . S
C1507 C1505 1.433 . S
C1507 N1510 1.384 . S
C1508 H1499 0.929 . S
C1508 C1500 1.378 . S
C1508 C1503 1.350 . S
C1509 H1496 0.929 . S
C1509 C1501 1.433 1_655 S
C1509 N1511 1.384 . S
N1510 C1506 1.427 . S
N1510 C1507 1.384 . S
N1511 C1503 1.427 1_655 S
N1511 C1509 1.384 . S
H1512 C1518 0.930 . S
H1513 C1522 0.930 . S
H1514 C1527 0.929 . S
H1515 C1525 0.929 . S
H1516 C1520 0.929 . S
H1517 C1526 0.929 . S
C1518 H1512 0.930 . S
C1518 C1519 1.367 . S
C1518 C1526 1.378 . S
C1519 C1518 1.367 . S
C1519 C1527 1.433 . S
C1520 H1516 0.929 . S
C1520 C1522 1.378 . S
C1520 C1524 1.350 . S
C1521 C1524 1.463 . S
C1521 C1526 1.350 . S
C1521 N1529 1.427 . S
C1522 H1513 0.930 . S
C1522 C1520 1.378 . S
C1522 C1523 1.367 . S
C1523 C1522 1.367 . S
C1523 C1525 1.433 . S
C1524 C1520 1.350 . S
C1524 C1521 1.463 . S
C1524 N1528 1.427 . S
C1525 H1515 0.929 . S
C1525 C1523 1.433 . S
C1525 N1528 1.384 . S
C1526 H1517 0.929 . S
C1526 C1518 1.378 . S
C1526 C1521 1.350 . S
C1527 H1514 0.929 . S
C1527 C1519 1.433 . S
C1527 N1529 1.384 . S
N1528 C1524 1.427 . S
N1528 C1525 1.384 . S
N1529 C1521 1.427 . S
N1529 C1527 1.384 . S
H1530 C1536 0.930 . S
H1531 C1540 0.930 . S
H1532 C1545 0.929 . S
H1533 C1543 0.929 . S
H1534 C1538 0.929 . S
H1535 C1544 0.929 . S
C1536 H1530 0.930 . S
C1536 C1537 1.367 . S
C1536 C1544 1.378 . S
C1537 C1536 1.367 . S
C1537 C1545 1.433 1_565 S
C1538 H1534 0.929 . S
C1538 C1540 1.378 . S
C1538 C1542 1.350 1_545 S
C1539 C1542 1.463 . S
C1539 C1544 1.350 . S
C1539 N1547 1.427 1_565 S
C1540 H1531 0.930 . S
C1540 C1538 1.378 . S
C1540 C1541 1.367 1_545 S
C1541 C1540 1.367 1_565 S
C1541 C1543 1.433 . S
C1542 C1538 1.350 1_565 S
C1542 C1539 1.463 . S
C1542 N1546 1.427 . S
C1543 H1533 0.929 . S
C1543 C1541 1.433 . S
C1543 N1546 1.384 . S
C1544 H1535 0.929 . S
C1544 C1536 1.378 . S
C1544 C1539 1.350 . S
C1545 H1532 0.929 . S
C1545 C1537 1.433 1_545 S
C1545 N1547 1.384 . S
N1546 C1542 1.427 . S
N1546 C1543 1.384 . S
N1547 C1539 1.427 1_545 S
N1547 C1545 1.384 . S
H1548 C1554 0.930 . S
H1549 C1558 0.930 . S
H1550 C1563 0.929 . S
H1551 C1561 0.929 . S
H1552 C1556 0.929 . S
H1553 C1562 0.929 . S
C1554 H1548 0.930 . S
C1554 C1555 1.367 . S
C1554 C1562 1.378 . S
C1555 C1554 1.367 . S
C1555 C1563 1.433 1_565 S
C1556 H1552 0.929 . S
C1556 C1558 1.378 . S
C1556 C1560 1.350 1_545 S
C1557 C1560 1.463 . S
C1557 C1562 1.350 . S
C1557 N1565 1.427 1_565 S
C1558 H1549 0.930 . S
C1558 C1556 1.378 . S
C1558 C1559 1.367 . S
C1559 C1558 1.367 . S
C1559 C1561 1.433 1_545 S
C1560 C1556 1.350 1_565 S
C1560 C1557 1.463 . S
C1560 N1564 1.427 . S
C1561 H1551 0.929 . S
C1561 C1559 1.433 1_565 S
C1561 N1564 1.384 . S
C1562 H1553 0.929 . S
C1562 C1554 1.378 . S
C1562 C1557 1.350 . S
C1563 H1550 0.929 . S
C1563 C1555 1.433 1_545 S
C1563 N1565 1.384 . S
N1564 C1560 1.427 . S
N1564 C1561 1.384 . S
N1565 C1557 1.427 1_545 S
N1565 C1563 1.384 . S
H1566 C1572 0.930 . S
H1567 C1576 0.930 . S
H1568 C1581 0.928 . S
H1569 C1579 0.929 . S
H1570 C1574 0.929 . S
H1571 C1580 0.929 . S
C1572 H1566 0.930 . S
C1572 C1573 1.367 . S
C1572 C1580 1.378 . S
C1573 C1572 1.367 . S
C1573 C1581 1.433 . S
C1574 H1570 0.929 . S
C1574 C1576 1.378 . S
C1574 C1578 1.350 1_655 S
C1575 C1578 1.463 . S
C1575 C1580 1.350 . S
C1575 N1583 1.439 . S
C1576 H1567 0.930 . S
C1576 C1574 1.378 . S
C1576 C1577 1.370 . S
C1577 C1576 1.370 . S
C1577 C1579 1.436 1_655 S
C1578 C1574 1.350 1_455 S
C1578 C1575 1.463 . S
C1578 N1582 1.427 . S
C1579 H1569 0.929 . S
C1579 C1577 1.436 1_455 S
C1579 N1582 1.384 . S
C1580 H1571 0.929 . S
C1580 C1572 1.378 . S
C1580 C1575 1.350 . S
C1581 H1568 0.928 . S
C1581 C1573 1.433 . S
C1581 N1583 1.362 . S
N1582 C1578 1.427 . S
N1582 C1579 1.384 . S
N1583 C1575 1.439 . S
N1583 C1581 1.362 . S
H1584 C1590 0.930 . S
H1585 C1594 0.930 . S
H1586 C1599 0.929 . S
H1587 C1597 0.929 . S
H1588 C1592 0.929 . S
H1589 C1598 0.929 . S
C1590 H1584 0.930 . S
C1590 C1591 1.367 . S
C1590 C1598 1.378 . S
C1591 C1590 1.367 . S
C1591 C1599 1.433 . S
C1592 H1588 0.929 . S
C1592 C1594 1.378 . S
C1592 C1596 1.350 . S
C1593 C1596 1.463 . S
C1593 C1598 1.350 . S
C1593 N1601 1.427 . S
C1594 H1585 0.930 . S
C1594 C1592 1.378 . S
C1594 C1595 1.367 . S
C1595 C1594 1.367 . S
C1595 C1597 1.433 . S
C1596 C1592 1.350 . S
C1596 C1593 1.463 . S
C1596 N1600 1.427 . S
C1597 H1587 0.929 . S
C1597 C1595 1.433 . S
C1597 N1600 1.384 . S
C1598 H1589 0.929 . S
C1598 C1590 1.378 . S
C1598 C1593 1.350 . S
C1599 H1586 0.929 . S
C1599 C1591 1.433 . S
C1599 N1601 1.384 . S
N1600 C1596 1.427 . S
N1600 C1597 1.384 . S
N1601 C1593 1.427 . S
N1601 C1599 1.384 . S
H1602 C1608 0.930 . S
H1603 C1612 0.930 . S
H1604 C1617 0.929 . S
H1605 C1615 0.929 . S
H1606 C1610 0.929 . S
H1607 C1616 0.929 . S
C1608 H1602 0.930 . S
C1608 C1609 1.367 . S
C1608 C1616 1.378 . S
C1609 C1608 1.367 . S
C1609 C1617 1.433 . S
C1610 H1606 0.929 . S
C1610 C1612 1.378 . S
C1610 C1614 1.350 . S
C1611 C1614 1.463 . S
C1611 C1616 1.350 . S
C1611 N1619 1.427 . S
C1612 H1603 0.930 . S
C1612 C1610 1.378 . S
C1612 C1613 1.367 . S
C1613 C1612 1.367 . S
C1613 C1615 1.433 . S
C1614 C1610 1.350 . S
C1614 C1611 1.463 . S
C1614 N1618 1.427 . S
C1615 H1605 0.929 . S
C1615 C1613 1.433 . S
C1615 N1618 1.384 . S
C1616 H1607 0.929 . S
C1616 C1608 1.378 . S
C1616 C1611 1.350 . S
C1617 H1604 0.929 . S
C1617 C1609 1.433 . S
C1617 N1619 1.384 . S
N1618 C1614 1.427 . S
N1618 C1615 1.384 . S
N1619 C1611 1.427 . S
N1619 C1617 1.384 . S
H1620 C1626 0.930 . S
H1621 C1630 0.930 . S
H1622 C1635 0.929 . S
H1623 C1633 0.929 . S
H1624 C1628 0.929 . S
H1625 C1634 0.929 . S
C1626 H1620 0.930 . S
C1626 C1627 1.367 . S
C1626 C1634 1.378 . S
C1627 C1626 1.367 . S
C1627 C1635 1.433 . S
C1628 H1624 0.929 . S
C1628 C1630 1.378 . S
C1628 C1632 1.350 . S
C1629 C1632 1.463 . S
C1629 C1634 1.350 . S
C1629 N1637 1.427 . S
C1630 H1621 0.930 . S
C1630 C1628 1.378 . S
C1630 C1631 1.367 . S
C1631 C1630 1.367 . S
C1631 C1633 1.433 . S
C1632 C1628 1.350 . S
C1632 C1629 1.463 . S
C1632 N1636 1.427 . S
C1633 H1623 0.929 . S
C1633 C1631 1.433 . S
C1633 N1636 1.384 . S
C1634 H1625 0.929 . S
C1634 C1626 1.378 . S
C1634 C1629 1.350 . S
C1635 H1622 0.929 . S
C1635 C1627 1.433 . S
C1635 N1637 1.384 . S
N1636 C1632 1.427 . S
N1636 C1633 1.384 . S
N1637 C1629 1.427 . S
N1637 C1635 1.384 . S
H1638 C1644 0.930 . S
H1639 C1648 0.930 . S
H1640 C1653 0.929 . S
H1641 C1651 0.929 . S
H1642 C1646 0.929 . S
H1643 C1652 0.929 . S
C1644 H1638 0.930 . S
C1644 C1645 1.367 . S
C1644 C1652 1.378 . S
C1645 C1644 1.367 . S
C1645 C1653 1.433 . S
C1646 H1642 0.929 . S
C1646 C1648 1.378 . S
C1646 C1650 1.350 . S
C1647 C1650 1.463 . S
C1647 C1652 1.350 . S
C1647 N1655 1.427 . S
C1648 H1639 0.930 . S
C1648 C1646 1.378 . S
C1648 C1649 1.367 . S
C1649 C1648 1.367 . S
C1649 C1651 1.433 . S
C1650 C1646 1.350 . S
C1650 C1647 1.463 . S
C1650 N1654 1.427 . S
C1651 H1641 0.929 . S
C1651 C1649 1.433 . S
C1651 N1654 1.384 . S
C1652 H1643 0.929 . S
C1652 C1644 1.378 . S
C1652 C1647 1.350 . S
C1653 H1640 0.929 . S
C1653 C1645 1.433 . S
C1653 N1655 1.384 . S
N1654 C1650 1.427 . S
N1654 C1651 1.384 . S
N1655 C1647 1.427 . S
N1655 C1653 1.384 . S
H1656 C1662 0.930 . S
H1657 C1666 0.930 . S
H1658 C1671 0.929 . S
H1659 C1669 0.929 1_565 S
H1660 C1664 0.929 . S
H1661 C1670 0.929 . S
C1662 H1656 0.930 . S
C1662 C1663 1.367 . S
C1662 C1670 1.378 . S
C1663 C1662 1.367 . S
C1663 C1671 1.433 . S
C1664 H1660 0.929 . S
C1664 C1666 1.378 . S
C1664 C1668 1.350 . S
C1665 C1668 1.463 . S
C1665 C1670 1.350 . S
C1665 N1673 1.427 . S
C1666 H1657 0.930 . S
C1666 C1664 1.378 . S
C1666 C1667 1.367 . S
C1667 C1666 1.367 . S
C1667 C1669 1.433 . S
C1668 C1664 1.350 . S
C1668 C1665 1.463 . S
C1668 N1672 1.427 . S
C1669 H1659 0.929 1_545 S
C1669 C1667 1.433 . S
C1669 N1672 1.384 . S
C1670 H1661 0.929 . S
C1670 C1662 1.378 . S
C1670 C1665 1.350 . S
C1671 H1658 0.929 . S
C1671 C1663 1.433 . S
C1671 N1673 1.384 . S
N1672 C1668 1.427 . S
N1672 C1669 1.384 . S
N1673 C1665 1.427 . S
N1673 C1671 1.384 . S
H1674 C1680 0.930 . S
H1675 C1684 0.930 . S
H1676 C1689 0.958 . S
H1677 C1687 0.929 . S
H1678 C1682 0.929 . S
H1679 C1688 0.929 . S
C1680 H1674 0.930 . S
C1680 C1681 1.367 . S
C1680 C1688 1.378 . S
C1681 C1680 1.367 . S
C1681 C1689 1.422 1_655 S
C1682 H1678 0.929 . S
C1682 C1684 1.378 . S
C1682 C1686 1.350 1_455 S
C1683 C1686 1.463 . S
C1683 C1688 1.350 . S
C1683 N1691 1.427 1_655 S
C1684 H1675 0.930 . S
C1684 C1682 1.378 . S
C1684 C1685 1.367 1_455 S
C1685 C1684 1.367 1_655 S
C1685 C1687 1.433 . S
C1686 C1682 1.350 1_655 S
C1686 C1683 1.463 . S
C1686 N1690 1.427 . S
C1687 H1677 0.929 . S
C1687 C1685 1.433 . S
C1687 N1690 1.384 . S
C1688 H1679 0.929 . S
C1688 C1680 1.378 . S
C1688 C1683 1.350 . S
C1689 H1676 0.958 . S
C1689 C1681 1.422 1_455 S
C1689 N1691 1.366 . S
N1690 C1686 1.427 . S
N1690 C1687 1.384 . S
N1691 C1683 1.427 1_455 S
N1691 C1689 1.366 . S
H1692 C1698 0.930 . S
H1693 C1702 0.930 . S
H1694 C1707 0.929 . S
H1695 C1705 0.929 . S
H1696 C1700 0.929 . S
H1697 C1706 0.929 . S
C1698 H1692 0.930 . S
C1698 C1699 1.367 . S
C1698 C1706 1.378 . S
C1699 C1698 1.367 . S
C1699 C1707 1.433 . S
C1700 H1696 0.929 . S
C1700 C1702 1.378 . S
C1700 C1704 1.350 . S
C1701 C1704 1.463 . S
C1701 C1706 1.350 . S
C1701 N1709 1.427 . S
C1702 H1693 0.930 . S
C1702 C1700 1.378 . S
C1702 C1703 1.367 . S
C1703 C1702 1.367 . S
C1703 C1705 1.433 . S
C1704 C1700 1.350 . S
C1704 C1701 1.463 . S
C1704 N1708 1.427 . S
C1705 H1695 0.929 . S
C1705 C1703 1.433 . S
C1705 N1708 1.384 . S
C1706 H1697 0.929 . S
C1706 C1698 1.378 . S
C1706 C1701 1.350 . S
C1707 H1694 0.929 . S
C1707 C1699 1.433 . S
C1707 N1709 1.384 . S
N1708 C1704 1.427 . S
N1708 C1705 1.384 . S
N1709 C1701 1.427 . S
N1709 C1707 1.384 . S
H1710 C1716 0.930 . S
H1711 C1720 0.930 . S
H1712 C1725 0.929 . S
H1713 C1723 0.929 . S
H1714 C1718 0.929 . S
H1715 C1724 0.929 . S
C1716 H1710 0.930 . S
C1716 C1717 1.367 . S
C1716 C1724 1.378 . S
C1717 C1716 1.367 . S
C1717 C1725 1.433 . S
C1718 H1714 0.929 . S
C1718 C1720 1.378 . S
C1718 C1722 1.350 . S
C1719 C1722 1.463 . S
C1719 C1724 1.350 . S
C1719 N1727 1.427 . S
C1720 H1711 0.930 . S
C1720 C1718 1.378 . S
C1720 C1721 1.367 . S
C1721 C1720 1.367 . S
C1721 C1723 1.433 . S
C1722 C1718 1.350 . S
C1722 C1719 1.463 . S
C1722 N1726 1.427 . S
C1723 H1713 0.929 . S
C1723 C1721 1.433 . S
C1723 N1726 1.384 . S
C1724 H1715 0.929 . S
C1724 C1716 1.378 . S
C1724 C1719 1.350 . S
C1725 H1712 0.929 . S
C1725 C1717 1.433 . S
C1725 N1727 1.384 . S
N1726 C1722 1.427 . S
N1726 C1723 1.384 . S
N1727 C1719 1.427 . S
N1727 C1725 1.384 . S
H1728 C1734 0.930 . S
H1729 C1738 0.930 . S
H1730 C1743 0.929 . S
H1731 C1741 0.929 . S
H1732 C1736 0.929 . S
H1733 C1742 0.929 . S
C1734 H1728 0.930 . S
C1734 C1735 1.367 . S
C1734 C1742 1.378 . S
C1735 C1734 1.367 . S
C1735 C1743 1.433 . S
C1736 H1732 0.929 . S
C1736 C1738 1.378 . S
C1736 C1740 1.350 . S
C1737 C1740 1.463 . S
C1737 C1742 1.350 . S
C1737 N1745 1.427 . S
C1738 H1729 0.930 . S
C1738 C1736 1.378 . S
C1738 C1739 1.367 . S
C1739 C1738 1.367 . S
C1739 C1741 1.433 . S
C1740 C1736 1.350 . S
C1740 C1737 1.463 . S
C1740 N1744 1.427 . S
C1741 H1731 0.929 . S
C1741 C1739 1.433 . S
C1741 N1744 1.384 . S
C1742 H1733 0.929 . S
C1742 C1734 1.378 . S
C1742 C1737 1.350 . S
C1743 H1730 0.929 . S
C1743 C1735 1.433 . S
C1743 N1745 1.384 . S
N1744 C1740 1.427 . S
N1744 C1741 1.384 . S
N1745 C1737 1.427 . S
N1745 C1743 1.384 . S
H1746 C1752 0.930 . S
H1747 C1756 0.930 . S
H1748 C1761 0.929 . S
H1749 C1759 0.929 . S
H1750 C1754 0.929 . S
H1751 C1760 0.929 . S
C1752 H1746 0.930 . S
C1752 C1753 1.367 . S
C1752 C1760 1.378 . S
C1753 C1752 1.367 . S
C1753 C1761 1.433 . S
C1754 H1750 0.929 . S
C1754 C1756 1.378 . S
C1754 C1758 1.350 . S
C1755 C1758 1.463 . S
C1755 C1760 1.350 . S
C1755 N1763 1.427 . S
C1756 H1747 0.930 . S
C1756 C1754 1.378 . S
C1756 C1757 1.367 . S
C1757 C1756 1.367 . S
C1757 C1759 1.433 . S
C1758 C1754 1.350 . S
C1758 C1755 1.463 . S
C1758 N1762 1.427 . S
C1759 H1749 0.929 . S
C1759 C1757 1.433 . S
C1759 N1762 1.384 . S
C1760 H1751 0.929 . S
C1760 C1752 1.378 . S
C1760 C1755 1.350 . S
C1761 H1748 0.929 . S
C1761 C1753 1.433 . S
C1761 N1763 1.384 . S
N1762 C1758 1.427 . S
N1762 C1759 1.384 . S
N1763 C1755 1.427 . S
N1763 C1761 1.384 . S
H1764 C1770 0.930 . S
H1765 C1774 0.930 . S
H1766 C1779 0.929 . S
H1767 C1777 0.929 . S
H1768 C1772 0.929 . S
H1769 C1778 0.929 . S
C1770 H1764 0.930 . S
C1770 C1771 1.367 . S
C1770 C1778 1.378 . S
C1771 C1770 1.367 . S
C1771 C1779 1.433 . S
C1772 H1768 0.929 . S
C1772 C1774 1.378 . S
C1772 C1776 1.350 . S
C1773 C1776 1.463 . S
C1773 C1778 1.350 . S
C1773 N1781 1.427 . S
C1774 H1765 0.930 . S
C1774 C1772 1.378 . S
C1774 C1775 1.367 . S
C1775 C1774 1.367 . S
C1775 C1777 1.433 . S
C1776 C1772 1.350 . S
C1776 C1773 1.463 . S
C1776 N1780 1.427 . S
C1777 H1767 0.929 . S
C1777 C1775 1.433 . S
C1777 N1780 1.384 . S
C1778 H1769 0.929 . S
C1778 C1770 1.378 . S
C1778 C1773 1.350 . S
C1779 H1766 0.929 . S
C1779 C1771 1.433 . S
C1779 N1781 1.384 . S
N1780 C1776 1.427 . S
N1780 C1777 1.384 . S
N1781 C1773 1.427 . S
N1781 C1779 1.384 . S
H1782 C1788 0.930 . S
H1783 C1792 0.930 . S
H1784 C1797 0.929 . S
H1785 C1795 0.929 . S
H1786 C1790 0.929 . S
H1787 C1796 0.929 . S
C1788 H1782 0.930 . S
C1788 C1789 1.367 . S
C1788 C1796 1.378 . S
C1789 C1788 1.367 . S
C1789 C1797 1.433 . S
C1790 H1786 0.929 . S
C1790 C1792 1.378 . S
C1790 C1794 1.350 . S
C1791 C1794 1.463 . S
C1791 C1796 1.350 . S
C1791 N1799 1.427 . S
C1792 H1783 0.930 . S
C1792 C1790 1.378 . S
C1792 C1793 1.367 . S
C1793 C1792 1.367 . S
C1793 C1795 1.433 . S
C1794 C1790 1.350 . S
C1794 C1791 1.463 . S
C1794 N1798 1.427 . S
C1795 H1785 0.929 . S
C1795 C1793 1.433 . S
C1795 N1798 1.384 . S
C1796 H1787 0.929 . S
C1796 C1788 1.378 . S
C1796 C1791 1.350 . S
C1797 H1784 0.929 . S
C1797 C1789 1.433 . S
C1797 N1799 1.384 . S
N1798 C1794 1.427 . S
N1798 C1795 1.384 . S
N1799 C1791 1.427 . S
N1799 C1797 1.384 . S
H1800 C1806 0.930 . S
H1801 C1810 0.930 . S
H1802 C1815 0.929 . S
H1803 C1813 0.929 . S
H1804 C1808 0.929 . S
H1805 C1814 0.929 . S
C1806 H1800 0.930 . S
C1806 C1807 1.367 . S
C1806 C1814 1.378 . S
C1807 C1806 1.367 . S
C1807 C1815 1.433 . S
C1808 H1804 0.929 . S
C1808 C1810 1.378 . S
C1808 C1812 1.350 . S
C1809 C1812 1.463 . S
C1809 C1814 1.350 . S
C1809 N1817 1.427 . S
C1810 H1801 0.930 . S
C1810 C1808 1.378 . S
C1810 C1811 1.367 . S
C1811 C1810 1.367 . S
C1811 C1813 1.433 . S
C1812 C1808 1.350 . S
C1812 C1809 1.463 . S
C1812 N1816 1.427 . S
C1813 H1803 0.929 . S
C1813 C1811 1.433 . S
C1813 N1816 1.384 . S
C1814 H1805 0.929 . S
C1814 C1806 1.378 . S
C1814 C1809 1.350 . S
C1815 H1802 0.929 . S
C1815 C1807 1.433 . S
C1815 N1817 1.384 . S
N1816 C1812 1.427 . S
N1816 C1813 1.384 . S
N1817 C1809 1.427 . S
N1817 C1815 1.384 . S
H1818 C1824 0.930 . S
H1819 C1828 0.930 . S
H1820 C1833 0.929 . S
H1821 C1831 0.929 . S
H1822 C1826 0.929 . S
H1823 C1832 0.929 . S
C1824 H1818 0.930 . S
C1824 C1825 1.367 1_455 S
C1824 C1832 1.378 . S
C1825 C1824 1.367 1_655 S
C1825 C1833 1.433 . S
C1826 H1822 0.929 . S
C1826 C1828 1.378 . S
C1826 C1830 1.350 . S
C1827 C1830 1.463 . S
C1827 C1832 1.350 1_655 S
C1827 N1835 1.427 . S
C1828 H1819 0.930 . S
C1828 C1826 1.378 . S
C1828 C1829 1.367 . S
C1829 C1828 1.367 . S
C1829 C1831 1.433 1_655 S
C1830 C1826 1.350 . S
C1830 C1827 1.463 . S
C1830 N1834 1.427 1_655 S
C1831 H1821 0.929 . S
C1831 C1829 1.433 1_455 S
C1831 N1834 1.384 . S
C1832 H1823 0.929 . S
C1832 C1824 1.378 . S
C1832 C1827 1.350 1_455 S
C1833 H1820 0.929 . S
C1833 C1825 1.433 . S
C1833 N1835 1.384 . S
N1834 C1830 1.427 1_455 S
N1834 C1831 1.384 . S
N1835 C1827 1.427 . S
N1835 C1833 1.384 . S
H1836 C1842 0.930 . S
H1837 C1846 0.930 . S
H1838 C1851 0.929 . S
H1839 C1849 0.929 . S
H1840 C1844 0.929 . S
H1841 C1850 0.929 . S
C1842 H1836 0.930 . S
C1842 C1843 1.367 . S
C1842 C1850 1.378 . S
C1843 C1842 1.367 . S
C1843 C1851 1.433 . S
C1844 H1840 0.929 . S
C1844 C1846 1.378 . S
C1844 C1848 1.350 . S
C1845 C1848 1.463 . S
C1845 C1850 1.350 . S
C1845 N1853 1.427 . S
C1846 H1837 0.930 . S
C1846 C1844 1.378 . S
C1846 C1847 1.367 . S
C1847 C1846 1.367 . S
C1847 C1849 1.433 . S
C1848 C1844 1.350 . S
C1848 C1845 1.463 . S
C1848 N1852 1.427 . S
C1849 H1839 0.929 . S
C1849 C1847 1.433 . S
C1849 N1852 1.384 . S
C1850 H1841 0.929 . S
C1850 C1842 1.378 . S
C1850 C1845 1.350 . S
C1851 H1838 0.929 . S
C1851 C1843 1.433 . S
C1851 N1853 1.384 . S
N1852 C1848 1.427 . S
N1852 C1849 1.384 . S
N1853 C1845 1.427 . S
N1853 C1851 1.384 . S
H1854 C1860 0.930 . S
H1855 C1864 0.932 . S
H1856 C1869 0.929 . S
H1857 C1867 0.929 . S
H1858 C1862 0.962 . S
H1859 C1868 0.929 . S
C1860 H1854 0.930 . S
C1860 C1861 1.367 . S
C1860 C1868 1.378 . S
C1861 C1860 1.367 . S
C1861 C1869 1.433 . S
C1862 H1858 0.962 . S
C1862 C1864 1.389 1_545 S
C1862 C1866 1.350 . S
C1863 C1866 1.463 . S
C1863 C1868 1.350 . S
C1863 N1871 1.427 . S
C1864 H1855 0.932 . S
C1864 C1862 1.389 1_565 S
C1864 C1865 1.353 . S
C1865 C1864 1.353 . S
C1865 C1867 1.434 1_565 S
C1866 C1862 1.350 . S
C1866 C1863 1.463 . S
C1866 N1870 1.427 . S
C1867 H1857 0.929 . S
C1867 C1865 1.434 1_545 S
C1867 N1870 1.384 . S
C1868 H1859 0.929 . S
C1868 C1860 1.378 . S
C1868 C1863 1.350 . S
C1869 H1856 0.929 . S
C1869 C1861 1.433 . S
C1869 N1871 1.384 . S
N1870 C1866 1.427 . S
N1870 C1867 1.384 . S
N1871 C1863 1.427 . S
N1871 C1869 1.384 . S
C583 C7 1.499 . S
C587 C421 1.511 . S
C601 C23 1.583 . S
C605 C446 1.566 . S
C623 C457 1.523 . S
C619 C37 1.526 . S
C637 C35 1.505 . S
C641 C482 1.528 . S
C655 C9 1.532 1_455 S
C659 C500 1.539 . S
C673 C21 1.552 . S
C677 C511 1.564 . S
C691 C49 1.498 . S
C695 C493 1.516 . S
C713 C518 1.535 . S
C709 C65 1.547 . S
C731 C475 1.523 . S
C727 C79 1.525 1_565 S
C745 C77 1.500 . S
C749 C464 1.498 . S
C767 C428 1.547 . S
C763 C51 1.530 1_655 S
C781 C63 1.520 . S
C785 C439 1.540 . S
C799 C91 1.583 . S
C803 C529 1.597 . S
C817 C107 1.619 . S
C821 C554 1.602 . S
C839 C565 1.595 . S
C835 C121 1.623 . S
C853 C119 1.569 . S
C857 C266 1.589 . S
C871 C93 1.627 . S
C875 C284 1.611 . S
C889 C105 1.567 . S
C893 C295 1.577 . S
C907 C133 1.515 . S
C911 C277 1.538 . S
C925 C149 1.567 . S
C929 C302 1.555 . S
C947 C259 1.579 . S
C943 C163 1.583 . S
C965 C572 1.597 . S
C961 C161 1.577 . S
C983 C536 1.563 . S
C979 C135 1.576 . S
C1001 C547 1.590 . S
C997 C147 1.564 . S
C1015 C175 1.544 . S
C1019 C313 1.555 . S
C1033 C191 1.600 . S
C1037 C338 1.581 . S
C1051 C205 1.617 . S
C1055 C349 1.588 . S
C1069 C203 1.604 . S
C1073 C374 1.628 . S
C1091 C392 1.609 . S
C1087 C177 1.625 . S
C1109 C403 1.599 . S
C1105 C189 1.582 . S
C1127 C385 1.582 . S
C1123 C217 1.556 . S
C1145 C410 1.570 . S
C1141 C233 1.585 . S
C1159 C247 1.580 . S
C1163 C367 1.567 . S
C1181 C356 1.560 . S
C1177 C245 1.546 . S
C1195 C219 1.581 . S
C1199 C320 1.568 . S
C1217 C331 1.571 . S
C1213 C231 1.549 . S
C1235 C268 1.447 . S
C1231 C8 1.521 . S
C1249 C17 1.471 . S
C1253 C286 1.409 . S
C1271 C296 1.447 . S
C1267 C31 1.525 . S
C1289 C314 1.457 . S
C1285 C36 1.531 . S
C1307 C340 1.440 . S
C1303 C3 1.501 . S
C1325 C350 1.394 . S
C1321 C22 1.471 . S
C1339 C50 1.553 . S
C1343 C358 1.460 . S
C1357 C59 1.498 . S
C1361 C322 1.396 . S
C1375 C73 1.537 . S
C1379 C332 1.453 . S
C1393 C78 1.575 . S
C1397 C278 1.505 . S
C1415 C304 1.449 . S
C1411 C45 1.529 . S
C1429 C64 1.507 . S
C1433 C260 1.421 . S
C1451 C376 1.444 . S
C1447 C92 1.515 . S
C1465 C101 1.552 . S
C1469 C394 1.470 . S
C1483 C115 1.569 . S
C1487 C404 1.482 . S
C1505 C422 1.405 . S
C1501 C120 1.471 . S
C1519 C87 1.510 . S
C1523 C448 1.446 . S
C1537 C106 1.448 . S
C1541 C458 1.393 . S
C1555 C134 1.469 . S
C1559 C466 1.416 1_545 S
C1573 C143 1.470 . S
C1577 C430 1.397 1_655 S
C1595 C440 1.480 . S
C1591 C157 1.549 . S
C1609 C162 1.550 . S
C1613 C386 1.462 . S
C1627 C129 1.588 . S
C1631 C412 1.496 . S
C1649 C368 1.488 . S
C1645 C148 1.574 . S
C1667 C484 1.411 . S
C1663 C176 1.468 . S
C1681 C185 1.465 . S
C1685 C502 1.383 . S
C1699 C199 1.523 . S
C1703 C512 1.458 . S
C1721 C530 1.434 . S
C1717 C204 1.513 . S
C1739 C556 1.490 . S
C1735 C171 1.560 . S
C1753 C190 1.543 . S
C1757 C566 1.462 . S
C1771 C218 1.550 . S
C1775 C574 1.461 . S
C1789 C227 1.577 . S
C1793 C538 1.470 . S
C1811 C548 1.497 . S
C1807 C241 1.587 . S
C1829 C494 1.392 1_655 S
C1825 C246 1.476 . S
C1847 C520 1.440 . S
C1843 C213 1.541 . S
C1861 C232 1.457 . S
C1865 C476 1.387 . S
