# Generated by pormake.
# Topology pyr, (3,6)-cn, num edge types: 1
# Building blocks:
#     Node 0, Type 0, BuildingBlock: ESEHIV_clean_linker_0, # of connection points: 3
#     Node 1, Type 0, BuildingBlock: ESEHIV_clean_linker_0, # of connection points: 3
#     Node 2, Type 0, BuildingBlock: ESEHIV_clean_linker_0, # of connection points: 3
#     Node 3, Type 0, BuildingBlock: ESEHIV_clean_linker_0, # of connection points: 3
#     Node 4, Type 0, BuildingBlock: ESEHIV_clean_linker_0, # of connection points: 3
#     Node 5, Type 0, BuildingBlock: ESEHIV_clean_linker_0, # of connection points: 3
#     Node 6, Type 0, BuildingBlock: ESEHIV_clean_linker_0, # of connection points: 3
#     Node 7, Type 0, BuildingBlock: ESEHIV_clean_linker_0, # of connection points: 3
#     Node 8, Type 1, BuildingBlock: MIFKUJ_clean_sbu_0, # of connection points: 6
#     Node 9, Type 1, BuildingBlock: MIFKUJ_clean_sbu_0, # of connection points: 6
#     Node 10, Type 1, BuildingBlock: MIFKUJ_clean_sbu_0, # of connection points: 6
#     Node 11, Type 1, BuildingBlock: MIFKUJ_clean_sbu_0, # of connection points: 6
#     Edge 12, Type (0, 1), BuildingBlock: TEMPAE_clean_linker_10, # of connection points: 2
#     Edge 13, Type (0, 1), BuildingBlock: TEMPAE_clean_linker_10, # of connection points: 2
#     Edge 14, Type (0, 1), BuildingBlock: TEMPAE_clean_linker_10, # of connection points: 2
#     Edge 15, Type (0, 1), BuildingBlock: TEMPAE_clean_linker_10, # of connection points: 2
#     Edge 16, Type (0, 1), BuildingBlock: TEMPAE_clean_linker_10, # of connection points: 2
#     Edge 17, Type (0, 1), BuildingBlock: TEMPAE_clean_linker_10, # of connection points: 2
#     Edge 18, Type (0, 1), BuildingBlock: TEMPAE_clean_linker_10, # of connection points: 2
#     Edge 19, Type (0, 1), BuildingBlock: TEMPAE_clean_linker_10, # of connection points: 2
#     Edge 20, Type (0, 1), BuildingBlock: TEMPAE_clean_linker_10, # of connection points: 2
#     Edge 21, Type (0, 1), BuildingBlock: TEMPAE_clean_linker_10, # of connection points: 2
#     Edge 22, Type (0, 1), BuildingBlock: TEMPAE_clean_linker_10, # of connection points: 2
#     Edge 23, Type (0, 1), BuildingBlock: TEMPAE_clean_linker_10, # of connection points: 2
#     Edge 24, Type (0, 1), BuildingBlock: TEMPAE_clean_linker_10, # of connection points: 2
#     Edge 25, Type (0, 1), BuildingBlock: TEMPAE_clean_linker_10, # of connection points: 2
#     Edge 26, Type (0, 1), BuildingBlock: TEMPAE_clean_linker_10, # of connection points: 2
#     Edge 27, Type (0, 1), BuildingBlock: TEMPAE_clean_linker_10, # of connection points: 2
#     Edge 28, Type (0, 1), BuildingBlock: TEMPAE_clean_linker_10, # of connection points: 2
#     Edge 29, Type (0, 1), BuildingBlock: TEMPAE_clean_linker_10, # of connection points: 2
#     Edge 30, Type (0, 1), BuildingBlock: TEMPAE_clean_linker_10, # of connection points: 2
#     Edge 31, Type (0, 1), BuildingBlock: TEMPAE_clean_linker_10, # of connection points: 2
#     Edge 32, Type (0, 1), BuildingBlock: TEMPAE_clean_linker_10, # of connection points: 2
#     Edge 33, Type (0, 1), BuildingBlock: TEMPAE_clean_linker_10, # of connection points: 2
#     Edge 34, Type (0, 1), BuildingBlock: TEMPAE_clean_linker_10, # of connection points: 2
#     Edge 35, Type (0, 1), BuildingBlock: TEMPAE_clean_linker_10, # of connection points: 2
# Relax obj value: 0.030
# Max RMSD: 0.083
# Mean RMSD: 0.048
data_MOF--net-pyr--node1-MIFKUJ_clean_sbu_0--node2-ESEHIV_clean_linker_0--edge1-TEMPAE_clean_linker_10
_symmetry_space_group_name_H-M    P1
_symmetry_Int_Tables_number       1
_symmetry_cell_setting            triclinic
loop_
_symmetry_equiv_pos_as_xyz
'x, y, z'
_cell_length_a     38.001084
_cell_length_b     33.976287
_cell_length_c     36.415887
_cell_angle_alpha  85.647197
_cell_angle_beta   88.052878
_cell_angle_gamma 96.671479
loop_
_atom_site_label
_atom_site_type_symbol
_atom_site_fract_x
_atom_site_fract_y
_atom_site_fract_z
_atom_type_partial_charge
H0 H 0.17794 0.22527 0.2445 0.0
H1 H 0.25851 0.14592 0.24564 0.0
H2 H 0.24693 0.22315 0.14902 0.0
C3 C 0.20076 0.21464 0.23156 0.0
C4 C 0.21131 0.22874 0.19523 0.0
C5 C 0.21742 0.18448 0.24996 0.0
C6 C 0.24577 0.16962 0.232 0.0
C7 C 0.25609 0.18313 0.19549 0.0
C8 C 0.23902 0.21287 0.17736 0.0
H9 H 0.31974 0.901 0.71674 0.0
H10 H 0.39757 0.81944 0.70807 0.0
H11 H 0.31752 0.82381 0.62804 0.0
C12 C 0.33031 0.87752 0.70288 0.0
C13 C 0.31485 0.86442 0.67073 0.0
C14 C 0.36021 0.86155 0.71652 0.0
C15 C 0.37477 0.83238 0.69756 0.0
C16 C 0.35947 0.81875 0.66572 0.0
C17 C 0.32938 0.83457 0.6526 0.0
H18 H 0.68522 0.31262 0.87772 0.0
H19 H 0.69099 0.41074 0.79461 0.0
H20 H 0.60353 0.31723 0.79973 0.0
C21 C 0.67448 0.32773 0.85409 0.0
C22 C 0.64255 0.31119 0.84049 0.0
C23 C 0.69215 0.36383 0.83793 0.0
C24 C 0.67741 0.38307 0.8075 0.0
C25 C 0.64533 0.36663 0.79346 0.0
C26 C 0.62795 0.3307 0.81045 0.0
H27 H 0.8166 0.67494 0.36136 0.0
H28 H 0.904 0.67568 0.2834 0.0
H29 H 0.81454 0.58478 0.28469 0.0
C30 C 0.82884 0.66216 0.33846 0.0
C31 C 0.81124 0.62836 0.32426 0.0
C32 C 0.86242 0.67911 0.32418 0.0
C33 C 0.87859 0.66179 0.29515 0.0
C34 C 0.86159 0.62772 0.28037 0.0
C35 C 0.82795 0.61107 0.29548 0.0
H36 H 0.77774 0.88326 0.75346 0.0
H37 H 0.86043 0.80688 0.75667 0.0
H38 H 0.77861 0.79284 0.84263 0.0
C39 C 0.78957 0.85854 0.76654 0.0
C40 C 0.77421 0.83896 0.79952 0.0
C41 C 0.82038 0.84676 0.75066 0.0
C42 C 0.8359 0.81526 0.76811 0.0
C43 C 0.82087 0.79565 0.80116 0.0
C44 C 0.78962 0.80707 0.8164 0.0
H45 H 0.62429 0.1942 0.28847 0.0
H46 H 0.70131 0.11205 0.27766 0.0
H47 H 0.70592 0.18875 0.36669 0.0
C48 C 0.64749 0.18147 0.29815 0.0
C49 C 0.66326 0.19446 0.33002 0.0
C50 C 0.66114 0.15184 0.27899 0.0
C51 C 0.69129 0.13568 0.29177 0.0
C52 C 0.70761 0.14862 0.32353 0.0
C53 C 0.69332 0.17804 0.34249 0.0
H54 H 0.32172 0.6762 0.14311 0.0
H55 H 0.31218 0.58629 0.23365 0.0
H56 H 0.40453 0.67351 0.22058 0.0
C57 C 0.3327 0.66255 0.16735 0.0
C58 C 0.36544 0.67896 0.17958 0.0
C59 C 0.31328 0.6295 0.18698 0.0
C60 C 0.32701 0.61222 0.21887 0.0
C61 C 0.36036 0.62744 0.23085 0.0
C62 C 0.37913 0.6611 0.21121 0.0
H63 H 0.10957 0.32439 0.73474 0.0
H64 H 0.19564 0.32186 0.65558 0.0
H65 H 0.2038 0.40811 0.73593 0.0
C66 C 0.13579 0.33613 0.7236 0.0
C67 C 0.15447 0.36896 0.73882 0.0
C68 C 0.15068 0.31832 0.69403 0.0
C69 C 0.18449 0.33422 0.67931 0.0
C70 C 0.2037 0.36671 0.69404 0.0
C71 C 0.18857 0.38376 0.72388 0.0
Zn72 Zn 0.04744 0.01104 0.53504 0.0
Zn73 Zn 0.97731 0.00431 0.45705 0.0
C74 C 0.04524 0.09228 0.55392 0.0
O75 O 0.0455 0.09913 0.51793 0.0
C76 C 0.9588 0.91768 0.45401 0.0
O77 O 0.94747 0.91824 0.48842 0.0
O78 O 0.08548 0.98106 0.55634 0.0
O79 O 0.00328 0.97257 0.5367 0.0
O80 O 0.96043 0.00082 0.51023 0.0
C81 C 0.11435 0.00052 0.56456 0.0
O82 O 0.1184 0.03944 0.55852 0.0
O83 O 0.04328 0.05649 0.56776 0.0
C84 C 0.91116 0.01584 0.42624 0.0
O85 O 0.90422 0.9785 0.43922 0.0
O86 O 0.94174 0.03415 0.4303 0.0
O87 O 0.02561 0.03314 0.44261 0.0
O88 O 0.0662 0.03405 0.48522 0.0
O89 O 0.97319 0.9498 0.43673 0.0
C90 C 0.97277 0.98408 0.5385 0.0
C91 C 0.05701 0.04256 0.45266 0.0
Zn92 Zn 0.53403 0.971 0.99038 0.0
Zn93 Zn 0.48071 0.01313 0.01884 0.0
C94 C 0.48591 0.92627 0.94642 0.0
O95 O 0.49981 0.89698 0.964 0.0
C96 C 0.525 0.06236 0.06189 0.0
O97 O 0.51011 0.08927 0.04203 0.0
O98 O 0.57407 0.94529 0.96954 0.0
O99 O 0.55174 0.02957 0.98754 0.0
O100 O 0.4992 0.04051 0.96947 0.0
C101 C 0.58027 0.95292 0.93507 0.0
O102 O 0.56161 0.97749 0.91683 0.0
O103 O 0.49557 0.96169 0.95399 0.0
C104 C 0.42429 0.02788 0.06546 0.0
O105 O 0.43319 0.9956 0.08315 0.0
O106 O 0.44034 0.04089 0.03506 0.0
O107 O 0.46355 0.95451 0.02547 0.0
O108 O 0.5168 0.94058 0.03859 0.0
O109 O 0.51708 0.02588 0.05662 0.0
C110 C 0.53238 0.05104 0.96903 0.0
C111 C 0.48335 0.93174 0.04182 0.0
Zn112 Zn 0.52227 0.46427 0.48682 0.0
Zn113 Zn 0.49273 0.53079 0.53093 0.0
C114 C 0.5709 0.50897 0.43452 0.0
O115 O 0.54855 0.49056 0.41293 0.0
C116 C 0.44321 0.48662 0.58255 0.0
O117 O 0.46593 0.50385 0.60449 0.0
O118 O 0.53351 0.41459 0.46443 0.0
O119 O 0.52302 0.45131 0.54184 0.0
O120 O 0.53581 0.51309 0.55546 0.0
C121 C 0.56487 0.40596 0.46874 0.0
O122 O 0.58619 0.42814 0.48858 0.0
O123 O 0.56435 0.50455 0.46921 0.0
C124 C 0.46055 0.60183 0.53791 0.0
O125 O 0.44637 0.59118 0.50725 0.0
O126 O 0.48258 0.58099 0.55304 0.0
O127 O 0.49344 0.54283 0.47562 0.0
O128 O 0.47813 0.481 0.46364 0.0
O129 O 0.44962 0.49201 0.54787 0.0
C130 C 0.53718 0.47617 0.56294 0.0
C131 C 0.47751 0.51797 0.45563 0.0
Zn132 Zn 0.97268 0.52939 0.97386 0.0
Zn133 Zn 0.03667 0.48419 0.03792 0.0
C134 C 0.92256 0.48803 0.93321 0.0
O135 O 0.94629 0.50548 0.9083 0.0
C136 C 0.07877 0.51912 0.09171 0.0
O137 O 0.05888 0.4905 0.11159 0.0
O138 O 0.96304 0.57872 0.94463 0.0
O139 O 0.97629 0.54471 0.0267 0.0
O140 O 0.9873 0.4898 0.05838 0.0
C141 C 0.93967 0.59838 0.9575 0.0
O142 O 0.9252 0.58762 0.99055 0.0
O143 O 0.92808 0.49219 0.9671 0.0
C144 C 0.08336 0.42992 0.05394 0.0
O145 O 0.10222 0.45719 0.03156 0.0
O146 O 0.0509 0.4334 0.06085 0.0
O147 O 0.04742 0.47993 0.98384 0.0
O148 O 0.01212 0.50852 0.94588 0.0
O149 O 0.07243 0.52574 0.05782 0.0
C150 C 0.9755 0.52335 0.05699 0.0
C151 C 0.03844 0.48942 0.95143 0.0
C152 C 0.1882 0.18711 0.31231 0.0
C153 C 0.20171 0.16478 0.28543 0.0
C154 C 0.16771 0.16838 0.34283 0.0
C155 C 0.16087 0.1264 0.34651 0.0
C156 C 0.1765 0.10366 0.32089 0.0
C157 C 0.19657 0.12313 0.29052 0.0
C158 C 0.15154 0.19355 0.36976 0.0
C159 C 0.17002 0.05878 0.3241 0.0
C160 C 0.11922 0.07224 0.43503 0.0
C161 C 0.0836 0.06466 0.42584 0.0
C162 C 0.14472 0.09288 0.4097 0.0
C163 C 0.13425 0.10636 0.37451 0.0
C164 C 0.09831 0.09935 0.36526 0.0
C165 C 0.07344 0.07848 0.391 0.0
C166 C 0.18288 0.09969 0.42033 0.0
C167 C 0.08618 0.11349 0.32795 0.0
H168 H 0.19255 0.2193 0.30875 0.0
H169 H 0.20646 0.1056 0.26966 0.0
H170 H 0.1225 0.19163 0.36629 0.0
H171 H 0.15561 0.1824 0.39853 0.0
H172 H 0.16286 0.2253 0.36559 0.0
H173 H 0.18754 0.04551 0.30466 0.0
H174 H 0.17431 0.04677 0.35256 0.0
H175 H 0.14204 0.04913 0.31807 0.0
H176 H 0.12732 0.06171 0.46193 0.0
H177 H 0.04597 0.07301 0.38374 0.0
H178 H 0.19276 0.13183 0.41658 0.0
H179 H 0.19967 0.08419 0.40203 0.0
H180 H 0.18638 0.0888 0.44937 0.0
H181 H 0.09358 0.14604 0.32268 0.0
H182 H 0.05706 0.10683 0.32561 0.0
H183 H 0.09963 0.09902 0.30602 0.0
C184 C 0.41319 0.8825 0.75238 0.0
C185 C 0.37624 0.87495 0.75069 0.0
C186 C 0.42893 0.89272 0.78512 0.0
C187 C 0.40719 0.89548 0.81694 0.0
C188 C 0.36983 0.88896 0.81519 0.0
C189 C 0.35478 0.87877 0.78202 0.0
C190 C 0.46889 0.89969 0.78586 0.0
C191 C 0.34585 0.89164 0.84859 0.0
C192 C 0.45216 0.87929 0.90718 0.0
C193 C 0.46241 0.91844 0.91561 0.0
C194 C 0.43296 0.87139 0.87584 0.0
C195 C 0.42384 0.90343 0.85236 0.0
C196 C 0.43282 0.94299 0.86151 0.0
C197 C 0.45199 0.95004 0.89309 0.0
C198 C 0.42368 0.82877 0.86709 0.0
C199 C 0.42344 0.9779 0.83716 0.0
H200 H 0.42984 0.8802 0.72805 0.0
H201 H 0.32621 0.87264 0.7809 0.0
H202 H 0.47735 0.92937 0.79553 0.0
H203 H 0.4785 0.87724 0.80559 0.0
H204 H 0.48192 0.89791 0.75836 0.0
H205 H 0.31737 0.8882 0.84204 0.0
H206 H 0.35016 0.8681 0.87022 0.0
H207 H 0.35232 0.92065 0.86036 0.0
H208 H 0.45991 0.85471 0.92458 0.0
H209 H 0.45973 0.9804 0.89947 0.0
H210 H 0.43824 0.82348 0.84134 0.0
H211 H 0.39494 0.82278 0.86233 0.0
H212 H 0.43044 0.80725 0.8895 0.0
H213 H 0.43838 0.97958 0.81026 0.0
H214 H 0.42973 0.00655 0.8497 0.0
H215 H 0.39481 0.97396 0.83148 0.0
C216 C 0.65233 0.40079 0.72953 0.0
C217 C 0.63036 0.38616 0.76048 0.0
C218 C 0.63821 0.41715 0.69744 0.0
C219 C 0.60122 0.41903 0.69626 0.0
C220 C 0.57901 0.40514 0.72771 0.0
C221 C 0.59383 0.38886 0.75938 0.0
C222 C 0.66276 0.4315 0.66446 0.0
C223 C 0.53948 0.40684 0.72768 0.0
C224 C 0.56599 0.48834 0.62279 0.0
C225 C 0.55424 0.4619 0.59674 0.0
C226 C 0.5815 0.47489 0.6552 0.0
C227 C 0.58551 0.43405 0.6617 0.0
C228 C 0.57402 0.4073 0.63536 0.0
C229 C 0.55849 0.42151 0.60329 0.0
C230 C 0.59334 0.50432 0.68266 0.0
C231 C 0.57791 0.36356 0.64116 0.0
H232 H 0.68051 0.39841 0.73 0.0
H233 H 0.57676 0.37811 0.78336 0.0
H234 H 0.65579 0.41337 0.64109 0.0
H235 H 0.65958 0.46276 0.65543 0.0
H236 H 0.69104 0.42965 0.67036 0.0
H237 H 0.52609 0.39629 0.75482 0.0
H238 H 0.53391 0.43774 0.72037 0.0
H239 H 0.52768 0.38818 0.70647 0.0
H240 H 0.56278 0.51957 0.61805 0.0
H241 H 0.54966 0.40084 0.58331 0.0
H242 H 0.62198 0.50387 0.68741 0.0
H243 H 0.57879 0.49579 0.70954 0.0
H244 H 0.5888 0.53514 0.67332 0.0
H245 H 0.60616 0.35946 0.64484 0.0
H246 H 0.56826 0.3468 0.61772 0.0
H247 H 0.56283 0.35048 0.66667 0.0
C248 C 0.91548 0.60956 0.24602 0.0
C249 C 0.87856 0.61024 0.24867 0.0
C250 C 0.93189 0.59472 0.21563 0.0
C251 C 0.91093 0.57946 0.18734 0.0
C252 C 0.87364 0.5792 0.19016 0.0
C253 C 0.85799 0.59486 0.22052 0.0
C254 C 0.97176 0.59594 0.21352 0.0
C255 C 0.85026 0.56288 0.16079 0.0
C256 C 0.95286 0.57733 0.09114 0.0
C257 C 0.95947 0.53755 0.09067 0.0
C258 C 0.93754 0.59139 0.12251 0.0
C259 C 0.92805 0.56497 0.15418 0.0
C260 C 0.93462 0.52477 0.15395 0.0
C261 C 0.9505 0.51162 0.12234 0.0
C262 C 0.93153 0.63461 0.12174 0.0
C263 C 0.92444 0.49551 0.18694 0.0
H264 H 0.93169 0.62063 0.26779 0.0
H265 H 0.82957 0.59576 0.22174 0.0
H266 H 0.97923 0.56556 0.21143 0.0
H267 H 0.98283 0.61424 0.18834 0.0
H268 H 0.98428 0.60849 0.23788 0.0
H269 H 0.82161 0.5627 0.16807 0.0
H270 H 0.85658 0.58105 0.13428 0.0
H271 H 0.85539 0.53207 0.15632 0.0
H272 H 0.9599 0.59772 0.06696 0.0
H273 H 0.95539 0.48083 0.12227 0.0
H274 H 0.94532 0.64876 0.14461 0.0
H275 H 0.90284 0.63704 0.12593 0.0
H276 H 0.94119 0.65152 0.09531 0.0
H277 H 0.93804 0.50592 0.21152 0.0
H278 H 0.9313 0.4653 0.18242 0.0
H279 H 0.89549 0.49355 0.19327 0.0
C280 C 0.31501 0.1582 0.18892 0.0
C281 C 0.28179 0.16291 0.17495 0.0
C282 C 0.33877 0.13723 0.17028 0.0
C283 C 0.32854 0.12003 0.13747 0.0
C284 C 0.295 0.12487 0.12324 0.0
C285 C 0.27209 0.14657 0.14207 0.0
C286 C 0.37463 0.13317 0.18583 0.0
C287 C 0.283 0.10635 0.08867 0.0
C288 C 0.39909 0.09154 0.07203 0.0
C289 C 0.3986 0.05092 0.08256 0.0
C290 C 0.37655 0.11453 0.08988 0.0
C291 C 0.35259 0.09618 0.11838 0.0
C292 C 0.35145 0.05501 0.12858 0.0
C293 C 0.37477 0.0329 0.11074 0.0
C294 C 0.37879 0.15851 0.07871 0.0
C295 C 0.3257 0.03437 0.15841 0.0
H296 H 0.32235 0.17099 0.21437 0.0
H297 H 0.24609 0.14982 0.13166 0.0
H298 H 0.37708 0.10139 0.19335 0.0
H299 H 0.39593 0.14416 0.16469 0.0
H300 H 0.37906 0.14988 0.21066 0.0
H301 H 0.2562 0.11334 0.08111 0.0
H302 H 0.30202 0.11699 0.06526 0.0
H303 H 0.28247 0.07358 0.09261 0.0
H304 H 0.41778 0.10564 0.05049 0.0
H305 H 0.37431 0.00146 0.11881 0.0
H306 H 0.38538 0.17569 0.10279 0.0
H307 H 0.35274 0.1661 0.06943 0.0
H308 H 0.39911 0.1682 0.05619 0.0
H309 H 0.3309 0.04751 0.18495 0.0
H310 H 0.32754 0.00194 0.16229 0.0
H311 H 0.29815 0.03884 0.1515 0.0
C312 C 0.28305 0.89242 0.61746 0.0
C313 C 0.28423 0.88273 0.65551 0.0
C314 C 0.25485 0.91067 0.60269 0.0
C315 C 0.22725 0.91971 0.62655 0.0
C316 C 0.2281 0.90977 0.66495 0.0
C317 C 0.25656 0.89131 0.67896 0.0
C318 C 0.25484 0.92079 0.56158 0.0
C319 C 0.19913 0.91897 0.69123 0.0
C320 C 0.17373 0.00159 0.59223 0.0
C321 C 0.14299 0.97975 0.5808 0.0
C322 C 0.20119 0.9824 0.60753 0.0
C323 C 0.1979 0.94035 0.61133 0.0
C324 C 0.1669 0.9181 0.6 0.0
C325 C 0.13976 0.93807 0.58493 0.0
C326 C 0.23381 0.00713 0.61948 0.0
C327 C 0.16255 0.8732 0.6035 0.0
H328 H 0.3046 0.88645 0.59923 0.0
H329 H 0.25708 0.88344 0.70833 0.0
H330 H 0.22996 0.90696 0.55044 0.0
H331 H 0.25582 0.95343 0.55568 0.0
H332 H 0.27769 0.9106 0.5467 0.0
H333 H 0.2035 0.90885 0.72027 0.0
H334 H 0.19762 0.95147 0.68945 0.0
H335 H 0.17307 0.90446 0.68345 0.0
H336 H 0.17639 0.0338 0.58927 0.0
H337 H 0.1161 0.92097 0.57616 0.0
H338 H 0.2576 0.00045 0.6037 0.0
H339 H 0.2379 0.99947 0.64906 0.0
H340 H 0.23194 0.03954 0.6153 0.0
H341 H 0.18401 0.86221 0.58715 0.0
H342 H 0.13659 0.8603 0.59388 0.0
H343 H 0.16487 0.86208 0.63265 0.0
C344 C 0.73215 0.42201 0.8575 0.0
C345 C 0.72594 0.38118 0.853 0.0
C346 C 0.76375 0.43856 0.87216 0.0
C347 C 0.78979 0.4137 0.88256 0.0
C348 C 0.7836 0.37245 0.87827 0.0
C349 C 0.75183 0.35672 0.86349 0.0
C350 C 0.76939 0.48272 0.87623 0.0
C351 C 0.81079 0.345 0.8888 0.0
C352 C 0.88484 0.46223 0.88351 0.0
C353 C 0.88913 0.46676 0.92116 0.0
C354 C 0.85282 0.44467 0.87073 0.0
C355 C 0.82423 0.43119 0.89619 0.0
C356 C 0.82851 0.43492 0.93433 0.0
C357 C 0.86096 0.45268 0.9464 0.0
C358 C 0.84942 0.44115 0.82986 0.0
C359 C 0.79863 0.42074 0.96229 0.0
H360 H 0.71209 0.441 0.84995 0.0
H361 H 0.74746 0.32523 0.85966 0.0
H362 H 0.7747 0.48825 0.90528 0.0
H363 H 0.79297 0.49649 0.8591 0.0
H364 H 0.74615 0.49776 0.86784 0.0
H365 H 0.80129 0.3134 0.88522 0.0
H366 H 0.83554 0.35365 0.8716 0.0
H367 H 0.81762 0.34766 0.91795 0.0
H368 H 0.90645 0.47288 0.86374 0.0
H369 H 0.86403 0.45612 0.9755 0.0
H370 H 0.82812 0.45828 0.8196 0.0
H371 H 0.84181 0.40966 0.82447 0.0
H372 H 0.87444 0.45228 0.81378 0.0
H373 H 0.77564 0.43731 0.95666 0.0
H374 H 0.80649 0.42478 0.99099 0.0
H375 H 0.78964 0.38881 0.95998 0.0
C376 C 0.76679 0.57046 0.34783 0.0
C377 C 0.77533 0.61154 0.33966 0.0
C378 C 0.73335 0.5546 0.36358 0.0
C379 C 0.70776 0.58042 0.37121 0.0
C380 C 0.71612 0.62187 0.36269 0.0
C381 C 0.74974 0.63689 0.34705 0.0
C382 C 0.72547 0.51022 0.37229 0.0
C383 C 0.68952 0.65038 0.37007 0.0
C384 C 0.61104 0.53577 0.38028 0.0
C385 C 0.60503 0.53022 0.41867 0.0
C386 C 0.64415 0.55256 0.36452 0.0
C387 C 0.67208 0.56401 0.38766 0.0
C388 C 0.666 0.55932 0.42644 0.0
C389 C 0.63253 0.54256 0.4415 0.0
C390 C 0.64941 0.55733 0.32305 0.0
C391 C 0.6951 0.57122 0.45205 0.0
H392 H 0.78653 0.55074 0.34257 0.0
H393 H 0.75595 0.66863 0.34033 0.0
H394 H 0.71875 0.5035 0.40216 0.0
H395 H 0.70211 0.49852 0.35724 0.0
H396 H 0.74822 0.49421 0.36475 0.0
H397 H 0.70021 0.68179 0.36201 0.0
H398 H 0.66529 0.64287 0.35465 0.0
H399 H 0.68142 0.6476 0.3998 0.0
H400 H 0.58996 0.52644 0.36238 0.0
H401 H 0.6282 0.53825 0.47117 0.0
H402 H 0.67011 0.53913 0.31421 0.0
H403 H 0.65882 0.58876 0.31377 0.0
H404 H 0.62468 0.54818 0.30891 0.0
H405 H 0.7175 0.55358 0.4478 0.0
H406 H 0.68588 0.56661 0.4815 0.0
H407 H 0.70549 0.60298 0.44574 0.0
C408 C 0.18376 0.29207 0.19074 0.0
C409 C 0.19143 0.25759 0.1749 0.0
C410 C 0.16506 0.31967 0.17149 0.0
C411 C 0.1536 0.31221 0.13582 0.0
C412 C 0.16079 0.2771 0.11998 0.0
C413 C 0.17973 0.25021 0.13971 0.0
C414 C 0.15807 0.35706 0.18902 0.0
C415 C 0.14874 0.26812 0.08208 0.0
C416 C 0.08104 0.36859 0.09688 0.0
C417 C 0.10083 0.39863 0.07375 0.0
C418 C 0.09786 0.34002 0.11721 0.0
C419 C 0.13526 0.34187 0.11441 0.0
C420 C 0.15532 0.37198 0.09098 0.0
C421 C 0.13784 0.39992 0.07081 0.0
C422 C 0.0757 0.30807 0.14183 0.0
C423 C 0.1953 0.37495 0.0875 0.0
H424 H 0.19292 0.29773 0.21793 0.0
H425 H 0.18515 0.22315 0.12776 0.0
H426 H 0.17111 0.38352 0.17194 0.0
H427 H 0.1292 0.35951 0.19029 0.0
H428 H 0.16798 0.35784 0.21734 0.0
H429 H 0.15547 0.23881 0.07429 0.0
H430 H 0.11963 0.26837 0.08094 0.0
H431 H 0.16135 0.29148 0.06124 0.0
H432 H 0.05243 0.36752 0.09927 0.0
H433 H 0.15333 0.42321 0.05316 0.0
H434 H 0.08338 0.30997 0.17082 0.0
H435 H 0.08068 0.27828 0.13381 0.0
H436 H 0.04686 0.31049 0.1405 0.0
H437 H 0.20665 0.37874 0.11485 0.0
H438 H 0.20694 0.40023 0.06802 0.0
H439 H 0.2035 0.34707 0.07781 0.0
C440 C 0.63811 0.23755 0.85043 0.0
C441 C 0.6248 0.27301 0.85758 0.0
C442 C 0.62234 0.20103 0.86749 0.0
C443 C 0.59307 0.20028 0.89281 0.0
C444 C 0.57954 0.23622 0.89997 0.0
C445 C 0.59545 0.27224 0.88195 0.0
C446 C 0.63717 0.16332 0.85867 0.0
C447 C 0.5488 0.23672 0.92724 0.0
C448 C 0.53338 0.1033 0.91688 0.0
C449 C 0.54782 0.08904 0.94946 0.0
C450 C 0.5481 0.13927 0.89787 0.0
C451 C 0.57722 0.16199 0.91247 0.0
C452 C 0.59143 0.14798 0.94578 0.0
C453 C 0.57688 0.11134 0.96358 0.0
C454 C 0.53279 0.15274 0.86197 0.0
C455 C 0.62185 0.17181 0.96276 0.0
H456 H 0.6609 0.2385 0.8315 0.0
H457 H 0.58547 0.29994 0.88746 0.0
H458 H 0.64768 0.14927 0.88384 0.0
H459 H 0.61582 0.14172 0.8493 0.0
H460 H 0.65882 0.16883 0.83696 0.0
H461 H 0.54137 0.26714 0.92953 0.0
H462 H 0.52533 0.2174 0.91895 0.0
H463 H 0.55574 0.22459 0.95486 0.0
H464 H 0.51099 0.08589 0.90589 0.0
H465 H 0.58777 0.10051 0.98905 0.0
H466 H 0.55375 0.15661 0.83958 0.0
H467 H 0.52301 0.18202 0.86415 0.0
H468 H 0.51057 0.13127 0.85402 0.0
H469 H 0.64562 0.17551 0.94373 0.0
H470 H 0.62881 0.1575 0.98957 0.0
H471 H 0.61492 0.20199 0.96719 0.0
C472 C 0.86102 0.74664 0.34699 0.0
C473 C 0.88025 0.71501 0.3399 0.0
C474 C 0.8765 0.77954 0.36423 0.0
C475 C 0.9121 0.78087 0.37484 0.0
C476 C 0.93198 0.74951 0.36693 0.0
C477 C 0.91584 0.71698 0.34942 0.0
C478 C 0.85446 0.81252 0.37178 0.0
C479 C 0.96994 0.74977 0.3779 0.0
C480 C 0.95633 0.88255 0.39577 0.0
C481 C 0.9506 0.88132 0.43416 0.0
C482 C 0.94508 0.84959 0.37619 0.0
C483 C 0.92782 0.81447 0.39544 0.0
C484 C 0.92333 0.81248 0.43433 0.0
C485 C 0.93469 0.84592 0.45319 0.0
C486 C 0.95032 0.85294 0.33474 0.0
C487 C 0.90529 0.77551 0.45594 0.0
H488 H 0.83366 0.74553 0.3392 0.0
H489 H 0.93073 0.69248 0.34424 0.0
H490 H 0.85133 0.81463 0.40195 0.0
H491 H 0.86808 0.84148 0.35965 0.0
H492 H 0.82768 0.80777 0.3604 0.0
H493 H 0.98236 0.72428 0.36797 0.0
H494 H 0.98592 0.7778 0.36675 0.0
H495 H 0.971 0.74852 0.40838 0.0
H496 H 0.9686 0.90973 0.38078 0.0
H497 H 0.93029 0.84457 0.48285 0.0
H498 H 0.92416 0.85194 0.32198 0.0
H499 H 0.96319 0.82745 0.32561 0.0
H500 H 0.96674 0.88098 0.3242 0.0
H501 H 0.8771 0.77048 0.44864 0.0
H502 H 0.90626 0.77764 0.48619 0.0
H503 H 0.91792 0.74911 0.44874 0.0
C504 C 0.41109 0.79354 0.635 0.0
C505 C 0.37511 0.78795 0.64619 0.0
C506 C 0.42641 0.76448 0.61665 0.0
C507 C 0.40534 0.72873 0.61013 0.0
C508 C 0.36899 0.72288 0.62165 0.0
C509 C 0.3542 0.75282 0.63923 0.0
C510 C 0.46505 0.7721 0.60411 0.0
C511 C 0.34586 0.68483 0.61579 0.0
C512 C 0.43297 0.66504 0.5355 0.0
C513 C 0.44866 0.63568 0.55602 0.0
C514 C 0.41961 0.69614 0.55264 0.0
C515 C 0.42127 0.69732 0.59132 0.0
C516 C 0.43738 0.66793 0.61214 0.0
C517 C 0.45125 0.63767 0.59416 0.0
C518 C 0.40332 0.72745 0.52944 0.0
C519 C 0.43906 0.66782 0.65353 0.0
H520 H 0.42711 0.82092 0.64023 0.0
H521 H 0.32643 0.74849 0.64822 0.0
H522 H 0.47992 0.74918 0.6176 0.0
H523 H 0.4678 0.76987 0.57393 0.0
H524 H 0.4775 0.80188 0.61053 0.0
H525 H 0.31829 0.68469 0.62703 0.0
H526 H 0.34497 0.68051 0.58594 0.0
H527 H 0.35726 0.65907 0.62926 0.0
H528 H 0.43111 0.66369 0.50597 0.0
H529 H 0.46308 0.6148 0.61016 0.0
H530 H 0.41614 0.75749 0.53443 0.0
H531 H 0.37476 0.7263 0.53738 0.0
H532 H 0.4059 0.72349 0.4995 0.0
H533 H 0.45303 0.69637 0.6611 0.0
H534 H 0.45286 0.64313 0.6656 0.0
H535 H 0.4118 0.66494 0.66618 0.0
C536 C 0.84484 0.91068 0.71595 0.0
C537 C 0.83807 0.86914 0.71746 0.0
C538 C 0.86469 0.93206 0.68628 0.0
C539 C 0.87778 0.91129 0.65752 0.0
C540 C 0.86978 0.86949 0.65821 0.0
C541 C 0.85011 0.84886 0.68835 0.0
C542 C 0.87292 0.9766 0.6865 0.0
C543 C 0.883 0.84644 0.62775 0.0
C544 C 0.91141 0.96621 0.5664 0.0
C545 C 0.94825 0.9685 0.56987 0.0
C546 C 0.88801 0.94829 0.59503 0.0
C547 C 0.90185 0.9328 0.62792 0.0
C548 C 0.93895 0.93635 0.63209 0.0
C549 C 0.96172 0.95404 0.60292 0.0
C550 C 0.84857 0.94477 0.58964 0.0
C551 C 0.95462 0.92055 0.66702 0.0
H552 H 0.83581 0.92631 0.73869 0.0
H553 H 0.84453 0.81675 0.68944 0.0
H554 H 0.9018 0.9845 0.68935 0.0
H555 H 0.86591 0.99151 0.66005 0.0
H556 H 0.85848 0.98853 0.70943 0.0
H557 H 0.87224 0.81448 0.63115 0.0
H558 H 0.87554 0.85922 0.60058 0.0
H559 H 0.91237 0.84873 0.62738 0.0
H560 H 0.90081 0.97727 0.54087 0.0
H561 H 0.99017 0.95614 0.60583 0.0
H562 H 0.83484 0.95728 0.61264 0.0
H563 H 0.83784 0.91294 0.58991 0.0
H564 H 0.84205 0.9603 0.56323 0.0
H565 H 0.94308 0.93321 0.69125 0.0
H566 H 0.98393 0.9276 0.66656 0.0
H567 H 0.94793 0.88779 0.6709 0.0
C568 C 0.60621 0.1291 0.24686 0.0
C569 C 0.64327 0.13711 0.24622 0.0
C570 C 0.58874 0.1159 0.21599 0.0
C571 C 0.60882 0.11052 0.18368 0.0
C572 C 0.64627 0.11805 0.18297 0.0
C573 C 0.66308 0.13124 0.21431 0.0
C574 C 0.54874 0.10803 0.21787 0.0
C575 C 0.66851 0.11274 0.14895 0.0
C576 C 0.56125 0.0458 0.11584 0.0
C577 C 0.54905 0.07442 0.09119 0.0
C578 C 0.58177 0.05712 0.14547 0.0
C579 C 0.5903 0.098 0.15044 0.0
C580 C 0.57917 0.127 0.12486 0.0
C581 C 0.55866 0.11486 0.09556 0.0
C582 C 0.59327 0.02536 0.17217 0.0
C583 C 0.5879 0.17089 0.12914 0.0
H584 H 0.59082 0.13293 0.27167 0.0
H585 H 0.69172 0.1377 0.21361 0.0
H586 H 0.5377 0.12781 0.19669 0.0
H587 H 0.5402 0.07695 0.21176 0.0
H588 H 0.53711 0.11293 0.24531 0.0
H589 H 0.69738 0.11858 0.1533 0.0
H590 H 0.66255 0.08204 0.14058 0.0
H591 H 0.66185 0.13325 0.12573 0.0
H592 H 0.55404 0.01448 0.11257 0.0
H593 H 0.54959 0.13718 0.07644 0.0
H594 H 0.58006 0.02658 0.19963 0.0
H595 H 0.62229 0.03065 0.17562 0.0
H596 H 0.58665 0.99504 0.16298 0.0
H597 H 0.57457 0.17863 0.15474 0.0
H598 H 0.57936 0.18961 0.1055 0.0
H599 H 0.61685 0.1784 0.13177 0.0
C600 C 0.4119 0.60218 0.26235 0.0
C601 C 0.37599 0.60827 0.26357 0.0
C602 C 0.42765 0.58578 0.29334 0.0
C603 C 0.40706 0.57526 0.32651 0.0
C604 C 0.37062 0.5806 0.32776 0.0
C605 C 0.35549 0.59694 0.29623 0.0
C606 C 0.46652 0.58032 0.29074 0.0
C607 C 0.34782 0.56995 0.36265 0.0
C608 C 0.4429 0.50547 0.39918 0.0
C609 C 0.45894 0.5323 0.42285 0.0
C610 C 0.4256 0.51895 0.36793 0.0
C611 C 0.42413 0.56021 0.36023 0.0
C612 C 0.43995 0.58737 0.3842 0.0
C613 C 0.45726 0.57313 0.41505 0.0
C614 C 0.40923 0.48907 0.34291 0.0
C615 C 0.43889 0.63159 0.37708 0.0
H616 H 0.42776 0.61026 0.23701 0.0
H617 H 0.3278 0.60184 0.29744 0.0
H618 H 0.48129 0.59896 0.3102 0.0
H619 H 0.47012 0.54894 0.2988 0.0
H620 H 0.47846 0.5885 0.26254 0.0
H621 H 0.31964 0.5743 0.35867 0.0
H622 H 0.34914 0.53849 0.3726 0.0
H623 H 0.358 0.58858 0.38462 0.0
H624 H 0.44406 0.47389 0.4049 0.0
H625 H 0.46959 0.59417 0.43304 0.0
H626 H 0.42202 0.49497 0.31488 0.0
H627 H 0.38064 0.49208 0.3403 0.0
H628 H 0.41197 0.45798 0.35314 0.0
H629 H 0.45301 0.64238 0.3504 0.0
H630 H 0.45128 0.64863 0.39913 0.0
H631 H 0.41105 0.63806 0.37497 0.0
C632 C 0.14416 0.42918 0.77239 0.0
C633 C 0.13847 0.3878 0.77024 0.0
C634 C 0.12941 0.44729 0.80177 0.0
C635 C 0.10774 0.42367 0.82943 0.0
C636 C 0.1017 0.38198 0.82742 0.0
C637 C 0.11738 0.36455 0.79815 0.0
C638 C 0.13689 0.49177 0.80312 0.0
C639 C 0.07843 0.35574 0.85611 0.0
C640 C 0.09085 0.46208 0.92332 0.0
C641 C 0.05736 0.47518 0.91953 0.0
C642 C 0.10795 0.44619 0.89396 0.0
C643 C 0.09089 0.44255 0.86018 0.0
C644 C 0.05726 0.45609 0.85606 0.0
C645 C 0.04108 0.47255 0.88562 0.0
C646 C 0.1441 0.43285 0.89925 0.0
C647 C 0.03787 0.45217 0.82076 0.0
H648 H 0.15985 0.44766 0.7508 0.0
H649 H 0.11328 0.33254 0.79736 0.0
H650 H 0.11181 0.50541 0.80121 0.0
H651 H 0.14828 0.49886 0.82983 0.0
H652 H 0.15559 0.50572 0.78043 0.0
H653 H 0.07583 0.32393 0.85027 0.0
H654 H 0.0895 0.35848 0.88372 0.0
H655 H 0.05157 0.36548 0.8574 0.0
H656 H 0.10371 0.46413 0.94934 0.0
H657 H 0.0151 0.48226 0.88247 0.0
H658 H 0.16317 0.44766 0.87732 0.0
H659 H 0.14274 0.40036 0.89687 0.0
H660 H 0.15454 0.43952 0.92651 0.0
H661 H 0.05443 0.46773 0.79717 0.0
H662 H 0.01209 0.46457 0.82179 0.0
H663 H 0.03287 0.42036 0.81528 0.0
C664 C 0.71416 0.82838 0.83123 0.0
C665 C 0.74413 0.8542 0.81818 0.0
C666 C 0.68611 0.84261 0.85017 0.0
C667 C 0.68859 0.88339 0.85659 0.0
C668 C 0.71888 0.90952 0.84347 0.0
C669 C 0.74623 0.8946 0.82419 0.0
C670 C 0.6539 0.8141 0.86331 0.0
C671 C 0.72261 0.9531 0.85023 0.0
C672 C 0.60675 0.93287 0.87699 0.0
C673 C 0.60729 0.93379 0.91538 0.0
C674 C 0.63245 0.91534 0.8576 0.0
C675 C 0.65961 0.899 0.87708 0.0
C676 C 0.66008 0.89941 0.9159 0.0
C677 C 0.63366 0.91656 0.93468 0.0
C678 C 0.63085 0.91485 0.81624 0.0
C679 C 0.68898 0.88269 0.93745 0.0
H680 H 0.71264 0.79713 0.82641 0.0
H681 H 0.76972 0.9144 0.81455 0.0
H682 H 0.65052 0.81309 0.89376 0.0
H683 H 0.62971 0.82459 0.85167 0.0
H684 H 0.65582 0.78348 0.85534 0.0
H685 H 0.74805 0.9693 0.83841 0.0
H686 H 0.70046 0.96735 0.83793 0.0
H687 H 0.7211 0.9565 0.88029 0.0
H688 H 0.58612 0.94575 0.86204 0.0
H689 H 0.63411 0.91727 0.96437 0.0
H690 H 0.63131 0.88411 0.80806 0.0
H691 H 0.65448 0.9332 0.80273 0.0
H692 H 0.60669 0.92648 0.8056 0.0
H693 H 0.69023 0.85124 0.93185 0.0
H694 H 0.68488 0.88423 0.96764 0.0
H695 H 0.71506 0.89945 0.92852 0.0
C696 C 0.74208 0.12178 0.37531 0.0
C697 C 0.73906 0.13079 0.33738 0.0
C698 C 0.77128 0.10444 0.38882 0.0
C699 C 0.79796 0.09546 0.36379 0.0
C700 C 0.79525 0.10466 0.32551 0.0
C701 C 0.7659 0.12237 0.31277 0.0
C702 C 0.7733 0.09517 0.42987 0.0
C703 C 0.82312 0.09533 0.29799 0.0
C704 C 0.88693 0.07794 0.40254 0.0
C705 C 0.88321 0.03636 0.40839 0.0
C706 C 0.85957 0.09765 0.38751 0.0
C707 C 0.82803 0.07516 0.37775 0.0
C708 C 0.82457 0.03315 0.38264 0.0
C709 C 0.85212 0.01428 0.3981 0.0
C710 C 0.86405 0.14251 0.38299 0.0
C711 C 0.79151 0.00813 0.37212 0.0
H712 H 0.72123 0.1276 0.39448 0.0
H713 H 0.76403 0.12977 0.28347 0.0
H714 H 0.77245 0.06261 0.4362 0.0
H715 H 0.7988 0.10923 0.4395 0.0
H716 H 0.75121 0.10571 0.44572 0.0
H717 H 0.8174 0.10501 0.2692 0.0
H718 H 0.84952 0.11012 0.3044 0.0
H719 H 0.82478 0.06285 0.29991 0.0
H720 H 0.91087 0.09518 0.41051 0.0
H721 H 0.84919 0.98211 0.40227 0.0
H722 H 0.84376 0.15399 0.40058 0.0
H723 H 0.85985 0.15297 0.35404 0.0
H724 H 0.89073 0.15556 0.39058 0.0
H725 H 0.76837 0.0145 0.38911 0.0
H726 H 0.79374 0.97577 0.37597 0.0
H727 H 0.78602 0.01576 0.34287 0.0
C728 C 0.24734 0.61567 0.19456 0.0
C729 C 0.2786 0.61324 0.17383 0.0
C730 C 0.2141 0.60211 0.18142 0.0
C731 C 0.21228 0.58482 0.1472 0.0
C732 C 0.24398 0.58186 0.12646 0.0
C733 C 0.27675 0.59665 0.13981 0.0
C734 C 0.18094 0.60654 0.20397 0.0
C735 C 0.2433 0.56266 0.09039 0.0
C736 C 0.13015 0.51408 0.13151 0.0
C737 C 0.112 0.53714 0.10668 0.0
C738 C 0.16287 0.52914 0.14465 0.0
C739 C 0.17735 0.56872 0.13359 0.0
C740 C 0.15876 0.59246 0.10907 0.0
C741 C 0.12654 0.57611 0.09536 0.0
C742 C 0.1823 0.50235 0.16972 0.0
C743 C 0.17293 0.63506 0.09733 0.0
H744 H 0.24893 0.62892 0.22071 0.0
H745 H 0.30107 0.59488 0.12389 0.0
H746 H 0.163 0.62329 0.18709 0.0
H747 H 0.16639 0.57684 0.21241 0.0
H748 H 0.18682 0.62224 0.22913 0.0
H749 H 0.27033 0.56208 0.07798 0.0
H750 H 0.23007 0.53168 0.09475 0.0
H751 H 0.22769 0.57892 0.07044 0.0
H752 H 0.11929 0.48364 0.1398 0.0
H753 H 0.11252 0.59391 0.07614 0.0
H754 H 0.18637 0.51533 0.19651 0.0
H755 H 0.20892 0.49982 0.15724 0.0
H756 H 0.16777 0.47201 0.175 0.0
H757 H 0.17777 0.65192 0.12197 0.0
H758 H 0.15444 0.65013 0.07965 0.0
H759 H 0.19872 0.6362 0.08185 0.0
C760 C 0.26414 0.35714 0.6686 0.0
C761 C 0.23949 0.3829 0.67791 0.0
C762 C 0.2977 0.37191 0.65261 0.0
C763 C 0.30689 0.41346 0.64564 0.0
C764 C 0.28217 0.43962 0.65502 0.0
C765 C 0.24883 0.42404 0.6711 0.0
C766 C 0.3234 0.34305 0.64334 0.0
C767 C 0.29089 0.48411 0.64793 0.0
C768 C 0.40383 0.45713 0.63649 0.0
C769 C 0.40923 0.46481 0.59817 0.0
C770 C 0.37093 0.43964 0.65221 0.0
C771 C 0.34257 0.42971 0.62911 0.0
C772 C 0.34807 0.43643 0.59034 0.0
C773 C 0.38137 0.45379 0.57532 0.0
C774 C 0.3663 0.43264 0.69364 0.0
C775 C 0.31849 0.42626 0.56478 0.0
H776 H 0.25727 0.32533 0.67418 0.0
H777 H 0.22978 0.44409 0.6778 0.0
H778 H 0.33114 0.34715 0.61352 0.0
H779 H 0.34796 0.34899 0.65865 0.0
H780 H 0.31208 0.3116 0.65019 0.0
H781 H 0.26865 0.50038 0.65651 0.0
H782 H 0.31461 0.49446 0.66309 0.0
H783 H 0.2974 0.49202 0.61816 0.0
H784 H 0.42523 0.46535 0.65439 0.0
H785 H 0.38526 0.45968 0.5457 0.0
H786 H 0.3563 0.40105 0.7016 0.0
H787 H 0.34626 0.45092 0.70392 0.0
H788 H 0.39143 0.44023 0.70764 0.0
H789 H 0.30759 0.39453 0.57012 0.0
H790 H 0.32741 0.43188 0.53528 0.0
H791 H 0.29654 0.44423 0.57008 0.0
C792 C 0.87523 0.77604 0.83003 0.0
C793 C 0.83973 0.7661 0.82174 0.0
C794 C 0.89307 0.74951 0.85159 0.0
C795 C 0.87503 0.71203 0.86463 0.0
C796 C 0.83938 0.7015 0.85562 0.0
C797 C 0.82199 0.72893 0.83452 0.0
C798 C 0.93089 0.76196 0.86117 0.0
C799 C 0.81955 0.66146 0.86857 0.0
C800 C 0.92946 0.62992 0.89539 0.0
C801 C 0.92556 0.62944 0.93385 0.0
C802 C 0.9132 0.65677 0.87245 0.0
C803 C 0.8932 0.68417 0.88845 0.0
C804 C 0.89011 0.68465 0.92725 0.0
C805 C 0.90609 0.65695 0.94954 0.0
C806 C 0.91658 0.65507 0.83117 0.0
C807 C 0.86952 0.71401 0.94521 0.0
H808 H 0.88871 0.80509 0.8205 0.0
H809 H 0.79453 0.72138 0.82793 0.0
H810 H 0.93257 0.76218 0.89151 0.0
H811 H 0.94835 0.74027 0.85201 0.0
H812 H 0.94125 0.79195 0.84831 0.0
H813 H 0.79252 0.65725 0.8577 0.0
H814 H 0.83448 0.63736 0.85974 0.0
H815 H 0.81717 0.65826 0.89912 0.0
H816 H 0.94421 0.60838 0.88317 0.0
H817 H 0.90316 0.65668 0.97928 0.0
H818 H 0.92799 0.68445 0.81788 0.0
H819 H 0.88993 0.64803 0.8201 0.0
H820 H 0.93355 0.63236 0.82314 0.0
H821 H 0.87972 0.7448 0.93444 0.0
H822 H 0.8711 0.71167 0.97569 0.0
H823 H 0.84122 0.7089 0.93833 0.0
C824 C 0.39873 0.74709 0.17942 0.0
C825 C 0.38493 0.71527 0.15977 0.0
C826 C 0.41596 0.78225 0.16102 0.0
C827 C 0.41969 0.78554 0.12205 0.0
C828 C 0.40639 0.75322 0.10211 0.0
C829 C 0.38902 0.71853 0.12121 0.0
C830 C 0.42946 0.8162 0.18324 0.0
C831 C 0.41013 0.75546 0.06057 0.0
C832 C 0.43075 0.88827 0.07114 0.0
C833 C 0.46743 0.89466 0.06307 0.0
C834 C 0.41498 0.85309 0.09064 0.0
C835 C 0.43633 0.82332 0.10205 0.0
C836 C 0.47339 0.82958 0.0941 0.0
C837 C 0.48854 0.86528 0.07486 0.0
C838 C 0.37541 0.84773 0.0989 0.0
C839 C 0.49697 0.7984 0.1056 0.0
H840 H 0.39527 0.74486 0.2092 0.0
H841 H 0.37873 0.69382 0.10596 0.0
H842 H 0.45814 0.82509 0.17676 0.0
H843 H 0.41555 0.84244 0.17574 0.0
H844 H 0.42544 0.80844 0.2134 0.0
H845 H 0.39963 0.72716 0.04929 0.0
H846 H 0.39569 0.77958 0.04854 0.0
H847 H 0.43844 0.76281 0.05143 0.0
H848 H 0.41425 0.91088 0.06229 0.0
H849 H 0.51688 0.86992 0.0686 0.0
H850 H 0.36975 0.84205 0.12905 0.0
H851 H 0.36297 0.82147 0.08576 0.0
H852 H 0.36271 0.87414 0.08888 0.0
H853 H 0.49457 0.79165 0.13593 0.0
H854 H 0.52529 0.8079 0.09745 0.0
H855 H 0.48836 0.77039 0.0929 0.0
C856 C 0.09447 0.28107 0.67305 0.0
C857 C 0.13114 0.28336 0.678 0.0
C858 C 0.07647 0.24938 0.65584 0.0
C859 C 0.09565 0.21956 0.64273 0.0
C860 C 0.13242 0.22111 0.64855 0.0
C861 C 0.14957 0.25268 0.66638 0.0
C862 C 0.03715 0.24844 0.65069 0.0
C863 C 0.15396 0.19009 0.63486 0.0
C864 C 0.05253 0.11956 0.61588 0.0
C865 C 0.05333 0.12588 0.57731 0.0
C866 C 0.06449 0.15039 0.6378 0.0
C867 C 0.07811 0.18819 0.62069 0.0
C868 C 0.07765 0.19511 0.58189 0.0
C869 C 0.06501 0.16403 0.56075 0.0
C870 C 0.06385 0.14205 0.67913 0.0
C871 C 0.09227 0.2348 0.56245 0.0
H872 H 0.07994 0.30467 0.68162 0.0
H873 H 0.17769 0.25355 0.67085 0.0
H874 H 0.03225 0.25376 0.62097 0.0
H875 H 0.02319 0.21873 0.66025 0.0
H876 H 0.02544 0.27129 0.66584 0.0
H877 H 0.18209 0.19492 0.64254 0.0
H878 H 0.14237 0.16 0.64622 0.0
H879 H 0.15327 0.19065 0.60438 0.0
H880 H 0.04337 0.09026 0.62895 0.0
H881 H 0.06579 0.16929 0.53098 0.0
H882 H 0.05207 0.16576 0.69291 0.0
H883 H 0.09136 0.14195 0.68835 0.0
H884 H 0.04857 0.1129 0.68841 0.0
H885 H 0.07965 0.2591 0.57429 0.0
H886 H 0.08809 0.23611 0.53236 0.0
H887 H 0.12116 0.2405 0.56661 0.0
C888 C 0.64094 0.21818 0.38876 0.0
C889 C 0.64798 0.22482 0.35063 0.0
C890 C 0.6262 0.2465 0.40864 0.0
C891 C 0.61884 0.28252 0.38996 0.0
C892 C 0.62595 0.28938 0.35143 0.0
C893 C 0.64021 0.26027 0.33216 0.0
C894 C 0.61856 0.23793 0.44961 0.0
C895 C 0.61899 0.3277 0.33068 0.0
C896 C 0.55487 0.34498 0.43409 0.0
C897 C 0.57827 0.37351 0.44958 0.0
C898 C 0.56767 0.31477 0.41502 0.0
C899 C 0.60471 0.31357 0.4109 0.0
C900 C 0.62842 0.34231 0.42648 0.0
C901 C 0.6149 0.37173 0.44587 0.0
C902 C 0.5416 0.28425 0.3992 0.0
C903 C 0.66811 0.34235 0.42221 0.0
H904 H 0.64659 0.19054 0.40294 0.0
H905 H 0.6459 0.2655 0.3027 0.0
H906 H 0.63452 0.26035 0.46474 0.0
H907 H 0.59022 0.24022 0.45642 0.0
H908 H 0.62464 0.20789 0.45972 0.0
H909 H 0.6257 0.32823 0.3007 0.0
H910 H 0.59066 0.33208 0.33441 0.0
H911 H 0.63486 0.35322 0.34189 0.0
H912 H 0.52654 0.34616 0.43697 0.0
H913 H 0.63316 0.39388 0.45752 0.0
H914 H 0.54604 0.25392 0.41011 0.0
H915 H 0.54581 0.28579 0.3688 0.0
H916 H 0.51363 0.28864 0.40576 0.0
H917 H 0.67579 0.31372 0.43414 0.0
H918 H 0.68292 0.36693 0.43586 0.0
H919 H 0.67644 0.3453 0.39253 0.0
loop_
_geom_bond_atom_site_label_1
_geom_bond_atom_site_label_2
_geom_bond_distance
_geom_bond_site_symmetry_2
_ccdc_geom_bond_type
H0 C3 0.931 . S
H1 C6 0.928 . S
H2 C8 0.930 . S
C3 H0 0.931 . S
C3 C4 1.413 . S
C3 C5 1.360 . S
C4 C3 1.413 . S
C4 C8 1.429 . S
C5 C3 1.360 . S
C5 C6 1.372 . S
C6 H1 0.928 . S
C6 C5 1.372 . S
C6 C7 1.404 . S
C7 C6 1.404 . S
C7 C8 1.391 . S
C8 H2 0.930 . S
C8 C4 1.429 . S
C8 C7 1.391 . S
H9 C12 0.931 . S
H10 C15 0.928 . S
H11 C17 0.930 . S
C12 H9 0.931 . S
C12 C13 1.413 . S
C12 C14 1.360 . S
C13 C12 1.413 . S
C13 C17 1.429 . S
C14 C12 1.360 . S
C14 C15 1.372 . S
C15 H10 0.928 . S
C15 C14 1.372 . S
C15 C16 1.404 . S
C16 C15 1.404 . S
C16 C17 1.391 . S
C17 H11 0.930 . S
C17 C13 1.429 . S
C17 C16 1.391 . S
H18 C21 0.931 . S
H19 C24 0.928 . S
H20 C26 0.930 . S
C21 H18 0.931 . S
C21 C22 1.413 . S
C21 C23 1.360 . S
C22 C21 1.413 . S
C22 C26 1.429 . S
C23 C21 1.360 . S
C23 C24 1.372 . S
C24 H19 0.928 . S
C24 C23 1.372 . S
C24 C25 1.404 . S
C25 C24 1.404 . S
C25 C26 1.391 . S
C26 H20 0.930 . S
C26 C22 1.429 . S
C26 C25 1.391 . S
H27 C30 0.931 . S
H28 C33 0.928 . S
H29 C35 0.930 . S
C30 H27 0.931 . S
C30 C31 1.413 . S
C30 C32 1.360 . S
C31 C30 1.413 . S
C31 C35 1.429 . S
C32 C30 1.360 . S
C32 C33 1.372 . S
C33 H28 0.928 . S
C33 C32 1.372 . S
C33 C34 1.404 . S
C34 C33 1.404 . S
C34 C35 1.391 . S
C35 H29 0.930 . S
C35 C31 1.429 . S
C35 C34 1.391 . S
H36 C39 0.931 . S
H37 C42 0.928 . S
H38 C44 0.930 . S
C39 H36 0.931 . S
C39 C40 1.413 . S
C39 C41 1.360 . S
C40 C39 1.413 . S
C40 C44 1.429 . S
C41 C39 1.360 . S
C41 C42 1.372 . S
C42 H37 0.928 . S
C42 C41 1.372 . S
C42 C43 1.404 . S
C43 C42 1.404 . S
C43 C44 1.391 . S
C44 H38 0.930 . S
C44 C40 1.429 . S
C44 C43 1.391 . S
H45 C48 0.931 . S
H46 C51 0.928 . S
H47 C53 0.930 . S
C48 H45 0.931 . S
C48 C49 1.413 . S
C48 C50 1.360 . S
C49 C48 1.413 . S
C49 C53 1.429 . S
C50 C48 1.360 . S
C50 C51 1.372 . S
C51 H46 0.928 . S
C51 C50 1.372 . S
C51 C52 1.404 . S
C52 C51 1.404 . S
C52 C53 1.391 . S
C53 H47 0.930 . S
C53 C49 1.429 . S
C53 C52 1.391 . S
H54 C57 0.931 . S
H55 C60 0.928 . S
H56 C62 0.930 . S
C57 H54 0.931 . S
C57 C58 1.413 . S
C57 C59 1.360 . S
C58 C57 1.413 . S
C58 C62 1.429 . S
C59 C57 1.360 . S
C59 C60 1.372 . S
C60 H55 0.928 . S
C60 C59 1.372 . S
C60 C61 1.404 . S
C61 C60 1.404 . S
C61 C62 1.391 . S
C62 H56 0.930 . S
C62 C58 1.429 . S
C62 C61 1.391 . S
H63 C66 0.931 . S
H64 C69 0.928 . S
H65 C71 0.930 . S
C66 H63 0.931 . S
C66 C67 1.413 . S
C66 C68 1.360 . S
C67 C66 1.413 . S
C67 C71 1.429 . S
C68 C66 1.360 . S
C68 C69 1.372 . S
C69 H64 0.928 . S
C69 C68 1.372 . S
C69 C70 1.404 . S
C70 C69 1.404 . S
C70 C71 1.391 . S
C71 H65 0.930 . S
C71 C67 1.429 . S
C71 C70 1.391 . S
Zn72 O78 1.969 1_545 S
Zn72 O79 1.965 1_545 S
Zn72 O83 2.024 . S
Zn72 O88 1.969 . S
Zn73 O80 1.969 . S
Zn73 O86 1.969 1_565 S
Zn73 O87 1.965 1_665 S
Zn73 O89 2.024 . S
C74 O75 1.229 . S
C74 O83 1.058 . S
O75 C74 1.229 . S
C76 O77 1.229 . S
C76 O89 1.058 . S
O77 C76 1.229 . S
O78 Zn72 1.969 1_565 S
O78 C81 1.267 . S
O79 Zn72 1.965 1_565 S
O79 C90 1.260 1_455 S
O80 Zn73 1.969 . S
O80 C90 1.258 . S
C81 O78 1.267 . S
C81 O82 1.228 . S
O82 C81 1.228 . S
O83 Zn72 2.024 . S
O83 C74 1.058 . S
C84 O85 1.228 . S
C84 O86 1.267 . S
O85 C84 1.228 . S
O86 Zn73 1.969 1_545 S
O86 C84 1.267 . S
O87 Zn73 1.965 1_445 S
O87 C91 1.260 . S
O88 Zn72 1.969 . S
O88 C91 1.258 . S
O89 Zn73 2.024 . S
O89 C76 1.058 . S
C90 O79 1.260 1_655 S
C90 O80 1.258 . S
C91 O87 1.260 . S
C91 O88 1.258 . S
Zn92 O98 1.969 . S
Zn92 O99 1.965 1_565 S
Zn92 O103 2.024 . S
Zn92 O108 1.969 1_556 S
Zn93 O100 1.969 . S
Zn93 O106 1.969 . S
Zn93 O107 1.965 1_545 S
Zn93 O109 2.024 . S
C94 O95 1.229 . S
C94 O103 1.058 . S
O95 C94 1.229 . S
C96 O97 1.229 . S
C96 O109 1.058 . S
O97 C96 1.229 . S
O98 Zn92 1.969 . S
O98 C101 1.267 . S
O99 Zn92 1.965 1_545 S
O99 C110 1.260 . S
O100 Zn93 1.969 . S
O100 C110 1.258 1_554 S
C101 O98 1.267 . S
C101 O102 1.228 . S
O102 C101 1.228 . S
O103 Zn92 2.024 . S
O103 C94 1.058 . S
C104 O105 1.228 . S
C104 O106 1.267 . S
O105 C104 1.228 . S
O106 Zn93 1.969 . S
O106 C104 1.267 . S
O107 Zn93 1.965 1_565 S
O107 C111 1.260 . S
O108 Zn92 1.969 1_554 S
O108 C111 1.258 . S
O109 Zn93 2.024 . S
O109 C96 1.058 . S
C110 O99 1.260 . S
C110 O100 1.258 1_556 S
C111 O107 1.260 . S
C111 O108 1.258 . S
Zn112 O118 1.969 . S
Zn112 O119 1.965 . S
Zn112 O123 2.024 . S
Zn112 O128 1.969 . S
Zn113 O120 1.969 . S
Zn113 O126 1.969 . S
Zn113 O127 1.965 . S
Zn113 O129 2.024 . S
C114 O115 1.229 . S
C114 O123 1.058 . S
O115 C114 1.229 . S
C116 O117 1.229 . S
C116 O129 1.058 . S
O117 C116 1.229 . S
O118 Zn112 1.969 . S
O118 C121 1.267 . S
O119 Zn112 1.965 . S
O119 C130 1.260 . S
O120 Zn113 1.969 . S
O120 C130 1.258 . S
C121 O118 1.267 . S
C121 O122 1.228 . S
O122 C121 1.228 . S
O123 Zn112 2.024 . S
O123 C114 1.058 . S
C124 O125 1.228 . S
C124 O126 1.267 . S
O125 C124 1.228 . S
O126 Zn113 1.969 . S
O126 C124 1.267 . S
O127 Zn113 1.965 . S
O127 C131 1.260 . S
O128 Zn112 1.969 . S
O128 C131 1.258 . S
O129 Zn113 2.024 . S
O129 C116 1.058 . S
C130 O119 1.260 . S
C130 O120 1.258 . S
C131 O127 1.260 . S
C131 O128 1.258 . S
Zn132 O138 1.969 . S
Zn132 O139 1.965 1_556 S
Zn132 O143 2.024 . S
Zn132 O148 1.969 1_655 S
Zn133 O140 1.969 . S
Zn133 O146 1.969 . S
Zn133 O147 1.965 1_554 S
Zn133 O149 2.024 . S
C134 O135 1.229 . S
C134 O143 1.058 . S
O135 C134 1.229 . S
C136 O137 1.229 . S
C136 O149 1.058 . S
O137 C136 1.229 . S
O138 Zn132 1.969 . S
O138 C141 1.267 . S
O139 Zn132 1.965 1_554 S
O139 C150 1.260 . S
O140 Zn133 1.969 . S
O140 C150 1.258 1_455 S
C141 O138 1.267 . S
C141 O142 1.228 . S
O142 C141 1.228 . S
O143 Zn132 2.024 . S
O143 C134 1.058 . S
C144 O145 1.228 . S
C144 O146 1.267 . S
O145 C144 1.228 . S
O146 Zn133 1.969 . S
O146 C144 1.267 . S
O147 Zn133 1.965 1_556 S
O147 C151 1.260 . S
O148 Zn132 1.969 1_455 S
O148 C151 1.258 . S
O149 Zn133 2.024 . S
O149 C136 1.058 . S
C150 O139 1.260 . S
C150 O140 1.258 1_655 S
C151 O147 1.260 . S
C151 O148 1.258 . S
C152 C153 1.391 . S
C152 C154 1.394 . S
C152 H168 0.931 . S
C153 C152 1.391 . S
C153 C157 1.376 . S
C154 C152 1.394 . S
C154 C155 1.369 . S
C154 C158 1.531 . S
C155 C154 1.369 . S
C155 C156 1.410 . S
C155 C163 1.503 . S
C156 C155 1.410 . S
C156 C157 1.392 . S
C156 C159 1.511 . S
C157 C153 1.376 . S
C157 C156 1.392 . S
C157 H169 0.929 . S
C158 C154 1.531 . S
C158 H170 0.960 . S
C158 H171 0.962 . S
C158 H172 0.960 . S
C159 C156 1.511 . S
C159 H173 0.961 . S
C159 H174 0.961 . S
C159 H175 0.961 . S
C160 C161 1.370 . S
C160 C162 1.363 . S
C160 H176 0.931 . S
C161 C160 1.370 . S
C161 C165 1.408 . S
C162 C160 1.363 . S
C162 C163 1.370 . S
C162 C166 1.524 . S
C163 C155 1.503 . S
C163 C162 1.370 . S
C163 C164 1.403 . S
C164 C163 1.403 . S
C164 C165 1.404 . S
C164 C167 1.539 . S
C165 C161 1.408 . S
C165 C164 1.404 . S
C165 H177 0.930 . S
C166 C162 1.524 . S
C166 H178 0.956 . S
C166 H179 0.961 . S
C166 H180 0.961 . S
C167 C164 1.539 . S
C167 H181 0.958 . S
C167 H182 0.961 . S
C167 H183 0.960 . S
H168 C152 0.931 . S
H169 C157 0.929 . S
H170 C158 0.960 . S
H171 C158 0.962 . S
H172 C158 0.960 . S
H173 C159 0.961 . S
H174 C159 0.961 . S
H175 C159 0.961 . S
H176 C160 0.931 . S
H177 C165 0.930 . S
H178 C166 0.956 . S
H179 C166 0.961 . S
H180 C166 0.961 . S
H181 C167 0.958 . S
H182 C167 0.961 . S
H183 C167 0.960 . S
C184 C185 1.391 . S
C184 C186 1.394 . S
C184 H200 0.931 . S
C185 C184 1.391 . S
C185 C189 1.376 . S
C186 C184 1.394 . S
C186 C187 1.369 . S
C186 C190 1.531 . S
C187 C186 1.369 . S
C187 C188 1.410 . S
C187 C195 1.503 . S
C188 C187 1.410 . S
C188 C189 1.392 . S
C188 C191 1.511 . S
C189 C185 1.376 . S
C189 C188 1.392 . S
C189 H201 0.929 . S
C190 C186 1.531 . S
C190 H202 0.960 . S
C190 H203 0.962 . S
C190 H204 0.960 . S
C191 C188 1.511 . S
C191 H205 0.961 . S
C191 H206 0.961 . S
C191 H207 0.961 . S
C192 C193 1.370 . S
C192 C194 1.363 . S
C192 H208 0.931 . S
C193 C192 1.370 . S
C193 C197 1.408 . S
C194 C192 1.363 . S
C194 C195 1.370 . S
C194 C198 1.524 . S
C195 C187 1.503 . S
C195 C194 1.370 . S
C195 C196 1.403 . S
C196 C195 1.403 . S
C196 C197 1.404 . S
C196 C199 1.539 . S
C197 C193 1.408 . S
C197 C196 1.404 . S
C197 H209 0.930 1_565 S
C198 C194 1.524 . S
C198 H210 0.956 . S
C198 H211 0.961 . S
C198 H212 0.961 . S
C199 C196 1.539 . S
C199 H213 0.958 1_565 S
C199 H214 0.961 1_565 S
C199 H215 0.960 . S
H200 C184 0.931 . S
H201 C189 0.929 . S
H202 C190 0.960 . S
H203 C190 0.962 . S
H204 C190 0.960 . S
H205 C191 0.961 . S
H206 C191 0.961 . S
H207 C191 0.961 . S
H208 C192 0.931 . S
H209 C197 0.930 1_545 S
H210 C198 0.956 . S
H211 C198 0.961 . S
H212 C198 0.961 . S
H213 C199 0.958 1_545 S
H214 C199 0.961 1_545 S
H215 C199 0.960 . S
C216 C217 1.391 . S
C216 C218 1.394 . S
C216 H232 0.931 . S
C217 C216 1.391 . S
C217 C221 1.376 . S
C218 C216 1.394 . S
C218 C219 1.369 . S
C218 C222 1.531 . S
C219 C218 1.369 . S
C219 C220 1.410 . S
C219 C227 1.503 . S
C220 C219 1.410 . S
C220 C221 1.392 . S
C220 C223 1.511 . S
C221 C217 1.376 . S
C221 C220 1.392 . S
C221 H233 0.929 . S
C222 C218 1.531 . S
C222 H234 0.960 . S
C222 H235 0.962 . S
C222 H236 0.960 . S
C223 C220 1.511 . S
C223 H237 0.961 . S
C223 H238 0.961 . S
C223 H239 0.961 . S
C224 C225 1.370 . S
C224 C226 1.363 . S
C224 H240 0.931 . S
C225 C224 1.370 . S
C225 C229 1.408 . S
C226 C224 1.363 . S
C226 C227 1.370 . S
C226 C230 1.524 . S
C227 C219 1.503 . S
C227 C226 1.370 . S
C227 C228 1.403 . S
C228 C227 1.403 . S
C228 C229 1.404 . S
C228 C231 1.539 . S
C229 C225 1.408 . S
C229 C228 1.404 . S
C229 H241 0.930 . S
C230 C226 1.524 . S
C230 H242 0.956 . S
C230 H243 0.961 . S
C230 H244 0.961 . S
C231 C228 1.539 . S
C231 H245 0.958 . S
C231 H246 0.961 . S
C231 H247 0.960 . S
H232 C216 0.931 . S
H233 C221 0.929 . S
H234 C222 0.960 . S
H235 C222 0.962 . S
H236 C222 0.960 . S
H237 C223 0.961 . S
H238 C223 0.961 . S
H239 C223 0.961 . S
H240 C224 0.931 . S
H241 C229 0.930 . S
H242 C230 0.956 . S
H243 C230 0.961 . S
H244 C230 0.961 . S
H245 C231 0.958 . S
H246 C231 0.961 . S
H247 C231 0.960 . S
C248 C249 1.391 . S
C248 C250 1.394 . S
C248 H264 0.931 . S
C249 C248 1.391 . S
C249 C253 1.376 . S
C250 C248 1.394 . S
C250 C251 1.369 . S
C250 C254 1.531 . S
C251 C250 1.369 . S
C251 C252 1.410 . S
C251 C259 1.503 . S
C252 C251 1.410 . S
C252 C253 1.392 . S
C252 C255 1.511 . S
C253 C249 1.376 . S
C253 C252 1.392 . S
C253 H265 0.929 . S
C254 C250 1.531 . S
C254 H266 0.960 . S
C254 H267 0.962 . S
C254 H268 0.960 . S
C255 C252 1.511 . S
C255 H269 0.961 . S
C255 H270 0.961 . S
C255 H271 0.961 . S
C256 C257 1.370 . S
C256 C258 1.363 . S
C256 H272 0.931 . S
C257 C256 1.370 . S
C257 C261 1.408 . S
C258 C256 1.363 . S
C258 C259 1.370 . S
C258 C262 1.524 . S
C259 C251 1.503 . S
C259 C258 1.370 . S
C259 C260 1.403 . S
C260 C259 1.403 . S
C260 C261 1.404 . S
C260 C263 1.539 . S
C261 C257 1.408 . S
C261 C260 1.404 . S
C261 H273 0.930 . S
C262 C258 1.524 . S
C262 H274 0.956 . S
C262 H275 0.961 . S
C262 H276 0.961 . S
C263 C260 1.539 . S
C263 H277 0.958 . S
C263 H278 0.961 . S
C263 H279 0.960 . S
H264 C248 0.931 . S
H265 C253 0.929 . S
H266 C254 0.960 . S
H267 C254 0.962 . S
H268 C254 0.960 . S
H269 C255 0.961 . S
H270 C255 0.961 . S
H271 C255 0.961 . S
H272 C256 0.931 . S
H273 C261 0.930 . S
H274 C262 0.956 . S
H275 C262 0.961 . S
H276 C262 0.961 . S
H277 C263 0.958 . S
H278 C263 0.961 . S
H279 C263 0.960 . S
C280 C281 1.391 . S
C280 C282 1.394 . S
C280 H296 0.931 . S
C281 C280 1.391 . S
C281 C285 1.376 . S
C282 C280 1.394 . S
C282 C283 1.369 . S
C282 C286 1.531 . S
C283 C282 1.369 . S
C283 C284 1.410 . S
C283 C291 1.503 . S
C284 C283 1.410 . S
C284 C285 1.392 . S
C284 C287 1.511 . S
C285 C281 1.376 . S
C285 C284 1.392 . S
C285 H297 0.929 . S
C286 C282 1.531 . S
C286 H298 0.960 . S
C286 H299 0.962 . S
C286 H300 0.960 . S
C287 C284 1.511 . S
C287 H301 0.961 . S
C287 H302 0.961 . S
C287 H303 0.961 . S
C288 C289 1.370 . S
C288 C290 1.363 . S
C288 H304 0.931 . S
C289 C288 1.370 . S
C289 C293 1.408 . S
C290 C288 1.363 . S
C290 C291 1.370 . S
C290 C294 1.524 . S
C291 C283 1.503 . S
C291 C290 1.370 . S
C291 C292 1.403 . S
C292 C291 1.403 . S
C292 C293 1.404 . S
C292 C295 1.539 . S
C293 C289 1.408 . S
C293 C292 1.404 . S
C293 H305 0.930 . S
C294 C290 1.524 . S
C294 H306 0.956 . S
C294 H307 0.961 . S
C294 H308 0.961 . S
C295 C292 1.539 . S
C295 H309 0.958 . S
C295 H310 0.961 . S
C295 H311 0.960 . S
H296 C280 0.931 . S
H297 C285 0.929 . S
H298 C286 0.960 . S
H299 C286 0.962 . S
H300 C286 0.960 . S
H301 C287 0.961 . S
H302 C287 0.961 . S
H303 C287 0.961 . S
H304 C288 0.931 . S
H305 C293 0.930 . S
H306 C294 0.956 . S
H307 C294 0.961 . S
H308 C294 0.961 . S
H309 C295 0.958 . S
H310 C295 0.961 . S
H311 C295 0.960 . S
C312 C313 1.391 . S
C312 C314 1.394 . S
C312 H328 0.931 . S
C313 C312 1.391 . S
C313 C317 1.376 . S
C314 C312 1.394 . S
C314 C315 1.369 . S
C314 C318 1.531 . S
C315 C314 1.369 . S
C315 C316 1.410 . S
C315 C323 1.503 . S
C316 C315 1.410 . S
C316 C317 1.392 . S
C316 C319 1.511 . S
C317 C313 1.376 . S
C317 C316 1.392 . S
C317 H329 0.929 . S
C318 C314 1.531 . S
C318 H330 0.960 . S
C318 H331 0.962 . S
C318 H332 0.960 . S
C319 C316 1.511 . S
C319 H333 0.961 . S
C319 H334 0.961 . S
C319 H335 0.961 . S
C320 C321 1.370 . S
C320 C322 1.363 . S
C320 H336 0.931 . S
C321 C320 1.370 . S
C321 C325 1.408 . S
C322 C320 1.363 . S
C322 C323 1.370 . S
C322 C326 1.524 . S
C323 C315 1.503 . S
C323 C322 1.370 . S
C323 C324 1.403 . S
C324 C323 1.403 . S
C324 C325 1.404 . S
C324 C327 1.539 . S
C325 C321 1.408 . S
C325 C324 1.404 . S
C325 H337 0.930 . S
C326 C322 1.524 . S
C326 H338 0.956 . S
C326 H339 0.961 . S
C326 H340 0.967 . S
C327 C324 1.539 . S
C327 H341 0.958 . S
C327 H342 0.961 . S
C327 H343 0.960 . S
H328 C312 0.931 . S
H329 C317 0.929 . S
H330 C318 0.960 . S
H331 C318 0.962 . S
H332 C318 0.960 . S
H333 C319 0.961 . S
H334 C319 0.961 . S
H335 C319 0.961 . S
H336 C320 0.931 . S
H337 C325 0.930 . S
H338 C326 0.956 . S
H339 C326 0.961 . S
H340 C326 0.967 . S
H341 C327 0.958 . S
H342 C327 0.961 . S
H343 C327 0.960 . S
C344 C345 1.391 . S
C344 C346 1.394 . S
C344 H360 0.931 . S
C345 C344 1.391 . S
C345 C349 1.376 . S
C346 C344 1.394 . S
C346 C347 1.369 . S
C346 C350 1.531 . S
C347 C346 1.369 . S
C347 C348 1.410 . S
C347 C355 1.503 . S
C348 C347 1.410 . S
C348 C349 1.392 . S
C348 C351 1.511 . S
C349 C345 1.376 . S
C349 C348 1.392 . S
C349 H361 0.929 . S
C350 C346 1.531 . S
C350 H362 0.960 . S
C350 H363 0.962 . S
C350 H364 0.960 . S
C351 C348 1.511 . S
C351 H365 0.961 . S
C351 H366 0.961 . S
C351 H367 0.961 . S
C352 C353 1.370 . S
C352 C354 1.363 . S
C352 H368 0.931 . S
C353 C352 1.370 . S
C353 C357 1.408 . S
C354 C352 1.363 . S
C354 C355 1.370 . S
C354 C358 1.524 . S
C355 C347 1.503 . S
C355 C354 1.370 . S
C355 C356 1.403 . S
C356 C355 1.403 . S
C356 C357 1.404 . S
C356 C359 1.539 . S
C357 C353 1.408 . S
C357 C356 1.404 . S
C357 H369 0.930 . S
C358 C354 1.524 . S
C358 H370 0.956 . S
C358 H371 0.961 . S
C358 H372 0.961 . S
C359 C356 1.539 . S
C359 H373 0.958 . S
C359 H374 0.961 . S
C359 H375 0.960 . S
H360 C344 0.931 . S
H361 C349 0.929 . S
H362 C350 0.960 . S
H363 C350 0.962 . S
H364 C350 0.960 . S
H365 C351 0.961 . S
H366 C351 0.961 . S
H367 C351 0.961 . S
H368 C352 0.931 . S
H369 C357 0.930 . S
H370 C358 0.956 . S
H371 C358 0.961 . S
H372 C358 0.961 . S
H373 C359 0.958 . S
H374 C359 0.961 . S
H375 C359 0.960 . S
C376 C377 1.391 . S
C376 C378 1.394 . S
C376 H392 0.931 . S
C377 C376 1.391 . S
C377 C381 1.376 . S
C378 C376 1.394 . S
C378 C379 1.369 . S
C378 C382 1.531 . S
C379 C378 1.369 . S
C379 C380 1.410 . S
C379 C387 1.503 . S
C380 C379 1.410 . S
C380 C381 1.392 . S
C380 C383 1.511 . S
C381 C377 1.376 . S
C381 C380 1.392 . S
C381 H393 0.929 . S
C382 C378 1.531 . S
C382 H394 0.960 . S
C382 H395 0.962 . S
C382 H396 0.960 . S
C383 C380 1.511 . S
C383 H397 0.961 . S
C383 H398 0.961 . S
C383 H399 0.961 . S
C384 C385 1.370 . S
C384 C386 1.363 . S
C384 H400 0.931 . S
C385 C384 1.370 . S
C385 C389 1.408 . S
C386 C384 1.363 . S
C386 C387 1.370 . S
C386 C390 1.524 . S
C387 C379 1.503 . S
C387 C386 1.370 . S
C387 C388 1.403 . S
C388 C387 1.403 . S
C388 C389 1.404 . S
C388 C391 1.539 . S
C389 C385 1.408 . S
C389 C388 1.404 . S
C389 H401 0.930 . S
C390 C386 1.524 . S
C390 H402 0.956 . S
C390 H403 0.961 . S
C390 H404 0.961 . S
C391 C388 1.539 . S
C391 H405 0.958 . S
C391 H406 0.961 . S
C391 H407 0.960 . S
H392 C376 0.931 . S
H393 C381 0.929 . S
H394 C382 0.960 . S
H395 C382 0.962 . S
H396 C382 0.960 . S
H397 C383 0.961 . S
H398 C383 0.961 . S
H399 C383 0.961 . S
H400 C384 0.931 . S
H401 C389 0.930 . S
H402 C390 0.956 . S
H403 C390 0.961 . S
H404 C390 0.961 . S
H405 C391 0.958 . S
H406 C391 0.961 . S
H407 C391 0.960 . S
C408 C409 1.391 . S
C408 C410 1.394 . S
C408 H424 0.931 . S
C409 C408 1.391 . S
C409 C413 1.376 . S
C410 C408 1.394 . S
C410 C411 1.369 . S
C410 C414 1.531 . S
C411 C410 1.369 . S
C411 C412 1.410 . S
C411 C419 1.503 . S
C412 C411 1.410 . S
C412 C413 1.392 . S
C412 C415 1.511 . S
C413 C409 1.376 . S
C413 C412 1.392 . S
C413 H425 0.929 . S
C414 C410 1.531 . S
C414 H426 0.960 . S
C414 H427 0.962 . S
C414 H428 0.960 . S
C415 C412 1.511 . S
C415 H429 0.961 . S
C415 H430 0.961 . S
C415 H431 0.961 . S
C416 C417 1.370 . S
C416 C418 1.363 . S
C416 H432 0.931 . S
C417 C416 1.370 . S
C417 C421 1.408 . S
C418 C416 1.363 . S
C418 C419 1.370 . S
C418 C422 1.524 . S
C419 C411 1.503 . S
C419 C418 1.370 . S
C419 C420 1.403 . S
C420 C419 1.403 . S
C420 C421 1.404 . S
C420 C423 1.539 . S
C421 C417 1.408 . S
C421 C420 1.404 . S
C421 H433 0.930 . S
C422 C418 1.524 . S
C422 H434 0.956 . S
C422 H435 0.961 . S
C422 H436 0.961 . S
C423 C420 1.539 . S
C423 H437 0.958 . S
C423 H438 0.961 . S
C423 H439 0.960 . S
H424 C408 0.931 . S
H425 C413 0.929 . S
H426 C414 0.960 . S
H427 C414 0.962 . S
H428 C414 0.960 . S
H429 C415 0.961 . S
H430 C415 0.961 . S
H431 C415 0.961 . S
H432 C416 0.931 . S
H433 C421 0.930 . S
H434 C422 0.956 . S
H435 C422 0.961 . S
H436 C422 0.961 . S
H437 C423 0.958 . S
H438 C423 0.961 . S
H439 C423 0.960 . S
C440 C441 1.391 . S
C440 C442 1.394 . S
C440 H456 0.931 . S
C441 C440 1.391 . S
C441 C445 1.376 . S
C442 C440 1.394 . S
C442 C443 1.369 . S
C442 C446 1.531 . S
C443 C442 1.369 . S
C443 C444 1.410 . S
C443 C451 1.503 . S
C444 C443 1.410 . S
C444 C445 1.392 . S
C444 C447 1.511 . S
C445 C441 1.376 . S
C445 C444 1.392 . S
C445 H457 0.929 . S
C446 C442 1.531 . S
C446 H458 0.960 . S
C446 H459 0.962 . S
C446 H460 0.960 . S
C447 C444 1.511 . S
C447 H461 0.961 . S
C447 H462 0.961 . S
C447 H463 0.961 . S
C448 C449 1.370 . S
C448 C450 1.363 . S
C448 H464 0.931 . S
C449 C448 1.370 . S
C449 C453 1.408 . S
C450 C448 1.363 . S
C450 C451 1.370 . S
C450 C454 1.524 . S
C451 C443 1.503 . S
C451 C450 1.370 . S
C451 C452 1.403 . S
C452 C451 1.403 . S
C452 C453 1.404 . S
C452 C455 1.539 . S
C453 C449 1.408 . S
C453 C452 1.404 . S
C453 H465 0.930 . S
C454 C450 1.524 . S
C454 H466 0.956 . S
C454 H467 0.961 . S
C454 H468 0.961 . S
C455 C452 1.539 . S
C455 H469 0.958 . S
C455 H470 0.961 . S
C455 H471 0.960 . S
H456 C440 0.931 . S
H457 C445 0.929 . S
H458 C446 0.960 . S
H459 C446 0.962 . S
H460 C446 0.960 . S
H461 C447 0.961 . S
H462 C447 0.961 . S
H463 C447 0.961 . S
H464 C448 0.931 . S
H465 C453 0.930 . S
H466 C454 0.956 . S
H467 C454 0.961 . S
H468 C454 0.961 . S
H469 C455 0.958 . S
H470 C455 0.961 . S
H471 C455 0.960 . S
C472 C473 1.391 . S
C472 C474 1.394 . S
C472 H488 0.931 . S
C473 C472 1.391 . S
C473 C477 1.376 . S
C474 C472 1.394 . S
C474 C475 1.369 . S
C474 C478 1.531 . S
C475 C474 1.369 . S
C475 C476 1.410 . S
C475 C483 1.503 . S
C476 C475 1.410 . S
C476 C477 1.392 . S
C476 C479 1.511 . S
C477 C473 1.376 . S
C477 C476 1.392 . S
C477 H489 0.929 . S
C478 C474 1.531 . S
C478 H490 0.960 . S
C478 H491 0.962 . S
C478 H492 0.960 . S
C479 C476 1.511 . S
C479 H493 0.961 . S
C479 H494 0.961 . S
C479 H495 0.961 . S
C480 C481 1.370 . S
C480 C482 1.363 . S
C480 H496 0.931 . S
C481 C480 1.370 . S
C481 C485 1.408 . S
C482 C480 1.363 . S
C482 C483 1.370 . S
C482 C486 1.524 . S
C483 C475 1.503 . S
C483 C482 1.370 . S
C483 C484 1.403 . S
C484 C483 1.403 . S
C484 C485 1.404 . S
C484 C487 1.539 . S
C485 C481 1.408 . S
C485 C484 1.404 . S
C485 H497 0.930 . S
C486 C482 1.524 . S
C486 H498 0.956 . S
C486 H499 0.961 . S
C486 H500 0.961 . S
C487 C484 1.539 . S
C487 H501 0.958 . S
C487 H502 0.961 . S
C487 H503 0.960 . S
H488 C472 0.931 . S
H489 C477 0.929 . S
H490 C478 0.960 . S
H491 C478 0.962 . S
H492 C478 0.960 . S
H493 C479 0.961 . S
H494 C479 0.961 . S
H495 C479 0.961 . S
H496 C480 0.931 . S
H497 C485 0.930 . S
H498 C486 0.956 . S
H499 C486 0.961 . S
H500 C486 0.961 . S
H501 C487 0.958 . S
H502 C487 0.961 . S
H503 C487 0.960 . S
C504 C505 1.391 . S
C504 C506 1.394 . S
C504 H520 0.931 . S
C505 C504 1.391 . S
C505 C509 1.376 . S
C506 C504 1.394 . S
C506 C507 1.369 . S
C506 C510 1.531 . S
C507 C506 1.369 . S
C507 C508 1.410 . S
C507 C515 1.503 . S
C508 C507 1.410 . S
C508 C509 1.392 . S
C508 C511 1.511 . S
C509 C505 1.376 . S
C509 C508 1.392 . S
C509 H521 0.929 . S
C510 C506 1.531 . S
C510 H522 0.960 . S
C510 H523 0.962 . S
C510 H524 0.960 . S
C511 C508 1.511 . S
C511 H525 0.961 . S
C511 H526 0.961 . S
C511 H527 0.961 . S
C512 C513 1.370 . S
C512 C514 1.363 . S
C512 H528 0.931 . S
C513 C512 1.370 . S
C513 C517 1.408 . S
C514 C512 1.363 . S
C514 C515 1.370 . S
C514 C518 1.524 . S
C515 C507 1.503 . S
C515 C514 1.370 . S
C515 C516 1.403 . S
C516 C515 1.403 . S
C516 C517 1.404 . S
C516 C519 1.539 . S
C517 C513 1.408 . S
C517 C516 1.404 . S
C517 H529 0.930 . S
C518 C514 1.524 . S
C518 H530 0.956 . S
C518 H531 0.961 . S
C518 H532 0.961 . S
C519 C516 1.539 . S
C519 H533 0.958 . S
C519 H534 0.961 . S
C519 H535 0.960 . S
H520 C504 0.931 . S
H521 C509 0.929 . S
H522 C510 0.960 . S
H523 C510 0.962 . S
H524 C510 0.960 . S
H525 C511 0.961 . S
H526 C511 0.961 . S
H527 C511 0.961 . S
H528 C512 0.931 . S
H529 C517 0.930 . S
H530 C518 0.956 . S
H531 C518 0.961 . S
H532 C518 0.961 . S
H533 C519 0.958 . S
H534 C519 0.961 . S
H535 C519 0.960 . S
C536 C537 1.391 . S
C536 C538 1.394 . S
C536 H552 0.931 . S
C537 C536 1.391 . S
C537 C541 1.376 . S
C538 C536 1.394 . S
C538 C539 1.369 . S
C538 C542 1.531 . S
C539 C538 1.369 . S
C539 C540 1.410 . S
C539 C547 1.503 . S
C540 C539 1.410 . S
C540 C541 1.392 . S
C540 C543 1.511 . S
C541 C537 1.376 . S
C541 C540 1.392 . S
C541 H553 0.929 . S
C542 C538 1.531 . S
C542 H554 0.960 . S
C542 H555 0.962 . S
C542 H556 0.960 . S
C543 C540 1.511 . S
C543 H557 0.961 . S
C543 H558 0.961 . S
C543 H559 0.961 . S
C544 C545 1.370 . S
C544 C546 1.363 . S
C544 H560 0.931 . S
C545 C544 1.370 . S
C545 C549 1.408 . S
C546 C544 1.363 . S
C546 C547 1.370 . S
C546 C550 1.524 . S
C547 C539 1.503 . S
C547 C546 1.370 . S
C547 C548 1.403 . S
C548 C547 1.403 . S
C548 C549 1.404 . S
C548 C551 1.539 . S
C549 C545 1.408 . S
C549 C548 1.404 . S
C549 H561 0.930 1_655 S
C550 C546 1.524 . S
C550 H562 0.956 . S
C550 H563 0.961 . S
C550 H564 0.961 . S
C551 C548 1.539 . S
C551 H565 0.958 . S
C551 H566 0.961 . S
C551 H567 0.960 . S
H552 C536 0.931 . S
H553 C541 0.929 . S
H554 C542 0.960 . S
H555 C542 0.962 . S
H556 C542 0.960 . S
H557 C543 0.961 . S
H558 C543 0.961 . S
H559 C543 0.961 . S
H560 C544 0.931 . S
H561 C549 0.930 1_455 S
H562 C550 0.956 . S
H563 C550 0.961 . S
H564 C550 0.961 . S
H565 C551 0.958 . S
H566 C551 0.961 . S
H567 C551 0.960 . S
C568 C569 1.391 . S
C568 C570 1.394 . S
C568 H584 0.931 . S
C569 C568 1.391 . S
C569 C573 1.376 . S
C570 C568 1.394 . S
C570 C571 1.369 . S
C570 C574 1.531 . S
C571 C570 1.369 . S
C571 C572 1.410 . S
C571 C579 1.503 . S
C572 C571 1.410 . S
C572 C573 1.392 . S
C572 C575 1.511 . S
C573 C569 1.376 . S
C573 C572 1.392 . S
C573 H585 0.929 . S
C574 C570 1.531 . S
C574 H586 0.960 . S
C574 H587 0.962 . S
C574 H588 0.960 . S
C575 C572 1.511 . S
C575 H589 0.961 . S
C575 H590 0.961 . S
C575 H591 0.961 . S
C576 C577 1.370 . S
C576 C578 1.363 . S
C576 H592 0.931 . S
C577 C576 1.370 . S
C577 C581 1.408 . S
C578 C576 1.363 . S
C578 C579 1.370 . S
C578 C582 1.524 . S
C579 C571 1.503 . S
C579 C578 1.370 . S
C579 C580 1.403 . S
C580 C579 1.403 . S
C580 C581 1.404 . S
C580 C583 1.539 . S
C581 C577 1.408 . S
C581 C580 1.404 . S
C581 H593 0.930 . S
C582 C578 1.524 . S
C582 H594 0.956 . S
C582 H595 0.961 . S
C582 H596 0.961 . S
C583 C580 1.539 . S
C583 H597 0.958 . S
C583 H598 0.961 . S
C583 H599 0.960 . S
H584 C568 0.931 . S
H585 C573 0.929 . S
H586 C574 0.960 . S
H587 C574 0.962 . S
H588 C574 0.960 . S
H589 C575 0.961 . S
H590 C575 0.961 . S
H591 C575 0.961 . S
H592 C576 0.931 . S
H593 C581 0.930 . S
H594 C582 0.956 . S
H595 C582 0.961 . S
H596 C582 0.961 . S
H597 C583 0.958 . S
H598 C583 0.961 . S
H599 C583 0.960 . S
C600 C601 1.391 . S
C600 C602 1.394 . S
C600 H616 0.931 . S
C601 C600 1.391 . S
C601 C605 1.376 . S
C602 C600 1.394 . S
C602 C603 1.369 . S
C602 C606 1.531 . S
C603 C602 1.369 . S
C603 C604 1.410 . S
C603 C611 1.503 . S
C604 C603 1.410 . S
C604 C605 1.392 . S
C604 C607 1.511 . S
C605 C601 1.376 . S
C605 C604 1.392 . S
C605 H617 0.929 . S
C606 C602 1.531 . S
C606 H618 0.960 . S
C606 H619 0.962 . S
C606 H620 0.960 . S
C607 C604 1.511 . S
C607 H621 0.961 . S
C607 H622 0.961 . S
C607 H623 0.961 . S
C608 C609 1.370 . S
C608 C610 1.363 . S
C608 H624 0.931 . S
C609 C608 1.370 . S
C609 C613 1.408 . S
C610 C608 1.363 . S
C610 C611 1.370 . S
C610 C614 1.524 . S
C611 C603 1.503 . S
C611 C610 1.370 . S
C611 C612 1.403 . S
C612 C611 1.403 . S
C612 C613 1.404 . S
C612 C615 1.539 . S
C613 C609 1.408 . S
C613 C612 1.404 . S
C613 H625 0.930 . S
C614 C610 1.524 . S
C614 H626 0.956 . S
C614 H627 0.961 . S
C614 H628 0.961 . S
C615 C612 1.539 . S
C615 H629 0.958 . S
C615 H630 0.961 . S
C615 H631 0.960 . S
H616 C600 0.931 . S
H617 C605 0.929 . S
H618 C606 0.960 . S
H619 C606 0.962 . S
H620 C606 0.960 . S
H621 C607 0.961 . S
H622 C607 0.961 . S
H623 C607 0.961 . S
H624 C608 0.931 . S
H625 C613 0.930 . S
H626 C614 0.956 . S
H627 C614 0.961 . S
H628 C614 0.961 . S
H629 C615 0.958 . S
H630 C615 0.961 . S
H631 C615 0.960 . S
C632 C633 1.391 . S
C632 C634 1.394 . S
C632 H648 0.931 . S
C633 C632 1.391 . S
C633 C637 1.376 . S
C634 C632 1.394 . S
C634 C635 1.369 . S
C634 C638 1.531 . S
C635 C634 1.369 . S
C635 C636 1.410 . S
C635 C643 1.503 . S
C636 C635 1.410 . S
C636 C637 1.392 . S
C636 C639 1.511 . S
C637 C633 1.376 . S
C637 C636 1.392 . S
C637 H649 0.929 . S
C638 C634 1.531 . S
C638 H650 0.960 . S
C638 H651 0.962 . S
C638 H652 0.960 . S
C639 C636 1.511 . S
C639 H653 0.961 . S
C639 H654 0.961 . S
C639 H655 0.961 . S
C640 C641 1.370 . S
C640 C642 1.363 . S
C640 H656 0.931 . S
C641 C640 1.370 . S
C641 C645 1.408 . S
C642 C640 1.363 . S
C642 C643 1.370 . S
C642 C646 1.524 . S
C643 C635 1.503 . S
C643 C642 1.370 . S
C643 C644 1.403 . S
C644 C643 1.403 . S
C644 C645 1.404 . S
C644 C647 1.539 . S
C645 C641 1.408 . S
C645 C644 1.404 . S
C645 H657 0.930 . S
C646 C642 1.524 . S
C646 H658 0.956 . S
C646 H659 0.961 . S
C646 H660 0.961 . S
C647 C644 1.539 . S
C647 H661 0.958 . S
C647 H662 0.961 . S
C647 H663 0.960 . S
H648 C632 0.931 . S
H649 C637 0.929 . S
H650 C638 0.960 . S
H651 C638 0.962 . S
H652 C638 0.960 . S
H653 C639 0.961 . S
H654 C639 0.961 . S
H655 C639 0.961 . S
H656 C640 0.931 . S
H657 C645 0.930 . S
H658 C646 0.956 . S
H659 C646 0.961 . S
H660 C646 0.961 . S
H661 C647 0.958 . S
H662 C647 0.961 . S
H663 C647 0.960 . S
C664 C665 1.391 . S
C664 C666 1.394 . S
C664 H680 0.931 . S
C665 C664 1.391 . S
C665 C669 1.376 . S
C666 C664 1.394 . S
C666 C667 1.369 . S
C666 C670 1.531 . S
C667 C666 1.369 . S
C667 C668 1.410 . S
C667 C675 1.503 . S
C668 C667 1.410 . S
C668 C669 1.392 . S
C668 C671 1.511 . S
C669 C665 1.376 . S
C669 C668 1.392 . S
C669 H681 0.929 . S
C670 C666 1.531 . S
C670 H682 0.960 . S
C670 H683 0.962 . S
C670 H684 0.960 . S
C671 C668 1.511 . S
C671 H685 0.961 . S
C671 H686 0.961 . S
C671 H687 0.961 . S
C672 C673 1.370 . S
C672 C674 1.363 . S
C672 H688 0.931 . S
C673 C672 1.370 . S
C673 C677 1.408 . S
C674 C672 1.363 . S
C674 C675 1.370 . S
C674 C678 1.524 . S
C675 C667 1.503 . S
C675 C674 1.370 . S
C675 C676 1.403 . S
C676 C675 1.403 . S
C676 C677 1.404 . S
C676 C679 1.539 . S
C677 C673 1.408 . S
C677 C676 1.404 . S
C677 H689 0.930 . S
C678 C674 1.524 . S
C678 H690 0.956 . S
C678 H691 0.961 . S
C678 H692 0.961 . S
C679 C676 1.539 . S
C679 H693 0.958 . S
C679 H694 0.961 . S
C679 H695 0.960 . S
H680 C664 0.931 . S
H681 C669 0.929 . S
H682 C670 0.960 . S
H683 C670 0.962 . S
H684 C670 0.960 . S
H685 C671 0.961 . S
H686 C671 0.961 . S
H687 C671 0.961 . S
H688 C672 0.931 . S
H689 C677 0.930 . S
H690 C678 0.956 . S
H691 C678 0.961 . S
H692 C678 0.961 . S
H693 C679 0.958 . S
H694 C679 0.961 . S
H695 C679 0.960 . S
C696 C697 1.391 . S
C696 C698 1.394 . S
C696 H712 0.931 . S
C697 C696 1.391 . S
C697 C701 1.376 . S
C698 C696 1.394 . S
C698 C699 1.369 . S
C698 C702 1.531 . S
C699 C698 1.369 . S
C699 C700 1.410 . S
C699 C707 1.503 . S
C700 C699 1.410 . S
C700 C701 1.392 . S
C700 C703 1.511 . S
C701 C697 1.376 . S
C701 C700 1.392 . S
C701 H713 0.929 . S
C702 C698 1.531 . S
C702 H714 0.960 . S
C702 H715 0.962 . S
C702 H716 0.960 . S
C703 C700 1.511 . S
C703 H717 0.961 . S
C703 H718 0.961 . S
C703 H719 0.961 . S
C704 C705 1.370 . S
C704 C706 1.363 . S
C704 H720 0.931 . S
C705 C704 1.370 . S
C705 C709 1.408 . S
C706 C704 1.363 . S
C706 C707 1.370 . S
C706 C710 1.524 . S
C707 C699 1.503 . S
C707 C706 1.370 . S
C707 C708 1.403 . S
C708 C707 1.403 . S
C708 C709 1.404 . S
C708 C711 1.539 . S
C709 C705 1.408 . S
C709 C708 1.404 . S
C709 H721 0.930 . S
C710 C706 1.524 . S
C710 H722 0.956 . S
C710 H723 0.961 . S
C710 H724 0.961 . S
C711 C708 1.539 . S
C711 H725 0.958 . S
C711 H726 0.961 . S
C711 H727 0.960 . S
H712 C696 0.931 . S
H713 C701 0.929 . S
H714 C702 0.960 . S
H715 C702 0.962 . S
H716 C702 0.960 . S
H717 C703 0.961 . S
H718 C703 0.961 . S
H719 C703 0.961 . S
H720 C704 0.931 . S
H721 C709 0.930 . S
H722 C710 0.956 . S
H723 C710 0.961 . S
H724 C710 0.961 . S
H725 C711 0.958 . S
H726 C711 0.961 . S
H727 C711 0.960 . S
C728 C729 1.391 . S
C728 C730 1.394 . S
C728 H744 0.931 . S
C729 C728 1.391 . S
C729 C733 1.376 . S
C730 C728 1.394 . S
C730 C731 1.369 . S
C730 C734 1.531 . S
C731 C730 1.369 . S
C731 C732 1.410 . S
C731 C739 1.503 . S
C732 C731 1.410 . S
C732 C733 1.392 . S
C732 C735 1.511 . S
C733 C729 1.376 . S
C733 C732 1.392 . S
C733 H745 0.929 . S
C734 C730 1.531 . S
C734 H746 0.960 . S
C734 H747 0.962 . S
C734 H748 0.960 . S
C735 C732 1.511 . S
C735 H749 0.961 . S
C735 H750 0.961 . S
C735 H751 0.961 . S
C736 C737 1.370 . S
C736 C738 1.363 . S
C736 H752 0.931 . S
C737 C736 1.370 . S
C737 C741 1.408 . S
C738 C736 1.363 . S
C738 C739 1.370 . S
C738 C742 1.524 . S
C739 C731 1.503 . S
C739 C738 1.370 . S
C739 C740 1.403 . S
C740 C739 1.403 . S
C740 C741 1.404 . S
C740 C743 1.539 . S
C741 C737 1.408 . S
C741 C740 1.404 . S
C741 H753 0.930 . S
C742 C738 1.524 . S
C742 H754 0.956 . S
C742 H755 0.961 . S
C742 H756 0.961 . S
C743 C740 1.539 . S
C743 H757 0.958 . S
C743 H758 0.961 . S
C743 H759 0.960 . S
H744 C728 0.931 . S
H745 C733 0.929 . S
H746 C734 0.960 . S
H747 C734 0.962 . S
H748 C734 0.960 . S
H749 C735 0.961 . S
H750 C735 0.961 . S
H751 C735 0.961 . S
H752 C736 0.931 . S
H753 C741 0.930 . S
H754 C742 0.956 . S
H755 C742 0.961 . S
H756 C742 0.961 . S
H757 C743 0.958 . S
H758 C743 0.961 . S
H759 C743 0.960 . S
C760 C761 1.391 . S
C760 C762 1.394 . S
C760 H776 0.931 . S
C761 C760 1.391 . S
C761 C765 1.376 . S
C762 C760 1.394 . S
C762 C763 1.369 . S
C762 C766 1.531 . S
C763 C762 1.369 . S
C763 C764 1.410 . S
C763 C771 1.503 . S
C764 C763 1.410 . S
C764 C765 1.392 . S
C764 C767 1.511 . S
C765 C761 1.376 . S
C765 C764 1.392 . S
C765 H777 0.929 . S
C766 C762 1.531 . S
C766 H778 0.960 . S
C766 H779 0.962 . S
C766 H780 0.960 . S
C767 C764 1.511 . S
C767 H781 0.961 . S
C767 H782 0.961 . S
C767 H783 0.961 . S
C768 C769 1.370 . S
C768 C770 1.363 . S
C768 H784 0.931 . S
C769 C768 1.370 . S
C769 C773 1.408 . S
C770 C768 1.363 . S
C770 C771 1.370 . S
C770 C774 1.524 . S
C771 C763 1.503 . S
C771 C770 1.370 . S
C771 C772 1.403 . S
C772 C771 1.403 . S
C772 C773 1.404 . S
C772 C775 1.539 . S
C773 C769 1.408 . S
C773 C772 1.404 . S
C773 H785 0.930 . S
C774 C770 1.524 . S
C774 H786 0.956 . S
C774 H787 0.961 . S
C774 H788 0.961 . S
C775 C772 1.539 . S
C775 H789 0.958 . S
C775 H790 0.961 . S
C775 H791 0.960 . S
H776 C760 0.931 . S
H777 C765 0.929 . S
H778 C766 0.960 . S
H779 C766 0.962 . S
H780 C766 0.960 . S
H781 C767 0.961 . S
H782 C767 0.961 . S
H783 C767 0.961 . S
H784 C768 0.931 . S
H785 C773 0.930 . S
H786 C774 0.956 . S
H787 C774 0.961 . S
H788 C774 0.961 . S
H789 C775 0.958 . S
H790 C775 0.961 . S
H791 C775 0.960 . S
C792 C793 1.391 . S
C792 C794 1.394 . S
C792 H808 0.931 . S
C793 C792 1.391 . S
C793 C797 1.376 . S
C794 C792 1.394 . S
C794 C795 1.369 . S
C794 C798 1.531 . S
C795 C794 1.369 . S
C795 C796 1.410 . S
C795 C803 1.503 . S
C796 C795 1.410 . S
C796 C797 1.392 . S
C796 C799 1.511 . S
C797 C793 1.376 . S
C797 C796 1.392 . S
C797 H809 0.929 . S
C798 C794 1.531 . S
C798 H810 0.960 . S
C798 H811 0.962 . S
C798 H812 0.960 . S
C799 C796 1.511 . S
C799 H813 0.961 . S
C799 H814 0.961 . S
C799 H815 0.961 . S
C800 C801 1.370 . S
C800 C802 1.363 . S
C800 H816 0.931 . S
C801 C800 1.370 . S
C801 C805 1.408 . S
C802 C800 1.363 . S
C802 C803 1.370 . S
C802 C806 1.524 . S
C803 C795 1.503 . S
C803 C802 1.370 . S
C803 C804 1.403 . S
C804 C803 1.403 . S
C804 C805 1.404 . S
C804 C807 1.539 . S
C805 C801 1.408 . S
C805 C804 1.404 . S
C805 H817 0.930 . S
C806 C802 1.524 . S
C806 H818 0.956 . S
C806 H819 0.961 . S
C806 H820 0.961 . S
C807 C804 1.539 . S
C807 H821 0.958 . S
C807 H822 0.961 . S
C807 H823 0.960 . S
H808 C792 0.931 . S
H809 C797 0.929 . S
H810 C798 0.960 . S
H811 C798 0.962 . S
H812 C798 0.960 . S
H813 C799 0.961 . S
H814 C799 0.961 . S
H815 C799 0.961 . S
H816 C800 0.931 . S
H817 C805 0.930 . S
H818 C806 0.956 . S
H819 C806 0.961 . S
H820 C806 0.961 . S
H821 C807 0.958 . S
H822 C807 0.961 . S
H823 C807 0.960 . S
C824 C825 1.391 . S
C824 C826 1.394 . S
C824 H840 0.931 . S
C825 C824 1.391 . S
C825 C829 1.376 . S
C826 C824 1.394 . S
C826 C827 1.369 . S
C826 C830 1.531 . S
C827 C826 1.369 . S
C827 C828 1.410 . S
C827 C835 1.503 . S
C828 C827 1.410 . S
C828 C829 1.392 . S
C828 C831 1.511 . S
C829 C825 1.376 . S
C829 C828 1.392 . S
C829 H841 0.929 . S
C830 C826 1.531 . S
C830 H842 0.960 . S
C830 H843 0.962 . S
C830 H844 0.960 . S
C831 C828 1.511 . S
C831 H845 0.961 . S
C831 H846 0.961 . S
C831 H847 0.961 . S
C832 C833 1.370 . S
C832 C834 1.363 . S
C832 H848 0.931 . S
C833 C832 1.370 . S
C833 C837 1.408 . S
C834 C832 1.363 . S
C834 C835 1.370 . S
C834 C838 1.524 . S
C835 C827 1.503 . S
C835 C834 1.370 . S
C835 C836 1.403 . S
C836 C835 1.403 . S
C836 C837 1.404 . S
C836 C839 1.539 . S
C837 C833 1.408 . S
C837 C836 1.404 . S
C837 H849 0.930 . S
C838 C834 1.524 . S
C838 H850 0.956 . S
C838 H851 0.961 . S
C838 H852 0.961 . S
C839 C836 1.539 . S
C839 H853 0.958 . S
C839 H854 0.961 . S
C839 H855 0.960 . S
H840 C824 0.931 . S
H841 C829 0.929 . S
H842 C830 0.960 . S
H843 C830 0.962 . S
H844 C830 0.960 . S
H845 C831 0.961 . S
H846 C831 0.961 . S
H847 C831 0.961 . S
H848 C832 0.931 . S
H849 C837 0.930 . S
H850 C838 0.956 . S
H851 C838 0.961 . S
H852 C838 0.961 . S
H853 C839 0.958 . S
H854 C839 0.961 . S
H855 C839 0.960 . S
C856 C857 1.391 . S
C856 C858 1.394 . S
C856 H872 0.931 . S
C857 C856 1.391 . S
C857 C861 1.376 . S
C858 C856 1.394 . S
C858 C859 1.369 . S
C858 C862 1.531 . S
C859 C858 1.369 . S
C859 C860 1.410 . S
C859 C867 1.503 . S
C860 C859 1.410 . S
C860 C861 1.392 . S
C860 C863 1.511 . S
C861 C857 1.376 . S
C861 C860 1.392 . S
C861 H873 0.929 . S
C862 C858 1.531 . S
C862 H874 0.960 . S
C862 H875 0.962 . S
C862 H876 0.960 . S
C863 C860 1.511 . S
C863 H877 0.961 . S
C863 H878 0.961 . S
C863 H879 0.961 . S
C864 C865 1.370 . S
C864 C866 1.363 . S
C864 H880 0.931 . S
C865 C864 1.370 . S
C865 C869 1.408 . S
C866 C864 1.363 . S
C866 C867 1.370 . S
C866 C870 1.524 . S
C867 C859 1.503 . S
C867 C866 1.370 . S
C867 C868 1.403 . S
C868 C867 1.403 . S
C868 C869 1.404 . S
C868 C871 1.539 . S
C869 C865 1.408 . S
C869 C868 1.404 . S
C869 H881 0.930 . S
C870 C866 1.524 . S
C870 H882 0.956 . S
C870 H883 0.961 . S
C870 H884 0.961 . S
C871 C868 1.539 . S
C871 H885 0.958 . S
C871 H886 0.961 . S
C871 H887 0.960 . S
H872 C856 0.931 . S
H873 C861 0.929 . S
H874 C862 0.960 . S
H875 C862 0.962 . S
H876 C862 0.960 . S
H877 C863 0.961 . S
H878 C863 0.961 . S
H879 C863 0.961 . S
H880 C864 0.931 . S
H881 C869 0.930 . S
H882 C870 0.956 . S
H883 C870 0.961 . S
H884 C870 0.961 . S
H885 C871 0.958 . S
H886 C871 0.961 . S
H887 C871 0.960 . S
C888 C889 1.391 . S
C888 C890 1.394 . S
C888 H904 0.931 . S
C889 C888 1.391 . S
C889 C893 1.376 . S
C890 C888 1.394 . S
C890 C891 1.369 . S
C890 C894 1.531 . S
C891 C890 1.369 . S
C891 C892 1.410 . S
C891 C899 1.503 . S
C892 C891 1.410 . S
C892 C893 1.392 . S
C892 C895 1.511 . S
C893 C889 1.376 . S
C893 C892 1.392 . S
C893 H905 0.929 . S
C894 C890 1.531 . S
C894 H906 0.960 . S
C894 H907 0.962 . S
C894 H908 0.960 . S
C895 C892 1.511 . S
C895 H909 0.961 . S
C895 H910 0.961 . S
C895 H911 0.961 . S
C896 C897 1.370 . S
C896 C898 1.363 . S
C896 H912 0.931 . S
C897 C896 1.370 . S
C897 C901 1.408 . S
C898 C896 1.363 . S
C898 C899 1.370 . S
C898 C902 1.524 . S
C899 C891 1.503 . S
C899 C898 1.370 . S
C899 C900 1.403 . S
C900 C899 1.403 . S
C900 C901 1.404 . S
C900 C903 1.539 . S
C901 C897 1.408 . S
C901 C900 1.404 . S
C901 H913 0.930 . S
C902 C898 1.524 . S
C902 H914 0.956 . S
C902 H915 0.961 . S
C902 H916 0.961 . S
C903 C900 1.539 . S
C903 H917 0.958 . S
C903 H918 0.961 . S
C903 H919 0.960 . S
H904 C888 0.931 . S
H905 C893 0.929 . S
H906 C894 0.960 . S
H907 C894 0.962 . S
H908 C894 0.960 . S
H909 C895 0.961 . S
H910 C895 0.961 . S
H911 C895 0.961 . S
H912 C896 0.931 . S
H913 C901 0.930 . S
H914 C902 0.956 . S
H915 C902 0.961 . S
H916 C902 0.961 . S
H917 C903 0.958 . S
H918 C903 0.961 . S
H919 C903 0.960 . S
C153 C5 1.438 . S
C161 C91 1.440 . S
C185 C14 1.269 . S
C193 C94 1.240 . S
C225 C130 1.759 . S
C217 C25 1.791 . S
C249 C34 1.660 . S
C257 C150 1.643 . S
C289 C104 1.613 . S
C281 C7 1.642 . S
C321 C81 1.491 . S
C313 C13 1.504 . S
C353 C134 1.568 . S
C345 C23 1.652 . S
C385 C114 1.369 . S
C377 C31 1.411 . S
C409 C4 1.342 . S
C417 C144 1.284 . S
C449 C110 1.626 . S
C441 C22 1.650 . S
C473 C32 1.617 . S
C481 C76 1.574 . S
C505 C16 1.325 . S
C513 C124 1.291 . S
C545 C90 1.423 . S
C537 C41 1.424 . S
C569 C50 1.275 . S
C577 C96 1.217 . S
C601 C61 1.787 . S
C609 C131 1.761 . S
C633 C67 1.669 . S
C641 C151 1.645 . S
C665 C40 1.652 . S
C673 C101 1.641 . S
C705 C84 1.456 . S
C697 C52 1.479 . S
C737 C136 1.573 . S
C729 C59 1.660 . S
C769 C116 1.352 . S
C761 C70 1.405 . S
C793 C43 1.335 . S
C801 C141 1.283 . S
C833 C111 1.635 . S
C825 C58 1.660 . S
C865 C74 1.547 . S
C857 C68 1.598 . S
C889 C49 1.332 . S
C897 C121 1.292 . S
