# Generated by pormake.
# Topology zzz, (3,6)-cn, num edge types: 1
# Building blocks:
#     Node 0, Type 0, BuildingBlock: BELTOD_clean_linker_0, # of connection points: 3
#     Node 1, Type 0, BuildingBlock: BELTOD_clean_linker_0, # of connection points: 3
#     Node 2, Type 0, BuildingBlock: BELTOD_clean_linker_0, # of connection points: 3
#     Node 3, Type 0, BuildingBlock: BELTOD_clean_linker_0, # of connection points: 3
#     Node 4, Type 0, BuildingBlock: BELTOD_clean_linker_0, # of connection points: 3
#     Node 5, Type 0, BuildingBlock: BELTOD_clean_linker_0, # of connection points: 3
#     Node 6, Type 0, BuildingBlock: BELTOD_clean_linker_0, # of connection points: 3
#     Node 7, Type 0, BuildingBlock: BELTOD_clean_linker_0, # of connection points: 3
#     Node 8, Type 1, BuildingBlock: FUNLAD_clean_sbu_0, # of connection points: 6
#     Node 9, Type 1, BuildingBlock: FUNLAD_clean_sbu_0, # of connection points: 6
#     Node 10, Type 1, BuildingBlock: FUNLAD_clean_sbu_0, # of connection points: 6
#     Node 11, Type 1, BuildingBlock: FUNLAD_clean_sbu_0, # of connection points: 6
#     Edge 12, Type (0, 1), BuildingBlock: EZIPEK_clean_linker_0, # of connection points: 2
#     Edge 13, Type (0, 1), BuildingBlock: EZIPEK_clean_linker_0, # of connection points: 2
#     Edge 14, Type (0, 1), BuildingBlock: EZIPEK_clean_linker_0, # of connection points: 2
#     Edge 15, Type (0, 1), BuildingBlock: EZIPEK_clean_linker_0, # of connection points: 2
#     Edge 16, Type (0, 1), BuildingBlock: EZIPEK_clean_linker_0, # of connection points: 2
#     Edge 17, Type (0, 1), BuildingBlock: EZIPEK_clean_linker_0, # of connection points: 2
#     Edge 18, Type (0, 1), BuildingBlock: EZIPEK_clean_linker_0, # of connection points: 2
#     Edge 19, Type (0, 1), BuildingBlock: EZIPEK_clean_linker_0, # of connection points: 2
#     Edge 20, Type (0, 1), BuildingBlock: EZIPEK_clean_linker_0, # of connection points: 2
#     Edge 21, Type (0, 1), BuildingBlock: EZIPEK_clean_linker_0, # of connection points: 2
#     Edge 22, Type (0, 1), BuildingBlock: EZIPEK_clean_linker_0, # of connection points: 2
#     Edge 23, Type (0, 1), BuildingBlock: EZIPEK_clean_linker_0, # of connection points: 2
#     Edge 24, Type (0, 1), BuildingBlock: EZIPEK_clean_linker_0, # of connection points: 2
#     Edge 25, Type (0, 1), BuildingBlock: EZIPEK_clean_linker_0, # of connection points: 2
#     Edge 26, Type (0, 1), BuildingBlock: EZIPEK_clean_linker_0, # of connection points: 2
#     Edge 27, Type (0, 1), BuildingBlock: EZIPEK_clean_linker_0, # of connection points: 2
#     Edge 28, Type (0, 1), BuildingBlock: EZIPEK_clean_linker_0, # of connection points: 2
#     Edge 29, Type (0, 1), BuildingBlock: EZIPEK_clean_linker_0, # of connection points: 2
#     Edge 30, Type (0, 1), BuildingBlock: EZIPEK_clean_linker_0, # of connection points: 2
#     Edge 31, Type (0, 1), BuildingBlock: EZIPEK_clean_linker_0, # of connection points: 2
#     Edge 32, Type (0, 1), BuildingBlock: EZIPEK_clean_linker_0, # of connection points: 2
#     Edge 33, Type (0, 1), BuildingBlock: EZIPEK_clean_linker_0, # of connection points: 2
#     Edge 34, Type (0, 1), BuildingBlock: EZIPEK_clean_linker_0, # of connection points: 2
#     Edge 35, Type (0, 1), BuildingBlock: EZIPEK_clean_linker_0, # of connection points: 2
# Relax obj value: 0.239
# Max RMSD: 0.227
# Mean RMSD: 0.183
data_MOF--net-zzz--node1-FUNLAD_clean_sbu_0--node2-BELTOD_clean_linker_0--edge1-EZIPEK_clean_linker_0
_symmetry_space_group_name_H-M    P1
_symmetry_Int_Tables_number       1
_symmetry_cell_setting            triclinic
loop_
_symmetry_equiv_pos_as_xyz
'x, y, z'
_cell_length_a     42.017346
_cell_length_b     46.944018
_cell_length_c     16.200139
_cell_angle_alpha  85.264404
_cell_angle_beta   85.338992
_cell_angle_gamma 92.147561
loop_
_atom_site_label
_atom_site_type_symbol
_atom_site_fract_x
_atom_site_fract_y
_atom_site_fract_z
_atom_type_partial_charge
P0 P 0.78861 0.38437 0.31403 0.0
H1 H 0.8111 0.37448 0.47895 0.0
H2 H 0.84121 0.40646 0.5595 0.0
H3 H 0.81966 0.47873 0.39489 0.0
H4 H 0.78958 0.44698 0.31442 0.0
H5 H 0.7187 0.37702 0.31921 0.0
H6 H 0.67942 0.39795 0.22965 0.0
H7 H 0.75546 0.44637 0.0791 0.0
H8 H 0.79446 0.42595 0.16868 0.0
H9 H 0.85577 0.40422 0.32136 0.0
H10 H 0.80141 0.35631 0.16051 0.0
O11 O 0.7753 0.35243 0.3591 0.0
H12 H 0.89804 0.41425 0.21067 0.0
H13 H 0.84525 0.36489 0.05013 0.0
C14 C 0.7978 0.40827 0.39104 0.0
C15 C 0.81147 0.39732 0.46249 0.0
C16 C 0.82886 0.41552 0.50802 0.0
C17 C 0.83275 0.44481 0.48242 0.0
C18 C 0.81676 0.45617 0.41546 0.0
C19 C 0.79944 0.43796 0.36985 0.0
C20 C 0.75951 0.39948 0.24948 0.0
C21 C 0.72689 0.39206 0.26682 0.0
C22 C 0.70456 0.40397 0.21601 0.0
C23 C 0.71472 0.4235 0.14773 0.0
C24 C 0.74728 0.4312 0.13124 0.0
C25 C 0.76948 0.4194 0.18206 0.0
C26 C 0.82467 0.38064 0.24809 0.0
C27 C 0.85314 0.39514 0.26325 0.0
C28 C 0.87763 0.40062 0.20014 0.0
C29 C 0.87432 0.39097 0.12168 0.0
C30 C 0.84797 0.37279 0.11024 0.0
C31 C 0.82303 0.36787 0.17315 0.0
P32 P 0.98501 0.76354 0.20226 0.0
H33 H 0.98953 0.77339 0.3762 0.0
H34 H 0.97037 0.81338 0.4502 0.0
H35 H 0.90703 0.83405 0.25968 0.0
H36 H 0.92632 0.79388 0.18489 0.0
H37 H 0.00821 0.72823 0.07538 0.0
H38 H 0.98473 0.68677 0.01624 0.0
H39 H 0.89571 0.69578 0.16212 0.0
H40 H 0.91948 0.73702 0.22321 0.0
H41 H 0.03271 0.809 0.21283 0.0
H42 H 0.96803 0.78383 0.03559 0.0
O43 O 0.01539 0.74955 0.24951 0.0
H44 H 0.04525 0.85454 0.12867 0.0
H45 H 0.98105 0.8292 0.95082 0.0
C46 C 0.9595 0.78084 0.27482 0.0
C47 C 0.97028 0.78543 0.35237 0.0
C48 C 0.95938 0.8083 0.39465 0.0
C49 C 0.93776 0.82676 0.3594 0.0
C50 C 0.92367 0.81987 0.28763 0.0
C51 C 0.93464 0.79693 0.24523 0.0
C52 C 0.96556 0.73566 0.15321 0.0
C53 C 0.98355 0.72149 0.09407 0.0
C54 C 0.97021 0.69792 0.06048 0.0
C55 C 0.93866 0.68828 0.08545 0.0
C56 C 0.92014 0.70303 0.14249 0.0
C57 C 0.93369 0.72653 0.17697 0.0
C58 C 1.0002 0.79269 0.12915 0.0
C59 C 0.02213 0.81281 0.15436 0.0
C60 C 0.02906 0.83884 0.10696 0.0
C61 C 0.01411 0.84502 0.03376 0.0
C62 C 0.99294 0.82457 0.00697 0.0
C63 C 0.98579 0.79863 0.05487 0.0
P64 P 0.76428 0.05976 0.14769 0.0
H65 H 0.72483 0.08717 0.26754 0.0
H66 H 0.68442 0.0683 0.37618 0.0
H67 H 0.71806 0.9833 0.35567 0.0
H68 H 0.75831 0.00237 0.24288 0.0
H69 H 0.83109 0.05975 0.18672 0.0
H70 H 0.88025 0.04811 0.10542 0.0
H71 H 0.82372 0.01331 0.92425 0.0
H72 H 0.7749 0.02487 0.00439 0.0
H73 H 0.73414 0.10254 0.03883 0.0
H74 H 0.72212 0.01224 0.11591 0.0
O75 O 0.7749 0.09417 0.15262 0.0
H76 H 0.6868 0.09912 0.95937 0.0
H77 H 0.67471 0.00913 0.039 0.0
C78 C 0.7452 0.04635 0.24808 0.0
C79 C 0.72448 0.0646 0.28805 0.0
C80 C 0.70099 0.05374 0.34943 0.0
C81 C 0.69772 0.02429 0.37326 0.0
C82 C 0.71988 0.00607 0.33761 0.0
C83 C 0.74321 0.017 0.27441 0.0
C84 C 0.79909 0.04309 0.10251 0.0
C85 C 0.82919 0.04883 0.13089 0.0
C86 C 0.85725 0.04244 0.08413 0.0
C87 C 0.85561 0.03015 0.00828 0.0
C88 C 0.82552 0.0229 0.98235 0.0
C89 C 0.79754 0.02936 0.02887 0.0
C90 C 0.73161 0.05761 0.08316 0.0
C91 C 0.72139 0.08207 0.03885 0.0
C92 C 0.69427 0.08025 0.99445 0.0
C93 C 0.6771 0.054 0.99499 0.0
C94 C 0.68744 0.02964 0.03919 0.0
C95 C 0.71456 0.0314 0.08257 0.0
P96 P 0.49251 0.70424 0.25039 0.0
H97 H 0.47759 0.68179 0.42262 0.0
H98 H 0.50418 0.64738 0.51133 0.0
H99 H 0.58673 0.6533 0.33338 0.0
H100 H 0.55931 0.68676 0.24167 0.0
H101 H 0.46164 0.74536 0.14652 0.0
H102 H 0.48019 0.78968 0.06363 0.0
H103 H 0.57406 0.78127 0.14983 0.0
H104 H 0.55526 0.73713 0.23521 0.0
H105 H 0.44519 0.65805 0.23524 0.0
H106 H 0.53225 0.69399 0.10046 0.0
O107 O 0.45632 0.70916 0.2962 0.0
H108 H 0.44287 0.62063 0.13804 0.0
H109 H 0.5301 0.65643 0.00425 0.0
C110 C 0.51657 0.6873 0.3258 0.0
C111 C 0.50175 0.67648 0.40328 0.0
C112 C 0.5169 0.65671 0.454 0.0
C113 C 0.54722 0.6475 0.42834 0.0
C114 C 0.56327 0.66009 0.35403 0.0
C115 C 0.54773 0.67943 0.30219 0.0
C116 C 0.50696 0.73802 0.19744 0.0
C117 C 0.4861 0.75321 0.14877 0.0
C118 C 0.49666 0.77838 0.10124 0.0
C119 C 0.52841 0.78862 0.10084 0.0
C120 C 0.54944 0.77358 0.14966 0.0
C121 C 0.5387 0.7484 0.19816 0.0
C122 C 0.48854 0.67907 0.17388 0.0
C123 C 0.46344 0.6582 0.18399 0.0
C124 C 0.46215 0.63685 0.12894 0.0
C125 C 0.48629 0.63593 0.06417 0.0
C126 C 0.51121 0.65698 0.05368 0.0
C127 C 0.51236 0.67838 0.10836 0.0
P128 P 0.20337 0.49767 0.25648 0.0
H129 H 0.17909 0.45224 0.16423 0.0
H130 H 0.14402 0.45434 0.05147 0.0
H131 H 0.16238 0.54555 0.01087 0.0
H132 H 0.19837 0.54346 0.12337 0.0
H133 H 0.26744 0.49615 0.1717 0.0
H134 H 0.3201 0.50598 0.22236 0.0
H135 H 0.27463 0.54466 0.43076 0.0
H136 H 0.22263 0.53461 0.38201 0.0
H137 H 0.15088 0.47332 0.37313 0.0
H138 H 0.18417 0.55696 0.26152 0.0
O139 O 0.2055 0.46382 0.29554 0.0
H140 H 0.10613 0.49476 0.44769 0.0
H141 H 0.13882 0.57837 0.33562 0.0
C142 C 0.1914 0.49772 0.15244 0.0
C143 C 0.177 0.47256 0.12877 0.0
C144 C 0.15674 0.47373 0.06468 0.0
C145 C 0.15048 0.5001 0.02362 0.0
C146 C 0.16708 0.525 0.04188 0.0
C147 C 0.18767 0.52377 0.10583 0.0
C148 C 0.24101 0.51512 0.27184 0.0
C149 C 0.26893 0.50797 0.22602 0.0
C150 C 0.29891 0.51344 0.25503 0.0
C151 C 0.30105 0.52596 0.33036 0.0
C152 C 0.27339 0.53519 0.37225 0.0
C153 C 0.2436 0.52958 0.34368 0.0
C154 C 0.17108 0.51362 0.31292 0.0
C155 C 0.14869 0.49626 0.36488 0.0
C156 C 0.12312 0.50844 0.40701 0.0
C157 C 0.11947 0.53806 0.39706 0.0
C158 C 0.14146 0.55548 0.34389 0.0
C159 C 0.16719 0.54325 0.30186 0.0
P160 P 0.15507 0.22595 0.33133 0.0
H161 H 0.18087 0.22155 0.15787 0.0
H162 H 0.16235 0.18921 0.05846 0.0
H163 H 0.07414 0.17189 0.21374 0.0
H164 H 0.09091 0.20661 0.30632 0.0
H165 H 0.16731 0.25741 0.47397 0.0
H166 H 0.1425 0.29902 0.53139 0.0
H167 H 0.08032 0.3045 0.33222 0.0
H168 H 0.10499 0.26336 0.27454 0.0
H169 H 0.16893 0.16726 0.30983 0.0
H170 H 0.11861 0.21312 0.49647 0.0
O171 O 0.19457 0.23135 0.31291 0.0
H172 H 0.13763 0.1238 0.36055 0.0
H173 H 0.09075 0.16838 0.55557 0.0
C174 C 0.13736 0.21622 0.23976 0.0
C175 C 0.15677 0.21221 0.1675 0.0
C176 C 0.1464 0.19337 0.11166 0.0
C177 C 0.11733 0.17738 0.13023 0.0
C178 C 0.09675 0.18374 0.19821 0.0
C179 C 0.10624 0.20382 0.25075 0.0
C180 C 0.13778 0.2571 0.37068 0.0
C181 C 0.14846 0.26768 0.4425 0.0
C182 C 0.13441 0.29131 0.4751 0.0
C183 C 0.10964 0.30459 0.43582 0.0
C184 C 0.09939 0.29438 0.36315 0.0
C185 C 0.11343 0.2708 0.33062 0.0
C186 C 0.14592 0.19362 0.39848 0.0
C187 C 0.15252 0.16766 0.36484 0.0
C188 C 0.13436 0.14284 0.39324 0.0
C189 C 0.11127 0.14287 0.46095 0.0
C190 C 0.10794 0.16799 0.50212 0.0
C191 C 0.1244 0.19345 0.46948 0.0
P192 P 0.29727 0.02334 0.28183 0.0
H193 H 0.33725 0.06482 0.17453 0.0
H194 H 0.37671 0.05903 0.05927 0.0
H195 H 0.3396 0.973 0.04436 0.0
H196 H 0.29929 0.97887 0.16066 0.0
H197 H 0.23282 0.04436 0.2747 0.0
H198 H 0.18343 0.03123 0.36362 0.0
H199 H 0.22598 0.95509 0.4628 0.0
H200 H 0.27513 0.96794 0.37434 0.0
H201 H 0.32794 0.96809 0.28425 0.0
H202 H 0.33261 0.04455 0.41479 0.0
O203 O 0.29544 0.05778 0.2999 0.0
H204 H 0.37374 0.95005 0.35358 0.0
H205 H 0.37806 0.02614 0.48484 0.0
C206 C 0.31484 0.0224 0.17621 0.0
C207 C 0.33636 0.04507 0.14453 0.0
C208 C 0.35928 0.04172 0.07908 0.0
C209 C 0.36134 0.01554 0.04385 0.0
C210 C 0.33838 0.99341 0.07081 0.0
C211 C 0.3152 0.99686 0.13663 0.0
C212 C 0.25805 0.00736 0.31784 0.0
C213 C 0.2312 0.02424 0.31301 0.0
C214 C 0.20304 0.0169 0.36425 0.0
C215 C 0.20124 0.99241 0.42068 0.0
C216 C 0.22696 0.97417 0.42004 0.0
C217 C 0.25508 0.98152 0.36888 0.0
C218 C 0.32712 0.00792 0.34329 0.0
C219 C 0.33858 0.98093 0.32802 0.0
C220 C 0.36458 0.97052 0.36766 0.0
C221 C 0.37921 0.98695 0.42341 0.0
C222 C 0.36697 0.01332 0.44151 0.0
C223 C 0.34105 0.02377 0.40164 0.0
P224 P 0.42742 0.31577 0.32695 0.0
H225 H 0.38247 0.33815 0.21137 0.0
H226 H 0.39109 0.37106 0.08536 0.0
H227 H 0.49274 0.36161 0.08458 0.0
H228 H 0.48427 0.32861 0.21038 0.0
H229 H 0.409 0.27518 0.46725 0.0
H230 H 0.42741 0.22795 0.51129 0.0
H231 H 0.48786 0.229 0.2828 0.0
H232 H 0.46919 0.2765 0.23798 0.0
H233 H 0.41604 0.36735 0.41138 0.0
H234 H 0.49478 0.31308 0.36131 0.0
O235 O 0.38946 0.31881 0.36318 0.0
H236 H 0.45148 0.39957 0.47745 0.0
H237 H 0.53037 0.34573 0.4259 0.0
C238 C 0.43274 0.33089 0.22059 0.0
C239 C 0.40656 0.34228 0.18274 0.0
C240 C 0.41141 0.36115 0.11099 0.0
C241 C 0.44254 0.36892 0.07656 0.0
C242 C 0.46856 0.35584 0.11053 0.0
C243 C 0.46368 0.3369 0.18211 0.0
C244 C 0.4373 0.27913 0.34875 0.0
C245 C 0.42564 0.26504 0.42554 0.0
C246 C 0.43626 0.23821 0.451 0.0
C247 C 0.45897 0.22515 0.40034 0.0
C248 C 0.47025 0.23886 0.3225 0.0
C249 C 0.45951 0.26583 0.29688 0.0
C250 C 0.4526 0.3375 0.38334 0.0
C251 C 0.44076 0.36211 0.41583 0.0
C252 C 0.46096 0.38053 0.45301 0.0
C253 C 0.49335 0.37475 0.45712 0.0
C254 C 0.50533 0.35025 0.42408 0.0
C255 C 0.48499 0.33165 0.38763 0.0
C256 C 0.02896 0.95461 0.8431 0.0
N257 N 0.99595 0.96359 0.60622 0.0
C258 C 0.00681 0.9369 0.59964 0.0
C259 C 0.99123 0.91783 0.55358 0.0
C260 C 0.96416 0.9263 0.51465 0.0
C261 C 0.95324 0.95385 0.52211 0.0
C262 C 0.96976 0.9724 0.56851 0.0
Zn263 Zn 0.01823 0.98935 0.68001 0.0
C264 C 0.9718 0.01472 0.79776 0.0
N265 N 0.06383 0.03996 0.84721 0.0
C266 C 0.0795 0.03149 0.9149 0.0
C267 C 0.05832 0.06814 0.82906 0.0
C268 C 0.06994 0.08893 0.87585 0.0
C269 C 0.08493 0.08089 0.94746 0.0
C270 C 0.08963 0.05171 0.96751 0.0
Zn271 Zn 0.04369 0.01192 0.77222 0.0
O272 O 0.0174 0.95447 0.77305 0.0
C273 C 0.09052 0.98506 0.6583 0.0
O274 O 0.04252 0.97728 0.86369 0.0
H275 H 0.04383 0.07504 0.78007 0.0
H276 H 0.02737 0.93026 0.63106 0.0
H277 H 0.08329 0.00907 0.92975 0.0
O278 O 0.06434 0.97792 0.62928 0.0
O279 O 0.0891 0.00019 0.72018 0.0
H280 H 0.96151 0.9937 0.57513 0.0
O281 O 0.04603 0.04502 0.67622 0.0
O282 O 0.02022 0.02397 0.5849 0.0
O283 O 0.99787 0.02301 0.82451 0.0
O284 O 0.97265 0.00087 0.73347 0.0
C285 C 0.03587 0.04559 0.60491 0.0
H286 H 1.00011 0.89661 0.54851 0.0
H287 H 0.93242 0.96086 0.49221 0.0
H288 H 0.06555 0.11117 0.8588 0.0
H289 H 0.10078 0.0447 0.0232 0.0
C290 C 0.48811 0.98326 0.601 0.0
N291 N 0.51757 0.06717 0.62899 0.0
C292 C 0.51841 0.07048 0.54448 0.0
C293 C 0.51074 0.09637 0.50397 0.0
C294 C 0.50199 0.11898 0.55091 0.0
C295 C 0.50194 0.1154 0.63776 0.0
C296 C 0.5099 0.08908 0.6759 0.0
Zn297 Zn 0.52528 0.02728 0.68259 0.0
C298 C 0.47568 0.00808 0.81982 0.0
N299 N 0.53892 0.94197 0.7841 0.0
C300 C 0.51287 0.92376 0.80251 0.0
C301 C 0.56808 0.93497 0.80882 0.0
C302 C 0.57148 0.90935 0.85718 0.0
C303 C 0.54466 0.89086 0.87932 0.0
C304 C 0.51525 0.8979 0.85014 0.0
Zn305 Zn 0.53222 0.98222 0.73065 0.0
O306 O 0.49375 0.00985 0.60426 0.0
C307 C 0.58196 0.00254 0.59316 0.0
O308 O 0.50251 0.96526 0.64558 0.0
H309 H 0.58846 0.94972 0.79386 0.0
H310 H 0.52432 0.05277 0.5083 0.0
H311 H 0.48988 0.92977 0.7831 0.0
O312 O 0.56481 0.02423 0.59387 0.0
O313 O 0.57399 0.98061 0.64348 0.0
H314 H 0.50928 0.08595 0.74292 0.0
O315 O 0.56164 -0.00039 0.81518 0.0
O316 O 0.55751 0.04388 0.76233 0.0
O317 O 0.49072 0.98512 0.81625 0.0
O318 O 0.48556 0.0301 0.77233 0.0
C319 C 0.56983 0.026 0.81239 0.0
H320 H 0.51093 0.09856 0.43683 0.0
H321 H 0.49523 0.13257 0.67547 0.0
H322 H 0.59447 0.90442 0.87918 0.0
H323 H 0.49412 0.88402 0.86672 0.0
C324 C 0.53369 0.46454 0.63102 0.0
N325 N 0.45697 0.51767 0.63629 0.0
C326 C 0.46416 0.52094 0.55237 0.0
C327 C 0.44005 0.52445 0.49872 0.0
C328 C 0.40828 0.52448 0.53177 0.0
C329 C 0.40135 0.52177 0.61834 0.0
C330 C 0.4263 0.51841 0.67 0.0
Zn331 Zn 0.49403 0.50929 0.70773 0.0
C332 C 0.4816 0.46304 0.83616 0.0
N333 N 0.57695 0.49214 0.83482 0.0
C334 C 0.60633 0.48728 0.79813 0.0
C335 C 0.5706 0.48845 0.91888 0.0
C336 C 0.5939 0.47869 0.9694 0.0
C337 C 0.62398 0.47273 0.93299 0.0
C338 C 0.63044 0.47752 0.84654 0.0
Zn339 Zn 0.53961 0.50157 0.76572 0.0
O340 O 0.50817 0.47807 0.62819 0.0
C341 C 0.55141 0.54818 0.63794 0.0
O342 O 0.55339 0.47054 0.68304 0.0
H343 H 0.54705 0.49221 0.94679 0.0
H344 H 0.48862 0.52005 0.52661 0.0
H345 H 0.61077 0.49019 0.7312 0.0
O346 O 0.52211 0.54144 0.6336 0.0
O347 O 0.56735 0.53425 0.68982 0.0
H348 H 0.42114 0.51567 0.73675 0.0
O349 O 0.52527 0.53278 0.84666 0.0
O350 O 0.48011 0.54009 0.78988 0.0
O351 O 0.51109 0.46903 0.84111 0.0
O352 O 0.46636 0.47715 0.78326 0.0
C353 C 0.49941 0.54588 0.84335 0.0
H354 H 0.44601 0.52624 0.4321 0.0
H355 H 0.37689 0.52151 0.64535 0.0
H356 H 0.5883 0.47514 0.03601 0.0
H357 H 0.65355 0.47305 0.81693 0.0
C358 C 0.01838 0.53063 0.622 0.0
N359 N 0.01717 0.44148 0.65873 0.0
C360 C 0.01707 0.44098 0.57483 0.0
C361 C 0.03175 0.41913 0.53462 0.0
C362 C 0.04657 0.39784 0.58156 0.0
C363 C 0.04618 0.39869 0.66777 0.0
C364 C 0.03123 0.42086 0.7054 0.0
Zn365 Zn 0.99754 0.47425 0.71666 0.0
C366 C 0.03993 0.49705 0.83393 0.0
N367 N 0.95794 0.54498 0.82958 0.0
C368 C 0.97757 0.56816 0.83701 0.0
C369 C 0.92709 0.54325 0.86341 0.0
C370 C 0.91506 0.56532 0.90804 0.0
C371 C 0.93516 0.58911 0.9173 0.0
C372 C 0.96655 0.59062 0.88067 0.0
Zn373 Zn 0.97695 0.51212 0.77076 0.0
O374 O 0.01999 0.50366 0.6229 0.0
C375 C 0.93457 0.48913 0.65345 0.0
O376 O 1.00126 0.54143 0.67839 0.0
H377 H 0.91202 0.52451 0.85735 0.0
H378 H 0.00584 0.45766 0.53904 0.0
H379 H 1.00207 0.56899 0.81053 0.0
O380 O 0.95641 0.4711 0.65051 0.0
O381 O 0.93736 0.51012 0.69747 0.0
H382 H 0.03109 0.42173 0.77192 0.0
O383 O 0.95268 0.48192 0.86265 0.0
O384 O 0.9752 0.4451 0.81052 0.0
O385 O 0.01728 0.51404 0.84264 0.0
O386 O 0.03813 0.47775 0.78398 0.0
C387 C 0.95655 0.45511 0.86521 0.0
H388 H 0.03169 0.41885 0.46784 0.0
H389 H 0.05741 0.38242 0.70534 0.0
H390 H 0.89075 0.56361 0.93641 0.0
H391 H 0.98259 0.60873 0.88757 0.0
C392 C 0.17567 0.0006 0.56246 0.0
C393 C 0.17416 0.98745 0.4868 0.0
C394 C 0.12278 0.9635 0.54098 0.0
C395 C 0.12208 0.97997 0.61093 0.0
N396 N 0.15535 0.00078 0.70666 0.0
N397 N 0.14608 0.95693 0.40199 0.0
C398 C 0.1507 0.99476 0.62733 0.0
C399 C 0.14778 0.96879 0.47584 0.0
N400 N 0.20061 0.01929 0.57169 0.0
N401 N 0.10112 0.94108 0.54063 0.0
H402 H 0.16425 0.95987 0.35379 0.0
H403 H 0.12579 0.94592 0.38615 0.0
H404 H 0.08565 0.93427 0.59271 0.0
H405 H 0.10149 0.92684 0.49465 0.0
H406 H 0.20092 0.03241 0.62046 0.0
H407 H 0.22006 0.0233 0.52745 0.0
H408 H 0.1766 0.00975 0.72383 0.0
H409 H 0.14005 0.99257 0.75762 0.0
C410 C 0.45217 0.17207 0.43278 0.0
C411 C 0.47153 0.19752 0.43155 0.0
C412 C 0.51262 0.17069 0.49944 0.0
C413 C 0.4917 0.146 0.50895 0.0
N414 N 0.43995 0.12373 0.49474 0.0
N415 N 0.51839 0.22226 0.47214 0.0
C416 C 0.46104 0.14678 0.47803 0.0
C417 C 0.50138 0.19716 0.46683 0.0
N418 N 0.42559 0.17204 0.38936 0.0
N419 N 0.54346 0.16865 0.51974 0.0
H420 H 0.51125 0.24205 0.44786 0.0
H421 H 0.53836 0.2238 0.50585 0.0
H422 H 0.55242 0.14965 0.54443 0.0
H423 H 0.56087 0.1851 0.50588 0.0
H424 H 0.41228 0.15354 0.38058 0.0
H425 H 0.41841 0.19026 0.3557 0.0
H426 H 0.41608 0.1241 0.4819 0.0
H427 H 0.44551 0.1048 0.52779 0.0
C428 C 0.33839 0.49926 0.41806 0.0
C429 C 0.33084 0.52515 0.37359 0.0
C430 C 0.37382 0.55102 0.43408 0.0
C431 C 0.38217 0.52486 0.47544 0.0
N432 N 0.37738 0.4733 0.4928 0.0
N433 N 0.34406 0.57452 0.32735 0.0
C434 C 0.36598 0.49872 0.46304 0.0
C435 C 0.34946 0.55072 0.3779 0.0
N436 N 0.31835 0.47548 0.42077 0.0
N437 N 0.38848 0.57616 0.45065 0.0
H438 H 0.32629 0.57484 0.28589 0.0
H439 H 0.35866 0.5931 0.32138 0.0
H440 H 0.40668 0.57706 0.49062 0.0
H441 H 0.38125 0.59624 0.42948 0.0
H442 H 0.3205 0.45717 0.46045 0.0
H443 H 0.29795 0.47467 0.38831 0.0
H444 H 0.36879 0.45348 0.47749 0.0
H445 H 0.39734 0.47197 0.52699 0.0
C446 C 0.10769 0.35673 0.45823 0.0
C447 C 0.09351 0.32867 0.47229 0.0
C448 C 0.04683 0.34678 0.54831 0.0
C449 C 0.06232 0.37434 0.54104 0.0
N450 N 0.10889 0.40534 0.49869 0.0
N451 N 0.05201 0.29585 0.53973 0.0
C452 C 0.09314 0.37932 0.4984 0.0
C453 C 0.06371 0.32337 0.51981 0.0
N454 N 0.13461 0.36185 0.4049 0.0
N455 N 0.01567 0.3432 0.58037 0.0
H456 H 0.06354 0.27811 0.51927 0.0
H457 H 0.03225 0.2904 0.58188 0.0
H458 H 0.00253 0.3599 0.60202 0.0
H459 H 1.00195 0.32433 0.57908 0.0
H460 H 0.14413 0.38228 0.38483 0.0
H461 H 0.1462 0.3457 0.37548 0.0
H462 H 0.13274 0.40938 0.47667 0.0
H463 H 0.09883 0.42253 0.5266 0.0
C464 C 0.89758 0.99857 0.94955 0.0
C465 C 0.88527 0.02619 0.95347 0.0
C466 C 0.92976 0.04651 0.85507 0.0
C467 C 0.94095 0.01861 0.84715 0.0
N468 N 0.93355 0.96745 0.87902 0.0
N469 N 0.88642 0.07583 0.90108 0.0
C470 C 0.92414 0.99444 0.89174 0.0
C471 C 0.90053 0.05002 0.90384 0.0
N472 N 0.88466 0.97647 0.00375 0.0
N473 N 0.94723 0.0697 0.81637 0.0
H474 H 0.86523 0.07932 0.93626 0.0
H475 H 0.89425 0.09324 0.85949 0.0
H476 H 0.96752 0.06792 0.77585 0.0
H477 H 0.94272 0.09074 0.82775 0.0
H478 H 0.89471 0.9566 0.0114 0.0
H479 H 0.86511 0.97866 0.04639 0.0
H480 H 0.92017 0.94892 0.90159 0.0
H481 H 0.95389 0.96332 0.84152 0.0
C482 C 0.54755 0.81291 0.96101 0.0
C483 C 0.53917 0.81488 0.04698 0.0
C484 C 0.53882 0.86713 0.02446 0.0
C485 C 0.5464 0.86511 0.93814 0.0
N486 N 0.56433 0.8376 0.82572 0.0
N487 N 0.53322 0.84322 0.16407 0.0
C488 C 0.55292 0.83842 0.90694 0.0
C489 C 0.53702 0.84187 0.07985 0.0
N490 N 0.54919 0.78658 0.93091 0.0
N491 N 0.53208 0.89309 0.05274 0.0
H492 H 0.53113 0.82504 0.20609 0.0
H493 H 0.53457 0.86217 0.19292 0.0
H494 H 0.53446 0.9122 0.01463 0.0
H495 H 0.52261 0.89572 0.11285 0.0
H496 H 0.55132 0.78338 0.86795 0.0
H497 H 0.54699 0.76753 0.96937 0.0
H498 H 0.57245 0.81927 0.80046 0.0
H499 H 0.56795 0.85592 0.78443 0.0
C500 C 0.67792 0.41921 0.0345 0.0
C501 C 0.69134 0.43602 0.09288 0.0
C502 C 0.66382 0.4778 0.03864 0.0
C503 C 0.64808 0.46031 0.9858 0.0
N504 N 0.63586 0.4134 0.94268 0.0
N505 N 0.6936 0.47991 0.1602 0.0
C506 C 0.65396 0.43072 0.98614 0.0
C507 C 0.68334 0.46497 0.09765 0.0
N508 N 0.68876 0.39257 0.02346 0.0
N509 N 0.66075 0.50677 0.03079 0.0
H510 H 0.70792 0.47119 0.20466 0.0
H511 H 0.68576 0.50004 0.17238 0.0
H512 H 0.64665 0.51689 0.9881 0.0
H513 H 0.67424 0.521 0.06131 0.0
H514 H 0.68249 0.3806 0.97544 0.0
H515 H 0.70617 0.38331 0.05805 0.0
H516 H 0.63657 0.39118 0.9481 0.0
H517 H 0.61811 0.42098 0.90625 0.0
C518 C 0.93051 0.63522 0.09746 0.0
C519 C 0.92627 0.66189 0.05293 0.0
C520 C 0.91428 0.63768 0.93026 0.0
C521 C 0.92477 0.61204 0.96936 0.0
N522 N 0.94055 0.58483 0.09073 0.0
N523 N 0.91105 0.68924 0.93143 0.0
C524 C 0.93142 0.61017 0.05399 0.0
C525 C 0.91652 0.66326 0.97103 0.0
N526 N 0.93435 0.63412 0.18064 0.0
N527 N 0.90277 0.63739 0.85382 0.0
H528 H 0.91109 0.70804 0.96165 0.0
H529 H 0.90732 0.69246 0.86872 0.0
H530 H 0.90108 0.61875 0.82322 0.0
H531 H 0.89266 0.65479 0.82353 0.0
H532 H 0.93492 0.61519 0.2186 0.0
H533 H 0.93443 0.65228 0.21355 0.0
H534 H 0.94959 0.58262 0.14872 0.0
H535 H 0.94017 0.56586 0.06144 0.0
C536 C 0.10381 0.08996 0.50291 0.0
C537 C 0.0901 0.11683 0.48633 0.0
C538 C 0.03678 0.09435 0.52842 0.0
C539 C 0.05079 0.06778 0.54247 0.0
N540 N 0.09504 0.03865 0.50976 0.0
N541 N 0.0412 0.14191 0.46356 0.0
C542 C 0.08348 0.06509 0.51801 0.0
C543 C 0.05606 0.11829 0.49244 0.0
N544 N 0.13586 0.08818 0.5104 0.0
N545 N 0.0049 0.09681 0.54828 0.0
H546 H 0.05308 0.15988 0.43118 0.0
H547 H 0.05308 0.15988 0.43118 0.0
H548 H 0.98998 0.07932 0.57263 0.0
H549 H 0.99384 0.11628 0.54007 0.0
H550 H 0.14619 0.06916 0.5295 0.0
H551 H 0.1515 0.10608 0.50715 0.0
H552 H 0.1184 0.03551 0.48647 0.0
H553 H 0.07984 0.02038 0.51576 0.0
C554 C 0.43876 0.98596 0.41964 0.0
C555 C 0.40837 0.97755 0.46083 0.0
C556 C 0.43257 0.96387 0.58951 0.0
C557 C 0.46268 0.97426 0.55005 0.0
N558 N 0.49646 0.98719 0.42481 0.0
N559 N 0.37691 0.95111 0.57443 0.0
C560 C 0.4664 0.98249 0.46371 0.0
C561 C 0.40556 0.9638 0.54229 0.0
N562 N 0.44089 0.99859 0.34012 0.0
N563 N 0.42932 0.95619 0.67313 0.0
H564 H 0.35668 0.95114 0.54105 0.0
H565 H 0.37384 0.93847 0.63063 0.0
H566 H 0.44856 0.95547 0.70976 0.0
H567 H 0.40736 0.95208 0.70746 0.0
H568 H 0.46181 0.00822 0.30973 0.0
H569 H 0.42117 0.00053 0.30517 0.0
H570 H 0.50124 0.99119 0.36078 0.0
H571 H 0.51694 0.98453 0.45661 0.0
C572 C 0.52375 0.3898 0.57496 0.0
C573 C 0.51458 0.39546 0.49309 0.0
C574 C 0.53192 0.44571 0.49235 0.0
C575 C 0.53797 0.44071 0.57709 0.0
N576 N 0.55191 0.40691 0.68746 0.0
N577 N 0.51952 0.42556 0.36474 0.0
C578 C 0.53834 0.41229 0.61428 0.0
C579 C 0.52213 0.4224 0.44853 0.0
N580 N 0.51672 0.36353 0.61677 0.0
N581 N 0.53404 0.47304 0.45557 0.0
H582 H 0.51245 0.4086 0.33154 0.0
H583 H 0.52693 0.44404 0.3271 0.0
H584 H 0.54296 0.49013 0.48529 0.0
H585 H 0.52613 0.47892 0.39762 0.0
H586 H 0.51959 0.35892 0.6796 0.0
H587 H 0.5063 0.3465 0.58966 0.0
H588 H 0.55489 0.38639 0.71445 0.0
H589 H 0.56346 0.42274 0.71677 0.0
C590 C 0.09653 0.55794 0.52581 0.0
C591 C 0.09245 0.55015 0.44448 0.0
C592 C 0.03454 0.54636 0.47505 0.0
C593 C 0.03937 0.54848 0.55951 0.0
N594 N 0.07113 0.56719 0.66081 0.0
N595 N 0.05864 0.54418 0.33387 0.0
C596 C 0.06916 0.55841 0.58304 0.0
C597 C 0.06157 0.54733 0.41605 0.0
N598 N 0.12664 0.56261 0.54949 0.0
N599 N 0.00407 0.54242 0.45341 0.0
H600 H 0.07844 0.54536 0.2902 0.0
H601 H 0.03701 0.54131 0.30809 0.0
H602 H 0.98445 0.54318 0.49704 0.0
H603 H 0.998 0.53955 0.39362 0.0
H604 H 0.13172 0.56519 0.61027 0.0
H605 H 0.14695 0.56319 0.50773 0.0
H606 H 0.09176 0.57615 0.68135 0.0
H607 H 0.05103 0.56759 0.70287 0.0
C608 C 0.04392 0.87826 0.92235 0.0
C609 C 0.01922 0.87364 0.9876 0.0
C610 C 0.00534 0.92392 0.96824 0.0
C611 C 0.02776 0.92772 0.89758 0.0
N612 N 0.06744 0.90885 0.80323 0.0
N613 N 0.9739 0.8905 0.06771 0.0
C614 C 0.04687 0.90498 0.87357 0.0
C615 C 0.99932 0.8961 0.00958 0.0
N616 N 0.06488 0.85724 0.90816 0.0
N617 N 0.98985 0.9469 0.99573 0.0
H618 H 0.96875 0.87038 0.09929 0.0
H619 H 0.95645 0.90506 0.08038 0.0
H620 H 0.99308 0.96744 0.96564 0.0
H621 H 0.97565 0.9462 0.05164 0.0
H622 H 0.08549 0.86021 0.86771 0.0
H623 H 0.06287 0.83714 0.94129 0.0
H624 H 0.07902 0.89229 0.7762 0.0
H625 H 0.07189 0.92862 0.76906 0.0
C626 C 0.65475 0.03524 0.87244 0.0
C627 C 0.65003 0.05075 0.94313 0.0
C628 C 0.59308 0.05376 0.92149 0.0
C629 C 0.59722 0.03492 0.85761 0.0
N630 N 0.63163 0.00388 0.78142 0.0
N631 N 0.61478 0.07302 0.04094 0.0
C632 C 0.62791 0.02451 0.83581 0.0
C633 C 0.61924 0.05983 0.96903 0.0
N634 N 0.68507 0.03135 0.83894 0.0
N635 N 0.56413 0.06541 0.93753 0.0
H636 H 0.6335 0.0781 0.07642 0.0
H637 H 0.59239 0.0773 0.06833 0.0
H638 H 0.54398 0.06006 0.9075 0.0
H639 H 0.56052 0.08162 0.97701 0.0
H640 H 0.68992 0.02297 0.78189 0.0
H641 H 0.70545 0.03925 0.86373 0.0
H642 H 0.65258 0.99291 0.7728 0.0
H643 H 0.61348 0.99645 0.74789 0.0
C644 C 0.49473 0.58453 0.04019 0.0
C645 C 0.48654 0.6122 0.0092 0.0
C646 C 0.48687 0.59659 0.86859 0.0
C647 C 0.49267 0.56833 0.90063 0.0
N648 N 0.49527 0.5341 0.01944 0.0
N649 N 0.46819 0.64317 0.89841 0.0
C650 C 0.49452 0.5619 0.98729 0.0
C651 C 0.48046 0.61776 0.92474 0.0
N652 N 0.50415 0.5801 0.11892 0.0
N653 N 0.48948 0.60378 0.78469 0.0
H654 H 0.46321 0.65918 0.93799 0.0
H655 H 0.4602 0.64727 0.83955 0.0
H656 H 0.49516 0.58932 0.74091 0.0
H657 H 0.4891 0.62478 0.75851 0.0
H658 H 0.51391 0.56121 0.14133 0.0
H659 H 0.50485 0.59611 0.15977 0.0
H660 H 0.49317 0.52796 0.08299 0.0
H661 H 0.49491 0.51686 0.98289 0.0
C662 C 0.88255 0.42294 0.98927 0.0
C663 C 0.8955 0.40408 0.04972 0.0
C664 C 0.94966 0.41807 0.98785 0.0
C665 C 0.93625 0.43553 0.92521 0.0
N666 N 0.89032 0.44628 0.85053 0.0
N667 N 0.94068 0.3791 0.09659 0.0
C668 C 0.90279 0.43535 0.921 0.0
C669 C 0.92893 0.40015 0.04579 0.0
N670 N 0.85147 0.43058 -0.00081 0.0
N671 N 0.98192 0.41942 0.99394 0.0
H672 H 0.92595 0.36548 0.13882 0.0
H673 H 0.96446 0.37348 0.09165 0.0
H674 H 0.99773 0.43212 0.95201 0.0
H675 H 0.99274 0.40954 0.04366 0.0
H676 H 0.84223 0.44658 0.96071 0.0
H677 H 0.8358 0.42336 0.05034 0.0
H678 H 0.86609 0.44415 0.84146 0.0
H679 H 0.90472 0.45424 0.79762 0.0
C680 C 0.13131 0.12992 0.07668 0.0
C681 C 0.1095 0.15224 0.08417 0.0
C682 C 0.06951 0.12275 0.02572 0.0
C683 C 0.09322 0.10348 0.00234 0.0
N684 N 0.14922 0.09258 0.99251 0.0
N685 N 0.05973 0.17197 0.04696 0.0
C686 C 0.12492 0.10804 0.02417 0.0
C687 C 0.07908 0.14928 0.0532 0.0
N688 N 0.15724 0.12867 0.12233 0.0
N689 N 0.03783 0.1155 0.02339 0.0
H690 H 0.0667 0.19237 0.06166 0.0
H691 H 0.03839 0.17115 0.01838 0.0
H692 H 0.02979 0.09545 0.00819 0.0
H693 H 0.01972 0.12814 0.04588 0.0
H694 H 0.17213 0.11138 0.12339 0.0
H695 H 0.16163 0.14294 0.1665 0.0
H696 H 0.1731 0.09721 0.00141 0.0
H697 H 0.14601 0.07724 0.95065 0.0
C698 C 0.3886 0.01764 0.89843 0.0
C699 C 0.38964 0.01091 0.98513 0.0
C700 C 0.44736 0.00353 0.96406 0.0
C701 C 0.44601 0.00882 0.87683 0.0
N702 N 0.4144 0.01588 0.75946 0.0
N703 N 0.41844 0.99297 0.09987 0.0
C704 C 0.41634 0.01451 0.84356 0.0
C705 C 0.41857 0.00238 0.01764 0.0
N706 N 0.36127 0.02777 0.86876 0.0
N707 N 0.47636 0.00112 0.99613 0.0
H708 H 0.39805 0.99242 0.14137 0.0
H709 H 0.43778 0.98356 0.1258 0.0
H710 H 0.49797 0.00229 0.95921 0.0
H711 H 0.47938 0.00044 0.05939 0.0
H712 H 0.35998 0.0364 0.80788 0.0
H713 H 0.34018 0.02923 0.90662 0.0
H714 H 0.39292 0.01666 0.73171 0.0
H715 H 0.43405 0.01378 0.71715 0.0
C716 C 0.4563 0.38764 0.92751 0.0
C717 C 0.44829 0.39311 0.01131 0.0
C718 C 0.45311 0.44478 0.97212 0.0
C719 C 0.46571 0.43925 0.89172 0.0
N720 N 0.47921 0.40614 0.79005 0.0
N721 N 0.44166 0.42666 0.11617 0.0
C722 C 0.46701 0.41084 0.8683 0.0
C723 C 0.44706 0.42165 0.03433 0.0
N724 N 0.45324 0.36033 0.90476 0.0
N725 N 0.44653 0.47215 0.98837 0.0
H726 H 0.437 0.41038 0.16392 0.0
H727 H 0.44419 0.44685 0.13772 0.0
H728 H 0.45008 0.48935 0.943 0.0
H729 H 0.43466 0.47741 0.04361 0.0
H730 H 0.45586 0.35506 0.84351 0.0
H731 H 0.44565 0.34296 0.94706 0.0
H732 H 0.48423 0.386 0.77139 0.0
H733 H 0.48551 0.42274 0.7441 0.0
C734 C 0.12682 0.50265 0.88482 0.0
C735 C 0.12275 0.50182 0.9725 0.0
C736 C 0.06455 0.49728 0.96991 0.0
C737 C 0.06836 0.49963 0.88166 0.0
N738 N 0.10249 0.50972 0.75434 0.0
N739 N 0.08991 0.50408 0.09775 0.0
C740 C 0.09937 0.50377 0.83875 0.0
C741 C 0.09195 0.50095 0.0146 0.0
N742 N 0.15681 0.50159 0.84601 0.0
N743 N 0.03528 0.48974 0.01071 0.0
H744 H 0.06862 0.5059 0.13439 0.0
H745 H 0.06862 0.5059 0.13439 0.0
H746 H 0.01477 0.48621 0.98017 0.0
H747 H 0.03171 0.48429 0.07446 0.0
H748 H 0.16126 0.49892 0.78302 0.0
H749 H 0.17733 0.50153 0.87824 0.0
H750 H 0.12413 0.51588 0.72049 0.0
H751 H 0.08302 0.51088 0.71843 0.0
C752 C 0.91841 0.8603 0.46247 0.0
C753 C 0.9363 0.85592 0.38711 0.0
C754 C 0.96102 0.90412 0.38189 0.0
C755 C 0.94836 0.90593 0.46466 0.0
N756 N 0.91352 0.88749 0.58381 0.0
N757 N 0.97593 0.87294 0.2753 0.0
C758 C 0.92603 0.88476 0.50449 0.0
C759 C 0.95739 0.87792 0.3456 0.0
N760 N 0.89462 0.84081 0.4938 0.0
N761 N 0.97717 0.92729 0.33911 0.0
H762 H 0.97436 0.854 0.24637 0.0
H763 H 0.99456 0.88681 0.24853 0.0
H764 H 0.98055 0.94666 0.36517 0.0
H765 H 0.98442 0.92823 0.27587 0.0
H766 H 0.87899 0.84362 0.5454 0.0
H767 H 0.88889 0.82276 0.46349 0.0
H768 H 0.89996 0.87141 0.62028 0.0
H769 H 0.91775 0.90581 0.61439 0.0
C770 C 0.66815 0.02451 0.51368 0.0
C771 C 0.67047 0.0135 0.43476 0.0
C772 C 0.61717 0.9896 0.46866 0.0
C773 C 0.61303 0.00469 0.54091 0.0
N774 N 0.63312 0.04128 0.62276 0.0
N775 N 0.645 0.9883 0.33187 0.0
C776 C 0.63813 0.02344 0.56095 0.0
C777 C 0.64455 0.99641 0.41103 0.0
N778 N 0.69482 0.0359 0.54382 0.0
N779 N 0.59463 0.96933 0.45395 0.0
H780 H 0.66408 0.99329 0.2872 0.0
H781 H 0.62534 0.97866 0.30831 0.0
H782 H 0.57376 0.96471 0.49295 0.0
H783 H 0.59782 0.95564 0.40681 0.0
H784 H 0.69514 0.0418 0.60439 0.0
H785 H 0.71735 0.03647 0.51125 0.0
H786 H 0.64958 0.05745 0.63344 0.0
H787 H 0.6116 0.04158 0.65921 0.0
C788 C 0.56066 0.59548 0.44435 0.0
C789 C 0.56004 0.62277 0.47666 0.0
C790 C 0.56646 0.60042 0.61619 0.0
C791 C 0.56522 0.57328 0.58415 0.0
N792 N 0.57371 0.54565 0.46739 0.0
N793 N 0.57215 0.65203 0.58621 0.0
C794 C 0.56691 0.5712 0.49765 0.0
C795 C 0.56652 0.62548 0.56037 0.0
N796 N 0.5526 0.59222 0.36549 0.0
N797 N 0.56543 0.60211 0.70012 0.0
H798 H 0.57244 0.67059 0.54588 0.0
H799 H 0.57936 0.65544 0.64473 0.0
H800 H 0.56649 0.58411 0.74192 0.0
H801 H 0.56217 0.62105 0.72834 0.0
H802 H 0.54912 0.5723 0.34283 0.0
H803 H 0.54687 0.60912 0.32442 0.0
H804 H 0.57757 0.54299 0.4042 0.0
H805 H 0.579 0.52801 0.50673 0.0
C806 C 0.84955 0.47503 0.59325 0.0
C807 C 0.85727 0.46245 0.51822 0.0
C808 C 0.91332 0.47826 0.52014 0.0
C809 C 0.90688 0.48544 0.60299 0.0
N810 N 0.86811 0.4928 0.71774 0.0
N811 N 0.89612 0.45238 0.40753 0.0
C812 C 0.87468 0.48509 0.63887 0.0
C813 C 0.88898 0.46454 0.48023 0.0
N814 N 0.81816 0.47733 0.62039 0.0
N815 N 0.94266 0.48522 0.47905 0.0
H816 H 0.87875 0.44366 0.37355 0.0
H817 H 0.91937 0.44962 0.38292 0.0
H818 H 0.9608 0.49589 0.50614 0.0
H819 H 0.948 0.48316 0.41599 0.0
H820 H 0.81051 0.48881 0.67002 0.0
H821 H 0.79944 0.46976 0.58839 0.0
H822 H 0.84586 0.48944 0.75096 0.0
H823 H 0.88518 0.50127 0.75282 0.0
loop_
_geom_bond_atom_site_label_1
_geom_bond_atom_site_label_2
_geom_bond_distance
_geom_bond_site_symmetry_2
_ccdc_geom_bond_type
P0 O11 1.490 . S
P0 C14 1.812 . S
P0 C20 1.803 . S
P0 C26 1.819 . S
H1 C15 0.941 . S
H2 C16 0.939 . S
H3 C18 0.940 . S
H4 C19 0.940 . S
H5 C21 0.939 . S
H6 C22 0.942 . S
H7 C24 0.940 . S
H8 C25 0.939 . S
H9 C27 0.941 . S
H10 C31 0.939 . S
O11 P0 1.490 . S
H12 C28 0.939 . S
H13 C30 0.940 . S
C14 P0 1.812 . S
C14 C15 1.389 . S
C14 C19 1.391 . S
C15 H1 0.941 . S
C15 C14 1.389 . S
C15 C16 1.397 . S
C16 H2 0.939 . S
C16 C15 1.397 . S
C16 C17 1.378 . S
C17 C16 1.378 . S
C17 C18 1.378 . S
C18 H3 0.940 . S
C18 C17 1.378 . S
C18 C19 1.396 . S
C19 H4 0.940 . S
C19 C14 1.391 . S
C19 C18 1.396 . S
C20 P0 1.803 . S
C20 C21 1.378 . S
C20 C25 1.400 . S
C21 H5 0.939 . S
C21 C20 1.378 . S
C21 C22 1.361 . S
C22 H6 0.942 . S
C22 C21 1.361 . S
C22 C23 1.369 . S
C23 C22 1.369 . S
C23 C24 1.404 . S
C24 H7 0.940 . S
C24 C23 1.404 . S
C24 C25 1.389 . S
C25 H8 0.939 . S
C25 C20 1.400 . S
C25 C24 1.389 . S
C26 P0 1.819 . S
C26 C27 1.391 . S
C26 C31 1.391 . S
C27 H9 0.941 . S
C27 C26 1.391 . S
C27 C28 1.396 . S
C28 H12 0.939 . S
C28 C27 1.396 . S
C28 C29 1.397 1_554 S
C29 C28 1.397 1_556 S
C29 C30 1.385 . S
C30 H13 0.940 . S
C30 C29 1.385 . S
C30 C31 1.388 1_556 S
C31 H10 0.939 . S
C31 C26 1.391 . S
C31 C30 1.388 1_554 S
P32 O43 1.490 1_655 S
P32 C46 1.812 1_556 S
P32 C52 1.803 . S
P32 C58 1.819 . S
H33 C47 0.941 . S
H34 C48 0.939 . S
H35 C50 0.940 . S
H36 C51 0.940 . S
H37 C53 0.939 . S
H38 C54 0.942 . S
H39 C56 0.940 1_554 S
H40 C57 0.939 . S
H41 C59 0.941 . S
H42 C63 0.939 . S
O43 P32 1.490 1_455 S
H44 C60 0.939 . S
H45 C62 0.940 . S
C46 P32 1.812 1_554 S
C46 C47 1.389 . S
C46 C51 1.391 . S
C47 H33 0.941 . S
C47 C46 1.389 . S
C47 C48 1.397 . S
C48 H34 0.939 . S
C48 C47 1.397 . S
C48 C49 1.378 . S
C49 C48 1.378 . S
C49 C50 1.378 . S
C50 H35 0.940 . S
C50 C49 1.378 . S
C50 C51 1.396 . S
C51 H36 0.940 . S
C51 C46 1.391 . S
C51 C50 1.396 . S
C52 P32 1.803 . S
C52 C53 1.378 . S
C52 C57 1.400 1_556 S
C53 H37 0.939 . S
C53 C52 1.378 . S
C53 C54 1.361 . S
C54 H38 0.942 . S
C54 C53 1.361 . S
C54 C55 1.369 . S
C55 C54 1.369 . S
C55 C56 1.404 . S
C56 H39 0.940 1_556 S
C56 C55 1.404 . S
C56 C57 1.389 1_556 S
C57 H40 0.939 . S
C57 C52 1.400 1_554 S
C57 C56 1.389 1_554 S
C58 P32 1.819 . S
C58 C59 1.391 . S
C58 C63 1.391 . S
C59 H41 0.941 . S
C59 C58 1.391 . S
C59 C60 1.396 . S
C60 H44 0.939 . S
C60 C59 1.396 . S
C60 C61 1.397 . S
C61 C60 1.397 . S
C61 C62 1.385 . S
C62 H45 0.940 . S
C62 C61 1.385 . S
C62 C63 1.388 . S
C63 H42 0.939 . S
C63 C58 1.391 . S
C63 C62 1.388 . S
P64 O75 1.490 . S
P64 C78 1.812 . S
P64 C84 1.803 . S
P64 C90 1.819 . S
H65 C79 0.941 . S
H66 C80 0.939 . S
H67 C82 0.940 . S
H68 C83 0.951 . S
H69 C85 0.939 . S
H70 C86 0.942 1_556 S
H71 C88 0.940 . S
H72 C89 0.957 . S
H73 C91 0.941 . S
H74 C95 0.928 1_565 S
O75 P64 1.490 . S
H76 C92 0.939 . S
H77 C94 0.940 . S
C78 P64 1.812 . S
C78 C79 1.389 . S
C78 C83 1.376 1_545 S
C79 H65 0.941 . S
C79 C78 1.389 . S
C79 C80 1.397 . S
C80 H66 0.939 . S
C80 C79 1.397 . S
C80 C81 1.378 . S
C81 C80 1.378 . S
C81 C82 1.378 1_545 S
C82 H67 0.940 . S
C82 C81 1.378 1_565 S
C82 C83 1.401 . S
C83 H68 0.951 . S
C83 C78 1.376 1_565 S
C83 C82 1.401 . S
C84 P64 1.803 . S
C84 C85 1.378 . S
C84 C89 1.369 1_545 S
C85 H69 0.939 . S
C85 C84 1.378 . S
C85 C86 1.361 . S
C86 H70 0.942 1_554 S
C86 C85 1.361 . S
C86 C87 1.369 . S
C87 C86 1.369 . S
C87 C88 1.404 1_545 S
C88 H71 0.940 . S
C88 C87 1.404 1_565 S
C88 C89 1.404 . S
C89 H72 0.957 . S
C89 C84 1.369 1_565 S
C89 C88 1.404 . S
C90 P64 1.819 . S
C90 C91 1.391 . S
C90 C95 1.391 1_554 S
C91 H73 0.941 . S
C91 C90 1.391 . S
C91 C92 1.396 1_554 S
C92 H76 0.939 . S
C92 C91 1.396 1_556 S
C92 C93 1.397 . S
C93 C92 1.397 . S
C93 C94 1.385 1_545 S
C94 H77 0.940 . S
C94 C93 1.385 1_565 S
C94 C95 1.388 1_565 S
C95 H74 0.928 1_545 S
C95 C90 1.391 1_556 S
C95 C94 1.388 1_545 S
P96 O107 1.490 . S
P96 C110 1.812 . S
P96 C116 1.803 . S
P96 C122 1.819 . S
H97 C111 0.941 . S
H98 C112 0.939 . S
H99 C114 0.940 . S
H100 C115 0.940 . S
H101 C117 0.939 . S
H102 C118 0.942 . S
H103 C120 0.940 . S
H104 C121 0.939 . S
H105 C123 0.941 . S
H106 C127 0.939 . S
O107 P96 1.490 . S
H108 C124 0.939 1_554 S
H109 C126 0.940 . S
C110 P96 1.812 . S
C110 C111 1.389 . S
C110 C115 1.391 . S
C111 H97 0.941 . S
C111 C110 1.389 . S
C111 C112 1.397 . S
C112 H98 0.939 . S
C112 C111 1.397 . S
C112 C113 1.378 . S
C113 C112 1.378 . S
C113 C114 1.378 . S
C114 H99 0.940 . S
C114 C113 1.378 . S
C114 C115 1.396 . S
C115 H100 0.940 . S
C115 C110 1.391 . S
C115 C114 1.396 . S
C116 P96 1.803 . S
C116 C117 1.378 . S
C116 C121 1.400 . S
C117 H101 0.939 . S
C117 C116 1.378 . S
C117 C118 1.361 . S
C118 H102 0.942 . S
C118 C117 1.361 . S
C118 C119 1.369 . S
C119 C118 1.369 . S
C119 C120 1.404 . S
C120 H103 0.940 . S
C120 C119 1.404 . S
C120 C121 1.389 . S
C121 H104 0.939 . S
C121 C116 1.400 . S
C121 C120 1.389 . S
C122 P96 1.819 . S
C122 C123 1.391 . S
C122 C127 1.391 1_554 S
C123 H105 0.941 . S
C123 C122 1.391 . S
C123 C124 1.396 1_554 S
C124 H108 0.939 1_556 S
C124 C123 1.396 1_556 S
C124 C125 1.397 . S
C125 C124 1.397 . S
C125 C126 1.385 . S
C126 H109 0.940 . S
C126 C125 1.385 . S
C126 C127 1.388 . S
C127 H106 0.939 . S
C127 C122 1.391 1_556 S
C127 C126 1.388 . S
P128 O139 1.490 . S
P128 C142 1.812 . S
P128 C148 1.803 . S
P128 C154 1.819 . S
H129 C143 0.941 . S
H130 C144 0.939 . S
H131 C146 0.940 . S
H132 C147 0.940 . S
H133 C149 0.939 . S
H134 C150 0.942 . S
H135 C152 0.940 . S
H136 C153 0.939 . S
H137 C155 0.941 . S
H138 C159 0.939 . S
O139 P128 1.490 . S
H140 C156 0.939 . S
H141 C158 0.940 . S
C142 P128 1.812 . S
C142 C143 1.389 . S
C142 C147 1.391 . S
C143 H129 0.941 . S
C143 C142 1.389 . S
C143 C144 1.397 . S
C144 H130 0.939 . S
C144 C143 1.397 . S
C144 C145 1.378 . S
C145 C144 1.378 . S
C145 C146 1.378 . S
C146 H131 0.940 . S
C146 C145 1.378 . S
C146 C147 1.396 . S
C147 H132 0.940 . S
C147 C142 1.391 . S
C147 C146 1.396 . S
C148 P128 1.803 . S
C148 C149 1.378 . S
C148 C153 1.400 . S
C149 H133 0.939 . S
C149 C148 1.378 . S
C149 C150 1.361 . S
C150 H134 0.942 . S
C150 C149 1.361 . S
C150 C151 1.369 . S
C151 C150 1.369 . S
C151 C152 1.404 . S
C152 H135 0.940 . S
C152 C151 1.404 . S
C152 C153 1.389 . S
C153 H136 0.939 . S
C153 C148 1.400 . S
C153 C152 1.389 . S
C154 P128 1.819 . S
C154 C155 1.391 . S
C154 C159 1.391 . S
C155 H137 0.941 . S
C155 C154 1.391 . S
C155 C156 1.396 . S
C156 H140 0.939 . S
C156 C155 1.396 . S
C156 C157 1.397 . S
C157 C156 1.397 . S
C157 C158 1.385 . S
C158 H141 0.940 . S
C158 C157 1.385 . S
C158 C159 1.388 . S
C159 H138 0.939 . S
C159 C154 1.391 . S
C159 C158 1.388 . S
P160 O171 1.490 . S
P160 C174 1.812 . S
P160 C180 1.803 . S
P160 C186 1.819 . S
H161 C175 0.941 . S
H162 C176 0.939 . S
H163 C178 0.940 . S
H164 C179 0.940 . S
H165 C181 0.939 . S
H166 C182 0.942 . S
H167 C184 0.940 . S
H168 C185 0.939 . S
H169 C187 0.941 . S
H170 C191 0.939 . S
O171 P160 1.490 . S
H172 C188 0.939 . S
H173 C190 0.940 . S
C174 P160 1.812 . S
C174 C175 1.389 . S
C174 C179 1.391 . S
C175 H161 0.941 . S
C175 C174 1.389 . S
C175 C176 1.397 . S
C176 H162 0.939 . S
C176 C175 1.397 . S
C176 C177 1.378 . S
C177 C176 1.378 . S
C177 C178 1.378 . S
C178 H163 0.940 . S
C178 C177 1.378 . S
C178 C179 1.396 . S
C179 H164 0.940 . S
C179 C174 1.391 . S
C179 C178 1.396 . S
C180 P160 1.803 . S
C180 C181 1.378 . S
C180 C185 1.400 . S
C181 H165 0.939 . S
C181 C180 1.378 . S
C181 C182 1.361 . S
C182 H166 0.942 . S
C182 C181 1.361 . S
C182 C183 1.369 . S
C183 C182 1.369 . S
C183 C184 1.404 . S
C184 H167 0.940 . S
C184 C183 1.404 . S
C184 C185 1.389 . S
C185 H168 0.939 . S
C185 C180 1.400 . S
C185 C184 1.389 . S
C186 P160 1.819 . S
C186 C187 1.391 . S
C186 C191 1.391 . S
C187 H169 0.941 . S
C187 C186 1.391 . S
C187 C188 1.396 . S
C188 H172 0.939 . S
C188 C187 1.396 . S
C188 C189 1.397 . S
C189 C188 1.397 . S
C189 C190 1.385 . S
C190 H173 0.940 . S
C190 C189 1.385 . S
C190 C191 1.388 . S
C191 H170 0.939 . S
C191 C186 1.391 . S
C191 C190 1.388 . S
P192 O203 1.490 . S
P192 C206 1.812 . S
P192 C212 1.803 . S
P192 C218 1.819 . S
H193 C207 0.941 . S
H194 C208 0.939 . S
H195 C210 0.940 . S
H196 C211 0.944 . S
H197 C213 0.939 . S
H198 C214 0.942 . S
H199 C216 0.940 . S
H200 C217 0.955 . S
H201 C219 0.941 . S
H202 C223 0.933 1_565 S
O203 P192 1.490 . S
H204 C220 0.939 . S
H205 C222 0.940 . S
C206 P192 1.812 . S
C206 C207 1.389 . S
C206 C211 1.383 1_545 S
C207 H193 0.941 . S
C207 C206 1.389 . S
C207 C208 1.397 . S
C208 H194 0.939 . S
C208 C207 1.397 . S
C208 C209 1.378 . S
C209 C208 1.378 . S
C209 C210 1.378 1_545 S
C210 H195 0.940 . S
C210 C209 1.378 1_565 S
C210 C211 1.400 . S
C211 H196 0.944 . S
C211 C206 1.383 1_565 S
C211 C210 1.400 . S
C212 P192 1.803 . S
C212 C213 1.378 . S
C212 C217 1.377 1_545 S
C213 H197 0.939 . S
C213 C212 1.378 . S
C213 C214 1.361 . S
C214 H198 0.942 . S
C214 C213 1.361 . S
C214 C215 1.369 . S
C215 C214 1.369 . S
C215 C216 1.404 1_545 S
C216 H199 0.940 . S
C216 C215 1.404 1_565 S
C216 C217 1.397 . S
C217 H200 0.955 . S
C217 C212 1.377 1_565 S
C217 C216 1.397 . S
C218 P192 1.819 . S
C218 C219 1.391 . S
C218 C223 1.391 . S
C219 H201 0.941 . S
C219 C218 1.391 . S
C219 C220 1.396 . S
C220 H204 0.939 . S
C220 C219 1.396 . S
C220 C221 1.397 . S
C221 C220 1.397 . S
C221 C222 1.385 1_545 S
C222 H205 0.940 . S
C222 C221 1.385 1_565 S
C222 C223 1.388 1_565 S
C223 H202 0.933 1_545 S
C223 C218 1.391 . S
C223 C222 1.388 1_545 S
P224 O235 1.490 . S
P224 C238 1.812 . S
P224 C244 1.803 . S
P224 C250 1.819 . S
H225 C239 0.941 . S
H226 C240 0.939 . S
H227 C242 0.940 . S
H228 C243 0.940 . S
H229 C245 0.939 . S
H230 C246 0.942 . S
H231 C248 0.940 . S
H232 C249 0.939 . S
H233 C251 0.941 . S
H234 C255 0.939 . S
O235 P224 1.490 . S
H236 C252 0.939 . S
H237 C254 0.940 . S
C238 P224 1.812 . S
C238 C239 1.389 . S
C238 C243 1.391 . S
C239 H225 0.941 . S
C239 C238 1.389 . S
C239 C240 1.397 . S
C240 H226 0.939 . S
C240 C239 1.397 . S
C240 C241 1.378 . S
C241 C240 1.378 . S
C241 C242 1.378 . S
C242 H227 0.940 . S
C242 C241 1.378 . S
C242 C243 1.396 . S
C243 H228 0.940 . S
C243 C238 1.391 . S
C243 C242 1.396 . S
C244 P224 1.803 . S
C244 C245 1.378 . S
C244 C249 1.400 . S
C245 H229 0.939 . S
C245 C244 1.378 . S
C245 C246 1.361 . S
C246 H230 0.942 . S
C246 C245 1.361 . S
C246 C247 1.369 . S
C247 C246 1.369 . S
C247 C248 1.404 . S
C248 H231 0.940 . S
C248 C247 1.404 . S
C248 C249 1.389 . S
C249 H232 0.939 . S
C249 C244 1.400 . S
C249 C248 1.389 . S
C250 P224 1.819 . S
C250 C251 1.391 . S
C250 C255 1.391 . S
C251 H233 0.941 . S
C251 C250 1.391 . S
C251 C252 1.396 . S
C252 H236 0.939 . S
C252 C251 1.396 . S
C252 C253 1.397 . S
C253 C252 1.397 . S
C253 C254 1.385 . S
C254 H237 0.940 . S
C254 C253 1.385 . S
C254 C255 1.388 . S
C255 H234 0.939 . S
C255 C250 1.391 . S
C255 C254 1.388 . S
C256 O272 1.251 1_455 S
C256 O274 1.254 . S
N257 C258 1.333 . S
N257 C262 1.307 . S
N257 Zn263 2.020 1_655 S
C258 N257 1.333 . S
C258 C259 1.379 . S
C258 H276 0.966 . S
C259 C258 1.379 . S
C259 C260 1.390 . S
C259 H286 0.949 . S
C260 C259 1.390 . S
C260 C261 1.357 . S
C261 C260 1.357 . S
C261 C262 1.370 . S
C261 H287 0.950 . S
C262 N257 1.307 . S
C262 C261 1.370 . S
C262 H280 0.948 1_565 S
Zn263 N257 2.020 1_455 S
Zn263 O272 2.039 1_455 S
Zn263 O278 2.034 . S
Zn263 O282 2.025 1_565 S
Zn263 O284 2.024 1_465 S
C264 O283 1.246 . S
C264 O284 1.250 . S
N265 C266 1.307 . S
N265 C267 1.333 . S
N265 Zn271 2.020 . S
C266 N265 1.307 . S
C266 C270 1.370 1_556 S
C266 H277 0.948 1_545 S
C267 N265 1.333 . S
C267 C268 1.379 . S
C267 H275 0.952 . S
C268 C267 1.379 . S
C268 C269 1.390 1_556 S
C268 H288 0.949 . S
C269 C268 1.390 1_554 S
C269 C270 1.357 . S
C270 C266 1.370 1_554 S
C270 C269 1.357 . S
C270 H289 0.950 . S
Zn271 N265 2.020 . S
Zn271 O274 2.025 1_545 S
Zn271 O279 2.024 . S
Zn271 O281 2.039 . S
Zn271 O283 2.034 1_455 S
O272 C256 1.251 1_655 S
O272 Zn263 2.039 1_655 S
C273 O278 1.246 . S
C273 O279 1.250 1_565 S
O274 C256 1.254 . S
O274 Zn271 2.025 1_565 S
H275 C267 0.952 . S
H276 C258 0.966 . S
H277 C266 0.948 1_565 S
O278 Zn263 2.034 . S
O278 C273 1.246 . S
O279 Zn271 2.024 . S
O279 C273 1.250 1_545 S
H280 C262 0.948 1_545 S
O281 Zn271 2.039 . S
O281 C285 1.251 . S
O282 Zn263 2.025 1_545 S
O282 C285 1.254 . S
O283 C264 1.246 . S
O283 Zn271 2.034 1_655 S
O284 Zn263 2.024 1_645 S
O284 C264 1.250 . S
C285 O281 1.251 . S
C285 O282 1.254 . S
H286 C259 0.949 . S
H287 C261 0.950 . S
H288 C268 0.949 . S
H289 C270 0.950 . S
C290 O306 1.251 1_565 S
C290 O308 1.254 . S
N291 C292 1.333 . S
N291 C296 1.307 . S
N291 Zn297 2.020 . S
C292 N291 1.333 . S
C292 C293 1.379 . S
C292 H310 0.952 . S
C293 C292 1.379 . S
C293 C294 1.390 . S
C293 H320 0.949 . S
C294 C293 1.390 . S
C294 C295 1.357 . S
C295 C294 1.357 . S
C295 C296 1.370 . S
C295 H321 0.950 . S
C296 N291 1.307 . S
C296 C295 1.370 . S
C296 H314 0.948 . S
Zn297 N291 2.020 . S
Zn297 O306 2.039 . S
Zn297 O312 2.034 . S
Zn297 O316 2.025 . S
Zn297 O318 2.024 . S
C298 O317 1.246 1_545 S
C298 O318 1.249 . S
N299 C300 1.307 . S
N299 C301 1.333 . S
N299 Zn305 2.020 . S
C300 N299 1.307 . S
C300 C304 1.370 . S
C300 H311 0.948 . S
C301 N299 1.333 . S
C301 C302 1.379 . S
C301 H309 0.952 . S
C302 C301 1.379 . S
C302 C303 1.390 . S
C302 H322 0.949 . S
C303 C302 1.390 . S
C303 C304 1.357 . S
C304 C300 1.370 . S
C304 C303 1.357 . S
C304 H323 0.950 . S
Zn305 N299 2.020 . S
Zn305 O308 2.025 . S
Zn305 O313 2.024 . S
Zn305 O315 2.039 . S
Zn305 O317 2.034 . S
O306 C290 1.251 1_545 S
O306 Zn297 2.039 . S
C307 O312 1.246 1_565 S
C307 O313 1.249 . S
O308 C290 1.254 . S
O308 Zn305 2.025 . S
H309 C301 0.952 . S
H310 C292 0.952 . S
H311 C300 0.948 . S
O312 Zn297 2.034 . S
O312 C307 1.246 1_545 S
O313 Zn305 2.024 . S
O313 C307 1.249 . S
H314 C296 0.948 . S
O315 Zn305 2.039 . S
O315 C319 1.251 1_565 S
O316 Zn297 2.025 . S
O316 C319 1.254 . S
O317 C298 1.246 1_565 S
O317 Zn305 2.034 . S
O318 Zn297 2.024 . S
O318 C298 1.249 . S
C319 O315 1.251 1_545 S
C319 O316 1.254 . S
H320 C293 0.949 . S
H321 C295 0.950 . S
H322 C302 0.949 . S
H323 C304 0.950 . S
C324 O340 1.251 . S
C324 O342 1.254 . S
N325 C326 1.333 . S
N325 C330 1.307 . S
N325 Zn331 2.020 . S
C326 N325 1.333 . S
C326 C327 1.379 . S
C326 H344 0.952 . S
C327 C326 1.379 . S
C327 C328 1.390 . S
C327 H354 0.949 . S
C328 C327 1.390 . S
C328 C329 1.357 . S
C329 C328 1.357 . S
C329 C330 1.370 . S
C329 H355 0.950 . S
C330 N325 1.307 . S
C330 C329 1.370 . S
C330 H348 0.948 . S
Zn331 N325 2.020 . S
Zn331 O340 2.039 . S
Zn331 O346 2.034 . S
Zn331 O350 2.025 . S
Zn331 O352 2.024 . S
C332 O351 1.246 . S
C332 O352 1.249 . S
N333 C334 1.307 . S
N333 C335 1.333 . S
N333 Zn339 2.020 . S
C334 N333 1.307 . S
C334 C338 1.370 . S
C334 H345 0.948 . S
C335 N333 1.333 . S
C335 C336 1.379 . S
C335 H343 0.952 . S
C336 C335 1.379 . S
C336 C337 1.390 . S
C336 H356 0.949 . S
C337 C336 1.390 . S
C337 C338 1.357 . S
C338 C334 1.370 . S
C338 C337 1.357 . S
C338 H357 0.950 . S
Zn339 N333 2.020 . S
Zn339 O342 2.025 . S
Zn339 O347 2.024 . S
Zn339 O349 2.039 . S
Zn339 O351 2.034 . S
O340 C324 1.251 . S
O340 Zn331 2.039 . S
C341 O346 1.246 . S
C341 O347 1.249 . S
O342 C324 1.254 . S
O342 Zn339 2.025 . S
H343 C335 0.952 . S
H344 C326 0.952 . S
H345 C334 0.948 . S
O346 Zn331 2.034 . S
O346 C341 1.246 . S
O347 Zn339 2.024 . S
O347 C341 1.249 . S
H348 C330 0.948 . S
O349 Zn339 2.039 . S
O349 C353 1.251 . S
O350 Zn331 2.025 . S
O350 C353 1.254 . S
O351 C332 1.246 . S
O351 Zn339 2.034 . S
O352 Zn331 2.024 . S
O352 C332 1.249 . S
C353 O349 1.251 . S
C353 O350 1.254 . S
H354 C327 0.949 . S
H355 C329 0.950 . S
H356 C336 0.949 . S
H357 C338 0.950 . S
C358 O374 1.251 . S
C358 O376 1.254 . S
N359 C360 1.333 . S
N359 C364 1.307 . S
N359 Zn365 2.020 . S
C360 N359 1.333 . S
C360 C361 1.379 . S
C360 H378 0.952 . S
C361 C360 1.379 . S
C361 C362 1.390 . S
C361 H388 0.949 . S
C362 C361 1.390 . S
C362 C363 1.357 . S
C363 C362 1.357 . S
C363 C364 1.370 . S
C363 H389 0.950 . S
C364 N359 1.307 . S
C364 C363 1.370 . S
C364 H382 0.948 . S
Zn365 N359 2.020 . S
Zn365 O374 2.039 . S
Zn365 O380 2.034 1_455 S
Zn365 O384 2.025 1_455 S
Zn365 O386 2.024 . S
C366 O385 1.246 . S
C366 O386 1.249 . S
N367 C368 1.307 . S
N367 C369 1.333 . S
N367 Zn373 2.020 1_655 S
C368 N367 1.307 . S
C368 C372 1.370 . S
C368 H379 0.948 1_655 S
C369 N367 1.333 . S
C369 C370 1.379 . S
C369 H377 0.952 . S
C370 C369 1.379 . S
C370 C371 1.390 . S
C370 H390 0.949 . S
C371 C370 1.390 . S
C371 C372 1.357 . S
C372 C368 1.370 . S
C372 C371 1.357 . S
C372 H391 0.950 . S
Zn373 N367 2.020 1_455 S
Zn373 O376 2.025 . S
Zn373 O381 2.024 1_455 S
Zn373 O383 2.039 1_455 S
Zn373 O385 2.034 . S
O374 C358 1.251 . S
O374 Zn365 2.039 . S
C375 O380 1.246 . S
C375 O381 1.249 . S
O376 C358 1.254 . S
O376 Zn373 2.025 . S
H377 C369 0.952 . S
H378 C360 0.952 . S
H379 C368 0.948 1_455 S
O380 Zn365 2.034 1_655 S
O380 C375 1.246 . S
O381 Zn373 2.024 1_655 S
O381 C375 1.249 . S
H382 C364 0.948 . S
O383 Zn373 2.039 1_655 S
O383 C387 1.251 . S
O384 Zn365 2.025 1_655 S
O384 C387 1.254 . S
O385 C366 1.246 . S
O385 Zn373 2.034 . S
O386 Zn365 2.024 . S
O386 C366 1.249 . S
C387 O383 1.251 . S
C387 O384 1.254 . S
H388 C361 0.949 . S
H389 C363 0.950 . S
H390 C370 0.949 . S
H391 C372 0.950 . S
C392 C393 1.363 1_545 S
C392 C398 1.379 . S
C392 N400 1.356 . S
C393 C392 1.363 1_565 S
C393 C399 1.363 . S
C394 C395 1.363 . S
C394 C399 1.379 . S
C394 N401 1.356 . S
C395 C394 1.363 . S
C395 C398 1.363 1_565 S
N396 C398 1.356 . S
N396 H408 0.984 . S
N396 H409 0.985 . S
N397 C399 1.356 . S
N397 H402 0.984 . S
N397 H403 0.985 . S
C398 C392 1.379 . S
C398 C395 1.363 1_545 S
C398 N396 1.356 . S
C399 C393 1.363 . S
C399 C394 1.379 . S
C399 N397 1.356 . S
N400 C392 1.356 . S
N400 H406 0.984 . S
N400 H407 0.984 . S
N401 C394 1.356 . S
N401 H404 0.984 . S
N401 H405 0.985 . S
H402 N397 0.984 . S
H403 N397 0.985 . S
H404 N401 0.984 . S
H405 N401 0.985 . S
H406 N400 0.984 . S
H407 N400 0.984 . S
H408 N396 0.984 . S
H409 N396 0.985 . S
C410 C411 1.363 . S
C410 C416 1.379 . S
C410 N418 1.356 . S
C411 C410 1.363 . S
C411 C417 1.363 . S
C412 C413 1.363 . S
C412 C417 1.379 . S
C412 N419 1.356 . S
C413 C412 1.363 . S
C413 C416 1.363 . S
N414 C416 1.356 . S
N414 H426 0.984 . S
N414 H427 0.985 . S
N415 C417 1.356 . S
N415 H420 0.984 . S
N415 H421 0.985 . S
C416 C410 1.379 . S
C416 C413 1.363 . S
C416 N414 1.356 . S
C417 C411 1.363 . S
C417 C412 1.379 . S
C417 N415 1.356 . S
N418 C410 1.356 . S
N418 H424 0.984 . S
N418 H425 0.984 . S
N419 C412 1.356 . S
N419 H422 0.984 . S
N419 H423 0.985 . S
H420 N415 0.984 . S
H421 N415 0.985 . S
H422 N419 0.984 . S
H423 N419 0.985 . S
H424 N418 0.984 . S
H425 N418 0.984 . S
H426 N414 0.984 . S
H427 N414 0.985 . S
C428 C429 1.363 . S
C428 C434 1.379 . S
C428 N436 1.356 . S
C429 C428 1.363 . S
C429 C435 1.363 . S
C430 C431 1.363 . S
C430 C435 1.379 . S
C430 N437 1.356 . S
C431 C430 1.363 . S
C431 C434 1.363 . S
N432 C434 1.356 . S
N432 H444 0.984 . S
N432 H445 0.985 . S
N433 C435 1.356 . S
N433 H438 0.984 . S
N433 H439 0.985 . S
C434 C428 1.379 . S
C434 C431 1.363 . S
C434 N432 1.356 . S
C435 C429 1.363 . S
C435 C430 1.379 . S
C435 N433 1.356 . S
N436 C428 1.356 . S
N436 H442 0.984 . S
N436 H443 0.984 . S
N437 C430 1.356 . S
N437 H440 0.984 . S
N437 H441 0.985 . S
H438 N433 0.984 . S
H439 N433 0.985 . S
H440 N437 0.984 . S
H441 N437 0.985 . S
H442 N436 0.984 . S
H443 N436 0.984 . S
H444 N432 0.984 . S
H445 N432 0.985 . S
C446 C447 1.363 . S
C446 C452 1.379 . S
C446 N454 1.356 . S
C447 C446 1.363 . S
C447 C453 1.363 . S
C448 C449 1.363 . S
C448 C453 1.379 . S
C448 N455 1.356 . S
C449 C448 1.363 . S
C449 C452 1.363 . S
N450 C452 1.356 . S
N450 H462 0.984 . S
N450 H463 0.985 . S
N451 C453 1.356 . S
N451 H456 0.984 . S
N451 H457 0.985 . S
C452 C446 1.379 . S
C452 C449 1.363 . S
C452 N450 1.356 . S
C453 C447 1.363 . S
C453 C448 1.379 . S
C453 N451 1.356 . S
N454 C446 1.356 . S
N454 H460 0.984 . S
N454 H461 0.984 . S
N455 C448 1.356 . S
N455 H458 0.984 . S
N455 H459 0.985 . S
H456 N451 0.984 . S
H457 N451 0.985 . S
H458 N455 0.984 . S
H459 N455 0.985 . S
H460 N454 0.984 . S
H461 N454 0.984 . S
H462 N450 0.984 . S
H463 N450 0.985 . S
C464 C465 1.363 1_565 S
C464 C470 1.379 . S
C464 N472 1.356 1_556 S
C465 C464 1.363 1_545 S
C465 C471 1.363 . S
C466 C467 1.363 . S
C466 C471 1.379 . S
C466 N473 1.356 . S
C467 C466 1.363 . S
C467 C470 1.363 1_545 S
N468 C470 1.356 . S
N468 H480 0.984 . S
N468 H481 0.985 . S
N469 C471 1.356 . S
N469 H474 0.984 . S
N469 H475 0.985 . S
C470 C464 1.379 . S
C470 C467 1.363 1_565 S
C470 N468 1.356 . S
C471 C465 1.363 . S
C471 C466 1.379 . S
C471 N469 1.356 . S
N472 C464 1.356 1_554 S
N472 H478 0.984 . S
N472 H479 0.984 . S
N473 C466 1.356 . S
N473 H476 0.984 . S
N473 H477 0.985 . S
H474 N469 0.984 . S
H475 N469 0.985 . S
H476 N473 0.984 . S
H477 N473 0.985 . S
H478 N472 0.984 . S
H479 N472 0.984 . S
H480 N468 0.984 . S
H481 N468 0.985 . S
C482 C483 1.363 . S
C482 C488 1.379 . S
C482 N490 1.356 . S
C483 C482 1.363 . S
C483 C489 1.363 1_556 S
C484 C485 1.363 . S
C484 C489 1.379 1_556 S
C484 N491 1.356 . S
C485 C484 1.363 . S
C485 C488 1.363 . S
N486 C488 1.356 . S
N486 H498 0.984 . S
N486 H499 0.985 . S
N487 C489 1.356 . S
N487 H492 0.984 . S
N487 H493 0.985 . S
C488 C482 1.379 . S
C488 C485 1.363 . S
C488 N486 1.356 . S
C489 C483 1.363 1_554 S
C489 C484 1.379 1_554 S
C489 N487 1.356 . S
N490 C482 1.356 . S
N490 H496 0.984 . S
N490 H497 0.984 . S
N491 C484 1.356 . S
N491 H494 0.984 . S
N491 H495 0.985 1_556 S
H492 N487 0.984 . S
H493 N487 0.985 . S
H494 N491 0.984 . S
H495 N491 0.985 1_554 S
H496 N490 0.984 . S
H497 N490 0.984 . S
H498 N486 0.984 . S
H499 N486 0.985 . S
C500 C501 1.363 1_556 S
C500 C506 1.379 . S
C500 N508 1.356 1_556 S
C501 C500 1.363 1_554 S
C501 C507 1.363 . S
C502 C503 1.363 . S
C502 C507 1.379 1_556 S
C502 N509 1.356 . S
C503 C502 1.363 . S
C503 C506 1.363 . S
N504 C506 1.356 . S
N504 H516 0.984 . S
N504 H517 0.985 . S
N505 C507 1.356 . S
N505 H510 0.984 . S
N505 H511 0.985 . S
C506 C500 1.379 . S
C506 C503 1.363 . S
C506 N504 1.356 . S
C507 C501 1.363 . S
C507 C502 1.379 1_554 S
C507 N505 1.356 . S
N508 C500 1.356 1_554 S
N508 H514 0.984 1_554 S
N508 H515 0.984 . S
N509 C502 1.356 . S
N509 H512 0.984 . S
N509 H513 0.985 . S
H510 N505 0.984 . S
H511 N505 0.985 . S
H512 N509 0.984 . S
H513 N509 0.985 . S
H514 N508 0.984 1_556 S
H515 N508 0.984 . S
H516 N504 0.984 . S
H517 N504 0.985 . S
C518 C519 1.363 . S
C518 C524 1.379 . S
C518 N526 1.356 1_556 S
C519 C518 1.363 . S
C519 C525 1.363 . S
C520 C521 1.363 . S
C520 C525 1.379 . S
C520 N527 1.356 . S
C521 C520 1.363 . S
C521 C524 1.363 . S
N522 C524 1.356 . S
N522 H534 0.968 1_655 S
N522 H535 0.985 . S
N523 C525 1.356 . S
N523 H528 0.984 . S
N523 H529 0.985 . S
C524 C518 1.379 . S
C524 C521 1.363 . S
C524 N522 1.356 . S
C525 C519 1.363 . S
C525 C520 1.379 . S
C525 N523 1.356 . S
N526 C518 1.356 1_554 S
N526 H532 0.984 . S
N526 H533 0.984 . S
N527 C520 1.356 . S
N527 H530 0.984 . S
N527 H531 0.985 . S
H528 N523 0.984 . S
H529 N523 0.985 . S
H530 N527 0.984 . S
H531 N527 0.985 . S
H532 N526 0.984 . S
H533 N526 0.984 . S
H534 N522 0.968 1_455 S
H535 N522 0.985 . S
C536 C537 1.363 . S
C536 C542 1.379 . S
C536 N544 1.356 . S
C537 C536 1.363 . S
C537 C543 1.363 . S
C538 C539 1.363 . S
C538 C543 1.379 . S
C538 N545 1.356 . S
C539 C538 1.363 . S
C539 C542 1.363 . S
N540 C542 1.356 . S
N540 H552 0.984 . S
N540 H553 0.985 . S
N541 C543 1.356 . S
N541 H546 0.984 . S
N541 H547 0.985 . S
C542 C536 1.379 . S
C542 C539 1.363 . S
C542 N540 1.356 . S
C543 C537 1.363 . S
C543 C538 1.379 . S
C543 N541 1.356 . S
N544 C536 1.356 . S
N544 H550 0.984 . S
N544 H551 0.984 . S
N545 C538 1.356 . S
N545 H548 0.984 . S
N545 H549 0.985 . S
H546 N541 0.984 . S
H547 N541 0.985 . S
H548 N545 0.984 . S
H549 N545 0.985 . S
H550 N544 0.984 . S
H551 N544 0.984 . S
H552 N540 0.984 . S
H553 N540 0.985 . S
C554 C555 1.351 1_545 S
C554 C560 1.379 . S
C554 N562 1.356 . S
C555 C554 1.351 1_565 S
C555 C561 1.379 . S
C556 C557 1.363 . S
C556 C561 1.379 . S
C556 N563 1.356 . S
C557 C556 1.363 . S
C557 C560 1.363 1_565 S
N558 C560 1.356 . S
N558 H570 0.984 . S
N558 H571 0.985 . S
N559 C561 1.356 . S
N559 H564 0.984 . S
N559 H565 0.985 . S
C560 C554 1.379 . S
C560 C557 1.363 1_545 S
C560 N558 1.356 . S
C561 C555 1.379 . S
C561 C556 1.379 . S
C561 N559 1.356 . S
N562 C554 1.356 . S
N562 H568 0.984 . S
N562 H569 0.984 . S
N563 C556 1.356 . S
N563 H566 0.984 . S
N563 H567 0.985 . S
H564 N559 0.984 . S
H565 N559 0.985 . S
H566 N563 0.984 . S
H567 N563 0.985 . S
H568 N562 0.984 . S
H569 N562 0.984 . S
H570 N558 0.984 . S
H571 N558 0.985 . S
C572 C573 1.363 . S
C572 C578 1.379 . S
C572 N580 1.356 . S
C573 C572 1.363 . S
C573 C579 1.363 . S
C574 C575 1.363 . S
C574 C579 1.379 . S
C574 N581 1.356 . S
C575 C574 1.363 . S
C575 C578 1.363 . S
N576 C578 1.356 . S
N576 H588 0.984 . S
N576 H589 0.985 . S
N577 C579 1.356 . S
N577 H582 0.984 . S
N577 H583 0.985 . S
C578 C572 1.379 . S
C578 C575 1.363 . S
C578 N576 1.356 . S
C579 C573 1.363 . S
C579 C574 1.379 . S
C579 N577 1.356 . S
N580 C572 1.356 . S
N580 H586 0.984 . S
N580 H587 0.984 . S
N581 C574 1.356 . S
N581 H584 0.984 . S
N581 H585 0.985 . S
H582 N577 0.984 . S
H583 N577 0.985 . S
H584 N581 0.984 . S
H585 N581 0.985 . S
H586 N580 0.984 . S
H587 N580 0.984 . S
H588 N576 0.984 . S
H589 N576 0.985 . S
C590 C591 1.363 . S
C590 C596 1.379 . S
C590 N598 1.356 . S
C591 C590 1.363 . S
C591 C597 1.363 . S
C592 C593 1.363 . S
C592 C597 1.379 . S
C592 N599 1.356 . S
C593 C592 1.363 . S
C593 C596 1.363 . S
N594 C596 1.356 . S
N594 H606 0.984 . S
N594 H607 0.985 . S
N595 C597 1.356 . S
N595 H600 0.984 . S
N595 H601 0.985 . S
C596 C590 1.379 . S
C596 C593 1.363 . S
C596 N594 1.356 . S
C597 C591 1.363 . S
C597 C592 1.379 . S
C597 N595 1.356 . S
N598 C590 1.356 . S
N598 H604 0.984 . S
N598 H605 0.984 . S
N599 C592 1.356 . S
N599 H602 0.984 . S
N599 H603 0.985 . S
H600 N595 0.984 . S
H601 N595 0.985 . S
H602 N599 0.984 . S
H603 N599 0.985 . S
H604 N598 0.984 . S
H605 N598 0.984 . S
H606 N594 0.984 . S
H607 N594 0.985 . S
C608 C609 1.363 . S
C608 C614 1.379 . S
C608 N616 1.356 . S
C609 C608 1.363 . S
C609 C615 1.363 . S
C610 C611 1.363 . S
C610 C615 1.379 . S
C610 N617 1.356 . S
C611 C610 1.363 . S
C611 C614 1.363 . S
N612 C614 1.356 1_455 S
N612 H624 0.984 . S
N612 H625 0.985 . S
N613 C615 1.356 . S
N613 H618 0.984 . S
N613 H619 0.985 . S
C614 C608 1.379 . S
C614 C611 1.363 . S
C614 N612 1.356 1_655 S
C615 C609 1.363 . S
C615 C610 1.379 . S
C615 N613 1.356 . S
N616 C608 1.356 . S
N616 H622 0.984 . S
N616 H623 0.984 . S
N617 C610 1.356 . S
N617 H620 0.984 . S
N617 H621 0.985 . S
H618 N613 0.984 . S
H619 N613 0.985 . S
H620 N617 0.984 . S
H621 N617 0.985 . S
H622 N616 0.984 . S
H623 N616 0.984 . S
H624 N612 0.984 . S
H625 N612 0.985 . S
C626 C627 1.352 1_565 S
C626 C632 1.379 . S
C626 N634 1.356 . S
C627 C626 1.352 1_545 S
C627 C633 1.380 . S
C628 C629 1.363 . S
C628 C633 1.379 . S
C628 N635 1.356 . S
C629 C628 1.363 . S
C629 C632 1.363 1_545 S
N630 C632 1.356 . S
N630 H642 0.984 . S
N630 H643 0.985 . S
N631 C633 1.356 1_554 S
N631 H636 0.984 . S
N631 H637 0.985 . S
C632 C626 1.379 . S
C632 C629 1.363 1_565 S
C632 N630 1.356 . S
C633 C627 1.380 . S
C633 C628 1.379 . S
C633 N631 1.356 1_556 S
N634 C626 1.356 . S
N634 H640 0.984 . S
N634 H641 0.984 . S
N635 C628 1.356 . S
N635 H638 0.984 . S
N635 H639 0.985 1_556 S
H636 N631 0.984 . S
H637 N631 0.985 . S
H638 N635 0.984 . S
H639 N635 0.985 1_554 S
H640 N634 0.984 . S
H641 N634 0.984 . S
H642 N630 0.984 . S
H643 N630 0.985 . S
C644 C645 1.363 . S
C644 C650 1.379 . S
C644 N652 1.356 . S
C645 C644 1.363 . S
C645 C651 1.363 . S
C646 C647 1.363 . S
C646 C651 1.379 . S
C646 N653 1.356 . S
C647 C646 1.363 . S
C647 C650 1.363 . S
N648 C650 1.356 . S
N648 H660 0.984 . S
N648 H661 0.985 . S
N649 C651 1.356 . S
N649 H654 0.984 . S
N649 H655 0.985 . S
C650 C644 1.379 . S
C650 C647 1.363 . S
C650 N648 1.356 . S
C651 C645 1.363 . S
C651 C646 1.379 . S
C651 N649 1.356 . S
N652 C644 1.356 . S
N652 H658 0.984 1_556 S
N652 H659 0.984 . S
N653 C646 1.356 . S
N653 H656 0.984 . S
N653 H657 0.985 . S
H654 N649 0.984 . S
H655 N649 0.985 . S
H656 N653 0.984 . S
H657 N653 0.985 . S
H658 N652 0.984 1_554 S
H659 N652 0.984 . S
H660 N648 0.984 . S
H661 N648 0.985 . S
C662 C663 1.363 . S
C662 C668 1.379 . S
C662 N670 1.356 . S
C663 C662 1.363 . S
C663 C669 1.363 . S
C664 C665 1.363 . S
C664 C669 1.379 . S
C664 N671 1.356 . S
C665 C664 1.363 . S
C665 C668 1.363 . S
N666 C668 1.356 . S
N666 H678 0.984 . S
N666 H679 0.985 . S
N667 C669 1.356 . S
N667 H672 0.984 1_556 S
N667 H673 0.985 . S
C668 C662 1.379 . S
C668 C665 1.363 . S
C668 N666 1.356 . S
C669 C663 1.363 . S
C669 C664 1.379 . S
C669 N667 1.356 . S
N670 C662 1.356 . S
N670 H676 0.984 . S
N670 H677 0.984 1_556 S
N671 C664 1.356 . S
N671 H674 0.984 1_655 S
N671 H675 0.991 . S
H672 N667 0.984 1_554 S
H673 N667 0.985 . S
H674 N671 0.984 1_455 S
H675 N671 0.991 . S
H676 N670 0.984 . S
H677 N670 0.984 1_554 S
H678 N666 0.984 . S
H679 N666 0.985 . S
C680 C681 1.363 . S
C680 C686 1.379 . S
C680 N688 1.356 . S
C681 C680 1.363 . S
C681 C687 1.363 . S
C682 C683 1.363 . S
C682 C687 1.379 . S
C682 N689 1.356 . S
C683 C682 1.363 . S
C683 C686 1.363 . S
N684 C686 1.356 . S
N684 H696 0.984 . S
N684 H697 0.985 . S
N685 C687 1.356 . S
N685 H690 0.984 . S
N685 H691 0.985 . S
C686 C680 1.379 . S
C686 C683 1.363 . S
C686 N684 1.356 . S
C687 C681 1.363 . S
C687 C682 1.379 . S
C687 N685 1.356 . S
N688 C680 1.356 . S
N688 H694 0.984 . S
N688 H695 0.984 . S
N689 C682 1.356 . S
N689 H692 0.984 . S
N689 H693 0.985 . S
H690 N685 0.984 . S
H691 N685 0.985 . S
H692 N689 0.984 . S
H693 N689 0.985 . S
H694 N688 0.984 . S
H695 N688 0.984 . S
H696 N684 0.984 . S
H697 N684 0.985 . S
C698 C699 1.390 1_556 S
C698 C704 1.379 . S
C698 N706 1.356 . S
C699 C698 1.390 1_554 S
C699 C705 1.335 1_545 S
C700 C701 1.366 1_565 S
C700 C705 1.376 1_556 S
C700 N707 1.356 . S
C701 C700 1.366 1_545 S
C701 C704 1.363 . S
N702 C704 1.356 . S
N702 H714 0.984 . S
N702 H715 0.985 . S
N703 C705 1.356 . S
N703 H708 0.984 . S
N703 H709 0.985 . S
C704 C698 1.379 . S
C704 C701 1.363 . S
C704 N702 1.356 . S
C705 C699 1.335 1_565 S
C705 C700 1.376 1_554 S
C705 N703 1.356 . S
N706 C698 1.356 . S
N706 H712 0.984 . S
N706 H713 0.984 1_556 S
N707 C700 1.356 . S
N707 H710 0.984 . S
N707 H711 0.985 1_556 S
H708 N703 0.984 . S
H709 N703 0.985 . S
H710 N707 0.984 . S
H711 N707 0.985 1_554 S
H712 N706 0.984 . S
H713 N706 0.984 1_554 S
H714 N702 0.984 . S
H715 N702 0.985 . S
C716 C717 1.363 1_556 S
C716 C722 1.379 . S
C716 N724 1.356 . S
C717 C716 1.363 1_554 S
C717 C723 1.363 . S
C718 C719 1.363 1_554 S
C718 C723 1.379 . S
C718 N725 1.356 . S
C719 C718 1.363 1_556 S
C719 C722 1.363 . S
N720 C722 1.356 . S
N720 H732 0.984 . S
N720 H733 0.985 . S
N721 C723 1.356 . S
N721 H726 0.984 . S
N721 H727 0.985 . S
C722 C716 1.379 . S
C722 C719 1.363 . S
C722 N720 1.356 . S
C723 C717 1.363 . S
C723 C718 1.379 . S
C723 N721 1.356 . S
N724 C716 1.356 . S
N724 H730 0.984 . S
N724 H731 0.984 . S
N725 C718 1.356 . S
N725 H728 0.984 1_554 S
N725 H729 0.985 . S
H726 N721 0.984 . S
H727 N721 0.985 . S
H728 N725 0.984 1_556 S
H729 N725 0.985 . S
H730 N724 0.984 . S
H731 N724 0.984 . S
H732 N720 0.984 . S
H733 N720 0.985 . S
C734 C735 1.363 . S
C734 C740 1.379 . S
C734 N742 1.356 . S
C735 C734 1.363 . S
C735 C741 1.363 . S
C736 C737 1.363 . S
C736 C741 1.379 . S
C736 N743 1.356 . S
C737 C736 1.363 . S
C737 C740 1.363 . S
N738 C740 1.356 . S
N738 H750 0.984 . S
N738 H751 0.985 . S
N739 C741 1.356 1_554 S
N739 H744 0.984 . S
N739 H745 0.985 . S
C740 C734 1.379 . S
C740 C737 1.363 . S
C740 N738 1.356 . S
C741 C735 1.363 . S
C741 C736 1.379 . S
C741 N739 1.356 1_556 S
N742 C734 1.356 . S
N742 H748 0.984 . S
N742 H749 0.984 . S
N743 C736 1.356 . S
N743 H746 0.984 . S
N743 H747 0.985 . S
H744 N739 0.984 . S
H745 N739 0.985 . S
H746 N743 0.984 . S
H747 N743 0.985 . S
H748 N742 0.984 . S
H749 N742 0.984 . S
H750 N738 0.984 . S
H751 N738 0.985 . S
C752 C753 1.363 . S
C752 C758 1.379 . S
C752 N760 1.356 . S
C753 C752 1.363 . S
C753 C759 1.363 . S
C754 C755 1.363 . S
C754 C759 1.379 . S
C754 N761 1.356 . S
C755 C754 1.363 . S
C755 C758 1.363 . S
N756 C758 1.356 . S
N756 H768 0.984 . S
N756 H769 0.985 . S
N757 C759 1.356 . S
N757 H762 0.984 . S
N757 H763 0.985 . S
C758 C752 1.379 . S
C758 C755 1.363 . S
C758 N756 1.356 . S
C759 C753 1.363 . S
C759 C754 1.379 . S
C759 N757 1.356 . S
N760 C752 1.356 . S
N760 H766 0.984 . S
N760 H767 0.984 . S
N761 C754 1.356 . S
N761 H764 0.984 . S
N761 H765 0.987 . S
H762 N757 0.984 . S
H763 N757 0.985 . S
H764 N761 0.984 . S
H765 N761 0.987 . S
H766 N760 0.984 . S
H767 N760 0.984 . S
H768 N756 0.984 . S
H769 N756 0.985 . S
C770 C771 1.340 1_545 S
C770 C776 1.379 . S
C770 N778 1.356 . S
C771 C770 1.340 1_565 S
C771 C777 1.385 . S
C772 C773 1.363 . S
C772 C777 1.379 . S
C772 N779 1.356 . S
C773 C772 1.363 . S
C773 C776 1.363 1_565 S
N774 C776 1.356 . S
N774 H786 0.984 . S
N774 H787 0.985 . S
N775 C777 1.356 . S
N775 H780 0.984 . S
N775 H781 0.985 . S
C776 C770 1.379 . S
C776 C773 1.363 1_545 S
C776 N774 1.356 . S
C777 C771 1.385 . S
C777 C772 1.379 . S
C777 N775 1.356 . S
N778 C770 1.356 . S
N778 H784 0.984 . S
N778 H785 0.984 . S
N779 C772 1.356 . S
N779 H782 0.984 . S
N779 H783 0.985 . S
H780 N775 0.984 . S
H781 N775 0.985 . S
H782 N779 0.984 . S
H783 N779 0.985 . S
H784 N778 0.984 . S
H785 N778 0.984 . S
H786 N774 0.984 . S
H787 N774 0.985 . S
C788 C789 1.363 . S
C788 C794 1.379 . S
C788 N796 1.356 . S
C789 C788 1.363 . S
C789 C795 1.363 . S
C790 C791 1.363 . S
C790 C795 1.379 . S
C790 N797 1.356 . S
C791 C790 1.363 . S
C791 C794 1.363 . S
N792 C794 1.356 . S
N792 H804 0.984 . S
N792 H805 0.985 . S
N793 C795 1.356 . S
N793 H798 0.984 . S
N793 H799 0.985 . S
C794 C788 1.379 . S
C794 C791 1.363 . S
C794 N792 1.356 . S
C795 C789 1.363 . S
C795 C790 1.379 . S
C795 N793 1.356 . S
N796 C788 1.356 . S
N796 H802 0.984 . S
N796 H803 0.984 . S
N797 C790 1.356 . S
N797 H800 0.984 . S
N797 H801 0.985 . S
H798 N793 0.984 . S
H799 N793 0.985 . S
H800 N797 0.984 . S
H801 N797 0.985 . S
H802 N796 0.984 . S
H803 N796 0.984 . S
H804 N792 0.984 . S
H805 N792 0.985 . S
C806 C807 1.363 . S
C806 C812 1.379 . S
C806 N814 1.356 . S
C807 C806 1.363 . S
C807 C813 1.363 . S
C808 C809 1.363 . S
C808 C813 1.379 . S
C808 N815 1.356 . S
C809 C808 1.363 . S
C809 C812 1.363 . S
N810 C812 1.356 . S
N810 H822 0.984 . S
N810 H823 0.985 . S
N811 C813 1.356 . S
N811 H816 0.984 . S
N811 H817 0.985 . S
C812 C806 1.379 . S
C812 C809 1.363 . S
C812 N810 1.356 . S
C813 C807 1.363 . S
C813 C808 1.379 . S
C813 N811 1.356 . S
N814 C806 1.356 . S
N814 H820 0.984 . S
N814 H821 0.984 . S
N815 C808 1.356 . S
N815 H818 0.984 . S
N815 H819 0.985 . S
H816 N811 0.984 . S
H817 N811 0.985 . S
H818 N815 0.984 . S
H819 N815 0.985 . S
H820 N814 0.984 . S
H821 N814 0.984 . S
H822 N810 0.984 . S
H823 N810 0.985 . S
C393 C215 1.892 1_565 S
C395 C273 1.912 . S
C413 C294 1.693 . S
C411 C247 1.706 . S
C431 C328 1.638 . S
C429 C151 1.576 . S
C449 C362 1.671 . S
C447 C183 1.682 . S
C467 C264 1.913 . S
C465 C87 1.856 1_556 S
C483 C119 1.577 1_556 S
C485 C303 1.697 . S
C501 C23 1.638 . S
C503 C337 1.637 . S
C519 C55 1.541 . S
C521 C371 1.672 . S
C539 C285 1.114 . S
C537 C189 1.121 . S
C557 C290 0.933 . S
C555 C221 0.921 1_565 S
C575 C324 1.007 . S
C573 C253 1.035 . S
C591 C157 0.632 . S
C593 C358 0.511 . S
C609 C61 0.843 . S
C611 C256 1.118 1_655 S
C629 C319 0.933 . S
C627 C93 0.915 . S
C647 C353 1.008 . S
C645 C125 0.918 . S
C663 C29 0.502 . S
C665 C387 0.511 . S
C681 C177 1.639 . S
C683 C269 1.678 . S
C699 C209 1.933 . S
C701 C298 2.040 . S
C719 C332 1.770 . S
C717 C241 1.707 . S
C737 C366 1.842 . S
C735 C145 1.655 1_556 S
C753 C49 1.523 . S
C755 C260 1.684 . S
C773 C307 2.040 . S
C771 C81 1.933 1_565 S
C791 C341 1.770 . S
C789 C113 1.626 . S
C807 C17 1.775 . S
C809 C375 1.842 . S
