# Generated by pormake.
# Topology rtl, (3,6)-cn, num edge types: 1
# Building blocks:
#     Node 0, Type 0, BuildingBlock: BELTOD_clean_linker_0, # of connection points: 3
#     Node 1, Type 0, BuildingBlock: BELTOD_clean_linker_0, # of connection points: 3
#     Node 2, Type 0, BuildingBlock: BELTOD_clean_linker_0, # of connection points: 3
#     Node 3, Type 0, BuildingBlock: BELTOD_clean_linker_0, # of connection points: 3
#     Node 4, Type 1, BuildingBlock: LEVNOQ01_clean_sbu_1, # of connection points: 6
#     Node 5, Type 1, BuildingBlock: LEVNOQ01_clean_sbu_1, # of connection points: 6
#     Edge 6, Type (0, 1), BuildingBlock: XUDNAN_clean_linker_2, # of connection points: 2
#     Edge 7, Type (0, 1), BuildingBlock: XUDNAN_clean_linker_2, # of connection points: 2
#     Edge 8, Type (0, 1), BuildingBlock: XUDNAN_clean_linker_2, # of connection points: 2
#     Edge 9, Type (0, 1), BuildingBlock: XUDNAN_clean_linker_2, # of connection points: 2
#     Edge 10, Type (0, 1), BuildingBlock: XUDNAN_clean_linker_2, # of connection points: 2
#     Edge 11, Type (0, 1), BuildingBlock: XUDNAN_clean_linker_2, # of connection points: 2
#     Edge 12, Type (0, 1), BuildingBlock: XUDNAN_clean_linker_2, # of connection points: 2
#     Edge 13, Type (0, 1), BuildingBlock: XUDNAN_clean_linker_2, # of connection points: 2
#     Edge 14, Type (0, 1), BuildingBlock: XUDNAN_clean_linker_2, # of connection points: 2
#     Edge 15, Type (0, 1), BuildingBlock: XUDNAN_clean_linker_2, # of connection points: 2
#     Edge 16, Type (0, 1), BuildingBlock: XUDNAN_clean_linker_2, # of connection points: 2
#     Edge 17, Type (0, 1), BuildingBlock: XUDNAN_clean_linker_2, # of connection points: 2
# Relax obj value: 0.023
# Max RMSD: 0.060
# Mean RMSD: 0.042
data_MOF--net-rtl--node1-LEVNOQ01_clean_sbu_1--node2-BELTOD_clean_linker_0--edge1-XUDNAN_clean_linker_2
_symmetry_space_group_name_H-M    P1
_symmetry_Int_Tables_number       1
_symmetry_cell_setting            triclinic
loop_
_symmetry_equiv_pos_as_xyz
'x, y, z'
_cell_length_a     35.049514
_cell_length_b     39.372183
_cell_length_c     27.291098
_cell_angle_alpha  89.324371
_cell_angle_beta   97.90461
_cell_angle_gamma 89.940017
loop_
_atom_site_label
_atom_site_type_symbol
_atom_site_fract_x
_atom_site_fract_y
_atom_site_fract_z
_atom_type_partial_charge
P0 P 0.30491 0.92816 0.08991 0.0
H1 H 0.32992 0.94751 0.19173 0.0
H2 H 0.29505 0.96085 0.26097 0.0
H3 H 0.18712 0.94498 0.16662 0.0
H4 H 0.22213 0.93085 0.09835 0.0
H5 H 0.37495 0.90173 0.05858 0.0
H6 H 0.40527 0.84569 0.06587 0.0
H7 H 0.31867 0.81031 0.15264 0.0
H8 H 0.2888 0.86674 0.14582 0.0
H9 H 0.27363 0.9802 0.01872 0.0
H10 H 0.26666 0.87131 0.03346 0.0
O11 O 0.33734 0.95868 0.08575 0.0
H12 H 0.23225 0.97792 0.93913 0.0
H13 H 0.22618 0.86865 0.95329 0.0
C14 C 0.27862 0.93849 0.13991 0.0
C15 C 0.29873 0.94701 0.18608 0.0
C16 C 0.27877 0.9548 0.22551 0.0
C17 C 0.23828 0.95403 0.21938 0.0
C18 C 0.2183 0.9454 0.17286 0.0
C19 C 0.23831 0.93755 0.13356 0.0
C20 C 0.33001 0.88847 0.1022 0.0
C21 C 0.36301 0.88214 0.08011 0.0
C22 C 0.38014 0.85005 0.08404 0.0
C23 C 0.36427 0.82355 0.1097 0.0
C24 C 0.33186 0.83031 0.13323 0.0
C25 C 0.31472 0.86252 0.12924 0.0
C26 C 0.27393 0.92593 0.03152 0.0
C27 C 0.26348 0.95577 0.00458 0.0
C28 C 0.23997 0.95436 0.95892 0.0
C29 C 0.2263 0.92301 0.93936 0.0
C30 C 0.23609 0.89321 0.96722 0.0
C31 C 0.25954 0.89468 0.01299 0.0
P32 P 0.78539 0.6041 0.59638 0.0
H33 H 0.77292 0.55456 0.51684 0.0
H34 H 0.72726 0.55182 0.44099 0.0
H35 H 0.67674 0.64688 0.47698 0.0
H36 H 0.72277 0.64942 0.55341 0.0
H37 H 0.83051 0.63723 0.68086 0.0
H38 H 0.86655 0.69072 0.68901 0.0
H39 H 0.83361 0.71107 0.53307 0.0
H40 H 0.79791 0.65796 0.52513 0.0
H41 H 0.75763 0.54084 0.63421 0.0
H42 H 0.75468 0.64723 0.66973 0.0
O43 O 0.81886 0.5741 0.59484 0.0
H44 H 0.72347 0.52722 0.70469 0.0
H45 H 0.72232 0.63343 0.7415 0.0
C46 C 0.75158 0.60245 0.54036 0.0
C47 C 0.75215 0.5749 0.50847 0.0
C48 C 0.72587 0.57327 0.46519 0.0
C49 C 0.69845 0.59918 0.45295 0.0
C50 C 0.69783 0.62675 0.48515 0.0
C51 C 0.72396 0.62817 0.52882 0.0
C52 C 0.81024 0.64421 0.60279 0.0
C53 C 0.83049 0.65355 0.64864 0.0
C54 C 0.85111 0.68403 0.6533 0.0
C55 C 0.85272 0.70508 0.61175 0.0
C56 C 0.83297 0.69529 0.56573 0.0
C57 C 0.81215 0.66505 0.56125 0.0
C58 C 0.75984 0.59488 0.64776 0.0
C59 C 0.75009 0.56118 0.6575 0.0
C60 C 0.73064 0.55342 0.69758 0.0
C61 C 0.72113 0.57927 0.72874 0.0
C62 C 0.73018 0.61308 0.71841 0.0
C63 C 0.74877 0.62091 0.67758 0.0
P64 P 0.83819 0.21281 1.00061 0.0
H65 H 0.81274 0.21671 0.89428 0.0
H66 H 0.81043 0.17525 0.82842 0.0
H67 H 0.85393 0.0982 0.93614 0.0
H68 H 0.85347 0.13922 1.00189 0.0
H69 H 0.8337 0.28201 0.03487 0.0
H70 H 0.78098 0.32343 0.0297 0.0
H71 H 0.70532 0.25276 0.94491 0.0
H72 H 0.75759 0.21081 0.95181 0.0
H73 H 0.90206 0.18305 0.06717 0.0
H74 H 0.78064 0.20045 0.06758 0.0
O75 O 0.87942 0.23305 0.99632 0.0
H76 H 0.90618 0.15512 0.14807 0.0
H77 H 0.78475 0.17412 0.14944 0.0
C78 C 0.83241 0.181 0.95321 0.0
C79 C 0.82066 0.19064 0.90386 0.0
C80 C 0.81984 0.16691 0.86609 0.0
C81 C 0.83216 0.13323 0.87668 0.0
C82 C 0.84344 0.1236 0.92643 0.0
C83 C 0.84352 0.14725 0.96427 0.0
C84 C 0.7999 0.24375 0.99251 0.0
C85 C 0.80594 0.27559 0.01457 0.0
C86 C 0.77592 0.29917 0.01163 0.0
C87 C 0.73949 0.29133 0.98618 0.0
C88 C 0.73347 0.25954 0.96375 0.0
C89 C 0.76334 0.23566 0.96762 0.0
C90 C 0.84117 0.1941 0.06159 0.0
C91 C 0.87642 0.18137 0.08513 0.0
C92 C 0.87876 0.16563 0.13164 0.0
C93 C 0.84583 0.16245 0.15564 0.0
C94 C 0.81062 0.1757 0.13195 0.0
C95 C 0.80826 0.19105 0.08518 0.0
P96 P 0.27623 0.3411 0.48275 0.0
H97 H 0.30474 0.30186 0.57027 0.0
H98 H 0.32612 0.31664 0.65602 0.0
H99 H 0.2992 0.42215 0.62048 0.0
H100 H 0.275 0.40647 0.53573 0.0
H101 H 0.26205 0.26821 0.48349 0.0
H102 H 0.20371 0.23457 0.48025 0.0
H103 H 0.13563 0.32679 0.47019 0.0
H104 H 0.19483 0.3603 0.47634 0.0
H105 H 0.32103 0.40312 0.47377 0.0
H106 H 0.22492 0.35231 0.38967 0.0
O107 O 0.31117 0.31597 0.46795 0.0
H108 H 0.32264 0.44379 0.4058 0.0
H109 H 0.22636 0.39287 0.32202 0.0
C110 C 0.28958 0.35321 0.54623 0.0
C111 C 0.30326 0.32816 0.58111 0.0
C112 C 0.3158 0.33675 0.63017 0.0
C113 C 0.31537 0.37077 0.64538 0.0
C114 C 0.3 0.39566 0.61052 0.0
C115 C 0.28669 0.38684 0.56158 0.0
C116 C 0.23263 0.3167 0.47907 0.0
C117 C 0.23456 0.2812 0.48023 0.0
C118 C 0.20099 0.26195 0.47781 0.0
C119 C 0.16468 0.27786 0.47395 0.0
C120 C 0.16299 0.31362 0.47322 0.0
C121 C 0.19676 0.33284 0.47645 0.0
C122 C 0.2718 0.37545 0.43799 0.0
C123 C 0.29915 0.40159 0.44176 0.0
C124 C 0.30009 0.42483 0.40279 0.0
C125 C 0.27432 0.42171 0.35882 0.0
C126 C 0.24633 0.39606 0.35565 0.0
C127 C 0.24531 0.37299 0.39467 0.0
O128 O 0.98654 0.02885 0.65326 0.0
Mg129 Mg 0.02975 0.03833 0.60803 0.0
O130 O 0.94917 0.01144 0.58734 0.0
Mg131 Mg 0.99758 0.0018 0.53847 0.0
O132 O 0.01736 0.05993 0.53917 0.0
O133 O 0.03657 0.08886 0.60893 0.0
O134 O 0.04671 0.99335 0.48921 0.0
O135 O 0.95506 0.02724 0.47292 0.0
Mg136 Mg 0.96931 0.9592 0.46239 0.0
O137 O 0.97505 0.94472 0.53569 0.0
O138 O 0.019 0.96237 0.4279 0.0
O139 O 0.92079 0.98713 0.43318 0.0
O140 O 0.95595 0.91054 0.4714 0.0
C141 C 0.07306 0.9843 0.62806 0.0
C142 C 0.95373 0.01993 0.63255 0.0
C143 C 0.02711 0.08825 0.56168 0.0
C144 C 0.04817 0.97806 0.44856 0.0
C145 C 0.92696 0.01822 0.44098 0.0
C146 C 0.96299 0.91526 0.51844 0.0
O147 O 0.08315 0.01482 0.62511 0.0
O148 O 0.04027 0.97554 0.60528 0.0
O149 O 0.51273 0.49863 0.16934 0.0
Mg150 Mg 0.48885 0.46319 0.11582 0.0
O151 O 0.51952 0.53917 0.11442 0.0
Mg152 Mg 0.48387 0.51584 0.04394 0.0
O153 O 0.51641 0.46343 0.05509 0.0
O154 O 0.52189 0.42153 0.11217 0.0
O155 O 0.4491 0.48598 0.97651 0.0
O156 O 0.53484 0.52835 1.00041 0.0
Mg157 Mg 0.45179 0.55077 0.96352 0.0
O158 O 0.45659 0.57116 0.03325 0.0
O159 O 0.40475 0.5199 0.93928 0.0
O160 O 0.50212 0.54489 0.9295 0.0
O161 O 0.43557 0.5996 0.96275 0.0
C162 C 0.41274 0.48105 0.10073 0.0
C163 C 0.52517 0.52773 0.15889 0.0
C164 C 0.53064 0.43422 0.07136 0.0
C165 C 0.41866 0.49044 0.94557 0.0
C166 C 0.53382 0.53702 0.95515 0.0
C167 C 0.44255 0.59865 0.01039 0.0
O168 O 0.42984 0.45281 0.10468 0.0
O169 O 0.43035 0.50699 0.08685 0.0
H170 H 0.14829 0.21567 0.43098 0.0
H171 H 0.10169 0.29209 0.51982 0.0
H172 H 0.04871 0.25373 0.53243 0.0
H173 H 0.05182 0.17299 0.38204 0.0
H174 H 0.07437 0.13171 0.38784 0.0
H175 H 0.10134 0.16831 0.37208 0.0
H176 H 0.15378 0.1551 0.44656 0.0
H177 H 0.12707 0.11869 0.46228 0.0
H178 H 0.14 0.15111 0.50765 0.0
H179 H 0.0119 0.20446 0.55348 0.0
H180 H 0.99535 0.14767 0.58288 0.0
H181 H 0.06487 0.1011 0.48263 0.0
C182 C 0.12638 0.22468 0.45204 0.0
C183 C 0.12926 0.25706 0.47424 0.0
C184 C 0.0999 0.26781 0.50146 0.0
C185 C 0.06956 0.2461 0.50886 0.0
C186 C 0.06866 0.21375 0.48856 0.0
C187 C 0.09613 0.2031 0.46026 0.0
C188 C 0.09255 0.16538 0.44987 0.0
C189 C 0.07922 0.15925 0.39467 0.0
C190 C 0.13059 0.14649 0.4677 0.0
C191 C 0.06121 0.15592 0.48059 0.0
C192 C 0.04685 0.18448 0.50104 0.0
C193 C 0.02189 0.18204 0.53646 0.0
C194 C 0.01271 0.14973 0.55305 0.0
C195 C 0.02838 0.12035 0.53417 0.0
C196 C 0.05153 0.12333 0.49606 0.0
H197 H 0.3833 0.7915 0.02883 0.0
H198 H 0.37772 0.77593 0.18523 0.0
H199 H 0.40019 0.71651 0.17895 0.0
H200 H 0.34786 0.71143 0.99016 0.0
H201 H 0.37845 0.7075 0.94255 0.0
H202 H 0.36435 0.7489 0.96085 0.0
H203 H 0.43616 0.76637 0.97994 0.0
H204 H 0.4505 0.72501 0.96154 0.0
H205 H 0.46875 0.74074 0.02199 0.0
H206 H 0.42238 0.65754 0.15335 0.0
H207 H 0.439 0.6053 0.11052 0.0
H208 H 0.42846 0.66194 0.9719 0.0
C209 C 0.38755 0.77589 0.06208 0.0
C210 C 0.37929 0.78843 0.10765 0.0
C211 C 0.38399 0.76677 0.14992 0.0
C212 C 0.39688 0.7331 0.14673 0.0
C213 C 0.40472 0.72156 0.10098 0.0
C214 C 0.4001 0.74245 0.05948 0.0
C215 C 0.40853 0.72399 0.01406 0.0
C216 C 0.37266 0.72289 0.97461 0.0
C217 C 0.44304 0.73998 0.99318 0.0
C218 C 0.4184 0.68927 0.03617 0.0
C219 C 0.41644 0.68816 0.08637 0.0
C220 C 0.42405 0.65823 0.11405 0.0
C221 C 0.4335 0.62873 0.08951 0.0
C222 C 0.43482 0.6295 0.03786 0.0
C223 C 0.42749 0.66033 0.01135 0.0
H224 H 0.90291 0.7263 0.55044 0.0
H225 H 0.85331 0.75561 0.68063 0.0
H226 H 0.88601 0.81143 0.67975 0.0
H227 H 0.9958 0.77294 0.57933 0.0
H228 H 0.99601 0.78394 0.51506 0.0
H229 H 0.97441 0.7447 0.53179 0.0
H230 H 0.91038 0.76176 0.47765 0.0
H231 H 0.93176 0.80082 0.46074 0.0
H232 H 0.88796 0.80171 0.48845 0.0
H233 H 0.91683 0.86728 0.65631 0.0
H234 H 0.94048 0.91662 0.61153 0.0
H235 H 0.96906 0.84899 0.49775 0.0
C236 C 0.89949 0.74424 0.57931 0.0
C237 C 0.87559 0.73681 0.61548 0.0
C238 C 0.87185 0.76081 0.6528 0.0
C239 C 0.89032 0.79251 0.65259 0.0
C240 C 0.91286 0.79946 0.6153 0.0
C241 C 0.91771 0.77571 0.57966 0.0
C242 C 0.93993 0.79006 0.54064 0.0
C243 C 0.97885 0.77182 0.5418 0.0
C244 C 0.91607 0.78851 0.48886 0.0
C245 C 0.94531 0.82612 0.55836 0.0
C246 C 0.93031 0.83115 0.60199 0.0
C247 C 0.9293 0.86344 0.62266 0.0
C248 C 0.94286 0.89129 0.59716 0.0
C249 C 0.95648 0.88647 0.55129 0.0
C250 C 0.95887 0.85336 0.53288 0.0
H251 H 0.71179 0.31445 0.0672 0.0
H252 H 0.69393 0.32075 0.90717 0.0
H253 H 0.63923 0.36063 0.91025 0.0
H254 H 0.61247 0.31266 0.08127 0.0
H255 H 0.6188 0.3368 0.1375 0.0
H256 H 0.65762 0.31094 0.12184 0.0
H257 H 0.70253 0.3635 0.12819 0.0
H258 H 0.66381 0.38954 0.14384 0.0
H259 H 0.68806 0.40109 0.09198 0.0
H260 H 0.58679 0.40135 0.93282 0.0
H261 H 0.53815 0.43365 0.972 0.0
H262 H 0.58934 0.39572 0.11594 0.0
C263 C 0.69655 0.32455 0.03287 0.0
C264 C 0.70708 0.31514 0.987 0.0
C265 C 0.68614 0.32804 0.94265 0.0
C266 C 0.65526 0.35069 0.94411 0.0
C267 C 0.64555 0.35959 0.99022 0.0
C268 C 0.66541 0.3465 0.03369 0.0
C269 C 0.64827 0.35816 0.07839 0.0
C270 C 0.6334 0.32784 0.10637 0.0
C271 C 0.6774 0.37934 0.1126 0.0
C272 C 0.61556 0.37987 0.05351 0.0
C273 C 0.6146 0.38099 0.00273 0.0
C274 C 0.58713 0.40038 0.97252 0.0
C275 C 0.55974 0.41866 0.99495 0.0
C276 C 0.55979 0.41667 0.04676 0.0
C277 C 0.58822 0.39721 0.0761 0.0
H278 H 0.17455 0.92151 0.24411 0.0
H279 H 0.25324 0.00388 0.28942 0.0
H280 H 0.21581 0.01724 0.35737 0.0
H281 H 0.08956 0.96473 0.26276 0.0
H282 H 0.0667 0.92751 0.28438 0.0
H283 H 0.10158 0.92319 0.24224 0.0
H284 H 0.14153 0.88185 0.30397 0.0
H285 H 0.10678 0.88613 0.34639 0.0
H286 H 0.15685 0.89516 0.36656 0.0
H287 H 0.1669 0.02295 0.41863 0.0
H288 H 0.11078 0.02104 0.46508 0.0
H289 H 0.06484 0.93582 0.37643 0.0
C290 C 0.18396 0.94244 0.26817 0.0
C291 C 0.21681 0.96167 0.26132 0.0
C292 C 0.2284 0.98851 0.29426 0.0
C293 C 0.20725 0.99637 0.33286 0.0
C294 C 0.1747 0.97706 0.33812 0.0
C295 C 0.16324 0.95063 0.30657 0.0
C296 C 0.12651 0.93448 0.31847 0.0
C297 C 0.09419 0.93769 0.27435 0.0
C298 C 0.13335 0.8972 0.33483 0.0
C299 C 0.11858 0.95631 0.36108 0.0
C300 C 0.14677 0.98055 0.37245 0.0
C301 C 0.14478 0.00393 0.41014 0.0
C302 C 0.1129 0.00264 0.43639 0.0
C303 C 0.08341 0.97837 0.42429 0.0
C304 C 0.08678 0.9548 0.38652 0.0
H305 H 0.64995 0.55158 0.726 0.0
H306 H 0.74641 0.5897 0.82641 0.0
H307 H 0.71129 0.57741 0.89761 0.0
H308 H 0.57848 0.58912 0.78639 0.0
H309 H 0.54461 0.55478 0.77461 0.0
H310 H 0.57925 0.56274 0.73298 0.0
H311 H 0.60362 0.50058 0.74506 0.0
H312 H 0.56907 0.49248 0.78695 0.0
H313 H 0.61954 0.48453 0.80662 0.0
H314 H 0.66427 0.56226 0.95736 0.0
H315 H 0.60692 0.55183 0.99943 0.0
H316 H 0.5404 0.52757 0.8583 0.0
C317 C 0.66379 0.55675 0.76313 0.0
C318 C 0.70087 0.57109 0.77124 0.0
C319 C 0.71799 0.57847 0.81993 0.0
C320 C 0.69838 0.57142 0.8604 0.0
C321 C 0.66161 0.55736 0.85124 0.0
C322 C 0.64436 0.55047 0.8037 0.0
C323 C 0.60337 0.53844 0.80319 0.0
C324 C 0.57476 0.56273 0.7725 0.0
C325 C 0.59864 0.50183 0.78434 0.0
C326 C 0.59997 0.54016 0.85773 0.0
C327 C 0.63405 0.55038 0.88509 0.0
C328 C 0.63746 0.55418 0.9363 0.0
C329 C 0.60487 0.54811 0.9599 0.0
C330 C 0.56935 0.53912 0.93198 0.0
C331 C 0.56721 0.5346 0.88047 0.0
H332 H 0.90497 0.16173 0.23403 0.0
H333 H 0.79175 0.11954 0.18556 0.0
H334 H 0.79659 0.08499 0.26173 0.0
H335 H 0.9472 0.08576 0.27831 0.0
H336 H 0.97741 0.10359 0.33047 0.0
H337 H 0.96255 0.1294 0.27643 0.0
H338 H 0.93381 0.17365 0.33076 0.0
H339 H 0.94851 0.14771 0.38497 0.0
H340 H 0.89881 0.16036 0.36963 0.0
H341 H 0.81675 0.04907 0.33554 0.0
H342 H 0.8517 0.01342 0.40199 0.0
H343 H 0.95203 0.07803 0.40437 0.0
C344 C 0.88095 0.14557 0.23968 0.0
C345 C 0.84777 0.14375 0.20374 0.0
C346 C 0.81708 0.12217 0.2128 0.0
C347 C 0.81959 0.10229 0.25601 0.0
C348 C 0.85289 0.10427 0.29013 0.0
C349 C 0.88304 0.12542 0.28265 0.0
C350 C 0.91711 0.12022 0.32283 0.0
C351 C 0.95318 0.10906 0.30067 0.0
C352 C 0.92501 0.15241 0.35389 0.0
C353 C 0.90195 0.09181 0.35277 0.0
C354 C 0.86459 0.08342 0.3336 0.0
C355 C 0.84565 0.05585 0.35162 0.0
C356 C 0.86572 0.03573 0.38928 0.0
C357 C 0.90425 0.04334 0.40868 0.0
C358 C 0.92219 0.07231 0.39116 0.0
H359 H 0.29238 0.42196 0.70368 0.0
H360 H 0.37797 0.34206 0.70315 0.0
H361 H 0.40793 0.35916 0.78588 0.0
H362 H 0.35774 0.4834 0.75457 0.0
H363 H 0.32485 0.50347 0.79061 0.0
H364 H 0.30655 0.48169 0.73476 0.0
H365 H 0.26388 0.44424 0.78394 0.0
H366 H 0.28233 0.46582 0.84012 0.0
H367 H 0.28588 0.42023 0.83709 0.0
H368 H 0.43231 0.38785 0.86574 0.0
H369 H 0.45167 0.42853 0.93279 0.0
H370 H 0.35251 0.49143 0.8792 0.0
C371 C 0.31728 0.40785 0.72086 0.0
C372 C 0.33229 0.38027 0.69665 0.0
C373 C 0.36499 0.36262 0.72106 0.0
C374 C 0.38245 0.37224 0.76817 0.0
C375 C 0.36712 0.39971 0.79059 0.0
C376 C 0.33539 0.41737 0.76763 0.0
C377 C 0.32678 0.44792 0.79752 0.0
C378 C 0.32915 0.48107 0.76759 0.0
C379 C 0.28737 0.44432 0.81575 0.0
C380 C 0.35932 0.44524 0.8401 0.0
C381 C 0.38183 0.41687 0.83598 0.0
C382 C 0.41467 0.40997 0.86965 0.0
C383 C 0.42539 0.43319 0.90771 0.0
C384 C 0.4036 0.46316 0.91133 0.0
C385 C 0.36964 0.46866 0.87769 0.0
H386 H 0.65664 0.54382 0.41875 0.0
H387 H 0.67715 0.64928 0.38339 0.0
H388 H 0.63297 0.64393 0.30467 0.0
H389 H 0.65463 0.51206 0.29763 0.0
H390 H 0.61717 0.48159 0.30364 0.0
H391 H 0.64894 0.49463 0.35757 0.0
H392 H 0.59011 0.51267 0.39945 0.0
H393 H 0.55814 0.49965 0.3456 0.0
H394 H 0.55558 0.54234 0.36808 0.0
H395 H 0.5891 0.62494 0.22631 0.0
H396 H 0.54787 0.59508 0.159 0.0
H397 H 0.55622 0.50313 0.24918 0.0
C398 C 0.65183 0.56583 0.3945 0.0
C399 C 0.67043 0.59692 0.40701 0.0
C400 C 0.66296 0.62527 0.3746 0.0
C401 C 0.63806 0.62241 0.32977 0.0
C402 C 0.62057 0.59114 0.31825 0.0
C403 C 0.62696 0.56348 0.35006 0.0
C404 C 0.60527 0.53256 0.32933 0.0
C405 C 0.63317 0.50351 0.32158 0.0
C406 C 0.5755 0.52115 0.36259 0.0
C407 C 0.58592 0.5469 0.28056 0.0
C408 C 0.59502 0.58067 0.27447 0.0
C409 C 0.58151 0.59859 0.23101 0.0
C410 C 0.55819 0.58144 0.19296 0.0
C411 C 0.54849 0.54685 0.19888 0.0
C412 C 0.56253 0.52969 0.24353 0.0
H413 H 0.85547 0.14845 0.78728 0.0
H414 H 0.82132 0.06361 0.87435 0.0
H415 H 0.83902 0.02394 0.81169 0.0
H416 H 0.82335 0.11007 0.6624 0.0
H417 H 0.86371 0.12879 0.63775 0.0
H418 H 0.84226 0.15032 0.68519 0.0
H419 H 0.90892 0.15258 0.73965 0.0
H420 H 0.93045 0.13113 0.69266 0.0
H421 H 0.93539 0.11367 0.75458 0.0
H422 H 0.87145 0.99357 0.7471 0.0
H423 H 0.91465 0.97633 0.68674 0.0
H424 H 0.92279 0.08111 0.6402 0.0
C425 C 0.85004 0.12169 0.79243 0.0
C426 C 0.83687 0.10933 0.83593 0.0
C427 C 0.83176 0.07383 0.84169 0.0
C428 C 0.84133 0.05107 0.80598 0.0
C429 C 0.85524 0.06419 0.76419 0.0
C430 C 0.85899 0.09878 0.75703 0.0
C431 C 0.87816 0.10658 0.71187 0.0
C432 C 0.85019 0.12503 0.67194 0.0
C433 C 0.91542 0.12717 0.72555 0.0
C434 C 0.88657 0.07099 0.69618 0.0
C435 C 0.87264 0.04671 0.72618 0.0
C436 C 0.88133 0.01225 0.72235 0.0
C437 C 0.90568 0.00261 0.68797 0.0
C438 C 0.92071 0.02741 0.65816 0.0
C439 C 0.91022 0.0617 0.66144 0.0
H440 H 0.27866 0.39693 0.26765 0.0
H441 H 0.28732 0.49033 0.35059 0.0
H442 H 0.30963 0.52031 0.27955 0.0
H443 H 0.36232 0.40422 0.22595 0.0
H444 H 0.34841 0.38599 0.16586 0.0
H445 H 0.3227 0.37478 0.21603 0.0
H446 H 0.25863 0.39416 0.16422 0.0
H447 H 0.28435 0.40549 0.11355 0.0
H448 H 0.2545 0.43651 0.13819 0.0
H449 H 0.3425 0.53698 0.20714 0.0
H450 H 0.38827 0.53716 0.14597 0.0
H451 H 0.35994 0.43225 0.11174 0.0
C452 C 0.2834 0.42407 0.2699 0.0
C453 C 0.2806 0.44151 0.31411 0.0
C454 C 0.28892 0.47665 0.31673 0.0
C455 C 0.30129 0.49389 0.27642 0.0
C456 C 0.30512 0.47561 0.23381 0.0
C457 C 0.29626 0.44139 0.23037 0.0
C458 C 0.30935 0.42591 0.18501 0.0
C459 C 0.33736 0.39601 0.19909 0.0
C460 C 0.27463 0.41488 0.14805 0.0
C461 C 0.3294 0.45608 0.16529 0.0
C462 C 0.32538 0.4849 0.19269 0.0
C463 C 0.34507 0.51483 0.18472 0.0
C464 C 0.37094 0.51476 0.14973 0.0
C465 C 0.37748 0.48468 0.12419 0.0
C466 C 0.35503 0.45566 0.1304 0.0
H467 H 0.23461 0.96017 0.85591 0.0
H468 H 0.16256 0.88321 0.91152 0.0
H469 H 0.12028 0.88377 0.83116 0.0
H470 H 0.15986 0.00907 0.79578 0.0
H471 H 0.18453 0.02109 0.74448 0.0
H472 H 0.21175 0.01062 0.80341 0.0
H473 H 0.24934 0.96491 0.76167 0.0
H474 H 0.22185 0.97509 0.70253 0.0
H475 H 0.22324 0.93204 0.72594 0.0
H476 H 0.08171 0.8977 0.74742 0.0
H477 H 0.04918 0.92598 0.67142 0.0
H478 H 0.14664 0.99386 0.67211 0.0
C479 C 0.21012 0.9432 0.85118 0.0
C480 C 0.202 0.92162 0.89013 0.0
C481 C 0.16977 0.89964 0.88208 0.0
C482 C 0.14554 0.89979 0.83651 0.0
C483 C 0.1541 0.92183 0.79916 0.0
C484 C 0.18573 0.94308 0.80612 0.0
C485 C 0.18693 0.96654 0.76211 0.0
C486 C 0.18567 0.00403 0.77737 0.0
C487 C 0.22245 0.95919 0.73656 0.0
C488 C 0.15023 0.95618 0.73003 0.0
C489 C 0.13196 0.92992 0.75141 0.0
C490 C 0.09608 0.91792 0.73 0.0
C491 C 0.07787 0.93402 0.68668 0.0
C492 C 0.09541 0.96206 0.66576 0.0
C493 C 0.13261 0.97231 0.68694 0.0
loop_
_geom_bond_atom_site_label_1
_geom_bond_atom_site_label_2
_geom_bond_distance
_geom_bond_site_symmetry_2
_ccdc_geom_bond_type
P0 O11 1.490 . S
P0 C14 1.812 . S
P0 C20 1.803 . S
P0 C26 1.819 . S
H1 C15 0.941 . S
H2 C16 0.939 . S
H3 C18 0.940 . S
H4 C19 0.940 . S
H5 C21 0.939 . S
H6 C22 0.942 . S
H7 C24 0.940 . S
H8 C25 0.939 . S
H9 C27 0.941 . S
H10 C31 0.939 . S
O11 P0 1.490 . S
H12 C28 0.939 . S
H13 C30 0.940 . S
C14 P0 1.812 . S
C14 C15 1.389 . S
C14 C19 1.391 . S
C15 H1 0.941 . S
C15 C14 1.389 . S
C15 C16 1.397 . S
C16 H2 0.939 . S
C16 C15 1.397 . S
C16 C17 1.378 . S
C17 C16 1.378 . S
C17 C18 1.378 . S
C18 H3 0.940 . S
C18 C17 1.378 . S
C18 C19 1.396 . S
C19 H4 0.940 . S
C19 C14 1.391 . S
C19 C18 1.396 . S
C20 P0 1.803 . S
C20 C21 1.378 . S
C20 C25 1.400 . S
C21 H5 0.939 . S
C21 C20 1.378 . S
C21 C22 1.361 . S
C22 H6 0.942 . S
C22 C21 1.361 . S
C22 C23 1.369 . S
C23 C22 1.369 . S
C23 C24 1.404 . S
C24 H7 0.940 . S
C24 C23 1.404 . S
C24 C25 1.389 . S
C25 H8 0.939 . S
C25 C20 1.400 . S
C25 C24 1.389 . S
C26 P0 1.819 . S
C26 C27 1.391 . S
C26 C31 1.391 . S
C27 H9 0.941 . S
C27 C26 1.391 . S
C27 C28 1.396 1_554 S
C28 H12 0.939 . S
C28 C27 1.396 1_556 S
C28 C29 1.397 . S
C29 C28 1.397 . S
C29 C30 1.385 . S
C30 H13 0.940 . S
C30 C29 1.385 . S
C30 C31 1.388 1_556 S
C31 H10 0.939 . S
C31 C26 1.391 . S
C31 C30 1.388 1_554 S
P32 O43 1.490 . S
P32 C46 1.812 . S
P32 C52 1.803 . S
P32 C58 1.819 . S
H33 C47 0.941 . S
H34 C48 0.939 . S
H35 C50 0.940 . S
H36 C51 0.940 . S
H37 C53 0.939 . S
H38 C54 0.942 . S
H39 C56 0.940 . S
H40 C57 0.939 . S
H41 C59 0.941 . S
H42 C63 0.939 . S
O43 P32 1.490 . S
H44 C60 0.939 . S
H45 C62 0.940 . S
C46 P32 1.812 . S
C46 C47 1.389 . S
C46 C51 1.391 . S
C47 H33 0.941 . S
C47 C46 1.389 . S
C47 C48 1.397 . S
C48 H34 0.939 . S
C48 C47 1.397 . S
C48 C49 1.378 . S
C49 C48 1.378 . S
C49 C50 1.378 . S
C50 H35 0.940 . S
C50 C49 1.378 . S
C50 C51 1.396 . S
C51 H36 0.940 . S
C51 C46 1.391 . S
C51 C50 1.396 . S
C52 P32 1.803 . S
C52 C53 1.378 . S
C52 C57 1.400 . S
C53 H37 0.939 . S
C53 C52 1.378 . S
C53 C54 1.361 . S
C54 H38 0.942 . S
C54 C53 1.361 . S
C54 C55 1.369 . S
C55 C54 1.369 . S
C55 C56 1.404 . S
C56 H39 0.940 . S
C56 C55 1.404 . S
C56 C57 1.389 . S
C57 H40 0.939 . S
C57 C52 1.400 . S
C57 C56 1.389 . S
C58 P32 1.819 . S
C58 C59 1.391 . S
C58 C63 1.391 . S
C59 H41 0.941 . S
C59 C58 1.391 . S
C59 C60 1.396 . S
C60 H44 0.939 . S
C60 C59 1.396 . S
C60 C61 1.397 . S
C61 C60 1.397 . S
C61 C62 1.385 . S
C62 H45 0.940 . S
C62 C61 1.385 . S
C62 C63 1.388 . S
C63 H42 0.939 . S
C63 C58 1.391 . S
C63 C62 1.388 . S
P64 O75 1.490 . S
P64 C78 1.812 1_554 S
P64 C84 1.803 1_554 S
P64 C90 1.819 . S
H65 C79 0.941 . S
H66 C80 0.939 . S
H67 C82 0.940 . S
H68 C83 0.940 . S
H69 C85 0.939 . S
H70 C86 0.942 . S
H71 C88 0.940 . S
H72 C89 0.939 . S
H73 C91 0.941 . S
H74 C95 0.939 . S
O75 P64 1.490 . S
H76 C92 0.939 . S
H77 C94 0.940 . S
C78 P64 1.812 1_556 S
C78 C79 1.389 . S
C78 C83 1.391 . S
C79 H65 0.941 . S
C79 C78 1.389 . S
C79 C80 1.397 . S
C80 H66 0.939 . S
C80 C79 1.397 . S
C80 C81 1.378 . S
C81 C80 1.378 . S
C81 C82 1.378 . S
C82 H67 0.940 . S
C82 C81 1.378 . S
C82 C83 1.396 . S
C83 H68 0.940 . S
C83 C78 1.391 . S
C83 C82 1.396 . S
C84 P64 1.803 1_556 S
C84 C85 1.378 1_556 S
C84 C89 1.400 . S
C85 H69 0.939 . S
C85 C84 1.378 1_554 S
C85 C86 1.361 . S
C86 H70 0.942 . S
C86 C85 1.361 . S
C86 C87 1.369 1_554 S
C87 C86 1.369 1_556 S
C87 C88 1.404 . S
C88 H71 0.940 . S
C88 C87 1.404 . S
C88 C89 1.389 . S
C89 H72 0.939 . S
C89 C84 1.400 . S
C89 C88 1.389 . S
C90 P64 1.819 . S
C90 C91 1.391 . S
C90 C95 1.391 . S
C91 H73 0.941 . S
C91 C90 1.391 . S
C91 C92 1.396 . S
C92 H76 0.939 . S
C92 C91 1.396 . S
C92 C93 1.397 . S
C93 C92 1.397 . S
C93 C94 1.385 . S
C94 H77 0.940 . S
C94 C93 1.385 . S
C94 C95 1.388 . S
C95 H74 0.939 . S
C95 C90 1.391 . S
C95 C94 1.388 . S
P96 O107 1.490 . S
P96 C110 1.812 . S
P96 C116 1.803 . S
P96 C122 1.819 . S
H97 C111 0.941 . S
H98 C112 0.939 . S
H99 C114 0.940 . S
H100 C115 0.940 . S
H101 C117 0.939 . S
H102 C118 0.942 . S
H103 C120 0.940 . S
H104 C121 0.939 . S
H105 C123 0.941 . S
H106 C127 0.939 . S
O107 P96 1.490 . S
H108 C124 0.939 . S
H109 C126 0.940 . S
C110 P96 1.812 . S
C110 C111 1.389 . S
C110 C115 1.391 . S
C111 H97 0.941 . S
C111 C110 1.389 . S
C111 C112 1.397 . S
C112 H98 0.939 . S
C112 C111 1.397 . S
C112 C113 1.378 . S
C113 C112 1.378 . S
C113 C114 1.378 . S
C114 H99 0.940 . S
C114 C113 1.378 . S
C114 C115 1.396 . S
C115 H100 0.940 . S
C115 C110 1.391 . S
C115 C114 1.396 . S
C116 P96 1.803 . S
C116 C117 1.378 . S
C116 C121 1.400 . S
C117 H101 0.939 . S
C117 C116 1.378 . S
C117 C118 1.361 . S
C118 H102 0.942 . S
C118 C117 1.361 . S
C118 C119 1.369 . S
C119 C118 1.369 . S
C119 C120 1.404 . S
C120 H103 0.940 . S
C120 C119 1.404 . S
C120 C121 1.389 . S
C121 H104 0.939 . S
C121 C116 1.400 . S
C121 C120 1.389 . S
C122 P96 1.819 . S
C122 C123 1.391 . S
C122 C127 1.391 . S
C123 H105 0.941 . S
C123 C122 1.391 . S
C123 C124 1.396 . S
C124 H108 0.939 . S
C124 C123 1.396 . S
C124 C125 1.397 . S
C125 C124 1.397 . S
C125 C126 1.385 . S
C126 H109 0.940 . S
C126 C125 1.385 . S
C126 C127 1.388 . S
C127 H106 0.939 . S
C127 C122 1.391 . S
C127 C126 1.388 . S
O128 Mg129 1.990 1_655 S
O128 C142 1.253 . S
Mg129 O128 1.990 1_455 S
Mg129 O132 2.180 . S
Mg129 O133 2.117 . S
Mg129 O147 2.030 . S
O130 Mg131 2.072 1_655 S
O130 C142 1.260 . S
Mg131 O130 2.072 1_455 S
Mg131 O132 2.099 . S
Mg131 O134 2.079 1_545 S
Mg131 O135 2.072 1_455 S
Mg131 O137 2.099 1_445 S
Mg131 O148 2.079 1_545 S
O132 Mg129 2.180 . S
O132 Mg131 2.099 . S
O132 C143 1.279 . S
O133 Mg129 2.117 . S
O133 C143 1.250 . S
O134 Mg131 2.079 1_565 S
O134 C144 1.264 . S
O135 Mg131 2.072 1_655 S
O135 C145 1.260 . S
Mg136 O137 2.180 . S
Mg136 O138 2.030 1_655 S
Mg136 O139 1.990 1_565 S
Mg136 O140 2.117 . S
O137 Mg131 2.099 1_665 S
O137 Mg136 2.180 . S
O137 C146 1.279 . S
O138 Mg136 2.030 1_455 S
O138 C144 1.248 . S
O139 Mg136 1.990 1_545 S
O139 C145 1.253 . S
O140 Mg136 2.117 . S
O140 C146 1.250 . S
C141 O147 1.248 1_565 S
C141 O148 1.264 . S
C142 O128 1.253 . S
C142 O130 1.260 . S
C143 O132 1.279 . S
C143 O133 1.250 . S
C144 O134 1.264 . S
C144 O138 1.248 . S
C145 O135 1.260 . S
C145 O139 1.253 . S
C146 O137 1.279 . S
C146 O140 1.250 . S
O147 Mg129 2.030 . S
O147 C141 1.248 1_545 S
O148 Mg131 2.079 1_565 S
O148 C141 1.264 . S
O149 Mg150 1.990 . S
O149 C163 1.253 . S
Mg150 O149 1.990 . S
Mg150 O153 2.180 . S
Mg150 O154 2.117 . S
Mg150 O168 2.030 . S
O151 Mg152 2.072 . S
O151 C163 1.260 . S
Mg152 O151 2.072 . S
Mg152 O153 2.099 . S
Mg152 O155 2.079 1_554 S
Mg152 O156 2.072 1_554 S
Mg152 O158 2.099 . S
Mg152 O169 2.079 . S
O153 Mg150 2.180 . S
O153 Mg152 2.099 . S
O153 C164 1.279 . S
O154 Mg150 2.117 . S
O154 C164 1.250 . S
O155 Mg152 2.079 1_556 S
O155 C165 1.264 . S
O156 Mg152 2.072 1_556 S
O156 C166 1.260 . S
Mg157 O158 2.180 1_556 S
Mg157 O159 2.030 . S
Mg157 O160 1.990 . S
Mg157 O161 2.117 . S
O158 Mg152 2.099 . S
O158 Mg157 2.180 1_554 S
O158 C167 1.279 . S
O159 Mg157 2.030 . S
O159 C165 1.248 . S
O160 Mg157 1.990 . S
O160 C166 1.253 . S
O161 Mg157 2.117 . S
O161 C167 1.250 1_556 S
C162 O168 1.248 . S
C162 O169 1.264 . S
C163 O149 1.253 . S
C163 O151 1.260 . S
C164 O153 1.279 . S
C164 O154 1.250 . S
C165 O155 1.264 . S
C165 O159 1.248 . S
C166 O156 1.260 . S
C166 O160 1.253 . S
C167 O158 1.279 . S
C167 O161 1.250 1_554 S
O168 Mg150 2.030 . S
O168 C162 1.248 . S
O169 Mg152 2.079 . S
O169 C162 1.264 . S
H170 C182 0.930 . S
H171 C184 0.930 . S
H172 C185 0.930 . S
H173 C189 0.959 . S
H174 C189 0.959 . S
H175 C189 0.961 . S
H176 C190 0.960 . S
H177 C190 0.961 . S
H178 C190 0.959 . S
H179 C193 0.929 . S
H180 C194 0.931 . S
H181 C196 0.930 . S
C182 H170 0.930 . S
C182 C183 1.399 . S
C182 C187 1.399 . S
C183 C182 1.399 . S
C183 C184 1.376 . S
C184 H171 0.930 . S
C184 C183 1.376 . S
C184 C185 1.388 . S
C185 H172 0.930 . S
C185 C184 1.388 . S
C185 C186 1.390 . S
C186 C185 1.390 . S
C186 C187 1.394 . S
C186 C192 1.465 . S
C187 C182 1.399 . S
C187 C186 1.394 . S
C187 C188 1.516 . S
C188 C187 1.516 . S
C188 C189 1.502 . S
C188 C190 1.561 . S
C188 C191 1.526 . S
C189 H173 0.959 . S
C189 H174 0.959 . S
C189 H175 0.961 . S
C189 C188 1.502 . S
C190 H176 0.960 . S
C190 H177 0.961 . S
C190 H178 0.959 . S
C190 C188 1.561 . S
C191 C188 1.526 . S
C191 C192 1.396 . S
C191 C196 1.390 . S
C192 C186 1.465 . S
C192 C191 1.396 . S
C192 C193 1.399 . S
C193 H179 0.929 . S
C193 C192 1.399 . S
C193 C194 1.385 . S
C194 H180 0.931 . S
C194 C193 1.385 . S
C194 C195 1.389 . S
C195 C194 1.389 . S
C195 C196 1.387 . S
C196 H181 0.930 . S
C196 C191 1.390 . S
C196 C195 1.387 . S
H197 C209 0.930 . S
H198 C211 0.930 . S
H199 C212 0.930 . S
H200 C216 0.959 1_554 S
H201 C216 0.959 . S
H202 C216 0.961 . S
H203 C217 0.960 . S
H204 C217 0.961 . S
H205 C217 0.959 . S
H206 C220 0.929 . S
H207 C221 0.931 . S
H208 C223 0.930 1_556 S
C209 H197 0.930 . S
C209 C210 1.399 . S
C209 C214 1.399 . S
C210 C209 1.399 . S
C210 C211 1.376 . S
C211 H198 0.930 . S
C211 C210 1.376 . S
C211 C212 1.388 . S
C212 H199 0.930 . S
C212 C211 1.388 . S
C212 C213 1.390 . S
C213 C212 1.390 . S
C213 C214 1.394 . S
C213 C219 1.465 . S
C214 C209 1.399 . S
C214 C213 1.394 . S
C214 C215 1.516 . S
C215 C214 1.516 . S
C215 C216 1.502 1_554 S
C215 C217 1.561 1_554 S
C215 C218 1.526 . S
C216 H200 0.959 1_556 S
C216 H201 0.959 . S
C216 H202 0.961 . S
C216 C215 1.502 1_556 S
C217 H203 0.960 . S
C217 H204 0.961 . S
C217 H205 0.959 . S
C217 C215 1.561 1_556 S
C218 C215 1.526 . S
C218 C219 1.396 . S
C218 C223 1.390 . S
C219 C213 1.465 . S
C219 C218 1.396 . S
C219 C220 1.399 . S
C220 H206 0.929 . S
C220 C219 1.399 . S
C220 C221 1.385 . S
C221 H207 0.931 . S
C221 C220 1.385 . S
C221 C222 1.389 . S
C222 C221 1.389 . S
C222 C223 1.387 . S
C223 H208 0.930 1_554 S
C223 C218 1.390 . S
C223 C222 1.387 . S
H224 C236 0.930 . S
H225 C238 0.930 . S
H226 C239 0.930 . S
H227 C243 0.959 . S
H228 C243 0.959 . S
H229 C243 0.961 . S
H230 C244 0.960 . S
H231 C244 0.961 . S
H232 C244 0.959 . S
H233 C247 0.929 . S
H234 C248 0.931 . S
H235 C250 0.930 . S
C236 H224 0.930 . S
C236 C237 1.399 . S
C236 C241 1.399 . S
C237 C236 1.399 . S
C237 C238 1.376 . S
C238 H225 0.930 . S
C238 C237 1.376 . S
C238 C239 1.388 . S
C239 H226 0.930 . S
C239 C238 1.388 . S
C239 C240 1.390 . S
C240 C239 1.390 . S
C240 C241 1.394 . S
C240 C246 1.465 . S
C241 C236 1.399 . S
C241 C240 1.394 . S
C241 C242 1.516 . S
C242 C241 1.516 . S
C242 C243 1.502 . S
C242 C244 1.561 . S
C242 C245 1.526 . S
C243 H227 0.959 . S
C243 H228 0.959 . S
C243 H229 0.961 . S
C243 C242 1.502 . S
C244 H230 0.960 . S
C244 H231 0.961 . S
C244 H232 0.959 . S
C244 C242 1.561 . S
C245 C242 1.526 . S
C245 C246 1.396 . S
C245 C250 1.390 . S
C246 C240 1.465 . S
C246 C245 1.396 . S
C246 C247 1.399 . S
C247 H233 0.929 . S
C247 C246 1.399 . S
C247 C248 1.385 . S
C248 H234 0.931 . S
C248 C247 1.385 . S
C248 C249 1.389 . S
C249 C248 1.389 . S
C249 C250 1.387 . S
C250 H235 0.930 . S
C250 C245 1.390 . S
C250 C249 1.387 . S
H251 C263 0.930 . S
H252 C265 0.930 . S
H253 C266 0.930 . S
H254 C270 0.959 . S
H255 C270 0.959 . S
H256 C270 0.961 . S
H257 C271 0.960 . S
H258 C271 0.961 . S
H259 C271 0.959 . S
H260 C274 0.929 . S
H261 C275 0.931 . S
H262 C277 0.930 . S
C263 H251 0.930 . S
C263 C264 1.399 1_554 S
C263 C268 1.399 . S
C264 C263 1.399 1_556 S
C264 C265 1.376 . S
C265 H252 0.930 . S
C265 C264 1.376 . S
C265 C266 1.388 . S
C266 H253 0.930 . S
C266 C265 1.388 . S
C266 C267 1.390 . S
C267 C266 1.390 . S
C267 C268 1.394 1_556 S
C267 C273 1.465 . S
C268 C263 1.399 . S
C268 C267 1.394 1_554 S
C268 C269 1.516 . S
C269 C268 1.516 . S
C269 C270 1.502 . S
C269 C271 1.561 . S
C269 C272 1.526 . S
C270 H254 0.959 . S
C270 H255 0.959 . S
C270 H256 0.961 . S
C270 C269 1.502 . S
C271 H257 0.960 . S
C271 H258 0.961 . S
C271 H259 0.959 . S
C271 C269 1.561 . S
C272 C269 1.526 . S
C272 C273 1.396 1_554 S
C272 C277 1.390 . S
C273 C267 1.465 . S
C273 C272 1.396 1_556 S
C273 C274 1.399 . S
C274 H260 0.929 . S
C274 C273 1.399 . S
C274 C275 1.385 . S
C275 H261 0.931 . S
C275 C274 1.385 . S
C275 C276 1.389 1_556 S
C276 C275 1.389 1_554 S
C276 C277 1.387 . S
C277 H262 0.930 . S
C277 C272 1.390 . S
C277 C276 1.387 . S
H278 C290 0.930 . S
H279 C292 0.930 . S
H280 C293 0.930 1_545 S
H281 C297 0.959 . S
H282 C297 0.959 . S
H283 C297 0.961 . S
H284 C298 0.960 . S
H285 C298 0.961 . S
H286 C298 0.959 . S
H287 C301 0.929 . S
H288 C302 0.931 . S
H289 C304 0.930 . S
C290 H278 0.930 . S
C290 C291 1.399 . S
C290 C295 1.399 . S
C291 C290 1.399 . S
C291 C292 1.376 . S
C292 H279 0.930 . S
C292 C291 1.376 . S
C292 C293 1.388 . S
C293 H280 0.930 1_565 S
C293 C292 1.388 . S
C293 C294 1.390 . S
C294 C293 1.390 . S
C294 C295 1.394 . S
C294 C300 1.465 . S
C295 C290 1.399 . S
C295 C294 1.394 . S
C295 C296 1.516 . S
C296 C295 1.516 . S
C296 C297 1.502 . S
C296 C298 1.561 . S
C296 C299 1.526 . S
C297 H281 0.959 . S
C297 H282 0.959 . S
C297 H283 0.961 . S
C297 C296 1.502 . S
C298 H284 0.960 . S
C298 H285 0.961 . S
C298 H286 0.959 . S
C298 C296 1.561 . S
C299 C296 1.526 . S
C299 C300 1.396 . S
C299 C304 1.390 . S
C300 C294 1.465 . S
C300 C299 1.396 . S
C300 C301 1.399 1_565 S
C301 H287 0.929 . S
C301 C300 1.399 1_545 S
C301 C302 1.385 . S
C302 H288 0.931 . S
C302 C301 1.385 . S
C302 C303 1.389 1_545 S
C303 C302 1.389 1_565 S
C303 C304 1.387 . S
C304 H289 0.930 . S
C304 C299 1.390 . S
C304 C303 1.387 . S
H305 C317 0.930 . S
H306 C319 0.930 . S
H307 C320 0.930 . S
H308 C324 0.959 . S
H309 C324 0.959 . S
H310 C324 0.961 . S
H311 C325 0.960 . S
H312 C325 0.961 . S
H313 C325 0.959 . S
H314 C328 0.929 . S
H315 C329 0.931 . S
H316 C331 0.930 . S
C317 H305 0.930 . S
C317 C318 1.399 . S
C317 C322 1.399 . S
C318 C317 1.399 . S
C318 C319 1.376 . S
C319 H306 0.930 . S
C319 C318 1.376 . S
C319 C320 1.388 . S
C320 H307 0.930 . S
C320 C319 1.388 . S
C320 C321 1.390 . S
C321 C320 1.390 . S
C321 C322 1.394 . S
C321 C327 1.465 . S
C322 C317 1.399 . S
C322 C321 1.394 . S
C322 C323 1.516 . S
C323 C322 1.516 . S
C323 C324 1.502 . S
C323 C325 1.561 . S
C323 C326 1.526 . S
C324 H308 0.959 . S
C324 H309 0.959 . S
C324 H310 0.961 . S
C324 C323 1.502 . S
C325 H311 0.960 . S
C325 H312 0.961 . S
C325 H313 0.959 . S
C325 C323 1.561 . S
C326 C323 1.526 . S
C326 C327 1.396 . S
C326 C331 1.390 . S
C327 C321 1.465 . S
C327 C326 1.396 . S
C327 C328 1.399 . S
C328 H314 0.929 . S
C328 C327 1.399 . S
C328 C329 1.385 . S
C329 H315 0.931 . S
C329 C328 1.385 . S
C329 C330 1.389 . S
C330 C329 1.389 . S
C330 C331 1.387 . S
C331 H316 0.930 . S
C331 C326 1.390 . S
C331 C330 1.387 . S
H332 C344 0.930 . S
H333 C346 0.930 . S
H334 C347 0.930 . S
H335 C351 0.959 . S
H336 C351 0.959 . S
H337 C351 0.961 . S
H338 C352 0.960 . S
H339 C352 0.961 . S
H340 C352 0.959 . S
H341 C355 0.950 . S
H342 C356 0.931 1_565 S
H343 C358 0.930 . S
C344 H332 0.930 . S
C344 C345 1.399 . S
C344 C349 1.399 . S
C345 C344 1.399 . S
C345 C346 1.376 . S
C346 H333 0.930 . S
C346 C345 1.376 . S
C346 C347 1.388 . S
C347 H334 0.930 . S
C347 C346 1.388 . S
C347 C348 1.390 . S
C348 C347 1.390 . S
C348 C349 1.394 . S
C348 C354 1.465 . S
C349 C344 1.399 . S
C349 C348 1.394 . S
C349 C350 1.516 . S
C350 C349 1.516 . S
C350 C351 1.502 . S
C350 C352 1.561 . S
C350 C353 1.526 . S
C351 H335 0.959 . S
C351 H336 0.959 . S
C351 H337 0.961 . S
C351 C350 1.502 . S
C352 H338 0.960 . S
C352 H339 0.961 . S
C352 H340 0.959 . S
C352 C350 1.561 . S
C353 C350 1.526 . S
C353 C354 1.396 . S
C353 C358 1.390 . S
C354 C348 1.465 . S
C354 C353 1.396 . S
C354 C355 1.399 . S
C355 H341 0.950 . S
C355 C354 1.399 . S
C355 C356 1.385 . S
C356 H342 0.931 1_545 S
C356 C355 1.385 . S
C356 C357 1.389 . S
C357 C356 1.389 . S
C357 C358 1.387 . S
C358 H343 0.930 . S
C358 C353 1.390 . S
C358 C357 1.387 . S
H359 C371 0.930 . S
H360 C373 0.930 . S
H361 C374 0.930 . S
H362 C378 0.959 . S
H363 C378 0.959 . S
H364 C378 0.961 . S
H365 C379 0.960 . S
H366 C379 0.961 . S
H367 C379 0.959 . S
H368 C382 0.929 . S
H369 C383 0.931 . S
H370 C385 0.930 . S
C371 H359 0.930 . S
C371 C372 1.399 . S
C371 C376 1.399 . S
C372 C371 1.399 . S
C372 C373 1.376 . S
C373 H360 0.930 . S
C373 C372 1.376 . S
C373 C374 1.388 . S
C374 H361 0.930 . S
C374 C373 1.388 . S
C374 C375 1.390 . S
C375 C374 1.390 . S
C375 C376 1.394 . S
C375 C381 1.465 . S
C376 C371 1.399 . S
C376 C375 1.394 . S
C376 C377 1.516 . S
C377 C376 1.516 . S
C377 C378 1.502 . S
C377 C379 1.561 . S
C377 C380 1.526 . S
C378 H362 0.959 . S
C378 H363 0.959 . S
C378 H364 0.961 . S
C378 C377 1.502 . S
C379 H365 0.960 . S
C379 H366 0.961 . S
C379 H367 0.959 . S
C379 C377 1.561 . S
C380 C377 1.526 . S
C380 C381 1.396 . S
C380 C385 1.390 . S
C381 C375 1.465 . S
C381 C380 1.396 . S
C381 C382 1.399 . S
C382 H368 0.929 . S
C382 C381 1.399 . S
C382 C383 1.385 . S
C383 H369 0.931 . S
C383 C382 1.385 . S
C383 C384 1.389 . S
C384 C383 1.389 . S
C384 C385 1.387 . S
C385 H370 0.930 . S
C385 C380 1.390 . S
C385 C384 1.387 . S
H386 C398 0.930 . S
H387 C400 0.930 . S
H388 C401 0.930 . S
H389 C405 0.959 . S
H390 C405 0.959 . S
H391 C405 0.961 . S
H392 C406 0.960 . S
H393 C406 0.961 . S
H394 C406 0.959 . S
H395 C409 0.929 . S
H396 C410 0.931 . S
H397 C412 0.930 . S
C398 H386 0.930 . S
C398 C399 1.399 . S
C398 C403 1.399 . S
C399 C398 1.399 . S
C399 C400 1.376 . S
C400 H387 0.930 . S
C400 C399 1.376 . S
C400 C401 1.388 . S
C401 H388 0.930 . S
C401 C400 1.388 . S
C401 C402 1.390 . S
C402 C401 1.390 . S
C402 C403 1.394 . S
C402 C408 1.465 . S
C403 C398 1.399 . S
C403 C402 1.394 . S
C403 C404 1.516 . S
C404 C403 1.516 . S
C404 C405 1.502 . S
C404 C406 1.561 . S
C404 C407 1.526 . S
C405 H389 0.959 . S
C405 H390 0.959 . S
C405 H391 0.961 . S
C405 C404 1.502 . S
C406 H392 0.960 . S
C406 H393 0.961 . S
C406 H394 0.959 . S
C406 C404 1.561 . S
C407 C404 1.526 . S
C407 C408 1.396 . S
C407 C412 1.390 . S
C408 C402 1.465 . S
C408 C407 1.396 . S
C408 C409 1.399 . S
C409 H395 0.929 . S
C409 C408 1.399 . S
C409 C410 1.385 . S
C410 H396 0.931 . S
C410 C409 1.385 . S
C410 C411 1.389 . S
C411 C410 1.389 . S
C411 C412 1.387 . S
C412 H397 0.930 . S
C412 C407 1.390 . S
C412 C411 1.387 . S
H413 C425 0.930 . S
H414 C427 0.930 . S
H415 C428 0.930 . S
H416 C432 0.959 . S
H417 C432 0.959 . S
H418 C432 0.961 . S
H419 C433 0.960 . S
H420 C433 0.961 . S
H421 C433 0.959 . S
H422 C436 0.929 1_565 S
H423 C437 0.931 1_565 S
H424 C439 0.930 . S
C425 H413 0.930 . S
C425 C426 1.399 . S
C425 C430 1.399 . S
C426 C425 1.399 . S
C426 C427 1.376 . S
C427 H414 0.930 . S
C427 C426 1.376 . S
C427 C428 1.388 . S
C428 H415 0.930 . S
C428 C427 1.388 . S
C428 C429 1.390 . S
C429 C428 1.390 . S
C429 C430 1.394 . S
C429 C435 1.465 . S
C430 C425 1.399 . S
C430 C429 1.394 . S
C430 C431 1.516 . S
C431 C430 1.516 . S
C431 C432 1.502 . S
C431 C433 1.561 . S
C431 C434 1.526 . S
C432 H416 0.959 . S
C432 H417 0.959 . S
C432 H418 0.961 . S
C432 C431 1.502 . S
C433 H419 0.960 . S
C433 H420 0.961 . S
C433 H421 0.959 . S
C433 C431 1.561 . S
C434 C431 1.526 . S
C434 C435 1.396 . S
C434 C439 1.390 . S
C435 C429 1.465 . S
C435 C434 1.396 . S
C435 C436 1.399 . S
C436 H422 0.929 1_545 S
C436 C435 1.399 . S
C436 C437 1.385 . S
C437 H423 0.931 1_545 S
C437 C436 1.385 . S
C437 C438 1.389 . S
C438 C437 1.389 . S
C438 C439 1.387 . S
C439 H424 0.930 . S
C439 C434 1.390 . S
C439 C438 1.387 . S
H440 C452 0.930 . S
H441 C454 0.930 . S
H442 C455 0.930 . S
H443 C459 0.959 . S
H444 C459 0.959 . S
H445 C459 0.961 . S
H446 C460 0.960 . S
H447 C460 0.961 . S
H448 C460 0.959 . S
H449 C463 0.929 . S
H450 C464 0.931 . S
H451 C466 0.930 . S
C452 H440 0.930 . S
C452 C453 1.399 . S
C452 C457 1.399 . S
C453 C452 1.399 . S
C453 C454 1.376 . S
C454 H441 0.930 . S
C454 C453 1.376 . S
C454 C455 1.388 . S
C455 H442 0.930 . S
C455 C454 1.388 . S
C455 C456 1.390 . S
C456 C455 1.390 . S
C456 C457 1.394 . S
C456 C462 1.465 . S
C457 C452 1.399 . S
C457 C456 1.394 . S
C457 C458 1.516 . S
C458 C457 1.516 . S
C458 C459 1.502 . S
C458 C460 1.561 . S
C458 C461 1.526 . S
C459 H443 0.959 . S
C459 H444 0.959 . S
C459 H445 0.961 . S
C459 C458 1.502 . S
C460 H446 0.960 . S
C460 H447 0.961 . S
C460 H448 0.959 . S
C460 C458 1.561 . S
C461 C458 1.526 . S
C461 C462 1.396 . S
C461 C466 1.390 . S
C462 C456 1.465 . S
C462 C461 1.396 . S
C462 C463 1.399 . S
C463 H449 0.929 . S
C463 C462 1.399 . S
C463 C464 1.385 . S
C464 H450 0.931 . S
C464 C463 1.385 . S
C464 C465 1.389 . S
C465 C464 1.389 . S
C465 C466 1.387 . S
C466 H451 0.930 . S
C466 C461 1.390 . S
C466 C465 1.387 . S
H467 C479 0.930 . S
H468 C481 0.930 . S
H469 C482 0.930 . S
H470 C486 0.959 . S
H471 C486 0.959 . S
H472 C486 0.961 . S
H473 C487 0.960 . S
H474 C487 0.961 . S
H475 C487 0.959 . S
H476 C490 0.929 . S
H477 C491 0.931 . S
H478 C493 0.930 . S
C479 H467 0.930 . S
C479 C480 1.399 . S
C479 C484 1.399 . S
C480 C479 1.399 . S
C480 C481 1.376 . S
C481 H468 0.930 . S
C481 C480 1.376 . S
C481 C482 1.388 . S
C482 H469 0.930 . S
C482 C481 1.388 . S
C482 C483 1.390 . S
C483 C482 1.390 . S
C483 C484 1.394 . S
C483 C489 1.465 . S
C484 C479 1.399 . S
C484 C483 1.394 . S
C484 C485 1.516 . S
C485 C484 1.516 . S
C485 C486 1.502 1_565 S
C485 C487 1.561 . S
C485 C488 1.526 . S
C486 H470 0.959 . S
C486 H471 0.959 . S
C486 H472 0.961 . S
C486 C485 1.502 1_545 S
C487 H473 0.960 . S
C487 H474 0.961 . S
C487 H475 0.959 . S
C487 C485 1.561 . S
C488 C485 1.526 . S
C488 C489 1.396 . S
C488 C493 1.390 . S
C489 C483 1.465 . S
C489 C488 1.396 . S
C489 C490 1.399 . S
C490 H476 0.929 . S
C490 C489 1.399 . S
C490 C491 1.385 . S
C491 H477 0.931 . S
C491 C490 1.385 . S
C491 C492 1.389 . S
C492 C491 1.389 . S
C492 C493 1.387 . S
C493 H478 0.930 . S
C493 C488 1.390 . S
C493 C492 1.387 . S
C195 C143 1.260 . S
C183 C119 1.362 . S
C210 C23 1.499 . S
C222 C167 1.361 . S
C237 C55 1.645 . S
C249 C146 1.477 . S
C264 C87 1.557 . S
C276 C164 1.479 . S
C303 C144 1.563 . S
C291 C17 1.571 . S
C330 C166 1.532 . S
C318 C61 1.579 . S
C345 C93 1.528 . S
C357 C145 1.444 . S
C372 C113 1.438 . S
C384 C165 1.478 . S
C411 C163 1.528 . S
C399 C49 1.573 . S
C438 C142 1.559 . S
C426 C81 1.541 . S
C465 C162 1.567 . S
C453 C125 1.522 . S
C480 C29 1.569 . S
C492 C141 1.510 . S
