# Generated by pormake.
# Topology pyr, (3,6)-cn, num edge types: 1
# Building blocks:
#     Node 0, Type 0, BuildingBlock: PAMTOO_clean_linker_0, # of connection points: 3
#     Node 1, Type 0, BuildingBlock: PAMTOO_clean_linker_0, # of connection points: 3
#     Node 2, Type 0, BuildingBlock: PAMTOO_clean_linker_0, # of connection points: 3
#     Node 3, Type 0, BuildingBlock: PAMTOO_clean_linker_0, # of connection points: 3
#     Node 4, Type 0, BuildingBlock: PAMTOO_clean_linker_0, # of connection points: 3
#     Node 5, Type 0, BuildingBlock: PAMTOO_clean_linker_0, # of connection points: 3
#     Node 6, Type 0, BuildingBlock: PAMTOO_clean_linker_0, # of connection points: 3
#     Node 7, Type 0, BuildingBlock: PAMTOO_clean_linker_0, # of connection points: 3
#     Node 8, Type 1, BuildingBlock: MIFKUJ_clean_sbu_0, # of connection points: 6
#     Node 9, Type 1, BuildingBlock: MIFKUJ_clean_sbu_0, # of connection points: 6
#     Node 10, Type 1, BuildingBlock: MIFKUJ_clean_sbu_0, # of connection points: 6
#     Node 11, Type 1, BuildingBlock: MIFKUJ_clean_sbu_0, # of connection points: 6
#     Edge 12, Type (0, 1), BuildingBlock: ZUJKAS_clean_linker_0, # of connection points: 2
#     Edge 13, Type (0, 1), BuildingBlock: ZUJKAS_clean_linker_0, # of connection points: 2
#     Edge 14, Type (0, 1), BuildingBlock: ZUJKAS_clean_linker_0, # of connection points: 2
#     Edge 15, Type (0, 1), BuildingBlock: ZUJKAS_clean_linker_0, # of connection points: 2
#     Edge 16, Type (0, 1), BuildingBlock: ZUJKAS_clean_linker_0, # of connection points: 2
#     Edge 17, Type (0, 1), BuildingBlock: ZUJKAS_clean_linker_0, # of connection points: 2
#     Edge 18, Type (0, 1), BuildingBlock: ZUJKAS_clean_linker_0, # of connection points: 2
#     Edge 19, Type (0, 1), BuildingBlock: ZUJKAS_clean_linker_0, # of connection points: 2
#     Edge 20, Type (0, 1), BuildingBlock: ZUJKAS_clean_linker_0, # of connection points: 2
#     Edge 21, Type (0, 1), BuildingBlock: ZUJKAS_clean_linker_0, # of connection points: 2
#     Edge 22, Type (0, 1), BuildingBlock: ZUJKAS_clean_linker_0, # of connection points: 2
#     Edge 23, Type (0, 1), BuildingBlock: ZUJKAS_clean_linker_0, # of connection points: 2
#     Edge 24, Type (0, 1), BuildingBlock: ZUJKAS_clean_linker_0, # of connection points: 2
#     Edge 25, Type (0, 1), BuildingBlock: ZUJKAS_clean_linker_0, # of connection points: 2
#     Edge 26, Type (0, 1), BuildingBlock: ZUJKAS_clean_linker_0, # of connection points: 2
#     Edge 27, Type (0, 1), BuildingBlock: ZUJKAS_clean_linker_0, # of connection points: 2
#     Edge 28, Type (0, 1), BuildingBlock: ZUJKAS_clean_linker_0, # of connection points: 2
#     Edge 29, Type (0, 1), BuildingBlock: ZUJKAS_clean_linker_0, # of connection points: 2
#     Edge 30, Type (0, 1), BuildingBlock: ZUJKAS_clean_linker_0, # of connection points: 2
#     Edge 31, Type (0, 1), BuildingBlock: ZUJKAS_clean_linker_0, # of connection points: 2
#     Edge 32, Type (0, 1), BuildingBlock: ZUJKAS_clean_linker_0, # of connection points: 2
#     Edge 33, Type (0, 1), BuildingBlock: ZUJKAS_clean_linker_0, # of connection points: 2
#     Edge 34, Type (0, 1), BuildingBlock: ZUJKAS_clean_linker_0, # of connection points: 2
#     Edge 35, Type (0, 1), BuildingBlock: ZUJKAS_clean_linker_0, # of connection points: 2
# Relax obj value: 0.081
# Max RMSD: 0.212
# Mean RMSD: 0.139
data_MOF--net-pyr--node1-MIFKUJ_clean_sbu_0--node2-PAMTOO_clean_linker_0--edge1-ZUJKAS_clean_linker_0
_symmetry_space_group_name_H-M    P1
_symmetry_Int_Tables_number       1
_symmetry_cell_setting            triclinic
loop_
_symmetry_equiv_pos_as_xyz
'x, y, z'
_cell_length_a     49.441789
_cell_length_b     46.041311
_cell_length_c     49.010325
_cell_angle_alpha  86.343908
_cell_angle_beta   89.806053
_cell_angle_gamma 100.59757
loop_
_atom_site_label
_atom_site_type_symbol
_atom_site_fract_x
_atom_site_fract_y
_atom_site_fract_z
_atom_type_partial_charge
H0 H 0.17627 0.20269 0.23249 0.0
H1 H 0.23213 0.14102 0.235 0.0
H2 H 0.23303 0.20257 0.16557 0.0
H3 H 0.2381 0.14452 0.15175 0.0
C4 C 0.249 0.13693 0.16992 0.0
O5 O 0.25503 0.15948 0.18741 0.0
H6 H 0.23519 0.11765 0.18052 0.0
C7 C 0.19242 0.19359 0.223 0.0
C8 C 0.20316 0.20555 0.19725 0.0
C9 C 0.20269 0.17035 0.2369 0.0
C10 C 0.22419 0.15924 0.22487 0.0
C11 C 0.235 0.17094 0.19924 0.0
C12 C 0.22469 0.19413 0.18559 0.0
H13 H 0.34691 0.90173 0.7207 0.0
H14 H 0.34491 0.84596 0.65301 0.0
H15 H 0.40796 0.84672 0.71266 0.0
H16 H 0.42529 0.84947 0.65514 0.0
C17 C 0.40822 0.83274 0.64762 0.0
O18 O 0.38832 0.82419 0.66784 0.0
H19 H 0.39917 0.84326 0.62966 0.0
C20 C 0.35569 0.886 0.70957 0.0
C21 C 0.37899 0.8756 0.71989 0.0
C22 C 0.34296 0.8753 0.68555 0.0
C23 C 0.35411 0.85426 0.67168 0.0
C24 C 0.37755 0.84419 0.68145 0.0
C25 C 0.38977 0.85468 0.70549 0.0
H26 H 0.74399 0.31638 0.87197 0.0
H27 H 0.68163 0.33534 0.81587 0.0
H28 H 0.75911 0.39487 0.81745 0.0
H29 H 0.71219 0.42441 0.8115 0.0
C30 C 0.69761 0.40728 0.80124 0.0
O31 O 0.71093 0.38474 0.79478 0.0
H32 H 0.68003 0.39855 0.81553 0.0
C33 C 0.73723 0.33029 0.85568 0.0
C34 C 0.75484 0.35644 0.84606 0.0
C35 C 0.71068 0.32239 0.84513 0.0
C36 C 0.70213 0.34068 0.8241 0.0
C37 C 0.71962 0.36674 0.8143 0.0
C38 C 0.74589 0.37454 0.82516 0.0
H39 H 0.85561 0.6941 0.35627 0.0
H40 H 0.84916 0.62927 0.29601 0.0
H41 H 0.924 0.69251 0.30197 0.0
H42 H 0.90657 0.6817 0.24555 0.0
C43 C 0.89556 0.65836 0.2488 0.0
O44 O 0.89856 0.64815 0.27546 0.0
H45 H 0.87341 0.65792 0.2444 0.0
C46 C 0.8647 0.68444 0.33971 0.0
C47 C 0.89182 0.69614 0.33096 0.0
C48 C 0.84915 0.66032 0.32732 0.0
C49 C 0.86092 0.64783 0.3059 0.0
C50 C 0.8877 0.65976 0.2966 0.0
C51 C 0.90316 0.68377 0.30914 0.0
H52 H 0.83571 0.89852 0.80807 0.0
H53 H 0.82521 0.82848 0.87223 0.0
H54 H 0.88722 0.83245 0.81039 0.0
H55 H 0.85419 0.77419 0.82538 0.0
C56 C 0.85374 0.77558 0.84798 0.0
O57 O 0.86484 0.80385 0.85476 0.0
H58 H 0.83189 0.76979 0.85506 0.0
C59 C 0.84153 0.87878 0.81771 0.0
C60 C 0.86287 0.86701 0.80601 0.0
C61 C 0.82771 0.86518 0.84171 0.0
C62 C 0.83568 0.83966 0.85396 0.0
C63 C 0.85699 0.828 0.84255 0.0
C64 C 0.87053 0.84162 0.81875 0.0
H65 H 0.7442 0.12536 0.30908 0.0
H66 H 0.68339 0.18144 0.31179 0.0
H67 H 0.74283 0.18275 0.3751 0.0
H68 H 0.68729 0.18478 0.39425 0.0
C69 C 0.67988 0.19702 0.37632 0.0
O70 O 0.70077 0.20485 0.35701 0.0
H71 H 0.66226 0.18202 0.36755 0.0
C72 C 0.73498 0.14149 0.31917 0.0
C73 C 0.74641 0.15261 0.3436 0.0
C74 C 0.71239 0.15195 0.30717 0.0
C75 C 0.70105 0.1734 0.32026 0.0
C76 C 0.712 0.18432 0.34466 0.0
C77 C 0.73469 0.17414 0.35613 0.0
H78 H 0.3506 0.70973 0.15701 0.0
H79 H 0.33766 0.63618 0.21749 0.0
H80 H 0.41366 0.69822 0.21503 0.0
H81 H 0.41418 0.63155 0.21747 0.0
C82 C 0.39813 0.62521 0.23388 0.0
O83 O 0.38617 0.64925 0.23871 0.0
H84 H 0.38223 0.6069 0.22702 0.0
C85 C 0.35754 0.6978 0.17462 0.0
C86 C 0.38389 0.70769 0.18497 0.0
C87 C 0.34066 0.67188 0.18596 0.0
C88 C 0.35034 0.65605 0.20815 0.0
C89 C 0.37671 0.66537 0.21818 0.0
C90 C 0.3934 0.69113 0.20674 0.0
H91 H 0.15542 0.33858 0.73969 0.0
H92 H 0.23469 0.39098 0.75635 0.0
H93 H 0.22699 0.33194 0.69179 0.0
H94 H 0.27316 0.33118 0.72706 0.0
C95 C 0.28006 0.35546 0.72847 0.0
O96 O 0.26066 0.3707 0.71758 0.0
H97 H 0.28295 0.35985 0.75043 0.0
C98 C 0.1773 0.34505 0.73541 0.0
C99 C 0.18916 0.3325 0.71399 0.0
C100 C 0.19341 0.36657 0.75067 0.0
C101 C 0.2217 0.37491 0.74459 0.0
C102 C 0.23358 0.36237 0.72344 0.0
C103 C 0.21736 0.34154 0.70802 0.0
Zn104 Zn 0.07588 0.02324 0.5491 0.0
Zn105 Zn 0.00611 0.00545 0.49864 0.0
C106 C 0.0748 0.08142 0.56658 0.0
O107 O 0.05571 0.08093 0.54794 0.0
C108 C 0.97889 0.95023 0.48088 0.0
O109 O 0.95836 0.95793 0.494 0.0
O110 O 0.1043 0.99755 0.55889 0.0
O111 O 0.03796 0.00419 0.56307 0.0
O112 O 0.99963 0.99531 0.53899 0.0
C113 C 0.1044 0.98451 0.58258 0.0
O114 O 0.08456 0.98601 0.60005 0.0
O115 O 0.08632 0.05907 0.57064 0.0
C116 C 0.97594 0.05194 0.47684 0.0
O117 O 0.99877 0.07071 0.48097 0.0
O118 O 0.97483 0.02453 0.48329 0.0
O119 O 0.04242 0.02945 0.48542 0.0
O120 O 0.08071 0.03844 0.50956 0.0
O121 O 0.00235 0.96705 0.4806 0.0
C122 C 0.01223 0.99461 0.56154 0.0
C123 C 0.0677 0.04094 0.48744 0.0
Zn124 Zn 0.56789 0.99646 0.99622 0.0
Zn125 Zn 0.52868 0.03049 0.02866 0.0
C126 C 0.52988 0.96182 0.96167 0.0
O127 O 0.53975 0.94066 0.9753 0.0
C128 C 0.56707 0.06519 0.06323 0.0
O129 O 0.55706 0.08653 0.05007 0.0
O130 O 0.59954 0.97905 0.98258 0.0
O131 O 0.5822 0.04032 0.99599 0.0
O132 O 0.54123 0.05212 0.99258 0.0
C133 C 0.60696 0.98451 0.95763 0.0
O134 O 0.59392 0.00137 0.94186 0.0
O135 O 0.53811 0.98847 0.96766 0.0
C136 C 0.4892 0.04224 0.0669 0.0
O137 O 0.50196 0.02516 0.08275 0.0
O138 O 0.49715 0.04811 0.04214 0.0
O139 O 0.51407 0.98682 0.02939 0.0
O140 O 0.55463 0.97376 0.03173 0.0
O141 O 0.55878 0.03865 0.05694 0.0
C142 C 0.56681 0.05789 0.98697 0.0
C143 C 0.52908 0.96851 0.03758 0.0
Zn144 Zn 0.5616 0.49226 0.49962 0.0
Zn145 Zn 0.54408 0.54442 0.53244 0.0
C146 C 0.59333 0.52805 0.45762 0.0
O147 O 0.57309 0.51455 0.44311 0.0
C148 C 0.51335 0.50947 0.57467 0.0
O149 O 0.53107 0.52761 0.58844 0.0
O150 O 0.56762 0.45391 0.4844 0.0
O151 O 0.56637 0.48798 0.54032 0.0
O152 O 0.58025 0.53544 0.54613 0.0
C153 C 0.59079 0.4464 0.489 0.0
O154 O 0.60861 0.46303 0.50395 0.0
O155 O 0.59278 0.5228 0.48341 0.0
C156 C 0.51264 0.58792 0.54345 0.0
O157 O 0.49575 0.57031 0.52844 0.0
O158 O 0.53635 0.58187 0.54834 0.0
O159 O 0.53852 0.5496 0.49206 0.0
O160 O 0.52619 0.50225 0.48483 0.0
O161 O 0.51464 0.51185 0.5487 0.0
C162 C 0.58028 0.50843 0.55348 0.0
C163 C 0.52493 0.52921 0.47865 0.0
Zn164 Zn 0.03612 0.52763 0.99252 0.0
Zn165 Zn 0.06507 0.48256 0.03519 0.0
C166 C 0.99733 0.46972 0.98936 0.0
O167 O 0.01755 0.45594 0.99612 0.0
C168 C 0.0951 0.52007 0.07218 0.0
O169 O 0.07862 0.50174 0.08923 0.0
O170 O 0.02662 0.56475 0.97414 0.0
O171 O 0.04129 0.53575 0.0321 0.0
O172 O 0.02798 0.48964 0.0476 0.0
C173 C 0.00536 0.57239 0.98403 0.0
O174 O 0.99285 0.55684 0.00537 0.0
O175 O 1.00136 0.49784 0.98792 0.0
C176 C 0.09842 0.44281 0.05411 0.0
O177 O 0.11563 0.46184 0.03828 0.0
O178 O 0.07374 0.44668 0.05655 0.0
O179 O 0.07314 0.47612 0.99603 0.0
O180 O 0.06634 0.51568 0.97075 0.0
O181 O 0.09307 0.51674 0.04669 0.0
C182 C 0.0272 0.51691 0.04906 0.0
C183 C 0.07583 0.49183 0.97357 0.0
H184 H 0.1482 0.15555 0.25073 0.0
H185 H 0.12769 0.13443 0.29475 0.0
H186 H 0.20857 0.1338 0.32714 0.0
H187 H 0.22934 0.15541 0.28318 0.0
H188 H 0.13618 0.0791 0.32274 0.0
H189 H 0.16893 0.17747 0.38333 0.0
H190 H 0.16801 0.18017 0.34642 0.0
H191 H 0.19518 0.16569 0.36353 0.0
C192 C 0.16164 0.15122 0.26731 0.0
C193 C 0.19039 0.15731 0.26358 0.0
C194 C 0.14989 0.13902 0.29236 0.0
C195 C 0.16665 0.1329 0.3142 0.0
C196 C 0.19534 0.13875 0.31058 0.0
H197 H 0.12322 0.06131 0.48093 0.0
H198 H 0.14803 0.08335 0.43915 0.0
C199 C 0.20714 0.15083 0.28544 0.0
C200 C 0.15386 0.11971 0.34051 0.0
H201 H 0.14449 0.13429 0.40695 0.0
C202 C 0.138 0.0911 0.34119 0.0
C203 C 0.1565 0.13544 0.36449 0.0
C204 C 0.17291 0.16648 0.36457 0.0
C205 C 0.1246 0.07772 0.36529 0.0
C206 C 0.1266 0.09373 0.38914 0.0
C207 C 0.1429 0.12216 0.38859 0.0
C208 C 0.11148 0.08147 0.41469 0.0
C209 C 0.10872 0.04643 0.36506 0.0
C210 C 0.08267 0.07385 0.41493 0.0
C211 C 0.06844 0.06114 0.43868 0.0
C212 C 0.08274 0.05609 0.46278 0.0
C213 C 0.11156 0.06477 0.46272 0.0
C214 C 0.1258 0.07737 0.43888 0.0
H215 H 0.1157 0.03455 0.3481 0.0
H216 H 0.11086 0.03367 0.38468 0.0
H217 H 0.08658 0.04701 0.3621 0.0
H218 H 0.07119 0.07755 0.39666 0.0
H219 H 0.04622 0.05508 0.43806 0.0
H220 H 0.39845 0.84292 0.76143 0.0
H221 H 0.42195 0.86045 0.80268 0.0
H222 H 0.4129 0.94975 0.77826 0.0
H223 H 0.38938 0.93236 0.73677 0.0
H224 H 0.47052 0.90104 0.80521 0.0
H225 H 0.38567 0.94051 0.85781 0.0
H226 H 0.37977 0.91677 0.82966 0.0
H227 H 0.39296 0.95568 0.82332 0.0
C228 C 0.40146 0.86631 0.76478 0.0
C229 C 0.39209 0.88624 0.74569 0.0
C230 C 0.41479 0.87628 0.78846 0.0
C231 C 0.41896 0.90636 0.79376 0.0
C232 C 0.40942 0.92634 0.77493 0.0
H233 H 0.50898 0.00028 0.92587 0.0
H234 H 0.48175 0.98813 0.88497 0.0
C235 C 0.396 0.91636 0.75119 0.0
C236 C 0.43451 0.91676 0.81833 0.0
H237 H 0.42948 0.94965 0.87834 0.0
C238 C 0.46152 0.91165 0.82119 0.0
C239 C 0.42283 0.93082 0.8391 0.0
C240 C 0.39364 0.9361 0.83756 0.0
C241 C 0.47712 0.92006 0.84423 0.0
C242 C 0.46528 0.93353 0.86527 0.0
C243 C 0.43848 0.93925 0.86221 0.0
C244 C 0.48023 0.9409 0.89092 0.0
C245 C 0.5063 0.91466 0.84573 0.0
C246 C 0.48776 0.91833 0.90822 0.0
C247 C 0.50325 0.92515 0.93153 0.0
C248 C 0.51148 0.95473 0.93816 0.0
C249 C 0.50307 0.97728 0.92133 0.0
C250 C 0.4875 0.97039 0.89795 0.0
H251 H 0.51463 0.91165 0.82523 0.0
H252 H 0.52003 0.9333 0.85484 0.0
H253 H 0.50671 0.89419 0.85884 0.0
H254 H 0.48192 0.89538 0.90348 0.0
H255 H 0.50916 0.9072 0.94409 0.0
H256 H 0.66016 0.37923 0.76656 0.0
H257 H 0.64208 0.39987 0.72454 0.0
H258 H 0.69168 0.48528 0.73704 0.0
H259 H 0.71026 0.46448 0.7787 0.0
H260 H 0.61301 0.4452 0.71845 0.0
H261 H 0.71092 0.47303 0.65836 0.0
H262 H 0.70731 0.44942 0.68949 0.0
H263 H 0.71198 0.48894 0.69094 0.0
C264 C 0.66727 0.40235 0.76014 0.0
C265 C 0.68667 0.42026 0.77561 0.0
C266 C 0.65695 0.41411 0.73626 0.0
C267 C 0.66586 0.44398 0.72748 0.0
C268 C 0.68501 0.46202 0.74313 0.0
H269 H 0.61245 0.54569 0.58698 0.0
H270 H 0.63372 0.53197 0.62993 0.0
C271 C 0.69545 0.4502 0.76696 0.0
C272 C 0.65447 0.45626 0.7023 0.0
H273 H 0.67181 0.48801 0.63821 0.0
C274 C 0.62587 0.45459 0.70093 0.0
C275 C 0.67134 0.4686 0.67952 0.0
C276 C 0.70207 0.46992 0.67944 0.0
C277 C 0.61366 0.46472 0.67729 0.0
C278 C 0.63047 0.47659 0.65442 0.0
C279 C 0.65909 0.47893 0.65592 0.0
C280 C 0.61842 0.48501 0.62823 0.0
C281 C 0.58283 0.46254 0.67684 0.0
C282 C 0.6033 0.46303 0.61301 0.0
C283 C 0.59131 0.4707 0.58853 0.0
C284 C 0.59419 0.50054 0.57883 0.0
C285 C 0.60979 0.52252 0.59394 0.0
C286 C 0.62195 0.51476 0.61843 0.0
H287 H 0.5736 0.45914 0.69776 0.0
H288 H 0.57733 0.48286 0.66663 0.0
H289 H 0.57358 0.44347 0.66507 0.0
H290 H 0.60068 0.43991 0.62016 0.0
H291 H 0.57951 0.45318 0.5774 0.0
H292 H 0.86829 0.61029 0.22357 0.0
H293 H 0.88745 0.57943 0.19226 0.0
H294 H 0.96817 0.63242 0.20085 0.0
H295 H 0.94907 0.66307 0.2323 0.0
H296 H 0.91425 0.59868 0.14257 0.0
H297 H 0.9821 0.54757 0.21314 0.0
H298 H 0.95506 0.56542 0.22507 0.0
H299 H 0.9876 0.58718 0.21362 0.0
C300 C 0.89012 0.61521 0.21874 0.0
C301 C 0.90721 0.63926 0.22985 0.0
C302 C 0.90103 0.59759 0.20099 0.0
C303 C 0.92926 0.60347 0.19449 0.0
C304 C 0.94642 0.62719 0.20598 0.0
H305 H 0.02083 0.57346 0.05612 0.0
H306 H 0.99448 0.59089 0.0917 0.0
C307 C 0.93551 0.64483 0.22369 0.0
C308 C 0.94058 0.58603 0.17438 0.0
H309 H 0.99069 0.54536 0.16513 0.0
C310 C 0.93071 0.58668 0.14758 0.0
C311 C 0.96176 0.57004 0.18106 0.0
C312 C 0.97209 0.56721 0.20986 0.0
C313 C 0.94242 0.573 0.12695 0.0
C314 C 0.96476 0.55862 0.13327 0.0
C315 C 0.97372 0.55666 0.16033 0.0
C316 C 0.98033 0.54746 0.11167 0.0
C317 C 0.93109 0.57443 0.09844 0.0
C318 C 0.98156 0.51726 0.11148 0.0
C319 C 0.99668 0.50712 0.09106 0.0
C320 C 0.01101 0.52712 0.07075 0.0
C321 C 0.00992 0.55739 0.07132 0.0
C322 C 0.99475 0.56743 0.09158 0.0
H323 H 0.90964 0.57854 0.09861 0.0
H324 H 0.94396 0.5929 0.08601 0.0
H325 H 0.93147 0.55358 0.08835 0.0
H326 H 0.9707 0.50157 0.127 0.0
H327 H 0.99722 0.48369 0.09125 0.0
H328 H 0.26499 0.08297 0.17758 0.0
H329 H 0.30707 0.06865 0.16062 0.0
H330 H 0.33366 0.1569 0.12362 0.0
H331 H 0.2915 0.1713 0.14058 0.0
H332 H 0.32462 0.07192 0.10434 0.0
H333 H 0.40061 0.1395 0.16915 0.0
H334 H 0.36426 0.1309 0.17741 0.0
H335 H 0.37709 0.15904 0.1511 0.0
C336 C 0.27992 0.09932 0.16597 0.0
C337 C 0.27518 0.12826 0.16043 0.0
C338 C 0.30387 0.09114 0.1563 0.0
C339 C 0.32355 0.11181 0.14114 0.0
C340 C 0.3189 0.14077 0.13565 0.0
H341 H 0.45558 0.07427 0.03872 0.0
H342 H 0.41559 0.09193 0.05648 0.0
C343 C 0.29488 0.14893 0.14523 0.0
C344 C 0.34844 0.1027 0.13025 0.0
H345 H 0.41847 0.11426 0.13462 0.0
C346 C 0.34515 0.08116 0.11092 0.0
C347 C 0.37512 0.11468 0.13908 0.0
C348 C 0.37964 0.13715 0.16049 0.0
C349 C 0.36793 0.07141 0.09999 0.0
C350 C 0.39465 0.08373 0.1085 0.0
C351 C 0.39794 0.10508 0.12801 0.0
C352 C 0.41937 0.07404 0.09789 0.0
C353 C 0.36324 0.04764 0.07981 0.0
C354 C 0.43501 0.05871 0.11546 0.0
C355 C 0.45782 0.04857 0.10541 0.0
C356 C 0.46553 0.05381 0.07763 0.0
C357 C 0.45013 0.06976 0.0602 0.0
C358 C 0.42723 0.07978 0.07026 0.0
H359 H 0.34137 0.03631 0.07963 0.0
H360 H 0.36898 0.0578 0.05896 0.0
H361 H 0.3763 0.03082 0.08461 0.0
H362 H 0.42928 0.05417 0.13688 0.0
H363 H 0.4693 0.03648 0.11941 0.0
H364 H 0.33372 0.93227 0.68015 0.0
H365 H 0.2929 0.94951 0.66213 0.0
H366 H 0.25477 0.85945 0.64937 0.0
H367 H 0.29576 0.84218 0.66683 0.0
H368 H 0.24744 0.89507 0.60622 0.0
H369 H 0.22002 0.94522 0.69979 0.0
H370 H 0.25429 0.96042 0.6877 0.0
H371 H 0.24566 0.92197 0.69956 0.0
C372 C 0.31653 0.91613 0.67373 0.0
C373 C 0.31796 0.88584 0.67503 0.0
C374 C 0.29314 0.926 0.66351 0.0
C375 C 0.27045 0.90576 0.65483 0.0
C376 C 0.27192 0.87552 0.65597 0.0
H377 H 0.10775 0.94893 0.62882 0.0
H378 H 0.14734 0.92825 0.6451 0.0
C379 C 0.2954 0.86567 0.66592 0.0
C380 C 0.24541 0.91606 0.64402 0.0
H381 H 0.19625 0.9561 0.65935 0.0
C382 C 0.23618 0.9083 0.61791 0.0
C383 C 0.23036 0.93294 0.65938 0.0
C384 C 0.2379 0.94037 0.68826 0.0
C385 C 0.21267 0.91727 0.6066 0.0
C386 C 0.19832 0.93522 0.62149 0.0
C387 C 0.20733 0.94261 0.64776 0.0
C388 C 0.17376 0.94636 0.61047 0.0
C389 C 0.20314 0.90682 0.57908 0.0
C390 C 0.17522 0.96336 0.58546 0.0
C391 C 0.15242 0.97491 0.5759 0.0
C392 C 0.12781 0.97017 0.5914 0.0
C393 C 0.12635 0.95301 0.61634 0.0
C394 C 0.14903 0.94122 0.62573 0.0
H395 H 0.21078 0.88639 0.57451 0.0
H396 H 0.18033 0.90233 0.578 0.0
H397 H 0.21135 0.92424 0.56294 0.0
H398 H 0.19421 0.96834 0.5736 0.0
H399 H 0.15438 0.9883 0.55676 0.0
H400 H 0.77682 0.4112 0.86237 0.0
H401 H 0.81881 0.42527 0.88838 0.0
H402 H 0.83469 0.33635 0.88702 0.0
H403 H 0.79299 0.32223 0.86044 0.0
H404 H 0.82845 0.39682 0.94089 0.0
H405 H 0.90896 0.39046 0.86287 0.0
H406 H 0.87422 0.39367 0.85375 0.0
H407 H 0.88146 0.35895 0.86762 0.0
C408 C 0.78958 0.39482 0.86706 0.0
C409 C 0.78166 0.36563 0.85934 0.0
C410 C 0.8134 0.40282 0.88209 0.0
C411 C 0.82981 0.38185 0.88947 0.0
C412 C 0.8224 0.35289 0.88126 0.0
H413 H 0.98444 0.41094 0.97924 0.0
H414 H 0.94243 0.38556 0.95826 0.0
C415 C 0.79851 0.34484 0.86626 0.0
C416 C 0.8539 0.3901 0.90697 0.0
H417 H 0.92406 0.40265 0.90693 0.0
C418 C 0.84937 0.39797 0.93356 0.0
C419 C 0.88106 0.39116 0.89737 0.0
C420 C 0.88691 0.38332 0.86879 0.0
C421 C 0.87141 0.40752 0.9507 0.0
C422 C 0.89862 0.40975 0.94074 0.0
C423 C 0.90313 0.40086 0.91449 0.0
C424 C 0.92263 0.4238 0.95614 0.0
C425 C 0.86536 0.4153 0.97925 0.0
C426 C 0.9252 0.45356 0.96208 0.0
C427 C 0.94904 0.46807 0.974 0.0
C428 C 0.97089 0.45313 0.98005 0.0
C429 C 0.96793 0.42302 0.97491 0.0
C430 C 0.94402 0.40851 0.96287 0.0
H431 H 0.84468 0.40365 0.98662 0.0
H432 H 0.88102 0.40964 0.99386 0.0
H433 H 0.86566 0.43946 0.97919 0.0
H434 H 0.90917 0.46592 0.95656 0.0
H435 H 0.95066 0.49128 0.97768 0.0
H436 H 0.82674 0.60285 0.34205 0.0
H437 H 0.78081 0.58362 0.36157 0.0
H438 H 0.76158 0.67147 0.35368 0.0
H439 H 0.80783 0.69087 0.33499 0.0
H440 H 0.74725 0.64661 0.40252 0.0
H441 H 0.70736 0.56662 0.32626 0.0
H442 H 0.73914 0.55951 0.34021 0.0
H443 H 0.73849 0.59374 0.32045 0.0
C444 C 0.81251 0.61791 0.34414 0.0
C445 C 0.82071 0.64828 0.33703 0.0
C446 C 0.78625 0.60692 0.35516 0.0
C447 C 0.76755 0.62602 0.35865 0.0
C448 C 0.77562 0.65632 0.3511 0.0
H449 H 0.59698 0.55253 0.40531 0.0
H450 H 0.6381 0.57993 0.38112 0.0
C451 C 0.802 0.66737 0.34046 0.0
C452 C 0.74023 0.61473 0.37174 0.0
H453 H 0.68318 0.56062 0.3694 0.0
C454 C 0.73309 0.62802 0.39508 0.0
C455 C 0.72151 0.59085 0.36178 0.0
C456 C 0.72689 0.57709 0.33562 0.0
C457 C 0.70816 0.61745 0.40924 0.0
C458 C 0.6903 0.59231 0.40033 0.0
C459 C 0.69702 0.57967 0.37646 0.0
C460 C 0.66494 0.57817 0.41576 0.0
C461 C 0.70119 0.63355 0.43344 0.0
C462 C 0.66628 0.5683 0.44335 0.0
C463 C 0.64273 0.55304 0.45733 0.0
C464 C 0.61754 0.54679 0.44377 0.0
C465 C 0.61614 0.55698 0.41626 0.0
C466 C 0.63961 0.5726 0.40241 0.0
H467 H 0.71161 0.65715 0.43176 0.0
H468 H 0.67867 0.63263 0.43542 0.0
H469 H 0.70842 0.6231 0.4524 0.0
H470 H 0.68571 0.57157 0.45389 0.0
H471 H 0.64451 0.54517 0.47844 0.0
H472 H 0.23088 0.25457 0.16755 0.0
H473 H 0.21139 0.29387 0.14323 0.0
H474 H 0.12983 0.25026 0.1693 0.0
H475 H 0.14899 0.2106 0.19322 0.0
H476 H 0.16994 0.28695 0.10092 0.0
H477 H 0.13654 0.33669 0.19289 0.0
H478 H 0.16162 0.31264 0.19438 0.0
H479 H 0.12569 0.29732 0.19171 0.0
C480 C 0.20878 0.25322 0.16795 0.0
C481 C 0.19151 0.22952 0.18246 0.0
C482 C 0.19771 0.27575 0.15418 0.0
C483 C 0.16925 0.27511 0.15483 0.0
C484 C 0.15191 0.25141 0.16903 0.0
H485 H 0.06801 0.3975 0.08641 0.0
H486 H 0.08429 0.35563 0.11018 0.0
C487 C 0.16292 0.22883 0.18272 0.0
C488 C 0.15763 0.29896 0.14018 0.0
H489 H 0.12408 0.35607 0.14992 0.0
C490 C 0.15994 0.30212 0.11158 0.0
C491 C 0.14443 0.31847 0.15422 0.0
C492 C 0.14202 0.31639 0.18501 0.0
C493 C 0.14925 0.32427 0.09655 0.0
C494 C 0.13648 0.34417 0.11061 0.0
C495 C 0.13388 0.34077 0.13922 0.0
C496 C 0.12651 0.36928 0.09606 0.0
C497 C 0.15135 0.32586 0.06574 0.0
C498 C 0.14494 0.391 0.08063 0.0
C499 C 0.13572 0.41479 0.06699 0.0
C500 C 0.10792 0.41752 0.06874 0.0
C501 C 0.08954 0.39597 0.08458 0.0
C502 C 0.09879 0.37207 0.09817 0.0
H503 H 0.15402 0.30434 0.0581 0.0
H504 H 0.13278 0.33235 0.05629 0.0
H505 H 0.16954 0.3427 0.05888 0.0
H506 H 0.16655 0.38968 0.07929 0.0
H507 H 0.15048 0.43112 0.05517 0.0
H508 H 0.70311 0.3038 0.89902 0.0
H509 H 0.67452 0.25853 0.91874 0.0
H510 H 0.64528 0.23623 0.83852 0.0
H511 H 0.67506 0.28102 0.81833 0.0
H512 H 0.61936 0.23937 0.91869 0.0
H513 H 0.67305 0.16212 0.86609 0.0
H514 H 0.68667 0.20124 0.86622 0.0
H515 H 0.65902 0.18796 0.84388 0.0
C516 C 0.69091 0.28911 0.88547 0.0
C517 C 0.69177 0.29573 0.85703 0.0
C518 C 0.67434 0.26338 0.89682 0.0
C519 C 0.65813 0.24378 0.88006 0.0
C520 C 0.65809 0.25077 0.85175 0.0
H521 H 0.53935 0.09592 0.95807 0.0
H522 H 0.55927 0.14053 0.92988 0.0
C523 C 0.67487 0.27651 0.8403 0.0
C524 C 0.64175 0.21592 0.89259 0.0
H525 H 0.636 0.14077 0.89553 0.0
C526 C 0.6228 0.21777 0.9135 0.0
C527 C 0.64656 0.18784 0.88593 0.0
C528 C 0.66758 0.18452 0.86448 0.0
C529 C 0.60905 0.19234 0.9285 0.0
C530 C 0.61388 0.16426 0.92186 0.0
C531 C 0.63228 0.16235 0.90045 0.0
C532 C 0.60152 0.13675 0.93805 0.0
C533 C 0.5905 0.19594 0.95209 0.0
C534 C 0.61867 0.11936 0.95131 0.0
C535 C 0.60738 0.09369 0.96712 0.0
C536 C 0.57869 0.08496 0.97004 0.0
C537 C 0.56154 0.10223 0.95647 0.0
C538 C 0.57287 0.12779 0.94044 0.0
H539 H 0.59428 0.21901 0.95856 0.0
H540 H 0.56872 0.19041 0.94577 0.0
H541 H 0.59341 0.18083 0.96998 0.0
H542 H 0.64085 0.12586 0.94968 0.0
H543 H 0.62117 0.08084 0.97724 0.0
H544 H 0.92348 0.74649 0.30709 0.0
H545 H 0.94633 0.7901 0.32991 0.0
H546 H 0.91826 0.74674 0.40821 0.0
H547 H 0.89604 0.70301 0.38569 0.0
H548 H 0.91914 0.82372 0.36114 0.0
H549 H 0.99861 0.78076 0.42266 0.0
H550 H 0.98186 0.76173 0.39443 0.0
H551 H 0.96519 0.75791 0.4275 0.0
C552 C 0.92275 0.74605 0.3292 0.0
C553 C 0.90789 0.72143 0.34462 0.0
C554 C 0.9357 0.77098 0.34219 0.0
C555 C 0.93426 0.77149 0.37076 0.0
C556 C 0.9201 0.7466 0.38619 0.0
H557 H 0.93061 0.91167 0.47492 0.0
H558 H 0.92228 0.86925 0.44659 0.0
C559 C 0.90713 0.72178 0.37327 0.0
C560 C 0.94512 0.7989 0.38442 0.0
H561 H 0.98541 0.82533 0.43709 0.0
C562 C 0.93396 0.82423 0.37745 0.0
C563 C 0.96466 0.79962 0.40549 0.0
C564 C 0.97849 0.77363 0.41279 0.0
C565 C 0.94078 0.84979 0.39194 0.0
C566 C 0.9589 0.8498 0.41419 0.0
C567 C 0.97119 0.82506 0.42026 0.0
C568 C 0.96441 0.87487 0.43203 0.0
C569 C 0.92825 0.87646 0.38353 0.0
C570 C 0.99105 0.89144 0.43389 0.0
C571 C 0.99593 0.91568 0.45016 0.0
C572 C 0.97424 0.92355 0.46499 0.0
C573 C 0.94773 0.90632 0.46366 0.0
C574 C 0.94289 0.88217 0.44736 0.0
H575 H 0.92117 0.87592 0.36205 0.0
H576 H 0.91014 0.87666 0.39691 0.0
H577 H 0.9432 0.89733 0.38571 0.0
H578 H 0.00794 0.88596 0.42235 0.0
H579 H 0.0166 0.92845 0.45082 0.0
H580 H 0.38555 0.79183 0.6121 0.0
H581 H 0.40448 0.74995 0.5964 0.0
H582 H 0.47471 0.77241 0.64806 0.0
H583 H 0.45556 0.81393 0.66409 0.0
H584 H 0.45397 0.7527 0.56911 0.0
H585 H 0.45166 0.68388 0.6666 0.0
H586 H 0.43295 0.71399 0.66217 0.0
H587 H 0.46931 0.72143 0.66836 0.0
C588 C 0.40491 0.78759 0.62021 0.0
C589 C 0.41927 0.80621 0.63903 0.0
C590 C 0.41572 0.76374 0.61125 0.0
C591 C 0.44092 0.75786 0.6212 0.0
C592 C 0.45503 0.77616 0.64043 0.0
H593 H 0.53998 0.6268 0.57895 0.0
H594 H 0.52399 0.669 0.59773 0.0
C595 C 0.44419 0.79998 0.64943 0.0
C596 C 0.453 0.7335 0.61041 0.0
H597 H 0.47472 0.66878 0.62894 0.0
C598 C 0.45843 0.73432 0.5822 0.0
C599 C 0.45903 0.70961 0.62751 0.0
C600 C 0.45274 0.70692 0.65781 0.0
C601 C 0.46976 0.712 0.57064 0.0
C602 C 0.47544 0.68793 0.58767 0.0
C603 C 0.47041 0.68729 0.61593 0.0
C604 C 0.48538 0.66257 0.57629 0.0
C605 C 0.47579 0.71453 0.54029 0.0
C606 C 0.46888 0.64478 0.55828 0.0
C607 C 0.4779 0.62075 0.54758 0.0
C608 C 0.50364 0.61385 0.55472 0.0
C609 C 0.52013 0.63159 0.57292 0.0
C610 C 0.511 0.65566 0.58372 0.0
H611 H 0.47744 0.73767 0.53156 0.0
H612 H 0.49521 0.70678 0.53575 0.0
H613 H 0.45879 0.7005 0.52985 0.0
H614 H 0.44883 0.64935 0.55265 0.0
H615 H 0.46457 0.60752 0.53374 0.0
H616 H 0.87621 0.83988 0.76127 0.0
H617 H 0.9013 0.86286 0.71998 0.0
H618 H 0.90718 0.9489 0.75194 0.0
H619 H 0.88188 0.92604 0.79329 0.0
H620 H 0.89283 0.94874 0.69777 0.0
H621 H 0.98354 0.89513 0.71492 0.0
H622 H 0.95165 0.86921 0.71464 0.0
H623 H 0.95772 0.8949 0.74109 0.0
C624 C 0.88301 0.86368 0.75957 0.0
C625 C 0.87728 0.88115 0.7806 0.0
C626 C 0.89737 0.87676 0.736 0.0
C627 C 0.90658 0.90751 0.73314 0.0
C628 C 0.90037 0.9251 0.75382 0.0
H629 H 0.02993 0.99682 0.61437 0.0
H630 H 0.00387 0.97707 0.656 0.0
C631 C 0.88585 0.91204 0.77736 0.0
C632 C 0.92257 0.92131 0.70851 0.0
H633 H 0.98085 0.92027 0.67135 0.0
C634 C 0.91215 0.94264 0.69203 0.0
C635 C 0.94796 0.91363 0.70131 0.0
C636 C 0.96105 0.89219 0.71905 0.0
C637 C 0.92617 0.95608 0.66821 0.0
C638 C 0.951 0.94749 0.66042 0.0
C639 C 0.96167 0.92659 0.6772 0.0
C640 C 0.9664 0.96004 0.63506 0.0
C641 C 0.9145 0.97968 0.65188 0.0
C642 C 0.95406 0.95677 0.60941 0.0
C643 C 0.96886 0.96815 0.58554 0.0
C644 C 0.99642 0.98272 0.58684 0.0
C645 C 0.00878 0.98569 0.61258 0.0
C646 C 0.99391 0.97444 0.63643 0.0
H647 H 0.9002 0.98953 0.66443 0.0
H648 H 0.93112 0.99767 0.64352 0.0
H649 H 0.90277 0.96965 0.63448 0.0
H650 H 0.93308 0.94509 0.60782 0.0
H651 H 0.95877 0.96524 0.56606 0.0
H652 H 0.69529 0.18387 0.26361 0.0
H653 H 0.67372 0.16544 0.22175 0.0
H654 H 0.68193 0.07659 0.24887 0.0
H655 H 0.70288 0.09476 0.29129 0.0
H656 H 0.69379 0.13449 0.1809 0.0
H657 H 0.59971 0.06794 0.23169 0.0
H658 H 0.62311 0.09539 0.24897 0.0
H659 H 0.63181 0.05983 0.24421 0.0
C660 C 0.69232 0.16035 0.26083 0.0
C661 C 0.70057 0.14076 0.28101 0.0
C662 C 0.68015 0.14988 0.23677 0.0
C663 C 0.67582 0.11958 0.23232 0.0
C664 C 0.68463 0.1 0.25206 0.0
H665 H 0.58762 0.02617 0.09868 0.0
H666 H 0.6163 0.03776 0.1387 0.0
C667 C 0.69687 0.11048 0.27618 0.0
C668 C 0.66193 0.10872 0.20703 0.0
H669 H 0.60344 0.06633 0.18388 0.0
C670 C 0.67409 0.11949 0.18156 0.0
C671 C 0.63627 0.08904 0.20788 0.0
C672 C 0.62176 0.0775 0.2346 0.0
C673 C 0.66122 0.1113 0.15694 0.0
C674 C 0.63521 0.09226 0.15778 0.0
C675 C 0.62337 0.0809 0.18324 0.0
C676 C 0.61922 0.0852 0.13259 0.0
C677 C 0.67568 0.12305 0.13025 0.0
C678 C 0.61124 0.10797 0.11587 0.0
C679 C 0.5949 0.10143 0.09303 0.0
C680 C 0.58598 0.07193 0.08644 0.0
C681 C 0.59422 0.04913 0.10306 0.0
C682 C 0.61056 0.05571 0.12599 0.0
H683 H 0.69826 0.1294 0.13287 0.0
H684 H 0.67173 0.10643 0.11459 0.0
H685 H 0.66792 0.14312 0.1225 0.0
H686 H 0.61711 0.13083 0.12084 0.0
H687 H 0.58887 0.11956 0.08081 0.0
H688 H 0.37558 0.617 0.28557 0.0
H689 H 0.39607 0.59989 0.3277 0.0
H690 H 0.468 0.58974 0.2818 0.0
H691 H 0.44795 0.60777 0.23983 0.0
H692 H 0.41244 0.54814 0.34211 0.0
H693 H 0.5017 0.64084 0.34157 0.0
H694 H 0.47274 0.64152 0.3194 0.0
H695 H 0.49925 0.62149 0.31077 0.0
C696 C 0.39592 0.61148 0.28462 0.0
C697 C 0.41061 0.61457 0.25969 0.0
C698 C 0.40751 0.60155 0.30859 0.0
C699 C 0.43382 0.59422 0.30796 0.0
C700 C 0.44804 0.59615 0.28287 0.0
H701 H 0.50577 0.49492 0.43668 0.0
H702 H 0.48246 0.50989 0.39559 0.0
C703 C 0.43655 0.60632 0.25894 0.0
C704 C 0.44628 0.58438 0.33354 0.0
H705 H 0.50256 0.60022 0.37375 0.0
C706 C 0.43209 0.55957 0.34912 0.0
C707 C 0.47172 0.59961 0.34282 0.0
C708 C 0.48712 0.62752 0.32793 0.0
C709 C 0.44283 0.54933 0.37362 0.0
C710 C 0.46876 0.56392 0.38235 0.0
C711 C 0.48279 0.58891 0.36689 0.0
C712 C 0.48164 0.55413 0.40772 0.0
C713 C 0.42603 0.52344 0.39017 0.0
C714 C 0.48935 0.57418 0.42793 0.0
C715 C 0.50304 0.56587 0.45115 0.0
C716 C 0.50919 0.53726 0.45468 0.0
C717 C 0.50106 0.51701 0.43465 0.0
C718 C 0.48762 0.52548 0.41123 0.0
H719 H 0.40387 0.52044 0.38499 0.0
H720 H 0.43342 0.50289 0.38565 0.0
H721 H 0.42811 0.52631 0.41244 0.0
H722 H 0.48498 0.59642 0.42561 0.0
H723 H 0.50894 0.58194 0.46627 0.0
H724 H 0.20325 0.42492 0.76202 0.0
H725 H 0.18371 0.44767 0.79933 0.0
H726 H 0.13531 0.36292 0.82633 0.0
H727 H 0.15503 0.33981 0.78926 0.0
H728 H 0.1059 0.41139 0.8231 0.0
H729 H 0.20295 0.43594 0.88118 0.0
H730 H 0.20542 0.44909 0.84577 0.0
H731 H 0.19815 0.40997 0.85473 0.0
C732 C 0.18865 0.41104 0.77605 0.0
C733 C 0.18086 0.3805 0.77281 0.0
C734 C 0.17748 0.4241 0.7973 0.0
C735 C 0.15839 0.40687 0.81573 0.0
C736 C 0.1501 0.37653 0.81229 0.0
H737 H 0.10264 0.445 0.97375 0.0
H738 H 0.12264 0.42565 0.93474 0.0
C739 C 0.16129 0.36342 0.79105 0.0
C740 C 0.14705 0.42053 0.83864 0.0
H741 H 0.16493 0.45486 0.89738 0.0
C742 C 0.11876 0.42094 0.83935 0.0
C743 C 0.16392 0.43268 0.85987 0.0
C744 C 0.19427 0.43176 0.86061 0.0
C745 C 0.10687 0.43342 0.86072 0.0
C746 C 0.12383 0.44603 0.88169 0.0
C747 C 0.15209 0.44543 0.88107 0.0
C748 C 0.1124 0.45868 0.90517 0.0
C749 C 0.0762 0.43246 0.86105 0.0
C750 C 0.10048 0.48402 0.90147 0.0
C751 C 0.08903 0.49525 0.92375 0.0
C752 C 0.08935 0.48127 0.9501 0.0
C753 C 0.1019 0.45625 0.95373 0.0
C754 C 0.11339 0.44515 0.93149 0.0
H755 H 0.06543 0.4168 0.84655 0.0
H756 H 0.06741 0.42586 0.88189 0.0
H757 H 0.07203 0.45485 0.85508 0.0
H758 H 0.09992 0.49501 0.88132 0.0
H759 H 0.07959 0.51457 0.92026 0.0
H760 H 0.81694 0.87 0.89597 0.0
H761 H 0.77881 0.88887 0.91599 0.0
H762 H 0.7497 0.90851 0.83528 0.0
H763 H 0.78697 0.88837 0.81509 0.0
H764 H 0.76606 0.94388 0.91048 0.0
H765 H 0.68056 0.86176 0.87226 0.0
H766 H 0.71595 0.85699 0.87097 0.0
H767 H 0.70321 0.88083 0.84556 0.0
C768 C 0.80219 0.8779 0.88245 0.0
C769 C 0.80493 0.87744 0.8539 0.0
C770 C 0.78052 0.88889 0.89394 0.0
C771 C 0.76113 0.89962 0.87716 0.0
C772 C 0.76406 0.89972 0.84865 0.0
H773 H 0.62374 0.98687 0.90426 0.0
H774 H 0.66144 0.96616 0.88552 0.0
C775 C 0.78564 0.88858 0.83713 0.0
C776 C 0.73824 0.91136 0.88949 0.0
H777 H 0.66818 0.90348 0.8921 0.0
C778 C 0.74466 0.93491 0.90662 0.0
C779 C 0.71031 0.89956 0.88449 0.0
C780 C 0.70203 0.8732 0.86754 0.0
C781 C 0.72392 0.94741 0.91839 0.0
C782 C 0.69608 0.9359 0.91302 0.0
C783 C 0.68961 0.91228 0.89605 0.0
C784 C 0.67335 0.94834 0.92461 0.0
C785 C 0.73187 0.97322 0.93603 0.0
C786 C 0.66747 0.94488 0.95277 0.0
C787 C 0.64584 0.95656 0.96357 0.0
C788 C 0.62981 0.97197 0.94635 0.0
C789 C 0.63575 0.97525 0.91811 0.0
C790 C 0.65724 0.9634 0.90734 0.0
H791 H 0.75416 0.98288 0.93415 0.0
H792 H 0.71986 0.99083 0.93048 0.0
H793 H 0.72711 0.96564 0.95775 0.0
H794 H 0.67951 0.933 0.96636 0.0
H795 H 0.64176 0.95359 0.98539 0.0
H796 H 0.79214 0.18556 0.36526 0.0
H797 H 0.8311 0.16802 0.38708 0.0
H798 H 0.7941 0.07802 0.37276 0.0
H799 H 0.75521 0.09549 0.35059 0.0
H800 H 0.83225 0.13179 0.43228 0.0
H801 H 0.87104 0.08139 0.34381 0.0
H802 H 0.84594 0.10524 0.34027 0.0
H803 H 0.83552 0.06693 0.35194 0.0
C804 C 0.79231 0.16202 0.36671 0.0
C805 C 0.77057 0.14193 0.3561 0.0
C806 C 0.81465 0.15202 0.37914 0.0
C807 C 0.81583 0.12172 0.38125 0.0
C808 C 0.79409 0.10157 0.37077 0.0
H809 H 0.92786 0.01836 0.46035 0.0
H810 H 0.88902 0.03551 0.43781 0.0
C811 C 0.77181 0.11159 0.35815 0.0
C812 C 0.83932 0.11124 0.39529 0.0
H813 H 0.89052 0.07155 0.38698 0.0
C814 C 0.84507 0.11876 0.42229 0.0
C815 C 0.85612 0.09422 0.38231 0.0
C816 C 0.85206 0.08669 0.3529 0.0
C817 C 0.86679 0.10939 0.43674 0.0
C818 C 0.88341 0.09223 0.42382 0.0
C819 C 0.87769 0.08463 0.39688 0.0
C820 C 0.90692 0.08204 0.4379 0.0
C821 C 0.87149 0.11746 0.46593 0.0
C822 C 0.93 0.1025 0.44529 0.0
C823 C 0.95232 0.09278 0.45811 0.0
C824 C 0.95201 0.06237 0.46382 0.0
C825 C 0.92879 0.04194 0.4564 0.0
C826 C 0.90657 0.05169 0.44344 0.0
H827 H 0.85344 0.12496 0.47479 0.0
H828 H 0.87599 0.09831 0.47892 0.0
H829 H 0.88951 0.13575 0.46657 0.0
H830 H 0.93089 0.12601 0.44086 0.0
H831 H 0.96987 0.10912 0.46342 0.0
H832 H 0.31831 0.61447 0.17727 0.0
H833 H 0.27465 0.59578 0.15595 0.0
H834 H 0.25865 0.68468 0.14433 0.0
H835 H 0.30192 0.70357 0.16685 0.0
H836 H 0.21302 0.64458 0.16301 0.0
H837 H 0.26053 0.60327 0.07447 0.0
H838 H 0.27187 0.58869 0.10635 0.0
H839 H 0.28017 0.62789 0.09741 0.0
C840 C 0.30538 0.63007 0.17056 0.0
C841 C 0.31365 0.66054 0.17372 0.0
C842 C 0.2806 0.61938 0.15801 0.0
C843 C 0.26376 0.63894 0.14802 0.0
C844 C 0.27155 0.66929 0.15165 0.0
H845 H 0.12956 0.56457 0.04291 0.0
H846 H 0.16853 0.59894 0.06012 0.0
C847 C 0.29633 0.68003 0.16435 0.0
C848 C 0.2379 0.6274 0.13407 0.0
H849 H 0.21257 0.58376 0.08296 0.0
C850 C 0.21287 0.63162 0.14527 0.0
C851 C 0.2378 0.61113 0.11054 0.0
C852 C 0.26406 0.60774 0.09631 0.0
C853 C 0.18762 0.61855 0.13444 0.0
C854 C 0.18754 0.60029 0.11227 0.0
C855 C 0.21261 0.59747 0.10017 0.0
C856 C 0.16195 0.58226 0.10238 0.0
C857 C 0.16137 0.6243 0.147 0.0
C858 C 0.14518 0.56167 0.12045 0.0
C859 C 0.12282 0.5422 0.11073 0.0
C860 C 0.11709 0.5426 0.08266 0.0
C861 C 0.13352 0.56366 0.06465 0.0
C862 C 0.15576 0.58333 0.07444 0.0
H863 H 0.16474 0.64603 0.15631 0.0
H864 H 0.14488 0.62393 0.13162 0.0
H865 H 0.1542 0.60691 0.1635 0.0
H866 H 0.15 0.55984 0.14196 0.0
H867 H 0.11066 0.52613 0.12512 0.0
H868 H 0.32607 0.39409 0.74284 0.0
H869 H 0.36732 0.41368 0.71465 0.0
H870 H 0.33389 0.35963 0.64967 0.0
H871 H 0.29258 0.33997 0.67786 0.0
H872 H 0.40546 0.38088 0.68661 0.0
H873 H 0.34862 0.44817 0.61701 0.0
H874 H 0.33562 0.43385 0.65062 0.0
H875 H 0.33404 0.40951 0.62328 0.0
C876 C 0.3278 0.38609 0.72271 0.0
C877 C 0.30646 0.36532 0.71253 0.0
C878 C 0.35126 0.39726 0.70668 0.0
C879 C 0.35348 0.38814 0.68012 0.0
C880 C 0.33242 0.36698 0.67009 0.0
H881 H 0.47312 0.46882 0.55281 0.0
H882 H 0.43545 0.43519 0.57737 0.0
C883 C 0.309 0.35571 0.68617 0.0
C884 C 0.37729 0.40191 0.66254 0.0
H885 H 0.39582 0.45159 0.60808 0.0
C886 C 0.40342 0.39619 0.66931 0.0
C887 C 0.37438 0.42168 0.63995 0.0
C888 C 0.34673 0.42894 0.63223 0.0
C889 C 0.42691 0.41007 0.65416 0.0
C890 C 0.42415 0.4307 0.63215 0.0
C891 C 0.39787 0.43574 0.62495 0.0
C892 C 0.44829 0.44888 0.61748 0.0
C893 C 0.45442 0.40246 0.66186 0.0
C894 C 0.46796 0.4677 0.63189 0.0
C895 C 0.48948 0.48681 0.61798 0.0
C896 C 0.49156 0.48776 0.58931 0.0
C897 C 0.47206 0.4686 0.5749 0.0
C898 C 0.45056 0.44938 0.58888 0.0
H899 H 0.45199 0.38002 0.6724 0.0
H900 H 0.468 0.4034 0.64361 0.0
H901 H 0.46471 0.41859 0.67616 0.0
H902 H 0.46622 0.46826 0.65388 0.0
H903 H 0.50409 0.50133 0.62969 0.0
H904 H 0.90055 0.75995 0.82846 0.0
H905 H 0.9282 0.72622 0.85066 0.0
H906 H 0.87247 0.7116 0.92017 0.0
H907 H 0.8447 0.74503 0.89788 0.0
H908 H 0.95455 0.72998 0.90163 0.0
H909 H 0.8758 0.6274 0.89893 0.0
H910 H 0.87351 0.66085 0.87845 0.0
H911 H 0.86379 0.65729 0.91406 0.0
C912 C 0.89412 0.74919 0.84833 0.0
C913 C 0.87018 0.75433 0.86122 0.0
C914 C 0.90993 0.73012 0.86102 0.0
C915 C 0.90205 0.716 0.8868 0.0
C916 C 0.87851 0.72172 0.89998 0.0
H917 H 0.96154 0.59463 0.00176 0.0
H918 H 0.93852 0.63107 0.97778 0.0
C919 C 0.86272 0.74079 0.88731 0.0
C920 C 0.91866 0.69564 0.90017 0.0
H921 H 0.91506 0.62443 0.92603 0.0
C922 C 0.94604 0.70684 0.90681 0.0
C923 C 0.90747 0.66548 0.90679 0.0
C924 C 0.87862 0.6519 0.89899 0.0
C925 C 0.96228 0.68883 0.92072 0.0
C926 C 0.95089 0.65881 0.92776 0.0
C927 C 0.92367 0.64753 0.92072 0.0
C928 C 0.96652 0.63867 0.94297 0.0
C929 C 0.99117 0.70224 0.92848 0.0
C930 C 0.9901 0.63109 0.93144 0.0
C931 C 0.00341 0.61023 0.94515 0.0
C932 C 0.99318 0.59649 0.97051 0.0
C933 C 0.96993 0.60471 0.98223 0.0
C934 C 0.95671 0.62553 0.96856 0.0
H935 H 0.99463 0.72683 0.92709 0.0
H936 H 0.99565 0.69444 0.9496 0.0
H937 H 0.00601 0.69527 0.91436 0.0
H938 H 0.99773 0.64063 0.91149 0.0
H939 H 0.02119 0.60427 0.93553 0.0
H940 H 0.43888 0.71644 0.1722 0.0
H941 H 0.46748 0.76103 0.15034 0.0
H942 H 0.39718 0.80437 0.14692 0.0
H943 H 0.36869 0.7603 0.16941 0.0
H944 H 0.45929 0.78767 0.09884 0.0
H945 H 0.45651 0.86555 0.18008 0.0
H946 H 0.44692 0.82589 0.18635 0.0
H947 H 0.42301 0.84682 0.17082 0.0
C948 C 0.42965 0.73567 0.16722 0.0
C949 C 0.40155 0.73491 0.17257 0.0
C950 C 0.44596 0.76102 0.15461 0.0
C951 C 0.43451 0.78608 0.14739 0.0
C952 C 0.40653 0.78544 0.15281 0.0
H953 H 0.47603 0.95268 0.05627 0.0
H954 H 0.45535 0.90773 0.08338 0.0
C955 C 0.39021 0.76014 0.16537 0.0
C956 C 0.45135 0.81243 0.13286 0.0
H957 H 0.47192 0.88707 0.13575 0.0
C958 C 0.46241 0.80936 0.10702 0.0
C959 C 0.45533 0.84063 0.14366 0.0
C960 C 0.44505 0.84496 0.17187 0.0
C961 C 0.47638 0.83404 0.09114 0.0
C962 C 0.47966 0.86235 0.10163 0.0
C963 C 0.46925 0.86529 0.12777 0.0
C964 C 0.49263 0.88942 0.08527 0.0
C965 C 0.48656 0.82983 0.06286 0.0
C966 C 0.52052 0.89405 0.07757 0.0
C967 C 0.53245 0.91975 0.062 0.0
C968 C 0.51666 0.94123 0.05398 0.0
C969 C 0.48876 0.93654 0.06197 0.0
C970 C 0.4769 0.91091 0.07753 0.0
H971 H 0.47767 0.80767 0.05582 0.0
H972 H 0.48142 0.84706 0.04789 0.0
H973 H 0.50929 0.83199 0.06302 0.0
H974 H 0.53307 0.87788 0.08373 0.0
H975 H 0.55401 0.92276 0.05628 0.0
H976 H 0.18817 0.32956 0.65861 0.0
H977 H 0.16423 0.28917 0.63262 0.0
H978 H 0.12948 0.24274 0.70757 0.0
H979 H 0.15306 0.28336 0.73361 0.0
H980 H 0.17294 0.23339 0.63706 0.0
H981 H 0.06295 0.23357 0.6589 0.0
H982 H 0.08996 0.2641 0.66609 0.0
H983 H 0.08284 0.23163 0.68929 0.0
C984 C 0.17514 0.31088 0.66948 0.0
C985 C 0.17249 0.30952 0.69811 0.0
C986 C 0.16143 0.28789 0.65463 0.0
C987 C 0.14484 0.26308 0.66811 0.0
C988 C 0.14163 0.26198 0.69666 0.0
H989 H 0.11045 0.08767 0.60914 0.0
H990 H 0.12628 0.13206 0.63363 0.0
C991 C 0.15518 0.28513 0.71153 0.0
C992 C 0.13301 0.23731 0.65253 0.0
H993 H 0.07321 0.19055 0.6391 0.0
C994 C 0.15109 0.22418 0.63734 0.0
C995 C 0.10449 0.2255 0.65269 0.0
C996 C 0.08389 0.2396 0.6674 0.0
C997 C 0.14155 0.19922 0.62276 0.0
C998 C 0.11321 0.18659 0.62392 0.0
C999 C 0.09498 0.20009 0.63855 0.0
C1000 C 0.10226 0.15929 0.61012 0.0
C1001 C 0.16189 0.18679 0.60601 0.0
C1002 C 0.08272 0.15962 0.58947 0.0
C1003 C 0.07342 0.13417 0.57554 0.0
C1004 C 0.08351 0.10799 0.58211 0.0
C1005 C 0.1025 0.10756 0.60336 0.0
C1006 C 0.11165 0.13293 0.61733 0.0
H1007 H 0.18082 0.20349 0.60112 0.0
H1008 H 0.16804 0.16775 0.61785 0.0
H1009 H 0.1527 0.17886 0.58658 0.0
H1010 H 0.07511 0.17973 0.58373 0.0
H1011 H 0.05871 0.13518 0.55935 0.0
H1012 H 0.63333 0.21881 0.36214 0.0
H1013 H 0.61765 0.26209 0.37901 0.0
H1014 H 0.69021 0.2798 0.42831 0.0
H1015 H 0.70598 0.23663 0.4113 0.0
H1016 H 0.60653 0.27166 0.43374 0.0
H1017 H 0.6885 0.36047 0.38837 0.0
H1018 H 0.68236 0.32332 0.37699 0.0
H1019 H 0.70116 0.33148 0.40775 0.0
C1020 C 0.64596 0.23209 0.37645 0.0
C1021 C 0.67074 0.22434 0.38564 0.0
C1022 C 0.63701 0.25676 0.38608 0.0
C1023 C 0.65285 0.27433 0.40475 0.0
C1024 C 0.67785 0.26685 0.41359 0.0
H1025 H 0.63769 0.4239 0.49717 0.0
H1026 H 0.65117 0.38185 0.47634 0.0
C1027 C 0.68678 0.24216 0.40401 0.0
C1028 C 0.64272 0.29973 0.41586 0.0
H1029 H 0.65916 0.37441 0.42178 0.0
C1030 C 0.6179 0.29418 0.43095 0.0
C1031 C 0.65759 0.32907 0.41221 0.0
C1032 C 0.68376 0.33659 0.39525 0.0
C1033 C 0.60798 0.31704 0.44321 0.0
C1034 C 0.62303 0.34635 0.43984 0.0
C1035 C 0.64766 0.35194 0.42441 0.0
C1036 C 0.61411 0.37145 0.4528 0.0
C1037 C 0.58197 0.30942 0.46042 0.0
C1038 C 0.58876 0.37973 0.44647 0.0
C1039 C 0.58089 0.40379 0.45849 0.0
C1040 C 0.59834 0.42017 0.4769 0.0
C1041 C 0.6237 0.4118 0.48313 0.0
C1042 C 0.6315 0.38776 0.47119 0.0
H1043 H 0.57679 0.28537 0.46653 0.0
H1044 H 0.58389 0.32193 0.47917 0.0
H1045 H 0.56459 0.31546 0.44843 0.0
H1046 H 0.57524 0.36787 0.43192 0.0
H1047 H 0.56132 0.40978 0.45307 0.0
loop_
_geom_bond_atom_site_label_1
_geom_bond_atom_site_label_2
_geom_bond_distance
_geom_bond_site_symmetry_2
_ccdc_geom_bond_type
H0 C7 0.929 . S
H1 C10 0.930 . S
H2 C12 0.929 . S
H3 C4 0.969 . S
C4 H3 0.969 . S
C4 O5 1.550 . S
C4 H6 0.973 . S
O5 C4 1.550 . S
O5 C11 1.412 . S
H6 C4 0.973 . S
C7 H0 0.929 . S
C7 C8 1.400 . S
C7 C9 1.364 . S
C8 C7 1.400 . S
C8 C12 1.377 . S
C9 C7 1.364 . S
C9 C10 1.374 . S
C10 H1 0.930 . S
C10 C9 1.374 . S
C10 C11 1.383 . S
C11 O5 1.412 . S
C11 C10 1.383 . S
C11 C12 1.394 . S
C12 H2 0.929 . S
C12 C8 1.377 . S
C12 C11 1.394 . S
H13 C20 0.929 . S
H14 C23 0.930 . S
H15 C25 0.929 . S
H16 C17 0.969 . S
C17 H16 0.969 . S
C17 O18 1.550 . S
C17 H19 0.973 . S
O18 C17 1.550 . S
O18 C24 1.412 . S
H19 C17 0.973 . S
C20 H13 0.929 . S
C20 C21 1.400 . S
C20 C22 1.364 . S
C21 C20 1.400 . S
C21 C25 1.377 . S
C22 C20 1.364 . S
C22 C23 1.374 . S
C23 H14 0.930 . S
C23 C22 1.374 . S
C23 C24 1.383 . S
C24 O18 1.412 . S
C24 C23 1.383 . S
C24 C25 1.394 . S
C25 H15 0.929 . S
C25 C21 1.377 . S
C25 C24 1.394 . S
H26 C33 0.929 . S
H27 C36 0.930 . S
H28 C38 0.929 . S
H29 C30 0.969 . S
C30 H29 0.969 . S
C30 O31 1.550 . S
C30 H32 0.973 . S
O31 C30 1.550 . S
O31 C37 1.412 . S
H32 C30 0.973 . S
C33 H26 0.929 . S
C33 C34 1.400 . S
C33 C35 1.364 . S
C34 C33 1.400 . S
C34 C38 1.377 . S
C35 C33 1.364 . S
C35 C36 1.374 . S
C36 H27 0.930 . S
C36 C35 1.374 . S
C36 C37 1.383 . S
C37 O31 1.412 . S
C37 C36 1.383 . S
C37 C38 1.394 . S
C38 H28 0.929 . S
C38 C34 1.377 . S
C38 C37 1.394 . S
H39 C46 0.929 . S
H40 C49 0.930 . S
H41 C51 0.929 . S
H42 C43 0.969 . S
C43 H42 0.969 . S
C43 O44 1.550 . S
C43 H45 0.973 . S
O44 C43 1.550 . S
O44 C50 1.412 . S
H45 C43 0.973 . S
C46 H39 0.929 . S
C46 C47 1.400 . S
C46 C48 1.364 . S
C47 C46 1.400 . S
C47 C51 1.377 . S
C48 C46 1.364 . S
C48 C49 1.374 . S
C49 H40 0.930 . S
C49 C48 1.374 . S
C49 C50 1.383 . S
C50 O44 1.412 . S
C50 C49 1.383 . S
C50 C51 1.394 . S
C51 H41 0.929 . S
C51 C47 1.377 . S
C51 C50 1.394 . S
H52 C59 0.929 . S
H53 C62 0.930 . S
H54 C64 0.929 . S
H55 C56 0.969 . S
C56 H55 0.969 . S
C56 O57 1.550 . S
C56 H58 0.973 . S
O57 C56 1.550 . S
O57 C63 1.412 . S
H58 C56 0.973 . S
C59 H52 0.929 . S
C59 C60 1.400 . S
C59 C61 1.364 . S
C60 C59 1.400 . S
C60 C64 1.377 . S
C61 C59 1.364 . S
C61 C62 1.374 . S
C62 H53 0.930 . S
C62 C61 1.374 . S
C62 C63 1.383 . S
C63 O57 1.412 . S
C63 C62 1.383 . S
C63 C64 1.394 . S
C64 H54 0.929 . S
C64 C60 1.377 . S
C64 C63 1.394 . S
H65 C72 0.929 . S
H66 C75 0.930 . S
H67 C77 0.929 . S
H68 C69 0.969 . S
C69 H68 0.969 . S
C69 O70 1.550 . S
C69 H71 0.973 . S
O70 C69 1.550 . S
O70 C76 1.412 . S
H71 C69 0.973 . S
C72 H65 0.929 . S
C72 C73 1.400 . S
C72 C74 1.364 . S
C73 C72 1.400 . S
C73 C77 1.377 . S
C74 C72 1.364 . S
C74 C75 1.374 . S
C75 H66 0.930 . S
C75 C74 1.374 . S
C75 C76 1.383 . S
C76 O70 1.412 . S
C76 C75 1.383 . S
C76 C77 1.394 . S
C77 H67 0.929 . S
C77 C73 1.377 . S
C77 C76 1.394 . S
H78 C85 0.929 . S
H79 C88 0.930 . S
H80 C90 0.929 . S
H81 C82 0.969 . S
C82 H81 0.969 . S
C82 O83 1.550 . S
C82 H84 0.973 . S
O83 C82 1.550 . S
O83 C89 1.412 . S
H84 C82 0.973 . S
C85 H78 0.929 . S
C85 C86 1.400 . S
C85 C87 1.364 . S
C86 C85 1.400 . S
C86 C90 1.377 . S
C87 C85 1.364 . S
C87 C88 1.374 . S
C88 H79 0.930 . S
C88 C87 1.374 . S
C88 C89 1.383 . S
C89 O83 1.412 . S
C89 C88 1.383 . S
C89 C90 1.394 . S
C90 H80 0.929 . S
C90 C86 1.377 . S
C90 C89 1.394 . S
H91 C98 0.929 . S
H92 C101 0.930 . S
H93 C103 0.929 . S
H94 C95 0.969 . S
C95 H94 0.969 . S
C95 O96 1.550 . S
C95 H97 0.973 . S
O96 C95 1.550 . S
O96 C102 1.412 . S
H97 C95 0.973 . S
C98 H91 0.929 . S
C98 C99 1.400 . S
C98 C100 1.364 . S
C99 C98 1.400 . S
C99 C103 1.377 . S
C100 C98 1.364 . S
C100 C101 1.374 . S
C101 H92 0.930 . S
C101 C100 1.374 . S
C101 C102 1.383 . S
C102 O96 1.412 . S
C102 C101 1.383 . S
C102 C103 1.394 . S
C103 H93 0.929 . S
C103 C99 1.377 . S
C103 C102 1.394 . S
Zn104 O110 1.969 . S
Zn104 O111 1.965 1_545 S
Zn104 O115 2.024 . S
Zn104 O120 1.969 . S
Zn105 O112 1.969 1_545 S
Zn105 O118 1.969 . S
Zn105 O119 1.965 1_655 S
Zn105 O121 2.024 1_545 S
C106 O107 1.229 . S
C106 O115 1.058 . S
O107 C106 1.229 . S
C108 O109 1.229 . S
C108 O121 1.058 . S
O109 C108 1.229 . S
O110 Zn104 1.969 . S
O110 C113 1.267 1_545 S
O111 Zn104 1.965 1_565 S
O111 C122 1.240 1_455 S
O112 Zn105 1.969 1_565 S
O112 C122 1.272 . S
C113 O110 1.267 1_565 S
C113 O114 1.228 . S
O114 C113 1.228 . S
O115 Zn104 2.024 . S
O115 C106 1.058 . S
C116 O117 1.228 . S
C116 O118 1.267 . S
O117 C116 1.228 . S
O118 Zn105 1.969 . S
O118 C116 1.267 . S
O119 Zn105 1.965 1_455 S
O119 C123 1.260 . S
O120 Zn104 1.969 . S
O120 C123 1.258 . S
O121 Zn105 2.024 1_565 S
O121 C108 1.058 . S
C122 O111 1.240 1_655 S
C122 O112 1.272 . S
C123 O119 1.260 . S
C123 O120 1.258 . S
Zn124 O130 1.969 . S
Zn124 O131 1.965 1_565 S
Zn124 O135 2.024 . S
Zn124 O140 1.969 1_556 S
Zn125 O132 1.969 . S
Zn125 O138 1.969 . S
Zn125 O139 1.965 . S
Zn125 O141 2.024 . S
C126 O127 1.229 . S
C126 O135 1.058 . S
O127 C126 1.229 . S
C128 O129 1.229 . S
C128 O141 1.058 . S
O129 C128 1.229 . S
O130 Zn124 1.969 . S
O130 C133 1.267 . S
O131 Zn124 1.965 1_545 S
O131 C142 1.260 . S
O132 Zn125 1.969 . S
O132 C142 1.258 1_554 S
C133 O130 1.267 . S
C133 O134 1.228 . S
O134 C133 1.228 . S
O135 Zn124 2.024 . S
O135 C126 1.058 . S
C136 O137 1.228 . S
C136 O138 1.267 . S
O137 C136 1.228 . S
O138 Zn125 1.969 . S
O138 C136 1.267 . S
O139 Zn125 1.965 . S
O139 C143 1.260 1_545 S
O140 Zn124 1.969 1_554 S
O140 C143 1.258 . S
O141 Zn125 2.024 . S
O141 C128 1.058 . S
C142 O131 1.260 . S
C142 O132 1.258 1_556 S
C143 O139 1.260 1_565 S
C143 O140 1.258 . S
Zn144 O150 1.969 . S
Zn144 O151 1.965 . S
Zn144 O155 2.024 . S
Zn144 O160 1.969 . S
Zn145 O152 1.969 . S
Zn145 O158 1.969 . S
Zn145 O159 1.965 . S
Zn145 O161 2.024 . S
C146 O147 1.229 . S
C146 O155 1.058 . S
O147 C146 1.229 . S
C148 O149 1.229 . S
C148 O161 1.058 . S
O149 C148 1.229 . S
O150 Zn144 1.969 . S
O150 C153 1.267 . S
O151 Zn144 1.965 . S
O151 C162 1.260 . S
O152 Zn145 1.969 . S
O152 C162 1.258 . S
C153 O150 1.267 . S
C153 O154 1.228 . S
O154 C153 1.228 . S
O155 Zn144 2.024 . S
O155 C146 1.058 . S
C156 O157 1.228 . S
C156 O158 1.267 . S
O157 C156 1.228 . S
O158 Zn145 1.969 . S
O158 C156 1.267 . S
O159 Zn145 1.965 . S
O159 C163 1.260 . S
O160 Zn144 1.969 . S
O160 C163 1.258 . S
O161 Zn145 2.024 . S
O161 C148 1.058 . S
C162 O151 1.260 . S
C162 O152 1.258 . S
C163 O159 1.260 . S
C163 O160 1.258 . S
Zn164 O170 1.969 . S
Zn164 O171 1.965 1_556 S
Zn164 O175 2.024 1_456 S
Zn164 O180 1.969 . S
Zn165 O172 1.969 . S
Zn165 O178 1.969 . S
Zn165 O179 1.965 . S
Zn165 O181 2.024 . S
C166 O167 1.229 . S
C166 O175 1.058 1_556 S
O167 C166 1.229 . S
C168 O169 1.229 . S
C168 O181 1.058 . S
O169 C168 1.229 . S
O170 Zn164 1.969 . S
O170 C173 1.267 1_455 S
O171 Zn164 1.965 1_554 S
O171 C182 1.260 . S
O172 Zn165 1.969 . S
O172 C182 1.258 . S
C173 O170 1.267 1_655 S
C173 O174 1.228 . S
O174 C173 1.228 . S
O175 Zn164 2.024 1_654 S
O175 C166 1.058 1_554 S
C176 O177 1.228 . S
C176 O178 1.267 . S
O177 C176 1.228 . S
O178 Zn165 1.969 . S
O178 C176 1.267 . S
O179 Zn165 1.965 . S
O179 C183 1.260 1_554 S
O180 Zn164 1.969 . S
O180 C183 1.258 . S
O181 Zn165 2.024 . S
O181 C168 1.058 . S
C182 O171 1.260 . S
C182 O172 1.258 . S
C183 O179 1.260 1_556 S
C183 O180 1.258 . S
H184 C192 0.929 . S
H185 C194 0.930 . S
H186 C196 0.930 . S
H187 C199 0.929 . S
H188 C202 0.930 . S
H189 C204 0.960 . S
H190 C204 0.960 . S
H191 C204 0.960 . S
C192 H184 0.929 . S
C192 C193 1.377 . S
C192 C194 1.384 . S
C193 C192 1.377 . S
C193 C199 1.390 . S
C194 H185 0.930 . S
C194 C192 1.384 . S
C194 C195 1.372 . S
C195 C194 1.372 . S
C195 C196 1.400 . S
C195 C200 1.490 . S
C196 H186 0.930 . S
C196 C195 1.400 . S
C196 C199 1.386 . S
H197 C213 0.930 . S
H198 C214 0.931 . S
C199 H187 0.929 . S
C199 C193 1.390 . S
C199 C196 1.386 . S
C200 C195 1.490 . S
C200 C202 1.395 . S
C200 C203 1.403 . S
H201 C207 0.930 . S
C202 H188 0.930 . S
C202 C200 1.395 . S
C202 C205 1.403 . S
C203 C200 1.403 . S
C203 C204 1.524 . S
C203 C207 1.400 . S
C204 H189 0.960 . S
C204 H190 0.960 . S
C204 H191 0.960 . S
C204 C203 1.524 . S
C205 C202 1.403 . S
C205 C206 1.392 . S
C205 C209 1.495 . S
C206 C205 1.392 . S
C206 C207 1.385 . S
C206 C208 1.478 . S
C207 H201 0.930 . S
C207 C203 1.400 . S
C207 C206 1.385 . S
C208 C206 1.478 . S
C208 C210 1.381 . S
C208 C214 1.383 . S
C209 C205 1.495 . S
C209 H215 0.959 . S
C209 H216 0.961 . S
C209 H217 0.960 . S
C210 C208 1.381 . S
C210 C211 1.394 . S
C210 H218 0.930 . S
C211 C210 1.394 . S
C211 C212 1.383 . S
C211 H219 0.929 . S
C212 C211 1.383 . S
C212 C213 1.377 . S
C213 H197 0.930 . S
C213 C212 1.377 . S
C213 C214 1.379 . S
C214 H198 0.931 . S
C214 C208 1.383 . S
C214 C213 1.379 . S
H215 C209 0.959 . S
H216 C209 0.961 . S
H217 C209 0.960 . S
H218 C210 0.930 . S
H219 C211 0.929 . S
H220 C228 0.929 . S
H221 C230 0.930 . S
H222 C232 0.930 . S
H223 C235 0.929 . S
H224 C238 0.930 . S
H225 C240 0.960 . S
H226 C240 0.960 . S
H227 C240 0.960 . S
C228 H220 0.929 . S
C228 C229 1.377 . S
C228 C230 1.384 . S
C229 C228 1.377 . S
C229 C235 1.390 . S
C230 H221 0.930 . S
C230 C228 1.384 . S
C230 C231 1.372 . S
C231 C230 1.372 . S
C231 C232 1.400 . S
C231 C236 1.490 . S
C232 H222 0.930 . S
C232 C231 1.400 . S
C232 C235 1.386 . S
H233 C249 0.930 . S
H234 C250 0.931 . S
C235 H223 0.929 . S
C235 C229 1.390 . S
C235 C232 1.386 . S
C236 C231 1.490 . S
C236 C238 1.395 . S
C236 C239 1.403 . S
H237 C243 0.930 . S
C238 H224 0.930 . S
C238 C236 1.395 . S
C238 C241 1.403 . S
C239 C236 1.403 . S
C239 C240 1.524 . S
C239 C243 1.400 . S
C240 H225 0.960 . S
C240 H226 0.960 . S
C240 H227 0.960 . S
C240 C239 1.524 . S
C241 C238 1.403 . S
C241 C242 1.392 . S
C241 C245 1.495 . S
C242 C241 1.392 . S
C242 C243 1.385 . S
C242 C244 1.478 . S
C243 H237 0.930 . S
C243 C239 1.400 . S
C243 C242 1.385 . S
C244 C242 1.478 . S
C244 C246 1.381 . S
C244 C250 1.383 . S
C245 C241 1.495 . S
C245 H251 0.959 . S
C245 H252 0.961 . S
C245 H253 0.960 . S
C246 C244 1.381 . S
C246 C247 1.394 . S
C246 H254 0.930 . S
C247 C246 1.394 . S
C247 C248 1.383 . S
C247 H255 0.929 . S
C248 C247 1.383 . S
C248 C249 1.377 . S
C249 H233 0.930 . S
C249 C248 1.377 . S
C249 C250 1.379 . S
C250 H234 0.931 . S
C250 C244 1.383 . S
C250 C249 1.379 . S
H251 C245 0.959 . S
H252 C245 0.961 . S
H253 C245 0.960 . S
H254 C246 0.930 . S
H255 C247 0.929 . S
H256 C264 0.929 . S
H257 C266 0.930 . S
H258 C268 0.930 . S
H259 C271 0.929 . S
H260 C274 0.930 . S
H261 C276 0.960 . S
H262 C276 0.960 . S
H263 C276 0.960 . S
C264 H256 0.929 . S
C264 C265 1.377 . S
C264 C266 1.384 . S
C265 C264 1.377 . S
C265 C271 1.390 . S
C266 H257 0.930 . S
C266 C264 1.384 . S
C266 C267 1.372 . S
C267 C266 1.372 . S
C267 C268 1.400 . S
C267 C272 1.490 . S
C268 H258 0.930 . S
C268 C267 1.400 . S
C268 C271 1.386 . S
H269 C285 0.930 . S
H270 C286 0.931 . S
C271 H259 0.929 . S
C271 C265 1.390 . S
C271 C268 1.386 . S
C272 C267 1.490 . S
C272 C274 1.395 . S
C272 C275 1.403 . S
H273 C279 0.930 . S
C274 H260 0.930 . S
C274 C272 1.395 . S
C274 C277 1.403 . S
C275 C272 1.403 . S
C275 C276 1.524 . S
C275 C279 1.400 . S
C276 H261 0.960 . S
C276 H262 0.960 . S
C276 H263 0.960 . S
C276 C275 1.524 . S
C277 C274 1.403 . S
C277 C278 1.392 . S
C277 C281 1.495 . S
C278 C277 1.392 . S
C278 C279 1.385 . S
C278 C280 1.478 . S
C279 H273 0.930 . S
C279 C275 1.400 . S
C279 C278 1.385 . S
C280 C278 1.478 . S
C280 C282 1.381 . S
C280 C286 1.383 . S
C281 C277 1.495 . S
C281 H287 0.959 . S
C281 H288 0.961 . S
C281 H289 0.960 . S
C282 C280 1.381 . S
C282 C283 1.394 . S
C282 H290 0.930 . S
C283 C282 1.394 . S
C283 C284 1.383 . S
C283 H291 0.929 . S
C284 C283 1.383 . S
C284 C285 1.377 . S
C285 H269 0.930 . S
C285 C284 1.377 . S
C285 C286 1.379 . S
C286 H270 0.931 . S
C286 C280 1.383 . S
C286 C285 1.379 . S
H287 C281 0.959 . S
H288 C281 0.961 . S
H289 C281 0.960 . S
H290 C282 0.930 . S
H291 C283 0.929 . S
H292 C300 0.929 . S
H293 C302 0.930 . S
H294 C304 0.930 . S
H295 C307 0.929 . S
H296 C310 0.930 . S
H297 C312 0.960 . S
H298 C312 0.960 . S
H299 C312 0.960 . S
C300 H292 0.929 . S
C300 C301 1.377 . S
C300 C302 1.384 . S
C301 C300 1.377 . S
C301 C307 1.390 . S
C302 H293 0.930 . S
C302 C300 1.384 . S
C302 C303 1.372 . S
C303 C302 1.372 . S
C303 C304 1.400 . S
C303 C308 1.490 . S
C304 H294 0.930 . S
C304 C303 1.400 . S
C304 C307 1.386 . S
H305 C321 0.930 . S
H306 C322 0.931 . S
C307 H295 0.929 . S
C307 C301 1.390 . S
C307 C304 1.386 . S
C308 C303 1.490 . S
C308 C310 1.395 . S
C308 C311 1.403 . S
H309 C315 0.930 . S
C310 H296 0.930 . S
C310 C308 1.395 . S
C310 C313 1.403 . S
C311 C308 1.403 . S
C311 C312 1.524 . S
C311 C315 1.400 . S
C312 H297 0.960 . S
C312 H298 0.960 . S
C312 H299 0.960 . S
C312 C311 1.524 . S
C313 C310 1.403 . S
C313 C314 1.392 . S
C313 C317 1.495 . S
C314 C313 1.392 . S
C314 C315 1.385 . S
C314 C316 1.478 . S
C315 H309 0.930 . S
C315 C311 1.400 . S
C315 C314 1.385 . S
C316 C314 1.478 . S
C316 C318 1.381 . S
C316 C322 1.383 1_655 S
C317 C313 1.495 . S
C317 H323 0.959 . S
C317 H324 0.961 . S
C317 H325 0.960 . S
C318 C316 1.381 . S
C318 C319 1.394 . S
C318 H326 0.930 . S
C319 C318 1.394 . S
C319 C320 1.395 . S
C319 H327 0.929 . S
C320 C319 1.395 . S
C320 C321 1.372 1_655 S
C321 H305 0.930 . S
C321 C320 1.372 1_455 S
C321 C322 1.379 . S
C322 H306 0.931 . S
C322 C316 1.383 1_455 S
C322 C321 1.379 . S
H323 C317 0.959 . S
H324 C317 0.961 . S
H325 C317 0.960 . S
H326 C318 0.930 . S
H327 C319 0.929 . S
H328 C336 0.929 . S
H329 C338 0.930 . S
H330 C340 0.930 . S
H331 C343 0.929 . S
H332 C346 0.930 . S
H333 C348 0.960 . S
H334 C348 0.960 . S
H335 C348 0.960 . S
C336 H328 0.929 . S
C336 C337 1.377 . S
C336 C338 1.384 . S
C337 C336 1.377 . S
C337 C343 1.390 . S
C338 H329 0.930 . S
C338 C336 1.384 . S
C338 C339 1.372 . S
C339 C338 1.372 . S
C339 C340 1.400 . S
C339 C344 1.490 . S
C340 H330 0.930 . S
C340 C339 1.400 . S
C340 C343 1.386 . S
H341 C357 0.930 . S
H342 C358 0.931 . S
C343 H331 0.929 . S
C343 C337 1.390 . S
C343 C340 1.386 . S
C344 C339 1.490 . S
C344 C346 1.395 . S
C344 C347 1.403 . S
H345 C351 0.930 . S
C346 H332 0.930 . S
C346 C344 1.395 . S
C346 C349 1.403 . S
C347 C344 1.403 . S
C347 C348 1.524 . S
C347 C351 1.400 . S
C348 H333 0.960 . S
C348 H334 0.960 . S
C348 H335 0.960 . S
C348 C347 1.524 . S
C349 C346 1.403 . S
C349 C350 1.392 . S
C349 C353 1.495 . S
C350 C349 1.392 . S
C350 C351 1.385 . S
C350 C352 1.478 . S
C351 H345 0.930 . S
C351 C347 1.400 . S
C351 C350 1.385 . S
C352 C350 1.478 . S
C352 C354 1.381 . S
C352 C358 1.383 . S
C353 C349 1.495 . S
C353 H359 0.959 . S
C353 H360 0.961 . S
C353 H361 0.960 . S
C354 C352 1.381 . S
C354 C355 1.394 . S
C354 H362 0.930 . S
C355 C354 1.394 . S
C355 C356 1.383 . S
C355 H363 0.929 . S
C356 C355 1.383 . S
C356 C357 1.377 . S
C357 H341 0.930 . S
C357 C356 1.377 . S
C357 C358 1.379 . S
C358 H342 0.931 . S
C358 C352 1.383 . S
C358 C357 1.379 . S
H359 C353 0.959 . S
H360 C353 0.961 . S
H361 C353 0.960 . S
H362 C354 0.930 . S
H363 C355 0.929 . S
H364 C372 0.929 . S
H365 C374 0.930 . S
H366 C376 0.930 . S
H367 C379 0.929 . S
H368 C382 0.930 . S
H369 C384 0.960 . S
H370 C384 0.960 . S
H371 C384 0.960 . S
C372 H364 0.929 . S
C372 C373 1.377 . S
C372 C374 1.384 . S
C373 C372 1.377 . S
C373 C379 1.390 . S
C374 H365 0.930 . S
C374 C372 1.384 . S
C374 C375 1.372 . S
C375 C374 1.372 . S
C375 C376 1.400 . S
C375 C380 1.490 . S
C376 H366 0.930 . S
C376 C375 1.400 . S
C376 C379 1.386 . S
H377 C393 0.930 . S
H378 C394 0.931 . S
C379 H367 0.929 . S
C379 C373 1.390 . S
C379 C376 1.386 . S
C380 C375 1.490 . S
C380 C382 1.395 . S
C380 C383 1.403 . S
H381 C387 0.930 . S
C382 H368 0.930 . S
C382 C380 1.395 . S
C382 C385 1.403 . S
C383 C380 1.403 . S
C383 C384 1.524 . S
C383 C387 1.400 . S
C384 H369 0.960 . S
C384 H370 0.960 . S
C384 H371 0.960 . S
C384 C383 1.524 . S
C385 C382 1.403 . S
C385 C386 1.392 . S
C385 C389 1.495 . S
C386 C385 1.392 . S
C386 C387 1.385 . S
C386 C388 1.478 . S
C387 H381 0.930 . S
C387 C383 1.400 . S
C387 C386 1.385 . S
C388 C386 1.478 . S
C388 C390 1.381 . S
C388 C394 1.383 . S
C389 C385 1.495 . S
C389 H395 0.959 . S
C389 H396 0.961 . S
C389 H397 0.960 . S
C390 C388 1.381 . S
C390 C391 1.394 . S
C390 H398 0.930 . S
C391 C390 1.394 . S
C391 C392 1.383 . S
C391 H399 0.929 1_565 S
C392 C391 1.383 . S
C392 C393 1.377 . S
C393 H377 0.930 . S
C393 C392 1.377 . S
C393 C394 1.379 . S
C394 H378 0.931 . S
C394 C388 1.383 . S
C394 C393 1.379 . S
H395 C389 0.959 . S
H396 C389 0.961 . S
H397 C389 0.960 . S
H398 C390 0.930 . S
H399 C391 0.929 1_545 S
H400 C408 0.929 . S
H401 C410 0.930 . S
H402 C412 0.930 . S
H403 C415 0.929 . S
H404 C418 0.930 . S
H405 C420 0.960 . S
H406 C420 0.960 . S
H407 C420 0.960 . S
C408 H400 0.929 . S
C408 C409 1.377 . S
C408 C410 1.384 . S
C409 C408 1.377 . S
C409 C415 1.390 . S
C410 H401 0.930 . S
C410 C408 1.384 . S
C410 C411 1.372 . S
C411 C410 1.372 . S
C411 C412 1.400 . S
C411 C416 1.490 . S
C412 H402 0.930 . S
C412 C411 1.400 . S
C412 C415 1.386 . S
H413 C429 0.930 . S
H414 C430 0.931 . S
C415 H403 0.929 . S
C415 C409 1.390 . S
C415 C412 1.386 . S
C416 C411 1.490 . S
C416 C418 1.395 . S
C416 C419 1.403 . S
H417 C423 0.930 . S
C418 H404 0.930 . S
C418 C416 1.395 . S
C418 C421 1.403 . S
C419 C416 1.403 . S
C419 C420 1.524 . S
C419 C423 1.400 . S
C420 H405 0.960 . S
C420 H406 0.960 . S
C420 H407 0.960 . S
C420 C419 1.524 . S
C421 C418 1.403 . S
C421 C422 1.392 . S
C421 C425 1.495 . S
C422 C421 1.392 . S
C422 C423 1.385 . S
C422 C424 1.478 . S
C423 H417 0.930 . S
C423 C419 1.400 . S
C423 C422 1.385 . S
C424 C422 1.478 . S
C424 C426 1.381 . S
C424 C430 1.383 . S
C425 C421 1.495 . S
C425 H431 0.959 . S
C425 H432 0.961 . S
C425 H433 0.960 . S
C426 C424 1.381 . S
C426 C427 1.394 . S
C426 H434 0.930 . S
C427 C426 1.394 . S
C427 C428 1.383 . S
C427 H435 0.929 . S
C428 C427 1.383 . S
C428 C429 1.377 . S
C429 H413 0.930 . S
C429 C428 1.377 . S
C429 C430 1.379 . S
C430 H414 0.931 . S
C430 C424 1.383 . S
C430 C429 1.379 . S
H431 C425 0.959 . S
H432 C425 0.961 . S
H433 C425 0.960 . S
H434 C426 0.930 . S
H435 C427 0.929 . S
H436 C444 0.929 . S
H437 C446 0.930 . S
H438 C448 0.930 . S
H439 C451 0.929 . S
H440 C454 0.930 . S
H441 C456 0.960 . S
H442 C456 0.960 . S
H443 C456 0.960 . S
C444 H436 0.929 . S
C444 C445 1.377 . S
C444 C446 1.384 . S
C445 C444 1.377 . S
C445 C451 1.390 . S
C446 H437 0.930 . S
C446 C444 1.384 . S
C446 C447 1.372 . S
C447 C446 1.372 . S
C447 C448 1.400 . S
C447 C452 1.490 . S
C448 H438 0.930 . S
C448 C447 1.400 . S
C448 C451 1.386 . S
H449 C465 0.930 . S
H450 C466 0.931 . S
C451 H439 0.929 . S
C451 C445 1.390 . S
C451 C448 1.386 . S
C452 C447 1.490 . S
C452 C454 1.395 . S
C452 C455 1.403 . S
H453 C459 0.930 . S
C454 H440 0.930 . S
C454 C452 1.395 . S
C454 C457 1.403 . S
C455 C452 1.403 . S
C455 C456 1.524 . S
C455 C459 1.400 . S
C456 H441 0.960 . S
C456 H442 0.960 . S
C456 H443 0.960 . S
C456 C455 1.524 . S
C457 C454 1.403 . S
C457 C458 1.392 . S
C457 C461 1.495 . S
C458 C457 1.392 . S
C458 C459 1.385 . S
C458 C460 1.478 . S
C459 H453 0.930 . S
C459 C455 1.400 . S
C459 C458 1.385 . S
C460 C458 1.478 . S
C460 C462 1.381 . S
C460 C466 1.383 . S
C461 C457 1.495 . S
C461 H467 0.959 . S
C461 H468 0.961 . S
C461 H469 0.960 . S
C462 C460 1.381 . S
C462 C463 1.394 . S
C462 H470 0.930 . S
C463 C462 1.394 . S
C463 C464 1.383 . S
C463 H471 0.929 . S
C464 C463 1.383 . S
C464 C465 1.377 . S
C465 H449 0.930 . S
C465 C464 1.377 . S
C465 C466 1.379 . S
C466 H450 0.931 . S
C466 C460 1.383 . S
C466 C465 1.379 . S
H467 C461 0.959 . S
H468 C461 0.961 . S
H469 C461 0.960 . S
H470 C462 0.930 . S
H471 C463 0.929 . S
H472 C480 0.929 . S
H473 C482 0.930 . S
H474 C484 0.930 . S
H475 C487 0.929 . S
H476 C490 0.930 . S
H477 C492 0.960 . S
H478 C492 0.960 . S
H479 C492 0.960 . S
C480 H472 0.929 . S
C480 C481 1.377 . S
C480 C482 1.384 . S
C481 C480 1.377 . S
C481 C487 1.390 . S
C482 H473 0.930 . S
C482 C480 1.384 . S
C482 C483 1.372 . S
C483 C482 1.372 . S
C483 C484 1.400 . S
C483 C488 1.490 . S
C484 H474 0.930 . S
C484 C483 1.400 . S
C484 C487 1.386 . S
H485 C501 0.930 . S
H486 C502 0.931 . S
C487 H475 0.929 . S
C487 C481 1.390 . S
C487 C484 1.386 . S
C488 C483 1.490 . S
C488 C490 1.395 . S
C488 C491 1.403 . S
H489 C495 0.930 . S
C490 H476 0.930 . S
C490 C488 1.395 . S
C490 C493 1.403 . S
C491 C488 1.403 . S
C491 C492 1.524 . S
C491 C495 1.400 . S
C492 H477 0.960 . S
C492 H478 0.960 . S
C492 H479 0.960 . S
C492 C491 1.524 . S
C493 C490 1.403 . S
C493 C494 1.392 . S
C493 C497 1.495 . S
C494 C493 1.392 . S
C494 C495 1.385 . S
C494 C496 1.478 . S
C495 H489 0.930 . S
C495 C491 1.400 . S
C495 C494 1.385 . S
C496 C494 1.478 . S
C496 C498 1.381 . S
C496 C502 1.383 . S
C497 C493 1.495 . S
C497 H503 0.959 . S
C497 H504 0.961 . S
C497 H505 0.960 . S
C498 C496 1.381 . S
C498 C499 1.394 . S
C498 H506 0.930 . S
C499 C498 1.394 . S
C499 C500 1.383 . S
C499 H507 0.929 . S
C500 C499 1.383 . S
C500 C501 1.377 . S
C501 H485 0.930 . S
C501 C500 1.377 . S
C501 C502 1.379 . S
C502 H486 0.931 . S
C502 C496 1.383 . S
C502 C501 1.379 . S
H503 C497 0.959 . S
H504 C497 0.961 . S
H505 C497 0.960 . S
H506 C498 0.930 . S
H507 C499 0.929 . S
H508 C516 0.929 . S
H509 C518 0.930 . S
H510 C520 0.930 . S
H511 C523 0.929 . S
H512 C526 0.930 . S
H513 C528 0.960 . S
H514 C528 0.960 . S
H515 C528 0.960 . S
C516 H508 0.929 . S
C516 C517 1.377 . S
C516 C518 1.384 . S
C517 C516 1.377 . S
C517 C523 1.390 . S
C518 H509 0.930 . S
C518 C516 1.384 . S
C518 C519 1.372 . S
C519 C518 1.372 . S
C519 C520 1.400 . S
C519 C524 1.490 . S
C520 H510 0.930 . S
C520 C519 1.400 . S
C520 C523 1.386 . S
H521 C537 0.930 . S
H522 C538 0.931 . S
C523 H511 0.929 . S
C523 C517 1.390 . S
C523 C520 1.386 . S
C524 C519 1.490 . S
C524 C526 1.395 . S
C524 C527 1.403 . S
H525 C531 0.930 . S
C526 H512 0.930 . S
C526 C524 1.395 . S
C526 C529 1.403 . S
C527 C524 1.403 . S
C527 C528 1.524 . S
C527 C531 1.400 . S
C528 H513 0.960 . S
C528 H514 0.960 . S
C528 H515 0.960 . S
C528 C527 1.524 . S
C529 C526 1.403 . S
C529 C530 1.392 . S
C529 C533 1.495 . S
C530 C529 1.392 . S
C530 C531 1.385 . S
C530 C532 1.478 . S
C531 H525 0.930 . S
C531 C527 1.400 . S
C531 C530 1.385 . S
C532 C530 1.478 . S
C532 C534 1.381 . S
C532 C538 1.383 . S
C533 C529 1.495 . S
C533 H539 0.959 . S
C533 H540 0.961 . S
C533 H541 0.960 . S
C534 C532 1.381 . S
C534 C535 1.394 . S
C534 H542 0.930 . S
C535 C534 1.394 . S
C535 C536 1.383 . S
C535 H543 0.929 . S
C536 C535 1.383 . S
C536 C537 1.377 . S
C537 H521 0.930 . S
C537 C536 1.377 . S
C537 C538 1.379 . S
C538 H522 0.931 . S
C538 C532 1.383 . S
C538 C537 1.379 . S
H539 C533 0.959 . S
H540 C533 0.961 . S
H541 C533 0.960 . S
H542 C534 0.930 . S
H543 C535 0.929 . S
H544 C552 0.929 . S
H545 C554 0.930 . S
H546 C556 0.930 . S
H547 C559 0.929 . S
H548 C562 0.930 . S
H549 C564 0.960 . S
H550 C564 0.960 . S
H551 C564 0.960 . S
C552 H544 0.929 . S
C552 C553 1.377 . S
C552 C554 1.384 . S
C553 C552 1.377 . S
C553 C559 1.390 . S
C554 H545 0.930 . S
C554 C552 1.384 . S
C554 C555 1.372 . S
C555 C554 1.372 . S
C555 C556 1.400 . S
C555 C560 1.490 . S
C556 H546 0.930 . S
C556 C555 1.400 . S
C556 C559 1.386 . S
H557 C573 0.930 . S
H558 C574 0.931 . S
C559 H547 0.929 . S
C559 C553 1.390 . S
C559 C556 1.386 . S
C560 C555 1.490 . S
C560 C562 1.395 . S
C560 C563 1.403 . S
H561 C567 0.930 . S
C562 H548 0.930 . S
C562 C560 1.395 . S
C562 C565 1.403 . S
C563 C560 1.403 . S
C563 C564 1.524 . S
C563 C567 1.400 . S
C564 H549 0.960 . S
C564 H550 0.960 . S
C564 H551 0.960 . S
C564 C563 1.524 . S
C565 C562 1.403 . S
C565 C566 1.392 . S
C565 C569 1.495 . S
C566 C565 1.392 . S
C566 C567 1.385 . S
C566 C568 1.478 . S
C567 H561 0.930 . S
C567 C563 1.400 . S
C567 C566 1.385 . S
C568 C566 1.478 . S
C568 C570 1.381 . S
C568 C574 1.383 . S
C569 C565 1.495 . S
C569 H575 0.959 . S
C569 H576 0.961 . S
C569 H577 0.960 . S
C570 C568 1.381 . S
C570 C571 1.394 . S
C570 H578 0.930 . S
C571 C570 1.394 . S
C571 C572 1.383 . S
C571 H579 0.929 . S
C572 C571 1.383 . S
C572 C573 1.377 . S
C573 H557 0.930 . S
C573 C572 1.377 . S
C573 C574 1.379 . S
C574 H558 0.931 . S
C574 C568 1.383 . S
C574 C573 1.379 . S
H575 C569 0.959 . S
H576 C569 0.961 . S
H577 C569 0.960 . S
H578 C570 0.930 . S
H579 C571 0.929 . S
H580 C588 0.929 . S
H581 C590 0.930 . S
H582 C592 0.930 . S
H583 C595 0.929 . S
H584 C598 0.930 . S
H585 C600 0.960 . S
H586 C600 0.960 . S
H587 C600 0.960 . S
C588 H580 0.929 . S
C588 C589 1.377 . S
C588 C590 1.384 . S
C589 C588 1.377 . S
C589 C595 1.390 . S
C590 H581 0.930 . S
C590 C588 1.384 . S
C590 C591 1.372 . S
C591 C590 1.372 . S
C591 C592 1.400 . S
C591 C596 1.490 . S
C592 H582 0.930 . S
C592 C591 1.400 . S
C592 C595 1.386 . S
H593 C609 0.930 . S
H594 C610 0.931 . S
C595 H583 0.929 . S
C595 C589 1.390 . S
C595 C592 1.386 . S
C596 C591 1.490 . S
C596 C598 1.395 . S
C596 C599 1.403 . S
H597 C603 0.930 . S
C598 H584 0.930 . S
C598 C596 1.395 . S
C598 C601 1.403 . S
C599 C596 1.403 . S
C599 C600 1.524 . S
C599 C603 1.400 . S
C600 H585 0.960 . S
C600 H586 0.960 . S
C600 H587 0.960 . S
C600 C599 1.524 . S
C601 C598 1.403 . S
C601 C602 1.392 . S
C601 C605 1.495 . S
C602 C601 1.392 . S
C602 C603 1.385 . S
C602 C604 1.478 . S
C603 H597 0.930 . S
C603 C599 1.400 . S
C603 C602 1.385 . S
C604 C602 1.478 . S
C604 C606 1.381 . S
C604 C610 1.383 . S
C605 C601 1.495 . S
C605 H611 0.959 . S
C605 H612 0.961 . S
C605 H613 0.960 . S
C606 C604 1.381 . S
C606 C607 1.394 . S
C606 H614 0.930 . S
C607 C606 1.394 . S
C607 C608 1.383 . S
C607 H615 0.929 . S
C608 C607 1.383 . S
C608 C609 1.377 . S
C609 H593 0.930 . S
C609 C608 1.377 . S
C609 C610 1.379 . S
C610 H594 0.931 . S
C610 C604 1.383 . S
C610 C609 1.379 . S
H611 C605 0.959 . S
H612 C605 0.961 . S
H613 C605 0.960 . S
H614 C606 0.930 . S
H615 C607 0.929 . S
H616 C624 0.929 . S
H617 C626 0.930 . S
H618 C628 0.930 . S
H619 C631 0.929 . S
H620 C634 0.930 . S
H621 C636 0.960 . S
H622 C636 0.960 . S
H623 C636 0.960 . S
C624 H616 0.929 . S
C624 C625 1.377 . S
C624 C626 1.384 . S
C625 C624 1.377 . S
C625 C631 1.390 . S
C626 H617 0.930 . S
C626 C624 1.384 . S
C626 C627 1.372 . S
C627 C626 1.372 . S
C627 C628 1.400 . S
C627 C632 1.490 . S
C628 H618 0.930 . S
C628 C627 1.400 . S
C628 C631 1.386 . S
H629 C645 0.930 1_545 S
H630 C646 0.931 . S
C631 H619 0.929 . S
C631 C625 1.390 . S
C631 C628 1.386 . S
C632 C627 1.490 . S
C632 C634 1.395 . S
C632 C635 1.403 . S
H633 C639 0.930 . S
C634 H620 0.930 . S
C634 C632 1.395 . S
C634 C637 1.403 . S
C635 C632 1.403 . S
C635 C636 1.524 . S
C635 C639 1.400 . S
C636 H621 0.960 . S
C636 H622 0.960 . S
C636 H623 0.960 . S
C636 C635 1.524 . S
C637 C634 1.403 . S
C637 C638 1.392 . S
C637 C641 1.495 . S
C638 C637 1.392 . S
C638 C639 1.385 . S
C638 C640 1.478 . S
C639 H633 0.930 . S
C639 C635 1.400 . S
C639 C638 1.385 . S
C640 C638 1.478 . S
C640 C642 1.381 . S
C640 C646 1.383 . S
C641 C637 1.495 . S
C641 H647 0.959 . S
C641 H648 0.961 . S
C641 H649 0.960 . S
C642 C640 1.381 . S
C642 C643 1.394 . S
C642 H650 0.930 . S
C643 C642 1.394 . S
C643 C644 1.383 . S
C643 H651 0.929 . S
C644 C643 1.383 . S
C644 C645 1.377 . S
C645 H629 0.930 1_565 S
C645 C644 1.377 . S
C645 C646 1.379 . S
C646 H630 0.931 . S
C646 C640 1.383 . S
C646 C645 1.379 . S
H647 C641 0.959 . S
H648 C641 0.961 . S
H649 C641 0.960 . S
H650 C642 0.930 . S
H651 C643 0.929 . S
H652 C660 0.929 . S
H653 C662 0.930 . S
H654 C664 0.930 . S
H655 C667 0.929 . S
H656 C670 0.930 . S
H657 C672 0.960 . S
H658 C672 0.960 . S
H659 C672 0.960 . S
C660 H652 0.929 . S
C660 C661 1.377 . S
C660 C662 1.384 . S
C661 C660 1.377 . S
C661 C667 1.390 . S
C662 H653 0.930 . S
C662 C660 1.384 . S
C662 C663 1.372 . S
C663 C662 1.372 . S
C663 C664 1.400 . S
C663 C668 1.490 . S
C664 H654 0.930 . S
C664 C663 1.400 . S
C664 C667 1.386 . S
H665 C681 0.930 . S
H666 C682 0.931 . S
C667 H655 0.929 . S
C667 C661 1.390 . S
C667 C664 1.386 . S
C668 C663 1.490 . S
C668 C670 1.395 . S
C668 C671 1.403 . S
H669 C675 0.930 . S
C670 H656 0.930 . S
C670 C668 1.395 . S
C670 C673 1.403 . S
C671 C668 1.403 . S
C671 C672 1.524 . S
C671 C675 1.400 . S
C672 H657 0.960 . S
C672 H658 0.960 . S
C672 H659 0.960 . S
C672 C671 1.524 . S
C673 C670 1.403 . S
C673 C674 1.392 . S
C673 C677 1.495 . S
C674 C673 1.392 . S
C674 C675 1.385 . S
C674 C676 1.478 . S
C675 H669 0.930 . S
C675 C671 1.400 . S
C675 C674 1.385 . S
C676 C674 1.478 . S
C676 C678 1.381 . S
C676 C682 1.383 . S
C677 C673 1.495 . S
C677 H683 0.959 . S
C677 H684 0.961 . S
C677 H685 0.960 . S
C678 C676 1.381 . S
C678 C679 1.394 . S
C678 H686 0.930 . S
C679 C678 1.394 . S
C679 C680 1.383 . S
C679 H687 0.929 . S
C680 C679 1.383 . S
C680 C681 1.377 . S
C681 H665 0.930 . S
C681 C680 1.377 . S
C681 C682 1.379 . S
C682 H666 0.931 . S
C682 C676 1.383 . S
C682 C681 1.379 . S
H683 C677 0.959 . S
H684 C677 0.961 . S
H685 C677 0.960 . S
H686 C678 0.930 . S
H687 C679 0.929 . S
H688 C696 0.929 . S
H689 C698 0.930 . S
H690 C700 0.930 . S
H691 C703 0.929 . S
H692 C706 0.930 . S
H693 C708 0.960 . S
H694 C708 0.960 . S
H695 C708 0.960 . S
C696 H688 0.929 . S
C696 C697 1.377 . S
C696 C698 1.384 . S
C697 C696 1.377 . S
C697 C703 1.390 . S
C698 H689 0.930 . S
C698 C696 1.384 . S
C698 C699 1.372 . S
C699 C698 1.372 . S
C699 C700 1.400 . S
C699 C704 1.490 . S
C700 H690 0.930 . S
C700 C699 1.400 . S
C700 C703 1.386 . S
H701 C717 0.930 . S
H702 C718 0.931 . S
C703 H691 0.929 . S
C703 C697 1.390 . S
C703 C700 1.386 . S
C704 C699 1.490 . S
C704 C706 1.395 . S
C704 C707 1.403 . S
H705 C711 0.930 . S
C706 H692 0.930 . S
C706 C704 1.395 . S
C706 C709 1.403 . S
C707 C704 1.403 . S
C707 C708 1.524 . S
C707 C711 1.400 . S
C708 H693 0.960 . S
C708 H694 0.960 . S
C708 H695 0.960 . S
C708 C707 1.524 . S
C709 C706 1.403 . S
C709 C710 1.392 . S
C709 C713 1.495 . S
C710 C709 1.392 . S
C710 C711 1.385 . S
C710 C712 1.478 . S
C711 H705 0.930 . S
C711 C707 1.400 . S
C711 C710 1.385 . S
C712 C710 1.478 . S
C712 C714 1.381 . S
C712 C718 1.383 . S
C713 C709 1.495 . S
C713 H719 0.959 . S
C713 H720 0.961 . S
C713 H721 0.960 . S
C714 C712 1.381 . S
C714 C715 1.394 . S
C714 H722 0.930 . S
C715 C714 1.394 . S
C715 C716 1.383 . S
C715 H723 0.929 . S
C716 C715 1.383 . S
C716 C717 1.377 . S
C717 H701 0.930 . S
C717 C716 1.377 . S
C717 C718 1.379 . S
C718 H702 0.931 . S
C718 C712 1.383 . S
C718 C717 1.379 . S
H719 C713 0.959 . S
H720 C713 0.961 . S
H721 C713 0.960 . S
H722 C714 0.930 . S
H723 C715 0.929 . S
H724 C732 0.929 . S
H725 C734 0.930 . S
H726 C736 0.930 . S
H727 C739 0.929 . S
H728 C742 0.930 . S
H729 C744 0.960 . S
H730 C744 0.960 . S
H731 C744 0.960 . S
C732 H724 0.929 . S
C732 C733 1.377 . S
C732 C734 1.384 . S
C733 C732 1.377 . S
C733 C739 1.390 . S
C734 H725 0.930 . S
C734 C732 1.384 . S
C734 C735 1.372 . S
C735 C734 1.372 . S
C735 C736 1.400 . S
C735 C740 1.490 . S
C736 H726 0.930 . S
C736 C735 1.400 . S
C736 C739 1.386 . S
H737 C753 0.930 . S
H738 C754 0.931 . S
C739 H727 0.929 . S
C739 C733 1.390 . S
C739 C736 1.386 . S
C740 C735 1.490 . S
C740 C742 1.395 . S
C740 C743 1.403 . S
H741 C747 0.930 . S
C742 H728 0.930 . S
C742 C740 1.395 . S
C742 C745 1.403 . S
C743 C740 1.403 . S
C743 C744 1.524 . S
C743 C747 1.400 . S
C744 H729 0.960 . S
C744 H730 0.960 . S
C744 H731 0.960 . S
C744 C743 1.524 . S
C745 C742 1.403 . S
C745 C746 1.392 . S
C745 C749 1.495 . S
C746 C745 1.392 . S
C746 C747 1.385 . S
C746 C748 1.478 . S
C747 H741 0.930 . S
C747 C743 1.400 . S
C747 C746 1.385 . S
C748 C746 1.478 . S
C748 C750 1.381 . S
C748 C754 1.383 . S
C749 C745 1.495 . S
C749 H755 0.959 . S
C749 H756 0.961 . S
C749 H757 0.960 . S
C750 C748 1.381 . S
C750 C751 1.394 . S
C750 H758 0.930 . S
C751 C750 1.394 . S
C751 C752 1.383 . S
C751 H759 0.929 . S
C752 C751 1.383 . S
C752 C753 1.377 . S
C753 H737 0.930 . S
C753 C752 1.377 . S
C753 C754 1.379 . S
C754 H738 0.931 . S
C754 C748 1.383 . S
C754 C753 1.379 . S
H755 C749 0.959 . S
H756 C749 0.961 . S
H757 C749 0.960 . S
H758 C750 0.930 . S
H759 C751 0.929 . S
H760 C768 0.929 . S
H761 C770 0.930 . S
H762 C772 0.930 . S
H763 C775 0.929 . S
H764 C778 0.930 . S
H765 C780 0.960 . S
H766 C780 0.960 . S
H767 C780 0.960 . S
C768 H760 0.929 . S
C768 C769 1.377 . S
C768 C770 1.384 . S
C769 C768 1.377 . S
C769 C775 1.390 . S
C770 H761 0.930 . S
C770 C768 1.384 . S
C770 C771 1.372 . S
C771 C770 1.372 . S
C771 C772 1.400 . S
C771 C776 1.490 . S
C772 H762 0.930 . S
C772 C771 1.400 . S
C772 C775 1.386 . S
H773 C789 0.930 . S
H774 C790 0.931 . S
C775 H763 0.929 . S
C775 C769 1.390 . S
C775 C772 1.386 . S
C776 C771 1.490 . S
C776 C778 1.395 . S
C776 C779 1.403 . S
H777 C783 0.930 . S
C778 H764 0.930 . S
C778 C776 1.395 . S
C778 C781 1.403 . S
C779 C776 1.403 . S
C779 C780 1.524 . S
C779 C783 1.400 . S
C780 H765 0.960 . S
C780 H766 0.960 . S
C780 H767 0.960 . S
C780 C779 1.524 . S
C781 C778 1.403 . S
C781 C782 1.392 . S
C781 C785 1.495 . S
C782 C781 1.392 . S
C782 C783 1.385 . S
C782 C784 1.478 . S
C783 H777 0.930 . S
C783 C779 1.400 . S
C783 C782 1.385 . S
C784 C782 1.478 . S
C784 C786 1.381 . S
C784 C790 1.383 . S
C785 C781 1.495 . S
C785 H791 0.959 . S
C785 H792 0.961 . S
C785 H793 0.960 . S
C786 C784 1.381 . S
C786 C787 1.394 . S
C786 H794 0.930 . S
C787 C786 1.394 . S
C787 C788 1.383 . S
C787 H795 0.929 . S
C788 C787 1.383 . S
C788 C789 1.377 . S
C789 H773 0.930 . S
C789 C788 1.377 . S
C789 C790 1.379 . S
C790 H774 0.931 . S
C790 C784 1.383 . S
C790 C789 1.379 . S
H791 C785 0.959 . S
H792 C785 0.961 . S
H793 C785 0.960 . S
H794 C786 0.930 . S
H795 C787 0.929 . S
H796 C804 0.929 . S
H797 C806 0.930 . S
H798 C808 0.930 . S
H799 C811 0.929 . S
H800 C814 0.930 . S
H801 C816 0.960 . S
H802 C816 0.960 . S
H803 C816 0.960 . S
C804 H796 0.929 . S
C804 C805 1.377 . S
C804 C806 1.384 . S
C805 C804 1.377 . S
C805 C811 1.390 . S
C806 H797 0.930 . S
C806 C804 1.384 . S
C806 C807 1.372 . S
C807 C806 1.372 . S
C807 C808 1.400 . S
C807 C812 1.490 . S
C808 H798 0.930 . S
C808 C807 1.400 . S
C808 C811 1.386 . S
H809 C825 0.930 . S
H810 C826 0.931 . S
C811 H799 0.929 . S
C811 C805 1.390 . S
C811 C808 1.386 . S
C812 C807 1.490 . S
C812 C814 1.395 . S
C812 C815 1.403 . S
H813 C819 0.930 . S
C814 H800 0.930 . S
C814 C812 1.395 . S
C814 C817 1.403 . S
C815 C812 1.403 . S
C815 C816 1.524 . S
C815 C819 1.400 . S
C816 H801 0.960 . S
C816 H802 0.960 . S
C816 H803 0.960 . S
C816 C815 1.524 . S
C817 C814 1.403 . S
C817 C818 1.392 . S
C817 C821 1.495 . S
C818 C817 1.392 . S
C818 C819 1.385 . S
C818 C820 1.478 . S
C819 H813 0.930 . S
C819 C815 1.400 . S
C819 C818 1.385 . S
C820 C818 1.478 . S
C820 C822 1.381 . S
C820 C826 1.383 . S
C821 C817 1.495 . S
C821 H827 0.959 . S
C821 H828 0.961 . S
C821 H829 0.960 . S
C822 C820 1.381 . S
C822 C823 1.394 . S
C822 H830 0.930 . S
C823 C822 1.394 . S
C823 C824 1.383 . S
C823 H831 0.929 . S
C824 C823 1.383 . S
C824 C825 1.377 . S
C825 H809 0.930 . S
C825 C824 1.377 . S
C825 C826 1.379 . S
C826 H810 0.931 . S
C826 C820 1.383 . S
C826 C825 1.379 . S
H827 C821 0.959 . S
H828 C821 0.961 . S
H829 C821 0.960 . S
H830 C822 0.930 . S
H831 C823 0.929 . S
H832 C840 0.929 . S
H833 C842 0.930 . S
H834 C844 0.930 . S
H835 C847 0.929 . S
H836 C850 0.930 . S
H837 C852 0.960 . S
H838 C852 0.960 . S
H839 C852 0.960 . S
C840 H832 0.929 . S
C840 C841 1.377 . S
C840 C842 1.384 . S
C841 C840 1.377 . S
C841 C847 1.390 . S
C842 H833 0.930 . S
C842 C840 1.384 . S
C842 C843 1.372 . S
C843 C842 1.372 . S
C843 C844 1.400 . S
C843 C848 1.490 . S
C844 H834 0.930 . S
C844 C843 1.400 . S
C844 C847 1.386 . S
H845 C861 0.930 . S
H846 C862 0.931 . S
C847 H835 0.929 . S
C847 C841 1.390 . S
C847 C844 1.386 . S
C848 C843 1.490 . S
C848 C850 1.395 . S
C848 C851 1.403 . S
H849 C855 0.930 . S
C850 H836 0.930 . S
C850 C848 1.395 . S
C850 C853 1.403 . S
C851 C848 1.403 . S
C851 C852 1.524 . S
C851 C855 1.400 . S
C852 H837 0.960 . S
C852 H838 0.960 . S
C852 H839 0.960 . S
C852 C851 1.524 . S
C853 C850 1.403 . S
C853 C854 1.392 . S
C853 C857 1.495 . S
C854 C853 1.392 . S
C854 C855 1.385 . S
C854 C856 1.478 . S
C855 H849 0.930 . S
C855 C851 1.400 . S
C855 C854 1.385 . S
C856 C854 1.478 . S
C856 C858 1.381 . S
C856 C862 1.383 . S
C857 C853 1.495 . S
C857 H863 0.959 . S
C857 H864 0.961 . S
C857 H865 0.960 . S
C858 C856 1.381 . S
C858 C859 1.394 . S
C858 H866 0.930 . S
C859 C858 1.394 . S
C859 C860 1.383 . S
C859 H867 0.929 . S
C860 C859 1.383 . S
C860 C861 1.377 . S
C861 H845 0.930 . S
C861 C860 1.377 . S
C861 C862 1.379 . S
C862 H846 0.931 . S
C862 C856 1.383 . S
C862 C861 1.379 . S
H863 C857 0.959 . S
H864 C857 0.961 . S
H865 C857 0.960 . S
H866 C858 0.930 . S
H867 C859 0.929 . S
H868 C876 0.929 . S
H869 C878 0.930 . S
H870 C880 0.930 . S
H871 C883 0.929 . S
H872 C886 0.930 . S
H873 C888 0.960 . S
H874 C888 0.960 . S
H875 C888 0.960 . S
C876 H868 0.929 . S
C876 C877 1.377 . S
C876 C878 1.384 . S
C877 C876 1.377 . S
C877 C883 1.390 . S
C878 H869 0.930 . S
C878 C876 1.384 . S
C878 C879 1.372 . S
C879 C878 1.372 . S
C879 C880 1.400 . S
C879 C884 1.490 . S
C880 H870 0.930 . S
C880 C879 1.400 . S
C880 C883 1.386 . S
H881 C897 0.930 . S
H882 C898 0.931 . S
C883 H871 0.929 . S
C883 C877 1.390 . S
C883 C880 1.386 . S
C884 C879 1.490 . S
C884 C886 1.395 . S
C884 C887 1.403 . S
H885 C891 0.930 . S
C886 H872 0.930 . S
C886 C884 1.395 . S
C886 C889 1.403 . S
C887 C884 1.403 . S
C887 C888 1.524 . S
C887 C891 1.400 . S
C888 H873 0.960 . S
C888 H874 0.960 . S
C888 H875 0.960 . S
C888 C887 1.524 . S
C889 C886 1.403 . S
C889 C890 1.392 . S
C889 C893 1.495 . S
C890 C889 1.392 . S
C890 C891 1.385 . S
C890 C892 1.478 . S
C891 H885 0.930 . S
C891 C887 1.400 . S
C891 C890 1.385 . S
C892 C890 1.478 . S
C892 C894 1.381 . S
C892 C898 1.383 . S
C893 C889 1.495 . S
C893 H899 0.959 . S
C893 H900 0.961 . S
C893 H901 0.960 . S
C894 C892 1.381 . S
C894 C895 1.394 . S
C894 H902 0.930 . S
C895 C894 1.394 . S
C895 C896 1.383 . S
C895 H903 0.929 . S
C896 C895 1.383 . S
C896 C897 1.377 . S
C897 H881 0.930 . S
C897 C896 1.377 . S
C897 C898 1.379 . S
C898 H882 0.931 . S
C898 C892 1.383 . S
C898 C897 1.379 . S
H899 C893 0.959 . S
H900 C893 0.961 . S
H901 C893 0.960 . S
H902 C894 0.930 . S
H903 C895 0.929 . S
H904 C912 0.929 . S
H905 C914 0.930 . S
H906 C916 0.930 . S
H907 C919 0.929 . S
H908 C922 0.930 . S
H909 C924 0.960 . S
H910 C924 0.960 . S
H911 C924 0.960 . S
C912 H904 0.929 . S
C912 C913 1.377 . S
C912 C914 1.384 . S
C913 C912 1.377 . S
C913 C919 1.390 . S
C914 H905 0.930 . S
C914 C912 1.384 . S
C914 C915 1.372 . S
C915 C914 1.372 . S
C915 C916 1.400 . S
C915 C920 1.490 . S
C916 H906 0.930 . S
C916 C915 1.400 . S
C916 C919 1.386 . S
H917 C933 0.930 . S
H918 C934 0.931 . S
C919 H907 0.929 . S
C919 C913 1.390 . S
C919 C916 1.386 . S
C920 C915 1.490 . S
C920 C922 1.395 . S
C920 C923 1.403 . S
H921 C927 0.930 . S
C922 H908 0.930 . S
C922 C920 1.395 . S
C922 C925 1.403 . S
C923 C920 1.403 . S
C923 C924 1.524 . S
C923 C927 1.400 . S
C924 H909 0.960 . S
C924 H910 0.960 . S
C924 H911 0.960 . S
C924 C923 1.524 . S
C925 C922 1.403 . S
C925 C926 1.392 . S
C925 C929 1.495 . S
C926 C925 1.392 . S
C926 C927 1.385 . S
C926 C928 1.478 . S
C927 H921 0.930 . S
C927 C923 1.400 . S
C927 C926 1.385 . S
C928 C926 1.478 . S
C928 C930 1.381 . S
C928 C934 1.383 . S
C929 C925 1.495 . S
C929 H935 0.959 . S
C929 H936 0.961 . S
C929 H937 0.960 . S
C930 C928 1.381 . S
C930 C931 1.368 1_655 S
C930 H938 0.930 . S
C931 C930 1.368 1_455 S
C931 C932 1.369 1_455 S
C931 H939 0.971 . S
C932 C931 1.369 1_655 S
C932 C933 1.377 . S
C933 H917 0.930 . S
C933 C932 1.377 . S
C933 C934 1.379 . S
C934 H918 0.931 . S
C934 C928 1.383 . S
C934 C933 1.379 . S
H935 C929 0.959 . S
H936 C929 0.961 . S
H937 C929 0.960 . S
H938 C930 0.930 . S
H939 C931 0.971 . S
H940 C948 0.929 . S
H941 C950 0.930 . S
H942 C952 0.930 . S
H943 C955 0.929 . S
H944 C958 0.930 . S
H945 C960 0.960 . S
H946 C960 0.960 . S
H947 C960 0.960 . S
C948 H940 0.929 . S
C948 C949 1.377 . S
C948 C950 1.384 . S
C949 C948 1.377 . S
C949 C955 1.390 . S
C950 H941 0.930 . S
C950 C948 1.384 . S
C950 C951 1.372 . S
C951 C950 1.372 . S
C951 C952 1.400 . S
C951 C956 1.490 . S
C952 H942 0.930 . S
C952 C951 1.400 . S
C952 C955 1.386 . S
H953 C969 0.930 . S
H954 C970 0.931 . S
C955 H943 0.929 . S
C955 C949 1.390 . S
C955 C952 1.386 . S
C956 C951 1.490 . S
C956 C958 1.395 . S
C956 C959 1.403 . S
H957 C963 0.930 . S
C958 H944 0.930 . S
C958 C956 1.395 . S
C958 C961 1.403 . S
C959 C956 1.403 . S
C959 C960 1.524 . S
C959 C963 1.400 . S
C960 H945 0.960 . S
C960 H946 0.960 . S
C960 H947 0.960 . S
C960 C959 1.524 . S
C961 C958 1.403 . S
C961 C962 1.392 . S
C961 C965 1.495 . S
C962 C961 1.392 . S
C962 C963 1.385 . S
C962 C964 1.478 . S
C963 H957 0.930 . S
C963 C959 1.400 . S
C963 C962 1.385 . S
C964 C962 1.478 . S
C964 C966 1.381 . S
C964 C970 1.383 . S
C965 C961 1.495 . S
C965 H971 0.959 . S
C965 H972 0.961 . S
C965 H973 0.960 . S
C966 C964 1.381 . S
C966 C967 1.394 . S
C966 H974 0.930 . S
C967 C966 1.394 . S
C967 C968 1.383 . S
C967 H975 0.929 . S
C968 C967 1.383 . S
C968 C969 1.377 . S
C969 H953 0.930 . S
C969 C968 1.377 . S
C969 C970 1.379 . S
C970 H954 0.931 . S
C970 C964 1.383 . S
C970 C969 1.379 . S
H971 C965 0.959 . S
H972 C965 0.961 . S
H973 C965 0.960 . S
H974 C966 0.930 . S
H975 C967 0.929 . S
H976 C984 0.929 . S
H977 C986 0.930 . S
H978 C988 0.930 . S
H979 C991 0.929 . S
H980 C994 0.930 . S
H981 C996 0.960 . S
H982 C996 0.960 . S
H983 C996 0.960 . S
C984 H976 0.929 . S
C984 C985 1.377 . S
C984 C986 1.384 . S
C985 C984 1.377 . S
C985 C991 1.390 . S
C986 H977 0.930 . S
C986 C984 1.384 . S
C986 C987 1.372 . S
C987 C986 1.372 . S
C987 C988 1.400 . S
C987 C992 1.490 . S
C988 H978 0.930 . S
C988 C987 1.400 . S
C988 C991 1.386 . S
H989 C1005 0.930 . S
H990 C1006 0.931 . S
C991 H979 0.929 . S
C991 C985 1.390 . S
C991 C988 1.386 . S
C992 C987 1.490 . S
C992 C994 1.395 . S
C992 C995 1.403 . S
H993 C999 0.930 . S
C994 H980 0.930 . S
C994 C992 1.395 . S
C994 C997 1.403 . S
C995 C992 1.403 . S
C995 C996 1.524 . S
C995 C999 1.400 . S
C996 H981 0.960 . S
C996 H982 0.960 . S
C996 H983 0.960 . S
C996 C995 1.524 . S
C997 C994 1.403 . S
C997 C998 1.392 . S
C997 C1001 1.495 . S
C998 C997 1.392 . S
C998 C999 1.385 . S
C998 C1000 1.478 . S
C999 H993 0.930 . S
C999 C995 1.400 . S
C999 C998 1.385 . S
C1000 C998 1.478 . S
C1000 C1002 1.381 . S
C1000 C1006 1.383 . S
C1001 C997 1.495 . S
C1001 H1007 0.959 . S
C1001 H1008 0.961 . S
C1001 H1009 0.960 . S
C1002 C1000 1.381 . S
C1002 C1003 1.394 . S
C1002 H1010 0.930 . S
C1003 C1002 1.394 . S
C1003 C1004 1.383 . S
C1003 H1011 0.929 . S
C1004 C1003 1.383 . S
C1004 C1005 1.377 . S
C1005 H989 0.930 . S
C1005 C1004 1.377 . S
C1005 C1006 1.379 . S
C1006 H990 0.931 . S
C1006 C1000 1.383 . S
C1006 C1005 1.379 . S
H1007 C1001 0.959 . S
H1008 C1001 0.961 . S
H1009 C1001 0.960 . S
H1010 C1002 0.930 . S
H1011 C1003 0.929 . S
H1012 C1020 0.929 . S
H1013 C1022 0.930 . S
H1014 C1024 0.930 . S
H1015 C1027 0.929 . S
H1016 C1030 0.930 . S
H1017 C1032 0.960 . S
H1018 C1032 0.960 . S
H1019 C1032 0.960 . S
C1020 H1012 0.929 . S
C1020 C1021 1.377 . S
C1020 C1022 1.384 . S
C1021 C1020 1.377 . S
C1021 C1027 1.390 . S
C1022 H1013 0.930 . S
C1022 C1020 1.384 . S
C1022 C1023 1.372 . S
C1023 C1022 1.372 . S
C1023 C1024 1.400 . S
C1023 C1028 1.490 . S
C1024 H1014 0.930 . S
C1024 C1023 1.400 . S
C1024 C1027 1.386 . S
H1025 C1041 0.930 . S
H1026 C1042 0.931 . S
C1027 H1015 0.929 . S
C1027 C1021 1.390 . S
C1027 C1024 1.386 . S
C1028 C1023 1.490 . S
C1028 C1030 1.395 . S
C1028 C1031 1.403 . S
H1029 C1035 0.930 . S
C1030 H1016 0.930 . S
C1030 C1028 1.395 . S
C1030 C1033 1.403 . S
C1031 C1028 1.403 . S
C1031 C1032 1.524 . S
C1031 C1035 1.400 . S
C1032 H1017 0.960 . S
C1032 H1018 0.960 . S
C1032 H1019 0.960 . S
C1032 C1031 1.524 . S
C1033 C1030 1.403 . S
C1033 C1034 1.392 . S
C1033 C1037 1.495 . S
C1034 C1033 1.392 . S
C1034 C1035 1.385 . S
C1034 C1036 1.478 . S
C1035 H1029 0.930 . S
C1035 C1031 1.400 . S
C1035 C1034 1.385 . S
C1036 C1034 1.478 . S
C1036 C1038 1.381 . S
C1036 C1042 1.383 . S
C1037 C1033 1.495 . S
C1037 H1043 0.959 . S
C1037 H1044 0.961 . S
C1037 H1045 0.960 . S
C1038 C1036 1.381 . S
C1038 C1039 1.394 . S
C1038 H1046 0.930 . S
C1039 C1038 1.394 . S
C1039 C1040 1.383 . S
C1039 H1047 0.929 . S
C1040 C1039 1.383 . S
C1040 C1041 1.377 . S
C1041 H1025 0.930 . S
C1041 C1040 1.377 . S
C1041 C1042 1.379 . S
C1042 H1026 0.931 . S
C1042 C1036 1.383 . S
C1042 C1041 1.379 . S
H1043 C1037 0.959 . S
H1044 C1037 0.961 . S
H1045 C1037 0.960 . S
H1046 C1038 0.930 . S
H1047 C1039 0.929 . S
C193 C9 1.957 . S
C212 C123 1.958 . S
C229 C21 1.294 . S
C248 C126 1.231 . S
C284 C162 1.278 . S
C265 C30 1.289 . S
C301 C43 1.415 . S
C320 C182 1.411 1_655 S
C356 C136 1.632 . S
C337 C4 1.594 . S
C392 C113 2.178 . S
C373 C22 2.187 . S
C428 C166 1.173 . S
C409 C34 1.262 . S
C464 C146 1.176 . S
C445 C48 1.213 . S
C481 C8 1.430 . S
C500 C176 1.368 . S
C536 C142 1.671 . S
C517 C35 1.691 . S
C553 C47 1.795 . S
C572 C108 1.726 . S
C589 C17 1.127 . S
C608 C156 1.090 . S
C644 C122 1.469 . S
C625 C60 1.495 . S
C661 C74 1.529 . S
C680 C128 1.482 . S
C697 C82 1.129 . S
C716 C163 1.156 . S
C733 C100 1.943 . S
C752 C183 1.903 . S
C769 C61 2.133 . S
C788 C133 2.110 . S
C824 C116 1.685 . S
C805 C73 1.704 . S
C860 C168 1.651 . S
C841 C87 1.750 . S
C896 C148 0.988 . S
C877 C95 1.054 . S
C913 C56 1.382 . S
C932 C173 1.358 . S
C968 C143 1.693 . S
C949 C86 1.727 . S
C1004 C106 1.587 . S
C985 C99 1.661 . S
C1021 C69 1.179 . S
C1040 C153 1.205 . S
