# Generated by pormake.
# Topology zzz, (3,6)-cn, num edge types: 1
# Building blocks:
#     Node 0, Type 0, BuildingBlock: QEWDON_clean_linker_0, # of connection points: 3
#     Node 1, Type 0, BuildingBlock: QEWDON_clean_linker_0, # of connection points: 3
#     Node 2, Type 0, BuildingBlock: QEWDON_clean_linker_0, # of connection points: 3
#     Node 3, Type 0, BuildingBlock: QEWDON_clean_linker_0, # of connection points: 3
#     Node 4, Type 0, BuildingBlock: QEWDON_clean_linker_0, # of connection points: 3
#     Node 5, Type 0, BuildingBlock: QEWDON_clean_linker_0, # of connection points: 3
#     Node 6, Type 0, BuildingBlock: QEWDON_clean_linker_0, # of connection points: 3
#     Node 7, Type 0, BuildingBlock: QEWDON_clean_linker_0, # of connection points: 3
#     Node 8, Type 1, BuildingBlock: BETFEN_clean_sbu_0, # of connection points: 6
#     Node 9, Type 1, BuildingBlock: BETFEN_clean_sbu_0, # of connection points: 6
#     Node 10, Type 1, BuildingBlock: BETFEN_clean_sbu_0, # of connection points: 6
#     Node 11, Type 1, BuildingBlock: BETFEN_clean_sbu_0, # of connection points: 6
#     Edge 12, Type (0, 1), BuildingBlock: UVAHIK_clean_linker_0, # of connection points: 2
#     Edge 13, Type (0, 1), BuildingBlock: UVAHIK_clean_linker_0, # of connection points: 2
#     Edge 14, Type (0, 1), BuildingBlock: UVAHIK_clean_linker_0, # of connection points: 2
#     Edge 15, Type (0, 1), BuildingBlock: UVAHIK_clean_linker_0, # of connection points: 2
#     Edge 16, Type (0, 1), BuildingBlock: UVAHIK_clean_linker_0, # of connection points: 2
#     Edge 17, Type (0, 1), BuildingBlock: UVAHIK_clean_linker_0, # of connection points: 2
#     Edge 18, Type (0, 1), BuildingBlock: UVAHIK_clean_linker_0, # of connection points: 2
#     Edge 19, Type (0, 1), BuildingBlock: UVAHIK_clean_linker_0, # of connection points: 2
#     Edge 20, Type (0, 1), BuildingBlock: UVAHIK_clean_linker_0, # of connection points: 2
#     Edge 21, Type (0, 1), BuildingBlock: UVAHIK_clean_linker_0, # of connection points: 2
#     Edge 22, Type (0, 1), BuildingBlock: UVAHIK_clean_linker_0, # of connection points: 2
#     Edge 23, Type (0, 1), BuildingBlock: UVAHIK_clean_linker_0, # of connection points: 2
#     Edge 24, Type (0, 1), BuildingBlock: UVAHIK_clean_linker_0, # of connection points: 2
#     Edge 25, Type (0, 1), BuildingBlock: UVAHIK_clean_linker_0, # of connection points: 2
#     Edge 26, Type (0, 1), BuildingBlock: UVAHIK_clean_linker_0, # of connection points: 2
#     Edge 27, Type (0, 1), BuildingBlock: UVAHIK_clean_linker_0, # of connection points: 2
#     Edge 28, Type (0, 1), BuildingBlock: UVAHIK_clean_linker_0, # of connection points: 2
#     Edge 29, Type (0, 1), BuildingBlock: UVAHIK_clean_linker_0, # of connection points: 2
#     Edge 30, Type (0, 1), BuildingBlock: UVAHIK_clean_linker_0, # of connection points: 2
#     Edge 31, Type (0, 1), BuildingBlock: UVAHIK_clean_linker_0, # of connection points: 2
#     Edge 32, Type (0, 1), BuildingBlock: UVAHIK_clean_linker_0, # of connection points: 2
#     Edge 33, Type (0, 1), BuildingBlock: UVAHIK_clean_linker_0, # of connection points: 2
#     Edge 34, Type (0, 1), BuildingBlock: UVAHIK_clean_linker_0, # of connection points: 2
#     Edge 35, Type (0, 1), BuildingBlock: UVAHIK_clean_linker_0, # of connection points: 2
# Relax obj value: 0.142
# Max RMSD: 0.162
# Mean RMSD: 0.120
data_MOF--net-zzz--node1-BETFEN_clean_sbu_0--node2-QEWDON_clean_linker_0--edge1-UVAHIK_clean_linker_0
_symmetry_space_group_name_H-M    P1
_symmetry_Int_Tables_number       1
_symmetry_cell_setting            triclinic
loop_
_symmetry_equiv_pos_as_xyz
'x, y, z'
_cell_length_a     72.217925
_cell_length_b     72.142169
_cell_length_c     16.283514
_cell_angle_alpha  90.088524
_cell_angle_beta   90.034911
_cell_angle_gamma 89.832648
loop_
_atom_site_label
_atom_site_type_symbol
_atom_site_fract_x
_atom_site_fract_y
_atom_site_fract_z
_atom_type_partial_charge
H0 H 0.75362 0.52888 0.15585 0.0
C1 C 0.76455 0.52792 0.20102 0.0
C2 C 0.78277 0.52805 0.17248 0.0
C3 C 0.76064 0.52735 0.28601 0.0
H4 H 0.81152 0.52815 0.20557 0.0
C5 C 0.79741 0.52815 0.22847 0.0
C6 C 0.79424 0.52784 0.31324 0.0
C7 C 0.77582 0.52691 0.34195 0.0
C8 C 0.74081 0.5283 0.31475 0.0
H9 H 0.77351 0.52618 0.40747 0.0
C10 C 0.72598 0.52293 0.2627 0.0
C11 C 0.70735 0.52608 0.28488 0.0
C12 C 0.73636 0.53588 0.39211 0.0
H13 H 0.74698 0.54069 0.43369 0.0
C14 C 0.71793 0.5381 0.4162 0.0
H15 H 0.72871 0.51635 0.20426 0.0
C16 C 0.70354 0.53345 0.36295 0.0
H17 H 0.68943 0.5362 0.382 0.0
H18 H 0.71479 0.54406 0.47565 0.0
H19 H 1.00692 0.74612 0.16707 0.0
C20 C 1.00771 0.75718 0.21191 0.0
C21 C 1.00915 0.77531 0.18307 0.0
C22 C 1.00627 0.75352 0.29687 0.0
H23 H 1.00996 0.80414 0.21486 0.0
C24 C 1.00892 0.79011 0.23834 0.0
C25 C 1.00731 0.78718 0.32298 0.0
C26 C 1.00646 0.7688 0.35244 0.0
C27 C 1.00301 0.73396 0.3253 0.0
H28 H 1.00547 0.76658 0.41798 0.0
C29 C 1.00914 0.71855 0.27823 0.0
C30 C 1.00372 0.70027 0.29777 0.0
C31 C 0.99232 0.73049 0.39583 0.0
H32 H 0.9869 0.7417 0.43293 0.0
C33 C 0.98765 0.71241 0.41779 0.0
H34 H 0.01802 0.7207 0.22569 0.0
C35 C 0.99306 0.69745 0.36888 0.0
H36 H 0.98833 0.68375 0.38567 0.0
H37 H 0.97923 0.71002 0.4717 0.0
H38 H 0.77971 1.00896 0.16024 0.0
C39 C 0.76928 1.00822 0.20769 0.0
C40 C 0.7512 1.0133 0.18671 0.0
C41 C 0.77348 1.00147 0.28715 0.0
H42 H 0.72287 0.01494 0.22629 0.0
C43 C 0.73694 1.0113 0.2437 0.0
C44 C 0.74043 1.0046 0.32251 0.0
C45 C 0.75875 1.00016 0.34513 0.0
C46 C 0.79282 0.9948 0.30683 0.0
H47 H 0.76121 0.99539 0.40709 0.0
C48 C 0.80842 1.00077 0.26083 0.0
C49 C 0.82619 0.99311 0.27401 0.0
C50 C 0.7958 0.98145 0.3687 0.0
H51 H 0.78449 0.97582 0.40407 0.0
C52 C 0.81349 0.97448 0.38442 0.0
H53 H 0.80699 1.01136 0.2144 0.0
C54 C 0.82855 0.98014 0.33732 0.0
H55 H 0.84194 0.97385 0.34874 0.0
H56 H 0.81545 0.96419 0.43196 0.0
H57 H 0.51246 0.77663 0.16119 0.0
C58 C 0.51154 0.76665 0.21064 0.0
C59 C 0.50247 0.74993 0.19555 0.0
C60 C 0.51998 0.7701 0.28734 0.0
H61 H 0.49568 0.72299 0.24164 0.0
C62 C 0.50206 0.73622 0.25591 0.0
C63 C 0.51092 0.73874 0.33156 0.0
C64 C 0.51975 0.75581 0.3475 0.0
C65 C 0.52979 0.78816 0.30156 0.0
H66 H 0.52627 0.75785 0.40667 0.0
C67 C 0.52407 0.8046 0.26103 0.0
C68 C 0.53419 0.82124 0.26857 0.0
C69 C 0.54554 0.78896 0.35236 0.0
H70 H 0.55077 0.77673 0.38301 0.0
C71 C 0.55526 0.80551 0.3622 0.0
H72 H 0.51168 0.80456 0.22361 0.0
C73 C 0.54976 0.82147 0.3204 0.0
H74 H 0.55806 0.83386 0.32702 0.0
H75 H 0.56743 0.80585 0.40099 0.0
H76 H 0.28163 0.5247 0.20814 0.0
C77 C 0.27127 0.52009 0.16461 0.0
C78 C 0.25295 0.51839 0.19134 0.0
C79 C 0.27611 0.51634 0.0823 0.0
H80 H 0.22485 0.51264 0.15526 0.0
C81 C 0.23917 0.51329 0.13527 0.0
C82 C 0.24332 0.51025 0.05255 0.0
C83 C 0.26183 0.51164 0.026 0.0
C84 C 0.29589 0.5183 0.05576 0.0
H85 H 0.26497 0.50897 0.96207 0.0
C86 C 0.31065 0.51458 0.11083 0.0
C87 C 0.32924 0.51803 0.08887 0.0
C88 C 0.30021 0.52484 0.97675 0.0
H89 H 0.28942 0.52825 0.93315 0.0
C90 C 0.31858 0.52774 0.9537 0.0
H91 H 0.30771 0.50895 0.17098 0.0
C92 C 0.33296 0.52454 0.00921 0.0
H93 H 0.34697 0.52766 0.99019 0.0
H94 H 0.32167 0.53296 0.89295 0.0
H95 H 1.00957 0.27839 0.1864 0.0
C96 C 1.012 0.26779 0.14047 0.0
C97 C 1.01173 0.24924 0.16506 0.0
C98 C 0.01419 0.27251 0.05696 0.0
H99 H 0.0135 0.22077 0.12587 0.0
C100 C 0.01383 0.23517 0.1066 0.0
C101 C 0.01611 0.23933 0.02355 0.0
C102 C 0.01643 0.25801 0.99856 0.0
C103 C 1.0125 0.29241 0.03138 0.0
H104 H 0.01819 0.26111 0.93401 0.0
C105 C 0.01796 0.307 0.08449 0.0
C106 C 0.01405 0.32573 0.06548 0.0
C107 C 1.00394 0.29701 0.95652 0.0
H108 H 0.99915 0.28637 0.91476 0.0
C109 C 1.00059 0.31547 0.93594 0.0
H110 H 0.02518 0.30378 0.14094 0.0
C111 C 1.00534 0.32968 0.99008 0.0
H112 H 1.00165 0.34372 0.97343 0.0
H113 H 0.99374 0.31876 0.87863 0.0
H114 H 0.25182 1.00465 0.20237 0.0
C115 C 0.26222 1.0091 0.15884 0.0
C116 C 0.28067 1.00993 0.18481 0.0
C117 C 0.2573 0.01363 0.07736 0.0
H118 H 0.30888 0.01475 0.14819 0.0
C119 C 0.2945 0.01476 0.12874 0.0
C120 C 0.29026 0.01848 0.04673 0.0
C121 C 0.27164 0.0181 0.02101 0.0
C122 C 0.23735 1.01292 0.0517 0.0
H123 H 0.26846 0.02141 0.95774 0.0
C124 C 0.22294 0.01672 0.10845 0.0
C125 C 0.20414 0.01467 0.08649 0.0
C126 C 0.23246 1.00763 0.97136 0.0
H127 H 0.24293 1.00416 0.92631 0.0
C128 C 0.2139 1.00613 0.94849 0.0
H129 H 0.22628 0.02137 0.1699 0.0
C130 C 0.19985 1.00948 0.00544 0.0
H131 H 0.18562 1.00749 0.9864 0.0
H132 H 0.21038 1.0019 0.88662 0.0
H133 H 0.50208 0.25039 0.19329 0.0
C134 C 0.50147 0.25975 0.14142 0.0
C135 C 0.49096 0.27598 0.14891 0.0
C136 C 0.51188 0.25615 0.06988 0.0
H137 H 0.48361 0.30198 0.09344 0.0
C138 C 0.49093 0.28895 0.0851 0.0
C139 C 0.50189 0.28636 0.01513 0.0
C140 C 0.51216 0.2698 0.00709 0.0
C141 C 0.52345 0.23887 0.06483 0.0
H142 H 0.5204 0.26775 0.95231 0.0
C143 C 0.51797 0.22237 0.10514 0.0
C144 C 0.5296 0.2066 0.10705 0.0
C145 C 0.54059 0.23899 0.02376 0.0
H146 H 0.54564 0.25137 0.99389 0.0
C147 C 0.55189 0.22328 0.02321 0.0
H148 H 0.50461 0.22173 0.13515 0.0
C149 C 0.54657 0.20728 0.06487 0.0
H150 H 0.55604 0.19562 0.06587 0.0
H151 H 0.56512 0.22366 0.99198 0.0
Pr152 Pr 0.02425 1.00608 0.78293 0.0
Pr153 Pr 1.00813 0.01877 0.59561 0.0
C154 C 0.02533 0.98697 0.9225 0.0
C155 C 0.02263 0.96673 0.92669 0.0
C156 C 0.03713 0.95532 0.95411 0.0
C157 C 0.03698 0.93632 0.93702 0.0
C158 C 0.02231 0.92841 0.8922 0.0
C159 C 1.00728 0.93966 0.86937 0.0
C160 C 1.00743 0.9586 0.88638 0.0
C161 C 0.05308 1.0126 0.67068 0.0
C162 C 0.01476 0.97422 0.63117 0.0
C163 C 1.00508 0.03711 0.454 0.0
C164 C 1.00817 0.05719 0.44227 0.0
C165 C 0.99283 0.06921 0.43952 0.0
C166 C 0.99509 0.0882 0.45242 0.0
C167 C 1.01276 0.09557 0.46683 0.0
C168 C 0.02827 0.08383 0.46246 0.0
C169 C 0.026 0.06479 0.45059 0.0
C170 C 0.97966 1.01199 0.70986 0.0
C171 C 0.0186 0.05062 0.74562 0.0
O172 O 1.01082 0.99686 0.90156 0.0
O173 O 0.04045 0.99208 0.88453 0.0
O174 O 0.03587 0.01386 0.65833 0.0
O175 O 0.05594 1.00824 0.74719 0.0
O176 O 1.01164 0.98696 0.57394 0.0
O177 O 0.01833 0.97831 0.7093 0.0
O178 O 0.01961 0.02689 0.47119 0.0
O179 O 0.99071 0.03302 0.49939 0.0
O180 O 0.9969 1.01144 0.72026 0.0
O181 O 0.97641 0.01571 0.63312 0.0
O182 O 0.02058 0.03796 0.80423 0.0
O183 O 0.01572 0.04641 0.66696 0.0
H184 H 0.04908 0.96127 0.98444 0.0
H185 H 0.04857 0.92791 0.95707 0.0
H186 H 0.99584 0.93405 0.83431 0.0
H187 H 0.99615 0.96701 0.86302 0.0
H188 H 0.97894 0.06379 0.43276 0.0
H189 H 0.98295 0.09705 0.45338 0.0
H190 H 0.04207 0.08921 0.47283 0.0
H191 H 0.03815 0.05598 0.45281 0.0
Pr192 Pr 0.52149 0.02409 0.77008 0.0
Pr193 Pr 0.50929 1.00564 0.60467 0.0
C194 C 0.54017 0.03456 0.90468 0.0
C195 C 0.55998 0.03898 0.91347 0.0
C196 C 0.56545 0.05578 0.94961 0.0
C197 C 0.58396 0.06144 0.94581 0.0
C198 C 0.59715 0.05046 0.90483 0.0
C199 C 0.59176 0.03337 0.87145 0.0
C200 C 0.57338 0.02767 0.87578 0.0
C201 C 0.51215 0.0487 0.64491 0.0
C202 C 0.554 1.0103 0.63099 0.0
C203 C 0.49141 1.00147 0.46254 0.0
C204 C 0.47181 0.99593 0.45258 0.0
C205 C 0.46723 0.97768 0.42997 0.0
C206 C 0.44901 0.97133 0.43797 0.0
C207 C 0.4352 0.98309 0.46957 0.0
C208 C 0.43955 1.00157 0.48754 0.0
C209 C 0.4576 1.00797 0.4786 0.0
C210 C 0.51079 0.97768 0.72464 0.0
C211 C 0.4775 0.0166 0.74806 0.0
O212 O 0.53609 0.01722 0.88924 0.0
O213 O 0.53072 0.04623 0.85977 0.0
O214 O 0.52172 0.03411 0.63588 0.0
O215 O 0.507 0.05088 0.72084 0.0
O216 O 0.54103 1.00523 0.57836 0.0
O217 O 0.54996 0.01713 0.7045 0.0
O218 O 0.49414 0.01776 0.49617 0.0
O219 O 0.50264 0.98868 0.49101 0.0
O220 O 0.51434 0.99461 0.73533 0.0
O221 O 0.50664 0.97464 0.64833 0.0
O222 O 0.4907 0.01784 0.80406 0.0
O223 O 0.48147 0.01484 0.66912 0.0
H224 H 0.5553 0.06479 0.97827 0.0
H225 H 0.58785 0.07462 0.97257 0.0
H226 H 0.60176 0.02445 0.84126 0.0
H227 H 0.56961 0.01466 0.84715 0.0
H228 H 0.47787 0.96811 0.40971 0.0
H229 H 0.44586 0.95707 0.42262 0.0
H230 H 0.42901 1.01103 0.50984 0.0
H231 H 0.46049 0.02217 0.49601 0.0
Pr232 Pr 0.51217 0.5191 0.77563 0.0
Pr233 Pr 0.5267 0.50666 0.59755 0.0
C234 C 0.51105 0.53623 0.92056 0.0
C235 C 0.50486 0.55551 0.93561 0.0
C236 C 0.48721 0.55909 0.96862 0.0
C237 C 0.47967 0.57699 0.96567 0.0
C238 C 0.48962 0.59148 0.92896 0.0
C239 C 0.50765 0.58815 0.90068 0.0
C240 C 0.51524 0.57041 0.90444 0.0
C241 C 0.48221 0.51756 0.66486 0.0
C242 C 0.52112 0.55115 0.62845 0.0
C243 C 0.52965 0.48725 0.45879 0.0
C244 C 0.51969 0.46987 0.44235 0.0
C245 C 0.5291 0.45446 0.41044 0.0
C246 C 0.52087 0.43693 0.41241 0.0
C247 C 0.50313 0.43455 0.44673 0.0
C248 C 0.49345 0.45018 0.47516 0.0
C249 C 0.50167 0.4676 0.47335 0.0
C250 C 0.554 0.51488 0.71314 0.0
C251 C 0.51332 0.47462 0.73812 0.0
O252 O 0.52643 0.53441 0.87833 0.0
O253 O 0.49812 0.52453 0.89779 0.0
O254 O 0.49899 0.51419 0.6509 0.0
O255 O 0.48021 0.5217 0.74199 0.0
O256 O 0.52224 0.53817 0.57111 0.0
O257 O 0.51963 0.54705 0.70755 0.0
O258 O 0.5194 0.50224 0.46378 0.0
O259 O 0.542 0.48605 0.51744 0.0
O260 O 0.53915 0.50621 0.72704 0.0
O261 O 0.55563 0.51887 0.63539 0.0
O262 O 0.51324 0.48712 0.7977 0.0
O263 O 0.5156 0.47928 0.66007 0.0
H264 H 0.4789 0.54791 0.99303 0.0
H265 H 0.4658 0.57933 0.9888 0.0
H266 H 0.51577 0.59923 0.8741 0.0
H267 H 0.52894 0.56829 0.87897 0.0
H268 H 0.54311 0.45583 0.38756 0.0
H269 H 0.52855 0.42518 0.38864 0.0
H270 H 0.4799 0.44883 0.50301 0.0
H271 H 0.49427 0.47911 0.5008 0.0
Pr272 Pr 1.01194 0.50197 0.77125 0.0
Pr273 Pr 0.02483 0.51999 0.60301 0.0
C274 C 0.99132 0.49448 0.90284 0.0
C275 C 0.97126 0.49804 0.90854 0.0
C276 C 0.95909 0.48343 0.92557 0.0
C277 C 0.94013 0.48537 0.90998 0.0
C278 C 0.93304 0.50194 0.87664 0.0
C279 C 0.94517 0.51685 0.86384 0.0
C280 C 0.96402 0.51495 0.87975 0.0
C281 C 0.02179 0.47692 0.64858 0.0
C282 C 0.98012 0.51616 0.62939 0.0
C283 C 0.04324 0.52398 0.46232 0.0
C284 C 0.06276 0.52987 0.45386 0.0
C285 C 0.06711 0.54828 0.43323 0.0
C286 C 0.08519 0.55491 0.44314 0.0
C287 C 0.09908 0.54326 0.47467 0.0
C288 C 0.09499 0.52463 0.49055 0.0
C289 C 0.0771 0.51796 0.47966 0.0
C290 C 0.02206 0.54808 0.72243 0.0
C291 C 0.05622 0.50873 0.74988 0.0
O292 O 1.00202 0.50911 0.89939 0.0
O293 O 0.99588 0.4817 0.84939 0.0
O294 O 1.01257 0.49168 0.63755 0.0
O295 O 0.02586 0.47451 0.72583 0.0
O296 O 0.99316 0.51976 0.57476 0.0
O297 O 0.98404 0.51064 0.70502 0.0
O298 O 0.0407 0.50777 0.49674 0.0
O299 O 0.03161 0.53665 0.48892 0.0
O300 O 0.01891 0.53107 0.73183 0.0
O301 O 0.02651 0.55124 0.64656 0.0
O302 O 0.04299 0.5067 0.80529 0.0
O303 O 0.05245 0.51143 0.67115 0.0
H304 H 0.96438 0.47021 0.94677 0.0
H305 H 0.93109 0.47375 0.9223 0.0
H306 H 0.94029 0.52973 0.83728 0.0
H307 H 0.97306 0.52639 0.86436 0.0
H308 H 0.05638 0.55777 0.41311 0.0
H309 H 0.08814 0.56928 0.42933 0.0
H310 H 0.10563 0.51526 0.51273 0.0
H311 H 0.0744 0.50365 0.4955 0.0
C312 C 0.19123 1.01022 0.22906 0.0
C313 C 0.18902 0.01695 0.14859 0.0
C314 C 0.17659 1.01096 0.28539 0.0
C315 C 0.1307 0.03302 0.32634 0.0
H316 H 0.12389 0.99014 0.4661 0.0
C317 C 0.06526 0.02224 0.53152 0.0
C318 C 0.06822 0.01464 0.60967 0.0
C319 C 0.07981 0.02337 0.47448 0.0
C320 C 0.12567 1.00234 0.42826 0.0
H321 H 0.16969 0.03046 0.06585 0.0
H322 H 0.1441 0.03141 0.16336 0.0
H323 H 0.14964 0.99084 0.37006 0.0
H324 H 0.08897 1.00276 0.69038 0.0
H325 H 0.11423 1.00483 0.59217 0.0
H326 H 0.10656 0.04442 0.38465 0.0
C327 C 0.15722 0.02564 0.1832 0.0
C328 C 0.14051 1.00275 0.37311 0.0
C329 C 0.17187 0.02491 0.12686 0.0
C330 C 0.08614 1.00857 0.63035 0.0
C331 C 0.10063 1.00963 0.57369 0.0
C332 C 0.11579 0.03258 0.3816 0.0
C333 C 0.15928 0.01843 0.26294 0.0
C334 C 0.14333 0.01814 0.32164 0.0
C335 C 0.09766 0.01685 0.49459 0.0
C336 C 0.11316 0.01728 0.43373 0.0
H337 H 0.20413 1.00383 0.24803 0.0
H338 H 0.17884 1.00554 0.34658 0.0
H339 H 0.1325 0.04518 0.28832 0.0
H340 H 0.05179 0.02739 0.5147 0.0
H341 H 0.07698 0.02903 0.41419 0.0
C342 C 0.52941 0.1719 0.1288 0.0
C343 C 0.52464 0.18981 0.15628 0.0
C344 C 0.52631 0.15633 0.17821 0.0
C345 C 0.51896 0.14336 0.39673 0.0
H346 H 0.50635 0.09541 0.30482 0.0
C347 C 0.50266 0.08077 0.60404 0.0
C348 C 0.51101 0.06378 0.58321 0.0
C349 C 0.50296 0.0957 0.54933 0.0
C350 C 0.51 0.10868 0.33137 0.0
H351 H 0.51235 0.20512 0.25737 0.0
H352 H 0.50635 0.17802 0.34194 0.0
H353 H 0.50889 0.12231 0.21464 0.0
H354 H 0.52562 0.04891 0.48733 0.0
H355 H 0.5261 0.07503 0.39129 0.0
H356 H 0.52003 0.12976 0.51336 0.0
C357 C 0.5129 0.17602 0.28277 0.0
C358 C 0.51149 0.12413 0.27963 0.0
C359 C 0.51609 0.1916 0.23354 0.0
C360 C 0.51909 0.06184 0.50514 0.0
C361 C 0.5193 0.07679 0.45006 0.0
C362 C 0.51736 0.12796 0.44837 0.0
C363 C 0.51825 0.15818 0.25648 0.0
C364 C 0.51605 0.14171 0.31154 0.0
C365 C 0.51152 0.09402 0.47211 0.0
C366 C 0.5129 0.1104 0.41646 0.0
H367 H 0.53577 0.16989 0.06924 0.0
H368 H 0.53077 0.14291 0.1558 0.0
H369 H 0.5229 0.1565 0.42365 0.0
H370 H 0.49622 0.08269 0.66352 0.0
H371 H 0.49655 0.10864 0.56782 0.0
C372 C 0.34216 0.52065 0.23269 0.0
C373 C 0.34467 0.51577 0.1497 0.0
C374 C 0.35693 0.51984 0.28839 0.0
C375 C 0.40484 0.5009 0.317 0.0
H376 H 0.40792 0.53971 0.4813 0.0
C377 C 0.4701 0.51305 0.52108 0.0
C378 C 0.46682 0.51664 0.60463 0.0
C379 C 0.45533 0.51231 0.46506 0.0
C380 C 0.4072 0.52867 0.43627 0.0
H381 H 0.36479 0.50548 0.06166 0.0
H382 H 0.39059 0.5047 0.1577 0.0
H383 H 0.38198 0.53929 0.38594 0.0
H384 H 0.44554 0.52245 0.69491 0.0
H385 H 0.41989 0.52134 0.59756 0.0
H386 H 0.43036 0.49054 0.36698 0.0
C387 C 0.37713 0.50895 0.18022 0.0
C388 C 0.39224 0.52837 0.3816 0.0
C389 C 0.36232 0.50964 0.12464 0.0
C390 C 0.44853 0.51964 0.6309 0.0
C391 C 0.43382 0.51908 0.575 0.0
C392 C 0.41991 0.50129 0.37138 0.0
C393 C 0.37473 0.51425 0.26278 0.0
C394 C 0.39075 0.51443 0.32132 0.0
C395 C 0.43701 0.51543 0.49131 0.0
C396 C 0.42123 0.51514 0.43199 0.0
H397 H 0.32887 0.52562 0.25446 0.0
H398 H 0.35438 0.52371 0.35165 0.0
H399 H 0.40412 0.48979 0.27236 0.0
H400 H 0.48406 0.51103 0.49887 0.0
H401 H 0.45831 0.50968 0.4009 0.0
C402 C 0.01658 0.33819 0.21077 0.0
C403 C 0.01801 0.34108 0.12535 0.0
C404 C 0.01884 0.35291 0.2662 0.0
C405 C 1.01194 0.40248 0.28446 0.0
H406 H 0.0458 0.40059 0.46889 0.0
C407 C 0.01959 0.46537 0.50315 0.0
C408 C 0.02348 0.46198 0.58626 0.0
C409 C 0.02036 0.45096 0.44534 0.0
C410 C 0.036 0.40132 0.41872 0.0
H411 H 0.02394 0.36192 0.03278 0.0
H412 H 0.02694 0.38758 0.12936 0.0
H413 H 0.04423 0.37453 0.37357 0.0
H414 H 0.03113 0.44077 0.67405 0.0
H415 H 0.03153 0.41557 0.57508 0.0
H416 H 1.0029 0.42869 0.33072 0.0
C417 C 0.02407 0.37385 0.1529 0.0
C418 C 0.03524 0.38637 0.36372 0.0
C419 C 0.02221 0.3591 0.09756 0.0
C420 C 0.02821 0.44388 0.61028 0.0
C421 C 0.02858 0.4294 0.55297 0.0
C422 C 1.01237 0.41725 0.34037 0.0
C423 C 0.02224 0.37095 0.23771 0.0
C424 C 0.02324 0.38682 0.29593 0.0
C425 C 0.02461 0.43265 0.46942 0.0
C426 C 0.02443 0.41696 0.40853 0.0
H427 H 0.01307 0.3247 0.2351 0.0
H428 H 0.01726 0.35031 0.33133 0.0
H429 H 1.0024 0.4031 0.23315 0.0
H430 H 0.01587 0.47917 0.48275 0.0
H431 H 0.01761 0.45428 0.3817 0.0
C432 C 0.83955 0.99776 0.13277 0.0
C433 C 0.84203 0.99752 0.21845 0.0
C434 C 0.85473 0.99975 0.07999 0.0
C435 C 0.90361 0.01514 0.06903 0.0
H436 H 0.90588 0.9818 0.88241 0.0
C437 C 0.96828 1.01123 0.85625 0.0
C438 C 0.96499 1.00888 0.77193 0.0
C439 C 0.95378 1.00946 0.91318 0.0
C440 C 0.90542 0.9914 0.93353 0.0
H441 H 0.86241 1.00004 0.31563 0.0
H442 H 0.88888 1.00359 0.22351 0.0
H443 H 0.87947 0.9806 0.97497 0.0
H444 H 0.94387 1.00324 0.68085 0.0
H445 H 0.91866 1.00053 0.77886 0.0
H446 H 0.92944 0.02617 0.02689 0.0
C447 C 0.87518 1.00218 0.19715 0.0
C448 C 0.89023 0.99069 0.98675 0.0
C449 C 0.86002 1.00002 0.24996 0.0
C450 C 0.94692 1.00486 0.74562 0.0
C451 C 0.93245 1.00318 0.80212 0.0
C452 C 0.91878 0.01596 0.01533 0.0
C453 C 0.87278 1.00172 0.11143 0.0
C454 C 0.88906 1.0026 0.05499 0.0
C455 C 0.93561 1.00548 0.88683 0.0
C456 C 0.91986 1.00417 0.94645 0.0
H457 H 0.82595 0.9957 0.10631 0.0
H458 H 0.85234 0.99958 0.01432 0.0
H459 H 0.9031 0.02461 0.12067 0.0
H460 H 0.98187 0.01509 0.87796 0.0
H461 H 0.95683 1.01128 0.97779 0.0
C462 C 0.53116 0.856 0.25294 0.0
C463 C 0.52919 0.83809 0.21956 0.0
C464 C 0.52788 0.87179 0.20495 0.0
C465 C 0.5052 0.88777 0.0125 0.0
H466 H 0.5401 0.92842 0.02621 0.0
C467 C 0.50835 0.94442 0.76428 0.0
C468 C 0.512 0.96282 0.78735 0.0
C469 C 0.50952 0.93004 0.82143 0.0
C470 C 0.53004 0.91735 0.02239 0.0
H471 H 0.52203 0.82294 0.10889 0.0
H472 H 0.51617 0.85038 0.02573 0.0
H473 H 0.54352 0.9018 0.11744 0.0
H474 H 0.51965 0.98061 0.88893 0.0
H475 H 0.52159 0.95541 0.98978 0.0
H476 H 0.49177 0.90319 0.91731 0.0
C477 C 0.52007 0.85223 0.08942 0.0
C478 C 0.53202 0.90204 0.07475 0.0
C479 C 0.52341 0.83644 0.13732 0.0
C480 C 0.51682 0.96655 0.86933 0.0
C481 C 0.518 0.95209 0.9269 0.0
C482 C 0.5032 0.90307 0.9604 0.0
C483 C 0.52247 0.87013 0.12227 0.0
C484 C 0.51976 0.88692 0.06978 0.0
C485 C 0.51433 0.93361 0.90365 0.0
C486 C 0.51575 0.91797 0.96367 0.0
H487 H 0.53529 0.85786 0.31636 0.0
H488 H 0.52956 0.88532 0.23277 0.0
H489 H 0.49529 0.87658 0.00793 0.0
H490 H 0.50467 0.94105 0.70151 0.0
H491 H 0.50695 0.91602 0.80056 0.0
C492 C 0.69402 0.52836 0.14218 0.0
C493 C 0.69199 0.52301 0.22476 0.0
C494 C 0.67917 0.52706 0.08714 0.0
C495 C 0.63344 0.50474 0.05465 0.0
H496 H 0.62527 0.54588 0.90591 0.0
C497 C 0.56719 0.51024 0.85443 0.0
C498 C 0.56926 0.51675 0.77365 0.0
C499 C 0.58195 0.51114 0.91024 0.0
C500 C 0.62744 0.53415 0.94624 0.0
H501 H 0.67277 0.51146 0.31307 0.0
H502 H 0.64683 0.50931 0.21725 0.0
H503 H 0.65153 0.54649 -0.00019 0.0
H504 H 0.58836 0.52948 0.68836 0.0
H505 H 0.61416 0.53085 0.78494 0.0
H506 H 0.6094 0.49234 0.00078 0.0
C507 C 0.65996 0.51448 0.19497 0.0
C508 C 0.64254 0.5345 0.00021 0.0
C509 C 0.67481 0.51586 0.25017 0.0
C510 C 0.58631 0.52441 0.75025 0.0
C511 C 0.60109 0.52527 0.80592 0.0
C512 C 0.61835 0.50435 0.00044 0.0
C513 C 0.66186 0.52031 0.11296 0.0
C514 C 0.64578 0.5198 0.05512 0.0
C515 C 0.59918 0.51854 0.88663 0.0
C516 C 0.61513 0.51905 0.94535 0.0
H517 H 0.70695 0.53412 0.12049 0.0
H518 H 0.68123 0.53144 0.02423 0.0
H519 H 0.63561 0.49306 0.0953 0.0
H520 H 0.5542 0.50428 0.87438 0.0
H521 H 0.57982 0.50609 0.9721 0.0
C522 C 1.01118 0.66636 0.27301 0.0
C523 C 1.00807 0.68431 0.24168 0.0
C524 C 0.01362 0.65118 0.22018 0.0
C525 C 0.02663 0.63844 0.00824 0.0
H526 H 0.99836 0.59374 0.04821 0.0
C527 C 0.02112 0.58146 0.76178 0.0
C528 C 0.02036 0.56279 0.78575 0.0
C529 C 0.02006 0.59569 0.81993 0.0
C530 C 1.00661 0.60596 0.03664 0.0
H531 H 1.00532 0.7001 0.12886 0.0
H532 H 1.01015 0.6738 0.03737 0.0
H533 H 0.99641 0.61959 0.14487 0.0
H534 H 0.0179 0.54436 0.88981 0.0
H535 H 0.01648 0.56923 0.99243 0.0
H536 H 0.03711 0.6249 0.90104 0.0
C537 C 1.01069 0.67151 0.10306 0.0
C538 C 1.00544 0.62083 0.09209 0.0
C539 C 1.00802 0.68665 0.15579 0.0
C540 C 0.01841 0.55863 0.86953 0.0
C541 C 0.01753 0.57293 0.92821 0.0
C542 C 0.02797 0.62354 0.95337 0.0
C543 C 0.01328 0.65355 0.13453 0.0
C544 C 0.01525 0.63734 0.078 0.0
C545 C 0.01846 0.5917 0.90423 0.0
C546 C 0.01777 0.60715 0.96592 0.0
H547 H 1.01168 0.66396 0.33858 0.0
H548 H 0.01586 0.63757 0.24644 0.0
H549 H 0.03462 0.65083 0.99624 0.0
H550 H 0.02248 0.58514 0.69759 0.0
H551 H 0.02034 0.60987 0.79835 0.0
C552 C 0.99413 0.232 0.27045 0.0
C553 C 1.00868 0.24402 0.25144 0.0
C554 C 0.99384 0.22278 0.34536 0.0
C555 C 0.02915 0.20334 0.47707 0.0
H556 H 0.986 0.17518 0.54159 0.0
C557 C 0.0283 0.1262 0.44929 0.0
C558 C 0.0149 0.11537 0.48848 0.0
C559 C 0.02936 0.14517 0.46501 0.0
C560 C 0.99835 0.18296 0.52698 0.0
H561 H 0.03313 0.2577 0.29828 0.0
H562 H 0.03265 0.2416 0.43077 0.0
H563 H 0.98229 0.20683 0.49554 0.0
H564 H 0.99316 0.11543 0.58014 0.0
H565 H 0.99533 0.14853 0.60969 0.0
H566 H 0.0452 0.1794 0.50755 0.0
C567 C 0.02159 0.23905 0.38733 0.0
C568 C 0.99616 0.20116 0.49956 0.0
C569 C 0.02183 0.24834 0.31187 0.0
C570 C 1.0033 0.12363 0.54746 0.0
C571 C 1.00462 0.14256 0.5646 0.0
C572 C 0.03141 0.18531 0.50656 0.0
C573 C 1.00821 0.22531 0.40283 0.0
C574 C 1.01129 0.21081 0.46638 0.0
C575 C 0.01722 0.15373 0.52142 0.0
C576 C 0.01585 0.17433 0.52401 0.0
H577 H 0.98376 0.22863 0.22468 0.0
H578 H 0.98334 0.21229 0.354 0.0
H579 H 0.04126 0.21041 0.45389 0.0
H580 H 0.03737 0.12017 0.40341 0.0
H581 H 0.039 0.15322 0.42894 0.0
C582 C 0.29816 0.01587 0.3134 0.0
C583 C 0.2862 1.00442 0.2686 0.0
C584 C 0.30795 1.00883 0.38013 0.0
C585 C 0.32869 0.96441 0.42678 0.0
H586 H 0.35587 0.99634 0.575 0.0
C587 C 0.40618 0.96833 0.41887 0.0
C588 C 0.41612 0.97648 0.48322 0.0
C589 C 0.38718 0.96532 0.42671 0.0
C590 C 0.34835 0.98683 0.53591 0.0
H591 H 0.27322 0.97743 0.26377 0.0
H592 H 0.29022 0.96505 0.38175 0.0
H593 H 0.32444 1.00436 0.53715 0.0
H594 H 0.41468 0.98607 0.60922 0.0
H595 H 0.38156 0.98027 0.62417 0.0
H596 H 0.35272 0.94706 0.42418 0.0
C597 C 0.29231 0.97938 0.36447 0.0
C598 C 0.3303 0.99159 0.51346 0.0
C599 C 0.28247 0.98648 0.29738 0.0
C600 C 0.40715 0.98005 0.55817 0.0
C601 C 0.3882 0.97677 0.56658 0.0
C602 C 0.3466 0.95944 0.45051 0.0
C603 C 0.30602 0.99013 0.40331 0.0
C604 C 0.32091 0.98132 0.45305 0.0
C605 C 0.37779 0.97019 0.49961 0.0
C606 C 0.3572 0.97144 0.49968 0.0
H607 H 0.30109 0.02982 0.29257 0.0
H608 H 0.31839 0.0176 0.40774 0.0
H609 H 0.32186 0.95594 0.381 0.0
H610 H 0.41281 0.96551 0.36048 0.0
H611 H 0.37972 0.9605 0.37317 0.0
C612 C 0.49469 0.28524 0.29436 0.0
C613 C 0.48281 0.28154 0.22827 0.0
C614 C 0.48909 0.29726 0.35685 0.0
C615 C 0.46032 0.33839 0.35354 0.0
H616 H 0.48719 0.34843 0.55472 0.0
C617 C 0.476 0.41289 0.44076 0.0
C618 C 0.49495 0.41581 0.45555 0.0
C619 C 0.46854 0.39509 0.44501 0.0
C620 C 0.47944 0.3458 0.49895 0.0
H621 H 0.45496 0.28479 0.1816 0.0
H622 H 0.44474 0.30505 0.29306 0.0
H623 H 0.48312 0.31641 0.50901 0.0
H624 H 0.52059 0.40255 0.49299 0.0
H625 H 0.50782 0.37141 0.49645 0.0
H626 H 0.45766 0.36759 0.34004 0.0
C627 C 0.45863 0.29937 0.29527 0.0
C628 C 0.47706 0.32746 0.47285 0.0
C629 C 0.46438 0.28765 0.23182 0.0
C630 C 0.50605 0.40068 0.47893 0.0
C631 C 0.49861 0.38286 0.48273 0.0
C632 C 0.46264 0.35661 0.37965 0.0
C633 C 0.47145 0.30562 0.35429 0.0
C634 C 0.46845 0.32363 0.39715 0.0
C635 C 0.47988 0.37978 0.46347 0.0
C636 C 0.47314 0.36059 0.45004 0.0
H637 H 0.509 0.28068 0.29268 0.0
H638 H 0.49938 0.30162 0.40113 0.0
H639 H 0.45375 0.33618 0.29458 0.0
H640 H 0.46704 0.42425 0.4229 0.0
H641 H 0.45401 0.39322 0.43081 0.0
C642 C 0.23549 0.51189 0.31956 0.0
C643 C 0.24743 0.52351 0.27577 0.0
C644 C 0.2258 0.51863 0.38724 0.0
C645 C 0.20533 0.56292 0.43883 0.0
H646 H 0.17802 0.53036 0.58324 0.0
C647 C 0.12801 0.55866 0.42728 0.0
C648 C 0.11799 0.55013 0.49027 0.0
C649 C 0.14694 0.56184 0.43656 0.0
C650 C 0.18558 0.54004 0.5453 0.0
H651 H 0.26053 0.55047 0.27389 0.0
H652 H 0.24375 0.5623 0.39351 0.0
H653 H 0.20943 0.52243 0.54491 0.0
H654 H 0.11918 0.54012 0.61553 0.0
H655 H 0.15219 0.54624 0.633 0.0
H656 H 0.18134 0.58032 0.43769 0.0
C657 C 0.24156 0.54808 0.37465 0.0
C658 C 0.20363 0.53534 0.52256 0.0
C659 C 0.25127 0.54128 0.30657 0.0
C660 C 0.12678 0.54642 0.5655 0.0
C661 C 0.14567 0.54988 0.57535 0.0
C662 C 0.18742 0.56782 0.46286 0.0
C663 C 0.22785 0.5372 0.41247 0.0
C664 C 0.21304 0.54585 0.46328 0.0
C665 C 0.15619 0.55678 0.50956 0.0
C666 C 0.17678 0.5556 0.51049 0.0
H667 H 0.23249 0.49804 0.29736 0.0
H668 H 0.21536 0.50977 0.41407 0.0
H669 H 0.21219 0.57158 0.39401 0.0
H670 H 0.12151 0.5616 0.36872 0.0
H671 H 0.1545 0.56694 0.38388 0.0
C672 C 0.02717 0.77671 0.0529 0.0
C673 C 1.01042 0.77941 0.09476 0.0
C674 C 0.0304 0.78594 0.97877 0.0
C675 C 1.00919 0.82051 0.83361 0.0
H676 H 0.05183 0.84947 0.89905 0.0
C677 C 1.00678 0.89774 0.87193 0.0
C678 C 0.02284 0.9086 0.86765 0.0
C679 C 1.0075 0.87884 0.85417 0.0
C680 C 0.04018 0.84142 0.87732 0.0
H681 H 0.98318 0.79182 0.08916 0.0
H682 H 0.98866 0.80795 0.96091 0.0
H683 H 0.0488 0.81806 0.94734 0.0
H684 H 0.05191 0.9085 0.83419 0.0
H685 H 0.05324 0.87531 0.80448 0.0
H686 H 0.99983 0.84471 0.76959 0.0
C687 C 0.99935 0.79872 0.9835 0.0
C688 C 0.03844 0.82324 0.90504 0.0
C689 C 0.99619 0.78959 0.05745 0.0
C690 C 0.03942 0.90036 0.84051 0.0
C691 C 0.04014 0.88141 0.82256 0.0
C692 C 1.01092 0.83876 0.80589 0.0
C693 C 0.01692 0.79801 0.94617 0.0
C694 C 0.02221 0.81313 0.88899 0.0
C695 C 0.0243 0.87033 0.83168 0.0
C696 C 0.02574 0.84981 0.8329 0.0
H697 H 0.03831 0.76889 0.08108 0.0
H698 H 0.04398 0.78493 0.95091 0.0
H699 H 0.99676 0.81287 0.81832 0.0
H700 H 0.9938 0.90363 0.89286 0.0
H701 H 0.99509 0.87071 0.86339 0.0
C702 C 0.75041 0.03894 0.08481 0.0
C703 C 0.74651 0.02047 0.10476 0.0
C704 C 0.74066 0.04772 0.02144 0.0
C705 C 0.70251 0.03968 0.86791 0.0
H706 H 0.68044 0.0818 0.9792 0.0
C707 C 0.62602 0.05487 0.82245 0.0
C708 C 0.61667 0.05636 0.89785 0.0
C709 C 0.64515 0.0575 0.81837 0.0
C710 C 0.68647 0.07015 0.94672 0.0
H711 H 0.73119 0.996 0.07007 0.0
H712 H 0.71414 1.01103 0.96064 0.0
H713 H 0.71116 0.07149 0.01816 0.0
H714 H 0.61963 0.06302 0.02676 0.0
H715 H 0.65296 0.06706 0.02085 0.0
H716 H 0.67697 0.03697 0.80344 0.0
C717 C 0.72471 0.01896 0.99202 0.0
C718 C 0.7043 0.06438 0.96811 0.0
C719 C 0.73442 1.01026 0.05513 0.0
C720 C 0.62652 0.06184 0.96789 0.0
C721 C 0.64566 0.06429 0.96409 0.0
C722 C 0.68456 0.04525 0.84749 0.0
C723 C 0.72683 0.03809 0.97788 0.0
C724 C 0.71196 0.04823 0.93322 0.0
C725 C 0.65533 0.06148 0.88987 0.0
C726 C 0.67587 0.05974 0.89097 0.0
H727 H 0.75968 0.04703 0.12287 0.0
H728 H 0.74285 0.06237 0.01117 0.0
H729 H 0.70825 0.02754 0.83799 0.0
H730 H 0.61861 0.05102 0.7672 0.0
H731 H 0.65206 0.0556 0.75993 0.0
C732 C 0.47621 0.74483 0.09967 0.0
C733 C 0.49534 0.7452 0.11369 0.0
C734 C 0.46898 0.73402 0.03597 0.0
C735 C 0.48371 0.69793 0.88005 0.0
H736 H 0.44615 0.66947 0.99292 0.0
C737 C 0.48239 0.61939 0.84391 0.0
C738 C 0.48145 0.61015 0.91969 0.0
C739 C 0.47695 0.63793 0.83753 0.0
C740 C 0.45664 0.67722 0.96032 0.0
H741 H 0.52209 0.73641 0.06889 0.0
H742 H 0.50981 0.71705 0.96071 0.0
H743 H 0.45077 0.70153 0.02933 0.0
H744 H 0.47321 0.61254 0.0469 0.0
H745 H 0.46446 0.64496 0.03744 0.0
H746 H 0.49113 0.67288 0.81864 0.0
C747 C 0.5001 0.72529 0.99588 0.0
C748 C 0.4591 0.69587 0.98008 0.0
C749 C 0.50727 0.73639 0.05833 0.0
C750 C 0.47399 0.61937 0.98779 0.0
C751 C 0.46882 0.63797 0.98185 0.0
C752 C 0.48158 0.67912 0.86189 0.0
C753 C 0.4808 0.72291 0.98759 0.0
C754 C 0.47363 0.7061 0.94461 0.0
C755 C 0.47074 0.64768 0.9072 0.0
C756 C 0.4689 0.66825 0.90621 0.0
H757 H 0.46681 0.75157 0.14216 0.0
H758 H 0.45409 0.73309 0.02971 0.0
H759 H 0.49448 0.70556 0.84867 0.0
H760 H 0.48784 0.6124 0.79009 0.0
H761 H 0.47827 0.64478 0.77872 0.0
C762 C 0.78202 0.51194 0.0369 0.0
C763 C 0.78698 0.52747 0.0839 0.0
C764 C 0.79069 0.50859 0.96145 0.0
C765 C 0.82737 0.52719 0.82066 0.0
H766 H 0.85126 0.48055 0.87355 0.0
C767 C 0.9037 0.52041 0.86637 0.0
C768 C 0.91321 0.50365 0.85355 0.0
C769 C 0.88492 0.52192 0.84795 0.0
C770 C 0.84457 0.49335 0.85527 0.0
H771 H 0.80279 0.55287 0.08558 0.0
H772 H 0.81794 0.54717 0.95506 0.0
H773 H 0.8203 0.48659 0.92291 0.0
H774 H 0.91063 0.47566 0.80583 0.0
H775 H 0.87751 0.47813 0.77634 0.0
H776 H 0.85258 0.53456 0.75986 0.0
C777 C 0.80743 0.53749 0.97498 0.0
C778 C 0.82667 0.49684 0.88355 0.0
C779 C 0.7989 0.54073 0.05033 0.0
C780 C 0.9036 0.48862 0.81863 0.0
C781 C 0.88471 0.49009 0.80062 0.0
C782 C 0.84532 0.52371 0.79252 0.0
C783 C 0.80436 0.52079 0.93232 0.0
C784 C 0.81854 0.51441 0.87254 0.0
C785 C 0.8751 0.50666 0.81675 0.0
C786 C 0.85459 0.50736 0.81551 0.0
H787 H 0.77278 0.50156 0.06183 0.0
H788 H 0.78787 0.49572 0.92952 0.0
H789 H 0.82124 0.54067 0.80924 0.0
H790 H 0.91056 0.53221 0.89394 0.0
H791 H 0.87787 0.53475 0.86301 0.0
C792 C 1.00054 0.2148 0.94117 0.0
C793 C 0.01701 0.22356 0.96511 0.0
C794 C 1.00093 0.19707 0.90589 0.0
C795 C 0.03129 0.16082 0.81297 0.0
H796 H 0.99594 0.1271 0.91115 0.0
C797 C 0.02288 0.08411 0.70723 0.0
C798 C 0.01957 0.07065 0.76794 0.0
C799 C 0.02328 0.10301 0.72714 0.0
C800 C 1.00601 0.13626 0.88344 0.0
H801 H 0.04681 0.22097 0.96924 0.0
H802 H 0.04764 0.19009 0.9061 0.0
H803 H 0.99512 0.15986 0.94715 0.0
H804 H 0.01429 0.06665 0.8977 0.0
H805 H 0.01464 0.09963 0.9322 0.0
H806 H 0.04236 0.13708 0.75021 0.0
C807 C 0.03439 0.19696 0.91359 0.0
C808 C 1.00536 0.15515 0.90322 0.0
C809 C 0.03396 0.21469 0.94931 0.0
C810 C 0.01684 0.07661 0.84931 0.0
C811 C 0.01691 0.09556 0.86895 0.0
C812 C 0.03185 0.1419 0.79269 0.0
C813 C 0.01783 0.18765 0.89412 0.0
C814 C 0.01805 0.1677 0.86872 0.0
C815 C 0.01997 0.10905 0.80798 0.0
C816 C 0.01932 0.12931 0.8283 0.0
H817 H 0.98728 0.22121 0.95433 0.0
H818 H 0.98793 0.19046 0.89066 0.0
H819 H 0.04121 0.17008 0.78489 0.0
H820 H 0.02521 0.08007 0.64402 0.0
H821 H 0.02583 0.11293 0.67875 0.0
C822 C 0.31223 1.00692 0.93956 0.0
C823 C 0.30597 0.0215 0.98959 0.0
C824 C 0.32991 1.00752 0.90382 0.0
C825 C 0.37555 0.03016 0.93902 0.0
H826 H 0.38908 1.00526 0.73674 0.0
C827 C 0.45237 0.0164 0.85586 0.0
C828 C 0.45764 0.0175 0.77294 0.0
C829 C 0.43362 0.01712 0.87834 0.0
C830 C 0.38558 1.01246 0.79304 0.0
H831 H 0.3128 0.0485 0.03844 0.0
H832 H 0.34316 0.05012 0.97292 0.0
H833 H 0.35659 1.00743 0.77597 0.0
H834 H 0.44715 0.02044 0.64882 0.0
H835 H 0.41471 0.02202 0.68768 0.0
H836 H 0.4044 0.03565 0.95518 0.0
C837 C 0.33477 0.03792 0.96275 0.0
C838 C 0.36688 1.01352 0.81611 0.0
C839 C 0.31722 0.03719 -0.00085 0.0
C840 C 0.44366 0.01937 0.71322 0.0
C841 C 0.42495 0.0202 0.73562 0.0
C842 C 0.3942 0.02921 0.91574 0.0
C843 C 0.34171 0.02278 0.91724 0.0
C844 C 0.36156 0.02233 0.8897 0.0
C845 C 0.4196 0.01911 0.81858 0.0
C846 C 0.39956 0.02025 0.84268 0.0
H847 H 0.304 0.99447 0.93293 0.0
H848 H 0.3347 0.99551 0.86995 0.0
H849 H 0.3722 0.03676 0.99689 0.0
H850 H 0.46272 0.01481 0.90354 0.0
H851 H 0.43014 0.01588 0.94275 0.0
C852 C 0.48838 0.31189 0.92904 0.0
C853 C 0.50407 0.30229 0.95781 0.0
C854 C 0.4901 0.32936 0.89237 0.0
C855 C 0.52043 0.36996 0.90124 0.0
H856 H 0.49023 0.38823 0.72162 0.0
C857 C 0.5108 0.44849 0.84053 0.0
C858 C 0.5115 0.45454 0.75851 0.0
C859 C 0.51016 0.42952 0.85918 0.0
C860 C 0.49884 0.38335 0.77163 0.0
H861 H 0.53396 0.30314 0.96708 0.0
H862 H 0.53702 0.33365 0.90268 0.0
H863 H 0.48945 0.35531 0.7574 0.0
H864 H 0.51193 0.44511 0.63185 0.0
H865 H 0.51059 0.41221 0.66433 0.0
H866 H 0.52971 0.39795 0.91614 0.0
C867 C 0.52335 0.32768 0.9088 0.0
C868 C 0.49832 0.36448 0.7924 0.0
C869 C 0.52164 0.31008 0.94464 0.0
C870 C 0.51124 0.44107 0.69571 0.0
C871 C 0.51045 0.42213 0.71433 0.0
C872 C 0.52081 0.38883 0.88105 0.0
C873 C 0.50755 0.33778 0.88447 0.0
C874 C 0.50904 0.35755 0.85781 0.0
C875 C 0.51009 0.41607 0.79635 0.0
C876 C 0.50992 0.39583 0.81642 0.0
H877 H 0.47466 0.30629 0.93885 0.0
H878 H 0.47764 0.33674 0.8748 0.0
H879 H 0.52871 0.36519 0.95255 0.0
H880 H 0.51099 0.45839 0.89058 0.0
H881 H 0.50964 0.42538 0.92304 0.0
C882 C 0.22104 0.52144 0.94578 0.0
C883 C 0.22759 0.50698 0.99561 0.0
C884 C 0.20338 0.52047 0.90983 0.0
C885 C 0.15824 0.49666 0.94325 0.0
H886 H 0.14432 0.52154 0.74176 0.0
C887 C 0.08119 0.5087 0.85855 0.0
C888 C 0.07605 0.50788 0.77537 0.0
C889 C 0.09992 0.50826 0.88156 0.0
C890 C 0.14793 0.51433 0.7978 0.0
H891 H 0.22134 0.47981 0.04374 0.0
H892 H 0.19106 0.47755 0.97779 0.0
H893 H 0.17679 0.52013 0.78172 0.0
H894 H 0.08675 0.50566 0.65132 0.0
H895 H 0.11915 0.50448 0.69107 0.0
H896 H 0.12953 0.49038 0.9583 0.0
C897 C 0.19917 0.48995 0.96805 0.0
C898 C 0.16663 0.51372 0.82133 0.0
C899 C 0.21668 0.49105 0.00472 0.0
C900 C 0.09014 0.5065 0.71593 0.0
C901 C 0.10883 0.50592 0.73886 0.0
C902 C 0.13961 0.49716 0.91945 0.0
C903 C 0.19191 0.50494 0.92274 0.0
C904 C 0.17209 0.50493 0.89469 0.0
C905 C 0.11406 0.50681 0.82207 0.0
C906 C 0.1341 0.5061 0.84665 0.0
H907 H 0.22901 0.53406 0.93942 0.0
H908 H 0.19835 0.53238 0.87613 0.0
H909 H 0.16169 0.49006 0.00093 0.0
H910 H 0.07076 0.50993 0.90602 0.0
H911 H 0.10329 0.50933 0.94617 0.0
C912 C 0.99327 0.818 0.3553 0.0
C913 C 1.00573 0.80382 0.37719 0.0
C914 C 0.99404 0.83537 0.39299 0.0
C915 C 1.0101 0.86297 0.56809 0.0
H916 H 0.01353 0.90202 0.40545 0.0
C917 C 0.02224 0.94053 0.65701 0.0
C918 C 0.01399 0.95426 0.60749 0.0
C919 C 0.02156 0.92175 0.63443 0.0
C920 C 1.01225 0.89144 0.45211 0.0
H921 H 0.02789 0.79639 0.46052 0.0
H922 H 0.02902 0.82697 0.52837 0.0
H923 H 1.01099 0.87 0.36137 0.0
H924 H 0.99811 0.9588 0.49642 0.0
H925 H 0.99636 0.92627 0.4585 0.0
H926 H 1.01081 0.88452 0.65904 0.0
C927 C 0.01877 0.82452 0.48106 0.0
C928 C 1.01093 0.87298 0.4266 0.0
C929 C 0.01808 0.80701 0.44257 0.0
C930 C 1.00484 0.94868 0.5355 0.0
C931 C 1.00394 0.92993 0.51351 0.0
C932 C 1.01115 0.88157 0.59387 0.0
C933 C 1.0072 0.83908 0.4543 0.0
C934 C 1.00961 0.85852 0.48401 0.0
C935 C 1.01246 0.91613 0.56204 0.0
C936 C 1.01201 0.89613 0.53606 0.0
H937 H 0.98342 0.81591 0.30592 0.0
H938 H 0.9847 0.84616 0.3721 0.0
H939 H 1.0091 0.85212 0.61377 0.0
H940 H 0.02954 0.94431 0.71267 0.0
H941 H 0.02852 0.91171 0.67295 0.0
C942 C 0.72007 0.01362 0.44164 0.0
C943 C 0.72423 1.00143 0.37681 0.0
C944 C 0.70244 1.01341 0.47846 0.0
C945 C 0.65442 1.00146 0.42297 0.0
H946 H 0.64346 1.00783 0.6542 0.0
C947 C 0.57926 0.99702 0.54188 0.0
C948 C 0.57383 1.00873 0.60663 0.0
C949 C 0.59791 0.99561 0.51886 0.0
C950 C 0.64624 1.00626 0.58922 0.0
H951 H 0.71372 0.97895 0.30236 0.0
H952 H 0.68328 0.97826 0.36721 0.0
H953 H 0.6757 1.00598 0.60857 0.0
H954 H 0.58383 0.02842 0.69678 0.0
H955 H 0.61625 0.02622 0.65604 0.0
H956 H 0.62521 1.00218 0.40257 0.0
C957 C 0.69339 0.98816 0.38919 0.0
C958 C 0.66476 1.00514 0.56318 0.0
C959 C 0.7109 0.98838 0.35273 0.0
C960 C 0.58755 0.01902 0.64763 0.0
C961 C 0.6062 0.01772 0.62423 0.0
C962 C 0.63598 1.00272 0.44875 0.0
C963 C 0.68867 1.0011 0.45048 0.0
C964 C 0.66908 1.00253 0.47971 0.0
C965 C 0.61169 1.00604 0.55922 0.0
C966 C 0.63154 1.00497 0.53233 0.0
H967 H 0.73 0.02404 0.46022 0.0
H968 H 0.69927 0.02359 0.52534 0.0
H969 H 0.65719 0.99993 0.35794 0.0
H970 H 0.56911 0.98878 0.50932 0.0
H971 H 0.60152 0.98616 0.46965 0.0
C972 C 0.529 0.7157 0.41631 0.0
C973 C 0.51186 0.7226 0.38874 0.0
C974 C 0.53024 0.69804 0.45245 0.0
C975 C 0.50542 0.65335 0.44747 0.0
H976 H 0.53826 0.63917 0.62506 0.0
C977 C 0.52095 0.57634 0.52089 0.0
C978 C 0.52123 0.5711 0.60407 0.0
C979 C 0.52029 0.5951 0.49849 0.0
C980 C 0.52894 0.64291 0.5756 0.0
H981 H 0.48243 0.71704 0.38371 0.0
H982 H 0.48451 0.68655 0.44749 0.0
H983 H 0.53577 0.67181 0.58516 0.0
H984 H 0.52132 0.58176 0.72872 0.0
H985 H 0.52009 0.61434 0.68976 0.0
H986 H 0.49852 0.62459 0.43773 0.0
C987 C 0.49708 0.69448 0.43954 0.0
C988 C 0.52763 0.66162 0.55234 0.0
C989 C 0.49586 0.71205 0.40367 0.0
C990 C 0.52111 0.58519 0.6641 0.0
C991 C 0.52052 0.60394 0.64172 0.0
C992 C 0.50684 0.63469 0.47021 0.0
C993 C 0.51435 0.68692 0.46162 0.0
C994 C 0.51578 0.6671 0.48811 0.0
C995 C 0.51997 0.60918 0.55858 0.0
C996 C 0.51862 0.62917 0.53454 0.0
H997 H 0.5416 0.72339 0.40487 0.0
H998 H 0.54377 0.69268 0.46867 0.0
H999 H 0.49636 0.65696 0.39693 0.0
H1000 H 0.52105 0.56595 0.47283 0.0
H1001 H 0.52012 0.59859 0.43383 0.0
C1002 C 0.82436 0.54221 0.35312 0.0
C1003 C 0.81066 0.52886 0.36882 0.0
C1004 C 0.84163 0.54123 0.39141 0.0
C1005 C 0.86926 0.52203 0.56072 0.0
H1006 H 0.90901 0.52389 0.4009 0.0
C1007 C 0.94644 0.50831 0.64861 0.0
C1008 C 0.96029 0.51792 0.60536 0.0
C1009 C 0.92779 0.50962 0.62513 0.0
C1010 C 0.89821 0.52368 0.44695 0.0
H1011 H 0.80393 0.50478 0.44203 0.0
H1012 H 0.83431 0.50325 0.51093 0.0
H1013 H 0.87712 0.52675 0.35562 0.0
H1014 H 0.96522 0.53681 0.50462 0.0
H1015 H 0.93281 0.53965 0.46531 0.0
H1016 H 0.89044 0.51944 0.65248 0.0
C1017 C 0.83158 0.51439 0.46801 0.0
C1018 C 0.87984 0.5252 0.4207 0.0
C1019 C 0.81418 0.5153 0.42893 0.0
C1020 C 0.95497 0.52907 0.53877 0.0
C1021 C 0.93631 0.53059 0.51596 0.0
C1022 C 0.88776 0.52077 0.58737 0.0
C1023 C 0.84572 0.52695 0.44714 0.0
C1024 C 0.86512 0.52457 0.4771 0.0
C1025 C 0.92241 0.52072 0.55811 0.0
C1026 C 0.90255 0.52173 0.5308 0.0
H1027 H 0.822 0.55298 0.30795 0.0
H1028 H 0.85207 0.55134 0.37525 0.0
H1029 H 0.85822 0.5215 0.60567 0.0
H1030 H 0.95007 0.49938 0.69959 0.0
H1031 H 0.91768 0.50154 0.65839 0.0
loop_
_geom_bond_atom_site_label_1
_geom_bond_atom_site_label_2
_geom_bond_distance
_geom_bond_site_symmetry_2
_ccdc_geom_bond_type
H0 C1 0.949 . S
C1 H0 0.949 . S
C1 C2 1.395 . S
C1 C3 1.391 . S
C2 C1 1.395 . S
C2 C5 1.390 . S
C3 C1 1.391 . S
C3 C7 1.387 . S
C3 C8 1.491 . S
H4 C5 0.950 . S
C5 C2 1.390 . S
C5 H4 0.950 . S
C5 C6 1.378 . S
C6 C5 1.378 . S
C6 C7 1.409 . S
C7 C3 1.387 . S
C7 C6 1.409 . S
C7 H9 0.951 . S
C8 C3 1.491 . S
C8 C10 1.382 . S
C8 C12 1.404 . S
H9 C7 0.951 . S
C10 C8 1.382 . S
C10 C11 1.390 . S
C10 H15 0.949 . S
C11 C10 1.390 . S
C11 C16 1.399 . S
C12 C8 1.404 . S
C12 H13 0.950 . S
C12 C14 1.375 . S
H13 C12 0.950 . S
C14 C12 1.375 . S
C14 C16 1.382 . S
C14 H18 0.950 . S
H15 C10 0.949 . S
C16 C11 1.399 . S
C16 C14 1.382 . S
C16 H17 0.952 . S
H17 C16 0.952 . S
H18 C14 0.950 . S
H19 C20 0.949 . S
C20 H19 0.949 . S
C20 C21 1.405 . S
C20 C22 1.391 . S
C21 C20 1.405 . S
C21 C24 1.387 1_655 S
C22 C20 1.391 . S
C22 C26 1.387 . S
C22 C27 1.491 . S
H23 C24 0.951 . S
C24 C21 1.387 1_455 S
C24 H23 0.951 . S
C24 C25 1.377 1_455 S
C25 C24 1.377 1_655 S
C25 C26 1.409 . S
C26 C22 1.387 . S
C26 C25 1.409 . S
C26 H28 0.951 . S
C27 C22 1.491 . S
C27 C29 1.382 . S
C27 C31 1.404 . S
H28 C26 0.951 . S
C29 C27 1.382 . S
C29 C30 1.390 . S
C29 H34 0.949 1_655 S
C30 C29 1.390 . S
C30 C35 1.399 . S
C31 C27 1.404 . S
C31 H32 0.950 . S
C31 C33 1.375 . S
H32 C31 0.950 . S
C33 C31 1.375 . S
C33 C35 1.382 . S
C33 H37 0.950 . S
H34 C29 0.949 1_455 S
C35 C30 1.399 . S
C35 C33 1.382 . S
C35 H36 0.952 . S
H36 C35 0.952 . S
H37 C33 0.950 . S
H38 C39 0.949 . S
C39 H38 0.949 . S
C39 C40 1.395 . S
C39 C41 1.391 . S
C40 C39 1.395 . S
C40 C43 1.391 1_565 S
C41 C39 1.391 . S
C41 C45 1.387 . S
C41 C46 1.491 . S
H42 C43 0.949 . S
C43 C40 1.391 1_545 S
C43 H42 0.949 . S
C43 C44 1.378 1_545 S
C44 C43 1.378 1_565 S
C44 C45 1.409 . S
C45 C41 1.387 . S
C45 C44 1.409 . S
C45 H47 0.951 . S
C46 C41 1.491 . S
C46 C48 1.382 . S
C46 C50 1.404 . S
H47 C45 0.951 . S
C48 C46 1.382 . S
C48 C49 1.390 . S
C48 H53 0.949 1_565 S
C49 C48 1.390 . S
C49 C54 1.399 . S
C50 C46 1.404 . S
C50 H51 0.950 . S
C50 C52 1.375 . S
H51 C50 0.950 . S
C52 C50 1.375 . S
C52 C54 1.382 . S
C52 H56 0.950 . S
H53 C48 0.949 1_545 S
C54 C49 1.399 . S
C54 C52 1.382 . S
C54 H55 0.952 . S
H55 C54 0.952 . S
H56 C52 0.950 . S
H57 C58 0.949 . S
C58 H57 0.949 . S
C58 C59 1.395 . S
C58 C60 1.391 . S
C59 C58 1.395 . S
C59 C62 1.390 . S
C60 C58 1.391 . S
C60 C64 1.387 . S
C60 C65 1.491 . S
H61 C62 0.950 . S
C62 C59 1.390 . S
C62 H61 0.950 . S
C62 C63 1.378 . S
C63 C62 1.378 . S
C63 C64 1.409 . S
C64 C60 1.387 . S
C64 C63 1.409 . S
C64 H66 0.951 . S
C65 C60 1.491 . S
C65 C67 1.382 . S
C65 C69 1.404 . S
H66 C64 0.951 . S
C67 C65 1.382 . S
C67 C68 1.390 . S
C67 H72 0.949 . S
C68 C67 1.390 . S
C68 C73 1.399 . S
C69 C65 1.404 . S
C69 H70 0.950 . S
C69 C71 1.375 . S
H70 C69 0.950 . S
C71 C69 1.375 . S
C71 C73 1.382 . S
C71 H75 0.950 . S
H72 C67 0.949 . S
C73 C68 1.399 . S
C73 C71 1.382 . S
C73 H74 0.952 . S
H74 C73 0.952 . S
H75 C71 0.950 . S
H76 C77 0.949 . S
C77 H76 0.949 . S
C77 C78 1.395 . S
C77 C79 1.391 1_554 S
C78 C77 1.395 . S
C78 C81 1.390 1_554 S
C79 C77 1.391 1_556 S
C79 C83 1.387 . S
C79 C84 1.491 . S
H80 C81 0.950 . S
C81 C78 1.390 1_556 S
C81 H80 0.950 . S
C81 C82 1.378 . S
C82 C81 1.378 . S
C82 C83 1.409 . S
C83 C79 1.387 . S
C83 C82 1.409 . S
C83 H85 0.951 . S
C84 C79 1.491 . S
C84 C86 1.382 1_556 S
C84 C88 1.404 . S
H85 C83 0.951 . S
C86 C84 1.382 1_554 S
C86 C87 1.390 . S
C86 H91 0.949 . S
C87 C86 1.390 . S
C87 C92 1.399 1_554 S
C88 C84 1.404 . S
C88 H89 0.950 . S
C88 C90 1.375 . S
H89 C88 0.950 . S
C90 C88 1.375 . S
C90 C92 1.382 . S
C90 H94 0.950 . S
H91 C86 0.949 . S
C92 C87 1.399 1_556 S
C92 C90 1.382 . S
C92 H93 0.952 . S
H93 C92 0.952 . S
H94 C90 0.950 . S
H95 C96 0.948 1_655 S
C96 H95 0.948 1_455 S
C96 C97 1.395 . S
C96 C98 1.391 1_454 S
C97 C96 1.395 . S
C97 C100 1.390 1_554 S
C98 C96 1.391 1_656 S
C98 C102 1.389 . S
C98 C103 1.491 . S
H99 C100 0.950 . S
C100 C97 1.390 1_556 S
C100 H99 0.950 . S
C100 C101 1.378 . S
C101 C100 1.378 . S
C101 C102 1.407 1_455 S
C102 C98 1.389 . S
C102 C101 1.407 1_655 S
C102 H104 0.952 . S
C103 C98 1.491 . S
C103 C105 1.382 1_656 S
C103 C107 1.404 . S
H104 C102 0.952 . S
C105 C103 1.382 1_454 S
C105 C106 1.390 1_455 S
C105 H110 0.949 . S
C106 C105 1.390 1_655 S
C106 C111 1.399 1_554 S
C107 C103 1.404 . S
C107 H108 0.950 . S
C107 C109 1.375 . S
H108 C107 0.950 . S
C109 C107 1.375 . S
C109 C111 1.382 . S
C109 H113 0.950 . S
H110 C105 0.949 . S
C111 C106 1.399 1_556 S
C111 C109 1.382 . S
C111 H112 0.952 . S
H112 C111 0.952 . S
H113 C109 0.950 . S
H114 C115 0.948 . S
C115 H114 0.948 . S
C115 C116 1.395 1_565 S
C115 C117 1.390 1_554 S
C116 C115 1.395 1_545 S
C116 C119 1.390 1_554 S
C117 C115 1.390 1_556 S
C117 C121 1.390 . S
C117 C122 1.491 . S
H118 C119 0.950 . S
C119 C116 1.390 1_556 S
C119 H118 0.950 . S
C119 C120 1.378 . S
C120 C119 1.378 . S
C120 C121 1.405 1_545 S
C121 C117 1.390 . S
C121 C120 1.405 1_565 S
C121 H123 0.954 . S
C122 C117 1.491 . S
C122 C124 1.382 1_566 S
C122 C126 1.404 . S
H123 C121 0.954 . S
C124 C122 1.382 1_544 S
C124 C125 1.390 1_545 S
C124 H129 0.949 . S
C125 C124 1.390 1_565 S
C125 C130 1.399 1_554 S
C126 C122 1.404 . S
C126 H127 0.950 . S
C126 C128 1.375 . S
H127 C126 0.950 . S
C128 C126 1.375 . S
C128 C130 1.382 . S
C128 H132 0.950 . S
H129 C124 0.949 . S
C130 C125 1.399 1_556 S
C130 C128 1.382 . S
C130 H131 0.952 . S
H131 C130 0.952 . S
H132 C128 0.950 . S
H133 C134 0.949 . S
C134 H133 0.949 . S
C134 C135 1.395 . S
C134 C136 1.391 1_554 S
C135 C134 1.395 . S
C135 C138 1.390 1_554 S
C136 C134 1.391 1_556 S
C136 C140 1.387 . S
C136 C141 1.491 . S
H137 C138 0.950 . S
C138 C135 1.390 1_556 S
C138 H137 0.950 . S
C138 C139 1.378 . S
C139 C138 1.378 . S
C139 C140 1.409 . S
C140 C136 1.387 . S
C140 C139 1.409 . S
C140 H142 0.951 . S
C141 C136 1.491 . S
C141 C143 1.382 1_556 S
C141 C145 1.404 . S
H142 C140 0.951 . S
C143 C141 1.382 1_554 S
C143 C144 1.390 . S
C143 H148 0.949 . S
C144 C143 1.390 . S
C144 C149 1.399 1_554 S
C145 C141 1.404 . S
C145 H146 0.950 . S
C145 C147 1.375 . S
H146 C145 0.950 . S
C147 C145 1.375 . S
C147 C149 1.382 . S
C147 H151 0.950 . S
H148 C143 0.949 . S
C149 C144 1.399 1_556 S
C149 C147 1.382 . S
C149 H150 0.952 . S
H150 C149 0.952 . S
H151 C147 0.950 . S
Pr152 C154 2.880 . S
Pr152 O172 2.556 1_455 S
Pr152 O173 2.490 . S
Pr152 O174 2.695 1_565 S
Pr152 O175 2.512 . S
Pr152 O177 2.437 . S
Pr152 O180 2.436 1_455 S
Pr152 O182 2.438 1_565 S
Pr153 C163 2.880 . S
Pr153 O174 2.436 1_655 S
Pr153 O176 2.438 1_545 S
Pr153 O178 2.562 1_655 S
Pr153 O179 2.490 . S
Pr153 O180 2.695 1_545 S
Pr153 O181 2.512 . S
Pr153 O183 2.437 . S
C154 Pr152 2.880 . S
C154 C155 1.491 . S
C154 O172 1.240 1_455 S
C154 O173 1.225 . S
C155 C154 1.491 . S
C155 C156 1.392 . S
C155 C160 1.356 . S
C156 C155 1.392 . S
C156 C157 1.368 . S
C156 H184 0.929 . S
C157 C156 1.368 . S
C157 C158 1.386 . S
C157 H185 0.929 . S
C158 C157 1.386 . S
C158 C159 1.373 . S
C159 C158 1.373 . S
C159 C160 1.409 . S
C159 H186 0.931 1_455 S
C160 C155 1.356 . S
C160 C159 1.409 . S
C160 H187 0.930 1_455 S
C161 O174 1.272 1_565 S
C161 O175 1.247 . S
C162 O176 1.267 . S
C162 O177 1.278 1_655 S
C163 Pr153 2.880 . S
C163 C164 1.491 . S
C163 O178 1.254 1_655 S
C163 O179 1.225 . S
C164 C163 1.491 . S
C164 C165 1.392 . S
C164 C169 1.356 1_655 S
C165 C164 1.392 . S
C165 C166 1.368 . S
C165 H188 0.929 . S
C166 C165 1.368 . S
C166 C167 1.386 . S
C166 H189 0.929 . S
C167 C166 1.386 . S
C167 C168 1.373 . S
C168 C167 1.373 . S
C168 C169 1.409 1_655 S
C168 H190 0.931 1_655 S
C169 C164 1.356 1_455 S
C169 C168 1.409 1_455 S
C169 H191 0.929 . S
C170 O180 1.270 1_545 S
C170 O181 1.248 . S
C171 O182 1.267 . S
C171 O183 1.278 1_455 S
O172 Pr152 2.556 1_655 S
O172 C154 1.240 1_655 S
O173 Pr152 2.490 . S
O173 C154 1.225 . S
O174 Pr152 2.695 1_545 S
O174 Pr153 2.436 1_455 S
O174 C161 1.272 1_545 S
O175 Pr152 2.512 . S
O175 C161 1.247 . S
O176 Pr153 2.438 1_565 S
O176 C162 1.267 . S
O177 Pr152 2.437 . S
O177 C162 1.278 1_455 S
O178 Pr153 2.562 1_455 S
O178 C163 1.254 1_455 S
O179 Pr153 2.490 . S
O179 C163 1.225 . S
O180 Pr152 2.436 1_655 S
O180 Pr153 2.695 1_565 S
O180 C170 1.270 1_565 S
O181 Pr153 2.512 . S
O181 C170 1.248 . S
O182 Pr152 2.438 1_545 S
O182 C171 1.267 . S
O183 Pr153 2.437 . S
O183 C171 1.278 1_655 S
H184 C156 0.929 . S
H185 C157 0.929 . S
H186 C159 0.931 1_655 S
H187 C160 0.930 1_655 S
H188 C165 0.929 . S
H189 C166 0.929 . S
H190 C168 0.931 1_455 S
H191 C169 0.929 . S
Pr192 C194 2.880 . S
Pr192 O212 2.551 1_545 S
Pr192 O213 2.490 . S
Pr192 O214 2.695 . S
Pr192 O215 2.512 . S
Pr192 O217 2.437 . S
Pr192 O220 2.436 1_545 S
Pr192 O222 2.438 . S
Pr193 C203 2.880 . S
Pr193 O214 2.436 1_565 S
Pr193 O216 2.438 . S
Pr193 O218 2.562 1_565 S
Pr193 O219 2.490 . S
Pr193 O220 2.695 . S
Pr193 O221 2.512 . S
Pr193 O223 2.437 . S
C194 Pr192 2.880 . S
C194 C195 1.491 . S
C194 O212 1.227 1_545 S
C194 O213 1.225 . S
C195 C194 1.491 . S
C195 C196 1.392 . S
C195 C200 1.356 . S
C196 C195 1.392 . S
C196 C197 1.368 . S
C196 H224 0.929 . S
C197 C196 1.368 . S
C197 C198 1.386 . S
C197 H225 0.929 . S
C198 C197 1.386 . S
C198 C199 1.373 . S
C199 C198 1.373 . S
C199 C200 1.409 . S
C199 H226 0.931 1_545 S
C200 C195 1.356 . S
C200 C199 1.409 . S
C200 H227 0.930 1_545 S
C201 O214 1.270 . S
C201 O215 1.248 . S
C202 O216 1.267 . S
C202 O217 1.278 1_565 S
C203 Pr193 2.880 . S
C203 C204 1.491 . S
C203 O218 1.254 1_565 S
C203 O219 1.225 . S
C204 C203 1.491 . S
C204 C205 1.392 . S
C204 C209 1.355 . S
C205 C204 1.392 . S
C205 C206 1.368 . S
C205 H228 0.929 . S
C206 C205 1.368 . S
C206 C207 1.386 . S
C206 H229 0.929 . S
C207 C206 1.386 . S
C207 C208 1.373 . S
C208 C207 1.373 . S
C208 C209 1.409 . S
C208 H230 0.931 1_565 S
C209 C204 1.355 . S
C209 C208 1.409 . S
C209 H231 0.930 1_565 S
C210 O220 1.270 . S
C210 O221 1.248 . S
C211 O222 1.267 . S
C211 O223 1.278 1_545 S
O212 Pr192 2.551 1_565 S
O212 C194 1.227 1_565 S
O213 Pr192 2.490 . S
O213 C194 1.225 . S
O214 Pr192 2.695 . S
O214 Pr193 2.436 1_545 S
O214 C201 1.270 . S
O215 Pr192 2.512 . S
O215 C201 1.248 . S
O216 Pr193 2.438 . S
O216 C202 1.267 . S
O217 Pr192 2.437 . S
O217 C202 1.278 1_545 S
O218 Pr193 2.562 1_545 S
O218 C203 1.254 1_545 S
O219 Pr193 2.490 . S
O219 C203 1.225 . S
O220 Pr192 2.436 1_565 S
O220 Pr193 2.695 . S
O220 C210 1.270 . S
O221 Pr193 2.512 . S
O221 C210 1.248 . S
O222 Pr192 2.438 . S
O222 C211 1.267 . S
O223 Pr193 2.437 . S
O223 C211 1.278 1_565 S
H224 C196 0.929 . S
H225 C197 0.929 . S
H226 C199 0.931 1_565 S
H227 C200 0.930 1_565 S
H228 C205 0.929 . S
H229 C206 0.929 . S
H230 C208 0.931 1_545 S
H231 C209 0.930 1_545 S
Pr232 C234 2.880 . S
Pr232 O252 2.562 . S
Pr232 O253 2.490 . S
Pr232 O254 2.695 . S
Pr232 O255 2.512 . S
Pr232 O257 2.437 . S
Pr232 O260 2.436 . S
Pr232 O262 2.438 . S
Pr233 C243 2.880 . S
Pr233 O254 2.436 . S
Pr233 O256 2.438 . S
Pr233 O258 2.562 . S
Pr233 O259 2.490 . S
Pr233 O260 2.695 . S
Pr233 O261 2.512 . S
Pr233 O263 2.437 . S
C234 Pr232 2.880 . S
C234 C235 1.491 . S
C234 O252 1.254 . S
C234 O253 1.225 . S
C235 C234 1.491 . S
C235 C236 1.392 . S
C235 C240 1.356 . S
C236 C235 1.392 . S
C236 C237 1.368 . S
C236 H264 0.929 . S
C237 C236 1.368 . S
C237 C238 1.386 . S
C237 H265 0.929 . S
C238 C237 1.386 . S
C238 C239 1.373 . S
C239 C238 1.373 . S
C239 C240 1.409 . S
C239 H266 0.931 . S
C240 C235 1.356 . S
C240 C239 1.409 . S
C240 H267 0.930 . S
C241 O254 1.270 . S
C241 O255 1.248 . S
C242 O256 1.267 . S
C242 O257 1.278 . S
C243 Pr233 2.880 . S
C243 C244 1.491 . S
C243 O258 1.254 . S
C243 O259 1.225 . S
C244 C243 1.491 . S
C244 C245 1.392 . S
C244 C249 1.356 . S
C245 C244 1.392 . S
C245 C246 1.368 . S
C245 H268 0.929 . S
C246 C245 1.368 . S
C246 C247 1.386 . S
C246 H269 0.929 . S
C247 C246 1.386 . S
C247 C248 1.373 . S
C248 C247 1.373 . S
C248 C249 1.409 . S
C248 H270 0.931 . S
C249 C244 1.356 . S
C249 C248 1.409 . S
C249 H271 0.930 . S
C250 O260 1.270 . S
C250 O261 1.248 . S
C251 O262 1.267 . S
C251 O263 1.278 . S
O252 Pr232 2.562 . S
O252 C234 1.254 . S
O253 Pr232 2.490 . S
O253 C234 1.225 . S
O254 Pr232 2.695 . S
O254 Pr233 2.436 . S
O254 C241 1.270 . S
O255 Pr232 2.512 . S
O255 C241 1.248 . S
O256 Pr233 2.438 . S
O256 C242 1.267 . S
O257 Pr232 2.437 . S
O257 C242 1.278 . S
O258 Pr233 2.562 . S
O258 C243 1.254 . S
O259 Pr233 2.490 . S
O259 C243 1.225 . S
O260 Pr232 2.436 . S
O260 Pr233 2.695 . S
O260 C250 1.270 . S
O261 Pr233 2.512 . S
O261 C250 1.248 . S
O262 Pr232 2.438 . S
O262 C251 1.267 . S
O263 Pr233 2.437 . S
O263 C251 1.278 . S
H264 C236 0.929 . S
H265 C237 0.929 . S
H266 C239 0.931 . S
H267 C240 0.930 . S
H268 C245 0.929 . S
H269 C246 0.929 . S
H270 C248 0.931 . S
H271 C249 0.930 . S
Pr272 C274 2.880 . S
Pr272 O292 2.562 . S
Pr272 O293 2.490 . S
Pr272 O294 2.695 1_655 S
Pr272 O295 2.512 . S
Pr272 O297 2.437 . S
Pr272 O300 2.436 . S
Pr272 O302 2.438 1_655 S
Pr273 C283 2.880 . S
Pr273 O294 2.436 . S
Pr273 O296 2.438 1_455 S
Pr273 O298 2.562 . S
Pr273 O299 2.490 . S
Pr273 O300 2.695 1_455 S
Pr273 O301 2.512 . S
Pr273 O303 2.437 . S
C274 Pr272 2.880 . S
C274 C275 1.491 . S
C274 O292 1.254 . S
C274 O293 1.225 . S
C275 C274 1.491 . S
C275 C276 1.392 . S
C275 C280 1.356 . S
C276 C275 1.392 . S
C276 C277 1.368 . S
C276 H304 0.929 . S
C277 C276 1.368 . S
C277 C278 1.386 . S
C277 H305 0.929 . S
C278 C277 1.386 . S
C278 C279 1.373 . S
C279 C278 1.373 . S
C279 C280 1.409 . S
C279 H306 0.931 . S
C280 C275 1.356 . S
C280 C279 1.409 . S
C280 H307 0.930 . S
C281 O294 1.272 . S
C281 O295 1.247 1_455 S
C282 O296 1.267 . S
C282 O297 1.278 . S
C283 Pr273 2.880 . S
C283 C284 1.491 . S
C283 O298 1.254 . S
C283 O299 1.225 . S
C284 C283 1.491 . S
C284 C285 1.392 . S
C284 C289 1.356 . S
C285 C284 1.392 . S
C285 C286 1.368 . S
C285 H308 0.929 . S
C286 C285 1.368 . S
C286 C287 1.386 . S
C286 H309 0.929 . S
C287 C286 1.386 . S
C287 C288 1.373 . S
C288 C287 1.373 . S
C288 C289 1.409 . S
C288 H310 0.931 . S
C289 C284 1.356 . S
C289 C288 1.409 . S
C289 H311 0.930 . S
C290 O300 1.270 1_455 S
C290 O301 1.248 . S
C291 O302 1.267 . S
C291 O303 1.278 . S
O292 Pr272 2.562 . S
O292 C274 1.254 . S
O293 Pr272 2.490 . S
O293 C274 1.225 . S
O294 Pr272 2.695 1_455 S
O294 Pr273 2.436 . S
O294 C281 1.272 . S
O295 Pr272 2.512 . S
O295 C281 1.247 1_655 S
O296 Pr273 2.438 1_655 S
O296 C282 1.267 . S
O297 Pr272 2.437 . S
O297 C282 1.278 . S
O298 Pr273 2.562 . S
O298 C283 1.254 . S
O299 Pr273 2.490 . S
O299 C283 1.225 . S
O300 Pr272 2.436 . S
O300 Pr273 2.695 1_655 S
O300 C290 1.270 1_655 S
O301 Pr273 2.512 . S
O301 C290 1.248 . S
O302 Pr272 2.438 1_455 S
O302 C291 1.267 . S
O303 Pr273 2.437 . S
O303 C291 1.278 . S
H304 C276 0.929 . S
H305 C277 0.929 . S
H306 C279 0.931 . S
H307 C280 0.930 . S
H308 C285 0.929 . S
H309 C286 0.929 . S
H310 C288 0.931 . S
H311 C289 0.930 . S
C312 C313 1.349 1_565 S
C312 C314 1.327 . S
C312 H337 0.950 . S
C313 C312 1.349 1_545 S
C313 C329 1.349 . S
C314 C312 1.327 . S
C314 C333 1.429 1_565 S
C314 H338 0.950 . S
C315 C332 1.574 . S
C315 C334 1.368 . S
C315 H339 0.949 . S
H316 C320 0.949 . S
C317 C318 1.349 . S
C317 C319 1.327 . S
C317 H340 0.950 . S
C318 C317 1.349 . S
C318 C330 1.349 1_545 S
C319 C317 1.327 . S
C319 C335 1.429 . S
C319 H341 0.950 . S
C320 H316 0.949 . S
C320 C328 1.574 . S
C320 C336 1.368 1_565 S
H321 C329 0.950 . S
H322 C327 0.950 . S
H323 C328 0.949 . S
H324 C330 0.950 . S
H325 C331 0.950 . S
H326 C332 0.949 . S
C327 H322 0.950 . S
C327 C329 1.327 . S
C327 C333 1.429 . S
C328 C320 1.574 . S
C328 H323 0.949 . S
C328 C334 1.368 1_565 S
C329 C313 1.349 . S
C329 H321 0.950 . S
C329 C327 1.327 . S
C330 C318 1.349 1_565 S
C330 H324 0.950 . S
C330 C331 1.327 . S
C331 H325 0.950 . S
C331 C330 1.327 . S
C331 C335 1.429 1_565 S
C332 C315 1.574 . S
C332 H326 0.949 . S
C332 C336 1.368 . S
C333 C314 1.429 1_545 S
C333 C327 1.429 . S
C333 C334 1.523 . S
C334 C315 1.368 . S
C334 C328 1.368 1_545 S
C334 C333 1.523 . S
C335 C319 1.429 . S
C335 C331 1.429 1_545 S
C335 C336 1.523 . S
C336 C320 1.368 1_545 S
C336 C332 1.368 . S
C336 C335 1.523 . S
H337 C312 0.950 . S
H338 C314 0.950 . S
H339 C315 0.949 . S
H340 C317 0.950 . S
H341 C319 0.950 . S
C342 C343 1.349 . S
C342 C344 1.327 . S
C342 H367 0.950 . S
C343 C342 1.349 . S
C343 C359 1.349 . S
C344 C342 1.327 . S
C344 C363 1.429 . S
C344 H368 0.950 . S
C345 C362 1.574 . S
C345 C364 1.368 . S
C345 H369 0.949 . S
H346 C350 0.949 . S
C347 C348 1.349 . S
C347 C349 1.327 . S
C347 H370 0.950 . S
C348 C347 1.349 . S
C348 C360 1.349 . S
C349 C347 1.327 . S
C349 C365 1.429 . S
C349 H371 0.950 . S
C350 H346 0.949 . S
C350 C358 1.574 . S
C350 C366 1.368 . S
H351 C359 0.950 . S
H352 C357 0.950 . S
H353 C358 0.949 . S
H354 C360 0.950 . S
H355 C361 0.950 . S
H356 C362 0.949 . S
C357 H352 0.950 . S
C357 C359 1.327 . S
C357 C363 1.429 . S
C358 C350 1.574 . S
C358 H353 0.949 . S
C358 C364 1.368 . S
C359 C343 1.349 . S
C359 H351 0.950 . S
C359 C357 1.327 . S
C360 C348 1.349 . S
C360 H354 0.950 . S
C360 C361 1.327 . S
C361 H355 0.950 . S
C361 C360 1.327 . S
C361 C365 1.429 . S
C362 C345 1.574 . S
C362 H356 0.949 . S
C362 C366 1.368 . S
C363 C344 1.429 . S
C363 C357 1.429 . S
C363 C364 1.523 . S
C364 C345 1.368 . S
C364 C358 1.368 . S
C364 C363 1.523 . S
C365 C349 1.429 . S
C365 C361 1.429 . S
C365 C366 1.523 . S
C366 C350 1.368 . S
C366 C362 1.368 . S
C366 C365 1.523 . S
H367 C342 0.950 . S
H368 C344 0.950 . S
H369 C345 0.949 . S
H370 C347 0.950 . S
H371 C349 0.950 . S
C372 C373 1.349 . S
C372 C374 1.327 . S
C372 H397 0.950 . S
C373 C372 1.349 . S
C373 C389 1.349 . S
C374 C372 1.327 . S
C374 C393 1.429 . S
C374 H398 0.950 . S
C375 C392 1.574 . S
C375 C394 1.368 . S
C375 H399 0.949 . S
H376 C380 0.949 . S
C377 C378 1.349 . S
C377 C379 1.327 . S
C377 H400 0.950 . S
C378 C377 1.349 . S
C378 C390 1.349 . S
C379 C377 1.327 . S
C379 C395 1.429 . S
C379 H401 0.950 . S
C380 H376 0.949 . S
C380 C388 1.574 . S
C380 C396 1.368 . S
H381 C389 0.950 . S
H382 C387 0.950 . S
H383 C388 0.949 . S
H384 C390 0.950 . S
H385 C391 0.950 . S
H386 C392 0.949 . S
C387 H382 0.950 . S
C387 C389 1.327 . S
C387 C393 1.429 . S
C388 C380 1.574 . S
C388 H383 0.949 . S
C388 C394 1.368 . S
C389 C373 1.349 . S
C389 H381 0.950 . S
C389 C387 1.327 . S
C390 C378 1.349 . S
C390 H384 0.950 . S
C390 C391 1.327 . S
C391 H385 0.950 . S
C391 C390 1.327 . S
C391 C395 1.429 . S
C392 C375 1.574 . S
C392 H386 0.949 . S
C392 C396 1.368 . S
C393 C374 1.429 . S
C393 C387 1.429 . S
C393 C394 1.523 . S
C394 C375 1.368 . S
C394 C388 1.368 . S
C394 C393 1.523 . S
C395 C379 1.429 . S
C395 C391 1.429 . S
C395 C396 1.523 . S
C396 C380 1.368 . S
C396 C392 1.368 . S
C396 C395 1.523 . S
H397 C372 0.950 . S
H398 C374 0.950 . S
H399 C375 0.949 . S
H400 C377 0.950 . S
H401 C379 0.950 . S
C402 C403 1.349 . S
C402 C404 1.327 . S
C402 H427 0.950 . S
C403 C402 1.349 . S
C403 C419 1.349 1_455 S
C404 C402 1.327 . S
C404 C423 1.429 . S
C404 H428 0.950 . S
C405 C422 1.574 . S
C405 C424 1.368 1_655 S
C405 H429 0.949 . S
H406 C410 0.949 . S
C407 C408 1.349 1_655 S
C407 C409 1.327 . S
C407 H430 0.950 . S
C408 C407 1.349 1_455 S
C408 C420 1.349 . S
C409 C407 1.327 . S
C409 C425 1.429 1_655 S
C409 H431 0.950 . S
C410 H406 0.949 . S
C410 C418 1.574 . S
C410 C426 1.368 . S
H411 C419 0.950 . S
H412 C417 0.950 . S
H413 C418 0.949 . S
H414 C420 0.950 . S
H415 C421 0.950 . S
H416 C422 0.949 . S
C417 H412 0.950 . S
C417 C419 1.327 . S
C417 C423 1.429 1_655 S
C418 C410 1.574 . S
C418 H413 0.949 . S
C418 C424 1.368 . S
C419 C403 1.349 1_655 S
C419 H411 0.950 . S
C419 C417 1.327 . S
C420 C408 1.349 . S
C420 H414 0.950 . S
C420 C421 1.327 . S
C421 H415 0.950 . S
C421 C420 1.327 . S
C421 C425 1.429 . S
C422 C405 1.574 . S
C422 H416 0.949 . S
C422 C426 1.368 1_655 S
C423 C404 1.429 . S
C423 C417 1.429 1_455 S
C423 C424 1.523 . S
C424 C405 1.368 1_455 S
C424 C418 1.368 . S
C424 C423 1.523 . S
C425 C409 1.429 1_455 S
C425 C421 1.429 . S
C425 C426 1.523 . S
C426 C410 1.368 . S
C426 C422 1.368 1_455 S
C426 C425 1.523 . S
H427 C402 0.950 . S
H428 C404 0.950 . S
H429 C405 0.949 . S
H430 C407 0.950 . S
H431 C409 0.950 . S
C432 C433 1.349 . S
C432 C434 1.327 . S
C432 H457 0.950 . S
C433 C432 1.349 . S
C433 C449 1.349 1_565 S
C434 C432 1.327 . S
C434 C453 1.468 . S
C434 H458 0.950 . S
C435 C452 1.574 . S
C435 C454 1.330 1_545 S
C435 H459 0.949 . S
H436 C440 0.949 . S
C437 C438 1.333 1_545 S
C437 C439 1.327 . S
C437 H460 0.950 . S
C438 C437 1.333 1_565 S
C438 C450 1.365 . S
C439 C437 1.327 . S
C439 C455 1.405 1_545 S
C439 H461 0.950 . S
C440 H436 0.949 . S
C440 C448 1.574 1_556 S
C440 C456 1.399 . S
H441 C449 0.950 . S
H442 C447 0.950 . S
H443 C448 0.949 . S
H444 C450 0.950 . S
H445 C451 0.950 . S
H446 C452 0.949 . S
C447 H442 0.950 . S
C447 C449 1.327 . S
C447 C453 1.390 1_545 S
C448 C440 1.574 1_554 S
C448 H443 0.949 . S
C448 C454 1.407 . S
C449 C433 1.349 1_545 S
C449 H441 0.950 . S
C449 C447 1.327 . S
C450 C438 1.365 . S
C450 H444 0.950 . S
C450 C451 1.327 . S
C451 H445 0.950 . S
C451 C450 1.327 . S
C451 C455 1.452 . S
C452 C435 1.574 . S
C452 H446 0.949 . S
C452 C456 1.338 1_544 S
C453 C434 1.468 . S
C453 C447 1.390 1_565 S
C453 C454 1.523 . S
C454 C435 1.330 1_565 S
C454 C448 1.407 . S
C454 C453 1.523 . S
C455 C439 1.405 1_565 S
C455 C451 1.452 . S
C455 C456 1.523 . S
C456 C440 1.399 . S
C456 C452 1.338 1_566 S
C456 C455 1.523 . S
H457 C432 0.950 . S
H458 C434 0.950 . S
H459 C435 0.949 . S
H460 C437 0.950 . S
H461 C439 0.950 . S
C462 C463 1.349 . S
C462 C464 1.327 . S
C462 H487 0.950 . S
C463 C462 1.349 . S
C463 C479 1.349 . S
C464 C462 1.327 . S
C464 C483 1.429 . S
C464 H488 0.950 . S
C465 C482 1.574 1_554 S
C465 C484 1.368 . S
C465 H489 0.949 1_554 S
H466 C470 0.949 . S
C467 C468 1.349 . S
C467 C469 1.327 . S
C467 H490 0.950 . S
C468 C467 1.349 . S
C468 C480 1.349 . S
C469 C467 1.327 . S
C469 C485 1.429 . S
C469 H491 0.950 . S
C470 H466 0.949 . S
C470 C478 1.574 . S
C470 C486 1.368 1_554 S
H471 C479 0.950 . S
H472 C477 0.950 . S
H473 C478 0.949 . S
H474 C480 0.950 . S
H475 C481 0.950 . S
H476 C482 0.949 . S
C477 H472 0.950 . S
C477 C479 1.327 . S
C477 C483 1.429 . S
C478 C470 1.574 . S
C478 H473 0.949 . S
C478 C484 1.368 . S
C479 C463 1.349 . S
C479 H471 0.950 . S
C479 C477 1.327 . S
C480 C468 1.349 . S
C480 H474 0.950 . S
C480 C481 1.327 . S
C481 H475 0.950 . S
C481 C480 1.327 . S
C481 C485 1.429 . S
C482 C465 1.574 1_556 S
C482 H476 0.949 . S
C482 C486 1.368 . S
C483 C464 1.429 . S
C483 C477 1.429 . S
C483 C484 1.523 . S
C484 C465 1.368 . S
C484 C478 1.368 . S
C484 C483 1.523 . S
C485 C469 1.429 . S
C485 C481 1.429 . S
C485 C486 1.523 . S
C486 C470 1.368 1_556 S
C486 C482 1.368 . S
C486 C485 1.523 . S
H487 C462 0.950 . S
H488 C464 0.950 . S
H489 C465 0.949 1_556 S
H490 C467 0.950 . S
H491 C469 0.950 . S
C492 C493 1.349 . S
C492 C494 1.327 . S
C492 H517 0.950 . S
C493 C492 1.349 . S
C493 C509 1.349 . S
C494 C492 1.327 . S
C494 C513 1.429 . S
C494 H518 0.950 . S
C495 C512 1.574 . S
C495 C514 1.368 . S
C495 H519 0.949 . S
H496 C500 0.949 . S
C497 C498 1.349 . S
C497 C499 1.327 . S
C497 H520 0.950 . S
C498 C497 1.349 . S
C498 C510 1.349 . S
C499 C497 1.327 . S
C499 C515 1.429 . S
C499 H521 0.950 . S
C500 H496 0.949 . S
C500 C508 1.574 1_556 S
C500 C516 1.368 . S
H501 C509 0.950 . S
H502 C507 0.950 . S
H503 C508 0.949 . S
H504 C510 0.950 . S
H505 C511 0.950 . S
H506 C512 0.949 . S
C507 H502 0.950 . S
C507 C509 1.327 . S
C507 C513 1.429 . S
C508 C500 1.574 1_554 S
C508 H503 0.949 . S
C508 C514 1.368 . S
C509 C493 1.349 . S
C509 H501 0.950 . S
C509 C507 1.327 . S
C510 C498 1.349 . S
C510 H504 0.950 . S
C510 C511 1.327 . S
C511 H505 0.950 . S
C511 C510 1.327 . S
C511 C515 1.429 . S
C512 C495 1.574 . S
C512 H506 0.949 . S
C512 C516 1.368 1_554 S
C513 C494 1.429 . S
C513 C507 1.429 . S
C513 C514 1.523 . S
C514 C495 1.368 . S
C514 C508 1.368 . S
C514 C513 1.523 . S
C515 C499 1.429 . S
C515 C511 1.429 . S
C515 C516 1.523 . S
C516 C500 1.368 . S
C516 C512 1.368 1_556 S
C516 C515 1.523 . S
H517 C492 0.950 . S
H518 C494 0.950 . S
H519 C495 0.949 . S
H520 C497 0.950 . S
H521 C499 0.950 . S
C522 C523 1.375 . S
C522 C524 1.327 . S
C522 H547 0.950 . S
C523 C522 1.375 . S
C523 C539 1.324 1_655 S
C524 C522 1.327 . S
C524 C543 1.448 . S
C524 H548 0.950 . S
C525 C542 1.574 1_554 S
C525 C544 1.351 1_455 S
C525 H549 0.949 1_554 S
H526 C530 0.949 . S
C527 C528 1.345 1_455 S
C527 C529 1.327 . S
C527 H550 0.950 . S
C528 C527 1.345 1_655 S
C528 C540 1.352 . S
C529 C527 1.327 . S
C529 C545 1.420 1_455 S
C529 H551 0.950 . S
C530 H526 0.949 . S
C530 C538 1.574 . S
C530 C546 1.381 1_554 S
H531 C539 0.950 . S
H532 C537 0.950 . S
H533 C538 0.949 . S
H534 C540 0.950 . S
H535 C541 0.950 . S
H536 C542 0.949 . S
C537 H532 0.950 . S
C537 C539 1.327 . S
C537 C543 1.410 1_455 S
C538 C530 1.574 . S
C538 H533 0.949 . S
C538 C544 1.387 . S
C539 C523 1.324 1_455 S
C539 H531 0.950 . S
C539 C537 1.327 . S
C540 C528 1.352 . S
C540 H534 0.950 . S
C540 C541 1.327 . S
C541 H535 0.950 . S
C541 C540 1.327 . S
C541 C545 1.437 . S
C542 C525 1.574 1_556 S
C542 H536 0.949 . S
C542 C546 1.356 1_455 S
C543 C524 1.448 . S
C543 C537 1.410 1_655 S
C543 C544 1.523 . S
C544 C525 1.351 1_655 S
C544 C538 1.387 . S
C544 C543 1.523 . S
C545 C529 1.420 1_655 S
C545 C541 1.437 . S
C545 C546 1.523 . S
C546 C530 1.381 1_556 S
C546 C542 1.356 1_655 S
C546 C545 1.523 . S
H547 C522 0.950 . S
H548 C524 0.950 . S
H549 C525 0.949 1_556 S
H550 C527 0.950 . S
H551 C529 0.950 . S
C552 C553 1.349 1_655 S
C552 C554 1.327 . S
C552 H577 0.950 . S
C553 C552 1.349 1_455 S
C553 C569 1.349 . S
C554 C552 1.327 . S
C554 C573 1.429 . S
C554 H578 0.950 . S
C555 C572 1.574 . S
C555 C574 1.368 1_455 S
C555 H579 0.949 . S
H556 C560 0.949 . S
C557 C558 1.349 . S
C557 C559 1.330 . S
C557 H580 0.950 1_655 S
C558 C557 1.349 . S
C558 C570 1.349 . S
C559 C557 1.330 . S
C559 C575 1.440 . S
C559 H581 0.936 1_655 S
C560 H556 0.949 . S
C560 C568 1.574 . S
C560 C576 1.368 . S
H561 C569 0.950 . S
H562 C567 0.950 . S
H563 C568 0.949 . S
H564 C570 0.950 . S
H565 C571 0.950 . S
H566 C572 0.949 . S
C567 H562 0.950 . S
C567 C569 1.327 . S
C567 C573 1.429 1_455 S
C568 C560 1.574 . S
C568 H563 0.949 . S
C568 C574 1.368 . S
C569 C553 1.349 . S
C569 H561 0.950 . S
C569 C567 1.327 . S
C570 C558 1.349 . S
C570 H564 0.950 . S
C570 C571 1.327 . S
C571 H565 0.950 . S
C571 C570 1.327 . S
C571 C575 1.429 . S
C572 C555 1.574 . S
C572 H566 0.949 . S
C572 C576 1.368 1_455 S
C573 C554 1.429 . S
C573 C567 1.429 1_655 S
C573 C574 1.523 . S
C574 C555 1.368 1_655 S
C574 C568 1.368 . S
C574 C573 1.523 . S
C575 C559 1.440 . S
C575 C571 1.429 . S
C575 C576 1.523 . S
C576 C560 1.368 . S
C576 C572 1.368 1_655 S
C576 C575 1.523 . S
H577 C552 0.950 . S
H578 C554 0.950 . S
H579 C555 0.949 . S
H580 C557 0.950 1_455 S
H581 C559 0.936 1_455 S
C582 C583 1.349 . S
C582 C584 1.327 . S
C582 H607 0.950 . S
C583 C582 1.349 . S
C583 C599 1.349 1_545 S
C584 C582 1.327 . S
C584 C603 1.429 1_545 S
C584 H608 0.950 . S
C585 C602 1.574 . S
C585 C604 1.368 . S
C585 H609 0.949 . S
H586 C590 0.941 1_545 S
C587 C588 1.349 . S
C587 C589 1.327 . S
C587 H610 0.950 . S
C588 C587 1.349 . S
C588 C600 1.349 . S
C589 C587 1.327 . S
C589 C605 1.429 . S
C589 H611 0.950 . S
C590 H586 0.941 1_565 S
C590 C598 1.569 1_565 S
C590 C606 1.368 . S
H591 C599 0.950 1_556 S
H592 C597 0.950 . S
H593 C598 0.963 . S
H594 C600 0.950 . S
H595 C601 0.950 . S
H596 C602 0.949 . S
C597 H592 0.950 . S
C597 C599 1.327 . S
C597 C603 1.429 . S
C598 C590 1.569 1_545 S
C598 H593 0.963 . S
C598 C604 1.358 1_545 S
C599 C583 1.349 1_565 S
C599 H591 0.950 1_554 S
C599 C597 1.327 . S
C600 C588 1.349 . S
C600 H594 0.950 . S
C600 C601 1.327 . S
C601 H595 0.950 . S
C601 C600 1.327 . S
C601 C605 1.429 . S
C602 C585 1.574 . S
C602 H596 0.949 . S
C602 C606 1.368 . S
C603 C584 1.429 1_565 S
C603 C597 1.429 . S
C603 C604 1.523 . S
C604 C585 1.368 . S
C604 C598 1.358 1_565 S
C604 C603 1.523 . S
C605 C589 1.429 . S
C605 C601 1.429 . S
C605 C606 1.523 . S
C606 C590 1.368 . S
C606 C602 1.368 . S
C606 C605 1.523 . S
H607 C582 0.950 . S
H608 C584 0.950 . S
H609 C585 0.949 . S
H610 C587 0.950 . S
H611 C589 0.950 . S
C612 C613 1.349 . S
C612 C614 1.327 . S
C612 H637 0.950 . S
C613 C612 1.349 . S
C613 C629 1.349 . S
C614 C612 1.327 . S
C614 C633 1.429 . S
C614 H638 0.950 . S
C615 C632 1.574 . S
C615 C634 1.368 . S
C615 H639 0.949 . S
H616 C620 0.949 . S
C617 C618 1.349 . S
C617 C619 1.327 . S
C617 H640 0.950 . S
C618 C617 1.349 . S
C618 C630 1.349 . S
C619 C617 1.327 . S
C619 C635 1.429 . S
C619 H641 0.950 . S
C620 H616 0.949 . S
C620 C628 1.574 . S
C620 C636 1.368 . S
H621 C629 0.950 . S
H622 C627 0.950 . S
H623 C628 0.949 . S
H624 C630 0.950 . S
H625 C631 0.950 . S
H626 C632 0.949 . S
C627 H622 0.950 . S
C627 C629 1.327 . S
C627 C633 1.429 . S
C628 C620 1.574 . S
C628 H623 0.949 . S
C628 C634 1.368 . S
C629 C613 1.349 . S
C629 H621 0.950 . S
C629 C627 1.327 . S
C630 C618 1.349 . S
C630 H624 0.950 . S
C630 C631 1.327 . S
C631 H625 0.950 . S
C631 C630 1.327 . S
C631 C635 1.429 . S
C632 C615 1.574 . S
C632 H626 0.949 . S
C632 C636 1.368 . S
C633 C614 1.429 . S
C633 C627 1.429 . S
C633 C634 1.523 . S
C634 C615 1.368 . S
C634 C628 1.368 . S
C634 C633 1.523 . S
C635 C619 1.429 . S
C635 C631 1.429 . S
C635 C636 1.523 . S
C636 C620 1.368 . S
C636 C632 1.368 . S
C636 C635 1.523 . S
H637 C612 0.950 . S
H638 C614 0.950 . S
H639 C615 0.949 . S
H640 C617 0.950 . S
H641 C619 0.950 . S
C642 C643 1.349 . S
C642 C644 1.327 . S
C642 H667 0.950 . S
C643 C642 1.349 . S
C643 C659 1.349 . S
C644 C642 1.327 . S
C644 C663 1.429 . S
C644 H668 0.950 . S
C645 C662 1.574 . S
C645 C664 1.368 . S
C645 H669 0.949 . S
H646 C650 0.949 . S
C647 C648 1.349 . S
C647 C649 1.327 . S
C647 H670 0.950 . S
C648 C647 1.349 . S
C648 C660 1.349 . S
C649 C647 1.327 . S
C649 C665 1.429 . S
C649 H671 0.950 . S
C650 H646 0.949 . S
C650 C658 1.574 . S
C650 C666 1.368 . S
H651 C659 0.950 . S
H652 C657 0.950 . S
H653 C658 0.949 . S
H654 C660 0.950 . S
H655 C661 0.950 . S
H656 C662 0.949 . S
C657 H652 0.950 . S
C657 C659 1.327 . S
C657 C663 1.429 . S
C658 C650 1.574 . S
C658 H653 0.949 . S
C658 C664 1.368 . S
C659 C643 1.349 . S
C659 H651 0.950 . S
C659 C657 1.327 . S
C660 C648 1.349 . S
C660 H654 0.950 . S
C660 C661 1.327 . S
C661 H655 0.950 . S
C661 C660 1.327 . S
C661 C665 1.429 . S
C662 C645 1.574 . S
C662 H656 0.949 . S
C662 C666 1.368 . S
C663 C644 1.429 . S
C663 C657 1.429 . S
C663 C664 1.523 . S
C664 C645 1.368 . S
C664 C658 1.368 . S
C664 C663 1.523 . S
C665 C649 1.429 . S
C665 C661 1.429 . S
C665 C666 1.523 . S
C666 C650 1.368 . S
C666 C662 1.368 . S
C666 C665 1.523 . S
H667 C642 0.950 . S
H668 C644 0.950 . S
H669 C645 0.949 . S
H670 C647 0.950 . S
H671 C649 0.950 . S
C672 C673 1.349 1_455 S
C672 C674 1.327 . S
C672 H697 0.950 . S
C673 C672 1.349 1_655 S
C673 C689 1.349 . S
C674 C672 1.327 . S
C674 C693 1.429 . S
C674 H698 0.950 . S
C675 C692 1.574 . S
C675 C694 1.368 1_655 S
C675 H699 0.949 . S
H676 C680 0.949 . S
C677 C678 1.349 1_554 S
C677 C679 1.327 . S
C677 H700 0.950 1_455 S
C678 C677 1.349 1_556 S
C678 C690 1.349 . S
C679 C677 1.327 . S
C679 C695 1.429 . S
C679 H701 0.950 1_455 S
C680 H676 0.949 . S
C680 C688 1.574 . S
C680 C696 1.368 . S
H681 C689 0.950 . S
H682 C687 0.950 . S
H683 C688 0.949 . S
H684 C690 0.950 . S
H685 C691 0.950 . S
H686 C692 0.949 . S
C687 H682 0.950 . S
C687 C689 1.327 . S
C687 C693 1.429 1_655 S
C688 C680 1.574 . S
C688 H683 0.949 . S
C688 C694 1.368 . S
C689 C673 1.349 . S
C689 H681 0.950 . S
C689 C687 1.327 . S
C690 C678 1.349 . S
C690 H684 0.950 . S
C690 C691 1.327 1_556 S
C691 H685 0.950 . S
C691 C690 1.327 1_554 S
C691 C695 1.429 . S
C692 C675 1.574 . S
C692 H686 0.949 . S
C692 C696 1.368 1_655 S
C693 C674 1.429 . S
C693 C687 1.429 1_455 S
C693 C694 1.523 . S
C694 C675 1.368 1_455 S
C694 C688 1.368 . S
C694 C693 1.523 . S
C695 C679 1.429 . S
C695 C691 1.429 . S
C695 C696 1.523 . S
C696 C680 1.368 . S
C696 C692 1.368 1_455 S
C696 C695 1.523 . S
H697 C672 0.950 . S
H698 C674 0.950 . S
H699 C675 0.949 . S
H700 C677 0.950 1_655 S
H701 C679 0.950 1_655 S
C702 C703 1.349 1_545 S
C702 C704 1.327 . S
C702 H727 0.950 . S
C703 C702 1.349 1_565 S
C703 C719 1.349 . S
C704 C702 1.327 . S
C704 C723 1.429 . S
C704 H728 0.950 . S
C705 C722 1.574 . S
C705 C724 1.368 1_565 S
C705 H729 0.949 . S
H706 C710 0.949 . S
C707 C708 1.349 . S
C707 C709 1.327 1_556 S
C707 H730 0.950 1_545 S
C708 C707 1.349 . S
C708 C720 1.349 1_556 S
C709 C707 1.327 1_554 S
C709 C725 1.429 . S
C709 H731 0.950 1_545 S
C710 H706 0.949 . S
C710 C718 1.574 . S
C710 C726 1.368 . S
H711 C719 0.950 . S
H712 C717 0.950 . S
H713 C718 0.949 . S
H714 C720 0.950 . S
H715 C721 0.950 . S
H716 C722 0.949 . S
C717 H712 0.950 . S
C717 C719 1.327 . S
C717 C723 1.429 1_565 S
C718 C710 1.574 . S
C718 H713 0.949 . S
C718 C724 1.368 . S
C719 C703 1.349 . S
C719 H711 0.950 . S
C719 C717 1.327 . S
C720 C708 1.349 1_554 S
C720 H714 0.950 . S
C720 C721 1.327 . S
C721 H715 0.950 . S
C721 C720 1.327 . S
C721 C725 1.429 . S
C722 C705 1.574 . S
C722 H716 0.949 . S
C722 C726 1.368 1_565 S
C723 C704 1.429 . S
C723 C717 1.429 1_545 S
C723 C724 1.523 . S
C724 C705 1.368 1_545 S
C724 C718 1.368 . S
C724 C723 1.523 . S
C725 C709 1.429 . S
C725 C721 1.429 . S
C725 C726 1.523 . S
C726 C710 1.368 . S
C726 C722 1.368 1_545 S
C726 C725 1.523 . S
H727 C702 0.950 . S
H728 C704 0.950 . S
H729 C705 0.949 . S
H730 C707 0.950 1_565 S
H731 C709 0.950 1_565 S
C732 C733 1.349 . S
C732 C734 1.327 . S
C732 H757 0.950 . S
C733 C732 1.349 . S
C733 C749 1.349 . S
C734 C732 1.327 . S
C734 C753 1.429 . S
C734 H758 0.950 . S
C735 C752 1.574 . S
C735 C754 1.368 . S
C735 H759 0.949 . S
H736 C740 0.949 . S
C737 C738 1.349 . S
C737 C739 1.327 . S
C737 H760 0.950 . S
C738 C737 1.349 . S
C738 C750 1.349 1_556 S
C739 C737 1.327 . S
C739 C755 1.429 1_556 S
C739 H761 0.950 . S
C740 H736 0.949 . S
C740 C748 1.574 . S
C740 C756 1.368 . S
H741 C749 0.950 . S
H742 C747 0.950 . S
H743 C748 0.949 . S
H744 C750 0.950 . S
H745 C751 0.950 . S
H746 C752 0.949 1_556 S
C747 H742 0.950 . S
C747 C749 1.327 . S
C747 C753 1.429 . S
C748 C740 1.574 . S
C748 H743 0.949 . S
C748 C754 1.368 . S
C749 C733 1.349 . S
C749 H741 0.950 . S
C749 C747 1.327 . S
C750 C738 1.349 1_554 S
C750 H744 0.950 . S
C750 C751 1.327 . S
C751 H745 0.950 . S
C751 C750 1.327 . S
C751 C755 1.429 . S
C752 C735 1.574 . S
C752 H746 0.949 1_554 S
C752 C756 1.368 . S
C753 C734 1.429 . S
C753 C747 1.429 . S
C753 C754 1.523 . S
C754 C735 1.368 . S
C754 C748 1.368 . S
C754 C753 1.523 . S
C755 C739 1.429 1_554 S
C755 C751 1.429 . S
C755 C756 1.523 . S
C756 C740 1.368 . S
C756 C752 1.368 . S
C756 C755 1.523 . S
H757 C732 0.950 . S
H758 C734 0.950 . S
H759 C735 0.949 . S
H760 C737 0.950 . S
H761 C739 0.950 . S
C762 C763 1.349 . S
C762 C764 1.327 . S
C762 H787 0.950 . S
C763 C762 1.349 . S
C763 C779 1.349 . S
C764 C762 1.327 . S
C764 C783 1.429 . S
C764 H788 0.950 . S
C765 C782 1.574 . S
C765 C784 1.368 . S
C765 H789 0.949 . S
H766 C770 0.949 . S
C767 C768 1.349 . S
C767 C769 1.327 1_556 S
C767 H790 0.950 . S
C768 C767 1.349 . S
C768 C780 1.349 1_556 S
C769 C767 1.327 1_554 S
C769 C785 1.429 . S
C769 H791 0.950 . S
C770 H766 0.949 . S
C770 C778 1.574 . S
C770 C786 1.368 . S
H771 C779 0.950 . S
H772 C777 0.950 . S
H773 C778 0.949 . S
H774 C780 0.950 1_556 S
H775 C781 0.950 . S
H776 C782 0.949 . S
C777 H772 0.950 . S
C777 C779 1.327 . S
C777 C783 1.429 . S
C778 C770 1.574 . S
C778 H773 0.949 . S
C778 C784 1.368 . S
C779 C763 1.349 . S
C779 H771 0.950 . S
C779 C777 1.327 . S
C780 C768 1.349 1_554 S
C780 H774 0.950 1_554 S
C780 C781 1.327 . S
C781 H775 0.950 . S
C781 C780 1.327 . S
C781 C785 1.429 . S
C782 C765 1.574 . S
C782 H776 0.949 . S
C782 C786 1.368 . S
C783 C764 1.429 . S
C783 C777 1.429 . S
C783 C784 1.523 . S
C784 C765 1.368 . S
C784 C778 1.368 . S
C784 C783 1.523 . S
C785 C769 1.429 . S
C785 C781 1.429 . S
C785 C786 1.523 . S
C786 C770 1.368 . S
C786 C782 1.368 . S
C786 C785 1.523 . S
H787 C762 0.950 . S
H788 C764 0.950 . S
H789 C765 0.949 . S
H790 C767 0.950 . S
H791 C769 0.950 . S
C792 C793 1.349 1_655 S
C792 C794 1.327 . S
C792 H817 0.950 . S
C793 C792 1.349 1_455 S
C793 C809 1.349 . S
C794 C792 1.327 . S
C794 C813 1.429 1_655 S
C794 H818 0.950 . S
C795 C812 1.574 . S
C795 C814 1.368 . S
C795 H819 0.949 . S
H796 C800 0.949 . S
C797 C798 1.349 . S
C797 C799 1.327 . S
C797 H820 0.950 . S
C798 C797 1.349 . S
C798 C810 1.332 1_455 S
C799 C797 1.327 . S
C799 C815 1.429 . S
C799 H821 0.950 . S
C800 H796 0.949 . S
C800 C808 1.574 . S
C800 C816 1.368 1_655 S
H801 C809 0.950 . S
H802 C807 0.950 . S
H803 C808 0.949 . S
H804 C810 0.966 . S
H805 C811 0.950 . S
H806 C812 0.949 . S
C807 H802 0.950 . S
C807 C809 1.327 . S
C807 C813 1.429 . S
C808 C800 1.574 . S
C808 H803 0.949 . S
C808 C814 1.368 1_655 S
C809 C793 1.349 . S
C809 H801 0.950 . S
C809 C807 1.327 . S
C810 C798 1.332 1_655 S
C810 H804 0.966 . S
C810 C811 1.329 . S
C811 H805 0.950 . S
C811 C810 1.329 . S
C811 C815 1.429 1_655 S
C812 C795 1.574 . S
C812 H806 0.949 . S
C812 C816 1.368 . S
C813 C794 1.429 1_455 S
C813 C807 1.429 . S
C813 C814 1.523 . S
C814 C795 1.368 . S
C814 C808 1.368 1_455 S
C814 C813 1.523 . S
C815 C799 1.429 . S
C815 C811 1.429 1_455 S
C815 C816 1.523 . S
C816 C800 1.368 1_455 S
C816 C812 1.368 . S
C816 C815 1.523 . S
H817 C792 0.950 . S
H818 C794 0.950 . S
H819 C795 0.949 . S
H820 C797 0.950 . S
H821 C799 0.950 . S
C822 C823 1.349 1_565 S
C822 C824 1.327 . S
C822 H847 0.950 . S
C823 C822 1.349 1_545 S
C823 C839 1.349 . S
C824 C822 1.327 . S
C824 C843 1.429 1_565 S
C824 H848 0.950 . S
C825 C842 1.574 . S
C825 C844 1.368 . S
C825 H849 0.949 . S
H826 C830 0.949 . S
C827 C828 1.349 . S
C827 C829 1.327 . S
C827 H850 0.950 . S
C828 C827 1.349 . S
C828 C840 1.349 1_545 S
C829 C827 1.327 . S
C829 C845 1.429 . S
C829 H851 0.950 . S
C830 H826 0.949 . S
C830 C838 1.574 . S
C830 C846 1.368 1_565 S
H831 C839 0.950 . S
H832 C837 0.950 . S
H833 C838 0.949 . S
H834 C840 0.950 . S
H835 C841 0.950 . S
H836 C842 0.949 . S
C837 H832 0.950 . S
C837 C839 1.327 . S
C837 C843 1.429 . S
C838 C830 1.574 . S
C838 H833 0.949 . S
C838 C844 1.368 1_565 S
C839 C823 1.349 . S
C839 H831 0.950 . S
C839 C837 1.327 . S
C840 C828 1.349 1_565 S
C840 H834 0.950 . S
C840 C841 1.327 . S
C841 H835 0.950 . S
C841 C840 1.327 . S
C841 C845 1.429 1_565 S
C842 C825 1.574 . S
C842 H836 0.949 . S
C842 C846 1.368 . S
C843 C824 1.429 1_545 S
C843 C837 1.429 . S
C843 C844 1.523 . S
C844 C825 1.368 . S
C844 C838 1.368 1_545 S
C844 C843 1.523 . S
C845 C829 1.429 . S
C845 C841 1.429 1_545 S
C845 C846 1.523 . S
C846 C830 1.368 1_545 S
C846 C842 1.368 . S
C846 C845 1.523 . S
H847 C822 0.950 . S
H848 C824 0.950 . S
H849 C825 0.949 . S
H850 C827 0.950 . S
H851 C829 0.950 . S
C852 C853 1.349 . S
C852 C854 1.327 . S
C852 H877 0.950 . S
C853 C852 1.349 . S
C853 C869 1.349 . S
C854 C852 1.327 . S
C854 C873 1.429 . S
C854 H878 0.950 . S
C855 C872 1.574 . S
C855 C874 1.368 . S
C855 H879 0.949 . S
H856 C860 0.949 . S
C857 C858 1.349 . S
C857 C859 1.327 . S
C857 H880 0.950 . S
C858 C857 1.349 . S
C858 C870 1.349 . S
C859 C857 1.327 . S
C859 C875 1.429 . S
C859 H881 0.950 . S
C860 H856 0.949 . S
C860 C868 1.574 . S
C860 C876 1.368 . S
H861 C869 0.950 . S
H862 C867 0.950 . S
H863 C868 0.949 . S
H864 C870 0.950 . S
H865 C871 0.950 . S
H866 C872 0.949 . S
C867 H862 0.950 . S
C867 C869 1.327 . S
C867 C873 1.429 . S
C868 C860 1.574 . S
C868 H863 0.949 . S
C868 C874 1.368 . S
C869 C853 1.349 . S
C869 H861 0.950 . S
C869 C867 1.327 . S
C870 C858 1.349 . S
C870 H864 0.950 . S
C870 C871 1.327 . S
C871 H865 0.950 . S
C871 C870 1.327 . S
C871 C875 1.429 . S
C872 C855 1.574 . S
C872 H866 0.949 . S
C872 C876 1.368 . S
C873 C854 1.429 . S
C873 C867 1.429 . S
C873 C874 1.523 . S
C874 C855 1.368 . S
C874 C868 1.368 . S
C874 C873 1.523 . S
C875 C859 1.429 . S
C875 C871 1.429 . S
C875 C876 1.523 . S
C876 C860 1.368 . S
C876 C872 1.368 . S
C876 C875 1.523 . S
H877 C852 0.950 . S
H878 C854 0.950 . S
H879 C855 0.949 . S
H880 C857 0.950 . S
H881 C859 0.950 . S
C882 C883 1.349 . S
C882 C884 1.327 . S
C882 H907 0.950 . S
C883 C882 1.349 . S
C883 C899 1.349 . S
C884 C882 1.327 . S
C884 C903 1.429 . S
C884 H908 0.950 . S
C885 C902 1.574 . S
C885 C904 1.368 . S
C885 H909 0.949 . S
H886 C890 0.949 . S
C887 C888 1.349 . S
C887 C889 1.327 . S
C887 H910 0.950 . S
C888 C887 1.349 . S
C888 C900 1.349 . S
C889 C887 1.327 . S
C889 C905 1.429 . S
C889 H911 0.950 . S
C890 H886 0.949 . S
C890 C898 1.574 . S
C890 C906 1.368 . S
H891 C899 0.950 . S
H892 C897 0.950 . S
H893 C898 0.949 . S
H894 C900 0.950 . S
H895 C901 0.950 . S
H896 C902 0.949 . S
C897 H892 0.950 . S
C897 C899 1.327 . S
C897 C903 1.429 . S
C898 C890 1.574 . S
C898 H893 0.949 . S
C898 C904 1.368 . S
C899 C883 1.349 . S
C899 H891 0.950 . S
C899 C897 1.327 . S
C900 C888 1.349 . S
C900 H894 0.950 . S
C900 C901 1.327 . S
C901 H895 0.950 . S
C901 C900 1.327 . S
C901 C905 1.429 . S
C902 C885 1.574 . S
C902 H896 0.949 . S
C902 C906 1.368 . S
C903 C884 1.429 . S
C903 C897 1.429 . S
C903 C904 1.523 . S
C904 C885 1.368 . S
C904 C898 1.368 . S
C904 C903 1.523 . S
C905 C889 1.429 . S
C905 C901 1.429 . S
C905 C906 1.523 . S
C906 C890 1.368 . S
C906 C902 1.368 . S
C906 C905 1.523 . S
H907 C882 0.950 . S
H908 C884 0.950 . S
H909 C885 0.949 . S
H910 C887 0.950 . S
H911 C889 0.950 . S
C912 C913 1.349 . S
C912 C914 1.327 . S
C912 H937 0.950 . S
C913 C912 1.349 . S
C913 C929 1.349 1_655 S
C914 C912 1.327 . S
C914 C933 1.429 . S
C914 H938 0.950 . S
C915 C932 1.574 . S
C915 C934 1.368 1_455 S
C915 H939 0.949 . S
H916 C920 0.949 . S
C917 C918 1.349 1_455 S
C917 C919 1.327 . S
C917 H940 0.950 . S
C918 C917 1.349 1_655 S
C918 C930 1.349 . S
C919 C917 1.327 . S
C919 C935 1.429 1_455 S
C919 H941 0.950 . S
C920 H916 0.949 . S
C920 C928 1.574 . S
C920 C936 1.368 . S
H921 C929 0.950 . S
H922 C927 0.950 . S
H923 C928 0.949 . S
H924 C930 0.950 . S
H925 C931 0.950 . S
H926 C932 0.949 . S
C927 H922 0.950 . S
C927 C929 1.327 . S
C927 C933 1.429 1_455 S
C928 C920 1.574 . S
C928 H923 0.949 . S
C928 C934 1.368 . S
C929 C913 1.349 1_455 S
C929 H921 0.950 . S
C929 C927 1.327 . S
C930 C918 1.349 . S
C930 H924 0.950 . S
C930 C931 1.327 . S
C931 H925 0.950 . S
C931 C930 1.327 . S
C931 C935 1.429 . S
C932 C915 1.574 . S
C932 H926 0.949 . S
C932 C936 1.368 1_455 S
C933 C914 1.429 . S
C933 C927 1.429 1_655 S
C933 C934 1.523 . S
C934 C915 1.368 1_655 S
C934 C928 1.368 . S
C934 C933 1.523 . S
C935 C919 1.429 1_655 S
C935 C931 1.429 . S
C935 C936 1.523 . S
C936 C920 1.368 . S
C936 C932 1.368 1_655 S
C936 C935 1.523 . S
H937 C912 0.950 . S
H938 C914 0.950 . S
H939 C915 0.949 . S
H940 C917 0.950 . S
H941 C919 0.950 . S
C942 C943 1.349 1_545 S
C942 C944 1.329 . S
C942 H967 0.950 . S
C943 C942 1.349 1_565 S
C943 C959 1.349 . S
C944 C942 1.329 . S
C944 C963 1.422 1_545 S
C944 H968 0.957 . S
C945 C962 1.574 . S
C945 C964 1.368 . S
C945 H969 0.949 . S
H946 C950 0.943 1_545 S
C947 C948 1.349 . S
C947 C949 1.327 . S
C947 H970 0.950 . S
C948 C947 1.349 . S
C948 C960 1.349 . S
C949 C947 1.327 . S
C949 C965 1.429 . S
C949 H971 0.950 . S
C950 H946 0.943 1_565 S
C950 C958 1.575 . S
C950 C966 1.368 . S
H951 C959 0.950 . S
H952 C957 0.950 . S
H953 C958 0.944 1_545 S
H954 C960 0.950 . S
H955 C961 0.951 . S
H956 C962 0.949 . S
C957 H952 0.950 . S
C957 C959 1.327 . S
C957 C963 1.429 . S
C958 C950 1.575 . S
C958 H953 0.944 1_565 S
C958 C964 1.374 . S
C959 C943 1.349 . S
C959 H951 0.950 . S
C959 C957 1.327 . S
C960 C948 1.349 . S
C960 H954 0.950 . S
C960 C961 1.327 . S
C961 H955 0.951 . S
C961 C960 1.327 . S
C961 C965 1.429 . S
C962 C945 1.574 . S
C962 H956 0.949 . S
C962 C966 1.368 . S
C963 C944 1.422 1_565 S
C963 C957 1.429 . S
C963 C964 1.523 . S
C964 C945 1.368 . S
C964 C958 1.374 . S
C964 C963 1.523 . S
C965 C949 1.429 . S
C965 C961 1.429 . S
C965 C966 1.523 . S
C966 C950 1.368 . S
C966 C962 1.368 . S
C966 C965 1.523 . S
H967 C942 0.950 . S
H968 C944 0.957 . S
H969 C945 0.949 . S
H970 C947 0.950 . S
H971 C949 0.950 . S
C972 C973 1.349 . S
C972 C974 1.327 . S
C972 H997 0.950 . S
C973 C972 1.349 . S
C973 C989 1.349 . S
C974 C972 1.327 . S
C974 C993 1.429 . S
C974 H998 0.950 . S
C975 C992 1.574 . S
C975 C994 1.368 . S
C975 H999 0.949 . S
H976 C980 0.949 . S
C977 C978 1.349 . S
C977 C979 1.327 . S
C977 H1000 0.950 . S
C978 C977 1.349 . S
C978 C990 1.349 . S
C979 C977 1.327 . S
C979 C995 1.429 . S
C979 H1001 0.950 . S
C980 H976 0.949 . S
C980 C988 1.574 . S
C980 C996 1.368 . S
H981 C989 0.950 . S
H982 C987 0.950 . S
H983 C988 0.949 . S
H984 C990 0.950 . S
H985 C991 0.950 . S
H986 C992 0.949 . S
C987 H982 0.950 . S
C987 C989 1.327 . S
C987 C993 1.429 . S
C988 C980 1.574 . S
C988 H983 0.949 . S
C988 C994 1.368 . S
C989 C973 1.349 . S
C989 H981 0.950 . S
C989 C987 1.327 . S
C990 C978 1.349 . S
C990 H984 0.950 . S
C990 C991 1.327 . S
C991 H985 0.950 . S
C991 C990 1.327 . S
C991 C995 1.429 . S
C992 C975 1.574 . S
C992 H986 0.949 . S
C992 C996 1.368 . S
C993 C974 1.429 . S
C993 C987 1.429 . S
C993 C994 1.523 . S
C994 C975 1.368 . S
C994 C988 1.368 . S
C994 C993 1.523 . S
C995 C979 1.429 . S
C995 C991 1.429 . S
C995 C996 1.523 . S
C996 C980 1.368 . S
C996 C992 1.368 . S
C996 C995 1.523 . S
H997 C972 0.950 . S
H998 C974 0.950 . S
H999 C975 0.949 . S
H1000 C977 0.950 . S
H1001 C979 0.950 . S
C1002 C1003 1.349 . S
C1002 C1004 1.327 . S
C1002 H1027 0.950 . S
C1003 C1002 1.349 . S
C1003 C1019 1.349 . S
C1004 C1002 1.327 . S
C1004 C1023 1.429 . S
C1004 H1028 0.950 . S
C1005 C1022 1.574 . S
C1005 C1024 1.368 . S
C1005 H1029 0.949 . S
H1006 C1010 0.949 . S
C1007 C1008 1.349 . S
C1007 C1009 1.327 . S
C1007 H1030 0.950 . S
C1008 C1007 1.349 . S
C1008 C1020 1.349 . S
C1009 C1007 1.327 . S
C1009 C1025 1.429 . S
C1009 H1031 0.950 . S
C1010 H1006 0.949 . S
C1010 C1018 1.574 . S
C1010 C1026 1.368 . S
H1011 C1019 0.950 . S
H1012 C1017 0.950 . S
H1013 C1018 0.949 . S
H1014 C1020 0.950 . S
H1015 C1021 0.950 . S
H1016 C1022 0.949 . S
C1017 H1012 0.950 . S
C1017 C1019 1.327 . S
C1017 C1023 1.429 . S
C1018 C1010 1.574 . S
C1018 H1013 0.949 . S
C1018 C1024 1.368 . S
C1019 C1003 1.349 . S
C1019 H1011 0.950 . S
C1019 C1017 1.327 . S
C1020 C1008 1.349 . S
C1020 H1014 0.950 . S
C1020 C1021 1.327 . S
C1021 H1015 0.950 . S
C1021 C1020 1.327 . S
C1021 C1025 1.429 . S
C1022 C1005 1.574 . S
C1022 H1016 0.949 . S
C1022 C1026 1.368 . S
C1023 C1004 1.429 . S
C1023 C1017 1.429 . S
C1023 C1024 1.523 . S
C1024 C1005 1.368 . S
C1024 C1018 1.368 . S
C1024 C1023 1.523 . S
C1025 C1009 1.429 . S
C1025 C1021 1.429 . S
C1025 C1026 1.523 . S
C1026 C1010 1.368 . S
C1026 C1022 1.368 . S
C1026 C1025 1.523 . S
H1027 C1002 0.950 . S
H1028 C1004 0.950 . S
H1029 C1005 0.949 . S
H1030 C1007 0.950 . S
H1031 C1009 0.950 . S
C313 C125 1.793 1_545 S
C318 C161 1.831 1_545 S
C348 C201 1.831 . S
C343 C144 1.793 . S
C378 C241 1.831 . S
C373 C87 1.793 . S
C408 C281 1.831 . S
C403 C106 1.792 1_455 S
C438 C170 1.829 1_565 S
C433 C49 1.795 . S
C463 C68 1.795 . S
C468 C210 1.831 . S
C493 C11 1.795 . S
C498 C250 1.831 . S
C523 C30 1.806 . S
C528 C290 1.830 1_655 S
C558 C167 0.366 . S
C553 C97 0.466 . S
C588 C207 0.366 . S
C583 C116 0.466 . S
C618 C247 0.366 . S
C613 C135 0.466 . S
C643 C78 0.467 . S
C648 C287 0.366 . S
C673 C21 0.478 . S
C678 C158 0.366 . S
C708 C198 0.366 . S
C703 C40 0.465 . S
C738 C238 0.366 . S
C733 C59 0.465 . S
C763 C2 0.465 . S
C768 C278 0.366 . S
C793 C101 1.919 . S
C798 C171 2.092 . S
C823 C120 1.920 . S
C828 C211 2.093 . S
C858 C251 2.093 . S
C853 C139 1.920 . S
C888 C291 2.092 . S
C883 C82 1.919 . S
C913 C25 1.919 . S
C918 C162 2.093 . S
C948 C202 2.093 . S
C943 C44 1.919 . S
C978 C242 2.093 . S
C973 C63 1.919 . S
C1003 C6 1.919 . S
C1008 C282 2.093 . S
