# Generated by pormake.
# Topology rtl, (3,6)-cn, num edge types: 1
# Building blocks:
#     Node 0, Type 0, BuildingBlock: BELTOD_clean_linker_0, # of connection points: 3
#     Node 1, Type 0, BuildingBlock: BELTOD_clean_linker_0, # of connection points: 3
#     Node 2, Type 0, BuildingBlock: BELTOD_clean_linker_0, # of connection points: 3
#     Node 3, Type 0, BuildingBlock: BELTOD_clean_linker_0, # of connection points: 3
#     Node 4, Type 1, BuildingBlock: KUMBOL_clean_sbu_1, # of connection points: 6
#     Node 5, Type 1, BuildingBlock: KUMBOL_clean_sbu_1, # of connection points: 6
#     Edge 6, Type (0, 1), BuildingBlock: AJUNOK_clean_linker_0, # of connection points: 2
#     Edge 7, Type (0, 1), BuildingBlock: AJUNOK_clean_linker_0, # of connection points: 2
#     Edge 8, Type (0, 1), BuildingBlock: AJUNOK_clean_linker_0, # of connection points: 2
#     Edge 9, Type (0, 1), BuildingBlock: AJUNOK_clean_linker_0, # of connection points: 2
#     Edge 10, Type (0, 1), BuildingBlock: AJUNOK_clean_linker_0, # of connection points: 2
#     Edge 11, Type (0, 1), BuildingBlock: AJUNOK_clean_linker_0, # of connection points: 2
#     Edge 12, Type (0, 1), BuildingBlock: AJUNOK_clean_linker_0, # of connection points: 2
#     Edge 13, Type (0, 1), BuildingBlock: AJUNOK_clean_linker_0, # of connection points: 2
#     Edge 14, Type (0, 1), BuildingBlock: AJUNOK_clean_linker_0, # of connection points: 2
#     Edge 15, Type (0, 1), BuildingBlock: AJUNOK_clean_linker_0, # of connection points: 2
#     Edge 16, Type (0, 1), BuildingBlock: AJUNOK_clean_linker_0, # of connection points: 2
#     Edge 17, Type (0, 1), BuildingBlock: AJUNOK_clean_linker_0, # of connection points: 2
# Relax obj value: 0.020
# Max RMSD: 0.118
# Mean RMSD: 0.074
data_MOF--net-rtl--node1-KUMBOL_clean_sbu_1--node2-BELTOD_clean_linker_0--edge1-AJUNOK_clean_linker_0
_symmetry_space_group_name_H-M    P1
_symmetry_Int_Tables_number       1
_symmetry_cell_setting            triclinic
loop_
_symmetry_equiv_pos_as_xyz
'x, y, z'
_cell_length_a     28.673198
_cell_length_b     29.347491
_cell_length_c     25.904091
_cell_angle_alpha  76.112998
_cell_angle_beta   99.349487
_cell_angle_gamma 91.050937
loop_
_atom_site_label
_atom_site_type_symbol
_atom_site_fract_x
_atom_site_fract_y
_atom_site_fract_z
_atom_type_partial_charge
P0 P 0.25824 0.88932 0.02054 0.0
H1 H 0.27823 0.93081 0.11358 0.0
H2 H 0.23348 0.93503 0.18524 0.0
H3 H 0.12505 0.85015 0.12154 0.0
H4 H 0.16948 0.84681 0.04897 0.0
H5 H 0.34747 0.87032 0.98899 0.0
H6 H 0.39135 0.79785 0.99598 0.0
H7 H 0.28376 0.71744 0.07414 0.0
H8 H 0.24076 0.79013 0.06848 0.0
H9 H 0.20454 0.97306 0.95849 0.0
H10 H 0.22219 0.83099 0.9447 0.0
O11 O 0.29618 0.93338 0.0167 0.0
H12 H 0.15287 0.9916 0.87068 0.0
H13 H 0.17135 0.8496 0.85669 0.0
C14 C 0.22698 0.88878 0.07571 0.0
C15 C 0.24495 0.91291 0.11504 0.0
C16 C 0.21946 0.91529 0.15601 0.0
C17 C 0.17602 0.89276 0.15893 0.0
C18 C 0.15875 0.86736 0.12047 0.0
C19 C 0.18398 0.86557 0.07899 0.0
C20 C 0.29155 0.83574 0.02962 0.0
C21 C 0.33374 0.83716 0.00853 0.0
C22 C 0.35856 0.79572 0.01204 0.0
C23 C 0.34136 0.75201 0.03627 0.0
C24 C 0.29858 0.75066 0.05657 0.0
C25 C 0.2739 0.79221 0.05328 0.0
C26 C 0.21761 0.90089 0.95788 0.0
C27 C 0.19716 0.94584 0.93669 0.0
C28 C 0.16782 0.95641 0.88654 0.0
C29 C 0.15815 0.92201 0.85694 0.0
C30 C 0.17773 0.8766 0.87895 0.0
C31 C 0.2071 0.86607 0.92915 0.0
P32 P 0.72998 0.65591 0.66966 0.0
H33 H 0.775 0.64185 0.58215 0.0
H34 H 0.74639 0.61419 0.50109 0.0
H35 H 0.60438 0.61082 0.53722 0.0
H36 H 0.63321 0.63882 0.61834 0.0
H37 H 0.80254 0.70125 0.73131 0.0
H38 H 0.8462 0.77347 0.70596 0.0
H39 H 0.75121 0.81217 0.55429 0.0
H40 H 0.70799 0.73958 0.57956 0.0
H41 H 0.68252 0.57085 0.71178 0.0
H42 H 0.68877 0.71219 0.73315 0.0
O43 O 0.7764 0.61978 0.69715 0.0
H44 H 0.63349 0.54853 0.78223 0.0
H45 H 0.63994 0.68972 0.80475 0.0
C46 C 0.70647 0.64136 0.60684 0.0
C47 C 0.7376 0.63577 0.57225 0.0
C48 C 0.72113 0.62042 0.52566 0.0
C49 C 0.67311 0.61052 0.51276 0.0
C50 C 0.64159 0.61808 0.54635 0.0
C51 C 0.65809 0.63385 0.59282 0.0
C52 C 0.75265 0.7146 0.65693 0.0
C53 C 0.79049 0.72574 0.69308 0.0
C54 C 0.81542 0.76703 0.67855 0.0
C55 C 0.80284 0.79785 0.62757 0.0
C56 C 0.76246 0.78841 0.59324 0.0
C57 C 0.73752 0.7471 0.60785 0.0
C58 C 0.68895 0.64322 0.71693 0.0
C59 C 0.67275 0.59728 0.73119 0.0
C60 C 0.64495 0.58448 0.77164 0.0
C61 C 0.63286 0.61736 0.79898 0.0
C62 C 0.64818 0.66382 0.78383 0.0
C63 C 0.6762 0.67665 0.7431 0.0
P64 P 0.84031 0.24034 0.07521 0.0
H65 H 0.87482 0.27926 0.97425 0.0
H66 H 0.89463 0.24411 0.9043 0.0
H67 H 0.83984 0.1118 0.98217 0.0
H68 H 0.82105 0.14709 0.05324 0.0
H69 H 0.80129 0.28583 0.14606 0.0
H70 H 0.72505 0.32377 0.14016 0.0
H71 H 0.67232 0.27623 0.99644 0.0
H72 H 0.74979 0.23979 1.0015 0.0
H73 H 0.92921 0.23176 0.14982 0.0
H74 H 0.79754 0.15854 0.13908 0.0
O75 O 0.87393 0.28769 0.07179 0.0
H76 H 0.95791 0.17783 0.23593 0.0
H77 H 0.82734 0.10223 0.22439 0.0
C78 C 0.84727 0.2156 0.01955 0.0
C79 C 0.86648 0.24284 0.9761 0.0
C80 C 0.87735 0.22279 0.93568 0.0
C81 C 0.86852 0.1752 0.93748 0.0
C82 C 0.84723 0.14849 0.97987 0.0
C83 C 0.83647 0.16864 0.02047 0.0
C84 C 0.78118 0.26022 0.07419 0.0
C85 C 0.77313 0.28308 0.11363 0.0
C86 C 0.72944 0.30462 0.11029 0.0
C87 C 0.69274 0.30355 0.06744 0.0
C88 C 0.70023 0.2786 0.02923 0.0
C89 C 0.74432 0.25735 0.03238 0.0
C90 C 0.86119 0.19924 0.13818 0.0
C91 C 0.90662 0.20369 0.16571 0.0
C92 C 0.9233 0.17233 0.2147 0.0
C93 C 0.89535 0.13501 0.2365 0.0
C94 C 0.84976 0.13052 0.20861 0.0
C95 C 0.83279 0.1625 0.15982 0.0
P96 P 0.37434 0.26253 0.49404 0.0
H97 H 0.43068 0.25605 0.60082 0.0
H98 H 0.44089 0.30994 0.66064 0.0
H99 H 0.34019 0.40722 0.54742 0.0
H100 H 0.33062 0.35351 0.48701 0.0
H101 H 0.3421 0.18107 0.45378 0.0
H102 H 0.27077 0.1342 0.45931 0.0
H103 H 0.21306 0.2305 0.53626 0.0
H104 H 0.28471 0.27649 0.53184 0.0
H105 H 0.45212 0.32064 0.46274 0.0
H106 H 0.31889 0.28083 0.38356 0.0
O107 O 0.41757 0.2218 0.51537 0.0
H108 H 0.46808 0.36901 0.37679 0.0
H109 H 0.3348 0.32952 0.29702 0.0
C110 C 0.37983 0.30082 0.53954 0.0
C111 C 0.4107 0.28888 0.58881 0.0
C112 C 0.41663 0.31967 0.62289 0.0
C113 C 0.39121 0.36251 0.60855 0.0
C114 C 0.35985 0.37417 0.55948 0.0
C115 C 0.35444 0.34363 0.52506 0.0
C116 C 0.31895 0.23222 0.49247 0.0
C117 C 0.31385 0.19238 0.47129 0.0
C118 C 0.27295 0.16578 0.47419 0.0
C119 C 0.23617 0.17881 0.49799 0.0
C120 C 0.24092 0.21946 0.51797 0.0
C121 C 0.28189 0.24598 0.51514 0.0
C122 C 0.38429 0.29738 0.42957 0.0
C123 C 0.42622 0.32247 0.42681 0.0
C124 C 0.43519 0.35028 0.37779 0.0
C125 C 0.40235 0.35349 0.33046 0.0
C126 C 0.36059 0.3277 0.33303 0.0
C127 C 0.35148 0.29996 0.3824 0.0
C128 C 0.9405 0.14433 0.47927 0.0
C129 C 0.85741 0.13717 0.44493 0.0
C130 C 0.89934 0.11886 0.47978 0.0
C131 C 0.85812 0.18052 0.40753 0.0
C132 C 0.94081 0.18883 0.44334 0.0
C133 C 0.8998 0.2062 0.40657 0.0
N134 N 0.97923 0.12697 0.51618 0.0
C135 C 0.01754 0.15459 0.52288 0.0
C136 C 0.98177 0.21531 0.44682 0.0
C137 C 0.01997 0.19847 0.48746 0.0
Gd138 Gd 0.04216 0.94991 0.52872 0.0
Gd139 Gd 0.97207 0.05105 0.57074 0.0
N140 N 0.90005 0.07646 0.51532 0.0
C141 C 0.81598 0.1114 0.44904 0.0
C142 C 0.85954 0.05199 0.52115 0.0
C143 C 0.81697 0.06886 0.48774 0.0
H144 H 0.86036 0.01921 0.55124 0.0
H145 H 0.78501 0.04905 0.49177 0.0
H146 H 0.14546 1.00129 0.50167 0.0
H147 H 0.04607 0.14353 0.55611 0.0
H148 H 0.22731 1.00189 0.54824 0.0
H149 H 0.78302 0.12428 0.42303 0.0
H150 H 0.82646 0.19485 0.37981 0.0
H151 H 0.99524 0.85172 0.59039 0.0
H152 H 0.98349 0.24961 0.4199 0.0
H153 H 0.05097 0.21964 0.49219 0.0
H154 H 0.23444 0.87592 0.70686 0.0
H155 H 0.89956 0.24008 0.3783 0.0
H156 H 0.09748 0.7804 0.72402 0.0
H157 H 0.01767 0.78462 0.66926 0.0
N158 N 0.06159 0.88441 0.60112 0.0
C159 C 0.10632 0.88144 0.62874 0.0
C160 C 0.03024 0.84961 0.61395 0.0
C161 C 0.08796 0.80949 0.68925 0.0
C162 C 0.04285 0.81175 0.65845 0.0
C163 C 0.12047 0.84446 0.67437 0.0
H164 H 0.17794 0.81567 0.73884 0.0
N165 N 0.12331 0.9491 0.56497 0.0
C166 C 0.13789 0.91542 0.61071 0.0
C167 C 0.21688 0.9459 0.61605 0.0
C168 C 0.18487 0.91325 0.63792 0.0
C169 C 0.15547 0.97816 0.54103 0.0
C170 C 0.20233 0.97787 0.56678 0.0
O171 O 0.94524 0.03114 0.49159 0.0
O172 O 0.01429 0.01475 0.46607 0.0
O173 O 0.08158 0.92266 0.47683 0.0
O174 O 0.01003 0.90126 0.4831 0.0
O175 O 0.94412 0.97731 0.59256 0.0
O176 O 0.96385 0.93964 0.52959 0.0
O177 O 0.03207 0.94437 0.61512 0.0
O178 O 0.04092 0.02029 0.62014 0.0
O179 O 0.94054 0.0328 0.64362 0.0
O180 O 0.95855 0.1046 0.61192 0.0
O181 O 0.06573 0.02526 0.50145 0.0
O182 O 0.0507 0.06062 0.56789 0.0
C183 C 0.97023 0.02972 0.4537 0.0
C184 C 0.93788 0.94402 0.56583 0.0
C185 C 0.03256 0.91432 0.39704 0.0
C186 C 0.0543 0.91954 0.30847 0.0
C187 C 0.97832 0.95059 0.31559 0.0
C188 C 0.98899 0.93678 0.37165 0.0
C189 C 0.01086 0.94239 0.28411 0.0
C190 C 0.06497 0.90533 0.36508 0.0
C191 C 0.04495 0.90215 0.45651 0.0
C192 C 0.19867 0.87778 0.68501 0.0
C193 C 0.16655 0.84339 0.70314 0.0
H194 H 0.25329 0.94548 0.63572 0.0
C195 C 0.04731 0.97546 0.64229 0.0
C196 C 0.07456 0.05754 0.52933 0.0
C197 C 0.96558 0.07826 0.706 0.0
C198 C 0.95868 0.09725 0.79124 0.0
C199 C 0.03431 0.07124 0.77591 0.0
C200 C 0.01384 0.06782 0.72438 0.0
C201 C 0.00704 0.08598 0.80914 0.0
C202 C 0.93802 0.09257 0.73961 0.0
C203 C 0.94391 0.07492 0.65163 0.0
H204 H 0.94493 0.9683 0.29649 0.0
H205 H 0.96337 0.94445 0.39503 0.0
H206 H 1.00207 0.95371 0.24063 0.0
H207 H 0.09875 0.8883 0.38414 0.0
H208 H 0.07157 0.06303 0.78988 0.0
H209 H 0.03572 0.05737 0.69881 0.0
H210 H 0.02403 0.08948 0.84847 0.0
H211 H 0.90061 0.10003 0.72551 0.0
C212 C 0.62815 0.57619 0.05694 0.0
C213 C 0.61207 0.65944 0.04196 0.0
C214 C 0.59948 0.61239 0.06053 0.0
C215 C 0.65252 0.66933 0.01731 0.0
C216 C 0.66986 0.58576 0.03445 0.0
C217 C 0.68137 0.63256 0.01359 0.0
N218 N 0.61548 0.53135 0.07635 0.0
C219 C 0.64488 0.49444 0.07928 0.0
C220 C 0.69899 0.54796 0.03437 0.0
C221 C 0.68679 0.50213 0.05765 0.0
Gd222 Gd 0.43753 0.48852 0.99853 0.0
Gd223 Gd 0.54308 0.52113 0.10805 0.0
N224 N 0.56078 0.60152 0.08487 0.0
C225 C 0.58443 0.69505 0.05022 0.0
C226 C 0.53613 0.63592 0.09692 0.0
C227 C 0.54684 0.68316 0.07873 0.0
H228 H 0.50841 0.62718 0.12101 0.0
H229 H 0.52641 0.71034 0.08727 0.0
H230 H 0.4433 0.37232 0.02543 0.0
H231 H 0.63529 0.4591 0.0972 0.0
H232 H 0.39695 0.30432 0.06504 0.0
H233 H 0.59287 0.73166 0.03654 0.0
H234 H 0.66244 0.70528 1.00223 0.0
H235 H 0.3615 0.58197 0.96549 0.0
H236 H 0.73135 0.55382 0.01741 0.0
H237 H 0.7095 0.47275 0.0587 0.0
H238 H 0.26201 0.37506 0.10631 0.0
H239 H 0.71298 0.6407 0.99551 0.0
H240 H 0.24144 0.54204 0.04337 0.0
H241 H 0.28623 0.60293 0.98899 0.0
N242 N 0.36301 0.51155 0.01244 0.0
C243 C 0.33725 0.4769 0.03876 0.0
C244 C 0.34385 0.55572 0.99192 0.0
C245 C 0.27533 0.533 0.03469 0.0
C246 C 0.30053 0.56748 0.00407 0.0
C247 C 0.29287 0.4867 0.05097 0.0
H248 H 0.23269 0.45671 0.08711 0.0
N249 N 0.39573 0.42277 0.03577 0.0
C250 C 0.35364 0.43096 0.04977 0.0
C251 C 0.34262 0.34749 0.07929 0.0
C252 C 0.32635 0.39354 0.07301 0.0
C253 C 0.41066 0.3781 0.03901 0.0
C254 C 0.38458 0.33975 0.06136 0.0
O255 O 0.55522 0.52158 0.02367 0.0
O256 O 0.48496 0.54896 0.97075 0.0
O257 O 0.44927 0.45389 0.93655 0.0
O258 O 0.38781 0.49897 0.92347 0.0
O259 O 0.47274 0.56011 0.09277 0.0
O260 O 0.4436 0.56505 1.00312 0.0
O261 O 0.44726 0.44784 0.08653 0.0
O262 O 0.46995 0.50672 0.12714 0.0
O263 O 0.57533 0.5425 0.18118 0.0
O264 O 0.57232 0.46831 0.17925 0.0
O265 O 0.50616 0.44699 0.01309 0.0
O266 O 0.5404 0.44562 0.10104 0.0
C267 C 0.53133 0.5463 0.97845 0.0
C268 C 0.44725 0.5817 0.04654 0.0
C269 C 0.42147 0.49392 0.84757 0.0
C270 C 0.42267 0.48433 0.75696 0.0
C271 C 0.45459 0.55437 0.78287 0.0
C272 C 0.44295 0.53756 0.83431 0.0
C273 C 0.44484 0.52776 0.74439 0.0
C274 C 0.41109 0.46761 0.80874 0.0
C275 C 0.41273 0.4737 0.9026 0.0
C276 C 0.28327 0.40328 0.08777 0.0
C277 C 0.26663 0.4498 0.07692 0.0
H278 H 0.32258 0.31775 0.0968 0.0
C279 C 0.45098 0.46573 0.12882 0.0
C280 C 0.53609 0.42911 0.0575 0.0
C281 C 0.60923 0.48497 0.26362 0.0
C282 C 0.63463 0.50157 0.35185 0.0
C283 C 0.6493 0.42441 0.33798 0.0
C284 C 0.62764 0.43898 0.28436 0.0
C285 C 0.65269 0.45536 0.3716 0.0
C286 C 0.61302 0.51634 0.29753 0.0
C287 C 0.58501 0.4991 0.20723 0.0
H288 H 0.47157 0.58788 0.77295 0.0
H289 H 0.45115 0.5582 0.8639 0.0
H290 H 0.45439 0.5411 0.70482 0.0
H291 H 0.39522 0.43349 0.81929 0.0
H292 H 0.66345 0.38894 0.35357 0.0
H293 H 0.62526 0.41416 0.25916 0.0
H294 H 0.66985 0.44329 0.41308 0.0
H295 H 0.59829 0.55166 0.28217 0.0
C296 C 0.17852 0.13593 0.55461 0.0
C297 C 0.19394 0.14898 0.5043 0.0
C298 C 0.13974 0.10665 0.56218 0.0
C299 C 0.11479 0.0893 0.51973 0.0
H300 H 0.19714 0.14771 0.58875 0.0
H301 H 0.12972 0.09699 0.60188 0.0
S302 S 0.1387 0.11582 0.37917 0.0
N303 N 0.1797 0.14426 0.4107 0.0
N304 N 0.10697 0.08913 0.42495 0.0
C305 C 0.12936 0.10267 0.46903 0.0
C306 C 0.16886 0.13249 0.46132 0.0
C307 C 0.38442 0.70061 0.99399 0.0
C308 C 0.36788 0.70806 0.03969 0.0
C309 C 0.40985 0.65956 0.99637 0.0
C310 C 0.41985 0.62455 0.04458 0.0
H311 H 0.37735 0.72659 0.95595 0.0
H312 H 0.42206 0.65539 0.96029 0.0
S313 S 0.3849 0.62715 0.17575 0.0
N314 N 0.36408 0.67729 0.13476 0.0
N315 N 0.41083 0.5998 0.13899 0.0
C316 C 0.40347 0.63153 0.09053 0.0
C317 C 0.37765 0.67328 0.08812 0.0
C318 C 0.85015 0.86795 0.64213 0.0
C319 C 0.83413 0.83739 0.609 0.0
C320 C 0.88262 0.9031 0.62713 0.0
C321 C 0.90087 0.90876 0.57867 0.0
H322 H 0.83781 0.86436 0.68025 0.0
H323 H 0.89437 0.92519 0.65455 0.0
S324 S 0.86976 0.83781 0.47738 0.0
N325 N 0.83869 0.81514 0.5254 0.0
N326 N 0.89919 0.88124 0.49687 0.0
C327 C 0.88446 0.87883 0.54474 0.0
C328 C 0.85124 0.84322 0.55994 0.0
C329 C 0.62722 0.33007 0.10753 0.0
C330 C 0.64818 0.3309 0.06177 0.0
C331 C 0.58947 0.36054 0.10521 0.0
C332 C 0.57071 0.39258 0.05688 0.0
H333 H 0.64102 0.30659 0.14592 0.0
H334 H 0.57565 0.3598 0.14193 0.0
S335 S 0.61199 0.40851 0.92529 0.0
N336 N 0.64693 0.36654 0.96648 0.0
N337 N 0.57484 0.42249 0.96175 0.0
C338 C 0.58978 0.39238 0.01022 0.0
C339 C 0.62876 0.36185 0.01274 0.0
C340 C 0.13425 0.94371 0.20231 0.0
C341 C 0.14742 0.89841 0.19993 0.0
C342 C 0.10487 0.95021 0.23838 0.0
C343 C 0.08837 0.91167 0.27403 0.0
H344 H 0.14571 0.97432 0.17504 0.0
H345 H 0.09457 0.98563 0.23806 0.0
S346 S 0.11444 0.7861 0.2856 0.0
N347 N 0.14286 0.81451 0.23729 0.0
N348 N 0.08822 0.82682 0.30586 0.0
C349 C 0.10232 0.86628 0.27317 0.0
C350 C 0.13164 0.85962 0.23583 0.0
C351 C 0.62311 0.56148 0.88586 0.0
C352 C 0.60691 0.6017 0.84526 0.0
C353 C 0.59873 0.54437 0.92897 0.0
C354 C 0.55691 0.5665 0.93315 0.0
H355 H 0.65499 0.54295 0.88427 0.0
H356 H 0.61241 0.51299 0.95874 0.0
S357 S 0.5004 0.674 0.83876 0.0
N358 N 0.54694 0.66391 0.81262 0.0
N359 N 0.50131 0.63195 0.89427 0.0
C360 C 0.54067 0.60723 0.89345 0.0
C361 C 0.56568 0.62485 0.84948 0.0
C362 C 0.88435 0.09045 0.32928 0.0
C363 C 0.91333 0.10241 0.28934 0.0
C364 C 0.90243 0.06443 0.38138 0.0
C365 C 0.95048 0.05095 0.3963 0.0
H366 H 0.84781 0.10251 0.32088 0.0
H367 H 0.87866 0.05561 0.41044 0.0
S368 S 0.03817 0.06387 0.30281 0.0
N369 N 0.98988 0.09069 0.26515 0.0
N370 N 0.02472 0.04467 0.36377 0.0
C371 C 0.9789 0.05955 0.35549 0.0
C372 C 0.96016 0.08484 0.30203 0.0
C373 C 0.44347 0.41105 0.6602 0.0
C374 C 0.398 0.39509 0.64468 0.0
C375 C 0.45097 0.44103 0.69542 0.0
C376 C 0.41337 0.45532 0.71702 0.0
H377 H 0.47342 0.40027 0.64494 0.0
H378 H 0.48658 0.45221 0.70685 0.0
S379 S 0.28768 0.42361 0.68871 0.0
N380 N 0.31485 0.39623 0.65288 0.0
N381 N 0.32907 0.45205 0.71979 0.0
C382 C 0.36774 0.43984 0.70158 0.0
C383 C 0.36 0.40989 0.66515 0.0
C384 C 0.63348 0.54472 0.47837 0.0
C385 C 0.6573 0.58745 0.46796 0.0
C386 C 0.62452 0.5182 0.43963 0.0
C387 C 0.63867 0.53356 0.38885 0.0
H388 H 0.62373 0.53051 0.51768 0.0
H389 H 0.60756 0.4847 0.45007 0.0
S390 S 0.69788 0.64528 0.33965 0.0
N391 N 0.6915 0.64579 0.40176 0.0
N392 N 0.67482 0.59572 0.3289 0.0
C393 C 0.66021 0.57741 0.37683 0.0
C394 C 0.66961 0.60434 0.41645 0.0
C395 C 0.91325 0.11117 0.91669 0.0
C396 C 0.88564 0.15278 0.89807 0.0
C397 C 0.93535 0.09262 0.88153 0.0
C398 C 0.93068 0.11489 0.82633 0.0
H399 H 0.9195 0.0938 0.95919 0.0
H400 H 0.95711 0.06107 0.89797 0.0
S401 S 0.859 0.2227 0.75659 0.0
N402 N 0.85176 0.21371 0.82017 0.0
N403 N 0.89448 0.17979 0.75432 0.0
C404 C 0.90156 0.15548 0.80678 0.0
C405 C 0.87887 0.17424 0.84259 0.0
C406 C 0.41115 0.36437 0.23355 0.0
C407 C 0.41228 0.38339 0.27861 0.0
C408 C 0.42365 0.39121 0.18538 0.0
C409 C 0.43695 0.43835 0.17998 0.0
H410 H 0.40188 0.32804 0.23606 0.0
H411 H 0.42385 0.37443 0.15262 0.0
S412 S 0.44313 0.5052 0.28596 0.0
N413 N 0.42624 0.45242 0.31469 0.0
N414 N 0.44917 0.50311 0.22429 0.0
C415 C 0.43734 0.45797 0.2247 0.0
C416 C 0.42506 0.43048 0.27387 0.0
C417 C 0.14011 0.97448 0.76433 0.0
C418 C 0.12939 0.9343 0.80227 0.0
C419 C 0.11345 0.98731 0.71256 0.0
C420 C 0.07513 0.96041 0.6968 0.0
H421 H 0.16961 0.99601 0.77462 0.0
H422 H 0.12312 0.01839 0.68453 0.0
S423 S 0.03024 0.85414 0.78197 0.0
N424 N 0.07655 0.86881 0.82114 0.0
N425 N 0.02619 0.89327 0.72367 0.0
C426 C 0.06376 0.92038 0.73425 0.0
C427 C 0.09097 0.90722 0.78703 0.0
loop_
_geom_bond_atom_site_label_1
_geom_bond_atom_site_label_2
_geom_bond_distance
_geom_bond_site_symmetry_2
_ccdc_geom_bond_type
P0 O11 1.490 . S
P0 C14 1.812 . S
P0 C20 1.803 . S
P0 C26 1.819 1_554 S
H1 C15 0.941 . S
H2 C16 0.939 . S
H3 C18 0.940 . S
H4 C19 0.940 . S
H5 C21 0.939 1_556 S
H6 C22 0.942 . S
H7 C24 0.940 . S
H8 C25 0.939 . S
H9 C27 0.941 . S
H10 C31 0.939 . S
O11 P0 1.490 . S
H12 C28 0.939 1_545 S
H13 C30 0.940 . S
C14 P0 1.812 . S
C14 C15 1.389 . S
C14 C19 1.391 . S
C15 H1 0.941 . S
C15 C14 1.389 . S
C15 C16 1.397 . S
C16 H2 0.939 . S
C16 C15 1.397 . S
C16 C17 1.378 . S
C17 C16 1.378 . S
C17 C18 1.378 . S
C18 H3 0.940 . S
C18 C17 1.378 . S
C18 C19 1.396 . S
C19 H4 0.940 . S
C19 C14 1.391 . S
C19 C18 1.396 . S
C20 P0 1.803 . S
C20 C21 1.378 . S
C20 C25 1.400 . S
C21 H5 0.939 1_554 S
C21 C20 1.378 . S
C21 C22 1.361 . S
C22 H6 0.942 . S
C22 C21 1.361 . S
C22 C23 1.369 . S
C23 C22 1.369 . S
C23 C24 1.404 . S
C24 H7 0.940 . S
C24 C23 1.404 . S
C24 C25 1.389 . S
C25 H8 0.939 . S
C25 C20 1.400 . S
C25 C24 1.389 . S
C26 P0 1.819 1_556 S
C26 C27 1.391 . S
C26 C31 1.391 . S
C27 H9 0.941 . S
C27 C26 1.391 . S
C27 C28 1.396 . S
C28 H12 0.939 1_565 S
C28 C27 1.396 . S
C28 C29 1.397 . S
C29 C28 1.397 . S
C29 C30 1.385 . S
C30 H13 0.940 . S
C30 C29 1.385 . S
C30 C31 1.388 . S
C31 H10 0.939 . S
C31 C26 1.391 . S
C31 C30 1.388 . S
P32 O43 1.490 . S
P32 C46 1.812 . S
P32 C52 1.803 . S
P32 C58 1.819 . S
H33 C47 0.941 . S
H34 C48 0.939 . S
H35 C50 0.940 . S
H36 C51 0.940 . S
H37 C53 0.939 . S
H38 C54 0.942 . S
H39 C56 0.940 . S
H40 C57 0.939 . S
H41 C59 0.941 . S
H42 C63 0.939 . S
O43 P32 1.490 . S
H44 C60 0.939 . S
H45 C62 0.940 . S
C46 P32 1.812 . S
C46 C47 1.389 . S
C46 C51 1.391 . S
C47 H33 0.941 . S
C47 C46 1.389 . S
C47 C48 1.397 . S
C48 H34 0.939 . S
C48 C47 1.397 . S
C48 C49 1.378 . S
C49 C48 1.378 . S
C49 C50 1.378 . S
C50 H35 0.940 . S
C50 C49 1.378 . S
C50 C51 1.396 . S
C51 H36 0.940 . S
C51 C46 1.391 . S
C51 C50 1.396 . S
C52 P32 1.803 . S
C52 C53 1.378 . S
C52 C57 1.400 . S
C53 H37 0.939 . S
C53 C52 1.378 . S
C53 C54 1.361 . S
C54 H38 0.942 . S
C54 C53 1.361 . S
C54 C55 1.369 . S
C55 C54 1.369 . S
C55 C56 1.404 . S
C56 H39 0.940 . S
C56 C55 1.404 . S
C56 C57 1.389 . S
C57 H40 0.939 . S
C57 C52 1.400 . S
C57 C56 1.389 . S
C58 P32 1.819 . S
C58 C59 1.391 . S
C58 C63 1.391 . S
C59 H41 0.941 . S
C59 C58 1.391 . S
C59 C60 1.396 . S
C60 H44 0.939 . S
C60 C59 1.396 . S
C60 C61 1.397 . S
C61 C60 1.397 . S
C61 C62 1.385 . S
C62 H45 0.940 . S
C62 C61 1.385 . S
C62 C63 1.388 . S
C63 H42 0.939 . S
C63 C58 1.391 . S
C63 C62 1.388 . S
P64 O75 1.490 . S
P64 C78 1.812 . S
P64 C84 1.803 . S
P64 C90 1.819 . S
H65 C79 0.941 . S
H66 C80 0.939 . S
H67 C82 0.940 1_554 S
H68 C83 0.940 . S
H69 C85 0.939 . S
H70 C86 0.942 . S
H71 C88 0.940 . S
H72 C89 0.939 . S
H73 C91 0.941 . S
H74 C95 0.939 . S
O75 P64 1.490 . S
H76 C92 0.939 . S
H77 C94 0.940 . S
C78 P64 1.812 . S
C78 C79 1.389 1_554 S
C78 C83 1.391 . S
C79 H65 0.941 . S
C79 C78 1.389 1_556 S
C79 C80 1.397 . S
C80 H66 0.939 . S
C80 C79 1.397 . S
C80 C81 1.378 . S
C81 C80 1.378 . S
C81 C82 1.378 . S
C82 H67 0.940 1_556 S
C82 C81 1.378 . S
C82 C83 1.396 1_556 S
C83 H68 0.940 . S
C83 C78 1.391 . S
C83 C82 1.396 1_554 S
C84 P64 1.803 . S
C84 C85 1.378 . S
C84 C89 1.400 . S
C85 H69 0.939 . S
C85 C84 1.378 . S
C85 C86 1.361 . S
C86 H70 0.942 . S
C86 C85 1.361 . S
C86 C87 1.369 . S
C87 C86 1.369 . S
C87 C88 1.404 . S
C88 H71 0.940 . S
C88 C87 1.404 . S
C88 C89 1.389 . S
C89 H72 0.939 . S
C89 C84 1.400 . S
C89 C88 1.389 . S
C90 P64 1.819 . S
C90 C91 1.391 . S
C90 C95 1.391 . S
C91 H73 0.941 . S
C91 C90 1.391 . S
C91 C92 1.396 . S
C92 H76 0.939 . S
C92 C91 1.396 . S
C92 C93 1.397 . S
C93 C92 1.397 . S
C93 C94 1.385 . S
C94 H77 0.940 . S
C94 C93 1.385 . S
C94 C95 1.388 . S
C95 H74 0.939 . S
C95 C90 1.391 . S
C95 C94 1.388 . S
P96 O107 1.490 . S
P96 C110 1.812 . S
P96 C116 1.803 . S
P96 C122 1.819 . S
H97 C111 0.941 . S
H98 C112 0.939 . S
H99 C114 0.940 . S
H100 C115 0.940 . S
H101 C117 0.939 . S
H102 C118 0.942 . S
H103 C120 0.940 . S
H104 C121 0.939 . S
H105 C123 0.941 . S
H106 C127 0.939 . S
O107 P96 1.490 . S
H108 C124 0.939 . S
H109 C126 0.940 . S
C110 P96 1.812 . S
C110 C111 1.389 . S
C110 C115 1.391 . S
C111 H97 0.941 . S
C111 C110 1.389 . S
C111 C112 1.397 . S
C112 H98 0.939 . S
C112 C111 1.397 . S
C112 C113 1.378 . S
C113 C112 1.378 . S
C113 C114 1.378 . S
C114 H99 0.940 . S
C114 C113 1.378 . S
C114 C115 1.396 . S
C115 H100 0.940 . S
C115 C110 1.391 . S
C115 C114 1.396 . S
C116 P96 1.803 . S
C116 C117 1.378 . S
C116 C121 1.400 . S
C117 H101 0.939 . S
C117 C116 1.378 . S
C117 C118 1.361 . S
C118 H102 0.942 . S
C118 C117 1.361 . S
C118 C119 1.369 . S
C119 C118 1.369 . S
C119 C120 1.404 . S
C120 H103 0.940 . S
C120 C119 1.404 . S
C120 C121 1.389 . S
C121 H104 0.939 . S
C121 C116 1.400 . S
C121 C120 1.389 . S
C122 P96 1.819 . S
C122 C123 1.391 . S
C122 C127 1.391 . S
C123 H105 0.941 . S
C123 C122 1.391 . S
C123 C124 1.396 . S
C124 H108 0.939 . S
C124 C123 1.396 . S
C124 C125 1.397 . S
C125 C124 1.397 . S
C125 C126 1.385 . S
C126 H109 0.940 . S
C126 C125 1.385 . S
C126 C127 1.388 . S
C127 H106 0.939 . S
C127 C122 1.391 . S
C127 C126 1.388 . S
C128 C130 1.422 . S
C128 C132 1.415 . S
C128 N134 1.369 . S
C129 C130 1.421 . S
C129 C131 1.417 . S
C129 C141 1.422 . S
C130 C128 1.422 . S
C130 C129 1.421 . S
C130 N140 1.359 . S
C131 C129 1.417 . S
C131 C133 1.329 . S
C131 H150 0.930 . S
C132 C128 1.415 . S
C132 C133 1.437 . S
C132 C136 1.413 . S
C133 C131 1.329 . S
C133 C132 1.437 . S
C133 H155 0.929 . S
N134 C128 1.369 . S
N134 C135 1.353 . S
N134 Gd139 2.622 . S
C135 N134 1.353 . S
C135 C137 1.378 . S
C135 H147 0.913 1_655 S
C136 C132 1.413 . S
C136 C137 1.348 . S
C136 H152 0.931 . S
C137 C135 1.378 . S
C137 C136 1.348 . S
C137 H153 0.930 1_655 S
Gd138 N158 2.622 . S
Gd138 N165 2.570 . S
Gd138 O172 2.353 1_465 S
Gd138 O173 2.468 . S
Gd138 O174 2.427 . S
Gd138 O176 2.388 1_455 S
Gd138 O177 2.386 . S
Gd138 O181 2.307 1_565 S
Gd138 C191 2.805 . S
Gd139 N134 2.622 . S
Gd139 N140 2.570 . S
Gd139 O171 2.386 . S
Gd139 O175 2.307 1_545 S
Gd139 O178 2.353 1_655 S
Gd139 O179 2.468 . S
Gd139 O180 2.427 . S
Gd139 O182 2.388 1_655 S
Gd139 C203 2.805 . S
N140 C130 1.359 . S
N140 Gd139 2.570 . S
N140 C142 1.343 . S
C141 C129 1.422 . S
C141 C143 1.321 . S
C141 H149 0.931 . S
C142 N140 1.343 . S
C142 C143 1.390 . S
C142 H144 0.931 . S
C143 C141 1.321 . S
C143 C142 1.390 . S
C143 H145 0.930 . S
H144 C142 0.931 . S
H145 C143 0.930 . S
H146 C169 0.931 . S
H147 C135 0.913 1_455 S
H148 C170 0.930 . S
H149 C141 0.931 . S
H150 C131 0.930 . S
H151 C160 0.929 1_655 S
H152 C136 0.931 . S
H153 C137 0.930 1_455 S
H154 C192 0.930 . S
H155 C133 0.929 . S
H156 C161 0.931 . S
H157 C162 0.930 1_655 S
N158 Gd138 2.622 . S
N158 C159 1.369 . S
N158 C160 1.338 . S
C159 N158 1.369 . S
C159 C163 1.415 . S
C159 C166 1.422 . S
C160 H151 0.929 1_455 S
C160 N158 1.338 . S
C160 C162 1.378 . S
C161 H156 0.931 . S
C161 C162 1.348 . S
C161 C163 1.413 . S
C162 H157 0.930 1_455 S
C162 C160 1.378 . S
C162 C161 1.348 . S
C163 C159 1.415 . S
C163 C161 1.413 . S
C163 C193 1.437 . S
H164 C193 0.929 . S
N165 Gd138 2.570 . S
N165 C166 1.359 . S
N165 C169 1.343 . S
C166 C159 1.422 . S
C166 N165 1.359 . S
C166 C168 1.421 . S
C167 C168 1.422 . S
C167 C170 1.321 . S
C167 H194 0.931 . S
C168 C166 1.421 . S
C168 C167 1.422 . S
C168 C192 1.417 . S
C169 H146 0.931 . S
C169 N165 1.343 . S
C169 C170 1.390 . S
C170 H148 0.930 . S
C170 C167 1.321 . S
C170 C169 1.390 . S
O171 Gd139 2.386 . S
O171 C183 1.265 . S
O172 Gd138 2.353 1_645 S
O172 C183 1.242 . S
O173 Gd138 2.468 . S
O173 C191 1.263 . S
O174 Gd138 2.427 . S
O174 C191 1.252 . S
O175 Gd139 2.307 1_565 S
O175 C184 1.261 . S
O176 Gd138 2.388 1_655 S
O176 C184 1.252 . S
O177 Gd138 2.386 . S
O177 C195 1.265 . S
O178 Gd139 2.353 1_455 S
O178 C195 1.242 1_545 S
O179 Gd139 2.468 . S
O179 C203 1.263 . S
O180 Gd139 2.427 . S
O180 C203 1.252 . S
O181 Gd138 2.307 1_545 S
O181 C196 1.261 . S
O182 Gd139 2.388 1_455 S
O182 C196 1.252 . S
C183 O171 1.265 . S
C183 O172 1.242 . S
C184 O175 1.261 . S
C184 O176 1.252 . S
C185 C188 1.394 . S
C185 C190 1.370 . S
C185 C191 1.500 . S
C186 C189 1.383 . S
C186 C190 1.395 . S
C187 C188 1.396 . S
C187 C189 1.365 . S
C187 H204 0.929 . S
C188 C185 1.394 . S
C188 C187 1.396 . S
C188 H205 0.930 . S
C189 C186 1.383 . S
C189 C187 1.365 . S
C189 H206 0.931 . S
C190 C185 1.370 . S
C190 C186 1.395 . S
C190 H207 0.930 . S
C191 Gd138 2.805 . S
C191 O173 1.263 . S
C191 O174 1.252 . S
C191 C185 1.500 . S
C192 H154 0.930 . S
C192 C168 1.417 . S
C192 C193 1.329 . S
C193 C163 1.437 . S
C193 H164 0.929 . S
C193 C192 1.329 . S
H194 C167 0.931 . S
C195 O177 1.265 . S
C195 O178 1.242 1_565 S
C196 O181 1.261 . S
C196 O182 1.252 . S
C197 C200 1.394 . S
C197 C202 1.370 . S
C197 C203 1.500 . S
C198 C201 1.383 . S
C198 C202 1.395 . S
C199 C200 1.396 . S
C199 C201 1.365 . S
C199 H208 0.929 . S
C200 C197 1.394 . S
C200 C199 1.396 . S
C200 H209 0.930 . S
C201 C198 1.383 . S
C201 C199 1.365 . S
C201 H210 0.931 . S
C202 C197 1.370 . S
C202 C198 1.395 . S
C202 H211 0.930 . S
C203 Gd139 2.805 . S
C203 O179 1.263 . S
C203 O180 1.252 . S
C203 C197 1.500 . S
H204 C187 0.929 . S
H205 C188 0.930 . S
H206 C189 0.931 . S
H207 C190 0.930 . S
H208 C199 0.929 . S
H209 C200 0.930 . S
H210 C201 0.931 . S
H211 C202 0.930 . S
C212 C214 1.422 . S
C212 C216 1.415 . S
C212 N218 1.369 . S
C213 C214 1.421 . S
C213 C215 1.417 . S
C213 C225 1.422 . S
C214 C212 1.422 . S
C214 C213 1.421 . S
C214 N224 1.359 . S
C215 C213 1.417 . S
C215 C217 1.329 . S
C215 H234 0.930 . S
C216 C212 1.415 . S
C216 C217 1.437 . S
C216 C220 1.413 . S
C217 C215 1.329 . S
C217 C216 1.437 . S
C217 H239 0.929 . S
N218 C212 1.369 . S
N218 C219 1.338 . S
N218 Gd223 2.622 . S
C219 N218 1.338 . S
C219 C221 1.378 . S
C219 H231 0.929 . S
C220 C216 1.413 . S
C220 C221 1.348 . S
C220 H236 0.931 . S
C221 C219 1.378 . S
C221 C220 1.348 . S
C221 H237 0.930 . S
Gd222 N242 2.618 1_556 S
Gd222 N249 2.568 1_556 S
Gd222 O256 2.360 . S
Gd222 O257 2.480 . S
Gd222 O258 2.439 . S
Gd222 O260 2.383 1_556 S
Gd222 O261 2.372 1_556 S
Gd222 O265 2.304 1_556 S
Gd222 C275 2.819 . S
Gd223 N218 2.622 . S
Gd223 N224 2.570 . S
Gd223 O255 2.386 . S
Gd223 O259 2.307 . S
Gd223 O262 2.353 . S
Gd223 O263 2.468 . S
Gd223 O264 2.427 . S
Gd223 O266 2.388 . S
Gd223 C287 2.805 . S
N224 C214 1.359 . S
N224 Gd223 2.570 . S
N224 C226 1.343 . S
C225 C213 1.422 . S
C225 C227 1.321 . S
C225 H233 0.931 . S
C226 N224 1.343 . S
C226 C227 1.390 . S
C226 H228 0.931 . S
C227 C225 1.321 . S
C227 C226 1.390 . S
C227 H229 0.930 . S
H228 C226 0.931 . S
H229 C227 0.930 . S
H230 C253 0.931 . S
H231 C219 0.929 . S
H232 C254 0.930 . S
H233 C225 0.931 . S
H234 C215 0.930 . S
H235 C244 0.929 . S
H236 C220 0.931 . S
H237 C221 0.930 . S
H238 C276 0.930 . S
H239 C217 0.929 . S
H240 C245 0.931 . S
H241 C246 0.930 . S
N242 Gd222 2.618 1_554 S
N242 C243 1.369 . S
N242 C244 1.338 1_554 S
C243 N242 1.369 . S
C243 C247 1.415 . S
C243 C250 1.422 . S
C244 H235 0.929 . S
C244 N242 1.338 1_556 S
C244 C246 1.378 . S
C245 H240 0.931 . S
C245 C246 1.348 1_554 S
C245 C247 1.413 . S
C246 H241 0.930 . S
C246 C244 1.378 . S
C246 C245 1.348 1_556 S
C247 C243 1.415 . S
C247 C245 1.413 . S
C247 C277 1.437 . S
H248 C277 0.929 . S
N249 Gd222 2.568 1_554 S
N249 C250 1.359 . S
N249 C253 1.343 . S
C250 C243 1.422 . S
C250 N249 1.359 . S
C250 C252 1.421 . S
C251 C252 1.422 . S
C251 C254 1.321 . S
C251 H278 0.931 . S
C252 C250 1.421 . S
C252 C251 1.422 . S
C252 C276 1.417 . S
C253 H230 0.931 . S
C253 N249 1.343 . S
C253 C254 1.390 . S
C254 H232 0.930 . S
C254 C251 1.321 . S
C254 C253 1.390 . S
O255 Gd223 2.386 . S
O255 C267 1.265 1_554 S
O256 Gd222 2.360 . S
O256 C267 1.242 . S
O257 Gd222 2.480 . S
O257 C275 1.263 . S
O258 Gd222 2.439 . S
O258 C275 1.252 . S
O259 Gd223 2.307 . S
O259 C268 1.261 . S
O260 Gd222 2.383 1_554 S
O260 C268 1.252 . S
O261 Gd222 2.372 1_554 S
O261 C279 1.265 . S
O262 Gd223 2.353 . S
O262 C279 1.242 . S
O263 Gd223 2.468 . S
O263 C287 1.263 . S
O264 Gd223 2.427 . S
O264 C287 1.252 . S
O265 Gd222 2.304 1_554 S
O265 C280 1.261 . S
O266 Gd223 2.388 . S
O266 C280 1.252 . S
C267 O255 1.265 1_556 S
C267 O256 1.242 . S
C268 O259 1.261 . S
C268 O260 1.252 . S
C269 C272 1.394 . S
C269 C274 1.370 . S
C269 C275 1.500 . S
C270 C273 1.383 . S
C270 C274 1.395 . S
C271 C272 1.396 . S
C271 C273 1.365 . S
C271 H288 0.929 . S
C272 C269 1.394 . S
C272 C271 1.396 . S
C272 H289 0.930 . S
C273 C270 1.383 . S
C273 C271 1.365 . S
C273 H290 0.931 . S
C274 C269 1.370 . S
C274 C270 1.395 . S
C274 H291 0.930 . S
C275 Gd222 2.819 . S
C275 O257 1.263 . S
C275 O258 1.252 . S
C275 C269 1.500 . S
C276 H238 0.930 . S
C276 C252 1.417 . S
C276 C277 1.329 . S
C277 C247 1.437 . S
C277 H248 0.929 . S
C277 C276 1.329 . S
H278 C251 0.931 . S
C279 O261 1.265 . S
C279 O262 1.242 . S
C280 O265 1.261 . S
C280 O266 1.252 . S
C281 C284 1.394 . S
C281 C286 1.370 . S
C281 C287 1.500 . S
C282 C285 1.383 . S
C282 C286 1.395 . S
C283 C284 1.396 . S
C283 C285 1.365 . S
C283 H292 0.929 . S
C284 C281 1.394 . S
C284 C283 1.396 . S
C284 H293 0.930 . S
C285 C282 1.383 . S
C285 C283 1.365 . S
C285 H294 0.931 . S
C286 C281 1.370 . S
C286 C282 1.395 . S
C286 H295 0.930 . S
C287 Gd223 2.805 . S
C287 O263 1.263 . S
C287 O264 1.252 . S
C287 C281 1.500 . S
H288 C271 0.929 . S
H289 C272 0.930 . S
H290 C273 0.931 . S
H291 C274 0.930 . S
H292 C283 0.929 . S
H293 C284 0.930 . S
H294 C285 0.931 . S
H295 C286 0.930 . S
C296 C297 1.369 . S
C296 C298 1.419 . S
C296 H300 0.930 . S
C297 C296 1.369 . S
C297 C306 1.429 . S
C298 C296 1.419 . S
C298 C299 1.363 . S
C298 H301 0.929 . S
C299 C298 1.363 . S
C299 C305 1.428 . S
H300 C296 0.930 . S
H301 C298 0.929 . S
S302 N303 1.613 . S
S302 N304 1.610 . S
N303 S302 1.613 . S
N303 C306 1.350 . S
N304 S302 1.610 . S
N304 C305 1.351 . S
C305 C299 1.428 . S
C305 N304 1.351 . S
C305 C306 1.434 . S
C306 C297 1.429 . S
C306 N303 1.350 . S
C306 C305 1.434 . S
C307 C308 1.369 . S
C307 C309 1.419 . S
C307 H311 0.930 1_554 S
C308 C307 1.369 . S
C308 C317 1.429 . S
C309 C307 1.419 . S
C309 C310 1.363 . S
C309 H312 0.929 1_554 S
C310 C309 1.363 . S
C310 C316 1.428 . S
H311 C307 0.930 1_556 S
H312 C309 0.929 1_556 S
S313 N314 1.613 . S
S313 N315 1.610 . S
N314 S313 1.613 . S
N314 C317 1.350 . S
N315 S313 1.610 . S
N315 C316 1.351 . S
C316 C310 1.428 . S
C316 N315 1.351 . S
C316 C317 1.434 . S
C317 C308 1.429 . S
C317 N314 1.350 . S
C317 C316 1.434 . S
C318 C319 1.369 . S
C318 C320 1.419 . S
C318 H322 0.930 . S
C319 C318 1.369 . S
C319 C328 1.429 . S
C320 C318 1.419 . S
C320 C321 1.363 . S
C320 H323 0.929 . S
C321 C320 1.363 . S
C321 C327 1.428 . S
H322 C318 0.930 . S
H323 C320 0.929 . S
S324 N325 1.613 . S
S324 N326 1.610 . S
N325 S324 1.613 . S
N325 C328 1.350 . S
N326 S324 1.610 . S
N326 C327 1.351 . S
C327 C321 1.428 . S
C327 N326 1.351 . S
C327 C328 1.434 . S
C328 C319 1.429 . S
C328 N325 1.350 . S
C328 C327 1.434 . S
C329 C330 1.369 . S
C329 C331 1.419 . S
C329 H333 0.930 . S
C330 C329 1.369 . S
C330 C339 1.429 . S
C331 C329 1.419 . S
C331 C332 1.363 . S
C331 H334 0.929 . S
C332 C331 1.363 . S
C332 C338 1.428 . S
H333 C329 0.930 . S
H334 C331 0.929 . S
S335 N336 1.613 . S
S335 N337 1.610 . S
N336 S335 1.613 . S
N336 C339 1.350 1_556 S
N337 S335 1.610 . S
N337 C338 1.351 1_556 S
C338 C332 1.428 . S
C338 N337 1.351 1_554 S
C338 C339 1.434 . S
C339 C330 1.429 . S
C339 N336 1.350 1_554 S
C339 C338 1.434 . S
C340 C341 1.369 . S
C340 C342 1.419 . S
C340 H344 0.930 . S
C341 C340 1.369 . S
C341 C350 1.429 . S
C342 C340 1.419 . S
C342 C343 1.363 . S
C342 H345 0.929 1_565 S
C343 C342 1.363 . S
C343 C349 1.428 . S
H344 C340 0.930 . S
H345 C342 0.929 1_545 S
S346 N347 1.613 . S
S346 N348 1.610 . S
N347 S346 1.613 . S
N347 C350 1.350 . S
N348 S346 1.610 . S
N348 C349 1.351 . S
C349 C343 1.428 . S
C349 N348 1.351 . S
C349 C350 1.434 . S
C350 C341 1.429 . S
C350 N347 1.350 . S
C350 C349 1.434 . S
C351 C352 1.369 . S
C351 C353 1.419 . S
C351 H355 0.930 . S
C352 C351 1.369 . S
C352 C361 1.429 . S
C353 C351 1.419 . S
C353 C354 1.363 . S
C353 H356 0.929 . S
C354 C353 1.363 . S
C354 C360 1.428 . S
H355 C351 0.930 . S
H356 C353 0.929 . S
S357 N358 1.613 . S
S357 N359 1.610 . S
N358 S357 1.613 . S
N358 C361 1.350 . S
N359 S357 1.610 . S
N359 C360 1.351 . S
C360 C354 1.428 . S
C360 N359 1.351 . S
C360 C361 1.434 . S
C361 C352 1.429 . S
C361 N358 1.350 . S
C361 C360 1.434 . S
C362 C363 1.369 . S
C362 C364 1.419 . S
C362 H366 0.930 . S
C363 C362 1.369 . S
C363 C372 1.429 . S
C364 C362 1.419 . S
C364 C365 1.363 . S
C364 H367 0.929 . S
C365 C364 1.363 . S
C365 C371 1.428 . S
H366 C362 0.930 . S
H367 C364 0.929 . S
S368 N369 1.613 . S
S368 N370 1.610 . S
N369 S368 1.613 . S
N369 C372 1.350 . S
N370 S368 1.610 . S
N370 C371 1.351 . S
C371 C365 1.428 . S
C371 N370 1.351 . S
C371 C372 1.434 . S
C372 C363 1.429 . S
C372 N369 1.350 . S
C372 C371 1.434 . S
C373 C374 1.369 . S
C373 C375 1.419 . S
C373 H377 0.930 . S
C374 C373 1.369 . S
C374 C383 1.429 . S
C375 C373 1.419 . S
C375 C376 1.363 . S
C375 H378 0.929 . S
C376 C375 1.363 . S
C376 C382 1.428 . S
H377 C373 0.930 . S
H378 C375 0.929 . S
S379 N380 1.613 . S
S379 N381 1.610 . S
N380 S379 1.613 . S
N380 C383 1.350 . S
N381 S379 1.610 . S
N381 C382 1.351 . S
C382 C376 1.428 . S
C382 N381 1.351 . S
C382 C383 1.434 . S
C383 C374 1.429 . S
C383 N380 1.350 . S
C383 C382 1.434 . S
C384 C385 1.369 . S
C384 C386 1.419 . S
C384 H388 0.930 . S
C385 C384 1.369 . S
C385 C394 1.429 . S
C386 C384 1.419 . S
C386 C387 1.363 . S
C386 H389 0.929 . S
C387 C386 1.363 . S
C387 C393 1.428 . S
H388 C384 0.930 . S
H389 C386 0.929 . S
S390 N391 1.613 . S
S390 N392 1.610 . S
N391 S390 1.613 . S
N391 C394 1.350 . S
N392 S390 1.610 . S
N392 C393 1.351 . S
C393 C387 1.428 . S
C393 N392 1.351 . S
C393 C394 1.434 . S
C394 C385 1.429 . S
C394 N391 1.350 . S
C394 C393 1.434 . S
C395 C396 1.369 . S
C395 C397 1.419 . S
C395 H399 0.930 . S
C396 C395 1.369 . S
C396 C405 1.429 . S
C397 C395 1.419 . S
C397 C398 1.363 . S
C397 H400 0.929 1_545 S
C398 C397 1.363 . S
C398 C404 1.428 . S
H399 C395 0.930 . S
H400 C397 0.929 1_565 S
S401 N402 1.613 . S
S401 N403 1.610 . S
N402 S401 1.613 . S
N402 C405 1.350 . S
N403 S401 1.610 . S
N403 C404 1.351 . S
C404 C398 1.428 . S
C404 N403 1.351 . S
C404 C405 1.434 . S
C405 C396 1.429 . S
C405 N402 1.350 . S
C405 C404 1.434 . S
C406 C407 1.369 . S
C406 C408 1.419 . S
C406 H410 0.930 . S
C407 C406 1.369 . S
C407 C416 1.429 . S
C408 C406 1.419 . S
C408 C409 1.363 . S
C408 H411 0.929 . S
C409 C408 1.363 . S
C409 C415 1.428 . S
H410 C406 0.930 . S
H411 C408 0.929 . S
S412 N413 1.613 . S
S412 N414 1.610 . S
N413 S412 1.613 . S
N413 C416 1.350 . S
N414 S412 1.610 . S
N414 C415 1.351 . S
C415 C409 1.428 . S
C415 N414 1.351 . S
C415 C416 1.434 . S
C416 C407 1.429 . S
C416 N413 1.350 . S
C416 C415 1.434 . S
C417 C418 1.369 . S
C417 C419 1.419 . S
C417 H421 0.930 . S
C418 C417 1.369 . S
C418 C427 1.429 . S
C419 C417 1.419 . S
C419 C420 1.363 . S
C419 H422 0.929 1_565 S
C420 C419 1.363 . S
C420 C426 1.428 . S
H421 C417 0.930 . S
H422 C419 0.929 1_545 S
S423 N424 1.613 . S
S423 N425 1.610 . S
N424 S423 1.613 . S
N424 C427 1.350 . S
N425 S423 1.610 . S
N425 C426 1.351 . S
C426 C420 1.428 . S
C426 N425 1.351 . S
C426 C427 1.434 . S
C427 C418 1.429 . S
C427 N424 1.350 . S
C427 C426 1.434 . S
C299 C196 1.651 . S
C297 C119 1.634 . S
C308 C23 1.636 . S
C310 C268 1.616 . S
C319 C55 1.563 . S
C321 C184 1.648 . S
C330 C87 1.524 . S
C332 C280 1.618 . S
C343 C186 1.388 . S
C341 C17 1.539 . S
C354 C267 1.616 . S
C352 C61 1.540 . S
C363 C93 1.496 . S
C365 C183 1.630 . S
C374 C113 1.519 . S
C376 C270 1.392 . S
C387 C282 1.402 . S
C385 C49 1.489 . S
C398 C198 1.391 . S
C396 C81 1.488 . S
C409 C279 1.616 . S
C407 C125 1.607 . S
C418 C29 1.630 . S
C420 C195 1.631 . S
