# Generated by pormake.
# Topology tsx, (6,3)-cn, num edge types: 1
# Building blocks:
#     Node 0, Type 0, BuildingBlock: JUFBIX_clean_sbu_0, # of connection points: 6
#     Node 1, Type 0, BuildingBlock: JUFBIX_clean_sbu_0, # of connection points: 6
#     Node 2, Type 1, BuildingBlock: BETDAH_clean_linker_0, # of connection points: 3
#     Node 3, Type 1, BuildingBlock: BETDAH_clean_linker_0, # of connection points: 3
#     Node 4, Type 1, BuildingBlock: BETDAH_clean_linker_0, # of connection points: 3
#     Node 5, Type 1, BuildingBlock: BETDAH_clean_linker_0, # of connection points: 3
#     Edge 6, Type (0, 1), BuildingBlock: XIVTED_clean_linker_0, # of connection points: 2
#     Edge 7, Type (0, 1), BuildingBlock: XIVTED_clean_linker_0, # of connection points: 2
#     Edge 8, Type (0, 1), BuildingBlock: XIVTED_clean_linker_0, # of connection points: 2
#     Edge 9, Type (0, 1), BuildingBlock: XIVTED_clean_linker_0, # of connection points: 2
#     Edge 10, Type (0, 1), BuildingBlock: XIVTED_clean_linker_0, # of connection points: 2
#     Edge 11, Type (0, 1), BuildingBlock: XIVTED_clean_linker_0, # of connection points: 2
#     Edge 12, Type (0, 1), BuildingBlock: XIVTED_clean_linker_0, # of connection points: 2
#     Edge 13, Type (0, 1), BuildingBlock: XIVTED_clean_linker_0, # of connection points: 2
#     Edge 14, Type (0, 1), BuildingBlock: XIVTED_clean_linker_0, # of connection points: 2
#     Edge 15, Type (0, 1), BuildingBlock: XIVTED_clean_linker_0, # of connection points: 2
#     Edge 16, Type (0, 1), BuildingBlock: XIVTED_clean_linker_0, # of connection points: 2
#     Edge 17, Type (0, 1), BuildingBlock: XIVTED_clean_linker_0, # of connection points: 2
# Relax obj value: 0.101
# Max RMSD: 0.126
# Mean RMSD: 0.114
data_MOF--net-tsx--node1-JUFBIX_clean_sbu_0--node2-BETDAH_clean_linker_0--edge1-XIVTED_clean_linker_0
_symmetry_space_group_name_H-M    P1
_symmetry_Int_Tables_number       1
_symmetry_cell_setting            triclinic
loop_
_symmetry_equiv_pos_as_xyz
'x, y, z'
_cell_length_a     20.490704
_cell_length_b     24.245405
_cell_length_c     33.020326
_cell_angle_alpha  92.737365
_cell_angle_beta   95.62786
_cell_angle_gamma 99.16236
loop_
_atom_site_label
_atom_site_type_symbol
_atom_site_fract_x
_atom_site_fract_y
_atom_site_fract_z
_atom_type_partial_charge
Co0 Co 0.10051 0.99697 -0.00555 0.0
C1 C 0.02971 0.02066 0.92154 0.0
Co2 Co 0.01771 0.04352 0.0015 0.0
C3 C 0.1954 0.91657 -0.00383 0.0
C4 C 0.21583 0.98417 0.95742 0.0
N5 N 0.17282 0.96307 0.98343 0.0
N6 N 0.25134 0.90895 0.97943 0.0
C7 C 0.26392 0.95141 0.95508 0.0
H8 H 0.17178 0.88929 0.01741 0.0
H9 H 0.21215 0.02104 0.9407 0.0
C10 C 0.0889 0.0222 0.0744 0.0
N11 N 0.94713 0.07864 0.01146 0.0
C12 C 0.9277 0.1225 -0.00706 0.0
C13 C 0.9056 0.06746 0.0403 0.0
N14 N 0.87579 0.13967 0.00922 0.0
C15 C 0.86178 0.1049 0.03906 0.0
C16 C 0.98343 0.92639 0.00042 0.0
O17 O 0.12298 0.99655 0.0519 0.0
O18 O 0.04219 0.04498 0.05801 0.0
O19 O 0.96295 0.97307 0.00334 0.0
O20 O 0.04416 0.92584 -0.00481 0.0
O21 O 0.9939 0.04253 0.94485 0.0
H22 H 0.90784 0.0348 0.06135 0.0
H23 H 0.95165 0.14134 0.96804 0.0
O24 O 0.07735 0.99812 0.93711 0.0
O25 O 0.15572 0.06861 -0.00551 0.0
O26 O 0.07251 0.11389 -0.00024 0.0
C27 C 0.1338 0.11468 -0.00347 0.0
H28 H 0.30443 0.95767 0.93617 0.0
H29 H 0.82375 0.10694 0.05933 0.0
Co30 Co 0.52902 0.46543 0.4931 0.0
C31 C 0.4749 0.49995 0.41878 0.0
Co32 Co 0.44571 0.51337 0.49649 0.0
C33 C 0.6159 0.37898 0.49033 0.0
C34 C 0.65763 0.45773 0.46945 0.0
N35 N 0.60372 0.43179 0.48553 0.0
N36 N 0.67554 0.37167 0.47827 0.0
C37 C 0.7016 0.42136 0.46526 0.0
H38 H 0.58136 0.34638 0.50176 0.0
H39 H 0.66383 0.50001 0.45971 0.0
C40 C 0.50075 0.48026 0.57091 0.0
N41 N 0.37207 0.5468 0.50345 0.0
C42 C 0.35683 0.59557 0.49036 0.0
C43 C 0.32217 0.52677 0.52524 0.0
N44 N 0.29925 0.60666 0.50314 0.0
C45 C 0.27742 0.5633 0.52506 0.0
C46 C 0.40995 0.39619 0.48524 0.0
O47 O 0.53993 0.45802 0.55006 0.0
O48 O 0.45693 0.50498 0.55313 0.0
O49 O 0.39017 0.44308 0.48835 0.0
O50 O 0.47188 0.39483 0.48617 0.0
O51 O 0.43603 0.52225 0.43971 0.0
H52 H 0.31904 0.48834 0.54083 0.0
H53 H 0.38736 0.62223 0.47176 0.0
O54 O 0.5171 0.4733 0.4363 0.0
O55 O 0.58457 0.53726 0.50086 0.0
O56 O 0.50108 0.58295 0.50474 0.0
C57 C 0.56306 0.58327 0.50556 0.0
H58 H 0.74794 0.43018 0.4518 0.0
H59 H 0.23304 0.55878 0.54069 0.0
H60 H 0.13122 0.93509 0.38031 0.0
H61 H 0.96283 0.02155 0.36784 0.0
H62 H 0.98867 0.91687 0.46741 0.0
C63 C 0.08693 0.94623 0.39172 0.0
C64 C 0.06528 0.9227 0.42694 0.0
C65 C 0.04946 0.98035 0.36922 0.0
C66 C 0.9928 0.99574 0.38485 0.0
C67 C 0.97144 0.9734 0.42077 0.0
C68 C 0.00673 0.93578 0.44076 0.0
N69 N 0.91156 0.98371 0.43565 0.0
C70 C 0.88744 0.0341 0.4339 0.0
H71 H 0.87022 0.9442 0.63224 0.0
H72 H 0.0332 0.06118 0.59739 0.0
H73 H 0.91217 0.94409 0.50786 0.0
C74 C 0.89856 0.96269 0.60879 0.0
C75 C 0.88494 0.93935 0.56873 0.0
C76 C 0.95197 0.00666 0.61943 0.0
C77 C 0.9912 0.02802 0.58919 0.0
C78 C 0.9763 0.00547 0.54862 0.0
C79 C 0.92321 0.96172 0.53889 0.0
N80 N 0.01455 0.02353 0.51681 0.0
C81 C 0.06635 0.06829 0.5201 0.0
H82 H 0.62675 0.42176 0.86523 0.0
H83 H 0.52418 0.55891 0.89317 0.0
H84 H 0.64403 0.49281 -0.01284 0.0
C85 C 0.61366 0.45204 0.88692 0.0
C86 C 0.63801 0.45199 0.92789 0.0
C87 C 0.57246 0.49036 0.87389 0.0
C88 C 0.55643 0.52957 0.90271 0.0
C89 C 0.5822 0.53038 0.9439 0.0
C90 C 0.6234 0.49203 0.95581 0.0
N91 N 0.56788 0.56837 0.97452 0.0
C92 C 0.52313 0.60544 0.96926 0.0
H93 H 0.39676 0.46895 0.10358 0.0
H94 H 0.59341 0.56475 0.12683 0.0
H95 H 0.53579 0.46316 0.01516 0.0
C96 C 0.444 0.48489 0.09272 0.0
C97 C 0.45883 0.46403 0.05502 0.0
C98 C 0.4927 0.51966 0.11931 0.0
C99 C 0.55474 0.53941 0.10604 0.0
C100 C 0.56992 0.51974 0.06799 0.0
C101 C 0.5225 0.48108 0.04321 0.0
N102 N 0.63571 0.53037 0.05719 0.0
C103 C 0.67401 0.58324 0.05816 0.0
H104 H 0.10443 0.22108 0.00206 0.0
H105 H 0.48565 0.36547 0.02161 0.0
H106 H 0.2675 0.13074 -0.0103 0.0
H107 H 0.32377 0.45552 0.03821 0.0
H108 H 0.40507 0.28185 -0.00163 0.0
H109 H 0.18239 0.30911 0.00554 0.0
C110 C 0.15656 0.21973 -0.00016 0.0
C111 C 0.17957 0.1684 -0.00389 0.0
C112 C 0.38709 0.32011 0.00649 0.0
C113 C 0.26914 0.2691 -1e-05 0.0
C114 C 0.43316 0.36813 0.01935 0.0
C115 C 0.41139 0.41745 0.03233 0.0
C116 C 0.31879 0.32134 0.00676 0.0
C117 C 0.34266 0.41809 0.02914 0.0
C118 C 0.20106 0.27005 0.00175 0.0
C119 C 0.2476 0.16929 -0.00698 0.0
N120 N 0.29883 0.37058 0.01721 0.0
N121 N 0.29001 0.21878 -0.00464 0.0
H122 H 0.38433 0.91962 0.98231 0.0
H123 H 0.39118 0.58981 0.97725 0.0
H124 H 0.2077 0.7982 -0.01268 0.0
H125 H 0.56021 0.71583 0.96456 0.0
H126 H 0.32264 0.6639 0.98393 0.0
H127 H 0.44988 0.84442 0.98069 0.0
C128 C 0.35946 0.87689 0.98331 0.0
C129 C 0.29048 0.86498 0.9845 0.0
C130 C 0.37459 0.6753 0.97946 0.0
C131 C 0.36524 0.77812 0.98236 0.0
C132 C 0.41339 0.63315 0.9754 0.0
C133 C 0.48069 0.6473 0.96979 0.0
C134 C 0.40393 0.73164 0.97819 0.0
C135 C 0.50806 0.7036 0.96832 0.0
C136 C 0.39687 0.83388 0.98233 0.0
C137 C 0.26084 0.80901 -0.0135 0.0
N138 N 0.46958 0.74376 0.97251 0.0
N139 N 0.29836 0.76741 0.98496 0.0
H140 H 0.84894 0.91392 0.00157 0.0
H141 H 0.80747 0.59614 0.0644 0.0
H142 H 0.01177 0.82058 0.01267 0.0
H143 H 0.64262 0.68345 0.03764 0.0
H144 H 0.884 0.67906 0.04864 0.0
H145 H 0.77353 0.83087 0.01644 0.0
C146 C 0.86888 0.87579 0.00686 0.0
C147 C 0.937 0.87433 0.00585 0.0
C148 C 0.8312 0.68034 0.04643 0.0
C149 C 0.85043 0.77879 0.02344 0.0
C150 C 0.7877 0.63327 0.05572 0.0
C151 C 0.71922 0.63378 0.05284 0.0
C152 C 0.80573 0.72811 0.03409 0.0
C153 C 0.69545 0.68208 0.04076 0.0
C154 C 0.82563 0.82832 0.01544 0.0
C155 C 0.95968 0.82361 0.01297 0.0
N156 N 0.73871 0.72745 0.03185 0.0
N157 N 0.91656 0.77795 0.0217 0.0
H158 H 0.92188 0.2262 0.96408 0.0
H159 H 0.61718 0.3866 -0.00837 0.0
H160 H 0.75539 0.16071 0.02846 0.0
H161 H 0.74435 0.41812 0.89574 0.0
H162 H 0.67698 0.31133 0.01277 0.0
H163 H 0.86576 0.30379 0.9451 0.0
C164 C 0.8735 0.22762 0.97411 0.0
C165 C 0.84345 0.1862 -0.0021 0.0
C166 C 0.69186 0.33479 -0.01285 0.0
C167 C 0.77965 0.27608 0.97681 0.0
C168 C 0.65816 0.3779 0.9753 0.0
C169 C 0.67604 0.40838 0.94192 0.0
C170 C 0.74419 0.32253 0.96572 0.0
C171 C 0.72888 0.39518 0.92145 0.0
C172 C 0.84165 0.27229 0.96336 0.0
C173 C 0.78112 0.19161 0.01055 0.0
N174 N 0.76132 0.35322 0.93375 0.0
N175 N 0.7514 0.23575 -8e-05 0.0
H176 H 0.69619 0.60114 0.49827 0.0
H177 H 0.7572 0.91805 0.5891 0.0
H178 H 0.5364 0.68597 0.52998 0.0
H179 H 0.90003 0.84477 0.52558 0.0
H180 H 0.67682 0.83154 0.57247 0.0
H181 H 0.77356 0.68888 0.51273 0.0
C182 C 0.67737 0.63827 0.5082 0.0
C183 C 0.60985 0.63633 0.51296 0.0
C184 C 0.72566 0.83466 0.56202 0.0
C185 C 0.69808 0.73667 0.52979 0.0
C186 C 0.77144 0.88374 0.57165 0.0
C187 C 0.83496 0.88843 0.55849 0.0
C188 C 0.74415 0.78996 0.53962 0.0
C189 C 0.85118 0.84304 0.53584 0.0
C190 C 0.72151 0.68835 0.51636 0.0
C191 C 0.58812 0.68571 0.52584 0.0
N192 N 0.80614 0.79559 0.52728 0.0
N193 N 0.63226 0.73392 0.53405 0.0
H194 H 0.61126 0.26375 0.46638 0.0
H195 H 0.95067 0.14068 0.45049 0.0
H196 H 0.80654 0.36431 0.48396 0.0
H197 H 0.75652 0.03931 0.42898 0.0
H198 H 0.89839 0.22319 0.46382 0.0
H199 H 0.66278 0.18028 0.45529 0.0
C200 C 0.6649 0.2682 0.4684 0.0
C201 C 0.70456 0.32122 0.47579 0.0
C202 C 0.86703 0.18303 0.45595 0.0
C203 C 0.76391 0.22612 0.46259 0.0
C204 C 0.89693 0.13618 0.44813 0.0
C205 C 0.85752 0.08382 0.43817 0.0
C206 C 0.79725 0.17715 0.45402 0.0
C207 C 0.78828 0.07946 0.43612 0.0
C208 C 0.69433 0.22064 0.46171 0.0
C209 C 0.77392 0.3245 0.47765 0.0
N210 N 0.76022 0.12555 0.444 0.0
N211 N 0.80125 0.27782 0.47097 0.0
H212 H 0.2759 0.38687 0.47066 0.0
H213 H 0.19812 0.06591 0.52329 0.0
H214 H 0.43092 0.28879 0.49882 0.0
H215 H 0.05127 0.17423 0.50817 0.0
H216 H 0.28468 0.14434 0.51118 0.0
H217 H 0.19306 0.30589 0.47877 0.0
C218 C 0.29256 0.348 0.47819 0.0
C219 C 0.3605 0.34468 0.48437 0.0
C220 C 0.23362 0.15103 0.51076 0.0
C221 C 0.26541 0.25156 0.49427 0.0
C222 C 0.18458 0.10657 0.51791 0.0
C223 C 0.11837 0.11455 0.51712 0.0
C224 C 0.21556 0.20322 0.50246 0.0
C225 C 0.10226 0.1671 0.50938 0.0
C226 C 0.24509 0.30176 0.48302 0.0
C227 C 0.37902 0.2931 0.49378 0.0
N228 N 0.1506 0.20955 0.50227 0.0
N229 N 0.3316 0.2485 0.49878 0.0
H230 H 0.35771 0.71091 0.48677 0.0
H231 H 0.01083 0.82301 0.45506 0.0
H232 H 0.16803 0.61246 0.50242 0.0
H233 H 0.19986 0.92465 0.44223 0.0
H234 H 0.06901 0.7481 0.47811 0.0
H235 H 0.30206 0.79138 0.47383 0.0
C236 C 0.30441 0.7061 0.48735 0.0
C237 C 0.26753 0.65469 0.49559 0.0
C238 C 0.09789 0.78694 0.47058 0.0
C239 C 0.20359 0.74681 0.4813 0.0
C240 C 0.06466 0.83001 0.45777 0.0
C241 C 0.10047 0.88009 0.44634 0.0
C242 C 0.16747 0.79378 0.47182 0.0
C243 C 0.1702 0.88634 0.45001 0.0
C244 C 0.27271 0.7522 0.48029 0.0
C245 C 0.19866 0.65128 0.49665 0.0
N246 N 0.20139 0.84352 0.46207 0.0
N247 N 0.16897 0.69657 0.48944 0.0
H248 H 0.15281 0.95348 0.12241 0.0
H249 H 0.0419 0.07754 0.3297 0.0
H250 H 0.04797 0.09413 0.12843 0.0
H251 H 0.09236 0.9122 0.31273 0.0
H252 H 0.0641 0.09441 0.25924 0.0
H253 H 0.15416 0.94932 0.19655 0.0
C254 C 0.13111 0.98399 0.13939 0.0
C255 C 0.09947 0.02366 0.11929 0.0
C256 C 0.071 0.05475 0.27132 0.0
C257 C 0.10051 0.01912 0.20367 0.0
C258 C 0.05799 0.04501 0.3114 0.0
C259 C 0.0657 0.99357 0.32745 0.0
C260 C 0.09199 0.01283 0.24727 0.0
C261 C 0.08724 0.95307 0.30229 0.0
C262 C 0.13152 0.98146 0.1816 0.0
C263 C 0.07207 0.06231 0.14273 0.0
N264 N 0.0995 0.96356 0.26358 0.0
N265 N 0.07279 0.05883 0.18364 0.0
H266 H 0.92634 0.05687 0.87722 0.0
H267 H 0.07309 0.01543 0.66391 0.0
H268 H 0.1098 0.99456 0.86449 0.0
H269 H 0.87031 0.03701 0.67399 0.0
H270 H 0.09543 0.02629 0.73837 0.0
H271 H 0.91189 0.06528 0.80345 0.0
C272 C 0.96349 0.04485 0.85892 0.0
C273 C 0.019 0.02442 0.87696 0.0
C274 C 0.04629 0.02942 0.72425 0.0
C275 C 1.0033 0.03478 0.79278 0.0
C276 C 0.0338 0.0239 0.6818 0.0
C277 C 0.96971 0.02501 0.66299 0.0
C278 C 0.99434 0.03633 0.74785 0.0
C279 C 0.92025 0.0354 0.6875 0.0
C280 C 0.95532 0.04985 0.81687 0.0
C281 C 0.06586 0.00991 0.85182 0.0
N282 N 0.93343 0.0402 0.72873 0.0
N283 N 0.05693 0.01537 0.811 0.0
H284 H 0.55207 0.40524 0.61906 0.0
H285 H 0.5606 0.57961 0.82696 0.0
H286 H 0.46333 0.55508 0.62408 0.0
H287 H 0.53018 0.39877 0.82045 0.0
H288 H 0.53698 0.57632 0.75261 0.0
H289 H 0.56062 0.40685 0.69385 0.0
C290 C 0.53455 0.4384 0.63593 0.0
C291 C 0.50684 0.47996 0.6156 0.0
C292 C 0.53504 0.53749 0.76771 0.0
C293 C 0.51708 0.48242 0.70039 0.0
C294 C 0.54798 0.53927 0.81009 0.0
C295 C 0.54858 0.48943 0.82995 0.0
C296 C 0.52383 0.48564 0.74524 0.0
C297 C 0.5324 0.43833 0.80636 0.0
C298 C 0.539 0.43912 0.67838 0.0
C299 C 0.48463 0.52204 0.63872 0.0
N300 N 0.52181 0.43776 0.76517 0.0
N301 N 0.49084 0.52256 0.68001 0.0
H302 H 0.50929 0.42672 0.36375 0.0
H303 H 0.50886 0.61204 0.17422 0.0
H304 H 0.43633 0.58378 0.37351 0.0
H305 H 0.45983 0.43177 0.16412 0.0
H306 H 0.49961 0.61012 0.24838 0.0
H307 H 0.51052 0.43523 0.29065 0.0
C308 C 0.49338 0.463 0.3504 0.0
C309 C 0.47231 0.50446 0.37447 0.0
C310 C 0.49012 0.57131 0.22952 0.0
C311 C 0.47456 0.51485 0.29103 0.0
C312 C 0.49562 0.57238 0.18756 0.0
C313 C 0.48429 0.52207 0.16322 0.0
C314 C 0.47518 0.51952 0.24678 0.0
C315 C 0.46786 0.47157 0.18172 0.0
C316 C 0.49395 0.46776 0.30874 0.0
C317 C 0.45224 0.55069 0.35568 0.0
N318 N 0.46437 0.47158 0.22237 0.0
N319 N 0.4544 0.55502 0.31484 0.0
loop_
_geom_bond_atom_site_label_1
_geom_bond_atom_site_label_2
_geom_bond_distance
_geom_bond_site_symmetry_2
_ccdc_geom_bond_type
Co0 N5 2.057 . S
Co0 O17 2.021 . S
Co0 O20 2.062 1_455 S
Co0 O24 2.117 1_554 S
Co0 O25 2.020 1_565 S
C1 O21 1.259 1_455 S
C1 O24 1.258 1_545 S
Co2 N11 2.057 . S
Co2 O18 2.118 . S
Co2 O19 2.020 1_545 S
Co2 O21 2.021 1_554 S
Co2 O26 2.062 1_655 S
C3 N5 1.316 . S
C3 N6 1.347 . S
C3 H8 0.931 . S
C4 N5 1.375 1_556 S
C4 C7 1.350 . S
C4 H9 0.930 . S
N5 Co0 2.057 . S
N5 C3 1.316 . S
N5 C4 1.375 1_554 S
N6 C3 1.347 . S
N6 C7 1.373 1_554 S
C7 C4 1.350 . S
C7 N6 1.373 1_556 S
C7 H28 0.931 . S
H8 C3 0.931 . S
H9 C4 0.930 . S
C10 O17 1.259 1_545 S
C10 O18 1.255 1_455 S
N11 Co2 2.057 . S
N11 C12 1.316 1_554 S
N11 C13 1.375 . S
C12 N11 1.316 1_556 S
C12 N14 1.347 1_556 S
C12 H23 0.931 . S
C13 N11 1.375 . S
C13 C15 1.350 . S
C13 H22 0.930 . S
N14 C12 1.347 1_554 S
N14 C15 1.373 . S
C15 C13 1.350 . S
C15 N14 1.373 . S
C15 H29 0.931 . S
C16 O19 1.256 . S
C16 O20 1.255 . S
O17 Co0 2.021 . S
O17 C10 1.259 1_565 S
O18 Co2 2.118 . S
O18 C10 1.255 1_655 S
O19 Co2 2.020 1_565 S
O19 C16 1.256 . S
O20 Co0 2.062 1_655 S
O20 C16 1.255 . S
O21 C1 1.259 1_655 S
O21 Co2 2.021 1_556 S
H22 C13 0.930 . S
H23 C12 0.931 . S
O24 Co0 2.117 1_556 S
O24 C1 1.258 1_565 S
O25 Co0 2.020 1_545 S
O25 C27 1.256 . S
O26 Co2 2.062 1_455 S
O26 C27 1.255 . S
C27 O25 1.256 . S
C27 O26 1.255 . S
H28 C7 0.931 . S
H29 C15 0.931 . S
Co30 N35 2.057 . S
Co30 O47 2.021 . S
Co30 O50 2.062 . S
Co30 O54 2.117 . S
Co30 O55 2.020 . S
C31 O51 1.259 . S
C31 O54 1.258 . S
Co32 N41 2.057 . S
Co32 O48 2.117 . S
Co32 O49 2.020 . S
Co32 O51 2.021 . S
Co32 O56 2.062 . S
C33 N35 1.316 . S
C33 N36 1.347 . S
C33 H38 0.931 . S
C34 N35 1.375 . S
C34 C37 1.350 . S
C34 H39 0.930 . S
N35 Co30 2.057 . S
N35 C33 1.316 . S
N35 C34 1.375 . S
N36 C33 1.347 . S
N36 C37 1.373 . S
C37 C34 1.350 . S
C37 N36 1.373 . S
C37 H58 0.931 . S
H38 C33 0.931 . S
H39 C34 0.930 . S
C40 O47 1.259 . S
C40 O48 1.258 . S
N41 Co32 2.057 . S
N41 C42 1.316 . S
N41 C43 1.375 . S
C42 N41 1.316 . S
C42 N44 1.347 . S
C42 H53 0.931 . S
C43 N41 1.375 . S
C43 C45 1.350 . S
C43 H52 0.930 . S
N44 C42 1.347 . S
N44 C45 1.373 . S
C45 C43 1.350 . S
C45 N44 1.373 . S
C45 H59 0.931 . S
C46 O49 1.256 . S
C46 O50 1.255 . S
O47 Co30 2.021 . S
O47 C40 1.259 . S
O48 Co32 2.117 . S
O48 C40 1.258 . S
O49 Co32 2.020 . S
O49 C46 1.256 . S
O50 Co30 2.062 . S
O50 C46 1.255 . S
O51 C31 1.259 . S
O51 Co32 2.021 . S
H52 C43 0.930 . S
H53 C42 0.931 . S
O54 Co30 2.117 . S
O54 C31 1.258 . S
O55 Co30 2.020 . S
O55 C57 1.256 . S
O56 Co32 2.062 . S
O56 C57 1.255 . S
C57 O55 1.256 . S
C57 O56 1.255 . S
H58 C37 0.931 . S
H59 C45 0.931 . S
H60 C63 0.929 . S
H61 C66 0.929 1_655 S
H62 C68 0.930 . S
C63 H60 0.929 . S
C63 C64 1.398 . S
C63 C65 1.396 . S
C64 C63 1.398 . S
C64 C68 1.407 . S
C65 C63 1.396 . S
C65 C66 1.394 1_565 S
C66 H61 0.929 1_455 S
C66 C65 1.394 1_545 S
C66 C67 1.382 . S
C67 C66 1.382 . S
C67 C68 1.392 1_545 S
C67 N69 1.420 1_455 S
C68 H62 0.930 . S
C68 C64 1.407 . S
C68 C67 1.392 1_565 S
N69 C67 1.420 1_655 S
N69 C70 1.244 . S
C70 N69 1.244 . S
H71 C74 0.929 . S
H72 C77 0.929 . S
H73 C79 0.930 . S
C74 H71 0.929 . S
C74 C75 1.398 . S
C74 C76 1.392 1_565 S
C75 C74 1.398 . S
C75 C79 1.407 . S
C76 C74 1.392 1_545 S
C76 C77 1.397 1_655 S
C77 H72 0.929 . S
C77 C76 1.397 1_455 S
C77 C78 1.382 . S
C78 C77 1.382 . S
C78 C79 1.392 1_445 S
C78 N80 1.420 . S
C79 H73 0.930 . S
C79 C75 1.407 . S
C79 C78 1.392 1_665 S
N80 C78 1.420 . S
N80 C81 1.244 . S
C81 N80 1.244 . S
H82 C85 0.929 . S
H83 C88 0.929 . S
H84 C90 0.930 1_554 S
C85 H82 0.929 . S
C85 C86 1.398 . S
C85 C87 1.396 . S
C86 C85 1.398 . S
C86 C90 1.407 . S
C87 C85 1.396 . S
C87 C88 1.394 . S
C88 H83 0.929 . S
C88 C87 1.394 . S
C88 C89 1.382 . S
C89 C88 1.382 . S
C89 C90 1.392 . S
C89 N91 1.420 . S
C90 H84 0.930 1_556 S
C90 C86 1.407 . S
C90 C89 1.392 . S
N91 C89 1.420 . S
N91 C92 1.244 . S
C92 N91 1.244 . S
H93 C96 0.929 . S
H94 C99 0.929 . S
H95 C101 0.930 . S
C96 H93 0.929 . S
C96 C97 1.398 . S
C96 C98 1.396 . S
C97 C96 1.398 . S
C97 C101 1.407 . S
C98 C96 1.396 . S
C98 C99 1.394 . S
C99 H94 0.929 . S
C99 C98 1.394 . S
C99 C100 1.382 . S
C100 C99 1.382 . S
C100 C101 1.392 . S
C100 N102 1.420 . S
C101 H95 0.930 . S
C101 C97 1.407 . S
C101 C100 1.392 . S
N102 C100 1.420 . S
N102 C103 1.244 . S
C103 N102 1.244 . S
H104 C110 0.930 . S
H105 C114 0.930 . S
H106 C119 0.929 . S
H107 C117 0.929 1_556 S
H108 C112 0.929 . S
H109 C118 0.929 . S
C110 H104 0.930 . S
C110 C111 1.367 1_556 S
C110 C118 1.378 . S
C111 C110 1.367 1_554 S
C111 C119 1.433 . S
C112 H108 0.929 . S
C112 C114 1.378 . S
C112 C116 1.350 . S
C113 C116 1.463 . S
C113 C118 1.350 1_554 S
C113 N121 1.427 . S
C114 H105 0.930 . S
C114 C112 1.378 . S
C114 C115 1.367 . S
C115 C114 1.367 . S
C115 C117 1.433 . S
C116 C112 1.350 . S
C116 C113 1.463 . S
C116 N120 1.427 1_554 S
C117 H107 0.929 1_554 S
C117 C115 1.433 . S
C117 N120 1.384 1_554 S
C118 H109 0.929 . S
C118 C110 1.378 . S
C118 C113 1.350 1_556 S
C119 H106 0.929 . S
C119 C111 1.433 . S
C119 N121 1.384 . S
N120 C116 1.427 1_556 S
N120 C117 1.384 1_556 S
N121 C113 1.427 . S
N121 C119 1.384 . S
H122 C128 0.930 . S
H123 C132 0.930 . S
H124 C137 0.929 . S
H125 C135 0.929 . S
H126 C130 0.929 . S
H127 C136 0.929 . S
C128 H122 0.930 . S
C128 C129 1.367 . S
C128 C136 1.378 . S
C129 C128 1.367 . S
C129 C137 1.433 . S
C130 H126 0.929 . S
C130 C132 1.378 . S
C130 C134 1.350 . S
C131 C134 1.463 . S
C131 C136 1.350 . S
C131 N139 1.427 . S
C132 H123 0.930 . S
C132 C130 1.378 . S
C132 C133 1.367 1_554 S
C133 C132 1.367 1_556 S
C133 C135 1.433 . S
C134 C130 1.350 . S
C134 C131 1.463 . S
C134 N138 1.427 1_554 S
C135 H125 0.929 . S
C135 C133 1.433 . S
C135 N138 1.384 . S
C136 H127 0.929 . S
C136 C128 1.378 . S
C136 C131 1.350 . S
C137 H124 0.929 . S
C137 C129 1.433 . S
C137 N139 1.384 . S
N138 C134 1.427 1_556 S
N138 C135 1.384 . S
N139 C131 1.427 . S
N139 C137 1.384 . S
H140 C146 0.930 . S
H141 C150 0.930 1_556 S
H142 C155 0.929 . S
H143 C153 0.929 . S
H144 C148 0.929 1_556 S
H145 C154 0.929 . S
C146 H140 0.930 . S
C146 C147 1.367 . S
C146 C154 1.378 . S
C147 C146 1.367 . S
C147 C155 1.433 1_554 S
C148 H144 0.929 1_554 S
C148 C150 1.378 . S
C148 C152 1.350 . S
C149 C152 1.463 . S
C149 C154 1.350 . S
C149 N157 1.427 1_554 S
C150 H141 0.930 1_554 S
C150 C148 1.378 . S
C150 C151 1.367 . S
C151 C150 1.367 . S
C151 C153 1.433 . S
C152 C148 1.350 . S
C152 C149 1.463 . S
C152 N156 1.427 . S
C153 H143 0.929 . S
C153 C151 1.433 . S
C153 N156 1.384 . S
C154 H145 0.929 . S
C154 C146 1.378 . S
C154 C149 1.350 . S
C155 H142 0.929 . S
C155 C147 1.433 1_556 S
C155 N157 1.384 . S
N156 C152 1.427 . S
N156 C153 1.384 . S
N157 C149 1.427 1_556 S
N157 C155 1.384 . S
H158 C164 0.930 . S
H159 C168 0.930 1_554 S
H160 C173 0.929 . S
H161 C171 0.929 . S
H162 C166 0.943 . S
H163 C172 0.929 . S
C164 H158 0.930 . S
C164 C165 1.367 . S
C164 C172 1.378 . S
C165 C164 1.367 . S
C165 C173 1.433 1_556 S
C166 H162 0.943 . S
C166 C168 1.377 1_554 S
C166 C170 1.337 1_554 S
C167 C170 1.463 . S
C167 C172 1.350 . S
C167 N175 1.427 1_556 S
C168 H159 0.930 1_556 S
C168 C166 1.377 1_556 S
C168 C169 1.367 . S
C169 C168 1.367 . S
C169 C171 1.433 . S
C170 C166 1.337 1_556 S
C170 C167 1.463 . S
C170 N174 1.427 . S
C171 H161 0.929 . S
C171 C169 1.433 . S
C171 N174 1.384 . S
C172 H163 0.929 . S
C172 C164 1.378 . S
C172 C167 1.350 . S
C173 H160 0.929 . S
C173 C165 1.433 1_554 S
C173 N175 1.384 . S
N174 C170 1.427 . S
N174 C171 1.384 . S
N175 C167 1.427 1_554 S
N175 C173 1.384 . S
H176 C182 0.930 . S
H177 C186 0.930 . S
H178 C191 0.929 . S
H179 C189 0.929 . S
H180 C184 0.929 . S
H181 C190 0.929 . S
C182 H176 0.930 . S
C182 C183 1.367 . S
C182 C190 1.378 . S
C183 C182 1.367 . S
C183 C191 1.433 . S
C184 H180 0.929 . S
C184 C186 1.378 . S
C184 C188 1.350 . S
C185 C188 1.463 . S
C185 C190 1.350 . S
C185 N193 1.427 . S
C186 H177 0.930 . S
C186 C184 1.378 . S
C186 C187 1.367 . S
C187 C186 1.367 . S
C187 C189 1.433 . S
C188 C184 1.350 . S
C188 C185 1.463 . S
C188 N192 1.427 . S
C189 H179 0.929 . S
C189 C187 1.433 . S
C189 N192 1.384 . S
C190 H181 0.929 . S
C190 C182 1.378 . S
C190 C185 1.350 . S
C191 H178 0.929 . S
C191 C183 1.433 . S
C191 N193 1.384 . S
N192 C188 1.427 . S
N192 C189 1.384 . S
N193 C185 1.427 . S
N193 C191 1.384 . S
H194 C200 0.930 . S
H195 C204 0.930 . S
H196 C209 0.929 . S
H197 C207 0.929 . S
H198 C202 0.929 . S
H199 C208 0.929 . S
C200 H194 0.930 . S
C200 C201 1.367 . S
C200 C208 1.378 . S
C201 C200 1.367 . S
C201 C209 1.433 . S
C202 H198 0.929 . S
C202 C204 1.378 . S
C202 C206 1.350 . S
C203 C206 1.463 . S
C203 C208 1.350 . S
C203 N211 1.427 . S
C204 H195 0.930 . S
C204 C202 1.378 . S
C204 C205 1.367 . S
C205 C204 1.367 . S
C205 C207 1.433 . S
C206 C202 1.350 . S
C206 C203 1.463 . S
C206 N210 1.427 . S
C207 H197 0.929 . S
C207 C205 1.433 . S
C207 N210 1.384 . S
C208 H199 0.929 . S
C208 C200 1.378 . S
C208 C203 1.350 . S
C209 H196 0.929 . S
C209 C201 1.433 . S
C209 N211 1.384 . S
N210 C206 1.427 . S
N210 C207 1.384 . S
N211 C203 1.427 . S
N211 C209 1.384 . S
H212 C218 0.930 . S
H213 C222 0.930 . S
H214 C227 0.929 . S
H215 C225 0.929 . S
H216 C220 0.929 . S
H217 C226 0.929 . S
C218 H212 0.930 . S
C218 C219 1.367 . S
C218 C226 1.378 . S
C219 C218 1.367 . S
C219 C227 1.433 . S
C220 H216 0.929 . S
C220 C222 1.378 . S
C220 C224 1.350 . S
C221 C224 1.463 . S
C221 C226 1.350 . S
C221 N229 1.427 . S
C222 H213 0.930 . S
C222 C220 1.378 . S
C222 C223 1.367 . S
C223 C222 1.367 . S
C223 C225 1.433 . S
C224 C220 1.350 . S
C224 C221 1.463 . S
C224 N228 1.427 . S
C225 H215 0.929 . S
C225 C223 1.433 . S
C225 N228 1.384 . S
C226 H217 0.929 . S
C226 C218 1.378 . S
C226 C221 1.350 . S
C227 H214 0.929 . S
C227 C219 1.433 . S
C227 N229 1.384 . S
N228 C224 1.427 . S
N228 C225 1.384 . S
N229 C221 1.427 . S
N229 C227 1.384 . S
H230 C236 0.930 . S
H231 C240 0.930 . S
H232 C245 0.929 . S
H233 C243 0.929 . S
H234 C238 0.929 . S
H235 C244 0.929 . S
C236 H230 0.930 . S
C236 C237 1.367 . S
C236 C244 1.378 . S
C237 C236 1.367 . S
C237 C245 1.433 . S
C238 H234 0.929 . S
C238 C240 1.378 . S
C238 C242 1.350 . S
C239 C242 1.463 . S
C239 C244 1.350 . S
C239 N247 1.427 . S
C240 H231 0.930 . S
C240 C238 1.378 . S
C240 C241 1.367 . S
C241 C240 1.367 . S
C241 C243 1.433 . S
C242 C238 1.350 . S
C242 C239 1.463 . S
C242 N246 1.427 . S
C243 H233 0.929 . S
C243 C241 1.433 . S
C243 N246 1.384 . S
C244 H235 0.929 . S
C244 C236 1.378 . S
C244 C239 1.350 . S
C245 H232 0.929 . S
C245 C237 1.433 . S
C245 N247 1.384 . S
N246 C242 1.427 . S
N246 C243 1.384 . S
N247 C239 1.427 . S
N247 C245 1.384 . S
H248 C254 0.930 . S
H249 C258 0.930 1_655 S
H250 C263 0.929 1_655 S
H251 C261 0.929 . S
H252 C256 0.929 1_655 S
H253 C262 0.929 . S
C254 H248 0.930 . S
C254 C255 1.367 1_565 S
C254 C262 1.378 . S
C255 C254 1.367 1_545 S
C255 C263 1.433 . S
C256 H252 0.929 1_455 S
C256 C258 1.378 . S
C256 C260 1.350 . S
C257 C260 1.462 . S
C257 C262 1.350 1_545 S
C257 N265 1.427 . S
C258 H249 0.930 1_455 S
C258 C256 1.378 . S
C258 C259 1.362 1_545 S
C259 C258 1.362 1_565 S
C259 C261 1.438 . S
C260 C256 1.350 . S
C260 C257 1.462 . S
C260 N264 1.427 1_545 S
C261 H251 0.929 . S
C261 C259 1.438 . S
C261 N264 1.384 . S
C262 H253 0.929 . S
C262 C254 1.378 . S
C262 C257 1.350 1_565 S
C263 H250 0.929 1_455 S
C263 C255 1.433 . S
C263 N265 1.384 . S
N264 C260 1.427 1_565 S
N264 C261 1.384 . S
N265 C257 1.427 . S
N265 C263 1.384 . S
H266 C272 0.930 . S
H267 C276 0.930 . S
H268 C281 0.929 . S
H269 C279 0.929 . S
H270 C274 0.929 . S
H271 C280 0.929 . S
C272 H266 0.930 . S
C272 C273 1.367 1_665 S
C272 C280 1.378 . S
C273 C272 1.367 1_445 S
C273 C281 1.433 . S
C274 H270 0.929 . S
C274 C276 1.378 . S
C274 C278 1.343 1_455 S
C275 C278 1.464 . S
C275 C280 1.350 1_545 S
C275 N283 1.427 1_655 S
C276 H267 0.930 . S
C276 C274 1.378 . S
C276 C277 1.367 1_455 S
C277 C276 1.367 1_655 S
C277 C279 1.433 1_545 S
C278 C274 1.343 1_655 S
C278 C275 1.464 . S
C278 N282 1.433 1_545 S
C279 H269 0.929 . S
C279 C277 1.433 1_565 S
C279 N282 1.384 . S
C280 H271 0.929 . S
C280 C272 1.378 . S
C280 C275 1.350 1_565 S
C281 H268 0.929 . S
C281 C273 1.433 . S
C281 N283 1.384 . S
N282 C278 1.433 1_565 S
N282 C279 1.384 . S
N283 C275 1.427 1_455 S
N283 C281 1.384 . S
H284 C290 0.930 . S
H285 C294 0.930 . S
H286 C299 0.929 . S
H287 C297 0.929 . S
H288 C292 0.929 . S
H289 C298 0.929 . S
C290 H284 0.930 . S
C290 C291 1.367 . S
C290 C298 1.378 . S
C291 C290 1.367 . S
C291 C299 1.433 . S
C292 H288 0.929 . S
C292 C294 1.378 . S
C292 C296 1.350 . S
C293 C296 1.463 . S
C293 C298 1.350 . S
C293 N301 1.427 . S
C294 H285 0.930 . S
C294 C292 1.378 . S
C294 C295 1.367 . S
C295 C294 1.367 . S
C295 C297 1.433 . S
C296 C292 1.350 . S
C296 C293 1.463 . S
C296 N300 1.427 . S
C297 H287 0.929 . S
C297 C295 1.433 . S
C297 N300 1.384 . S
C298 H289 0.929 . S
C298 C290 1.378 . S
C298 C293 1.350 . S
C299 H286 0.929 . S
C299 C291 1.433 . S
C299 N301 1.384 . S
N300 C296 1.427 . S
N300 C297 1.384 . S
N301 C293 1.427 . S
N301 C299 1.384 . S
H302 C308 0.930 . S
H303 C312 0.930 . S
H304 C317 0.929 . S
H305 C315 0.929 . S
H306 C310 0.929 . S
H307 C316 0.929 . S
C308 H302 0.930 . S
C308 C309 1.367 . S
C308 C316 1.378 . S
C309 C308 1.367 . S
C309 C317 1.433 . S
C310 H306 0.929 . S
C310 C312 1.378 . S
C310 C314 1.350 . S
C311 C314 1.463 . S
C311 C316 1.350 . S
C311 N319 1.427 . S
C312 H303 0.930 . S
C312 C310 1.378 . S
C312 C313 1.367 . S
C313 C312 1.367 . S
C313 C315 1.433 . S
C314 C310 1.350 . S
C314 C311 1.463 . S
C314 N318 1.427 . S
C315 H305 0.929 . S
C315 C313 1.433 . S
C315 N318 1.384 . S
C316 H307 0.929 . S
C316 C308 1.378 . S
C316 C311 1.350 . S
C317 H304 0.929 . S
C317 C309 1.433 . S
C317 N319 1.384 . S
N318 C314 1.427 . S
N318 C315 1.384 . S
N319 C311 1.427 . S
N319 C317 1.384 . S
C115 C97 1.448 . S
C111 C27 1.483 . S
C129 N6 1.346 . S
C133 C92 1.379 . S
C147 C16 1.425 . S
C151 C103 1.394 . S
C165 N14 1.441 1_556 S
C169 C86 1.438 . S
C183 C57 1.483 . S
C187 C75 1.458 . S
C201 N36 1.360 . S
C205 C70 1.372 . S
C223 C81 1.397 . S
C219 C46 1.424 . S
C241 C64 1.432 . S
C237 N44 1.436 . S
C255 C10 1.472 . S
C259 C65 1.474 . S
C273 C1 1.542 . S
C277 C76 1.540 . S
C295 C87 1.473 . S
C291 C40 1.472 . S
C309 C31 1.543 . S
C313 C98 1.541 . S
