# Generated by pormake.
# Topology zzz, (3,6)-cn, num edge types: 1
# Building blocks:
#     Node 0, Type 0, BuildingBlock: MIDCAF_clean_linker_0, # of connection points: 3
#     Node 1, Type 0, BuildingBlock: MIDCAF_clean_linker_0, # of connection points: 3
#     Node 2, Type 0, BuildingBlock: MIDCAF_clean_linker_0, # of connection points: 3
#     Node 3, Type 0, BuildingBlock: MIDCAF_clean_linker_0, # of connection points: 3
#     Node 4, Type 0, BuildingBlock: MIDCAF_clean_linker_0, # of connection points: 3
#     Node 5, Type 0, BuildingBlock: MIDCAF_clean_linker_0, # of connection points: 3
#     Node 6, Type 0, BuildingBlock: MIDCAF_clean_linker_0, # of connection points: 3
#     Node 7, Type 0, BuildingBlock: MIDCAF_clean_linker_0, # of connection points: 3
#     Node 8, Type 1, BuildingBlock: BETGAK_clean_sbu_0, # of connection points: 6
#     Node 9, Type 1, BuildingBlock: BETGAK_clean_sbu_0, # of connection points: 6
#     Node 10, Type 1, BuildingBlock: BETGAK_clean_sbu_0, # of connection points: 6
#     Node 11, Type 1, BuildingBlock: BETGAK_clean_sbu_0, # of connection points: 6
#     Edge 12, Type (0, 1), BuildingBlock: MIFKUJ_clean_linker_0, # of connection points: 2
#     Edge 13, Type (0, 1), BuildingBlock: MIFKUJ_clean_linker_0, # of connection points: 2
#     Edge 14, Type (0, 1), BuildingBlock: MIFKUJ_clean_linker_0, # of connection points: 2
#     Edge 15, Type (0, 1), BuildingBlock: MIFKUJ_clean_linker_0, # of connection points: 2
#     Edge 16, Type (0, 1), BuildingBlock: MIFKUJ_clean_linker_0, # of connection points: 2
#     Edge 17, Type (0, 1), BuildingBlock: MIFKUJ_clean_linker_0, # of connection points: 2
#     Edge 18, Type (0, 1), BuildingBlock: MIFKUJ_clean_linker_0, # of connection points: 2
#     Edge 19, Type (0, 1), BuildingBlock: MIFKUJ_clean_linker_0, # of connection points: 2
#     Edge 20, Type (0, 1), BuildingBlock: MIFKUJ_clean_linker_0, # of connection points: 2
#     Edge 21, Type (0, 1), BuildingBlock: MIFKUJ_clean_linker_0, # of connection points: 2
#     Edge 22, Type (0, 1), BuildingBlock: MIFKUJ_clean_linker_0, # of connection points: 2
#     Edge 23, Type (0, 1), BuildingBlock: MIFKUJ_clean_linker_0, # of connection points: 2
#     Edge 24, Type (0, 1), BuildingBlock: MIFKUJ_clean_linker_0, # of connection points: 2
#     Edge 25, Type (0, 1), BuildingBlock: MIFKUJ_clean_linker_0, # of connection points: 2
#     Edge 26, Type (0, 1), BuildingBlock: MIFKUJ_clean_linker_0, # of connection points: 2
#     Edge 27, Type (0, 1), BuildingBlock: MIFKUJ_clean_linker_0, # of connection points: 2
#     Edge 28, Type (0, 1), BuildingBlock: MIFKUJ_clean_linker_0, # of connection points: 2
#     Edge 29, Type (0, 1), BuildingBlock: MIFKUJ_clean_linker_0, # of connection points: 2
#     Edge 30, Type (0, 1), BuildingBlock: MIFKUJ_clean_linker_0, # of connection points: 2
#     Edge 31, Type (0, 1), BuildingBlock: MIFKUJ_clean_linker_0, # of connection points: 2
#     Edge 32, Type (0, 1), BuildingBlock: MIFKUJ_clean_linker_0, # of connection points: 2
#     Edge 33, Type (0, 1), BuildingBlock: MIFKUJ_clean_linker_0, # of connection points: 2
#     Edge 34, Type (0, 1), BuildingBlock: MIFKUJ_clean_linker_0, # of connection points: 2
#     Edge 35, Type (0, 1), BuildingBlock: MIFKUJ_clean_linker_0, # of connection points: 2
# Relax obj value: 0.420
# Max RMSD: 0.273
# Mean RMSD: 0.252
data_MOF--net-zzz--node1-BETGAK_clean_sbu_0--node2-MIDCAF_clean_linker_0--edge1-MIFKUJ_clean_linker_0
_symmetry_space_group_name_H-M    P1
_symmetry_Int_Tables_number       1
_symmetry_cell_setting            triclinic
loop_
_symmetry_equiv_pos_as_xyz
'x, y, z'
_cell_length_a     74.872197
_cell_length_b     74.773987
_cell_length_c     22.906232
_cell_angle_alpha  89.959251
_cell_angle_beta   89.948812
_cell_angle_gamma 90.158753
loop_
_atom_site_label
_atom_site_type_symbol
_atom_site_fract_x
_atom_site_fract_y
_atom_site_fract_z
_atom_type_partial_charge
C0 C 0.78925 0.51887 0.36384 0.0
C1 C 0.80157 0.50462 0.36169 0.0
C2 C 0.79818 0.49049 0.32263 0.0
C3 C 0.78389 0.49128 0.28356 0.0
H4 H 0.71428 0.54428 0.17594 0.0
H5 H 0.68342 0.54731 0.1426 0.0
H6 H 0.67616 0.49019 0.15979 0.0
H7 H 0.70686 0.48745 0.19471 0.0
H8 H 0.74099 0.5049 0.02312 0.0
H9 H 0.75494 0.5003 0.92775 0.0
H10 H 0.80702 0.50285 0.00827 0.0
H11 H 0.79328 0.50757 0.10288 0.0
H12 H 0.76612 0.53117 0.32481 0.0
H13 H 0.79142 0.53001 0.39318 0.0
H14 H 0.80699 0.47905 0.32066 0.0
H15 H 0.78234 0.48065 0.25178 0.0
N16 N 0.74246 0.51163 0.23717 0.0
N17 N 0.74002 0.51158 0.1345 0.0
N18 N 0.76776 0.50684 0.1781 0.0
C19 C 0.73229 0.51316 0.1878 0.0
C20 C 0.75774 0.5085 0.12919 0.0
C21 C 0.76038 0.50842 0.23201 0.0
C22 C 0.71278 0.5157 0.18921 0.0
C23 C 0.70576 0.53255 0.17529 0.0
C24 C 0.68818 0.53419 0.15509 0.0
C25 C 0.67731 0.51895 0.14736 0.0
C26 C 0.68399 0.50226 0.16556 0.0
C27 C 0.70157 0.50066 0.18604 0.0
C28 C 0.76602 0.50653 0.0708 0.0
C29 C 0.75543 0.50465 0.02037 0.0
C30 C 0.76338 0.50197 0.96574 0.0
C31 C 0.78205 0.50135 0.96045 0.0
C32 C 0.79259 0.5036 0.01069 0.0
C33 C 0.78469 0.50612 0.06514 0.0
C34 C 0.77229 0.506 0.28306 0.0
C35 C 0.7747 0.51953 0.32488 0.0
C36 C 0.97812 0.79139 0.35034 0.0
C37 C 0.99233 0.79227 0.39033 0.0
C38 C 0.005 0.77831 0.38996 0.0
C39 C 0.00373 0.76419 0.34936 0.0
H40 H 0.97993 0.69302 0.25143 0.0
H41 H 0.98526 0.66315 0.21082 0.0
H42 H 0.03233 0.68304 0.12314 0.0
H43 H 0.02693 0.71274 0.16369 0.0
H44 H 0.98 0.72874 0.05367 0.0
H45 H 0.97429 0.74159 0.95767 0.0
H46 H 0.96785 0.79364 0.03685 0.0
H47 H 0.97297 0.78083 0.13226 0.0
H48 H 0.96607 0.77772 0.2787 0.0
H49 H 0.96823 0.80191 0.34837 0.0
H50 H 0.01606 0.77845 0.4204 0.0
H51 H 0.01399 0.75402 0.34874 0.0
N52 N 0.99643 0.73417 0.26123 0.0
N53 N 0.98953 0.72985 0.16181 0.0
N54 N 0.98311 0.75714 0.20604 0.0
C55 C 0.99613 0.72346 0.21276 0.0
C56 C 0.98298 0.74662 0.15794 0.0
C57 C 0.98971 0.75117 0.25777 0.0
C58 C 1.00322 0.70509 0.21162 0.0
C59 C 0.99196 0.69071 0.22629 0.0
C60 C 0.99493 0.67365 0.20246 0.0
C61 C 0.00906 0.67081 0.16296 0.0
C62 C 0.02122 0.68484 0.15286 0.0
C63 C 0.0183 0.70178 0.17685 0.0
C64 C 0.97718 0.7538 0.10075 0.0
C65 C 0.97704 0.74288 0.05068 0.0
C66 C 0.9738 0.75023 0.99555 0.0
C67 C 0.97065 0.76864 0.98933 0.0
C68 C 0.96989 0.77934 0.03983 0.0
C69 C 0.97302 0.772 0.0948 0.0
C70 C 0.9899 0.7639 0.30784 0.0
C71 C 0.97695 0.77749 0.30986 0.0
C72 C 0.73333 0.98519 0.38819 0.0
C73 C 0.72033 0.99782 0.37171 0.0
C74 C 0.72382 0.00878 0.32299 0.0
C75 C 0.7392 0.00632 0.28924 0.0
H76 H 0.82297 0.96798 0.22753 0.0
H77 H 0.85175 0.97449 0.18119 0.0
H78 H 0.83212 0.02623 0.12835 0.0
H79 H 0.80346 0.01975 0.17577 0.0
H80 H 0.78472 0.96603 0.0628 0.0
H81 H 0.77011 0.959 0.97061 0.0
H82 H 0.71957 0.9542 0.0606 0.0
H83 H 0.73409 0.96085 0.15245 0.0
H84 H 0.75789 0.97202 0.36521 0.0
H85 H 0.73104 0.97644 0.42515 0.0
H86 H 0.71427 0.01883 0.30952 0.0
H87 H 0.7409 0.01415 0.24978 0.0
N88 N 0.78187 0.99232 0.25819 0.0
N89 N 0.78579 0.97746 0.16847 0.0
N90 N 0.75778 0.97743 0.2132 0.0
C91 C 0.79267 0.98716 0.21311 0.0
C92 C 0.76839 0.97254 0.16802 0.0
C93 C 0.76437 0.98706 0.25857 0.0
C94 C 0.81119 0.99354 0.20642 0.0
C95 C 0.82519 0.9811 0.20879 0.0
C96 C 0.8416 0.98479 0.18181 0.0
C97 C 0.84414 1.00081 0.15067 0.0
C98 C 0.83053 0.01375 0.15185 0.0
C99 C 0.81423 0.01017 0.17971 0.0
C100 C 0.7605 0.96443 0.11496 0.0
C101 C 0.77057 0.96302 0.06321 0.0
C102 C 0.76221 0.95904 0.01024 0.0
C103 C 0.74366 0.95628 0.00805 0.0
C104 C 0.73391 0.95611 0.0606 0.0
C105 C 0.74224 0.96011 0.11343 0.0
C106 C 0.75159 0.993 0.30364 0.0
C107 C 0.74877 0.98272 0.35417 0.0
C108 C 0.45795 0.72916 0.09353 0.0
C109 C 0.45644 0.73696 0.03799 0.0
C110 C 0.46075 0.75511 0.03081 0.0
C111 C 0.46783 0.76488 0.07746 0.0
H112 H 0.47461 0.8187 0.19308 0.0
H113 H 0.48189 0.84742 0.14863 0.0
H114 H 0.53796 0.83417 0.15445 0.0
H115 H 0.53052 0.80527 0.19982 0.0
H116 H 0.48644 0.76104 0.37419 0.0
H117 H 0.49066 0.73542 0.43959 0.0
H118 H 0.52894 0.71323 0.31858 0.0
H119 H 0.52477 0.7389 0.2543 0.0
H120 H 0.46671 0.73218 0.18155 0.0
H121 H 0.45439 0.71527 0.10041 0.0
H122 H 0.45971 0.76141 0.98837 0.0
H123 H 0.47195 0.77858 0.06981 0.0
N124 N 0.48578 0.78314 0.17255 0.0
N125 N 0.50373 0.78128 0.25685 0.0
N126 N 0.48777 0.75615 0.22326 0.0
C127 C 0.49693 0.79106 0.21151 0.0
C128 C 0.49885 0.76374 0.26292 0.0
C129 C 0.48117 0.7657 0.17798 0.0
C130 C 0.50201 0.80988 0.20045 0.0
C131 C 0.48854 0.82222 0.18682 0.0
C132 C 0.49272 0.83867 0.16124 0.0
C133 C 0.5105 0.84308 0.14755 0.0
C134 C 0.52412 0.83112 0.16411 0.0
C135 C 0.51991 0.8147 0.19077 0.0
C136 C 0.50563 0.75214 0.31004 0.0
C137 C 0.49634 0.75106 0.36315 0.0
C138 C 0.49853 0.7362 0.39998 0.0
C139 C 0.51001 0.72209 0.38421 0.0
C140 C 0.52015 0.72386 0.33271 0.0
C141 C 0.51787 0.73864 0.29591 0.0
C142 C 0.47069 0.75663 0.13191 0.0
C143 C 0.46501 0.73888 0.13999 0.0
C144 C 0.23339 0.50474 0.98547 0.0
C145 C 0.22419 0.5181 0.9542 0.0
C146 C 0.23151 0.5354 0.95236 0.0
C147 C 0.24662 0.53969 0.98514 0.0
H148 H 0.32224 0.55092 0.1531 0.0
H149 H 0.34987 0.54038 0.19623 0.0
H150 H 0.33165 0.48578 0.17867 0.0
H151 H 0.30362 0.49657 0.13497 0.0
H152 H 0.27625 0.55699 0.26248 0.0
H153 H 0.25748 0.57339 0.33038 0.0
H154 H 0.22899 0.59687 0.18527 0.0
H155 H 0.24723 0.57966 0.11754 0.0
H156 H 0.25468 0.49893 0.04585 0.0
H157 H 0.22809 0.49127 0.98776 0.0
H158 H 0.22501 0.54591 0.92774 0.0
H159 H 0.25116 0.55347 0.98583 0.0
N160 N 0.28281 0.52509 0.08087 0.0
N161 N 0.2867 0.54567 0.15788 0.0
N162 N 0.26115 0.5471 0.09998 0.0
C163 C 0.29295 0.53178 0.1256 0.0
C164 C 0.27082 0.55335 0.14541 0.0
C165 C 0.26689 0.53307 0.06758 0.0
C166 C 0.31077 0.52456 0.14072 0.0
C167 C 0.32427 0.53663 0.15721 0.0
C168 C 0.34019 0.53056 0.1817 0.0
C169 C 0.34303 0.51222 0.19109 0.0
C170 C 0.32983 0.50002 0.17231 0.0
C171 C 0.31387 0.50614 0.1468 0.0
C172 C 0.2629 0.56675 0.18485 0.0
C173 C 0.2663 0.56603 0.24508 0.0
C174 C 0.25555 0.57554 0.28407 0.0
C175 C 0.2414 0.58615 0.26339 0.0
C176 C 0.23941 0.58839 0.20275 0.0
C177 C 0.2499 0.57861 0.16389 0.0
C178 C 0.25496 0.52679 0.02031 0.0
C179 C 0.24869 0.50906 0.01839 0.0
C180 C 0.0207 0.22643 0.99268 0.0
C181 C 0.00665 0.2145 0.97932 0.0
C182 C 0.98924 0.21911 0.99641 0.0
C183 C 0.98608 0.23443 0.02956 0.0
H184 H 0.9946 0.31779 0.08704 0.0
H185 H 1.00103 0.34769 0.12545 0.0
H186 H 0.03614 0.32445 0.25415 0.0
H187 H 0.02968 0.29473 0.21534 0.0
H188 H 0.98115 0.2789 0.29161 0.0
H189 H 0.96537 0.26559 0.37436 0.0
H190 H 0.93869 0.22898 0.25755 0.0
H191 H 0.95451 0.24207 0.17496 0.0
H192 H 0.02866 0.25032 0.03857 0.0
H193 H 0.03428 0.22331 0.98012 0.0
H194 H 0.97802 0.21056 0.98558 0.0
H195 H 0.97255 0.23706 0.04397 0.0
N196 N 0.0062 0.27515 0.09573 0.0
N197 N 0.99072 0.28221 0.18239 0.0
N198 N 0.98449 0.25552 0.13384 0.0
C199 C 1.0029 0.28663 0.14095 0.0
C200 C 0.9814 0.26674 0.17904 0.0
C201 C 0.99682 0.25944 0.09218 0.0
C202 C 0.01196 0.30403 0.14742 0.0
C203 C 0.00439 0.31923 0.12152 0.0
C204 C 0.00784 0.33631 0.14427 0.0
C205 C 0.01891 0.33848 0.19347 0.0
C206 C 0.02768 0.32335 0.21599 0.0
C207 C 0.02411 0.30629 0.19349 0.0
C208 C 0.96931 0.26129 0.2269 0.0
C209 C 0.97154 0.26835 0.28334 0.0
C210 C 0.96251 0.26078 0.33074 0.0
C211 C 0.95086 0.24627 0.32228 0.0
C212 C 0.94744 0.24029 0.26524 0.0
C213 C 0.95667 0.24765 0.21802 0.0
C214 C 1.00019 0.24575 0.04643 0.0
C215 C 0.01749 0.24195 0.02594 0.0
C216 C 0.29013 0.02327 0.98867 0.0
C217 C 0.29812 0.00794 0.96396 0.0
C218 C 0.29038 0.99115 0.97615 0.0
C219 C 0.27608 0.98958 0.01516 0.0
H220 H 0.21707 0.03995 0.16032 0.0
H221 H 0.18786 0.04757 0.20181 0.0
H222 H 0.17055 0.99289 0.17767 0.0
H223 H 0.19951 0.98558 0.1358 0.0
H224 H 0.23576 0.98575 0.29244 0.0
H225 H 0.2487 0.97394 0.38205 0.0
H226 H 0.2982 0.96389 0.29092 0.0
H227 H 0.2853 0.9754 0.20128 0.0
H228 H 0.2703 0.03357 0.04785 0.0
H229 H 0.2957 0.03643 0.98106 0.0
H230 H 0.29568 0.97906 0.95689 0.0
H231 H 0.27113 0.97637 0.02617 0.0
N232 N 0.23965 0.00915 0.09281 0.0
N233 N 0.23546 0.99692 0.1866 0.0
N234 N 0.26277 0.99317 0.13903 0.0
C235 C 0.229 0.00612 0.14028 0.0
C236 C 0.25233 0.99051 0.18668 0.0
C237 C 0.25661 1.00242 0.09214 0.0
C238 C 0.21036 0.01228 0.14394 0.0
C239 C 0.20666 0.02987 0.16128 0.0
C240 C 0.19003 0.03411 0.18594 0.0
C241 C 0.17687 0.0208 0.19387 0.0
C242 C 0.18019 1.00357 0.17179 0.0
C243 C 0.19679 0.99935 0.14748 0.0
C244 C 0.25954 0.98168 0.23957 0.0
C245 C 0.24933 0.9808 0.2912 0.0
C246 C 0.25674 0.97409 0.34271 0.0
C247 C 0.27445 0.968 0.34364 0.0
C248 C 0.28441 0.96823 0.29153 0.0
C249 C 0.27705 0.97498 0.24012 0.0
C250 C 0.26873 0.00477 0.04174 0.0
C251 C 0.27552 0.02168 0.02695 0.0
C252 C 0.52576 0.28655 0.30542 0.0
C253 C 0.52429 0.27717 0.3584 0.0
C254 C 0.51626 0.26018 0.35857 0.0
C255 C 0.50999 0.25266 0.30655 0.0
H256 H 0.4667 0.21575 0.21229 0.0
H257 H 0.46463 0.18487 0.24525 0.0
H258 H 0.50614 0.17011 0.12351 0.0
H259 H 0.50814 0.20131 0.09068 0.0
H260 H 0.47481 0.26171 0.01104 0.0
H261 H 0.47447 0.286 0.93843 0.0
H262 H 0.52712 0.30232 0.9945 0.0
H263 H 0.52739 0.2783 0.06582 0.0
H264 H 0.52085 0.28678 0.21375 0.0
H265 H 0.53152 0.29985 0.30405 0.0
H266 H 0.51496 0.25266 0.39878 0.0
H267 H 0.50393 0.2395 0.30808 0.0
N268 N 0.49853 0.23731 0.19685 0.0
N269 N 0.49378 0.2394 0.09534 0.0
N270 N 0.50584 0.26365 0.14781 0.0
C271 C 0.49298 0.22978 0.14613 0.0
C272 C 0.50018 0.25655 0.09651 0.0
C273 C 0.50503 0.25419 0.19812 0.0
C274 C 0.48742 0.21085 0.14852 0.0
C275 C 0.47477 0.20573 0.19066 0.0
C276 C 0.47365 0.188 0.20969 0.0
C277 C 0.48538 0.17499 0.18764 0.0
C278 C 0.49705 0.17984 0.14189 0.0
C279 C 0.49801 0.19763 0.12234 0.0
C280 C 0.50114 0.26809 0.04391 0.0
C281 C 0.48648 0.27018 0.00632 0.0
C282 C 0.48622 0.28422 0.96534 0.0
C283 C 0.50074 0.29622 0.96073 0.0
C284 C 0.51578 0.29331 0.99611 0.0
C285 C 0.51593 0.27952 0.03723 0.0
C286 C 0.51152 0.26206 0.25347 0.0
C287 C 0.51947 0.2791 0.25363 0.0
La288 La 0.02202 0.99753 0.72559 0.0
La289 La 1.00256 0.01058 0.62192 0.0
C290 C 0.03117 0.97838 0.81019 0.0
C291 C 0.02619 0.95949 0.81988 0.0
C292 C 0.03934 0.94618 0.81725 0.0
C293 C 0.03449 0.92819 0.8116 0.0
C294 C 0.01638 0.92319 0.80846 0.0
C295 C 1.00327 0.93646 0.81533 0.0
C296 C 0.0081 0.95438 0.82087 0.0
C297 C 0.04248 0.00828 0.63883 0.0
C298 C 0.00732 0.97 0.63075 0.0
C299 C 0.99283 0.02749 0.53256 0.0
C300 C 0.98531 0.04549 0.52349 0.0
C301 C 0.96743 0.04732 0.50597 0.0
C302 C 0.95974 0.06425 0.50105 0.0
C303 C 0.96987 0.07965 0.5129 0.0
C304 C 0.98785 0.07782 0.52935 0.0
C305 C 0.99549 0.06092 0.53473 0.0
C306 C 0.98166 1.00088 0.7101 0.0
C307 C 0.01619 0.03848 0.72021 0.0
O308 O 0.04139 0.98116 0.76474 0.0
O309 O 0.01819 0.99004 0.81308 0.0
O310 O 0.04623 0.01075 0.69351 0.0
O311 O 0.02824 0.99937 0.63452 0.0
O312 O 0.00984 0.97331 0.68692 0.0
O313 O 0.00701 0.98329 0.59286 0.0
O314 O 0.98255 0.0162 0.56055 0.0
O315 O 0.00944 0.02665 0.55025 0.0
O316 O 0.97753 0.99912 0.65556 0.0
O317 O 0.99636 0.00896 0.71305 0.0
O318 O 0.01054 0.03581 0.66589 0.0
O319 O 0.02002 0.025 0.75543 0.0
H320 H 0.05336 0.94978 0.81633 0.0
H321 H 0.04494 0.91827 0.80817 0.0
H322 H 0.98919 0.93321 0.81263 0.0
H323 H 0.99757 0.96428 0.82222 0.0
H324 H 0.95933 0.03562 0.49684 0.0
H325 H 0.94592 0.0653 0.48755 0.0
H326 H 0.99595 0.08945 0.53909 0.0
H327 H 0.0093 0.06001 0.5485 0.0
La328 La 0.51484 0.0189 0.70949 0.0
La329 La 0.50186 0.9967 0.61214 0.0
C330 C 0.53451 0.02857 0.79188 0.0
C331 C 0.55275 0.02201 0.80322 0.0
C332 C 0.56715 0.03404 0.80456 0.0
C333 C 0.58473 0.02772 0.80318 0.0
C334 C 0.58819 0.00925 0.80033 0.0
C335 C 0.57373 0.99723 0.80146 0.0
C336 C 0.55624 1.00352 0.80282 0.0
C337 C 0.50304 0.03746 0.61981 0.0
C338 C 0.54199 1.00348 0.614 0.0
C339 C 0.48313 0.98359 0.5321 0.0
C340 C 0.46436 0.97743 0.53534 0.0
C341 C 0.46045 0.95908 0.5403 0.0
C342 C 0.44317 0.95335 0.55431 0.0
C343 C 0.42958 0.9659 0.56393 0.0
C344 C 0.43326 0.98415 0.55595 0.0
C345 C 0.45043 0.98986 0.54146 0.0
C346 C 0.51338 0.97848 0.7037 0.0
C347 C 0.47408 0.0127 0.70725 0.0
O348 O 0.53277 0.03786 0.7438 0.0
O349 O 0.52163 0.01682 0.79811 0.0
O350 O 0.50148 0.04243 0.67389 0.0
O351 O 0.51204 0.02324 0.61744 0.0
O352 O 0.53904 0.00714 0.66976 0.0
O353 O 0.52845 1.00133 0.57782 0.0
O354 O 0.49451 0.97422 0.56265 0.0
O355 O 0.48582 1.00081 0.53825 0.0
O356 O 0.5156 0.97353 0.65006 0.0
O357 O 0.50428 0.99258 0.70413 0.0
O358 O 0.4769 0.00525 0.65548 0.0
O359 O 0.48746 0.01811 0.74046 0.0
H360 H 0.5648 0.04833 0.80423 0.0
H361 H 0.59559 0.03732 0.8035 0.0
H362 H 0.57587 0.98294 0.7985 0.0
H363 H 0.54548 0.99385 0.80059 0.0
H364 H 0.4709 0.9492 0.53557 0.0
H365 H 0.44056 0.93918 0.55939 0.0
H366 H 0.42285 0.99406 0.56141 0.0
H367 H 0.45287 1.00409 0.53739 0.0
La368 La 0.49397 0.51417 0.72253 0.0
La369 La 0.51974 0.50419 0.63439 0.0
C370 C 0.47751 0.53114 0.8002 0.0
C371 C 0.46989 0.5493 0.79838 0.0
C372 C 0.4518 0.55195 0.81188 0.0
C373 C 0.44401 0.56878 0.80445 0.0
C374 C 0.45417 0.58318 0.78281 0.0
C375 C 0.47231 0.58053 0.7699 0.0
C376 C 0.4801 0.56381 0.77786 0.0
C377 C 0.47915 0.50146 0.62664 0.0
C378 C 0.50884 0.54378 0.63148 0.0
C379 C 0.53719 0.48722 0.55882 0.0
C380 C 0.54121 0.46795 0.55659 0.0
C381 C 0.55904 0.46216 0.55939 0.0
C382 C 0.56294 0.44414 0.5697 0.0
C383 C 0.54903 0.43176 0.57788 0.0
C384 C 0.53128 0.43738 0.57167 0.0
C385 C 0.52738 0.45528 0.56101 0.0
C386 C 0.53417 0.51674 0.73162 0.0
C387 C 0.50393 0.47456 0.722 0.0
O388 O 0.4698 0.51954 0.76574 0.0
O389 O 0.49496 0.53004 0.79797 0.0
O390 O 0.47353 0.49828 0.67912 0.0
O391 O 0.49237 0.51197 0.62898 0.0
O392 O 0.50029 0.54009 0.6807 0.0
O393 O 0.51659 0.53107 0.60076 0.0
O394 O 0.54458 0.49566 0.60244 0.0
O395 O 0.52045 0.49184 0.55199 0.0
O396 O 0.53962 0.52054 0.67946 0.0
O397 O 0.52117 0.50604 0.72796 0.0
O398 O 0.51039 0.4782 0.66945 0.0
O399 O 0.49888 0.48761 0.75697 0.0
H400 H 0.44364 0.54092 0.82727 0.0
H401 H 0.43002 0.5705 0.81496 0.0
H402 H 0.48057 0.59147 0.75447 0.0
H403 H 0.4941 0.56228 0.76723 0.0
H404 H 0.56991 0.4717 0.55633 0.0
H405 H 0.57674 0.44 0.57357 0.0
H406 H 0.52036 0.42793 0.57617 0.0
H407 H 0.5135 0.45926 0.55892 0.0
La408 La 0.00571 0.49208 0.72207 0.0
La409 La 0.01617 0.51732 0.63152 0.0
C410 C 0.9888 0.47584 0.80057 0.0
C411 C 0.97108 0.46735 0.79783 0.0
C412 C 0.96577 0.45773 0.74799 0.0
C413 C 0.94803 0.45235 0.74117 0.0
C414 C 0.9352 0.45672 0.78362 0.0
C415 C 0.94077 0.4657 0.83456 0.0
C416 C 0.95855 0.4709 0.84161 0.0
C417 C 0.01763 0.47667 0.62585 0.0
C418 C 0.97621 0.50669 0.63143 0.0
C419 C 0.03285 0.5327 0.55025 0.0
C420 C 0.05109 0.54004 0.5455 0.0
C421 C 0.05359 0.55735 0.52344 0.0
C422 C 0.07069 0.56487 0.52103 0.0
C423 C 0.0856 0.55519 0.54074 0.0
C424 C 0.08304 0.53784 0.56294 0.0
C425 C 0.06596 0.53032 0.56521 0.0
C426 C 0.00425 0.53281 0.72783 0.0
C427 C 0.04535 0.50323 0.72383 0.0
O428 O 1.00135 0.4684 0.76923 0.0
O429 O 0.98872 0.49326 0.795 0.0
O430 O 0.02058 0.47096 0.67823 0.0
O431 O 0.00759 0.49015 0.62858 0.0
O432 O 0.97971 0.49902 0.6823 0.0
O433 O 0.98921 0.51328 0.59885 0.0
O434 O 0.02228 0.54106 0.58648 0.0
O435 O 0.03141 0.51531 0.55492 0.0
O436 O 1.00131 0.5385 0.67529 0.0
O437 O 0.01424 0.51929 0.72501 0.0
O438 O 0.042 0.51045 0.67217 0.0
O439 O 0.03229 0.49686 0.75655 0.0
H440 H 0.97515 0.455 0.71309 0.0
H441 H 0.94427 0.44529 0.70176 0.0
H442 H 0.93125 0.46963 0.86771 0.0
H443 H 0.96233 0.47852 0.87992 0.0
H444 H 0.0423 0.56508 0.50817 0.0
H445 H 0.07225 0.57815 0.50278 0.0
H446 H 0.09423 0.53011 0.57896 0.0
H447 H 0.06444 0.51696 0.58274 0.0
H448 H 0.17531 0.03977 0.29594 0.0
H449 H 0.15085 0.04082 0.36619 0.0
H450 H 0.11808 0.00922 0.25075 0.0
H451 H 0.1424 0.00854 0.1791 0.0
H452 H 0.09828 0.03504 0.30973 0.0
H453 H 0.1406 0.98889 0.35603 0.0
H454 H 0.17058 0.97674 0.37567 0.0
H455 H 0.17608 0.01175 0.52312 0.0
H456 H 0.14622 0.02432 0.50378 0.0
H457 H 0.03885 0.99876 0.52423 0.0
H458 H 0.06026 1.00362 0.44482 0.0
H459 H 0.09533 0.03146 0.56357 0.0
H460 H 0.07411 0.02631 0.64325 0.0
H461 H 0.11362 0.0082 0.50139 0.0
H462 H 0.07047 0.05346 0.45813 0.0
H463 H 0.04019 0.06501 0.43952 0.0
H464 H 0.03589 0.03172 0.2875 0.0
H465 H 0.06603 0.0197 0.30583 0.0
C466 C 0.16275 0.03349 0.28446 0.0
C467 C 0.16093 0.02397 0.23179 0.0
C468 C 0.1488 0.03396 0.32509 0.0
C469 C 0.13272 0.02483 0.31427 0.0
C470 C 0.13039 0.01628 0.26024 0.0
C471 C 0.14437 0.0158 0.21948 0.0
C472 C 0.11905 0.02294 0.36121 0.0
C473 C 0.10157 0.02904 0.35147 0.0
C474 C 0.12337 0.01533 0.41604 0.0
C475 C 0.14126 0.00767 0.4281 0.0
C476 C 0.14826 0.99409 0.39238 0.0
C477 C 0.16522 0.98712 0.40349 0.0
C478 C 0.17525 0.9935 0.45052 0.0
C479 C 0.16831 0.00684 0.48664 0.0
C480 C 0.15136 0.01389 0.47565 0.0
C481 C 0.05107 0.00603 0.53323 0.0
C482 C 0.05484 0.01213 0.58993 0.0
C483 C 0.06328 0.00887 0.48774 0.0
C484 C 0.0794 0.01805 0.49793 0.0
C485 C 0.08303 0.02434 0.55452 0.0
C486 C 0.07087 0.02143 0.60001 0.0
C487 C 0.09283 0.02047 0.45039 0.0
C488 C 0.1103 0.01436 0.4599 0.0
C489 C 0.08844 0.02806 0.39551 0.0
C490 C 0.07046 0.03555 0.38366 0.0
C491 C 0.06303 0.04851 0.42093 0.0
C492 C 0.04589 0.05515 0.41043 0.0
C493 C 0.03611 0.04908 0.36242 0.0
C494 C 0.04348 0.0364 0.32471 0.0
C495 C 0.06059 0.02967 0.33512 0.0
H496 H 0.02284 0.05422 0.3544 0.0
H497 H 0.18838 0.98808 0.45905 0.0
H498 H 0.516 0.15728 0.21706 0.0
H499 H 0.51901 0.13113 0.28018 0.0
H500 H 0.46168 0.12722 0.29378 0.0
H501 H 0.45855 0.1532 0.22947 0.0
H502 H 0.50904 0.12928 0.39139 0.0
H503 H 0.45018 0.08327 0.32229 0.0
H504 H 0.43387 0.07484 0.23288 0.0
H505 H 0.47977 0.08817 0.12893 0.0
H506 H 0.49644 0.09644 0.21772 0.0
H507 H 0.48779 0.07048 0.62125 0.0
H508 H 0.48443 0.09134 0.53968 0.0
H509 H 0.50743 0.05248 0.42286 0.0
H510 H 0.51071 0.03145 0.50452 0.0
H511 H 0.47934 0.07019 0.37159 0.0
H512 H 0.53305 0.08551 0.47399 0.0
H513 H 0.55123 0.09301 0.56033 0.0
H514 H 0.51926 0.1397 0.59039 0.0
H515 H 0.50072 0.13233 0.50467 0.0
C516 C 0.50399 0.15057 0.23197 0.0
C517 C 0.48702 0.15738 0.21802 0.0
C518 C 0.50575 0.1357 0.26866 0.0
C519 C 0.49059 0.12717 0.29194 0.0
C520 C 0.4736 0.13345 0.27608 0.0
C521 C 0.47183 0.14838 0.23953 0.0
C522 C 0.49261 0.11269 0.33626 0.0
C523 C 0.50255 0.11636 0.38685 0.0
C524 C 0.48435 0.09572 0.33034 0.0
C525 C 0.47449 0.09065 0.27668 0.0
C526 C 0.45681 0.08435 0.28037 0.0
C527 C 0.4475 0.0796 0.22979 0.0
C528 C 0.45576 0.08102 0.17524 0.0
C529 C 0.47336 0.08714 0.17118 0.0
C530 C 0.48274 0.09189 0.22162 0.0
C531 C 0.49199 0.06631 0.5781 0.0
C532 C 0.49967 0.04939 0.56936 0.0
C533 C 0.4901 0.07827 0.53151 0.0
C534 C 0.4959 0.07359 0.4752 0.0
C535 C 0.50289 0.0564 0.46588 0.0
C536 C 0.50481 0.04442 0.51259 0.0
C537 C 0.49544 0.08698 0.42697 0.0
C538 C 0.48581 0.08312 0.37588 0.0
C539 C 0.50419 0.10373 0.43192 0.0
C540 C 0.51541 0.10828 0.48321 0.0
C541 C 0.52982 0.09731 0.49925 0.0
C542 C 0.5402 0.10154 0.54804 0.0
C543 C 0.53638 0.1168 0.5809 0.0
C544 C 0.5222 0.12788 0.56493 0.0
C545 C 0.51176 0.12368 0.51622 0.0
H546 H 0.54443 0.12006 0.61866 0.0
H547 H 0.44852 0.07735 0.13614 0.0
H548 H 0.34452 0.48744 0.27927 0.0
H549 H 0.36941 0.48181 0.34592 0.0
H550 H 0.40231 0.51876 0.24883 0.0
H551 H 0.37763 0.52409 0.18111 0.0
H552 H 0.42203 0.49059 0.28848 0.0
H553 H 0.38016 0.53272 0.36812 0.0
H554 H 0.35045 0.54331 0.39899 0.0
H555 H 0.34658 0.5001 0.52196 0.0
H556 H 0.37617 0.48909 0.49117 0.0
H557 H 0.4828 0.51622 0.51735 0.0
H558 H 0.46134 0.51457 0.43649 0.0
H559 H 0.42798 0.47928 0.53858 0.0
H560 H 0.44918 0.4811 0.61937 0.0
H561 H 0.40873 0.50559 0.4949 0.0
H562 H 0.45179 0.46442 0.41885 0.0
H563 H 0.48173 0.45443 0.3884 0.0
H564 H 0.48385 0.49616 0.25967 0.0
H565 H 0.45401 0.50658 0.28996 0.0
C566 C 0.35719 0.49399 0.27106 0.0
C567 C 0.35899 0.50637 0.22513 0.0
C568 C 0.37138 0.49089 0.30958 0.0
C569 C 0.38765 0.50013 0.30314 0.0
C570 C 0.38988 0.51155 0.255 0.0
C571 C 0.3757 0.51467 0.21652 0.0
C572 C 0.40175 0.49909 0.34903 0.0
C573 C 0.41917 0.49399 0.33355 0.0
C574 C 0.39803 0.50333 0.40806 0.0
C575 C 0.38028 0.50998 0.42689 0.0
C576 C 0.37291 0.5254 0.40143 0.0
C577 C 0.3561 0.53149 0.41895 0.0
C578 C 0.34661 0.52235 0.46229 0.0
C579 C 0.35393 0.50714 0.48832 0.0
C580 C 0.37072 0.50097 0.47086 0.0
C581 C 0.47101 0.5079 0.52208 0.0
C582 C 0.46761 0.49887 0.57478 0.0
C583 C 0.45877 0.50693 0.47581 0.0
C584 C 0.44299 0.49677 0.48127 0.0
C585 C 0.43996 0.48727 0.53327 0.0
C586 C 0.45214 0.48828 0.5794 0.0
C587 C 0.42905 0.49689 0.4347 0.0
C588 C 0.41162 0.50199 0.45 0.0
C589 C 0.43283 0.49269 0.37565 0.0
C590 C 0.45072 0.48639 0.35707 0.0
C591 C 0.45869 0.47156 0.38436 0.0
C592 C 0.47564 0.4658 0.36708 0.0
C593 C 0.4847 0.47468 0.32223 0.0
C594 C 0.47682 0.48931 0.29446 0.0
C595 C 0.45988 0.49513 0.31163 0.0
H596 H 0.49782 0.4702 0.30891 0.0
H597 H 0.3336 0.52709 0.47582 0.0
H598 H 0.99104 0.36073 0.21859 0.0
H599 H 0.99106 0.38713 0.28135 0.0
H600 H 0.04779 0.38154 0.30742 0.0
H601 H 0.04791 0.35516 0.24388 0.0
H602 H 0.99944 0.38816 0.39576 0.0
H603 H 0.06557 0.4238 0.33194 0.0
H604 H 0.08427 0.42863 0.24458 0.0
H605 H 0.03841 0.4215 0.13449 0.0
H606 H 0.0194 0.41688 0.22117 0.0
H607 H 0.03143 0.44312 0.62164 0.0
H608 H 0.03195 0.42262 0.53863 0.0
H609 H 0.00922 0.46344 0.4287 0.0
H610 H 0.00837 0.48408 0.51237 0.0
H611 H 0.0382 0.44176 0.37536 0.0
H612 H 0.98224 0.43614 0.47553 0.0
H613 H 0.96358 0.43262 0.56348 0.0
H614 H 0.98658 0.381 0.59526 0.0
H615 H 0.00594 0.38451 0.50877 0.0
C616 C 1.00362 0.36534 0.23644 0.0
C617 C 0.0195 0.35582 0.22586 0.0
C618 C 1.00357 0.38036 0.27285 0.0
C619 C 0.01941 0.38638 0.29914 0.0
C620 C 0.03541 0.37727 0.28729 0.0
C621 C 0.03545 0.36213 0.25116 0.0
C622 C 0.01897 0.40146 0.34175 0.0
C623 C 0.00788 0.39989 0.39103 0.0
C624 C 0.0298 0.41692 0.33551 0.0
C625 C 0.0411 0.41981 0.28309 0.0
C626 C 0.05946 0.42332 0.28911 0.0
C627 C 0.07012 0.42602 0.2397 0.0
C628 C 0.06254 0.42531 0.18402 0.0
C629 C 0.04428 0.42197 0.17763 0.0
C630 C 0.03356 0.41928 0.22689 0.0
C631 C 0.02672 0.44784 0.57969 0.0
C632 C 0.01972 0.46517 0.57362 0.0
C633 C 0.02704 0.4361 0.53227 0.0
C634 C 0.02053 0.44146 0.4776 0.0
C635 C 0.01434 0.45905 0.47052 0.0
C636 C 0.01381 0.47079 0.51832 0.0
C637 C 0.01901 0.42816 0.42958 0.0
C638 C 0.02972 0.43005 0.37963 0.0
C639 C 0.00769 0.41305 0.4348 0.0
C640 C 0.99568 0.41066 0.48589 0.0
C641 C 0.98345 0.4241 0.50152 0.0
C642 C 0.97273 0.4221 0.55111 0.0
C643 C 0.97385 0.40658 0.58483 0.0
C644 C 0.98572 0.39302 0.56908 0.0
C645 C 0.99661 0.39503 0.51985 0.0
H646 H 0.96552 0.40506 0.62317 0.0
H647 H 0.07082 0.4274 0.14583 0.0
H648 H 0.84364 0.0101 0.03582 0.0
H649 H 0.86857 0.01022 0.96656 0.0
H650 H 0.9048 0.99601 0.105 0.0
H651 H 0.87973 0.99547 0.17466 0.0
H652 H 0.91507 0.02666 0.01265 0.0
H653 H 0.89744 0.96433 0.0375 0.0
H654 H 0.87509 0.94008 0.04153 0.0
H655 H 0.8587 0.95218 0.86632 0.0
H656 H 0.88078 0.97671 0.86166 0.0
H657 H 0.98775 0.00623 0.82644 0.0
H658 H 0.96603 0.00548 0.90607 0.0
H659 H 0.9241 0.99371 0.78255 0.0
H660 H 0.94608 0.99316 0.70356 0.0
H661 H 0.91744 0.97592 0.87332 0.0
H662 H 0.93318 0.0374 0.84355 0.0
H663 H 0.95375 0.06308 0.83434 0.0
H664 H 0.97135 0.05521 0.01081 0.0
H665 H 0.9511 0.02929 0.02077 0.0
C666 C 0.85696 0.00733 0.05182 0.0
C667 C 0.85974 1.00287 0.1108 0.0
C668 C 0.87117 0.00733 0.01212 0.0
C669 C 0.88851 1.00314 0.03067 0.0
C670 C 0.89151 0.99935 0.08991 0.0
C671 C 0.8772 0.99899 0.12955 0.0
C672 C 0.90316 1.00166 0.98714 0.0
C673 C 0.91583 0.01545 0.98272 0.0
C674 C 0.90374 0.98733 0.94697 0.0
C675 C 0.89062 0.97247 0.94949 0.0
C676 C 0.88895 0.96193 1.00006 0.0
C677 C 0.87636 0.94811 0.00241 0.0
C678 C 0.86544 0.94462 0.95427 0.0
C679 C 0.86714 0.95491 0.90361 0.0
C680 C 0.8797 0.96877 0.90108 0.0
C681 C 0.97397 1.00315 0.81647 0.0
C682 C 0.96865 0.99968 0.75876 0.0
C683 C 0.96146 1.00298 0.86198 0.0
C684 C 0.94324 0.99996 0.85054 0.0
C685 C 0.93802 0.99612 0.79288 0.0
C686 C 0.95059 0.99587 0.7476 0.0
C687 C 0.92957 1.00098 0.89815 0.0
C688 C 0.91693 0.98713 0.9033 0.0
C689 C 0.92882 0.01548 0.93817 0.0
C690 C 0.94074 0.03129 0.93271 0.0
C691 C 0.9415 0.04109 0.8803 0.0
C692 C 0.95311 0.05569 0.87493 0.0
C693 C 0.96388 0.06074 0.9219 0.0
C694 C 0.96302 0.05126 0.97442 0.0
C695 C 0.95147 0.03662 0.97997 0.0
H696 H 0.97286 0.07204 0.91766 0.0
H697 H 0.8557 0.93391 0.95616 0.0
H698 H 0.53238 0.84546 0.0521 0.0
H699 H 0.5354 0.87044 0.98402 0.0
H700 H 0.50011 0.90207 0.0911 0.0
H701 H 0.4968 0.87692 0.15878 0.0
H702 H 0.48998 0.90468 0.98393 0.0
H703 H 0.54652 0.91076 0.07778 0.0
H704 H 0.57578 0.90115 0.11557 0.0
H705 H 0.59242 0.88701 0.94225 0.0
H706 H 0.56315 0.8963 0.90349 0.0
H707 H 0.50171 0.98358 0.81556 0.0
H708 H 0.50391 0.96272 0.89781 0.0
H709 H 0.53323 0.92582 0.78965 0.0
H710 H 0.53116 0.94671 0.70739 0.0
H711 H 0.54693 0.92756 0.90156 0.0
H712 H 0.48925 0.91999 0.81037 0.0
H713 H 0.46018 0.93053 0.77354 0.0
H714 H 0.446 0.9485 0.9454 0.0
H715 H 0.47511 0.93828 0.9831 0.0
C716 C 0.5256 0.85787 0.06193 0.0
C717 C 0.51438 0.85918 0.11103 0.0
C718 C 0.52732 0.8722 0.02283 0.0
C719 C 0.51809 0.8883 0.03235 0.0
C720 C 0.50734 0.88982 0.08245 0.0
C721 C 0.50548 0.87543 0.12125 0.0
C722 C 0.5187 0.90306 0.98824 0.0
C723 C 0.50248 0.90988 0.96689 0.0
C724 C 0.53494 0.9097 0.96467 0.0
C725 C 0.55257 0.90408 0.98781 0.0
C726 C 0.55636 0.90547 0.04777 0.0
C727 C 0.57296 0.9001 0.06936 0.0
C728 C 0.58594 0.89344 0.03135 0.0
C729 C 0.58235 0.89216 0.97165 0.0
C730 C 0.56576 0.89749 0.94984 0.0
C731 C 0.5088 0.97111 0.80954 0.0
C732 C 0.51612 0.96669 0.75491 0.0
C733 C 0.51 0.95917 0.85652 0.0
C734 C 0.51853 0.94257 0.84977 0.0
C735 C 0.52655 0.93851 0.79593 0.0
C736 C 0.5253 0.95042 0.74888 0.0
C737 C 0.51826 0.92903 0.89762 0.0
C738 C 0.53449 0.92242 0.91931 0.0
C739 C 0.50204 0.92265 0.92184 0.0
C740 C 0.48443 0.92854 0.89942 0.0
C741 C 0.47998 0.92629 0.84023 0.0
C742 C 0.46349 0.9322 0.8192 0.0
C743 C 0.45127 0.94023 0.85707 0.0
C744 C 0.45549 0.9423 0.9161 0.0
C745 C 0.47198 0.93645 0.93733 0.0
H746 H 0.43852 0.9448 0.8407 0.0
H747 H 0.59879 0.88929 0.04815 0.0
H748 H 0.64573 0.50068 0.16707 0.0
H749 H 0.61863 0.50099 0.10712 0.0
H750 H 0.64284 0.53992 0.99261 0.0
H751 H 0.66985 0.53963 0.05172 0.0
H752 H 0.6089 0.54829 0.01085 0.0
H753 H 0.64113 0.49469 0.9598 0.0
H754 H 0.65552 0.46561 0.97842 0.0
H755 H 0.60578 0.44426 0.04126 0.0
H756 H 0.59116 0.47332 0.02385 0.0
H757 H 0.5636 0.53779 0.74242 0.0
H758 H 0.58468 0.53901 0.8237 0.0
H759 H 0.55236 0.50125 0.91966 0.0
H760 H 0.53118 0.49992 0.83783 0.0
H761 H 0.58728 0.49187 0.92135 0.0
H762 H 0.55435 0.5448 0.96193 0.0
H763 H 0.54005 0.5737 0.9402 0.0
H764 H 0.59102 0.59626 0.89501 0.0
H765 H 0.6056 0.5674 0.91562 0.0
C766 C 0.64527 0.50935 0.12921 0.0
C767 C 0.66006 0.52015 0.11452 0.0
C768 C 0.62974 0.5095 0.0949 0.0
C769 C 0.62869 0.52034 0.04479 0.0
C770 C 0.64322 0.53149 0.03107 0.0
C771 C 0.65869 0.53137 0.06529 0.0
C772 C 0.61279 0.51982 0.00539 0.0
C773 C 0.60426 0.53595 0.99104 0.0
C774 C 0.60632 0.50368 0.98058 0.0
C775 C 0.61512 0.48625 0.99129 0.0
C776 C 0.63331 0.48384 0.97813 0.0
C777 C 0.64149 0.46736 0.98837 0.0
C778 C 0.63159 0.45312 0.01122 0.0
C779 C 0.61345 0.45532 0.02373 0.0
C780 C 0.60521 0.47179 0.0137 0.0
C781 C 0.56085 0.52992 0.78113 0.0
C782 C 0.54573 0.51877 0.78374 0.0
C783 C 0.5729 0.53067 0.82773 0.0
C784 C 0.57009 0.52033 0.87818 0.0
C785 C 0.55481 0.50938 0.88131 0.0
C786 C 0.54267 0.5087 0.83468 0.0
C787 C 0.58364 0.52038 0.92601 0.0
C788 C 0.59174 0.50417 0.94185 0.0
C789 C 0.58975 0.53645 0.95207 0.0
C790 C 0.58105 0.55388 0.93995 0.0
C791 C 0.5625 0.55588 0.94696 0.0
C792 C 0.55434 0.57227 0.9349 0.0
C793 C 0.56462 0.5868 0.91613 0.0
C794 C 0.58308 0.58499 0.90952 0.0
C795 C 0.5913 0.56862 0.92146 0.0
H796 H 0.55828 0.59948 0.90681 0.0
H797 H 0.63795 0.44036 0.01906 0.0
H798 H 0.01285 0.66915 0.04505 0.0
H799 H 0.01151 0.64285 0.98196 0.0
H800 H 0.0049 0.60895 0.13265 0.0
H801 H 0.00592 0.63546 0.1966 0.0
H802 H 0.03255 0.59866 0.02944 0.0
H803 H 0.97073 0.61189 0.07707 0.0
H804 H 0.94519 0.63233 0.08888 0.0
H805 H 0.94922 0.64755 0.90854 0.0
H806 H 0.97499 0.6274 0.89593 0.0
H807 H 0.01225 0.5249 0.84186 0.0
H808 H 0.01206 0.5454 0.92556 0.0
H809 H 0.99397 0.58804 0.81325 0.0
H810 H 0.99333 0.56747 0.7308 0.0
H811 H 0.97787 0.59143 0.90944 0.0
H812 H 0.03951 0.58163 0.8591 0.0
H813 H 0.06641 0.56346 0.84116 0.0
H814 H 0.06479 0.54429 0.01784 0.0
H815 H 0.03771 0.56215 0.03657 0.0
C816 C 0.01141 0.65609 0.06503 0.0
C817 C 0.00963 0.6544 0.12597 0.0
C818 C 0.01057 0.64108 0.02882 0.0
C819 C 0.00816 0.62396 0.05259 0.0
C820 C 0.00686 0.62206 0.11349 0.0
C821 C 0.00737 0.63719 0.14989 0.0
C822 C 0.00603 0.60838 0.01282 0.0
C823 C 0.02048 0.59677 0.00401 0.0
C824 C 0.9905 0.60631 0.97843 0.0
C825 C 0.97488 0.61827 0.98573 0.0
C826 C 0.96627 0.61972 0.04008 0.0
C827 C 0.95174 0.63123 0.04689 0.0
C828 C 0.94561 0.64127 0.99953 0.0
C829 C 0.95399 0.63978 0.94521 0.0
C830 C 0.96855 0.62831 0.9382 0.0
C831 C 0.00804 0.53861 0.83539 0.0
C832 C 1.00289 0.54459 0.77972 0.0
C833 C 0.00807 0.55038 0.88314 0.0
C834 C 1.00334 0.56846 0.87585 0.0
C835 C 0.9977 0.57422 0.82042 0.0
C836 C 0.99738 0.56243 0.77309 0.0
C837 C 0.0045 0.58161 0.92501 0.0
C838 C 0.98988 0.59295 0.93541 0.0
C839 C 0.02005 0.58361 0.95996 0.0
C840 C 0.03647 0.57306 0.94903 0.0
C841 C 0.04483 0.57345 0.89402 0.0
C842 C 0.06011 0.56321 0.88371 0.0
C843 C 0.06727 0.55268 0.92828 0.0
C844 C 0.05921 0.55242 0.98332 0.0
C845 C 0.04389 0.5626 0.99381 0.0
H846 H 0.07909 0.54475 0.9202 0.0
H847 H 0.93436 0.65017 0.00488 0.0
H848 H 0.97182 0.23327 0.40829 0.0
H849 H 0.9654 0.20738 0.4688 0.0
H850 H 0.91062 0.20773 0.41004 0.0
H851 H 0.91734 0.23334 0.34672 0.0
H852 H 0.94618 0.19271 0.54895 0.0
H853 H 0.89862 0.16633 0.37346 0.0
H854 H 0.8902 0.17229 0.27101 0.0
H855 H 0.94299 0.19223 0.23591 0.0
H856 H 0.95172 0.1862 0.33789 0.0
H857 H 0.93723 0.09084 0.55304 0.0
H858 H 0.92456 0.12108 0.54607 0.0
H859 H 0.97201 0.13916 0.45687 0.0
H860 H 0.9843 0.10896 0.46083 0.0
H861 H 0.92967 0.14419 0.41137 0.0
H862 H 0.97687 0.17651 0.57581 0.0
H863 H 0.99061 0.17064 0.6718 0.0
H864 H 0.94609 0.13739 0.71944 0.0
H865 H 0.93189 0.1434 0.62436 0.0
C866 C 0.95822 0.2283 0.40996 0.0
C867 C 0.94515 0.23506 0.37209 0.0
C868 C 0.95453 0.21346 0.44475 0.0
C869 C 0.93766 0.20526 0.44264 0.0
C870 C 0.92387 0.21358 0.41116 0.0
C871 C 0.92768 0.22822 0.37518 0.0
C872 C 0.93589 0.18653 0.46342 0.0
C873 C 0.94224 0.1821 0.51929 0.0
C874 C 0.93075 0.17262 0.4248 0.0
C875 C 0.9257 0.17605 0.36331 0.0
C876 C 0.9084 0.17195 0.34376 0.0
C877 C 0.90359 0.17534 0.28583 0.0
C878 C 0.91603 0.1827 0.24705 0.0
C879 C 0.93335 0.18658 0.26601 0.0
C880 C 0.93823 0.18318 0.32383 0.0
C881 C 0.94486 0.10127 0.53154 0.0
C882 C 0.96183 0.09764 0.50795 0.0
C883 C 0.93771 0.11851 0.5283 0.0
C884 C 0.94761 0.13232 0.5024 0.0
C885 C 0.96438 0.12866 0.47808 0.0
C886 C 0.97136 0.11145 0.48036 0.0
C887 C 0.94034 0.15048 0.49602 0.0
C888 C 0.93258 0.1548 0.44231 0.0
C889 C 0.94482 0.1642 0.53575 0.0
C890 C 0.95339 0.16027 0.59269 0.0
C891 C 0.96998 0.16799 0.60684 0.0
C892 C 0.97782 0.1647 0.66117 0.0
C893 C 0.96919 0.15371 0.70176 0.0
C894 C 0.95276 0.14591 0.68796 0.0
C895 C 0.94483 0.14921 0.63377 0.0
H896 H 0.97527 0.1512 0.74381 0.0
H897 H 0.91227 0.18535 0.20227 0.0
H898 H 0.29695 0.93994 0.36298 0.0
H899 H 0.31639 0.93565 0.44673 0.0
H900 H 0.29101 0.97984 0.53487 0.0
H901 H 0.27198 0.98467 0.44968 0.0
H902 H 0.32446 0.98579 0.52904 0.0
H903 H 0.29224 0.93713 0.60005 0.0
H904 H 0.27442 0.90937 0.59972 0.0
H905 H 0.31916 0.88036 0.53117 0.0
H906 H 0.33719 0.90796 0.53016 0.0
H907 H 0.4088 0.97893 0.65182 0.0
H908 H 0.37657 0.97467 0.66315 0.0
H909 H 0.37708 0.93602 0.52343 0.0
H910 H 0.40925 0.9402 0.5122 0.0
H911 H 0.35007 0.92892 0.60217 0.0
H912 H 0.37531 0.98192 0.49806 0.0
H913 H 0.3935 0.00948 0.50118 0.0
H914 H 0.36021 0.03026 0.63791 0.0
H915 H 0.3418 1.00283 0.63519 0.0
C916 C 0.29526 0.94852 0.40065 0.0
C917 C 0.28317 0.96283 0.39927 0.0
C918 C 0.30619 0.94588 0.4491 0.0
C919 C 0.30514 0.95737 0.49751 0.0
C920 C 0.29203 0.97076 0.49817 0.0
C921 C 0.28112 0.97347 0.44947 0.0
C922 C 0.31993 0.95748 0.54064 0.0
C923 C 0.32967 0.97343 0.54696 0.0
C924 C 0.32679 0.94145 0.56459 0.0
C925 C 0.31609 0.92468 0.56509 0.0
C926 C 0.29827 0.92486 0.58459 0.0
C927 C 0.28812 0.90914 0.58467 0.0
C928 C 0.29565 0.89311 0.56546 0.0
C929 C 0.31335 0.89277 0.54617 0.0
C930 C 0.32356 0.90846 0.54599 0.0
C931 C 0.40205 0.96916 0.62476 0.0
C932 C 0.41133 0.96021 0.58015 0.0
C933 C 0.38371 0.96658 0.63177 0.0
C934 C 0.3744 0.95524 0.59361 0.0
C935 C 0.38401 0.94485 0.55339 0.0
C936 C 0.40237 0.94731 0.54671 0.0
C937 C 0.35484 0.95686 0.58607 0.0
C938 C 0.3443 0.94133 0.58664 0.0
C939 C 0.3471 0.97329 0.56876 0.0
C940 C 0.35743 0.99022 0.56736 0.0
C941 C 0.37188 0.99239 0.5287 0.0
C942 C 0.38222 0.00798 0.53037 0.0
C943 C 0.37809 0.02157 0.56997 0.0
C944 C 0.36346 0.01969 0.60747 0.0
C945 C 0.35307 1.00413 0.6059 0.0
H946 H 0.38616 0.03359 0.57143 0.0
H947 H 0.28777 0.88096 0.56553 0.0
H948 H 0.5553 0.29547 0.37558 0.0
H949 H 0.56269 0.31468 0.45741 0.0
H950 H 0.5153 0.2969 0.54831 0.0
H951 H 0.50736 0.27818 0.46451 0.0
H952 H 0.51484 0.33074 0.54197 0.0
H953 H 0.55842 0.29165 0.61037 0.0
H954 H 0.58304 0.26987 0.6081 0.0
H955 H 0.61807 0.30973 0.53603 0.0
H956 H 0.59362 0.3317 0.53692 0.0
H957 H 0.53515 0.41248 0.66746 0.0
H958 H 0.53546 0.37989 0.67803 0.0
H959 H 0.57102 0.37613 0.5301 0.0
H960 H 0.57097 0.40871 0.52051 0.0
H961 H 0.57545 0.34773 0.60997 0.0
H962 H 0.52632 0.38029 0.50895 0.0
H963 H 0.50169 0.40215 0.51214 0.0
H964 H 0.47691 0.37269 0.65144 0.0
H965 H 0.50165 0.35086 0.64969 0.0
C966 C 0.5466 0.29541 0.4134 0.0
C967 C 0.53057 0.28562 0.41316 0.0
C968 C 0.551 0.30618 0.46081 0.0
C969 C 0.53964 0.30718 0.50952 0.0
C970 C 0.52431 0.2963 0.51134 0.0
C971 C 0.51982 0.28557 0.46352 0.0
C972 C 0.54213 0.322 0.55186 0.0
C973 C 0.52796 0.33406 0.55887 0.0
C974 C 0.5592 0.32646 0.57428 0.0
C975 C 0.57412 0.31337 0.57382 0.0
C976 C 0.57134 0.29577 0.59377 0.0
C977 C 0.58528 0.28338 0.59274 0.0
C978 C 0.60211 0.28841 0.57197 0.0
C979 C 0.60503 0.30586 0.55224 0.0
C980 C 0.59114 0.31831 0.55316 0.0
C981 C 0.54345 0.40465 0.63856 0.0
C982 C 0.55269 0.41291 0.59242 0.0
C983 C 0.54374 0.3861 0.64484 0.0
C984 C 0.55299 0.37561 0.60412 0.0
C985 C 0.5638 0.384 0.56199 0.0
C986 C 0.56368 0.40259 0.55621 0.0
C987 C 0.54846 0.35652 0.59624 0.0
C988 C 0.5622 0.34382 0.59569 0.0
C989 C 0.53095 0.35132 0.58021 0.0
C990 C 0.51586 0.3641 0.57971 0.0
C991 C 0.51563 0.37853 0.54035 0.0
C992 C 0.5017 0.39093 0.542 0.0
C993 C 0.4878 0.38886 0.58224 0.0
C994 C 0.48775 0.37433 0.62064 0.0
C995 C 0.50172 0.36196 0.61939 0.0
H996 H 0.47704 0.39849 0.58354 0.0
H997 H 0.61288 0.27879 0.57117 0.0
H998 H 0.20552 0.58621 0.24409 0.0
H999 H 0.18191 0.59065 0.3145 0.0
H1000 H 0.2208 0.60324 0.4472 0.0
H1001 H 0.24487 0.59907 0.37583 0.0
H1002 H 0.1992 0.57767 0.48333 0.0
H1003 H 0.19006 0.63502 0.40712 0.0
H1004 H 0.18727 0.65874 0.33293 0.0
H1005 H 0.14062 0.63303 0.26309 0.0
H1006 H 0.14326 0.60901 0.33623 0.0
H1007 H 0.09648 0.58947 0.56471 0.0
H1008 H 0.12589 0.60271 0.54585 0.0
H1009 H 0.14505 0.55156 0.48561 0.0
H1010 H 0.11585 0.53836 0.50402 0.0
H1011 H 0.1408 0.60645 0.44452 0.0
H1012 H 0.18777 0.54635 0.50228 0.0
H1013 H 0.19203 0.5247 0.58227 0.0
H1014 H 0.16464 0.55971 0.70054 0.0
H1015 H 0.16025 0.58161 0.62136 0.0
C1016 C 0.20918 0.59064 0.28746 0.0
C1017 C 0.22719 0.59229 0.30408 0.0
C1018 C 0.19556 0.59315 0.32794 0.0
C1019 C 0.19954 0.59744 0.38609 0.0
C1020 C 0.21743 0.59998 0.40247 0.0
C1021 C 0.23116 0.59752 0.3617 0.0
C1022 C 0.18504 0.59671 0.43016 0.0
C1023 C 0.1865 0.58419 0.47558 0.0
C1024 C 0.16866 0.6057 0.42142 0.0
C1025 C 0.16687 0.62018 0.37733 0.0
C1026 C 0.17925 0.63437 0.37579 0.0
C1027 C 0.17769 0.64788 0.3339 0.0
C1028 C 0.16377 0.6474 0.29334 0.0
C1029 C 0.15137 0.63341 0.29462 0.0
C1030 C 0.15287 0.61986 0.3364 0.0
C1031 C 0.10705 0.58103 0.54798 0.0
C1032 C 0.10382 0.56288 0.53556 0.0
C1033 C 0.12386 0.58859 0.53763 0.0
C1034 C 0.13776 0.57811 0.51496 0.0
C1035 C 0.13471 0.55985 0.50449 0.0
C1036 C 0.11795 0.5523 0.51483 0.0
C1037 C 0.15466 0.58646 0.49474 0.0
C1038 C 0.15363 0.60038 0.45372 0.0
C1039 C 0.1715 0.57902 0.50835 0.0
C1040 C 0.17369 0.56564 0.55578 0.0
C1041 C 0.18271 0.54947 0.54539 0.0
C1042 C 0.18513 0.53714 0.59058 0.0
C1043 C 0.17869 0.54087 0.6465 0.0
C1044 C 0.16966 0.55686 0.65721 0.0
C1045 C 0.16712 0.5692 0.61211 0.0
H1046 H 0.18061 0.53132 0.68147 0.0
H1047 H 0.1626 0.65787 0.26092 0.0
H1048 H 0.99107 0.76054 0.89325 0.0
H1049 H 0.99684 0.78014 0.81019 0.0
H1050 H 0.95648 0.81656 0.87242 0.0
H1051 H 0.94968 0.7964 0.95264 0.0
H1052 H 0.96076 0.82154 0.7601 0.0
H1053 H 1.00169 0.81618 0.93061 0.0
H1054 H 0.02236 0.79873 0.9922 0.0
H1055 H 0.05372 0.78562 0.84111 0.0
H1056 H 0.03306 0.80283 0.7787 0.0
H1057 H 0.98772 0.90468 0.85207 0.0
H1058 H 0.97895 0.87403 0.83141 0.0
H1059 H 0.02441 0.86793 0.71764 0.0
H1060 H 0.03288 0.89911 0.73548 0.0
H1061 H 0.02207 0.84254 0.806 0.0
H1062 H 0.9857 0.86459 0.65757 0.0
H1063 H 0.96437 0.88398 0.60635 0.0
H1064 H 0.92307 0.86859 0.7264 0.0
H1065 H 0.94418 0.8491 0.77853 0.0
C1066 C 0.98279 0.77226 0.88773 0.0
C1067 C 0.97036 0.77727 0.93087 0.0
C1068 C 0.98621 0.78355 0.84028 0.0
C1069 C 0.97765 0.80019 0.83645 0.0
C1070 C 0.96352 0.80394 0.87484 0.0
C1071 C 0.95981 0.79251 0.92138 0.0
C1072 C 0.98556 0.81518 0.8026 0.0
C1073 C 0.97422 0.82611 0.76937 0.0
C1074 C 1.00338 0.82082 0.81273 0.0
C1075 C 0.01583 0.81061 0.85009 0.0
C1076 C 0.013 0.80953 0.91066 0.0
C1077 C 0.02468 0.79968 0.94565 0.0
C1078 C 0.03933 0.79105 0.92057 0.0
C1079 C 0.04235 0.79228 0.86045 0.0
C1080 C 0.03067 0.80207 0.82525 0.0
C1081 C 0.99565 0.89707 0.8214 0.0
C1082 C 0.01108 0.90442 0.79575 0.0
C1083 C 0.99057 0.87952 0.80946 0.0
C1084 C 1.00086 0.86884 0.77213 0.0
C1085 C 0.01619 0.87606 0.74596 0.0
C1086 C 0.02116 0.89378 0.75714 0.0
C1087 C 0.99674 0.84955 0.76813 0.0
C1088 C 0.00888 0.83775 0.79395 0.0
C1089 C 0.97951 0.84341 0.75254 0.0
C1090 C 0.96661 0.85521 0.72171 0.0
C1091 C 0.9721 0.86531 0.67305 0.0
C1092 C 0.96003 0.87636 0.64387 0.0
C1093 C 0.94237 0.87753 0.66303 0.0
C1094 C 0.93675 0.86762 0.71144 0.0
C1095 C 0.94877 0.8565 0.74069 0.0
H1096 H 0.93304 0.88612 0.6404 0.0
H1097 H 0.04836 0.78342 0.94772 0.0
H1098 H 0.71494 0.93582 0.97562 0.0
H1099 H 0.69383 0.94291 0.89848 0.0
H1100 H 0.72927 0.98414 0.83447 0.0
H1101 H 0.75004 0.97771 0.91357 0.0
H1102 H 0.69943 0.99822 0.86095 0.0
H1103 H 0.71412 0.9494 0.74304 0.0
H1104 H 0.72216 0.91859 0.71568 0.0
H1105 H 0.67136 0.89966 0.77746 0.0
H1106 H 0.66309 0.93029 0.80612 0.0
H1107 H 0.61576 0.02308 0.73511 0.0
H1108 H 0.64666 0.01243 0.73075 0.0
H1109 H 0.6332 0.96912 0.8473 0.0
H1110 H 0.60256 0.97982 0.85306 0.0
H1111 H 0.65688 0.95893 0.75593 0.0
H1112 H 0.64926 0.00678 0.90272 0.0
H1113 H 0.64149 0.03767 0.93062 0.0
H1114 H 0.68016 0.05812 0.80895 0.0
H1115 H 0.688 0.02732 0.77988 0.0
C1116 C 0.71846 0.94607 0.94418 0.0
C1117 C 0.73395 0.95646 0.95158 0.0
C1118 C 0.70647 0.94998 0.89942 0.0
C1119 C 0.7099 0.96415 0.86061 0.0
C1120 C 0.72632 0.97319 0.86397 0.0
C1121 C 0.73825 0.96939 0.90911 0.0
C1122 C 0.69495 0.97174 0.82612 0.0
C1123 C 0.69047 0.98972 0.83608 0.0
C1124 C 0.68314 0.96076 0.7938 0.0
C1125 C 0.68799 0.94221 0.77686 0.0
C1126 C 0.70469 0.93866 0.7512 0.0
C1127 C 0.70929 0.92122 0.73539 0.0
C1128 C 0.69728 0.90718 0.74484 0.0
C1129 C 0.68064 0.91056 0.77009 0.0
C1130 C 0.67597 0.92798 0.786 0.0
C1131 C 0.61941 0.01132 0.75997 0.0
C1132 C 0.60674 1.00244 0.7951 0.0
C1133 C 0.63699 0.00515 0.75679 0.0
C1134 C 0.64216 0.99 0.78869 0.0
C1135 C 0.6294 0.98073 0.82185 0.0
C1136 C 0.61189 0.9869 0.82523 0.0
C1137 C 0.66115 0.98487 0.79392 0.0
C1138 C 0.66628 0.96748 0.77849 0.0
C1139 C 0.67366 0.99636 0.82085 0.0
C1140 C 0.66904 0.01481 0.83865 0.0
C1141 C 0.65601 0.01788 0.88168 0.0
C1142 C 0.65161 0.03536 0.89773 0.0
C1143 C 0.66029 0.04985 0.87143 0.0
C1144 C 0.67342 0.04689 0.82917 0.0
C1145 C 0.67785 0.02943 0.81289 0.0
H1146 H 0.65686 0.06337 0.88392 0.0
H1147 H 0.70087 0.89368 0.73257 0.0
H1148 H 0.4716 0.70524 0.01219 0.0
H1149 H 0.46551 0.68579 0.9297 0.0
H1150 H 0.42675 0.72339 0.86422 0.0
H1151 H 0.43276 0.74311 0.94825 0.0
H1152 H 0.41411 0.68888 0.86398 0.0
H1153 H 0.46306 0.71871 0.7892 0.0
H1154 H 0.49242 0.73343 0.78181 0.0
H1155 H 0.51852 0.68319 0.81085 0.0
H1156 H 0.48939 0.66817 0.81996 0.0
H1157 H 0.45778 0.60684 0.69219 0.0
H1158 H 0.45004 0.63863 0.69289 0.0
H1159 H 0.4263 0.63214 0.86354 0.0
H1160 H 0.43358 0.60054 0.86222 0.0
H1161 H 0.46466 0.66039 0.75986 0.0
H1162 H 0.39905 0.66256 0.9037 0.0
H1163 H 0.36919 0.64869 0.90209 0.0
H1164 H 0.37511 0.63713 0.71955 0.0
H1165 H 0.40491 0.6512 0.71968 0.0
C1166 C 0.46171 0.70937 0.98046 0.0
C1167 C 0.45248 0.72556 0.9869 0.0
C1168 C 0.45842 0.69836 0.93288 0.0
C1169 C 0.44589 0.70329 0.89039 0.0
C1170 C 0.43659 0.71947 0.89637 0.0
C1171 C 0.44002 0.73067 0.94415 0.0
C1172 C 0.44205 0.69058 0.84261 0.0
C1173 C 0.42502 0.68276 0.84015 0.0
C1174 C 0.45612 0.6833 0.80901 0.0
C1175 C 0.47388 0.69227 0.80518 0.0
C1176 C 0.47503 0.7108 0.79479 0.0
C1177 C 0.49167 0.7192 0.79014 0.0
C1178 C 0.50732 0.70925 0.7958 0.0
C1179 C 0.50638 0.69087 0.80631 0.0
C1180 C 0.48978 0.6824 0.81109 0.0
C1181 C 0.45045 0.61217 0.72905 0.0
C1182 C 0.44643 0.6013 0.77749 0.0
C1183 C 0.44596 0.6303 0.72927 0.0
C1184 C 0.43749 0.63786 0.77808 0.0
C1185 C 0.43238 0.62666 0.82458 0.0
C1186 C 0.43669 0.60854 0.82409 0.0
C1187 C 0.43721 0.65754 0.78664 0.0
C1188 C 0.45349 0.66677 0.78151 0.0
C1189 C 0.42236 0.66629 0.81197 0.0
C1190 C 0.40428 0.658 0.8117 0.0
C1191 C 0.39394 0.65725 0.86301 0.0
C1192 C 0.37703 0.64929 0.86241 0.0
C1193 C 0.37025 0.64204 0.81076 0.0
C1194 C 0.38038 0.64274 0.75956 0.0
C1195 C 0.3973 0.65068 0.7599 0.0
H1196 H 0.35716 0.63587 0.81041 0.0
H1197 H 0.52019 0.71578 0.79203 0.0
H1198 H 0.81137 0.51739 0.91306 0.0
H1199 H 0.83007 0.50573 0.83552 0.0
H1200 H 0.7911 0.4644 0.80079 0.0
H1201 H 0.77266 0.47565 0.88094 0.0
H1202 H 0.81993 0.44922 0.81946 0.0
H1203 H 0.80735 0.49289 0.68259 0.0
H1204 H 0.80022 0.52205 0.6381 0.0
H1205 H 0.85062 0.54312 0.69542 0.0
H1206 H 0.85815 0.51409 0.73978 0.0
H1207 H 0.91707 0.45965 0.6799 0.0
H1208 H 0.88477 0.46058 0.66656 0.0
H1209 H 0.87731 0.44898 0.84942 0.0
H1210 H 0.90938 0.44711 0.86252 0.0
H1211 H 0.86434 0.48358 0.70422 0.0
H1212 H 0.83953 0.43322 0.88663 0.0
H1213 H 0.84554 0.40209 0.91557 0.0
H1214 H 0.86661 0.39101 0.74506 0.0
H1215 H 0.86047 0.42201 0.71462 0.0
C1216 C 0.80659 0.50606 0.88803 0.0
C1217 C 0.79078 0.49718 0.90395 0.0
C1218 C 0.81716 0.49955 0.84277 0.0
C1219 C 0.81205 0.48413 0.81184 0.0
C1220 C 0.79537 0.47629 0.82396 0.0
C1221 C 0.7848 0.48277 0.86968 0.0
C1222 C 0.82579 0.4744 0.77749 0.0
C1223 C 0.82947 0.45661 0.79319 0.0
C1224 C 0.83779 0.48354 0.74013 0.0
C1225 C 0.83332 0.50124 0.71451 0.0
C1226 C 0.8169 0.50375 0.6859 0.0
C1227 C 0.81282 0.52025 0.66044 0.0
C1228 C 0.825 0.5344 0.66368 0.0
C1229 C 0.84127 0.53209 0.69247 0.0
C1230 C 0.84549 0.51558 0.7175 0.0
C1231 C 0.90856 0.45666 0.71688 0.0
C1232 C 0.91586 0.45367 0.77268 0.0
C1233 C 0.89007 0.45725 0.70906 0.0
C1234 C 0.87851 0.45476 0.75662 0.0
C1235 C 0.88581 0.45059 0.81148 0.0
C1236 C 0.90425 0.44984 0.81926 0.0
C1237 C 0.85924 0.45923 0.75204 0.0
C1238 C 0.85452 0.47592 0.72853 0.0
C1239 C 0.84601 0.44878 0.78017 0.0
C1240 C 0.84949 0.43001 0.79826 0.0
C1241 C 0.84526 0.42413 0.85501 0.0
C1242 C 0.84875 0.4065 0.87177 0.0
C1243 C 0.85645 0.39458 0.83218 0.0
C1244 C 0.86067 0.40027 0.77571 0.0
C1245 C 0.8572 0.41787 0.7587 0.0
H1246 H 0.85915 0.38095 0.84528 0.0
H1247 H 0.82182 0.54716 0.64397 0.0
H1248 H 0.99198 0.18224 0.00862 0.0
H1249 H 0.99617 0.15332 0.96177 0.0
H1250 H 0.03337 0.17707 0.84042 0.0
H1251 H 0.02888 0.2064 0.88666 0.0
H1252 H 0.00994 0.15505 0.78508 0.0
H1253 H 0.04826 0.15042 0.95051 0.0
H1254 H 0.05655 0.15224 0.05449 0.0
H1255 H 0.01681 0.1128 0.09685 0.0
H1256 H 0.0081 0.11092 0.9932 0.0
H1257 H 0.03046 0.0684 0.6693 0.0
H1258 H 0.03202 0.09865 0.71013 0.0
H1259 H 1.0031 0.08054 0.86253 0.0
H1260 H 1.00309 0.0501 0.82393 0.0
H1261 H 0.02591 0.10109 0.89928 0.0
H1262 H 0.98592 0.10804 0.73138 0.0
H1263 H 0.97767 0.10797 0.62702 0.0
H1264 H 0.02108 0.14377 0.58894 0.0
H1265 H 0.02963 0.14399 0.6928 0.0
C1266 C 1.00098 0.18142 0.97171 0.0
C1267 C 0.00998 0.19676 0.95118 0.0
C1268 C 1.00352 0.16477 0.9453 0.0
C1269 C 0.01523 0.16289 0.89783 0.0
C1270 C 0.0243 0.17814 0.8771 0.0
C1271 C 0.02181 0.19488 0.90379 0.0
C1272 C 0.01755 0.14505 0.86944 0.0
C1273 C 0.01367 0.14326 0.80983 0.0
C1274 C 0.02218 0.12959 0.90172 0.0
C1275 C 0.02744 0.13064 0.9641 0.0
C1276 C 0.0412 0.14223 0.98204 0.0
C1277 C 0.04599 0.14326 0.04092 0.0
C1278 C 0.03719 0.13267 0.08226 0.0
C1279 C 0.02361 0.121 0.06478 0.0
C1280 C 0.01875 0.11994 0.00596 0.0
C1281 C 0.02452 0.07096 0.71161 0.0
C1282 C 0.01675 0.05693 0.74363 0.0
C1283 C 0.0252 0.08834 0.73477 0.0
C1284 C 0.01733 0.09225 0.78925 0.0
C1285 C 0.00938 0.0781 0.82068 0.0
C1286 C 0.00932 0.06065 0.79855 0.0
C1287 C 0.01764 0.11078 0.81481 0.0
C1288 C 0.02213 0.11278 0.87416 0.0
C1289 C 0.01355 0.12642 0.78217 0.0
C1290 C 0.00854 0.12585 0.71969 0.0
C1291 C 0.99381 0.11573 0.7006 0.0
C1292 C 0.98906 0.1157 0.64157 0.0
C1293 C 0.99893 0.12579 0.60145 0.0
C1294 C 0.01351 0.13593 0.6201 0.0
C1295 C 0.01829 0.13603 0.67898 0.0
H1296 H 0.99532 0.12586 0.55589 0.0
H1297 H 0.04092 0.13349 0.12783 0.0
H1298 H 0.30922 0.03482 0.88876 0.0
H1299 H 0.33772 0.0372 0.83668 0.0
H1300 H 0.35396 0.98631 0.90687 0.0
H1301 H 0.32605 0.98411 0.96082 0.0
H1302 H 0.37183 0.03829 0.88023 0.0
H1303 H 0.37899 0.96441 0.80137 0.0
H1304 H 0.36027 0.9399 0.76297 0.0
H1305 H 0.32042 0.97775 0.71015 0.0
H1306 H 0.33892 1.00248 0.74786 0.0
H1307 H 0.46255 0.0175 0.81996 0.0
H1308 H 0.43172 0.01829 0.8555 0.0
H1309 H 0.41246 0.01232 0.67911 0.0
H1310 H 0.44323 0.01126 0.64368 0.0
H1311 H 0.3943 0.99106 0.74738 0.0
H1312 H 0.41005 0.05281 0.75296 0.0
H1313 H 0.42836 0.07917 0.77793 0.0
H1314 H 0.42061 0.06861 0.96051 0.0
H1315 H 0.40244 0.04204 0.93663 0.0
C1316 C 0.31885 0.02416 0.89353 0.0
C1317 C 0.31509 0.00921 0.92911 0.0
C1318 C 0.33514 0.02551 0.86336 0.0
C1319 C 0.34794 0.01185 0.86731 0.0
C1320 C 0.34419 0.99688 0.90221 0.0
C1321 C 0.32807 0.99561 0.93287 0.0
C1322 C 0.36556 0.01346 0.83727 0.0
C1323 C 0.37672 0.02798 0.85105 0.0
C1324 C 0.37187 1.00021 0.79825 0.0
C1325 C 0.36029 0.9853 0.778 0.0
C1326 C 0.36619 0.9675 0.78186 0.0
C1327 C 0.35562 0.95356 0.76017 0.0
C1328 C 0.33912 0.95726 0.73445 0.0
C1329 C 0.33314 0.97489 0.73051 0.0
C1330 C 0.34363 0.98887 0.75224 0.0
C1331 C 0.45176 0.01649 0.78869 0.0
C1332 C 0.45539 0.01419 0.72891 0.0
C1333 C 0.43409 0.01698 0.80906 0.0
C1334 C 0.41965 0.01547 0.77005 0.0
C1335 C 0.42329 0.01339 0.71026 0.0
C1336 C 0.44093 0.01276 0.68999 0.0
C1337 C 0.40081 0.01561 0.79169 0.0
C1338 C 0.38941 1.0014 0.7764 0.0
C1339 C 0.39417 0.02932 0.82842 0.0
C1340 C 0.405 0.04535 0.84299 0.0
C1341 C 0.41235 0.05604 0.79844 0.0
C1342 C 0.42269 0.07103 0.8124 0.0
C1343 C 0.42568 0.07554 0.87077 0.0
C1344 C 0.41829 0.0651 0.91531 0.0
C1345 C 0.40795 0.05008 0.90159 0.0
H1346 H 0.43369 0.08716 0.88149 0.0
H1347 H 0.33101 0.94646 0.71732 0.0
H1348 H 0.47253 0.31915 0.9452 0.0
H1349 H 0.47266 0.34811 0.89534 0.0
H1350 H 0.52734 0.3397 0.84311 0.0
H1351 H 0.52727 0.31072 0.89258 0.0
H1352 H 0.52403 0.37166 0.8899 0.0
H1353 H 0.49283 0.33793 0.74717 0.0
H1354 H 0.4697 0.31834 0.70515 0.0
H1355 H 0.42933 0.35672 0.74913 0.0
H1356 H 0.45221 0.37649 0.79209 0.0
H1357 H 0.50241 0.44442 0.65472 0.0
H1358 H 0.50173 0.4132 0.68706 0.0
H1359 H 0.50111 0.43071 0.86643 0.0
H1360 H 0.50212 0.46192 0.83415 0.0
H1361 H 0.47913 0.39329 0.74749 0.0
H1362 H 0.52421 0.40226 0.95076 0.0
H1363 H 0.54907 0.42149 0.98373 0.0
H1364 H 0.56454 0.43075 0.80566 0.0
H1365 H 0.53995 0.41137 0.77183 0.0
C1366 C 0.48445 0.32325 0.92191 0.0
C1367 C 0.49992 0.31258 0.92321 0.0
C1368 C 0.48454 0.33989 0.89356 0.0
C1369 C 0.50004 0.34619 0.86547 0.0
C1370 C 0.51526 0.33526 0.86485 0.0
C1371 C 0.51519 0.31866 0.89318 0.0
C1372 C 0.50075 0.36454 0.83967 0.0
C1373 C 0.51418 0.37634 0.85876 0.0
C1374 C 0.48813 0.37067 0.7982 0.0
C1375 C 0.47426 0.35865 0.77338 0.0
C1376 C 0.47901 0.34213 0.74849 0.0
C1377 C 0.46594 0.33101 0.72431 0.0
C1378 C 0.44805 0.33626 0.72459 0.0
C1379 C 0.4432 0.35266 0.74898 0.0
C1380 C 0.45622 0.36385 0.77318 0.0
C1381 C 0.50237 0.4416 0.70102 0.0
C1382 C 0.50271 0.45565 0.7418 0.0
C1383 C 0.50178 0.42373 0.7195 0.0
C1384 C 0.50174 0.4195 0.77927 0.0
C1385 C 0.50153 0.43356 0.82008 0.0
C1386 C 0.502 0.45143 0.80157 0.0
C1387 C 0.50208 0.40045 0.79902 0.0
C1388 C 0.48892 0.38855 0.77872 0.0
C1389 C 0.51511 0.39408 0.83866 0.0
C1390 C 0.53012 0.40552 0.85874 0.0
C1391 C 0.53297 0.40834 0.91868 0.0
C1392 C 0.547 0.41928 0.93753 0.0
C1393 C 0.55834 0.42739 0.89682 0.0
C1394 C 0.55571 0.42452 0.83717 0.0
C1395 C 0.54171 0.41358 0.81813 0.0
H1396 H 0.56918 0.43587 0.91151 0.0
H1397 H 0.43795 0.32763 0.70581 0.0
H1398 H 0.19465 0.53903 0.96407 0.0
H1399 H 0.16496 0.5341 0.92334 0.0
H1400 H 0.18273 0.48463 0.84645 0.0
H1401 H 0.21277 0.48956 0.88723 0.0
H1402 H 0.16202 0.50622 0.76946 0.0
H1403 H 0.158 0.48212 0.96307 0.0
H1404 H 0.16139 0.48239 0.07013 0.0
H1405 H 0.1259 0.52725 0.08197 0.0
H1406 H 0.1225 0.52742 0.97487 0.0
H1407 H 0.06009 0.4812 0.80601 0.0
H1408 H 0.09087 0.48133 0.84216 0.0
H1409 H 0.10288 0.52664 0.73191 0.0
H1410 H 0.07245 0.52599 0.69392 0.0
H1411 H 0.10947 0.50351 0.90139 0.0
H1412 H 0.14472 0.52929 0.69668 0.0
H1413 H 0.14148 0.52885 0.58946 0.0
H1414 H 0.11383 0.47855 0.60018 0.0
H1415 H 0.1174 0.47853 0.70734 0.0
C1416 C 0.19235 0.52716 0.93804 0.0
C1417 C 0.20616 0.51474 0.92855 0.0
C1418 C 0.1753 0.5243 0.91512 0.0
C1419 C 0.17156 0.50896 0.88205 0.0
C1420 C 0.18531 0.49657 0.87186 0.0
C1421 C 0.20243 0.49934 0.89542 0.0
C1422 C 0.15319 0.50599 0.85891 0.0
C1423 C 0.15054 0.50547 0.79828 0.0
C1424 C 0.13817 0.50498 0.8964 0.0
C1425 C 0.14012 0.50487 0.96087 0.0
C1426 C 0.15103 0.49213 0.98845 0.0
C1427 C 0.15293 0.49219 0.04916 0.0
C1428 C 0.1439 0.50485 0.08282 0.0
C1429 C 0.1329 0.51746 0.05584 0.0
C1430 C 0.13097 0.51747 0.99514 0.0
C1431 C 0.06936 0.49109 0.78923 0.0
C1432 C 0.0639 0.50342 0.74651 0.0
C1433 C 0.08696 0.49119 0.80999 0.0
C1434 C 0.09944 0.50375 0.78903 0.0
C1435 C 0.0938 0.5164 0.74751 0.0
C1436 C 0.07633 0.51607 0.72592 0.0
C1437 C 0.11817 0.50387 0.81169 0.0
C1438 C 0.12092 0.50399 0.87237 0.0
C1439 C 0.13326 0.50437 0.77421 0.0
C1440 C 0.13143 0.50391 0.70981 0.0
C1441 C 0.13821 0.51804 0.67592 0.0
C1442 C 0.13624 0.51791 0.61526 0.0
C1443 C 0.12742 0.5037 0.58799 0.0
C1444 C 0.12065 0.48955 0.62136 0.0
C1445 C 0.12268 0.48959 0.68205 0.0
H1446 H 0.12583 0.50365 0.54103 0.0
H1447 H 0.14539 0.50487 0.12982 0.0
H1448 H 0.02297 0.81066 0.42013 0.0
H1449 H 0.02525 0.83933 0.47134 0.0
H1450 H 0.96824 0.8394 0.4978 0.0
H1451 H 0.96589 0.81066 0.44782 0.0
H1452 H 0.97863 0.87016 0.45105 0.0
H1453 H 0.99586 0.83471 0.61259 0.0
H1454 H 0.01245 0.81257 0.67076 0.0
H1455 H 0.06109 0.84193 0.64301 0.0
H1456 H 0.04481 0.86423 0.58434 0.0
H1457 H 1.00018 0.94016 0.69602 0.0
H1458 H 0.99729 0.90916 0.66289 0.0
H1459 H 0.00776 0.92613 0.48609 0.0
H1460 H 0.01019 0.95715 0.519 0.0
H1461 H 0.01907 0.88626 0.61417 0.0
H1462 H 0.98523 0.89931 0.38997 0.0
H1463 H 0.96513 0.9213 0.34417 0.0
H1464 H 0.94421 0.9354 0.51249 0.0
H1465 H 0.964 0.9134 0.55923 0.0
C1466 C 0.01096 0.81652 0.43811 0.0
C1467 C 0.99421 0.80834 0.42906 0.0
C1468 C 0.01228 0.833 0.4673 0.0
C1469 C 0.9969 0.84167 0.48819 0.0
C1470 C 0.98029 0.83313 0.48159 0.0
C1471 C 0.97897 0.81667 0.45276 0.0
C1472 C 0.99788 0.86018 0.51274 0.0
C1473 C 0.98752 0.87365 0.48668 0.0
C1474 C 0.00917 0.86479 0.56001 0.0
C1475 C 0.01915 0.85104 0.59334 0.0
C1476 C 0.01014 0.83633 0.61817 0.0
C1477 C 0.01947 0.82379 0.65145 0.0
C1478 C 0.03783 0.82579 0.66029 0.0
C1479 C 0.04688 0.84037 0.63598 0.0
C1480 C 0.0376 0.85298 0.60275 0.0
C1481 C 1.00191 0.93727 0.65019 0.0
C1482 C 0.00539 0.95118 0.61031 0.0
C1483 C 1.0003 0.91951 0.63123 0.0
C1484 C 1.0022 0.9152 0.57184 0.0
C1485 C 0.00592 0.92905 0.532 0.0
C1486 C 0.00734 0.94684 0.55091 0.0
C1487 C 1.00014 0.89628 0.55153 0.0
C1488 C 0.0103 0.88277 0.57826 0.0
C1489 C 0.98832 0.89152 0.50576 0.0
C1490 C 0.97623 0.90476 0.47813 0.0
C1491 C 0.97629 0.90705 0.4172 0.0
C1492 C 0.96496 0.91954 0.39107 0.0
C1493 C 0.95343 0.92977 0.42541 0.0
C1494 C 0.95318 0.9275 0.48595 0.0
C1495 C 0.96447 0.91502 0.51229 0.0
H1496 H 0.94468 0.93944 0.4051 0.0
H1497 H 0.04505 0.81607 0.68605 0.0
H1498 H 0.68748 1.00041 0.32098 0.0
H1499 H 0.65831 1.00156 0.36788 0.0
H1500 H 0.68331 0.99771 0.53695 0.0
H1501 H 0.71278 0.99631 0.48977 0.0
H1502 H 0.65387 0.97743 0.53483 0.0
H1503 H 0.6668 0.03799 0.48548 0.0
H1504 H 0.67603 0.0632 0.42282 0.0
H1505 H 0.63176 0.05302 0.30841 0.0
H1506 H 0.62241 0.02757 0.36994 0.0
H1507 H 0.5729 1.0042 0.67773 0.0
H1508 H 0.60365 1.00352 0.64182 0.0
H1509 H 0.58436 1.00034 0.46487 0.0
H1510 H 0.5535 1.00088 0.50053 0.0
H1511 H 0.61173 0.02568 0.47939 0.0
H1512 H 0.60176 0.9629 0.52189 0.0
H1513 H 0.59095 0.93894 0.58718 0.0
H1514 H 0.62829 0.95534 0.71859 0.0
H1515 H 0.63959 0.97933 0.65367 0.0
C1516 C 0.68686 1.00003 0.36821 0.0
C1517 C 0.70257 0.99859 0.40157 0.0
C1518 C 0.6701 1.00065 0.39507 0.0
C1519 C 0.66852 1.00011 0.45618 0.0
C1520 C 0.68413 0.99825 0.48977 0.0
C1521 C 0.70098 0.99748 0.46275 0.0
C1522 C 0.65052 1.00155 0.48422 0.0
C1523 C 0.64482 0.98817 0.52336 0.0
C1524 C 0.63846 0.01542 0.46915 0.0
C1525 C 0.64399 0.03078 0.43211 0.0
C1526 C 0.65911 0.04104 0.44674 0.0
C1527 C 0.66435 0.05539 0.41145 0.0
C1528 C 0.65451 0.05969 0.3616 0.0
C1529 C 0.63938 0.04967 0.34701 0.0
C1530 C 0.63409 0.03529 0.38212 0.0
C1531 C 0.57516 1.00322 0.63122 0.0
C1532 C 0.56068 1.00247 0.59212 0.0
C1533 C 0.59278 1.00285 0.61073 0.0
C1534 C 0.59635 1.00181 0.55063 0.0
C1535 C 0.58194 1.00116 0.51143 0.0
C1536 C 0.56429 1.00137 0.53194 0.0
C1537 C 0.61509 1.00143 0.5286 0.0
C1538 C 0.6209 0.01504 0.49092 0.0
C1539 C 0.62724 0.98791 0.5453 0.0
C1540 C 0.62147 0.97288 0.58305 0.0
C1541 C 0.60776 0.96132 0.5646 0.0
C1542 C 0.60158 0.94775 0.60148 0.0
C1543 C 0.60901 0.94562 0.65694 0.0
C1544 C 0.62272 0.95698 0.67544 0.0
C1545 C 0.62907 0.9705 0.63854 0.0
H1546 H 0.60413 0.93519 0.68564 0.0
H1547 H 0.65859 0.0708 0.33433 0.0
H1548 H 0.48158 0.70424 0.43297 0.0
H1549 H 0.48135 0.67484 0.47941 0.0
H1550 H 0.53838 0.67107 0.45658 0.0
H1551 H 0.53873 0.70055 0.41008 0.0
H1552 H 0.52121 0.64093 0.41995 0.0
H1553 H 0.51849 0.67868 0.59509 0.0
H1554 H 0.50426 0.7031 0.65065 0.0
H1555 H 0.45442 0.67456 0.64953 0.0
H1556 H 0.46834 0.64998 0.5942 0.0
H1557 H 0.53577 0.56094 0.57385 0.0
H1558 H 0.53631 0.59179 0.53859 0.0
H1559 H 0.4824 0.59924 0.60127 0.0
H1560 H 0.48251 0.56882 0.64068 0.0
H1561 H 0.49717 0.62802 0.61739 0.0
H1562 H 0.49547 0.59181 0.44734 0.0
H1563 H 0.50436 0.56795 0.37908 0.0
H1564 H 0.55564 0.59285 0.3563 0.0
H1565 H 0.54714 0.61676 0.42504 0.0
C1566 C 0.49416 0.69738 0.43894 0.0
C1567 C 0.5102 0.7049 0.41785 0.0
C1568 C 0.49399 0.68048 0.46545 0.0
C1569 C 0.50987 0.67071 0.47211 0.0
C1570 C 0.52594 0.67829 0.45198 0.0
C1571 C 0.52611 0.69518 0.42531 0.0
C1572 C 0.50968 0.65228 0.49748 0.0
C1573 C 0.51625 0.63812 0.46353 0.0
C1574 C 0.50234 0.64842 0.55313 0.0
C1575 C 0.49441 0.66259 0.59007 0.0
C1576 C 0.50451 0.67761 0.60689 0.0
C1577 C 0.4965 0.69147 0.63831 0.0
C1578 C 0.47842 0.69043 0.65309 0.0
C1579 C 0.46841 0.67537 0.63779 0.0
C1580 C 0.47637 0.66143 0.60668 0.0
C1581 C 0.52406 0.5692 0.58007 0.0
C1582 C 0.50906 0.56244 0.60957 0.0
C1583 C 0.52429 0.58685 0.55943 0.0
C1584 C 0.50919 0.59792 0.56536 0.0
C1585 C 0.49425 0.59114 0.59566 0.0
C1586 C 0.49427 0.57368 0.61806 0.0
C1587 C 0.509 0.61648 0.54014 0.0
C1588 C 0.50229 0.63069 0.57393 0.0
C1589 C 0.51556 0.62031 0.48325 0.0
C1590 C 0.52073 0.60598 0.4418 0.0
C1591 C 0.50869 0.59214 0.42807 0.0
C1592 C 0.51365 0.57861 0.38926 0.0
C1593 C 0.53057 0.57886 0.36349 0.0
C1594 C 0.54255 0.59266 0.37636 0.0
C1595 C 0.53766 0.60621 0.41521 0.0
H1596 H 0.53439 0.56837 0.33345 0.0
H1597 H 0.47213 0.70134 0.67617 0.0
H1598 H 0.80741 0.51609 0.47529 0.0
H1599 H 0.83581 0.51659 0.52903 0.0
H1600 H 0.86273 0.49459 0.37901 0.0
H1601 H 0.83474 0.49422 0.32532 0.0
H1602 H 0.87346 0.47801 0.47645 0.0
H1603 H 0.86437 0.53933 0.41324 0.0
H1604 H 0.84769 0.5677 0.40878 0.0
H1605 H 0.85075 0.57258 0.59531 0.0
H1606 H 0.8674 0.54419 0.60074 0.0
H1607 H 0.96304 0.52482 0.53677 0.0
H1608 H 0.93243 0.5248 0.49924 0.0
H1609 H 0.91613 0.48959 0.63843 0.0
H1610 H 0.94673 0.48951 0.67661 0.0
H1611 H 0.89935 0.53445 0.5528 0.0
H1612 H 0.88444 0.45851 0.56351 0.0
H1613 H 0.9008 0.43002 0.56958 0.0
H1614 H 0.94582 0.45398 0.48323 0.0
H1615 H 0.92969 0.48258 0.47637 0.0
C1616 C 0.81939 0.51142 0.4537 0.0
C1617 C 0.81864 0.50495 0.39596 0.0
C1618 C 0.83564 0.51168 0.48455 0.0
C1619 C 0.8515 0.50563 0.45812 0.0
C1620 C 0.85072 0.49916 0.40071 0.0
C1621 C 0.83459 0.49889 0.37004 0.0
C1622 C 0.86909 0.50619 0.489 0.0
C1623 C 0.87904 0.49034 0.4936 0.0
C1624 C 0.87649 0.52226 0.51123 0.0
C1625 C 0.86686 0.53951 0.50754 0.0
C1626 C 0.86138 0.5464 0.45332 0.0
C1627 C 0.85197 0.5625 0.45058 0.0
C1628 C 0.8481 0.5719 0.50174 0.0
C1629 C 0.85372 0.56527 0.55571 0.0
C1630 C 0.86314 0.54919 0.55864 0.0
C1631 C 0.95297 0.51708 0.5596 0.0
C1632 C 0.95745 0.50707 0.60955 0.0
C1633 C 0.93543 0.51717 0.53823 0.0
C1634 C 0.922 0.50706 0.56573 0.0
C1635 C 0.92633 0.4973 0.61616 0.0
C1636 C 0.94384 0.49733 0.63794 0.0
C1637 C 0.90369 0.50627 0.54019 0.0
C1638 C 0.89365 0.52208 0.53647 0.0
C1639 C 0.8962 0.49013 0.51878 0.0
C1640 C 0.90601 0.47288 0.52113 0.0
C1641 C 0.89788 0.45775 0.54624 0.0
C1642 C 0.9071 0.44155 0.54963 0.0
C1643 C 0.92439 0.44022 0.5272 0.0
C1644 C 0.93247 0.45507 0.50106 0.0
C1645 C 0.92331 0.47131 0.49765 0.0
H1646 H 0.93146 0.42764 0.52967 0.0
H1647 H 0.84079 0.58435 0.49954 0.0
loop_
_geom_bond_atom_site_label_1
_geom_bond_atom_site_label_2
_geom_bond_distance
_geom_bond_site_symmetry_2
_ccdc_geom_bond_type
C0 C1 1.384 . S
C0 H13 0.947 . S
C0 C35 1.382 . S
C1 C0 1.384 . S
C1 C2 1.378 . S
C2 C1 1.378 . S
C2 C3 1.378 . S
C2 H14 0.952 . S
C3 C2 1.378 . S
C3 H15 0.950 . S
C3 C34 1.383 . S
H4 C23 0.947 . S
H5 C24 0.946 . S
H6 C26 0.953 . S
H7 C27 0.945 . S
H8 C29 0.952 . S
H9 C30 0.949 . S
H10 C32 0.950 . S
H11 C33 0.948 . S
H12 C35 0.951 . S
H13 C0 0.947 . S
H14 C2 0.952 . S
H15 C3 0.950 . S
N16 C19 1.382 . S
N16 C21 1.363 . S
N17 C19 1.371 . S
N17 C20 1.372 . S
N18 C20 1.361 . S
N18 C21 1.377 . S
C19 N16 1.382 . S
C19 N17 1.371 . S
C19 C22 1.480 . S
C20 N17 1.372 . S
C20 N18 1.361 . S
C20 C28 1.457 . S
C21 N16 1.363 . S
C21 N18 1.377 . S
C21 C34 1.479 . S
C22 C19 1.480 . S
C22 C23 1.383 . S
C22 C27 1.385 . S
C23 H4 0.947 . S
C23 C22 1.383 . S
C23 C24 1.388 . S
C24 H5 0.946 . S
C24 C23 1.388 . S
C24 C25 1.384 . S
C25 C24 1.384 . S
C25 C26 1.377 . S
C26 H6 0.953 . S
C26 C25 1.377 . S
C26 C27 1.369 . S
C27 H7 0.945 . S
C27 C22 1.385 . S
C27 C26 1.369 . S
C28 C20 1.457 . S
C28 C29 1.372 . S
C28 C33 1.364 . S
C29 H8 0.952 . S
C29 C28 1.372 . S
C29 C30 1.389 . S
C30 H9 0.949 . S
C30 C29 1.389 . S
C30 C31 1.387 . S
C31 C30 1.387 . S
C31 C32 1.372 . S
C32 H10 0.950 . S
C32 C31 1.372 . S
C32 C33 1.379 . S
C33 H11 0.948 . S
C33 C28 1.364 . S
C33 C32 1.379 . S
C34 C3 1.383 . S
C34 C21 1.479 . S
C34 C35 1.398 . S
C35 C0 1.382 . S
C35 H12 0.951 . S
C35 C34 1.398 . S
C36 C37 1.381 1_655 S
C36 H49 0.948 . S
C36 C71 1.382 1_655 S
C37 C36 1.381 1_455 S
C37 C38 1.388 . S
C38 C37 1.388 . S
C38 C39 1.378 . S
C38 H50 0.952 . S
C39 C38 1.378 . S
C39 H51 0.950 . S
C39 C70 1.383 . S
H40 C59 0.947 . S
H41 C60 0.952 . S
H42 C62 0.953 . S
H43 C63 0.945 . S
H44 C65 0.949 1_655 S
H45 C66 0.956 . S
H46 C68 0.950 . S
H47 C69 0.948 . S
H48 C71 0.952 1_655 S
H49 C36 0.948 . S
H50 C38 0.952 . S
H51 C39 0.950 . S
N52 C55 1.382 . S
N52 C57 1.363 . S
N53 C55 1.371 . S
N53 C56 1.372 . S
N54 C56 1.361 . S
N54 C57 1.377 . S
C55 N52 1.382 . S
C55 N53 1.371 . S
C55 C58 1.480 . S
C56 N53 1.372 . S
C56 N54 1.361 . S
C56 C64 1.457 . S
C57 N52 1.363 . S
C57 N54 1.377 . S
C57 C70 1.479 . S
C58 C55 1.480 . S
C58 C59 1.383 . S
C58 C63 1.385 . S
C59 H40 0.947 . S
C59 C58 1.383 . S
C59 C60 1.386 1_455 S
C60 H41 0.952 . S
C60 C59 1.386 1_655 S
C60 C61 1.381 1_655 S
C61 C60 1.381 1_455 S
C61 C62 1.377 . S
C62 H42 0.953 . S
C62 C61 1.377 . S
C62 C63 1.369 . S
C63 H43 0.945 . S
C63 C58 1.385 . S
C63 C62 1.369 . S
C64 C56 1.457 . S
C64 C65 1.375 . S
C64 C69 1.364 . S
C65 H44 0.949 1_455 S
C65 C64 1.375 . S
C65 C66 1.386 1_455 S
C66 H45 0.956 . S
C66 C65 1.386 1_655 S
C66 C67 1.383 1_655 S
C67 C66 1.383 1_455 S
C67 C68 1.372 . S
C68 H46 0.950 . S
C68 C67 1.372 . S
C68 C69 1.379 . S
C69 H47 0.948 . S
C69 C64 1.364 . S
C69 C68 1.379 . S
C70 C39 1.383 . S
C70 C57 1.479 . S
C70 C71 1.397 . S
C71 C36 1.382 1_455 S
C71 H48 0.952 1_455 S
C71 C70 1.397 . S
C72 C73 1.384 . S
C72 H85 0.947 . S
C72 C107 1.382 . S
C73 C72 1.384 . S
C73 C74 1.379 1_565 S
C74 C73 1.379 1_545 S
C74 C75 1.377 . S
C74 H86 0.952 . S
C75 C74 1.377 . S
C75 H87 0.950 . S
C75 C106 1.378 1_545 S
H76 C95 0.947 . S
H77 C96 0.946 . S
H78 C98 0.953 . S
H79 C99 0.945 . S
H80 C101 0.952 . S
H81 C102 0.949 . S
H82 C104 0.950 . S
H83 C105 0.948 . S
H84 C107 0.951 . S
H85 C72 0.947 . S
H86 C74 0.952 . S
H87 C75 0.950 . S
N88 C91 1.382 . S
N88 C93 1.364 . S
N89 C91 1.368 1_565 S
N89 C92 1.367 1_565 S
N90 C92 1.362 . S
N90 C93 1.378 . S
C91 N88 1.382 . S
C91 N89 1.368 1_545 S
C91 C94 1.479 . S
C92 N89 1.367 1_545 S
C92 N90 1.362 . S
C92 C100 1.457 . S
C93 N88 1.364 . S
C93 N90 1.378 . S
C93 C106 1.476 1_545 S
C94 C91 1.479 . S
C94 C95 1.383 1_545 S
C94 C99 1.385 . S
C95 H76 0.947 . S
C95 C94 1.383 1_565 S
C95 C96 1.388 . S
C96 H77 0.946 . S
C96 C95 1.388 . S
C96 C97 1.384 . S
C97 C96 1.384 . S
C97 C98 1.376 1_565 S
C98 H78 0.953 . S
C98 C97 1.376 1_545 S
C98 C99 1.370 . S
C99 H79 0.945 . S
C99 C94 1.385 . S
C99 C98 1.370 . S
C100 C92 1.457 . S
C100 C101 1.372 1_545 S
C100 C105 1.364 . S
C101 H80 0.952 . S
C101 C100 1.372 1_565 S
C101 C102 1.389 . S
C102 H81 0.949 . S
C102 C101 1.389 . S
C102 C103 1.387 . S
C103 C102 1.387 . S
C103 C104 1.372 1_565 S
C104 H82 0.950 . S
C104 C103 1.372 1_545 S
C104 C105 1.379 . S
C105 H83 0.948 . S
C105 C100 1.364 . S
C105 C104 1.379 . S
C106 C75 1.378 1_565 S
C106 C93 1.476 1_565 S
C106 C107 1.404 . S
C107 C72 1.382 . S
C107 H84 0.951 . S
C107 C106 1.404 . S
C108 C109 1.384 . S
C108 H121 0.947 . S
C108 C143 1.382 . S
C109 C108 1.384 . S
C109 C110 1.378 . S
C110 C109 1.378 . S
C110 C111 1.378 . S
C110 H122 0.952 . S
C111 C110 1.378 . S
C111 H123 0.950 . S
C111 C142 1.383 . S
H112 C131 0.947 . S
H113 C132 0.946 . S
H114 C134 0.953 . S
H115 C135 0.945 . S
H116 C137 0.952 . S
H117 C138 0.949 . S
H118 C140 0.950 . S
H119 C141 0.948 . S
H120 C143 0.951 . S
H121 C108 0.947 . S
H122 C110 0.952 . S
H123 C111 0.950 . S
N124 C127 1.382 . S
N124 C129 1.363 . S
N125 C127 1.371 . S
N125 C128 1.372 . S
N126 C128 1.361 . S
N126 C129 1.377 . S
C127 N124 1.382 . S
C127 N125 1.371 . S
C127 C130 1.480 . S
C128 N125 1.372 . S
C128 N126 1.361 . S
C128 C136 1.457 . S
C129 N124 1.363 . S
C129 N126 1.377 . S
C129 C142 1.479 . S
C130 C127 1.480 . S
C130 C131 1.383 . S
C130 C135 1.385 . S
C131 H112 0.947 . S
C131 C130 1.383 . S
C131 C132 1.388 . S
C132 H113 0.946 . S
C132 C131 1.388 . S
C132 C133 1.384 . S
C133 C132 1.384 . S
C133 C134 1.377 . S
C134 H114 0.953 . S
C134 C133 1.377 . S
C134 C135 1.369 . S
C135 H115 0.945 . S
C135 C130 1.385 . S
C135 C134 1.369 . S
C136 C128 1.457 . S
C136 C137 1.372 . S
C136 C141 1.364 . S
C137 H116 0.952 . S
C137 C136 1.372 . S
C137 C138 1.389 . S
C138 H117 0.949 . S
C138 C137 1.389 . S
C138 C139 1.387 . S
C139 C138 1.387 . S
C139 C140 1.372 . S
C140 H118 0.950 . S
C140 C139 1.372 . S
C140 C141 1.379 . S
C141 H119 0.948 . S
C141 C136 1.364 . S
C141 C140 1.379 . S
C142 C111 1.383 . S
C142 C129 1.479 . S
C142 C143 1.398 . S
C143 C108 1.382 . S
C143 H120 0.951 . S
C143 C142 1.398 . S
C144 C145 1.384 . S
C144 H157 0.947 . S
C144 C179 1.382 . S
C145 C144 1.384 . S
C145 C146 1.378 . S
C146 C145 1.378 . S
C146 C147 1.378 . S
C146 H158 0.952 . S
C147 C146 1.378 . S
C147 H159 0.950 . S
C147 C178 1.383 . S
H148 C167 0.947 1_556 S
H149 C168 0.946 . S
H150 C170 0.953 . S
H151 C171 0.945 . S
H152 C173 0.952 . S
H153 C174 0.949 . S
H154 C176 0.950 . S
H155 C177 0.948 . S
H156 C179 0.951 . S
H157 C144 0.947 . S
H158 C146 0.952 . S
H159 C147 0.950 . S
N160 C163 1.382 1_556 S
N160 C165 1.363 . S
N161 C163 1.371 . S
N161 C164 1.372 . S
N162 C164 1.361 . S
N162 C165 1.377 1_554 S
C163 N160 1.382 1_554 S
C163 N161 1.371 . S
C163 C166 1.480 . S
C164 N161 1.372 . S
C164 N162 1.361 . S
C164 C172 1.457 . S
C165 N160 1.363 . S
C165 N162 1.377 1_556 S
C165 C178 1.479 . S
C166 C163 1.480 . S
C166 C167 1.383 . S
C166 C171 1.385 . S
C167 H148 0.947 1_554 S
C167 C166 1.383 . S
C167 C168 1.388 . S
C168 H149 0.946 . S
C168 C167 1.388 . S
C168 C169 1.384 . S
C169 C168 1.384 . S
C169 C170 1.377 . S
C170 H150 0.953 . S
C170 C169 1.377 . S
C170 C171 1.369 . S
C171 H151 0.945 . S
C171 C166 1.385 . S
C171 C170 1.369 . S
C172 C164 1.457 . S
C172 C173 1.372 . S
C172 C177 1.364 . S
C173 H152 0.952 . S
C173 C172 1.372 . S
C173 C174 1.389 . S
C174 H153 0.949 . S
C174 C173 1.389 . S
C174 C175 1.387 . S
C175 C174 1.387 . S
C175 C176 1.372 . S
C176 H154 0.950 . S
C176 C175 1.372 . S
C176 C177 1.379 . S
C177 H155 0.948 . S
C177 C172 1.364 . S
C177 C176 1.379 . S
C178 C147 1.383 . S
C178 C165 1.479 . S
C178 C179 1.398 . S
C179 C144 1.382 . S
C179 H156 0.951 . S
C179 C178 1.398 . S
C180 C181 1.384 . S
C180 H193 0.948 1_455 S
C180 C215 1.382 . S
C181 C180 1.384 . S
C181 C182 1.378 . S
C182 C181 1.378 . S
C182 C183 1.378 . S
C182 H194 0.952 . S
C183 C182 1.378 . S
C183 H195 0.950 . S
C183 C214 1.383 . S
H184 C203 0.947 1_556 S
H185 C204 0.948 . S
H186 C206 0.953 . S
H187 C207 0.945 . S
H188 C209 0.947 1_655 S
H189 C210 0.953 . S
H190 C212 0.950 . S
H191 C213 0.948 . S
H192 C215 0.950 1_655 S
H193 C180 0.948 1_655 S
H194 C182 0.952 . S
H195 C183 0.950 . S
N196 C199 1.382 1_556 S
N196 C201 1.363 . S
N197 C199 1.371 . S
N197 C200 1.372 . S
N198 C200 1.361 . S
N198 C201 1.377 1_554 S
C199 N196 1.382 1_554 S
C199 N197 1.371 . S
C199 C202 1.480 . S
C200 N197 1.372 . S
C200 N198 1.361 . S
C200 C208 1.457 . S
C201 N196 1.363 . S
C201 N198 1.377 1_556 S
C201 C214 1.479 . S
C202 C199 1.480 . S
C202 C203 1.383 . S
C202 C207 1.385 . S
C203 H184 0.947 1_554 S
C203 C202 1.383 . S
C203 C204 1.387 1_455 S
C204 H185 0.948 . S
C204 C203 1.387 1_655 S
C204 C205 1.383 1_655 S
C205 C204 1.383 1_455 S
C205 C206 1.377 . S
C206 H186 0.953 . S
C206 C205 1.377 . S
C206 C207 1.369 . S
C207 H187 0.945 . S
C207 C202 1.385 . S
C207 C206 1.369 . S
C208 C200 1.457 . S
C208 C209 1.379 . S
C208 C213 1.364 . S
C209 H188 0.947 1_455 S
C209 C208 1.379 . S
C209 C210 1.387 1_455 S
C210 H189 0.953 . S
C210 C209 1.387 1_655 S
C210 C211 1.384 1_655 S
C211 C210 1.384 1_455 S
C211 C212 1.372 . S
C212 H190 0.950 . S
C212 C211 1.372 . S
C212 C213 1.379 . S
C213 H191 0.948 . S
C213 C208 1.364 . S
C213 C212 1.379 . S
C214 C183 1.383 . S
C214 C201 1.479 . S
C214 C215 1.399 . S
C215 C180 1.382 . S
C215 H192 0.950 1_455 S
C215 C214 1.399 . S
C216 C217 1.384 . S
C216 H229 0.947 . S
C216 C251 1.382 . S
C217 C216 1.384 . S
C217 C218 1.378 . S
C218 C217 1.378 . S
C218 C219 1.378 . S
C218 H230 0.952 . S
C219 C218 1.378 . S
C219 H231 0.950 . S
C219 C250 1.383 . S
H220 C239 0.947 1_556 S
H221 C240 0.946 . S
H222 C242 0.953 . S
H223 C243 0.945 . S
H224 C245 0.952 . S
H225 C246 0.949 . S
H226 C248 0.950 . S
H227 C249 0.948 . S
H228 C251 0.951 . S
H229 C216 0.947 . S
H230 C218 0.952 . S
H231 C219 0.950 . S
N232 C235 1.382 1_556 S
N232 C237 1.363 . S
N233 C235 1.371 . S
N233 C236 1.372 . S
N234 C236 1.361 . S
N234 C237 1.377 1_554 S
C235 N232 1.382 1_554 S
C235 N233 1.371 . S
C235 C238 1.480 . S
C236 N233 1.372 . S
C236 N234 1.361 . S
C236 C244 1.457 . S
C237 N232 1.363 . S
C237 N234 1.377 1_556 S
C237 C250 1.479 . S
C238 C235 1.480 . S
C238 C239 1.383 . S
C238 C243 1.385 . S
C239 H220 0.947 1_554 S
C239 C238 1.383 . S
C239 C240 1.388 . S
C240 H221 0.946 . S
C240 C239 1.388 . S
C240 C241 1.384 . S
C241 C240 1.384 . S
C241 C242 1.377 . S
C242 H222 0.953 . S
C242 C241 1.377 . S
C242 C243 1.369 . S
C243 H223 0.945 . S
C243 C238 1.385 . S
C243 C242 1.369 . S
C244 C236 1.457 . S
C244 C245 1.372 . S
C244 C249 1.364 . S
C245 H224 0.952 . S
C245 C244 1.372 . S
C245 C246 1.389 . S
C246 H225 0.949 . S
C246 C245 1.389 . S
C246 C247 1.387 . S
C247 C246 1.387 . S
C247 C248 1.372 . S
C248 H226 0.950 . S
C248 C247 1.372 . S
C248 C249 1.379 . S
C249 H227 0.948 . S
C249 C244 1.364 . S
C249 C248 1.379 . S
C250 C219 1.383 . S
C250 C237 1.479 . S
C250 C251 1.398 . S
C251 C216 1.382 . S
C251 H228 0.951 . S
C251 C250 1.398 . S
C252 C253 1.384 . S
C252 H265 0.947 . S
C252 C287 1.382 . S
C253 C252 1.384 . S
C253 C254 1.378 . S
C254 C253 1.378 . S
C254 C255 1.378 . S
C254 H266 0.952 . S
C255 C254 1.378 . S
C255 H267 0.950 . S
C255 C286 1.383 . S
H256 C275 0.947 . S
H257 C276 0.946 . S
H258 C278 0.960 . S
H259 C279 0.945 1_556 S
H260 C281 0.952 . S
H261 C282 0.949 . S
H262 C284 0.950 . S
H263 C285 0.948 . S
H264 C287 0.951 . S
H265 C252 0.947 . S
H266 C254 0.952 . S
H267 C255 0.950 . S
N268 C271 1.382 . S
N268 C273 1.363 . S
N269 C271 1.371 1_556 S
N269 C272 1.372 . S
N270 C272 1.361 1_554 S
N270 C273 1.377 . S
C271 N268 1.382 . S
C271 N269 1.371 1_554 S
C271 C274 1.480 . S
C272 N269 1.372 . S
C272 N270 1.361 1_556 S
C272 C280 1.457 . S
C273 N268 1.363 . S
C273 N270 1.377 . S
C273 C286 1.479 . S
C274 C271 1.480 . S
C274 C275 1.383 . S
C274 C279 1.385 . S
C275 H256 0.947 . S
C275 C274 1.383 . S
C275 C276 1.388 . S
C276 H257 0.946 . S
C276 C275 1.388 . S
C276 C277 1.384 . S
C277 C276 1.384 . S
C277 C278 1.377 . S
C278 H258 0.960 . S
C278 C277 1.377 . S
C278 C279 1.369 . S
C279 H259 0.945 1_554 S
C279 C274 1.385 . S
C279 C278 1.369 . S
C280 C272 1.457 . S
C280 C281 1.372 . S
C280 C285 1.364 . S
C281 H260 0.952 . S
C281 C280 1.372 . S
C281 C282 1.389 . S
C282 H261 0.949 . S
C282 C281 1.389 . S
C282 C283 1.387 . S
C283 C282 1.387 . S
C283 C284 1.372 . S
C284 H262 0.950 . S
C284 C283 1.372 . S
C284 C285 1.379 . S
C285 H263 0.948 . S
C285 C280 1.364 . S
C285 C284 1.379 . S
C286 C255 1.383 . S
C286 C273 1.479 . S
C286 C287 1.398 . S
C287 C252 1.382 . S
C287 H264 0.951 . S
C287 C286 1.398 . S
La288 C290 2.928 . S
La288 O308 2.521 . S
La288 O309 2.628 . S
La288 O310 2.554 . S
La288 O311 2.757 1_565 S
La288 O312 2.470 . S
La288 O317 2.482 1_455 S
La288 O319 2.503 1_565 S
La289 C299 2.928 . S
La289 O311 2.482 1_655 S
La289 O313 2.503 1_545 S
La289 O314 2.521 . S
La289 O315 2.628 . S
La289 O316 2.554 . S
La289 O317 2.757 1_545 S
La289 O318 2.470 . S
C290 La288 2.928 . S
C290 C291 1.503 . S
C290 O308 1.261 . S
C290 O309 1.243 . S
C291 C290 1.503 . S
C291 C292 1.394 . S
C291 C296 1.373 . S
C292 C291 1.394 . S
C292 C293 1.380 . S
C292 H320 0.930 . S
C293 C292 1.380 . S
C293 C294 1.376 . S
C293 H321 0.930 . S
C294 C293 1.376 . S
C294 C295 1.370 . S
C295 C294 1.370 . S
C295 C296 1.396 . S
C295 H322 0.929 1_455 S
C296 C291 1.373 . S
C296 C295 1.396 . S
C296 H323 0.929 1_455 S
C297 O310 1.211 1_545 S
C297 O311 1.310 . S
C298 O312 1.258 1_655 S
C298 O313 1.256 . S
C299 La289 2.928 . S
C299 C300 1.503 . S
C299 O314 1.261 . S
C299 O315 1.243 . S
C300 C299 1.503 . S
C300 C301 1.394 . S
C300 C305 1.373 . S
C301 C300 1.394 . S
C301 C302 1.380 . S
C301 H324 0.930 . S
C302 C301 1.380 . S
C302 C303 1.376 . S
C302 H325 0.930 . S
C303 C302 1.376 . S
C303 C304 1.370 . S
C304 C303 1.370 . S
C304 C305 1.396 . S
C304 H326 0.929 1_655 S
C305 C300 1.373 . S
C305 C304 1.396 . S
C305 H327 0.929 1_655 S
C306 O316 1.240 . S
C306 O317 1.289 1_545 S
C307 O318 1.258 1_455 S
C307 O319 1.256 . S
O308 La288 2.521 . S
O308 C290 1.261 . S
O309 La288 2.628 . S
O309 C290 1.243 . S
O310 La288 2.554 . S
O310 C297 1.211 1_565 S
O311 La288 2.757 1_545 S
O311 La289 2.482 1_455 S
O311 C297 1.310 . S
O312 La288 2.470 . S
O312 C298 1.258 1_455 S
O313 La289 2.503 1_565 S
O313 C298 1.256 . S
O314 La289 2.521 . S
O314 C299 1.261 . S
O315 La289 2.628 . S
O315 C299 1.243 . S
O316 La289 2.554 . S
O316 C306 1.240 . S
O317 La288 2.482 1_655 S
O317 La289 2.757 1_565 S
O317 C306 1.289 1_565 S
O318 La289 2.470 . S
O318 C307 1.258 1_655 S
O319 La288 2.503 1_545 S
O319 C307 1.256 . S
H320 C292 0.930 . S
H321 C293 0.930 . S
H322 C295 0.929 1_655 S
H323 C296 0.929 1_655 S
H324 C301 0.930 . S
H325 C302 0.930 . S
H326 C304 0.929 1_455 S
H327 C305 0.929 1_455 S
La328 C330 2.928 . S
La328 O348 2.521 . S
La328 O349 2.628 . S
La328 O350 2.554 . S
La328 O351 2.757 . S
La328 O352 2.470 . S
La328 O357 2.482 1_545 S
La328 O359 2.503 . S
La329 C339 2.928 . S
La329 O351 2.482 1_565 S
La329 O353 2.503 . S
La329 O354 2.521 . S
La329 O355 2.618 1_565 S
La329 O356 2.554 . S
La329 O357 2.757 . S
La329 O358 2.470 . S
C330 La328 2.928 . S
C330 C331 1.503 . S
C330 O348 1.261 . S
C330 O349 1.243 . S
C331 C330 1.503 . S
C331 C332 1.394 . S
C331 C336 1.373 . S
C332 C331 1.394 . S
C332 C333 1.380 . S
C332 H360 0.930 . S
C333 C332 1.380 . S
C333 C334 1.376 . S
C333 H361 0.930 . S
C334 C333 1.376 . S
C334 C335 1.370 . S
C335 C334 1.370 . S
C335 C336 1.396 . S
C335 H362 0.929 1_545 S
C336 C331 1.373 . S
C336 C335 1.396 . S
C336 H363 0.929 1_545 S
C337 O350 1.240 . S
C337 O351 1.289 . S
C338 O352 1.258 1_565 S
C338 O353 1.256 . S
C339 La329 2.928 . S
C339 C340 1.503 . S
C339 O354 1.261 . S
C339 O355 1.219 1_565 S
C340 C339 1.503 . S
C340 C341 1.394 . S
C340 C345 1.373 . S
C341 C340 1.394 . S
C341 C342 1.380 . S
C341 H364 0.930 . S
C342 C341 1.380 . S
C342 C343 1.376 . S
C342 H365 0.930 . S
C343 C342 1.376 . S
C343 C344 1.370 . S
C344 C343 1.370 . S
C344 C345 1.396 . S
C344 H366 0.929 1_565 S
C345 C340 1.373 . S
C345 C344 1.396 . S
C345 H367 0.929 1_565 S
C346 O356 1.240 . S
C346 O357 1.289 . S
C347 O358 1.258 1_545 S
C347 O359 1.256 . S
O348 La328 2.521 . S
O348 C330 1.261 . S
O349 La328 2.628 . S
O349 C330 1.243 . S
O350 La328 2.554 . S
O350 C337 1.240 . S
O351 La328 2.757 . S
O351 La329 2.482 1_545 S
O351 C337 1.289 . S
O352 La328 2.470 . S
O352 C338 1.258 1_545 S
O353 La329 2.503 . S
O353 C338 1.256 . S
O354 La329 2.521 . S
O354 C339 1.261 . S
O355 La329 2.618 1_545 S
O355 C339 1.219 1_545 S
O356 La329 2.554 . S
O356 C346 1.240 . S
O357 La328 2.482 1_565 S
O357 La329 2.757 . S
O357 C346 1.289 . S
O358 La329 2.470 . S
O358 C347 1.258 1_565 S
O359 La328 2.503 . S
O359 C347 1.256 . S
H360 C332 0.930 . S
H361 C333 0.930 . S
H362 C335 0.929 1_565 S
H363 C336 0.929 1_565 S
H364 C341 0.930 . S
H365 C342 0.930 . S
H366 C344 0.929 1_545 S
H367 C345 0.929 1_545 S
La368 C370 2.928 . S
La368 O388 2.521 . S
La368 O389 2.628 . S
La368 O390 2.554 . S
La368 O391 2.757 . S
La368 O392 2.470 . S
La368 O397 2.482 . S
La368 O399 2.503 . S
La369 C379 2.928 . S
La369 O391 2.482 . S
La369 O393 2.503 . S
La369 O394 2.521 . S
La369 O395 2.628 . S
La369 O396 2.554 . S
La369 O397 2.757 . S
La369 O398 2.470 . S
C370 La368 2.928 . S
C370 C371 1.503 . S
C370 O388 1.261 . S
C370 O389 1.243 . S
C371 C370 1.503 . S
C371 C372 1.394 . S
C371 C376 1.373 . S
C372 C371 1.394 . S
C372 C373 1.380 . S
C372 H400 0.930 . S
C373 C372 1.380 . S
C373 C374 1.376 . S
C373 H401 0.930 . S
C374 C373 1.376 . S
C374 C375 1.370 . S
C375 C374 1.370 . S
C375 C376 1.396 . S
C375 H402 0.929 . S
C376 C371 1.373 . S
C376 C375 1.396 . S
C376 H403 0.929 . S
C377 O390 1.240 . S
C377 O391 1.289 . S
C378 O392 1.258 . S
C378 O393 1.256 . S
C379 La369 2.928 . S
C379 C380 1.503 . S
C379 O394 1.261 . S
C379 O395 1.243 . S
C380 C379 1.503 . S
C380 C381 1.394 . S
C380 C385 1.373 . S
C381 C380 1.394 . S
C381 C382 1.380 . S
C381 H404 0.930 . S
C382 C381 1.380 . S
C382 C383 1.376 . S
C382 H405 0.930 . S
C383 C382 1.376 . S
C383 C384 1.370 . S
C384 C383 1.370 . S
C384 C385 1.396 . S
C384 H406 0.929 . S
C385 C380 1.373 . S
C385 C384 1.396 . S
C385 H407 0.929 . S
C386 O396 1.240 . S
C386 O397 1.289 . S
C387 O398 1.258 . S
C387 O399 1.256 . S
O388 La368 2.521 . S
O388 C370 1.261 . S
O389 La368 2.628 . S
O389 C370 1.243 . S
O390 La368 2.554 . S
O390 C377 1.240 . S
O391 La368 2.757 . S
O391 La369 2.482 . S
O391 C377 1.289 . S
O392 La368 2.470 . S
O392 C378 1.258 . S
O393 La369 2.503 . S
O393 C378 1.256 . S
O394 La369 2.521 . S
O394 C379 1.261 . S
O395 La369 2.628 . S
O395 C379 1.243 . S
O396 La369 2.554 . S
O396 C386 1.240 . S
O397 La368 2.482 . S
O397 La369 2.757 . S
O397 C386 1.289 . S
O398 La369 2.470 . S
O398 C387 1.258 . S
O399 La368 2.503 . S
O399 C387 1.256 . S
H400 C372 0.930 . S
H401 C373 0.930 . S
H402 C375 0.929 . S
H403 C376 0.929 . S
H404 C381 0.930 . S
H405 C382 0.930 . S
H406 C384 0.929 . S
H407 C385 0.929 . S
La408 C410 2.928 . S
La408 O428 2.521 . S
La408 O429 2.628 . S
La408 O430 2.554 . S
La408 O431 2.757 1_655 S
La408 O432 2.470 . S
La408 O437 2.482 . S
La408 O439 2.503 1_655 S
La409 C419 2.928 . S
La409 O431 2.482 . S
La409 O433 2.503 1_455 S
La409 O434 2.521 . S
La409 O435 2.628 . S
La409 O436 2.554 . S
La409 O437 2.757 1_455 S
La409 O438 2.470 . S
C410 La408 2.928 . S
C410 C411 1.503 . S
C410 O428 1.261 . S
C410 O429 1.243 . S
C411 C410 1.503 . S
C411 C412 1.394 . S
C411 C416 1.373 . S
C412 C411 1.394 . S
C412 C413 1.380 . S
C412 H440 0.930 . S
C413 C412 1.380 . S
C413 C414 1.376 . S
C413 H441 0.930 . S
C414 C413 1.376 . S
C414 C415 1.370 . S
C415 C414 1.370 . S
C415 C416 1.396 . S
C415 H442 0.929 . S
C416 C411 1.373 . S
C416 C415 1.396 . S
C416 H443 0.929 . S
C417 O430 1.278 . S
C417 O431 1.268 1_655 S
C418 O432 1.258 . S
C418 O433 1.256 . S
C419 La409 2.928 . S
C419 C420 1.503 . S
C419 O434 1.261 . S
C419 O435 1.243 . S
C420 C419 1.503 . S
C420 C421 1.394 . S
C420 C425 1.373 . S
C421 C420 1.394 . S
C421 C422 1.380 . S
C421 H444 0.930 . S
C422 C421 1.380 . S
C422 C423 1.376 . S
C422 H445 0.930 . S
C423 C422 1.376 . S
C423 C424 1.370 . S
C424 C423 1.370 . S
C424 C425 1.396 . S
C424 H446 0.929 . S
C425 C420 1.373 . S
C425 C424 1.396 . S
C425 H447 0.929 . S
C426 O436 1.240 . S
C426 O437 1.289 1_455 S
C427 O438 1.258 . S
C427 O439 1.256 . S
O428 La408 2.521 . S
O428 C410 1.261 . S
O429 La408 2.628 . S
O429 C410 1.243 . S
O430 La408 2.554 . S
O430 C417 1.278 . S
O431 La408 2.757 1_455 S
O431 La409 2.482 . S
O431 C417 1.268 1_455 S
O432 La408 2.470 . S
O432 C418 1.258 . S
O433 La409 2.503 1_655 S
O433 C418 1.256 . S
O434 La409 2.521 . S
O434 C419 1.261 . S
O435 La409 2.628 . S
O435 C419 1.243 . S
O436 La409 2.554 . S
O436 C426 1.240 . S
O437 La408 2.482 . S
O437 La409 2.757 1_655 S
O437 C426 1.289 1_655 S
O438 La409 2.470 . S
O438 C427 1.258 . S
O439 La408 2.503 1_455 S
O439 C427 1.256 . S
H440 C412 0.930 . S
H441 C413 0.930 . S
H442 C415 0.929 . S
H443 C416 0.929 . S
H444 C421 0.930 . S
H445 C422 0.930 . S
H446 C424 0.929 . S
H447 C425 0.929 . S
H448 C466 0.951 . S
H449 C468 0.951 . S
H450 C470 0.950 . S
H451 C471 0.950 . S
H452 C473 0.950 . S
H453 C476 0.950 . S
H454 C477 0.950 . S
H455 C479 0.950 . S
H456 C480 0.950 1_545 S
H457 C481 0.951 . S
H458 C483 0.951 . S
H459 C485 0.950 . S
H460 C486 0.950 . S
H461 C488 0.962 . S
H462 C491 0.950 . S
H463 C492 0.950 . S
H464 C494 0.950 . S
H465 C495 0.950 . S
C466 H448 0.951 . S
C466 C467 1.366 . S
C466 C468 1.388 . S
C467 C466 1.366 . S
C467 C471 1.385 1_545 S
C468 H449 0.951 . S
C468 C466 1.388 . S
C468 C469 1.366 . S
C469 C468 1.366 . S
C469 C470 1.414 1_545 S
C469 C472 1.499 . S
C470 H450 0.950 . S
C470 C469 1.414 1_565 S
C470 C471 1.374 . S
C471 H451 0.950 . S
C471 C467 1.385 1_565 S
C471 C470 1.374 . S
C472 C469 1.499 . S
C472 C473 1.373 . S
C472 C474 1.389 1_545 S
C473 H452 0.950 . S
C473 C472 1.373 . S
C473 C489 1.377 . S
C474 C472 1.389 1_565 S
C474 C475 1.524 . S
C474 C488 1.379 . S
C475 C474 1.524 . S
C475 C476 1.397 . S
C475 C480 1.363 . S
C476 H453 0.950 . S
C476 C475 1.397 . S
C476 C477 1.334 . S
C477 H454 0.950 . S
C477 C476 1.334 . S
C477 C478 1.287 . S
C478 C477 1.287 . S
C478 C479 1.524 . S
C478 H497 0.913 . S
C479 H455 0.950 . S
C479 C478 1.524 . S
C479 C480 1.415 . S
C480 H456 0.950 1_565 S
C480 C475 1.363 . S
C480 C479 1.415 . S
C481 H457 0.951 . S
C481 C482 1.366 1_565 S
C481 C483 1.388 . S
C482 C481 1.366 1_545 S
C482 C486 1.385 . S
C483 H458 0.951 . S
C483 C481 1.388 . S
C483 C484 1.366 1_565 S
C484 C483 1.366 1_545 S
C484 C485 1.414 . S
C484 C487 1.499 . S
C485 H459 0.950 . S
C485 C484 1.414 . S
C485 C486 1.374 . S
C486 H460 0.950 . S
C486 C482 1.385 . S
C486 C485 1.374 . S
C487 C484 1.499 . S
C487 C488 1.361 1_545 S
C487 C489 1.389 . S
C488 H461 0.962 . S
C488 C474 1.379 . S
C488 C487 1.361 1_565 S
C489 C473 1.377 . S
C489 C487 1.389 . S
C489 C490 1.524 . S
C490 C489 1.524 . S
C490 C491 1.397 . S
C490 C495 1.363 . S
C491 H462 0.950 . S
C491 C490 1.397 . S
C491 C492 1.334 . S
C492 H463 0.950 . S
C492 C491 1.334 . S
C492 C493 1.287 . S
C493 C492 1.287 . S
C493 C494 1.524 . S
C493 H496 0.999 . S
C494 H464 0.950 . S
C494 C493 1.524 . S
C494 C495 1.415 . S
C495 H465 0.950 . S
C495 C490 1.363 . S
C495 C494 1.415 . S
H496 C493 0.999 . S
H497 C478 0.913 . S
H498 C516 0.951 . S
H499 C518 0.951 . S
H500 C520 0.950 . S
H501 C521 0.950 . S
H502 C523 0.950 . S
H503 C526 0.950 . S
H504 C527 0.950 . S
H505 C529 0.950 . S
H506 C530 0.950 . S
H507 C531 0.951 . S
H508 C533 0.951 . S
H509 C535 0.950 . S
H510 C536 0.950 . S
H511 C538 0.950 . S
H512 C541 0.950 . S
H513 C542 0.950 . S
H514 C544 0.950 . S
H515 C545 0.950 . S
C516 H498 0.951 . S
C516 C517 1.366 . S
C516 C518 1.388 . S
C517 C516 1.366 . S
C517 C521 1.385 . S
C518 H499 0.951 . S
C518 C516 1.388 . S
C518 C519 1.366 . S
C519 C518 1.366 . S
C519 C520 1.414 . S
C519 C522 1.499 . S
C520 H500 0.950 . S
C520 C519 1.414 . S
C520 C521 1.374 . S
C521 H501 0.950 . S
C521 C517 1.385 . S
C521 C520 1.374 . S
C522 C519 1.499 . S
C522 C523 1.373 . S
C522 C524 1.389 . S
C523 H502 0.950 . S
C523 C522 1.373 . S
C523 C539 1.377 . S
C524 C522 1.389 . S
C524 C525 1.524 . S
C524 C538 1.377 . S
C525 C524 1.524 . S
C525 C526 1.397 . S
C525 C530 1.363 . S
C526 H503 0.950 . S
C526 C525 1.397 . S
C526 C527 1.334 . S
C527 H504 0.950 . S
C527 C526 1.334 . S
C527 C528 1.287 . S
C528 C527 1.287 . S
C528 C529 1.524 . S
C528 H547 0.913 . S
C529 H505 0.950 . S
C529 C528 1.524 . S
C529 C530 1.415 . S
C530 H506 0.950 . S
C530 C525 1.363 . S
C530 C529 1.415 . S
C531 H507 0.951 . S
C531 C532 1.366 . S
C531 C533 1.388 . S
C532 C531 1.366 . S
C532 C536 1.385 . S
C533 H508 0.951 . S
C533 C531 1.388 . S
C533 C534 1.366 . S
C534 C533 1.366 . S
C534 C535 1.414 . S
C534 C537 1.499 . S
C535 H509 0.950 . S
C535 C534 1.414 . S
C535 C536 1.374 . S
C536 H510 0.950 . S
C536 C532 1.385 . S
C536 C535 1.374 . S
C537 C534 1.499 . S
C537 C538 1.373 . S
C537 C539 1.389 . S
C538 H511 0.950 . S
C538 C524 1.377 . S
C538 C537 1.373 . S
C539 C523 1.377 . S
C539 C537 1.389 . S
C539 C540 1.524 . S
C540 C539 1.524 . S
C540 C541 1.397 . S
C540 C545 1.363 . S
C541 H512 0.950 . S
C541 C540 1.397 . S
C541 C542 1.334 . S
C542 H513 0.950 . S
C542 C541 1.334 . S
C542 C543 1.287 . S
C543 C542 1.287 . S
C543 C544 1.524 . S
C543 H546 0.999 . S
C544 H514 0.950 . S
C544 C543 1.524 . S
C544 C545 1.415 . S
C545 H515 0.950 . S
C545 C540 1.363 . S
C545 C544 1.415 . S
H546 C543 0.999 . S
H547 C528 0.913 . S
H548 C566 0.951 . S
H549 C568 0.951 . S
H550 C570 0.950 . S
H551 C571 0.950 . S
H552 C573 0.950 . S
H553 C576 0.950 . S
H554 C577 0.950 . S
H555 C579 0.950 . S
H556 C580 0.950 . S
H557 C581 0.951 . S
H558 C583 0.951 . S
H559 C585 0.950 . S
H560 C586 0.950 . S
H561 C588 0.950 . S
H562 C591 0.950 . S
H563 C592 0.950 . S
H564 C594 0.950 . S
H565 C595 0.950 . S
C566 H548 0.951 . S
C566 C567 1.366 . S
C566 C568 1.388 . S
C567 C566 1.366 . S
C567 C571 1.385 . S
C568 H549 0.951 . S
C568 C566 1.388 . S
C568 C569 1.366 . S
C569 C568 1.366 . S
C569 C570 1.414 . S
C569 C572 1.499 . S
C570 H550 0.950 . S
C570 C569 1.414 . S
C570 C571 1.374 . S
C571 H551 0.950 . S
C571 C567 1.385 . S
C571 C570 1.374 . S
C572 C569 1.499 . S
C572 C573 1.373 . S
C572 C574 1.389 . S
C573 H552 0.950 . S
C573 C572 1.373 . S
C573 C589 1.377 . S
C574 C572 1.389 . S
C574 C575 1.524 . S
C574 C588 1.377 . S
C575 C574 1.524 . S
C575 C576 1.397 . S
C575 C580 1.363 . S
C576 H553 0.950 . S
C576 C575 1.397 . S
C576 C577 1.334 . S
C577 H554 0.950 . S
C577 C576 1.334 . S
C577 C578 1.287 . S
C578 C577 1.287 . S
C578 C579 1.524 . S
C578 H597 0.913 . S
C579 H555 0.950 . S
C579 C578 1.524 . S
C579 C580 1.415 . S
C580 H556 0.950 . S
C580 C575 1.363 . S
C580 C579 1.415 . S
C581 H557 0.951 . S
C581 C582 1.366 . S
C581 C583 1.388 . S
C582 C581 1.366 . S
C582 C586 1.385 . S
C583 H558 0.951 . S
C583 C581 1.388 . S
C583 C584 1.366 . S
C584 C583 1.366 . S
C584 C585 1.414 . S
C584 C587 1.499 . S
C585 H559 0.950 . S
C585 C584 1.414 . S
C585 C586 1.374 . S
C586 H560 0.950 . S
C586 C582 1.385 . S
C586 C585 1.374 . S
C587 C584 1.499 . S
C587 C588 1.373 . S
C587 C589 1.389 . S
C588 H561 0.950 . S
C588 C574 1.377 . S
C588 C587 1.373 . S
C589 C573 1.377 . S
C589 C587 1.389 . S
C589 C590 1.524 . S
C590 C589 1.524 . S
C590 C591 1.397 . S
C590 C595 1.363 . S
C591 H562 0.950 . S
C591 C590 1.397 . S
C591 C592 1.334 . S
C592 H563 0.950 . S
C592 C591 1.334 . S
C592 C593 1.287 . S
C593 C592 1.287 . S
C593 C594 1.524 . S
C593 H596 0.999 . S
C594 H564 0.950 . S
C594 C593 1.524 . S
C594 C595 1.415 . S
C595 H565 0.950 . S
C595 C590 1.363 . S
C595 C594 1.415 . S
H596 C593 0.999 . S
H597 C578 0.913 . S
H598 C616 0.951 . S
H599 C618 0.951 . S
H600 C620 0.950 . S
H601 C621 0.950 . S
H602 C623 0.950 . S
H603 C626 0.950 1_455 S
H604 C627 0.950 . S
H605 C629 0.950 . S
H606 C630 0.950 . S
H607 C631 0.951 . S
H608 C633 0.951 . S
H609 C635 0.950 . S
H610 C636 0.950 . S
H611 C638 0.950 . S
H612 C641 0.950 1_655 S
H613 C642 0.950 . S
H614 C644 0.950 . S
H615 C645 0.950 . S
C616 H598 0.951 . S
C616 C617 1.360 1_655 S
C616 C618 1.388 . S
C617 C616 1.360 1_455 S
C617 C621 1.391 . S
C618 H599 0.951 . S
C618 C616 1.388 . S
C618 C619 1.343 1_655 S
C619 C618 1.343 1_455 S
C619 C620 1.437 . S
C619 C622 1.500 . S
C620 H600 0.950 . S
C620 C619 1.437 . S
C620 C621 1.374 . S
C621 H601 0.950 . S
C621 C617 1.391 . S
C621 C620 1.374 . S
C622 C619 1.500 . S
C622 C623 1.373 . S
C622 C624 1.389 1_455 S
C623 H602 0.950 . S
C623 C622 1.373 . S
C623 C639 1.377 . S
C624 C622 1.389 1_655 S
C624 C625 1.524 . S
C624 C638 1.377 . S
C625 C624 1.524 . S
C625 C626 1.397 . S
C625 C630 1.363 . S
C626 H603 0.950 1_655 S
C626 C625 1.397 . S
C626 C627 1.334 . S
C627 H604 0.950 . S
C627 C626 1.334 . S
C627 C628 1.287 . S
C628 C627 1.287 . S
C628 C629 1.524 . S
C628 H647 0.913 . S
C629 H605 0.950 . S
C629 C628 1.524 . S
C629 C630 1.415 . S
C630 H606 0.950 . S
C630 C625 1.363 . S
C630 C629 1.415 . S
C631 H607 0.951 . S
C631 C632 1.422 . S
C631 C633 1.388 . S
C632 C631 1.422 . S
C632 C636 1.329 1_455 S
C633 H608 0.951 . S
C633 C631 1.388 . S
C633 C634 1.405 . S
C634 C633 1.405 . S
C634 C635 1.375 1_455 S
C634 C637 1.498 . S
C635 H609 0.950 . S
C635 C634 1.375 1_655 S
C635 C636 1.374 . S
C636 H610 0.950 . S
C636 C632 1.329 1_655 S
C636 C635 1.374 . S
C637 C634 1.498 . S
C637 C638 1.375 1_455 S
C637 C639 1.387 . S
C638 H611 0.950 . S
C638 C624 1.377 . S
C638 C637 1.375 1_655 S
C639 C623 1.377 . S
C639 C637 1.387 . S
C639 C640 1.524 . S
C640 C639 1.524 . S
C640 C641 1.397 . S
C640 C645 1.363 . S
C641 H612 0.950 1_455 S
C641 C640 1.397 . S
C641 C642 1.334 . S
C642 H613 0.950 . S
C642 C641 1.334 . S
C642 C643 1.287 . S
C643 C642 1.287 . S
C643 C644 1.524 . S
C643 H646 0.999 . S
C644 H614 0.950 . S
C644 C643 1.524 . S
C644 C645 1.415 . S
C645 H615 0.950 . S
C645 C640 1.363 . S
C645 C644 1.415 . S
H646 C643 0.999 . S
H647 C628 0.913 . S
H648 C666 0.951 . S
H649 C668 0.951 . S
H650 C670 0.950 . S
H651 C671 0.950 . S
H652 C673 0.950 . S
H653 C676 0.950 . S
H654 C677 0.950 . S
H655 C679 0.950 . S
H656 C680 0.950 . S
H657 C681 0.951 . S
H658 C683 0.951 . S
H659 C685 0.950 . S
H660 C686 0.951 . S
H661 C688 0.950 . S
H662 C691 0.950 . S
H663 C692 0.950 . S
H664 C694 0.950 . S
H665 C695 0.950 . S
C666 H648 0.951 . S
C666 C667 1.366 . S
C666 C668 1.388 . S
C667 C666 1.366 . S
C667 C671 1.385 . S
C668 H649 0.951 . S
C668 C666 1.388 . S
C668 C669 1.366 . S
C669 C668 1.366 . S
C669 C670 1.414 . S
C669 C672 1.499 . S
C670 H650 0.950 . S
C670 C669 1.414 . S
C670 C671 1.374 . S
C671 H651 0.950 . S
C671 C667 1.385 . S
C671 C670 1.374 . S
C672 C669 1.499 . S
C672 C673 1.373 1_565 S
C672 C674 1.389 1_554 S
C673 H652 0.950 . S
C673 C672 1.373 1_545 S
C673 C689 1.377 1_554 S
C674 C672 1.389 1_556 S
C674 C675 1.524 . S
C674 C688 1.377 . S
C675 C674 1.524 . S
C675 C676 1.397 1_556 S
C675 C680 1.363 . S
C676 H653 0.950 . S
C676 C675 1.397 1_554 S
C676 C677 1.334 . S
C677 H654 0.950 . S
C677 C676 1.334 . S
C677 C678 1.287 1_554 S
C678 C677 1.287 1_556 S
C678 C679 1.524 . S
C678 H697 0.913 . S
C679 H655 0.950 . S
C679 C678 1.524 . S
C679 C680 1.415 . S
C680 H656 0.950 . S
C680 C675 1.363 . S
C680 C679 1.415 . S
C681 H657 0.951 . S
C681 C682 1.368 . S
C681 C683 1.388 . S
C682 C681 1.368 . S
C682 C686 1.383 1_565 S
C683 H658 0.951 . S
C683 C681 1.388 . S
C683 C684 1.366 . S
C684 C683 1.366 . S
C684 C685 1.413 1_565 S
C684 C687 1.499 . S
C685 H659 0.950 . S
C685 C684 1.413 1_545 S
C685 C686 1.374 . S
C686 H660 0.951 . S
C686 C682 1.383 1_545 S
C686 C685 1.374 . S
C687 C684 1.499 . S
C687 C688 1.390 . S
C687 C689 1.375 1_565 S
C688 H661 0.950 . S
C688 C674 1.377 . S
C688 C687 1.390 . S
C689 C673 1.377 1_556 S
C689 C687 1.375 1_545 S
C689 C690 1.524 . S
C690 C689 1.524 . S
C690 C691 1.397 . S
C690 C695 1.363 1_556 S
C691 H662 0.950 . S
C691 C690 1.397 . S
C691 C692 1.334 . S
C692 H663 0.950 . S
C692 C691 1.334 . S
C692 C693 1.287 . S
C693 C692 1.287 . S
C693 C694 1.524 1_556 S
C693 H696 0.999 . S
C694 H664 0.950 . S
C694 C693 1.524 1_554 S
C694 C695 1.415 . S
C695 H665 0.950 . S
C695 C690 1.363 1_554 S
C695 C694 1.415 . S
H696 C693 0.999 . S
H697 C678 0.913 . S
H698 C716 0.951 . S
H699 C718 0.951 . S
H700 C720 0.950 . S
H701 C721 0.950 . S
H702 C723 0.950 . S
H703 C726 0.950 . S
H704 C727 0.950 . S
H705 C729 0.950 . S
H706 C730 0.950 1_556 S
H707 C731 0.951 . S
H708 C733 0.951 . S
H709 C735 0.950 . S
H710 C736 0.950 . S
H711 C738 0.950 . S
H712 C741 0.950 . S
H713 C742 0.950 . S
H714 C744 0.950 . S
H715 C745 0.950 1_554 S
C716 H698 0.951 . S
C716 C717 1.366 . S
C716 C718 1.388 . S
C717 C716 1.366 . S
C717 C721 1.385 . S
C718 H699 0.951 . S
C718 C716 1.388 . S
C718 C719 1.366 . S
C719 C718 1.366 . S
C719 C720 1.414 . S
C719 C722 1.499 . S
C720 H700 0.950 . S
C720 C719 1.414 . S
C720 C721 1.374 . S
C721 H701 0.950 . S
C721 C717 1.385 . S
C721 C720 1.374 . S
C722 C719 1.499 . S
C722 C723 1.373 . S
C722 C724 1.389 . S
C723 H702 0.950 . S
C723 C722 1.373 . S
C723 C739 1.377 1_554 S
C724 C722 1.389 . S
C724 C725 1.524 . S
C724 C738 1.377 1_554 S
C725 C724 1.524 . S
C725 C726 1.397 . S
C725 C730 1.363 . S
C726 H703 0.950 . S
C726 C725 1.397 . S
C726 C727 1.334 . S
C727 H704 0.950 . S
C727 C726 1.334 . S
C727 C728 1.287 . S
C728 C727 1.287 . S
C728 C729 1.524 . S
C728 H747 0.913 . S
C729 H705 0.950 . S
C729 C728 1.524 . S
C729 C730 1.415 . S
C730 H706 0.950 1_554 S
C730 C725 1.363 . S
C730 C729 1.415 . S
C731 H707 0.951 . S
C731 C732 1.366 . S
C731 C733 1.388 . S
C732 C731 1.366 . S
C732 C736 1.385 . S
C733 H708 0.951 . S
C733 C731 1.388 . S
C733 C734 1.366 . S
C734 C733 1.366 . S
C734 C735 1.414 . S
C734 C737 1.499 . S
C735 H709 0.950 . S
C735 C734 1.414 . S
C735 C736 1.374 . S
C736 H710 0.950 . S
C736 C732 1.385 . S
C736 C735 1.374 . S
C737 C734 1.499 . S
C737 C738 1.373 . S
C737 C739 1.389 . S
C738 H711 0.950 . S
C738 C724 1.377 1_556 S
C738 C737 1.373 . S
C739 C723 1.377 1_556 S
C739 C737 1.389 . S
C739 C740 1.524 . S
C740 C739 1.524 . S
C740 C741 1.397 . S
C740 C745 1.363 . S
C741 H712 0.950 . S
C741 C740 1.397 . S
C741 C742 1.334 . S
C742 H713 0.950 . S
C742 C741 1.334 . S
C742 C743 1.287 . S
C743 C742 1.287 . S
C743 C744 1.524 . S
C743 H746 0.999 . S
C744 H714 0.950 . S
C744 C743 1.524 . S
C744 C745 1.415 . S
C745 H715 0.950 1_556 S
C745 C740 1.363 . S
C745 C744 1.415 . S
H746 C743 0.999 . S
H747 C728 0.913 . S
H748 C766 0.951 . S
H749 C768 0.951 . S
H750 C770 0.950 . S
H751 C771 0.950 . S
H752 C773 0.950 1_554 S
H753 C776 0.950 . S
H754 C777 0.950 . S
H755 C779 0.950 . S
H756 C780 0.950 . S
H757 C781 0.951 . S
H758 C783 0.951 . S
H759 C785 0.950 . S
H760 C786 0.950 . S
H761 C788 0.950 . S
H762 C791 0.950 . S
H763 C792 0.950 . S
H764 C794 0.950 . S
H765 C795 0.950 . S
C766 H748 0.951 . S
C766 C767 1.366 . S
C766 C768 1.388 . S
C767 C766 1.366 . S
C767 C771 1.385 . S
C768 H749 0.951 . S
C768 C766 1.388 . S
C768 C769 1.366 . S
C769 C768 1.366 . S
C769 C770 1.414 . S
C769 C772 1.499 . S
C770 H750 0.950 . S
C770 C769 1.414 . S
C770 C771 1.374 . S
C771 H751 0.950 . S
C771 C767 1.385 . S
C771 C770 1.374 . S
C772 C769 1.499 . S
C772 C773 1.373 1_554 S
C772 C774 1.389 . S
C773 H752 0.950 1_556 S
C773 C772 1.373 1_556 S
C773 C789 1.377 . S
C774 C772 1.389 . S
C774 C775 1.524 . S
C774 C788 1.377 1_554 S
C775 C774 1.524 . S
C775 C776 1.397 . S
C775 C780 1.363 . S
C776 H753 0.950 . S
C776 C775 1.397 . S
C776 C777 1.334 . S
C777 H754 0.950 . S
C777 C776 1.334 . S
C777 C778 1.287 . S
C778 C777 1.287 . S
C778 C779 1.524 . S
C778 H797 0.913 . S
C779 H755 0.950 . S
C779 C778 1.524 . S
C779 C780 1.415 . S
C780 H756 0.950 . S
C780 C775 1.363 . S
C780 C779 1.415 . S
C781 H757 0.951 . S
C781 C782 1.366 . S
C781 C783 1.388 . S
C782 C781 1.366 . S
C782 C786 1.385 . S
C783 H758 0.951 . S
C783 C781 1.388 . S
C783 C784 1.366 . S
C784 C783 1.366 . S
C784 C785 1.414 . S
C784 C787 1.499 . S
C785 H759 0.950 . S
C785 C784 1.414 . S
C785 C786 1.374 . S
C786 H760 0.950 . S
C786 C782 1.385 . S
C786 C785 1.374 . S
C787 C784 1.499 . S
C787 C788 1.373 . S
C787 C789 1.389 . S
C788 H761 0.950 . S
C788 C774 1.377 1_556 S
C788 C787 1.373 . S
C789 C773 1.377 . S
C789 C787 1.389 . S
C789 C790 1.524 . S
C790 C789 1.524 . S
C790 C791 1.397 . S
C790 C795 1.363 . S
C791 H762 0.950 . S
C791 C790 1.397 . S
C791 C792 1.334 . S
C792 H763 0.950 . S
C792 C791 1.334 . S
C792 C793 1.287 . S
C793 C792 1.287 . S
C793 C794 1.524 . S
C793 H796 0.999 . S
C794 H764 0.950 . S
C794 C793 1.524 . S
C794 C795 1.415 . S
C795 H765 0.950 . S
C795 C790 1.363 . S
C795 C794 1.415 . S
H796 C793 0.999 . S
H797 C778 0.913 . S
H798 C816 0.951 1_455 S
H799 C818 0.951 . S
H800 C820 0.950 . S
H801 C821 0.950 . S
H802 C823 0.950 . S
H803 C826 0.950 . S
H804 C827 0.950 . S
H805 C829 0.950 . S
H806 C830 0.950 . S
H807 C831 0.955 . S
H808 C833 0.951 . S
H809 C835 0.950 . S
H810 C836 0.950 . S
H811 C838 0.950 . S
H812 C841 0.950 . S
H813 C842 0.950 . S
H814 C844 0.950 . S
H815 C845 0.950 . S
C816 H798 0.951 1_655 S
C816 C817 1.366 . S
C816 C818 1.387 . S
C817 C816 1.366 . S
C817 C821 1.384 . S
C818 H799 0.951 . S
C818 C816 1.387 . S
C818 C819 1.368 . S
C819 C818 1.368 . S
C819 C820 1.417 . S
C819 C822 1.499 . S
C820 H800 0.950 . S
C820 C819 1.417 . S
C820 C821 1.374 . S
C821 H801 0.950 . S
C821 C817 1.384 . S
C821 C820 1.374 . S
C822 C819 1.499 . S
C822 C823 1.373 1_655 S
C822 C824 1.389 1_554 S
C823 H802 0.950 . S
C823 C822 1.373 1_455 S
C823 C839 1.377 1_554 S
C824 C822 1.389 1_556 S
C824 C825 1.524 . S
C824 C838 1.377 . S
C825 C824 1.524 . S
C825 C826 1.397 1_556 S
C825 C830 1.363 . S
C826 H803 0.950 . S
C826 C825 1.397 1_554 S
C826 C827 1.334 . S
C827 H804 0.950 . S
C827 C826 1.334 . S
C827 C828 1.287 . S
C828 C827 1.287 . S
C828 C829 1.524 1_554 S
C828 H847 0.913 . S
C829 H805 0.950 . S
C829 C828 1.524 1_556 S
C829 C830 1.415 . S
C830 H806 0.950 . S
C830 C825 1.363 . S
C830 C829 1.415 . S
C831 H807 0.955 . S
C831 C832 1.366 . S
C831 C833 1.387 . S
C832 C831 1.366 . S
C832 C836 1.384 . S
C833 H808 0.951 . S
C833 C831 1.387 . S
C833 C834 1.365 1_655 S
C834 C833 1.365 1_455 S
C834 C835 1.414 1_455 S
C834 C837 1.499 . S
C835 H809 0.950 . S
C835 C834 1.414 1_655 S
C835 C836 1.374 . S
C836 H810 0.950 . S
C836 C832 1.384 . S
C836 C835 1.374 . S
C837 C834 1.499 . S
C837 C838 1.360 1_455 S
C837 C839 1.402 . S
C838 H811 0.950 . S
C838 C824 1.377 . S
C838 C837 1.360 1_655 S
C839 C823 1.377 1_556 S
C839 C837 1.402 . S
C839 C840 1.524 . S
C840 C839 1.524 . S
C840 C841 1.397 . S
C840 C845 1.363 1_556 S
C841 H812 0.950 . S
C841 C840 1.397 . S
C841 C842 1.334 . S
C842 H813 0.950 . S
C842 C841 1.334 . S
C842 C843 1.287 . S
C843 C842 1.287 . S
C843 C844 1.524 1_556 S
C843 H846 0.999 . S
C844 H814 0.950 . S
C844 C843 1.524 1_554 S
C844 C845 1.415 . S
C845 H815 0.950 . S
C845 C840 1.363 1_554 S
C845 C844 1.415 . S
H846 C843 0.999 . S
H847 C828 0.913 . S
H848 C866 0.951 . S
H849 C868 0.951 . S
H850 C870 0.950 . S
H851 C871 0.950 . S
H852 C873 0.950 . S
H853 C876 0.950 . S
H854 C877 0.950 . S
H855 C879 0.950 . S
H856 C880 0.950 . S
H857 C881 0.951 . S
H858 C883 0.951 . S
H859 C885 0.950 1_455 S
H860 C886 0.950 . S
H861 C888 0.950 . S
H862 C891 0.950 . S
H863 C892 0.950 . S
H864 C894 0.950 . S
H865 C895 0.950 . S
C866 H848 0.951 . S
C866 C867 1.366 . S
C866 C868 1.388 . S
C867 C866 1.366 . S
C867 C871 1.385 1_455 S
C868 H849 0.951 . S
C868 C866 1.388 . S
C868 C869 1.366 1_455 S
C869 C868 1.366 1_655 S
C869 C870 1.414 . S
C869 C872 1.499 . S
C870 H850 0.950 . S
C870 C869 1.414 . S
C870 C871 1.374 . S
C871 H851 0.950 . S
C871 C867 1.385 1_655 S
C871 C870 1.374 . S
C872 C869 1.499 . S
C872 C873 1.373 . S
C872 C874 1.389 . S
C873 H852 0.950 . S
C873 C872 1.373 . S
C873 C889 1.377 . S
C874 C872 1.389 . S
C874 C875 1.524 . S
C874 C888 1.377 . S
C875 C874 1.524 . S
C875 C876 1.397 . S
C875 C880 1.363 1_655 S
C876 H853 0.950 . S
C876 C875 1.397 . S
C876 C877 1.334 . S
C877 H854 0.950 . S
C877 C876 1.334 . S
C877 C878 1.287 1_655 S
C878 C877 1.287 1_455 S
C878 C879 1.524 . S
C878 H897 0.913 . S
C879 H855 0.950 . S
C879 C878 1.524 . S
C879 C880 1.415 . S
C880 H856 0.950 . S
C880 C875 1.363 1_455 S
C880 C879 1.415 . S
C881 H857 0.951 . S
C881 C882 1.366 . S
C881 C883 1.388 . S
C882 C881 1.366 . S
C882 C886 1.385 . S
C883 H858 0.951 . S
C883 C881 1.388 . S
C883 C884 1.366 . S
C884 C883 1.366 . S
C884 C885 1.414 . S
C884 C887 1.499 . S
C885 H859 0.950 1_655 S
C885 C884 1.414 . S
C885 C886 1.374 . S
C886 H860 0.950 . S
C886 C882 1.385 . S
C886 C885 1.374 . S
C887 C884 1.499 . S
C887 C888 1.373 . S
C887 C889 1.389 . S
C888 H861 0.950 . S
C888 C874 1.377 . S
C888 C887 1.373 . S
C889 C873 1.377 . S
C889 C887 1.389 . S
C889 C890 1.524 . S
C890 C889 1.524 . S
C890 C891 1.397 . S
C890 C895 1.363 . S
C891 H862 0.950 . S
C891 C890 1.397 . S
C891 C892 1.334 . S
C892 H863 0.950 . S
C892 C891 1.334 . S
C892 C893 1.287 . S
C893 C892 1.287 . S
C893 C894 1.524 . S
C893 H896 0.999 . S
C894 H864 0.950 . S
C894 C893 1.524 . S
C894 C895 1.415 . S
C895 H865 0.950 . S
C895 C890 1.363 . S
C895 C894 1.415 . S
H896 C893 0.999 . S
H897 C878 0.913 . S
H898 C916 0.951 . S
H899 C918 0.951 . S
H900 C920 0.950 . S
H901 C921 0.950 . S
H902 C923 0.950 . S
H903 C926 0.950 . S
H904 C927 0.950 . S
H905 C929 0.950 . S
H906 C930 0.950 . S
H907 C931 0.951 1_545 S
H908 C933 0.951 1_545 S
H909 C935 0.950 . S
H910 C936 0.950 . S
H911 C938 0.950 . S
H912 C941 0.891 1_565 S
H913 C942 0.950 . S
H914 C944 0.950 . S
H915 C945 0.950 . S
C916 H898 0.951 . S
C916 C917 1.366 1_565 S
C916 C918 1.388 . S
C917 C916 1.366 1_545 S
C917 C921 1.385 . S
C918 H899 0.951 . S
C918 C916 1.388 . S
C918 C919 1.383 . S
C919 C918 1.383 . S
C919 C920 1.391 1_565 S
C919 C922 1.504 . S
C920 H900 0.950 . S
C920 C919 1.391 1_545 S
C920 C921 1.374 . S
C921 H901 0.950 . S
C921 C917 1.385 . S
C921 C920 1.374 . S
C922 C919 1.504 . S
C922 C923 1.373 1_565 S
C922 C924 1.389 . S
C923 H902 0.950 . S
C923 C922 1.373 1_545 S
C923 C939 1.387 . S
C924 C922 1.389 . S
C924 C925 1.524 . S
C924 C938 1.377 . S
C925 C924 1.524 . S
C925 C926 1.397 . S
C925 C930 1.363 . S
C926 H903 0.950 . S
C926 C925 1.397 . S
C926 C927 1.334 . S
C927 H904 0.950 . S
C927 C926 1.334 . S
C927 C928 1.287 . S
C928 C927 1.287 . S
C928 C929 1.524 . S
C928 H947 0.913 . S
C929 H905 0.950 . S
C929 C928 1.524 . S
C929 C930 1.415 . S
C930 H906 0.950 . S
C930 C925 1.363 . S
C930 C929 1.415 . S
C931 H907 0.951 1_565 S
C931 C932 1.366 . S
C931 C933 1.388 . S
C932 C931 1.366 . S
C932 C936 1.385 . S
C933 H908 0.951 1_565 S
C933 C931 1.388 . S
C933 C934 1.366 . S
C934 C933 1.366 . S
C934 C935 1.414 . S
C934 C937 1.499 . S
C935 H909 0.950 . S
C935 C934 1.414 . S
C935 C936 1.374 . S
C936 H910 0.950 . S
C936 C932 1.385 . S
C936 C935 1.374 . S
C937 C934 1.499 . S
C937 C938 1.373 . S
C937 C939 1.359 1_565 S
C938 H911 0.950 . S
C938 C924 1.377 . S
C938 C937 1.373 . S
C939 C923 1.387 . S
C939 C937 1.359 1_545 S
C939 C940 1.545 . S
C940 C939 1.545 . S
C940 C941 1.429 . S
C940 C945 1.363 . S
C941 H912 0.891 1_545 S
C941 C940 1.429 . S
C941 C942 1.361 . S
C942 H913 0.950 . S
C942 C941 1.361 . S
C942 C943 1.287 . S
C943 C942 1.287 . S
C943 C944 1.524 . S
C943 H946 0.999 . S
C944 H914 0.950 . S
C944 C943 1.524 . S
C944 C945 1.415 . S
C945 H915 0.950 . S
C945 C940 1.363 . S
C945 C944 1.415 . S
H946 C943 0.999 . S
H947 C928 0.913 . S
H948 C966 0.951 . S
H949 C968 0.951 . S
H950 C970 0.950 . S
H951 C971 0.950 . S
H952 C973 0.950 . S
H953 C976 0.950 . S
H954 C977 0.950 . S
H955 C979 0.950 . S
H956 C980 0.950 . S
H957 C981 0.951 . S
H958 C983 0.951 . S
H959 C985 0.950 . S
H960 C986 0.950 . S
H961 C988 0.950 . S
H962 C991 0.950 . S
H963 C992 0.950 . S
H964 C994 0.950 . S
H965 C995 0.950 . S
C966 H948 0.951 . S
C966 C967 1.366 . S
C966 C968 1.388 . S
C967 C966 1.366 . S
C967 C971 1.385 . S
C968 H949 0.951 . S
C968 C966 1.388 . S
C968 C969 1.366 . S
C969 C968 1.366 . S
C969 C970 1.414 . S
C969 C972 1.499 . S
C970 H950 0.950 . S
C970 C969 1.414 . S
C970 C971 1.374 . S
C971 H951 0.950 . S
C971 C967 1.385 . S
C971 C970 1.374 . S
C972 C969 1.499 . S
C972 C973 1.373 . S
C972 C974 1.389 . S
C973 H952 0.950 . S
C973 C972 1.373 . S
C973 C989 1.377 . S
C974 C972 1.389 . S
C974 C975 1.524 . S
C974 C988 1.377 . S
C975 C974 1.524 . S
C975 C976 1.397 . S
C975 C980 1.363 . S
C976 H953 0.950 . S
C976 C975 1.397 . S
C976 C977 1.334 . S
C977 H954 0.950 . S
C977 C976 1.334 . S
C977 C978 1.287 . S
C978 C977 1.287 . S
C978 C979 1.524 . S
C978 H997 0.913 . S
C979 H955 0.950 . S
C979 C978 1.524 . S
C979 C980 1.415 . S
C980 H956 0.950 . S
C980 C975 1.363 . S
C980 C979 1.415 . S
C981 H957 0.951 . S
C981 C982 1.366 . S
C981 C983 1.388 . S
C982 C981 1.366 . S
C982 C986 1.385 . S
C983 H958 0.951 . S
C983 C981 1.388 . S
C983 C984 1.366 . S
C984 C983 1.366 . S
C984 C985 1.414 . S
C984 C987 1.499 . S
C985 H959 0.950 . S
C985 C984 1.414 . S
C985 C986 1.374 . S
C986 H960 0.950 . S
C986 C982 1.385 . S
C986 C985 1.374 . S
C987 C984 1.499 . S
C987 C988 1.373 . S
C987 C989 1.389 . S
C988 H961 0.950 . S
C988 C974 1.377 . S
C988 C987 1.373 . S
C989 C973 1.377 . S
C989 C987 1.389 . S
C989 C990 1.524 . S
C990 C989 1.524 . S
C990 C991 1.397 . S
C990 C995 1.363 . S
C991 H962 0.950 . S
C991 C990 1.397 . S
C991 C992 1.334 . S
C992 H963 0.950 . S
C992 C991 1.334 . S
C992 C993 1.287 . S
C993 C992 1.287 . S
C993 C994 1.524 . S
C993 H996 0.999 . S
C994 H964 0.950 . S
C994 C993 1.524 . S
C994 C995 1.415 . S
C995 H965 0.950 . S
C995 C990 1.363 . S
C995 C994 1.415 . S
H996 C993 0.999 . S
H997 C978 0.913 . S
H998 C1016 0.951 . S
H999 C1018 0.951 . S
H1000 C1020 0.950 . S
H1001 C1021 0.950 . S
H1002 C1023 0.950 . S
H1003 C1026 0.950 . S
H1004 C1027 0.950 . S
H1005 C1029 0.950 . S
H1006 C1030 0.950 . S
H1007 C1031 0.951 . S
H1008 C1033 0.951 . S
H1009 C1035 0.950 . S
H1010 C1036 0.950 . S
H1011 C1038 0.950 . S
H1012 C1041 0.950 . S
H1013 C1042 0.950 . S
H1014 C1044 0.950 . S
H1015 C1045 0.950 . S
C1016 H998 0.951 . S
C1016 C1017 1.366 . S
C1016 C1018 1.388 . S
C1017 C1016 1.366 . S
C1017 C1021 1.385 . S
C1018 H999 0.951 . S
C1018 C1016 1.388 . S
C1018 C1019 1.366 . S
C1019 C1018 1.366 . S
C1019 C1020 1.414 . S
C1019 C1022 1.499 . S
C1020 H1000 0.950 . S
C1020 C1019 1.414 . S
C1020 C1021 1.374 . S
C1021 H1001 0.950 . S
C1021 C1017 1.385 . S
C1021 C1020 1.374 . S
C1022 C1019 1.499 . S
C1022 C1023 1.373 . S
C1022 C1024 1.389 . S
C1023 H1002 0.950 . S
C1023 C1022 1.373 . S
C1023 C1039 1.377 . S
C1024 C1022 1.389 . S
C1024 C1025 1.524 . S
C1024 C1038 1.377 . S
C1025 C1024 1.524 . S
C1025 C1026 1.397 . S
C1025 C1030 1.363 . S
C1026 H1003 0.950 . S
C1026 C1025 1.397 . S
C1026 C1027 1.334 . S
C1027 H1004 0.950 . S
C1027 C1026 1.334 . S
C1027 C1028 1.287 . S
C1028 C1027 1.287 . S
C1028 C1029 1.524 . S
C1028 H1047 0.913 . S
C1029 H1005 0.950 . S
C1029 C1028 1.524 . S
C1029 C1030 1.415 . S
C1030 H1006 0.950 . S
C1030 C1025 1.363 . S
C1030 C1029 1.415 . S
C1031 H1007 0.951 . S
C1031 C1032 1.366 . S
C1031 C1033 1.388 . S
C1032 C1031 1.366 . S
C1032 C1036 1.385 . S
C1033 H1008 0.951 . S
C1033 C1031 1.388 . S
C1033 C1034 1.366 . S
C1034 C1033 1.366 . S
C1034 C1035 1.414 . S
C1034 C1037 1.499 . S
C1035 H1009 0.950 . S
C1035 C1034 1.414 . S
C1035 C1036 1.374 . S
C1036 H1010 0.950 . S
C1036 C1032 1.385 . S
C1036 C1035 1.374 . S
C1037 C1034 1.499 . S
C1037 C1038 1.373 . S
C1037 C1039 1.389 . S
C1038 H1011 0.950 . S
C1038 C1024 1.377 . S
C1038 C1037 1.373 . S
C1039 C1023 1.377 . S
C1039 C1037 1.389 . S
C1039 C1040 1.524 . S
C1040 C1039 1.524 . S
C1040 C1041 1.397 . S
C1040 C1045 1.363 . S
C1041 H1012 0.950 . S
C1041 C1040 1.397 . S
C1041 C1042 1.334 . S
C1042 H1013 0.950 . S
C1042 C1041 1.334 . S
C1042 C1043 1.287 . S
C1043 C1042 1.287 . S
C1043 C1044 1.524 . S
C1043 H1046 0.999 . S
C1044 H1014 0.950 . S
C1044 C1043 1.524 . S
C1044 C1045 1.415 . S
C1045 H1015 0.950 . S
C1045 C1040 1.363 . S
C1045 C1044 1.415 . S
H1046 C1043 0.999 . S
H1047 C1028 0.913 . S
H1048 C1066 0.951 . S
H1049 C1068 0.951 . S
H1050 C1070 0.950 . S
H1051 C1071 0.950 . S
H1052 C1073 0.950 . S
H1053 C1076 0.950 . S
H1054 C1077 0.950 . S
H1055 C1079 0.950 . S
H1056 C1080 0.950 . S
H1057 C1081 0.951 . S
H1058 C1083 0.951 1_655 S
H1059 C1085 0.950 . S
H1060 C1086 0.950 . S
H1061 C1088 0.950 . S
H1062 C1091 0.950 1_455 S
H1063 C1092 0.950 . S
H1064 C1094 0.950 . S
H1065 C1095 0.950 . S
C1066 H1048 0.951 . S
C1066 C1067 1.366 1_455 S
C1066 C1068 1.388 . S
C1067 C1066 1.366 1_655 S
C1067 C1071 1.385 . S
C1068 H1049 0.951 . S
C1068 C1066 1.388 . S
C1068 C1069 1.366 . S
C1069 C1068 1.366 . S
C1069 C1070 1.414 1_455 S
C1069 C1072 1.499 . S
C1070 H1050 0.950 . S
C1070 C1069 1.414 1_655 S
C1070 C1071 1.374 . S
C1071 H1051 0.950 . S
C1071 C1067 1.385 . S
C1071 C1070 1.374 . S
C1072 C1069 1.499 . S
C1072 C1073 1.373 1_454 S
C1072 C1074 1.389 . S
C1073 H1052 0.950 . S
C1073 C1072 1.373 1_656 S
C1073 C1089 1.374 1_655 S
C1074 C1072 1.389 . S
C1074 C1075 1.524 . S
C1074 C1088 1.377 1_554 S
C1075 C1074 1.524 . S
C1075 C1076 1.397 . S
C1075 C1080 1.363 . S
C1076 H1053 0.950 . S
C1076 C1075 1.397 . S
C1076 C1077 1.334 . S
C1077 H1054 0.950 . S
C1077 C1076 1.334 . S
C1077 C1078 1.287 . S
C1078 C1077 1.287 . S
C1078 C1079 1.524 . S
C1078 H1097 0.913 . S
C1079 H1055 0.950 . S
C1079 C1078 1.524 . S
C1079 C1080 1.415 . S
C1080 H1056 0.950 . S
C1080 C1075 1.363 . S
C1080 C1079 1.415 . S
C1081 H1057 0.951 . S
C1081 C1082 1.366 . S
C1081 C1083 1.388 . S
C1082 C1081 1.366 . S
C1082 C1086 1.385 . S
C1083 H1058 0.951 1_455 S
C1083 C1081 1.388 . S
C1083 C1084 1.366 . S
C1084 C1083 1.366 . S
C1084 C1085 1.414 . S
C1084 C1087 1.499 . S
C1085 H1059 0.950 . S
C1085 C1084 1.414 . S
C1085 C1086 1.374 . S
C1086 H1060 0.950 . S
C1086 C1082 1.385 . S
C1086 C1085 1.374 . S
C1087 C1084 1.499 . S
C1087 C1088 1.373 . S
C1087 C1089 1.400 . S
C1088 H1061 0.950 . S
C1088 C1074 1.377 1_556 S
C1088 C1087 1.373 . S
C1089 C1073 1.374 1_455 S
C1089 C1087 1.400 . S
C1089 C1090 1.516 1_455 S
C1090 C1089 1.516 1_655 S
C1090 C1091 1.397 . S
C1090 C1095 1.363 . S
C1091 H1062 0.950 1_655 S
C1091 C1090 1.397 . S
C1091 C1092 1.334 . S
C1092 H1063 0.950 . S
C1092 C1091 1.334 . S
C1092 C1093 1.287 . S
C1093 C1092 1.287 . S
C1093 C1094 1.524 . S
C1093 H1096 0.999 . S
C1094 H1064 0.950 . S
C1094 C1093 1.524 . S
C1094 C1095 1.415 . S
C1095 H1065 0.950 . S
C1095 C1090 1.363 . S
C1095 C1094 1.415 . S
H1096 C1093 0.999 . S
H1097 C1078 0.913 . S
H1098 C1116 0.951 . S
H1099 C1118 0.951 . S
H1100 C1120 0.950 . S
H1101 C1121 0.950 . S
H1102 C1123 0.950 . S
H1103 C1126 0.950 . S
H1104 C1127 0.950 . S
H1105 C1129 0.950 . S
H1106 C1130 0.950 . S
H1107 C1131 0.951 . S
H1108 C1133 0.951 . S
H1109 C1135 0.950 1_565 S
H1110 C1136 0.950 . S
H1111 C1138 0.927 1_565 S
H1112 C1141 0.950 . S
H1113 C1142 0.950 . S
H1114 C1144 0.950 . S
H1115 C1145 0.950 . S
C1116 H1098 0.951 . S
C1116 C1117 1.366 . S
C1116 C1118 1.388 . S
C1117 C1116 1.366 . S
C1117 C1121 1.385 1_565 S
C1118 H1099 0.951 . S
C1118 C1116 1.388 . S
C1118 C1119 1.366 1_565 S
C1119 C1118 1.366 1_545 S
C1119 C1120 1.414 . S
C1119 C1122 1.499 . S
C1120 H1100 0.950 . S
C1120 C1119 1.414 . S
C1120 C1121 1.374 . S
C1121 H1101 0.950 . S
C1121 C1117 1.385 1_545 S
C1121 C1120 1.374 . S
C1122 C1119 1.499 . S
C1122 C1123 1.373 . S
C1122 C1124 1.389 1_544 S
C1123 H1102 0.950 . S
C1123 C1122 1.373 . S
C1123 C1139 1.377 . S
C1124 C1122 1.389 1_566 S
C1124 C1125 1.524 . S
C1124 C1138 1.369 1_565 S
C1125 C1124 1.524 . S
C1125 C1126 1.397 . S
C1125 C1130 1.363 . S
C1126 H1103 0.950 . S
C1126 C1125 1.397 . S
C1126 C1127 1.334 . S
C1127 H1104 0.950 . S
C1127 C1126 1.334 . S
C1127 C1128 1.287 . S
C1128 C1127 1.287 . S
C1128 C1129 1.524 . S
C1128 H1147 0.913 . S
C1129 H1105 0.950 . S
C1129 C1128 1.524 . S
C1129 C1130 1.415 . S
C1130 H1106 0.950 . S
C1130 C1125 1.363 . S
C1130 C1129 1.415 . S
C1131 H1107 0.951 . S
C1131 C1132 1.366 . S
C1131 C1133 1.388 . S
C1132 C1131 1.366 . S
C1132 C1136 1.385 . S
C1133 H1108 0.951 . S
C1133 C1131 1.388 . S
C1133 C1134 1.366 . S
C1134 C1133 1.366 . S
C1134 C1135 1.414 . S
C1134 C1137 1.499 . S
C1135 H1109 0.950 1_545 S
C1135 C1134 1.414 . S
C1135 C1136 1.374 . S
C1136 H1110 0.950 . S
C1136 C1132 1.385 . S
C1136 C1135 1.374 . S
C1137 C1134 1.499 . S
C1137 C1138 1.405 . S
C1137 C1139 1.389 1_556 S
C1138 H1111 0.927 1_545 S
C1138 C1124 1.369 1_545 S
C1138 C1137 1.405 . S
C1139 C1123 1.377 . S
C1139 C1137 1.389 1_554 S
C1139 C1140 1.524 . S
C1140 C1139 1.524 . S
C1140 C1141 1.397 . S
C1140 C1145 1.363 . S
C1141 H1112 0.950 . S
C1141 C1140 1.397 . S
C1141 C1142 1.334 . S
C1142 H1113 0.950 . S
C1142 C1141 1.334 . S
C1142 C1143 1.287 . S
C1143 C1142 1.287 . S
C1143 C1144 1.524 . S
C1143 H1146 0.999 . S
C1144 H1114 0.950 . S
C1144 C1143 1.524 . S
C1144 C1145 1.415 . S
C1145 H1115 0.950 . S
C1145 C1140 1.363 . S
C1145 C1144 1.415 . S
H1146 C1143 0.999 . S
H1147 C1128 0.913 . S
H1148 C1166 0.951 . S
H1149 C1168 0.951 . S
H1150 C1170 0.950 1_556 S
H1151 C1171 0.950 . S
H1152 C1173 0.950 . S
H1153 C1176 0.950 . S
H1154 C1177 0.950 . S
H1155 C1179 0.950 . S
H1156 C1180 0.950 . S
H1157 C1181 0.951 . S
H1158 C1183 0.951 . S
H1159 C1185 0.950 . S
H1160 C1186 0.950 . S
H1161 C1188 0.949 1_554 S
H1162 C1191 0.950 . S
H1163 C1192 0.950 . S
H1164 C1194 0.950 . S
H1165 C1195 0.950 . S
C1166 H1148 0.951 . S
C1166 C1167 1.366 . S
C1166 C1168 1.388 . S
C1167 C1166 1.366 . S
C1167 C1171 1.385 . S
C1168 H1149 0.951 . S
C1168 C1166 1.388 . S
C1168 C1169 1.366 . S
C1169 C1168 1.366 . S
C1169 C1170 1.414 . S
C1169 C1172 1.499 . S
C1170 H1150 0.950 1_554 S
C1170 C1169 1.414 . S
C1170 C1171 1.374 . S
C1171 H1151 0.950 . S
C1171 C1167 1.385 . S
C1171 C1170 1.374 . S
C1172 C1169 1.499 . S
C1172 C1173 1.373 1_554 S
C1172 C1174 1.389 . S
C1173 H1152 0.950 . S
C1173 C1172 1.373 1_556 S
C1173 C1189 1.377 . S
C1174 C1172 1.389 . S
C1174 C1175 1.524 . S
C1174 C1188 1.377 1_554 S
C1175 C1174 1.524 . S
C1175 C1176 1.397 . S
C1175 C1180 1.363 . S
C1176 H1153 0.950 . S
C1176 C1175 1.397 . S
C1176 C1177 1.334 . S
C1177 H1154 0.950 . S
C1177 C1176 1.334 . S
C1177 C1178 1.287 . S
C1178 C1177 1.287 . S
C1178 C1179 1.524 . S
C1178 H1197 0.913 . S
C1179 H1155 0.950 . S
C1179 C1178 1.524 . S
C1179 C1180 1.415 . S
C1180 H1156 0.950 . S
C1180 C1175 1.363 . S
C1180 C1179 1.415 . S
C1181 H1157 0.951 . S
C1181 C1182 1.366 . S
C1181 C1183 1.388 . S
C1182 C1181 1.366 . S
C1182 C1186 1.385 . S
C1183 H1158 0.951 . S
C1183 C1181 1.388 . S
C1183 C1184 1.366 . S
C1184 C1183 1.366 . S
C1184 C1185 1.414 . S
C1184 C1187 1.499 . S
C1185 H1159 0.950 . S
C1185 C1184 1.414 . S
C1185 C1186 1.374 . S
C1186 H1160 0.950 . S
C1186 C1182 1.385 . S
C1186 C1185 1.374 . S
C1187 C1184 1.499 . S
C1187 C1188 1.373 . S
C1187 C1189 1.389 . S
C1188 H1161 0.949 1_556 S
C1188 C1174 1.377 1_556 S
C1188 C1187 1.373 . S
C1189 C1173 1.377 . S
C1189 C1187 1.389 . S
C1189 C1190 1.524 . S
C1190 C1189 1.524 . S
C1190 C1191 1.397 . S
C1190 C1195 1.363 . S
C1191 H1162 0.950 . S
C1191 C1190 1.397 . S
C1191 C1192 1.334 . S
C1192 H1163 0.950 . S
C1192 C1191 1.334 . S
C1192 C1193 1.287 . S
C1193 C1192 1.287 . S
C1193 C1194 1.524 . S
C1193 H1196 0.999 . S
C1194 H1164 0.950 . S
C1194 C1193 1.524 . S
C1194 C1195 1.415 . S
C1195 H1165 0.950 . S
C1195 C1190 1.363 . S
C1195 C1194 1.415 . S
H1196 C1193 0.999 . S
H1197 C1178 0.913 . S
H1198 C1216 0.951 . S
H1199 C1218 0.951 . S
H1200 C1220 0.950 1_556 S
H1201 C1221 0.950 . S
H1202 C1223 0.950 . S
H1203 C1226 0.950 . S
H1204 C1227 0.950 . S
H1205 C1229 0.950 . S
H1206 C1230 0.950 . S
H1207 C1231 0.951 . S
H1208 C1233 0.951 . S
H1209 C1235 0.950 . S
H1210 C1236 0.950 . S
H1211 C1238 0.948 1_554 S
H1212 C1241 0.950 . S
H1213 C1242 0.950 . S
H1214 C1244 0.950 . S
H1215 C1245 0.950 . S
C1216 H1198 0.951 . S
C1216 C1217 1.366 . S
C1216 C1218 1.388 . S
C1217 C1216 1.366 . S
C1217 C1221 1.385 . S
C1218 H1199 0.951 . S
C1218 C1216 1.388 . S
C1218 C1219 1.366 . S
C1219 C1218 1.366 . S
C1219 C1220 1.414 . S
C1219 C1222 1.499 . S
C1220 H1200 0.950 1_554 S
C1220 C1219 1.414 . S
C1220 C1221 1.374 . S
C1221 H1201 0.950 . S
C1221 C1217 1.385 . S
C1221 C1220 1.374 . S
C1222 C1219 1.499 . S
C1222 C1223 1.373 1_554 S
C1222 C1224 1.389 . S
C1223 H1202 0.950 . S
C1223 C1222 1.373 1_556 S
C1223 C1239 1.377 . S
C1224 C1222 1.389 . S
C1224 C1225 1.524 . S
C1224 C1238 1.377 1_554 S
C1225 C1224 1.524 . S
C1225 C1226 1.397 . S
C1225 C1230 1.363 . S
C1226 H1203 0.950 . S
C1226 C1225 1.397 . S
C1226 C1227 1.334 . S
C1227 H1204 0.950 . S
C1227 C1226 1.334 . S
C1227 C1228 1.287 . S
C1228 C1227 1.287 . S
C1228 C1229 1.524 . S
C1228 H1247 0.913 . S
C1229 H1205 0.950 . S
C1229 C1228 1.524 . S
C1229 C1230 1.415 . S
C1230 H1206 0.950 . S
C1230 C1225 1.363 . S
C1230 C1229 1.415 . S
C1231 H1207 0.951 . S
C1231 C1232 1.366 . S
C1231 C1233 1.388 . S
C1232 C1231 1.366 . S
C1232 C1236 1.385 . S
C1233 H1208 0.951 . S
C1233 C1231 1.388 . S
C1233 C1234 1.366 . S
C1234 C1233 1.366 . S
C1234 C1235 1.414 . S
C1234 C1237 1.499 . S
C1235 H1209 0.950 . S
C1235 C1234 1.414 . S
C1235 C1236 1.374 . S
C1236 H1210 0.950 . S
C1236 C1232 1.385 . S
C1236 C1235 1.374 . S
C1237 C1234 1.499 . S
C1237 C1238 1.373 . S
C1237 C1239 1.389 . S
C1238 H1211 0.948 1_556 S
C1238 C1224 1.377 1_556 S
C1238 C1237 1.373 . S
C1239 C1223 1.377 . S
C1239 C1237 1.389 . S
C1239 C1240 1.524 . S
C1240 C1239 1.524 . S
C1240 C1241 1.397 . S
C1240 C1245 1.363 . S
C1241 H1212 0.950 . S
C1241 C1240 1.397 . S
C1241 C1242 1.334 . S
C1242 H1213 0.950 . S
C1242 C1241 1.334 . S
C1242 C1243 1.287 . S
C1243 C1242 1.287 . S
C1243 C1244 1.524 . S
C1243 H1246 0.999 . S
C1244 H1214 0.950 . S
C1244 C1243 1.524 . S
C1244 C1245 1.415 . S
C1245 H1215 0.950 . S
C1245 C1240 1.363 . S
C1245 C1244 1.415 . S
H1246 C1243 0.999 . S
H1247 C1228 0.913 . S
H1248 C1266 0.951 . S
H1249 C1268 0.951 . S
H1250 C1270 0.950 . S
H1251 C1271 0.950 . S
H1252 C1273 0.950 . S
H1253 C1276 0.950 . S
H1254 C1277 0.950 . S
H1255 C1279 0.950 1_655 S
H1256 C1280 0.903 1_655 S
H1257 C1281 0.951 . S
H1258 C1283 0.951 . S
H1259 C1285 0.950 . S
H1260 C1286 0.950 . S
H1261 C1288 0.950 . S
H1262 C1291 0.950 . S
H1263 C1292 0.950 . S
H1264 C1294 0.950 . S
H1265 C1295 0.950 . S
C1266 H1248 0.951 . S
C1266 C1267 1.366 1_655 S
C1266 C1268 1.388 . S
C1267 C1266 1.366 1_455 S
C1267 C1271 1.385 . S
C1268 H1249 0.951 . S
C1268 C1266 1.388 . S
C1268 C1269 1.366 1_655 S
C1269 C1268 1.366 1_455 S
C1269 C1270 1.414 . S
C1269 C1272 1.499 . S
C1270 H1250 0.950 . S
C1270 C1269 1.414 . S
C1270 C1271 1.374 . S
C1271 H1251 0.950 . S
C1271 C1267 1.385 . S
C1271 C1270 1.374 . S
C1272 C1269 1.499 . S
C1272 C1273 1.373 . S
C1272 C1274 1.389 . S
C1273 H1252 0.950 . S
C1273 C1272 1.373 . S
C1273 C1289 1.377 . S
C1274 C1272 1.389 . S
C1274 C1275 1.524 . S
C1274 C1288 1.377 . S
C1275 C1274 1.524 . S
C1275 C1276 1.397 . S
C1275 C1280 1.398 . S
C1276 H1253 0.950 . S
C1276 C1275 1.397 . S
C1276 C1277 1.334 . S
C1277 H1254 0.950 . S
C1277 C1276 1.334 . S
C1277 C1278 1.287 . S
C1278 C1277 1.287 . S
C1278 C1279 1.524 . S
C1278 H1297 0.895 1_556 S
C1279 H1255 0.950 1_455 S
C1279 C1278 1.524 . S
C1279 C1280 1.430 . S
C1280 H1256 0.903 1_455 S
C1280 C1275 1.398 . S
C1280 C1279 1.430 . S
C1281 H1257 0.951 . S
C1281 C1282 1.366 . S
C1281 C1283 1.388 . S
C1282 C1281 1.366 . S
C1282 C1286 1.385 1_455 S
C1283 H1258 0.951 . S
C1283 C1281 1.388 . S
C1283 C1284 1.366 . S
C1284 C1283 1.366 . S
C1284 C1285 1.414 1_455 S
C1284 C1287 1.499 . S
C1285 H1259 0.950 . S
C1285 C1284 1.414 1_655 S
C1285 C1286 1.374 . S
C1286 H1260 0.950 . S
C1286 C1282 1.385 1_655 S
C1286 C1285 1.374 . S
C1287 C1284 1.499 . S
C1287 C1288 1.373 . S
C1287 C1289 1.389 . S
C1288 H1261 0.950 . S
C1288 C1274 1.377 . S
C1288 C1287 1.373 . S
C1289 C1273 1.377 . S
C1289 C1287 1.389 . S
C1289 C1290 1.516 1_455 S
C1290 C1289 1.516 1_655 S
C1290 C1291 1.437 . S
C1290 C1295 1.337 1_655 S
C1291 H1262 0.950 . S
C1291 C1290 1.437 . S
C1291 C1292 1.334 . S
C1292 H1263 0.950 . S
C1292 C1291 1.334 . S
C1292 C1293 1.287 . S
C1293 C1292 1.287 . S
C1293 C1294 1.524 1_655 S
C1293 H1296 0.999 . S
C1294 H1264 0.950 . S
C1294 C1293 1.524 1_455 S
C1294 C1295 1.415 . S
C1295 H1265 0.950 . S
C1295 C1290 1.337 1_455 S
C1295 C1294 1.415 . S
H1296 C1293 0.999 . S
H1297 C1278 0.895 1_554 S
H1298 C1316 0.951 . S
H1299 C1318 0.951 . S
H1300 C1320 0.967 . S
H1301 C1321 0.975 . S
H1302 C1323 0.950 . S
H1303 C1326 0.950 . S
H1304 C1327 0.950 . S
H1305 C1329 0.950 . S
H1306 C1330 0.915 1_545 S
H1307 C1331 0.951 1_565 S
H1308 C1333 0.951 1_565 S
H1309 C1335 0.950 . S
H1310 C1336 0.950 . S
H1311 C1338 0.963 . S
H1312 C1341 0.950 . S
H1313 C1342 0.950 . S
H1314 C1344 0.950 . S
H1315 C1345 0.950 . S
C1316 H1298 0.951 . S
C1316 C1317 1.366 . S
C1316 C1318 1.388 . S
C1317 C1316 1.366 . S
C1317 C1321 1.362 1_545 S
C1318 H1299 0.951 . S
C1318 C1316 1.388 . S
C1318 C1319 1.366 . S
C1319 C1318 1.366 . S
C1319 C1320 1.398 1_545 S
C1319 C1322 1.499 . S
C1320 H1300 0.967 . S
C1320 C1319 1.398 1_565 S
C1320 C1321 1.374 . S
C1321 H1301 0.975 . S
C1321 C1317 1.362 1_565 S
C1321 C1320 1.374 . S
C1322 C1319 1.499 . S
C1322 C1323 1.373 . S
C1322 C1324 1.389 . S
C1323 H1302 0.950 . S
C1323 C1322 1.373 . S
C1323 C1339 1.377 . S
C1324 C1322 1.389 . S
C1324 C1325 1.524 1_545 S
C1324 C1338 1.377 . S
C1325 C1324 1.524 1_565 S
C1325 C1326 1.397 . S
C1325 C1330 1.378 . S
C1326 H1303 0.950 . S
C1326 C1325 1.397 . S
C1326 C1327 1.334 . S
C1327 H1304 0.950 . S
C1327 C1326 1.334 . S
C1327 C1328 1.287 . S
C1328 C1327 1.287 . S
C1328 C1329 1.524 . S
C1328 H1347 0.913 . S
C1329 H1305 0.950 . S
C1329 C1328 1.524 . S
C1329 C1330 1.436 . S
C1330 H1306 0.915 1_565 S
C1330 C1325 1.378 . S
C1330 C1329 1.436 . S
C1331 H1307 0.951 1_545 S
C1331 C1332 1.366 . S
C1331 C1333 1.388 . S
C1332 C1331 1.366 . S
C1332 C1336 1.385 . S
C1333 H1308 0.951 1_545 S
C1333 C1331 1.388 . S
C1333 C1334 1.366 . S
C1334 C1333 1.366 . S
C1334 C1335 1.414 . S
C1334 C1337 1.499 . S
C1335 H1309 0.950 . S
C1335 C1334 1.414 . S
C1335 C1336 1.374 . S
C1336 H1310 0.950 . S
C1336 C1332 1.385 . S
C1336 C1335 1.374 . S
C1337 C1334 1.499 . S
C1337 C1338 1.373 . S
C1337 C1339 1.389 . S
C1338 H1311 0.963 . S
C1338 C1324 1.377 . S
C1338 C1337 1.373 . S
C1339 C1323 1.377 . S
C1339 C1337 1.389 . S
C1339 C1340 1.524 . S
C1340 C1339 1.524 . S
C1340 C1341 1.397 . S
C1340 C1345 1.363 . S
C1341 H1312 0.950 . S
C1341 C1340 1.397 . S
C1341 C1342 1.334 . S
C1342 H1313 0.950 . S
C1342 C1341 1.334 . S
C1342 C1343 1.287 . S
C1343 C1342 1.287 . S
C1343 C1344 1.524 . S
C1343 H1346 0.999 . S
C1344 H1314 0.950 . S
C1344 C1343 1.524 . S
C1344 C1345 1.415 . S
C1345 H1315 0.950 . S
C1345 C1340 1.363 . S
C1345 C1344 1.415 . S
H1346 C1343 0.999 . S
H1347 C1328 0.913 . S
H1348 C1366 0.951 . S
H1349 C1368 0.951 . S
H1350 C1370 0.950 . S
H1351 C1371 0.950 . S
H1352 C1373 0.950 . S
H1353 C1376 0.950 . S
H1354 C1377 0.950 . S
H1355 C1379 0.950 . S
H1356 C1380 0.950 . S
H1357 C1381 0.951 . S
H1358 C1383 0.951 . S
H1359 C1385 0.950 . S
H1360 C1386 0.950 . S
H1361 C1388 0.950 . S
H1362 C1391 0.950 . S
H1363 C1392 0.950 . S
H1364 C1394 0.950 . S
H1365 C1395 0.950 . S
C1366 H1348 0.951 . S
C1366 C1367 1.366 . S
C1366 C1368 1.388 . S
C1367 C1366 1.366 . S
C1367 C1371 1.385 . S
C1368 H1349 0.951 . S
C1368 C1366 1.388 . S
C1368 C1369 1.366 . S
C1369 C1368 1.366 . S
C1369 C1370 1.414 . S
C1369 C1372 1.499 . S
C1370 H1350 0.950 . S
C1370 C1369 1.414 . S
C1370 C1371 1.374 . S
C1371 H1351 0.950 . S
C1371 C1367 1.385 . S
C1371 C1370 1.374 . S
C1372 C1369 1.499 . S
C1372 C1373 1.373 . S
C1372 C1374 1.389 . S
C1373 H1352 0.950 . S
C1373 C1372 1.373 . S
C1373 C1389 1.377 . S
C1374 C1372 1.389 . S
C1374 C1375 1.524 . S
C1374 C1388 1.377 . S
C1375 C1374 1.524 . S
C1375 C1376 1.397 . S
C1375 C1380 1.363 . S
C1376 H1353 0.950 . S
C1376 C1375 1.397 . S
C1376 C1377 1.334 . S
C1377 H1354 0.950 . S
C1377 C1376 1.334 . S
C1377 C1378 1.287 . S
C1378 C1377 1.287 . S
C1378 C1379 1.524 . S
C1378 H1397 0.913 . S
C1379 H1355 0.950 . S
C1379 C1378 1.524 . S
C1379 C1380 1.415 . S
C1380 H1356 0.950 . S
C1380 C1375 1.363 . S
C1380 C1379 1.415 . S
C1381 H1357 0.951 . S
C1381 C1382 1.366 . S
C1381 C1383 1.388 . S
C1382 C1381 1.366 . S
C1382 C1386 1.385 . S
C1383 H1358 0.951 . S
C1383 C1381 1.388 . S
C1383 C1384 1.366 . S
C1384 C1383 1.366 . S
C1384 C1385 1.414 . S
C1384 C1387 1.499 . S
C1385 H1359 0.950 . S
C1385 C1384 1.414 . S
C1385 C1386 1.374 . S
C1386 H1360 0.950 . S
C1386 C1382 1.385 . S
C1386 C1385 1.374 . S
C1387 C1384 1.499 . S
C1387 C1388 1.373 . S
C1387 C1389 1.389 . S
C1388 H1361 0.950 . S
C1388 C1374 1.377 . S
C1388 C1387 1.373 . S
C1389 C1373 1.377 . S
C1389 C1387 1.389 . S
C1389 C1390 1.524 . S
C1390 C1389 1.524 . S
C1390 C1391 1.397 . S
C1390 C1395 1.363 . S
C1391 H1362 0.950 . S
C1391 C1390 1.397 . S
C1391 C1392 1.334 . S
C1392 H1363 0.950 . S
C1392 C1391 1.334 . S
C1392 C1393 1.287 . S
C1393 C1392 1.287 . S
C1393 C1394 1.524 . S
C1393 H1396 0.999 . S
C1394 H1364 0.950 . S
C1394 C1393 1.524 . S
C1394 C1395 1.415 . S
C1395 H1365 0.950 . S
C1395 C1390 1.363 . S
C1395 C1394 1.415 . S
H1396 C1393 0.999 . S
H1397 C1378 0.913 . S
H1398 C1416 0.951 . S
H1399 C1418 0.951 . S
H1400 C1420 0.950 . S
H1401 C1421 0.950 . S
H1402 C1423 0.950 . S
H1403 C1426 0.950 . S
H1404 C1427 0.950 . S
H1405 C1429 0.950 . S
H1406 C1430 0.950 . S
H1407 C1431 0.951 . S
H1408 C1433 0.951 . S
H1409 C1435 0.950 . S
H1410 C1436 0.950 . S
H1411 C1438 0.950 . S
H1412 C1441 0.950 . S
H1413 C1442 0.950 . S
H1414 C1444 0.950 . S
H1415 C1445 0.950 . S
C1416 H1398 0.951 . S
C1416 C1417 1.366 . S
C1416 C1418 1.388 . S
C1417 C1416 1.366 . S
C1417 C1421 1.385 . S
C1418 H1399 0.951 . S
C1418 C1416 1.388 . S
C1418 C1419 1.366 . S
C1419 C1418 1.366 . S
C1419 C1420 1.414 . S
C1419 C1422 1.499 . S
C1420 H1400 0.950 . S
C1420 C1419 1.414 . S
C1420 C1421 1.374 . S
C1421 H1401 0.950 . S
C1421 C1417 1.385 . S
C1421 C1420 1.374 . S
C1422 C1419 1.499 . S
C1422 C1423 1.373 . S
C1422 C1424 1.389 . S
C1423 H1402 0.950 . S
C1423 C1422 1.373 . S
C1423 C1439 1.377 . S
C1424 C1422 1.389 . S
C1424 C1425 1.524 . S
C1424 C1438 1.377 . S
C1425 C1424 1.524 . S
C1425 C1426 1.397 . S
C1425 C1430 1.363 . S
C1426 H1403 0.950 . S
C1426 C1425 1.397 . S
C1426 C1427 1.334 . S
C1427 H1404 0.950 . S
C1427 C1426 1.334 . S
C1427 C1428 1.287 . S
C1428 C1427 1.287 . S
C1428 C1429 1.524 . S
C1428 H1447 0.913 1_556 S
C1429 H1405 0.950 . S
C1429 C1428 1.524 . S
C1429 C1430 1.415 . S
C1430 H1406 0.950 . S
C1430 C1425 1.363 . S
C1430 C1429 1.415 . S
C1431 H1407 0.951 . S
C1431 C1432 1.366 . S
C1431 C1433 1.388 . S
C1432 C1431 1.366 . S
C1432 C1436 1.385 . S
C1433 H1408 0.951 . S
C1433 C1431 1.388 . S
C1433 C1434 1.366 . S
C1434 C1433 1.366 . S
C1434 C1435 1.414 . S
C1434 C1437 1.499 . S
C1435 H1409 0.950 . S
C1435 C1434 1.414 . S
C1435 C1436 1.374 . S
C1436 H1410 0.950 . S
C1436 C1432 1.385 . S
C1436 C1435 1.374 . S
C1437 C1434 1.499 . S
C1437 C1438 1.373 . S
C1437 C1439 1.389 . S
C1438 H1411 0.950 . S
C1438 C1424 1.377 . S
C1438 C1437 1.373 . S
C1439 C1423 1.377 . S
C1439 C1437 1.389 . S
C1439 C1440 1.524 . S
C1440 C1439 1.524 . S
C1440 C1441 1.397 . S
C1440 C1445 1.363 . S
C1441 H1412 0.950 . S
C1441 C1440 1.397 . S
C1441 C1442 1.334 . S
C1442 H1413 0.950 . S
C1442 C1441 1.334 . S
C1442 C1443 1.287 . S
C1443 C1442 1.287 . S
C1443 C1444 1.524 . S
C1443 H1446 0.999 . S
C1444 H1414 0.950 . S
C1444 C1443 1.524 . S
C1444 C1445 1.415 . S
C1445 H1415 0.950 . S
C1445 C1440 1.363 . S
C1445 C1444 1.415 . S
H1446 C1443 0.999 . S
H1447 C1428 0.913 1_554 S
H1448 C1466 0.951 . S
H1449 C1468 0.951 . S
H1450 C1470 0.950 . S
H1451 C1471 0.950 . S
H1452 C1473 0.950 . S
H1453 C1476 0.950 . S
H1454 C1477 0.950 . S
H1455 C1479 0.950 . S
H1456 C1480 0.950 . S
H1457 C1481 0.951 . S
H1458 C1483 0.951 . S
H1459 C1485 0.950 . S
H1460 C1486 0.950 . S
H1461 C1488 0.950 . S
H1462 C1491 0.950 . S
H1463 C1492 0.950 . S
H1464 C1494 0.950 . S
H1465 C1495 0.950 . S
C1466 H1448 0.951 . S
C1466 C1467 1.366 1_455 S
C1466 C1468 1.388 . S
C1467 C1466 1.366 1_655 S
C1467 C1471 1.385 . S
C1468 H1449 0.951 . S
C1468 C1466 1.388 . S
C1468 C1469 1.366 1_455 S
C1469 C1468 1.366 1_655 S
C1469 C1470 1.414 . S
C1469 C1472 1.499 . S
C1470 H1450 0.950 . S
C1470 C1469 1.414 . S
C1470 C1471 1.374 . S
C1471 H1451 0.950 . S
C1471 C1467 1.385 . S
C1471 C1470 1.374 . S
C1472 C1469 1.499 . S
C1472 C1473 1.373 . S
C1472 C1474 1.389 1_655 S
C1473 H1452 0.950 . S
C1473 C1472 1.373 . S
C1473 C1489 1.377 . S
C1474 C1472 1.389 1_455 S
C1474 C1475 1.524 . S
C1474 C1488 1.377 . S
C1475 C1474 1.524 . S
C1475 C1476 1.397 . S
C1475 C1480 1.363 . S
C1476 H1453 0.950 . S
C1476 C1475 1.397 . S
C1476 C1477 1.334 . S
C1477 H1454 0.950 . S
C1477 C1476 1.334 . S
C1477 C1478 1.287 . S
C1478 C1477 1.287 . S
C1478 C1479 1.524 . S
C1478 H1497 0.913 . S
C1479 H1455 0.950 . S
C1479 C1478 1.524 . S
C1479 C1480 1.415 . S
C1480 H1456 0.950 . S
C1480 C1475 1.363 . S
C1480 C1479 1.415 . S
C1481 H1457 0.951 . S
C1481 C1482 1.366 . S
C1481 C1483 1.388 . S
C1482 C1481 1.366 . S
C1482 C1486 1.385 1_655 S
C1483 H1458 0.951 . S
C1483 C1481 1.388 . S
C1483 C1484 1.366 . S
C1484 C1483 1.366 . S
C1484 C1485 1.414 1_655 S
C1484 C1487 1.499 . S
C1485 H1459 0.950 . S
C1485 C1484 1.414 1_455 S
C1485 C1486 1.374 . S
C1486 H1460 0.950 . S
C1486 C1482 1.385 1_455 S
C1486 C1485 1.374 . S
C1487 C1484 1.499 . S
C1487 C1488 1.373 1_655 S
C1487 C1489 1.389 . S
C1488 H1461 0.950 . S
C1488 C1474 1.377 . S
C1488 C1487 1.373 1_455 S
C1489 C1473 1.377 . S
C1489 C1487 1.389 . S
C1489 C1490 1.524 . S
C1490 C1489 1.524 . S
C1490 C1491 1.397 . S
C1490 C1495 1.363 . S
C1491 H1462 0.950 . S
C1491 C1490 1.397 . S
C1491 C1492 1.334 . S
C1492 H1463 0.950 . S
C1492 C1491 1.334 . S
C1492 C1493 1.287 . S
C1493 C1492 1.287 . S
C1493 C1494 1.524 . S
C1493 H1496 0.999 . S
C1494 H1464 0.950 . S
C1494 C1493 1.524 . S
C1494 C1495 1.415 . S
C1495 H1465 0.950 . S
C1495 C1490 1.363 . S
C1495 C1494 1.415 . S
H1496 C1493 0.999 . S
H1497 C1478 0.913 . S
H1498 C1516 0.945 1_545 S
H1499 C1518 0.944 1_545 S
H1500 C1520 0.950 . S
H1501 C1521 0.950 . S
H1502 C1523 0.950 . S
H1503 C1526 0.950 . S
H1504 C1527 0.950 . S
H1505 C1529 0.950 . S
H1506 C1530 0.950 . S
H1507 C1531 0.951 . S
H1508 C1533 0.951 . S
H1509 C1535 0.950 . S
H1510 C1536 0.950 . S
H1511 C1538 0.950 . S
H1512 C1541 0.950 . S
H1513 C1542 0.950 . S
H1514 C1544 0.950 . S
H1515 C1545 0.950 . S
C1516 H1498 0.945 1_565 S
C1516 C1517 1.372 . S
C1516 C1518 1.388 . S
C1517 C1516 1.372 . S
C1517 C1521 1.385 . S
C1518 H1499 0.944 1_565 S
C1518 C1516 1.388 . S
C1518 C1519 1.373 . S
C1519 C1518 1.373 . S
C1519 C1520 1.414 . S
C1519 C1522 1.499 . S
C1520 H1500 0.950 . S
C1520 C1519 1.414 . S
C1520 C1521 1.374 . S
C1521 H1501 0.950 . S
C1521 C1517 1.385 . S
C1521 C1520 1.374 . S
C1522 C1519 1.499 . S
C1522 C1523 1.373 . S
C1522 C1524 1.389 1_565 S
C1523 H1502 0.950 . S
C1523 C1522 1.373 . S
C1523 C1539 1.377 . S
C1524 C1522 1.389 1_545 S
C1524 C1525 1.524 . S
C1524 C1538 1.377 . S
C1525 C1524 1.524 . S
C1525 C1526 1.397 . S
C1525 C1530 1.363 . S
C1526 H1503 0.950 . S
C1526 C1525 1.397 . S
C1526 C1527 1.334 . S
C1527 H1504 0.950 . S
C1527 C1526 1.334 . S
C1527 C1528 1.287 . S
C1528 C1527 1.287 . S
C1528 C1529 1.524 . S
C1528 H1547 0.913 . S
C1529 H1505 0.950 . S
C1529 C1528 1.524 . S
C1529 C1530 1.415 . S
C1530 H1506 0.950 . S
C1530 C1525 1.363 . S
C1530 C1529 1.415 . S
C1531 H1507 0.951 . S
C1531 C1532 1.366 . S
C1531 C1533 1.388 . S
C1532 C1531 1.366 . S
C1532 C1536 1.385 . S
C1533 H1508 0.951 . S
C1533 C1531 1.388 . S
C1533 C1534 1.366 . S
C1534 C1533 1.366 . S
C1534 C1535 1.414 . S
C1534 C1537 1.499 . S
C1535 H1509 0.950 . S
C1535 C1534 1.414 . S
C1535 C1536 1.374 . S
C1536 H1510 0.950 . S
C1536 C1532 1.385 . S
C1536 C1535 1.374 . S
C1537 C1534 1.499 . S
C1537 C1538 1.373 1_565 S
C1537 C1539 1.389 . S
C1538 H1511 0.950 . S
C1538 C1524 1.377 . S
C1538 C1537 1.373 1_545 S
C1539 C1523 1.377 . S
C1539 C1537 1.389 . S
C1539 C1540 1.524 . S
C1540 C1539 1.524 . S
C1540 C1541 1.397 . S
C1540 C1545 1.363 . S
C1541 H1512 0.950 . S
C1541 C1540 1.397 . S
C1541 C1542 1.334 . S
C1542 H1513 0.950 . S
C1542 C1541 1.334 . S
C1542 C1543 1.287 . S
C1543 C1542 1.287 . S
C1543 C1544 1.524 . S
C1543 H1546 0.999 . S
C1544 H1514 0.950 . S
C1544 C1543 1.524 . S
C1544 C1545 1.415 . S
C1545 H1515 0.950 . S
C1545 C1540 1.363 . S
C1545 C1544 1.415 . S
H1546 C1543 0.999 . S
H1547 C1528 0.913 . S
H1548 C1566 0.951 . S
H1549 C1568 0.951 . S
H1550 C1570 0.950 . S
H1551 C1571 0.950 . S
H1552 C1573 0.950 . S
H1553 C1576 0.950 . S
H1554 C1577 0.950 . S
H1555 C1579 0.950 . S
H1556 C1580 0.950 . S
H1557 C1581 0.951 . S
H1558 C1583 0.951 . S
H1559 C1585 0.950 . S
H1560 C1586 0.950 . S
H1561 C1588 0.950 . S
H1562 C1591 0.950 . S
H1563 C1592 0.950 . S
H1564 C1594 0.950 . S
H1565 C1595 0.950 . S
C1566 H1548 0.951 . S
C1566 C1567 1.366 . S
C1566 C1568 1.388 . S
C1567 C1566 1.366 . S
C1567 C1571 1.385 . S
C1568 H1549 0.951 . S
C1568 C1566 1.388 . S
C1568 C1569 1.366 . S
C1569 C1568 1.366 . S
C1569 C1570 1.414 . S
C1569 C1572 1.499 . S
C1570 H1550 0.950 . S
C1570 C1569 1.414 . S
C1570 C1571 1.374 . S
C1571 H1551 0.950 . S
C1571 C1567 1.385 . S
C1571 C1570 1.374 . S
C1572 C1569 1.499 . S
C1572 C1573 1.373 . S
C1572 C1574 1.389 . S
C1573 H1552 0.950 . S
C1573 C1572 1.373 . S
C1573 C1589 1.377 . S
C1574 C1572 1.389 . S
C1574 C1575 1.524 . S
C1574 C1588 1.377 . S
C1575 C1574 1.524 . S
C1575 C1576 1.397 . S
C1575 C1580 1.363 . S
C1576 H1553 0.950 . S
C1576 C1575 1.397 . S
C1576 C1577 1.334 . S
C1577 H1554 0.950 . S
C1577 C1576 1.334 . S
C1577 C1578 1.287 . S
C1578 C1577 1.287 . S
C1578 C1579 1.524 . S
C1578 H1597 0.913 . S
C1579 H1555 0.950 . S
C1579 C1578 1.524 . S
C1579 C1580 1.415 . S
C1580 H1556 0.950 . S
C1580 C1575 1.363 . S
C1580 C1579 1.415 . S
C1581 H1557 0.951 . S
C1581 C1582 1.366 . S
C1581 C1583 1.388 . S
C1582 C1581 1.366 . S
C1582 C1586 1.385 . S
C1583 H1558 0.951 . S
C1583 C1581 1.388 . S
C1583 C1584 1.366 . S
C1584 C1583 1.366 . S
C1584 C1585 1.414 . S
C1584 C1587 1.499 . S
C1585 H1559 0.950 . S
C1585 C1584 1.414 . S
C1585 C1586 1.374 . S
C1586 H1560 0.950 . S
C1586 C1582 1.385 . S
C1586 C1585 1.374 . S
C1587 C1584 1.499 . S
C1587 C1588 1.373 . S
C1587 C1589 1.389 . S
C1588 H1561 0.950 . S
C1588 C1574 1.377 . S
C1588 C1587 1.373 . S
C1589 C1573 1.377 . S
C1589 C1587 1.389 . S
C1589 C1590 1.524 . S
C1590 C1589 1.524 . S
C1590 C1591 1.397 . S
C1590 C1595 1.363 . S
C1591 H1562 0.950 . S
C1591 C1590 1.397 . S
C1591 C1592 1.334 . S
C1592 H1563 0.950 . S
C1592 C1591 1.334 . S
C1592 C1593 1.287 . S
C1593 C1592 1.287 . S
C1593 C1594 1.524 . S
C1593 H1596 0.999 . S
C1594 H1564 0.950 . S
C1594 C1593 1.524 . S
C1594 C1595 1.415 . S
C1595 H1565 0.950 . S
C1595 C1590 1.363 . S
C1595 C1594 1.415 . S
H1596 C1593 0.999 . S
H1597 C1578 0.913 . S
H1598 C1616 0.951 . S
H1599 C1618 0.951 . S
H1600 C1620 0.950 . S
H1601 C1621 0.950 . S
H1602 C1623 0.950 . S
H1603 C1626 0.950 . S
H1604 C1627 0.950 . S
H1605 C1629 0.950 . S
H1606 C1630 0.950 . S
H1607 C1631 0.951 . S
H1608 C1633 0.951 . S
H1609 C1635 0.950 . S
H1610 C1636 0.950 . S
H1611 C1638 0.950 . S
H1612 C1641 0.950 . S
H1613 C1642 0.950 . S
H1614 C1644 0.950 . S
H1615 C1645 0.950 . S
C1616 H1598 0.951 . S
C1616 C1617 1.366 . S
C1616 C1618 1.388 . S
C1617 C1616 1.366 . S
C1617 C1621 1.385 . S
C1618 H1599 0.951 . S
C1618 C1616 1.388 . S
C1618 C1619 1.366 . S
C1619 C1618 1.366 . S
C1619 C1620 1.414 . S
C1619 C1622 1.499 . S
C1620 H1600 0.950 . S
C1620 C1619 1.414 . S
C1620 C1621 1.374 . S
C1621 H1601 0.950 . S
C1621 C1617 1.385 . S
C1621 C1620 1.374 . S
C1622 C1619 1.499 . S
C1622 C1623 1.373 . S
C1622 C1624 1.389 . S
C1623 H1602 0.950 . S
C1623 C1622 1.373 . S
C1623 C1639 1.377 . S
C1624 C1622 1.389 . S
C1624 C1625 1.524 . S
C1624 C1638 1.377 . S
C1625 C1624 1.524 . S
C1625 C1626 1.397 . S
C1625 C1630 1.363 . S
C1626 H1603 0.950 . S
C1626 C1625 1.397 . S
C1626 C1627 1.334 . S
C1627 H1604 0.950 . S
C1627 C1626 1.334 . S
C1627 C1628 1.287 . S
C1628 C1627 1.287 . S
C1628 C1629 1.524 . S
C1628 H1647 0.913 . S
C1629 H1605 0.950 . S
C1629 C1628 1.524 . S
C1629 C1630 1.415 . S
C1630 H1606 0.950 . S
C1630 C1625 1.363 . S
C1630 C1629 1.415 . S
C1631 H1607 0.951 . S
C1631 C1632 1.366 . S
C1631 C1633 1.388 . S
C1632 C1631 1.366 . S
C1632 C1636 1.385 . S
C1633 H1608 0.951 . S
C1633 C1631 1.388 . S
C1633 C1634 1.366 . S
C1634 C1633 1.366 . S
C1634 C1635 1.414 . S
C1634 C1637 1.499 . S
C1635 H1609 0.950 . S
C1635 C1634 1.414 . S
C1635 C1636 1.374 . S
C1636 H1610 0.950 . S
C1636 C1632 1.385 . S
C1636 C1635 1.374 . S
C1637 C1634 1.499 . S
C1637 C1638 1.373 . S
C1637 C1639 1.389 . S
C1638 H1611 0.950 . S
C1638 C1624 1.377 . S
C1638 C1637 1.373 . S
C1639 C1623 1.377 . S
C1639 C1637 1.389 . S
C1639 C1640 1.524 . S
C1640 C1639 1.524 . S
C1640 C1641 1.397 . S
C1640 C1645 1.363 . S
C1641 H1612 0.950 . S
C1641 C1640 1.397 . S
C1641 C1642 1.334 . S
C1642 H1613 0.950 . S
C1642 C1641 1.334 . S
C1642 C1643 1.287 . S
C1643 C1642 1.287 . S
C1643 C1644 1.524 . S
C1643 H1646 0.999 . S
C1644 H1614 0.950 . S
C1644 C1643 1.524 . S
C1644 C1645 1.415 . S
C1645 H1615 0.950 . S
C1645 C1640 1.363 . S
C1645 C1644 1.415 . S
H1646 C1643 0.999 . S
H1647 C1628 0.913 . S
C467 C241 1.871 . S
C482 C297 2.021 . S
C532 C337 2.031 . S
C517 C277 1.927 . S
C582 C377 2.020 . S
C567 C169 1.871 . S
C632 C417 2.023 1_455 S
C617 C205 1.879 . S
C682 C306 2.016 1_565 S
C667 C97 1.874 . S
C717 C133 1.926 . S
C732 C346 2.031 . S
C767 C25 1.870 . S
C782 C386 2.020 . S
C817 C61 1.879 1_655 S
C832 C426 2.026 1_655 S
C882 C303 0.275 . S
C867 C211 0.267 . S
C932 C343 0.280 . S
C917 C247 0.266 . S
C982 C383 0.275 . S
C967 C253 0.282 . S
C1017 C175 0.269 . S
C1032 C423 0.280 . S
C1067 C67 0.356 1_655 S
C1082 C294 0.262 . S
C1132 C334 0.278 . S
C1117 C103 0.359 . S
C1182 C374 0.270 . S
C1167 C109 0.190 . S
C1217 C31 0.360 . S
C1232 C414 0.280 . S
C1267 C181 2.539 . S
C1282 C307 2.806 . S
C1317 C217 2.525 . S
C1332 C347 2.790 . S
C1382 C387 2.801 . S
C1367 C283 2.472 . S
C1432 C427 2.795 . S
C1417 C145 2.523 . S
C1467 C37 2.541 1_655 S
C1482 C298 2.806 . S
C1532 C338 2.790 . S
C1517 C73 2.529 . S
C1582 C378 2.801 . S
C1567 C139 2.463 . S
C1617 C1 2.534 . S
C1632 C418 2.803 . S
