# Generated by pormake.
# Topology ftw, (4,12)-cn, num edge types: 1
# Building blocks:
#     Node 0, Type 0, BuildingBlock: NAHDIM_clean_linker_0, # of connection points: 4
#     Node 1, Type 0, BuildingBlock: NAHDIM_clean_linker_0, # of connection points: 4
#     Node 2, Type 0, BuildingBlock: NAHDIM_clean_linker_0, # of connection points: 4
#     Node 3, Type 1, BuildingBlock: EZIPEK_clean_sbu_0, # of connection points: 12
#     Edge 4, Type (0, 1), BuildingBlock: XUDNAN_clean_linker_2, # of connection points: 2
#     Edge 5, Type (0, 1), BuildingBlock: XUDNAN_clean_linker_2, # of connection points: 2
#     Edge 6, Type (0, 1), BuildingBlock: XUDNAN_clean_linker_2, # of connection points: 2
#     Edge 7, Type (0, 1), BuildingBlock: XUDNAN_clean_linker_2, # of connection points: 2
#     Edge 8, Type (0, 1), BuildingBlock: XUDNAN_clean_linker_2, # of connection points: 2
#     Edge 9, Type (0, 1), BuildingBlock: XUDNAN_clean_linker_2, # of connection points: 2
#     Edge 10, Type (0, 1), BuildingBlock: XUDNAN_clean_linker_2, # of connection points: 2
#     Edge 11, Type (0, 1), BuildingBlock: XUDNAN_clean_linker_2, # of connection points: 2
#     Edge 12, Type (0, 1), BuildingBlock: XUDNAN_clean_linker_2, # of connection points: 2
#     Edge 13, Type (0, 1), BuildingBlock: XUDNAN_clean_linker_2, # of connection points: 2
#     Edge 14, Type (0, 1), BuildingBlock: XUDNAN_clean_linker_2, # of connection points: 2
#     Edge 15, Type (0, 1), BuildingBlock: XUDNAN_clean_linker_2, # of connection points: 2
# Relax obj value: 0.006
# Max RMSD: 0.061
# Mean RMSD: 0.048
data_MOF--net-ftw--node1-EZIPEK_clean_sbu_0--node2-NAHDIM_clean_linker_0--edge1-XUDNAN_clean_linker_2
_symmetry_space_group_name_H-M    P1
_symmetry_Int_Tables_number       1
_symmetry_cell_setting            triclinic
loop_
_symmetry_equiv_pos_as_xyz
'x, y, z'
_cell_length_a     33.022214
_cell_length_b     32.596958
_cell_length_c     32.00824
_cell_angle_alpha  90.397091
_cell_angle_beta   89.643165
_cell_angle_gamma 89.43695
loop_
_atom_site_label
_atom_site_type_symbol
_atom_site_fract_x
_atom_site_fract_y
_atom_site_fract_z
_atom_type_partial_charge
C0 C 0.09512 0.70462 0.33881 0.0
C1 C 0.07833 0.68305 0.29985 0.0
C2 C 0.03063 0.63223 0.32789 0.0
C3 C 0.98969 0.62259 0.33237 0.0
C4 C 0.97745 0.58767 0.3544 0.0
C5 C 0.00706 0.56178 0.37244 0.0
C6 C 0.04861 0.5705 0.36688 0.0
C7 C 0.06001 0.6056 0.34473 0.0
C8 C 0.9329 0.57919 0.35967 0.0
C9 C 0.08099 0.54341 0.38562 0.0
C10 C 0.90604 0.24059 0.36436 0.0
C11 C 0.94368 0.26562 0.35404 0.0
C12 C 0.94446 0.34047 0.35524 0.0
C13 C 0.98444 0.34635 0.36854 0.0
C14 C 0.99642 0.38424 0.38537 0.0
C15 C 0.96761 0.4165 0.38949 0.0
C16 C 0.92766 0.41089 0.37486 0.0
C17 C 0.91682 0.37305 0.35734 0.0
C18 C 0.03965 0.38972 0.39912 0.0
C19 C 0.8962 0.44468 0.37828 0.0
C20 C 0.96542 0.39479 0.68649 0.0
C21 C 0.00303 0.40528 0.66976 0.0
C22 C 0.00603 0.43056 0.63465 0.0
C23 C 0.97037 0.44617 0.61612 0.0
C24 C 0.93208 0.4343 0.63171 0.0
C25 C 0.92993 0.40852 0.66666 0.0
C26 C 0.0474 0.4422 0.61861 0.0
C27 C 0.89347 0.45051 0.61268 0.0
C28 C 0.92177 0.75615 0.63345 0.0
C29 C 0.95003 0.73469 0.66461 0.0
C30 C 0.97975 0.67461 0.62871 0.0
C31 C 0.01642 0.65598 0.61706 0.0
C32 C 0.01767 0.61589 0.60088 0.0
C33 C 0.981 0.59466 0.5947 0.0
C34 C 0.94375 0.61325 0.60655 0.0
C35 C 0.94355 0.65278 0.62399 0.0
C36 C 0.05809 0.5964 0.59015 0.0
C37 C 0.90402 0.59146 0.60054 0.0
C38 C 0.99482 0.52811 0.40076 0.0
C39 C 0.98824 0.48907 0.38392 0.0
C40 C 0.97866 0.45595 0.40969 0.0
C41 C 0.97731 0.46138 0.45364 0.0
C42 C 0.97003 0.42838 0.48078 0.0
C43 C 0.96941 0.43412 0.52401 0.0
C44 C 0.97448 0.47333 0.54162 0.0
C45 C 0.97341 0.47985 0.58536 0.0
C46 C 0.97648 0.51959 0.60154 0.0
C47 C 0.98121 0.55323 0.57537 0.0
C48 C 0.98422 0.54726 0.53172 0.0
C49 C 0.99034 0.58039 0.50462 0.0
C50 C 0.99437 0.57412 0.46185 0.0
C51 C 0.99085 0.53466 0.44429 0.0
C52 C 0.98303 0.50103 0.47087 0.0
C53 C 0.98065 0.50718 0.51477 0.0
C54 C 0.9115 0.3859 0.77128 0.0
C55 C 0.93256 0.3546 0.74214 0.0
O56 O 0.0401 0.66768 0.30789 0.0
O57 O 0.98075 0.71367 0.64376 0.0
O58 O 0.96517 0.37286 0.72246 0.0
O59 O 0.93156 0.30393 0.34006 0.0
H60 H 0.0996 0.65761 0.29139 0.0
H61 H 0.10199 0.68184 0.36344 0.0
H62 H 0.07285 0.72699 0.35199 0.0
H63 H 0.12365 0.72076 0.33103 0.0
H64 H 0.96719 0.64307 0.31915 0.0
H65 H 0.09188 0.61218 0.34159 0.0
H66 H 0.92625 0.54766 0.34852 0.0
H67 H 0.91366 0.60133 0.34231 0.0
H68 H 0.92462 0.58086 0.39332 0.0
H69 H 0.11194 0.55229 0.3756 0.0
H70 H 0.07596 0.51091 0.37657 0.0
H71 H 0.07915 0.54539 0.42023 0.0
H72 H 0.9611 0.26848 0.38362 0.0
H73 H 0.91489 0.20977 0.37605 0.0
H74 H 0.88675 0.23684 0.33628 0.0
H75 H 0.88797 0.25652 0.38907 0.0
H76 H 0.00632 0.32152 0.36551 0.0
H77 H 0.88623 0.36829 0.34635 0.0
H78 H 0.05228 0.41805 0.38529 0.0
H79 H 0.05927 0.36322 0.39001 0.0
H80 H 0.04055 0.39333 0.4336 0.0
H81 H 0.86582 0.4345 0.36802 0.0
H82 H 0.90551 0.47095 0.35867 0.0
H83 H 0.89393 0.45585 0.41108 0.0
H84 H 0.91016 0.344 0.71869 0.0
H85 H 0.03023 0.39431 0.68503 0.0
H86 H 0.90051 0.40057 0.67901 0.0
H87 H 0.04893 0.43822 0.58415 0.0
H88 H 0.07192 0.42361 0.63301 0.0
H89 H 0.05285 0.47507 0.62572 0.0
H90 H 0.86614 0.43574 0.62598 0.0
H91 H 0.89399 0.44544 0.57835 0.0
H92 H 0.89113 0.4841 0.61831 0.0
H93 H 0.93169 0.71302 0.68347 0.0
H94 H 0.89903 0.7754 0.65047 0.0
H95 H 0.90517 0.73335 0.61446 0.0
H96 H 0.93905 0.7758 0.61162 0.0
H97 H 0.04422 0.67292 0.62107 0.0
H98 H 0.91489 0.66643 0.63318 0.0
H99 H 0.0615 0.59421 0.5557 0.0
H100 H 0.05985 0.56478 0.60275 0.0
H101 H 0.08378 0.61439 0.60265 0.0
H102 H 0.87749 0.61177 0.60708 0.0
H103 H 0.9026 0.56481 0.62188 0.0
H104 H 0.90179 0.57957 0.56804 0.0
H105 H 0.99018 0.48451 0.35036 0.0
H106 H 0.96533 0.39762 0.46895 0.0
H107 H 0.96433 0.40761 0.54349 0.0
H108 H 0.97493 0.52446 0.6351 0.0
H109 H 0.99268 0.61156 0.51618 0.0
H110 H 0.99975 0.60078 0.44269 0.0
H111 H 0.93298 0.39758 0.79504 0.0
H112 H 0.88504 0.37179 0.787 0.0
H113 H 0.90022 0.4125 0.75314 0.0
C114 C 0.74639 0.11287 0.65835 0.0
C115 C 0.72277 0.087 0.68996 0.0
C116 C 0.67501 0.04556 0.64873 0.0
C117 C 0.66618 0.00578 0.63531 0.0
C118 C 0.63121 0.99747 0.61211 0.0
C119 C 0.60429 0.0299 0.60207 0.0
C120 C 0.61294 0.07031 0.61541 0.0
C121 C 0.64827 0.07782 0.63839 0.0
C122 C 0.62305 0.95402 0.5982 0.0
C123 C 0.58488 0.10559 0.60512 0.0
C124 C 0.37456 0.93387 0.74067 0.0
C125 C 0.35841 0.9731 0.7203 0.0
C126 C 0.39118 0.9763 0.65292 0.0
C127 C 0.40278 0.01682 0.64597 0.0
C128 C 0.43655 0.02551 0.62078 0.0
C129 C 0.45947 0.9928 0.60285 0.0
C130 C 0.44775 0.95175 0.61011 0.0
C131 C 0.41315 0.94407 0.63447 0.0
C132 C 0.44788 0.06964 0.61356 0.0
C133 C 0.47199 0.91603 0.59261 0.0
C134 C 0.39559 0.95707 0.32917 0.0
C135 C 0.39618 0.99768 0.34397 0.0
C136 C 0.42941 0.01239 0.36662 0.0
C137 C 0.46238 0.98567 0.37511 0.0
C138 C 0.4622 0.945 0.35925 0.0
C139 C 0.42897 0.93143 0.33592 0.0
C140 C 0.42928 0.05639 0.38157 0.0
C141 C 0.4969 0.91571 0.36734 0.0
C142 C 0.76109 0.1243 0.34701 0.0
C143 C 0.74445 0.08185 0.33658 0.0
C144 C 0.67198 0.06989 0.33639 0.0
C145 C 0.63728 0.09448 0.33993 0.0
C146 C 0.60236 0.08004 0.36 0.0
C147 C 0.60194 0.0395 0.37563 0.0
C148 C 0.63613 0.01353 0.36943 0.0
C149 C 0.67104 0.0292 0.35028 0.0
C150 C 0.56638 0.1085 0.36559 0.0
C151 C 0.63613 0.96957 0.38387 0.0
C152 C 0.56725 0.02148 0.57733 0.0
C153 C 0.53188 0.01114 0.59887 0.0
C154 C 0.49626 0.00168 0.57754 0.0
C155 C 0.49606 0.00146 0.53328 0.0
C156 C 0.46129 0.99073 0.51067 0.0
C157 C 0.46177 0.98965 0.46715 0.0
C158 C 0.49657 0.00072 0.44448 0.0
C159 C 0.49729 0.00015 0.40021 0.0
C160 C 0.53208 0.01257 0.3788 0.0
C161 C 0.56657 0.02518 0.4003 0.0
C162 C 0.56681 0.02483 0.44452 0.0
C163 C 0.60126 0.03654 0.46718 0.0
C164 C 0.60161 0.03506 0.51059 0.0
C165 C 0.56714 0.02302 0.53317 0.0
C166 C 0.53161 0.01236 0.51107 0.0
C167 C 0.53166 0.01264 0.46665 0.0
C168 C 0.30599 0.90573 0.33358 0.0
C169 C 0.32327 0.94718 0.32055 0.0
O170 O 0.70954 0.05115 0.67115 0.0
O171 O 0.70604 0.0863 0.31986 0.0
O172 O 0.36331 0.9419 0.30822 0.0
O173 O 0.35864 0.96799 0.67727 0.0
H174 H 0.69652 0.1059 0.70093 0.0
H175 H 0.72554 0.12513 0.63431 0.0
H176 H 0.76993 0.0941 0.64201 0.0
H177 H 0.76085 0.1393 0.67426 0.0
H178 H 0.68693 0.98108 0.64316 0.0
H179 H 0.65464 0.10898 0.64779 0.0
H180 H 0.59347 0.94396 0.61103 0.0
H181 H 0.64699 0.9322 0.60845 0.0
H182 H 0.62101 0.95271 0.5636 0.0
H183 H 0.59554 0.13523 0.61814 0.0
H184 H 0.55414 0.09947 0.61771 0.0
H185 H 0.58225 0.10844 0.5707 0.0
H186 H 0.37852 0.99897 0.72923 0.0
H187 H 0.37535 0.93741 0.77521 0.0
H188 H 0.4059 0.92731 0.72956 0.0
H189 H 0.35516 0.90736 0.73252 0.0
H190 H 0.38521 0.04153 0.66016 0.0
H191 H 0.40368 0.91284 0.64011 0.0
H192 H 0.45249 0.07518 0.57967 0.0
H193 H 0.47687 0.07616 0.62954 0.0
H194 H 0.42443 0.09142 0.62564 0.0
H195 H 0.46146 0.88617 0.60493 0.0
H196 H 0.50454 0.91959 0.60022 0.0
H197 H 0.46937 0.9154 0.55807 0.0
H198 H 0.32109 0.96708 0.34896 0.0
H199 H 0.37082 0.01795 0.33749 0.0
H200 H 0.42838 0.9003 0.32386 0.0
H201 H 0.42775 0.05726 0.41621 0.0
H202 H 0.40322 0.07421 0.36913 0.0
H203 H 0.45782 0.07153 0.37197 0.0
H204 H 0.4908 0.88427 0.35549 0.0
H205 H 0.50293 0.91415 0.4014 0.0
H206 H 0.52474 0.92714 0.35189 0.0
H207 H 0.74312 0.06476 0.36661 0.0
H208 H 0.79191 0.12152 0.36053 0.0
H209 H 0.74105 0.13983 0.37035 0.0
H210 H 0.76255 0.14368 0.31862 0.0
H211 H 0.63824 0.12566 0.32845 0.0
H212 H 0.69762 0.00979 0.34621 0.0
H213 H 0.55798 0.11076 0.39918 0.0
H214 H 0.53998 0.09586 0.34868 0.0
H215 H 0.57239 0.13981 0.3537 0.0
H216 H 0.66215 0.95172 0.37079 0.0
H217 H 0.60756 0.95436 0.37468 0.0
H218 H 0.63797 0.96884 0.41847 0.0
H219 H 0.53204 0.01055 0.63276 0.0
H220 H 0.43344 0.9825 0.52637 0.0
H221 H 0.43433 0.98042 0.45149 0.0
H222 H 0.53232 0.01243 0.3449 0.0
H223 H 0.62858 0.04656 0.45163 0.0
H224 H 0.62921 0.04385 0.52624 0.0
H225 H 0.27343 0.90906 0.34206 0.0
H226 H 0.32254 0.89417 0.3613 0.0
H227 H 0.30932 0.88261 0.30812 0.0
C228 C 0.74355 0.67293 0.911 0.0
C229 C 0.72295 0.70275 0.9421 0.0
C230 C 0.67327 0.66143 0.98084 0.0
C231 C 0.66342 0.64641 0.02034 0.0
C232 C 0.62704 0.62565 0.02745 0.0
C233 C 0.60015 0.61919 0.99388 0.0
C234 C 0.60983 0.63428 0.95375 0.0
C235 C 0.64621 0.65541 0.94763 0.0
C236 C 0.61746 0.61037 0.07076 0.0
C237 C 0.58187 0.62771 0.91724 0.0
C238 C 0.3733 0.77192 0.08061 0.0
C239 C 0.36308 0.74873 0.0403 0.0
C240 C 0.3881 0.67905 0.0399 0.0
C241 C 0.40168 0.67279 0.9988 0.0
C242 C 0.4338 0.64548 0.98996 0.0
C243 C 0.45312 0.62459 0.02313 0.0
C244 C 0.43879 0.63033 0.06462 0.0
C245 C 0.40587 0.65702 0.07235 0.0
C246 C 0.44761 0.63968 0.94528 0.0
C247 C 0.45897 0.60929 0.10094 0.0
C248 C 0.37083 0.36537 0.02664 0.0
C249 C 0.38623 0.37309 0.98641 0.0
C250 C 0.42405 0.39165 0.98108 0.0
C251 C 0.44719 0.40203 0.01656 0.0
C252 C 0.43274 0.39237 0.05695 0.0
C253 C 0.39475 0.37399 0.0614 0.0
C254 C 0.4391 0.40076 0.93752 0.0
C255 C 0.45704 0.40239 0.09538 0.0
C256 C 0.75691 0.35573 0.9405 0.0
C257 C 0.7391 0.34043 0.98174 0.0
C258 C 0.66608 0.34825 0.98166 0.0
C259 C 0.63817 0.35239 0.94935 0.0
C260 C 0.60313 0.37671 0.95448 0.0
C261 C 0.59535 0.39628 0.99342 0.0
C262 C 0.62275 0.39063 0.02684 0.0
C263 C 0.65804 0.36693 0.02045 0.0
C264 C 0.57462 0.38172 0.91818 0.0
C265 C 0.61478 0.40955 0.0693 0.0
C266 C 0.56219 0.59605 0.00056 0.0
C267 C 0.52653 0.61833 0.00842 0.0
C268 C 0.4896 0.59857 0.01465 0.0
C269 C 0.48814 0.5552 0.0131 0.0
C270 C 0.45149 0.53425 0.01833 0.0
C271 C 0.45051 0.49159 0.01768 0.0
C272 C 0.48615 0.4682 0.01165 0.0
C273 C 0.4855 0.42483 0.01144 0.0
C274 C 0.52144 0.40244 0.00571 0.0
C275 C 0.55835 0.42219 0.99931 0.0
C276 C 0.5595 0.46562 0.99866 0.0
C277 C 0.59578 0.48663 0.99114 0.0
C278 C 0.59671 0.52931 0.99147 0.0
C279 C 0.56139 0.55269 0.99933 0.0
C280 C 0.52429 0.53221 0.00597 0.0
C281 C 0.52332 0.48864 0.00546 0.0
C282 C 0.27333 0.38835 0.02652 0.0
C283 C 0.29951 0.35312 0.00884 0.0
O284 O 0.70932 0.68079 0.97629 0.0
O285 O 0.70038 0.32585 0.97488 0.0
O286 O 0.33371 0.34894 0.03345 0.0
O287 O 0.35888 0.70735 0.04885 0.0
H288 H 0.69715 0.71822 0.92628 0.0
H289 H 0.72327 0.64695 0.90368 0.0
H290 H 0.77193 0.66012 0.92435 0.0
H291 H 0.75028 0.68867 0.88112 0.0
H292 H 0.68444 0.65115 0.04575 0.0
H293 H 0.6534 0.66649 0.91673 0.0
H294 H 0.587 0.62149 0.08076 0.0
H295 H 0.64007 0.62052 0.09412 0.0
H296 H 0.61682 0.57632 0.07044 0.0
H297 H 0.59472 0.63938 0.8875 0.0
H298 H 0.55257 0.64365 0.92342 0.0
H299 H 0.5755 0.5945 0.91347 0.0
H300 H 0.38921 0.7536 0.01869 0.0
H301 H 0.37508 0.8054 0.07462 0.0
H302 H 0.40315 0.76125 0.09236 0.0
H303 H 0.35029 0.76641 0.10533 0.0
H304 H 0.38729 0.68963 0.97377 0.0
H305 H 0.39495 0.66211 0.10398 0.0
H306 H 0.4522 0.60658 0.93806 0.0
H307 H 0.47707 0.65518 0.94078 0.0
H308 H 0.42559 0.65276 0.92277 0.0
H309 H 0.44675 0.62015 0.13153 0.0
H310 H 0.49212 0.61469 0.10009 0.0
H311 H 0.45431 0.57569 0.09856 0.0
H312 H 0.30708 0.36164 0.97629 0.0
H313 H 0.36941 0.3644 0.95897 0.0
H314 H 0.38304 0.3671 0.09225 0.0
H315 H 0.44357 0.4343 0.93414 0.0
H316 H 0.41778 0.39028 0.91304 0.0
H317 H 0.4689 0.3855 0.9322 0.0
H318 H 0.44256 0.39096 0.12442 0.0
H319 H 0.46051 0.43615 0.09811 0.0
H320 H 0.48788 0.38871 0.09251 0.0
H321 H 0.73818 0.36711 0.00369 0.0
H322 H 0.78805 0.3674 0.94536 0.0
H323 H 0.73787 0.3812 0.9283 0.0
H324 H 0.75794 0.3307 0.91675 0.0
H325 H 0.64451 0.33735 0.91969 0.0
H326 H 0.67919 0.36258 0.04582 0.0
H327 H 0.56726 0.41468 0.91346 0.0
H328 H 0.54588 0.36571 0.92516 0.0
H329 H 0.58749 0.36885 0.88868 0.0
H330 H 0.63607 0.39783 0.09327 0.0
H331 H 0.58329 0.40324 0.07962 0.0
H332 H 0.61808 0.44333 0.06743 0.0
H333 H 0.52755 0.65158 0.00968 0.0
H334 H 0.42314 0.55062 0.02314 0.0
H335 H 0.42142 0.47721 0.02216 0.0
H336 H 0.52062 0.36917 0.00597 0.0
H337 H 0.62392 0.47029 0.98503 0.0
H338 H 0.62556 0.54375 0.98565 0.0
H339 H 0.26433 0.38215 0.05937 0.0
H340 H 0.24592 0.39303 0.0071 0.0
H341 H 0.29089 0.41724 0.02607 0.0
C342 C 0.01951 0.12118 0.91579 0.0
C343 C 0.03325 0.09744 0.11712 0.0
C344 C 0.01843 0.92496 0.89075 0.0
C345 C 0.03689 0.89983 0.08988 0.0
C346 C 0.12128 0.91026 0.98484 0.0
C347 C 0.12631 0.1078 0.00544 0.0
C348 C 0.92478 0.91646 0.00192 0.0
C349 C 0.93114 0.1138 0.02376 0.0
C350 C 0.93633 0.00508 0.11367 0.0
C351 C 0.13109 0.00233 0.0963 0.0
C352 C 0.92012 0.02669 0.91342 0.0
C353 C 0.11635 0.01674 0.89519 0.0
Eu354 Eu 0.02814 0.08878 0.0138 0.0
O355 O 0.0654 0.04228 0.04234 0.0
O356 O 0.9886 0.05293 0.97541 0.0
Eu357 Eu 0.10226 0.00953 0.99752 0.0
Eu358 Eu 0.94971 0.01411 0.01139 0.0
O359 O 0.06021 0.05128 0.96856 0.0
O360 O 0.99439 0.0442 0.0486 0.0
Eu361 Eu 0.02005 0.02049 0.92614 0.0
Eu362 Eu 0.03192 0.00151 0.0821 0.0
O363 O 0.05793 0.97864 0.95998 0.0
O364 O 0.06335 0.96974 0.03253 0.0
O365 O 0.99153 0.97128 0.03951 0.0
O366 O 0.98589 0.98058 0.966 0.0
Eu367 Eu 0.02357 0.93405 0.99382 0.0
O368 O 0.02138 0.12989 0.95666 0.0
O369 O 0.03092 0.11511 0.07965 0.0
O370 O 0.02006 0.90721 0.9282 0.0
O371 O 0.03043 0.89262 0.04944 0.0
O372 O 0.13437 0.94871 0.9878 0.0
O373 O 0.13744 0.06877 0.99914 0.0
O374 O 0.91414 0.9553 0.00991 0.0
O375 O 0.91724 0.07578 0.01838 0.0
O376 O 0.97531 0.99811 0.12208 0.0
O377 O 0.09364 0.00158 0.11198 0.0
O378 O 0.95747 0.02705 0.89697 0.0
O379 O 0.07706 0.02003 0.88583 0.0
O380 O 0.96236 0.90256 0.99426 0.0
O381 O 0.08276 0.89818 0.9864 0.0
O382 O 0.96998 0.12454 0.02424 0.0
O383 O 0.08847 0.12119 0.01217 0.0
O384 O 0.0344 0.05721 0.12446 0.0
O385 O 0.03802 0.93683 0.10818 0.0
O386 O 0.0199 0.08374 0.89892 0.0
O387 O 0.01743 0.9652 0.88375 0.0
O388 O 0.13141 0.0133 0.9336 0.0
O389 O 0.14108 0.00385 0.05584 0.0
O390 O 0.91133 0.02164 0.95379 0.0
O391 O 0.92105 0.01271 0.07596 0.0
H392 H 0.93238 0.26311 0.26845 0.0
H393 H 0.00985 0.21609 0.36632 0.0
H394 H 0.04633 0.17279 0.31446 0.0
H395 H 0.92096 0.17058 0.21511 0.0
H396 H 0.92148 0.19214 0.16342 0.0
H397 H 0.90459 0.22286 0.20716 0.0
H398 H 0.95785 0.278 0.18892 0.0
H399 H 0.97472 0.24731 0.14498 0.0
H400 H 0.01046 0.26335 0.18404 0.0
H401 H 0.06793 0.12826 0.25449 0.0
H402 H 0.0754 0.08767 0.1893 0.0
H403 H 0.9869 0.16614 0.12922 0.0
C404 C 0.95783 0.24461 0.27864 0.0
C405 C 0.96897 0.24355 0.32121 0.0
C406 C 0.00145 0.21788 0.33372 0.0
C407 C 0.02227 0.19321 0.30453 0.0
C408 C 0.01031 0.19467 0.26289 0.0
C409 C 0.97909 0.21998 0.24983 0.0
C410 C 0.97046 0.21369 0.20378 0.0
C411 C 0.9268 0.19893 0.197 0.0
C412 C 0.9789 0.25293 0.17897 0.0
C413 C 1.00108 0.18024 0.19328 0.0
C414 C 0.02374 0.1697 0.22783 0.0
C415 C 0.05111 0.13688 0.22695 0.0
C416 C 0.05512 0.11399 0.1899 0.0
C417 C 0.0323 0.12442 0.15418 0.0
C418 C 0.00553 0.15838 0.15575 0.0
H419 H 0.75503 0.09598 0.25217 0.0
H420 H 0.7982 0.01951 0.35319 0.0
H421 H 0.8489 0.98773 0.30561 0.0
H422 H 0.76928 0.02008 0.16741 0.0
H423 H 0.78597 0.05808 0.13064 0.0
H424 H 0.75079 0.07217 0.17168 0.0
H425 H 0.79936 0.12944 0.19621 0.0
H426 H 0.83465 0.11543 0.15536 0.0
H427 H 0.85098 0.11636 0.20898 0.0
H428 H 0.89874 0.96906 0.24921 0.0
H429 H 0.94316 0.96322 0.187 0.0
H430 H 0.86671 0.05068 0.122 0.0
C431 C 0.7746 0.07189 0.26391 0.0
C432 C 0.77234 0.05965 0.30614 0.0
C433 C 0.7991 0.02883 0.32079 0.0
C434 C 0.82797 0.01068 0.29403 0.0
C435 C 0.8297 0.02372 0.25271 0.0
C436 C 0.80361 0.05347 0.23761 0.0
C437 C 0.81332 0.06357 0.19253 0.0
C438 C 0.77772 0.05282 0.16388 0.0
C439 C 0.82529 0.10887 0.18804 0.0
C440 C 0.8492 0.03519 0.18481 0.0
C441 C 0.85818 0.0125 0.21994 0.0
C442 C 0.89165 0.98618 0.2213 0.0
C443 C 0.91676 0.98317 0.18591 0.0
C444 C 0.90807 0.00611 0.14959 0.0
C445 C 0.87356 0.03205 0.149 0.0
H446 H 0.04684 0.76289 0.29612 0.0
H447 H 0.10207 0.66709 0.21923 0.0
H448 H 0.09727 0.71205 0.15772 0.0
H449 H 0.9777 0.8013 0.22045 0.0
H450 H 0.98365 0.85438 0.23513 0.0
H451 H 0.99105 0.81472 0.27331 0.0
H452 H 0.06295 0.84199 0.28865 0.0
H453 H 0.05568 0.88185 0.25064 0.0
H454 H 0.09862 0.8475 0.24624 0.0
H455 H 0.08544 0.76616 0.10468 0.0
H456 H 0.06929 0.82725 0.06306 0.0
H457 H 0.02498 0.89 0.17471 0.0
C458 C 0.05854 0.7515 0.26657 0.0
C459 C 0.07586 0.71169 0.26278 0.0
C460 C 0.08945 0.69769 0.22306 0.0
C461 C 0.08678 0.72295 0.18795 0.0
C462 C 0.07039 0.7622 0.193 0.0
C463 C 0.05671 0.77658 0.23128 0.0
C464 C 0.04079 0.82026 0.22811 0.0
C465 C 0.99561 0.82279 0.23995 0.0
C466 C 0.06602 0.84963 0.25501 0.0
C467 C 0.0473 0.82799 0.18194 0.0
C468 C 0.06424 0.79394 0.16234 0.0
C469 C 0.07229 0.79306 0.11966 0.0
C470 C 0.06279 0.8279 0.09627 0.0
C471 C 0.04574 0.86338 0.11562 0.0
C472 C 0.03815 0.86342 0.15912 0.0
H473 H 0.30624 0.91525 0.24177 0.0
H474 H 0.28467 0.02197 0.32091 0.0
H475 H 0.23894 0.05085 0.2678 0.0
H476 H 0.29983 0.96801 0.1396 0.0
H477 H 0.27334 0.92606 0.11542 0.0
H478 H 0.30872 0.9162 0.15691 0.0
H479 H 0.25277 0.87858 0.19805 0.0
H480 H 0.21696 0.88881 0.15719 0.0
H481 H 0.20582 0.90498 0.20998 0.0
H482 H 0.18959 0.06419 0.21143 0.0
H483 H 0.14044 0.06204 0.15359 0.0
H484 H 0.19311 0.94723 0.10971 0.0
C485 C 0.29233 0.94496 0.2476 0.0
C486 C 0.29875 0.96626 0.28568 0.0
C487 C 0.28006 0.00508 0.2921 0.0
C488 C 0.25413 0.02177 0.26207 0.0
C489 C 0.24734 0.99939 0.22559 0.0
C490 C 0.266 0.96193 0.21802 0.0
C491 C 0.25081 0.94272 0.17777 0.0
C492 C 0.28524 0.93799 0.14551 0.0
C493 C 0.23039 0.90133 0.18628 0.0
C494 C 0.22016 0.97491 0.16436 0.0
C495 C 0.2189 0.00743 0.19239 0.0
C496 C 0.19084 0.03936 0.18883 0.0
C497 C 0.16303 0.03786 0.15606 0.0
C498 C 0.16368 0.00489 0.12717 0.0
C499 C 0.19291 0.97329 0.13091 0.0
H500 H 0.94697 0.73697 0.75076 0.0
H501 H 0.99746 0.80083 0.64423 0.0
H502 H 0.02525 0.85342 0.69152 0.0
H503 H 0.91682 0.82152 0.81032 0.0
H504 H 0.93235 0.80055 0.85976 0.0
H505 H 0.91851 0.7667 0.8178 0.0
H506 H 0.98815 0.72995 0.82444 0.0
H507 H 0.00154 0.76433 0.86639 0.0
H508 H 0.03393 0.75947 0.82105 0.0
H509 H 0.04044 0.90258 0.74869 0.0
H510 H 0.04568 0.94393 0.81301 0.0
H511 H 0.98915 0.8465 0.88368 0.0
C512 C 0.96414 0.76187 0.73746 0.0
C513 C 0.96905 0.76554 0.69376 0.0
C514 C 0.99238 0.79809 0.67753 0.0
C515 C 0.00861 0.82786 0.70415 0.0
C516 C 0.00228 0.82392 0.74696 0.0
C517 C 0.98125 0.79142 0.76365 0.0
C518 C 0.97814 0.79499 0.81076 0.0
C519 C 0.93375 0.79602 0.82542 0.0
C520 C 0.00187 0.76011 0.8319 0.0
C521 C 0.99844 0.83591 0.81768 0.0
C522 C 0.01266 0.8517 0.78044 0.0
C523 C 0.03007 0.89029 0.77816 0.0
C524 C 0.03264 0.91364 0.81483 0.0
C525 C 0.01791 0.89834 0.85331 0.0
C526 C 0.00123 0.85866 0.85482 0.0
H527 H 0.33777 0.00657 0.79594 0.0
H528 H 0.28362 0.95892 0.68265 0.0
H529 H 0.21552 0.97109 0.71284 0.0
H530 H 0.26987 0.95818 0.86453 0.0
H531 H 0.26867 0.99941 0.90234 0.0
H532 H 0.31278 0.99154 0.8699 0.0
H533 H 0.30726 0.06668 0.84421 0.0
H534 H 0.26301 0.07469 0.8766 0.0
H535 H 0.26064 0.08461 0.82133 0.0
H536 H 0.15299 0.98586 0.757 0.0
H537 H 0.10211 0.99676 0.81308 0.0
H538 H 0.19785 0.03107 0.89845 0.0
C539 C 0.31151 0.99951 0.77719 0.0
C540 C 0.3161 0.98286 0.73655 0.0
C541 C 0.28103 0.97266 0.71345 0.0
C542 C 0.24216 0.97941 0.73037 0.0
C543 C 0.23882 0.99583 0.7706 0.0
C544 C 0.27262 0.00544 0.79381 0.0
C545 C 0.26109 0.01933 0.83755 0.0
C546 C 0.27917 0.99038 0.87051 0.0
C547 C 0.27375 0.06398 0.84537 0.0
C548 C 0.21551 0.01564 0.83552 0.0
C549 C 0.20313 0.00263 0.79651 0.0
C550 C 0.16237 0.99622 0.78761 0.0
C551 C 0.13366 0.00261 0.81964 0.0
C552 C 0.14594 0.01466 0.86022 0.0
C553 C 0.18741 0.02176 0.86784 0.0
H554 H 0.93149 0.3323 0.8285 0.0
H555 H 0.96951 0.28982 0.70507 0.0
H556 H 0.99975 0.22803 0.73671 0.0
H557 H 0.0183 0.29677 0.88476 0.0
H558 H 0.98969 0.28092 0.92989 0.0
H559 H 0.97135 0.32248 0.89812 0.0
H560 H 0.90344 0.28468 0.88728 0.0
H561 H 0.92145 0.24334 0.91946 0.0
H562 H 0.90411 0.23286 0.86722 0.0
H563 H 0.02597 0.1718 0.78062 0.0
H564 H 0.0418 0.12032 0.83396 0.0
H565 H 0.98563 0.19798 0.92922 0.0
C566 C 0.946 0.3103 0.80774 0.0
C567 C 0.94831 0.31635 0.76386 0.0
C568 C 0.96753 0.28596 0.73862 0.0
C569 C 0.9849 0.25089 0.75629 0.0
C570 C 0.98259 0.24632 0.79941 0.0
C571 C 0.96324 0.27481 0.82483 0.0
C572 C 0.96391 0.26149 0.87019 0.0
C573 C 0.98721 0.29225 0.89733 0.0
C574 C 0.92067 0.25522 0.88701 0.0
C575 C 0.98671 0.22106 0.86615 0.0
C576 C 0.99738 0.21321 0.82501 0.0
C577 C 0.01778 0.17753 0.81294 0.0
C578 C 0.02661 0.14848 0.84354 0.0
C579 C 0.01494 0.15512 0.88578 0.0
C580 C 0.99544 0.19232 0.89732 0.0
H581 H 0.80621 0.06892 0.69745 0.0
H582 H 0.69452 0.07828 0.76946 0.0
H583 H 0.73228 0.06174 0.83358 0.0
H584 H 0.85162 0.98569 0.75507 0.0
H585 H 0.90204 0.00619 0.75208 0.0
H586 H 0.86613 0.01702 0.71137 0.0
H587 H 0.87657 0.09503 0.72256 0.0
H588 H 0.91252 0.08442 0.76326 0.0
H589 H 0.86921 0.11698 0.77394 0.0
H590 H 0.78187 0.04674 0.88989 0.0
H591 H 0.84003 0.03363 0.93542 0.0
H592 H 0.92051 0.03555 0.82739 0.0
C593 C 0.78955 0.0679 0.72659 0.0
C594 C 0.74731 0.0762 0.72848 0.0
C595 C 0.72691 0.07302 0.76738 0.0
C596 C 0.74807 0.06353 0.80393 0.0
C597 C 0.78972 0.0569 0.80113 0.0
C598 C 0.81031 0.0589 0.76354 0.0
C599 C 0.85534 0.05142 0.76949 0.0
C600 C 0.86961 0.01278 0.74558 0.0
C601 C 0.87985 0.08922 0.75654 0.0
C602 C 0.85678 0.04502 0.81634 0.0
C603 C 0.81852 0.04816 0.83384 0.0
C604 C 0.81197 0.04401 0.87655 0.0
C605 C 0.8454 0.03651 0.90217 0.0
C606 C 0.88514 0.03334 0.88516 0.0
C607 C 0.89067 0.03761 0.84151 0.0
H608 H 0.22017 0.32993 0.03404 0.0
H609 H 0.33134 0.28259 0.97747 0.0
H610 H 0.30038 0.21405 0.97171 0.0
H611 H 0.19567 0.24088 0.09364 0.0
H612 H 0.142 0.24585 0.08478 0.0
H613 H 0.17327 0.29081 0.08537 0.0
H614 H 0.14774 0.31016 0.01157 0.0
H615 H 0.11636 0.26531 0.01079 0.0
H616 H 0.15265 0.27341 0.96944 0.0
H617 H 0.25719 0.15086 0.97209 0.0
H618 H 0.20423 0.09818 0.97629 0.0
H619 H 0.12139 0.18822 0.03114 0.0
C620 C 0.23842 0.30553 0.02045 0.0
C621 C 0.27863 0.31187 0.00631 0.0
C622 C 0.30063 0.27839 0.98865 0.0
C623 C 0.28334 0.23942 0.98526 0.0
C624 C 0.2438 0.23438 0.99949 0.0
C625 C 0.22157 0.26654 0.01654 0.0
C626 C 0.17931 0.25326 0.02857 0.0
C627 C 0.17216 0.25798 0.0759 0.0
C628 C 0.14713 0.27694 0.00359 0.0
C629 C 0.18125 0.20858 0.01561 0.0
C630 C 0.21875 0.19821 0.9991 0.0
C631 C 0.22771 0.15861 0.985 0.0
C632 C 0.19741 0.12887 0.98765 0.0
C633 C 0.15856 0.13898 0.00406 0.0
C634 C 0.15065 0.17943 0.01828 0.0
H635 H 0.28567 0.75713 0.07445 0.0
H636 H 0.35474 0.77916 0.96119 0.0
H637 H 0.29573 0.81457 0.93069 0.0
H638 H 0.18448 0.7452 0.02445 0.0
H639 H 0.1588 0.7724 0.06624 0.0
H640 H 0.204 0.7429 0.07687 0.0
H641 H 0.2372 0.80731 0.10948 0.0
H642 H 0.19204 0.83665 0.09906 0.0
H643 H 0.24022 0.85366 0.07926 0.0
H644 H 0.2344 0.8567 0.91682 0.0
H645 H 0.17336 0.90127 0.91995 0.0
H646 H 0.14259 0.85182 0.04114 0.0
C647 C 0.28808 0.76877 0.04296 0.0
C648 C 0.32497 0.76571 0.02031 0.0
C649 C 0.3269 0.7813 0.97916 0.0
C650 C 0.29348 0.80135 0.96152 0.0
C651 C 0.25814 0.80529 0.98525 0.0
C652 C 0.25502 0.78922 0.02498 0.0
C653 C 0.21491 0.80115 0.04529 0.0
C654 C 0.18902 0.76314 0.05369 0.0
C655 C 0.22152 0.82618 0.08563 0.0
C656 C 0.19658 0.82742 0.01124 0.0
C657 C 0.22192 0.82907 0.97671 0.0
C658 C 0.21374 0.85475 0.94309 0.0
C659 C 0.17911 0.87989 0.94506 0.0
C660 C 0.15299 0.87875 0.98013 0.0
C661 C 0.1614 0.85178 0.01329 0.0
H662 H 0.7486 0.25965 0.95528 0.0
H663 H 0.7919 0.34711 0.04702 0.0
H664 H 0.84141 0.29585 0.07207 0.0
H665 H 0.7618 0.1663 0.02009 0.0
H666 H 0.77856 0.13552 0.97616 0.0
H667 H 0.74345 0.17744 0.96842 0.0
H668 H 0.79215 0.20845 0.91359 0.0
H669 H 0.82754 0.16691 0.9214 0.0
H670 H 0.84365 0.21921 0.92802 0.0
H671 H 0.89082 0.23886 0.08194 0.0
H672 H 0.93628 0.17848 0.07708 0.0
H673 H 0.86042 0.12604 0.98085 0.0
C674 C 0.76784 0.26752 0.98135 0.0
C675 C 0.76594 0.3071 0.99977 0.0
C676 C 0.7924 0.31678 0.03298 0.0
C677 C 0.82062 0.28789 0.04738 0.0
C678 C 0.82203 0.24936 0.02831 0.0
C679 C 0.79623 0.23894 0.99618 0.0
C680 C 0.80597 0.19631 0.97932 0.0
C681 C 0.77031 0.16717 0.98644 0.0
C682 C 0.81805 0.19783 0.93283 0.0
C683 C 0.84178 0.18482 0.00642 0.0
C684 C 0.8504 0.2159 0.03452 0.0
C685 C 0.88394 0.214 0.06063 0.0
C686 C 0.90962 0.17967 0.05763 0.0
C687 C 0.90142 0.14748 0.02913 0.0
C688 C 0.8667 0.1498 0.00367 0.0
H689 H 0.79838 0.73068 0.9104 0.0
H690 H 0.7084 0.75472 0.00757 0.0
H691 H 0.75036 0.81113 0.03456 0.0
H692 H 0.88636 0.74873 0.96963 0.0
H693 H 0.91319 0.77492 0.92876 0.0
H694 H 0.87632 0.73666 0.91564 0.0
H695 H 0.83925 0.78824 0.86991 0.0
H696 H 0.8719 0.8303 0.88343 0.0
H697 H 0.81842 0.83474 0.89248 0.0
H698 H 0.80163 0.8658 0.05017 0.0
H699 H 0.85879 0.91426 0.05327 0.0
H700 H 0.91556 0.85243 0.94743 0.0
C701 C 0.78731 0.74702 0.9377 0.0
C702 C 0.75029 0.73692 0.95769 0.0
C703 C 0.73708 0.76097 0.9924 0.0
C704 C 0.76062 0.79317 0.0079 0.0
C705 C 0.79722 0.80145 0.98807 0.0
C706 C 0.81041 0.77917 0.95367 0.0
C707 C 0.85021 0.79524 0.93712 0.0
C708 C 0.88347 0.7619 0.93782 0.0
C709 C 0.84465 0.81308 0.89311 0.0
C710 C 0.85826 0.82888 0.96866 0.0
C711 C 0.82691 0.83257 0.9973 0.0
C712 C 0.82651 0.86295 0.02814 0.0
C713 C 0.85901 0.89029 0.02964 0.0
C714 C 0.89167 0.88655 0.00097 0.0
C715 C 0.89134 0.85531 0.97029 0.0
loop_
_geom_bond_atom_site_label_1
_geom_bond_atom_site_label_2
_geom_bond_distance
_geom_bond_site_symmetry_2
_ccdc_geom_bond_type
C0 C1 1.560 . S
C0 H61 0.959 . S
C0 H62 0.959 . S
C0 H63 0.960 . S
C1 C0 1.560 . S
C1 O56 1.426 . S
C1 H60 0.980 . S
C2 C3 1.407 . S
C2 C7 1.418 . S
C2 O56 1.334 . S
C3 C2 1.407 . S
C3 C4 1.360 1_455 S
C3 H64 0.929 1_455 S
C4 C3 1.360 1_655 S
C4 C5 1.401 1_655 S
C4 C8 1.527 . S
C5 C4 1.401 1_455 S
C5 C6 1.405 . S
C5 C38 1.587 . S
C6 C5 1.405 . S
C6 C7 1.332 . S
C6 C9 1.496 . S
C7 C2 1.418 . S
C7 C6 1.332 . S
C7 H65 0.929 . S
C8 C4 1.527 . S
C8 H66 0.959 . S
C8 H67 0.961 . S
C8 H68 0.961 . S
C9 C6 1.496 . S
C9 H69 0.960 . S
C9 H70 0.960 . S
C9 H71 0.961 . S
C10 C11 1.517 . S
C10 H73 0.961 1_655 S
C10 H74 0.960 . S
C10 H75 0.959 . S
C11 C10 1.517 . S
C11 O59 1.468 . S
C11 H72 0.980 1_655 S
C12 C13 1.349 1_655 S
C12 C17 1.367 . S
C12 O59 1.408 . S
C13 C12 1.349 1_455 S
C13 C14 1.407 . S
C13 H76 0.930 . S
C14 C13 1.407 . S
C14 C15 1.449 1_455 S
C14 C18 1.535 . S
C15 C14 1.449 1_655 S
C15 C16 1.384 . S
C15 C40 1.553 . S
C16 C15 1.384 . S
C16 C17 1.364 . S
C16 C19 1.450 . S
C17 C12 1.367 . S
C17 C16 1.364 . S
C17 H77 0.931 . S
C18 C14 1.535 . S
C18 H78 0.959 . S
C18 H79 0.961 . S
C18 H80 0.959 . S
C19 C16 1.450 . S
C19 H81 0.960 . S
C19 H82 0.960 . S
C19 H83 0.960 . S
C20 C21 1.309 1_655 S
C20 C25 1.304 . S
C20 O58 1.435 . S
C21 C20 1.309 1_455 S
C21 C22 1.476 . S
C21 H85 0.930 . S
C22 C21 1.476 . S
C22 C23 1.400 1_455 S
C22 C26 1.567 . S
C23 C22 1.400 1_655 S
C23 C24 1.373 . S
C23 C45 1.432 . S
C24 C23 1.373 . S
C24 C25 1.339 . S
C24 C27 1.530 . S
C25 C20 1.304 . S
C25 C24 1.339 . S
C25 H86 0.930 . S
C26 C22 1.567 . S
C26 H87 0.961 . S
C26 H88 0.960 . S
C26 H89 0.958 . S
C27 C24 1.530 . S
C27 H90 0.961 . S
C27 H91 0.960 . S
C27 H92 0.960 . S
C28 C29 1.530 . S
C28 H94 0.961 . S
C28 H95 0.961 . S
C28 H96 0.959 . S
C29 C28 1.530 . S
C29 O57 1.412 . S
C29 H93 0.980 . S
C30 C31 1.288 . S
C30 C35 1.377 . S
C30 O57 1.393 . S
C31 C30 1.288 . S
C31 C32 1.369 . S
C31 H97 0.932 . S
C32 C31 1.369 . S
C32 C33 1.398 . S
C32 C36 1.527 . S
C33 C32 1.398 . S
C33 C34 1.380 1_455 S
C33 C47 1.497 . S
C34 C33 1.380 1_655 S
C34 C35 1.383 1_655 S
C34 C37 1.603 . S
C35 C30 1.377 . S
C35 C34 1.383 1_455 S
C35 H98 0.929 1_455 S
C36 C32 1.527 . S
C36 H99 0.961 . S
C36 H100 0.959 . S
C36 H101 0.959 . S
C37 C34 1.603 . S
C37 H102 0.960 . S
C37 H103 0.962 . S
C37 H104 0.961 . S
C38 C5 1.587 . S
C38 C39 1.360 1_455 S
C38 C51 1.412 . S
C39 C38 1.360 1_655 S
C39 C40 1.365 . S
C39 H105 0.929 . S
C40 C15 1.553 . S
C40 C39 1.365 . S
C40 C41 1.404 . S
C41 C40 1.404 . S
C41 C42 1.395 . S
C41 C52 1.451 . S
C42 C41 1.395 . S
C42 C43 1.322 . S
C42 H106 0.930 . S
C43 C42 1.322 . S
C43 C44 1.459 . S
C43 H107 0.929 . S
C44 C43 1.459 . S
C44 C45 1.445 . S
C44 C53 1.395 . S
C45 C23 1.432 . S
C45 C44 1.445 . S
C45 C46 1.370 1_655 S
C46 C45 1.370 1_455 S
C46 C47 1.438 . S
C46 H108 0.930 . S
C47 C33 1.497 . S
C47 C46 1.438 . S
C47 C48 1.360 . S
C48 C47 1.360 . S
C48 C49 1.401 . S
C48 C53 1.446 1_455 S
C49 C48 1.401 . S
C49 C50 1.347 . S
C49 H109 0.929 . S
C50 C49 1.347 . S
C50 C51 1.455 . S
C50 H110 0.930 . S
C51 C38 1.412 . S
C51 C50 1.455 . S
C51 C52 1.331 1_455 S
C52 C41 1.451 . S
C52 C51 1.331 1_655 S
C52 C53 1.497 . S
C53 C44 1.395 . S
C53 C48 1.446 1_655 S
C53 C52 1.497 . S
C54 C55 1.582 1_655 S
C54 H111 0.962 1_655 S
C54 H112 0.959 . S
C54 H113 0.958 . S
C55 C54 1.582 1_455 S
C55 O58 1.458 1_455 S
C55 H84 0.980 . S
O56 C1 1.426 . S
O56 C2 1.334 . S
O57 C29 1.412 . S
O57 C30 1.393 . S
O58 C20 1.435 . S
O58 C55 1.458 1_655 S
O59 C11 1.468 . S
O59 C12 1.408 . S
H60 C1 0.980 . S
H61 C0 0.959 . S
H62 C0 0.959 . S
H63 C0 0.960 . S
H64 C3 0.929 1_655 S
H65 C7 0.929 . S
H66 C8 0.959 . S
H67 C8 0.961 . S
H68 C8 0.961 . S
H69 C9 0.960 . S
H70 C9 0.960 . S
H71 C9 0.961 . S
H72 C11 0.980 1_455 S
H73 C10 0.961 1_455 S
H74 C10 0.960 . S
H75 C10 0.959 . S
H76 C13 0.930 . S
H77 C17 0.931 . S
H78 C18 0.959 . S
H79 C18 0.961 . S
H80 C18 0.959 . S
H81 C19 0.960 . S
H82 C19 0.960 . S
H83 C19 0.960 . S
H84 C55 0.980 . S
H85 C21 0.930 . S
H86 C25 0.930 . S
H87 C26 0.961 . S
H88 C26 0.960 . S
H89 C26 0.958 . S
H90 C27 0.961 . S
H91 C27 0.960 . S
H92 C27 0.960 . S
H93 C29 0.980 . S
H94 C28 0.961 . S
H95 C28 0.961 . S
H96 C28 0.959 . S
H97 C31 0.932 . S
H98 C35 0.929 1_655 S
H99 C36 0.961 . S
H100 C36 0.959 . S
H101 C36 0.959 . S
H102 C37 0.960 . S
H103 C37 0.962 . S
H104 C37 0.961 . S
H105 C39 0.929 . S
H106 C42 0.930 . S
H107 C43 0.929 . S
H108 C46 0.930 . S
H109 C49 0.929 . S
H110 C50 0.930 . S
H111 C54 0.962 1_455 S
H112 C54 0.959 . S
H113 C54 0.958 . S
C114 C115 1.560 . S
C114 H175 0.959 . S
C114 H176 0.959 . S
C114 H177 0.960 . S
C115 C114 1.560 . S
C115 O170 1.426 . S
C115 H174 0.980 . S
C116 C117 1.407 1_545 S
C116 C121 1.418 . S
C116 O170 1.334 . S
C117 C116 1.407 1_565 S
C117 C118 1.360 . S
C117 H178 0.929 . S
C118 C117 1.360 . S
C118 C119 1.401 1_565 S
C118 C122 1.527 . S
C119 C118 1.401 1_545 S
C119 C120 1.405 . S
C119 C152 1.587 1_545 S
C120 C119 1.405 . S
C120 C121 1.332 . S
C120 C123 1.496 . S
C121 C116 1.418 . S
C121 C120 1.332 . S
C121 H179 0.929 . S
C122 C118 1.527 . S
C122 H180 0.959 . S
C122 H181 0.961 . S
C122 H182 0.961 . S
C123 C120 1.496 . S
C123 H183 0.960 . S
C123 H184 0.960 . S
C123 H185 0.961 . S
C124 C125 1.517 . S
C124 H187 0.961 1_565 S
C124 H188 0.960 . S
C124 H189 0.959 . S
C125 C124 1.517 . S
C125 O173 1.468 . S
C125 H186 0.980 1_565 S
C126 C127 1.349 1_565 S
C126 C131 1.367 . S
C126 O173 1.408 . S
C127 C126 1.349 1_545 S
C127 C128 1.407 . S
C127 H190 0.930 . S
C128 C127 1.407 . S
C128 C129 1.449 1_545 S
C128 C132 1.535 . S
C129 C128 1.449 1_565 S
C129 C130 1.384 . S
C129 C154 1.553 . S
C130 C129 1.384 . S
C130 C131 1.364 . S
C130 C133 1.450 . S
C131 C126 1.367 . S
C131 C130 1.364 . S
C131 H191 0.931 . S
C132 C128 1.535 . S
C132 H192 0.959 . S
C132 H193 0.961 . S
C132 H194 0.959 . S
C133 C130 1.450 . S
C133 H195 0.960 . S
C133 H196 0.960 . S
C133 H197 0.960 . S
C134 C135 1.309 1_565 S
C134 C139 1.304 . S
C134 O172 1.435 . S
C135 C134 1.309 1_545 S
C135 C136 1.476 . S
C135 H199 0.930 . S
C136 C135 1.476 . S
C136 C137 1.400 1_545 S
C136 C140 1.567 . S
C137 C136 1.400 1_565 S
C137 C138 1.373 . S
C137 C159 1.432 . S
C138 C137 1.373 . S
C138 C139 1.339 . S
C138 C141 1.530 . S
C139 C134 1.304 . S
C139 C138 1.339 . S
C139 H200 0.930 . S
C140 C136 1.567 . S
C140 H201 0.961 . S
C140 H202 0.960 . S
C140 H203 0.958 . S
C141 C138 1.530 . S
C141 H204 0.961 . S
C141 H205 0.960 . S
C141 H206 0.960 . S
C142 C143 1.530 . S
C142 H208 0.961 . S
C142 H209 0.961 . S
C142 H210 0.959 . S
C143 C142 1.530 . S
C143 O171 1.412 . S
C143 H207 0.980 . S
C144 C145 1.288 . S
C144 C149 1.377 1_545 S
C144 O171 1.393 . S
C145 C144 1.288 . S
C145 C146 1.369 . S
C145 H211 0.932 . S
C146 C145 1.369 . S
C146 C147 1.398 . S
C146 C150 1.527 . S
C147 C146 1.398 . S
C147 C148 1.380 1_545 S
C147 C161 1.497 . S
C148 C147 1.380 1_565 S
C148 C149 1.383 . S
C148 C151 1.603 . S
C149 C144 1.377 1_565 S
C149 C148 1.383 . S
C149 H212 0.929 . S
C150 C146 1.527 . S
C150 H213 0.961 . S
C150 H214 0.959 . S
C150 H215 0.959 . S
C151 C148 1.603 . S
C151 H216 0.960 . S
C151 H217 0.962 . S
C151 H218 0.961 . S
C152 C119 1.587 1_565 S
C152 C153 1.360 . S
C152 C165 1.412 . S
C153 C152 1.360 . S
C153 C154 1.365 . S
C153 H219 0.929 . S
C154 C129 1.553 . S
C154 C153 1.365 . S
C154 C155 1.404 . S
C155 C154 1.404 . S
C155 C156 1.395 . S
C155 C166 1.451 . S
C156 C155 1.395 . S
C156 C157 1.322 . S
C156 H220 0.930 . S
C157 C156 1.322 . S
C157 C158 1.459 . S
C157 H221 0.929 . S
C158 C157 1.459 . S
C158 C159 1.445 . S
C158 C167 1.395 . S
C159 C137 1.432 . S
C159 C158 1.445 . S
C159 C160 1.371 . S
C160 C159 1.371 . S
C160 C161 1.437 1_565 S
C160 H222 0.930 1_565 S
C161 C147 1.497 . S
C161 C160 1.437 1_545 S
C161 C162 1.363 . S
C162 C161 1.363 . S
C162 C163 1.404 . S
C162 C167 1.441 1_545 S
C163 C162 1.404 . S
C163 C164 1.347 . S
C163 H223 0.929 . S
C164 C163 1.347 . S
C164 C165 1.455 1_545 S
C164 H224 0.930 . S
C165 C152 1.412 . S
C165 C164 1.455 1_565 S
C165 C166 1.331 . S
C166 C155 1.451 . S
C166 C165 1.331 . S
C166 C167 1.497 . S
C167 C158 1.395 . S
C167 C162 1.441 1_565 S
C167 C166 1.497 . S
C168 C169 1.582 1_565 S
C168 H225 0.962 . S
C168 H226 0.959 . S
C168 H227 0.958 . S
C169 C168 1.582 1_545 S
C169 O172 1.458 1_545 S
C169 H198 0.980 . S
O170 C115 1.426 . S
O170 C116 1.334 . S
O171 C143 1.412 . S
O171 C144 1.393 . S
O172 C134 1.435 . S
O172 C169 1.458 1_565 S
O173 C125 1.468 . S
O173 C126 1.408 . S
H174 C115 0.980 . S
H175 C114 0.959 . S
H176 C114 0.959 . S
H177 C114 0.960 . S
H178 C117 0.929 . S
H179 C121 0.929 . S
H180 C122 0.959 . S
H181 C122 0.961 . S
H182 C122 0.961 . S
H183 C123 0.960 . S
H184 C123 0.960 . S
H185 C123 0.961 . S
H186 C125 0.980 1_545 S
H187 C124 0.961 1_545 S
H188 C124 0.960 . S
H189 C124 0.959 . S
H190 C127 0.930 . S
H191 C131 0.931 . S
H192 C132 0.959 . S
H193 C132 0.961 . S
H194 C132 0.959 . S
H195 C133 0.960 . S
H196 C133 0.960 . S
H197 C133 0.960 . S
H198 C169 0.980 . S
H199 C135 0.930 . S
H200 C139 0.930 . S
H201 C140 0.961 . S
H202 C140 0.960 . S
H203 C140 0.958 . S
H204 C141 0.961 . S
H205 C141 0.960 . S
H206 C141 0.960 . S
H207 C143 0.980 . S
H208 C142 0.961 . S
H209 C142 0.961 . S
H210 C142 0.959 . S
H211 C145 0.932 . S
H212 C149 0.929 . S
H213 C150 0.961 . S
H214 C150 0.959 . S
H215 C150 0.959 . S
H216 C151 0.960 . S
H217 C151 0.962 . S
H218 C151 0.961 . S
H219 C153 0.929 . S
H220 C156 0.930 . S
H221 C157 0.929 . S
H222 C160 0.930 1_545 S
H223 C163 0.929 . S
H224 C164 0.930 . S
H225 C168 0.962 . S
H226 C168 0.959 . S
H227 C168 0.958 . S
C228 C229 1.560 . S
C228 H289 0.959 . S
C228 H290 0.959 . S
C228 H291 0.960 . S
C229 C228 1.560 . S
C229 O284 1.426 . S
C229 H288 0.980 . S
C230 C231 1.407 1_556 S
C230 C235 1.418 . S
C230 O284 1.334 . S
C231 C230 1.407 1_554 S
C231 C232 1.360 . S
C231 H292 0.929 . S
C232 C231 1.360 . S
C232 C233 1.401 . S
C232 C236 1.527 . S
C233 C232 1.401 . S
C233 C234 1.405 1_554 S
C233 C266 1.587 . S
C234 C233 1.405 1_556 S
C234 C235 1.332 . S
C234 C237 1.496 . S
C235 C230 1.418 . S
C235 C234 1.332 . S
C235 H293 0.929 . S
C236 C232 1.527 . S
C236 H294 0.959 . S
C236 H295 0.961 . S
C236 H296 0.961 . S
C237 C234 1.496 . S
C237 H297 0.960 . S
C237 H298 0.960 . S
C237 H299 0.961 . S
C238 C239 1.517 . S
C238 H301 0.961 . S
C238 H302 0.960 . S
C238 H303 0.959 . S
C239 C238 1.517 . S
C239 O287 1.468 . S
C239 H300 0.980 . S
C240 C241 1.349 . S
C240 C245 1.367 . S
C240 O287 1.408 . S
C241 C240 1.349 . S
C241 C242 1.407 . S
C241 H304 0.930 1_554 S
C242 C241 1.407 . S
C242 C243 1.449 . S
C242 C246 1.535 1_554 S
C243 C242 1.449 . S
C243 C244 1.384 . S
C243 C268 1.553 . S
C244 C243 1.384 . S
C244 C245 1.364 . S
C244 C247 1.450 . S
C245 C240 1.367 . S
C245 C244 1.364 . S
C245 H305 0.931 . S
C246 C242 1.535 1_556 S
C246 H306 0.959 . S
C246 H307 0.961 . S
C246 H308 0.959 . S
C247 C244 1.450 . S
C247 H309 0.960 . S
C247 H310 0.960 . S
C247 H311 0.960 . S
C248 C249 1.288 1_554 S
C248 C253 1.304 . S
C248 O286 1.435 . S
C249 C248 1.288 1_556 S
C249 C250 1.479 . S
C249 H313 0.946 . S
C250 C249 1.479 . S
C250 C251 1.400 1_556 S
C250 C254 1.567 . S
C251 C250 1.400 1_554 S
C251 C252 1.373 . S
C251 C273 1.432 . S
C252 C251 1.373 . S
C252 C253 1.339 . S
C252 C255 1.530 . S
C253 C248 1.304 . S
C253 C252 1.339 . S
C253 H314 0.930 . S
C254 C250 1.567 . S
C254 H315 0.961 . S
C254 H316 0.960 . S
C254 H317 0.958 . S
C255 C252 1.530 . S
C255 H318 0.961 . S
C255 H319 0.960 . S
C255 H320 0.960 . S
C256 C257 1.530 . S
C256 H322 0.961 . S
C256 H323 0.961 . S
C256 H324 0.959 . S
C257 C256 1.530 . S
C257 O285 1.412 . S
C257 H321 0.980 1_556 S
C258 C259 1.288 . S
C258 C263 1.377 1_556 S
C258 O285 1.393 . S
C259 C258 1.288 . S
C259 C260 1.369 . S
C259 H325 0.932 . S
C260 C259 1.369 . S
C260 C261 1.398 . S
C260 C264 1.527 . S
C261 C260 1.398 . S
C261 C262 1.380 1_556 S
C261 C275 1.497 1_556 S
C262 C261 1.380 1_554 S
C262 C263 1.383 . S
C262 C265 1.603 . S
C263 C258 1.377 1_554 S
C263 C262 1.383 . S
C263 H326 0.929 . S
C264 C260 1.527 . S
C264 H327 0.961 . S
C264 H328 0.959 . S
C264 H329 0.959 . S
C265 C262 1.603 . S
C265 H330 0.960 . S
C265 H331 0.962 . S
C265 H332 0.961 . S
C266 C233 1.587 . S
C266 C267 1.360 . S
C266 C279 1.412 . S
C267 C266 1.360 . S
C267 C268 1.365 . S
C267 H333 0.929 . S
C268 C243 1.553 . S
C268 C267 1.365 . S
C268 C269 1.404 . S
C269 C268 1.404 . S
C269 C270 1.395 . S
C269 C280 1.451 . S
C270 C269 1.395 . S
C270 C271 1.322 . S
C270 H334 0.930 . S
C271 C270 1.322 . S
C271 C272 1.459 . S
C271 H335 0.929 . S
C272 C271 1.459 . S
C272 C273 1.445 . S
C272 C281 1.395 . S
C273 C251 1.432 . S
C273 C272 1.445 . S
C273 C274 1.370 . S
C274 C273 1.370 . S
C274 C275 1.438 . S
C274 H336 0.930 . S
C275 C261 1.497 1_554 S
C275 C274 1.438 . S
C275 C276 1.360 . S
C276 C275 1.360 . S
C276 C277 1.401 . S
C276 C281 1.446 . S
C277 C276 1.401 . S
C277 C278 1.347 . S
C277 H337 0.929 . S
C278 C277 1.347 . S
C278 C279 1.455 . S
C278 H338 0.930 . S
C279 C266 1.412 . S
C279 C278 1.455 . S
C279 C280 1.331 . S
C280 C269 1.451 . S
C280 C279 1.331 . S
C280 C281 1.497 . S
C281 C272 1.395 . S
C281 C276 1.446 . S
C281 C280 1.497 . S
C282 C283 1.582 . S
C282 H339 0.962 . S
C282 H340 0.959 . S
C282 H341 0.958 . S
C283 C282 1.582 . S
C283 O286 1.458 . S
C283 H312 0.980 . S
O284 C229 1.426 . S
O284 C230 1.334 . S
O285 C257 1.412 . S
O285 C258 1.393 . S
O286 C248 1.435 . S
O286 C283 1.458 . S
O287 C239 1.468 . S
O287 C240 1.408 . S
H288 C229 0.980 . S
H289 C228 0.959 . S
H290 C228 0.959 . S
H291 C228 0.960 . S
H292 C231 0.929 . S
H293 C235 0.929 . S
H294 C236 0.959 . S
H295 C236 0.961 . S
H296 C236 0.961 . S
H297 C237 0.960 . S
H298 C237 0.960 . S
H299 C237 0.961 . S
H300 C239 0.980 . S
H301 C238 0.961 . S
H302 C238 0.960 . S
H303 C238 0.959 . S
H304 C241 0.930 1_556 S
H305 C245 0.931 . S
H306 C246 0.959 . S
H307 C246 0.961 . S
H308 C246 0.959 . S
H309 C247 0.960 . S
H310 C247 0.960 . S
H311 C247 0.960 . S
H312 C283 0.980 . S
H313 C249 0.946 . S
H314 C253 0.930 . S
H315 C254 0.961 . S
H316 C254 0.960 . S
H317 C254 0.958 . S
H318 C255 0.961 . S
H319 C255 0.960 . S
H320 C255 0.960 . S
H321 C257 0.980 1_554 S
H322 C256 0.961 . S
H323 C256 0.961 . S
H324 C256 0.959 . S
H325 C259 0.932 . S
H326 C263 0.929 . S
H327 C264 0.961 . S
H328 C264 0.959 . S
H329 C264 0.959 . S
H330 C265 0.960 . S
H331 C265 0.962 . S
H332 C265 0.961 . S
H333 C267 0.929 . S
H334 C270 0.930 . S
H335 C271 0.929 . S
H336 C274 0.930 . S
H337 C277 0.929 . S
H338 C278 0.930 . S
H339 C282 0.962 . S
H340 C282 0.959 . S
H341 C282 0.958 . S
C342 O368 1.283 . S
C342 O386 1.283 . S
C343 O369 1.283 . S
C343 O384 1.283 . S
C344 O370 1.283 . S
C344 O387 1.283 . S
C345 O371 1.283 . S
C345 O385 1.283 . S
C346 O372 1.283 . S
C346 O381 1.283 . S
C347 O373 1.283 1_554 S
C347 O383 1.283 . S
C348 O374 1.283 . S
C348 O380 1.283 1_554 S
C349 O375 1.283 . S
C349 O382 1.283 . S
C350 O376 1.283 . S
C350 O391 1.283 . S
C351 O377 1.283 . S
C351 O389 1.283 . S
C352 O378 1.283 . S
C352 O390 1.283 . S
C353 O379 1.283 . S
C353 O388 1.283 . S
Eu354 O355 2.376 . S
Eu354 O356 2.364 1_454 S
Eu354 O359 2.364 1_554 S
Eu354 O360 2.376 1_455 S
Eu354 O368 2.353 1_554 S
Eu354 O369 2.373 . S
Eu354 O382 2.363 1_455 S
Eu354 O383 2.363 . S
O355 Eu354 2.376 . S
O355 Eu357 2.368 1_554 S
O355 Eu362 2.370 . S
O356 Eu354 2.364 1_656 S
O356 Eu358 2.364 1_556 S
O356 Eu361 2.370 1_655 S
Eu357 O355 2.368 1_556 S
Eu357 O359 2.373 . S
Eu357 O363 2.373 1_545 S
Eu357 O364 2.368 1_546 S
Eu357 O372 2.363 1_545 S
Eu357 O373 2.363 . S
Eu357 O388 2.367 . S
Eu357 O389 2.359 1_556 S
Eu358 O356 2.364 1_554 S
Eu358 O360 2.376 . S
Eu358 O365 2.376 1_545 S
Eu358 O366 2.364 1_544 S
Eu358 O374 2.363 1_545 S
Eu358 O375 2.363 . S
Eu358 O390 2.353 1_554 S
Eu358 O391 2.373 . S
O359 Eu354 2.364 1_556 S
O359 Eu357 2.373 . S
O359 Eu361 2.370 . S
O360 Eu354 2.376 1_655 S
O360 Eu358 2.376 . S
O360 Eu362 2.370 1_655 S
Eu361 O356 2.370 1_455 S
Eu361 O359 2.370 . S
Eu361 O363 2.370 1_545 S
Eu361 O366 2.370 1_445 S
Eu361 O378 2.363 1_455 S
Eu361 O379 2.363 . S
Eu361 O386 2.363 . S
Eu361 O387 2.363 1_545 S
Eu362 O355 2.370 . S
Eu362 O360 2.370 1_455 S
Eu362 O364 2.370 1_545 S
Eu362 O365 2.370 1_445 S
Eu362 O376 2.363 1_455 S
Eu362 O377 2.363 . S
Eu362 O384 2.363 . S
Eu362 O385 2.363 1_545 S
O363 Eu357 2.373 1_565 S
O363 Eu361 2.370 1_565 S
O363 Eu367 2.373 . S
O364 Eu357 2.368 1_564 S
O364 Eu362 2.370 1_565 S
O364 Eu367 2.368 1_554 S
O365 Eu358 2.376 1_565 S
O365 Eu362 2.370 1_665 S
O365 Eu367 2.368 1_654 S
O366 Eu358 2.364 1_566 S
O366 Eu361 2.370 1_665 S
O366 Eu367 2.373 1_655 S
Eu367 O363 2.373 . S
Eu367 O364 2.368 1_556 S
Eu367 O365 2.368 1_456 S
Eu367 O366 2.373 1_455 S
Eu367 O370 2.367 . S
Eu367 O371 2.359 1_556 S
Eu367 O380 2.363 1_455 S
Eu367 O381 2.363 . S
O368 C342 1.283 . S
O368 Eu354 2.353 1_556 S
O369 C343 1.283 . S
O369 Eu354 2.373 . S
O370 C344 1.283 . S
O370 Eu367 2.367 . S
O371 C345 1.283 . S
O371 Eu367 2.359 1_554 S
O372 C346 1.283 . S
O372 Eu357 2.363 1_565 S
O373 C347 1.283 1_556 S
O373 Eu357 2.363 . S
O374 C348 1.283 . S
O374 Eu358 2.363 1_565 S
O375 C349 1.283 . S
O375 Eu358 2.363 . S
O376 C350 1.283 . S
O376 Eu362 2.363 1_655 S
O377 C351 1.283 . S
O377 Eu362 2.363 . S
O378 C352 1.283 . S
O378 Eu361 2.363 1_655 S
O379 C353 1.283 . S
O379 Eu361 2.363 . S
O380 C348 1.283 1_556 S
O380 Eu367 2.363 1_655 S
O381 C346 1.283 . S
O381 Eu367 2.363 . S
O382 C349 1.283 . S
O382 Eu354 2.363 1_655 S
O383 C347 1.283 . S
O383 Eu354 2.363 . S
O384 C343 1.283 . S
O384 Eu362 2.363 . S
O385 C345 1.283 . S
O385 Eu362 2.363 1_565 S
O386 C342 1.283 . S
O386 Eu361 2.363 . S
O387 C344 1.283 . S
O387 Eu361 2.363 1_565 S
O388 C353 1.283 . S
O388 Eu357 2.367 . S
O389 C351 1.283 . S
O389 Eu357 2.359 1_554 S
O390 C352 1.283 . S
O390 Eu358 2.353 1_556 S
O391 C350 1.283 . S
O391 Eu358 2.373 . S
H392 C404 0.930 1_655 S
H393 C406 0.930 . S
H394 C407 0.930 . S
H395 C411 0.959 . S
H396 C411 0.959 . S
H397 C411 0.961 . S
H398 C412 0.960 . S
H399 C412 0.961 . S
H400 C412 0.959 . S
H401 C415 0.929 . S
H402 C416 0.931 . S
H403 C418 0.931 1_655 S
C404 H392 0.930 1_455 S
C404 C405 1.399 . S
C404 C409 1.399 . S
C405 C404 1.399 . S
C405 C406 1.376 . S
C406 H393 0.930 . S
C406 C405 1.376 . S
C406 C407 1.388 . S
C407 H394 0.930 . S
C407 C406 1.388 . S
C407 C408 1.390 . S
C408 C407 1.390 . S
C408 C409 1.394 . S
C408 C414 1.465 . S
C409 C404 1.399 . S
C409 C408 1.394 . S
C409 C410 1.516 . S
C410 C409 1.516 . S
C410 C411 1.502 1_455 S
C410 C412 1.561 . S
C410 C413 1.526 . S
C411 H395 0.959 . S
C411 H396 0.959 . S
C411 H397 0.961 . S
C411 C410 1.502 1_655 S
C412 H398 0.960 . S
C412 H399 0.961 . S
C412 H400 0.959 . S
C412 C410 1.561 . S
C413 C410 1.526 . S
C413 C414 1.396 . S
C413 C418 1.390 . S
C414 C408 1.465 . S
C414 C413 1.396 . S
C414 C415 1.399 . S
C415 H401 0.929 . S
C415 C414 1.399 . S
C415 C416 1.385 . S
C416 H402 0.931 . S
C416 C415 1.385 . S
C416 C417 1.389 . S
C417 C416 1.389 . S
C417 C418 1.387 . S
C418 H403 0.931 1_455 S
C418 C413 1.390 . S
C418 C417 1.387 . S
H419 C431 0.930 . S
H420 C433 0.930 . S
H421 C434 0.930 . S
H422 C438 0.959 . S
H423 C438 0.959 . S
H424 C438 0.961 . S
H425 C439 0.960 . S
H426 C439 0.961 . S
H427 C439 0.959 . S
H428 C442 0.929 . S
H429 C443 0.931 . S
H430 C445 0.930 . S
C431 H419 0.930 . S
C431 C432 1.399 . S
C431 C436 1.399 . S
C432 C431 1.399 . S
C432 C433 1.376 1_545 S
C433 H420 0.930 . S
C433 C432 1.376 1_565 S
C433 C434 1.388 . S
C434 H421 0.930 . S
C434 C433 1.388 . S
C434 C435 1.390 . S
C435 C434 1.390 . S
C435 C436 1.394 1_565 S
C435 C441 1.465 . S
C436 C431 1.399 . S
C436 C435 1.394 1_545 S
C436 C437 1.516 . S
C437 C436 1.516 . S
C437 C438 1.502 . S
C437 C439 1.561 . S
C437 C440 1.526 . S
C438 H422 0.959 . S
C438 H423 0.959 . S
C438 H424 0.961 . S
C438 C437 1.502 . S
C439 H425 0.960 . S
C439 H426 0.961 . S
C439 H427 0.959 . S
C439 C437 1.561 . S
C440 C437 1.526 . S
C440 C441 1.396 1_545 S
C440 C445 1.390 . S
C441 C435 1.465 . S
C441 C440 1.396 1_565 S
C441 C442 1.399 . S
C442 H428 0.929 . S
C442 C441 1.399 . S
C442 C443 1.385 . S
C443 H429 0.931 . S
C443 C442 1.385 . S
C443 C444 1.389 1_565 S
C444 C443 1.389 1_545 S
C444 C445 1.387 . S
C445 H430 0.930 . S
C445 C440 1.390 . S
C445 C444 1.387 . S
H446 C458 0.930 . S
H447 C460 0.930 . S
H448 C461 0.930 . S
H449 C465 0.959 . S
H450 C465 0.959 . S
H451 C465 0.961 . S
H452 C466 0.960 . S
H453 C466 0.961 . S
H454 C466 0.959 . S
H455 C469 0.929 . S
H456 C470 0.931 . S
H457 C472 0.930 . S
C458 H446 0.930 . S
C458 C459 1.399 . S
C458 C463 1.399 . S
C459 C458 1.399 . S
C459 C460 1.376 . S
C460 H447 0.930 . S
C460 C459 1.376 . S
C460 C461 1.388 . S
C461 H448 0.930 . S
C461 C460 1.388 . S
C461 C462 1.390 . S
C462 C461 1.390 . S
C462 C463 1.394 . S
C462 C468 1.465 . S
C463 C458 1.399 . S
C463 C462 1.394 . S
C463 C464 1.516 . S
C464 C463 1.516 . S
C464 C465 1.502 1_455 S
C464 C466 1.561 . S
C464 C467 1.526 . S
C465 H449 0.959 . S
C465 H450 0.959 . S
C465 H451 0.961 . S
C465 C464 1.502 1_655 S
C466 H452 0.960 . S
C466 H453 0.961 . S
C466 H454 0.959 . S
C466 C464 1.561 . S
C467 C464 1.526 . S
C467 C468 1.396 . S
C467 C472 1.390 . S
C468 C462 1.465 . S
C468 C467 1.396 . S
C468 C469 1.399 . S
C469 H455 0.929 . S
C469 C468 1.399 . S
C469 C470 1.385 . S
C470 H456 0.931 . S
C470 C469 1.385 . S
C470 C471 1.389 . S
C471 C470 1.389 . S
C471 C472 1.387 . S
C472 H457 0.930 . S
C472 C467 1.390 . S
C472 C471 1.387 . S
H473 C485 0.930 . S
H474 C487 0.930 . S
H475 C488 0.930 . S
H476 C492 0.959 . S
H477 C492 0.959 . S
H478 C492 0.961 . S
H479 C493 0.960 . S
H480 C493 0.961 . S
H481 C493 0.959 . S
H482 C496 0.929 . S
H483 C497 0.931 . S
H484 C499 0.930 . S
C485 H473 0.930 . S
C485 C486 1.399 1_565 S
C485 C490 1.403 . S
C486 C485 1.399 1_545 S
C486 C487 1.376 . S
C487 H474 0.930 . S
C487 C486 1.376 . S
C487 C488 1.388 . S
C488 H475 0.930 . S
C488 C487 1.388 . S
C488 C489 1.390 . S
C489 C488 1.390 . S
C489 C490 1.372 1_545 S
C489 C495 1.465 . S
C490 C485 1.403 . S
C490 C489 1.372 1_565 S
C490 C491 1.531 . S
C491 C490 1.531 . S
C491 C492 1.502 . S
C491 C493 1.561 . S
C491 C494 1.526 . S
C492 H476 0.959 . S
C492 H477 0.959 . S
C492 H478 0.961 . S
C492 C491 1.502 . S
C493 H479 0.960 . S
C493 H480 0.961 . S
C493 H481 0.959 . S
C493 C491 1.561 . S
C494 C491 1.526 . S
C494 C495 1.396 1_565 S
C494 C499 1.390 . S
C495 C489 1.465 . S
C495 C494 1.396 1_545 S
C495 C496 1.399 . S
C496 H482 0.929 . S
C496 C495 1.399 . S
C496 C497 1.385 . S
C497 H483 0.931 . S
C497 C496 1.385 . S
C497 C498 1.389 . S
C498 C497 1.389 . S
C498 C499 1.387 1_545 S
C499 H484 0.930 . S
C499 C494 1.390 . S
C499 C498 1.387 1_565 S
H500 C512 0.930 . S
H501 C514 0.930 . S
H502 C515 0.930 . S
H503 C519 0.959 . S
H504 C519 0.959 . S
H505 C519 0.961 . S
H506 C520 0.960 . S
H507 C520 0.961 . S
H508 C520 0.959 1_455 S
H509 C523 0.929 . S
H510 C524 0.931 . S
H511 C526 0.930 . S
C512 H500 0.930 . S
C512 C513 1.399 1_655 S
C512 C517 1.399 1_655 S
C513 C512 1.399 1_455 S
C513 C514 1.376 . S
C514 H501 0.930 . S
C514 C513 1.376 . S
C514 C515 1.388 . S
C515 H502 0.930 . S
C515 C514 1.388 . S
C515 C516 1.390 . S
C516 C515 1.390 . S
C516 C517 1.394 . S
C516 C522 1.465 . S
C517 C512 1.399 1_455 S
C517 C516 1.394 . S
C517 C518 1.516 1_455 S
C518 C517 1.516 1_655 S
C518 C519 1.502 . S
C518 C520 1.561 . S
C518 C521 1.526 1_655 S
C519 H503 0.959 . S
C519 H504 0.959 . S
C519 H505 0.961 . S
C519 C518 1.502 . S
C520 H506 0.960 . S
C520 H507 0.961 . S
C520 H508 0.959 1_655 S
C520 C518 1.561 . S
C521 C518 1.526 1_455 S
C521 C522 1.396 . S
C521 C526 1.390 1_455 S
C522 C516 1.465 . S
C522 C521 1.396 . S
C522 C523 1.399 . S
C523 H509 0.929 . S
C523 C522 1.399 . S
C523 C524 1.385 . S
C524 H510 0.931 . S
C524 C523 1.385 . S
C524 C525 1.389 . S
C525 C524 1.389 . S
C525 C526 1.387 1_455 S
C526 H511 0.930 . S
C526 C521 1.390 1_655 S
C526 C525 1.387 1_655 S
H527 C539 0.930 . S
H528 C541 0.930 . S
H529 C542 0.930 . S
H530 C546 0.959 . S
H531 C546 0.959 . S
H532 C546 0.961 . S
H533 C547 0.960 . S
H534 C547 0.961 . S
H535 C547 0.959 . S
H536 C550 0.929 . S
H537 C551 0.931 . S
H538 C553 0.930 . S
C539 H527 0.930 . S
C539 C540 1.399 . S
C539 C544 1.399 . S
C540 C539 1.399 . S
C540 C541 1.376 1_545 S
C541 H528 0.930 . S
C541 C540 1.376 1_565 S
C541 C542 1.388 . S
C542 H529 0.930 . S
C542 C541 1.388 . S
C542 C543 1.390 . S
C543 C542 1.390 . S
C543 C544 1.394 1_565 S
C543 C549 1.465 . S
C544 C539 1.399 . S
C544 C543 1.394 1_545 S
C544 C545 1.516 . S
C545 C544 1.516 . S
C545 C546 1.502 . S
C545 C547 1.561 . S
C545 C548 1.526 . S
C546 H530 0.959 . S
C546 H531 0.959 . S
C546 H532 0.961 . S
C546 C545 1.502 . S
C547 H533 0.960 . S
C547 H534 0.961 . S
C547 H535 0.959 . S
C547 C545 1.561 . S
C548 C545 1.526 . S
C548 C549 1.396 1_545 S
C548 C553 1.390 . S
C549 C543 1.465 . S
C549 C548 1.396 1_565 S
C549 C550 1.399 . S
C550 H536 0.929 . S
C550 C549 1.399 . S
C550 C551 1.385 . S
C551 H537 0.931 . S
C551 C550 1.385 . S
C551 C552 1.389 1_565 S
C552 C551 1.389 1_545 S
C552 C553 1.387 . S
C553 H538 0.930 . S
C553 C548 1.390 . S
C553 C552 1.387 . S
H554 C566 0.930 . S
H555 C568 0.930 . S
H556 C569 0.930 . S
H557 C573 0.959 . S
H558 C573 0.959 . S
H559 C573 0.961 . S
H560 C574 0.960 . S
H561 C574 0.961 . S
H562 C574 0.959 1_655 S
H563 C577 0.929 . S
H564 C578 0.931 . S
H565 C580 0.930 . S
C566 H554 0.930 . S
C566 C567 1.399 . S
C566 C571 1.399 . S
C567 C566 1.399 . S
C567 C568 1.376 1_455 S
C568 H555 0.930 . S
C568 C567 1.376 1_655 S
C568 C569 1.388 . S
C569 H556 0.930 . S
C569 C568 1.388 . S
C569 C570 1.390 1_655 S
C570 C569 1.390 1_455 S
C570 C571 1.394 . S
C570 C576 1.465 . S
C571 C566 1.399 . S
C571 C570 1.394 . S
C571 C572 1.516 . S
C572 C571 1.516 . S
C572 C573 1.502 . S
C572 C574 1.561 . S
C572 C575 1.526 . S
C573 H557 0.959 . S
C573 H558 0.959 . S
C573 H559 0.961 . S
C573 C572 1.502 . S
C574 H560 0.960 . S
C574 H561 0.961 . S
C574 H562 0.959 1_455 S
C574 C572 1.561 . S
C575 C572 1.526 . S
C575 C576 1.396 . S
C575 C580 1.390 . S
C576 C570 1.465 . S
C576 C575 1.396 . S
C576 C577 1.399 1_455 S
C577 H563 0.929 . S
C577 C576 1.399 1_655 S
C577 C578 1.385 . S
C578 H564 0.931 . S
C578 C577 1.385 . S
C578 C579 1.389 1_655 S
C579 C578 1.389 1_455 S
C579 C580 1.387 . S
C580 H565 0.930 . S
C580 C575 1.390 . S
C580 C579 1.387 . S
H581 C593 0.930 . S
H582 C595 0.930 . S
H583 C596 0.930 . S
H584 C600 0.959 . S
H585 C600 0.959 . S
H586 C600 0.961 . S
H587 C601 0.960 . S
H588 C601 0.961 . S
H589 C601 0.959 . S
H590 C604 0.929 . S
H591 C605 0.931 . S
H592 C607 0.930 . S
C593 H581 0.930 . S
C593 C594 1.399 . S
C593 C598 1.399 . S
C594 C593 1.399 . S
C594 C595 1.376 1_545 S
C595 H582 0.930 . S
C595 C594 1.376 1_565 S
C595 C596 1.388 . S
C596 H583 0.930 . S
C596 C595 1.388 . S
C596 C597 1.390 1_565 S
C597 C596 1.390 1_545 S
C597 C598 1.394 . S
C597 C603 1.465 . S
C598 C593 1.399 . S
C598 C597 1.394 . S
C598 C599 1.516 . S
C599 C598 1.516 . S
C599 C600 1.502 . S
C599 C601 1.561 . S
C599 C602 1.526 . S
C600 H584 0.959 . S
C600 H585 0.959 . S
C600 H586 0.961 . S
C600 C599 1.502 . S
C601 H587 0.960 . S
C601 H588 0.961 . S
C601 H589 0.959 . S
C601 C599 1.561 . S
C602 C599 1.526 . S
C602 C603 1.398 . S
C602 C607 1.390 . S
C603 C597 1.465 . S
C603 C602 1.398 . S
C603 C604 1.397 1_545 S
C604 H590 0.929 . S
C604 C603 1.397 1_565 S
C604 C605 1.385 . S
C605 H591 0.931 . S
C605 C604 1.385 . S
C605 C606 1.389 1_565 S
C606 C605 1.389 1_545 S
C606 C607 1.387 . S
C607 H592 0.930 . S
C607 C602 1.390 . S
C607 C606 1.387 . S
H608 C620 0.930 . S
H609 C622 0.930 . S
H610 C623 0.930 . S
H611 C627 0.959 . S
H612 C627 0.959 . S
H613 C627 0.961 . S
H614 C628 0.960 . S
H615 C628 0.961 . S
H616 C628 0.959 1_556 S
H617 C631 0.929 . S
H618 C632 0.931 . S
H619 C634 0.930 . S
C620 H608 0.930 . S
C620 C621 1.399 1_554 S
C620 C625 1.399 . S
C621 C620 1.399 1_556 S
C621 C622 1.376 . S
C622 H609 0.930 . S
C622 C621 1.376 . S
C622 C623 1.388 . S
C623 H610 0.930 . S
C623 C622 1.388 . S
C623 C624 1.390 . S
C624 C623 1.390 . S
C624 C625 1.394 1_556 S
C624 C630 1.465 . S
C625 C620 1.399 . S
C625 C624 1.394 1_554 S
C625 C626 1.516 . S
C626 C625 1.516 . S
C626 C627 1.502 . S
C626 C628 1.561 . S
C626 C629 1.526 . S
C627 H611 0.959 . S
C627 H612 0.959 . S
C627 H613 0.961 . S
C627 C626 1.502 . S
C628 H614 0.960 . S
C628 H615 0.961 . S
C628 H616 0.959 1_554 S
C628 C626 1.561 . S
C629 C626 1.526 . S
C629 C630 1.396 1_554 S
C629 C634 1.390 . S
C630 C624 1.465 . S
C630 C629 1.396 1_556 S
C630 C631 1.399 . S
C631 H617 0.929 . S
C631 C630 1.399 . S
C631 C632 1.385 . S
C632 H618 0.931 . S
C632 C631 1.385 . S
C632 C633 1.389 . S
C633 C632 1.389 . S
C633 C634 1.387 1_556 S
C634 H619 0.930 . S
C634 C629 1.390 . S
C634 C633 1.387 1_554 S
H635 C647 0.930 . S
H636 C649 0.930 . S
H637 C650 0.930 . S
H638 C654 0.959 . S
H639 C654 0.959 . S
H640 C654 0.961 . S
H641 C655 0.960 . S
H642 C655 0.961 . S
H643 C655 0.959 . S
H644 C658 0.929 . S
H645 C659 0.931 . S
H646 C661 0.930 . S
C647 H635 0.930 . S
C647 C648 1.399 . S
C647 C652 1.399 . S
C648 C647 1.399 . S
C648 C649 1.376 1_554 S
C649 H636 0.930 . S
C649 C648 1.376 1_556 S
C649 C650 1.388 . S
C650 H637 0.930 . S
C650 C649 1.388 . S
C650 C651 1.390 . S
C651 C650 1.390 . S
C651 C652 1.394 1_556 S
C651 C657 1.465 . S
C652 C647 1.399 . S
C652 C651 1.394 1_554 S
C652 C653 1.516 . S
C653 C652 1.516 . S
C653 C654 1.502 . S
C653 C655 1.561 . S
C653 C656 1.526 . S
C654 H638 0.959 . S
C654 H639 0.959 . S
C654 H640 0.961 . S
C654 C653 1.502 . S
C655 H641 0.960 . S
C655 H642 0.961 . S
C655 H643 0.959 . S
C655 C653 1.561 . S
C656 C653 1.526 . S
C656 C657 1.396 1_554 S
C656 C661 1.390 . S
C657 C651 1.465 . S
C657 C656 1.396 1_556 S
C657 C658 1.399 . S
C658 H644 0.929 . S
C658 C657 1.399 . S
C658 C659 1.385 . S
C659 H645 0.931 . S
C659 C658 1.385 . S
C659 C660 1.389 . S
C660 C659 1.389 . S
C660 C661 1.387 1_556 S
C661 H646 0.930 . S
C661 C656 1.390 . S
C661 C660 1.387 1_554 S
H662 C674 0.930 . S
H663 C676 0.930 . S
H664 C677 0.930 . S
H665 C681 0.959 . S
H666 C681 0.959 . S
H667 C681 0.961 . S
H668 C682 0.960 . S
H669 C682 0.961 . S
H670 C682 0.959 . S
H671 C685 0.929 . S
H672 C686 0.931 . S
H673 C688 0.930 . S
C674 H662 0.930 . S
C674 C675 1.399 1_556 S
C674 C679 1.399 . S
C675 C674 1.399 1_554 S
C675 C676 1.376 . S
C676 H663 0.930 . S
C676 C675 1.376 . S
C676 C677 1.388 . S
C677 H664 0.930 . S
C677 C676 1.388 . S
C677 C678 1.390 . S
C678 C677 1.390 . S
C678 C679 1.394 1_554 S
C678 C684 1.465 . S
C679 C674 1.399 . S
C679 C678 1.394 1_556 S
C679 C680 1.516 . S
C680 C679 1.516 . S
C680 C681 1.502 . S
C680 C682 1.561 . S
C680 C683 1.526 . S
C681 H665 0.959 . S
C681 H666 0.959 . S
C681 H667 0.961 . S
C681 C680 1.502 . S
C682 H668 0.960 . S
C682 H669 0.961 . S
C682 H670 0.959 . S
C682 C680 1.561 . S
C683 C680 1.526 . S
C683 C684 1.396 1_556 S
C683 C688 1.390 . S
C684 C678 1.465 . S
C684 C683 1.396 1_554 S
C684 C685 1.399 . S
C685 H671 0.929 . S
C685 C684 1.399 . S
C685 C686 1.385 . S
C686 H672 0.931 . S
C686 C685 1.385 . S
C686 C687 1.389 . S
C687 C686 1.389 . S
C687 C688 1.387 1_554 S
C688 H673 0.930 . S
C688 C683 1.390 . S
C688 C687 1.387 1_556 S
H689 C701 0.930 . S
H690 C703 0.930 . S
H691 C704 0.930 . S
H692 C708 0.959 . S
H693 C708 0.959 . S
H694 C708 0.961 . S
H695 C709 0.960 . S
H696 C709 0.961 . S
H697 C709 0.959 . S
H698 C712 0.929 . S
H699 C713 0.931 . S
H700 C715 0.930 . S
C701 H689 0.930 . S
C701 C702 1.399 . S
C701 C706 1.399 . S
C702 C701 1.399 . S
C702 C703 1.376 1_556 S
C703 H690 0.930 . S
C703 C702 1.376 1_554 S
C703 C704 1.388 . S
C704 H691 0.930 . S
C704 C703 1.388 . S
C704 C705 1.390 . S
C705 C704 1.390 . S
C705 C706 1.394 1_554 S
C705 C711 1.465 . S
C706 C701 1.399 . S
C706 C705 1.394 1_556 S
C706 C707 1.516 . S
C707 C706 1.516 . S
C707 C708 1.502 . S
C707 C709 1.561 . S
C707 C710 1.526 . S
C708 H692 0.959 . S
C708 H693 0.959 . S
C708 H694 0.961 . S
C708 C707 1.502 . S
C709 H695 0.960 . S
C709 H696 0.961 . S
C709 H697 0.959 . S
C709 C707 1.561 . S
C710 C707 1.526 . S
C710 C711 1.396 1_556 S
C710 C715 1.390 . S
C711 C705 1.465 . S
C711 C710 1.396 1_554 S
C711 C712 1.399 . S
C712 H698 0.929 . S
C712 C711 1.399 . S
C712 C713 1.385 . S
C713 H699 0.931 . S
C713 C712 1.385 . S
C713 C714 1.389 . S
C714 C713 1.389 . S
C714 C715 1.387 1_554 S
C715 H700 0.930 . S
C715 C710 1.390 . S
C715 C714 1.387 1_556 S
C417 C343 1.493 . S
C405 C11 0.976 1_455 S
C444 C350 1.473 . S
C432 C143 1.205 . S
C471 C345 1.265 . S
C459 C1 0.861 . S
C498 C351 1.600 . S
C486 C169 1.228 . S
C513 C29 1.052 . S
C525 C344 1.382 . S
C552 C353 1.582 . S
C540 C125 0.954 1_545 S
C567 C55 1.047 . S
C579 C342 1.511 . S
C594 C115 1.016 . S
C606 C352 1.359 . S
C621 C283 1.367 1_556 S
C633 C347 1.701 1_556 S
C648 C239 0.970 . S
C660 C346 1.694 . S
C687 C349 1.568 . S
C675 C257 1.277 1_554 S
C714 C348 1.454 . S
C702 C229 1.088 . S
