# Generated by pormake.
# Topology anh, (6,3)-cn, num edge types: 1
# Building blocks:
#     Node 0, Type 0, BuildingBlock: MIFKUJ_clean_sbu_0, # of connection points: 6
#     Node 1, Type 0, BuildingBlock: MIFKUJ_clean_sbu_0, # of connection points: 6
#     Node 2, Type 0, BuildingBlock: MIFKUJ_clean_sbu_0, # of connection points: 6
#     Node 3, Type 1, BuildingBlock: BETDAH_clean_linker_0, # of connection points: 3
#     Node 4, Type 1, BuildingBlock: BETDAH_clean_linker_0, # of connection points: 3
#     Node 5, Type 1, BuildingBlock: BETDAH_clean_linker_0, # of connection points: 3
#     Node 6, Type 1, BuildingBlock: BETDAH_clean_linker_0, # of connection points: 3
#     Node 7, Type 1, BuildingBlock: BETDAH_clean_linker_0, # of connection points: 3
#     Node 8, Type 1, BuildingBlock: BETDAH_clean_linker_0, # of connection points: 3
#     Edge 9, Type (0, 1), BuildingBlock: OJICUG_clean_linker_0, # of connection points: 2
#     Edge 10, Type (0, 1), BuildingBlock: OJICUG_clean_linker_0, # of connection points: 2
#     Edge 11, Type (0, 1), BuildingBlock: OJICUG_clean_linker_0, # of connection points: 2
#     Edge 12, Type (0, 1), BuildingBlock: OJICUG_clean_linker_0, # of connection points: 2
#     Edge 13, Type (0, 1), BuildingBlock: OJICUG_clean_linker_0, # of connection points: 2
#     Edge 14, Type (0, 1), BuildingBlock: OJICUG_clean_linker_0, # of connection points: 2
#     Edge 15, Type (0, 1), BuildingBlock: OJICUG_clean_linker_0, # of connection points: 2
#     Edge 16, Type (0, 1), BuildingBlock: OJICUG_clean_linker_0, # of connection points: 2
#     Edge 17, Type (0, 1), BuildingBlock: OJICUG_clean_linker_0, # of connection points: 2
#     Edge 18, Type (0, 1), BuildingBlock: OJICUG_clean_linker_0, # of connection points: 2
#     Edge 19, Type (0, 1), BuildingBlock: OJICUG_clean_linker_0, # of connection points: 2
#     Edge 20, Type (0, 1), BuildingBlock: OJICUG_clean_linker_0, # of connection points: 2
#     Edge 21, Type (0, 1), BuildingBlock: OJICUG_clean_linker_0, # of connection points: 2
#     Edge 22, Type (0, 1), BuildingBlock: OJICUG_clean_linker_0, # of connection points: 2
#     Edge 23, Type (0, 1), BuildingBlock: OJICUG_clean_linker_0, # of connection points: 2
#     Edge 24, Type (0, 1), BuildingBlock: OJICUG_clean_linker_0, # of connection points: 2
#     Edge 25, Type (0, 1), BuildingBlock: OJICUG_clean_linker_0, # of connection points: 2
#     Edge 26, Type (0, 1), BuildingBlock: OJICUG_clean_linker_0, # of connection points: 2
# Relax obj value: 0.068
# Max RMSD: 0.137
# Mean RMSD: 0.100
data_MOF--net-anh--node1-MIFKUJ_clean_sbu_0--node2-BETDAH_clean_linker_0--edge1-OJICUG_clean_linker_0
_symmetry_space_group_name_H-M    P1
_symmetry_Int_Tables_number       1
_symmetry_cell_setting            triclinic
loop_
_symmetry_equiv_pos_as_xyz
'x, y, z'
_cell_length_a     23.803397
_cell_length_b     23.88916
_cell_length_c     32.957307
_cell_angle_alpha  96.701093
_cell_angle_beta   93.135866
_cell_angle_gamma 119.67931
loop_
_atom_site_label
_atom_site_type_symbol
_atom_site_fract_x
_atom_site_fract_y
_atom_site_fract_z
_atom_type_partial_charge
Zn0 Zn 0.06718 0.53133 0.15243 0.0
Zn1 Zn 0.89637 0.38651 0.15102 0.0
C2 C 0.18988 0.54102 0.15314 0.0
O3 O 0.19927 0.58535 0.18453 0.0
C4 C 0.78298 0.40154 0.15558 0.0
O5 O 0.76432 0.351 0.17461 0.0
O6 O 0.11104 0.6281 0.1638 0.0
O7 O 0.98754 0.49807 0.11268 0.0
O8 O 0.94149 0.39217 0.09941 0.0
C9 C 0.13938 0.66342 0.13721 0.0
O10 O 0.13473 0.63533 0.09948 0.0
O11 O 0.13365 0.50818 0.13192 0.0
C12 C 0.82813 0.26118 0.17971 0.0
O13 O 0.86693 0.29307 0.21438 0.0
O14 O 0.8338 0.29073 0.14916 0.0
O15 O 0.95078 0.41984 0.2081 0.0
O16 O 0.05025 0.50306 0.20685 0.0
O17 O 0.83962 0.42798 0.14416 0.0
C18 C 0.9734 0.44716 0.08781 0.0
C19 C 0.0075 0.4626 0.22604 0.0
Zn20 Zn 0.5976 0.16361 0.50526 0.0
Zn21 Zn 0.49538 0.9678 0.50085 0.0
C22 C 0.73486 0.23858 0.53022 0.0
O23 O 0.71561 0.26255 0.56076 0.0
C24 C 0.39828 0.83747 0.51092 0.0
O25 O 0.44506 0.84488 0.53796 0.0
O26 O 0.59444 0.24677 0.51305 0.0
O27 O 0.5497 0.11637 0.44894 0.0
O28 O 0.49727 0.01045 0.45169 0.0
C29 C 0.62797 0.29353 0.49396 0.0
O30 O 0.66446 0.28694 0.4675 0.0
O31 O 0.69211 0.19129 0.50361 0.0
C32 C 0.59219 0.93608 0.53042 0.0
O33 O 0.58527 0.95823 0.56709 0.0
O34 O 0.56162 0.93908 0.49868 0.0
O35 O 0.50429 0.01611 0.55695 0.0
O36 O 0.56342 0.12237 0.55554 0.0
O37 O 0.40799 0.88437 0.49204 0.0
C38 C 0.51292 0.05741 0.43178 0.0
C39 C 0.53247 0.07509 0.57491 0.0
Zn40 Zn 0.63751 0.60171 0.84802 0.0
Zn41 Zn 0.50809 0.6475 0.83189 0.0
C42 C 0.57149 0.46907 0.86588 0.0
O43 O 0.60504 0.4965 0.90263 0.0
C44 C 0.51246 0.76421 0.81613 0.0
O45 O 0.48377 0.72569 0.78054 0.0
O46 O 0.72229 0.60322 0.85792 0.0
O47 O 0.63647 0.62963 0.79409 0.0
O48 O 0.55089 0.64156 0.78035 0.0
C49 C 0.73137 0.56844 0.82972 0.0
O50 O 0.68865 0.53976 0.79633 0.0
O51 O 0.57148 0.50517 0.84036 0.0
C52 C 0.37753 0.59527 0.84612 0.0
O53 O 0.40902 0.62977 0.88234 0.0
O54 O 0.41025 0.59463 0.81697 0.0
O55 O 0.52353 0.61626 0.8846 0.0
O56 O 0.62928 0.65588 0.89543 0.0
O57 O 0.52943 0.74203 0.84482 0.0
C58 C 0.60038 0.63917 0.76949 0.0
C59 C 0.57417 0.6298 0.90824 0.0
H60 H 0.34729 0.93806 0.25292 0.0
H61 H 0.55265 0.0195 0.24756 0.0
H62 H 0.41536 0.88148 0.14597 0.0
C63 C 0.38674 0.94259 0.23602 0.0
C64 C 0.37265 0.90505 0.19682 0.0
C65 C 0.45127 0.98214 0.25521 0.0
C66 C 0.50267 0.98996 0.23288 0.0
C67 C 0.48912 0.95456 0.19287 0.0
C68 C 0.42456 0.91159 0.17556 0.0
N69 N 0.53923 0.957 0.17052 0.0
C70 C 0.60033 0.01238 0.17449 0.0
H71 H 0.62368 0.52092 0.6043 0.0
H72 H 0.66105 0.71007 0.58491 0.0
H73 H 0.66975 0.58052 0.48637 0.0
C74 C 0.63469 0.55642 0.58383 0.0
C75 C 0.64441 0.54225 0.54316 0.0
C76 C 0.64041 0.61663 0.59889 0.0
C77 C 0.65574 0.66332 0.57292 0.0
C78 C 0.66738 0.65055 0.53235 0.0
C79 C 0.66169 0.59021 0.51782 0.0
N80 N 0.68615 0.69762 0.50565 0.0
C81 C 0.67908 0.75211 0.51257 0.0
H82 H 0.90956 0.4983 0.92777 0.0
H83 H 0.04475 0.4362 0.89507 0.0
H84 H 0.94612 0.48065 0.80179 0.0
C85 C 0.93496 0.48746 0.90456 0.0
C86 C 0.923 0.49308 0.86355 0.0
C87 C 0.97828 0.46667 0.9161 0.0
C88 C 0.01067 0.45163 0.88622 0.0
C89 C 0.99895 0.45684 0.84485 0.0
C90 C 0.95426 0.4762 0.83363 0.0
N91 N 0.03227 0.444 0.81407 0.0
C92 C 0.09843 0.46563 0.82107 0.0
H93 H 0.16016 0.60291 0.39716 0.0
H94 H 0.02033 0.40885 0.4158 0.0
H95 H 0.16186 0.54695 0.51634 0.0
C96 C 0.13952 0.56694 0.41736 0.0
C97 C 0.16704 0.58336 0.45879 0.0
C98 C 0.08721 0.50398 0.40119 0.0
C99 C 0.06013 0.45778 0.42774 0.0
C100 C 0.0877 0.47357 0.46927 0.0
C101 C 0.14124 0.53568 0.48431 0.0
N102 N 0.06528 0.4268 0.4961 0.0
C103 C 0.99969 0.38539 0.49851 0.0
H104 H 0.50883 0.21124 0.7429 0.0
H105 H 0.53867 0.05487 0.76698 0.0
H106 H 0.55002 0.19212 0.86802 0.0
C107 C 0.52023 0.18703 0.76498 0.0
C108 C 0.53067 0.21101 0.80745 0.0
C109 C 0.52558 0.13258 0.75004 0.0
C110 C 0.53449 0.0969 0.77822 0.0
C111 C 0.54111 0.11742 0.8209 0.0
C112 C 0.54084 0.17509 0.83514 0.0
N113 N 0.55068 0.08293 0.85044 0.0
C114 C 0.54541 0.02194 0.84112 0.0
H115 H 0.63735 0.51451 0.05415 0.0
H116 H 0.4641 0.52292 0.07371 0.0
H117 H 0.53721 0.44314 0.15802 0.0
C118 C 0.59869 0.50679 0.07266 0.0
C119 C 0.59433 0.47782 0.10807 0.0
C120 C 0.55206 0.52338 0.05992 0.0
C121 C 0.5 0.51003 0.08299 0.0
C122 C 0.49428 0.48019 0.11803 0.0
C123 C 0.5416 0.46484 0.13042 0.0
N124 N 0.44136 0.46404 0.14141 0.0
C125 C 0.39426 0.48184 0.13576 0.0
C126 C 0.23249 0.4729 0.11742 0.0
C127 C 0.24352 0.52817 0.14484 0.0
H128 H 0.27267 0.41469 0.09296 0.0
C129 C 0.3064 0.57015 0.16646 0.0
H130 H 0.18469 0.43962 0.10035 0.0
C131 C 0.35633 0.55604 0.16199 0.0
C132 C 0.34453 0.49981 0.13585 0.0
H133 H 0.31686 0.61336 0.18764 0.0
H134 H 0.40371 0.58817 0.17995 0.0
C135 C 0.28269 0.45868 0.11312 0.0
C136 C 0.82379 0.25423 0.48705 0.0
C137 C 0.80419 0.27282 0.52331 0.0
H138 H 0.90217 0.27637 0.4505 0.0
C139 C 0.85066 0.32787 0.55149 0.0
H140 H 0.78915 0.21227 0.46462 0.0
C141 C 0.91482 0.36429 0.54319 0.0
C142 C 0.93358 0.34637 0.50668 0.0
H143 H 0.83727 0.34364 0.57962 0.0
H144 H 0.94965 0.40696 0.56514 0.0
C145 C 0.88815 0.29089 0.47879 0.0
C146 C 0.55193 0.87331 0.86061 0.0
C147 C 0.52293 0.83154 0.8225 0.0
H148 H 0.58186 0.96717 0.8962 0.0
C149 C 0.50277 0.85436 0.79037 0.0
H150 H 0.56798 0.8574 0.88599 0.0
C151 C 0.51077 0.91702 0.79631 0.0
C152 C 0.53918 0.95807 0.83441 0.0
H153 H 0.48025 0.82363 0.76061 0.0
H154 H 0.49422 0.93311 0.77123 0.0
C155 C 0.55994 0.93606 0.86648 0.0
C156 C 0.75556 0.48044 0.12779 0.0
C157 C 0.7361 0.42319 0.14473 0.0
H158 H 0.72688 0.54352 0.10391 0.0
C159 C 0.67013 0.38475 0.14998 0.0
H160 H 0.806 0.51124 0.12339 0.0
C161 C 0.62457 0.40245 0.13812 0.0
C162 C 0.64364 0.45963 0.12109 0.0
H163 H 0.65313 0.33997 0.16255 0.0
H164 H 0.574 0.37031 0.14159 0.0
C165 C 0.70996 0.49862 0.1163 0.0
C166 C 0.33196 0.7181 0.51429 0.0
C167 C 0.33719 0.77354 0.5001 0.0
H168 H 0.27504 0.61469 0.51185 0.0
C169 C 0.28469 0.76659 0.47398 0.0
H170 H 0.37164 0.72171 0.53432 0.0
C171 C 0.22882 0.70527 0.46155 0.0
C172 C 0.22437 0.64934 0.47461 0.0
H173 H 0.28698 0.80843 0.46276 0.0
H174 H 0.18923 0.70167 0.44143 0.0
C175 C 0.27633 0.65669 0.50156 0.0
C176 C 0.53218 0.35323 0.87611 0.0
C177 C 0.55215 0.40053 0.85018 0.0
H178 H 0.50598 0.25551 0.88269 0.0
C179 C 0.56185 0.3843 0.80994 0.0
H180 H 0.52466 0.36465 0.90741 0.0
C181 C 0.55495 0.32346 0.79645 0.0
C182 C 0.53512 0.27533 0.8221 0.0
H183 H 0.57854 0.42003 0.7894 0.0
H184 H 0.5679 0.31583 0.76621 0.0
C185 C 0.52253 0.2909 0.86199 0.0
C186 C 0.62692 0.8687 0.48677 0.0
C187 C 0.62436 0.89668 0.52614 0.0
H188 H 0.64668 0.80021 0.45189 0.0
C189 C 0.64639 0.88083 0.56112 0.0
H190 H 0.61055 0.87997 0.45919 0.0
C191 C 0.66705 0.83514 0.55675 0.0
C192 C 0.66616 0.80509 0.51742 0.0
H193 H 0.6451 0.90152 0.59186 0.0
H194 H 0.68156 0.82178 0.58406 0.0
C195 C 0.64753 0.82309 0.4825 0.0
C196 C 0.7858 0.50489 0.80884 0.0
C197 C 0.78444 0.55392 0.83619 0.0
H198 H 0.83011 0.44667 0.79622 0.0
C199 C 0.83176 0.5858 0.87098 0.0
H200 H 0.74985 0.47922 0.78177 0.0
C201 C 0.87809 0.56752 0.879 0.0
C202 C 0.87778 0.51657 0.85261 0.0
H203 H 0.83232 0.62409 0.89246 0.0
H204 H 0.91369 0.59277 0.90627 0.0
C205 C 0.83194 0.48634 0.81699 0.0
C206 C 0.22685 0.77179 0.12379 0.0
C207 C 0.18959 0.73237 0.15152 0.0
H208 H 0.31315 0.85943 0.11641 0.0
C209 C 0.20699 0.75614 0.19399 0.0
H210 H 0.21401 0.75514 0.09084 0.0
C211 C 0.26439 0.81464 0.20861 0.0
C212 C 0.30508 0.85158 0.18107 0.0
H213 H 0.17907 0.72724 0.21624 0.0
H214 H 0.27892 0.82786 0.24159 0.0
C215 C 0.2839 0.83123 0.13847 0.0
C216 C 0.5844 0.36064 0.52785 0.0
C217 C 0.62946 0.35627 0.50385 0.0
H218 H 0.55261 0.42218 0.558 0.0
C219 C 0.6775 0.41291 0.49092 0.0
H220 H 0.54639 0.31778 0.53797 0.0
C221 C 0.68171 0.47313 0.50294 0.0
C222 C 0.63765 0.47783 0.5279 0.0
H223 H 0.71308 0.41115 0.47249 0.0
H224 H 0.72074 0.51626 0.49374 0.0
C225 C 0.58823 0.42061 0.53954 0.0
C226 C 0.27041 0.5594 0.87277 0.0
C227 C 0.30532 0.55893 0.83971 0.0
H228 H 0.17653 0.5293 0.8925 0.0
C229 C 0.27048 0.52447 0.80069 0.0
H230 H 0.29564 0.58528 0.90325 0.0
C231 C 0.20226 0.49233 0.79477 0.0
C232 C 0.16812 0.49402 0.82775 0.0
H233 H 0.29585 0.52311 0.77463 0.0
H234 H 0.1763 0.46714 0.76431 0.0
C235 C 0.20234 0.52724 0.86679 0.0
C236 C 0.73052 0.16084 0.14073 0.0
C237 C 0.77309 0.19403 0.17761 0.0
H238 H 0.64161 0.07614 0.1112 0.0
C239 C 0.75982 0.16421 0.21303 0.0
H240 H 0.73937 0.18239 0.11292 0.0
C241 C 0.70371 0.10346 0.21189 0.0
C242 C 0.66074 0.0719 0.17532 0.0
H243 H 0.79163 0.18856 0.2419 0.0
H244 H 0.69315 0.08194 0.2397 0.0
C245 C 0.67469 0.10019 0.13966 0.0
C246 C 0.96602 0.39674 0.01455 0.0
C247 C 0.98363 0.45213 0.04412 0.0
H248 H 0.95177 0.35824 0.95006 0.0
C249 C 0.00752 0.5131 0.03117 0.0
H250 H 0.94772 0.34916 0.02357 0.0
C251 C 0.01006 0.51813 0.98959 0.0
C252 C 0.98905 0.46244 0.9599 0.0
H253 H 0.02127 0.55678 0.05291 0.0
H254 H 0.02549 0.56521 0.98037 0.0
C255 C 0.96885 0.40193 0.97263 0.0
C256 C 0.52813 0.08681 0.36081 0.0
C257 C 0.49285 0.04204 0.38676 0.0
H258 H 0.54297 0.10294 0.29848 0.0
C259 C 0.44147 0.97975 0.36903 0.0
H260 H 0.56832 0.1351 0.37361 0.0
C261 C 0.42695 0.96173 0.32638 0.0
C262 C 0.46363 0.00538 0.3003 0.0
H263 H 0.41339 0.94415 0.38812 0.0
H264 H 0.3885 0.9124 0.31384 0.0
C265 C 0.51399 0.0684 0.31788 0.0
C266 C 0.5755 0.64929 0.696 0.0
C267 C 0.61433 0.64173 0.72618 0.0
H268 H 0.55401 0.64809 0.63147 0.0
C269 C 0.66519 0.63206 0.71418 0.0
H270 H 0.53618 0.6571 0.70422 0.0
C271 C 0.67472 0.6264 0.67297 0.0
C272 C 0.63432 0.63108 0.64271 0.0
H273 H 0.69661 0.62656 0.7364 0.0
H274 H 0.71285 0.61672 0.66455 0.0
C275 C 0.58572 0.64436 0.6545 0.0
C276 C 0.56235 0.1539 0.64048 0.0
C277 C 0.5299 0.08914 0.61964 0.0
H278 H 0.58736 0.21798 0.6977 0.0
C279 C 0.49593 0.03819 0.64212 0.0
H280 H 0.58943 0.19438 0.62434 0.0
C281 C 0.49433 0.05184 0.68442 0.0
C282 C 0.52649 0.11672 0.7051 0.0
H283 H 0.47049 0.98766 0.62708 0.0
H284 H 0.46731 0.01169 0.7008 0.0
C285 C 0.5608 0.16746 0.6826 0.0
C286 C 0.50645 0.56135 0.95833 0.0
C287 C 0.56787 0.606 0.94828 0.0
H288 H 0.4533 0.49917 0.00073 0.0
C289 C 0.62372 0.62515 0.97595 0.0
H290 H 0.46244 0.54524 0.93759 0.0
C291 C 0.61844 0.59936 0.01242 0.0
C292 C 0.5572 0.55332 0.02203 0.0
H293 H 0.67178 0.65974 0.96929 0.0
H294 H 0.66251 0.61552 0.03309 0.0
C295 C 0.5012 0.5351 0.99468 0.0
C296 C 0.09212 0.49902 0.2864 0.0
C297 C 0.02576 0.46659 0.27047 0.0
H298 H 0.16299 0.53403 0.33946 0.0
C299 C 0.97879 0.44138 0.29762 0.0
H300 H 0.12968 0.5179 0.26635 0.0
C301 C 0.99819 0.45156 0.34016 0.0
C302 C 0.06481 0.48679 0.35608 0.0
H303 H 0.92726 0.41592 0.28621 0.0
H304 H 0.96122 0.43396 0.36067 0.0
C305 C 0.1113 0.50856 0.32846 0.0
loop_
_geom_bond_atom_site_label_1
_geom_bond_atom_site_label_2
_geom_bond_distance
_geom_bond_site_symmetry_2
_ccdc_geom_bond_type
Zn0 O6 1.969 . S
Zn0 O7 1.965 . S
Zn0 O11 2.024 . S
Zn0 O16 1.969 . S
Zn1 O8 1.969 . S
Zn1 O14 1.969 . S
Zn1 O15 1.965 . S
Zn1 O17 2.024 . S
C2 O3 1.229 . S
C2 O11 1.058 . S
O3 C2 1.229 . S
C4 O5 1.229 . S
C4 O17 1.058 . S
O5 C4 1.229 . S
O6 Zn0 1.969 . S
O6 C9 1.267 . S
O7 Zn0 1.965 . S
O7 C18 1.260 . S
O8 Zn1 1.969 . S
O8 C18 1.258 1_655 S
C9 O6 1.267 . S
C9 O10 1.228 . S
O10 C9 1.228 . S
O11 Zn0 2.024 . S
O11 C2 1.058 . S
C12 O13 1.228 . S
C12 O14 1.267 . S
O13 C12 1.228 . S
O14 Zn1 1.969 . S
O14 C12 1.267 . S
O15 Zn1 1.965 . S
O15 C19 1.260 1_655 S
O16 Zn0 1.969 . S
O16 C19 1.258 . S
O17 Zn1 2.024 . S
O17 C4 1.058 . S
C18 O7 1.260 . S
C18 O8 1.258 1_455 S
C19 O15 1.260 1_455 S
C19 O16 1.258 . S
Zn20 O26 1.969 . S
Zn20 O27 1.965 . S
Zn20 O31 2.024 . S
Zn20 O36 1.969 . S
Zn21 O28 1.969 . S
Zn21 O34 1.969 . S
Zn21 O35 1.965 1_565 S
Zn21 O37 2.024 . S
C22 O23 1.229 . S
C22 O31 1.058 . S
O23 C22 1.229 . S
C24 O25 1.229 . S
C24 O37 1.058 . S
O25 C24 1.229 . S
O26 Zn20 1.969 . S
O26 C29 1.267 . S
O27 Zn20 1.965 . S
O27 C38 1.260 . S
O28 Zn21 1.969 . S
O28 C38 1.258 1_565 S
C29 O26 1.267 . S
C29 O30 1.228 . S
O30 C29 1.228 . S
O31 Zn20 2.024 . S
O31 C22 1.058 . S
C32 O33 1.228 . S
C32 O34 1.267 . S
O33 C32 1.228 . S
O34 Zn21 1.969 . S
O34 C32 1.267 . S
O35 Zn21 1.965 1_545 S
O35 C39 1.260 . S
O36 Zn20 1.969 . S
O36 C39 1.258 . S
O37 Zn21 2.024 . S
O37 C24 1.058 . S
C38 O27 1.260 . S
C38 O28 1.258 1_545 S
C39 O35 1.260 . S
C39 O36 1.258 . S
Zn40 O46 1.969 . S
Zn40 O47 1.965 . S
Zn40 O51 2.024 . S
Zn40 O56 1.969 . S
Zn41 O48 1.969 . S
Zn41 O54 1.969 . S
Zn41 O55 1.965 . S
Zn41 O57 2.024 . S
C42 O43 1.229 . S
C42 O51 1.058 . S
O43 C42 1.229 . S
C44 O45 1.229 . S
C44 O57 1.058 . S
O45 C44 1.229 . S
O46 Zn40 1.969 . S
O46 C49 1.267 . S
O47 Zn40 1.965 . S
O47 C58 1.260 . S
O48 Zn41 1.969 . S
O48 C58 1.258 . S
C49 O46 1.267 . S
C49 O50 1.228 . S
O50 C49 1.228 . S
O51 Zn40 2.024 . S
O51 C42 1.058 . S
C52 O53 1.228 . S
C52 O54 1.267 . S
O53 C52 1.228 . S
O54 Zn41 1.969 . S
O54 C52 1.267 . S
O55 Zn41 1.965 . S
O55 C59 1.260 . S
O56 Zn40 1.969 . S
O56 C59 1.258 . S
O57 Zn41 2.024 . S
O57 C44 1.058 . S
C58 O47 1.260 . S
C58 O48 1.258 . S
C59 O55 1.260 . S
C59 O56 1.258 . S
H60 C63 0.929 . S
H61 C66 0.929 . S
H62 C68 0.929 1_565 S
C63 H60 0.929 . S
C63 C64 1.398 . S
C63 C65 1.396 1_565 S
C64 C63 1.398 . S
C64 C68 1.407 1_565 S
C65 C63 1.396 1_545 S
C65 C66 1.394 . S
C66 H61 0.929 . S
C66 C65 1.394 . S
C66 C67 1.382 . S
C67 C66 1.382 . S
C67 C68 1.392 . S
C67 N69 1.420 . S
C68 H62 0.929 1_545 S
C68 C64 1.407 1_545 S
C68 C67 1.392 . S
N69 C67 1.420 . S
N69 C70 1.244 . S
C70 N69 1.244 . S
H71 C74 0.929 . S
H72 C77 0.929 . S
H73 C79 0.930 . S
C74 H71 0.929 . S
C74 C75 1.398 . S
C74 C76 1.396 . S
C75 C74 1.398 . S
C75 C79 1.407 . S
C76 C74 1.396 . S
C76 C77 1.394 . S
C77 H72 0.929 . S
C77 C76 1.394 . S
C77 C78 1.382 . S
C78 C77 1.382 . S
C78 C79 1.392 . S
C78 N80 1.420 . S
C79 H73 0.930 . S
C79 C75 1.407 . S
C79 C78 1.392 . S
N80 C78 1.420 . S
N80 C81 1.244 . S
C81 N80 1.244 . S
H82 C85 0.929 . S
H83 C88 0.929 . S
H84 C90 0.930 . S
C85 H82 0.929 . S
C85 C86 1.398 . S
C85 C87 1.396 1_655 S
C86 C85 1.398 . S
C86 C90 1.407 1_655 S
C87 C85 1.396 1_455 S
C87 C88 1.394 . S
C88 H83 0.929 . S
C88 C87 1.394 . S
C88 C89 1.382 . S
C89 C88 1.382 . S
C89 C90 1.392 . S
C89 N91 1.420 . S
C90 H84 0.930 . S
C90 C86 1.407 1_455 S
C90 C89 1.392 . S
N91 C89 1.420 . S
N91 C92 1.244 . S
C92 N91 1.244 . S
H93 C96 0.929 . S
H94 C99 0.929 1_655 S
H95 C101 0.930 . S
C96 H93 0.929 . S
C96 C97 1.398 . S
C96 C98 1.396 . S
C97 C96 1.398 . S
C97 C101 1.407 . S
C98 C96 1.396 . S
C98 C99 1.394 . S
C99 H94 0.929 1_455 S
C99 C98 1.394 . S
C99 C100 1.382 . S
C100 C99 1.382 . S
C100 C101 1.392 . S
C100 N102 1.420 1_455 S
C101 H95 0.930 . S
C101 C97 1.407 . S
C101 C100 1.392 . S
N102 C100 1.420 1_655 S
N102 C103 1.244 . S
C103 N102 1.244 . S
H104 C107 0.929 . S
H105 C110 0.929 1_565 S
H106 C112 0.930 . S
C107 H104 0.929 . S
C107 C108 1.398 . S
C107 C109 1.396 . S
C108 C107 1.398 . S
C108 C112 1.407 . S
C109 C107 1.396 . S
C109 C110 1.394 . S
C110 H105 0.929 1_545 S
C110 C109 1.394 . S
C110 C111 1.382 . S
C111 C110 1.382 . S
C111 C112 1.392 . S
C111 N113 1.420 1_545 S
C112 H106 0.930 . S
C112 C108 1.407 . S
C112 C111 1.392 . S
N113 C111 1.420 1_565 S
N113 C114 1.244 . S
C114 N113 1.244 . S
H115 C118 0.929 . S
H116 C121 0.929 . S
H117 C123 0.930 . S
C118 H115 0.929 . S
C118 C119 1.398 . S
C118 C120 1.396 . S
C119 C118 1.398 . S
C119 C123 1.407 . S
C120 C118 1.396 . S
C120 C121 1.394 . S
C121 H116 0.929 . S
C121 C120 1.394 . S
C121 C122 1.382 . S
C122 C121 1.382 . S
C122 C123 1.392 . S
C122 N124 1.420 . S
C123 H117 0.930 . S
C123 C119 1.407 . S
C123 C122 1.392 . S
N124 C122 1.420 . S
N124 C125 1.244 . S
C125 N124 1.244 . S
C126 C127 1.387 . S
C126 H130 0.950 . S
C126 C135 1.390 . S
C127 C126 1.387 . S
C127 C129 1.387 . S
H128 C135 0.950 . S
C129 C127 1.387 . S
C129 C131 1.390 . S
C129 H133 0.950 . S
H130 C126 0.950 . S
C131 C129 1.390 . S
C131 C132 1.387 . S
C131 H134 0.950 . S
C132 C131 1.387 . S
C132 C135 1.387 . S
H133 C129 0.950 . S
H134 C131 0.950 . S
C135 C126 1.390 . S
C135 H128 0.950 . S
C135 C132 1.387 . S
C136 C137 1.387 . S
C136 H140 0.950 . S
C136 C145 1.390 . S
C137 C136 1.387 . S
C137 C139 1.387 . S
H138 C145 0.950 . S
C139 C137 1.387 . S
C139 C141 1.390 . S
C139 H143 0.950 . S
H140 C136 0.950 . S
C141 C139 1.390 . S
C141 C142 1.387 . S
C141 H144 0.950 . S
C142 C141 1.387 . S
C142 C145 1.387 . S
H143 C139 0.950 . S
H144 C141 0.950 . S
C145 C136 1.390 . S
C145 H138 0.950 . S
C145 C142 1.387 . S
C146 C147 1.387 . S
C146 H150 0.950 . S
C146 C155 1.390 . S
C147 C146 1.387 . S
C147 C149 1.387 . S
H148 C155 0.950 . S
C149 C147 1.387 . S
C149 C151 1.390 . S
C149 H153 0.950 . S
H150 C146 0.950 . S
C151 C149 1.390 . S
C151 C152 1.387 . S
C151 H154 0.950 . S
C152 C151 1.387 . S
C152 C155 1.387 . S
H153 C149 0.950 . S
H154 C151 0.950 . S
C155 C146 1.390 . S
C155 H148 0.950 . S
C155 C152 1.387 . S
C156 C157 1.387 . S
C156 H160 0.950 . S
C156 C165 1.390 . S
C157 C156 1.387 . S
C157 C159 1.387 . S
H158 C165 0.950 . S
C159 C157 1.387 . S
C159 C161 1.390 . S
C159 H163 0.950 . S
H160 C156 0.950 . S
C161 C159 1.390 . S
C161 C162 1.387 . S
C161 H164 0.950 . S
C162 C161 1.387 . S
C162 C165 1.387 . S
H163 C159 0.950 . S
H164 C161 0.950 . S
C165 C156 1.390 . S
C165 H158 0.950 . S
C165 C162 1.387 . S
C166 C167 1.387 . S
C166 H170 0.950 . S
C166 C175 1.390 . S
C167 C166 1.387 . S
C167 C169 1.387 . S
H168 C175 0.950 . S
C169 C167 1.387 . S
C169 C171 1.390 . S
C169 H173 0.950 . S
H170 C166 0.950 . S
C171 C169 1.390 . S
C171 C172 1.387 . S
C171 H174 0.950 . S
C172 C171 1.387 . S
C172 C175 1.387 . S
H173 C169 0.950 . S
H174 C171 0.950 . S
C175 C166 1.390 . S
C175 H168 0.950 . S
C175 C172 1.387 . S
C176 C177 1.387 . S
C176 H180 0.950 . S
C176 C185 1.390 . S
C177 C176 1.387 . S
C177 C179 1.387 . S
H178 C185 0.950 . S
C179 C177 1.387 . S
C179 C181 1.390 . S
C179 H183 0.950 . S
H180 C176 0.950 . S
C181 C179 1.390 . S
C181 C182 1.387 . S
C181 H184 0.950 . S
C182 C181 1.387 . S
C182 C185 1.387 . S
H183 C179 0.950 . S
H184 C181 0.950 . S
C185 C176 1.390 . S
C185 H178 0.950 . S
C185 C182 1.387 . S
C186 C187 1.387 . S
C186 H190 0.950 . S
C186 C195 1.390 . S
C187 C186 1.387 . S
C187 C189 1.387 . S
H188 C195 0.950 . S
C189 C187 1.387 . S
C189 C191 1.390 . S
C189 H193 0.950 . S
H190 C186 0.950 . S
C191 C189 1.390 . S
C191 C192 1.387 . S
C191 H194 0.950 . S
C192 C191 1.387 . S
C192 C195 1.387 . S
H193 C189 0.950 . S
H194 C191 0.950 . S
C195 C186 1.390 . S
C195 H188 0.950 . S
C195 C192 1.387 . S
C196 C197 1.387 . S
C196 H200 0.950 . S
C196 C205 1.390 . S
C197 C196 1.387 . S
C197 C199 1.387 . S
H198 C205 0.950 . S
C199 C197 1.387 . S
C199 C201 1.390 . S
C199 H203 0.950 . S
H200 C196 0.950 . S
C201 C199 1.390 . S
C201 C202 1.387 . S
C201 H204 0.950 . S
C202 C201 1.387 . S
C202 C205 1.387 . S
H203 C199 0.950 . S
H204 C201 0.950 . S
C205 C196 1.390 . S
C205 H198 0.950 . S
C205 C202 1.387 . S
C206 C207 1.387 . S
C206 H210 0.950 . S
C206 C215 1.390 . S
C207 C206 1.387 . S
C207 C209 1.387 . S
H208 C215 0.950 . S
C209 C207 1.387 . S
C209 C211 1.390 . S
C209 H213 0.950 . S
H210 C206 0.950 . S
C211 C209 1.390 . S
C211 C212 1.387 . S
C211 H214 0.950 . S
C212 C211 1.387 . S
C212 C215 1.387 . S
H213 C209 0.950 . S
H214 C211 0.950 . S
C215 C206 1.390 . S
C215 H208 0.950 . S
C215 C212 1.387 . S
C216 C217 1.387 . S
C216 H220 0.950 . S
C216 C225 1.390 . S
C217 C216 1.387 . S
C217 C219 1.387 . S
H218 C225 0.950 . S
C219 C217 1.387 . S
C219 C221 1.390 . S
C219 H223 0.950 . S
H220 C216 0.950 . S
C221 C219 1.390 . S
C221 C222 1.387 . S
C221 H224 0.950 . S
C222 C221 1.387 . S
C222 C225 1.387 . S
H223 C219 0.950 . S
H224 C221 0.950 . S
C225 C216 1.390 . S
C225 H218 0.950 . S
C225 C222 1.387 . S
C226 C227 1.387 . S
C226 H230 0.950 . S
C226 C235 1.390 . S
C227 C226 1.387 . S
C227 C229 1.387 . S
H228 C235 0.950 . S
C229 C227 1.387 . S
C229 C231 1.390 . S
C229 H233 0.950 . S
H230 C226 0.950 . S
C231 C229 1.390 . S
C231 C232 1.387 . S
C231 H234 0.950 . S
C232 C231 1.387 . S
C232 C235 1.387 . S
H233 C229 0.950 . S
H234 C231 0.950 . S
C235 C226 1.390 . S
C235 H228 0.950 . S
C235 C232 1.387 . S
C236 C237 1.387 . S
C236 H240 0.950 . S
C236 C245 1.390 . S
C237 C236 1.387 . S
C237 C239 1.387 . S
H238 C245 0.950 . S
C239 C237 1.387 . S
C239 C241 1.390 . S
C239 H243 0.950 . S
H240 C236 0.950 . S
C241 C239 1.390 . S
C241 C242 1.387 . S
C241 H244 0.950 . S
C242 C241 1.387 . S
C242 C245 1.387 . S
H243 C239 0.950 . S
H244 C241 0.950 . S
C245 C236 1.390 . S
C245 H238 0.950 . S
C245 C242 1.387 . S
C246 C247 1.387 . S
C246 H250 0.950 . S
C246 C255 1.371 1_554 S
C247 C246 1.387 . S
C247 C249 1.387 . S
H248 C255 0.957 . S
C249 C247 1.387 . S
C249 C251 1.390 1_554 S
C249 H253 0.950 . S
H250 C246 0.950 . S
C251 C249 1.390 1_556 S
C251 C252 1.387 . S
C251 H254 0.950 . S
C252 C251 1.387 . S
C252 C255 1.400 . S
H253 C249 0.950 . S
H254 C251 0.950 . S
C255 C246 1.371 1_556 S
C255 H248 0.957 . S
C255 C252 1.400 . S
C256 C257 1.387 . S
C256 H260 0.950 . S
C256 C265 1.390 . S
C257 C256 1.387 . S
C257 C259 1.387 . S
H258 C265 0.950 . S
C259 C257 1.387 . S
C259 C261 1.390 . S
C259 H263 0.950 . S
H260 C256 0.950 . S
C261 C259 1.390 . S
C261 C262 1.387 . S
C261 H264 0.950 . S
C262 C261 1.387 . S
C262 C265 1.387 . S
H263 C259 0.950 . S
H264 C261 0.950 . S
C265 C256 1.390 . S
C265 H258 0.950 . S
C265 C262 1.387 . S
C266 C267 1.387 . S
C266 H270 0.950 . S
C266 C275 1.390 . S
C267 C266 1.387 . S
C267 C269 1.387 . S
H268 C275 0.950 . S
C269 C267 1.387 . S
C269 C271 1.390 . S
C269 H273 0.950 . S
H270 C266 0.950 . S
C271 C269 1.390 . S
C271 C272 1.387 . S
C271 H274 0.950 . S
C272 C271 1.387 . S
C272 C275 1.387 . S
H273 C269 0.950 . S
H274 C271 0.950 . S
C275 C266 1.390 . S
C275 H268 0.950 . S
C275 C272 1.387 . S
C276 C277 1.387 . S
C276 H280 0.950 . S
C276 C285 1.390 . S
C277 C276 1.387 . S
C277 C279 1.387 1_545 S
H278 C285 0.950 . S
C279 C277 1.387 1_565 S
C279 C281 1.390 . S
C279 H283 0.950 . S
H280 C276 0.950 . S
C281 C279 1.390 . S
C281 C282 1.387 1_565 S
C281 H284 0.950 . S
C282 C281 1.387 1_545 S
C282 C285 1.387 . S
H283 C279 0.950 . S
H284 C281 0.950 . S
C285 C276 1.390 . S
C285 H278 0.950 . S
C285 C282 1.387 . S
C286 C287 1.387 . S
C286 H290 0.950 . S
C286 C295 1.390 . S
C287 C286 1.387 . S
C287 C289 1.387 . S
H288 C295 0.950 1_554 S
C289 C287 1.387 . S
C289 C291 1.390 1_556 S
C289 H293 0.950 . S
H290 C286 0.950 . S
C291 C289 1.390 1_554 S
C291 C292 1.387 . S
C291 H294 0.950 . S
C292 C291 1.387 . S
C292 C295 1.387 1_554 S
H293 C289 0.950 . S
H294 C291 0.950 . S
C295 C286 1.390 . S
C295 H288 0.950 1_556 S
C295 C292 1.387 1_556 S
C296 C297 1.387 . S
C296 H300 0.950 . S
C296 C305 1.390 . S
C297 C296 1.387 . S
C297 C299 1.387 1_455 S
H298 C305 0.950 . S
C299 C297 1.387 1_655 S
C299 C301 1.390 . S
C299 H303 0.950 . S
H300 C296 0.950 . S
C301 C299 1.390 . S
C301 C302 1.387 1_655 S
C301 H304 0.950 . S
C302 C301 1.387 1_455 S
C302 C305 1.387 . S
H303 C299 0.950 . S
H304 C301 0.950 . S
C305 C296 1.390 . S
C305 H298 0.950 . S
C305 C302 1.387 . S
C127 C2 1.499 . S
C132 C125 1.553 . S
C137 C22 1.499 . S
C142 C103 1.564 . S
C147 C44 1.496 . S
C152 C114 1.558 . S
C157 C4 1.447 . S
C162 C119 1.546 . S
C172 C97 1.540 . S
C167 C24 1.462 . S
C182 C108 1.529 . S
C177 C42 1.432 . S
C187 C32 1.428 . S
C192 C81 1.401 . S
C197 C49 1.226 . S
C202 C86 1.251 . S
C207 C9 1.205 . S
C212 C64 1.241 . S
C222 C75 1.283 . S
C217 C29 1.216 . S
C232 C92 1.355 . S
C227 C52 1.329 . S
C237 C12 1.337 . S
C242 C70 1.355 . S
C252 C87 1.487 . S
C247 C18 1.496 . S
C257 C38 1.471 . S
C262 C65 1.468 . S
C267 C58 1.459 . S
C272 C76 1.491 . S
C282 C109 1.521 . S
C277 C39 1.507 . S
C292 C120 1.525 . S
C287 C59 1.517 . S
C297 C19 1.504 . S
C302 C98 1.537 . S
