# Generated by pormake.
# Topology eea, (3,6)-cn, num edge types: 1
# Building blocks:
#     Node 0, Type 0, BuildingBlock: QEWDON_clean_linker_0, # of connection points: 3
#     Node 1, Type 0, BuildingBlock: QEWDON_clean_linker_0, # of connection points: 3
#     Node 2, Type 0, BuildingBlock: QEWDON_clean_linker_0, # of connection points: 3
#     Node 3, Type 0, BuildingBlock: QEWDON_clean_linker_0, # of connection points: 3
#     Node 4, Type 0, BuildingBlock: QEWDON_clean_linker_0, # of connection points: 3
#     Node 5, Type 0, BuildingBlock: QEWDON_clean_linker_0, # of connection points: 3
#     Node 6, Type 0, BuildingBlock: QEWDON_clean_linker_0, # of connection points: 3
#     Node 7, Type 0, BuildingBlock: QEWDON_clean_linker_0, # of connection points: 3
#     Node 8, Type 0, BuildingBlock: QEWDON_clean_linker_0, # of connection points: 3
#     Node 9, Type 0, BuildingBlock: QEWDON_clean_linker_0, # of connection points: 3
#     Node 10, Type 0, BuildingBlock: QEWDON_clean_linker_0, # of connection points: 3
#     Node 11, Type 0, BuildingBlock: QEWDON_clean_linker_0, # of connection points: 3
#     Node 12, Type 0, BuildingBlock: QEWDON_clean_linker_0, # of connection points: 3
#     Node 13, Type 0, BuildingBlock: QEWDON_clean_linker_0, # of connection points: 3
#     Node 14, Type 0, BuildingBlock: QEWDON_clean_linker_0, # of connection points: 3
#     Node 15, Type 0, BuildingBlock: QEWDON_clean_linker_0, # of connection points: 3
#     Node 16, Type 0, BuildingBlock: QEWDON_clean_linker_0, # of connection points: 3
#     Node 17, Type 0, BuildingBlock: QEWDON_clean_linker_0, # of connection points: 3
#     Node 18, Type 1, BuildingBlock: NUHQIS_clean_sbu_0, # of connection points: 6
#     Node 19, Type 1, BuildingBlock: NUHQIS_clean_sbu_0, # of connection points: 6
#     Node 20, Type 1, BuildingBlock: NUHQIS_clean_sbu_0, # of connection points: 6
#     Node 21, Type 1, BuildingBlock: NUHQIS_clean_sbu_0, # of connection points: 6
#     Node 22, Type 1, BuildingBlock: NUHQIS_clean_sbu_0, # of connection points: 6
#     Node 23, Type 1, BuildingBlock: NUHQIS_clean_sbu_0, # of connection points: 6
#     Node 24, Type 1, BuildingBlock: NUHQIS_clean_sbu_0, # of connection points: 6
#     Node 25, Type 1, BuildingBlock: NUHQIS_clean_sbu_0, # of connection points: 6
#     Node 26, Type 1, BuildingBlock: NUHQIS_clean_sbu_0, # of connection points: 6
#     Edge 27, Type (0, 1), BuildingBlock: KIFKEQ_clean_linker_1, # of connection points: 2
#     Edge 28, Type (0, 1), BuildingBlock: KIFKEQ_clean_linker_1, # of connection points: 2
#     Edge 29, Type (0, 1), BuildingBlock: KIFKEQ_clean_linker_1, # of connection points: 2
#     Edge 30, Type (0, 1), BuildingBlock: KIFKEQ_clean_linker_1, # of connection points: 2
#     Edge 31, Type (0, 1), BuildingBlock: KIFKEQ_clean_linker_1, # of connection points: 2
#     Edge 32, Type (0, 1), BuildingBlock: KIFKEQ_clean_linker_1, # of connection points: 2
#     Edge 33, Type (0, 1), BuildingBlock: KIFKEQ_clean_linker_1, # of connection points: 2
#     Edge 34, Type (0, 1), BuildingBlock: KIFKEQ_clean_linker_1, # of connection points: 2
#     Edge 35, Type (0, 1), BuildingBlock: KIFKEQ_clean_linker_1, # of connection points: 2
#     Edge 36, Type (0, 1), BuildingBlock: KIFKEQ_clean_linker_1, # of connection points: 2
#     Edge 37, Type (0, 1), BuildingBlock: KIFKEQ_clean_linker_1, # of connection points: 2
#     Edge 38, Type (0, 1), BuildingBlock: KIFKEQ_clean_linker_1, # of connection points: 2
#     Edge 39, Type (0, 1), BuildingBlock: KIFKEQ_clean_linker_1, # of connection points: 2
#     Edge 40, Type (0, 1), BuildingBlock: KIFKEQ_clean_linker_1, # of connection points: 2
#     Edge 41, Type (0, 1), BuildingBlock: KIFKEQ_clean_linker_1, # of connection points: 2
#     Edge 42, Type (0, 1), BuildingBlock: KIFKEQ_clean_linker_1, # of connection points: 2
#     Edge 43, Type (0, 1), BuildingBlock: KIFKEQ_clean_linker_1, # of connection points: 2
#     Edge 44, Type (0, 1), BuildingBlock: KIFKEQ_clean_linker_1, # of connection points: 2
#     Edge 45, Type (0, 1), BuildingBlock: KIFKEQ_clean_linker_1, # of connection points: 2
#     Edge 46, Type (0, 1), BuildingBlock: KIFKEQ_clean_linker_1, # of connection points: 2
#     Edge 47, Type (0, 1), BuildingBlock: KIFKEQ_clean_linker_1, # of connection points: 2
#     Edge 48, Type (0, 1), BuildingBlock: KIFKEQ_clean_linker_1, # of connection points: 2
#     Edge 49, Type (0, 1), BuildingBlock: KIFKEQ_clean_linker_1, # of connection points: 2
#     Edge 50, Type (0, 1), BuildingBlock: KIFKEQ_clean_linker_1, # of connection points: 2
#     Edge 51, Type (0, 1), BuildingBlock: KIFKEQ_clean_linker_1, # of connection points: 2
#     Edge 52, Type (0, 1), BuildingBlock: KIFKEQ_clean_linker_1, # of connection points: 2
#     Edge 53, Type (0, 1), BuildingBlock: KIFKEQ_clean_linker_1, # of connection points: 2
#     Edge 54, Type (0, 1), BuildingBlock: KIFKEQ_clean_linker_1, # of connection points: 2
#     Edge 55, Type (0, 1), BuildingBlock: KIFKEQ_clean_linker_1, # of connection points: 2
#     Edge 56, Type (0, 1), BuildingBlock: KIFKEQ_clean_linker_1, # of connection points: 2
#     Edge 57, Type (0, 1), BuildingBlock: KIFKEQ_clean_linker_1, # of connection points: 2
#     Edge 58, Type (0, 1), BuildingBlock: KIFKEQ_clean_linker_1, # of connection points: 2
#     Edge 59, Type (0, 1), BuildingBlock: KIFKEQ_clean_linker_1, # of connection points: 2
#     Edge 60, Type (0, 1), BuildingBlock: KIFKEQ_clean_linker_1, # of connection points: 2
#     Edge 61, Type (0, 1), BuildingBlock: KIFKEQ_clean_linker_1, # of connection points: 2
#     Edge 62, Type (0, 1), BuildingBlock: KIFKEQ_clean_linker_1, # of connection points: 2
#     Edge 63, Type (0, 1), BuildingBlock: KIFKEQ_clean_linker_1, # of connection points: 2
#     Edge 64, Type (0, 1), BuildingBlock: KIFKEQ_clean_linker_1, # of connection points: 2
#     Edge 65, Type (0, 1), BuildingBlock: KIFKEQ_clean_linker_1, # of connection points: 2
#     Edge 66, Type (0, 1), BuildingBlock: KIFKEQ_clean_linker_1, # of connection points: 2
#     Edge 67, Type (0, 1), BuildingBlock: KIFKEQ_clean_linker_1, # of connection points: 2
#     Edge 68, Type (0, 1), BuildingBlock: KIFKEQ_clean_linker_1, # of connection points: 2
#     Edge 69, Type (0, 1), BuildingBlock: KIFKEQ_clean_linker_1, # of connection points: 2
#     Edge 70, Type (0, 1), BuildingBlock: KIFKEQ_clean_linker_1, # of connection points: 2
#     Edge 71, Type (0, 1), BuildingBlock: KIFKEQ_clean_linker_1, # of connection points: 2
#     Edge 72, Type (0, 1), BuildingBlock: KIFKEQ_clean_linker_1, # of connection points: 2
#     Edge 73, Type (0, 1), BuildingBlock: KIFKEQ_clean_linker_1, # of connection points: 2
#     Edge 74, Type (0, 1), BuildingBlock: KIFKEQ_clean_linker_1, # of connection points: 2
#     Edge 75, Type (0, 1), BuildingBlock: KIFKEQ_clean_linker_1, # of connection points: 2
#     Edge 76, Type (0, 1), BuildingBlock: KIFKEQ_clean_linker_1, # of connection points: 2
#     Edge 77, Type (0, 1), BuildingBlock: KIFKEQ_clean_linker_1, # of connection points: 2
#     Edge 78, Type (0, 1), BuildingBlock: KIFKEQ_clean_linker_1, # of connection points: 2
#     Edge 79, Type (0, 1), BuildingBlock: KIFKEQ_clean_linker_1, # of connection points: 2
#     Edge 80, Type (0, 1), BuildingBlock: KIFKEQ_clean_linker_1, # of connection points: 2
# Relax obj value: 0.087
# Max RMSD: 0.261
# Mean RMSD: 0.181
data_MOF--net-eea--node1-NUHQIS_clean_sbu_0--node2-QEWDON_clean_linker_0--edge1-KIFKEQ_clean_linker_1
_symmetry_space_group_name_H-M    P1
_symmetry_Int_Tables_number       1
_symmetry_cell_setting            triclinic
loop_
_symmetry_equiv_pos_as_xyz
'x, y, z'
_cell_length_a     58.783747
_cell_length_b     59.768624
_cell_length_c     68.225641
_cell_angle_alpha  93.143012
_cell_angle_beta   93.135867
_cell_angle_gamma 119.98702
loop_
_atom_site_label
_atom_site_type_symbol
_atom_site_fract_x
_atom_site_fract_y
_atom_site_fract_z
_atom_type_partial_charge
H0 H 0.2196 0.12432 0.43083 0.0
C1 C 0.22141 0.11005 0.4216 0.0
C2 C 0.23811 0.10096 0.42832 0.0
C3 C 0.20533 0.09909 0.40375 0.0
H4 H 0.25175 0.07412 0.42191 0.0
C5 C 0.23931 0.08153 0.41661 0.0
C6 C 0.22354 0.07066 0.39865 0.0
C7 C 0.20679 0.07974 0.39228 0.0
C8 C 0.18464 0.10532 0.39806 0.0
H9 H 0.19431 0.07129 0.37853 0.0
C10 C 0.19087 0.13095 0.39575 0.0
C11 C 0.17079 0.13628 0.39009 0.0
C12 C 0.15825 0.08513 0.39474 0.0
H13 H 0.15302 0.06526 0.39652 0.0
C14 C 0.13833 0.09038 0.38929 0.0
H15 H 0.21121 0.14659 0.39826 0.0
C16 C 0.1445 0.11577 0.38697 0.0
H17 H 0.12873 0.11933 0.38244 0.0
H18 H 0.11805 0.07471 0.38678 0.0
H19 H 0.90576 0.10613 0.43153 0.0
C20 C 0.91983 0.12252 0.42431 0.0
C21 C 0.92765 0.14791 0.43208 0.0
C22 C 0.93123 0.11812 0.40805 0.0
H23 H 0.9533 0.1887 0.42903 0.0
C24 C 0.94721 0.16907 0.42328 0.0
C25 C 0.95888 0.16509 0.40698 0.0
C26 C 0.95043 0.13956 0.39934 0.0
C27 C 0.92472 0.09132 0.40106 0.0
H28 H 0.95948 0.13634 0.3869 0.0
C29 C 0.89861 0.07012 0.39977 0.0
C30 C 0.893 0.04483 0.39344 0.0
C31 C 0.94507 0.0868 0.39601 0.0
H32 H 0.9654 0.10244 0.39729 0.0
C33 C 0.93958 0.06196 0.38952 0.0
H34 H 0.88275 0.07326 0.40372 0.0
C35 C 0.91381 0.04117 0.38817 0.0
H36 H 0.91018 0.02217 0.38278 0.0
H37 H 0.9554 0.0588 0.38556 0.0
H38 H 0.92272 0.79101 0.44293 0.0
C39 C 0.90648 0.79034 0.43407 0.0
C40 C 0.88054 0.77581 0.43953 0.0
C41 C 0.91184 0.80609 0.41839 0.0
H42 H 0.83992 0.76548 0.43268 0.0
C43 C 0.85986 0.77632 0.42846 0.0
C44 C 0.8649 0.79191 0.41275 0.0
C45 C 0.89092 0.80661 0.4078 0.0
C46 C 0.93938 0.82573 0.41533 0.0
H47 H 0.89512 0.81927 0.39606 0.0
C48 C 0.95808 0.81893 0.40965 0.0
C49 C 0.98402 0.83854 0.40686 0.0
C50 C 0.94685 0.85206 0.41816 0.0
H51 H 0.93287 0.85773 0.42258 0.0
C52 C 0.97235 0.87135 0.41548 0.0
H53 H 0.9525 0.79867 0.40739 0.0
C54 C 0.99079 0.86471 0.40988 0.0
H55 H 0.01037 0.88014 0.40761 0.0
H56 H 0.97784 0.89156 0.41769 0.0
H57 H 0.12394 0.21689 0.58523 0.0
C58 C 0.10764 0.21711 0.59175 0.0
C59 C 0.09842 0.23335 0.58504 0.0
C60 C 0.09514 0.20024 0.60619 0.0
H61 H 0.06932 0.24512 0.58835 0.0
C62 C 0.07705 0.23323 0.59364 0.0
C63 C 0.06434 0.21638 0.60805 0.0
C64 C 0.07349 0.20002 0.61419 0.0
C65 C 0.10281 0.18099 0.61172 0.0
H66 H 0.06348 0.18684 0.62516 0.0
C67 C 0.12926 0.18831 0.61752 0.0
C68 C 0.13546 0.1697 0.62385 0.0
C69 C 0.08302 0.15483 0.61157 0.0
H70 H 0.06265 0.14859 0.60688 0.0
C71 C 0.08922 0.13637 0.61736 0.0
H72 H 0.14469 0.20843 0.61787 0.0
C73 C 0.11516 0.14373 0.62357 0.0
H74 H 0.11943 0.12902 0.62813 0.0
H75 H 0.07379 0.11629 0.61715 0.0
H76 H 0.81122 0.91916 0.6034 0.0
C77 C 0.80971 0.90216 0.60951 0.0
C78 C 0.79577 0.87785 0.59831 0.0
C79 C 0.82272 0.90481 0.62816 0.0
H80 H 0.78468 0.83741 0.59748 0.0
C81 C 0.79507 0.85615 0.60602 0.0
C82 C 0.80814 0.85855 0.62452 0.0
C83 C 0.82132 0.88277 0.63561 0.0
C84 C 0.83863 0.93054 0.6398 0.0
H85 H 0.8306 0.88443 0.65021 0.0
C86 C 0.82989 0.94861 0.64076 0.0
C87 C 0.84453 0.97217 0.65271 0.0
C88 C 0.86264 0.93692 0.65048 0.0
H89 H 0.87036 0.92384 0.64966 0.0
C90 C 0.8771 0.96032 0.66232 0.0
H91 H 0.8115 0.9442 0.63269 0.0
C92 C 0.86802 0.97781 0.66357 0.0
H93 H 0.87954 0.99597 0.67277 0.0
H94 H 0.89544 0.96492 0.67052 0.0
H95 H 0.09796 0.87575 0.58369 0.0
C96 C 0.11467 0.89281 0.59159 0.0
C97 C 0.14002 0.9027 0.5851 0.0
C98 C 0.11065 0.90567 0.60772 0.0
H99 H 0.18055 0.93379 0.58958 0.0
C100 C 0.1613 0.92545 0.5951 0.0
C101 C 0.15752 0.93861 0.61116 0.0
C102 C 0.13214 0.92828 0.61749 0.0
C103 C 0.08375 0.898 0.61292 0.0
H104 H 0.12882 0.93818 0.62983 0.0
C105 C 0.06777 0.87446 0.62102 0.0
C106 C 0.04324 0.86904 0.62749 0.0
C107 C 0.07469 0.91554 0.61074 0.0
H108 H 0.0867 0.93373 0.60454 0.0
C109 C 0.05023 0.90993 0.61662 0.0
H110 H 0.07481 0.861 0.62298 0.0
C111 C 0.03465 0.88695 0.62502 0.0
H112 H 0.01571 0.88308 0.62949 0.0
H113 H 0.0434 0.92355 0.61482 0.0
H114 H 0.88661 0.46194 0.76184 0.0
C115 C 0.88696 0.44583 0.75406 0.0
C116 C 0.9041 0.4375 0.76137 0.0
C117 C 0.86951 0.43277 0.73711 0.0
H118 H 0.91626 0.40903 0.75702 0.0
C119 C 0.90397 0.41631 0.75112 0.0
C120 C 0.88674 0.40328 0.73406 0.0
C121 C 0.86975 0.41179 0.72711 0.0
C122 C 0.84966 0.43964 0.73032 0.0
H123 H 0.85644 0.40194 0.7139 0.0
C124 C 0.85723 0.46507 0.72611 0.0
C125 C 0.83826 0.47086 0.71836 0.0
C126 C 0.82293 0.42022 0.72724 0.0
H127 H 0.81667 0.40053 0.7305 0.0
C128 C 0.80404 0.42601 0.71999 0.0
H129 H 0.87788 0.48 0.72814 0.0
C130 C 0.81161 0.45111 0.71549 0.0
H131 H 0.79655 0.45514 0.70988 0.0
H132 H 0.78348 0.41095 0.71774 0.0
H133 H 0.5755 0.43835 0.76569 0.0
C134 C 0.5901 0.4542 0.75831 0.0
C135 C 0.60061 0.47994 0.76655 0.0
C136 C 0.59944 0.44866 0.74131 0.0
H137 H 0.62988 0.51987 0.76442 0.0
C138 C 0.62116 0.50021 0.75767 0.0
C139 C 0.63066 0.49513 0.7404 0.0
C140 C 0.61884 0.46924 0.73209 0.0
C141 C 0.59096 0.42141 0.73413 0.0
H142 H 0.6249 0.46477 0.71843 0.0
C143 C 0.56429 0.40149 0.73293 0.0
C144 C 0.55701 0.37567 0.72679 0.0
C145 C 0.61011 0.41514 0.72902 0.0
H146 H 0.63081 0.42989 0.73012 0.0
C147 C 0.60294 0.38968 0.72284 0.0
H148 H 0.54931 0.406 0.73684 0.0
C149 C 0.57662 0.37006 0.72174 0.0
H150 H 0.57155 0.35047 0.71672 0.0
H151 H 0.61787 0.38512 0.71895 0.0
H152 H 0.58597 0.12385 0.77598 0.0
C153 C 0.56916 0.12391 0.76869 0.0
C154 C 0.54396 0.10953 0.77553 0.0
C155 C 0.57298 0.1394 0.753 0.0
H156 H 0.50327 0.10007 0.7714 0.0
C157 C 0.52259 0.11058 0.76608 0.0
C158 C 0.526 0.12575 0.75024 0.0
C159 C 0.55126 0.13991 0.74377 0.0
C160 C 0.59994 0.15806 0.74787 0.0
H161 H 0.55438 0.15241 0.73206 0.0
C162 C 0.61722 0.15005 0.74086 0.0
C163 C 0.6417 0.16853 0.73461 0.0
C164 C 0.60791 0.18457 0.74928 0.0
H165 H 0.59513 0.19121 0.75476 0.0
C166 C 0.63229 0.20279 0.74357 0.0
H167 H 0.61126 0.12966 0.73955 0.0
C168 C 0.64897 0.19485 0.73615 0.0
H169 H 0.66771 0.20935 0.73158 0.0
H170 H 0.63815 0.22314 0.74471 0.0
H171 H 0.79545 0.55205 0.91716 0.0
C172 C 0.78015 0.55271 0.9249 0.0
C173 C 0.76936 0.56776 0.91844 0.0
C174 C 0.76984 0.53678 0.94027 0.0
H175 H 0.74032 0.57901 0.9235 0.0
C176 C 0.74845 0.56716 0.92807 0.0
C177 C 0.73786 0.55139 0.94354 0.0
C178 C 0.74887 0.53642 0.94958 0.0
C179 C 0.77837 0.51782 0.94477 0.0
H180 H 0.74042 0.52359 0.96105 0.0
C181 C 0.80527 0.52535 0.94866 0.0
C182 C 0.81256 0.50652 0.95196 0.0
C183 C 0.75908 0.49145 0.94439 0.0
H184 H 0.73836 0.48509 0.94123 0.0
C185 C 0.76626 0.4729 0.9476 0.0
H186 H 0.82037 0.54561 0.94906 0.0
C187 C 0.79275 0.48031 0.95129 0.0
H188 H 0.79779 0.46552 0.95392 0.0
H189 H 0.75121 0.45265 0.94718 0.0
H190 H 0.47671 0.24499 0.93078 0.0
C191 C 0.47409 0.22846 0.9383 0.0
C192 C 0.45521 0.20319 0.93027 0.0
C193 C 0.49086 0.23246 0.95526 0.0
H194 H 0.43815 0.16239 0.9339 0.0
C195 C 0.4529 0.18194 0.93974 0.0
C196 C 0.46967 0.1856 0.95655 0.0
C197 C 0.48838 0.21092 0.96434 0.0
C198 C 0.51222 0.25899 0.96274 0.0
H199 H 0.50162 0.21389 0.97718 0.0
C200 C 0.50726 0.27969 0.96473 0.0
C201 C 0.5277 0.30486 0.97161 0.0
C202 C 0.53789 0.26376 0.96772 0.0
H203 H 0.54238 0.24828 0.96609 0.0
C204 C 0.55819 0.28866 0.97456 0.0
H205 H 0.48754 0.27622 0.9609 0.0
C206 C 0.55319 0.30911 0.97649 0.0
H207 H 0.56923 0.32822 0.98203 0.0
H208 H 0.57788 0.29212 0.97835 0.0
H209 H 0.76215 0.20904 0.9191 0.0
C210 C 0.77932 0.22554 0.92709 0.0
C211 C 0.80429 0.23544 0.91988 0.0
C212 C 0.7762 0.2377 0.9441 0.0
H213 H 0.84496 0.26621 0.92402 0.0
C214 C 0.82609 0.25759 0.93013 0.0
C215 C 0.82337 0.26973 0.94739 0.0
C216 C 0.79834 0.25922 0.95438 0.0
C217 C 0.74959 0.23065 0.94974 0.0
H218 H 0.79573 0.26818 0.96765 0.0
C219 C 0.73124 0.20535 0.95404 0.0
C220 C 0.70615 0.19961 0.95937 0.0
C221 C 0.74261 0.24998 0.95083 0.0
H222 H 0.75633 0.26952 0.94749 0.0
C223 C 0.71784 0.24432 0.95603 0.0
H224 H 0.73645 0.19032 0.95326 0.0
C225 C 0.69971 0.21935 0.96027 0.0
H226 H 0.68067 0.2155 0.96449 0.0
H227 H 0.71268 0.25936 0.95681 0.0
H228 H 0.54779 0.78992 0.09552 0.0
C229 C 0.54875 0.7739 0.08818 0.0
C230 C 0.56359 0.76423 0.09745 0.0
C231 C 0.53342 0.76148 0.07021 0.0
H232 H 0.57471 0.7349 0.09566 0.0
C233 C 0.56374 0.74268 0.08828 0.0
C234 C 0.54895 0.73044 0.07015 0.0
C235 C 0.53405 0.74014 0.06118 0.0
C236 C 0.51451 0.76869 0.06171 0.0
H237 H 0.52245 0.73078 0.04721 0.0
C238 C 0.52256 0.79441 0.05794 0.0
C239 C 0.50438 0.8004 0.04887 0.0
C240 C 0.48803 0.74924 0.05688 0.0
H241 H 0.48131 0.72936 0.05985 0.0
C242 C 0.46991 0.7552 0.0483 0.0
H243 H 0.54302 0.80944 0.06142 0.0
C244 C 0.47798 0.78055 0.04425 0.0
H245 H 0.46345 0.78467 0.03765 0.0
H246 H 0.44954 0.74009 0.04473 0.0
H247 H 0.24033 0.76822 0.09777 0.0
C248 C 0.25452 0.78487 0.09085 0.0
C249 C 0.26204 0.81002 0.09897 0.0
C250 C 0.2658 0.7811 0.07426 0.0
H251 H 0.28729 0.85101 0.09665 0.0
C252 C 0.28104 0.83159 0.09024 0.0
C253 C 0.29258 0.82822 0.07363 0.0
C254 C 0.2845 0.80292 0.06562 0.0
C255 C 0.25964 0.75459 0.06678 0.0
H256 H 0.29348 0.80021 0.05294 0.0
C257 C 0.2337 0.73313 0.06548 0.0
C258 C 0.2284 0.70811 0.05866 0.0
C259 C 0.28015 0.7506 0.06123 0.0
H260 H 0.30037 0.76647 0.06248 0.0
C261 C 0.27495 0.72602 0.05426 0.0
H262 H 0.21773 0.73587 0.0698 0.0
C263 C 0.24934 0.70495 0.05291 0.0
H264 H 0.24591 0.68616 0.04716 0.0
H265 H 0.29089 0.72326 0.04992 0.0
H266 H 0.25578 0.4524 0.10873 0.0
C267 C 0.239 0.45171 0.10065 0.0
C268 C 0.2137 0.43779 0.10732 0.0
C269 C 0.24291 0.46573 0.08408 0.0
H270 H 0.17334 0.42874 0.10298 0.0
C271 C 0.19239 0.43821 0.09716 0.0
C272 C 0.19587 0.45215 0.08049 0.0
C273 C 0.22125 0.46539 0.07393 0.0
C274 C 0.26989 0.48441 0.07913 0.0
H275 H 0.22457 0.47624 0.06115 0.0
C276 C 0.2869 0.47648 0.07146 0.0
C277 C 0.31146 0.49513 0.0654 0.0
C278 C 0.27808 0.51095 0.08133 0.0
H279 H 0.2654 0.51745 0.08724 0.0
C280 C 0.30253 0.52934 0.07587 0.0
H281 H 0.28066 0.45604 0.06951 0.0
C282 C 0.31902 0.52154 0.06786 0.0
H283 H 0.33787 0.53625 0.06361 0.0
H284 H 0.30861 0.54974 0.07767 0.0
H285 H 0.46217 0.88431 0.2505 0.0
C286 C 0.44592 0.88424 0.25733 0.0
C287 C 0.43628 0.90026 0.25096 0.0
C288 C 0.43384 0.86709 0.27168 0.0
H289 H 0.407 0.91159 0.25486 0.0
C290 C 0.415 0.8998 0.25989 0.0
C291 C 0.40264 0.88269 0.27425 0.0
C292 C 0.41213 0.86639 0.27999 0.0
C293 C 0.44191 0.84786 0.27635 0.0
H294 H 0.40238 0.85292 0.29085 0.0
C295 C 0.46867 0.85523 0.28075 0.0
C296 C 0.47575 0.83631 0.28416 0.0
C297 C 0.42248 0.82149 0.27563 0.0
H298 H 0.40185 0.81522 0.27206 0.0
C299 C 0.42945 0.80281 0.27899 0.0
H300 H 0.48387 0.87549 0.28143 0.0
C301 C 0.45585 0.8101 0.28314 0.0
H302 H 0.46072 0.79522 0.28587 0.0
H303 H 0.4143 0.78256 0.2783 0.0
H304 H 0.14 0.58399 0.27248 0.0
C305 C 0.13993 0.5673 0.27799 0.0
C306 C 0.12533 0.54284 0.26704 0.0
C307 C 0.15472 0.57036 0.2959 0.0
H308 H 0.11593 0.50284 0.26542 0.0
C309 C 0.12597 0.52146 0.27415 0.0
C310 C 0.14054 0.52421 0.292 0.0
C311 C 0.15427 0.54852 0.30292 0.0
C312 C 0.17132 0.59622 0.30723 0.0
H313 H 0.16472 0.55039 0.31705 0.0
C314 C 0.1627 0.61435 0.30894 0.0
C315 C 0.17811 0.63805 0.32058 0.0
C316 C 0.19599 0.60272 0.31686 0.0
H317 H 0.20368 0.58966 0.31541 0.0
C318 C 0.21117 0.62622 0.32845 0.0
H319 H 0.14385 0.6099 0.30168 0.0
C320 C 0.20222 0.64376 0.33044 0.0
H321 H 0.21434 0.66204 0.33938 0.0
H322 H 0.23 0.6309 0.33585 0.0
H323 H 0.43142 0.54201 0.25363 0.0
C324 C 0.44857 0.55866 0.26152 0.0
C325 C 0.47352 0.56836 0.25431 0.0
C326 C 0.44558 0.57122 0.2784 0.0
H327 H 0.51441 0.59882 0.25841 0.0
C328 C 0.49533 0.59069 0.26422 0.0
C329 C 0.49256 0.60343 0.28101 0.0
C330 C 0.46774 0.59337 0.28818 0.0
C331 C 0.41905 0.56397 0.28434 0.0
H332 H 0.46533 0.60361 0.30079 0.0
C333 C 0.40234 0.53972 0.29128 0.0
C334 C 0.37812 0.5345 0.29828 0.0
C335 C 0.41094 0.58242 0.28381 0.0
H336 H 0.42342 0.60111 0.27845 0.0
C337 C 0.38678 0.57705 0.29019 0.0
H338 H 0.4086 0.5255 0.29194 0.0
C339 C 0.37054 0.55336 0.29746 0.0
H340 H 0.35186 0.54971 0.30236 0.0
H341 H 0.38069 0.59138 0.28965 0.0
Tb342 Tb 0.49711 0.99422 0.99128 0.0
Eu343 Eu 0.51418 0.01865 0.03842 0.0
C344 C 0.5164 0.96867 0.02248 0.0
C345 C 0.45647 0.97053 0.02276 0.0
C346 C 0.49325 0.99312 0.93634 0.0
C347 C 0.5137 1.00089 0.90539 0.0
C348 C 0.50756 0.98819 0.92264 0.0
C349 C 0.48504 0.011 0.93237 0.0
C350 C 0.49098 0.02354 0.915 0.0
C351 C 0.50547 0.01871 0.90132 0.0
C352 C 0.4877 0.9798 0.95471 0.0
O353 O 0.48131 0.01997 0.99628 0.0
O354 O 0.5101 0.04813 0.02199 0.0
O355 O 0.55179 0.03688 0.02316 0.0
O356 O 0.53266 0.03168 0.99174 0.0
C357 C 0.49258 0.0425 0.00697 0.0
O358 O 0.50658 0.0351 0.06501 0.0
O359 O 0.53946 0.02821 0.0658 0.0
O360 O 0.51016 0.97934 0.0369 0.0
O361 O 0.51766 0.976 1.00455 0.0
O362 O 0.46588 0.96543 0.00711 0.0
O363 O 0.47 0.99251 0.03404 0.0
C364 C 0.55346 0.04228 1.00467 0.0
O365 O 0.50824 0.98291 0.96549 0.0
O366 O 0.47073 0.98119 0.96554 0.0
C367 C 0.51653 0.02124 0.09439 0.0
C368 C 0.50038 0.99679 0.12947 0.0
C369 C 0.50715 0.02285 0.12859 0.0
C370 C 0.51522 0.03496 0.11123 0.0
C371 C 0.50948 0.99514 0.09512 0.0
C372 C 0.50162 0.98308 0.1125 0.0
C373 C 0.52481 0.03414 0.07611 0.0
H374 H 0.52462 0.99647 0.8951 0.0
H375 H 0.51411 0.97451 0.92532 0.0
H376 H 0.47417 0.01543 0.9427 0.0
H377 H 0.48457 0.03735 0.91243 0.0
H378 H 0.50659 0.03401 0.14142 0.0
H379 H 0.52046 0.05508 0.11095 0.0
H380 H 0.51001 0.98403 0.08223 0.0
H381 H 0.49615 0.96289 0.11257 0.0
Tb382 Tb 0.0234 0.49665 0.99139 0.0
Eu383 Eu 1.00391 0.49318 0.03666 0.0
C384 C 0.05527 0.5428 0.0242 0.0
C385 C 0.04933 0.48039 0.02609 0.0
C386 C 0.02372 0.49566 0.9365 0.0
C387 C 0.01661 0.51252 0.9065 0.0
C388 C 0.0284 0.51671 0.92574 0.0
C389 C 1.00707 0.47028 0.92756 0.0
C390 C 0.99543 0.46611 0.9083 0.0
C391 C 1.00012 0.48717 0.89753 0.0
C392 C 0.03689 0.50039 0.95666 0.0
O393 O 0.98563 0.46099 0.98886 0.0
O394 O 0.98049 0.45258 0.02139 0.0
O395 O 0.97306 0.49521 0.01735 0.0
O396 O 0.9973 0.51306 0.9913 0.0
C397 C 0.97419 0.44525 1.00241 0.0
O398 O 0.99006 0.47227 0.06257 0.0
O399 O 0.99605 0.51107 0.06233 0.0
O400 O 0.03407 0.53506 0.03359 0.0
O401 O 0.05634 0.52796 0.00986 0.0
O402 O 0.04234 0.47834 0.00708 0.0
O403 O 0.03994 0.48924 0.03957 0.0
C404 C 0.97648 0.50673 1.00106 0.0
O405 O 0.03877 0.5197 0.96796 0.0
O406 O 0.03064 0.48015 0.96632 0.0
C407 C 1.00561 0.49889 0.09275 0.0
C408 C 0.03158 0.51096 0.13112 0.0
C409 C 0.03862 0.49925 0.11605 0.0
C410 C 0.02588 0.49341 0.09702 0.0
C411 C 0.99878 0.5109 0.10767 0.0
C412 C 0.01173 0.51701 0.1267 0.0
C413 C 0.99132 0.49194 0.07291 0.0
H414 H 0.0208 0.52913 0.89851 0.0
H415 H 0.04134 0.53646 0.93217 0.0
H416 H 1.00304 0.45358 0.93537 0.0
H417 H 0.98257 0.44635 0.90187 0.0
H418 H 0.05409 0.4947 0.11897 0.0
H419 H 0.03177 0.48443 0.08569 0.0
H420 H 0.98326 0.51535 0.10466 0.0
H421 H 1.00581 0.5259 0.13805 0.0
Tb422 Tb 0.52892 0.50946 0.03064 0.0
Eu423 Eu 0.512 0.51402 0.9844 0.0
C424 C 0.51271 0.46403 0.99744 0.0
C425 C 0.57047 0.52635 0.99915 0.0
C426 C 0.5329 0.51309 0.08553 0.0
C427 C 0.5393 0.51824 0.12135 0.0
C428 C 0.54632 0.51299 0.10311 0.0
C429 C 0.51253 0.51883 0.0864 0.0
C430 C 0.50532 0.52386 0.10463 0.0
C431 C 0.51855 0.52351 0.12234 0.0
C432 C 0.53951 0.50609 0.06647 0.0
O433 O 0.54194 0.55029 0.0282 0.0
O434 O 0.51313 0.54697 1.00257 0.0
O435 O 0.47399 0.49379 0.99905 0.0
O436 O 0.49136 0.50835 0.03125 0.0
C437 C 0.52977 0.56001 0.01808 0.0
O438 O 0.51791 0.53714 0.95944 0.0
O439 O 0.48817 0.49629 0.95631 0.0
O440 O 0.51853 0.48019 0.98385 0.0
O441 O 0.51009 0.47041 0.01556 0.0
O442 O 0.56125 0.51261 0.01424 0.0
O443 O 0.55641 0.53381 0.98871 0.0
C444 C 0.47113 0.49769 0.01772 0.0
O445 O 0.51974 0.4877 0.05507 0.0
O446 O 0.55497 0.5252 0.0566 0.0
C447 C 0.51153 0.51377 0.92875 0.0
C448 C 0.53168 0.50821 0.89325 0.0
C449 C 0.51795 0.52189 0.89441 0.0
C450 C 0.50797 0.52462 0.91199 0.0
C451 C 0.52532 0.50025 0.92778 0.0
C452 C 0.53521 0.49741 0.91019 0.0
C453 C 0.50138 0.51715 0.94728 0.0
H454 H 0.54974 0.5176 0.13469 0.0
H455 H 0.56203 0.50851 0.10274 0.0
H456 H 0.50204 0.51917 0.07298 0.0
H457 H 0.48951 0.5282 0.10487 0.0
H458 H 0.51521 0.53083 0.8818 0.0
H459 H 0.49759 0.53533 0.91252 0.0
H460 H 0.52841 0.49185 0.94062 0.0
H461 H 0.54533 0.48646 0.90983 0.0
Tb462 Tb 0.16634 0.3298 0.326 0.0
Eu463 Eu 0.18073 0.35419 0.37329 0.0
C464 C 0.18278 0.30351 0.35855 0.0
C465 C 0.12362 0.30677 0.35624 0.0
C466 C 0.16286 0.32797 0.27114 0.0
C467 C 0.15377 0.32623 0.23567 0.0
C468 C 0.14817 0.3143 0.2533 0.0
C469 C 0.18308 0.35391 0.27115 0.0
C470 C 0.18886 0.36579 0.25351 0.0
C471 C 0.17434 0.35207 0.23552 0.0
C472 C 0.15736 0.31482 0.2895 0.0
O473 O 0.15166 0.3567 0.32961 0.0
O474 O 0.17888 0.38426 0.35619 0.0
O475 O 0.21944 0.37208 0.35955 0.0
O476 O 0.20315 0.36656 0.32715 0.0
C477 C 0.16277 0.37919 0.34034 0.0
O478 O 0.17128 0.36978 0.39941 0.0
O479 O 0.20477 0.36387 0.40132 0.0
O480 O 0.1763 0.31481 0.37236 0.0
O481 O 0.18467 0.31012 0.34037 0.0
O482 O 0.13395 0.3014 0.34131 0.0
O483 O 0.13662 0.32896 0.3673 0.0
C484 C 0.22281 0.37744 0.34111 0.0
O485 O 0.17789 0.31837 0.30056 0.0
O486 O 0.14037 0.31663 0.29999 0.0
C487 C 0.18031 0.35577 0.42911 0.0
C488 C 0.16358 0.33057 0.46386 0.0
C489 C 0.17041 0.3567 0.46324 0.0
C490 C 0.17876 0.36917 0.44604 0.0
C491 C 0.17315 0.32959 0.42956 0.0
C492 C 0.165 0.31717 0.44677 0.0
C493 C 0.18924 0.36912 0.41108 0.0
H494 H 0.14233 0.31503 0.22209 0.0
H495 H 0.1325 0.29427 0.25296 0.0
H496 H 0.1945 0.36492 0.28478 0.0
H497 H 0.20458 0.3858 0.25398 0.0
H498 H 0.16972 0.36763 0.47615 0.0
H499 H 0.18412 0.38934 0.44599 0.0
H500 H 0.17388 0.31874 0.4166 0.0
H501 H 0.15951 0.29695 0.44663 0.0
Tb502 Tb 0.68961 0.83268 0.32517 0.0
Eu503 Eu 0.6701 0.82889 0.37021 0.0
C504 C 0.72037 0.87962 0.35781 0.0
C505 C 0.71699 0.81884 0.35991 0.0
C506 C 0.68841 0.83084 0.27074 0.0
C507 C 0.68457 0.84485 0.23854 0.0
C508 C 0.69832 0.84941 0.25708 0.0
C509 C 0.66448 0.80758 0.26558 0.0
C510 C 0.65087 0.8029 0.24701 0.0
C511 C 0.66066 0.8215 0.23324 0.0
C512 C 0.70285 0.83626 0.29041 0.0
O513 O 0.65163 0.79734 0.32252 0.0
O514 O 0.64803 0.78814 0.35488 0.0
O515 O 0.63881 0.83022 0.35094 0.0
O516 O 0.66274 0.84815 0.32478 0.0
C517 C 0.64103 0.78111 0.33591 0.0
O518 O 0.65931 0.80807 0.39651 0.0
O519 O 0.65884 0.84403 0.39543 0.0
O520 O 0.69925 0.87119 0.36743 0.0
O521 O 0.72189 0.86511 0.34338 0.0
O522 O 0.70773 0.81377 0.34118 0.0
O523 O 0.70851 0.82926 0.37291 0.0
C524 C 0.64191 0.84155 0.33458 0.0
O525 O 0.70464 0.85558 0.3016 0.0
O526 O 0.69735 0.81632 0.30026 0.0
C527 C 0.67046 0.83434 0.42631 0.0
C528 C 0.6974 0.84715 0.46433 0.0
C529 C 0.67122 0.8265 0.4608 0.0
C530 C 0.65788 0.8202 0.44195 0.0
C531 C 0.69645 0.85525 0.42977 0.0
C532 C 0.70978 0.86171 0.44869 0.0
C533 C 0.65678 0.82592 0.40633 0.0
H534 H 0.69255 0.85977 0.22846 0.0
H535 H 0.71664 0.86757 0.26083 0.0
H536 H 0.65624 0.79293 0.27586 0.0
H537 H 0.6328 0.7845 0.24338 0.0
H538 H 0.66111 0.81511 0.4726 0.0
H539 H 0.63787 0.80394 0.43951 0.0
H540 H 0.7066 0.86622 0.4178 0.0
H541 H 0.73002 0.87753 0.45093 0.0
Tb542 Tb 0.20076 0.85602 0.36159 0.0
Eu543 Eu 0.1758 0.85008 0.3151 0.0
C544 C 0.17423 0.80258 0.33549 0.0
C545 C 0.23576 0.86168 0.32634 0.0
C546 C 0.207 0.8607 0.41673 0.0
C547 C 0.21182 0.85976 0.45223 0.0
C548 C 0.22083 0.85959 0.43368 0.0
C549 C 0.18359 0.86124 0.41849 0.0
C550 C 0.17447 0.86128 0.43702 0.0
C551 C 0.18873 0.861 0.45417 0.0
C552 C 0.21813 0.86316 0.39758 0.0
O553 O 0.21732 0.89391 0.35042 0.0
O554 O 0.18142 0.88665 0.33079 0.0
O555 O 0.14059 0.8354 0.33286 0.0
O556 O 0.16217 0.85229 0.36405 0.0
C557 C 0.20275 0.90244 0.34231 0.0
O558 O 0.17762 0.86902 0.28832 0.0
O559 O 0.14896 0.82818 0.28892 0.0
O560 O 0.17791 0.81429 0.31928 0.0
O561 O 0.17679 0.81453 0.35293 0.0
O562 O 0.23091 0.85564 0.34453 0.0
O563 O 0.21918 0.86413 0.31411 0.0
C564 C 0.1405 0.84093 0.3518 0.0
O565 O 0.21056 0.8418 0.38641 0.0
O566 O 0.21836 0.88108 0.38745 0.0
C567 C 0.16883 0.84191 0.25927 0.0
C568 C 0.1881 0.83439 0.22389 0.0
C569 C 0.17628 0.84987 0.225 0.0
C570 C 0.16673 0.85355 0.24252 0.0
C571 C 0.18048 0.82637 0.25827 0.0
C572 C 0.18987 0.82252 0.24073 0.0
C573 C 0.1604 0.84743 0.27798 0.0
H574 H 0.22309 0.8592 0.46511 0.0
H575 H 0.23895 0.8592 0.43263 0.0
H576 H 0.17282 0.86246 0.40561 0.0
H577 H 0.15682 0.86257 0.43796 0.0
H578 H 0.17494 0.85968 0.21249 0.0
H579 H 0.15811 0.86589 0.24309 0.0
H580 H 0.18257 0.8174 0.2711 0.0
H581 H 0.19847 0.81018 0.2404 0.0
Tb582 Tb 0.8351 0.66473 0.65721 0.0
Eu583 Eu 0.84738 0.68747 0.70478 0.0
C584 C 0.85327 0.6394 0.68928 0.0
C585 C 0.79223 0.63902 0.68668 0.0
C586 C 0.83247 0.66302 0.60215 0.0
C587 C 0.85121 0.66934 0.57054 0.0
C588 C 0.84581 0.65726 0.58807 0.0
C589 C 0.82455 0.68113 0.59833 0.0
C590 C 0.82974 0.69306 0.58068 0.0
C591 C 0.8432 0.68736 0.56658 0.0
C592 C 0.82757 0.65022 0.62072 0.0
O593 O 0.81884 0.69037 0.66076 0.0
O594 O 0.84449 0.71735 0.68814 0.0
O595 O 0.88649 0.7076 0.69152 0.0
O596 O 0.87069 0.7024 0.659 0.0
C597 C 0.8288 0.71237 0.67204 0.0
O598 O 0.83638 0.70136 0.73096 0.0
O599 O 0.87084 0.69699 0.73307 0.0
O600 O 0.84515 0.64895 0.70317 0.0
O601 O 0.85585 0.64735 0.6715 0.0
O602 O 0.80402 0.63469 0.67236 0.0
O603 O 0.80346 0.66115 0.69777 0.0
C604 C 0.89005 0.71341 0.67317 0.0
O605 O 0.8485 0.65514 0.63192 0.0
O606 O 0.80954 0.6503 0.63104 0.0
C607 C 0.84588 0.68766 0.76068 0.0
C608 C 0.82955 0.6622 0.79538 0.0
C609 C 0.83517 0.68795 0.79463 0.0
C610 C 0.8433 0.70054 0.77747 0.0
C611 C 0.84003 0.66186 0.76127 0.0
C612 C 0.83207 0.64931 0.77846 0.0
C613 C 0.8546 0.70126 0.74273 0.0
H614 H 0.86136 0.66429 0.55994 0.0
H615 H 0.85213 0.64338 0.59067 0.0
H616 H 0.81446 0.68618 0.60898 0.0
H617 H 0.82357 0.70706 0.57821 0.0
H618 H 0.83368 0.69854 0.80742 0.0
H619 H 0.84768 0.72042 0.77733 0.0
H620 H 0.84162 0.65141 0.74842 0.0
H621 H 0.82755 0.62938 0.77842 0.0
Tb622 Tb 0.35294 0.16969 0.65991 0.0
Eu623 Eu 0.33103 0.16122 0.7039 0.0
C624 C 0.38124 0.21375 0.69506 0.0
C625 C 0.37905 0.15279 0.69327 0.0
C626 C 0.35547 0.1689 0.60528 0.0
C627 C 0.34899 0.18119 0.57296 0.0
C628 C 0.36114 0.18798 0.59223 0.0
C629 C 0.3375 0.14279 0.59871 0.0
C630 C 0.32555 0.13596 0.57935 0.0
C631 C 0.33109 0.15511 0.56631 0.0
C632 C 0.36812 0.17685 0.62569 0.0
O633 O 0.32595 0.12797 0.65967 0.0
O634 O 0.29987 0.1276 0.68366 0.0
O635 O 0.31338 0.1816 0.68761 0.0
O636 O 0.3146 0.16716 0.65617 0.0
C637 C 0.30407 0.11619 0.66844 0.0
O638 O 0.31524 0.13741 0.72834 0.0
O639 O 0.32097 0.17623 0.72976 0.0
O640 O 0.37139 0.19657 0.70788 0.0
O641 O 0.3719 0.20796 0.6764 0.0
O642 O 0.38298 0.16723 0.6785 0.0
O643 O 0.3576 0.14417 0.70252 0.0
C644 C 0.30506 0.17699 0.66878 0.0
O645 O 0.36304 0.19253 0.63603 0.0
O646 O 0.36764 0.1589 0.63601 0.0
C647 C 0.32848 0.16159 0.75938 0.0
C648 C 0.35343 0.17181 0.79789 0.0
C649 C 0.32618 0.15429 0.79404 0.0
C650 C 0.3138 0.14927 0.77492 0.0
C651 C 0.35569 0.179 0.76311 0.0
C652 C 0.36805 0.18416 0.78222 0.0
C653 C 0.31537 0.15605 0.73933 0.0
H654 H 0.35382 0.19632 0.56318 0.0
H655 H 0.37493 0.20823 0.597 0.0
H656 H 0.33254 0.12767 0.60851 0.0
H657 H 0.31161 0.11573 0.57467 0.0
H658 H 0.31439 0.14463 0.80583 0.0
H659 H 0.29278 0.13576 0.77227 0.0
H660 H 0.36738 0.18854 0.75123 0.0
H661 H 0.38913 0.19745 0.78468 0.0
Tb662 Tb 0.86072 0.18667 0.69489 0.0
Eu663 Eu 0.83736 0.18242 0.64831 0.0
C664 C 0.83587 0.13445 0.66761 0.0
C665 C 0.89708 0.19421 0.66013 0.0
C666 C 0.86574 0.18949 0.75003 0.0
C667 C 0.87214 0.19507 0.78584 0.0
C668 C 0.88179 0.19472 0.76758 0.0
C669 C 0.83965 0.18389 0.75093 0.0
C670 C 0.83001 0.1844 0.76918 0.0
C671 C 0.84628 0.19036 0.78686 0.0
C672 C 0.87709 0.19206 0.73099 0.0
O673 O 0.87798 0.22507 0.6846 0.0
O674 O 0.84274 0.21866 0.66455 0.0
O675 O 0.80169 0.16636 0.6656 0.0
O676 O 0.82249 0.18419 0.69678 0.0
C677 C 0.86375 0.234 0.67656 0.0
O678 O 0.83939 0.20208 0.6219 0.0
O679 O 0.81135 0.16096 0.62167 0.0
O680 O 0.84051 0.14704 0.65182 0.0
O681 O 0.83688 0.14546 0.68511 0.0
O682 O 0.89157 0.18719 0.67807 0.0
O683 O 0.88088 0.19723 0.64796 0.0
C684 C 0.80103 0.17249 0.68431 0.0
O685 O 0.8688 0.17087 0.71942 0.0
O686 O 0.87827 0.21067 0.72127 0.0
C687 C 0.83189 0.17598 0.59253 0.0
C688 C 0.85188 0.16975 0.55714 0.0
C689 C 0.83599 0.18123 0.5576 0.0
C690 C 0.8261 0.1843 0.57513 0.0
C691 C 0.84762 0.16444 0.59221 0.0
C692 C 0.85743 0.16126 0.57468 0.0
C693 C 0.8227 0.18066 0.61114 0.0
H694 H 0.88529 0.2 0.79913 0.0
H695 H 0.90204 0.19926 0.76717 0.0
H696 H 0.82698 0.17972 0.73752 0.0
H697 H 0.80991 0.18038 0.76944 0.0
H698 H 0.83163 0.18838 0.5445 0.0
H699 H 0.81424 0.19352 0.57516 0.0
H700 H 0.85249 0.15807 0.60556 0.0
H701 H 0.86927 0.15204 0.57489 0.0
H702 H 0.33498 0.87059 0.09397 0.0
H703 H 0.30018 0.83678 0.03478 0.0
H704 H 0.37306 0.90544 0.08078 0.0
H705 H 0.33825 0.87184 0.0215 0.0
H706 H 0.42515 0.91983 0.00722 0.0
H707 H 0.38433 0.88657 0.01889 0.0
H708 H 0.38805 0.94313 0.06316 0.0
H709 H 0.42903 0.97611 0.05186 0.0
C710 C 0.3352 0.87089 0.07812 0.0
C711 C 0.31451 0.85086 0.06545 0.0
C712 C 0.35709 0.89089 0.07052 0.0
C713 C 0.35885 0.89147 0.05004 0.0
C714 C 0.33781 0.87179 0.03735 0.0
C715 C 0.31593 0.85174 0.04496 0.0
C716 C 0.41714 0.92522 0.01934 0.0
C717 C 0.43052 0.95064 0.02865 0.0
C718 C 0.39364 0.90615 0.02599 0.0
C719 C 0.38291 0.91208 0.04208 0.0
C720 C 0.39594 0.9377 0.05099 0.0
C721 C 0.41943 0.95669 0.0444 0.0
H722 H 0.19826 0.49381 0.06304 0.0
H723 H 0.14245 0.41598 0.07622 0.0
H724 H 0.16215 0.49799 0.04823 0.0
H725 H 0.10628 0.42121 0.06251 0.0
H726 H 0.05523 0.46372 0.06145 0.0
H727 H 0.08974 0.4548 0.07322 0.0
H728 H 0.12393 0.47362 0.01786 0.0
H729 H 0.08896 0.48189 1.0058 0.0
C730 C 0.17846 0.47738 0.06259 0.0
C731 C 0.17359 0.45443 0.07086 0.0
C732 C 0.15771 0.47995 0.0542 0.0
C733 C 0.13146 0.45994 0.05423 0.0
C734 C 0.12638 0.43701 0.06241 0.0
C735 C 0.14717 0.43415 0.0704 0.0
C736 C 0.06994 0.4657 0.0517 0.0
C737 C 0.06935 0.47349 0.03268 0.0
C738 C 0.08961 0.46048 0.05842 0.0
C739 C 0.10948 0.46354 0.04645 0.0
C740 C 0.10884 0.47115 0.02739 0.0
C741 C 0.08878 0.47576 0.02047 0.0
H742 H 0.58918 0.72001 0.06727 0.0
H743 H 0.50517 0.68626 0.05345 0.0
H744 H 0.58604 0.6797 0.05378 0.0
H745 H 0.50209 0.64624 0.03995 0.0
H746 H 0.50892 0.58681 1.00077 0.0
H747 H 0.51514 0.62894 0.01228 0.0
H748 H 0.56722 0.63449 0.06186 0.0
H749 H 0.56139 0.59248 0.05021 0.0
C750 C 0.57007 0.704 0.06138 0.0
C751 C 0.54746 0.7064 0.06134 0.0
C752 C 0.56828 0.68094 0.05366 0.0
C753 C 0.54384 0.65982 0.04574 0.0
C754 C 0.5213 0.66231 0.0456 0.0
C755 C 0.52308 0.68529 0.05333 0.0
C756 C 0.52183 0.59703 0.01407 0.0
C757 C 0.53456 0.58617 0.02461 0.0
C758 C 0.52529 0.62115 0.02071 0.0
C759 C 0.54155 0.63498 0.03804 0.0
C760 C 0.55477 0.62443 0.04835 0.0
C761 C 0.55129 0.60027 0.04172 0.0
H762 H 0.87609 0.28441 0.95155 0.0
H763 H 0.82252 0.31164 0.96535 0.0
H764 H 0.91325 0.32603 0.9658 0.0
H765 H 0.85955 0.35236 0.9805 0.0
H766 H 0.93305 0.41213 0.02245 0.0
H767 H 0.89694 0.36851 0.01043 0.0
H768 H 0.93185 0.37407 0.95559 0.0
H769 H 0.96756 0.41773 0.96732 0.0
C770 C 0.87212 0.29909 0.95765 0.0
C771 C 0.84611 0.29443 0.95724 0.0
C772 C 0.89343 0.32284 0.96592 0.0
C773 C 0.88919 0.34228 0.97432 0.0
C774 C 0.8633 0.33752 0.97438 0.0
C775 C 0.84205 0.31403 0.96577 0.0
C776 C 0.93308 0.40396 0.00789 0.0
C777 C 0.95305 0.41839 0.99579 0.0
C778 C 0.91242 0.37908 1.00101 0.0
C779 C 0.91171 0.36798 0.98212 0.0
C780 C 0.93206 0.38212 0.97026 0.0
C781 C 0.95237 0.40715 0.97695 0.0
H782 H 0.69371 0.54806 0.92477 0.0
H783 H 0.72822 0.54941 0.98264 0.0
H784 H 0.65457 0.5431 0.93899 0.0
H785 H 0.68907 0.54475 0.997 0.0
H786 H 0.60251 0.50784 0.01231 0.0
H787 H 0.64328 0.51466 0.9995 0.0
H788 H 0.63841 0.56511 0.95858 0.0
H789 H 0.59746 0.55774 0.97095 0.0
C790 C 0.69314 0.54771 0.9406 0.0
C791 C 0.71427 0.54928 0.95254 0.0
C792 C 0.67062 0.54487 0.9488 0.0
C793 C 0.66852 0.54361 0.96923 0.0
C794 C 0.68972 0.54528 0.9812 0.0
C795 C 0.71225 0.54803 0.97296 0.0
C796 C 0.61025 0.52055 1.00068 0.0
C797 C 0.59653 0.53213 0.99265 0.0
C798 C 0.63375 0.52456 0.99336 0.0
C799 C 0.6442 0.54031 0.97784 0.0
C800 C 0.63079 0.55241 0.97022 0.0
C801 C 0.60731 0.54833 0.97747 0.0
H802 H 0.4663 0.14322 0.9365 0.0
H803 H 0.47264 0.17722 0.99551 0.0
H804 H 0.46908 0.10775 0.9499 0.0
H805 H 0.47526 0.14144 0.00903 0.0
H806 H 0.51515 0.09298 0.02265 0.0
H807 H 0.50673 0.12638 0.01141 0.0
H808 H 0.4462 0.07005 0.96764 0.0
H809 H 0.45505 0.03682 0.9785 0.0
C810 C 0.46774 0.14282 0.95236 0.0
C811 C 0.46921 0.163 0.96495 0.0
C812 C 0.46933 0.12246 0.96006 0.0
C813 C 0.47239 0.12174 0.98055 0.0
C814 C 0.47327 0.14162 0.99318 0.0
C815 C 0.47173 0.16207 0.98545 0.0
C816 C 0.49988 0.08765 0.01074 0.0
C817 C 0.48594 0.06227 1.00137 0.0
C818 C 0.49494 0.10678 1.00438 0.0
C819 C 0.4759 0.10092 0.98854 0.0
C820 C 0.46132 0.07531 0.97965 0.0
C821 C 0.46632 0.05622 0.98595 0.0
H822 H 0.71231 0.16956 0.98577 0.0
H823 H 0.65501 0.17099 0.94435 0.0
H824 H 0.67747 0.12895 0.99675 0.0
H825 H 0.6204 0.13104 0.95534 0.0
H826 H 0.56591 0.04995 0.96693 0.0
H827 H 0.605 0.08509 0.95524 0.0
H828 H 0.63765 0.11546 0.01538 0.0
H829 H 0.59837 0.07969 0.02723 0.0
C830 C 0.69238 0.16092 0.97879 0.0
C831 C 0.6863 0.17337 0.96423 0.0
C832 C 0.67242 0.13789 0.98521 0.0
C833 C 0.64614 0.12677 0.97695 0.0
C834 C 0.64043 0.13884 0.96187 0.0
C835 C 0.66023 0.16183 0.95562 0.0
C836 C 0.58147 0.06396 0.97774 0.0
C837 C 0.5788 0.06223 0.99805 0.0
C838 C 0.6039 0.08415 0.971 0.0
C839 C 0.62428 0.10333 0.98435 0.0
C840 C 0.62233 0.10092 1.00471 0.0
C841 C 0.59979 0.08051 0.0115 0.0
H842 H 0.83958 0.48725 0.93305 0.0
H843 H 0.8479 0.54041 0.98199 0.0
H844 H 0.88206 0.49192 0.94423 0.0
H845 H 0.89055 0.54508 0.99335 0.0
H846 H 0.9676 0.51719 0.96358 0.0
H847 H 0.93104 0.52233 0.95041 0.0
H848 H 0.9018 0.51355 0.00782 0.0
H849 H 0.9381 0.50833 0.02095 0.0
C850 C 0.85085 0.50041 0.94597 0.0
C851 C 0.84046 0.51347 0.95666 0.0
C852 C 0.87522 0.50315 0.95235 0.0
C853 C 0.88965 0.51873 0.96977 0.0
C854 C 0.87981 0.53276 0.97997 0.0
C855 C 0.85555 0.5303 0.97339 0.0
C856 C 0.95357 0.51669 0.97345 0.0
C857 C 0.95575 0.5122 0.99331 0.0
C858 C 0.93256 0.51954 0.96588 0.0
C859 C 0.91349 0.51838 0.97806 0.0
C860 C 0.91628 0.51486 0.99807 0.0
C861 C 0.93701 0.51165 1.00556 0.0
H862 H 0.48678 0.30577 0.9882 0.0
H863 H 0.55732 0.35342 0.96008 0.0
H864 H 0.47991 0.34277 0.99327 0.0
H865 H 0.5508 0.39039 0.96547 0.0
H866 H 0.50138 0.42511 0.02142 0.0
H867 H 0.50239 0.38523 0.01392 0.0
H868 H 0.52058 0.40566 0.95473 0.0
H869 H 0.51987 0.44558 0.96219 0.0
C870 C 0.50066 0.32408 0.98296 0.0
C871 C 0.52264 0.32677 0.97381 0.0
C872 C 0.49686 0.34528 0.986 0.0
C873 C 0.51482 0.36947 0.97978 0.0
C874 C 0.53646 0.37194 0.97025 0.0
C875 C 0.54034 0.35085 0.96734 0.0
C876 C 0.50533 0.42099 0.00675 0.0
C877 C 0.51077 0.43867 0.99247 0.0
C878 C 0.50577 0.39806 1.00243 0.0
C879 C 0.51176 0.39243 0.98378 0.0
C880 C 0.51629 0.40967 0.96932 0.0
C881 C 0.51575 0.4325 0.97359 0.0
H882 H 0.2138 0.6593 0.0683 0.0
H883 H 0.18145 0.70475 0.04568 0.0
H884 H 0.17078 0.62014 0.06145 0.0
H885 H 0.13798 0.66531 0.03933 0.0
H886 H 0.05986 0.58489 0.04663 0.0
H887 H 0.1006 0.62616 0.05724 0.0
H888 H 0.14559 0.59829 0.02712 0.0
H889 H 0.1054 0.55762 0.01638 0.0
C890 C 0.19748 0.66099 0.06199 0.0
C891 C 0.20124 0.68512 0.05715 0.0
C892 C 0.17281 0.63856 0.05817 0.0
C893 C 0.15118 0.63969 0.04965 0.0
C894 C 0.15437 0.66395 0.04596 0.0
C895 C 0.17924 0.6865 0.04963 0.0
C896 C 0.07848 0.58767 0.04227 0.0
C897 C 0.07939 0.568 0.03064 0.0
C898 C 0.1017 0.61126 0.04828 0.0
C899 C 0.1262 0.61527 0.04311 0.0
C900 C 0.12701 0.5956 0.0315 0.0
C901 C 0.10391 0.57235 0.02524 0.0
H902 H 0.33256 0.50883 0.03058 0.0
H903 H 0.33208 0.46627 0.07973 0.0
H904 H 0.36858 0.50485 0.0182 0.0
H905 H 0.36819 0.46189 0.0672 0.0
H906 H 0.45679 0.49844 0.05515 0.0
H907 H 0.41517 0.49235 0.0652 0.0
H908 H 0.38364 0.4768 1.00417 0.0
H909 H 0.42562 0.48331 0.99402 0.0
C910 C 0.33984 0.49809 0.0385 0.0
C911 C 0.3296 0.48797 0.05618 0.0
C912 C 0.36043 0.49569 0.03135 0.0
C913 C 0.37152 0.48322 0.04176 0.0
C914 C 0.36035 0.4719 0.05894 0.0
C915 C 0.33949 0.47413 0.06602 0.0
C916 C 0.44098 0.49354 0.04382 0.0
C917 C 0.44478 0.49165 0.02372 0.0
C918 C 0.41693 0.48978 0.04963 0.0
C919 C 0.39596 0.48412 0.03553 0.0
C920 C 0.39944 0.48141 0.01544 0.0
C921 C 0.42351 0.48504 0.00961 0.0
H922 H 0.53523 0.8461 0.07209 0.0
H923 H 0.49162 0.81505 0.0148 0.0
H924 H 0.54388 0.88935 0.06539 0.0
H925 H 0.4994 0.8578 0.00838 0.0
H926 H 0.52811 0.94004 0.99646 0.0
H927 H 0.53112 0.90169 1.00249 0.0
H928 H 0.51662 0.9092 0.06323 0.0
H929 H 0.51424 0.94772 0.0574 0.0
C930 C 0.52783 0.84859 0.05798 0.0
C931 C 0.51246 0.82715 0.04408 0.0
C932 C 0.53257 0.87328 0.0542 0.0
C933 C 0.52213 0.87701 0.03642 0.0
C934 C 0.50793 0.85574 0.02215 0.0
C935 C 0.50318 0.83114 0.02593 0.0
C936 C 0.5259 0.9337 0.01116 0.0
C937 C 0.52066 0.94683 0.02638 0.0
C938 C 0.52753 0.91166 0.0146 0.0
C939 C 0.52394 0.90226 0.03331 0.0
C940 C 0.5198 0.91605 0.04871 0.0
C941 C 0.5182 0.93806 0.04529 0.0
H942 H 0.96743 0.17233 0.36803 0.0
H943 H 1.00097 0.20806 0.42706 0.0
H944 H 1.00569 0.20704 0.35466 0.0
H945 H 0.03919 0.24261 0.41376 0.0
H946 H 0.09487 0.31266 0.38412 0.0
H947 H 0.05381 0.27963 0.39529 0.0
H948 H 0.05217 0.2224 0.3528 0.0
H949 H 0.09311 0.2557 0.34127 0.0
C950 C 0.98295 0.18761 0.37816 0.0
C951 C 0.98109 0.18737 0.39864 0.0
C952 C 1.00494 0.20748 0.37049 0.0
C953 C 0.02564 0.22765 0.3831 0.0
C954 C 0.02348 0.22767 0.40355 0.0
C955 C 1.00151 0.20783 0.41121 0.0
C956 C 0.0857 0.29309 0.377 0.0
C957 C 0.09744 0.28687 0.36182 0.0
C958 C 0.06217 0.27407 0.38353 0.0
C959 C 0.04972 0.24824 0.37511 0.0
C960 C 0.06104 0.24213 0.35952 0.0
C961 C 0.08461 0.26123 0.35294 0.0
H962 H 0.81497 0.75396 0.3979 0.0
H963 H 0.86634 0.8371 0.40599 0.0
H964 H 0.77911 0.7598 0.38384 0.0
H965 H 0.83065 0.84288 0.39209 0.0
H966 H 0.7508 0.84029 0.39327 0.0
H967 H 0.78648 0.83315 0.40456 0.0
H968 H 0.76775 0.77909 0.35341 0.0
H969 H 0.73193 0.78648 0.34181 0.0
C970 C 0.81863 0.77344 0.39655 0.0
C971 C 0.84349 0.79507 0.403 0.0
C972 C 0.79819 0.77677 0.38841 0.0
C973 C 0.80208 0.8018 0.38693 0.0
C974 C 0.82703 0.82337 0.39315 0.0
C975 C 0.84752 0.82004 0.40097 0.0
C976 C 0.75417 0.82682 0.38438 0.0
C977 C 0.73846 0.81394 0.36662 0.0
C978 C 0.77475 0.82287 0.39082 0.0
C979 C 0.77998 0.80564 0.37984 0.0
C980 C 0.7641 0.79242 0.3622 0.0
C981 C 0.7437 0.79674 0.35553 0.0
H982 H 0.17987 0.02633 0.38234 0.0
H983 H 0.26486 0.06369 0.39031 0.0
H984 H 0.17748 0.98793 0.36617 0.0
H985 H 0.2625 0.02503 0.37392 0.0
H986 H 0.24078 0.93822 0.37006 0.0
H987 H 0.2478 0.98077 0.38131 0.0
H988 H 0.18713 0.9707 0.33706 0.0
H989 H 0.1796 0.92785 0.32614 0.0
C990 C 0.19811 0.02655 0.38025 0.0
C991 C 0.22257 0.04809 0.38755 0.0
C992 C 0.19674 0.0045 0.37094 0.0
C993 C 0.2198 0.00342 0.36868 0.0
C994 C 0.24436 0.02517 0.37562 0.0
C995 C 0.24572 0.04728 0.38499 0.0
C996 C 0.22917 0.94522 0.36255 0.0
C997 C 0.2094 0.92953 0.34737 0.0
C998 C 0.23332 0.9697 0.36894 0.0
C999 C 0.21784 0.97903 0.36022 0.0
C1000 C 0.19903 0.96386 0.34434 0.0
C1001 C 0.1948 0.93935 0.33802 0.0
H1002 H 0.52205 0.646 0.26207 0.0
H1003 H 0.513 0.61801 0.31967 0.0
H1004 H 0.55766 0.68824 0.27601 0.0
H1005 H 0.54985 0.66002 0.33376 0.0
H1006 H 0.5998 0.74689 0.35548 0.0
H1007 H 0.56407 0.70364 0.34275 0.0
H1008 H 0.60114 0.71095 0.28855 0.0
H1009 H 0.63562 0.75445 0.30085 0.0
C1010 C 0.5281 0.64884 0.27772 0.0
C1011 C 0.51497 0.62872 0.28977 0.0
C1012 C 0.54867 0.67305 0.28577 0.0
C1013 C 0.55706 0.67771 0.30608 0.0
C1014 C 0.54384 0.65741 0.31813 0.0
C1015 C 0.52286 0.63326 0.31008 0.0
C1016 C 0.60022 0.73912 0.34087 0.0
C1017 C 0.62032 0.75415 0.32908 0.0
C1018 C 0.57982 0.71424 0.33357 0.0
C1019 C 0.57936 0.70368 0.31445 0.0
C1020 C 0.60018 0.71853 0.30306 0.0
C1021 C 0.62016 0.7435 0.31018 0.0
H1022 H 0.39687 0.92038 0.29409 0.0
H1023 H 0.35406 0.83944 0.27216 0.0
H1024 H 0.35679 0.91575 0.3074 0.0
H1025 H 0.31391 0.83502 0.28486 0.0
H1026 H 0.24444 0.85344 0.28846 0.0
H1027 H 0.2851 0.85886 0.2762 0.0
H1028 H 0.32435 0.88455 0.33509 0.0
H1029 H 0.28337 0.87837 0.34759 0.0
C1030 C 0.37887 0.90168 0.29207 0.0
C1031 C 0.37852 0.88025 0.28217 0.0
C1032 C 0.35604 0.89901 0.29973 0.0
C1033 C 0.33231 0.87503 0.29714 0.0
C1034 C 0.33193 0.85372 0.28702 0.0
C1035 C 0.35486 0.85622 0.27982 0.0
C1036 C 0.26173 0.86028 0.29882 0.0
C1037 C 0.26068 0.86547 0.31901 0.0
C1038 C 0.28495 0.86329 0.29179 0.0
C1039 C 0.30784 0.87217 0.3047 0.0
C1040 C 0.30699 0.87779 0.32483 0.0
C1041 C 0.28353 0.87413 0.33197 0.0
H1042 H 0.18469 0.52502 0.30744 0.0
H1043 H 0.10112 0.47349 0.29214 0.0
H1044 H 0.18841 0.48945 0.31971 0.0
H1045 H 0.1049 0.43764 0.30443 0.0
H1046 H 0.13166 0.3765 0.30788 0.0
H1047 H 0.12509 0.41095 0.29642 0.0
H1048 H 0.17471 0.46218 0.34712 0.0
H1049 H 0.18167 0.42796 0.35847 0.0
C1050 C 0.16704 0.50612 0.30688 0.0
C1051 C 0.14255 0.50212 0.29899 0.0
C1052 C 0.16918 0.48574 0.31393 0.0
C1053 C 0.14691 0.46081 0.31322 0.0
C1054 C 0.12244 0.45663 0.30507 0.0
C1055 C 0.12028 0.47711 0.29802 0.0
C1056 C 0.14105 0.39505 0.31667 0.0
C1057 C 0.15734 0.39951 0.33405 0.0
C1058 C 0.13715 0.41474 0.31013 0.0
C1059 C 0.14951 0.43931 0.3208 0.0
C1060 C 0.16525 0.44356 0.33842 0.0
C1061 C 0.16913 0.42389 0.34497 0.0
H1062 H 0.361 0.48465 0.28282 0.0
H1063 H 0.35491 0.52856 0.33253 0.0
H1064 H 0.32661 0.4444 0.29436 0.0
H1065 H 0.32037 0.48874 0.34381 0.0
H1066 H 0.26664 0.41174 0.36598 0.0
H1067 H 0.30796 0.44765 0.357 0.0
H1068 H 0.27916 0.42549 0.2954 0.0
H1069 H 0.23833 0.38952 0.30427 0.0
C1070 C 0.35267 0.48564 0.29639 0.0
C1071 C 0.36043 0.50976 0.30665 0.0
C1072 C 0.33281 0.46265 0.30291 0.0
C1073 C 0.3205 0.46332 0.31993 0.0
C1074 C 0.32946 0.48738 0.33076 0.0
C1075 C 0.34912 0.51027 0.32419 0.0
C1076 C 0.26927 0.41432 0.35052 0.0
C1077 C 0.24897 0.39786 0.33589 0.0
C1078 C 0.29293 0.43499 0.34536 0.0
C1079 C 0.2969 0.43958 0.32546 0.0
C1080 C 0.277 0.42243 0.31084 0.0
C1081 C 0.25338 0.4019 0.31598 0.0
H1082 H 0.50292 0.81632 0.26638 0.0
H1083 H 0.5109 0.87126 0.31381 0.0
H1084 H 0.5458 0.8221 0.27786 0.0
H1085 H 0.55394 0.87704 0.32545 0.0
H1086 H 0.63216 0.85034 0.29679 0.0
H1087 H 0.59474 0.85392 0.28333 0.0
H1088 H 0.56622 0.84657 0.34094 0.0
H1089 H 0.60338 0.84289 0.35438 0.0
C1090 C 0.51414 0.83001 0.27907 0.0
C1091 C 0.50358 0.84329 0.28924 0.0
C1092 C 0.53874 0.83341 0.2856 0.0
C1093 C 0.55322 0.84991 0.30264 0.0
C1094 C 0.54315 0.86404 0.31235 0.0
C1095 C 0.51866 0.86092 0.30562 0.0
C1096 C 0.6181 0.84985 0.30664 0.0
C1097 C 0.62072 0.8462 0.32665 0.0
C1098 C 0.59661 0.85179 0.2989 0.0
C1099 C 0.5775 0.85054 0.31106 0.0
C1100 C 0.58071 0.8479 0.33121 0.0
C1101 C 0.60194 0.84558 0.33888 0.0
H1102 H 0.16262 0.65364 0.35276 0.0
H1103 H 0.17625 0.66677 0.29195 0.0
H1104 H 0.15522 0.69034 0.3566 0.0
H1105 H 0.17064 0.70444 0.29584 0.0
H1106 H 0.15047 0.76636 0.3039 0.0
H1107 H 0.14467 0.72301 0.30031 0.0
H1108 H 0.1808 0.73521 0.35986 0.0
H1109 H 0.18503 0.77781 0.36369 0.0
C1110 C 0.16371 0.66434 0.34019 0.0
C1111 C 0.16987 0.65757 0.32207 0.0
C1112 C 0.1598 0.68552 0.34239 0.0
C1113 C 0.16267 0.70072 0.32663 0.0
C1114 C 0.16782 0.6931 0.30826 0.0
C1115 C 0.17119 0.67159 0.30598 0.0
C1116 C 0.15678 0.75953 0.31629 0.0
C1117 C 0.16835 0.77547 0.33403 0.0
C1118 C 0.15363 0.73474 0.31421 0.0
C1119 C 0.16255 0.72555 0.32968 0.0
C1120 C 0.17327 0.74128 0.34768 0.0
C1121 C 0.17589 0.76586 0.34988 0.0
H1122 H 0.87761 0.9962 0.40394 0.0
H1123 H 0.84646 0.04177 0.3796 0.0
H1124 H 0.83451 0.95719 0.39681 0.0
H1125 H 0.80287 0.00247 0.37302 0.0
H1126 H 0.72418 0.92131 0.38039 0.0
H1127 H 0.76463 0.96276 0.39137 0.0
H1128 H 0.81057 0.93597 0.36138 0.0
H1129 H 0.77072 0.89521 0.35022 0.0
C1130 C 0.86152 0.99796 0.39722 0.0
C1131 C 0.86568 0.02207 0.39194 0.0
C1132 C 0.83681 0.97562 0.39325 0.0
C1133 C 0.8155 0.97682 0.38417 0.0
C1134 C 0.81901 1.00109 0.38009 0.0
C1135 C 0.84395 0.02355 0.38389 0.0
C1136 C 0.74294 0.92439 0.37611 0.0
C1137 C 0.74422 0.90499 0.36439 0.0
C1138 C 0.76599 0.94807 0.38234 0.0
C1139 C 0.79066 0.95241 0.37731 0.0
C1140 C 0.79183 0.93303 0.36562 0.0
C1141 C 0.76893 0.90972 0.35913 0.0
H1142 H 0.98001 0.80496 0.37582 0.0
H1143 H 0.03453 0.85957 0.42314 0.0
H1144 H 0.01608 0.80121 0.36253 0.0
H1145 H 0.07042 0.85652 0.40978 0.0
H1146 H 0.129 0.83585 0.39007 0.0
H1147 H 0.08949 0.83022 0.40397 0.0
H1148 H 0.05508 0.82773 0.34571 0.0
H1149 H 0.09469 0.83286 0.33173 0.0
C1150 C 0.99957 0.81575 0.38358 0.0
C1151 C 1.00445 0.83261 0.40049 0.0
C1152 C 0.02032 0.81389 0.37584 0.0
C1153 C 0.04631 0.82869 0.38497 0.0
C1154 C 0.05075 0.84458 0.40241 0.0
C1155 C 0.03015 0.84648 0.41004 0.0
C1156 C 0.11305 0.8341 0.38019 0.0
C1157 C 0.11529 0.8353 0.35981 0.0
C1158 C 0.0903 0.83085 0.38818 0.0
C1159 C 0.0691 0.82887 0.37605 0.0
C1160 C 0.07087 0.82898 0.35553 0.0
C1161 C 0.09366 0.83207 0.3475 0.0
H1162 H 0.14627 0.16111 0.40446 0.0
H1163 H 0.20863 0.17141 0.36875 0.0
H1164 H 0.15295 0.20329 0.39715 0.0
H1165 H 0.21563 0.21408 0.36155 0.0
H1166 H 0.18874 0.26928 0.33374 0.0
H1167 H 0.18968 0.23052 0.34242 0.0
H1168 H 0.18607 0.24984 0.40366 0.0
H1169 H 0.18491 0.28816 0.39513 0.0
C1170 C 0.16158 0.17256 0.39518 0.0
C1171 C 0.17687 0.163 0.38712 0.0
C1172 C 0.16555 0.19679 0.3911 0.0
C1173 C 0.18483 0.212 0.37878 0.0
C1174 C 0.20052 0.20269 0.37099 0.0
C1175 C 0.1967 0.17845 0.37525 0.0
C1176 C 0.18849 0.26541 0.34907 0.0
C1177 C 0.18635 0.28163 0.36368 0.0
C1178 C 0.18915 0.24329 0.35405 0.0
C1179 C 0.18763 0.23702 0.37369 0.0
C1180 C 0.18679 0.25392 0.38835 0.0
C1181 C 0.18616 0.27594 0.38342 0.0
H1182 H 0.66791 0.49162 0.71956 0.0
H1183 H 0.64645 0.54743 0.74099 0.0
H1184 H 0.70371 0.5248 0.70432 0.0
H1185 H 0.68496 0.5816 0.72825 0.0
H1186 H 0.74634 0.6384 0.69197 0.0
H1187 H 0.70635 0.60348 0.70326 0.0
H1188 H 0.74473 0.55789 0.70834 0.0
H1189 H 0.78323 0.59183 0.69514 0.0
C1190 C 0.67062 0.51093 0.7211 0.0
C1191 C 0.65359 0.51636 0.73148 0.0
C1192 C 0.69197 0.53041 0.7127 0.0
C1193 C 0.69794 0.55639 0.71507 0.0
C1194 C 0.6811 0.56195 0.72564 0.0
C1195 C 0.65909 0.54222 0.73344 0.0
C1196 C 0.74577 0.62058 0.69518 0.0
C1197 C 0.76753 0.6175 0.69243 0.0
C1198 C 0.72298 0.6006 0.70196 0.0
C1199 C 0.72183 0.57744 0.70691 0.0
C1200 C 0.74405 0.57478 0.70422 0.0
C1201 C 0.76638 0.59435 0.69675 0.0
H1202 H 0.48886 0.13124 0.76917 0.0
H1203 H 0.51269 0.12633 0.71109 0.0
H1204 H 0.45336 0.13679 0.75487 0.0
H1205 H 0.47696 0.13173 0.69669 0.0
H1206 H 0.42842 0.17074 0.68075 0.0
H1207 H 0.46331 0.16343 0.69404 0.0
H1208 H 0.41176 0.11461 0.7354 0.0
H1209 H 0.3772 0.12239 0.72248 0.0
C1210 C 0.48629 0.13094 0.75329 0.0
C1211 C 0.50363 0.1282 0.7413 0.0
C1212 C 0.46587 0.13415 0.74506 0.0
C1213 C 0.46213 0.13468 0.72457 0.0
C1214 C 0.47941 0.1318 0.71254 0.0
C1215 C 0.49988 0.12864 0.7208 0.0
C1216 C 0.42447 0.15835 0.69262 0.0
C1217 C 0.39995 0.14726 0.70055 0.0
C1218 C 0.44448 0.15404 0.7002 0.0
C1219 C 0.4405 0.1385 0.7159 0.0
C1220 C 0.41579 0.12706 0.72356 0.0
C1221 C 0.39583 0.1314 0.71603 0.0
H1222 H 0.8423 0.35781 0.72062 0.0
H1223 H 0.92734 0.3953 0.72543 0.0
H1224 H 0.839 0.31879 0.70475 0.0
H1225 H 0.92405 0.356 0.70939 0.0
H1226 H 0.90254 0.26926 0.70414 0.0
H1227 H 0.90972 0.31149 0.71658 0.0
H1228 H 0.84723 0.30204 0.67445 0.0
H1229 H 0.8396 0.25953 0.66229 0.0
C1230 C 0.86032 0.35784 0.71801 0.0
C1231 C 0.88509 0.3797 0.72416 0.0
C1232 C 0.85843 0.33547 0.70887 0.0
C1233 C 0.88126 0.33436 0.70565 0.0
C1234 C 0.90609 0.35621 0.71179 0.0
C1235 C 0.90798 0.37867 0.72098 0.0
C1236 C 0.89054 0.27631 0.69735 0.0
C1237 C 0.8703 0.2609 0.68236 0.0
C1238 C 0.89476 0.3006 0.70443 0.0
C1239 C 0.87887 0.31 0.69664 0.0
C1240 C 0.85947 0.29511 0.68101 0.0
C1241 C 0.8552 0.2708 0.67397 0.0
H1242 H 0.20981 0.95359 0.61957 0.0
H1243 H 0.15519 0.98185 0.62306 0.0
H1244 H 0.24578 0.99603 0.63371 0.0
H1245 H 0.1909 0.02386 0.63742 0.0
H1246 H 0.30573 0.08498 0.63814 0.0
H1247 H 0.27082 0.04164 0.62487 0.0
H1248 H 0.22058 0.04357 0.66799 0.0
H1249 H 0.25522 0.08685 0.68116 0.0
C1250 C 0.20545 0.96881 0.62332 0.0
C1251 C 0.17951 0.96416 0.6203 0.0
C1252 C 0.22606 0.99311 0.63142 0.0
C1253 C 0.22117 0.01327 0.63679 0.0
C1254 C 0.19526 0.00861 0.63379 0.0
C1255 C 0.17474 0.98444 0.62561 0.0
C1256 C 0.28728 0.07614 0.64485 0.0
C1257 C 0.2833 0.0895 0.66069 0.0
C1258 C 0.26733 0.05123 0.6373 0.0
C1259 C 0.2429 0.0392 0.64534 0.0
C1260 C 0.23905 0.05244 0.66131 0.0
C1261 C 0.259 0.07723 0.66892 0.0
H1262 H 0.05908 0.25355 0.62925 0.0
H1263 H 0.01521 0.17395 0.60405 0.0
H1264 H 0.01896 0.24873 0.64269 0.0
H1265 H 0.97508 0.16937 0.61688 0.0
H1266 H 0.90647 0.18801 0.62215 0.0
H1267 H 0.94724 0.194 0.60982 0.0
H1268 H 0.98548 0.21622 0.66909 0.0
H1269 H 0.94429 0.20949 0.68164 0.0
C1270 C 0.04082 0.23514 0.6265 0.0
C1271 C 0.04014 0.21412 0.61563 0.0
C1272 C 0.01798 0.23234 0.63425 0.0
C1273 C 0.99398 0.20867 0.63082 0.0
C1274 C 0.9933 0.18782 0.6197 0.0
C1275 C 0.01621 0.19043 0.61239 0.0
C1276 C 0.92355 0.19421 0.63259 0.0
C1277 C 0.92214 0.19827 0.6529 0.0
C1278 C 0.94685 0.19756 0.62551 0.0
C1279 C 0.96949 0.20564 0.6385 0.0
C1280 C 0.96831 0.21011 0.65877 0.0
C1281 C 0.94474 0.20613 0.66594 0.0
H1282 H 0.76845 0.80757 0.62304 0.0
H1283 H 0.85095 0.85905 0.64245 0.0
H1284 H 0.77135 0.77121 0.63521 0.0
H1285 H 0.85374 0.82299 0.65466 0.0
H1286 H 0.79969 0.71082 0.63865 0.0
H1287 H 0.79299 0.74545 0.62768 0.0
H1288 H 0.83753 0.79391 0.6809 0.0
H1289 H 0.84459 0.75958 0.69179 0.0
C1290 C 0.78718 0.81111 0.62984 0.0
C1291 C 0.8094 0.83624 0.63193 0.0
C1292 C 0.78883 0.79032 0.63681 0.0
C1293 C 0.81272 0.7943 0.64605 0.0
C1294 C 0.83491 0.81939 0.64801 0.0
C1295 C 0.83329 0.84007 0.64101 0.0
C1296 C 0.80787 0.72877 0.64811 0.0
C1297 C 0.82286 0.73248 0.66604 0.0
C1298 C 0.80391 0.74856 0.64185 0.0
C1299 C 0.8149 0.77246 0.65336 0.0
C1300 C 0.82917 0.77585 0.67156 0.0
C1301 C 0.83311 0.7561 0.67783 0.0
H1302 H 0.0193 0.86499 0.66124 0.0
H1303 H 0.02841 0.81885 0.61483 0.0
H1304 H 0.98556 0.82569 0.67377 0.0
H1305 H 0.99485 0.77924 0.62763 0.0
H1306 H 0.90633 0.7241 0.63648 0.0
H1307 H 0.94704 0.76 0.62744 0.0
H1308 H 0.97407 0.78558 0.68903 0.0
H1309 H 0.93283 0.74954 0.69819 0.0
C1310 C 0.01437 0.84636 0.65392 0.0
C1311 C 0.02621 0.84499 0.63688 0.0
C1312 C 0.99519 0.8238 0.66122 0.0
C1313 C 0.98729 0.79928 0.65162 0.0
C1314 C 1.00025 0.79785 0.63522 0.0
C1315 C 0.01962 0.82049 0.62797 0.0
C1316 C 0.92098 0.73721 0.64817 0.0
C1317 C 0.91613 0.73406 0.66809 0.0
C1318 C 0.94452 0.7577 0.64295 0.0
C1319 C 0.96387 0.77572 0.65749 0.0
C1320 C 0.95946 0.77214 0.67746 0.0
C1321 C 0.93588 0.75144 0.68272 0.0
H1322 H 0.18119 0.19567 0.60581 0.0
H1323 H 0.15088 0.15888 0.65854 0.0
H1324 H 0.22463 0.2016 0.61659 0.0
H1325 H 0.19379 0.16454 0.66922 0.0
H1326 H 0.27812 0.19376 0.69105 0.0
H1327 H 0.23961 0.19685 0.68047 0.0
H1328 H 0.24305 0.17222 0.62057 0.0
H1329 H 0.28184 0.16935 0.63108 0.0
C1330 C 0.18398 0.18931 0.61984 0.0
C1331 C 0.16269 0.17675 0.63131 0.0
C1332 C 0.20872 0.19246 0.62593 0.0
C1333 C 0.21269 0.18347 0.64375 0.0
C1334 C 0.19158 0.17194 0.65554 0.0
C1335 C 0.16692 0.16856 0.64937 0.0
C1336 C 0.2709 0.18924 0.67557 0.0
C1337 C 0.28302 0.18106 0.66196 0.0
C1338 C 0.24872 0.19094 0.66952 0.0
C1339 C 0.23809 0.18461 0.64969 0.0
C1340 C 0.25084 0.17745 0.63592 0.0
C1341 C 0.27299 0.17564 0.64199 0.0
H1342 H 0.82476 0.9853 0.68342 0.0
H1343 H 0.84631 0.00293 0.62451 0.0
H1344 H 0.81649 0.02148 0.68684 0.0
H1345 H 0.83975 0.04007 0.62808 0.0
H1346 H 0.81651 0.10007 0.63473 0.0
H1347 H 0.81224 0.05736 0.63069 0.0
H1348 H 0.84141 0.06645 0.69192 0.0
H1349 H 0.84416 0.1084 0.6961 0.0
C1350 C 0.82741 0.99687 0.67115 0.0
C1351 C 0.83601 0.9915 0.6537 0.0
C1352 C 0.823 0.01775 0.67313 0.0
C1353 C 0.82774 0.03403 0.65785 0.0
C1354 C 0.83544 0.02785 0.64008 0.0
C1355 C 0.83935 0.00667 0.638 0.0
C1356 C 0.82162 0.0927 0.64737 0.0
C1357 C 0.83081 0.1076 0.66571 0.0
C1358 C 0.81935 0.06828 0.64504 0.0
C1359 C 0.82676 0.05842 0.66089 0.0
C1360 C 0.83509 0.07307 0.67941 0.0
C1361 C 0.83686 0.09727 0.68183 0.0
H1362 H 0.51337 0.37465 0.70929 0.0
H1363 H 0.53786 0.32832 0.7407 0.0
H1364 H 0.46845 0.33729 0.70342 0.0
H1365 H 0.4934 0.29105 0.73459 0.0
H1366 H 0.40734 0.23201 0.73199 0.0
H1367 H 0.44761 0.2732 0.7419 0.0
H1368 H 0.44794 0.29546 0.6827 0.0
H1369 H 0.40746 0.25444 0.6728 0.0
C1370 C 0.50903 0.35662 0.71521 0.0
C1371 C 0.52912 0.35431 0.72532 0.0
C1372 C 0.48341 0.33519 0.7117 0.0
C1373 C 0.47737 0.31115 0.71844 0.0
C1374 C 0.49726 0.3093 0.72934 0.0
C1375 C 0.52281 0.33059 0.7327 0.0
C1376 C 0.41579 0.24579 0.72111 0.0
C1377 C 0.40426 0.23978 0.70153 0.0
C1378 C 0.43894 0.26937 0.7268 0.0
C1379 C 0.45109 0.28755 0.71307 0.0
C1380 C 0.43896 0.28201 0.6937 0.0
C1381 C 0.41583 0.25838 0.68799 0.0
H1382 H 0.66801 0.14667 0.75212 0.0
H1383 H 0.65775 0.17562 0.69784 0.0
H1384 H 0.70485 0.14344 0.73971 0.0
H1385 H 0.69432 0.17253 0.68542 0.0
H1386 H 0.75234 0.15048 0.66322 0.0
H1387 H 0.71104 0.14397 0.67475 0.0
H1388 H 0.75025 0.17616 0.73319 0.0
H1389 H 0.79145 0.18272 0.72175 0.0
C1390 C 0.67319 0.15164 0.73734 0.0
C1391 C 0.66 0.16125 0.72589 0.0
C1392 C 0.69444 0.1501 0.73031 0.0
C1393 C 0.7027 0.1579 0.7116 0.0
C1394 C 0.68842 0.16612 0.69979 0.0
C1395 C 0.66746 0.16792 0.70689 0.0
C1396 C 0.75217 0.15601 0.67857 0.0
C1397 C 0.77541 0.16719 0.6915 0.0
C1398 C 0.72845 0.1523 0.68518 0.0
C1399 C 0.72724 0.15949 0.70493 0.0
C1400 C 0.75029 0.17002 0.71797 0.0
C1401 C 0.77404 0.17391 0.71134 0.0
H1402 H 0.82211 0.48404 0.68497 0.0
H1403 H 0.87185 0.5173 0.73976 0.0
H1404 H 0.83086 0.5269 0.67763 0.0
H1405 H 0.88122 0.56048 0.73216 0.0
H1406 H 0.85294 0.62024 0.72471 0.0
H1407 H 0.85424 0.58128 0.73101 0.0
H1408 H 0.86448 0.57008 0.66973 0.0
H1409 H 0.86275 0.60902 0.66326 0.0
C1410 C 0.83513 0.5006 0.69536 0.0
C1411 C 0.846 0.4973 0.71307 0.0
C1412 C 0.84042 0.52519 0.69104 0.0
C1413 C 0.85666 0.54707 0.70435 0.0
C1414 C 0.86842 0.54393 0.72171 0.0
C1415 C 0.86321 0.51928 0.72599 0.0
C1416 C 0.85579 0.6097 0.71258 0.0
C1417 C 0.85744 0.61761 0.69342 0.0
C1418 C 0.85676 0.58745 0.71625 0.0
C1419 C 0.85934 0.57253 0.70085 0.0
C1420 C 0.86217 0.58104 0.68185 0.0
C1421 C 0.8613 0.6034 0.67817 0.0
H1422 H 0.44821 0.95033 0.24636 0.0
H1423 H 0.44769 0.88453 0.21641 0.0
H1424 H 0.46468 0.97467 0.21772 0.0
H1425 H 0.46363 0.90847 0.1878 0.0
H1426 H 0.51533 0.96504 0.14628 0.0
H1427 H 0.50117 0.94314 0.17609 0.0
H1428 H 0.45203 0.97707 0.18427 0.0
H1429 H 0.46668 0.99939 0.15459 0.0
C1430 C 0.45155 0.94105 0.23365 0.0
C1431 C 0.44689 0.91557 0.23378 0.0
C1432 C 0.46091 0.95495 0.21718 0.0
C1433 C 0.46566 0.94365 0.20038 0.0
C1434 C 0.46083 0.91811 0.20057 0.0
C1435 C 0.45165 0.90432 0.21702 0.0
C1436 C 0.50143 0.96775 0.1544 0.0
C1437 C 0.49205 0.98388 0.14797 0.0
C1438 C 0.49324 0.95514 0.17151 0.0
C1439 C 0.47527 0.95813 0.18262 0.0
C1440 C 0.46615 0.97454 0.17631 0.0
C1441 C 0.4745 0.98731 0.15924 0.0
H1442 H 0.07694 0.50213 0.25257 0.0
H1443 H 0.13942 0.57605 0.23785 0.0
H1444 H 0.0537 0.49501 0.22009 0.0
H1445 H 0.1157 0.56911 0.20553 0.0
H1446 H 0.05147 0.55548 0.15597 0.0
H1447 H 0.07314 0.56413 0.18947 0.0
H1448 H 0.06264 0.48712 0.18548 0.0
H1449 H 0.0409 0.47845 0.15217 0.0
C1450 C 0.08574 0.51688 0.24243 0.0
C1451 C 0.1102 0.53957 0.24781 0.0
C1452 C 0.07236 0.5128 0.22385 0.0
C1453 C 0.08297 0.53143 0.21025 0.0
C1454 C 0.10695 0.55451 0.21579 0.0
C1455 C 0.12049 0.5585 0.23434 0.0
C1456 C 0.05369 0.5404 0.16233 0.0
C1457 C 0.04456 0.51632 0.15146 0.0
C1458 C 0.06623 0.5454 0.18142 0.0
C1459 C 0.06952 0.52627 0.19008 0.0
C1460 C 0.06016 0.50214 0.17926 0.0
C1461 C 0.04794 0.49726 0.16013 0.0
H1462 H 0.5111 0.55564 0.24736 0.0
H1463 H 0.44415 0.55622 0.21875 0.0
H1464 H 0.52063 0.54273 0.21575 0.0
H1465 H 0.45402 0.54407 0.18692 0.0
H1466 H 0.46862 0.50447 0.13374 0.0
H1467 H 0.45589 0.5121 0.1658 0.0
H1468 H 0.53816 0.56196 0.18678 0.0
H1469 H 0.55074 0.55381 0.15494 0.0
C1470 C 0.49832 0.55282 0.23427 0.0
C1471 C 0.47692 0.55699 0.23552 0.0
C1472 C 0.50389 0.54565 0.2161 0.0
C1473 C 0.48839 0.54273 0.19862 0.0
C1474 C 0.4663 0.54589 0.20002 0.0
C1475 C 0.46059 0.55284 0.21828 0.0
C1476 C 0.48395 0.51715 0.14521 0.0
C1477 C 0.5107 0.52848 0.14179 0.0
C1478 C 0.47666 0.52155 0.16361 0.0
C1479 C 0.49595 0.53755 0.17903 0.0
C1480 C 0.5227 0.54902 0.17549 0.0
C1481 C 0.52997 0.54446 0.15717 0.0
H1482 H 0.89031 0.45233 0.79531 0.0
H1483 H 0.95492 0.4489 0.7709 0.0
H1484 H 0.91536 0.4671 0.82761 0.0
H1485 H 0.97985 0.4634 0.80332 0.0
H1486 H 0.99664 0.45244 0.86812 0.0
H1487 H 0.9752 0.44353 0.83473 0.0
H1488 H 0.95522 0.50301 0.84684 0.0
H1489 H 0.97623 0.51155 0.88048 0.0
C1490 C 0.91007 0.45524 0.79672 0.0
C1491 C 0.92054 0.44928 0.78051 0.0
C1492 C 0.92441 0.46366 0.81527 0.0
C1493 C 0.94949 0.46621 0.81805 0.0
C1494 C 0.96038 0.46119 0.80171 0.0
C1495 C 0.94609 0.45288 0.78315 0.0
C1496 C 0.98761 0.46357 0.86367 0.0
C1497 C 0.98799 0.48259 0.87696 0.0
C1498 C 0.9756 0.45868 0.84447 0.0
C1499 C 0.96356 0.4726 0.83813 0.0
C1500 C 0.96419 0.49185 0.85134 0.0
C1501 C 0.97638 0.49687 0.87054 0.0
H1502 H 0.54955 0.4572 0.77599 0.0
H1503 H 0.62913 0.51483 0.79869 0.0
H1504 H 0.53335 0.46436 0.8064 0.0
H1505 H 0.61276 0.52299 0.82872 0.0
H1506 H 0.57851 0.50972 0.88845 0.0
H1507 H 0.59493 0.50327 0.85792 0.0
H1508 H 0.52579 0.49469 0.82479 0.0
H1509 H 0.5087 0.49971 0.8554 0.0
C1510 C 0.56361 0.47148 0.78744 0.0
C1511 C 0.59068 0.48536 0.78485 0.0
C1512 C 0.55426 0.47584 0.80482 0.0
C1513 C 0.57171 0.49429 0.82009 0.0
C1514 C 0.59876 0.5084 0.81741 0.0
C1515 C 0.60813 0.50397 0.80004 0.0
C1516 C 0.56664 0.50617 0.87469 0.0
C1517 C 0.54218 0.50513 0.87448 0.0
C1518 C 0.57626 0.50283 0.85711 0.0
C1519 C 0.56173 0.49845 0.83881 0.0
C1520 C 0.5374 0.49768 0.83859 0.0
C1521 C 0.52773 0.50092 0.85617 0.0
H1522 H 0.50182 0.06226 0.78179 0.0
H1523 H 0.57675 0.12353 0.80988 0.0
H1524 H 0.49308 0.04047 0.81197 0.0
H1525 H 0.56816 0.10136 0.83995 0.0
H1526 H 0.55239 0.0405 0.88453 0.0
H1527 H 0.56253 0.06145 0.85386 0.0
H1528 H 0.48329 0.04832 0.84568 0.0
H1529 H 0.47304 0.02705 0.87616 0.0
C1530 C 0.51648 0.07112 0.79437 0.0
C1531 C 0.53994 0.09484 0.79334 0.0
C1532 C 0.51143 0.05859 0.81171 0.0
C1533 C 0.52979 0.06927 0.82848 0.0
C1534 C 0.55366 0.09249 0.82727 0.0
C1535 C 0.55864 0.10515 0.80996 0.0
C1536 C 0.53709 0.04196 0.87613 0.0
C1537 C 0.51187 0.03203 0.88281 0.0
C1538 C 0.54298 0.05417 0.85862 0.0
C1539 C 0.52371 0.0565 0.84724 0.0
C1540 C 0.49851 0.04659 0.85395 0.0
C1541 C 0.49271 0.03463 0.87154 0.0
H1542 H 0.11073 0.21774 0.5508 0.0
H1543 H 0.11081 0.2835 0.58039 0.0
H1544 H 0.12691 0.24167 0.52219 0.0
H1545 H 0.12755 0.30781 0.55181 0.0
H1546 H 0.12973 0.33282 0.489 0.0
H1547 H 0.115 0.31024 0.51854 0.0
H1548 H 0.164 0.27621 0.51005 0.0
H1549 H 0.17822 0.29837 0.48034 0.0
C1550 C 0.11465 0.23752 0.55134 0.0
C1551 C 0.10959 0.24873 0.56797 0.0
C1552 C 0.12398 0.25131 0.53488 0.0
C1553 C 0.12867 0.2768 0.53458 0.0
C1554 C 0.12382 0.28811 0.55132 0.0
C1555 C 0.11431 0.27422 0.56777 0.0
C1556 C 0.13749 0.32065 0.49354 0.0
C1557 C 0.15507 0.31732 0.48222 0.0
C1558 C 0.1291 0.30773 0.51054 0.0
C1559 C 0.1382 0.29125 0.51677 0.0
C1560 C 0.1561 0.28828 0.50557 0.0
C1561 C 0.16433 0.30104 0.48851 0.0
H1562 H 0.79442 0.84901 0.5652 0.0
H1563 H 0.76747 0.9006 0.58603 0.0
H1564 H 0.77089 0.84243 0.53301 0.0
H1565 H 0.74436 0.89438 0.5535 0.0
H1566 H 0.72888 0.89435 0.48555 0.0
H1567 H 0.75354 0.90306 0.51788 0.0
H1568 H 0.72341 0.82095 0.51985 0.0
H1569 H 0.69913 0.81231 0.48759 0.0
C1570 C 0.78336 0.85885 0.56297 0.0
C1571 C 0.78257 0.87508 0.57833 0.0
C1572 C 0.76996 0.85513 0.54448 0.0
C1573 C 0.75562 0.86772 0.54079 0.0
C1574 C 0.7554 0.88455 0.5559 0.0
C1575 C 0.76867 0.88813 0.57451 0.0
C1576 C 0.72763 0.87822 0.4929 0.0
C1577 C 0.71205 0.85265 0.48407 0.0
C1578 C 0.74156 0.88318 0.51144 0.0
C1579 C 0.74045 0.86269 0.52135 0.0
C1580 C 0.72485 0.83716 0.51249 0.0
C1581 C 0.71075 0.83219 0.4941 0.0
H1582 H 0.11066 0.88789 0.54937 0.0
H1583 H 0.17934 0.89192 0.57938 0.0
H1584 H 0.12129 0.87496 0.51823 0.0
H1585 H 0.18973 0.87838 0.54838 0.0
H1586 H 0.21996 0.89111 0.4871 0.0
H1587 H 0.20655 0.89749 0.51901 0.0
H1588 H 0.12514 0.84305 0.49829 0.0
H1589 H 0.13866 0.83699 0.46612 0.0
C1590 C 0.12767 0.88536 0.54938 0.0
C1591 C 0.14425 0.89107 0.5668 0.0
C1592 C 0.1338 0.87794 0.53151 0.0
C1593 C 0.15658 0.87589 0.53067 0.0
C1594 C 0.17238 0.88034 0.54833 0.0
C1595 C 0.16636 0.88795 0.56614 0.0
C1596 C 0.19923 0.88017 0.48942 0.0
C1597 C 0.18041 0.86351 0.47403 0.0
C1598 C 0.1915 0.88379 0.50779 0.0
C1599 C 0.16472 0.87074 0.51134 0.0
C1600 C 0.1459 0.85371 0.49604 0.0
C1601 C 0.15364 0.85019 0.47759 0.0
H1602 H 0.59992 0.81465 0.11067 0.0
H1603 H 0.55727 0.73752 0.12945 0.0
H1604 H 0.62338 0.83116 0.14386 0.0
H1605 H 0.58035 0.75389 0.16242 0.0
H1606 H 0.60711 0.79658 0.22388 0.0
H1607 H 0.58319 0.78474 0.1912 0.0
H1608 H 0.65687 0.82348 0.16492 0.0
H1609 H 0.68103 0.83464 0.19756 0.0
C1610 C 0.59546 0.80135 0.12195 0.0
C1611 C 0.57698 0.77484 0.11756 0.0
C1612 C 0.60891 0.81072 0.14083 0.0
C1613 C 0.6036 0.79378 0.15568 0.0
C1614 C 0.58465 0.76741 0.15132 0.0
C1615 C 0.5716 0.75802 0.13245 0.0
C1616 C 0.6183 0.80247 0.21117 0.0
C1617 C 0.64607 0.81628 0.21341 0.0
C1618 C 0.60455 0.79582 0.19247 0.0
C1619 C 0.61819 0.80311 0.17556 0.0
C1620 C 0.64587 0.81783 0.17775 0.0
C1621 C 0.65968 0.82424 0.19647 0.0
H1622 H 0.24302 0.84285 0.10647 0.0
H1623 H 0.25626 0.78566 0.1326 0.0
H1624 H 0.22521 0.84905 0.13659 0.0
H1625 H 0.23818 0.79158 0.16253 0.0
H1626 H 0.2331 0.83195 0.22017 0.0
H1627 H 0.2506 0.82605 0.19 0.0
H1628 H 0.18582 0.82404 0.15537 0.0
H1629 H 0.16782 0.8293 0.18554 0.0
C1630 C 0.24214 0.83164 0.11865 0.0
C1631 C 0.25097 0.81372 0.11715 0.0
C1632 C 0.23176 0.83503 0.13582 0.0
C1633 C 0.2303 0.82081 0.15194 0.0
C1634 C 0.23924 0.80299 0.15044 0.0
C1635 C 0.24936 0.79941 0.13322 0.0
C1636 C 0.22232 0.8299 0.20616 0.0
C1637 C 0.19892 0.83099 0.20538 0.0
C1638 C 0.23244 0.82661 0.18886 0.0
C1639 C 0.21958 0.82455 0.1703 0.0
C1640 C 0.19635 0.82588 0.16945 0.0
C1641 C 0.18608 0.82895 0.18677 0.0
H1642 H 0.17407 0.38929 0.11332 0.0
H1643 H 0.24358 0.45597 0.143 0.0
H1644 H 0.1653 0.36829 0.14386 0.0
H1645 H 0.23452 0.4354 0.17377 0.0
H1646 H 0.22309 0.38245 0.22267 0.0
H1647 H 0.23347 0.40221 0.19162 0.0
H1648 H 0.15027 0.37019 0.17483 0.0
H1649 H 0.14002 0.34995 0.20563 0.0
C1650 C 0.18747 0.39948 0.12641 0.0
C1651 C 0.20953 0.4243 0.1257 0.0
C1652 C 0.18236 0.38751 0.14401 0.0
C1653 C 0.19902 0.40014 0.16149 0.0
C1654 C 0.22139 0.42482 0.16064 0.0
C1655 C 0.22662 0.43669 0.14297 0.0
C1656 C 0.20704 0.37975 0.21237 0.0
C1657 C 0.18071 0.36455 0.21665 0.0
C1658 C 0.21298 0.39114 0.19453 0.0
C1659 C 0.19276 0.38784 0.18053 0.0
C1660 C 0.16642 0.37278 0.18495 0.0
C1661 C 0.16049 0.36121 0.2027 0.0
H1662 H 0.8201 0.59537 0.90779 0.0
H1663 H 0.73982 0.5738 0.88884 0.0
H1664 H 0.83487 0.61834 0.87839 0.0
H1665 H 0.75468 0.5971 0.85973 0.0
H1666 H 0.79452 0.66307 0.81992 0.0
H1667 H 0.78077 0.64137 0.84997 0.0
H1668 H 0.83124 0.60894 0.84226 0.0
H1669 H 0.84542 0.6311 0.81243 0.0
C1670 C 0.80557 0.59544 0.89738 0.0
C1671 C 0.77874 0.58274 0.90084 0.0
C1672 C 0.81406 0.60864 0.8805 0.0
C1673 C 0.79598 0.60962 0.86668 0.0
C1674 C 0.76922 0.59711 0.87021 0.0
C1675 C 0.76071 0.58379 0.88699 0.0
C1676 C 0.80285 0.65149 0.82472 0.0
C1677 C 0.82109 0.64885 0.81373 0.0
C1678 C 0.79478 0.63884 0.84186 0.0
C1679 C 0.80487 0.62337 0.84855 0.0
C1680 C 0.82325 0.62088 0.83764 0.0
C1681 C 0.83117 0.63337 0.82041 0.0
H1682 H 0.44253 0.16607 0.89982 0.0
H1683 H 0.4319 0.23056 0.91757 0.0
H1684 H 0.41648 0.15861 0.86872 0.0
H1685 H 0.40616 0.2233 0.88605 0.0
H1686 H 0.3901 0.2185 0.81751 0.0
H1687 H 0.41369 0.22629 0.85007 0.0
H1688 H 0.37011 0.14412 0.85644 0.0
H1689 H 0.34691 0.13628 0.82379 0.0
C1690 C 0.43435 0.17847 0.89723 0.0
C1691 C 0.43912 0.19877 0.91133 0.0
C1692 C 0.41947 0.1742 0.87935 0.0
C1693 C 0.40915 0.19027 0.875 0.0
C1694 C 0.41403 0.21072 0.88896 0.0
C1695 C 0.4288 0.21489 0.90698 0.0
C1696 C 0.38559 0.20212 0.82589 0.0
C1697 C 0.36675 0.17677 0.81807 0.0
C1698 C 0.3989 0.20661 0.84459 0.0
C1699 C 0.3938 0.1858 0.85576 0.0
C1700 C 0.37463 0.16051 0.84808 0.0
C1701 C 0.36119 0.15604 0.82946 0.0
H1702 H 0.7711 0.21782 0.88562 0.0
H1703 H 0.8451 0.22808 0.91084 0.0
H1704 H 0.77844 0.20321 0.85378 0.0
H1705 H 0.85311 0.21481 0.87883 0.0
H1706 H 0.85339 0.17297 0.82179 0.0
H1707 H 0.84071 0.18017 0.85397 0.0
H1708 H 0.80597 0.22181 0.82798 0.0
H1709 H 0.81826 0.21421 0.79585 0.0
C1710 C 0.78879 0.21668 0.88446 0.0
C1711 C 0.80755 0.22426 0.90084 0.0
C1712 C 0.7932 0.20864 0.8661 0.0
C1713 C 0.81651 0.20803 0.86359 0.0
C1714 C 0.83482 0.21478 0.88015 0.0
C1715 C 0.83037 0.22271 0.89851 0.0
C1716 C 0.84296 0.18358 0.82296 0.0
C1717 C 0.83691 0.19306 0.80624 0.0
C1718 C 0.83573 0.18777 0.84143 0.0
C1719 C 0.82239 0.2017 0.84368 0.0
C1720 C 0.81582 0.21064 0.82683 0.0
C1721 C 0.82291 0.20632 0.80836 0.0
H1722 H 0.23906 0.07074 0.45633 0.0
H1723 H 0.26863 0.15074 0.44568 0.0
H1724 H 0.26171 0.08432 0.48937 0.0
H1725 H 0.29215 0.16462 0.47873 0.0
H1726 H 0.30787 0.17802 0.5463 0.0
H1727 H 0.28582 0.16559 0.5129 0.0
H1728 H 0.30408 0.10404 0.50654 0.0
H1729 H 0.32537 0.11608 0.54011 0.0
C1730 C 0.25078 0.09131 0.461 0.0
C1731 C 0.2523 0.10971 0.44837 0.0
C1732 C 0.26385 0.09913 0.47995 0.0
C1733 C 0.27901 0.12561 0.48674 0.0
C1734 C 0.28043 0.14405 0.4741 0.0
C1735 C 0.26708 0.13616 0.45515 0.0
C1736 C 0.30724 0.16192 0.53768 0.0
C1737 C 0.31821 0.14792 0.54583 0.0
C1738 C 0.2947 0.15484 0.5185 0.0
C1739 C 0.29304 0.13373 0.50697 0.0
C1740 C 0.30445 0.12005 0.51509 0.0
C1741 C 0.31673 0.12696 0.53432 0.0
H1742 H 0.87634 0.1207 0.44115 0.0
H1743 H 0.95304 0.18467 0.46364 0.0
H1744 H 0.85825 0.12595 0.47117 0.0
H1745 H 0.93463 0.19084 0.49318 0.0
H1746 H 0.90086 0.1761 0.55278 0.0
H1747 H 0.9186 0.1709 0.52258 0.0
H1748 H 0.84625 0.15339 0.48893 0.0
H1749 H 0.82795 0.15717 0.51927 0.0
C1750 C 0.88935 0.13597 0.45245 0.0
C1751 C 0.91621 0.15219 0.44994 0.0
C1752 C 0.87887 0.1392 0.4696 0.0
C1753 C 0.89494 0.15881 0.48469 0.0
C1754 C 0.92171 0.17529 0.48203 0.0
C1755 C 0.93221 0.17199 0.46492 0.0
C1756 C 0.88856 0.1708 0.53899 0.0
C1757 C 0.86288 0.16696 0.53855 0.0
C1758 C 0.89891 0.1682 0.52158 0.0
C1759 C 0.88393 0.1618 0.50323 0.0
C1760 C 0.85829 0.15805 0.50278 0.0
C1761 C 0.84789 0.16055 0.5202 0.0
H1762 H 0.85085 0.77738 0.46834 0.0
H1763 H 0.89878 0.74439 0.4527 0.0
H1764 H 0.84227 0.7562 0.49867 0.0
H1765 H 0.88967 0.72246 0.48298 0.0
H1766 H 0.88906 0.70789 0.54845 0.0
H1767 H 0.89829 0.72887 0.51786 0.0
H1768 H 0.81887 0.71573 0.51132 0.0
H1769 H 0.80999 0.6954 0.54213 0.0
C1770 C 0.85924 0.76522 0.47125 0.0
C1771 C 0.87527 0.76235 0.45796 0.0
C1772 C 0.85427 0.75299 0.48868 0.0
C1773 C 0.86504 0.73733 0.49335 0.0
C1774 C 0.88124 0.73457 0.48008 0.0
C1775 C 0.88641 0.74704 0.46265 0.0
C1776 C 0.87355 0.7094 0.54041 0.0
C1777 C 0.84881 0.70004 0.5478 0.0
C1778 C 0.8788 0.72136 0.5228 0.0
C1779 C 0.85939 0.72414 0.512 0.0
C1780 C 0.83455 0.7145 0.51935 0.0
C1781 C 0.82939 0.70276 0.53704 0.0
loop_
_geom_bond_atom_site_label_1
_geom_bond_atom_site_label_2
_geom_bond_distance
_geom_bond_site_symmetry_2
_ccdc_geom_bond_type
H0 C1 0.949 . S
C1 H0 0.949 . S
C1 C2 1.395 . S
C1 C3 1.391 . S
C2 C1 1.395 . S
C2 C5 1.390 . S
C3 C1 1.391 . S
C3 C7 1.387 . S
C3 C8 1.491 . S
H4 C5 0.950 . S
C5 C2 1.390 . S
C5 H4 0.950 . S
C5 C6 1.378 . S
C6 C5 1.378 . S
C6 C7 1.409 . S
C7 C3 1.387 . S
C7 C6 1.409 . S
C7 H9 0.951 . S
C8 C3 1.491 . S
C8 C10 1.382 . S
C8 C12 1.404 . S
H9 C7 0.951 . S
C10 C8 1.382 . S
C10 C11 1.390 . S
C10 H15 0.949 . S
C11 C10 1.390 . S
C11 C16 1.399 . S
C12 C8 1.404 . S
C12 H13 0.950 . S
C12 C14 1.375 . S
H13 C12 0.950 . S
C14 C12 1.375 . S
C14 C16 1.382 . S
C14 H18 0.950 . S
H15 C10 0.949 . S
C16 C11 1.399 . S
C16 C14 1.382 . S
C16 H17 0.952 . S
H17 C16 0.952 . S
H18 C14 0.950 . S
H19 C20 0.949 . S
C20 H19 0.949 . S
C20 C21 1.395 . S
C20 C22 1.391 . S
C21 C20 1.395 . S
C21 C24 1.390 . S
C22 C20 1.391 . S
C22 C26 1.387 . S
C22 C27 1.491 . S
H23 C24 0.950 . S
C24 C21 1.390 . S
C24 H23 0.950 . S
C24 C25 1.378 . S
C25 C24 1.378 . S
C25 C26 1.409 . S
C26 C22 1.387 . S
C26 C25 1.409 . S
C26 H28 0.951 . S
C27 C22 1.491 . S
C27 C29 1.382 . S
C27 C31 1.404 . S
H28 C26 0.951 . S
C29 C27 1.382 . S
C29 C30 1.390 . S
C29 H34 0.949 . S
C30 C29 1.390 . S
C30 C35 1.399 . S
C31 C27 1.404 . S
C31 H32 0.950 . S
C31 C33 1.375 . S
H32 C31 0.950 . S
C33 C31 1.375 . S
C33 C35 1.382 . S
C33 H37 0.950 . S
H34 C29 0.949 . S
C35 C30 1.399 . S
C35 C33 1.382 . S
C35 H36 0.952 . S
H36 C35 0.952 . S
H37 C33 0.950 . S
H38 C39 0.949 . S
C39 H38 0.949 . S
C39 C40 1.395 . S
C39 C41 1.391 . S
C40 C39 1.395 . S
C40 C43 1.390 . S
C41 C39 1.391 . S
C41 C45 1.387 . S
C41 C46 1.491 . S
H42 C43 0.950 . S
C43 C40 1.390 . S
C43 H42 0.950 . S
C43 C44 1.378 . S
C44 C43 1.378 . S
C44 C45 1.409 . S
C45 C41 1.387 . S
C45 C44 1.409 . S
C45 H47 0.951 . S
C46 C41 1.491 . S
C46 C48 1.382 . S
C46 C50 1.404 . S
H47 C45 0.951 . S
C48 C46 1.382 . S
C48 C49 1.390 . S
C48 H53 0.949 . S
C49 C48 1.390 . S
C49 C54 1.399 . S
C50 C46 1.404 . S
C50 H51 0.950 . S
C50 C52 1.375 . S
H51 C50 0.950 . S
C52 C50 1.375 . S
C52 C54 1.382 . S
C52 H56 0.950 . S
H53 C48 0.949 . S
C54 C49 1.399 . S
C54 C52 1.382 . S
C54 H55 0.952 1_655 S
H55 C54 0.952 1_455 S
H56 C52 0.950 . S
H57 C58 0.949 . S
C58 H57 0.949 . S
C58 C59 1.395 . S
C58 C60 1.391 . S
C59 C58 1.395 . S
C59 C62 1.390 . S
C60 C58 1.391 . S
C60 C64 1.387 . S
C60 C65 1.491 . S
H61 C62 0.950 . S
C62 C59 1.390 . S
C62 H61 0.950 . S
C62 C63 1.378 . S
C63 C62 1.378 . S
C63 C64 1.409 . S
C64 C60 1.387 . S
C64 C63 1.409 . S
C64 H66 0.951 . S
C65 C60 1.491 . S
C65 C67 1.382 . S
C65 C69 1.404 . S
H66 C64 0.951 . S
C67 C65 1.382 . S
C67 C68 1.390 . S
C67 H72 0.949 . S
C68 C67 1.390 . S
C68 C73 1.399 . S
C69 C65 1.404 . S
C69 H70 0.950 . S
C69 C71 1.375 . S
H70 C69 0.950 . S
C71 C69 1.375 . S
C71 C73 1.382 . S
C71 H75 0.950 . S
H72 C67 0.949 . S
C73 C68 1.399 . S
C73 C71 1.382 . S
C73 H74 0.952 . S
H74 C73 0.952 . S
H75 C71 0.950 . S
H76 C77 0.949 . S
C77 H76 0.949 . S
C77 C78 1.395 . S
C77 C79 1.391 . S
C78 C77 1.395 . S
C78 C81 1.390 . S
C79 C77 1.391 . S
C79 C83 1.387 . S
C79 C84 1.491 . S
H80 C81 0.950 . S
C81 C78 1.390 . S
C81 H80 0.950 . S
C81 C82 1.378 . S
C82 C81 1.378 . S
C82 C83 1.409 . S
C83 C79 1.387 . S
C83 C82 1.409 . S
C83 H85 0.951 . S
C84 C79 1.491 . S
C84 C86 1.382 . S
C84 C88 1.404 . S
H85 C83 0.951 . S
C86 C84 1.382 . S
C86 C87 1.390 . S
C86 H91 0.949 . S
C87 C86 1.390 . S
C87 C92 1.399 . S
C88 C84 1.404 . S
C88 H89 0.950 . S
C88 C90 1.375 . S
H89 C88 0.950 . S
C90 C88 1.375 . S
C90 C92 1.382 . S
C90 H94 0.950 . S
H91 C86 0.949 . S
C92 C87 1.399 . S
C92 C90 1.382 . S
C92 H93 0.952 . S
H93 C92 0.952 . S
H94 C90 0.950 . S
H95 C96 0.949 . S
C96 H95 0.949 . S
C96 C97 1.395 . S
C96 C98 1.391 . S
C97 C96 1.395 . S
C97 C100 1.390 . S
C98 C96 1.391 . S
C98 C102 1.387 . S
C98 C103 1.491 . S
H99 C100 0.950 . S
C100 C97 1.390 . S
C100 H99 0.950 . S
C100 C101 1.378 . S
C101 C100 1.378 . S
C101 C102 1.409 . S
C102 C98 1.387 . S
C102 C101 1.409 . S
C102 H104 0.951 . S
C103 C98 1.491 . S
C103 C105 1.382 . S
C103 C107 1.404 . S
H104 C102 0.951 . S
C105 C103 1.382 . S
C105 C106 1.390 . S
C105 H110 0.949 . S
C106 C105 1.390 . S
C106 C111 1.399 . S
C107 C103 1.404 . S
C107 H108 0.950 . S
C107 C109 1.375 . S
H108 C107 0.950 . S
C109 C107 1.375 . S
C109 C111 1.382 . S
C109 H113 0.950 . S
H110 C105 0.949 . S
C111 C106 1.399 . S
C111 C109 1.382 . S
C111 H112 0.952 . S
H112 C111 0.952 . S
H113 C109 0.950 . S
H114 C115 0.949 . S
C115 H114 0.949 . S
C115 C116 1.395 . S
C115 C117 1.391 . S
C116 C115 1.395 . S
C116 C119 1.390 . S
C117 C115 1.391 . S
C117 C121 1.387 . S
C117 C122 1.491 . S
H118 C119 0.950 . S
C119 C116 1.390 . S
C119 H118 0.950 . S
C119 C120 1.378 . S
C120 C119 1.378 . S
C120 C121 1.409 . S
C121 C117 1.387 . S
C121 C120 1.409 . S
C121 H123 0.951 . S
C122 C117 1.491 . S
C122 C124 1.382 . S
C122 C126 1.404 . S
H123 C121 0.951 . S
C124 C122 1.382 . S
C124 C125 1.390 . S
C124 H129 0.949 . S
C125 C124 1.390 . S
C125 C130 1.399 . S
C126 C122 1.404 . S
C126 H127 0.950 . S
C126 C128 1.375 . S
H127 C126 0.950 . S
C128 C126 1.375 . S
C128 C130 1.382 . S
C128 H132 0.950 . S
H129 C124 0.949 . S
C130 C125 1.399 . S
C130 C128 1.382 . S
C130 H131 0.952 . S
H131 C130 0.952 . S
H132 C128 0.950 . S
H133 C134 0.949 . S
C134 H133 0.949 . S
C134 C135 1.395 . S
C134 C136 1.391 . S
C135 C134 1.395 . S
C135 C138 1.390 . S
C136 C134 1.391 . S
C136 C140 1.387 . S
C136 C141 1.491 . S
H137 C138 0.950 . S
C138 C135 1.390 . S
C138 H137 0.950 . S
C138 C139 1.378 . S
C139 C138 1.378 . S
C139 C140 1.409 . S
C140 C136 1.387 . S
C140 C139 1.409 . S
C140 H142 0.951 . S
C141 C136 1.491 . S
C141 C143 1.382 . S
C141 C145 1.404 . S
H142 C140 0.951 . S
C143 C141 1.382 . S
C143 C144 1.390 . S
C143 H148 0.949 . S
C144 C143 1.390 . S
C144 C149 1.399 . S
C145 C141 1.404 . S
C145 H146 0.950 . S
C145 C147 1.375 . S
H146 C145 0.950 . S
C147 C145 1.375 . S
C147 C149 1.382 . S
C147 H151 0.950 . S
H148 C143 0.949 . S
C149 C144 1.399 . S
C149 C147 1.382 . S
C149 H150 0.952 . S
H150 C149 0.952 . S
H151 C147 0.950 . S
H152 C153 0.949 . S
C153 H152 0.949 . S
C153 C154 1.395 . S
C153 C155 1.391 . S
C154 C153 1.395 . S
C154 C157 1.390 . S
C155 C153 1.391 . S
C155 C159 1.387 . S
C155 C160 1.491 . S
H156 C157 0.950 . S
C157 C154 1.390 . S
C157 H156 0.950 . S
C157 C158 1.378 . S
C158 C157 1.378 . S
C158 C159 1.409 . S
C159 C155 1.387 . S
C159 C158 1.409 . S
C159 H161 0.951 . S
C160 C155 1.491 . S
C160 C162 1.382 . S
C160 C164 1.404 . S
H161 C159 0.951 . S
C162 C160 1.382 . S
C162 C163 1.390 . S
C162 H167 0.949 . S
C163 C162 1.390 . S
C163 C168 1.399 . S
C164 C160 1.404 . S
C164 H165 0.950 . S
C164 C166 1.375 . S
H165 C164 0.950 . S
C166 C164 1.375 . S
C166 C168 1.382 . S
C166 H170 0.950 . S
H167 C162 0.949 . S
C168 C163 1.399 . S
C168 C166 1.382 . S
C168 H169 0.952 . S
H169 C168 0.952 . S
H170 C166 0.950 . S
H171 C172 0.949 . S
C172 H171 0.949 . S
C172 C173 1.395 . S
C172 C174 1.391 . S
C173 C172 1.395 . S
C173 C176 1.390 . S
C174 C172 1.391 . S
C174 C178 1.387 . S
C174 C179 1.491 . S
H175 C176 0.950 . S
C176 C173 1.390 . S
C176 H175 0.950 . S
C176 C177 1.378 . S
C177 C176 1.378 . S
C177 C178 1.409 . S
C178 C174 1.387 . S
C178 C177 1.409 . S
C178 H180 0.951 . S
C179 C174 1.491 . S
C179 C181 1.382 . S
C179 C183 1.404 . S
H180 C178 0.951 . S
C181 C179 1.382 . S
C181 C182 1.390 . S
C181 H186 0.949 . S
C182 C181 1.390 . S
C182 C187 1.399 . S
C183 C179 1.404 . S
C183 H184 0.950 . S
C183 C185 1.375 . S
H184 C183 0.950 . S
C185 C183 1.375 . S
C185 C187 1.382 . S
C185 H189 0.950 . S
H186 C181 0.949 . S
C187 C182 1.399 . S
C187 C185 1.382 . S
C187 H188 0.952 . S
H188 C187 0.952 . S
H189 C185 0.950 . S
H190 C191 0.949 . S
C191 H190 0.949 . S
C191 C192 1.395 . S
C191 C193 1.391 . S
C192 C191 1.395 . S
C192 C195 1.390 . S
C193 C191 1.391 . S
C193 C197 1.387 . S
C193 C198 1.491 . S
H194 C195 0.950 . S
C195 C192 1.390 . S
C195 H194 0.950 . S
C195 C196 1.378 . S
C196 C195 1.378 . S
C196 C197 1.409 . S
C197 C193 1.387 . S
C197 C196 1.409 . S
C197 H199 0.951 1_556 S
C198 C193 1.491 . S
C198 C200 1.382 . S
C198 C202 1.404 1_556 S
H199 C197 0.951 1_554 S
C200 C198 1.382 . S
C200 C201 1.390 1_556 S
C200 H205 0.949 . S
C201 C200 1.390 1_554 S
C201 C206 1.399 . S
C202 C198 1.404 1_554 S
C202 H203 0.950 . S
C202 C204 1.375 . S
H203 C202 0.950 . S
C204 C202 1.375 . S
C204 C206 1.382 . S
C204 H208 0.950 . S
H205 C200 0.949 . S
C206 C201 1.399 . S
C206 C204 1.382 . S
C206 H207 0.952 . S
H207 C206 0.952 . S
H208 C204 0.950 . S
H209 C210 0.949 . S
C210 H209 0.949 . S
C210 C211 1.395 . S
C210 C212 1.391 . S
C211 C210 1.395 . S
C211 C214 1.390 . S
C212 C210 1.391 . S
C212 C216 1.387 . S
C212 C217 1.491 . S
H213 C214 0.950 . S
C214 C211 1.390 . S
C214 H213 0.950 . S
C214 C215 1.378 . S
C215 C214 1.378 . S
C215 C216 1.409 . S
C216 C212 1.387 . S
C216 C215 1.409 . S
C216 H218 0.951 . S
C217 C212 1.491 . S
C217 C219 1.382 . S
C217 C221 1.404 . S
H218 C216 0.951 . S
C219 C217 1.382 . S
C219 C220 1.390 . S
C219 H224 0.949 . S
C220 C219 1.390 . S
C220 C225 1.399 . S
C221 C217 1.404 . S
C221 H222 0.950 . S
C221 C223 1.375 . S
H222 C221 0.950 . S
C223 C221 1.375 . S
C223 C225 1.382 . S
C223 H227 0.950 . S
H224 C219 0.949 . S
C225 C220 1.399 . S
C225 C223 1.382 . S
C225 H226 0.952 . S
H226 C225 0.952 . S
H227 C223 0.950 . S
H228 C229 0.949 . S
C229 H228 0.949 . S
C229 C230 1.395 . S
C229 C231 1.391 . S
C230 C229 1.395 . S
C230 C233 1.390 . S
C231 C229 1.391 . S
C231 C235 1.387 . S
C231 C236 1.491 . S
H232 C233 0.950 . S
C233 C230 1.390 . S
C233 H232 0.950 . S
C233 C234 1.378 . S
C234 C233 1.378 . S
C234 C235 1.409 . S
C235 C231 1.387 . S
C235 C234 1.409 . S
C235 H237 0.951 . S
C236 C231 1.491 . S
C236 C238 1.382 . S
C236 C240 1.404 . S
H237 C235 0.951 . S
C238 C236 1.382 . S
C238 C239 1.390 . S
C238 H243 0.949 . S
C239 C238 1.390 . S
C239 C244 1.399 . S
C240 C236 1.404 . S
C240 H241 0.950 . S
C240 C242 1.399 . S
H241 C240 0.950 . S
C242 C240 1.399 . S
C242 C244 1.385 . S
C242 H246 0.925 1_554 S
H243 C238 0.949 . S
C244 C239 1.399 . S
C244 C242 1.385 . S
C244 H245 0.952 1_554 S
H245 C244 0.952 1_556 S
H246 C242 0.925 1_556 S
H247 C248 0.949 . S
C248 H247 0.949 . S
C248 C249 1.395 . S
C248 C250 1.391 . S
C249 C248 1.395 . S
C249 C252 1.390 . S
C250 C248 1.391 . S
C250 C254 1.387 . S
C250 C255 1.491 . S
H251 C252 0.950 . S
C252 C249 1.390 . S
C252 H251 0.950 . S
C252 C253 1.378 . S
C253 C252 1.378 . S
C253 C254 1.409 . S
C254 C250 1.387 . S
C254 C253 1.409 . S
C254 H256 0.951 . S
C255 C250 1.491 . S
C255 C257 1.382 . S
C255 C259 1.404 . S
H256 C254 0.951 . S
C257 C255 1.382 . S
C257 C258 1.390 . S
C257 H262 0.949 . S
C258 C257 1.390 . S
C258 C263 1.399 . S
C259 C255 1.404 . S
C259 H260 0.950 . S
C259 C261 1.375 . S
H260 C259 0.950 . S
C261 C259 1.375 . S
C261 C263 1.382 . S
C261 H265 0.950 . S
H262 C257 0.949 . S
C263 C258 1.399 . S
C263 C261 1.382 . S
C263 H264 0.952 . S
H264 C263 0.952 . S
H265 C261 0.950 . S
H266 C267 0.949 . S
C267 H266 0.949 . S
C267 C268 1.395 . S
C267 C269 1.391 . S
C268 C267 1.395 . S
C268 C271 1.390 . S
C269 C267 1.391 . S
C269 C273 1.387 . S
C269 C274 1.491 . S
H270 C271 0.950 . S
C271 C268 1.390 . S
C271 H270 0.950 . S
C271 C272 1.378 . S
C272 C271 1.378 . S
C272 C273 1.409 . S
C273 C269 1.387 . S
C273 C272 1.409 . S
C273 H275 0.951 . S
C274 C269 1.491 . S
C274 C276 1.382 . S
C274 C278 1.404 . S
H275 C273 0.951 . S
C276 C274 1.382 . S
C276 C277 1.390 . S
C276 H281 0.949 . S
C277 C276 1.390 . S
C277 C282 1.399 . S
C278 C274 1.404 . S
C278 H279 0.950 . S
C278 C280 1.375 . S
H279 C278 0.950 . S
C280 C278 1.375 . S
C280 C282 1.382 . S
C280 H284 0.950 . S
H281 C276 0.949 . S
C282 C277 1.399 . S
C282 C280 1.382 . S
C282 H283 0.952 . S
H283 C282 0.952 . S
H284 C280 0.950 . S
H285 C286 0.949 . S
C286 H285 0.949 . S
C286 C287 1.395 . S
C286 C288 1.391 . S
C287 C286 1.395 . S
C287 C290 1.390 . S
C288 C286 1.391 . S
C288 C292 1.387 . S
C288 C293 1.491 . S
H289 C290 0.950 . S
C290 C287 1.390 . S
C290 H289 0.950 . S
C290 C291 1.378 . S
C291 C290 1.378 . S
C291 C292 1.409 . S
C292 C288 1.387 . S
C292 C291 1.409 . S
C292 H294 0.951 . S
C293 C288 1.491 . S
C293 C295 1.382 . S
C293 C297 1.404 . S
H294 C292 0.951 . S
C295 C293 1.382 . S
C295 C296 1.390 . S
C295 H300 0.949 . S
C296 C295 1.390 . S
C296 C301 1.399 . S
C297 C293 1.404 . S
C297 H298 0.950 . S
C297 C299 1.375 . S
H298 C297 0.950 . S
C299 C297 1.375 . S
C299 C301 1.382 . S
C299 H303 0.950 . S
H300 C295 0.949 . S
C301 C296 1.399 . S
C301 C299 1.382 . S
C301 H302 0.952 . S
H302 C301 0.952 . S
H303 C299 0.950 . S
H304 C305 0.949 . S
C305 H304 0.949 . S
C305 C306 1.395 . S
C305 C307 1.391 . S
C306 C305 1.395 . S
C306 C309 1.390 . S
C307 C305 1.391 . S
C307 C311 1.387 . S
C307 C312 1.491 . S
H308 C309 0.950 . S
C309 C306 1.390 . S
C309 H308 0.950 . S
C309 C310 1.378 . S
C310 C309 1.378 . S
C310 C311 1.409 . S
C311 C307 1.387 . S
C311 C310 1.409 . S
C311 H313 0.951 . S
C312 C307 1.491 . S
C312 C314 1.382 . S
C312 C316 1.404 . S
H313 C311 0.951 . S
C314 C312 1.382 . S
C314 C315 1.390 . S
C314 H319 0.949 . S
C315 C314 1.390 . S
C315 C320 1.399 . S
C316 C312 1.404 . S
C316 H317 0.950 . S
C316 C318 1.375 . S
H317 C316 0.950 . S
C318 C316 1.375 . S
C318 C320 1.382 . S
C318 H322 0.950 . S
H319 C314 0.949 . S
C320 C315 1.399 . S
C320 C318 1.382 . S
C320 H321 0.952 . S
H321 C320 0.952 . S
H322 C318 0.950 . S
H323 C324 0.949 . S
C324 H323 0.949 . S
C324 C325 1.395 . S
C324 C326 1.391 . S
C325 C324 1.395 . S
C325 C328 1.390 . S
C326 C324 1.391 . S
C326 C330 1.387 . S
C326 C331 1.491 . S
H327 C328 0.950 . S
C328 C325 1.390 . S
C328 H327 0.950 . S
C328 C329 1.378 . S
C329 C328 1.378 . S
C329 C330 1.409 . S
C330 C326 1.387 . S
C330 C329 1.409 . S
C330 H332 0.951 . S
C331 C326 1.491 . S
C331 C333 1.382 . S
C331 C335 1.404 . S
H332 C330 0.951 . S
C333 C331 1.382 . S
C333 C334 1.390 . S
C333 H338 0.949 . S
C334 C333 1.390 . S
C334 C339 1.399 . S
C335 C331 1.404 . S
C335 H336 0.950 . S
C335 C337 1.375 . S
H336 C335 0.950 . S
C337 C335 1.375 . S
C337 C339 1.382 . S
C337 H341 0.950 . S
H338 C333 0.949 . S
C339 C334 1.399 . S
C339 C337 1.382 . S
C339 H340 0.952 . S
H340 C339 0.952 . S
H341 C337 0.950 . S
Tb342 C352 2.825 1_565 S
Tb342 O353 2.347 1_565 S
Tb342 O356 2.366 1_565 S
Tb342 O361 2.418 . S
Tb342 O362 2.384 . S
Tb342 O365 2.479 . S
Tb342 O366 2.471 1_565 S
Eu343 O354 2.418 . S
Eu343 O355 2.384 . S
Eu343 O358 2.479 . S
Eu343 O359 2.471 1_545 S
Eu343 O360 2.347 1_545 S
Eu343 O363 2.366 1_545 S
Eu343 C373 2.813 1_545 S
C344 O360 1.284 . S
C344 O361 1.217 1_554 S
C345 O362 1.255 1_554 S
C345 O363 1.265 . S
C346 C348 1.380 . S
C346 C349 1.374 . S
C346 C352 1.507 . S
C347 C348 1.384 . S
C347 C351 1.387 . S
C347 H374 0.930 . S
C348 C346 1.380 . S
C348 C347 1.384 . S
C348 H375 0.931 1_545 S
C349 C346 1.374 . S
C349 C350 1.390 . S
C349 H376 0.930 . S
C350 C349 1.390 . S
C350 C351 1.391 . S
C350 H377 0.930 . S
C351 C347 1.387 . S
C351 C350 1.391 . S
C352 Tb342 2.825 1_545 S
C352 C346 1.507 . S
C352 O365 1.238 1_545 S
C352 O366 1.247 . S
O353 Tb342 2.347 1_545 S
O353 C357 1.259 1_556 S
O354 Eu343 2.418 . S
O354 C357 1.265 . S
O355 Eu343 2.384 . S
O355 C364 1.255 1_554 S
O356 Tb342 2.366 1_545 S
O356 C364 1.265 . S
C357 O353 1.259 1_554 S
C357 O354 1.265 . S
O358 Eu343 2.479 . S
O358 C373 1.192 1_545 S
O359 Eu343 2.471 1_565 S
O359 C373 1.280 . S
O360 Eu343 2.347 1_565 S
O360 C344 1.284 . S
O361 Tb342 2.418 . S
O361 C344 1.217 1_556 S
O362 Tb342 2.384 . S
O362 C345 1.255 1_556 S
O363 Eu343 2.366 1_565 S
O363 C345 1.265 . S
C364 O355 1.255 1_556 S
C364 O356 1.265 . S
O365 Tb342 2.479 . S
O365 C352 1.238 1_565 S
O366 Tb342 2.471 1_545 S
O366 C352 1.247 . S
C367 C370 1.380 1_565 S
C367 C371 1.374 . S
C367 C373 1.521 . S
C368 C369 1.387 . S
C368 C372 1.391 . S
C369 C368 1.387 . S
C369 C370 1.384 1_565 S
C369 H378 0.930 1_565 S
C370 C367 1.380 1_545 S
C370 C369 1.384 1_545 S
C370 H379 0.931 . S
C371 C367 1.374 . S
C371 C372 1.390 . S
C371 H380 0.930 . S
C372 C368 1.391 . S
C372 C371 1.390 . S
C372 H381 0.930 . S
C373 Eu343 2.813 1_565 S
C373 O358 1.192 1_565 S
C373 O359 1.280 . S
C373 C367 1.521 . S
H374 C347 0.930 . S
H375 C348 0.931 1_565 S
H376 C349 0.930 . S
H377 C350 0.930 . S
H378 C369 0.930 1_545 S
H379 C370 0.931 . S
H380 C371 0.930 . S
H381 C372 0.930 . S
Tb382 C392 2.825 1_455 S
Tb382 O393 2.347 1_455 S
Tb382 O396 2.366 1_455 S
Tb382 O401 2.418 . S
Tb382 O402 2.384 1_556 S
Tb382 O405 2.479 . S
Tb382 O406 2.471 1_455 S
Eu383 O394 2.418 . S
Eu383 O395 2.384 . S
Eu383 O398 2.479 . S
Eu383 O399 2.471 1_655 S
Eu383 O400 2.347 1_655 S
Eu383 O403 2.366 1_655 S
Eu383 C413 2.825 1_655 S
C384 O400 1.259 . S
C384 O401 1.265 1_554 S
C385 O402 1.255 . S
C385 O403 1.265 . S
C386 C388 1.380 . S
C386 C389 1.374 . S
C386 C392 1.507 . S
C387 C388 1.384 . S
C387 C391 1.387 . S
C387 H414 0.930 . S
C388 C386 1.380 . S
C388 C387 1.384 . S
C388 H415 0.931 1_655 S
C389 C386 1.374 . S
C389 C390 1.390 . S
C389 H416 0.930 . S
C390 C389 1.390 . S
C390 C391 1.391 . S
C390 H417 0.930 . S
C391 C387 1.387 . S
C391 C390 1.391 . S
C392 Tb382 2.825 1_655 S
C392 C386 1.507 . S
C392 O405 1.238 1_655 S
C392 O406 1.247 . S
O393 Tb382 2.347 1_655 S
O393 C397 1.259 1_556 S
O394 Eu383 2.418 . S
O394 C397 1.265 . S
O395 Eu383 2.384 . S
O395 C404 1.255 1_554 S
O396 Tb382 2.366 1_655 S
O396 C404 1.265 . S
C397 O393 1.259 1_554 S
C397 O394 1.265 . S
O398 Eu383 2.479 . S
O398 C413 1.238 1_655 S
O399 Eu383 2.471 1_455 S
O399 C413 1.247 . S
O400 Eu383 2.347 1_455 S
O400 C384 1.259 . S
O401 Tb382 2.418 . S
O401 C384 1.265 1_556 S
O402 Tb382 2.384 1_554 S
O402 C385 1.255 . S
O403 Eu383 2.366 1_455 S
O403 C385 1.265 . S
C404 O395 1.255 1_556 S
C404 O396 1.265 . S
O405 Tb382 2.479 . S
O405 C392 1.238 1_455 S
O406 Tb382 2.471 1_655 S
O406 C392 1.247 . S
C407 C410 1.380 . S
C407 C411 1.374 . S
C407 C413 1.507 . S
C408 C409 1.387 . S
C408 C412 1.391 . S
C409 C408 1.387 . S
C409 C410 1.384 . S
C409 H418 0.930 . S
C410 C407 1.380 . S
C410 C409 1.384 . S
C410 H419 0.931 1_455 S
C411 C407 1.374 . S
C411 C412 1.390 . S
C411 H420 0.930 . S
C412 C408 1.391 . S
C412 C411 1.390 . S
C412 H421 0.930 . S
C413 Eu383 2.825 1_455 S
C413 O398 1.238 1_455 S
C413 O399 1.247 . S
C413 C407 1.507 . S
H414 C387 0.930 . S
H415 C388 0.931 1_455 S
H416 C389 0.930 . S
H417 C390 0.930 . S
H418 C409 0.930 . S
H419 C410 0.931 1_655 S
H420 C411 0.930 . S
H421 C412 0.930 . S
Tb422 C432 2.825 . S
Tb422 O433 2.347 . S
Tb422 O436 2.366 . S
Tb422 O441 2.418 . S
Tb422 O442 2.384 . S
Tb422 O445 2.479 . S
Tb422 O446 2.471 . S
Eu423 O434 2.418 . S
Eu423 O435 2.384 1_556 S
Eu423 O438 2.479 . S
Eu423 O439 2.471 . S
Eu423 O440 2.347 1_556 S
Eu423 O443 2.366 . S
Eu423 C453 2.825 . S
C424 O440 1.259 . S
C424 O441 1.265 . S
C425 O442 1.255 1_556 S
C425 O443 1.265 . S
C426 C428 1.380 . S
C426 C429 1.374 . S
C426 C432 1.507 . S
C427 C428 1.384 . S
C427 C431 1.387 . S
C427 H454 0.930 . S
C428 C426 1.380 . S
C428 C427 1.384 . S
C428 H455 0.931 . S
C429 C426 1.374 . S
C429 C430 1.390 . S
C429 H456 0.930 . S
C430 C429 1.390 . S
C430 C431 1.391 . S
C430 H457 0.930 . S
C431 C427 1.387 . S
C431 C430 1.391 . S
C432 Tb422 2.825 . S
C432 C426 1.507 . S
C432 O445 1.238 . S
C432 O446 1.247 . S
O433 Tb422 2.347 . S
O433 C437 1.259 . S
O434 Eu423 2.418 . S
O434 C437 1.265 1_556 S
O435 Eu423 2.384 1_554 S
O435 C444 1.255 . S
O436 Tb422 2.366 . S
O436 C444 1.265 . S
C437 O433 1.259 . S
C437 O434 1.265 1_554 S
O438 Eu423 2.479 . S
O438 C453 1.238 . S
O439 Eu423 2.471 . S
O439 C453 1.247 . S
O440 Eu423 2.347 1_554 S
O440 C424 1.259 . S
O441 Tb422 2.418 . S
O441 C424 1.265 . S
O442 Tb422 2.384 . S
O442 C425 1.255 1_554 S
O443 Eu423 2.366 . S
O443 C425 1.265 . S
C444 O435 1.255 . S
C444 O436 1.265 . S
O445 Tb422 2.479 . S
O445 C432 1.238 . S
O446 Tb422 2.471 . S
O446 C432 1.247 . S
C447 C450 1.380 . S
C447 C451 1.374 . S
C447 C453 1.507 . S
C448 C449 1.387 . S
C448 C452 1.391 . S
C449 C448 1.387 . S
C449 C450 1.384 . S
C449 H458 0.930 . S
C450 C447 1.380 . S
C450 C449 1.384 . S
C450 H459 0.931 . S
C451 C447 1.374 . S
C451 C452 1.390 . S
C451 H460 0.930 . S
C452 C448 1.391 . S
C452 C451 1.390 . S
C452 H461 0.930 . S
C453 Eu423 2.825 . S
C453 O438 1.238 . S
C453 O439 1.247 . S
C453 C447 1.507 . S
H454 C427 0.930 . S
H455 C428 0.931 . S
H456 C429 0.930 . S
H457 C430 0.930 . S
H458 C449 0.930 . S
H459 C450 0.931 . S
H460 C451 0.930 . S
H461 C452 0.930 . S
Tb462 C472 2.825 . S
Tb462 O473 2.347 . S
Tb462 O476 2.366 . S
Tb462 O481 2.418 . S
Tb462 O482 2.384 . S
Tb462 O485 2.479 . S
Tb462 O486 2.471 . S
Eu463 O474 2.418 . S
Eu463 O475 2.384 . S
Eu463 O478 2.479 . S
Eu463 O479 2.471 . S
Eu463 O480 2.347 . S
Eu463 O483 2.366 . S
Eu463 C493 2.825 . S
C464 O480 1.259 . S
C464 O481 1.265 . S
C465 O482 1.255 . S
C465 O483 1.265 . S
C466 C468 1.380 . S
C466 C469 1.374 . S
C466 C472 1.507 . S
C467 C468 1.384 . S
C467 C471 1.387 . S
C467 H494 0.930 . S
C468 C466 1.380 . S
C468 C467 1.384 . S
C468 H495 0.931 . S
C469 C466 1.374 . S
C469 C470 1.390 . S
C469 H496 0.930 . S
C470 C469 1.390 . S
C470 C471 1.391 . S
C470 H497 0.930 . S
C471 C467 1.387 . S
C471 C470 1.391 . S
C472 Tb462 2.825 . S
C472 C466 1.507 . S
C472 O485 1.238 . S
C472 O486 1.247 . S
O473 Tb462 2.347 . S
O473 C477 1.259 . S
O474 Eu463 2.418 . S
O474 C477 1.265 . S
O475 Eu463 2.384 . S
O475 C484 1.255 . S
O476 Tb462 2.366 . S
O476 C484 1.265 . S
C477 O473 1.259 . S
C477 O474 1.265 . S
O478 Eu463 2.479 . S
O478 C493 1.238 . S
O479 Eu463 2.471 . S
O479 C493 1.247 . S
O480 Eu463 2.347 . S
O480 C464 1.259 . S
O481 Tb462 2.418 . S
O481 C464 1.265 . S
O482 Tb462 2.384 . S
O482 C465 1.255 . S
O483 Eu463 2.366 . S
O483 C465 1.265 . S
C484 O475 1.255 . S
C484 O476 1.265 . S
O485 Tb462 2.479 . S
O485 C472 1.238 . S
O486 Tb462 2.471 . S
O486 C472 1.247 . S
C487 C490 1.380 . S
C487 C491 1.374 . S
C487 C493 1.507 . S
C488 C489 1.387 . S
C488 C492 1.391 . S
C489 C488 1.387 . S
C489 C490 1.384 . S
C489 H498 0.930 . S
C490 C487 1.380 . S
C490 C489 1.384 . S
C490 H499 0.931 . S
C491 C487 1.374 . S
C491 C492 1.390 . S
C491 H500 0.930 . S
C492 C488 1.391 . S
C492 C491 1.390 . S
C492 H501 0.930 . S
C493 Eu463 2.825 . S
C493 O478 1.238 . S
C493 O479 1.247 . S
C493 C487 1.507 . S
H494 C467 0.930 . S
H495 C468 0.931 . S
H496 C469 0.930 . S
H497 C470 0.930 . S
H498 C489 0.930 . S
H499 C490 0.931 . S
H500 C491 0.930 . S
H501 C492 0.930 . S
Tb502 C512 2.825 . S
Tb502 O513 2.347 . S
Tb502 O516 2.366 . S
Tb502 O521 2.418 . S
Tb502 O522 2.384 . S
Tb502 O525 2.479 . S
Tb502 O526 2.471 . S
Eu503 O514 2.418 . S
Eu503 O515 2.384 . S
Eu503 O518 2.479 . S
Eu503 O519 2.471 . S
Eu503 O520 2.347 . S
Eu503 O523 2.366 . S
Eu503 C533 2.825 . S
C504 O520 1.259 . S
C504 O521 1.265 . S
C505 O522 1.255 . S
C505 O523 1.265 . S
C506 C508 1.380 . S
C506 C509 1.374 . S
C506 C512 1.507 . S
C507 C508 1.384 . S
C507 C511 1.387 . S
C507 H534 0.930 . S
C508 C506 1.380 . S
C508 C507 1.384 . S
C508 H535 0.931 . S
C509 C506 1.374 . S
C509 C510 1.390 . S
C509 H536 0.930 . S
C510 C509 1.390 . S
C510 C511 1.391 . S
C510 H537 0.930 . S
C511 C507 1.387 . S
C511 C510 1.391 . S
C512 Tb502 2.825 . S
C512 C506 1.507 . S
C512 O525 1.238 . S
C512 O526 1.247 . S
O513 Tb502 2.347 . S
O513 C517 1.259 . S
O514 Eu503 2.418 . S
O514 C517 1.265 . S
O515 Eu503 2.384 . S
O515 C524 1.255 . S
O516 Tb502 2.366 . S
O516 C524 1.265 . S
C517 O513 1.259 . S
C517 O514 1.265 . S
O518 Eu503 2.479 . S
O518 C533 1.238 . S
O519 Eu503 2.471 . S
O519 C533 1.247 . S
O520 Eu503 2.347 . S
O520 C504 1.259 . S
O521 Tb502 2.418 . S
O521 C504 1.265 . S
O522 Tb502 2.384 . S
O522 C505 1.255 . S
O523 Eu503 2.366 . S
O523 C505 1.265 . S
C524 O515 1.255 . S
C524 O516 1.265 . S
O525 Tb502 2.479 . S
O525 C512 1.238 . S
O526 Tb502 2.471 . S
O526 C512 1.247 . S
C527 C530 1.380 . S
C527 C531 1.374 . S
C527 C533 1.507 . S
C528 C529 1.387 . S
C528 C532 1.391 . S
C529 C528 1.387 . S
C529 C530 1.384 . S
C529 H538 0.930 . S
C530 C527 1.380 . S
C530 C529 1.384 . S
C530 H539 0.931 . S
C531 C527 1.374 . S
C531 C532 1.390 . S
C531 H540 0.930 . S
C532 C528 1.391 . S
C532 C531 1.390 . S
C532 H541 0.930 . S
C533 Eu503 2.825 . S
C533 O518 1.238 . S
C533 O519 1.247 . S
C533 C527 1.507 . S
H534 C507 0.930 . S
H535 C508 0.931 . S
H536 C509 0.930 . S
H537 C510 0.930 . S
H538 C529 0.930 . S
H539 C530 0.931 . S
H540 C531 0.930 . S
H541 C532 0.930 . S
Tb542 C552 2.825 . S
Tb542 O553 2.347 . S
Tb542 O556 2.366 . S
Tb542 O561 2.418 . S
Tb542 O562 2.384 . S
Tb542 O565 2.479 . S
Tb542 O566 2.471 . S
Eu543 O554 2.418 . S
Eu543 O555 2.384 . S
Eu543 O558 2.479 . S
Eu543 O559 2.471 . S
Eu543 O560 2.347 . S
Eu543 O563 2.366 . S
Eu543 C573 2.825 . S
C544 O560 1.259 . S
C544 O561 1.265 . S
C545 O562 1.255 . S
C545 O563 1.265 . S
C546 C548 1.380 . S
C546 C549 1.374 . S
C546 C552 1.507 . S
C547 C548 1.384 . S
C547 C551 1.387 . S
C547 H574 0.930 . S
C548 C546 1.380 . S
C548 C547 1.384 . S
C548 H575 0.931 . S
C549 C546 1.374 . S
C549 C550 1.390 . S
C549 H576 0.930 . S
C550 C549 1.390 . S
C550 C551 1.391 . S
C550 H577 0.930 . S
C551 C547 1.387 . S
C551 C550 1.391 . S
C552 Tb542 2.825 . S
C552 C546 1.507 . S
C552 O565 1.238 . S
C552 O566 1.247 . S
O553 Tb542 2.347 . S
O553 C557 1.259 . S
O554 Eu543 2.418 . S
O554 C557 1.265 . S
O555 Eu543 2.384 . S
O555 C564 1.255 . S
O556 Tb542 2.366 . S
O556 C564 1.265 . S
C557 O553 1.259 . S
C557 O554 1.265 . S
O558 Eu543 2.479 . S
O558 C573 1.238 . S
O559 Eu543 2.471 . S
O559 C573 1.247 . S
O560 Eu543 2.347 . S
O560 C544 1.259 . S
O561 Tb542 2.418 . S
O561 C544 1.265 . S
O562 Tb542 2.384 . S
O562 C545 1.255 . S
O563 Eu543 2.366 . S
O563 C545 1.265 . S
C564 O555 1.255 . S
C564 O556 1.265 . S
O565 Tb542 2.479 . S
O565 C552 1.238 . S
O566 Tb542 2.471 . S
O566 C552 1.247 . S
C567 C570 1.380 . S
C567 C571 1.374 . S
C567 C573 1.507 . S
C568 C569 1.387 . S
C568 C572 1.391 . S
C569 C568 1.387 . S
C569 C570 1.384 . S
C569 H578 0.930 . S
C570 C567 1.380 . S
C570 C569 1.384 . S
C570 H579 0.931 . S
C571 C567 1.374 . S
C571 C572 1.390 . S
C571 H580 0.930 . S
C572 C568 1.391 . S
C572 C571 1.390 . S
C572 H581 0.930 . S
C573 Eu543 2.825 . S
C573 O558 1.238 . S
C573 O559 1.247 . S
C573 C567 1.507 . S
H574 C547 0.930 . S
H575 C548 0.931 . S
H576 C549 0.930 . S
H577 C550 0.930 . S
H578 C569 0.930 . S
H579 C570 0.931 . S
H580 C571 0.930 . S
H581 C572 0.930 . S
Tb582 C592 2.825 . S
Tb582 O593 2.347 . S
Tb582 O596 2.366 . S
Tb582 O601 2.418 . S
Tb582 O602 2.384 . S
Tb582 O605 2.479 . S
Tb582 O606 2.471 . S
Eu583 O594 2.418 . S
Eu583 O595 2.384 . S
Eu583 O598 2.479 . S
Eu583 O599 2.471 . S
Eu583 O600 2.347 . S
Eu583 O603 2.366 . S
Eu583 C613 2.825 . S
C584 O600 1.259 . S
C584 O601 1.265 . S
C585 O602 1.255 . S
C585 O603 1.265 . S
C586 C588 1.380 . S
C586 C589 1.374 . S
C586 C592 1.507 . S
C587 C588 1.384 . S
C587 C591 1.387 . S
C587 H614 0.930 . S
C588 C586 1.380 . S
C588 C587 1.384 . S
C588 H615 0.931 . S
C589 C586 1.374 . S
C589 C590 1.390 . S
C589 H616 0.930 . S
C590 C589 1.390 . S
C590 C591 1.391 . S
C590 H617 0.930 . S
C591 C587 1.387 . S
C591 C590 1.391 . S
C592 Tb582 2.825 . S
C592 C586 1.507 . S
C592 O605 1.238 . S
C592 O606 1.247 . S
O593 Tb582 2.347 . S
O593 C597 1.259 . S
O594 Eu583 2.418 . S
O594 C597 1.265 . S
O595 Eu583 2.384 . S
O595 C604 1.255 . S
O596 Tb582 2.366 . S
O596 C604 1.265 . S
C597 O593 1.259 . S
C597 O594 1.265 . S
O598 Eu583 2.479 . S
O598 C613 1.238 . S
O599 Eu583 2.471 . S
O599 C613 1.247 . S
O600 Eu583 2.347 . S
O600 C584 1.259 . S
O601 Tb582 2.418 . S
O601 C584 1.265 . S
O602 Tb582 2.384 . S
O602 C585 1.255 . S
O603 Eu583 2.366 . S
O603 C585 1.265 . S
C604 O595 1.255 . S
C604 O596 1.265 . S
O605 Tb582 2.479 . S
O605 C592 1.238 . S
O606 Tb582 2.471 . S
O606 C592 1.247 . S
C607 C610 1.380 . S
C607 C611 1.374 . S
C607 C613 1.507 . S
C608 C609 1.387 . S
C608 C612 1.391 . S
C609 C608 1.387 . S
C609 C610 1.384 . S
C609 H618 0.930 . S
C610 C607 1.380 . S
C610 C609 1.384 . S
C610 H619 0.931 . S
C611 C607 1.374 . S
C611 C612 1.390 . S
C611 H620 0.930 . S
C612 C608 1.391 . S
C612 C611 1.390 . S
C612 H621 0.930 . S
C613 Eu583 2.825 . S
C613 O598 1.238 . S
C613 O599 1.247 . S
C613 C607 1.507 . S
H614 C587 0.930 . S
H615 C588 0.931 . S
H616 C589 0.930 . S
H617 C590 0.930 . S
H618 C609 0.930 . S
H619 C610 0.931 . S
H620 C611 0.930 . S
H621 C612 0.930 . S
Tb622 C632 2.825 . S
Tb622 O633 2.347 . S
Tb622 O636 2.366 . S
Tb622 O641 2.418 . S
Tb622 O642 2.384 . S
Tb622 O645 2.479 . S
Tb622 O646 2.471 . S
Eu623 O634 2.418 . S
Eu623 O635 2.384 . S
Eu623 O638 2.479 . S
Eu623 O639 2.471 . S
Eu623 O640 2.347 . S
Eu623 O643 2.366 . S
Eu623 C653 2.825 . S
C624 O640 1.259 . S
C624 O641 1.265 . S
C625 O642 1.255 . S
C625 O643 1.265 . S
C626 C628 1.380 . S
C626 C629 1.374 . S
C626 C632 1.507 . S
C627 C628 1.384 . S
C627 C631 1.387 . S
C627 H654 0.930 . S
C628 C626 1.380 . S
C628 C627 1.384 . S
C628 H655 0.931 . S
C629 C626 1.374 . S
C629 C630 1.390 . S
C629 H656 0.930 . S
C630 C629 1.390 . S
C630 C631 1.391 . S
C630 H657 0.930 . S
C631 C627 1.387 . S
C631 C630 1.391 . S
C632 Tb622 2.825 . S
C632 C626 1.507 . S
C632 O645 1.238 . S
C632 O646 1.247 . S
O633 Tb622 2.347 . S
O633 C637 1.259 . S
O634 Eu623 2.418 . S
O634 C637 1.265 . S
O635 Eu623 2.384 . S
O635 C644 1.255 . S
O636 Tb622 2.366 . S
O636 C644 1.265 . S
C637 O633 1.259 . S
C637 O634 1.265 . S
O638 Eu623 2.479 . S
O638 C653 1.238 . S
O639 Eu623 2.471 . S
O639 C653 1.247 . S
O640 Eu623 2.347 . S
O640 C624 1.259 . S
O641 Tb622 2.418 . S
O641 C624 1.265 . S
O642 Tb622 2.384 . S
O642 C625 1.255 . S
O643 Eu623 2.366 . S
O643 C625 1.265 . S
C644 O635 1.255 . S
C644 O636 1.265 . S
O645 Tb622 2.479 . S
O645 C632 1.238 . S
O646 Tb622 2.471 . S
O646 C632 1.247 . S
C647 C650 1.380 . S
C647 C651 1.374 . S
C647 C653 1.507 . S
C648 C649 1.387 . S
C648 C652 1.391 . S
C649 C648 1.387 . S
C649 C650 1.384 . S
C649 H658 0.930 . S
C650 C647 1.380 . S
C650 C649 1.384 . S
C650 H659 0.931 . S
C651 C647 1.374 . S
C651 C652 1.390 . S
C651 H660 0.930 . S
C652 C648 1.391 . S
C652 C651 1.390 . S
C652 H661 0.930 . S
C653 Eu623 2.825 . S
C653 O638 1.238 . S
C653 O639 1.247 . S
C653 C647 1.507 . S
H654 C627 0.930 . S
H655 C628 0.931 . S
H656 C629 0.930 . S
H657 C630 0.930 . S
H658 C649 0.930 . S
H659 C650 0.931 . S
H660 C651 0.930 . S
H661 C652 0.930 . S
Tb662 C672 2.825 . S
Tb662 O673 2.347 . S
Tb662 O676 2.366 . S
Tb662 O681 2.418 . S
Tb662 O682 2.384 . S
Tb662 O685 2.479 . S
Tb662 O686 2.471 . S
Eu663 O674 2.418 . S
Eu663 O675 2.384 . S
Eu663 O678 2.479 . S
Eu663 O679 2.471 . S
Eu663 O680 2.347 . S
Eu663 O683 2.366 . S
Eu663 C693 2.825 . S
C664 O680 1.259 . S
C664 O681 1.265 . S
C665 O682 1.255 . S
C665 O683 1.265 . S
C666 C668 1.380 . S
C666 C669 1.374 . S
C666 C672 1.507 . S
C667 C668 1.384 . S
C667 C671 1.387 . S
C667 H694 0.930 . S
C668 C666 1.380 . S
C668 C667 1.384 . S
C668 H695 0.931 . S
C669 C666 1.374 . S
C669 C670 1.390 . S
C669 H696 0.930 . S
C670 C669 1.390 . S
C670 C671 1.391 . S
C670 H697 0.930 . S
C671 C667 1.387 . S
C671 C670 1.391 . S
C672 Tb662 2.825 . S
C672 C666 1.507 . S
C672 O685 1.238 . S
C672 O686 1.247 . S
O673 Tb662 2.347 . S
O673 C677 1.259 . S
O674 Eu663 2.418 . S
O674 C677 1.265 . S
O675 Eu663 2.384 . S
O675 C684 1.255 . S
O676 Tb662 2.366 . S
O676 C684 1.265 . S
C677 O673 1.259 . S
C677 O674 1.265 . S
O678 Eu663 2.479 . S
O678 C693 1.238 . S
O679 Eu663 2.471 . S
O679 C693 1.247 . S
O680 Eu663 2.347 . S
O680 C664 1.259 . S
O681 Tb662 2.418 . S
O681 C664 1.265 . S
O682 Tb662 2.384 . S
O682 C665 1.255 . S
O683 Eu663 2.366 . S
O683 C665 1.265 . S
C684 O675 1.255 . S
C684 O676 1.265 . S
O685 Tb662 2.479 . S
O685 C672 1.238 . S
O686 Tb662 2.471 . S
O686 C672 1.247 . S
C687 C690 1.380 . S
C687 C691 1.374 . S
C687 C693 1.507 . S
C688 C689 1.387 . S
C688 C692 1.391 . S
C689 C688 1.387 . S
C689 C690 1.384 . S
C689 H698 0.930 . S
C690 C687 1.380 . S
C690 C689 1.384 . S
C690 H699 0.931 . S
C691 C687 1.374 . S
C691 C692 1.390 . S
C691 H700 0.930 . S
C692 C688 1.391 . S
C692 C691 1.390 . S
C692 H701 0.930 . S
C693 Eu663 2.825 . S
C693 O678 1.238 . S
C693 O679 1.247 . S
C693 C687 1.507 . S
H694 C667 0.930 . S
H695 C668 0.931 . S
H696 C669 0.930 . S
H697 C670 0.930 . S
H698 C689 0.930 . S
H699 C690 0.931 . S
H700 C691 0.930 . S
H701 C692 0.930 . S
H702 C710 0.950 . S
H703 C715 0.950 . S
H704 C712 0.950 . S
H705 C714 0.950 . S
H706 C716 0.950 1_556 S
H707 C718 0.950 1_556 S
H708 C720 0.950 . S
H709 C721 0.950 . S
C710 H702 0.950 . S
C710 C711 1.386 . S
C710 C712 1.391 . S
C711 C710 1.386 . S
C711 C715 1.393 . S
C712 H704 0.950 . S
C712 C710 1.391 . S
C712 C713 1.400 . S
C713 C712 1.400 . S
C713 C714 1.398 . S
C713 C719 1.491 . S
C714 H705 0.950 . S
C714 C713 1.398 . S
C714 C715 1.391 . S
C715 H703 0.950 . S
C715 C711 1.393 . S
C715 C714 1.391 . S
C716 H706 0.950 1_554 S
C716 C717 1.386 . S
C716 C718 1.391 . S
C717 C716 1.386 . S
C717 C721 1.393 . S
C718 H707 0.950 1_554 S
C718 C716 1.391 . S
C718 C719 1.400 . S
C719 C713 1.491 . S
C719 C718 1.400 . S
C719 C720 1.398 . S
C720 H708 0.950 . S
C720 C719 1.398 . S
C720 C721 1.391 . S
C721 H709 0.950 . S
C721 C717 1.393 . S
C721 C720 1.391 . S
H722 C730 0.950 . S
H723 C735 0.950 . S
H724 C732 0.950 . S
H725 C734 0.950 . S
H726 C736 0.950 . S
H727 C738 0.950 . S
H728 C740 0.950 . S
H729 C741 0.950 . S
C730 H722 0.950 . S
C730 C731 1.386 . S
C730 C732 1.391 . S
C731 C730 1.386 . S
C731 C735 1.393 . S
C732 H724 0.950 . S
C732 C730 1.391 . S
C732 C733 1.400 . S
C733 C732 1.400 . S
C733 C734 1.398 . S
C733 C739 1.491 . S
C734 H725 0.950 . S
C734 C733 1.398 . S
C734 C735 1.391 . S
C735 H723 0.950 . S
C735 C731 1.393 . S
C735 C734 1.391 . S
C736 H726 0.950 . S
C736 C737 1.386 . S
C736 C738 1.391 . S
C737 C736 1.386 . S
C737 C741 1.393 . S
C738 H727 0.950 . S
C738 C736 1.391 . S
C738 C739 1.400 . S
C739 C733 1.491 . S
C739 C738 1.400 . S
C739 C740 1.398 . S
C740 H728 0.950 . S
C740 C739 1.398 . S
C740 C741 1.391 . S
C741 H729 0.950 . S
C741 C737 1.393 . S
C741 C740 1.391 . S
H742 C750 0.950 . S
H743 C755 0.950 . S
H744 C752 0.950 . S
H745 C754 0.950 . S
H746 C756 0.950 1_556 S
H747 C758 0.950 1_556 S
H748 C760 0.950 . S
H749 C761 0.950 . S
C750 H742 0.950 . S
C750 C751 1.386 . S
C750 C752 1.391 . S
C751 C750 1.386 . S
C751 C755 1.393 . S
C752 H744 0.950 . S
C752 C750 1.391 . S
C752 C753 1.400 . S
C753 C752 1.400 . S
C753 C754 1.398 . S
C753 C759 1.491 . S
C754 H745 0.950 . S
C754 C753 1.398 . S
C754 C755 1.391 . S
C755 H743 0.950 . S
C755 C751 1.393 . S
C755 C754 1.391 . S
C756 H746 0.950 1_554 S
C756 C757 1.386 . S
C756 C758 1.391 . S
C757 C756 1.386 . S
C757 C761 1.393 . S
C758 H747 0.950 1_554 S
C758 C756 1.391 . S
C758 C759 1.400 . S
C759 C753 1.491 . S
C759 C758 1.400 . S
C759 C760 1.398 . S
C760 H748 0.950 . S
C760 C759 1.398 . S
C760 C761 1.391 . S
C761 H749 0.950 . S
C761 C757 1.393 . S
C761 C760 1.391 . S
H762 C770 0.950 . S
H763 C775 0.950 . S
H764 C772 0.950 . S
H765 C774 0.950 . S
H766 C776 0.950 . S
H767 C778 0.921 1_554 S
H768 C780 0.950 . S
H769 C781 0.950 . S
C770 H762 0.950 . S
C770 C771 1.386 . S
C770 C772 1.391 . S
C771 C770 1.386 . S
C771 C775 1.393 . S
C772 H764 0.950 . S
C772 C770 1.391 . S
C772 C773 1.400 . S
C773 C772 1.400 . S
C773 C774 1.398 . S
C773 C779 1.491 . S
C774 H765 0.950 . S
C774 C773 1.398 . S
C774 C775 1.391 . S
C775 H763 0.950 . S
C775 C771 1.393 . S
C775 C774 1.391 . S
C776 H766 0.950 . S
C776 C777 1.386 1_554 S
C776 C778 1.388 1_554 S
C777 C776 1.386 1_556 S
C777 C781 1.393 . S
C778 H767 0.921 1_556 S
C778 C776 1.388 1_556 S
C778 C779 1.435 . S
C779 C773 1.491 . S
C779 C778 1.435 . S
C779 C780 1.398 . S
C780 H768 0.950 . S
C780 C779 1.398 . S
C780 C781 1.391 . S
C781 H769 0.950 . S
C781 C777 1.393 . S
C781 C780 1.391 . S
H782 C790 0.950 . S
H783 C795 0.950 . S
H784 C792 0.950 . S
H785 C794 0.950 . S
H786 C796 0.956 . S
H787 C798 0.952 . S
H788 C800 0.950 . S
H789 C801 0.950 . S
C790 H782 0.950 . S
C790 C791 1.386 . S
C790 C792 1.391 . S
C791 C790 1.386 . S
C791 C795 1.393 . S
C792 H784 0.950 . S
C792 C790 1.391 . S
C792 C793 1.400 . S
C793 C792 1.400 . S
C793 C794 1.398 . S
C793 C799 1.491 . S
C794 H785 0.950 . S
C794 C793 1.398 . S
C794 C795 1.391 . S
C795 H783 0.950 . S
C795 C791 1.393 . S
C795 C794 1.391 . S
C796 H786 0.956 . S
C796 C797 1.382 1_554 S
C796 C798 1.388 1_554 S
C797 C796 1.382 1_556 S
C797 C801 1.393 . S
C798 H787 0.952 . S
C798 C796 1.388 1_556 S
C798 C799 1.400 . S
C799 C793 1.491 . S
C799 C798 1.400 . S
C799 C800 1.398 . S
C800 H788 0.950 . S
C800 C799 1.398 . S
C800 C801 1.391 . S
C801 H789 0.950 . S
C801 C797 1.393 . S
C801 C800 1.391 . S
H802 C810 0.950 . S
H803 C815 0.950 . S
H804 C812 0.950 . S
H805 C814 0.950 . S
H806 C816 0.950 . S
H807 C818 0.950 . S
H808 C820 0.950 . S
H809 C821 0.950 . S
C810 H802 0.950 . S
C810 C811 1.386 . S
C810 C812 1.391 . S
C811 C810 1.386 . S
C811 C815 1.393 1_556 S
C812 H804 0.950 . S
C812 C810 1.391 . S
C812 C813 1.400 . S
C813 C812 1.400 . S
C813 C814 1.398 1_556 S
C813 C819 1.491 . S
C814 H805 0.950 . S
C814 C813 1.398 1_554 S
C814 C815 1.391 . S
C815 H803 0.950 . S
C815 C811 1.393 1_554 S
C815 C814 1.391 . S
C816 H806 0.950 . S
C816 C817 1.346 1_554 S
C816 C818 1.391 . S
C817 C816 1.346 1_556 S
C817 C821 1.443 . S
C818 H807 0.950 . S
C818 C816 1.391 . S
C818 C819 1.400 1_554 S
C819 C813 1.491 . S
C819 C818 1.400 1_556 S
C819 C820 1.398 . S
C820 H808 0.950 . S
C820 C819 1.398 . S
C820 C821 1.391 . S
C821 H809 0.950 . S
C821 C817 1.443 . S
C821 C820 1.391 . S
H822 C830 0.950 . S
H823 C835 0.950 . S
H824 C832 0.950 1_554 S
H825 C834 0.950 . S
H826 C836 0.950 . S
H827 C838 0.950 . S
H828 C840 0.946 1_554 S
H829 C841 0.950 . S
C830 H822 0.950 . S
C830 C831 1.386 . S
C830 C832 1.391 . S
C831 C830 1.386 . S
C831 C835 1.393 . S
C832 H824 0.950 1_556 S
C832 C830 1.391 . S
C832 C833 1.400 . S
C833 C832 1.400 . S
C833 C834 1.398 . S
C833 C839 1.491 . S
C834 H825 0.950 . S
C834 C833 1.398 . S
C834 C835 1.391 . S
C835 H823 0.950 . S
C835 C831 1.393 . S
C835 C834 1.391 . S
C836 H826 0.950 . S
C836 C837 1.386 . S
C836 C838 1.391 . S
C837 C836 1.386 . S
C837 C841 1.393 1_556 S
C838 H827 0.950 . S
C838 C836 1.391 . S
C838 C839 1.400 . S
C839 C833 1.491 . S
C839 C838 1.400 . S
C839 C840 1.404 . S
C840 H828 0.946 1_556 S
C840 C839 1.404 . S
C840 C841 1.389 1_556 S
C841 H829 0.950 . S
C841 C837 1.393 1_554 S
C841 C840 1.389 1_554 S
H842 C850 0.950 . S
H843 C855 0.950 . S
H844 C852 0.950 . S
H845 C854 0.950 . S
H846 C856 0.950 . S
H847 C858 0.950 . S
H848 C860 0.950 . S
H849 C861 0.950 . S
C850 H842 0.950 . S
C850 C851 1.386 . S
C850 C852 1.391 . S
C851 C850 1.386 . S
C851 C855 1.393 . S
C852 H844 0.950 . S
C852 C850 1.391 . S
C852 C853 1.400 . S
C853 C852 1.400 . S
C853 C854 1.398 . S
C853 C859 1.491 . S
C854 H845 0.950 . S
C854 C853 1.398 . S
C854 C855 1.391 . S
C855 H843 0.950 . S
C855 C851 1.393 . S
C855 C854 1.391 . S
C856 H846 0.950 . S
C856 C857 1.386 . S
C856 C858 1.391 . S
C857 C856 1.386 . S
C857 C861 1.393 . S
C858 H847 0.950 . S
C858 C856 1.391 . S
C858 C859 1.400 . S
C859 C853 1.491 . S
C859 C858 1.400 . S
C859 C860 1.398 . S
C860 H848 0.950 . S
C860 C859 1.398 . S
C860 C861 1.391 . S
C861 H849 0.950 . S
C861 C857 1.393 . S
C861 C860 1.391 . S
H862 C870 0.950 . S
H863 C875 0.950 . S
H864 C872 0.950 . S
H865 C874 0.950 . S
H866 C876 0.950 . S
H867 C878 0.950 . S
H868 C880 0.950 . S
H869 C881 0.950 . S
C870 H862 0.950 . S
C870 C871 1.386 1_556 S
C870 C872 1.391 . S
C871 C870 1.386 1_554 S
C871 C875 1.393 . S
C872 H864 0.950 . S
C872 C870 1.391 . S
C872 C873 1.400 1_556 S
C873 C872 1.400 1_554 S
C873 C874 1.398 . S
C873 C879 1.491 . S
C874 H865 0.950 . S
C874 C873 1.398 . S
C874 C875 1.391 . S
C875 H863 0.950 . S
C875 C871 1.393 . S
C875 C874 1.391 . S
C876 H866 0.950 . S
C876 C877 1.386 . S
C876 C878 1.391 . S
C877 C876 1.386 . S
C877 C881 1.393 1_554 S
C878 H867 0.950 . S
C878 C876 1.391 . S
C878 C879 1.400 . S
C879 C873 1.491 . S
C879 C878 1.400 . S
C879 C880 1.398 1_554 S
C880 H868 0.950 . S
C880 C879 1.398 1_556 S
C880 C881 1.391 . S
C881 H869 0.950 . S
C881 C877 1.393 1_556 S
C881 C880 1.391 . S
H882 C890 0.950 . S
H883 C895 0.950 . S
H884 C892 0.950 . S
H885 C894 0.950 . S
H886 C896 0.950 . S
H887 C898 0.950 . S
H888 C900 0.950 . S
H889 C901 0.950 . S
C890 H882 0.950 . S
C890 C891 1.386 . S
C890 C892 1.391 . S
C891 C890 1.386 . S
C891 C895 1.393 . S
C892 H884 0.950 . S
C892 C890 1.391 . S
C892 C893 1.400 . S
C893 C892 1.400 . S
C893 C894 1.398 . S
C893 C899 1.491 . S
C894 H885 0.950 . S
C894 C893 1.398 . S
C894 C895 1.391 . S
C895 H883 0.950 . S
C895 C891 1.393 . S
C895 C894 1.391 . S
C896 H886 0.950 . S
C896 C897 1.386 . S
C896 C898 1.391 . S
C897 C896 1.386 . S
C897 C901 1.393 . S
C898 H887 0.950 . S
C898 C896 1.391 . S
C898 C899 1.400 . S
C899 C893 1.491 . S
C899 C898 1.400 . S
C899 C900 1.398 . S
C900 H888 0.950 . S
C900 C899 1.398 . S
C900 C901 1.391 . S
C901 H889 0.950 . S
C901 C897 1.393 . S
C901 C900 1.391 . S
H902 C910 0.950 . S
H903 C915 0.950 . S
H904 C912 0.950 . S
H905 C914 0.950 . S
H906 C916 0.950 . S
H907 C918 0.950 . S
H908 C920 0.950 . S
H909 C921 0.950 . S
C910 H902 0.950 . S
C910 C911 1.386 . S
C910 C912 1.391 . S
C911 C910 1.386 . S
C911 C915 1.393 . S
C912 H904 0.950 . S
C912 C910 1.391 . S
C912 C913 1.400 . S
C913 C912 1.400 . S
C913 C914 1.398 . S
C913 C919 1.491 . S
C914 H905 0.950 . S
C914 C913 1.398 . S
C914 C915 1.391 . S
C915 H903 0.950 . S
C915 C911 1.393 . S
C915 C914 1.391 . S
C916 H906 0.950 . S
C916 C917 1.386 . S
C916 C918 1.391 . S
C917 C916 1.386 . S
C917 C921 1.393 . S
C918 H907 0.950 . S
C918 C916 1.391 . S
C918 C919 1.400 . S
C919 C913 1.491 . S
C919 C918 1.400 . S
C919 C920 1.398 . S
C920 H908 0.950 . S
C920 C919 1.398 . S
C920 C921 1.391 . S
C921 H909 0.950 . S
C921 C917 1.393 . S
C921 C920 1.391 . S
H922 C930 0.950 . S
H923 C935 0.950 . S
H924 C932 0.950 . S
H925 C934 0.950 . S
H926 C936 0.950 . S
H927 C938 0.950 . S
H928 C940 0.950 . S
H929 C941 0.950 . S
C930 H922 0.950 . S
C930 C931 1.386 . S
C930 C932 1.391 . S
C931 C930 1.386 . S
C931 C935 1.393 . S
C932 H924 0.950 . S
C932 C930 1.391 . S
C932 C933 1.400 . S
C933 C932 1.400 . S
C933 C934 1.398 . S
C933 C939 1.491 . S
C934 H925 0.950 . S
C934 C933 1.398 . S
C934 C935 1.391 . S
C935 H923 0.950 . S
C935 C931 1.393 . S
C935 C934 1.391 . S
C936 H926 0.950 . S
C936 C937 1.386 . S
C936 C938 1.391 . S
C937 C936 1.386 . S
C937 C941 1.393 . S
C938 H927 0.950 . S
C938 C936 1.391 . S
C938 C939 1.400 . S
C939 C933 1.491 . S
C939 C938 1.400 . S
C939 C940 1.398 . S
C940 H928 0.950 . S
C940 C939 1.398 . S
C940 C941 1.391 . S
C941 H929 0.950 . S
C941 C937 1.393 . S
C941 C940 1.391 . S
H942 C950 0.950 . S
H943 C955 0.950 . S
H944 C952 0.950 . S
H945 C954 0.950 . S
H946 C956 0.950 . S
H947 C958 0.950 . S
H948 C960 0.950 1_655 S
H949 C961 0.950 . S
C950 H942 0.950 . S
C950 C951 1.386 . S
C950 C952 1.391 . S
C951 C950 1.386 . S
C951 C955 1.393 . S
C952 H944 0.950 . S
C952 C950 1.391 . S
C952 C953 1.400 . S
C953 C952 1.400 . S
C953 C954 1.398 . S
C953 C959 1.491 1_655 S
C954 H945 0.950 . S
C954 C953 1.398 . S
C954 C955 1.391 . S
C955 H943 0.950 . S
C955 C951 1.393 . S
C955 C954 1.391 . S
C956 H946 0.950 . S
C956 C957 1.386 . S
C956 C958 1.391 . S
C957 C956 1.386 . S
C957 C961 1.393 . S
C958 H947 0.950 . S
C958 C956 1.391 . S
C958 C959 1.400 . S
C959 C953 1.491 1_455 S
C959 C958 1.400 . S
C959 C960 1.398 . S
C960 H948 0.950 1_455 S
C960 C959 1.398 . S
C960 C961 1.391 . S
C961 H949 0.950 . S
C961 C957 1.393 . S
C961 C960 1.391 . S
H962 C970 0.950 . S
H963 C975 0.950 . S
H964 C972 0.950 . S
H965 C974 0.950 . S
H966 C976 0.950 . S
H967 C978 0.950 . S
H968 C980 0.950 . S
H969 C981 0.950 . S
C970 H962 0.950 . S
C970 C971 1.386 . S
C970 C972 1.391 . S
C971 C970 1.386 . S
C971 C975 1.393 . S
C972 H964 0.950 . S
C972 C970 1.391 . S
C972 C973 1.400 . S
C973 C972 1.400 . S
C973 C974 1.398 . S
C973 C979 1.491 . S
C974 H965 0.950 . S
C974 C973 1.398 . S
C974 C975 1.391 . S
C975 H963 0.950 . S
C975 C971 1.393 . S
C975 C974 1.391 . S
C976 H966 0.950 . S
C976 C977 1.386 . S
C976 C978 1.391 . S
C977 C976 1.386 . S
C977 C981 1.393 . S
C978 H967 0.950 . S
C978 C976 1.391 . S
C978 C979 1.400 . S
C979 C973 1.491 . S
C979 C978 1.400 . S
C979 C980 1.398 . S
C980 H968 0.950 . S
C980 C979 1.398 . S
C980 C981 1.391 . S
C981 H969 0.950 . S
C981 C977 1.393 . S
C981 C980 1.391 . S
H982 C990 0.950 . S
H983 C995 0.950 . S
H984 C992 0.950 . S
H985 C994 0.950 . S
H986 C996 0.950 . S
H987 C998 0.950 . S
H988 C1000 0.950 . S
H989 C1001 0.950 . S
C990 H982 0.950 . S
C990 C991 1.386 . S
C990 C992 1.391 . S
C991 C990 1.386 . S
C991 C995 1.393 . S
C992 H984 0.950 . S
C992 C990 1.391 . S
C992 C993 1.400 . S
C993 C992 1.400 . S
C993 C994 1.398 . S
C993 C999 1.491 . S
C994 H985 0.950 . S
C994 C993 1.398 . S
C994 C995 1.391 . S
C995 H983 0.950 . S
C995 C991 1.393 . S
C995 C994 1.391 . S
C996 H986 0.950 . S
C996 C997 1.386 . S
C996 C998 1.391 1_565 S
C997 C996 1.386 . S
C997 C1001 1.393 . S
C998 H987 0.950 . S
C998 C996 1.391 1_545 S
C998 C999 1.400 . S
C999 C993 1.491 . S
C999 C998 1.400 . S
C999 C1000 1.398 1_545 S
C1000 H988 0.950 . S
C1000 C999 1.398 1_565 S
C1000 C1001 1.391 . S
C1001 H989 0.950 . S
C1001 C997 1.393 . S
C1001 C1000 1.391 . S
H1002 C1010 0.950 . S
H1003 C1015 0.950 . S
H1004 C1012 0.950 . S
H1005 C1014 0.950 . S
H1006 C1016 0.950 . S
H1007 C1018 0.950 . S
H1008 C1020 0.950 . S
H1009 C1021 0.950 . S
C1010 H1002 0.950 . S
C1010 C1011 1.386 . S
C1010 C1012 1.391 . S
C1011 C1010 1.386 . S
C1011 C1015 1.393 . S
C1012 H1004 0.950 . S
C1012 C1010 1.391 . S
C1012 C1013 1.400 . S
C1013 C1012 1.400 . S
C1013 C1014 1.398 . S
C1013 C1019 1.491 . S
C1014 H1005 0.950 . S
C1014 C1013 1.398 . S
C1014 C1015 1.391 . S
C1015 H1003 0.950 . S
C1015 C1011 1.393 . S
C1015 C1014 1.391 . S
C1016 H1006 0.950 . S
C1016 C1017 1.386 . S
C1016 C1018 1.391 . S
C1017 C1016 1.386 . S
C1017 C1021 1.393 . S
C1018 H1007 0.950 . S
C1018 C1016 1.391 . S
C1018 C1019 1.400 . S
C1019 C1013 1.491 . S
C1019 C1018 1.400 . S
C1019 C1020 1.398 . S
C1020 H1008 0.950 . S
C1020 C1019 1.398 . S
C1020 C1021 1.391 . S
C1021 H1009 0.950 . S
C1021 C1017 1.393 . S
C1021 C1020 1.391 . S
H1022 C1030 0.950 . S
H1023 C1035 0.950 . S
H1024 C1032 0.950 . S
H1025 C1034 0.950 . S
H1026 C1036 0.950 . S
H1027 C1038 0.950 . S
H1028 C1040 0.950 . S
H1029 C1041 0.950 . S
C1030 H1022 0.950 . S
C1030 C1031 1.386 . S
C1030 C1032 1.391 . S
C1031 C1030 1.386 . S
C1031 C1035 1.393 . S
C1032 H1024 0.950 . S
C1032 C1030 1.391 . S
C1032 C1033 1.400 . S
C1033 C1032 1.400 . S
C1033 C1034 1.398 . S
C1033 C1039 1.491 . S
C1034 H1025 0.950 . S
C1034 C1033 1.398 . S
C1034 C1035 1.391 . S
C1035 H1023 0.950 . S
C1035 C1031 1.393 . S
C1035 C1034 1.391 . S
C1036 H1026 0.950 . S
C1036 C1037 1.386 . S
C1036 C1038 1.391 . S
C1037 C1036 1.386 . S
C1037 C1041 1.393 . S
C1038 H1027 0.950 . S
C1038 C1036 1.391 . S
C1038 C1039 1.400 . S
C1039 C1033 1.491 . S
C1039 C1038 1.400 . S
C1039 C1040 1.398 . S
C1040 H1028 0.950 . S
C1040 C1039 1.398 . S
C1040 C1041 1.391 . S
C1041 H1029 0.950 . S
C1041 C1037 1.393 . S
C1041 C1040 1.391 . S
H1042 C1050 0.950 . S
H1043 C1055 0.950 . S
H1044 C1052 0.950 . S
H1045 C1054 0.950 . S
H1046 C1056 0.950 . S
H1047 C1058 0.950 . S
H1048 C1060 0.950 . S
H1049 C1061 0.950 . S
C1050 H1042 0.950 . S
C1050 C1051 1.386 . S
C1050 C1052 1.391 . S
C1051 C1050 1.386 . S
C1051 C1055 1.393 . S
C1052 H1044 0.950 . S
C1052 C1050 1.391 . S
C1052 C1053 1.400 . S
C1053 C1052 1.400 . S
C1053 C1054 1.398 . S
C1053 C1059 1.491 . S
C1054 H1045 0.950 . S
C1054 C1053 1.398 . S
C1054 C1055 1.391 . S
C1055 H1043 0.950 . S
C1055 C1051 1.393 . S
C1055 C1054 1.391 . S
C1056 H1046 0.950 . S
C1056 C1057 1.386 . S
C1056 C1058 1.391 . S
C1057 C1056 1.386 . S
C1057 C1061 1.393 . S
C1058 H1047 0.950 . S
C1058 C1056 1.391 . S
C1058 C1059 1.400 . S
C1059 C1053 1.491 . S
C1059 C1058 1.400 . S
C1059 C1060 1.398 . S
C1060 H1048 0.950 . S
C1060 C1059 1.398 . S
C1060 C1061 1.391 . S
C1061 H1049 0.950 . S
C1061 C1057 1.393 . S
C1061 C1060 1.391 . S
H1062 C1070 0.950 . S
H1063 C1075 0.950 . S
H1064 C1072 0.950 . S
H1065 C1074 0.950 . S
H1066 C1076 0.950 . S
H1067 C1078 0.950 . S
H1068 C1080 0.950 . S
H1069 C1081 0.950 . S
C1070 H1062 0.950 . S
C1070 C1071 1.386 . S
C1070 C1072 1.391 . S
C1071 C1070 1.386 . S
C1071 C1075 1.393 . S
C1072 H1064 0.950 . S
C1072 C1070 1.391 . S
C1072 C1073 1.400 . S
C1073 C1072 1.400 . S
C1073 C1074 1.398 . S
C1073 C1079 1.491 . S
C1074 H1065 0.950 . S
C1074 C1073 1.398 . S
C1074 C1075 1.391 . S
C1075 H1063 0.950 . S
C1075 C1071 1.393 . S
C1075 C1074 1.391 . S
C1076 H1066 0.950 . S
C1076 C1077 1.386 . S
C1076 C1078 1.391 . S
C1077 C1076 1.386 . S
C1077 C1081 1.393 . S
C1078 H1067 0.950 . S
C1078 C1076 1.391 . S
C1078 C1079 1.400 . S
C1079 C1073 1.491 . S
C1079 C1078 1.400 . S
C1079 C1080 1.398 . S
C1080 H1068 0.950 . S
C1080 C1079 1.398 . S
C1080 C1081 1.391 . S
C1081 H1069 0.950 . S
C1081 C1077 1.393 . S
C1081 C1080 1.391 . S
H1082 C1090 0.950 . S
H1083 C1095 0.950 . S
H1084 C1092 0.950 . S
H1085 C1094 0.950 . S
H1086 C1096 0.950 . S
H1087 C1098 0.950 . S
H1088 C1100 0.950 . S
H1089 C1101 0.950 . S
C1090 H1082 0.950 . S
C1090 C1091 1.386 . S
C1090 C1092 1.391 . S
C1091 C1090 1.386 . S
C1091 C1095 1.393 . S
C1092 H1084 0.950 . S
C1092 C1090 1.391 . S
C1092 C1093 1.400 . S
C1093 C1092 1.400 . S
C1093 C1094 1.398 . S
C1093 C1099 1.491 . S
C1094 H1085 0.950 . S
C1094 C1093 1.398 . S
C1094 C1095 1.391 . S
C1095 H1083 0.950 . S
C1095 C1091 1.393 . S
C1095 C1094 1.391 . S
C1096 H1086 0.950 . S
C1096 C1097 1.386 . S
C1096 C1098 1.391 . S
C1097 C1096 1.386 . S
C1097 C1101 1.393 . S
C1098 H1087 0.950 . S
C1098 C1096 1.391 . S
C1098 C1099 1.400 . S
C1099 C1093 1.491 . S
C1099 C1098 1.400 . S
C1099 C1100 1.398 . S
C1100 H1088 0.950 . S
C1100 C1099 1.398 . S
C1100 C1101 1.391 . S
C1101 H1089 0.950 . S
C1101 C1097 1.393 . S
C1101 C1100 1.391 . S
H1102 C1110 0.950 . S
H1103 C1115 0.950 . S
H1104 C1112 0.950 . S
H1105 C1114 0.950 . S
H1106 C1116 0.950 . S
H1107 C1118 0.950 . S
H1108 C1120 0.950 . S
H1109 C1121 0.950 . S
C1110 H1102 0.950 . S
C1110 C1111 1.386 . S
C1110 C1112 1.391 . S
C1111 C1110 1.386 . S
C1111 C1115 1.393 . S
C1112 H1104 0.950 . S
C1112 C1110 1.391 . S
C1112 C1113 1.400 . S
C1113 C1112 1.400 . S
C1113 C1114 1.398 . S
C1113 C1119 1.491 . S
C1114 H1105 0.950 . S
C1114 C1113 1.398 . S
C1114 C1115 1.391 . S
C1115 H1103 0.950 . S
C1115 C1111 1.393 . S
C1115 C1114 1.391 . S
C1116 H1106 0.950 . S
C1116 C1117 1.386 . S
C1116 C1118 1.391 . S
C1117 C1116 1.386 . S
C1117 C1121 1.393 . S
C1118 H1107 0.950 . S
C1118 C1116 1.391 . S
C1118 C1119 1.400 . S
C1119 C1113 1.491 . S
C1119 C1118 1.400 . S
C1119 C1120 1.398 . S
C1120 H1108 0.950 . S
C1120 C1119 1.398 . S
C1120 C1121 1.391 . S
C1121 H1109 0.950 . S
C1121 C1117 1.393 . S
C1121 C1120 1.391 . S
H1122 C1130 0.950 1_545 S
H1123 C1135 0.935 1_545 S
H1124 C1132 0.950 . S
H1125 C1134 0.950 . S
H1126 C1136 0.950 . S
H1127 C1138 0.950 . S
H1128 C1140 0.950 . S
H1129 C1141 0.950 . S
C1130 H1122 0.950 1_565 S
C1130 C1131 1.386 1_565 S
C1130 C1132 1.391 . S
C1131 C1130 1.386 1_545 S
C1131 C1135 1.392 1_545 S
C1132 H1124 0.950 . S
C1132 C1130 1.391 . S
C1132 C1133 1.400 . S
C1133 C1132 1.400 . S
C1133 C1134 1.398 . S
C1133 C1139 1.491 . S
C1134 H1125 0.950 . S
C1134 C1133 1.398 . S
C1134 C1135 1.406 . S
C1135 H1123 0.935 1_565 S
C1135 C1131 1.392 1_565 S
C1135 C1134 1.406 . S
C1136 H1126 0.950 . S
C1136 C1137 1.386 . S
C1136 C1138 1.391 . S
C1137 C1136 1.386 . S
C1137 C1141 1.393 . S
C1138 H1127 0.950 . S
C1138 C1136 1.391 . S
C1138 C1139 1.400 . S
C1139 C1133 1.491 . S
C1139 C1138 1.400 . S
C1139 C1140 1.398 . S
C1140 H1128 0.950 . S
C1140 C1139 1.398 . S
C1140 C1141 1.391 . S
C1141 H1129 0.950 . S
C1141 C1137 1.393 . S
C1141 C1140 1.391 . S
H1142 C1150 0.950 . S
H1143 C1155 0.950 . S
H1144 C1152 0.950 . S
H1145 C1154 0.950 . S
H1146 C1156 0.950 . S
H1147 C1158 0.950 . S
H1148 C1160 0.950 . S
H1149 C1161 0.950 . S
C1150 H1142 0.950 . S
C1150 C1151 1.386 . S
C1150 C1152 1.391 . S
C1151 C1150 1.386 . S
C1151 C1155 1.393 . S
C1152 H1144 0.950 . S
C1152 C1150 1.391 . S
C1152 C1153 1.400 . S
C1153 C1152 1.400 . S
C1153 C1154 1.398 . S
C1153 C1159 1.491 . S
C1154 H1145 0.950 . S
C1154 C1153 1.398 . S
C1154 C1155 1.391 . S
C1155 H1143 0.950 . S
C1155 C1151 1.393 . S
C1155 C1154 1.391 . S
C1156 H1146 0.950 . S
C1156 C1157 1.386 . S
C1156 C1158 1.391 . S
C1157 C1156 1.386 . S
C1157 C1161 1.393 . S
C1158 H1147 0.950 . S
C1158 C1156 1.391 . S
C1158 C1159 1.400 . S
C1159 C1153 1.491 . S
C1159 C1158 1.400 . S
C1159 C1160 1.398 . S
C1160 H1148 0.950 . S
C1160 C1159 1.398 . S
C1160 C1161 1.391 . S
C1161 H1149 0.950 . S
C1161 C1157 1.393 . S
C1161 C1160 1.391 . S
H1162 C1170 0.950 . S
H1163 C1175 0.950 . S
H1164 C1172 0.950 . S
H1165 C1174 0.950 . S
H1166 C1176 0.950 . S
H1167 C1178 0.950 . S
H1168 C1180 0.950 . S
H1169 C1181 0.950 . S
C1170 H1162 0.950 . S
C1170 C1171 1.386 . S
C1170 C1172 1.391 . S
C1171 C1170 1.386 . S
C1171 C1175 1.393 . S
C1172 H1164 0.950 . S
C1172 C1170 1.391 . S
C1172 C1173 1.400 . S
C1173 C1172 1.400 . S
C1173 C1174 1.398 . S
C1173 C1179 1.491 . S
C1174 H1165 0.950 . S
C1174 C1173 1.398 . S
C1174 C1175 1.391 . S
C1175 H1163 0.950 . S
C1175 C1171 1.393 . S
C1175 C1174 1.391 . S
C1176 H1166 0.950 . S
C1176 C1177 1.386 . S
C1176 C1178 1.391 . S
C1177 C1176 1.386 . S
C1177 C1181 1.393 . S
C1178 H1167 0.950 . S
C1178 C1176 1.391 . S
C1178 C1179 1.400 . S
C1179 C1173 1.491 . S
C1179 C1178 1.400 . S
C1179 C1180 1.398 . S
C1180 H1168 0.950 . S
C1180 C1179 1.398 . S
C1180 C1181 1.391 . S
C1181 H1169 0.950 . S
C1181 C1177 1.393 . S
C1181 C1180 1.391 . S
H1182 C1190 0.950 . S
H1183 C1195 0.950 . S
H1184 C1192 0.950 . S
H1185 C1194 0.950 . S
H1186 C1196 0.950 . S
H1187 C1198 0.950 . S
H1188 C1200 0.950 . S
H1189 C1201 0.950 . S
C1190 H1182 0.950 . S
C1190 C1191 1.386 . S
C1190 C1192 1.391 . S
C1191 C1190 1.386 . S
C1191 C1195 1.393 . S
C1192 H1184 0.950 . S
C1192 C1190 1.391 . S
C1192 C1193 1.400 . S
C1193 C1192 1.400 . S
C1193 C1194 1.398 . S
C1193 C1199 1.491 . S
C1194 H1185 0.950 . S
C1194 C1193 1.398 . S
C1194 C1195 1.391 . S
C1195 H1183 0.950 . S
C1195 C1191 1.393 . S
C1195 C1194 1.391 . S
C1196 H1186 0.950 . S
C1196 C1197 1.386 . S
C1196 C1198 1.391 . S
C1197 C1196 1.386 . S
C1197 C1201 1.393 . S
C1198 H1187 0.950 . S
C1198 C1196 1.391 . S
C1198 C1199 1.400 . S
C1199 C1193 1.491 . S
C1199 C1198 1.400 . S
C1199 C1200 1.398 . S
C1200 H1188 0.950 . S
C1200 C1199 1.398 . S
C1200 C1201 1.391 . S
C1201 H1189 0.950 . S
C1201 C1197 1.393 . S
C1201 C1200 1.391 . S
H1202 C1210 0.950 . S
H1203 C1215 0.950 . S
H1204 C1212 0.950 . S
H1205 C1214 0.950 . S
H1206 C1216 0.950 . S
H1207 C1218 0.950 . S
H1208 C1220 0.950 . S
H1209 C1221 0.950 . S
C1210 H1202 0.950 . S
C1210 C1211 1.386 . S
C1210 C1212 1.391 . S
C1211 C1210 1.386 . S
C1211 C1215 1.393 . S
C1212 H1204 0.950 . S
C1212 C1210 1.391 . S
C1212 C1213 1.400 . S
C1213 C1212 1.400 . S
C1213 C1214 1.398 . S
C1213 C1219 1.491 . S
C1214 H1205 0.950 . S
C1214 C1213 1.398 . S
C1214 C1215 1.391 . S
C1215 H1203 0.950 . S
C1215 C1211 1.393 . S
C1215 C1214 1.391 . S
C1216 H1206 0.950 . S
C1216 C1217 1.386 . S
C1216 C1218 1.391 . S
C1217 C1216 1.386 . S
C1217 C1221 1.393 . S
C1218 H1207 0.950 . S
C1218 C1216 1.391 . S
C1218 C1219 1.400 . S
C1219 C1213 1.491 . S
C1219 C1218 1.400 . S
C1219 C1220 1.398 . S
C1220 H1208 0.950 . S
C1220 C1219 1.398 . S
C1220 C1221 1.391 . S
C1221 H1209 0.950 . S
C1221 C1217 1.393 . S
C1221 C1220 1.391 . S
H1222 C1230 0.950 . S
H1223 C1235 0.950 . S
H1224 C1232 0.950 . S
H1225 C1234 0.950 . S
H1226 C1236 0.950 . S
H1227 C1238 0.950 . S
H1228 C1240 0.950 . S
H1229 C1241 0.950 . S
C1230 H1222 0.950 . S
C1230 C1231 1.386 . S
C1230 C1232 1.391 . S
C1231 C1230 1.386 . S
C1231 C1235 1.393 . S
C1232 H1224 0.950 . S
C1232 C1230 1.391 . S
C1232 C1233 1.400 . S
C1233 C1232 1.400 . S
C1233 C1234 1.398 . S
C1233 C1239 1.491 . S
C1234 H1225 0.950 . S
C1234 C1233 1.398 . S
C1234 C1235 1.391 . S
C1235 H1223 0.950 . S
C1235 C1231 1.393 . S
C1235 C1234 1.391 . S
C1236 H1226 0.950 . S
C1236 C1237 1.386 . S
C1236 C1238 1.391 . S
C1237 C1236 1.386 . S
C1237 C1241 1.393 . S
C1238 H1227 0.950 . S
C1238 C1236 1.391 . S
C1238 C1239 1.400 . S
C1239 C1233 1.491 . S
C1239 C1238 1.400 . S
C1239 C1240 1.398 . S
C1240 H1228 0.950 . S
C1240 C1239 1.398 . S
C1240 C1241 1.391 . S
C1241 H1229 0.950 . S
C1241 C1237 1.393 . S
C1241 C1240 1.391 . S
H1242 C1250 0.950 . S
H1243 C1255 0.950 . S
H1244 C1252 0.950 . S
H1245 C1254 0.950 . S
H1246 C1256 0.950 . S
H1247 C1258 0.950 . S
H1248 C1260 0.950 1_565 S
H1249 C1261 0.950 . S
C1250 H1242 0.950 . S
C1250 C1251 1.386 . S
C1250 C1252 1.391 . S
C1251 C1250 1.386 . S
C1251 C1255 1.393 . S
C1252 H1244 0.950 . S
C1252 C1250 1.391 . S
C1252 C1253 1.400 . S
C1253 C1252 1.400 . S
C1253 C1254 1.398 . S
C1253 C1259 1.491 1_565 S
C1254 H1245 0.950 . S
C1254 C1253 1.398 . S
C1254 C1255 1.391 . S
C1255 H1243 0.950 . S
C1255 C1251 1.393 . S
C1255 C1254 1.391 . S
C1256 H1246 0.950 . S
C1256 C1257 1.386 . S
C1256 C1258 1.391 . S
C1257 C1256 1.386 . S
C1257 C1261 1.393 . S
C1258 H1247 0.950 . S
C1258 C1256 1.391 . S
C1258 C1259 1.400 . S
C1259 C1253 1.491 1_545 S
C1259 C1258 1.400 . S
C1259 C1260 1.398 . S
C1260 H1248 0.950 1_545 S
C1260 C1259 1.398 . S
C1260 C1261 1.391 . S
C1261 H1249 0.950 . S
C1261 C1257 1.393 . S
C1261 C1260 1.391 . S
H1262 C1270 0.950 . S
H1263 C1275 0.950 . S
H1264 C1272 0.950 . S
H1265 C1274 0.950 1_655 S
H1266 C1276 0.950 . S
H1267 C1278 0.950 . S
H1268 C1280 0.950 1_455 S
H1269 C1281 0.950 . S
C1270 H1262 0.950 . S
C1270 C1271 1.386 . S
C1270 C1272 1.391 . S
C1271 C1270 1.386 . S
C1271 C1275 1.393 . S
C1272 H1264 0.950 . S
C1272 C1270 1.391 . S
C1272 C1273 1.400 . S
C1273 C1272 1.400 . S
C1273 C1274 1.398 . S
C1273 C1279 1.491 1_455 S
C1274 H1265 0.950 1_455 S
C1274 C1273 1.398 . S
C1274 C1275 1.391 . S
C1275 H1263 0.950 . S
C1275 C1271 1.393 . S
C1275 C1274 1.391 . S
C1276 H1266 0.950 . S
C1276 C1277 1.386 . S
C1276 C1278 1.391 . S
C1277 C1276 1.386 . S
C1277 C1281 1.393 . S
C1278 H1267 0.950 . S
C1278 C1276 1.391 . S
C1278 C1279 1.400 . S
C1279 C1273 1.491 1_655 S
C1279 C1278 1.400 . S
C1279 C1280 1.398 . S
C1280 H1268 0.950 1_655 S
C1280 C1279 1.398 . S
C1280 C1281 1.391 . S
C1281 H1269 0.950 . S
C1281 C1277 1.393 . S
C1281 C1280 1.391 . S
H1282 C1290 0.950 . S
H1283 C1295 0.950 . S
H1284 C1292 0.950 . S
H1285 C1294 0.950 . S
H1286 C1296 0.950 . S
H1287 C1298 0.950 . S
H1288 C1300 0.950 . S
H1289 C1301 0.950 . S
C1290 H1282 0.950 . S
C1290 C1291 1.386 . S
C1290 C1292 1.391 . S
C1291 C1290 1.386 . S
C1291 C1295 1.393 . S
C1292 H1284 0.950 . S
C1292 C1290 1.391 . S
C1292 C1293 1.400 . S
C1293 C1292 1.400 . S
C1293 C1294 1.398 . S
C1293 C1299 1.491 . S
C1294 H1285 0.950 . S
C1294 C1293 1.398 . S
C1294 C1295 1.391 . S
C1295 H1283 0.950 . S
C1295 C1291 1.393 . S
C1295 C1294 1.391 . S
C1296 H1286 0.950 . S
C1296 C1297 1.386 . S
C1296 C1298 1.391 . S
C1297 C1296 1.386 . S
C1297 C1301 1.393 . S
C1298 H1287 0.950 . S
C1298 C1296 1.391 . S
C1298 C1299 1.400 . S
C1299 C1293 1.491 . S
C1299 C1298 1.400 . S
C1299 C1300 1.398 . S
C1300 H1288 0.950 . S
C1300 C1299 1.398 . S
C1300 C1301 1.391 . S
C1301 H1289 0.950 . S
C1301 C1297 1.393 . S
C1301 C1300 1.391 . S
H1302 C1310 0.986 . S
H1303 C1315 0.950 . S
H1304 C1312 0.950 . S
H1305 C1314 0.950 . S
H1306 C1316 0.950 . S
H1307 C1318 0.950 . S
H1308 C1320 0.950 . S
H1309 C1321 0.950 . S
C1310 H1302 0.986 . S
C1310 C1311 1.389 . S
C1310 C1312 1.353 1_455 S
C1311 C1310 1.389 . S
C1311 C1315 1.393 1_455 S
C1312 H1304 0.950 . S
C1312 C1310 1.353 1_655 S
C1312 C1313 1.400 . S
C1313 C1312 1.400 . S
C1313 C1314 1.398 . S
C1313 C1319 1.491 . S
C1314 H1305 0.950 . S
C1314 C1313 1.398 . S
C1314 C1315 1.391 . S
C1315 H1303 0.950 . S
C1315 C1311 1.393 1_655 S
C1315 C1314 1.391 . S
C1316 H1306 0.950 . S
C1316 C1317 1.386 . S
C1316 C1318 1.391 . S
C1317 C1316 1.386 . S
C1317 C1321 1.393 . S
C1318 H1307 0.950 . S
C1318 C1316 1.391 . S
C1318 C1319 1.400 . S
C1319 C1313 1.491 . S
C1319 C1318 1.400 . S
C1319 C1320 1.398 . S
C1320 H1308 0.950 . S
C1320 C1319 1.398 . S
C1320 C1321 1.391 . S
C1321 H1309 0.950 . S
C1321 C1317 1.393 . S
C1321 C1320 1.391 . S
H1322 C1330 0.950 . S
H1323 C1335 0.950 . S
H1324 C1332 0.950 . S
H1325 C1334 0.950 . S
H1326 C1336 0.950 . S
H1327 C1338 0.950 . S
H1328 C1340 0.950 . S
H1329 C1341 0.950 . S
C1330 H1322 0.950 . S
C1330 C1331 1.386 . S
C1330 C1332 1.391 . S
C1331 C1330 1.386 . S
C1331 C1335 1.393 . S
C1332 H1324 0.950 . S
C1332 C1330 1.391 . S
C1332 C1333 1.400 . S
C1333 C1332 1.400 . S
C1333 C1334 1.398 . S
C1333 C1339 1.491 . S
C1334 H1325 0.950 . S
C1334 C1333 1.398 . S
C1334 C1335 1.391 . S
C1335 H1323 0.950 . S
C1335 C1331 1.393 . S
C1335 C1334 1.391 . S
C1336 H1326 0.950 . S
C1336 C1337 1.386 . S
C1336 C1338 1.391 . S
C1337 C1336 1.386 . S
C1337 C1341 1.393 . S
C1338 H1327 0.950 . S
C1338 C1336 1.391 . S
C1338 C1339 1.400 . S
C1339 C1333 1.491 . S
C1339 C1338 1.400 . S
C1339 C1340 1.398 . S
C1340 H1328 0.950 . S
C1340 C1339 1.398 . S
C1340 C1341 1.391 . S
C1341 H1329 0.950 . S
C1341 C1337 1.393 . S
C1341 C1340 1.391 . S
H1342 C1350 0.969 . S
H1343 C1355 0.950 1_565 S
H1344 C1352 0.950 . S
H1345 C1354 0.950 . S
H1346 C1356 0.950 . S
H1347 C1358 0.950 . S
H1348 C1360 0.950 . S
H1349 C1361 0.950 . S
C1350 H1342 0.969 . S
C1350 C1351 1.386 1_545 S
C1350 C1352 1.391 . S
C1351 C1350 1.386 1_565 S
C1351 C1355 1.393 1_565 S
C1352 H1344 0.950 . S
C1352 C1350 1.391 . S
C1352 C1353 1.400 . S
C1353 C1352 1.400 . S
C1353 C1354 1.398 . S
C1353 C1359 1.491 . S
C1354 H1345 0.950 . S
C1354 C1353 1.398 . S
C1354 C1355 1.391 . S
C1355 H1343 0.950 1_545 S
C1355 C1351 1.393 1_545 S
C1355 C1354 1.391 . S
C1356 H1346 0.950 . S
C1356 C1357 1.386 . S
C1356 C1358 1.391 . S
C1357 C1356 1.386 . S
C1357 C1361 1.393 . S
C1358 H1347 0.950 . S
C1358 C1356 1.391 . S
C1358 C1359 1.400 . S
C1359 C1353 1.491 . S
C1359 C1358 1.400 . S
C1359 C1360 1.398 . S
C1360 H1348 0.950 . S
C1360 C1359 1.398 . S
C1360 C1361 1.391 . S
C1361 H1349 0.950 . S
C1361 C1357 1.393 . S
C1361 C1360 1.391 . S
H1362 C1370 0.950 . S
H1363 C1375 0.950 . S
H1364 C1372 0.950 . S
H1365 C1374 0.950 . S
H1366 C1376 0.950 . S
H1367 C1378 0.950 . S
H1368 C1380 0.950 . S
H1369 C1381 0.950 . S
C1370 H1362 0.950 . S
C1370 C1371 1.386 . S
C1370 C1372 1.391 . S
C1371 C1370 1.386 . S
C1371 C1375 1.393 . S
C1372 H1364 0.950 . S
C1372 C1370 1.391 . S
C1372 C1373 1.400 . S
C1373 C1372 1.400 . S
C1373 C1374 1.398 . S
C1373 C1379 1.491 . S
C1374 H1365 0.950 . S
C1374 C1373 1.398 . S
C1374 C1375 1.391 . S
C1375 H1363 0.950 . S
C1375 C1371 1.393 . S
C1375 C1374 1.391 . S
C1376 H1366 0.950 . S
C1376 C1377 1.386 . S
C1376 C1378 1.391 . S
C1377 C1376 1.386 . S
C1377 C1381 1.393 . S
C1378 H1367 0.950 . S
C1378 C1376 1.391 . S
C1378 C1379 1.400 . S
C1379 C1373 1.491 . S
C1379 C1378 1.400 . S
C1379 C1380 1.398 . S
C1380 H1368 0.950 . S
C1380 C1379 1.398 . S
C1380 C1381 1.391 . S
C1381 H1369 0.950 . S
C1381 C1377 1.393 . S
C1381 C1380 1.391 . S
H1382 C1390 0.950 . S
H1383 C1395 0.950 . S
H1384 C1392 0.950 . S
H1385 C1394 0.950 . S
H1386 C1396 0.950 . S
H1387 C1398 0.950 . S
H1388 C1400 0.950 . S
H1389 C1401 0.950 . S
C1390 H1382 0.950 . S
C1390 C1391 1.386 . S
C1390 C1392 1.391 . S
C1391 C1390 1.386 . S
C1391 C1395 1.393 . S
C1392 H1384 0.950 . S
C1392 C1390 1.391 . S
C1392 C1393 1.400 . S
C1393 C1392 1.400 . S
C1393 C1394 1.398 . S
C1393 C1399 1.491 . S
C1394 H1385 0.950 . S
C1394 C1393 1.398 . S
C1394 C1395 1.391 . S
C1395 H1383 0.950 . S
C1395 C1391 1.393 . S
C1395 C1394 1.391 . S
C1396 H1386 0.950 . S
C1396 C1397 1.386 . S
C1396 C1398 1.391 . S
C1397 C1396 1.386 . S
C1397 C1401 1.393 . S
C1398 H1387 0.950 . S
C1398 C1396 1.391 . S
C1398 C1399 1.400 . S
C1399 C1393 1.491 . S
C1399 C1398 1.400 . S
C1399 C1400 1.398 . S
C1400 H1388 0.950 . S
C1400 C1399 1.398 . S
C1400 C1401 1.391 . S
C1401 H1389 0.950 . S
C1401 C1397 1.393 . S
C1401 C1400 1.391 . S
H1402 C1410 0.950 . S
H1403 C1415 0.950 . S
H1404 C1412 0.950 . S
H1405 C1414 0.950 . S
H1406 C1416 0.950 . S
H1407 C1418 0.950 . S
H1408 C1420 0.950 . S
H1409 C1421 0.950 . S
C1410 H1402 0.950 . S
C1410 C1411 1.386 . S
C1410 C1412 1.391 . S
C1411 C1410 1.386 . S
C1411 C1415 1.393 . S
C1412 H1404 0.950 . S
C1412 C1410 1.391 . S
C1412 C1413 1.400 . S
C1413 C1412 1.400 . S
C1413 C1414 1.398 . S
C1413 C1419 1.491 . S
C1414 H1405 0.950 . S
C1414 C1413 1.398 . S
C1414 C1415 1.391 . S
C1415 H1403 0.950 . S
C1415 C1411 1.393 . S
C1415 C1414 1.391 . S
C1416 H1406 0.950 . S
C1416 C1417 1.386 . S
C1416 C1418 1.391 . S
C1417 C1416 1.386 . S
C1417 C1421 1.393 . S
C1418 H1407 0.950 . S
C1418 C1416 1.391 . S
C1418 C1419 1.400 . S
C1419 C1413 1.491 . S
C1419 C1418 1.400 . S
C1419 C1420 1.398 . S
C1420 H1408 0.950 . S
C1420 C1419 1.398 . S
C1420 C1421 1.391 . S
C1421 H1409 0.950 . S
C1421 C1417 1.393 . S
C1421 C1420 1.391 . S
H1422 C1430 0.950 . S
H1423 C1435 0.950 . S
H1424 C1432 0.950 . S
H1425 C1434 0.950 . S
H1426 C1436 0.950 . S
H1427 C1438 0.950 . S
H1428 C1440 0.950 . S
H1429 C1441 0.950 . S
C1430 H1422 0.950 . S
C1430 C1431 1.386 . S
C1430 C1432 1.391 . S
C1431 C1430 1.386 . S
C1431 C1435 1.393 . S
C1432 H1424 0.950 . S
C1432 C1430 1.391 . S
C1432 C1433 1.400 . S
C1433 C1432 1.400 . S
C1433 C1434 1.398 . S
C1433 C1439 1.491 . S
C1434 H1425 0.950 . S
C1434 C1433 1.398 . S
C1434 C1435 1.391 . S
C1435 H1423 0.950 . S
C1435 C1431 1.393 . S
C1435 C1434 1.391 . S
C1436 H1426 0.950 . S
C1436 C1437 1.386 . S
C1436 C1438 1.391 . S
C1437 C1436 1.386 . S
C1437 C1441 1.393 . S
C1438 H1427 0.950 . S
C1438 C1436 1.391 . S
C1438 C1439 1.400 . S
C1439 C1433 1.491 . S
C1439 C1438 1.400 . S
C1439 C1440 1.398 . S
C1440 H1428 0.950 . S
C1440 C1439 1.398 . S
C1440 C1441 1.391 . S
C1441 H1429 0.950 . S
C1441 C1437 1.393 . S
C1441 C1440 1.391 . S
H1442 C1450 0.950 . S
H1443 C1455 0.950 . S
H1444 C1452 0.950 . S
H1445 C1454 0.950 . S
H1446 C1456 0.950 . S
H1447 C1458 0.950 . S
H1448 C1460 0.950 . S
H1449 C1461 0.950 . S
C1450 H1442 0.950 . S
C1450 C1451 1.386 . S
C1450 C1452 1.391 . S
C1451 C1450 1.386 . S
C1451 C1455 1.393 . S
C1452 H1444 0.950 . S
C1452 C1450 1.391 . S
C1452 C1453 1.400 . S
C1453 C1452 1.400 . S
C1453 C1454 1.398 . S
C1453 C1459 1.491 . S
C1454 H1445 0.950 . S
C1454 C1453 1.398 . S
C1454 C1455 1.391 . S
C1455 H1443 0.950 . S
C1455 C1451 1.393 . S
C1455 C1454 1.391 . S
C1456 H1446 0.950 . S
C1456 C1457 1.386 . S
C1456 C1458 1.391 . S
C1457 C1456 1.386 . S
C1457 C1461 1.393 . S
C1458 H1447 0.950 . S
C1458 C1456 1.391 . S
C1458 C1459 1.400 . S
C1459 C1453 1.491 . S
C1459 C1458 1.400 . S
C1459 C1460 1.398 . S
C1460 H1448 0.950 . S
C1460 C1459 1.398 . S
C1460 C1461 1.391 . S
C1461 H1449 0.950 . S
C1461 C1457 1.393 . S
C1461 C1460 1.391 . S
H1462 C1470 0.950 . S
H1463 C1475 0.950 . S
H1464 C1472 0.950 . S
H1465 C1474 0.950 . S
H1466 C1476 0.950 . S
H1467 C1478 0.950 . S
H1468 C1480 0.950 . S
H1469 C1481 0.950 . S
C1470 H1462 0.950 . S
C1470 C1471 1.386 . S
C1470 C1472 1.391 . S
C1471 C1470 1.386 . S
C1471 C1475 1.393 . S
C1472 H1464 0.950 . S
C1472 C1470 1.391 . S
C1472 C1473 1.400 . S
C1473 C1472 1.400 . S
C1473 C1474 1.398 . S
C1473 C1479 1.491 . S
C1474 H1465 0.950 . S
C1474 C1473 1.398 . S
C1474 C1475 1.391 . S
C1475 H1463 0.950 . S
C1475 C1471 1.393 . S
C1475 C1474 1.391 . S
C1476 H1466 0.950 . S
C1476 C1477 1.386 . S
C1476 C1478 1.391 . S
C1477 C1476 1.386 . S
C1477 C1481 1.393 . S
C1478 H1467 0.950 . S
C1478 C1476 1.391 . S
C1478 C1479 1.400 . S
C1479 C1473 1.491 . S
C1479 C1478 1.400 . S
C1479 C1480 1.398 . S
C1480 H1468 0.950 . S
C1480 C1479 1.398 . S
C1480 C1481 1.391 . S
C1481 H1469 0.950 . S
C1481 C1477 1.393 . S
C1481 C1480 1.391 . S
H1482 C1490 0.950 . S
H1483 C1495 0.950 . S
H1484 C1492 0.950 . S
H1485 C1494 0.950 . S
H1486 C1496 0.950 . S
H1487 C1498 0.950 . S
H1488 C1500 0.950 . S
H1489 C1501 0.950 . S
C1490 H1482 0.950 . S
C1490 C1491 1.386 . S
C1490 C1492 1.391 . S
C1491 C1490 1.386 . S
C1491 C1495 1.393 . S
C1492 H1484 0.950 . S
C1492 C1490 1.391 . S
C1492 C1493 1.400 . S
C1493 C1492 1.400 . S
C1493 C1494 1.398 . S
C1493 C1499 1.491 . S
C1494 H1485 0.950 . S
C1494 C1493 1.398 . S
C1494 C1495 1.391 . S
C1495 H1483 0.950 . S
C1495 C1491 1.393 . S
C1495 C1494 1.391 . S
C1496 H1486 0.950 . S
C1496 C1497 1.386 . S
C1496 C1498 1.391 . S
C1497 C1496 1.386 . S
C1497 C1501 1.393 . S
C1498 H1487 0.950 . S
C1498 C1496 1.391 . S
C1498 C1499 1.400 . S
C1499 C1493 1.491 . S
C1499 C1498 1.400 . S
C1499 C1500 1.398 . S
C1500 H1488 0.950 . S
C1500 C1499 1.398 . S
C1500 C1501 1.391 . S
C1501 H1489 0.950 . S
C1501 C1497 1.393 . S
C1501 C1500 1.391 . S
H1502 C1510 0.950 . S
H1503 C1515 0.950 . S
H1504 C1512 0.950 . S
H1505 C1514 0.950 . S
H1506 C1516 0.950 . S
H1507 C1518 0.950 . S
H1508 C1520 0.950 . S
H1509 C1521 0.950 . S
C1510 H1502 0.950 . S
C1510 C1511 1.386 . S
C1510 C1512 1.391 . S
C1511 C1510 1.386 . S
C1511 C1515 1.393 . S
C1512 H1504 0.950 . S
C1512 C1510 1.391 . S
C1512 C1513 1.400 . S
C1513 C1512 1.400 . S
C1513 C1514 1.398 . S
C1513 C1519 1.491 . S
C1514 H1505 0.950 . S
C1514 C1513 1.398 . S
C1514 C1515 1.391 . S
C1515 H1503 0.950 . S
C1515 C1511 1.393 . S
C1515 C1514 1.391 . S
C1516 H1506 0.950 . S
C1516 C1517 1.386 . S
C1516 C1518 1.391 . S
C1517 C1516 1.386 . S
C1517 C1521 1.393 . S
C1518 H1507 0.950 . S
C1518 C1516 1.391 . S
C1518 C1519 1.400 . S
C1519 C1513 1.491 . S
C1519 C1518 1.400 . S
C1519 C1520 1.398 . S
C1520 H1508 0.950 . S
C1520 C1519 1.398 . S
C1520 C1521 1.391 . S
C1521 H1509 0.950 . S
C1521 C1517 1.393 . S
C1521 C1520 1.391 . S
H1522 C1530 0.950 . S
H1523 C1535 0.950 . S
H1524 C1532 0.950 . S
H1525 C1534 0.950 . S
H1526 C1536 0.950 . S
H1527 C1538 0.950 . S
H1528 C1540 0.950 . S
H1529 C1541 0.950 . S
C1530 H1522 0.950 . S
C1530 C1531 1.386 . S
C1530 C1532 1.391 . S
C1531 C1530 1.386 . S
C1531 C1535 1.393 . S
C1532 H1524 0.950 . S
C1532 C1530 1.391 . S
C1532 C1533 1.400 . S
C1533 C1532 1.400 . S
C1533 C1534 1.398 . S
C1533 C1539 1.491 . S
C1534 H1525 0.950 . S
C1534 C1533 1.398 . S
C1534 C1535 1.391 . S
C1535 H1523 0.950 . S
C1535 C1531 1.393 . S
C1535 C1534 1.391 . S
C1536 H1526 0.950 . S
C1536 C1537 1.386 . S
C1536 C1538 1.391 . S
C1537 C1536 1.386 . S
C1537 C1541 1.393 . S
C1538 H1527 0.950 . S
C1538 C1536 1.391 . S
C1538 C1539 1.400 . S
C1539 C1533 1.491 . S
C1539 C1538 1.400 . S
C1539 C1540 1.398 . S
C1540 H1528 0.950 . S
C1540 C1539 1.398 . S
C1540 C1541 1.391 . S
C1541 H1529 0.950 . S
C1541 C1537 1.393 . S
C1541 C1540 1.391 . S
H1542 C1550 0.950 . S
H1543 C1555 0.950 . S
H1544 C1552 0.950 . S
H1545 C1554 0.950 . S
H1546 C1556 0.950 . S
H1547 C1558 0.950 . S
H1548 C1560 0.950 . S
H1549 C1561 0.950 . S
C1550 H1542 0.950 . S
C1550 C1551 1.386 . S
C1550 C1552 1.391 . S
C1551 C1550 1.386 . S
C1551 C1555 1.393 . S
C1552 H1544 0.950 . S
C1552 C1550 1.391 . S
C1552 C1553 1.400 . S
C1553 C1552 1.400 . S
C1553 C1554 1.398 . S
C1553 C1559 1.491 . S
C1554 H1545 0.950 . S
C1554 C1553 1.398 . S
C1554 C1555 1.391 . S
C1555 H1543 0.950 . S
C1555 C1551 1.393 . S
C1555 C1554 1.391 . S
C1556 H1546 0.950 . S
C1556 C1557 1.386 . S
C1556 C1558 1.391 . S
C1557 C1556 1.386 . S
C1557 C1561 1.393 . S
C1558 H1547 0.950 . S
C1558 C1556 1.391 . S
C1558 C1559 1.400 . S
C1559 C1553 1.491 . S
C1559 C1558 1.400 . S
C1559 C1560 1.398 . S
C1560 H1548 0.950 . S
C1560 C1559 1.398 . S
C1560 C1561 1.391 . S
C1561 H1549 0.950 . S
C1561 C1557 1.393 . S
C1561 C1560 1.391 . S
H1562 C1570 0.950 . S
H1563 C1575 0.950 . S
H1564 C1572 0.950 . S
H1565 C1574 0.950 . S
H1566 C1576 0.950 . S
H1567 C1578 0.950 . S
H1568 C1580 0.950 . S
H1569 C1581 0.950 . S
C1570 H1562 0.950 . S
C1570 C1571 1.386 . S
C1570 C1572 1.391 . S
C1571 C1570 1.386 . S
C1571 C1575 1.393 . S
C1572 H1564 0.950 . S
C1572 C1570 1.391 . S
C1572 C1573 1.400 . S
C1573 C1572 1.400 . S
C1573 C1574 1.398 . S
C1573 C1579 1.491 . S
C1574 H1565 0.950 . S
C1574 C1573 1.398 . S
C1574 C1575 1.391 . S
C1575 H1563 0.950 . S
C1575 C1571 1.393 . S
C1575 C1574 1.391 . S
C1576 H1566 0.950 . S
C1576 C1577 1.386 . S
C1576 C1578 1.391 . S
C1577 C1576 1.386 . S
C1577 C1581 1.393 . S
C1578 H1567 0.950 . S
C1578 C1576 1.391 . S
C1578 C1579 1.400 . S
C1579 C1573 1.491 . S
C1579 C1578 1.400 . S
C1579 C1580 1.398 . S
C1580 H1568 0.950 . S
C1580 C1579 1.398 . S
C1580 C1581 1.391 . S
C1581 H1569 0.950 . S
C1581 C1577 1.393 . S
C1581 C1580 1.391 . S
H1582 C1590 0.950 . S
H1583 C1595 0.950 . S
H1584 C1592 0.950 . S
H1585 C1594 0.950 . S
H1586 C1596 0.950 . S
H1587 C1598 0.950 . S
H1588 C1600 0.950 . S
H1589 C1601 0.950 . S
C1590 H1582 0.950 . S
C1590 C1591 1.386 . S
C1590 C1592 1.391 . S
C1591 C1590 1.386 . S
C1591 C1595 1.393 . S
C1592 H1584 0.950 . S
C1592 C1590 1.391 . S
C1592 C1593 1.400 . S
C1593 C1592 1.400 . S
C1593 C1594 1.398 . S
C1593 C1599 1.491 . S
C1594 H1585 0.950 . S
C1594 C1593 1.398 . S
C1594 C1595 1.391 . S
C1595 H1583 0.950 . S
C1595 C1591 1.393 . S
C1595 C1594 1.391 . S
C1596 H1586 0.950 . S
C1596 C1597 1.386 . S
C1596 C1598 1.391 . S
C1597 C1596 1.386 . S
C1597 C1601 1.393 . S
C1598 H1587 0.950 . S
C1598 C1596 1.391 . S
C1598 C1599 1.400 . S
C1599 C1593 1.491 . S
C1599 C1598 1.400 . S
C1599 C1600 1.398 . S
C1600 H1588 0.950 . S
C1600 C1599 1.398 . S
C1600 C1601 1.391 . S
C1601 H1589 0.950 . S
C1601 C1597 1.393 . S
C1601 C1600 1.391 . S
H1602 C1610 0.950 . S
H1603 C1615 0.950 . S
H1604 C1612 0.950 . S
H1605 C1614 0.950 . S
H1606 C1616 0.950 . S
H1607 C1618 0.950 . S
H1608 C1620 0.950 . S
H1609 C1621 0.950 . S
C1610 H1602 0.950 . S
C1610 C1611 1.386 . S
C1610 C1612 1.391 . S
C1611 C1610 1.386 . S
C1611 C1615 1.393 . S
C1612 H1604 0.950 . S
C1612 C1610 1.391 . S
C1612 C1613 1.400 . S
C1613 C1612 1.400 . S
C1613 C1614 1.398 . S
C1613 C1619 1.491 . S
C1614 H1605 0.950 . S
C1614 C1613 1.398 . S
C1614 C1615 1.391 . S
C1615 H1603 0.950 . S
C1615 C1611 1.393 . S
C1615 C1614 1.391 . S
C1616 H1606 0.950 . S
C1616 C1617 1.386 . S
C1616 C1618 1.391 . S
C1617 C1616 1.386 . S
C1617 C1621 1.393 . S
C1618 H1607 0.950 . S
C1618 C1616 1.391 . S
C1618 C1619 1.400 . S
C1619 C1613 1.491 . S
C1619 C1618 1.400 . S
C1619 C1620 1.398 . S
C1620 H1608 0.950 . S
C1620 C1619 1.398 . S
C1620 C1621 1.391 . S
C1621 H1609 0.950 . S
C1621 C1617 1.393 . S
C1621 C1620 1.391 . S
H1622 C1630 0.950 . S
H1623 C1635 0.950 . S
H1624 C1632 0.950 . S
H1625 C1634 0.950 . S
H1626 C1636 0.950 . S
H1627 C1638 0.950 . S
H1628 C1640 0.950 . S
H1629 C1641 0.950 . S
C1630 H1622 0.950 . S
C1630 C1631 1.386 . S
C1630 C1632 1.391 . S
C1631 C1630 1.386 . S
C1631 C1635 1.393 . S
C1632 H1624 0.950 . S
C1632 C1630 1.391 . S
C1632 C1633 1.400 . S
C1633 C1632 1.400 . S
C1633 C1634 1.398 . S
C1633 C1639 1.491 . S
C1634 H1625 0.950 . S
C1634 C1633 1.398 . S
C1634 C1635 1.391 . S
C1635 H1623 0.950 . S
C1635 C1631 1.393 . S
C1635 C1634 1.391 . S
C1636 H1626 0.950 . S
C1636 C1637 1.386 . S
C1636 C1638 1.391 . S
C1637 C1636 1.386 . S
C1637 C1641 1.393 . S
C1638 H1627 0.950 . S
C1638 C1636 1.391 . S
C1638 C1639 1.400 . S
C1639 C1633 1.491 . S
C1639 C1638 1.400 . S
C1639 C1640 1.398 . S
C1640 H1628 0.950 . S
C1640 C1639 1.398 . S
C1640 C1641 1.391 . S
C1641 H1629 0.950 . S
C1641 C1637 1.393 . S
C1641 C1640 1.391 . S
H1642 C1650 0.950 . S
H1643 C1655 0.950 . S
H1644 C1652 0.950 . S
H1645 C1654 0.950 . S
H1646 C1656 0.950 . S
H1647 C1658 0.950 . S
H1648 C1660 0.950 . S
H1649 C1661 0.950 . S
C1650 H1642 0.950 . S
C1650 C1651 1.386 . S
C1650 C1652 1.391 . S
C1651 C1650 1.386 . S
C1651 C1655 1.393 . S
C1652 H1644 0.950 . S
C1652 C1650 1.391 . S
C1652 C1653 1.400 . S
C1653 C1652 1.400 . S
C1653 C1654 1.398 . S
C1653 C1659 1.491 . S
C1654 H1645 0.950 . S
C1654 C1653 1.398 . S
C1654 C1655 1.391 . S
C1655 H1643 0.950 . S
C1655 C1651 1.393 . S
C1655 C1654 1.391 . S
C1656 H1646 0.950 . S
C1656 C1657 1.386 . S
C1656 C1658 1.391 . S
C1657 C1656 1.386 . S
C1657 C1661 1.393 . S
C1658 H1647 0.950 . S
C1658 C1656 1.391 . S
C1658 C1659 1.400 . S
C1659 C1653 1.491 . S
C1659 C1658 1.400 . S
C1659 C1660 1.398 . S
C1660 H1648 0.950 . S
C1660 C1659 1.398 . S
C1660 C1661 1.391 . S
C1661 H1649 0.950 . S
C1661 C1657 1.393 . S
C1661 C1660 1.391 . S
H1662 C1670 0.950 . S
H1663 C1675 0.950 . S
H1664 C1672 0.950 . S
H1665 C1674 0.950 . S
H1666 C1676 0.950 . S
H1667 C1678 0.950 . S
H1668 C1680 0.950 . S
H1669 C1681 0.950 . S
C1670 H1662 0.950 . S
C1670 C1671 1.386 . S
C1670 C1672 1.391 . S
C1671 C1670 1.386 . S
C1671 C1675 1.393 . S
C1672 H1664 0.950 . S
C1672 C1670 1.391 . S
C1672 C1673 1.400 . S
C1673 C1672 1.400 . S
C1673 C1674 1.398 . S
C1673 C1679 1.491 . S
C1674 H1665 0.950 . S
C1674 C1673 1.398 . S
C1674 C1675 1.391 . S
C1675 H1663 0.950 . S
C1675 C1671 1.393 . S
C1675 C1674 1.391 . S
C1676 H1666 0.950 . S
C1676 C1677 1.386 . S
C1676 C1678 1.391 . S
C1677 C1676 1.386 . S
C1677 C1681 1.393 . S
C1678 H1667 0.950 . S
C1678 C1676 1.391 . S
C1678 C1679 1.400 . S
C1679 C1673 1.491 . S
C1679 C1678 1.400 . S
C1679 C1680 1.398 . S
C1680 H1668 0.950 . S
C1680 C1679 1.398 . S
C1680 C1681 1.391 . S
C1681 H1669 0.950 . S
C1681 C1677 1.393 . S
C1681 C1680 1.391 . S
H1682 C1690 0.950 . S
H1683 C1695 0.950 . S
H1684 C1692 0.950 . S
H1685 C1694 0.950 . S
H1686 C1696 0.950 . S
H1687 C1698 0.950 . S
H1688 C1700 0.950 . S
H1689 C1701 0.950 . S
C1690 H1682 0.950 . S
C1690 C1691 1.386 . S
C1690 C1692 1.391 . S
C1691 C1690 1.386 . S
C1691 C1695 1.393 . S
C1692 H1684 0.950 . S
C1692 C1690 1.391 . S
C1692 C1693 1.400 . S
C1693 C1692 1.400 . S
C1693 C1694 1.398 . S
C1693 C1699 1.491 . S
C1694 H1685 0.950 . S
C1694 C1693 1.398 . S
C1694 C1695 1.391 . S
C1695 H1683 0.950 . S
C1695 C1691 1.393 . S
C1695 C1694 1.391 . S
C1696 H1686 0.950 . S
C1696 C1697 1.386 . S
C1696 C1698 1.391 . S
C1697 C1696 1.386 . S
C1697 C1701 1.393 . S
C1698 H1687 0.950 . S
C1698 C1696 1.391 . S
C1698 C1699 1.400 . S
C1699 C1693 1.491 . S
C1699 C1698 1.400 . S
C1699 C1700 1.398 . S
C1700 H1688 0.950 . S
C1700 C1699 1.398 . S
C1700 C1701 1.391 . S
C1701 H1689 0.950 . S
C1701 C1697 1.393 . S
C1701 C1700 1.391 . S
H1702 C1710 0.950 . S
H1703 C1715 0.950 . S
H1704 C1712 0.950 . S
H1705 C1714 0.950 . S
H1706 C1716 0.950 . S
H1707 C1718 0.950 . S
H1708 C1720 0.950 . S
H1709 C1721 0.950 . S
C1710 H1702 0.950 . S
C1710 C1711 1.386 . S
C1710 C1712 1.391 . S
C1711 C1710 1.386 . S
C1711 C1715 1.393 . S
C1712 H1704 0.950 . S
C1712 C1710 1.391 . S
C1712 C1713 1.400 . S
C1713 C1712 1.400 . S
C1713 C1714 1.398 . S
C1713 C1719 1.491 . S
C1714 H1705 0.950 . S
C1714 C1713 1.398 . S
C1714 C1715 1.391 . S
C1715 H1703 0.950 . S
C1715 C1711 1.393 . S
C1715 C1714 1.391 . S
C1716 H1706 0.950 . S
C1716 C1717 1.386 . S
C1716 C1718 1.391 . S
C1717 C1716 1.386 . S
C1717 C1721 1.393 . S
C1718 H1707 0.950 . S
C1718 C1716 1.391 . S
C1718 C1719 1.400 . S
C1719 C1713 1.491 . S
C1719 C1718 1.400 . S
C1719 C1720 1.398 . S
C1720 H1708 0.950 . S
C1720 C1719 1.398 . S
C1720 C1721 1.391 . S
C1721 H1709 0.950 . S
C1721 C1717 1.393 . S
C1721 C1720 1.391 . S
H1722 C1730 0.950 . S
H1723 C1735 0.950 . S
H1724 C1732 0.950 . S
H1725 C1734 0.950 . S
H1726 C1736 0.950 . S
H1727 C1738 0.950 . S
H1728 C1740 0.950 . S
H1729 C1741 0.950 . S
C1730 H1722 0.950 . S
C1730 C1731 1.386 . S
C1730 C1732 1.391 . S
C1731 C1730 1.386 . S
C1731 C1735 1.393 . S
C1732 H1724 0.950 . S
C1732 C1730 1.391 . S
C1732 C1733 1.400 . S
C1733 C1732 1.400 . S
C1733 C1734 1.398 . S
C1733 C1739 1.491 . S
C1734 H1725 0.950 . S
C1734 C1733 1.398 . S
C1734 C1735 1.391 . S
C1735 H1723 0.950 . S
C1735 C1731 1.393 . S
C1735 C1734 1.391 . S
C1736 H1726 0.950 . S
C1736 C1737 1.386 . S
C1736 C1738 1.391 . S
C1737 C1736 1.386 . S
C1737 C1741 1.393 . S
C1738 H1727 0.950 . S
C1738 C1736 1.391 . S
C1738 C1739 1.400 . S
C1739 C1733 1.491 . S
C1739 C1738 1.400 . S
C1739 C1740 1.398 . S
C1740 H1728 0.950 . S
C1740 C1739 1.398 . S
C1740 C1741 1.391 . S
C1741 H1729 0.950 . S
C1741 C1737 1.393 . S
C1741 C1740 1.391 . S
H1742 C1750 0.950 . S
H1743 C1755 0.950 . S
H1744 C1752 0.950 . S
H1745 C1754 0.950 . S
H1746 C1756 0.950 . S
H1747 C1758 0.950 . S
H1748 C1760 0.950 . S
H1749 C1761 0.950 . S
C1750 H1742 0.950 . S
C1750 C1751 1.386 . S
C1750 C1752 1.391 . S
C1751 C1750 1.386 . S
C1751 C1755 1.393 . S
C1752 H1744 0.950 . S
C1752 C1750 1.391 . S
C1752 C1753 1.400 . S
C1753 C1752 1.400 . S
C1753 C1754 1.398 . S
C1753 C1759 1.491 . S
C1754 H1745 0.950 . S
C1754 C1753 1.398 . S
C1754 C1755 1.391 . S
C1755 H1743 0.950 . S
C1755 C1751 1.393 . S
C1755 C1754 1.391 . S
C1756 H1746 0.950 . S
C1756 C1757 1.386 . S
C1756 C1758 1.391 . S
C1757 C1756 1.386 . S
C1757 C1761 1.393 . S
C1758 H1747 0.950 . S
C1758 C1756 1.391 . S
C1758 C1759 1.400 . S
C1759 C1753 1.491 . S
C1759 C1758 1.400 . S
C1759 C1760 1.398 . S
C1760 H1748 0.950 . S
C1760 C1759 1.398 . S
C1760 C1761 1.391 . S
C1761 H1749 0.950 . S
C1761 C1757 1.393 . S
C1761 C1760 1.391 . S
H1762 C1770 0.950 . S
H1763 C1775 0.950 . S
H1764 C1772 0.950 . S
H1765 C1774 0.950 . S
H1766 C1776 0.950 . S
H1767 C1778 0.950 . S
H1768 C1780 0.950 . S
H1769 C1781 0.950 . S
C1770 H1762 0.950 . S
C1770 C1771 1.386 . S
C1770 C1772 1.391 . S
C1771 C1770 1.386 . S
C1771 C1775 1.393 . S
C1772 H1764 0.950 . S
C1772 C1770 1.391 . S
C1772 C1773 1.400 . S
C1773 C1772 1.400 . S
C1773 C1774 1.398 . S
C1773 C1779 1.491 . S
C1774 H1765 0.950 . S
C1774 C1773 1.398 . S
C1774 C1775 1.391 . S
C1775 H1763 0.950 . S
C1775 C1771 1.393 . S
C1775 C1774 1.391 . S
C1776 H1766 0.950 . S
C1776 C1777 1.386 . S
C1776 C1778 1.391 . S
C1777 C1776 1.386 . S
C1777 C1781 1.393 . S
C1778 H1767 0.950 . S
C1778 C1776 1.391 . S
C1778 C1779 1.400 . S
C1779 C1773 1.491 . S
C1779 C1778 1.400 . S
C1779 C1780 1.398 . S
C1780 H1768 0.950 . S
C1780 C1779 1.398 . S
C1780 C1781 1.391 . S
C1781 H1769 0.950 . S
C1781 C1777 1.393 . S
C1781 C1780 1.391 . S
C711 C253 1.728 . S
C717 C345 1.746 . S
C731 C272 1.855 . S
C737 C385 1.844 . S
C751 C234 1.608 . S
C757 C437 1.603 . S
C771 C215 1.473 . S
C777 C397 1.455 1_556 S
C797 C425 1.563 . S
C791 C177 1.565 . S
C811 C196 1.391 . S
C817 C357 1.379 1_556 S
C837 C364 1.702 . S
C831 C220 1.534 . S
C857 C404 1.658 . S
C851 C182 1.561 . S
C871 C201 1.635 . S
C877 C424 1.753 . S
C891 C258 1.443 . S
C897 C384 1.531 . S
C911 C277 1.318 . S
C917 C444 1.462 . S
C937 C344 1.541 . S
C931 C239 1.409 . S
C957 C465 1.742 . S
C951 C25 1.734 . S
C971 C44 1.851 . S
C977 C505 1.843 . S
C991 C6 1.622 . S
C997 C557 1.601 . S
C1011 C329 1.474 . S
C1017 C517 1.459 . S
C1031 C291 1.565 . S
C1037 C545 1.557 . S
C1051 C310 1.399 . S
C1057 C477 1.387 . S
C1071 C334 1.547 . S
C1077 C484 1.705 . S
C1091 C296 1.562 . S
C1097 C524 1.658 . S
C1117 C544 1.735 . S
C1111 C315 1.622 . S
C1131 C30 1.435 . S
C1137 C504 1.532 . S
C1157 C564 1.454 . S
C1151 C49 1.304 1_455 S
C1171 C11 1.420 . S
C1177 C464 1.539 . S
C1197 C585 1.746 . S
C1191 C139 1.737 . S
C1211 C158 1.853 . S
C1217 C625 1.850 . S
C1237 C677 1.604 . S
C1231 C120 1.624 . S
C1257 C637 1.443 . S
C1251 C101 1.473 . S
C1277 C665 1.557 . S
C1271 C63 1.565 . S
C1291 C82 1.387 . S
C1297 C597 1.378 . S
C1311 C106 1.525 . S
C1317 C604 1.706 . S
C1331 C68 1.574 . S
C1337 C644 1.663 . S
C1357 C664 1.736 . S
C1351 C87 1.622 . S
C1371 C144 1.423 . S
C1377 C624 1.537 . S
C1391 C163 1.337 . S
C1397 C684 1.457 . S
C1411 C125 1.378 . S
C1417 C584 1.536 . S
C1431 C287 1.591 . S
C1437 C368 1.569 . S
C1457 C408 2.068 . S
C1451 C306 2.100 . S
C1471 C325 1.642 . S
C1477 C431 1.668 . S
C1491 C116 1.852 . S
C1497 C391 1.869 . S
C1511 C135 1.815 . S
C1517 C448 1.797 . S
C1537 C351 1.339 . S
C1531 C154 1.319 . S
C1551 C59 1.580 . S
C1557 C488 1.551 . S
C1571 C78 2.098 . S
C1577 C528 2.066 . S
C1591 C97 1.621 . S
C1597 C551 1.659 . S
C1611 C230 1.864 . S
C1617 C511 1.874 . S
C1637 C568 1.799 . S
C1631 C249 1.817 . S
C1651 C268 1.320 . S
C1657 C471 1.339 . S
C1671 C173 1.588 . S
C1677 C608 1.561 . S
C1691 C192 2.099 . S
C1697 C648 2.067 . S
C1717 C671 1.664 . S
C1711 C211 1.626 . S
C1731 C2 1.860 . S
C1737 C631 1.881 . S
C1751 C21 1.811 . S
C1757 C688 1.792 . S
C1771 C40 1.315 . S
C1777 C591 1.339 . S
