# Generated by pormake.
# Topology pth, (4,4)-cn, num edge types: 1
# Building blocks:
#     Node 0, Type 0, BuildingBlock: QUQFOY_clean_sbu_1, # of connection points: 4
#     Node 1, Type 0, BuildingBlock: QUQFOY_clean_sbu_1, # of connection points: 4
#     Node 2, Type 0, BuildingBlock: QUQFOY_clean_sbu_1, # of connection points: 4
#     Node 3, Type 1, BuildingBlock: MIFKUJ_clean_linker_1, # of connection points: 4
#     Node 4, Type 1, BuildingBlock: MIFKUJ_clean_linker_1, # of connection points: 4
#     Node 5, Type 1, BuildingBlock: MIFKUJ_clean_linker_1, # of connection points: 4
#     Edge 6, Type (0, 1), BuildingBlock: ZUJKAS_clean_linker_0, # of connection points: 2
#     Edge 7, Type (0, 1), BuildingBlock: ZUJKAS_clean_linker_0, # of connection points: 2
#     Edge 8, Type (0, 1), BuildingBlock: ZUJKAS_clean_linker_0, # of connection points: 2
#     Edge 9, Type (0, 1), BuildingBlock: ZUJKAS_clean_linker_0, # of connection points: 2
#     Edge 10, Type (0, 1), BuildingBlock: ZUJKAS_clean_linker_0, # of connection points: 2
#     Edge 11, Type (0, 1), BuildingBlock: ZUJKAS_clean_linker_0, # of connection points: 2
#     Edge 12, Type (0, 1), BuildingBlock: ZUJKAS_clean_linker_0, # of connection points: 2
#     Edge 13, Type (0, 1), BuildingBlock: ZUJKAS_clean_linker_0, # of connection points: 2
#     Edge 14, Type (0, 1), BuildingBlock: ZUJKAS_clean_linker_0, # of connection points: 2
#     Edge 15, Type (0, 1), BuildingBlock: ZUJKAS_clean_linker_0, # of connection points: 2
#     Edge 16, Type (0, 1), BuildingBlock: ZUJKAS_clean_linker_0, # of connection points: 2
#     Edge 17, Type (0, 1), BuildingBlock: ZUJKAS_clean_linker_0, # of connection points: 2
# Relax obj value: 0.028
# Max RMSD: 0.131
# Mean RMSD: 0.087
data_MOF--net-pth--node1-QUQFOY_clean_sbu_1--node2-MIFKUJ_clean_linker_1--edge1-ZUJKAS_clean_linker_0
_symmetry_space_group_name_H-M    P1
_symmetry_Int_Tables_number       1
_symmetry_cell_setting            triclinic
loop_
_symmetry_equiv_pos_as_xyz
'x, y, z'
_cell_length_a     35.578752
_cell_length_b     38.198422
_cell_length_c     81.850208
_cell_angle_alpha  90.020579
_cell_angle_beta   89.998636
_cell_angle_gamma 120.08949
loop_
_atom_site_label
_atom_site_type_symbol
_atom_site_fract_x
_atom_site_fract_y
_atom_site_fract_z
_atom_type_partial_charge
O0 O 0.03675 0.06362 0.0378 0.0
Cd1 Cd 0.98396 0.02581 0.05199 0.0
Cd2 Cd 0.02434 0.98147 0.05143 0.0
O3 O 0.07403 0.03201 0.04019 0.0
O4 O 0.95969 0.0604 0.05899 0.0
O5 O 0.9886 0.03594 0.07625 0.0
C6 C 0.97135 0.05825 0.07369 0.0
C7 C 0.03779 0.94888 0.07285 0.0
C8 C 0.0708 0.06173 0.03496 0.0
C9 C 0.93657 0.9459 0.03521 0.0
O10 O 0.97079 0.94394 0.03751 0.0
O11 O 0.93368 0.97544 0.04089 0.0
O12 O 0.04849 0.94652 0.05801 0.0
O13 O 0.02107 0.97152 0.07569 0.0
O14 O 0.96678 0.02834 0.38924 0.0
Cd15 Cd 0.02055 0.04316 0.37508 0.0
Cd16 Cd 0.98481 0.96113 0.37559 0.0
O17 O 0.93375 0.96186 0.38734 0.0
O18 O 0.04164 0.10048 0.36896 0.0
O19 O 0.01681 0.05084 0.35088 0.0
C20 C 0.03155 0.08867 0.35404 0.0
C21 C 0.97267 0.91611 0.35423 0.0
C22 C 0.93456 0.99367 0.39244 0.0
C23 C 0.07209 0.01162 0.39181 0.0
O24 O 0.03963 0.97666 0.38923 0.0
O25 O 0.07241 0.04293 0.38637 0.0
O26 O 0.96357 0.90397 0.36916 0.0
O27 O 0.98719 0.95401 0.35129 0.0
O28 O 0.93797 0.97826 0.7049 0.0
Cd29 Cd 0.97803 0.96469 0.71828 0.0
Cd30 Cd 0.02802 0.046 0.71857 0.0
O31 O 0.97527 0.04464 0.70732 0.0
O32 O 0.93936 0.90754 0.72512 0.0
O33 O 0.97051 0.95822 0.74269 0.0
C34 C 0.94474 0.9201 0.74002 0.0
C35 C 0.06159 0.08774 0.74104 0.0
C36 C 0.94209 0.01273 0.70213 0.0
C37 C 0.0631 0.99898 0.70104 0.0
O38 O 0.06757 0.0334 0.70431 0.0
O39 O 0.03008 0.96686 0.70616 0.0
O40 O 0.0661 0.10233 0.7265 0.0
O41 O 0.03659 0.04919 0.74293 0.0
H42 H 0.063 0.47451 0.1814 0.0
H43 H 0.05925 0.41753 0.16628 0.0
H44 H 0.93688 0.33668 0.1897 0.0
H45 H 0.94129 0.39357 0.20492 0.0
H46 H 0.01077 0.50705 0.18241 0.0
H47 H 0.06477 0.4494 0.21969 0.0
H48 H 0.06783 0.39585 0.23483 0.0
H49 H 0.94945 0.36843 0.26007 0.0
H50 H 0.94579 0.42125 0.24442 0.0
H51 H 0.93667 0.52495 0.24133 0.0
H52 H 0.93042 0.57671 0.25664 0.0
H53 H 0.05561 0.66792 0.23826 0.0
H54 H 0.0614 0.61593 0.22284 0.0
H55 H 0.99787 0.50091 0.24285 0.0
H56 H 0.94771 0.56291 0.20246 0.0
H57 H 0.95389 0.62069 0.18725 0.0
H58 H 0.07938 0.64664 0.16909 0.0
H59 H 0.07266 0.58857 0.18417 0.0
C60 C 0.00267 0.43824 0.19441 0.0
C61 C 0.03533 0.4445 0.18321 0.0
C62 C 0.03306 0.41189 0.17455 0.0
C63 C 0.99786 0.37241 0.17683 0.0
C64 C 0.96488 0.36646 0.18788 0.0
C65 C 0.96726 0.39901 0.19655 0.0
C66 C 0.00542 0.4725 0.20398 0.0
C67 C 0.00851 0.50596 0.19564 0.0
C68 C 0.0027 0.47117 0.22124 0.0
C69 C 0.00477 0.43906 0.23077 0.0
C70 C 0.03923 0.43162 0.22837 0.0
C71 C 0.04118 0.40123 0.23716 0.0
C72 C 0.00886 0.37779 0.24866 0.0
C73 C 0.97455 0.38554 0.25115 0.0
C74 C 0.97261 0.41597 0.24233 0.0
C75 C 0.99931 0.5666 0.23084 0.0
C76 C 0.96285 0.55608 0.24066 0.0
C77 C 0.95939 0.58572 0.24944 0.0
C78 C 0.99248 0.62653 0.24867 0.0
C79 C 0.02922 0.63691 0.23893 0.0
C80 C 0.03266 0.60721 0.23015 0.0
C81 C 1.00202 0.53492 0.22126 0.0
C82 C 1.00011 0.50197 0.22963 0.0
C83 C 0.00695 0.53726 0.20406 0.0
C84 C 0.00988 0.57162 0.19454 0.0
C85 C 0.97658 0.58114 0.19523 0.0
C86 C 0.98025 0.6143 0.18658 0.0
C87 C 0.01721 0.63844 0.17698 0.0
C88 C 0.05024 0.62844 0.17619 0.0
C89 C 0.04652 0.59531 0.18483 0.0
H90 H 0.5948 0.06548 0.51624 0.0
H91 H 0.64713 0.06121 0.49825 0.0
H92 H 0.61423 0.9458 0.51958 0.0
H93 H 0.56242 0.9506 0.53772 0.0
H94 H 0.50977 0.01655 0.51673 0.0
H95 H 0.62434 0.06053 0.55487 0.0
H96 H 0.68122 0.06352 0.57254 0.0
H97 H 0.58633 0.95322 0.59634 0.0
H98 H 0.53007 0.9495 0.57818 0.0
H99 H 0.41582 0.94413 0.57587 0.0
H100 H 0.35904 0.941 0.59355 0.0
H101 H 0.38232 0.05547 0.57418 0.0
H102 H 0.44046 0.05918 0.55698 0.0
H103 H 0.49991 0.99835 0.57682 0.0
H104 H 0.38498 0.95707 0.53655 0.0
H105 H 0.33137 0.96126 0.51921 0.0
H106 H 0.43228 0.07533 0.49991 0.0
H107 H 0.48517 0.07171 0.51772 0.0
C108 C 0.57483 0.00846 0.52836 0.0
C109 C 0.59916 0.03943 0.51713 0.0
C110 C 0.62886 0.03681 0.50679 0.0
C111 C 0.6346 1.00298 0.50737 0.0
C112 C 0.61097 0.97246 0.51893 0.0
C113 C 0.58132 0.97517 0.52931 0.0
C114 C 0.54036 0.00947 0.53818 0.0
C115 C 0.50797 0.01319 0.52992 0.0
C116 C 0.53772 0.00452 0.55533 0.0
C117 C 0.57294 0.0046 0.56509 0.0
C118 C 0.61597 0.03649 0.56364 0.0
C119 C 0.64838 0.03846 0.5739 0.0
C120 C 0.63833 0.00873 0.58592 0.0
C121 C 0.59537 0.97637 0.5871 0.0
C122 C 0.56305 0.97435 0.5768 0.0
C123 C 0.43225 1.00176 0.56504 0.0
C124 C 0.40858 0.96849 0.57539 0.0
C125 C 0.37583 0.96658 0.58539 0.0
C126 C 0.36603 0.99795 0.58527 0.0
C127 C 0.38934 0.03099 0.57469 0.0
C128 C 0.42226 0.03294 0.56471 0.0
C129 C 0.46887 0.00455 0.55533 0.0
C130 C 0.50174 1.00166 0.56363 0.0
C131 C 0.47235 0.01097 0.53824 0.0
C132 C 0.43903 0.01425 0.52854 0.0
C133 C 0.39534 0.98334 0.52882 0.0
C134 C 0.36484 0.98556 0.51876 0.0
C135 C 0.37753 0.0186 0.50813 0.0
C136 C 0.42122 0.04976 0.50809 0.0
C137 C 0.4516 0.04757 0.51817 0.0
H138 H 0.48328 0.41941 0.85987 0.0
H139 H 0.42629 0.36372 0.84403 0.0
H140 H 0.33052 0.38771 0.8656 0.0
H141 H 0.38745 0.44268 0.88155 0.0
H142 H 0.51098 0.49927 0.85995 0.0
H143 H 0.45546 0.39371 0.89918 0.0
H144 H 0.40413 0.33809 0.91649 0.0
H145 H 0.36199 0.41641 0.93765 0.0
H146 H 0.41394 0.47206 0.92048 0.0
H147 H 0.51887 0.58485 0.91891 0.0
H148 H 0.56966 0.64067 0.93623 0.0
H149 H 0.67578 0.62887 0.91681 0.0
H150 H 0.62446 0.57184 0.90005 0.0
H151 H 0.50011 0.50793 0.92008 0.0
H152 H 0.55645 0.61321 0.87791 0.0
H153 H 0.6153 0.66808 0.86226 0.0
H154 H 0.66109 0.58717 0.84779 0.0
H155 H 0.60218 0.53246 0.86341 0.0
C156 C 0.4396 0.43496 0.872 0.0
C157 C 0.44997 0.41256 0.86118 0.0
C158 C 0.41735 0.38083 0.8521 0.0
C159 C 0.37372 0.3711 0.85355 0.0
C160 C 0.36356 0.39376 0.86439 0.0
C161 C 0.39614 0.42534 0.87349 0.0
C162 C 0.4741 0.46903 0.88151 0.0
C163 C 0.50887 0.50091 0.87313 0.0
C164 C 0.47138 0.47135 0.89868 0.0
C165 C 0.43836 0.43698 0.90848 0.0
C166 C 0.43478 0.39874 0.90741 0.0
C167 C 0.40536 0.36694 0.91731 0.0
C168 C 0.37901 0.37279 0.92851 0.0
C169 C 0.3823 0.41103 0.92937 0.0
C170 C 0.41181 0.44283 0.9195 0.0
C171 C 0.56785 0.57434 0.90808 0.0
C172 C 0.55312 0.59439 0.91835 0.0
C173 C 0.58227 0.62655 0.92815 0.0
C174 C 0.62685 0.63934 0.92791 0.0
C175 C 0.64162 0.61954 0.91743 0.0
C176 C 0.61238 0.58723 0.90767 0.0
C177 C 0.53617 0.53865 0.8985 0.0
C178 C 0.50205 0.50633 0.9069 0.0
C179 C 0.53992 0.5357 0.88141 0.0
C180 C 0.57512 0.56887 0.87185 0.0
C181 C 0.57922 0.60737 0.87137 0.0
C182 C 0.61269 0.63858 0.8624 0.0
C183 C 0.64283 0.63188 0.85387 0.0
C184 C 0.63861 0.59329 0.85439 0.0
C185 C 0.60485 0.56198 0.8632 0.0
H186 H 0.00546 0.07147 0.10462 0.0
H187 H 0.00696 0.11944 0.12491 0.0
H188 H 0.93256 0.15035 0.09247 0.0
H189 H 0.93066 0.10256 0.07224 0.0
H190 H 0.04368 0.20314 0.11935 0.0
H191 H 0.86996 0.13302 0.13645 0.0
H192 H 0.89206 0.10511 0.12645 0.0
H193 H 0.87914 0.13757 0.11478 0.0
C194 C 0.9887 0.08791 0.10195 0.0
C195 C 0.96792 0.08319 0.08682 0.0
C196 C 0.98972 0.11538 0.11353 0.0
C197 C 0.96951 0.13815 0.11026 0.0
C198 C 0.94769 0.13258 0.09538 0.0
H199 H 0.01942 0.37008 0.14483 0.0
H200 H 0.01424 0.31249 0.12979 0.0
C201 C 0.94683 0.10535 0.08379 0.0
C202 C 0.97401 0.17005 0.12175 0.0
H203 H 0.91562 0.20269 0.1436 0.0
C204 C 0.01574 0.20284 0.12481 0.0
C205 C 0.93755 0.16947 0.12894 0.0
C206 C 0.89216 0.13423 0.12663 0.0
C207 C 0.02184 0.23577 0.13441 0.0
C208 C 0.98521 0.23603 0.14097 0.0
C209 C 0.94362 0.20258 0.13841 0.0
C210 C 0.98933 0.27113 0.15024 0.0
C211 C 0.0674 0.27009 0.13741 0.0
C212 C 0.97651 0.2668 0.16666 0.0
C213 C 0.97967 0.29973 0.17533 0.0
C214 C 0.99532 0.33757 0.16769 0.0
C215 C 0.00798 0.34165 0.15119 0.0
C216 C 0.00495 0.30874 0.14255 0.0
H217 H 0.09198 0.26085 0.13509 0.0
H218 H 0.07424 0.29548 0.12905 0.0
H219 H 0.07114 0.28134 0.15016 0.0
H220 H 0.96431 0.23798 0.17279 0.0
H221 H 0.97018 0.2956 0.18806 0.0
H222 H 0.86771 0.92588 0.40665 0.0
H223 H 0.81361 0.923 0.42596 0.0
H224 H 0.86732 0.05185 0.4212 0.0
H225 H 0.92178 0.05519 0.40219 0.0
H226 H 0.8577 0.02711 0.45312 0.0
H227 H 0.70567 0.93255 0.41821 0.0
H228 H 0.73977 0.91067 0.42069 0.0
H229 H 0.75869 0.95599 0.40881 0.0
C230 C 0.86763 0.95351 0.40955 0.0
C231 C 0.89914 0.99078 0.4029 0.0
C232 C 0.83659 0.95178 0.42055 0.0
C233 C 0.83626 0.98717 0.42491 0.0
C234 C 0.86703 0.02418 0.418 0.0
H235 H 0.6446 0.02173 0.47484 0.0
H236 H 0.69363 0.0163 0.45547 0.0
C237 C 0.89811 0.026 0.40711 0.0
C238 C 0.80554 0.98639 0.43733 0.0
H239 H 0.69793 0.94896 0.44545 0.0
C240 C 0.82274 0.00996 0.45147 0.0
C241 C 0.76002 0.96422 0.43507 0.0
C242 C 0.73981 0.93967 0.41982 0.0
C243 C 0.7957 0.01228 0.46336 0.0
C244 C 0.75015 0.98972 0.46121 0.0
C245 C 0.73288 0.96594 0.44712 0.0
C246 C 0.71998 0.99205 0.47305 0.0
C247 C 0.8162 0.03984 0.47787 0.0
C248 C 0.71825 0.97985 0.48934 0.0
C249 C 0.69063 0.98341 0.50052 0.0
C250 C 0.66402 0.999 0.49557 0.0
C251 C 0.6653 0.01042 0.47915 0.0
C252 C 0.69297 0.00695 0.46801 0.0
H253 H 0.85106 0.06209 0.47572 0.0
H254 H 0.79901 0.0566 0.48078 0.0
H255 H 0.81402 0.0214 0.48868 0.0
H256 H 0.73834 0.96766 0.49342 0.0
H257 H 0.69054 0.97446 0.51308 0.0
H258 H 0.9534 0.93427 0.77308 0.0
H259 H 0.9096 0.88749 0.7949 0.0
H260 H 0.83533 0.7961 0.75887 0.0
H261 H 0.87958 0.84188 0.7372 0.0
H262 H 0.82502 0.85374 0.8008 0.0
H263 H 0.86203 0.73142 0.79025 0.0
H264 H 0.89296 0.78051 0.78082 0.0
H265 H 0.84244 0.74251 0.77193 0.0
C266 C 0.92813 0.90399 0.76986 0.0
C267 C 0.92021 0.89169 0.75342 0.0
C268 C 0.90308 0.87732 0.78232 0.0
C269 C 0.86968 0.83796 0.77856 0.0
C270 C 0.86172 0.82581 0.76215 0.0
H271 H 0.63636 0.68274 0.83212 0.0
H272 H 0.69402 0.73486 0.81528 0.0
C273 C 0.88694 0.8522 0.74973 0.0
C274 C 0.84139 0.81018 0.79161 0.0
H275 H 0.79673 0.7131 0.80543 0.0
C276 C 0.8193 0.82316 0.80197 0.0
C277 C 0.83444 0.7705 0.79338 0.0
C278 C 0.85963 0.7556 0.78361 0.0
C279 C 0.78909 0.79701 0.81354 0.0
C280 C 0.77977 0.7564 0.81445 0.0
C281 C 0.80328 0.744 0.80458 0.0
C282 C 0.74507 0.72593 0.82518 0.0
C283 C 0.76771 0.81333 0.8247 0.0
C284 C 0.75416 0.70266 0.83604 0.0
C285 C 0.72105 0.67233 0.84545 0.0
C286 C 0.67822 0.66483 0.84425 0.0
C287 C 0.6692 0.68832 0.83349 0.0
C288 C 0.70221 0.71828 0.82392 0.0
H289 H 0.78847 0.84655 0.82639 0.0
H290 H 0.73667 0.8076 0.81915 0.0
H291 H 0.76067 0.79859 0.83688 0.0
H292 H 0.7869 0.70783 0.83718 0.0
H293 H 0.72895 0.65483 0.85372 0.0
H294 H 0.07117 0.89865 0.07002 0.0
H295 H 0.0702 0.8515 0.09032 0.0
H296 H 0.01267 0.89495 0.12541 0.0
H297 H 0.01279 0.94198 0.10499 0.0
H298 H 0.10668 0.86258 0.12121 0.0
H299 H 0.92624 0.7733 0.1241 0.0
H300 H 0.95489 0.81041 0.10839 0.0
H301 H 0.95004 0.82628 0.12856 0.0
C302 C 0.05859 0.8985 0.08208 0.0
C303 C 0.04171 0.92388 0.08583 0.0
C304 C 0.0581 0.87149 0.09369 0.0
C305 C 0.04064 0.86917 0.10928 0.0
C306 C 0.02546 0.89566 0.11333 0.0
H307 H 0.99451 0.69398 0.18697 0.0
H308 H 1.00138 0.75201 0.17167 0.0
C309 C 0.02586 0.92272 0.10169 0.0
C310 C 0.03742 0.8381 0.12098 0.0
H311 H 0.96457 0.75176 0.14087 0.0
C312 C 0.07563 0.83848 0.12559 0.0
C313 C 0.99685 0.80665 0.12667 0.0
C314 C 0.95458 0.80373 0.12161 0.0
C315 C 0.07436 0.80807 0.13561 0.0
C316 C 0.03376 0.77614 0.14096 0.0
C317 C 0.99563 0.77631 0.13674 0.0
C318 C 0.03 0.74128 0.15032 0.0
C319 C 0.1165 0.81034 0.14037 0.0
C320 C 0.04314 0.71565 0.14327 0.0
C321 C 0.03894 0.68232 0.1519 0.0
C322 C 0.02133 0.67381 0.16777 0.0
C323 C 0.00779 0.69939 0.17473 0.0
C324 C 0.01194 0.73271 0.16605 0.0
H325 H 0.14451 0.84158 0.13914 0.0
H326 H 0.11519 0.80003 0.15315 0.0
H327 H 0.12233 0.79034 0.13221 0.0
H328 H 0.0562 0.72116 0.13098 0.0
H329 H 0.04888 0.66285 0.14603 0.0
H330 H 0.14014 0.08091 0.40455 0.0
H331 H 0.19627 0.08613 0.4234 0.0
H332 H 0.14161 0.95678 0.42135 0.0
H333 H 0.08566 0.95119 0.40254 0.0
H334 H 0.17889 0.04596 0.45451 0.0
H335 H 0.27293 1.00244 0.41349 0.0
H336 H 0.23703 0.01936 0.40589 0.0
H337 H 0.21525 0.96838 0.41311 0.0
C338 C 0.14044 0.05364 0.40792 0.0
C339 C 0.1084 0.01563 0.40203 0.0
C340 C 0.17244 0.05669 0.41872 0.0
C341 C 0.17327 0.02189 0.42362 0.0
C342 C 0.14193 0.98406 0.41751 0.0
H343 H 0.31413 0.95603 0.49043 0.0
H344 H 0.26447 0.9587 0.47052 0.0
C345 C 0.10984 0.98094 0.40681 0.0
C346 C 0.20514 0.02453 0.43588 0.0
H347 H 0.28647 1.00327 0.44201 0.0
C348 C 0.20278 0.03707 0.45178 0.0
C349 C 0.23599 0.01268 0.43224 0.0
C350 C 0.24086 1.00028 0.41522 0.0
C351 C 0.22957 0.0368 0.46431 0.0
C352 C 0.26008 0.02442 0.46072 0.0
C353 C 0.26292 0.01258 0.44474 0.0
C354 C 0.28893 0.02287 0.4734 0.0
C355 C 0.2239 0.04837 0.48138 0.0
C356 C 0.31909 0.05806 0.48166 0.0
C357 C 0.34718 0.05655 0.49321 0.0
C358 C 0.34594 0.01986 0.4966 0.0
C359 C 0.31549 0.98464 0.48834 0.0
C360 C 0.28735 0.98617 0.47684 0.0
H361 H 0.19208 0.04685 0.48291 0.0
H362 H 0.22643 0.02833 0.4906 0.0
H363 H 0.24986 0.07991 0.4839 0.0
H364 H 0.32138 0.08683 0.47899 0.0
H365 H 0.36999 0.08417 0.49943 0.0
H366 H 0.07059 0.06573 0.77204 0.0
H367 H 0.11778 0.11013 0.79384 0.0
H368 H 0.15685 0.21399 0.76284 0.0
H369 H 0.10994 0.17011 0.74109 0.0
H370 H 0.20933 0.16223 0.7909 0.0
H371 H 0.12612 0.24774 0.80652 0.0
H372 H 0.09944 0.20017 0.79564 0.0
H373 H 0.13543 0.24622 0.78502 0.0
C374 C 0.08871 0.09808 0.76997 0.0
C375 C 0.0865 0.1144 0.75484 0.0
C376 C 0.11571 0.12336 0.78241 0.0
C377 C 0.14043 0.16535 0.78 0.0
C378 C 0.13749 0.18175 0.76505 0.0
H379 H 0.37803 0.35208 0.82157 0.0
H380 H 0.32042 0.29917 0.80499 0.0
C381 C 0.11079 0.15656 0.7526 0.0
C382 C 0.17163 0.19198 0.79259 0.0
H383 H 0.19921 0.27553 0.81595 0.0
C384 C 0.20688 0.18671 0.79654 0.0
C385 C 0.16817 0.2237 0.8 0.0
C386 C 0.13005 0.22968 0.79672 0.0
C387 C 0.23968 0.21333 0.80723 0.0
C388 C 0.23726 0.24618 0.81403 0.0
C389 C 0.20115 0.25051 0.81059 0.0
C390 C 0.27254 0.2771 0.82433 0.0
C391 C 0.27683 0.20629 0.8111 0.0
C392 C 0.26456 0.28248 0.84065 0.0
C393 C 0.29753 0.31253 0.85022 0.0
C394 C 0.33903 0.3381 0.84358 0.0
C395 C 0.3468 0.33251 0.82719 0.0
C396 C 0.31387 0.30234 0.81767 0.0
H397 H 0.26854 0.17475 0.80829 0.0
H398 H 0.30543 0.22703 0.8036 0.0
H399 H 0.28617 0.21263 0.82417 0.0
H400 H 0.23282 0.26333 0.846 0.0
H401 H 0.29053 0.31561 0.86284 0.0
H402 H 0.94167 0.08109 0.692 0.0
H403 H 0.8895 0.08483 0.67357 0.0
H404 H 0.81708 0.95461 0.67045 0.0
H405 H 0.86828 0.95047 0.68897 0.0
H406 H 0.87091 0.0567 0.64182 0.0
H407 H 0.72202 0.98112 0.67965 0.0
H408 H 0.7756 0.99949 0.68807 0.0
H409 H 0.7481 0.95151 0.67768 0.0
C410 C 0.91428 0.05323 0.68758 0.0
C411 C 0.90913 0.01548 0.69201 0.0
C412 C 0.88458 0.05545 0.67703 0.0
C413 C 0.84909 0.01999 0.67083 0.0
C414 C 0.84364 0.98233 0.67537 0.0
H415 H 0.65095 0.9482 0.59768 0.0
H416 H 0.70345 0.95366 0.61829 0.0
C417 C 0.87318 0.98006 0.68591 0.0
C418 C 0.81911 0.02209 0.65882 0.0
H419 H 0.71172 0.9868 0.65105 0.0
C420 C 0.83616 0.04191 0.64391 0.0
C421 C 0.7738 1.00274 0.66159 0.0
C422 C 0.75382 0.98287 0.67768 0.0
C423 C 0.80888 0.04155 0.63143 0.0
C424 C 0.76352 0.02114 0.63403 0.0
C425 C 0.74655 1.00214 0.64907 0.0
C426 C 0.73291 0.01844 0.6212 0.0
C427 C 0.82856 0.06177 0.61535 0.0
C428 C 0.73216 0.05309 0.61607 0.0
C429 C 0.70199 0.05006 0.60439 0.0
C430 C 0.67196 0.01225 0.59766 0.0
C431 C 0.67322 0.97767 0.60275 0.0
C432 C 0.70329 0.98075 0.61446 0.0
H433 H 0.86298 0.06945 0.61422 0.0
H434 H 0.80979 0.04195 0.60498 0.0
H435 H 0.8274 0.09019 0.61437 0.0
H436 H 0.75433 0.08236 0.62133 0.0
H437 H 0.70142 0.07718 0.60099 0.0
H438 H 0.92919 0.87549 0.02389 0.0
H439 H 0.87246 0.82483 0.00636 0.0
H440 H 0.8061 0.89322 0.00657 0.0
H441 H 0.86294 0.94441 0.02412 0.0
H442 H 0.77931 0.77861 0.01223 0.0
H443 H 0.82444 0.87729 0.95721 0.0
H444 H 0.86086 0.88868 0.97431 0.0
H445 H 0.81579 0.89725 0.97585 0.0
C446 C 0.90252 0.87982 0.02027 0.0
C447 C 0.90076 0.91418 0.02534 0.0
C448 C 0.87011 0.85078 0.01027 0.0
C449 C 0.83548 0.8556 0.00503 0.0
C450 C 0.83296 0.88931 0.01032 0.0
H451 H 0.62825 0.70981 0.93579 0.0
H452 H 0.67645 0.76198 0.95514 0.0
C453 C 0.86533 0.91839 0.02041 0.0
C454 C 0.80233 0.82527 0.99393 0.0
H455 H 0.76521 0.81101 0.95465 0.0
C456 C 0.77603 0.78566 0.99966 0.0
C457 C 0.79815 0.83473 0.97758 0.0
C458 C 0.82642 0.87669 0.97075 0.0
C459 C 0.74563 0.75507 0.98943 0.0
C460 C 0.74229 0.76421 0.97292 0.0
C461 C 0.76797 0.80407 0.96729 0.0
C462 C 0.71317 0.73262 0.96119 0.0
C463 C 0.71713 0.71335 0.99644 0.0
C464 C 0.71837 0.69921 0.95796 0.0
C465 C 0.69067 0.66919 0.94704 0.0
C466 C 0.65745 0.67217 0.939 0.0
C467 C 0.65302 0.70622 0.94198 0.0
C468 C 0.68068 0.73619 0.95295 0.0
H469 H 0.71442 0.71432 0.00994 0.0
H470 H 0.68399 0.69877 0.9911 0.0
H471 H 0.7316 0.6942 0.99362 0.0
H472 H 0.74387 0.69632 0.9639 0.0
H473 H 0.69481 0.64326 0.94516 0.0
H474 H 0.94216 0.83519 0.35716 0.0
H475 H 0.94314 0.78932 0.33666 0.0
H476 H 0.99588 0.88601 0.3013 0.0
H477 H 0.99565 0.93256 0.32191 0.0
H478 H 0.90412 0.76574 0.30595 0.0
H479 H 0.08442 0.84706 0.30139 0.0
H480 H 0.0564 0.8567 0.31759 0.0
H481 H 0.0594 0.87707 0.29755 0.0
C482 C 0.95372 0.84675 0.345 0.0
C483 C 0.96915 0.88765 0.34121 0.0
C484 C 0.95421 0.82043 0.33328 0.0
C485 C 0.97026 0.8344 0.31754 0.0
C486 C 0.98415 0.87481 0.31348 0.0
H487 H 0.01471 0.70327 0.23887 0.0
H488 H 0.0081 0.75471 0.25446 0.0
C489 C 0.9837 0.90128 0.32524 0.0
C490 C 0.97325 0.80655 0.30565 0.0
H491 H 0.04571 0.78923 0.28491 0.0
C492 C 0.93504 0.77099 0.30126 0.0
C493 C 0.01365 0.81348 0.29955 0.0
C494 C 0.05591 0.85044 0.30432 0.0
C495 C 0.93617 0.74193 0.29109 0.0
C496 C 0.97665 0.74835 0.28535 0.0
C497 C 0.01474 0.78442 0.28934 0.0
C498 C 0.98035 0.71715 0.27584 0.0
C499 C 0.894 0.70459 0.28656 0.0
C500 C 0.96764 0.67927 0.28281 0.0
C501 C 0.97165 0.64997 0.27401 0.0
C502 C 0.98867 0.65799 0.25806 0.0
C503 C 1.00186 0.69621 0.25118 0.0
C504 C 0.99787 0.72556 0.26002 0.0
H505 H 0.86588 0.70944 0.28799 0.0
H506 H 0.89481 0.69532 0.27377 0.0
H507 H 0.88872 0.67935 0.29474 0.0
H508 H 0.95505 0.67252 0.29516 0.0
H509 H 0.96201 0.6212 0.27981 0.0
H510 H 0.05872 0.93124 0.68761 0.0
H511 H 0.11033 0.92832 0.66863 0.0
H512 H 0.19179 0.05797 0.67141 0.0
H513 H 0.14071 0.06131 0.69037 0.0
H514 H 0.13611 0.9699 0.63771 0.0
H515 H 0.27629 0.01467 0.6793 0.0
H516 H 0.22168 0.9962 0.68668 0.0
H517 H 0.25376 0.04753 0.67973 0.0
C518 C 0.08788 0.9591 0.68435 0.0
C519 C 0.09559 0.99652 0.69052 0.0
C520 C 0.11723 0.95735 0.67348 0.0
C521 C 0.155 0.99288 0.66877 0.0
C522 C 0.16315 0.03015 0.6751 0.0
H523 H 0.36978 0.06061 0.60286 0.0
H524 H 0.31667 0.0581 0.62246 0.0
C525 C 0.13377 0.03198 0.68588 0.0
C526 C 0.18485 0.99144 0.65655 0.0
H527 H 0.28958 0.01379 0.65089 0.0
C528 C 0.16958 0.97912 0.64058 0.0
C529 C 0.22847 1.00373 0.66038 0.0
C530 C 0.24607 0.01597 0.67748 0.0
C531 C 0.19721 0.97987 0.62817 0.0
C532 C 0.24099 0.99247 0.63196 0.0
C533 C 0.25605 0.00428 0.64801 0.0
C534 C 0.27192 0.994 0.61947 0.0
C535 C 0.17964 0.96842 0.61102 0.0
C536 C 0.26432 0.95879 0.61126 0.0
C537 C 0.29435 0.96021 0.59989 0.0
C538 C 0.33282 0.99682 0.59663 0.0
C539 C 0.34019 0.03206 0.60485 0.0
C540 C 0.31007 0.03063 0.61617 0.0
H541 H 0.14961 0.97012 0.60932 0.0
H542 H 0.20408 0.9884 0.60188 0.0
H543 H 0.17151 0.93683 0.60855 0.0
H544 H 0.23548 0.93006 0.61383 0.0
H545 H 0.28749 0.93257 0.59369 0.0
H546 H 0.14279 0.06295 0.02214 0.0
H547 H 0.19789 0.11445 0.00421 0.0
H548 H 0.13355 0.18447 0.00744 0.0
H549 H 0.07807 0.13303 0.02503 0.0
H550 H 0.15211 0.17475 0.97601 0.0
H551 H 0.29782 0.22691 0.01534 0.0
H552 H 0.2682 0.17336 0.01162 0.0
H553 H 0.24324 0.19648 0.02305 0.0
C554 C 0.14062 0.08951 0.01916 0.0
C555 C 0.10598 0.09384 0.02501 0.0
C556 C 0.17226 0.119 0.00897 0.0
C557 C 0.17005 0.15348 0.00463 0.0
C558 C 0.13588 0.1581 0.01065 0.0
H559 H 0.36219 0.37772 0.9608 0.0
H560 H 0.31151 0.32323 0.9787 0.0
C561 C 0.1042 0.12864 0.02073 0.0
C562 C 0.20204 0.18409 0.99324 0.0
H563 H 0.3097 0.25323 0.98843 0.0
C564 C 0.18659 0.19189 0.9787 0.0
C565 C 0.24692 0.20661 0.99687 0.0
C566 C 0.26512 0.20078 0.01263 0.0
C567 C 0.21473 0.22178 0.96773 0.0
C568 C 0.25971 0.24387 0.97122 0.0
C569 C 0.27523 0.23599 0.98573 0.0
C570 C 0.29091 0.27647 0.9603 0.0
C571 C 0.19582 0.23024 0.95275 0.0
C572 C 0.29647 0.26818 0.94406 0.0
C573 C 0.32499 0.29938 0.93371 0.0
C574 C 0.3488 0.33943 0.93947 0.0
C575 C 0.34374 0.3474 0.95587 0.0
C576 C 0.31511 0.31623 0.96616 0.0
H577 H 0.16029 0.21807 0.95399 0.0
H578 H 0.21179 0.26325 0.95033 0.0
H579 H 0.20114 0.21558 0.94199 0.0
H580 H 0.27866 0.23757 0.93936 0.0
H581 H 0.32793 0.29219 0.92115 0.0
H582 H 0.06337 0.16972 0.35738 0.0
H583 H 0.05962 0.2158 0.33768 0.0
H584 H 1.00057 0.11916 0.30243 0.0
H585 H 0.00441 0.07256 0.32211 0.0
H586 H 0.06652 0.19632 0.28946 0.0
H587 H 0.94226 0.20824 0.32618 0.0
H588 H 0.99026 0.21892 0.3374 0.0
H589 H 0.95553 0.16893 0.32945 0.0
C590 C 0.04995 0.15823 0.34539 0.0
C591 C 0.03384 0.11734 0.34136 0.0
C592 C 0.04766 0.18462 0.33417 0.0
C593 C 0.02906 0.17068 0.31873 0.0
C594 C 0.01476 0.13039 0.31435 0.0
H595 H 0.94233 0.30202 0.25647 0.0
H596 H 0.94638 0.24975 0.27238 0.0
C597 C 0.01704 0.10385 0.32559 0.0
C598 C 0.02338 0.19803 0.30746 0.0
H599 H 0.97414 0.25484 0.30427 0.0
C600 C 0.04613 0.20895 0.29261 0.0
C601 C 0.99622 0.21394 0.31152 0.0
C602 C 0.96931 0.20168 0.32693 0.0
C603 C 0.04353 0.23648 0.28194 0.0
C604 C 0.01789 0.25379 0.28636 0.0
C605 C 0.99408 0.24182 0.30096 0.0
C606 C 0.01584 0.28494 0.27619 0.0
C607 C 0.06804 0.24663 0.26599 0.0
C608 C 0.05346 0.32224 0.27322 0.0
C609 C 0.05122 0.35224 0.26423 0.0
C610 C 0.01123 0.34565 0.2581 0.0
C611 C 0.97356 0.30826 0.26115 0.0
C612 C 0.97585 0.27826 0.27015 0.0
H613 H 0.07588 0.22296 0.2624 0.0
H614 H 0.0491 0.25024 0.25601 0.0
H615 H 0.09908 0.27561 0.26735 0.0
H616 H 0.08449 0.32846 0.27813 0.0
H617 H 0.08072 0.38094 0.26237 0.0
loop_
_geom_bond_atom_site_label_1
_geom_bond_atom_site_label_2
_geom_bond_distance
_geom_bond_site_symmetry_2
_ccdc_geom_bond_type
O0 Cd1 2.223 1_455 S
O0 C8 1.315 . S
Cd1 O0 2.223 1_655 S
Cd1 O4 2.297 . S
Cd1 O5 2.439 . S
Cd1 O11 2.240 1_545 S
Cd2 O3 2.240 1_565 S
Cd2 O10 2.223 1_455 S
Cd2 O12 2.297 . S
Cd2 O13 2.439 . S
O3 Cd2 2.240 1_545 S
O3 C8 1.279 . S
O4 Cd1 2.297 . S
O4 C6 1.247 . S
O5 Cd1 2.439 . S
O5 C6 1.208 . S
C6 O4 1.247 . S
C6 O5 1.208 . S
C7 O12 1.247 . S
C7 O13 1.208 . S
C8 O0 1.315 . S
C8 O3 1.279 . S
C9 O10 1.315 . S
C9 O11 1.279 . S
O10 Cd2 2.223 1_655 S
O10 C9 1.315 . S
O11 Cd1 2.240 1_565 S
O11 C9 1.279 . S
O12 Cd2 2.297 . S
O12 C7 1.247 . S
O13 Cd2 2.439 . S
O13 C7 1.208 . S
O14 Cd15 2.223 1_655 S
O14 C22 1.315 . S
Cd15 O14 2.223 1_455 S
Cd15 O18 2.297 . S
Cd15 O19 2.439 . S
Cd15 O25 2.240 . S
Cd16 O17 2.240 . S
Cd16 O24 2.223 1_655 S
Cd16 O26 2.297 . S
Cd16 O27 2.451 . S
O17 Cd16 2.240 . S
O17 C22 1.279 1_565 S
O18 Cd15 2.297 . S
O18 C20 1.247 . S
O19 Cd15 2.439 . S
O19 C20 1.208 . S
C20 O18 1.247 . S
C20 O19 1.208 . S
C21 O26 1.247 . S
C21 O27 1.195 . S
C22 O14 1.315 . S
C22 O17 1.279 1_545 S
C23 O24 1.315 . S
C23 O25 1.279 1_565 S
O24 Cd16 2.223 1_455 S
O24 C23 1.315 . S
O25 Cd15 2.240 . S
O25 C23 1.279 1_545 S
O26 Cd16 2.297 . S
O26 C21 1.247 . S
O27 Cd16 2.451 . S
O27 C21 1.195 . S
O28 Cd29 2.223 . S
O28 C36 1.315 . S
Cd29 O28 2.223 . S
Cd29 O32 2.297 . S
Cd29 O33 2.439 . S
Cd29 O39 2.240 1_655 S
Cd30 O31 2.240 1_455 S
Cd30 O38 2.223 . S
Cd30 O40 2.297 . S
Cd30 O41 2.439 . S
O31 Cd30 2.240 1_655 S
O31 C36 1.279 1_545 S
O32 Cd29 2.297 . S
O32 C34 1.247 . S
O33 Cd29 2.439 . S
O33 C34 1.208 . S
C34 O32 1.247 . S
C34 O33 1.208 . S
C35 O40 1.247 . S
C35 O41 1.208 . S
C36 O28 1.315 . S
C36 O31 1.279 1_565 S
C37 O38 1.315 . S
C37 O39 1.279 1_545 S
O38 Cd30 2.223 . S
O38 C37 1.315 . S
O39 Cd29 2.240 1_455 S
O39 C37 1.279 1_565 S
O40 Cd30 2.297 . S
O40 C35 1.247 . S
O41 Cd30 2.439 . S
O41 C35 1.208 . S
H42 C61 0.949 . S
H43 C62 0.950 . S
H44 C64 0.950 . S
H45 C65 0.950 . S
H46 C67 0.950 . S
H47 C70 0.950 . S
H48 C71 0.950 . S
H49 C73 0.951 . S
H50 C74 0.949 . S
H51 C76 0.949 . S
H52 C77 0.950 . S
H53 C79 0.950 . S
H54 C80 0.950 . S
H55 C82 0.950 . S
H56 C85 0.950 . S
H57 C86 0.950 . S
H58 C88 0.951 . S
H59 C89 0.949 . S
C60 C61 1.376 . S
C60 C65 1.386 1_455 S
C60 C66 1.483 . S
C61 H42 0.949 . S
C61 C60 1.376 . S
C61 C62 1.397 . S
C62 H43 0.950 . S
C62 C61 1.397 . S
C62 C63 1.391 . S
C63 C62 1.391 . S
C63 C64 1.405 1_455 S
C64 H44 0.950 . S
C64 C63 1.405 1_655 S
C64 C65 1.367 . S
C65 H45 0.950 . S
C65 C60 1.386 1_655 S
C65 C64 1.367 . S
C66 C60 1.483 . S
C66 C67 1.382 . S
C66 C68 1.403 1_455 S
C67 H46 0.950 . S
C67 C66 1.382 . S
C67 C83 1.411 . S
C68 C66 1.403 1_655 S
C68 C69 1.489 . S
C68 C82 1.411 . S
C69 C68 1.489 . S
C69 C70 1.383 1_655 S
C69 C74 1.382 . S
C70 H47 0.950 . S
C70 C69 1.383 1_455 S
C70 C71 1.395 . S
C71 H48 0.950 . S
C71 C70 1.395 . S
C71 C72 1.288 1_455 S
C72 C71 1.288 1_655 S
C72 C73 1.392 . S
C73 H49 0.951 . S
C73 C72 1.392 . S
C73 C74 1.392 . S
C74 H50 0.949 . S
C74 C69 1.382 . S
C74 C73 1.392 . S
C75 C76 1.376 . S
C75 C80 1.386 1_655 S
C75 C81 1.483 . S
C76 H51 0.949 . S
C76 C75 1.376 . S
C76 C77 1.397 . S
C77 H52 0.950 . S
C77 C76 1.397 . S
C77 C78 1.391 . S
C78 C77 1.391 . S
C78 C79 1.405 1_655 S
C79 H53 0.950 . S
C79 C78 1.405 1_455 S
C79 C80 1.367 . S
C80 H54 0.950 . S
C80 C75 1.386 1_455 S
C80 C79 1.367 . S
C81 C75 1.483 . S
C81 C82 1.382 . S
C81 C83 1.403 1_655 S
C82 H55 0.950 . S
C82 C68 1.411 . S
C82 C81 1.382 . S
C83 C67 1.411 . S
C83 C81 1.403 1_455 S
C83 C84 1.489 . S
C84 C83 1.489 . S
C84 C85 1.383 1_455 S
C84 C89 1.382 . S
C85 H56 0.950 . S
C85 C84 1.383 1_655 S
C85 C86 1.395 . S
C86 H57 0.950 . S
C86 C85 1.395 . S
C86 C87 1.288 1_655 S
C87 C86 1.288 1_455 S
C87 C88 1.392 . S
C88 H58 0.951 . S
C88 C87 1.392 . S
C88 C89 1.392 . S
C89 H59 0.949 . S
C89 C84 1.382 . S
C89 C88 1.392 . S
H90 C109 0.949 . S
H91 C110 0.950 . S
H92 C112 0.950 . S
H93 C113 0.950 . S
H94 C115 0.950 . S
H95 C118 0.950 . S
H96 C119 0.950 . S
H97 C121 0.951 . S
H98 C122 0.949 . S
H99 C124 0.949 . S
H100 C125 0.950 . S
H101 C127 0.950 . S
H102 C128 0.950 . S
H103 C130 0.950 . S
H104 C133 0.950 . S
H105 C134 0.950 . S
H106 C136 0.951 . S
H107 C137 0.949 . S
C108 C109 1.376 . S
C108 C113 1.386 1_545 S
C108 C114 1.483 . S
C109 H90 0.949 . S
C109 C108 1.376 . S
C109 C110 1.397 . S
C110 H91 0.950 . S
C110 C109 1.397 . S
C110 C111 1.391 . S
C111 C110 1.391 . S
C111 C112 1.405 1_545 S
C112 H92 0.950 . S
C112 C111 1.405 1_565 S
C112 C113 1.367 . S
C113 H93 0.950 . S
C113 C108 1.386 1_565 S
C113 C112 1.367 . S
C114 C108 1.483 . S
C114 C115 1.382 . S
C114 C116 1.403 1_545 S
C115 H94 0.950 . S
C115 C114 1.382 . S
C115 C131 1.411 . S
C116 C114 1.403 1_565 S
C116 C117 1.489 . S
C116 C130 1.411 . S
C117 C116 1.489 . S
C117 C118 1.383 1_565 S
C117 C122 1.382 . S
C118 H95 0.950 . S
C118 C117 1.383 1_545 S
C118 C119 1.395 . S
C119 H96 0.950 . S
C119 C118 1.395 . S
C119 C120 1.288 1_545 S
C120 C119 1.288 1_565 S
C120 C121 1.392 . S
C121 H97 0.951 . S
C121 C120 1.392 . S
C121 C122 1.392 . S
C122 H98 0.949 . S
C122 C117 1.382 . S
C122 C121 1.392 . S
C123 C124 1.376 . S
C123 C128 1.386 1_565 S
C123 C129 1.483 . S
C124 H99 0.949 . S
C124 C123 1.376 . S
C124 C125 1.397 . S
C125 H100 0.950 . S
C125 C124 1.397 . S
C125 C126 1.423 . S
C126 C125 1.423 . S
C126 C127 1.388 1_565 S
C127 H101 0.950 . S
C127 C126 1.388 1_545 S
C127 C128 1.367 . S
C128 H102 0.950 . S
C128 C123 1.386 1_545 S
C128 C127 1.367 . S
C129 C123 1.483 . S
C129 C130 1.382 . S
C129 C131 1.403 1_565 S
C130 H103 0.950 . S
C130 C116 1.411 . S
C130 C129 1.382 . S
C131 C115 1.411 . S
C131 C129 1.403 1_545 S
C131 C132 1.489 . S
C132 C131 1.489 . S
C132 C133 1.383 1_545 S
C132 C137 1.382 . S
C133 H104 0.950 . S
C133 C132 1.383 1_565 S
C133 C134 1.395 . S
C134 H105 0.950 . S
C134 C133 1.395 . S
C134 C135 1.288 1_565 S
C135 C134 1.288 1_545 S
C135 C136 1.392 . S
C136 H106 0.951 . S
C136 C135 1.392 . S
C136 C137 1.392 . S
C137 H107 0.949 . S
C137 C132 1.382 . S
C137 C136 1.392 . S
H138 C157 0.949 . S
H139 C158 0.950 . S
H140 C160 0.950 . S
H141 C161 0.950 . S
H142 C163 0.950 . S
H143 C166 0.950 . S
H144 C167 0.950 . S
H145 C169 0.951 . S
H146 C170 0.949 . S
H147 C172 0.949 . S
H148 C173 0.950 . S
H149 C175 0.950 . S
H150 C176 0.950 . S
H151 C178 0.950 . S
H152 C181 0.950 . S
H153 C182 0.950 . S
H154 C184 0.951 . S
H155 C185 0.949 . S
C156 C157 1.376 . S
C156 C161 1.386 . S
C156 C162 1.483 . S
C157 H138 0.949 . S
C157 C156 1.376 . S
C157 C158 1.397 . S
C158 H139 0.950 . S
C158 C157 1.397 . S
C158 C159 1.391 . S
C159 C158 1.391 . S
C159 C160 1.405 . S
C160 H140 0.950 . S
C160 C159 1.405 . S
C160 C161 1.367 . S
C161 H141 0.950 . S
C161 C156 1.386 . S
C161 C160 1.367 . S
C162 C156 1.483 . S
C162 C163 1.382 . S
C162 C164 1.403 . S
C163 H142 0.950 . S
C163 C162 1.382 . S
C163 C179 1.411 . S
C164 C162 1.403 . S
C164 C165 1.489 . S
C164 C178 1.411 . S
C165 C164 1.489 . S
C165 C166 1.383 . S
C165 C170 1.382 . S
C166 H143 0.950 . S
C166 C165 1.383 . S
C166 C167 1.395 . S
C167 H144 0.950 . S
C167 C166 1.395 . S
C167 C168 1.288 . S
C168 C167 1.288 . S
C168 C169 1.392 . S
C169 H145 0.951 . S
C169 C168 1.392 . S
C169 C170 1.392 . S
C170 H146 0.949 . S
C170 C165 1.382 . S
C170 C169 1.392 . S
C171 C172 1.376 . S
C171 C176 1.386 . S
C171 C177 1.483 . S
C172 H147 0.949 . S
C172 C171 1.376 . S
C172 C173 1.397 . S
C173 H148 0.950 . S
C173 C172 1.397 . S
C173 C174 1.391 . S
C174 C173 1.391 . S
C174 C175 1.405 . S
C175 H149 0.950 . S
C175 C174 1.405 . S
C175 C176 1.367 . S
C176 H150 0.950 . S
C176 C171 1.386 . S
C176 C175 1.367 . S
C177 C171 1.483 . S
C177 C178 1.382 . S
C177 C179 1.403 . S
C178 H151 0.950 . S
C178 C164 1.411 . S
C178 C177 1.382 . S
C179 C163 1.411 . S
C179 C177 1.403 . S
C179 C180 1.489 . S
C180 C179 1.489 . S
C180 C181 1.383 . S
C180 C185 1.382 . S
C181 H152 0.950 . S
C181 C180 1.383 . S
C181 C182 1.395 . S
C182 H153 0.950 . S
C182 C181 1.395 . S
C182 C183 1.288 . S
C183 C182 1.288 . S
C183 C184 1.392 . S
C184 H154 0.951 . S
C184 C183 1.392 . S
C184 C185 1.392 . S
C185 H155 0.949 . S
C185 C180 1.382 . S
C185 C184 1.392 . S
H186 C194 0.929 . S
H187 C196 0.930 . S
H188 C198 0.930 . S
H189 C201 0.929 . S
H190 C204 0.930 . S
H191 C206 0.960 . S
H192 C206 0.960 . S
H193 C206 0.960 . S
C194 H186 0.929 . S
C194 C195 1.380 . S
C194 C196 1.384 . S
C195 C194 1.380 . S
C195 C201 1.378 1_455 S
C196 H187 0.930 . S
C196 C194 1.384 . S
C196 C197 1.384 . S
C197 C196 1.384 . S
C197 C198 1.397 1_455 S
C197 C202 1.482 . S
C198 H188 0.930 . S
C198 C197 1.397 1_655 S
C198 C201 1.386 . S
H199 C215 0.930 . S
H200 C216 0.931 . S
C201 H189 0.929 . S
C201 C195 1.378 1_655 S
C201 C198 1.386 . S
C202 C197 1.482 . S
C202 C204 1.395 . S
C202 C205 1.403 1_455 S
H203 C209 0.930 . S
C204 H190 0.930 . S
C204 C202 1.395 . S
C204 C207 1.403 . S
C205 C202 1.403 1_655 S
C205 C206 1.524 . S
C205 C209 1.400 . S
C206 H191 0.960 . S
C206 H192 0.960 . S
C206 H193 0.960 . S
C206 C205 1.524 . S
C207 C204 1.403 . S
C207 C208 1.392 . S
C207 C211 1.495 . S
C208 C207 1.392 . S
C208 C209 1.385 1_455 S
C208 C210 1.478 . S
C209 H203 0.930 . S
C209 C205 1.400 . S
C209 C208 1.385 1_655 S
C210 C208 1.478 . S
C210 C212 1.381 . S
C210 C216 1.383 . S
C211 C207 1.495 . S
C211 H217 0.959 . S
C211 H218 0.961 . S
C211 H219 0.960 . S
C212 C210 1.381 . S
C212 C213 1.394 . S
C212 H220 0.930 . S
C213 C212 1.394 . S
C213 C214 1.383 . S
C213 H221 0.929 . S
C214 C213 1.383 . S
C214 C215 1.377 . S
C215 H199 0.930 . S
C215 C214 1.377 . S
C215 C216 1.379 . S
C216 H200 0.931 . S
C216 C210 1.383 . S
C216 C215 1.379 . S
H217 C211 0.959 . S
H218 C211 0.961 . S
H219 C211 0.960 . S
H220 C212 0.930 . S
H221 C213 0.929 . S
H222 C230 0.929 . S
H223 C232 0.930 . S
H224 C234 0.930 . S
H225 C237 0.929 . S
H226 C240 0.930 . S
H227 C242 0.960 . S
H228 C242 0.960 . S
H229 C242 0.960 . S
C230 H222 0.929 . S
C230 C231 1.377 1_565 S
C230 C232 1.384 . S
C231 C230 1.377 1_545 S
C231 C237 1.390 . S
C232 H223 0.930 . S
C232 C230 1.384 . S
C232 C233 1.372 1_565 S
C233 C232 1.372 1_545 S
C233 C234 1.400 . S
C233 C238 1.490 . S
C234 H224 0.930 . S
C234 C233 1.400 . S
C234 C237 1.386 . S
H235 C251 0.930 . S
H236 C252 0.931 . S
C237 H225 0.929 . S
C237 C231 1.390 . S
C237 C234 1.386 . S
C238 C233 1.490 . S
C238 C240 1.395 . S
C238 C241 1.403 1_545 S
H239 C245 0.930 . S
C240 H226 0.930 . S
C240 C238 1.395 . S
C240 C243 1.403 . S
C241 C238 1.403 1_565 S
C241 C242 1.524 . S
C241 C245 1.400 . S
C242 H227 0.960 . S
C242 H228 0.960 . S
C242 H229 0.960 . S
C242 C241 1.524 . S
C243 C240 1.403 . S
C243 C244 1.392 . S
C243 C247 1.495 . S
C244 C243 1.392 . S
C244 C245 1.385 1_545 S
C244 C246 1.478 . S
C245 H239 0.930 . S
C245 C241 1.400 . S
C245 C244 1.385 1_565 S
C246 C244 1.478 . S
C246 C248 1.381 1_545 S
C246 C252 1.383 . S
C247 C243 1.495 . S
C247 H253 0.959 . S
C247 H254 0.961 . S
C247 H255 0.960 . S
C248 C246 1.381 1_565 S
C248 C249 1.394 . S
C248 H256 0.930 . S
C249 C248 1.394 . S
C249 C250 1.383 1_565 S
C249 H257 0.929 . S
C250 C249 1.383 1_545 S
C250 C251 1.377 . S
C251 H235 0.930 . S
C251 C250 1.377 . S
C251 C252 1.379 . S
C252 H236 0.931 . S
C252 C246 1.383 . S
C252 C251 1.379 . S
H253 C247 0.959 . S
H254 C247 0.961 . S
H255 C247 0.960 . S
H256 C248 0.930 . S
H257 C249 0.929 . S
H258 C266 0.929 . S
H259 C268 0.930 . S
H260 C270 0.930 . S
H261 C273 0.929 . S
H262 C276 0.930 . S
H263 C278 0.960 . S
H264 C278 0.960 . S
H265 C278 0.960 . S
C266 H258 0.929 . S
C266 C267 1.377 . S
C266 C268 1.384 . S
C267 C266 1.377 . S
C267 C273 1.390 . S
C268 H259 0.930 . S
C268 C266 1.384 . S
C268 C269 1.372 . S
C269 C268 1.372 . S
C269 C270 1.400 . S
C269 C274 1.490 . S
C270 H260 0.930 . S
C270 C269 1.400 . S
C270 C273 1.386 . S
H271 C287 0.930 . S
H272 C288 0.931 . S
C273 H261 0.929 . S
C273 C267 1.390 . S
C273 C270 1.386 . S
C274 C269 1.490 . S
C274 C276 1.395 . S
C274 C277 1.403 . S
H275 C281 0.930 . S
C276 H262 0.930 . S
C276 C274 1.395 . S
C276 C279 1.403 . S
C277 C274 1.403 . S
C277 C278 1.524 . S
C277 C281 1.400 . S
C278 H263 0.960 . S
C278 H264 0.960 . S
C278 H265 0.960 . S
C278 C277 1.524 . S
C279 C276 1.403 . S
C279 C280 1.392 . S
C279 C283 1.495 . S
C280 C279 1.392 . S
C280 C281 1.385 . S
C280 C282 1.478 . S
C281 H275 0.930 . S
C281 C277 1.400 . S
C281 C280 1.385 . S
C282 C280 1.478 . S
C282 C284 1.381 . S
C282 C288 1.383 . S
C283 C279 1.495 . S
C283 H289 0.959 . S
C283 H290 0.961 . S
C283 H291 0.960 . S
C284 C282 1.381 . S
C284 C285 1.394 . S
C284 H292 0.930 . S
C285 C284 1.394 . S
C285 C286 1.383 . S
C285 H293 0.929 . S
C286 C285 1.383 . S
C286 C287 1.377 . S
C287 H271 0.930 . S
C287 C286 1.377 . S
C287 C288 1.379 . S
C288 H272 0.931 . S
C288 C282 1.383 . S
C288 C287 1.379 . S
H289 C283 0.959 . S
H290 C283 0.961 . S
H291 C283 0.960 . S
H292 C284 0.930 . S
H293 C285 0.929 . S
H294 C302 0.929 . S
H295 C304 0.930 . S
H296 C306 0.930 . S
H297 C309 0.929 . S
H298 C312 0.930 . S
H299 C314 0.960 . S
H300 C314 0.960 . S
H301 C314 0.960 . S
C302 H294 0.929 . S
C302 C303 1.357 1_455 S
C302 C304 1.384 . S
C303 C302 1.357 1_655 S
C303 C309 1.400 . S
C304 H295 0.930 . S
C304 C302 1.384 . S
C304 C305 1.377 . S
C305 C304 1.377 . S
C305 C306 1.389 1_455 S
C305 C310 1.496 . S
C306 H296 0.930 . S
C306 C305 1.389 1_655 S
C306 C309 1.386 . S
H307 C323 0.930 . S
H308 C324 0.931 . S
C309 H297 0.929 . S
C309 C303 1.400 . S
C309 C306 1.386 . S
C310 C305 1.496 . S
C310 C312 1.395 . S
C310 C313 1.403 1_455 S
H311 C317 0.930 . S
C312 H298 0.930 . S
C312 C310 1.395 . S
C312 C315 1.403 . S
C313 C310 1.403 1_655 S
C313 C314 1.524 . S
C313 C317 1.400 . S
C314 H299 0.960 . S
C314 H300 0.960 . S
C314 H301 0.960 . S
C314 C313 1.524 . S
C315 C312 1.403 . S
C315 C316 1.392 . S
C315 C319 1.495 . S
C316 C315 1.392 . S
C316 C317 1.385 1_455 S
C316 C318 1.478 . S
C317 H311 0.930 . S
C317 C313 1.400 . S
C317 C316 1.385 1_655 S
C318 C316 1.478 . S
C318 C320 1.381 . S
C318 C324 1.383 1_455 S
C319 C315 1.495 . S
C319 H325 0.959 . S
C319 H326 0.961 . S
C319 H327 0.960 . S
C320 C318 1.381 . S
C320 C321 1.394 . S
C320 H328 0.930 . S
C321 C320 1.394 . S
C321 C322 1.383 . S
C321 H329 0.929 . S
C322 C321 1.383 . S
C322 C323 1.377 1_455 S
C323 H307 0.930 . S
C323 C322 1.377 1_655 S
C323 C324 1.379 . S
C324 H308 0.931 . S
C324 C318 1.383 1_655 S
C324 C323 1.379 . S
H325 C319 0.959 . S
H326 C319 0.961 . S
H327 C319 0.960 . S
H328 C320 0.930 . S
H329 C321 0.929 . S
H330 C338 0.929 . S
H331 C340 0.930 . S
H332 C342 0.930 . S
H333 C345 0.929 . S
H334 C348 0.930 . S
H335 C350 0.960 . S
H336 C350 0.960 . S
H337 C350 0.960 . S
C338 H330 0.929 . S
C338 C339 1.377 1_545 S
C338 C340 1.384 . S
C339 C338 1.377 1_565 S
C339 C345 1.390 . S
C340 H331 0.930 . S
C340 C338 1.384 . S
C340 C341 1.370 1_545 S
C341 C340 1.370 1_565 S
C341 C342 1.401 . S
C341 C346 1.491 1_565 S
C342 H332 0.930 . S
C342 C341 1.401 . S
C342 C345 1.386 . S
H343 C359 0.930 . S
H344 C360 0.931 . S
C345 H333 0.929 . S
C345 C339 1.390 . S
C345 C342 1.386 . S
C346 C341 1.491 1_545 S
C346 C348 1.395 . S
C346 C349 1.403 1_545 S
H347 C353 0.930 . S
C348 H334 0.930 . S
C348 C346 1.395 . S
C348 C351 1.403 . S
C349 C346 1.403 1_565 S
C349 C350 1.524 . S
C349 C353 1.400 . S
C350 H335 0.960 . S
C350 H336 0.960 . S
C350 H337 0.960 . S
C350 C349 1.524 . S
C351 C348 1.403 . S
C351 C352 1.392 . S
C351 C355 1.495 . S
C352 C351 1.392 . S
C352 C353 1.385 1_545 S
C352 C354 1.478 . S
C353 H347 0.930 . S
C353 C349 1.400 . S
C353 C352 1.385 1_565 S
C354 C352 1.478 . S
C354 C356 1.381 . S
C354 C360 1.383 1_545 S
C355 C351 1.495 . S
C355 H361 0.959 . S
C355 H362 0.961 . S
C355 H363 0.960 . S
C356 C354 1.381 . S
C356 C357 1.394 . S
C356 H364 0.930 . S
C357 C356 1.394 . S
C357 C358 1.383 . S
C357 H365 0.929 . S
C358 C357 1.383 . S
C358 C359 1.377 1_545 S
C359 H343 0.930 . S
C359 C358 1.377 1_565 S
C359 C360 1.379 . S
C360 H344 0.931 . S
C360 C354 1.383 1_565 S
C360 C359 1.379 . S
H361 C355 0.959 . S
H362 C355 0.961 . S
H363 C355 0.960 . S
H364 C356 0.930 . S
H365 C357 0.929 . S
H366 C374 0.929 . S
H367 C376 0.930 . S
H368 C378 0.930 . S
H369 C381 0.929 . S
H370 C384 0.930 . S
H371 C386 0.960 . S
H372 C386 0.960 . S
H373 C386 0.960 . S
C374 H366 0.929 . S
C374 C375 1.377 . S
C374 C376 1.384 . S
C375 C374 1.377 . S
C375 C381 1.390 . S
C376 H367 0.930 . S
C376 C374 1.384 . S
C376 C377 1.372 . S
C377 C376 1.372 . S
C377 C378 1.400 . S
C377 C382 1.490 . S
C378 H368 0.930 . S
C378 C377 1.400 . S
C378 C381 1.386 . S
H379 C395 0.930 . S
H380 C396 0.931 . S
C381 H369 0.929 . S
C381 C375 1.390 . S
C381 C378 1.386 . S
C382 C377 1.490 . S
C382 C384 1.395 . S
C382 C385 1.403 . S
H383 C389 0.930 . S
C384 H370 0.930 . S
C384 C382 1.395 . S
C384 C387 1.403 . S
C385 C382 1.403 . S
C385 C386 1.524 . S
C385 C389 1.400 . S
C386 H371 0.960 . S
C386 H372 0.960 . S
C386 H373 0.960 . S
C386 C385 1.524 . S
C387 C384 1.403 . S
C387 C388 1.392 . S
C387 C391 1.495 . S
C388 C387 1.392 . S
C388 C389 1.385 . S
C388 C390 1.478 . S
C389 H383 0.930 . S
C389 C385 1.400 . S
C389 C388 1.385 . S
C390 C388 1.478 . S
C390 C392 1.381 . S
C390 C396 1.383 . S
C391 C387 1.495 . S
C391 H397 0.959 . S
C391 H398 0.961 . S
C391 H399 0.960 . S
C392 C390 1.381 . S
C392 C393 1.394 . S
C392 H400 0.930 . S
C393 C392 1.394 . S
C393 C394 1.383 . S
C393 H401 0.929 . S
C394 C393 1.383 . S
C394 C395 1.377 . S
C395 H379 0.930 . S
C395 C394 1.377 . S
C395 C396 1.379 . S
C396 H380 0.931 . S
C396 C390 1.383 . S
C396 C395 1.379 . S
H397 C391 0.959 . S
H398 C391 0.961 . S
H399 C391 0.960 . S
H400 C392 0.930 . S
H401 C393 0.929 . S
H402 C410 0.929 . S
H403 C412 0.930 . S
H404 C414 0.930 . S
H405 C417 0.929 . S
H406 C420 0.930 . S
H407 C422 0.960 . S
H408 C422 0.960 . S
H409 C422 0.960 . S
C410 H402 0.929 . S
C410 C411 1.377 1_545 S
C410 C412 1.384 . S
C411 C410 1.377 1_565 S
C411 C417 1.390 . S
C412 H403 0.930 . S
C412 C410 1.384 . S
C412 C413 1.372 1_545 S
C413 C412 1.372 1_565 S
C413 C414 1.400 . S
C413 C418 1.489 . S
C414 H404 0.930 . S
C414 C413 1.400 . S
C414 C417 1.386 . S
H415 C431 0.930 . S
H416 C432 0.931 . S
C417 H405 0.929 . S
C417 C411 1.390 . S
C417 C414 1.386 . S
C418 C413 1.489 . S
C418 C420 1.395 1_565 S
C418 C421 1.403 . S
H419 C425 0.930 . S
C420 H406 0.930 . S
C420 C418 1.395 1_545 S
C420 C423 1.403 . S
C421 C418 1.403 . S
C421 C422 1.524 . S
C421 C425 1.400 . S
C422 H407 0.960 . S
C422 H408 0.960 . S
C422 H409 0.960 . S
C422 C421 1.524 . S
C423 C420 1.403 . S
C423 C424 1.392 . S
C423 C427 1.495 . S
C424 C423 1.392 . S
C424 C425 1.385 1_545 S
C424 C426 1.478 . S
C425 H419 0.930 . S
C425 C421 1.400 . S
C425 C424 1.385 1_565 S
C426 C424 1.478 . S
C426 C428 1.381 . S
C426 C432 1.383 1_545 S
C427 C423 1.495 . S
C427 H433 0.959 . S
C427 H434 0.961 . S
C427 H435 0.960 . S
C428 C426 1.381 . S
C428 C429 1.394 . S
C428 H436 0.930 . S
C429 C428 1.394 . S
C429 C430 1.383 . S
C429 H437 0.929 . S
C430 C429 1.383 . S
C430 C431 1.377 1_545 S
C431 H415 0.930 . S
C431 C430 1.377 1_565 S
C431 C432 1.379 . S
C432 H416 0.931 . S
C432 C426 1.383 1_565 S
C432 C431 1.379 . S
H433 C427 0.959 . S
H434 C427 0.961 . S
H435 C427 0.960 . S
H436 C428 0.930 . S
H437 C429 0.929 . S
H438 C446 0.929 . S
H439 C448 0.930 . S
H440 C450 0.924 1_556 S
H441 C453 0.929 . S
H442 C456 0.930 . S
H443 C458 0.960 . S
H444 C458 0.960 . S
H445 C458 0.960 . S
C446 H438 0.929 . S
C446 C447 1.377 . S
C446 C448 1.384 1_554 S
C447 C446 1.377 . S
C447 C453 1.390 . S
C448 H439 0.930 . S
C448 C446 1.384 1_556 S
C448 C449 1.372 . S
C449 C448 1.372 . S
C449 C450 1.400 1_556 S
C449 C454 1.490 . S
C450 H440 0.924 1_554 S
C450 C449 1.400 1_554 S
C450 C453 1.386 . S
H451 C467 0.930 . S
H452 C468 0.931 . S
C453 H441 0.929 . S
C453 C447 1.390 . S
C453 C450 1.386 . S
C454 C449 1.490 . S
C454 C456 1.395 . S
C454 C457 1.403 . S
H455 C461 0.930 . S
C456 H442 0.930 . S
C456 C454 1.395 . S
C456 C459 1.403 . S
C457 C454 1.403 . S
C457 C458 1.524 . S
C457 C461 1.400 . S
C458 H443 0.960 . S
C458 H444 0.960 . S
C458 H445 0.960 . S
C458 C457 1.524 . S
C459 C456 1.403 . S
C459 C460 1.392 . S
C459 C463 1.495 . S
C460 C459 1.392 . S
C460 C461 1.385 . S
C460 C462 1.478 . S
C461 H455 0.930 . S
C461 C457 1.400 . S
C461 C460 1.385 . S
C462 C460 1.478 . S
C462 C464 1.381 . S
C462 C468 1.383 . S
C463 C459 1.495 . S
C463 H469 0.959 . S
C463 H470 0.961 . S
C463 H471 0.960 . S
C464 C462 1.381 . S
C464 C465 1.394 . S
C464 H472 0.930 . S
C465 C464 1.394 . S
C465 C466 1.383 . S
C465 H473 0.929 . S
C466 C465 1.383 . S
C466 C467 1.377 . S
C467 H451 0.930 . S
C467 C466 1.377 . S
C467 C468 1.379 . S
C468 H452 0.931 . S
C468 C462 1.383 . S
C468 C467 1.379 . S
H469 C463 0.959 . S
H470 C463 0.961 . S
H471 C463 0.960 . S
H472 C464 0.930 . S
H473 C465 0.929 . S
H474 C482 0.929 . S
H475 C484 0.930 . S
H476 C486 0.930 . S
H477 C489 0.929 . S
H478 C492 0.930 . S
H479 C494 0.960 . S
H480 C494 0.960 . S
H481 C494 0.960 . S
C482 H474 0.929 . S
C482 C483 1.377 1_655 S
C482 C484 1.384 . S
C483 C482 1.377 1_455 S
C483 C489 1.390 . S
C484 H475 0.930 . S
C484 C482 1.384 . S
C484 C485 1.372 1_655 S
C485 C484 1.372 1_455 S
C485 C486 1.400 . S
C485 C490 1.485 . S
C486 H476 0.930 . S
C486 C485 1.400 . S
C486 C489 1.386 . S
H487 C503 0.930 . S
H488 C504 0.931 . S
C489 H477 0.929 . S
C489 C483 1.390 . S
C489 C486 1.386 . S
C490 C485 1.485 . S
C490 C492 1.387 1_455 S
C490 C493 1.416 . S
H491 C497 0.930 . S
C492 H478 0.930 . S
C492 C490 1.387 1_655 S
C492 C495 1.403 . S
C493 C490 1.416 . S
C493 C494 1.524 . S
C493 C497 1.400 . S
C494 H479 0.960 . S
C494 H480 0.960 . S
C494 H481 0.960 . S
C494 C493 1.524 . S
C495 C492 1.403 . S
C495 C496 1.392 . S
C495 C499 1.495 . S
C496 C495 1.392 . S
C496 C497 1.385 1_655 S
C496 C498 1.478 . S
C497 H491 0.930 . S
C497 C493 1.400 . S
C497 C496 1.385 1_455 S
C498 C496 1.478 . S
C498 C500 1.381 . S
C498 C504 1.383 1_655 S
C499 C495 1.495 . S
C499 H505 0.959 . S
C499 H506 0.961 . S
C499 H507 0.960 . S
C500 C498 1.381 . S
C500 C501 1.394 . S
C500 H508 0.930 . S
C501 C500 1.394 . S
C501 C502 1.383 . S
C501 H509 0.929 . S
C502 C501 1.383 . S
C502 C503 1.377 1_655 S
C503 H487 0.930 . S
C503 C502 1.377 1_455 S
C503 C504 1.379 . S
C504 H488 0.931 . S
C504 C498 1.383 1_455 S
C504 C503 1.379 . S
H505 C499 0.959 . S
H506 C499 0.961 . S
H507 C499 0.960 . S
H508 C500 0.930 . S
H509 C501 0.929 . S
H510 C518 0.929 . S
H511 C520 0.930 . S
H512 C522 0.930 . S
H513 C525 0.929 . S
H514 C528 0.930 . S
H515 C530 0.960 . S
H516 C530 0.960 . S
H517 C530 0.960 . S
C518 H510 0.929 . S
C518 C519 1.377 1_565 S
C518 C520 1.384 . S
C519 C518 1.377 1_545 S
C519 C525 1.390 . S
C520 H511 0.930 . S
C520 C518 1.384 . S
C520 C521 1.372 1_565 S
C521 C520 1.372 1_545 S
C521 C522 1.400 . S
C521 C526 1.500 . S
C522 H512 0.930 . S
C522 C521 1.400 . S
C522 C525 1.386 . S
H523 C539 0.930 . S
H524 C540 0.931 . S
C525 H513 0.929 . S
C525 C519 1.390 . S
C525 C522 1.386 . S
C526 C521 1.500 . S
C526 C528 1.381 1_545 S
C526 C529 1.406 . S
H527 C533 0.930 . S
C528 H514 0.930 . S
C528 C526 1.381 1_565 S
C528 C531 1.403 . S
C529 C526 1.406 . S
C529 C530 1.524 . S
C529 C533 1.400 . S
C530 H515 0.960 . S
C530 H516 0.960 . S
C530 H517 0.960 . S
C530 C529 1.524 . S
C531 C528 1.403 . S
C531 C532 1.392 . S
C531 C535 1.495 . S
C532 C531 1.392 . S
C532 C533 1.385 1_565 S
C532 C534 1.478 . S
C533 H527 0.930 . S
C533 C529 1.400 . S
C533 C532 1.385 1_545 S
C534 C532 1.478 . S
C534 C536 1.381 . S
C534 C540 1.383 1_565 S
C535 C531 1.495 . S
C535 H541 0.959 . S
C535 H542 0.961 . S
C535 H543 0.960 . S
C536 C534 1.381 . S
C536 C537 1.394 . S
C536 H544 0.930 . S
C537 C536 1.394 . S
C537 C538 1.383 . S
C537 H545 0.929 . S
C538 C537 1.383 . S
C538 C539 1.377 1_565 S
C539 H523 0.930 . S
C539 C538 1.377 1_545 S
C539 C540 1.379 . S
C540 H524 0.931 . S
C540 C534 1.383 1_545 S
C540 C539 1.379 . S
H541 C535 0.959 . S
H542 C535 0.961 . S
H543 C535 0.960 . S
H544 C536 0.930 . S
H545 C537 0.929 . S
H546 C554 0.928 . S
H547 C556 0.930 . S
H548 C558 0.930 . S
H549 C561 0.929 . S
H550 C564 0.930 . S
H551 C566 0.960 . S
H552 C566 0.960 . S
H553 C566 0.960 . S
C554 H546 0.928 . S
C554 C555 1.377 . S
C554 C556 1.384 1_554 S
C555 C554 1.377 . S
C555 C561 1.390 . S
C556 H547 0.930 . S
C556 C554 1.384 1_556 S
C556 C557 1.372 . S
C557 C556 1.372 . S
C557 C558 1.400 1_556 S
C557 C562 1.490 . S
C558 H548 0.930 . S
C558 C557 1.400 1_554 S
C558 C561 1.386 . S
H559 C575 0.930 . S
H560 C576 0.931 . S
C561 H549 0.929 . S
C561 C555 1.390 . S
C561 C558 1.386 . S
C562 C557 1.490 . S
C562 C564 1.395 . S
C562 C565 1.403 . S
H563 C569 0.930 . S
C564 H550 0.930 . S
C564 C562 1.395 . S
C564 C567 1.403 . S
C565 C562 1.403 . S
C565 C566 1.524 1_556 S
C565 C569 1.400 . S
C566 H551 0.960 . S
C566 H552 0.960 . S
C566 H553 0.960 . S
C566 C565 1.524 1_554 S
C567 C564 1.403 . S
C567 C568 1.392 . S
C567 C571 1.495 . S
C568 C567 1.392 . S
C568 C569 1.385 . S
C568 C570 1.478 . S
C569 H563 0.930 . S
C569 C565 1.400 . S
C569 C568 1.385 . S
C570 C568 1.478 . S
C570 C572 1.381 . S
C570 C576 1.383 . S
C571 C567 1.495 . S
C571 H577 0.959 . S
C571 H578 0.961 . S
C571 H579 0.960 . S
C572 C570 1.381 . S
C572 C573 1.394 . S
C572 H580 0.930 . S
C573 C572 1.394 . S
C573 C574 1.383 . S
C573 H581 0.929 . S
C574 C573 1.383 . S
C574 C575 1.377 . S
C575 H559 0.930 . S
C575 C574 1.377 . S
C575 C576 1.379 . S
C576 H560 0.931 . S
C576 C570 1.383 . S
C576 C575 1.379 . S
H577 C571 0.959 . S
H578 C571 0.961 . S
H579 C571 0.960 . S
H580 C572 0.930 . S
H581 C573 0.929 . S
H582 C590 0.929 . S
H583 C592 0.930 . S
H584 C594 0.930 . S
H585 C597 0.929 . S
H586 C600 0.930 . S
H587 C602 0.960 . S
H588 C602 0.960 . S
H589 C602 0.960 . S
C590 H582 0.929 . S
C590 C591 1.377 1_455 S
C590 C592 1.384 . S
C591 C590 1.377 1_655 S
C591 C597 1.390 . S
C592 H583 0.930 . S
C592 C590 1.384 . S
C592 C593 1.354 1_455 S
C593 C592 1.354 1_655 S
C593 C594 1.409 . S
C593 C598 1.511 1_655 S
C594 H584 0.930 . S
C594 C593 1.409 . S
C594 C597 1.386 . S
H595 C611 0.930 . S
H596 C612 0.931 . S
C597 H585 0.929 . S
C597 C591 1.390 . S
C597 C594 1.386 . S
C598 C593 1.511 1_455 S
C598 C600 1.413 . S
C598 C601 1.373 1_455 S
H599 C605 0.930 . S
C600 H586 0.930 . S
C600 C598 1.413 . S
C600 C603 1.403 . S
C601 C598 1.373 1_655 S
C601 C602 1.524 . S
C601 C605 1.400 . S
C602 H587 0.960 . S
C602 H588 0.960 . S
C602 H589 0.960 . S
C602 C601 1.524 . S
C603 C600 1.403 . S
C603 C604 1.392 . S
C603 C607 1.495 . S
C604 C603 1.392 . S
C604 C605 1.385 1_455 S
C604 C606 1.478 . S
C605 H599 0.930 . S
C605 C601 1.400 . S
C605 C604 1.385 1_655 S
C606 C604 1.478 . S
C606 C608 1.381 . S
C606 C612 1.383 1_455 S
C607 C603 1.495 . S
C607 H613 0.959 . S
C607 H614 0.961 . S
C607 H615 0.960 . S
C608 C606 1.381 . S
C608 C609 1.394 . S
C608 H616 0.930 . S
C609 C608 1.394 . S
C609 C610 1.383 . S
C609 H617 0.929 . S
C610 C609 1.383 . S
C610 C611 1.377 1_455 S
C611 H595 0.930 . S
C611 C610 1.377 1_655 S
C611 C612 1.379 . S
C612 H596 0.931 . S
C612 C606 1.383 1_655 S
C612 C611 1.379 . S
H613 C607 0.959 . S
H614 C607 0.961 . S
H615 C607 0.960 . S
H616 C608 0.930 . S
H617 C609 0.929 . S
C214 C63 1.495 . S
C195 C6 1.484 1_455 S
C231 C22 1.619 . S
C250 C111 1.635 . S
C267 C34 1.221 . S
C286 C183 1.248 . S
C303 C7 1.483 1_655 S
C322 C87 1.486 . S
C358 C135 1.628 . S
C339 C23 1.615 . S
C375 C35 1.225 . S
C394 C159 1.239 . S
C430 C120 1.636 1_545 S
C411 C36 1.619 . S
C447 C9 1.868 . S
C466 C174 1.903 . S
C502 C78 1.494 . S
C483 C21 1.471 1_455 S
C538 C126 1.623 . S
C519 C37 1.619 . S
C574 C168 1.894 . S
C555 C8 1.870 . S
C591 C20 1.469 1_655 S
C610 C72 1.499 1_455 S
