# Generated by pormake.
# Topology eea, (3,6)-cn, num edge types: 1
# Building blocks:
#     Node 0, Type 0, BuildingBlock: BETDIP_clean_linker_0, # of connection points: 3
#     Node 1, Type 0, BuildingBlock: BETDIP_clean_linker_0, # of connection points: 3
#     Node 2, Type 0, BuildingBlock: BETDIP_clean_linker_0, # of connection points: 3
#     Node 3, Type 0, BuildingBlock: BETDIP_clean_linker_0, # of connection points: 3
#     Node 4, Type 0, BuildingBlock: BETDIP_clean_linker_0, # of connection points: 3
#     Node 5, Type 0, BuildingBlock: BETDIP_clean_linker_0, # of connection points: 3
#     Node 6, Type 0, BuildingBlock: BETDIP_clean_linker_0, # of connection points: 3
#     Node 7, Type 0, BuildingBlock: BETDIP_clean_linker_0, # of connection points: 3
#     Node 8, Type 0, BuildingBlock: BETDIP_clean_linker_0, # of connection points: 3
#     Node 9, Type 0, BuildingBlock: BETDIP_clean_linker_0, # of connection points: 3
#     Node 10, Type 0, BuildingBlock: BETDIP_clean_linker_0, # of connection points: 3
#     Node 11, Type 0, BuildingBlock: BETDIP_clean_linker_0, # of connection points: 3
#     Node 12, Type 0, BuildingBlock: BETDIP_clean_linker_0, # of connection points: 3
#     Node 13, Type 0, BuildingBlock: BETDIP_clean_linker_0, # of connection points: 3
#     Node 14, Type 0, BuildingBlock: BETDIP_clean_linker_0, # of connection points: 3
#     Node 15, Type 0, BuildingBlock: BETDIP_clean_linker_0, # of connection points: 3
#     Node 16, Type 0, BuildingBlock: BETDIP_clean_linker_0, # of connection points: 3
#     Node 17, Type 0, BuildingBlock: BETDIP_clean_linker_0, # of connection points: 3
#     Node 18, Type 1, BuildingBlock: CUKXOW_clean_sbu_0, # of connection points: 6
#     Node 19, Type 1, BuildingBlock: CUKXOW_clean_sbu_0, # of connection points: 6
#     Node 20, Type 1, BuildingBlock: CUKXOW_clean_sbu_0, # of connection points: 6
#     Node 21, Type 1, BuildingBlock: CUKXOW_clean_sbu_0, # of connection points: 6
#     Node 22, Type 1, BuildingBlock: CUKXOW_clean_sbu_0, # of connection points: 6
#     Node 23, Type 1, BuildingBlock: CUKXOW_clean_sbu_0, # of connection points: 6
#     Node 24, Type 1, BuildingBlock: CUKXOW_clean_sbu_0, # of connection points: 6
#     Node 25, Type 1, BuildingBlock: CUKXOW_clean_sbu_0, # of connection points: 6
#     Node 26, Type 1, BuildingBlock: CUKXOW_clean_sbu_0, # of connection points: 6
#     Edge 27, Type (0, 1), BuildingBlock: CIFDUS_clean_linker_0, # of connection points: 2
#     Edge 28, Type (0, 1), BuildingBlock: CIFDUS_clean_linker_0, # of connection points: 2
#     Edge 29, Type (0, 1), BuildingBlock: CIFDUS_clean_linker_0, # of connection points: 2
#     Edge 30, Type (0, 1), BuildingBlock: CIFDUS_clean_linker_0, # of connection points: 2
#     Edge 31, Type (0, 1), BuildingBlock: CIFDUS_clean_linker_0, # of connection points: 2
#     Edge 32, Type (0, 1), BuildingBlock: CIFDUS_clean_linker_0, # of connection points: 2
#     Edge 33, Type (0, 1), BuildingBlock: CIFDUS_clean_linker_0, # of connection points: 2
#     Edge 34, Type (0, 1), BuildingBlock: CIFDUS_clean_linker_0, # of connection points: 2
#     Edge 35, Type (0, 1), BuildingBlock: CIFDUS_clean_linker_0, # of connection points: 2
#     Edge 36, Type (0, 1), BuildingBlock: CIFDUS_clean_linker_0, # of connection points: 2
#     Edge 37, Type (0, 1), BuildingBlock: CIFDUS_clean_linker_0, # of connection points: 2
#     Edge 38, Type (0, 1), BuildingBlock: CIFDUS_clean_linker_0, # of connection points: 2
#     Edge 39, Type (0, 1), BuildingBlock: CIFDUS_clean_linker_0, # of connection points: 2
#     Edge 40, Type (0, 1), BuildingBlock: CIFDUS_clean_linker_0, # of connection points: 2
#     Edge 41, Type (0, 1), BuildingBlock: CIFDUS_clean_linker_0, # of connection points: 2
#     Edge 42, Type (0, 1), BuildingBlock: CIFDUS_clean_linker_0, # of connection points: 2
#     Edge 43, Type (0, 1), BuildingBlock: CIFDUS_clean_linker_0, # of connection points: 2
#     Edge 44, Type (0, 1), BuildingBlock: CIFDUS_clean_linker_0, # of connection points: 2
#     Edge 45, Type (0, 1), BuildingBlock: CIFDUS_clean_linker_0, # of connection points: 2
#     Edge 46, Type (0, 1), BuildingBlock: CIFDUS_clean_linker_0, # of connection points: 2
#     Edge 47, Type (0, 1), BuildingBlock: CIFDUS_clean_linker_0, # of connection points: 2
#     Edge 48, Type (0, 1), BuildingBlock: CIFDUS_clean_linker_0, # of connection points: 2
#     Edge 49, Type (0, 1), BuildingBlock: CIFDUS_clean_linker_0, # of connection points: 2
#     Edge 50, Type (0, 1), BuildingBlock: CIFDUS_clean_linker_0, # of connection points: 2
#     Edge 51, Type (0, 1), BuildingBlock: CIFDUS_clean_linker_0, # of connection points: 2
#     Edge 52, Type (0, 1), BuildingBlock: CIFDUS_clean_linker_0, # of connection points: 2
#     Edge 53, Type (0, 1), BuildingBlock: CIFDUS_clean_linker_0, # of connection points: 2
#     Edge 54, Type (0, 1), BuildingBlock: CIFDUS_clean_linker_0, # of connection points: 2
#     Edge 55, Type (0, 1), BuildingBlock: CIFDUS_clean_linker_0, # of connection points: 2
#     Edge 56, Type (0, 1), BuildingBlock: CIFDUS_clean_linker_0, # of connection points: 2
#     Edge 57, Type (0, 1), BuildingBlock: CIFDUS_clean_linker_0, # of connection points: 2
#     Edge 58, Type (0, 1), BuildingBlock: CIFDUS_clean_linker_0, # of connection points: 2
#     Edge 59, Type (0, 1), BuildingBlock: CIFDUS_clean_linker_0, # of connection points: 2
#     Edge 60, Type (0, 1), BuildingBlock: CIFDUS_clean_linker_0, # of connection points: 2
#     Edge 61, Type (0, 1), BuildingBlock: CIFDUS_clean_linker_0, # of connection points: 2
#     Edge 62, Type (0, 1), BuildingBlock: CIFDUS_clean_linker_0, # of connection points: 2
#     Edge 63, Type (0, 1), BuildingBlock: CIFDUS_clean_linker_0, # of connection points: 2
#     Edge 64, Type (0, 1), BuildingBlock: CIFDUS_clean_linker_0, # of connection points: 2
#     Edge 65, Type (0, 1), BuildingBlock: CIFDUS_clean_linker_0, # of connection points: 2
#     Edge 66, Type (0, 1), BuildingBlock: CIFDUS_clean_linker_0, # of connection points: 2
#     Edge 67, Type (0, 1), BuildingBlock: CIFDUS_clean_linker_0, # of connection points: 2
#     Edge 68, Type (0, 1), BuildingBlock: CIFDUS_clean_linker_0, # of connection points: 2
#     Edge 69, Type (0, 1), BuildingBlock: CIFDUS_clean_linker_0, # of connection points: 2
#     Edge 70, Type (0, 1), BuildingBlock: CIFDUS_clean_linker_0, # of connection points: 2
#     Edge 71, Type (0, 1), BuildingBlock: CIFDUS_clean_linker_0, # of connection points: 2
#     Edge 72, Type (0, 1), BuildingBlock: CIFDUS_clean_linker_0, # of connection points: 2
#     Edge 73, Type (0, 1), BuildingBlock: CIFDUS_clean_linker_0, # of connection points: 2
#     Edge 74, Type (0, 1), BuildingBlock: CIFDUS_clean_linker_0, # of connection points: 2
#     Edge 75, Type (0, 1), BuildingBlock: CIFDUS_clean_linker_0, # of connection points: 2
#     Edge 76, Type (0, 1), BuildingBlock: CIFDUS_clean_linker_0, # of connection points: 2
#     Edge 77, Type (0, 1), BuildingBlock: CIFDUS_clean_linker_0, # of connection points: 2
#     Edge 78, Type (0, 1), BuildingBlock: CIFDUS_clean_linker_0, # of connection points: 2
#     Edge 79, Type (0, 1), BuildingBlock: CIFDUS_clean_linker_0, # of connection points: 2
#     Edge 80, Type (0, 1), BuildingBlock: CIFDUS_clean_linker_0, # of connection points: 2
# Relax obj value: 0.035
# Max RMSD: 0.163
# Mean RMSD: 0.092
data_MOF--net-eea--node1-CUKXOW_clean_sbu_0--node2-BETDIP_clean_linker_0--edge1-CIFDUS_clean_linker_0
_symmetry_space_group_name_H-M    P1
_symmetry_Int_Tables_number       1
_symmetry_cell_setting            triclinic
loop_
_symmetry_equiv_pos_as_xyz
'x, y, z'
_cell_length_a     53.150377
_cell_length_b     49.5311
_cell_length_c     43.622106
_cell_angle_alpha  93.383657
_cell_angle_beta   93.399268
_cell_angle_gamma 120.0599
loop_
_atom_site_label
_atom_site_type_symbol
_atom_site_fract_x
_atom_site_fract_y
_atom_site_fract_z
_atom_type_partial_charge
H0 H 0.2214 0.10288 0.3718 0.0
H1 H 0.27685 0.17157 0.44715 0.0
H2 H 0.26542 0.07895 0.4413 0.0
H3 H 0.23504 0.18084 0.43802 0.0
C4 C 0.23749 0.18338 0.41361 0.0
C5 C 0.23588 0.10937 0.39289 0.0
C6 C 0.24221 0.08751 0.40479 0.0
C7 C 0.248 0.13959 0.40825 0.0
C8 C 0.26692 0.14803 0.43564 0.0
C9 C 0.27386 0.12643 0.44746 0.0
C10 C 0.26114 0.09622 0.4319 0.0
N11 N 0.2414 0.16131 0.39537 0.0
H12 H 0.9072 0.13963 0.37676 0.0
H13 H 0.84527 0.10989 0.4441 0.0
H14 H 0.92489 0.19849 0.46183 0.0
H15 H 0.85828 0.06411 0.42585 0.0
C16 C 0.84679 0.06372 0.40419 0.0
C17 C 0.90096 0.14424 0.39879 0.0
C18 C 0.9197 0.17231 0.41792 0.0
C19 C 0.87442 0.12147 0.40847 0.0
C20 C 0.86587 0.12731 0.4367 0.0
C21 C 0.88379 0.15528 0.45554 0.0
C22 C 0.91074 0.17749 0.44639 0.0
N23 N 0.85673 0.0922 0.39041 0.0
H24 H 0.87932 0.79224 0.4037 0.0
H25 H 0.91624 0.75799 0.47089 0.0
H26 H 0.83158 0.74585 0.47927 0.0
H27 H 0.93625 0.75029 0.42979 0.0
C28 C 0.94328 0.77184 0.41901 0.0
C29 C 0.87737 0.78001 0.42401 0.0
C30 C 0.85264 0.7701 0.44045 0.0
C31 C 0.9 0.77471 0.43406 0.0
C32 C 0.89831 0.76053 0.46152 0.0
C33 C 0.87355 0.74991 0.4775 0.0
C34 C 0.85065 0.75417 0.46662 0.0
N35 N 0.92471 0.78479 0.417 0.0
H36 H 0.11457 0.25713 0.63873 0.0
H37 H 0.16854 0.29563 0.56608 0.0
H38 H 0.083 0.28533 0.56081 0.0
H39 H 0.20414 0.30137 0.59932 0.0
C40 C 0.19378 0.28153 0.61277 0.0
C41 C 0.11784 0.26743 0.61703 0.0
C42 C 0.09596 0.27144 0.60205 0.0
C43 C 0.14393 0.27605 0.60424 0.0
C44 C 0.14817 0.28852 0.57568 0.0
C45 C 0.12611 0.29136 0.55914 0.0
C46 C 0.1001 0.28302 0.57284 0.0
N47 N 0.16455 0.26993 0.61983 0.0
H48 H 0.78194 0.86667 0.66115 0.0
H49 H 0.74137 0.88605 0.58437 0.0
H50 H 0.74747 0.8025 0.57812 0.0
H51 H 0.80955 0.92539 0.66495 0.0
C52 C 0.79166 0.92973 0.66016 0.0
C53 C 0.77151 0.86041 0.63769 0.0
C54 C 0.76507 0.83182 0.62147 0.0
C55 C 0.76282 0.87989 0.62405 0.0
C56 C 0.74845 0.87107 0.59421 0.0
C57 C 0.74349 0.84371 0.57691 0.0
C58 C 0.75139 0.82388 0.591 0.0
N59 N 0.76685 0.90791 0.6398 0.0
H60 H 0.14754 0.92932 0.63115 0.0
H61 H 0.11672 0.86239 0.5505 0.0
H62 H 0.19872 0.9487 0.55417 0.0
H63 H 0.08326 0.83062 0.57814 0.0
C64 C 0.08098 0.84367 0.59755 0.0
C65 C 0.15056 0.92226 0.60831 0.0
C66 C 0.17564 0.94223 0.59446 0.0
C67 C 0.12902 0.89346 0.59278 0.0
C68 C 0.13299 0.88446 0.56296 0.0
C69 C 0.15834 0.90406 0.54896 0.0
C70 C 0.17936 0.93309 0.56483 0.0
N71 N 0.10354 0.87489 0.60774 0.0
H72 H 0.85639 0.40762 0.70843 0.0
H73 H 0.91123 0.48129 0.78024 0.0
H74 H 0.91641 0.39746 0.7708 0.0
H75 H 0.91291 0.50937 0.73502 0.0
C76 C 0.88932 0.49837 0.73033 0.0
C77 C 0.87306 0.41677 0.72789 0.0
C78 C 0.88542 0.39898 0.73762 0.0
C79 C 0.88308 0.44697 0.74234 0.0
C80 C 0.90427 0.45857 0.76806 0.0
C81 C 0.91627 0.44073 0.77836 0.0
C82 C 0.90725 0.41132 0.76268 0.0
N83 N 0.87168 0.46536 0.73074 0.0
H84 H 0.59589 0.47937 0.7254 0.0
H85 H 0.52928 0.44169 0.78618 0.0
H86 H 0.60972 0.52804 0.81575 0.0
H87 H 0.54526 0.39855 0.76281 0.0
C88 C 0.53452 0.40075 0.74188 0.0
C89 C 0.58826 0.48179 0.74731 0.0
C90 C 0.60617 0.50743 0.76944 0.0
C91 C 0.56106 0.45796 0.75385 0.0
C92 C 0.55099 0.45991 0.78228 0.0
C93 C 0.56832 0.48486 0.80517 0.0
C94 C 0.596 0.50868 0.79844 0.0
N95 N 0.54429 0.43107 0.7324 0.0
H96 H 0.54965 0.11085 0.72359 0.0
H97 H 0.57431 0.0708 0.7957 0.0
H98 H 0.48725 0.05565 0.78504 0.0
H99 H 0.61858 0.10192 0.78533 0.0
C100 C 0.61764 0.10536 0.76106 0.0
C101 C 0.54385 0.09676 0.74286 0.0
C102 C 0.51587 0.08445 0.75292 0.0
C103 C 0.56496 0.09177 0.75787 0.0
C104 C 0.55813 0.07447 0.78366 0.0
C105 C 0.53035 0.06189 0.79424 0.0
C106 C 0.50919 0.06645 0.77815 0.0
N107 N 0.59249 0.10384 0.74585 0.0
H108 H 0.7748 0.58533 0.9711 0.0
H109 H 0.83115 0.6103 0.89829 0.0
H110 H 0.75375 0.61639 0.88794 0.0
H111 H 0.86364 0.61428 0.93515 0.0
C112 C 0.85126 0.59554 0.94928 0.0
C113 C 0.77975 0.59359 0.94857 0.0
C114 C 0.76085 0.60055 0.93119 0.0
C115 C 0.80524 0.59719 0.93725 0.0
C116 C 0.81217 0.60829 0.90818 0.0
C117 C 0.79389 0.61576 0.89085 0.0
C118 C 0.76822 0.61163 0.90217 0.0
N119 N 0.82239 0.58766 0.95477 0.0
H120 H 0.46905 0.21079 0.96891 0.0
H121 H 0.42902 0.2344 0.89522 0.0
H122 H 0.42866 0.14707 0.88618 0.0
H123 H 0.47684 0.28384 0.91269 0.0
C124 C 0.47028 0.28351 0.93588 0.0
C125 C 0.45724 0.20482 0.94613 0.0
C126 C 0.4492 0.17615 0.92916 0.0
C127 C 0.45059 0.22612 0.93356 0.0
C128 C 0.43512 0.21831 0.90415 0.0
C129 C 0.42701 0.18984 0.88663 0.0
C130 C 0.43406 0.16879 0.89951 0.0
N131 N 0.45967 0.25546 0.95055 0.0
H132 H 0.79718 0.23809 0.97189 0.0
H133 H 0.77815 0.16805 0.8967 0.0
H134 H 0.86336 0.25015 0.91278 0.0
H135 H 0.73194 0.15 0.90478 0.0
C136 C 0.73059 0.15799 0.92798 0.0
C137 C 0.80419 0.22963 0.9526 0.0
C138 C 0.83285 0.24765 0.94462 0.0
C139 C 0.78413 0.20096 0.93562 0.0
C140 C 0.79308 0.19004 0.91027 0.0
C141 C 0.82187 0.20756 0.90239 0.0
C142 C 0.8416 0.2361 0.91978 0.0
N143 N 0.75538 0.18417 0.94498 0.0
H144 H 0.53254 0.7553 0.05654 0.0
H145 H 0.56513 0.81536 0.1423 0.0
H146 H 0.56171 0.72657 0.13524 0.0
H147 H 0.53717 0.83414 0.12153 0.0
C148 C 0.54068 0.83439 0.09725 0.0
C149 C 0.54124 0.75973 0.08058 0.0
C150 C 0.54595 0.73752 0.09424 0.0
C151 C 0.54808 0.78791 0.09765 0.0
C152 C 0.55955 0.79365 0.12896 0.0
C153 C 0.56411 0.77133 0.14301 0.0
C154 C 0.55758 0.74364 0.12515 0.0
N155 N 0.54407 0.81027 0.08229 0.0
H156 H 0.2405 0.78523 0.05553 0.0
H157 H 0.17837 0.76455 0.1214 0.0
H158 H 0.2597 0.85286 0.1327 0.0
H159 H 0.14802 0.73647 0.07355 0.0
C160 C 0.15974 0.72431 0.06817 0.0
C161 C 0.23461 0.79224 0.07667 0.0
C162 C 0.25277 0.82222 0.09226 0.0
C163 C 0.20801 0.77148 0.08722 0.0
C164 C 0.19932 0.78063 0.11383 0.0
C165 C 0.21773 0.81016 0.13066 0.0
C166 C 0.24465 0.83051 0.11972 0.0
N167 N 0.19071 0.74121 0.07097 0.0
H168 H 0.21107 0.43799 0.05732 0.0
H169 H 0.24542 0.41467 0.1367 0.0
H170 H 0.1599 0.40321 0.13388 0.0
H171 H 0.27197 0.40812 0.1021 0.0
C172 C 0.27754 0.42697 0.08752 0.0
C173 C 0.20844 0.42972 0.08 0.0
C174 C 0.18225 0.42057 0.09343 0.0
C175 C 0.23122 0.42742 0.09516 0.0
C176 C 0.22794 0.41618 0.12445 0.0
C177 C 0.2019 0.40665 0.13811 0.0
C178 C 0.17945 0.40935 0.12265 0.0
N179 N 0.25719 0.43693 0.08047 0.0
H180 H 0.44037 0.91207 0.29171 0.0
H181 H 0.50324 0.96554 0.23091 0.0
H182 H 0.41508 0.94643 0.21385 0.0
H183 H 0.47338 0.90001 0.3098 0.0
C184 C 0.49343 0.91286 0.29903 0.0
C185 C 0.4455 0.9244 0.27131 0.0
C186 C 0.42369 0.92714 0.25395 0.0
C187 C 0.47406 0.93816 0.26265 0.0
C188 C 0.4812 0.95564 0.23749 0.0
C189 C 0.46034 0.95917 0.21988 0.0
C190 C 0.43143 0.94447 0.22795 0.0
N191 N 0.49644 0.93448 0.2776 0.0
H192 H 0.15326 0.5545 0.29153 0.0
H193 H 0.09588 0.56783 0.2287 0.0
H194 H 0.09242 0.47913 0.22375 0.0
H195 H 0.09822 0.59749 0.27614 0.0
C196 C 0.12196 0.61127 0.27946 0.0
C197 C 0.13613 0.54541 0.27251 0.0
C198 C 0.12373 0.51423 0.25936 0.0
C199 C 0.12567 0.56459 0.26221 0.0
C200 C 0.10336 0.55283 0.23764 0.0
C201 C 0.09159 0.5222 0.2235 0.0
C202 C 0.10161 0.50286 0.2346 0.0
N203 N 0.13826 0.59583 0.27633 0.0
H204 H 0.4667 0.58259 0.30569 0.0
H205 H 0.4509 0.5167 0.22737 0.0
H206 H 0.53616 0.59728 0.25071 0.0
H207 H 0.40512 0.50233 0.22928 0.0
C208 C 0.40182 0.50573 0.25318 0.0
C209 C 0.47438 0.57517 0.28626 0.0
C210 C 0.50393 0.59273 0.28079 0.0
C211 C 0.45474 0.54779 0.26695 0.0
C212 C 0.46515 0.53822 0.24191 0.0
C213 C 0.49446 0.55599 0.23578 0.0
C214 C 0.51363 0.58304 0.25551 0.0
N215 N 0.42508 0.53002 0.2738 0.0
Tb216 Tb 0.51732 0.01686 0.99687 0.0
C217 C 0.50045 0.95313 0.02298 0.0
Tb218 Tb 0.45112 0.96791 0.99943 0.0
O219 O 0.52627 0.02327 0.04763 0.0
O220 O 0.4846 0.00803 0.02643 0.0
O221 O 0.52036 0.97615 0.00859 0.0
C222 C 0.39891 0.92501 0.0141 0.0
O223 O 0.47374 0.94837 0.02502 0.0
C224 C 0.46879 0.97448 0.94398 0.0
C225 C 0.46888 0.03637 0.98447 0.0
O226 O 0.41804 0.91919 0.00313 0.0
O227 O 0.40899 0.95504 0.0165 0.0
O228 O 0.44175 0.96276 0.94947 0.0
O229 O 0.48335 0.97726 0.9691 0.0
O230 O 0.44865 0.01011 0.99477 0.0
O231 O 0.49605 0.04262 0.98134 0.0
C232 C 0.56806 0.05138 0.9733 0.0
O233 O 0.5613 0.05859 0.99951 0.0
O234 O 0.54627 0.02496 0.96057 0.0
C235 C 0.49892 0.01228 0.05208 0.0
Tb236 Tb 0.9781 0.49081 0.00558 0.0
C237 C 0.04331 0.54786 0.00497 0.0
Tb238 Tb 0.02869 0.47736 0.99815 0.0
O239 O 0.97885 0.48542 0.05553 0.0
O240 O 0.0155 0.49795 0.03237 0.0
O241 O 0.01487 0.53744 1.00086 0.0
C242 C 0.06942 0.4619 0.01063 0.0
O243 O 0.05363 0.52859 0.00879 0.0
C244 C 1.00111 0.47822 0.94629 0.0
C245 C 0.96301 0.42053 1.00095 0.0
O246 O 0.07091 0.48137 0.99115 0.0
O247 O 0.0448 0.45078 0.02266 0.0
O248 O 0.02744 0.48257 0.94816 0.0
O249 O 0.99111 0.46975 0.9715 0.0
O250 O 0.99162 0.4306 0.00427 0.0
O251 O 0.95267 0.43985 0.99733 0.0
C252 C 0.94464 0.51394 0.98701 0.0
O253 O 0.94093 0.49834 0.01105 0.0
O254 O 0.96655 0.51582 0.97382 0.0
C255 C 0.00507 0.48927 0.05739 0.0
Tb256 Tb 0.48853 0.50243 0.01532 0.0
C257 C 0.51216 0.45789 0.99579 0.0
Tb258 Tb 0.55577 0.53039 0.01597 0.0
O259 O 0.48203 0.49109 0.96499 0.0
O260 O 0.5214 0.52788 0.98662 0.0
O261 O 0.49044 0.45948 0.00762 0.0
C262 C 0.60921 0.54688 1.00141 0.0
O263 O 0.53794 0.48302 0.99364 0.0
C264 C 0.53612 0.52289 0.07049 0.0
C265 C 0.53321 0.57648 0.03107 0.0
O266 O 0.5949 0.52645 0.02032 0.0
O267 O 0.59356 0.55842 0.99092 0.0
O268 O 0.56315 0.54218 0.06627 0.0
O269 O 0.52301 0.50632 0.04535 0.0
O270 O 0.55493 0.57356 0.02101 0.0
O271 O 0.50662 0.55206 0.03324 0.0
C272 C 0.43452 0.47816 0.03256 0.0
O273 O 0.44637 0.50097 0.01516 0.0
O274 O 0.45302 0.46926 0.04 0.0
C275 C 0.50879 0.51195 0.96124 0.0
Tb276 Tb 0.19772 0.36347 0.34165 0.0
C277 C 0.17994 0.29627 0.35975 0.0
Tb278 Tb 0.1323 0.31645 0.34782 0.0
O279 O 0.2094 0.36453 0.39068 0.0
O280 O 0.16777 0.35495 0.37526 0.0
O281 O 0.19929 0.32042 0.346 0.0
C282 C 0.08039 0.2752 0.36539 0.0
O283 O 0.15427 0.29264 0.3657 0.0
C284 C 0.14578 0.32371 0.29088 0.0
C285 C 0.14943 0.38332 0.32988 0.0
O286 O 0.09476 0.26888 0.34598 0.0
O287 O 0.09537 0.30488 0.37521 0.0
O288 O 0.11952 0.31321 0.29863 0.0
O289 O 0.16207 0.32535 0.31407 0.0
O290 O 0.13014 0.35865 0.34298 0.0
O291 O 0.17577 0.38814 0.32474 0.0
C292 C 0.25049 0.40401 0.32503 0.0
O293 O 0.2373 0.41004 0.34616 0.0
O294 O 0.23397 0.37509 0.31321 0.0
C295 C 0.18348 0.35587 0.3986 0.0
Tb296 Tb 0.64772 0.84299 0.35783 0.0
C297 C 0.71527 0.88743 0.36366 0.0
Tb298 Tb 0.68522 0.81244 0.35663 0.0
O299 O 0.66529 0.8635 0.40503 0.0
O300 O 0.66144 0.82067 0.38941 0.0
O301 O 0.68981 0.88551 0.35577 0.0
C302 C 0.725 0.79582 0.36972 0.0
O303 O 0.71764 0.86228 0.36711 0.0
C304 C 0.66243 0.81484 0.30275 0.0
C305 C 0.61811 0.76811 0.34952 0.0
O306 O 0.71811 0.80116 0.34265 0.0
O307 O 0.70921 0.79941 0.38934 0.0
O308 O 0.66752 0.79259 0.30896 0.0
O309 O 0.67208 0.83545 0.32548 0.0
O310 O 0.64334 0.77055 0.35945 0.0
O311 O 0.61593 0.79309 0.34422 0.0
C312 C 0.60704 0.85893 0.34858 0.0
O313 O 0.60945 0.84438 0.37128 0.0
O314 O 0.62774 0.86478 0.33097 0.0
C315 C 0.67114 0.84193 0.41168 0.0
Tb316 Tb 0.1527 0.8417 0.34705 0.0
C317 C 0.16743 0.78838 0.33231 0.0
Tb318 Tb 0.21598 0.85999 0.33224 0.0
O319 O 0.13498 0.81944 0.29979 0.0
O320 O 0.17787 0.85585 0.30926 0.0
O321 O 0.15108 0.79701 0.34716 0.0
C322 C 0.2637 0.87424 0.30367 0.0
O323 O 0.19235 0.80882 0.32182 0.0
C324 C 0.20981 0.86667 0.39111 0.0
C325 C 0.20168 0.91346 0.34841 0.0
O326 O 0.25589 0.85779 0.32713 0.0
O327 O 0.24442 0.88209 0.29617 0.0
O328 O 0.23486 0.8808 0.37984 0.0
O329 O 0.19102 0.84678 0.37038 0.0
O330 O 0.21864 0.90526 0.33416 0.0
O331 O 0.17635 0.8928 0.35806 0.0
C332 C 0.1033 0.82654 0.37233 0.0
O333 O 0.11364 0.8458 0.35128 0.0
O334 O 0.12086 0.81627 0.37911 0.0
C335 C 0.15974 0.83557 0.28852 0.0
Tb336 Tb 0.87523 0.70482 0.68336 0.0
C337 C 0.85566 0.63207 0.68585 0.0
Tb338 Tb 0.80982 0.65497 0.68414 0.0
O339 O 0.87977 0.72038 0.7328 0.0
O340 O 0.84842 0.67524 0.71457 0.0
O341 O 0.87608 0.66087 0.68077 0.0
C342 C 0.75562 0.62066 0.70023 0.0
O343 O 0.82855 0.62484 0.69071 0.0
C344 C 0.82933 0.66484 0.62971 0.0
C345 C 0.82943 0.72753 0.68149 0.0
O346 O 0.76306 0.62173 0.67233 0.0
O347 O 0.77868 0.63897 0.71911 0.0
O348 O 0.80747 0.63831 0.63572 0.0
O349 O 0.83675 0.68457 0.6528 0.0
O350 O 0.80913 0.69929 0.68826 0.0
O351 O 0.85584 0.73376 0.675 0.0
C352 C 0.92708 0.73461 0.66081 0.0
O353 O 0.9052 0.70743 0.64999 0.0
O354 O 0.91997 0.74515 0.68485 0.0
C355 C 0.85681 0.69442 0.73823 0.0
Tb356 Tb 0.33375 0.19217 0.66742 0.0
C357 C 0.40175 0.2298 0.6837 0.0
Tb358 Tb 0.36627 0.15504 0.67522 0.0
O359 O 0.34333 0.20901 0.7164 0.0
O360 O 0.34037 0.16693 0.70146 0.0
O361 O 0.37893 0.23079 0.67088 0.0
C362 C 0.39754 0.13121 0.699 0.0
O363 O 0.40062 0.20322 0.68945 0.0
C364 C 0.35353 0.16123 0.61789 0.0
C365 C 0.29951 0.11734 0.65507 0.0
O366 O 0.3994 0.14128 0.67195 0.0
O367 O 0.37783 0.13421 0.71248 0.0
O368 O 0.35787 0.13885 0.62576 0.0
O369 O 0.35975 0.18048 0.64133 0.0
O370 O 0.32144 0.11636 0.67021 0.0
O371 O 0.30104 0.14404 0.64856 0.0
C372 C 0.30298 0.21881 0.64998 0.0
O373 O 0.29417 0.19554 0.66678 0.0
O374 O 0.32905 0.22701 0.64286 0.0
C375 C 0.34744 0.18668 0.72461 0.0
Tb376 Tb 0.81931 0.15931 0.67942 0.0
C377 C 0.84398 0.11189 0.68631 0.0
Tb378 Tb 0.88594 0.1842 0.68197 0.0
O379 O 0.81565 0.16107 0.62918 0.0
O380 O 0.8481 0.15513 0.65134 0.0
O381 O 0.8215 0.11682 0.68736 0.0
C382 C 0.93693 0.20726 0.65808 0.0
O383 O 0.87072 0.13436 0.68178 0.0
C384 C 0.86514 0.1833 0.73533 0.0
C385 C 0.86255 0.23246 0.67826 0.0
O386 O 0.93337 0.20233 0.68694 0.0
O387 O 0.91207 0.19951 0.64324 0.0
O388 O 0.88934 0.18298 0.73274 0.0
O389 O 0.85687 0.18794 0.70971 0.0
O390 O 0.88416 0.22672 0.67425 0.0
O391 O 0.83616 0.21008 0.6841 0.0
C392 C 0.76682 0.1358 0.6998 0.0
O393 O 0.77393 0.14903 0.67435 0.0
O394 O 0.789 0.13532 0.71317 0.0
C395 C 0.83949 0.16025 0.62608 0.0
H396 H 0.29218 0.81174 0.06446 0.0
H397 H 0.27336 0.88478 0.09045 0.0
H398 H 0.3167 0.92291 0.06821 0.0
H399 H 0.35979 0.93555 0.04107 0.0
H400 H 0.3779 0.86242 0.01361 0.0
H401 H 0.3345 0.82406 0.03601 0.0
C402 C 0.29739 0.83592 0.06501 0.0
C403 C 0.2796 0.84536 0.07927 0.0
C404 C 0.32204 0.85765 0.05166 0.0
C405 C 0.28696 0.87695 0.08017 0.0
C406 C 0.31159 0.89875 0.06719 0.0
C407 C 0.35406 0.91115 0.03982 0.0
C408 C 0.3718 0.90168 0.02571 0.0
C409 C 0.32924 0.88935 0.05284 0.0
C410 C 0.36438 0.87013 0.0243 0.0
C411 C 0.33968 0.84825 0.03719 0.0
H412 H 0.18545 0.46489 0.05635 0.0
H413 H 0.12335 0.38021 0.0935 0.0
H414 H 0.08323 0.38544 0.07105 0.0
H415 H 0.06556 0.415 0.04247 0.0
H416 H 0.1269 0.4971 1.00176 0.0
H417 H 0.16741 0.4914 0.02325 0.0
C418 C 0.16318 0.4472 0.05912 0.0
C419 C 0.15772 0.42255 0.07726 0.0
C420 C 0.13996 0.44981 0.0454 0.0
C421 C 0.1285 0.40006 0.0806 0.0
C422 C 0.1054 0.40281 0.06749 0.0
C423 C 0.08779 0.43142 0.03808 0.0
C424 C 0.09335 0.45649 0.02075 0.0
C425 C 0.11088 0.4278 0.05021 0.0
C426 C 0.12215 0.47755 0.015 0.0
C427 C 0.14531 0.47438 0.0274 0.0
H428 H 0.58319 0.71673 0.08492 0.0
H429 H 0.49323 0.69142 0.06554 0.0
H430 H 0.4808 0.63877 0.04388 0.0
H431 H 0.49545 0.59895 0.03355 0.0
H432 H 0.58623 0.62616 0.05212 0.0
H433 H 0.59837 0.67886 0.07111 0.0
C434 C 0.56095 0.69974 0.07555 0.0
C435 C 0.53911 0.7077 0.0768 0.0
C436 C 0.55408 0.66975 0.06334 0.0
C437 C 0.51039 0.68572 0.06454 0.0
C438 C 0.50328 0.65561 0.05244 0.0
C439 C 0.51785 0.61649 0.0417 0.0
C440 C 0.53985 0.60855 0.04155 0.0
C441 C 0.52488 0.64715 0.05226 0.0
C442 C 0.56886 0.63161 0.05185 0.0
C443 C 0.57588 0.66181 0.06279 0.0
H444 H 0.89096 0.27441 0.96373 0.0
H445 H 0.81984 0.29309 0.96023 0.0
H446 H 0.8535 0.34757 0.98037 0.0
H447 H 0.90358 0.39092 0.99438 0.0
H448 H 0.97513 0.37283 0.99676 0.0
H449 H 0.94084 0.3172 0.98183 0.0
C450 C 0.88283 0.29039 0.96756 0.0
C451 C 0.85293 0.27969 0.96032 0.0
C452 C 0.9024 0.32187 0.97878 0.0
C453 C 0.84267 0.30057 0.96586 0.0
C454 C 0.86195 0.33183 0.97716 0.0
C455 C 0.91173 0.37483 0.992 0.0
C456 C 0.942 0.38625 0.99636 0.0
C457 C 0.89194 0.34289 0.98306 0.0
C458 C 0.95201 0.36485 0.99344 0.0
C459 C 0.9324 0.33298 0.98476 0.0
H460 H 0.72458 0.55369 0.96442 0.0
H461 H 0.73446 0.63575 0.92432 0.0
H462 H 0.68823 0.6261 0.94192 0.0
H463 H 0.64476 0.59422 0.96876 0.0
H464 H 0.63716 0.51472 0.01199 0.0
H465 H 0.68318 0.52406 0.99381 0.0
C466 C 0.71704 0.56991 0.95998 0.0
C467 C 0.73314 0.59538 0.94291 0.0
C468 C 0.69083 0.56474 0.97085 0.0
C469 C 0.72239 0.61559 0.93686 0.0
C470 C 0.69602 0.61025 0.94714 0.0
C471 C 0.65333 0.5791 0.97428 0.0
C472 C 0.63769 0.55382 0.99159 0.0
C473 C 0.68001 0.58485 0.96408 0.0
C474 C 0.64894 0.5344 0.99875 0.0
C475 C 0.67518 0.53966 0.9883 0.0
H476 H 0.4135 0.11459 0.9355 0.0
H477 H 0.50347 0.18894 0.9511 0.0
H478 H 0.51772 0.15235 0.9698 0.0
H479 H 0.5046 0.09881 0.98047 0.0
H480 H 0.41412 0.02508 0.9672 0.0
H481 H 0.40003 0.06175 0.94895 0.0
C482 C 0.43619 0.12268 0.94307 0.0
C483 C 0.45745 0.15426 0.94185 0.0
C484 C 0.4441 0.10164 0.95419 0.0
C485 C 0.48675 0.1647 0.952 0.0
C486 C 0.49489 0.14379 0.96257 0.0
C487 C 0.4818 0.09081 0.97368 0.0
C488 C 0.46046 0.05924 0.97514 0.0
C489 C 0.47377 0.11215 0.96359 0.0
C490 C 0.43097 0.0493 0.96651 0.0
C491 C 0.42288 0.07022 0.95592 0.0
H492 H 0.67996 0.10909 0.90053 0.0
H493 H 0.71709 0.17141 0.98469 0.0
H494 H 0.66993 0.14463 0.00572 0.0
H495 H 0.61803 0.10266 1.00062 0.0
H496 H 0.58125 0.04003 0.91664 0.0
H497 H 0.62809 0.06774 0.89511 0.0
C498 C 0.67766 0.11679 0.92346 0.0
C499 C 0.702 0.14213 0.94098 0.0
C500 C 0.65046 0.10121 0.93546 0.0
C501 C 0.69875 0.15193 0.97066 0.0
C502 C 0.67175 0.13662 0.98274 0.0
C503 C 0.62031 0.09523 0.97757 0.0
C504 C 0.59628 0.06932 0.96027 0.0
C505 C 0.64745 0.11115 0.96541 0.0
C506 C 0.59948 0.05986 0.93046 0.0
C507 C 0.62626 0.07568 0.91813 0.0
H508 H 0.89843 0.59658 0.93014 0.0
H509 H 0.8334 0.55374 0.99348 0.0
H510 H 0.85642 0.5243 0.01115 0.0
H511 H 0.8958 0.51109 0.00851 0.0
H512 H 0.95875 0.55302 0.94267 0.0
H513 H 0.9358 0.58222 0.92602 0.0
C514 C 0.88935 0.58082 0.94787 0.0
C515 C 0.86448 0.57744 0.96061 0.0
C516 C 0.90232 0.5637 0.95741 0.0
C517 C 0.85264 0.55675 0.98333 0.0
C518 C 0.86579 0.53992 0.99343 0.0
C519 C 0.90431 0.52655 0.99048 0.0
C520 C 0.92898 0.52997 0.97694 0.0
C521 C 0.89071 0.54322 0.98062 0.0
C522 C 0.93978 0.54995 0.95349 0.0
C523 C 0.92673 0.56676 0.94394 0.0
H524 H 0.50615 0.34146 0.92128 0.0
H525 H 0.445 0.29164 0.98622 0.0
H526 H 0.45177 0.34124 0.01021 0.0
H527 H 0.47492 0.39916 0.01202 0.0
H528 H 0.53898 0.44822 0.9491 0.0
H529 H 0.53116 0.39873 0.92497 0.0
C530 C 0.49442 0.34154 0.9408 0.0
C531 C 0.47513 0.31311 0.95198 0.0
C532 C 0.49887 0.37005 0.95473 0.0
C533 C 0.46013 0.31336 0.97735 0.0
C534 C 0.46391 0.34168 0.99096 0.0
C535 C 0.48711 0.39891 0.99304 0.0
C536 C 0.5073 0.42734 0.98222 0.0
C537 C 0.48316 0.37022 0.97975 0.0
C538 C 0.52328 0.42672 0.95789 0.0
C539 C 0.51884 0.3984 0.94402 0.0
H540 H 0.10443 0.69323 0.04177 0.0
H541 H 0.17826 0.68167 0.06457 0.0
H542 H 0.14937 0.62615 0.04481 0.0
H543 H 0.10199 0.58018 0.02387 0.0
H544 H 0.02894 0.5931 0.99963 0.0
H545 H 0.05877 0.64871 0.01659 0.0
C546 C 0.11417 0.67852 0.0422 0.0
C547 C 0.1432 0.69129 0.05473 0.0
C548 C 0.0976 0.64685 0.03047 0.0
C549 C 0.15584 0.67226 0.05497 0.0
C550 C 0.13934 0.64052 0.04372 0.0
C551 C 0.09272 0.59523 0.02187 0.0
C552 C 0.06312 0.58225 0.01085 0.0
C553 C 0.11004 0.62745 0.03174 0.0
C554 C 0.05155 0.60223 0.00829 0.0
C555 C 0.06857 0.63413 0.01807 0.0
H556 H 0.31771 0.40978 0.09562 0.0
H557 H 0.30035 0.47387 0.04877 0.0
H558 H 0.34733 0.49523 0.02707 0.0
H559 H 0.39387 0.49589 0.0219 0.0
H560 H 0.41041 0.43145 0.06934 0.0
H561 H 0.36336 0.41004 0.09022 0.0
C562 C 0.32423 0.4284 0.08061 0.0
C563 C 0.30566 0.44019 0.0738 0.0
C564 C 0.35116 0.4405 0.06829 0.0
C565 C 0.31428 0.46434 0.05435 0.0
C566 C 0.34115 0.47657 0.04194 0.0
C567 C 0.38703 0.47709 0.03671 0.0
C568 C 0.40551 0.46521 0.04403 0.0
C569 C 0.35983 0.46486 0.04879 0.0
C570 C 0.39652 0.44094 0.06332 0.0
C571 C 0.36963 0.42868 0.07532 0.0
H572 H 0.51784 0.86956 0.1155 0.0
H573 H 0.55566 0.8498 0.03883 0.0
H574 H 0.54866 0.88671 0.00958 0.0
H575 H 0.52997 0.92356 0.00523 0.0
H576 H 0.48885 0.93942 0.08102 0.0
H577 H 0.49909 0.90551 0.11119 0.0
C578 C 0.52463 0.87346 0.09241 0.0
C579 C 0.53715 0.857 0.07933 0.0
C580 C 0.51994 0.89411 0.07556 0.0
C581 C 0.54577 0.86208 0.04935 0.0
C582 C 0.54183 0.88324 0.03264 0.0
C583 C 0.52356 0.91971 0.02844 0.0
C584 C 0.50874 0.93393 0.04095 0.0
C585 C 0.52872 0.89926 0.04541 0.0
C586 C 0.50017 0.92856 0.07089 0.0
C587 C 0.50601 0.90918 0.08817 0.0
H588 H 0.95837 0.16106 0.3891 0.0
H589 H 0.94724 0.23652 0.42688 0.0
H590 H 0.99625 0.27479 0.41546 0.0
H591 H 0.04259 0.2871 0.39462 0.0
H592 H 0.05249 0.21183 0.35421 0.0
H593 H 1.0037 0.17337 0.36649 0.0
C594 C 0.96641 0.18587 0.39443 0.0
C595 C 0.94899 0.19571 0.40902 0.0
C596 C 0.99456 0.20789 0.38741 0.0
C597 C 0.9602 0.22808 0.41615 0.0
C598 C 0.98825 0.25008 0.40948 0.0
C599 C 0.03405 0.26226 0.38863 0.0
C600 C 0.05112 0.25227 0.37369 0.0
C601 C 0.00571 0.24027 0.39527 0.0
C602 C 0.03974 0.22007 0.36577 0.0
C603 C 0.01183 0.19806 0.37275 0.0
H604 H 0.82785 0.76672 0.38237 0.0
H605 H 0.825 0.78982 0.47864 0.0
H606 H 0.78453 0.79822 0.46532 0.0
H607 H 0.74965 0.79888 0.4266 0.0
H608 H 0.75373 0.77901 0.33008 0.0
H609 H 0.79403 0.76965 0.34315 0.0
C610 C 0.81858 0.77391 0.40037 0.0
C611 C 0.82923 0.77713 0.43149 0.0
C612 C 0.79541 0.77916 0.39254 0.0
C613 C 0.81683 0.78639 0.45454 0.0
C614 C 0.79374 0.79139 0.44697 0.0
C615 C 0.75929 0.79234 0.40846 0.0
C616 C 0.74869 0.78934 0.3775 0.0
C617 C 0.78271 0.78761 0.41611 0.0
C618 C 0.76155 0.7813 0.35414 0.0
C619 C 0.78459 0.77602 0.36159 0.0
H620 H 0.27107 0.05957 0.38412 0.0
H621 H 0.18435 0.04325 0.39256 0.0
H622 H 0.1635 0.98744 0.37504 0.0
H623 H 0.17067 0.94269 0.36089 0.0
H624 H 0.25803 0.96061 0.35146 0.0
H625 H 0.27786 0.01626 0.36578 0.0
C626 C 0.24757 0.04379 0.38165 0.0
C627 C 0.2292 0.05523 0.38961 0.0
C628 C 0.23591 0.01198 0.37171 0.0
C629 C 0.19881 0.03482 0.3863 0.0
C630 C 0.18697 1.00294 0.37655 0.0
C631 C 0.194 0.95884 0.36182 0.0
C632 C 0.21281 0.94741 0.35528 0.0
C633 C 0.20538 0.99112 0.36979 0.0
C634 C 0.24299 0.96869 0.35627 0.0
C635 C 0.25443 1.00058 0.36454 0.0
H636 H 0.50143 0.64584 0.29297 0.0
H637 H 0.55473 0.6047 0.31181 0.0
H638 H 0.594 0.65485 0.33746 0.0
H639 H 0.61492 0.71139 0.35001 0.0
H640 H 0.56262 0.75346 0.3289 0.0
H641 H 0.52137 0.70218 0.30893 0.0
C642 C 0.52141 0.64781 0.30336 0.0
C643 C 0.52523 0.62169 0.30066 0.0
C644 C 0.54426 0.67701 0.31732 0.0
C645 C 0.55137 0.62456 0.3137 0.0
C646 C 0.57385 0.65323 0.32823 0.0
C647 C 0.5944 0.70937 0.34147 0.0
C648 C 0.59207 0.73642 0.34091 0.0
C649 C 0.57084 0.67982 0.32949 0.0
C650 C 0.56521 0.73316 0.32961 0.0
C651 C 0.54153 0.70378 0.31809 0.0
H652 H 0.38397 0.94717 0.24743 0.0
H653 H 0.3936 0.87208 0.28091 0.0
H654 H 0.34567 0.84955 0.2996 0.0
H655 H 0.30101 0.85157 0.30778 0.0
H656 H 0.28935 0.92326 0.26938 0.0
H657 H 0.33752 0.94597 0.25053 0.0
C658 C 0.37555 0.92554 0.25821 0.0
C659 C 0.3931 0.91196 0.26314 0.0
C660 C 0.34734 0.91189 0.26804 0.0
C661 C 0.3814 0.88398 0.2776 0.0
C662 C 0.35368 0.87074 0.28808 0.0
C663 C 0.309 0.87202 0.29508 0.0
C664 C 0.2918 0.88588 0.2902 0.0
C665 C 0.33657 0.88466 0.28375 0.0
C666 C 0.30221 0.91217 0.27345 0.0
C667 C 0.32981 0.92525 0.26274 0.0
H668 H 0.08989 0.45695 0.27859 0.0
H669 H 0.17946 0.52524 0.26884 0.0
H670 H 0.19556 0.49102 0.29008 0.0
H671 H 0.18397 0.44138 0.3111 0.0
H672 H 0.09428 0.37427 0.32284 0.0
H673 H 0.07851 0.40834 0.30138 0.0
C674 C 0.11291 0.46419 0.28099 0.0
C675 C 0.13346 0.49339 0.27196 0.0
C676 C 0.122 0.44469 0.29375 0.0
C677 C 0.16327 0.50283 0.27566 0.0
C678 C 0.17246 0.48328 0.28778 0.0
C679 C 0.16099 0.43425 0.3091 0.0
C680 C 0.14039 0.40523 0.31862 0.0
C681 C 0.152 0.45413 0.29691 0.0
C682 C 0.1107 0.3965 0.31592 0.0
C683 C 0.10159 0.41593 0.30349 0.0
H684 H 0.37842 0.5113 0.30625 0.0
H685 H 0.3598 0.45158 0.22198 0.0
H686 H 0.31161 0.4145 0.23669 0.0
H687 H 0.27459 0.3988 0.27354 0.0
H688 H 0.29169 0.4596 0.35649 0.0
H689 H 0.34042 0.49641 0.34239 0.0
C690 C 0.36382 0.49013 0.2912 0.0
C691 C 0.37273 0.48405 0.26315 0.0
C692 C 0.33581 0.46909 0.29958 0.0
C693 C 0.35343 0.45671 0.24372 0.0
C694 C 0.32587 0.43548 0.25211 0.0
C695 C 0.28905 0.42009 0.28852 0.0
C696 C 0.2797 0.42641 0.31609 0.0
C697 C 0.31682 0.44138 0.27999 0.0
C698 C 0.29845 0.45424 0.33513 0.0
C699 C 0.32633 0.47527 0.3271 0.0
H700 H 0.49795 0.87776 0.34193 0.0
H701 H 0.543 0.93351 0.26954 0.0
H702 H 0.58185 0.92158 0.2784 0.0
H703 H 0.60305 0.89482 0.30624 0.0
H704 H 0.55917 0.8403 0.37966 0.0
H705 H 0.52002 0.85218 0.37095 0.0
C706 C 0.51635 0.88734 0.32823 0.0
C707 C 0.51753 0.90644 0.3052 0.0
C708 C 0.53886 0.88057 0.33357 0.0
C709 C 0.54151 0.9188 0.28756 0.0
C710 C 0.56378 0.91195 0.29253 0.0
C711 C 0.58491 0.88561 0.32031 0.0
C712 C 0.58387 0.8667 0.34345 0.0
C713 C 0.56266 0.89279 0.31538 0.0
C714 C 0.56038 0.85497 0.36168 0.0
C715 C 0.53799 0.86172 0.35671 0.0
H716 H 0.09587 0.64133 0.30199 0.0
H717 H 0.17972 0.65702 0.2795 0.0
H718 H 0.20157 0.71345 0.29418 0.0
H719 H 0.19623 0.7586 0.31223 0.0
H720 H 0.11208 0.74118 0.3365 0.0
H721 H 0.09115 0.68537 0.32252 0.0
C722 C 0.11898 0.65714 0.30047 0.0
C723 C 0.13614 0.64516 0.28966 0.0
C724 C 0.13137 0.68931 0.30929 0.0
C725 C 0.16607 0.66574 0.28789 0.0
C726 C 0.17854 0.698 0.2962 0.0
C727 C 0.17338 0.74256 0.31463 0.0
C728 C 0.15585 0.75424 0.32545 0.0
C729 C 0.16134 0.71011 0.30677 0.0
C730 C 0.12625 0.73302 0.32847 0.0
C731 C 0.11413 0.70099 0.32034 0.0
H732 H 0.83413 0.00686 0.41822 0.0
H733 H 0.80239 0.05308 0.36016 0.0
H734 H 0.75846 1.00247 0.34214 0.0
H735 H 0.72819 0.94476 0.34469 0.0
H736 H 0.76261 0.89984 0.40166 0.0
H737 H 0.80615 0.95003 0.4182 0.0
C738 C 0.81768 0.00578 0.4014 0.0
C739 C 0.82139 0.03351 0.39056 0.0
C740 C 0.79283 0.97676 0.39104 0.0
C741 C 0.80006 0.03193 0.36871 0.0
C742 C 0.77488 1.00303 0.35854 0.0
C743 C 0.74532 0.94605 0.36059 0.0
C744 C 0.74203 0.91849 0.37187 0.0
C745 C 0.77086 0.97524 0.36981 0.0
C746 C 0.76454 0.92052 0.39234 0.0
C747 C 0.78951 0.94929 0.40198 0.0
H748 H 0.98526 0.7587 0.43275 0.0
H749 H 0.9669 0.81933 0.38087 0.0
H750 H 0.01549 0.84259 0.36229 0.0
H751 H 0.06287 0.84427 0.3598 0.0
H752 H 0.08057 0.78414 0.41355 0.0
H753 H 0.03274 0.76231 0.43263 0.0
C754 C 0.99196 0.77706 0.4174 0.0
C755 C 0.97261 0.78716 0.40799 0.0
C756 C 0.01984 0.79043 0.40722 0.0
C757 C 0.9815 0.81116 0.38838 0.0
C758 C 0.00924 0.82441 0.37776 0.0
C759 C 0.05623 0.82656 0.37584 0.0
C760 C 0.07508 0.81564 0.3851 0.0
C761 C 0.02856 0.81408 0.38689 0.0
C762 C 0.06638 0.7928 0.40599 0.0
C763 C 0.03901 0.78025 0.41689 0.0
H764 H 0.19951 0.20025 0.43152 0.0
H765 H 0.25891 0.21473 0.36296 0.0
H766 H 0.2473 0.25198 0.34035 0.0
H767 H 0.2201 0.28085 0.34066 0.0
H768 H 0.15657 0.26031 0.40621 0.0
H769 H 0.16985 0.22525 0.42927 0.0
C770 C 0.20986 0.21159 0.4116 0.0
C771 C 0.23012 0.20507 0.39901 0.0
C772 C 0.20231 0.23197 0.39819 0.0
C773 C 0.24316 0.21946 0.37297 0.0
C774 C 0.23657 0.24077 0.36011 0.0
C775 C 0.20919 0.26863 0.35993 0.0
C776 C 0.18769 0.2737 0.37191 0.0
C777 C 0.21616 0.24729 0.37257 0.0
C778 C 0.17335 0.25717 0.39656 0.0
C779 C 0.18092 0.23702 0.40988 0.0
H780 H 0.62236 0.53099 0.71434 0.0
H781 H 0.65712 0.53908 0.80864 0.0
H782 H 0.706 0.57656 0.79607 0.0
H783 H 0.73956 0.60474 0.75744 0.0
H784 H 0.70502 0.59236 0.66241 0.0
H785 H 0.65552 0.55831 0.67598 0.0
C786 C 0.64059 0.54063 0.73218 0.0
C787 C 0.63582 0.53192 0.76241 0.0
C788 C 0.66882 0.56128 0.72457 0.0
C789 C 0.65982 0.54552 0.78527 0.0
C790 C 0.68793 0.56678 0.77803 0.0
C791 C 0.72112 0.59469 0.73981 0.0
C792 C 0.72581 0.601 0.70899 0.0
C793 C 0.69276 0.57452 0.74767 0.0
C794 C 0.70187 0.58772 0.68627 0.0
C795 C 0.67359 0.5683 0.69402 0.0
H796 H 0.47682 0.09606 0.7802 0.0
H797 H 0.50543 0.08796 0.69124 0.0
H798 H 0.47141 0.10165 0.66683 0.0
H799 H 0.43406 0.11689 0.67077 0.0
H800 H 0.40371 0.12223 0.75921 0.0
H801 H 0.43741 0.1079 0.78368 0.0
C802 C 0.47532 0.0967 0.75539 0.0
C803 C 0.49392 0.09112 0.73771 0.0
C804 C 0.45531 0.10403 0.74136 0.0
C805 C 0.49188 0.0927 0.70562 0.0
C806 C 0.47225 0.10032 0.69155 0.0
C807 C 0.43475 0.11471 0.69536 0.0
C808 C 0.41655 0.12063 0.71321 0.0
C809 C 0.45402 0.10626 0.70921 0.0
C810 C 0.41749 0.11765 0.74501 0.0
C811 C 0.4368 0.10957 0.75901 0.0
H812 H 0.91876 0.37768 0.71354 0.0
H813 H 0.82965 0.34929 0.72757 0.0
H814 H 0.8139 0.29525 0.70765 0.0
H815 H 0.82641 0.2554 0.6906 0.0
H816 H 0.91583 0.28476 0.6758 0.0
H817 H 0.93035 0.33901 0.6912 0.0
C818 C 0.89586 0.35965 0.71192 0.0
C819 C 0.87541 0.36725 0.72224 0.0
C820 C 0.88702 0.32879 0.70038 0.0
C821 C 0.84574 0.3439 0.71971 0.0
C822 C 0.83679 0.31303 0.70846 0.0
C823 C 0.84899 0.27369 0.69026 0.0
C824 C 0.86999 0.26575 0.68241 0.0
C825 C 0.85734 0.30506 0.69931 0.0
C826 C 0.89913 0.28994 0.68191 0.0
C827 C 0.90755 0.32108 0.69085 0.0
H828 H 0.19394 0.99989 0.57619 0.0
H829 H 0.20733 0.95247 0.64953 0.0
H830 H 0.24652 1.00271 0.67557 0.0
H831 H 0.27823 0.05998 0.67622 0.0
H832 H 0.26295 0.10749 0.60394 0.0
H833 H 0.2231 0.05753 0.5789 0.0
C834 C 0.20544 1.00072 0.59794 0.0
C835 C 0.1981 0.97273 0.61092 0.0
C836 C 0.22751 0.02967 0.61295 0.0
C837 C 0.21276 0.97387 0.63924 0.0
C838 C 0.23514 1.00252 0.65404 0.0
C839 C 0.266 0.05937 0.65512 0.0
C840 C 0.27356 0.08737 0.64195 0.0
C841 C 0.24289 0.03055 0.64096 0.0
C842 C 0.2574 0.0863 0.61473 0.0
C843 C 0.23473 0.05771 0.60025 0.0
H844 H 0.03977 0.24322 0.57467 0.0
H845 H 0.09085 0.2804 0.66341 0.0
H846 H 0.04639 0.26301 0.68877 0.0
H847 H 0.99264 0.2365 0.686 0.0
H848 H 0.9421 0.20299 0.59696 0.0
H849 H 0.9866 0.22008 0.57155 0.0
C850 C 0.0413 0.24804 0.59949 0.0
C851 C 0.06874 0.26281 0.61701 0.0
C852 C 0.01564 0.23854 0.61397 0.0
C853 C 0.07005 0.26843 0.64928 0.0
C854 C 0.04462 0.25867 0.66387 0.0
C855 C 0.99149 0.23301 0.66106 0.0
C856 C 0.96423 0.21836 0.64339 0.0
C857 C 0.01726 0.24345 0.6465 0.0
C858 C 0.96291 0.21421 0.61106 0.0
C859 C 0.98833 0.22396 0.59649 0.0
H860 H 0.81767 0.8434 0.64809 0.0
H861 H 0.72767 0.77035 0.627 0.0
H862 H 0.73896 0.73206 0.64691 0.0
H863 H 0.77509 0.71852 0.6666 0.0
H864 H 0.86583 0.79079 0.68428 0.0
H865 H 0.85365 0.83013 0.66982 0.0
C866 C 0.80054 0.81917 0.6483 0.0
C867 C 0.77192 0.80963 0.63609 0.0
C868 C 0.80737 0.7971 0.65907 0.0
C869 C 0.74991 0.77813 0.63613 0.0
C870 C 0.75635 0.75626 0.64752 0.0
C871 C 0.79212 0.74296 0.66783 0.0
C872 C 0.82131 0.75169 0.67659 0.0
C873 C 0.78509 0.76534 0.65855 0.0
C874 C 0.84318 0.78342 0.67757 0.0
C875 C 0.83625 0.80595 0.66923 0.0
H876 H 0.03519 0.78531 0.58277 0.0
H877 H 0.0668 0.86667 0.64862 0.0
H878 H 0.02225 0.83997 0.67445 0.0
H879 H 0.97373 0.79333 0.67803 0.0
H880 H 0.94233 0.71252 0.61143 0.0
H881 H 0.98719 0.73901 0.58633 0.0
C882 C 0.0323 0.79714 0.60282 0.0
C883 C 0.05424 0.82785 0.61373 0.0
C884 C 0.00661 0.7817 0.61747 0.0
C885 C 0.05026 0.84299 0.6397 0.0
C886 C 0.02476 0.82773 0.65451 0.0
C887 C 0.97685 0.78157 0.65811 0.0
C888 C 0.95483 0.751 0.64666 0.0
C889 C 1.00273 0.79707 0.64359 0.0
C890 C 0.95901 0.73603 0.62073 0.0
C891 C 0.98464 0.75117 0.60632 0.0
H892 H 0.24786 0.29658 0.59979 0.0
H893 H 0.17692 0.23293 0.64898 0.0
H894 H 0.20456 0.20793 0.66474 0.0
H895 H 0.24886 0.2039 0.66423 0.0
H896 H 0.31962 0.26726 0.61471 0.0
H897 H 0.29213 0.29259 0.59931 0.0
C898 C 0.23856 0.2773 0.61406 0.0
C899 C 0.2105 0.26668 0.62324 0.0
C900 C 0.2545 0.26294 0.62288 0.0
C901 C 0.19853 0.2416 0.64161 0.0
C902 C 0.2143 0.22726 0.65061 0.0
C903 C 0.2582 0.22325 0.65006 0.0
C904 C 0.28616 0.23377 0.6406 0.0
C905 C 0.24227 0.23767 0.64132 0.0
C906 C 0.2981 0.25881 0.62226 0.0
C907 C 0.28241 0.2733 0.61347 0.0
H908 H 0.84275 0.98326 0.67931 0.0
H909 H 0.75036 0.94728 0.65929 0.0
H910 H 0.75814 1.00018 0.66803 0.0
H911 H 0.79151 0.0571 0.67779 0.0
H912 H 0.88428 0.09353 0.6954 0.0
H913 H 0.87604 0.04029 0.69137 0.0
C914 C 0.82434 0.98704 0.67726 0.0
C915 C 0.79609 0.96143 0.66851 0.0
C916 C 0.82904 0.0177 0.68169 0.0
C917 C 0.77239 0.96661 0.66576 0.0
C918 C 0.77681 0.99689 0.67076 0.0
C919 C 0.80992 0.05343 0.68115 0.0
C920 C 0.83849 0.0794 0.68679 0.0
C921 C 0.8051 0.0227 0.67819 0.0
C922 C 0.86205 0.07406 0.69085 0.0
C923 C 0.85738 0.04357 0.68854 0.0
H924 H 0.51974 0.34189 0.75005 0.0
H925 H 0.49353 0.39571 0.69654 0.0
H926 H 0.45019 0.34727 0.67282 0.0
H927 H 0.41859 0.28941 0.66939 0.0
H928 H 0.44668 0.23672 0.72284 0.0
H929 H 0.49036 0.2848 0.74427 0.0
C930 C 0.50464 0.34294 0.73297 0.0
C931 C 0.50967 0.37213 0.72507 0.0
C932 C 0.48003 0.31518 0.71947 0.0
C933 C 0.49011 0.37338 0.70289 0.0
C934 C 0.46529 0.34572 0.68943 0.0
C935 C 0.43439 0.28848 0.68553 0.0
C936 C 0.42922 0.2594 0.69442 0.0
C937 C 0.45983 0.31644 0.69784 0.0
C938 C 0.45004 0.25864 0.71531 0.0
C939 C 0.47507 0.28619 0.72778 0.0
H940 H 0.66368 0.10097 0.78215 0.0
H941 H 0.62828 0.12328 0.70249 0.0
H942 H 0.67101 0.13358 0.67587 0.0
H943 H 0.71919 0.1374 0.67586 0.0
H944 H 0.75378 0.11427 0.7556 0.0
H945 H 0.71057 0.10287 0.78146 0.0
C946 C 0.66537 0.10808 0.75894 0.0
C947 C 0.64306 0.11152 0.74436 0.0
C948 C 0.68979 0.11368 0.74376 0.0
C949 C 0.64526 0.12051 0.71423 0.0
C950 C 0.66967 0.1264 0.69899 0.0
C951 C 0.71705 0.12959 0.69877 0.0
C952 C 0.7395 0.1266 0.71382 0.0
C953 C 0.69213 0.12315 0.71358 0.0
C954 C 0.73665 0.11658 0.74352 0.0
C955 C 0.71203 0.11019 0.75838 0.0
H956 H 0.91908 0.55566 0.7115 0.0
H957 H 0.83213 0.48475 0.72719 0.0
H958 H 0.81351 0.51935 0.71349 0.0
H959 H 0.8227 0.57102 0.69919 0.0
H960 H 0.91009 0.64061 0.68206 0.0
H961 H 0.92756 0.60518 0.6938 0.0
C962 C 0.89601 0.54774 0.71173 0.0
C963 C 0.87705 0.51787 0.72044 0.0
C964 C 0.88551 0.56755 0.70354 0.0
C965 C 0.84717 0.5077 0.72048 0.0
C966 C 0.83654 0.5275 0.71272 0.0
C967 C 0.8455 0.57833 0.69773 0.0
C968 C 0.865 0.60869 0.68998 0.0
C969 C 0.85559 0.55766 0.70447 0.0
C970 C 0.89447 0.61757 0.68809 0.0
C971 C 0.90461 0.59731 0.69488 0.0
H972 H 0.43021 0.94367 0.16258 0.0
H973 H 0.51083 0.01404 0.21468 0.0
H974 H 0.53005 0.03699 0.16745 0.0
H975 H 0.52553 0.0344 0.11054 0.0
H976 H 0.4441 0.96637 0.05937 0.0
H977 H 0.42344 0.94544 0.10665 0.0
C978 C 0.45167 0.96451 0.16375 0.0
C979 C 0.46921 0.97664 0.19211 0.0
C980 C 0.46259 0.97786 0.1365 0.0
C981 C 0.49707 1.00368 0.19305 0.0
C982 C 0.50813 0.01689 0.16605 0.0
C983 C 0.50319 0.01521 0.10989 0.0
C984 C 0.48624 1.00177 0.08138 0.0
C985 C 0.4914 1.00364 0.1375 0.0
C986 C 0.4573 0.97722 0.0809 0.0
C987 C 0.44559 0.96513 0.10804 0.0
H988 H 0.10103 0.5134 0.16485 0.0
H989 H 0.03497 0.5084 0.22059 0.0
H990 H 1.00097 0.49505 0.17403 0.0
H991 H 0.99126 0.48786 0.11697 0.0
H992 H 0.05999 0.49886 0.06198 0.0
H993 H 0.09149 0.5063 0.10833 0.0
C994 C 0.07902 0.50891 0.16666 0.0
C995 C 0.07022 0.51143 0.19585 0.0
C996 C 0.0601 0.50235 0.13985 0.0
C997 C 0.04195 0.50627 0.19819 0.0
C998 C 0.02262 0.49877 0.17162 0.0
C999 C 0.01301 0.49155 0.11522 0.0
C1000 C 0.02304 0.49215 0.086 0.0
C1001 C 0.03159 0.49717 0.14224 0.0
C1002 C 0.05147 0.49753 0.08409 0.0
C1003 C 0.06964 0.50208 0.11065 0.0
H1004 H 0.46681 0.53561 0.17748 0.0
H1005 H 0.54623 0.55706 0.23199 0.0
H1006 H 0.56573 0.54774 0.18578 0.0
H1007 H 0.56116 0.53593 0.12927 0.0
H1008 H 0.48236 0.51591 0.0753 0.0
H1009 H 0.4613 0.52125 0.12165 0.0
C1010 C 0.48816 0.53766 0.17938 0.0
C1011 C 0.50506 0.54721 0.20818 0.0
C1012 C 0.49927 0.53229 0.15272 0.0
C1013 C 0.5329 0.5502 0.21006 0.0
C1014 C 0.54405 0.54477 0.18365 0.0
C1015 C 0.53923 0.53236 0.12782 0.0
C1016 C 0.52282 0.52434 0.09889 0.0
C1017 C 0.52761 0.53626 0.15477 0.0
C1018 C 0.4947 0.5203 0.09724 0.0
C1019 C 0.48291 0.52403 0.12383 0.0
H1020 H 0.90431 0.44624 0.83671 0.0
H1021 H 0.97403 0.45883 0.78288 0.0
H1022 H 0.00751 0.47403 0.83022 0.0
H1023 H 0.01608 0.48131 0.88728 0.0
H1024 H 0.9442 0.46272 0.94047 0.0
H1025 H 0.91261 0.45279 0.89337 0.0
C1026 C 0.92695 0.45268 0.83549 0.0
C1027 C 0.93695 0.45182 0.80662 0.0
C1028 C 0.94565 0.46036 0.86274 0.0
C1029 C 0.96608 0.45959 0.80504 0.0
C1030 C 0.98513 0.46819 0.83204 0.0
C1031 C 0.99358 0.47537 0.88848 0.0
C1032 C 0.98272 0.4735 0.91739 0.0
C1033 C 0.97507 0.46833 0.86108 0.0
C1034 C 0.95336 0.46518 0.9186 0.0
C1035 C 0.93515 0.45918 0.89162 0.0
H1036 H 0.57857 0.53601 0.84432 0.0
H1037 H 0.53335 0.43463 0.83626 0.0
H1038 H 0.50962 0.4343 0.8821 0.0
H1039 H 0.49996 0.46239 0.92361 0.0
H1040 H 0.55103 0.56317 0.93773 0.0
H1041 H 0.5745 0.56419 0.89062 0.0
C1042 C 0.564 0.5138 0.85275 0.0
C1043 C 0.55708 0.48538 0.83576 0.0
C1044 C 0.55125 0.51365 0.88019 0.0
C1045 C 0.53815 0.45695 0.84763 0.0
C1046 C 0.52469 0.45664 0.87417 0.0
C1047 C 0.5163 0.48452 0.91633 0.0
C1048 C 0.52348 0.51267 0.93353 0.0
C1049 C 0.53062 0.48479 0.89027 0.0
C1050 C 0.54506 0.54125 0.92447 0.0
C1051 C 0.55846 0.5418 0.89764 0.0
H1052 H 0.49514 0.0614 0.83729 0.0
H1053 H 0.55057 0.02381 0.81544 0.0
H1054 H 0.53946 0.99661 0.86194 0.0
H1055 H 0.51119 0.98053 0.90754 0.0
H1056 H 0.44978 0.01152 0.92257 0.0
H1057 H 0.4656 0.04365 0.87995 0.0
C1058 C 0.50443 0.04679 0.84211 0.0
C1059 C 0.52358 0.04475 0.82247 0.0
C1060 C 0.49685 0.02992 0.86795 0.0
C1061 C 0.53608 0.02642 0.83015 0.0
C1062 C 0.52953 0.01052 0.85669 0.0
C1063 C 0.50163 0.99463 0.90153 0.0
C1064 C 0.48001 0.99443 0.91868 0.0
C1065 C 0.50966 0.0118 0.87564 0.0
C1066 C 0.46704 0.01198 0.91023 0.0
C1067 C 0.47589 0.03018 0.88567 0.0
H1068 H 0.15771 0.28309 0.51611 0.0
H1069 H 0.10416 0.32483 0.52993 0.0
H1070 H 0.11402 0.34506 0.47965 0.0
H1071 H 0.14147 0.35471 0.43313 0.0
H1072 H 0.20298 0.32242 0.42727 0.0
H1073 H 0.18728 0.29578 0.47345 0.0
C1074 C 0.1487 0.29735 0.50893 0.0
C1075 C 0.13059 0.30271 0.52763 0.0
C1076 C 0.15613 0.31089 0.48117 0.0
C1077 C 0.118 0.31986 0.51633 0.0
C1078 C 0.1239 0.33183 0.48758 0.0
C1079 C 0.15122 0.34169 0.44205 0.0
C1080 C 0.17293 0.33998 0.42656 0.0
C1081 C 0.14341 0.32801 0.47001 0.0
C1082 C 0.18597 0.32372 0.43859 0.0
C1083 C 0.17706 0.30853 0.46505 0.0
H1084 H 0.75482 0.88465 0.53399 0.0
H1085 H 0.70254 0.78639 0.54608 0.0
H1086 H 0.67801 0.77614 0.49384 0.0
H1087 H 0.66787 0.79635 0.44654 0.0
H1088 H 0.71708 0.89566 0.43841 0.0
H1089 H 0.74622 0.90429 0.48712 0.0
C1090 C 0.73792 0.86096 0.52536 0.0
C1091 C 0.73022 0.83647 0.54424 0.0
C1092 C 0.72324 0.85547 0.4959 0.0
C1093 C 0.70897 0.80576 0.53213 0.0
C1094 C 0.69477 0.7999 0.50229 0.0
C1095 C 0.68528 0.81971 0.45537 0.0
C1096 C 0.69039 0.84538 0.43912 0.0
C1097 C 0.70123 0.82471 0.48422 0.0
C1098 C 0.71275 0.87563 0.45071 0.0
C1099 C 0.72937 0.88059 0.47856 0.0
H1100 H 0.20857 0.90975 0.52996 0.0
H1101 H 0.11857 0.87673 0.49776 0.0
H1102 H 0.12642 0.86177 0.44636 0.0
H1103 H 0.15964 0.86036 0.41017 0.0
H1104 H 0.24918 0.8928 0.44197 0.0
H1105 H 0.24126 0.90702 0.49377 0.0
C1106 C 0.19071 0.89945 0.51166 0.0
C1107 C 0.16301 0.89441 0.51777 0.0
C1108 C 0.19542 0.89107 0.48211 0.0
C1109 C 0.14 0.88058 0.49385 0.0
C1110 C 0.14453 0.8722 0.46438 0.0
C1111 C 0.17699 0.86941 0.42863 0.0
C1112 C 0.20455 0.87448 0.42247 0.0
C1113 C 0.17215 0.87739 0.45826 0.0
C1114 C 0.22761 0.88833 0.44624 0.0
C1115 C 0.22309 0.89644 0.47584 0.0
H1116 H 0.60718 0.82608 0.17589 0.0
H1117 H 0.54801 0.7281 0.18482 0.0
H1118 H 0.57302 0.73319 0.23517 0.0
H1119 H 0.61429 0.76407 0.27465 0.0
H1120 H 0.67061 0.86298 0.26939 0.0
H1121 H 0.64386 0.85912 0.21984 0.0
C1122 C 0.59931 0.806 0.18909 0.0
C1123 C 0.5763 0.77648 0.17594 0.0
C1124 C 0.61346 0.80918 0.21857 0.0
C1125 C 0.56637 0.75084 0.1937 0.0
C1126 C 0.58054 0.75371 0.22265 0.0
C1127 C 0.62049 0.78479 0.2627 0.0
C1128 C 0.6446 0.8136 0.27503 0.0
C1129 C 0.60463 0.78249 0.23486 0.0
C1130 C 0.65216 0.84051 0.25996 0.0
C1131 C 0.63693 0.83826 0.23169 0.0
H1132 H 0.18341 0.77293 0.17299 0.0
H1133 H 0.23213 0.86981 0.15366 0.0
H1134 H 0.22053 0.88612 0.20172 0.0
H1135 H 0.1957 0.87312 0.24913 0.0
H1136 H 0.14057 0.77617 0.26395 0.0
H1137 H 0.15478 0.75961 0.2173 0.0
C1138 C 0.19106 0.79758 0.17867 0.0
C1139 C 0.20913 0.81994 0.15948 0.0
C1140 C 0.18297 0.80686 0.20562 0.0
C1141 C 0.21909 0.85187 0.16814 0.0
C1142 C 0.21215 0.86135 0.19558 0.0
C1143 C 0.1868 0.84841 0.24194 0.0
C1144 C 0.16736 0.82585 0.25977 0.0
C1145 C 0.19414 0.83907 0.21449 0.0
C1146 C 0.15557 0.79387 0.25035 0.0
C1147 C 0.16374 0.78444 0.22378 0.0
H1148 H 0.15436 0.35458 0.15293 0.0
H1149 H 0.2399 0.42887 0.19103 0.0
H1150 H 0.23115 0.40838 0.24151 0.0
H1151 H 0.1972 0.3716 0.2755 0.0
H1152 H 0.11175 0.29811 0.2371 0.0
H1153 H 0.12204 0.31633 0.18604 0.0
C1154 C 0.17109 0.36631 0.1723 0.0
C1155 C 0.19761 0.39336 0.16833 0.0
C1156 C 0.16581 0.35458 0.20115 0.0
C1157 C 0.21932 0.40795 0.19347 0.0
C1158 C 0.21427 0.39633 0.22235 0.0
C1159 C 0.18141 0.35894 0.2558 0.0
C1160 C 0.15413 0.33313 0.25992 0.0
C1161 C 0.18743 0.36986 0.22655 0.0
C1162 C 0.13305 0.3179 0.2344 0.0
C1163 C 0.13888 0.32834 0.20523 0.0
H1164 H 0.83079 0.67465 0.87727 0.0
H1165 H 0.77307 0.58006 0.83604 0.0
H1166 H 0.7874 0.59623 0.78484 0.0
H1167 H 0.81835 0.63659 0.75269 0.0
H1168 H 0.87432 0.73207 0.79275 0.0
H1169 H 0.85929 0.71628 0.8439 0.0
C1170 C 0.82129 0.65781 0.85692 0.0
C1171 C 0.80104 0.62631 0.86004 0.0
C1172 C 0.82955 0.66737 0.82766 0.0
C1173 C 0.78869 0.60443 0.83384 0.0
C1174 C 0.79694 0.61365 0.80473 0.0
C1175 C 0.82671 0.65413 0.77244 0.0
C1176 C 0.84707 0.68553 0.76893 0.0
C1177 C 0.81757 0.64497 0.80145 0.0
C1178 C 0.85852 0.70777 0.79493 0.0
C1179 C 0.84991 0.69875 0.82411 0.0
H1180 H 0.43556 0.23062 0.84385 0.0
H1181 H 0.3838 0.13263 0.85751 0.0
H1182 H 0.35664 0.12211 0.80682 0.0
H1183 H 0.34461 0.14183 0.76027 0.0
H1184 H 0.39309 0.24099 0.75112 0.0
H1185 H 0.42406 0.25003 0.79845 0.0
C1186 C 0.41809 0.20697 0.83609 0.0
C1187 C 0.41154 0.18263 0.85491 0.0
C1188 C 0.40176 0.20131 0.80762 0.0
C1189 C 0.38952 0.15193 0.84362 0.0
C1190 C 0.37376 0.14589 0.81468 0.0
C1191 C 0.36215 0.16527 0.76865 0.0
C1192 C 0.36669 0.1907 0.75231 0.0
C1193 C 0.37927 0.17053 0.79672 0.0
C1194 C 0.3892 0.22107 0.7634 0.0
C1195 C 0.40692 0.22628 0.79046 0.0
H1196 H 0.79876 0.19963 0.84365 0.0
H1197 H 0.86649 0.19557 0.89872 0.0
H1198 H 0.88513 0.18553 0.85182 0.0
H1199 H 0.88371 0.18105 0.79467 0.0
H1200 H 0.81886 0.19141 0.74085 0.0
H1201 H 0.79738 0.19535 0.78727 0.0
C1202 C 0.81726 0.19596 0.84527 0.0
C1203 C 0.83104 0.19787 0.8744 0.0
C1204 C 0.82845 0.19143 0.8183 0.0
C1205 C 0.85545 0.19389 0.87639 0.0
C1206 C 0.86615 0.18831 0.84962 0.0
C1207 C 0.86478 0.18395 0.7932 0.0
C1208 C 0.85251 0.18515 0.76421 0.0
C1209 C 0.85312 0.18754 0.82037 0.0
C1210 C 0.82828 0.1895 0.76271 0.0
C1211 C 0.81606 0.19205 0.78933 0.0
H1212 H 0.27631 0.15933 0.50123 0.0
H1213 H 0.31647 0.11168 0.45832 0.0
H1214 H 0.34506 0.11882 0.50704 0.0
H1215 H 0.35665 0.13587 0.56274 0.0
H1216 H 0.31739 0.18414 0.60527 0.0
H1217 H 0.29096 0.18014 0.55604 0.0
C1218 C 0.29172 0.15105 0.50238 0.0
C1219 C 0.29386 0.13459 0.47621 0.0
C1220 C 0.3083 0.15536 0.53051 0.0
C1221 C 0.31387 0.12384 0.47825 0.0
C1222 C 0.33034 0.12799 0.50609 0.0
C1223 C 0.34254 0.1458 0.56106 0.0
C1224 C 0.3393 0.16083 0.58756 0.0
C1225 C 0.32733 0.14318 0.53252 0.0
C1226 C 0.32094 0.17347 0.58513 0.0
C1227 C 0.30552 0.17077 0.55695 0.0
H1228 H 0.89934 0.1442 0.51115 0.0
H1229 H 0.84693 0.17693 0.46598 0.0
H1230 H 0.82873 0.18211 0.51514 0.0
H1231 H 0.82683 0.17574 0.57086 0.0
H1232 H 0.87781 0.14059 0.61512 0.0
H1233 H 0.8976 0.13802 0.5667 0.0
C1234 C 0.88416 0.15275 0.51233 0.0
C1235 C 0.87455 0.16047 0.48542 0.0
C1236 C 0.87351 0.15509 0.54045 0.0
C1237 C 0.85464 0.17113 0.48672 0.0
C1238 C 0.84421 0.17395 0.51471 0.0
C1239 C 0.84229 0.16757 0.56981 0.0
C1240 C 0.85114 0.15876 0.59654 0.0
C1241 C 0.8533 0.16574 0.5417 0.0
C1242 C 0.87101 0.14798 0.59492 0.0
C1243 C 0.88226 0.14637 0.56722 0.0
H1244 H 0.83553 0.69094 0.49011 0.0
H1245 H 0.90842 0.77926 0.53058 0.0
H1246 H 0.90225 0.75989 0.58158 0.0
H1247 H 0.87282 0.7199 0.61489 0.0
H1248 H 0.80188 0.63006 0.57459 0.0
H1249 H 0.81032 0.64794 0.52303 0.0
C1250 C 0.85025 0.70562 0.51013 0.0
C1251 C 0.87224 0.73643 0.50698 0.0
C1252 C 0.8467 0.6942 0.53921 0.0
C1253 C 0.89141 0.75543 0.53274 0.0
C1254 C 0.88778 0.74443 0.56181 0.0
C1255 C 0.85977 0.70389 0.59479 0.0
C1256 C 0.83683 0.67372 0.59846 0.0
C1257 C 0.86508 0.71414 0.56537 0.0
C1258 C 0.81971 0.65341 0.57226 0.0
C1259 C 0.82446 0.66365 0.54283 0.0
loop_
_geom_bond_atom_site_label_1
_geom_bond_atom_site_label_2
_geom_bond_distance
_geom_bond_site_symmetry_2
_ccdc_geom_bond_type
H0 C5 0.930 . S
H1 C8 0.930 . S
H2 C10 0.930 . S
H3 C4 1.016 . S
C4 H3 1.016 . S
C4 N11 1.286 . S
C5 H0 0.930 . S
C5 C6 1.397 . S
C5 C7 1.361 . S
C6 C5 1.397 . S
C6 C10 1.390 . S
C7 C5 1.361 . S
C7 C8 1.393 . S
C7 N11 1.413 . S
C8 H1 0.930 . S
C8 C7 1.393 . S
C8 C9 1.399 . S
C9 C8 1.399 . S
C9 C10 1.381 . S
C10 H2 0.930 . S
C10 C6 1.390 . S
C10 C9 1.381 . S
N11 C4 1.286 . S
N11 C7 1.413 . S
H12 C17 0.930 . S
H13 C20 0.930 . S
H14 C22 0.930 . S
H15 C16 1.016 . S
C16 H15 1.016 . S
C16 N23 1.286 . S
C17 H12 0.930 . S
C17 C18 1.397 . S
C17 C19 1.361 . S
C18 C17 1.397 . S
C18 C22 1.390 . S
C19 C17 1.361 . S
C19 C20 1.393 . S
C19 N23 1.413 . S
C20 H13 0.930 . S
C20 C19 1.393 . S
C20 C21 1.399 . S
C21 C20 1.399 . S
C21 C22 1.381 . S
C22 H14 0.930 . S
C22 C18 1.390 . S
C22 C21 1.381 . S
N23 C16 1.286 . S
N23 C19 1.413 . S
H24 C29 0.930 . S
H25 C32 0.930 . S
H26 C34 0.930 . S
H27 C28 1.016 . S
C28 H27 1.016 . S
C28 N35 1.286 . S
C29 H24 0.930 . S
C29 C30 1.397 . S
C29 C31 1.361 . S
C30 C29 1.397 . S
C30 C34 1.390 . S
C31 C29 1.361 . S
C31 C32 1.393 . S
C31 N35 1.413 . S
C32 H25 0.930 . S
C32 C31 1.393 . S
C32 C33 1.399 . S
C33 C32 1.399 . S
C33 C34 1.381 . S
C34 H26 0.930 . S
C34 C30 1.390 . S
C34 C33 1.381 . S
N35 C28 1.286 . S
N35 C31 1.413 . S
H36 C41 0.930 . S
H37 C44 0.930 . S
H38 C46 0.930 . S
H39 C40 1.016 . S
C40 H39 1.016 . S
C40 N47 1.286 . S
C41 H36 0.930 . S
C41 C42 1.397 . S
C41 C43 1.361 . S
C42 C41 1.397 . S
C42 C46 1.390 . S
C43 C41 1.361 . S
C43 C44 1.393 . S
C43 N47 1.413 . S
C44 H37 0.930 . S
C44 C43 1.393 . S
C44 C45 1.399 . S
C45 C44 1.399 . S
C45 C46 1.381 . S
C46 H38 0.930 . S
C46 C42 1.390 . S
C46 C45 1.381 . S
N47 C40 1.286 . S
N47 C43 1.413 . S
H48 C53 0.930 . S
H49 C56 0.930 . S
H50 C58 0.930 . S
H51 C52 1.016 . S
C52 H51 1.016 . S
C52 N59 1.286 . S
C53 H48 0.930 . S
C53 C54 1.397 . S
C53 C55 1.361 . S
C54 C53 1.397 . S
C54 C58 1.390 . S
C55 C53 1.361 . S
C55 C56 1.393 . S
C55 N59 1.413 . S
C56 H49 0.930 . S
C56 C55 1.393 . S
C56 C57 1.399 . S
C57 C56 1.399 . S
C57 C58 1.381 . S
C58 H50 0.930 . S
C58 C54 1.390 . S
C58 C57 1.381 . S
N59 C52 1.286 . S
N59 C55 1.413 . S
H60 C65 0.930 . S
H61 C68 0.930 . S
H62 C70 0.930 . S
H63 C64 1.016 . S
C64 H63 1.016 . S
C64 N71 1.286 . S
C65 H60 0.930 . S
C65 C66 1.397 . S
C65 C67 1.361 . S
C66 C65 1.397 . S
C66 C70 1.390 . S
C67 C65 1.361 . S
C67 C68 1.393 . S
C67 N71 1.413 . S
C68 H61 0.930 . S
C68 C67 1.393 . S
C68 C69 1.399 . S
C69 C68 1.399 . S
C69 C70 1.381 . S
C70 H62 0.930 . S
C70 C66 1.390 . S
C70 C69 1.381 . S
N71 C64 1.286 . S
N71 C67 1.413 . S
H72 C77 0.930 . S
H73 C80 0.930 . S
H74 C82 0.930 . S
H75 C76 1.016 . S
C76 H75 1.016 . S
C76 N83 1.286 . S
C77 H72 0.930 . S
C77 C78 1.397 . S
C77 C79 1.361 . S
C78 C77 1.397 . S
C78 C82 1.390 . S
C79 C77 1.361 . S
C79 C80 1.393 . S
C79 N83 1.413 . S
C80 H73 0.930 . S
C80 C79 1.393 . S
C80 C81 1.399 . S
C81 C80 1.399 . S
C81 C82 1.381 . S
C82 H74 0.930 . S
C82 C78 1.390 . S
C82 C81 1.381 . S
N83 C76 1.286 . S
N83 C79 1.413 . S
H84 C89 0.930 . S
H85 C92 0.930 . S
H86 C94 0.930 . S
H87 C88 1.016 . S
C88 H87 1.016 . S
C88 N95 1.286 . S
C89 H84 0.930 . S
C89 C90 1.397 . S
C89 C91 1.361 . S
C90 C89 1.397 . S
C90 C94 1.390 . S
C91 C89 1.361 . S
C91 C92 1.393 . S
C91 N95 1.413 . S
C92 H85 0.930 . S
C92 C91 1.393 . S
C92 C93 1.399 . S
C93 C92 1.399 . S
C93 C94 1.381 . S
C94 H86 0.930 . S
C94 C90 1.390 . S
C94 C93 1.381 . S
N95 C88 1.286 . S
N95 C91 1.413 . S
H96 C101 0.930 . S
H97 C104 0.930 . S
H98 C106 0.930 . S
H99 C100 1.016 . S
C100 H99 1.016 . S
C100 N107 1.286 . S
C101 H96 0.930 . S
C101 C102 1.397 . S
C101 C103 1.361 . S
C102 C101 1.397 . S
C102 C106 1.390 . S
C103 C101 1.361 . S
C103 C104 1.393 . S
C103 N107 1.413 . S
C104 H97 0.930 . S
C104 C103 1.393 . S
C104 C105 1.399 . S
C105 C104 1.399 . S
C105 C106 1.381 . S
C106 H98 0.930 . S
C106 C102 1.390 . S
C106 C105 1.381 . S
N107 C100 1.286 . S
N107 C103 1.413 . S
H108 C113 0.930 . S
H109 C116 0.930 . S
H110 C118 0.930 . S
H111 C112 1.016 . S
C112 H111 1.016 . S
C112 N119 1.286 . S
C113 H108 0.930 . S
C113 C114 1.397 . S
C113 C115 1.361 . S
C114 C113 1.397 . S
C114 C118 1.390 . S
C115 C113 1.361 . S
C115 C116 1.393 . S
C115 N119 1.413 . S
C116 H109 0.930 . S
C116 C115 1.393 . S
C116 C117 1.399 . S
C117 C116 1.399 . S
C117 C118 1.381 . S
C118 H110 0.930 . S
C118 C114 1.390 . S
C118 C117 1.381 . S
N119 C112 1.286 . S
N119 C115 1.413 . S
H120 C125 0.930 . S
H121 C128 0.930 . S
H122 C130 0.930 . S
H123 C124 1.016 . S
C124 H123 1.016 . S
C124 N131 1.286 . S
C125 H120 0.930 . S
C125 C126 1.397 . S
C125 C127 1.361 . S
C126 C125 1.397 . S
C126 C130 1.390 . S
C127 C125 1.361 . S
C127 C128 1.393 . S
C127 N131 1.413 . S
C128 H121 0.930 . S
C128 C127 1.393 . S
C128 C129 1.399 . S
C129 C128 1.399 . S
C129 C130 1.381 . S
C130 H122 0.930 . S
C130 C126 1.390 . S
C130 C129 1.381 . S
N131 C124 1.286 . S
N131 C127 1.413 . S
H132 C137 0.930 . S
H133 C140 0.930 . S
H134 C142 0.930 . S
H135 C136 1.016 . S
C136 H135 1.016 . S
C136 N143 1.286 . S
C137 H132 0.930 . S
C137 C138 1.397 . S
C137 C139 1.361 . S
C138 C137 1.397 . S
C138 C142 1.390 . S
C139 C137 1.361 . S
C139 C140 1.393 . S
C139 N143 1.413 . S
C140 H133 0.930 . S
C140 C139 1.393 . S
C140 C141 1.399 . S
C141 C140 1.399 . S
C141 C142 1.381 . S
C142 H134 0.930 . S
C142 C138 1.390 . S
C142 C141 1.381 . S
N143 C136 1.286 . S
N143 C139 1.413 . S
H144 C149 0.930 . S
H145 C152 0.930 . S
H146 C154 0.930 . S
H147 C148 1.016 . S
C148 H147 1.016 . S
C148 N155 1.286 . S
C149 H144 0.930 . S
C149 C150 1.397 . S
C149 C151 1.361 . S
C150 C149 1.397 . S
C150 C154 1.390 . S
C151 C149 1.361 . S
C151 C152 1.393 . S
C151 N155 1.413 . S
C152 H145 0.930 . S
C152 C151 1.393 . S
C152 C153 1.399 . S
C153 C152 1.399 . S
C153 C154 1.381 . S
C154 H146 0.930 . S
C154 C150 1.390 . S
C154 C153 1.381 . S
N155 C148 1.286 . S
N155 C151 1.413 . S
H156 C161 0.930 . S
H157 C164 0.930 . S
H158 C166 0.930 . S
H159 C160 1.016 . S
C160 H159 1.016 . S
C160 N167 1.286 . S
C161 H156 0.930 . S
C161 C162 1.397 . S
C161 C163 1.361 . S
C162 C161 1.397 . S
C162 C166 1.390 . S
C163 C161 1.361 . S
C163 C164 1.393 . S
C163 N167 1.413 . S
C164 H157 0.930 . S
C164 C163 1.393 . S
C164 C165 1.399 . S
C165 C164 1.399 . S
C165 C166 1.381 . S
C166 H158 0.930 . S
C166 C162 1.390 . S
C166 C165 1.381 . S
N167 C160 1.286 . S
N167 C163 1.413 . S
H168 C173 0.930 . S
H169 C176 0.930 . S
H170 C178 0.930 . S
H171 C172 1.016 . S
C172 H171 1.016 . S
C172 N179 1.286 . S
C173 H168 0.930 . S
C173 C174 1.397 . S
C173 C175 1.361 . S
C174 C173 1.397 . S
C174 C178 1.390 . S
C175 C173 1.361 . S
C175 C176 1.393 . S
C175 N179 1.413 . S
C176 H169 0.930 . S
C176 C175 1.393 . S
C176 C177 1.399 . S
C177 C176 1.399 . S
C177 C178 1.381 . S
C178 H170 0.930 . S
C178 C174 1.390 . S
C178 C177 1.381 . S
N179 C172 1.286 . S
N179 C175 1.413 . S
H180 C185 0.930 . S
H181 C188 0.930 . S
H182 C190 0.930 . S
H183 C184 1.016 . S
C184 H183 1.016 . S
C184 N191 1.286 . S
C185 H180 0.930 . S
C185 C186 1.397 . S
C185 C187 1.361 . S
C186 C185 1.397 . S
C186 C190 1.390 . S
C187 C185 1.361 . S
C187 C188 1.393 . S
C187 N191 1.413 . S
C188 H181 0.930 . S
C188 C187 1.393 . S
C188 C189 1.399 . S
C189 C188 1.399 . S
C189 C190 1.381 . S
C190 H182 0.930 . S
C190 C186 1.390 . S
C190 C189 1.381 . S
N191 C184 1.286 . S
N191 C187 1.413 . S
H192 C197 0.930 . S
H193 C200 0.930 . S
H194 C202 0.930 . S
H195 C196 1.016 . S
C196 H195 1.016 . S
C196 N203 1.286 . S
C197 H192 0.930 . S
C197 C198 1.397 . S
C197 C199 1.361 . S
C198 C197 1.397 . S
C198 C202 1.390 . S
C199 C197 1.361 . S
C199 C200 1.393 . S
C199 N203 1.413 . S
C200 H193 0.930 . S
C200 C199 1.393 . S
C200 C201 1.399 . S
C201 C200 1.399 . S
C201 C202 1.381 . S
C202 H194 0.930 . S
C202 C198 1.390 . S
C202 C201 1.381 . S
N203 C196 1.286 . S
N203 C199 1.413 . S
H204 C209 0.930 . S
H205 C212 0.930 . S
H206 C214 0.930 . S
H207 C208 1.016 . S
C208 H207 1.016 . S
C208 N215 1.286 . S
C209 H204 0.930 . S
C209 C210 1.397 . S
C209 C211 1.361 . S
C210 C209 1.397 . S
C210 C214 1.390 . S
C211 C209 1.361 . S
C211 C212 1.393 . S
C211 N215 1.413 . S
C212 H205 0.930 . S
C212 C211 1.393 . S
C212 C213 1.399 . S
C213 C212 1.399 . S
C213 C214 1.381 . S
C214 H206 0.930 . S
C214 C210 1.390 . S
C214 C213 1.381 . S
N215 C208 1.286 . S
N215 C211 1.413 . S
Tb216 O219 2.453 . S
Tb216 O220 2.596 1_545 S
Tb216 O221 2.374 1_545 S
Tb216 O229 2.343 1_554 S
Tb216 O231 2.353 . S
Tb216 O233 2.427 . S
Tb216 O234 2.513 1_554 S
C217 O221 1.251 . S
C217 O223 1.263 1_554 S
Tb218 O220 2.343 1_556 S
Tb218 O223 2.353 . S
Tb218 O226 2.427 1_556 S
Tb218 O227 2.513 1_556 S
Tb218 O228 2.453 . S
Tb218 O229 2.596 1_565 S
Tb218 O230 2.374 1_565 S
O219 Tb216 2.453 . S
O219 C235 1.245 1_545 S
O220 Tb216 2.596 1_565 S
O220 Tb218 2.343 1_554 S
O220 C235 1.259 . S
O221 Tb216 2.374 1_565 S
O221 C217 1.251 . S
C222 O226 1.275 . S
C222 O227 1.246 . S
O223 C217 1.263 1_556 S
O223 Tb218 2.353 . S
C224 O228 1.245 1_545 S
C224 O229 1.259 . S
C225 O230 1.250 1_554 S
C225 O231 1.263 . S
O226 Tb218 2.427 1_554 S
O226 C222 1.275 . S
O227 Tb218 2.513 1_554 S
O227 C222 1.246 . S
O228 Tb218 2.453 . S
O228 C224 1.245 1_565 S
O229 Tb216 2.343 1_556 S
O229 Tb218 2.596 1_545 S
O229 C224 1.259 . S
O230 Tb218 2.374 1_545 S
O230 C225 1.250 1_556 S
O231 Tb216 2.353 . S
O231 C225 1.263 . S
C232 O233 1.275 1_556 S
C232 O234 1.246 . S
O233 Tb216 2.427 . S
O233 C232 1.275 1_554 S
O234 Tb216 2.513 1_556 S
O234 C232 1.246 . S
C235 O219 1.245 1_565 S
C235 O220 1.259 . S
Tb236 O239 2.453 . S
Tb236 O240 2.596 1_655 S
Tb236 O241 2.374 1_655 S
Tb236 O249 2.343 1_554 S
Tb236 O251 2.353 . S
Tb236 O253 2.427 1_554 S
Tb236 O254 2.513 1_554 S
C237 O241 1.251 . S
C237 O243 1.265 . S
Tb238 O240 2.343 1_556 S
Tb238 O243 2.353 1_556 S
Tb238 O246 2.427 1_556 S
Tb238 O247 2.513 1_556 S
Tb238 O248 2.453 . S
Tb238 O249 2.596 1_455 S
Tb238 O250 2.374 1_455 S
O239 Tb236 2.453 . S
O239 C255 1.245 1_655 S
O240 Tb236 2.596 1_455 S
O240 Tb238 2.343 1_554 S
O240 C255 1.259 . S
O241 Tb236 2.374 1_455 S
O241 C237 1.251 . S
C242 O246 1.275 . S
C242 O247 1.246 . S
O243 C237 1.265 . S
O243 Tb238 2.353 1_554 S
C244 O248 1.245 1_655 S
C244 O249 1.259 . S
C245 O250 1.250 . S
C245 O251 1.263 1_556 S
O246 Tb238 2.427 1_554 S
O246 C242 1.275 . S
O247 Tb238 2.513 1_554 S
O247 C242 1.246 . S
O248 Tb238 2.453 . S
O248 C244 1.245 1_455 S
O249 Tb236 2.343 1_556 S
O249 Tb238 2.596 1_655 S
O249 C244 1.259 . S
O250 Tb238 2.374 1_655 S
O250 C245 1.250 . S
O251 Tb236 2.353 . S
O251 C245 1.263 1_554 S
C252 O253 1.275 . S
C252 O254 1.246 . S
O253 Tb236 2.427 1_556 S
O253 C252 1.275 . S
O254 Tb236 2.513 1_556 S
O254 C252 1.246 . S
C255 O239 1.245 1_455 S
C255 O240 1.259 . S
Tb256 O259 2.453 . S
Tb256 O260 2.596 . S
Tb256 O261 2.379 . S
Tb256 O269 2.343 1_556 S
Tb256 O271 2.353 1_556 S
Tb256 O273 2.427 1_556 S
Tb256 O274 2.513 1_556 S
C257 O261 1.245 1_554 S
C257 O263 1.263 . S
Tb258 O260 2.343 1_554 S
Tb258 O263 2.353 . S
Tb258 O266 2.437 . S
Tb258 O267 2.513 1_554 S
Tb258 O268 2.453 . S
Tb258 O269 2.596 . S
Tb258 O270 2.374 . S
O259 Tb256 2.453 . S
O259 C275 1.245 . S
O260 Tb256 2.596 . S
O260 Tb258 2.343 1_556 S
O260 C275 1.259 . S
O261 Tb256 2.379 . S
O261 C257 1.245 1_556 S
C262 O266 1.266 1_556 S
C262 O267 1.246 . S
O263 C257 1.263 . S
O263 Tb258 2.353 . S
C264 O268 1.245 . S
C264 O269 1.259 . S
C265 O270 1.250 . S
C265 O271 1.263 . S
O266 Tb258 2.437 . S
O266 C262 1.266 1_554 S
O267 Tb258 2.513 1_556 S
O267 C262 1.246 . S
O268 Tb258 2.453 . S
O268 C264 1.245 . S
O269 Tb256 2.343 1_554 S
O269 Tb258 2.596 . S
O269 C264 1.259 . S
O270 Tb258 2.374 . S
O270 C265 1.250 . S
O271 Tb256 2.353 1_554 S
O271 C265 1.263 . S
C272 O273 1.275 . S
C272 O274 1.246 . S
O273 Tb256 2.427 1_554 S
O273 C272 1.275 . S
O274 Tb256 2.513 1_554 S
O274 C272 1.246 . S
C275 O259 1.245 . S
C275 O260 1.259 . S
Tb276 O279 2.453 . S
Tb276 O280 2.596 . S
Tb276 O281 2.374 . S
Tb276 O289 2.343 . S
Tb276 O291 2.353 . S
Tb276 O293 2.427 . S
Tb276 O294 2.513 . S
C277 O281 1.251 . S
C277 O283 1.263 . S
Tb278 O280 2.343 . S
Tb278 O283 2.353 . S
Tb278 O286 2.427 . S
Tb278 O287 2.513 . S
Tb278 O288 2.453 . S
Tb278 O289 2.596 . S
Tb278 O290 2.374 . S
O279 Tb276 2.453 . S
O279 C295 1.245 . S
O280 Tb276 2.596 . S
O280 Tb278 2.343 . S
O280 C295 1.259 . S
O281 Tb276 2.374 . S
O281 C277 1.251 . S
C282 O286 1.275 . S
C282 O287 1.246 . S
O283 C277 1.263 . S
O283 Tb278 2.353 . S
C284 O288 1.245 . S
C284 O289 1.259 . S
C285 O290 1.250 . S
C285 O291 1.263 . S
O286 Tb278 2.427 . S
O286 C282 1.275 . S
O287 Tb278 2.513 . S
O287 C282 1.246 . S
O288 Tb278 2.453 . S
O288 C284 1.245 . S
O289 Tb276 2.343 . S
O289 Tb278 2.596 . S
O289 C284 1.259 . S
O290 Tb278 2.374 . S
O290 C285 1.250 . S
O291 Tb276 2.353 . S
O291 C285 1.263 . S
C292 O293 1.275 . S
C292 O294 1.246 . S
O293 Tb276 2.427 . S
O293 C292 1.275 . S
O294 Tb276 2.513 . S
O294 C292 1.246 . S
C295 O279 1.245 . S
C295 O280 1.259 . S
Tb296 O299 2.453 . S
Tb296 O300 2.596 . S
Tb296 O301 2.374 . S
Tb296 O309 2.343 . S
Tb296 O311 2.353 . S
Tb296 O313 2.427 . S
Tb296 O314 2.513 . S
C297 O301 1.251 . S
C297 O303 1.263 . S
Tb298 O300 2.343 . S
Tb298 O303 2.353 . S
Tb298 O306 2.427 . S
Tb298 O307 2.513 . S
Tb298 O308 2.453 . S
Tb298 O309 2.596 . S
Tb298 O310 2.374 . S
O299 Tb296 2.453 . S
O299 C315 1.245 . S
O300 Tb296 2.596 . S
O300 Tb298 2.343 . S
O300 C315 1.259 . S
O301 Tb296 2.374 . S
O301 C297 1.251 . S
C302 O306 1.275 . S
C302 O307 1.246 . S
O303 C297 1.263 . S
O303 Tb298 2.353 . S
C304 O308 1.245 . S
C304 O309 1.259 . S
C305 O310 1.250 . S
C305 O311 1.263 . S
O306 Tb298 2.427 . S
O306 C302 1.275 . S
O307 Tb298 2.513 . S
O307 C302 1.246 . S
O308 Tb298 2.453 . S
O308 C304 1.245 . S
O309 Tb296 2.343 . S
O309 Tb298 2.596 . S
O309 C304 1.259 . S
O310 Tb298 2.374 . S
O310 C305 1.250 . S
O311 Tb296 2.353 . S
O311 C305 1.263 . S
C312 O313 1.275 . S
C312 O314 1.246 . S
O313 Tb296 2.427 . S
O313 C312 1.275 . S
O314 Tb296 2.513 . S
O314 C312 1.246 . S
C315 O299 1.245 . S
C315 O300 1.259 . S
Tb316 O319 2.453 . S
Tb316 O320 2.596 . S
Tb316 O321 2.374 . S
Tb316 O329 2.343 . S
Tb316 O331 2.353 . S
Tb316 O333 2.427 . S
Tb316 O334 2.513 . S
C317 O321 1.251 . S
C317 O323 1.263 . S
Tb318 O320 2.343 . S
Tb318 O323 2.353 . S
Tb318 O326 2.427 . S
Tb318 O327 2.513 . S
Tb318 O328 2.453 . S
Tb318 O329 2.596 . S
Tb318 O330 2.374 . S
O319 Tb316 2.453 . S
O319 C335 1.245 . S
O320 Tb316 2.596 . S
O320 Tb318 2.343 . S
O320 C335 1.259 . S
O321 Tb316 2.374 . S
O321 C317 1.251 . S
C322 O326 1.275 . S
C322 O327 1.246 . S
O323 C317 1.263 . S
O323 Tb318 2.353 . S
C324 O328 1.245 . S
C324 O329 1.259 . S
C325 O330 1.250 . S
C325 O331 1.263 . S
O326 Tb318 2.427 . S
O326 C322 1.275 . S
O327 Tb318 2.513 . S
O327 C322 1.246 . S
O328 Tb318 2.453 . S
O328 C324 1.245 . S
O329 Tb316 2.343 . S
O329 Tb318 2.596 . S
O329 C324 1.259 . S
O330 Tb318 2.374 . S
O330 C325 1.250 . S
O331 Tb316 2.353 . S
O331 C325 1.263 . S
C332 O333 1.275 . S
C332 O334 1.246 . S
O333 Tb316 2.427 . S
O333 C332 1.275 . S
O334 Tb316 2.513 . S
O334 C332 1.246 . S
C335 O319 1.245 . S
C335 O320 1.259 . S
Tb336 O339 2.453 . S
Tb336 O340 2.596 . S
Tb336 O341 2.374 . S
Tb336 O349 2.343 . S
Tb336 O351 2.353 . S
Tb336 O353 2.427 . S
Tb336 O354 2.513 . S
C337 O341 1.251 . S
C337 O343 1.263 . S
Tb338 O340 2.343 . S
Tb338 O343 2.353 . S
Tb338 O346 2.427 . S
Tb338 O347 2.513 . S
Tb338 O348 2.453 . S
Tb338 O349 2.596 . S
Tb338 O350 2.374 . S
O339 Tb336 2.453 . S
O339 C355 1.245 . S
O340 Tb336 2.596 . S
O340 Tb338 2.343 . S
O340 C355 1.259 . S
O341 Tb336 2.374 . S
O341 C337 1.251 . S
C342 O346 1.275 . S
C342 O347 1.246 . S
O343 C337 1.263 . S
O343 Tb338 2.353 . S
C344 O348 1.245 . S
C344 O349 1.259 . S
C345 O350 1.250 . S
C345 O351 1.263 . S
O346 Tb338 2.427 . S
O346 C342 1.275 . S
O347 Tb338 2.513 . S
O347 C342 1.246 . S
O348 Tb338 2.453 . S
O348 C344 1.245 . S
O349 Tb336 2.343 . S
O349 Tb338 2.596 . S
O349 C344 1.259 . S
O350 Tb338 2.374 . S
O350 C345 1.250 . S
O351 Tb336 2.353 . S
O351 C345 1.263 . S
C352 O353 1.275 . S
C352 O354 1.246 . S
O353 Tb336 2.427 . S
O353 C352 1.275 . S
O354 Tb336 2.513 . S
O354 C352 1.246 . S
C355 O339 1.245 . S
C355 O340 1.259 . S
Tb356 O359 2.453 . S
Tb356 O360 2.596 . S
Tb356 O361 2.374 . S
Tb356 O369 2.343 . S
Tb356 O371 2.353 . S
Tb356 O373 2.427 . S
Tb356 O374 2.513 . S
C357 O361 1.251 . S
C357 O363 1.263 . S
Tb358 O360 2.343 . S
Tb358 O363 2.353 . S
Tb358 O366 2.427 . S
Tb358 O367 2.513 . S
Tb358 O368 2.453 . S
Tb358 O369 2.596 . S
Tb358 O370 2.374 . S
O359 Tb356 2.453 . S
O359 C375 1.245 . S
O360 Tb356 2.596 . S
O360 Tb358 2.343 . S
O360 C375 1.259 . S
O361 Tb356 2.374 . S
O361 C357 1.251 . S
C362 O366 1.275 . S
C362 O367 1.246 . S
O363 C357 1.263 . S
O363 Tb358 2.353 . S
C364 O368 1.245 . S
C364 O369 1.259 . S
C365 O370 1.250 . S
C365 O371 1.263 . S
O366 Tb358 2.427 . S
O366 C362 1.275 . S
O367 Tb358 2.513 . S
O367 C362 1.246 . S
O368 Tb358 2.453 . S
O368 C364 1.245 . S
O369 Tb356 2.343 . S
O369 Tb358 2.596 . S
O369 C364 1.259 . S
O370 Tb358 2.374 . S
O370 C365 1.250 . S
O371 Tb356 2.353 . S
O371 C365 1.263 . S
C372 O373 1.275 . S
C372 O374 1.246 . S
O373 Tb356 2.427 . S
O373 C372 1.275 . S
O374 Tb356 2.513 . S
O374 C372 1.246 . S
C375 O359 1.245 . S
C375 O360 1.259 . S
Tb376 O379 2.453 . S
Tb376 O380 2.596 . S
Tb376 O381 2.374 . S
Tb376 O389 2.343 . S
Tb376 O391 2.353 . S
Tb376 O393 2.427 . S
Tb376 O394 2.513 . S
C377 O381 1.251 . S
C377 O383 1.263 . S
Tb378 O380 2.343 . S
Tb378 O383 2.353 . S
Tb378 O386 2.427 . S
Tb378 O387 2.513 . S
Tb378 O388 2.453 . S
Tb378 O389 2.596 . S
Tb378 O390 2.374 . S
O379 Tb376 2.453 . S
O379 C395 1.245 . S
O380 Tb376 2.596 . S
O380 Tb378 2.343 . S
O380 C395 1.259 . S
O381 Tb376 2.374 . S
O381 C377 1.251 . S
C382 O386 1.275 . S
C382 O387 1.246 . S
O383 C377 1.263 . S
O383 Tb378 2.353 . S
C384 O388 1.245 . S
C384 O389 1.259 . S
C385 O390 1.250 . S
C385 O391 1.263 . S
O386 Tb378 2.427 . S
O386 C382 1.275 . S
O387 Tb378 2.513 . S
O387 C382 1.246 . S
O388 Tb378 2.453 . S
O388 C384 1.245 . S
O389 Tb376 2.343 . S
O389 Tb378 2.596 . S
O389 C384 1.259 . S
O390 Tb378 2.374 . S
O390 C385 1.250 . S
O391 Tb376 2.353 . S
O391 C385 1.263 . S
C392 O393 1.275 . S
C392 O394 1.246 . S
O393 Tb376 2.427 . S
O393 C392 1.275 . S
O394 Tb376 2.513 . S
O394 C392 1.246 . S
C395 O379 1.245 . S
C395 O380 1.259 . S
H396 C402 0.930 . S
H397 C405 0.930 . S
H398 C406 0.930 . S
H399 C407 0.930 . S
H400 C410 0.930 . S
H401 C411 0.930 . S
C402 H396 0.930 . S
C402 C403 1.355 . S
C402 C404 1.415 . S
C403 C402 1.355 . S
C403 C405 1.419 . S
C404 C402 1.415 . S
C404 C409 1.425 . S
C404 C411 1.409 . S
C405 H397 0.930 . S
C405 C403 1.419 . S
C405 C406 1.362 . S
C406 H398 0.930 . S
C406 C405 1.362 . S
C406 C409 1.409 . S
C407 H399 0.930 . S
C407 C408 1.355 . S
C407 C409 1.415 . S
C408 C407 1.355 . S
C408 C410 1.419 . S
C409 C404 1.425 . S
C409 C406 1.409 . S
C409 C407 1.415 . S
C410 H400 0.930 . S
C410 C408 1.419 . S
C410 C411 1.362 . S
C411 H401 0.930 . S
C411 C404 1.409 . S
C411 C410 1.362 . S
H412 C418 0.930 . S
H413 C421 0.930 . S
H414 C422 0.930 . S
H415 C423 0.930 . S
H416 C426 0.930 . S
H417 C427 0.930 . S
C418 H412 0.930 . S
C418 C419 1.355 . S
C418 C420 1.415 . S
C419 C418 1.355 . S
C419 C421 1.419 . S
C420 C418 1.415 . S
C420 C425 1.425 . S
C420 C427 1.409 . S
C421 H413 0.930 . S
C421 C419 1.419 . S
C421 C422 1.362 . S
C422 H414 0.930 . S
C422 C421 1.362 . S
C422 C425 1.409 . S
C423 H415 0.930 . S
C423 C424 1.355 . S
C423 C425 1.415 . S
C424 C423 1.355 . S
C424 C426 1.419 . S
C425 C420 1.425 . S
C425 C422 1.409 . S
C425 C423 1.415 . S
C426 H416 0.930 . S
C426 C424 1.419 . S
C426 C427 1.362 . S
C427 H417 0.930 . S
C427 C420 1.409 . S
C427 C426 1.362 . S
H428 C434 0.930 . S
H429 C437 0.930 . S
H430 C438 0.930 . S
H431 C439 0.930 . S
H432 C442 0.930 . S
H433 C443 0.930 . S
C434 H428 0.930 . S
C434 C435 1.355 . S
C434 C436 1.415 . S
C435 C434 1.355 . S
C435 C437 1.419 . S
C436 C434 1.415 . S
C436 C441 1.425 . S
C436 C443 1.409 . S
C437 H429 0.930 . S
C437 C435 1.419 . S
C437 C438 1.362 . S
C438 H430 0.930 . S
C438 C437 1.362 . S
C438 C441 1.409 . S
C439 H431 0.930 . S
C439 C440 1.355 . S
C439 C441 1.415 . S
C440 C439 1.355 . S
C440 C442 1.419 . S
C441 C436 1.425 . S
C441 C438 1.409 . S
C441 C439 1.415 . S
C442 H432 0.930 . S
C442 C440 1.419 . S
C442 C443 1.362 . S
C443 H433 0.930 . S
C443 C436 1.409 . S
C443 C442 1.362 . S
H444 C450 0.930 . S
H445 C453 0.930 . S
H446 C454 0.930 . S
H447 C455 0.930 . S
H448 C458 0.922 1_554 S
H449 C459 0.930 . S
C450 H444 0.930 . S
C450 C451 1.355 . S
C450 C452 1.415 . S
C451 C450 1.355 . S
C451 C453 1.419 . S
C452 C450 1.415 . S
C452 C457 1.425 . S
C452 C459 1.409 . S
C453 H445 0.930 . S
C453 C451 1.419 . S
C453 C454 1.362 . S
C454 H446 0.930 . S
C454 C453 1.362 . S
C454 C457 1.409 . S
C455 H447 0.930 . S
C455 C456 1.355 . S
C455 C457 1.415 . S
C456 C455 1.355 . S
C456 C458 1.419 . S
C457 C452 1.425 . S
C457 C454 1.409 . S
C457 C455 1.415 . S
C458 H448 0.922 1_556 S
C458 C456 1.419 . S
C458 C459 1.362 . S
C459 H449 0.930 . S
C459 C452 1.409 . S
C459 C458 1.362 . S
H460 C466 0.930 . S
H461 C469 0.930 . S
H462 C470 0.930 . S
H463 C471 0.930 . S
H464 C474 0.930 1_554 S
H465 C475 0.930 1_554 S
C466 H460 0.930 . S
C466 C467 1.355 . S
C466 C468 1.415 . S
C467 C466 1.355 . S
C467 C469 1.419 . S
C468 C466 1.415 . S
C468 C473 1.425 . S
C468 C475 1.409 . S
C469 H461 0.930 . S
C469 C467 1.419 . S
C469 C470 1.362 . S
C470 H462 0.930 . S
C470 C469 1.362 . S
C470 C473 1.409 . S
C471 H463 0.930 . S
C471 C472 1.355 . S
C471 C473 1.415 . S
C472 C471 1.355 . S
C472 C474 1.419 . S
C473 C468 1.425 . S
C473 C470 1.409 . S
C473 C471 1.415 . S
C474 H464 0.930 1_556 S
C474 C472 1.419 . S
C474 C475 1.362 . S
C475 H465 0.930 1_556 S
C475 C468 1.409 . S
C475 C474 1.362 . S
H476 C482 0.930 . S
H477 C485 0.930 . S
H478 C486 0.930 . S
H479 C487 0.930 . S
H480 C490 0.930 . S
H481 C491 0.930 . S
C482 H476 0.930 . S
C482 C483 1.355 . S
C482 C484 1.415 . S
C483 C482 1.355 . S
C483 C485 1.419 . S
C484 C482 1.415 . S
C484 C489 1.425 . S
C484 C491 1.409 1_556 S
C485 H477 0.930 . S
C485 C483 1.419 . S
C485 C486 1.362 . S
C486 H478 0.930 . S
C486 C485 1.362 . S
C486 C489 1.409 . S
C487 H479 0.930 . S
C487 C488 1.355 . S
C487 C489 1.415 . S
C488 C487 1.355 . S
C488 C490 1.419 1_556 S
C489 C484 1.425 . S
C489 C486 1.409 . S
C489 C487 1.415 . S
C490 H480 0.930 . S
C490 C488 1.419 1_554 S
C490 C491 1.362 . S
C491 H481 0.930 . S
C491 C484 1.409 1_554 S
C491 C490 1.362 . S
H492 C498 0.930 . S
H493 C501 0.930 1_554 S
H494 C502 0.930 . S
H495 C503 0.930 1_554 S
H496 C506 0.930 . S
H497 C507 0.930 . S
C498 H492 0.930 . S
C498 C499 1.355 . S
C498 C500 1.415 . S
C499 C498 1.355 . S
C499 C501 1.419 . S
C500 C498 1.415 . S
C500 C505 1.425 . S
C500 C507 1.409 . S
C501 H493 0.930 1_556 S
C501 C499 1.419 . S
C501 C502 1.362 1_556 S
C502 H494 0.930 . S
C502 C501 1.362 1_554 S
C502 C505 1.409 1_554 S
C503 H495 0.930 1_556 S
C503 C504 1.355 . S
C503 C505 1.415 . S
C504 C503 1.355 . S
C504 C506 1.419 . S
C505 C500 1.425 . S
C505 C502 1.409 1_556 S
C505 C503 1.415 . S
C506 H496 0.930 . S
C506 C504 1.419 . S
C506 C507 1.362 . S
C507 H497 0.930 . S
C507 C500 1.409 . S
C507 C506 1.362 . S
H508 C514 0.930 . S
H509 C517 0.930 . S
H510 C518 0.930 . S
H511 C519 0.930 . S
H512 C522 0.930 . S
H513 C523 0.930 . S
C514 H508 0.930 . S
C514 C515 1.355 . S
C514 C516 1.415 . S
C515 C514 1.355 . S
C515 C517 1.419 . S
C516 C514 1.415 . S
C516 C521 1.425 . S
C516 C523 1.409 . S
C517 H509 0.930 . S
C517 C515 1.419 . S
C517 C518 1.362 . S
C518 H510 0.930 . S
C518 C517 1.362 . S
C518 C521 1.409 . S
C519 H511 0.930 . S
C519 C520 1.355 . S
C519 C521 1.415 . S
C520 C519 1.355 . S
C520 C522 1.419 . S
C521 C516 1.425 . S
C521 C518 1.409 . S
C521 C519 1.415 . S
C522 H512 0.930 . S
C522 C520 1.419 . S
C522 C523 1.362 . S
C523 H513 0.930 . S
C523 C516 1.409 . S
C523 C522 1.362 . S
H524 C530 0.930 . S
H525 C533 0.930 . S
H526 C534 0.930 . S
H527 C535 0.930 . S
H528 C538 0.930 . S
H529 C539 0.930 . S
C530 H524 0.930 . S
C530 C531 1.355 . S
C530 C532 1.415 . S
C531 C530 1.355 . S
C531 C533 1.419 1_556 S
C532 C530 1.415 . S
C532 C537 1.415 1_556 S
C532 C539 1.409 . S
C533 H525 0.930 . S
C533 C531 1.419 1_554 S
C533 C534 1.362 . S
C534 H526 0.930 . S
C534 C533 1.362 . S
C534 C537 1.417 . S
C535 H527 0.930 . S
C535 C536 1.355 1_554 S
C535 C537 1.416 . S
C536 C535 1.355 1_556 S
C536 C538 1.419 . S
C537 C532 1.415 1_554 S
C537 C534 1.417 . S
C537 C535 1.416 . S
C538 H528 0.930 . S
C538 C536 1.419 . S
C538 C539 1.362 . S
C539 H529 0.930 . S
C539 C532 1.409 . S
C539 C538 1.362 . S
H540 C546 0.930 . S
H541 C549 0.930 . S
H542 C550 0.930 . S
H543 C551 0.930 . S
H544 C554 0.930 . S
H545 C555 0.930 . S
C546 H540 0.930 . S
C546 C547 1.355 . S
C546 C548 1.415 . S
C547 C546 1.355 . S
C547 C549 1.419 . S
C548 C546 1.415 . S
C548 C553 1.425 . S
C548 C555 1.409 . S
C549 H541 0.930 . S
C549 C547 1.419 . S
C549 C550 1.362 . S
C550 H542 0.930 . S
C550 C549 1.362 . S
C550 C553 1.409 . S
C551 H543 0.930 . S
C551 C552 1.355 . S
C551 C553 1.415 . S
C552 C551 1.355 . S
C552 C554 1.419 . S
C553 C548 1.425 . S
C553 C550 1.409 . S
C553 C551 1.415 . S
C554 H544 0.930 . S
C554 C552 1.419 . S
C554 C555 1.362 . S
C555 H545 0.930 . S
C555 C548 1.409 . S
C555 C554 1.362 . S
H556 C562 0.930 . S
H557 C565 0.930 . S
H558 C566 0.930 . S
H559 C567 0.930 . S
H560 C570 0.930 . S
H561 C571 0.930 . S
C562 H556 0.930 . S
C562 C563 1.355 . S
C562 C564 1.415 . S
C563 C562 1.355 . S
C563 C565 1.419 . S
C564 C562 1.415 . S
C564 C569 1.425 . S
C564 C571 1.409 . S
C565 H557 0.930 . S
C565 C563 1.419 . S
C565 C566 1.362 . S
C566 H558 0.930 . S
C566 C565 1.362 . S
C566 C569 1.409 . S
C567 H559 0.930 . S
C567 C568 1.355 . S
C567 C569 1.415 . S
C568 C567 1.355 . S
C568 C570 1.419 . S
C569 C564 1.425 . S
C569 C566 1.409 . S
C569 C567 1.415 . S
C570 H560 0.930 . S
C570 C568 1.419 . S
C570 C571 1.362 . S
C571 H561 0.930 . S
C571 C564 1.409 . S
C571 C570 1.362 . S
H572 C578 0.930 . S
H573 C581 0.930 1_556 S
H574 C582 0.930 . S
H575 C583 0.930 1_556 S
H576 C586 0.930 . S
H577 C587 0.930 . S
C578 H572 0.930 . S
C578 C579 1.355 . S
C578 C580 1.415 . S
C579 C578 1.355 . S
C579 C581 1.419 . S
C580 C578 1.415 . S
C580 C585 1.425 . S
C580 C587 1.409 . S
C581 H573 0.930 1_554 S
C581 C579 1.419 . S
C581 C582 1.362 1_554 S
C582 H574 0.930 . S
C582 C581 1.362 1_556 S
C582 C585 1.409 1_556 S
C583 H575 0.930 1_554 S
C583 C584 1.355 . S
C583 C585 1.415 . S
C584 C583 1.355 . S
C584 C586 1.419 . S
C585 C580 1.425 . S
C585 C582 1.409 1_554 S
C585 C583 1.415 . S
C586 H576 0.930 . S
C586 C584 1.419 . S
C586 C587 1.362 . S
C587 H577 0.930 . S
C587 C580 1.409 . S
C587 C586 1.362 . S
H588 C594 0.930 . S
H589 C597 0.930 . S
H590 C598 0.930 . S
H591 C599 0.930 . S
H592 C602 0.930 . S
H593 C603 0.930 . S
C594 H588 0.930 . S
C594 C595 1.355 . S
C594 C596 1.415 . S
C595 C594 1.355 . S
C595 C597 1.419 . S
C596 C594 1.415 . S
C596 C601 1.425 . S
C596 C603 1.409 1_655 S
C597 H589 0.930 . S
C597 C595 1.419 . S
C597 C598 1.362 . S
C598 H590 0.930 . S
C598 C597 1.362 . S
C598 C601 1.409 . S
C599 H591 0.930 . S
C599 C600 1.355 . S
C599 C601 1.415 1_455 S
C600 C599 1.355 . S
C600 C602 1.419 . S
C601 C596 1.425 . S
C601 C598 1.409 . S
C601 C599 1.415 1_655 S
C602 H592 0.930 . S
C602 C600 1.419 . S
C602 C603 1.362 . S
C603 H593 0.930 . S
C603 C596 1.409 1_455 S
C603 C602 1.362 . S
H604 C610 0.930 . S
H605 C613 0.930 . S
H606 C614 0.930 . S
H607 C615 0.930 . S
H608 C618 0.930 . S
H609 C619 0.930 . S
C610 H604 0.930 . S
C610 C611 1.355 . S
C610 C612 1.415 . S
C611 C610 1.355 . S
C611 C613 1.419 . S
C612 C610 1.415 . S
C612 C617 1.425 . S
C612 C619 1.409 . S
C613 H605 0.930 . S
C613 C611 1.419 . S
C613 C614 1.362 . S
C614 H606 0.930 . S
C614 C613 1.362 . S
C614 C617 1.409 . S
C615 H607 0.930 . S
C615 C616 1.355 . S
C615 C617 1.415 . S
C616 C615 1.355 . S
C616 C618 1.419 . S
C617 C612 1.425 . S
C617 C614 1.409 . S
C617 C615 1.415 . S
C618 H608 0.930 . S
C618 C616 1.419 . S
C618 C619 1.362 . S
C619 H609 0.930 . S
C619 C612 1.409 . S
C619 C618 1.362 . S
H620 C626 0.930 . S
H621 C629 0.930 . S
H622 C630 0.930 1_565 S
H623 C631 0.930 . S
H624 C634 0.930 . S
H625 C635 0.930 . S
C626 H620 0.930 . S
C626 C627 1.355 . S
C626 C628 1.415 . S
C627 C626 1.355 . S
C627 C629 1.419 . S
C628 C626 1.415 . S
C628 C633 1.425 1_545 S
C628 C635 1.409 . S
C629 H621 0.930 . S
C629 C627 1.419 . S
C629 C630 1.362 . S
C630 H622 0.930 1_545 S
C630 C629 1.362 . S
C630 C633 1.409 1_545 S
C631 H623 0.930 . S
C631 C632 1.355 . S
C631 C633 1.415 . S
C632 C631 1.355 . S
C632 C634 1.419 . S
C633 C628 1.425 1_565 S
C633 C630 1.409 1_565 S
C633 C631 1.415 . S
C634 H624 0.930 . S
C634 C632 1.419 . S
C634 C635 1.362 1_565 S
C635 H625 0.930 . S
C635 C628 1.409 . S
C635 C634 1.362 1_545 S
H636 C642 0.930 . S
H637 C645 0.930 . S
H638 C646 0.930 . S
H639 C647 0.930 . S
H640 C650 0.930 . S
H641 C651 0.930 . S
C642 H636 0.930 . S
C642 C643 1.355 . S
C642 C644 1.415 . S
C643 C642 1.355 . S
C643 C645 1.419 . S
C644 C642 1.415 . S
C644 C649 1.425 . S
C644 C651 1.409 . S
C645 H637 0.930 . S
C645 C643 1.419 . S
C645 C646 1.362 . S
C646 H638 0.930 . S
C646 C645 1.362 . S
C646 C649 1.409 . S
C647 H639 0.930 . S
C647 C648 1.355 . S
C647 C649 1.415 . S
C648 C647 1.355 . S
C648 C650 1.419 . S
C649 C644 1.425 . S
C649 C646 1.409 . S
C649 C647 1.415 . S
C650 H640 0.930 . S
C650 C648 1.419 . S
C650 C651 1.362 . S
C651 H641 0.930 . S
C651 C644 1.409 . S
C651 C650 1.362 . S
H652 C658 0.930 . S
H653 C661 0.930 . S
H654 C662 0.930 . S
H655 C663 0.930 . S
H656 C666 0.930 . S
H657 C667 0.930 . S
C658 H652 0.930 . S
C658 C659 1.355 . S
C658 C660 1.415 . S
C659 C658 1.355 . S
C659 C661 1.419 . S
C660 C658 1.415 . S
C660 C665 1.425 . S
C660 C667 1.409 . S
C661 H653 0.930 . S
C661 C659 1.419 . S
C661 C662 1.362 . S
C662 H654 0.930 . S
C662 C661 1.362 . S
C662 C665 1.409 . S
C663 H655 0.930 . S
C663 C664 1.355 . S
C663 C665 1.415 . S
C664 C663 1.355 . S
C664 C666 1.419 . S
C665 C660 1.425 . S
C665 C662 1.409 . S
C665 C663 1.415 . S
C666 H656 0.930 . S
C666 C664 1.419 . S
C666 C667 1.362 . S
C667 H657 0.930 . S
C667 C660 1.409 . S
C667 C666 1.362 . S
H668 C674 0.930 . S
H669 C677 0.930 . S
H670 C678 0.930 . S
H671 C679 0.930 . S
H672 C682 0.930 . S
H673 C683 0.930 . S
C674 H668 0.930 . S
C674 C675 1.355 . S
C674 C676 1.415 . S
C675 C674 1.355 . S
C675 C677 1.419 . S
C676 C674 1.415 . S
C676 C681 1.425 . S
C676 C683 1.409 . S
C677 H669 0.930 . S
C677 C675 1.419 . S
C677 C678 1.362 . S
C678 H670 0.930 . S
C678 C677 1.362 . S
C678 C681 1.409 . S
C679 H671 0.930 . S
C679 C680 1.355 . S
C679 C681 1.415 . S
C680 C679 1.355 . S
C680 C682 1.419 . S
C681 C676 1.425 . S
C681 C678 1.409 . S
C681 C679 1.415 . S
C682 H672 0.930 . S
C682 C680 1.419 . S
C682 C683 1.362 . S
C683 H673 0.930 . S
C683 C676 1.409 . S
C683 C682 1.362 . S
H684 C690 0.930 . S
H685 C693 0.930 . S
H686 C694 0.930 . S
H687 C695 0.930 . S
H688 C698 0.930 . S
H689 C699 0.930 . S
C690 H684 0.930 . S
C690 C691 1.355 . S
C690 C692 1.415 . S
C691 C690 1.355 . S
C691 C693 1.419 . S
C692 C690 1.415 . S
C692 C697 1.425 . S
C692 C699 1.409 . S
C693 H685 0.930 . S
C693 C691 1.419 . S
C693 C694 1.362 . S
C694 H686 0.930 . S
C694 C693 1.362 . S
C694 C697 1.409 . S
C695 H687 0.930 . S
C695 C696 1.355 . S
C695 C697 1.415 . S
C696 C695 1.355 . S
C696 C698 1.419 . S
C697 C692 1.425 . S
C697 C694 1.409 . S
C697 C695 1.415 . S
C698 H688 0.930 . S
C698 C696 1.419 . S
C698 C699 1.362 . S
C699 H689 0.930 . S
C699 C692 1.409 . S
C699 C698 1.362 . S
H700 C706 0.930 . S
H701 C709 0.930 . S
H702 C710 0.930 . S
H703 C711 0.930 . S
H704 C714 0.930 . S
H705 C715 0.930 . S
C706 H700 0.930 . S
C706 C707 1.355 . S
C706 C708 1.415 . S
C707 C706 1.355 . S
C707 C709 1.419 . S
C708 C706 1.415 . S
C708 C713 1.425 . S
C708 C715 1.409 . S
C709 H701 0.930 . S
C709 C707 1.419 . S
C709 C710 1.362 . S
C710 H702 0.930 . S
C710 C709 1.362 . S
C710 C713 1.409 . S
C711 H703 0.930 . S
C711 C712 1.355 . S
C711 C713 1.415 . S
C712 C711 1.355 . S
C712 C714 1.419 . S
C713 C708 1.425 . S
C713 C710 1.409 . S
C713 C711 1.415 . S
C714 H704 0.930 . S
C714 C712 1.419 . S
C714 C715 1.362 . S
C715 H705 0.930 . S
C715 C708 1.409 . S
C715 C714 1.362 . S
H716 C722 0.930 . S
H717 C725 0.930 . S
H718 C726 0.930 . S
H719 C727 0.930 . S
H720 C730 0.930 . S
H721 C731 0.930 . S
C722 H716 0.930 . S
C722 C723 1.355 . S
C722 C724 1.415 . S
C723 C722 1.355 . S
C723 C725 1.419 . S
C724 C722 1.415 . S
C724 C729 1.425 . S
C724 C731 1.409 . S
C725 H717 0.930 . S
C725 C723 1.419 . S
C725 C726 1.362 . S
C726 H718 0.930 . S
C726 C725 1.362 . S
C726 C729 1.409 . S
C727 H719 0.930 . S
C727 C728 1.355 . S
C727 C729 1.415 . S
C728 C727 1.355 . S
C728 C730 1.419 . S
C729 C724 1.425 . S
C729 C726 1.409 . S
C729 C727 1.415 . S
C730 H720 0.930 . S
C730 C728 1.419 . S
C730 C731 1.362 . S
C731 H721 0.930 . S
C731 C724 1.409 . S
C731 C730 1.362 . S
H732 C738 0.930 . S
H733 C741 0.930 . S
H734 C742 0.930 . S
H735 C743 0.930 . S
H736 C746 0.930 . S
H737 C747 0.930 . S
C738 H732 0.930 . S
C738 C739 1.355 1_565 S
C738 C740 1.415 . S
C739 C738 1.355 1_545 S
C739 C741 1.419 . S
C740 C738 1.415 . S
C740 C745 1.425 . S
C740 C747 1.409 . S
C741 H733 0.930 . S
C741 C739 1.419 . S
C741 C742 1.362 1_545 S
C742 H734 0.930 . S
C742 C741 1.362 1_565 S
C742 C745 1.409 . S
C743 H735 0.930 . S
C743 C744 1.355 . S
C743 C745 1.415 . S
C744 C743 1.355 . S
C744 C746 1.419 . S
C745 C740 1.425 . S
C745 C742 1.409 . S
C745 C743 1.415 . S
C746 H736 0.930 . S
C746 C744 1.419 . S
C746 C747 1.362 . S
C747 H737 0.930 . S
C747 C740 1.409 . S
C747 C746 1.362 . S
H748 C754 0.930 1_655 S
H749 C757 0.930 . S
H750 C758 0.930 . S
H751 C759 0.930 . S
H752 C762 0.930 . S
H753 C763 0.930 . S
C754 H748 0.930 1_455 S
C754 C755 1.355 1_455 S
C754 C756 1.415 . S
C755 C754 1.355 1_655 S
C755 C757 1.419 . S
C756 C754 1.415 . S
C756 C761 1.425 . S
C756 C763 1.409 . S
C757 H749 0.930 . S
C757 C755 1.419 . S
C757 C758 1.362 1_655 S
C758 H750 0.930 . S
C758 C757 1.362 1_455 S
C758 C761 1.409 . S
C759 H751 0.930 . S
C759 C760 1.355 . S
C759 C761 1.415 . S
C760 C759 1.355 . S
C760 C762 1.419 . S
C761 C756 1.425 . S
C761 C758 1.409 . S
C761 C759 1.415 . S
C762 H752 0.930 . S
C762 C760 1.419 . S
C762 C763 1.362 . S
C763 H753 0.930 . S
C763 C756 1.409 . S
C763 C762 1.362 . S
H764 C770 0.930 . S
H765 C773 0.930 . S
H766 C774 0.930 . S
H767 C775 0.930 . S
H768 C778 0.930 . S
H769 C779 0.930 . S
C770 H764 0.930 . S
C770 C771 1.355 . S
C770 C772 1.415 . S
C771 C770 1.355 . S
C771 C773 1.419 . S
C772 C770 1.415 . S
C772 C777 1.425 . S
C772 C779 1.409 . S
C773 H765 0.930 . S
C773 C771 1.419 . S
C773 C774 1.362 . S
C774 H766 0.930 . S
C774 C773 1.362 . S
C774 C777 1.409 . S
C775 H767 0.930 . S
C775 C776 1.355 . S
C775 C777 1.415 . S
C776 C775 1.355 . S
C776 C778 1.419 . S
C777 C772 1.425 . S
C777 C774 1.409 . S
C777 C775 1.415 . S
C778 H768 0.930 . S
C778 C776 1.419 . S
C778 C779 1.362 . S
C779 H769 0.930 . S
C779 C772 1.409 . S
C779 C778 1.362 . S
H780 C786 0.930 . S
H781 C789 0.930 . S
H782 C790 0.930 . S
H783 C791 0.930 . S
H784 C794 0.930 . S
H785 C795 0.930 . S
C786 H780 0.930 . S
C786 C787 1.355 . S
C786 C788 1.415 . S
C787 C786 1.355 . S
C787 C789 1.419 . S
C788 C786 1.415 . S
C788 C793 1.425 . S
C788 C795 1.409 . S
C789 H781 0.930 . S
C789 C787 1.419 . S
C789 C790 1.362 . S
C790 H782 0.930 . S
C790 C789 1.362 . S
C790 C793 1.409 . S
C791 H783 0.930 . S
C791 C792 1.355 . S
C791 C793 1.415 . S
C792 C791 1.355 . S
C792 C794 1.419 . S
C793 C788 1.425 . S
C793 C790 1.409 . S
C793 C791 1.415 . S
C794 H784 0.930 . S
C794 C792 1.419 . S
C794 C795 1.362 . S
C795 H785 0.930 . S
C795 C788 1.409 . S
C795 C794 1.362 . S
H796 C802 0.930 . S
H797 C805 0.930 . S
H798 C806 0.930 . S
H799 C807 0.930 . S
H800 C810 0.930 . S
H801 C811 0.930 . S
C802 H796 0.930 . S
C802 C803 1.355 . S
C802 C804 1.415 . S
C803 C802 1.355 . S
C803 C805 1.419 . S
C804 C802 1.415 . S
C804 C809 1.425 . S
C804 C811 1.409 . S
C805 H797 0.930 . S
C805 C803 1.419 . S
C805 C806 1.362 . S
C806 H798 0.930 . S
C806 C805 1.362 . S
C806 C809 1.409 . S
C807 H799 0.930 . S
C807 C808 1.355 . S
C807 C809 1.415 . S
C808 C807 1.355 . S
C808 C810 1.419 . S
C809 C804 1.425 . S
C809 C806 1.409 . S
C809 C807 1.415 . S
C810 H800 0.930 . S
C810 C808 1.419 . S
C810 C811 1.362 . S
C811 H801 0.930 . S
C811 C804 1.409 . S
C811 C810 1.362 . S
H812 C818 0.930 . S
H813 C821 0.930 . S
H814 C822 0.930 . S
H815 C823 0.930 . S
H816 C826 0.930 . S
H817 C827 0.930 . S
C818 H812 0.930 . S
C818 C819 1.355 . S
C818 C820 1.415 . S
C819 C818 1.355 . S
C819 C821 1.419 . S
C820 C818 1.415 . S
C820 C825 1.425 . S
C820 C827 1.409 . S
C821 H813 0.930 . S
C821 C819 1.419 . S
C821 C822 1.362 . S
C822 H814 0.930 . S
C822 C821 1.362 . S
C822 C825 1.409 . S
C823 H815 0.930 . S
C823 C824 1.355 . S
C823 C825 1.415 . S
C824 C823 1.355 . S
C824 C826 1.419 . S
C825 C820 1.425 . S
C825 C822 1.409 . S
C825 C823 1.415 . S
C826 H816 0.930 . S
C826 C824 1.419 . S
C826 C827 1.362 . S
C827 H817 0.930 . S
C827 C820 1.409 . S
C827 C826 1.362 . S
H828 C834 0.930 . S
H829 C837 0.930 . S
H830 C838 0.930 . S
H831 C839 0.930 . S
H832 C842 0.930 . S
H833 C843 0.930 . S
C834 H828 0.930 . S
C834 C835 1.355 . S
C834 C836 1.415 . S
C835 C834 1.355 . S
C835 C837 1.419 . S
C836 C834 1.415 . S
C836 C841 1.425 . S
C836 C843 1.409 1_565 S
C837 H829 0.930 . S
C837 C835 1.419 . S
C837 C838 1.362 . S
C838 H830 0.930 . S
C838 C837 1.362 . S
C838 C841 1.409 . S
C839 H831 0.930 . S
C839 C840 1.355 . S
C839 C841 1.415 1_545 S
C840 C839 1.355 . S
C840 C842 1.419 . S
C841 C836 1.425 . S
C841 C838 1.409 . S
C841 C839 1.415 1_565 S
C842 H832 0.930 . S
C842 C840 1.419 . S
C842 C843 1.362 . S
C843 H833 0.930 . S
C843 C836 1.409 1_545 S
C843 C842 1.362 . S
H844 C850 0.930 . S
H845 C853 0.930 . S
H846 C854 0.930 . S
H847 C855 0.930 . S
H848 C858 0.930 . S
H849 C859 0.930 . S
C850 H844 0.930 . S
C850 C851 1.355 . S
C850 C852 1.415 . S
C851 C850 1.355 . S
C851 C853 1.419 . S
C852 C850 1.415 . S
C852 C857 1.425 . S
C852 C859 1.409 1_455 S
C853 H845 0.930 . S
C853 C851 1.419 . S
C853 C854 1.362 . S
C854 H846 0.930 . S
C854 C853 1.362 . S
C854 C857 1.409 . S
C855 H847 0.930 . S
C855 C856 1.355 . S
C855 C857 1.415 1_655 S
C856 C855 1.355 . S
C856 C858 1.419 . S
C857 C852 1.425 . S
C857 C854 1.409 . S
C857 C855 1.415 1_455 S
C858 H848 0.930 . S
C858 C856 1.419 . S
C858 C859 1.362 . S
C859 H849 0.930 . S
C859 C852 1.409 1_655 S
C859 C858 1.362 . S
H860 C866 0.930 . S
H861 C869 0.930 . S
H862 C870 0.930 . S
H863 C871 0.930 . S
H864 C874 0.930 . S
H865 C875 0.930 . S
C866 H860 0.930 . S
C866 C867 1.355 . S
C866 C868 1.415 . S
C867 C866 1.355 . S
C867 C869 1.419 . S
C868 C866 1.415 . S
C868 C873 1.425 . S
C868 C875 1.409 . S
C869 H861 0.930 . S
C869 C867 1.419 . S
C869 C870 1.362 . S
C870 H862 0.930 . S
C870 C869 1.362 . S
C870 C873 1.409 . S
C871 H863 0.930 . S
C871 C872 1.355 . S
C871 C873 1.415 . S
C872 C871 1.355 . S
C872 C874 1.419 . S
C873 C868 1.425 . S
C873 C870 1.409 . S
C873 C871 1.415 . S
C874 H864 0.930 . S
C874 C872 1.419 . S
C874 C875 1.362 . S
C875 H865 0.930 . S
C875 C868 1.409 . S
C875 C874 1.362 . S
H876 C882 0.930 . S
H877 C885 0.930 . S
H878 C886 0.930 . S
H879 C887 0.930 . S
H880 C890 0.930 . S
H881 C891 0.930 . S
C882 H876 0.930 . S
C882 C883 1.355 . S
C882 C884 1.415 1_455 S
C883 C882 1.355 . S
C883 C885 1.419 . S
C884 C882 1.415 1_655 S
C884 C889 1.425 . S
C884 C891 1.409 . S
C885 H877 0.930 . S
C885 C883 1.419 . S
C885 C886 1.362 . S
C886 H878 0.930 . S
C886 C885 1.362 . S
C886 C889 1.409 1_455 S
C887 H879 0.930 . S
C887 C888 1.355 . S
C887 C889 1.415 . S
C888 C887 1.355 . S
C888 C890 1.419 . S
C889 C884 1.425 . S
C889 C886 1.409 1_655 S
C889 C887 1.415 . S
C890 H880 0.930 . S
C890 C888 1.419 . S
C890 C891 1.362 . S
C891 H881 0.930 . S
C891 C884 1.409 . S
C891 C890 1.362 . S
H892 C898 0.930 . S
H893 C901 0.930 . S
H894 C902 0.930 . S
H895 C903 0.930 . S
H896 C906 0.930 . S
H897 C907 0.930 . S
C898 H892 0.930 . S
C898 C899 1.355 . S
C898 C900 1.415 . S
C899 C898 1.355 . S
C899 C901 1.419 . S
C900 C898 1.415 . S
C900 C905 1.425 . S
C900 C907 1.409 . S
C901 H893 0.930 . S
C901 C899 1.419 . S
C901 C902 1.362 . S
C902 H894 0.930 . S
C902 C901 1.362 . S
C902 C905 1.409 . S
C903 H895 0.930 . S
C903 C904 1.355 . S
C903 C905 1.415 . S
C904 C903 1.355 . S
C904 C906 1.419 . S
C905 C900 1.425 . S
C905 C902 1.409 . S
C905 C903 1.415 . S
C906 H896 0.930 . S
C906 C904 1.419 . S
C906 C907 1.362 . S
C907 H897 0.930 . S
C907 C900 1.409 . S
C907 C906 1.362 . S
H908 C914 0.911 1_565 S
H909 C917 0.930 . S
H910 C918 0.930 . S
H911 C919 0.930 . S
H912 C922 0.930 . S
H913 C923 0.930 . S
C914 H908 0.911 1_545 S
C914 C915 1.355 1_545 S
C914 C916 1.415 . S
C915 C914 1.355 1_565 S
C915 C917 1.419 . S
C916 C914 1.415 . S
C916 C921 1.425 . S
C916 C923 1.409 . S
C917 H909 0.930 . S
C917 C915 1.419 . S
C917 C918 1.362 1_565 S
C918 H910 0.930 . S
C918 C917 1.362 1_545 S
C918 C921 1.409 . S
C919 H911 0.930 . S
C919 C920 1.355 . S
C919 C921 1.415 . S
C920 C919 1.355 . S
C920 C922 1.419 . S
C921 C916 1.425 . S
C921 C918 1.409 . S
C921 C919 1.415 . S
C922 H912 0.930 . S
C922 C920 1.419 . S
C922 C923 1.362 . S
C923 H913 0.930 . S
C923 C916 1.409 . S
C923 C922 1.362 . S
H924 C930 0.930 . S
H925 C933 0.930 . S
H926 C934 0.930 . S
H927 C935 0.930 . S
H928 C938 0.930 . S
H929 C939 0.930 . S
C930 H924 0.930 . S
C930 C931 1.355 . S
C930 C932 1.415 . S
C931 C930 1.355 . S
C931 C933 1.419 . S
C932 C930 1.415 . S
C932 C937 1.425 . S
C932 C939 1.409 . S
C933 H925 0.930 . S
C933 C931 1.419 . S
C933 C934 1.362 . S
C934 H926 0.930 . S
C934 C933 1.362 . S
C934 C937 1.409 . S
C935 H927 0.930 . S
C935 C936 1.355 . S
C935 C937 1.415 . S
C936 C935 1.355 . S
C936 C938 1.419 . S
C937 C932 1.425 . S
C937 C934 1.409 . S
C937 C935 1.415 . S
C938 H928 0.930 . S
C938 C936 1.419 . S
C938 C939 1.362 . S
C939 H929 0.930 . S
C939 C932 1.409 . S
C939 C938 1.362 . S
H940 C946 0.930 . S
H941 C949 0.930 . S
H942 C950 0.930 . S
H943 C951 0.930 . S
H944 C954 0.930 . S
H945 C955 0.930 . S
C946 H940 0.930 . S
C946 C947 1.355 . S
C946 C948 1.415 . S
C947 C946 1.355 . S
C947 C949 1.419 . S
C948 C946 1.415 . S
C948 C953 1.425 . S
C948 C955 1.409 . S
C949 H941 0.930 . S
C949 C947 1.419 . S
C949 C950 1.362 . S
C950 H942 0.930 . S
C950 C949 1.362 . S
C950 C953 1.409 . S
C951 H943 0.930 . S
C951 C952 1.355 . S
C951 C953 1.415 . S
C952 C951 1.355 . S
C952 C954 1.419 . S
C953 C948 1.425 . S
C953 C950 1.409 . S
C953 C951 1.415 . S
C954 H944 0.930 . S
C954 C952 1.419 . S
C954 C955 1.362 . S
C955 H945 0.930 . S
C955 C948 1.409 . S
C955 C954 1.362 . S
H956 C962 0.930 . S
H957 C965 0.930 . S
H958 C966 0.930 . S
H959 C967 0.930 . S
H960 C970 0.930 . S
H961 C971 0.930 . S
C962 H956 0.930 . S
C962 C963 1.355 . S
C962 C964 1.415 . S
C963 C962 1.355 . S
C963 C965 1.419 . S
C964 C962 1.415 . S
C964 C969 1.425 . S
C964 C971 1.409 . S
C965 H957 0.930 . S
C965 C963 1.419 . S
C965 C966 1.362 . S
C966 H958 0.930 . S
C966 C965 1.362 . S
C966 C969 1.409 . S
C967 H959 0.930 . S
C967 C968 1.355 . S
C967 C969 1.415 . S
C968 C967 1.355 . S
C968 C970 1.419 . S
C969 C964 1.425 . S
C969 C966 1.409 . S
C969 C967 1.415 . S
C970 H960 0.930 . S
C970 C968 1.419 . S
C970 C971 1.362 . S
C971 H961 0.930 . S
C971 C964 1.409 . S
C971 C970 1.362 . S
H972 C978 0.930 . S
H973 C981 0.930 . S
H974 C982 0.930 1_545 S
H975 C983 0.930 1_545 S
H976 C986 0.930 . S
H977 C987 0.930 . S
C978 H972 0.930 . S
C978 C979 1.355 . S
C978 C980 1.415 . S
C979 C978 1.355 . S
C979 C981 1.419 . S
C980 C978 1.415 . S
C980 C985 1.425 . S
C980 C987 1.409 . S
C981 H973 0.930 . S
C981 C979 1.419 . S
C981 C982 1.362 . S
C982 H974 0.930 1_565 S
C982 C981 1.362 . S
C982 C985 1.409 . S
C983 H975 0.930 1_565 S
C983 C984 1.355 . S
C983 C985 1.415 . S
C984 C983 1.355 . S
C984 C986 1.419 . S
C985 C980 1.425 . S
C985 C982 1.409 . S
C985 C983 1.415 . S
C986 H976 0.930 . S
C986 C984 1.419 . S
C986 C987 1.362 . S
C987 H977 0.930 . S
C987 C980 1.409 . S
C987 C986 1.362 . S
H988 C994 0.930 . S
H989 C997 0.930 . S
H990 C998 0.930 . S
H991 C999 0.930 . S
H992 C1002 0.930 . S
H993 C1003 0.930 . S
C994 H988 0.930 . S
C994 C995 1.355 . S
C994 C996 1.415 . S
C995 C994 1.355 . S
C995 C997 1.419 . S
C996 C994 1.415 . S
C996 C1001 1.425 . S
C996 C1003 1.409 . S
C997 H989 0.930 . S
C997 C995 1.419 . S
C997 C998 1.362 . S
C998 H990 0.930 . S
C998 C997 1.362 . S
C998 C1001 1.409 . S
C999 H991 0.930 . S
C999 C1000 1.355 . S
C999 C1001 1.415 . S
C1000 C999 1.355 . S
C1000 C1002 1.419 . S
C1001 C996 1.425 . S
C1001 C998 1.409 . S
C1001 C999 1.415 . S
C1002 H992 0.930 . S
C1002 C1000 1.419 . S
C1002 C1003 1.362 . S
C1003 H993 0.930 . S
C1003 C996 1.409 . S
C1003 C1002 1.362 . S
H1004 C1010 0.930 . S
H1005 C1013 0.930 . S
H1006 C1014 0.930 . S
H1007 C1015 0.930 . S
H1008 C1018 0.930 . S
H1009 C1019 0.930 . S
C1010 H1004 0.930 . S
C1010 C1011 1.355 . S
C1010 C1012 1.415 . S
C1011 C1010 1.355 . S
C1011 C1013 1.419 . S
C1012 C1010 1.415 . S
C1012 C1017 1.425 . S
C1012 C1019 1.409 . S
C1013 H1005 0.930 . S
C1013 C1011 1.419 . S
C1013 C1014 1.362 . S
C1014 H1006 0.930 . S
C1014 C1013 1.362 . S
C1014 C1017 1.409 . S
C1015 H1007 0.930 . S
C1015 C1016 1.355 . S
C1015 C1017 1.415 . S
C1016 C1015 1.355 . S
C1016 C1018 1.419 . S
C1017 C1012 1.425 . S
C1017 C1014 1.409 . S
C1017 C1015 1.415 . S
C1018 H1008 0.930 . S
C1018 C1016 1.419 . S
C1018 C1019 1.362 . S
C1019 H1009 0.930 . S
C1019 C1012 1.409 . S
C1019 C1018 1.362 . S
H1020 C1026 0.930 . S
H1021 C1029 0.930 . S
H1022 C1030 0.930 1_455 S
H1023 C1031 0.930 1_455 S
H1024 C1034 0.930 . S
H1025 C1035 0.930 . S
C1026 H1020 0.930 . S
C1026 C1027 1.355 . S
C1026 C1028 1.415 . S
C1027 C1026 1.355 . S
C1027 C1029 1.419 . S
C1028 C1026 1.415 . S
C1028 C1033 1.425 . S
C1028 C1035 1.409 . S
C1029 H1021 0.930 . S
C1029 C1027 1.419 . S
C1029 C1030 1.362 . S
C1030 H1022 0.930 1_655 S
C1030 C1029 1.362 . S
C1030 C1033 1.409 . S
C1031 H1023 0.930 1_655 S
C1031 C1032 1.355 . S
C1031 C1033 1.415 . S
C1032 C1031 1.355 . S
C1032 C1034 1.419 . S
C1033 C1028 1.425 . S
C1033 C1030 1.409 . S
C1033 C1031 1.415 . S
C1034 H1024 0.930 . S
C1034 C1032 1.419 . S
C1034 C1035 1.362 . S
C1035 H1025 0.930 . S
C1035 C1028 1.409 . S
C1035 C1034 1.362 . S
H1036 C1042 0.930 . S
H1037 C1045 0.930 . S
H1038 C1046 0.930 . S
H1039 C1047 0.930 . S
H1040 C1050 0.930 . S
H1041 C1051 0.930 . S
C1042 H1036 0.930 . S
C1042 C1043 1.355 . S
C1042 C1044 1.415 . S
C1043 C1042 1.355 . S
C1043 C1045 1.419 . S
C1044 C1042 1.415 . S
C1044 C1049 1.425 . S
C1044 C1051 1.409 . S
C1045 H1037 0.930 . S
C1045 C1043 1.419 . S
C1045 C1046 1.362 . S
C1046 H1038 0.930 . S
C1046 C1045 1.362 . S
C1046 C1049 1.409 . S
C1047 H1039 0.930 . S
C1047 C1048 1.355 . S
C1047 C1049 1.415 . S
C1048 C1047 1.355 . S
C1048 C1050 1.419 . S
C1049 C1044 1.425 . S
C1049 C1046 1.409 . S
C1049 C1047 1.415 . S
C1050 H1040 0.930 . S
C1050 C1048 1.419 . S
C1050 C1051 1.362 . S
C1051 H1041 0.930 . S
C1051 C1044 1.409 . S
C1051 C1050 1.362 . S
H1052 C1058 0.930 . S
H1053 C1061 0.930 . S
H1054 C1062 0.930 1_565 S
H1055 C1063 0.930 1_565 S
H1056 C1066 0.930 . S
H1057 C1067 0.930 . S
C1058 H1052 0.930 . S
C1058 C1059 1.355 . S
C1058 C1060 1.415 . S
C1059 C1058 1.355 . S
C1059 C1061 1.419 . S
C1060 C1058 1.415 . S
C1060 C1065 1.425 . S
C1060 C1067 1.409 . S
C1061 H1053 0.930 . S
C1061 C1059 1.419 . S
C1061 C1062 1.362 . S
C1062 H1054 0.930 1_545 S
C1062 C1061 1.362 . S
C1062 C1065 1.409 . S
C1063 H1055 0.930 1_545 S
C1063 C1064 1.355 . S
C1063 C1065 1.415 . S
C1064 C1063 1.355 . S
C1064 C1066 1.419 . S
C1065 C1060 1.425 . S
C1065 C1062 1.409 . S
C1065 C1063 1.415 . S
C1066 H1056 0.930 . S
C1066 C1064 1.419 . S
C1066 C1067 1.362 . S
C1067 H1057 0.930 . S
C1067 C1060 1.409 . S
C1067 C1066 1.362 . S
H1068 C1074 0.930 . S
H1069 C1077 0.930 . S
H1070 C1078 0.930 . S
H1071 C1079 0.930 . S
H1072 C1082 0.930 . S
H1073 C1083 0.930 . S
C1074 H1068 0.930 . S
C1074 C1075 1.355 . S
C1074 C1076 1.415 . S
C1075 C1074 1.355 . S
C1075 C1077 1.419 . S
C1076 C1074 1.415 . S
C1076 C1081 1.425 . S
C1076 C1083 1.409 . S
C1077 H1069 0.930 . S
C1077 C1075 1.419 . S
C1077 C1078 1.362 . S
C1078 H1070 0.930 . S
C1078 C1077 1.362 . S
C1078 C1081 1.409 . S
C1079 H1071 0.930 . S
C1079 C1080 1.355 . S
C1079 C1081 1.415 . S
C1080 C1079 1.355 . S
C1080 C1082 1.419 . S
C1081 C1076 1.425 . S
C1081 C1078 1.409 . S
C1081 C1079 1.415 . S
C1082 H1072 0.930 . S
C1082 C1080 1.419 . S
C1082 C1083 1.362 . S
C1083 H1073 0.930 . S
C1083 C1076 1.409 . S
C1083 C1082 1.362 . S
H1084 C1090 0.930 . S
H1085 C1093 0.930 . S
H1086 C1094 0.930 . S
H1087 C1095 0.930 . S
H1088 C1098 0.930 . S
H1089 C1099 0.930 . S
C1090 H1084 0.930 . S
C1090 C1091 1.355 . S
C1090 C1092 1.415 . S
C1091 C1090 1.355 . S
C1091 C1093 1.419 . S
C1092 C1090 1.415 . S
C1092 C1097 1.425 . S
C1092 C1099 1.409 . S
C1093 H1085 0.930 . S
C1093 C1091 1.419 . S
C1093 C1094 1.362 . S
C1094 H1086 0.930 . S
C1094 C1093 1.362 . S
C1094 C1097 1.409 . S
C1095 H1087 0.930 . S
C1095 C1096 1.355 . S
C1095 C1097 1.415 . S
C1096 C1095 1.355 . S
C1096 C1098 1.419 . S
C1097 C1092 1.425 . S
C1097 C1094 1.409 . S
C1097 C1095 1.415 . S
C1098 H1088 0.930 . S
C1098 C1096 1.419 . S
C1098 C1099 1.362 . S
C1099 H1089 0.930 . S
C1099 C1092 1.409 . S
C1099 C1098 1.362 . S
H1100 C1106 0.930 . S
H1101 C1109 0.930 . S
H1102 C1110 0.930 . S
H1103 C1111 0.930 . S
H1104 C1114 0.930 . S
H1105 C1115 0.930 . S
C1106 H1100 0.930 . S
C1106 C1107 1.355 . S
C1106 C1108 1.415 . S
C1107 C1106 1.355 . S
C1107 C1109 1.419 . S
C1108 C1106 1.415 . S
C1108 C1113 1.425 . S
C1108 C1115 1.409 . S
C1109 H1101 0.930 . S
C1109 C1107 1.419 . S
C1109 C1110 1.362 . S
C1110 H1102 0.930 . S
C1110 C1109 1.362 . S
C1110 C1113 1.409 . S
C1111 H1103 0.930 . S
C1111 C1112 1.355 . S
C1111 C1113 1.415 . S
C1112 C1111 1.355 . S
C1112 C1114 1.419 . S
C1113 C1108 1.425 . S
C1113 C1110 1.409 . S
C1113 C1111 1.415 . S
C1114 H1104 0.930 . S
C1114 C1112 1.419 . S
C1114 C1115 1.362 . S
C1115 H1105 0.930 . S
C1115 C1108 1.409 . S
C1115 C1114 1.362 . S
H1116 C1122 0.930 . S
H1117 C1125 0.930 . S
H1118 C1126 0.930 . S
H1119 C1127 0.930 . S
H1120 C1130 0.930 . S
H1121 C1131 0.930 . S
C1122 H1116 0.930 . S
C1122 C1123 1.355 . S
C1122 C1124 1.415 . S
C1123 C1122 1.355 . S
C1123 C1125 1.419 . S
C1124 C1122 1.415 . S
C1124 C1129 1.425 . S
C1124 C1131 1.409 . S
C1125 H1117 0.930 . S
C1125 C1123 1.419 . S
C1125 C1126 1.362 . S
C1126 H1118 0.930 . S
C1126 C1125 1.362 . S
C1126 C1129 1.409 . S
C1127 H1119 0.930 . S
C1127 C1128 1.355 . S
C1127 C1129 1.415 . S
C1128 C1127 1.355 . S
C1128 C1130 1.419 . S
C1129 C1124 1.425 . S
C1129 C1126 1.409 . S
C1129 C1127 1.415 . S
C1130 H1120 0.930 . S
C1130 C1128 1.419 . S
C1130 C1131 1.362 . S
C1131 H1121 0.930 . S
C1131 C1124 1.409 . S
C1131 C1130 1.362 . S
H1132 C1138 0.930 . S
H1133 C1141 0.930 . S
H1134 C1142 0.930 . S
H1135 C1143 0.930 . S
H1136 C1146 0.930 . S
H1137 C1147 0.930 . S
C1138 H1132 0.930 . S
C1138 C1139 1.355 . S
C1138 C1140 1.415 . S
C1139 C1138 1.355 . S
C1139 C1141 1.419 . S
C1140 C1138 1.415 . S
C1140 C1145 1.425 . S
C1140 C1147 1.409 . S
C1141 H1133 0.930 . S
C1141 C1139 1.419 . S
C1141 C1142 1.362 . S
C1142 H1134 0.930 . S
C1142 C1141 1.362 . S
C1142 C1145 1.409 . S
C1143 H1135 0.930 . S
C1143 C1144 1.355 . S
C1143 C1145 1.415 . S
C1144 C1143 1.355 . S
C1144 C1146 1.419 . S
C1145 C1140 1.425 . S
C1145 C1142 1.409 . S
C1145 C1143 1.415 . S
C1146 H1136 0.930 . S
C1146 C1144 1.419 . S
C1146 C1147 1.362 . S
C1147 H1137 0.930 . S
C1147 C1140 1.409 . S
C1147 C1146 1.362 . S
H1148 C1154 0.930 . S
H1149 C1157 0.930 . S
H1150 C1158 0.930 . S
H1151 C1159 0.930 . S
H1152 C1162 0.930 . S
H1153 C1163 0.930 . S
C1154 H1148 0.930 . S
C1154 C1155 1.355 . S
C1154 C1156 1.415 . S
C1155 C1154 1.355 . S
C1155 C1157 1.419 . S
C1156 C1154 1.415 . S
C1156 C1161 1.425 . S
C1156 C1163 1.409 . S
C1157 H1149 0.930 . S
C1157 C1155 1.419 . S
C1157 C1158 1.362 . S
C1158 H1150 0.930 . S
C1158 C1157 1.362 . S
C1158 C1161 1.409 . S
C1159 H1151 0.930 . S
C1159 C1160 1.355 . S
C1159 C1161 1.415 . S
C1160 C1159 1.355 . S
C1160 C1162 1.419 . S
C1161 C1156 1.425 . S
C1161 C1158 1.409 . S
C1161 C1159 1.415 . S
C1162 H1152 0.930 . S
C1162 C1160 1.419 . S
C1162 C1163 1.362 . S
C1163 H1153 0.930 . S
C1163 C1156 1.409 . S
C1163 C1162 1.362 . S
H1164 C1170 0.930 . S
H1165 C1173 0.930 . S
H1166 C1174 0.930 . S
H1167 C1175 0.930 . S
H1168 C1178 0.930 . S
H1169 C1179 0.930 . S
C1170 H1164 0.930 . S
C1170 C1171 1.355 . S
C1170 C1172 1.415 . S
C1171 C1170 1.355 . S
C1171 C1173 1.419 . S
C1172 C1170 1.415 . S
C1172 C1177 1.425 . S
C1172 C1179 1.409 . S
C1173 H1165 0.930 . S
C1173 C1171 1.419 . S
C1173 C1174 1.362 . S
C1174 H1166 0.930 . S
C1174 C1173 1.362 . S
C1174 C1177 1.409 . S
C1175 H1167 0.930 . S
C1175 C1176 1.355 . S
C1175 C1177 1.415 . S
C1176 C1175 1.355 . S
C1176 C1178 1.419 . S
C1177 C1172 1.425 . S
C1177 C1174 1.409 . S
C1177 C1175 1.415 . S
C1178 H1168 0.930 . S
C1178 C1176 1.419 . S
C1178 C1179 1.362 . S
C1179 H1169 0.930 . S
C1179 C1172 1.409 . S
C1179 C1178 1.362 . S
H1180 C1186 0.930 . S
H1181 C1189 0.930 . S
H1182 C1190 0.930 . S
H1183 C1191 0.930 . S
H1184 C1194 0.930 . S
H1185 C1195 0.930 . S
C1186 H1180 0.930 . S
C1186 C1187 1.355 . S
C1186 C1188 1.415 . S
C1187 C1186 1.355 . S
C1187 C1189 1.419 . S
C1188 C1186 1.415 . S
C1188 C1193 1.425 . S
C1188 C1195 1.409 . S
C1189 H1181 0.930 . S
C1189 C1187 1.419 . S
C1189 C1190 1.362 . S
C1190 H1182 0.930 . S
C1190 C1189 1.362 . S
C1190 C1193 1.409 . S
C1191 H1183 0.930 . S
C1191 C1192 1.355 . S
C1191 C1193 1.415 . S
C1192 C1191 1.355 . S
C1192 C1194 1.419 . S
C1193 C1188 1.425 . S
C1193 C1190 1.409 . S
C1193 C1191 1.415 . S
C1194 H1184 0.930 . S
C1194 C1192 1.419 . S
C1194 C1195 1.362 . S
C1195 H1185 0.930 . S
C1195 C1188 1.409 . S
C1195 C1194 1.362 . S
H1196 C1202 0.930 . S
H1197 C1205 0.930 . S
H1198 C1206 0.930 . S
H1199 C1207 0.930 . S
H1200 C1210 0.930 . S
H1201 C1211 0.930 . S
C1202 H1196 0.930 . S
C1202 C1203 1.355 . S
C1202 C1204 1.415 . S
C1203 C1202 1.355 . S
C1203 C1205 1.419 . S
C1204 C1202 1.415 . S
C1204 C1209 1.425 . S
C1204 C1211 1.409 . S
C1205 H1197 0.930 . S
C1205 C1203 1.419 . S
C1205 C1206 1.362 . S
C1206 H1198 0.930 . S
C1206 C1205 1.362 . S
C1206 C1209 1.409 . S
C1207 H1199 0.930 . S
C1207 C1208 1.355 . S
C1207 C1209 1.415 . S
C1208 C1207 1.355 . S
C1208 C1210 1.419 . S
C1209 C1204 1.425 . S
C1209 C1206 1.409 . S
C1209 C1207 1.415 . S
C1210 H1200 0.930 . S
C1210 C1208 1.419 . S
C1210 C1211 1.362 . S
C1211 H1201 0.930 . S
C1211 C1204 1.409 . S
C1211 C1210 1.362 . S
H1212 C1218 0.930 . S
H1213 C1221 0.930 . S
H1214 C1222 0.930 . S
H1215 C1223 0.930 . S
H1216 C1226 0.930 . S
H1217 C1227 0.930 . S
C1218 H1212 0.930 . S
C1218 C1219 1.355 . S
C1218 C1220 1.415 . S
C1219 C1218 1.355 . S
C1219 C1221 1.419 . S
C1220 C1218 1.415 . S
C1220 C1225 1.425 . S
C1220 C1227 1.409 . S
C1221 H1213 0.930 . S
C1221 C1219 1.419 . S
C1221 C1222 1.362 . S
C1222 H1214 0.930 . S
C1222 C1221 1.362 . S
C1222 C1225 1.409 . S
C1223 H1215 0.930 . S
C1223 C1224 1.355 . S
C1223 C1225 1.415 . S
C1224 C1223 1.355 . S
C1224 C1226 1.419 . S
C1225 C1220 1.425 . S
C1225 C1222 1.409 . S
C1225 C1223 1.415 . S
C1226 H1216 0.930 . S
C1226 C1224 1.419 . S
C1226 C1227 1.362 . S
C1227 H1217 0.930 . S
C1227 C1220 1.409 . S
C1227 C1226 1.362 . S
H1228 C1234 0.930 . S
H1229 C1237 0.930 . S
H1230 C1238 0.930 . S
H1231 C1239 0.930 . S
H1232 C1242 0.930 . S
H1233 C1243 0.930 . S
C1234 H1228 0.930 . S
C1234 C1235 1.355 . S
C1234 C1236 1.415 . S
C1235 C1234 1.355 . S
C1235 C1237 1.419 . S
C1236 C1234 1.415 . S
C1236 C1241 1.425 . S
C1236 C1243 1.409 . S
C1237 H1229 0.930 . S
C1237 C1235 1.419 . S
C1237 C1238 1.362 . S
C1238 H1230 0.930 . S
C1238 C1237 1.362 . S
C1238 C1241 1.409 . S
C1239 H1231 0.930 . S
C1239 C1240 1.355 . S
C1239 C1241 1.415 . S
C1240 C1239 1.355 . S
C1240 C1242 1.419 . S
C1241 C1236 1.425 . S
C1241 C1238 1.409 . S
C1241 C1239 1.415 . S
C1242 H1232 0.930 . S
C1242 C1240 1.419 . S
C1242 C1243 1.362 . S
C1243 H1233 0.930 . S
C1243 C1236 1.409 . S
C1243 C1242 1.362 . S
H1244 C1250 0.930 . S
H1245 C1253 0.930 . S
H1246 C1254 0.930 . S
H1247 C1255 0.930 . S
H1248 C1258 0.930 . S
H1249 C1259 0.930 . S
C1250 H1244 0.930 . S
C1250 C1251 1.355 . S
C1250 C1252 1.415 . S
C1251 C1250 1.355 . S
C1251 C1253 1.419 . S
C1252 C1250 1.415 . S
C1252 C1257 1.425 . S
C1252 C1259 1.409 . S
C1253 H1245 0.930 . S
C1253 C1251 1.419 . S
C1253 C1254 1.362 . S
C1254 H1246 0.930 . S
C1254 C1253 1.362 . S
C1254 C1257 1.409 . S
C1255 H1247 0.930 . S
C1255 C1256 1.355 . S
C1255 C1257 1.415 . S
C1256 C1255 1.355 . S
C1256 C1258 1.419 . S
C1257 C1252 1.425 . S
C1257 C1254 1.409 . S
C1257 C1255 1.415 . S
C1258 H1248 0.930 . S
C1258 C1256 1.419 . S
C1258 C1259 1.362 . S
C1259 H1249 0.930 . S
C1259 C1252 1.409 . S
C1259 C1258 1.362 . S
C403 C162 1.550 . S
C408 C222 1.535 . S
C419 C174 1.492 . S
C424 C242 1.451 . S
C435 C150 1.512 . S
C440 C265 1.508 . S
C451 C138 1.434 . S
C456 C245 1.429 . S
C472 C262 1.415 . S
C467 C114 1.449 . S
C483 C126 1.477 . S
C488 C225 1.469 1_556 S
C504 C232 1.540 . S
C499 C136 1.564 . S
C520 C252 1.422 . S
C515 C112 1.448 . S
C531 C124 1.553 . S
C536 C257 1.572 1_556 S
C547 C160 1.425 . S
C552 C237 1.440 . S
C563 C172 1.459 . S
C568 C272 1.435 . S
C584 C217 1.550 . S
C579 C148 1.557 . S
C600 C282 1.519 . S
C595 C18 1.546 . S
C611 C30 1.495 . S
C616 C302 1.453 . S
C627 C6 1.511 . S
C632 C325 1.507 . S
C643 C210 1.419 . S
C648 C305 1.427 . S
C659 C186 1.453 . S
C664 C322 1.452 . S
C675 C198 1.480 . S
C680 C285 1.471 . S
C691 C208 1.535 . S
C696 C292 1.518 . S
C707 C184 1.448 . S
C712 C312 1.442 . S
C728 C317 1.546 . S
C723 C196 1.540 . S
C739 C16 1.439 . S
C744 C297 1.474 . S
C760 C332 1.425 . S
C755 C28 1.453 . S
C771 C4 1.550 . S
C776 C277 1.566 . S
C792 C342 1.507 . S
C787 C90 1.543 . S
C803 C102 1.507 . S
C808 C362 1.502 . S
C824 C385 1.504 . S
C819 C78 1.507 . S
C840 C365 1.439 . S
C835 C66 1.432 . S
C856 C382 1.455 . S
C851 C42 1.451 . S
C867 C54 1.485 . S
C872 C345 1.490 . S
C883 C64 1.579 . S
C888 C352 1.569 . S
C899 C40 1.440 . S
C904 C372 1.412 . S
C920 C377 1.564 . S
C915 C52 1.524 . S
C931 C88 1.433 . S
C936 C357 1.470 . S
C947 C100 1.466 . S
C952 C392 1.446 . S
C963 C76 1.526 . S
C968 C337 1.524 . S
C979 C189 1.381 . S
C984 C235 1.356 . S
C1000 C255 1.628 . S
C995 C201 1.701 . S
C1011 C213 1.517 . S
C1016 C264 1.513 . S
C1027 C81 1.666 . S
C1032 C244 1.636 . S
C1043 C93 1.580 . S
C1048 C275 1.506 . S
C1064 C224 1.350 . S
C1059 C105 1.366 . S
C1075 C45 1.380 . S
C1080 C295 1.354 . S
C1091 C57 1.699 . S
C1096 C315 1.635 . S
C1107 C69 1.520 . S
C1112 C324 1.451 . S
C1123 C153 1.640 . S
C1128 C304 1.613 . S
C1144 C335 1.518 . S
C1139 C165 1.579 . S
C1155 C177 1.353 . S
C1160 C284 1.296 . S
C1171 C117 1.371 . S
C1176 C355 1.290 . S
C1187 C129 1.697 . S
C1192 C375 1.628 . S
C1208 C384 1.508 . S
C1203 C141 1.507 . S
C1219 C9 1.660 . S
C1224 C364 1.640 . S
C1235 C21 1.586 . S
C1240 C395 1.540 . S
C1251 C33 1.335 . S
C1256 C344 1.318 . S
