# Generated by pormake.
# Topology anh, (6,3)-cn, num edge types: 1
# Building blocks:
#     Node 0, Type 0, BuildingBlock: VOLQOD_clean_sbu_1, # of connection points: 6
#     Node 1, Type 0, BuildingBlock: VOLQOD_clean_sbu_1, # of connection points: 6
#     Node 2, Type 0, BuildingBlock: VOLQOD_clean_sbu_1, # of connection points: 6
#     Node 3, Type 1, BuildingBlock: BELTOD_clean_linker_0, # of connection points: 3
#     Node 4, Type 1, BuildingBlock: BELTOD_clean_linker_0, # of connection points: 3
#     Node 5, Type 1, BuildingBlock: BELTOD_clean_linker_0, # of connection points: 3
#     Node 6, Type 1, BuildingBlock: BELTOD_clean_linker_0, # of connection points: 3
#     Node 7, Type 1, BuildingBlock: BELTOD_clean_linker_0, # of connection points: 3
#     Node 8, Type 1, BuildingBlock: BELTOD_clean_linker_0, # of connection points: 3
#     Edge 9, Type (0, 1), BuildingBlock: MIFKUJ_clean_linker_0, # of connection points: 2
#     Edge 10, Type (0, 1), BuildingBlock: MIFKUJ_clean_linker_0, # of connection points: 2
#     Edge 11, Type (0, 1), BuildingBlock: MIFKUJ_clean_linker_0, # of connection points: 2
#     Edge 12, Type (0, 1), BuildingBlock: MIFKUJ_clean_linker_0, # of connection points: 2
#     Edge 13, Type (0, 1), BuildingBlock: MIFKUJ_clean_linker_0, # of connection points: 2
#     Edge 14, Type (0, 1), BuildingBlock: MIFKUJ_clean_linker_0, # of connection points: 2
#     Edge 15, Type (0, 1), BuildingBlock: MIFKUJ_clean_linker_0, # of connection points: 2
#     Edge 16, Type (0, 1), BuildingBlock: MIFKUJ_clean_linker_0, # of connection points: 2
#     Edge 17, Type (0, 1), BuildingBlock: MIFKUJ_clean_linker_0, # of connection points: 2
#     Edge 18, Type (0, 1), BuildingBlock: MIFKUJ_clean_linker_0, # of connection points: 2
#     Edge 19, Type (0, 1), BuildingBlock: MIFKUJ_clean_linker_0, # of connection points: 2
#     Edge 20, Type (0, 1), BuildingBlock: MIFKUJ_clean_linker_0, # of connection points: 2
#     Edge 21, Type (0, 1), BuildingBlock: MIFKUJ_clean_linker_0, # of connection points: 2
#     Edge 22, Type (0, 1), BuildingBlock: MIFKUJ_clean_linker_0, # of connection points: 2
#     Edge 23, Type (0, 1), BuildingBlock: MIFKUJ_clean_linker_0, # of connection points: 2
#     Edge 24, Type (0, 1), BuildingBlock: MIFKUJ_clean_linker_0, # of connection points: 2
#     Edge 25, Type (0, 1), BuildingBlock: MIFKUJ_clean_linker_0, # of connection points: 2
#     Edge 26, Type (0, 1), BuildingBlock: MIFKUJ_clean_linker_0, # of connection points: 2
# Relax obj value: 0.161
# Max RMSD: 0.227
# Mean RMSD: 0.106
data_MOF--net-anh--node1-VOLQOD_clean_sbu_1--node2-BELTOD_clean_linker_0--edge1-MIFKUJ_clean_linker_0
_symmetry_space_group_name_H-M    P1
_symmetry_Int_Tables_number       1
_symmetry_cell_setting            triclinic
loop_
_symmetry_equiv_pos_as_xyz
'x, y, z'
_cell_length_a     40.269402
_cell_length_b     40.21426
_cell_length_c     85.774212
_cell_angle_alpha  90.290015
_cell_angle_beta   89.879225
_cell_angle_gamma 120.09867
loop_
_atom_site_label
_atom_site_type_symbol
_atom_site_fract_x
_atom_site_fract_y
_atom_site_fract_z
_atom_type_partial_charge
O0 O 0.00364 0.56387 0.2015 0.0
Zn1 Zn 0.00172 0.58192 0.17973 0.0
O2 O 0.00884 0.55057 0.16383 0.0
Zn3 Zn 0.96473 0.52614 0.14984 0.0
Zn4 Zn 0.01506 0.51105 0.17415 0.0
Zn5 Zn 0.05407 0.58245 0.1513 0.0
O6 O 0.97953 0.53771 0.12716 0.0
O7 O 0.04112 0.58214 0.1287 0.0
O8 O 0.95048 0.57936 0.17688 0.0
O9 O 0.92903 0.54556 0.15486 0.0
O10 O 0.9344 0.46859 0.15294 0.0
O11 O 0.96979 0.45891 0.1701 0.0
O12 O 0.06283 0.51155 0.16708 0.0
O13 O 0.04511 0.63727 0.17876 0.0
O14 O 0.09168 0.56342 0.15219 0.0
O15 O 0.08061 0.63661 0.15901 0.0
C16 C 0.01165 0.53903 0.20662 0.0
C17 C 0.01091 0.56194 0.12068 0.0
C18 C 0.94001 0.44618 0.16157 0.0
C19 C 0.92574 0.56483 0.16596 0.0
C20 C 0.09098 0.53463 0.15863 0.0
C21 C 0.0743 0.65439 0.16988 0.0
O22 O 0.01797 0.51802 0.19735 0.0
O23 O 0.45745 0.01516 0.4645 0.0
Zn24 Zn 0.43861 0.01567 0.48634 0.0
O25 O 0.4729 0.01348 0.50201 0.0
Zn26 Zn 0.49556 0.06013 0.51449 0.0
Zn27 Zn 0.51356 0.00871 0.49173 0.0
Zn28 Zn 0.44456 0.96992 0.51585 0.0
O29 O 0.4917 0.04872 0.5374 0.0
O30 O 0.45125 0.98587 0.53845 0.0
O31 O 0.43381 0.0633 0.48911 0.0
O32 O 0.46868 0.08949 0.51048 0.0
O33 O 0.55139 0.09449 0.50913 0.0
O34 O 0.56482 0.05595 0.49525 0.0
O35 O 0.51598 0.96254 0.49912 0.0
O36 O 0.3857 0.96895 0.48835 0.0
O37 O 0.46483 0.93347 0.51441 0.0
O38 O 0.38885 0.94046 0.51 0.0
C39 C 0.48363 0.00904 0.45932 0.0
C40 C 0.47224 0.01804 0.54521 0.0
C41 C 0.57524 0.08818 0.5018 0.0
C42 C 0.44633 0.08874 0.49984 0.0
C43 C 0.49377 0.93462 0.50785 0.0
C44 C 0.36995 0.94242 0.4985 0.0
O45 O 0.50575 0.00446 0.46854 0.0
O46 O 0.45455 0.46315 0.79888 0.0
Zn47 Zn 0.44134 0.45059 0.82173 0.0
O48 O 0.48281 0.48794 0.83535 0.0
Zn49 Zn 0.46382 0.51214 0.84993 0.0
Zn50 Zn 0.5231 0.52731 0.82253 0.0
Zn51 Zn 0.50424 0.46225 0.84732 0.0
O52 O 0.47176 0.503 0.8725 0.0
O53 O 0.49535 0.46385 0.8702 0.0
O54 O 0.39103 0.44861 0.82661 0.0
O55 O 0.40718 0.48846 0.84693 0.0
O56 O 0.48774 0.56941 0.8459 0.0
O57 O 0.52635 0.57793 0.82594 0.0
O58 O 0.57487 0.53373 0.82729 0.0
O59 O 0.43451 0.39762 0.82426 0.0
O60 O 0.56125 0.48741 0.84437 0.0
O61 O 0.4808 0.40724 0.84084 0.0
C62 C 0.48445 0.48921 0.7921 0.0
C63 C 0.48344 0.48188 0.87861 0.0
C64 C 0.51154 0.59095 0.83557 0.0
C65 C 0.38222 0.46475 0.8374 0.0
C66 C 0.58543 0.51551 0.83618 0.0
C67 C 0.45312 0.38519 0.83191 0.0
O68 O 0.51266 0.51492 0.79983 0.0
P69 P 0.56221 0.97398 0.24323 0.0
H70 H 0.52501 0.92272 0.21688 0.0
H71 H 0.46099 0.8954 0.20551 0.0
H72 H 0.43273 0.95756 0.23926 0.0
H73 H 0.4965 0.98408 0.25075 0.0
H74 H 0.64352 0.00748 0.23611 0.0
H75 H 0.68913 0.0651 0.22199 0.0
H76 H 0.60033 0.09394 0.21473 0.0
H77 H 0.55466 0.03567 0.22855 0.0
H78 H 0.54818 0.92603 0.27052 0.0
H79 H 0.57069 0.04065 0.26087 0.0
O80 O 0.57622 0.94156 0.24107 0.0
H81 H 0.54105 0.93554 0.29822 0.0
H82 H 0.56357 0.05038 0.28861 0.0
C83 C 0.51515 0.95462 0.23488 0.0
C84 C 0.50495 0.9303 0.22187 0.0
C85 C 0.46847 0.91504 0.21528 0.0
C86 C 0.44168 0.9242 0.22152 0.0
C87 C 0.45245 0.94943 0.23435 0.0
C88 C 0.48895 0.96463 0.24093 0.0
C89 C 0.59562 0.017 0.23313 0.0
C90 C 0.63385 0.02612 0.23141 0.0
C91 C 0.65996 0.05924 0.22343 0.0
C92 C 0.64835 0.08409 0.21717 0.0
C93 C 0.61003 0.07508 0.21916 0.0
C94 C 0.58393 0.04185 0.22711 0.0
C95 C 0.56069 0.98288 0.26371 0.0
C96 C 0.55221 0.95348 0.27441 0.0
C97 C 0.54815 0.95895 0.29023 0.0
C98 C 0.55191 0.99377 0.29558 0.0
C99 C 0.56037 0.0232 0.2848 0.0
C100 C 0.56477 0.01779 0.26898 0.0
P101 P 0.6047 0.55364 0.57701 0.0
H102 H 0.62184 0.52642 0.54818 0.0
H103 H 0.58488 0.46832 0.5324 0.0
H104 H 0.49007 0.42948 0.56464 0.0
H105 H 0.52732 0.48728 0.58041 0.0
H106 H 0.65471 0.63651 0.57285 0.0
H107 H 0.64288 0.68662 0.56294 0.0
H108 H 0.5246 0.60083 0.55394 0.0
H109 H 0.53639 0.55136 0.56425 0.0
H110 H 0.59914 0.4961 0.59894 0.0
H111 H 0.57899 0.59184 0.59946 0.0
O112 O 0.65126 0.56761 0.57587 0.0
H113 H 0.579 0.48279 0.62625 0.0
H114 H 0.55844 0.57844 0.62657 0.0
C115 C 0.57774 0.5105 0.56569 0.0
C116 C 0.5932 0.50521 0.55189 0.0
C117 C 0.57188 0.47226 0.54279 0.0
C118 C 0.53462 0.44425 0.54732 0.0
C119 C 0.51893 0.45023 0.56098 0.0
C120 C 0.54025 0.48318 0.57004 0.0
C121 C 0.59663 0.59017 0.56898 0.0
C122 C 0.62635 0.62853 0.56861 0.0
C123 C 0.61957 0.6571 0.5629 0.0
C124 C 0.58283 0.64769 0.55759 0.0
C125 C 0.55313 0.60913 0.55807 0.0
C126 C 0.55993 0.5807 0.56381 0.0
C127 C 0.59032 0.54473 0.59714 0.0
C128 C 0.59029 0.51417 0.60493 0.0
C129 C 0.57857 0.50647 0.62049 0.0
C130 C 0.56702 0.5295 0.62855 0.0
C131 C 0.56751 0.56039 0.62072 0.0
C132 C 0.57908 0.56795 0.60516 0.0
P133 P 0.07786 0.6428 0.90213 0.0
H134 H 0.11657 0.64579 0.8731 0.0
H135 H 0.13588 0.60269 0.86113 0.0
H136 H 0.0889 0.52614 0.90046 0.0
H137 H 0.06967 0.56929 0.91233 0.0
H138 H 0.04489 0.69235 0.8984 0.0
H139 H 0.98656 0.68301 0.88546 0.0
H140 H 0.95954 0.56874 0.8715 0.0
H141 H 0.01756 0.57817 0.88441 0.0
H142 H 0.1284 0.65448 0.92824 0.0
H143 H 0.00744 0.61084 0.92117 0.0
O144 O 0.11313 0.68808 0.89973 0.0
H145 H 0.11721 0.64169 0.95615 0.0
H146 H 0.99617 0.59923 0.94906 0.0
C147 C 0.09272 0.61127 0.89377 0.0
C148 C 0.11064 0.61982 0.87916 0.0
C149 C 0.12122 0.59497 0.87226 0.0
C150 C 0.11394 0.5611 0.87989 0.0
C151 C 0.09527 0.55227 0.89441 0.0
C152 C 0.08444 0.57702 0.90124 0.0
C153 C 0.03593 0.63631 0.89206 0.0
C154 C 0.02655 0.66547 0.89241 0.0
C155 C 0.99319 0.66003 0.8851 0.0
C156 C 0.96875 0.62528 0.87735 0.0
C157 C 0.97824 0.59609 0.87711 0.0
C158 C 0.0114 0.60145 0.88452 0.0
C159 C 0.06891 0.63406 0.92268 0.0
C160 C 0.0995 0.64252 0.93274 0.0
C161 C 0.09305 0.63534 0.9487 0.0
C162 C 0.05579 0.61962 0.95489 0.0
C163 C 0.02515 0.61096 0.94469 0.0
C164 C 0.03163 0.61796 0.92871 0.0
P165 P 0.05648 0.45906 0.4216 0.0
H166 H 0.10806 0.49567 0.44794 0.0
H167 H 0.13272 0.55843 0.46055 0.0
H168 H 0.07021 0.5872 0.42754 0.0
H169 H 0.04577 0.52451 0.41499 0.0
H170 H 0.00096 0.3787 0.41537 0.0
H171 H 0.94026 0.33278 0.42776 0.0
H172 H 0.95445 0.42026 0.46094 0.0
H173 H 0.01417 0.46595 0.44834 0.0
H174 H 0.10973 0.48338 0.39556 0.0
H175 H 0.99004 0.4459 0.40277 0.0
O176 O 0.08732 0.44324 0.42399 0.0
H177 H 0.10341 0.49449 0.36799 0.0
H178 H 0.98354 0.45722 0.37525 0.0
C179 C 0.07601 0.50593 0.43029 0.0
C180 C 0.09997 0.51564 0.44335 0.0
C181 C 0.11365 0.55129 0.45064 0.0
C182 C 0.10339 0.57769 0.445 0.0
C183 C 0.07895 0.56761 0.43201 0.0
C184 C 0.0651 0.53184 0.4248 0.0
C185 C 0.01193 0.42575 0.43083 0.0
C186 C 0.99084 0.38791 0.42529 0.0
C187 C 0.95633 0.36168 0.43244 0.0
C188 C 0.9425 0.3729 0.44533 0.0
C189 C 0.96397 0.41086 0.45089 0.0
C190 C -0.00164 0.43703 0.44371 0.0
C191 C 0.05018 0.46298 0.40108 0.0
C192 C 0.08196 0.47702 0.39114 0.0
C193 C 0.07839 0.48371 0.37544 0.0
C194 C 0.04296 0.4767 0.36945 0.0
C195 C 0.01105 0.46232 0.37947 0.0
C196 C 0.01472 0.45578 0.39519 0.0
P197 P 0.62547 0.06739 0.75642 0.0
H198 H 0.64488 0.12723 0.77989 0.0
H199 H 0.61094 0.1593 0.78965 0.0
H200 H 0.51566 0.08914 0.75906 0.0
H201 H 0.54941 0.05688 0.74956 0.0
H202 H 0.67112 0.03449 0.76767 0.0
H203 H 0.6552 0.97758 0.78319 0.0
H204 H 0.53689 0.95005 0.78522 0.0
H205 H 0.55301 0.00707 0.7697 0.0
H206 H 0.65828 0.1128 0.72851 0.0
H207 H 0.56582 -0.00061 0.73975 0.0
O208 O 0.67253 0.09808 0.75804 0.0
H209 H 0.63801 0.10275 0.70129 0.0
H210 H 0.54438 0.98959 0.71267 0.0
C211 C 0.60004 0.09029 0.76377 0.0
C212 C 0.61674 0.11885 0.77526 0.0
C213 C 0.59736 0.13721 0.78079 0.0
C214 C 0.56077 0.12698 0.77501 0.0
C215 C 0.54372 0.09755 0.76379 0.0
C216 C 0.56318 0.07932 0.75825 0.0
C217 C 0.61334 0.02522 0.76769 0.0
C218 C 0.64181 0.01635 0.77152 0.0
C219 C 0.63272 0.98393 0.78045 0.0
C220 C 0.59486 0.95956 0.78551 0.0
C221 C 0.56628 0.96827 0.78145 0.0
C222 C 0.57549 0.00092 0.77264 0.0
C223 C 0.61397 0.05666 0.7361 0.0
C224 C 0.63396 0.08547 0.72506 0.0
C225 C 0.62199 0.07985 0.70953 0.0
C226 C 0.5893 0.04549 0.7048 0.0
C227 C 0.56992 0.01621 0.71585 0.0
C228 C 0.58216 0.02179 0.73138 0.0
P229 P 0.43542 0.36949 0.09504 0.0
H230 H 0.45395 0.39115 0.12781 0.0
H231 H 0.51443 0.42301 0.14213 0.0
H232 H 0.57463 0.42262 0.10035 0.0
H233 H 0.51421 0.39249 0.08599 0.0
H234 H 0.35241 0.33273 0.09974 0.0
H235 H 0.31112 0.35727 0.10896 0.0
H236 H 0.41103 0.46972 0.11545 0.0
H237 H 0.45191 0.44516 0.10609 0.0
H238 H 0.4206 0.32366 0.06645 0.0
H239 H 0.46917 0.44317 0.07896 0.0
O240 O 0.41349 0.32187 0.09711 0.0
H241 H 0.42974 0.34098 0.03882 0.0
H242 H 0.47805 0.4606 0.05139 0.0
C243 C 0.47983 0.39075 0.10572 0.0
C244 C 0.48026 0.39831 0.12171 0.0
C245 C 0.51487 0.41616 0.12993 0.0
C246 C 0.5496 0.42594 0.12236 0.0
C247 C 0.54864 0.41657 0.10646 0.0
C248 C 0.51405 0.39913 0.09822 0.0
C249 C 0.40521 0.38697 0.10248 0.0
C250 C 0.36539 0.36257 0.10327 0.0
C251 C 0.34187 0.3766 0.10857 0.0
C252 C 0.35787 0.4154 0.11298 0.0
C253 C 0.39782 0.43979 0.11201 0.0
C254 C 0.42123 0.42571 0.10675 0.0
C255 C 0.44384 0.3821 0.07474 0.0
C256 C 0.43331 0.35361 0.06327 0.0
C257 C 0.43869 0.36355 0.0475 0.0
C258 C 0.4544 0.40212 0.04297 0.0
C259 C 0.46538 0.43061 0.05453 0.0
C260 C 0.46034 0.42067 0.07029 0.0
H261 H 0.15712 0.57857 0.14214 0.0
H262 H 0.20695 0.56305 0.13571 0.0
H263 H 0.14658 0.45785 0.16189 0.0
H264 H 0.09686 0.47326 0.16856 0.0
H265 H 0.22372 0.49315 0.16657 0.0
H266 H 0.1368 0.4566 0.1229 0.0
H267 H 0.10093 0.46766 0.10226 0.0
H268 H 0.20678 0.55463 0.08219 0.0
H269 H 0.24327 0.54444 0.10286 0.0
H270 H 0.29721 0.3817 0.13312 0.0
H271 H 0.25605 0.40668 0.14192 0.0
H272 H 0.32172 0.50853 0.11424 0.0
H273 H 0.36237 0.48328 0.10508 0.0
H274 H 0.2456 0.47941 0.11053 0.0
H275 H 0.33287 0.51261 0.15324 0.0
H276 H 0.3685 0.50121 0.17386 0.0
H277 H 0.26239 0.42051 0.19576 0.0
H278 H 0.22608 0.43101 0.17513 0.0
C279 C 0.15453 0.55225 0.14663 0.0
C280 C 0.12273 0.52691 0.15571 0.0
C281 C 0.18303 0.54343 0.14293 0.0
C282 C 0.18011 0.50903 0.14814 0.0
C283 C 0.14929 0.4845 0.15773 0.0
C284 C 0.12083 0.49331 0.16147 0.0
C285 C 0.20808 0.4976 0.143 0.0
C286 C 0.22831 0.48982 0.15433 0.0
C287 C 0.21461 0.4941 0.12702 0.0
C288 C 0.19273 0.50005 0.11452 0.0
C289 C 0.15241 0.47828 0.11415 0.0
C290 C 0.13197 0.48436 0.10244 0.0
C291 C 0.15156 0.51191 0.09094 0.0
C292 C 0.19164 0.53335 0.09112 0.0
C293 C 0.21222 0.52742 0.10282 0.0
C294 C 0.30272 0.40931 0.12884 0.0
C295 C 0.33304 0.43056 0.11843 0.0
C296 C 0.27945 0.42371 0.134 0.0
C297 C 0.28617 0.45967 0.12887 0.0
C298 C 0.31622 0.48082 0.11839 0.0
C299 C 0.33955 0.46647 0.11326 0.0
C300 C 0.2611 0.47467 0.1341 0.0
C301 C 0.24132 0.48305 0.12278 0.0
C302 C 0.255 0.47867 0.15009 0.0
C303 C 0.27674 0.47235 0.16255 0.0
C304 C 0.31711 0.4922 0.16238 0.0
C305 C 0.33744 0.48594 0.17409 0.0
C306 C 0.31772 0.46009 0.1861 0.0
C307 C 0.27763 0.4405 0.18644 0.0
C308 C 0.25716 0.44662 0.17475 0.0
H309 H 0.33351 0.45529 0.19515 0.0
H310 H 0.13569 0.51658 0.08189 0.0
H311 H 0.63742 0.08204 0.49355 0.0
H312 H 0.70195 0.13421 0.48739 0.0
H313 H 0.66805 0.21745 0.49895 0.0
H314 H 0.60339 0.16539 0.50531 0.0
H315 H 0.70129 0.22666 0.46914 0.0
H316 H 0.72846 0.21217 0.52203 0.0
H317 H 0.72952 0.17703 0.54532 0.0
H318 H 0.79924 0.14064 0.52101 0.0
H319 H 0.79814 0.1751 0.49749 0.0
H320 H 0.88624 0.38632 0.45608 0.0
H321 H 0.8258 0.34086 0.46857 0.0
H322 H 0.85443 0.2513 0.46381 0.0
H323 H 0.91572 0.29704 0.45186 0.0
H324 H 0.82386 0.24862 0.49196 0.0
H325 H 0.79239 0.25704 0.43872 0.0
H326 H 0.7904 0.28966 0.41477 0.0
H327 H 0.72765 0.33446 0.43895 0.0
H328 H 0.72974 0.30252 0.46312 0.0
C329 C 0.64383 0.11144 0.495 0.0
C330 C 0.61529 0.11962 0.49985 0.0
C331 C 0.68074 0.14119 0.49154 0.0
C332 C 0.68967 0.17959 0.49275 0.0
C333 C 0.66162 0.18793 0.49799 0.0
C334 C 0.62479 0.15818 0.50166 0.0
C335 C 0.72735 0.2107 0.48731 0.0
C336 C 0.72813 0.23207 0.47431 0.0
C337 C 0.76218 0.21676 0.49382 0.0
C338 C 0.76292 0.19596 0.50794 0.0
C339 C 0.74373 0.19639 0.5216 0.0
C340 C 0.7444 0.17665 0.53485 0.0
C341 C 0.76436 0.15654 0.53463 0.0
C342 C 0.78376 0.1562 0.52116 0.0
C343 C 0.78316 0.17587 0.50787 0.0
C344 C 0.87992 0.35708 0.45786 0.0
C345 C 0.90575 0.34526 0.45292 0.0
C346 C 0.84521 0.33105 0.46488 0.0
C347 C 0.83545 0.29261 0.46696 0.0
C348 C 0.86139 0.28084 0.46228 0.0
C349 C 0.8962 0.30689 0.4553 0.0
C350 C 0.79782 0.26446 0.4737 0.0
C351 C 0.79704 0.24355 0.48689 0.0
C352 C 0.76289 0.25851 0.46728 0.0
C353 C 0.76161 0.27776 0.45277 0.0
C354 C 0.77846 0.27413 0.43896 0.0
C355 C 0.77726 0.29244 0.42534 0.0
C356 C 0.75902 0.31422 0.42535 0.0
C357 C 0.74184 0.31765 0.43897 0.0
C358 C 0.743 0.29943 0.45263 0.0
H359 H 0.7581 0.32836 0.41479 0.0
H360 H 0.76486 0.14129 0.54491 0.0
H361 H 0.5493 0.63961 0.81165 0.0
H362 H 0.56429 0.70563 0.8085 0.0
H363 H 0.51205 0.70136 0.85298 0.0
H364 H 0.49567 0.63415 0.85603 0.0
H365 H 0.49125 0.73567 0.83265 0.0
H366 H 0.61099 0.75251 0.84854 0.0
H367 H 0.66578 0.74123 0.84905 0.0
H368 H 0.6928 0.77929 0.80164 0.0
H369 H 0.63785 0.79028 0.80077 0.0
H370 H 0.63355 0.95354 0.81048 0.0
H371 H 0.6194 0.89524 0.8247 0.0
H372 H 0.521 0.82874 0.79512 0.0
H373 H 0.53462 0.88697 0.78113 0.0
H374 H 0.62082 0.8357 0.81522 0.0
H375 H 0.45289 0.75069 0.81289 0.0
H376 H 0.39972 0.76422 0.81505 0.0
H377 H 0.47237 0.86766 0.84071 0.0
H378 H 0.52581 0.85449 0.83891 0.0
C379 C 0.54116 0.65263 0.82086 0.0
C380 C 0.52147 0.6316 0.83416 0.0
C381 C 0.54997 0.69058 0.81907 0.0
C382 C 0.54005 0.7088 0.83065 0.0
C383 C 0.52021 0.68794 0.84394 0.0
C384 C 0.51094 0.6496 0.84568 0.0
C385 C 0.54942 0.74917 0.82838 0.0
C386 C 0.51964 0.75769 0.82898 0.0
C387 C 0.58678 0.7783 0.8241 0.0
C388 C 0.62016 0.77208 0.82458 0.0
C389 C 0.62849 0.75829 0.8382 0.0
C390 C 0.65959 0.75196 0.83855 0.0
C391 C 0.68274 0.75951 0.82538 0.0
C392 C 0.67486 0.77348 0.81184 0.0
C393 C 0.64378 0.77983 0.81142 0.0
C394 C 0.60875 0.92647 0.80711 0.0
C395 C 0.58518 0.92474 0.7947 0.0
C396 C 0.60063 0.89323 0.81526 0.0
C397 C 0.56888 0.85762 0.81112 0.0
C398 C 0.5451 0.85597 0.79882 0.0
C399 C 0.55298 0.88924 0.79077 0.0
C400 C 0.56222 0.82171 0.81876 0.0
C401 C 0.59256 0.81401 0.81917 0.0
C402 C 0.52566 0.79379 0.82439 0.0
C403 C 0.49346 0.80169 0.82567 0.0
C404 C 0.45748 0.77621 0.81907 0.0
C405 C 0.4273 0.78385 0.82022 0.0
C406 C 0.43269 0.81682 0.82798 0.0
C407 C 0.46826 0.84219 0.83466 0.0
C408 C 0.49852 0.83467 0.83356 0.0
H409 H 0.4093 0.82269 0.82885 0.0
H410 H 0.70679 0.75457 0.82567 0.0
H411 H 0.89061 0.57807 0.14197 0.0
H412 H 0.82492 0.56631 0.14152 0.0
H413 H 0.81377 0.54066 0.19067 0.0
H414 H 0.88029 0.55361 0.19125 0.0
H415 H 0.76053 0.48018 0.17044 0.0
H416 H 0.80246 0.61087 0.18144 0.0
H417 H 0.84303 0.68118 0.17912 0.0
H418 H 0.80811 0.67504 0.13143 0.0
H419 H 0.76775 0.60462 0.13338 0.0
H420 H 0.56465 0.41573 0.15271 0.0
H421 H 0.6261 0.44906 0.1664 0.0
H422 H 0.68026 0.51405 0.12486 0.0
H423 H 0.61871 0.48283 0.11146 0.0
H424 H 0.70822 0.55893 0.14904 0.0
H425 H 0.68201 0.43024 0.13587 0.0
H426 H 0.64494 0.35937 0.13644 0.0
H427 H 0.65413 0.36151 0.18634 0.0
H428 H 0.69083 0.43245 0.18607 0.0
C429 C 0.87458 0.57128 0.15278 0.0
C430 C 0.89029 0.56676 0.16664 0.0
C431 C 0.83716 0.56466 0.15253 0.0
C432 C 0.81463 0.55271 0.16607 0.0
C433 C 0.83092 0.55018 0.18015 0.0
C434 C 0.86884 0.55772 0.18048 0.0
C435 C 0.77286 0.53731 0.16466 0.0
C436 C 0.74871 0.49751 0.16623 0.0
C437 C 0.75794 0.55992 0.15882 0.0
C438 C 0.78214 0.60236 0.15755 0.0
C439 C 0.80362 0.62445 0.17042 0.0
C440 C 0.82656 0.66436 0.16918 0.0
C441 C 0.82817 0.68256 0.15514 0.0
C442 C 0.80681 0.6609 0.14231 0.0
C443 C 0.78383 0.62098 0.14349 0.0
C444 C 0.58949 0.4376 0.14656 0.0
C445 C 0.58673 0.44628 0.1309 0.0
C446 C 0.6247 0.45637 0.15438 0.0
C447 C 0.65794 0.48369 0.1466 0.0
C448 C 0.65505 0.49304 0.13112 0.0
C449 C 0.61987 0.47469 0.12338 0.0
C450 C 0.69623 0.50153 0.15417 0.0
C451 C 0.71967 0.54173 0.15373 0.0
C452 C 0.71077 0.4792 0.1608 0.0
C453 C 0.68856 0.43661 0.16097 0.0
C454 C 0.67578 0.41558 0.14697 0.0
C455 C 0.65487 0.37542 0.14724 0.0
C456 C 0.64691 0.35597 0.16143 0.0
C457 C 0.66006 0.37663 0.17537 0.0
C458 C 0.68091 0.4168 0.17517 0.0
H459 H 0.63081 0.32487 0.16161 0.0
H460 H 0.84595 0.71346 0.1542 0.0
H461 H 0.32775 0.92392 0.47165 0.0
H462 H 0.26894 0.86385 0.46595 0.0
H463 H 0.26342 0.82846 0.51376 0.0
H464 H 0.32291 0.88809 0.51945 0.0
H465 H 0.26283 0.77733 0.49511 0.0
H466 H 0.1924 0.84314 0.49724 0.0
H467 H 0.17745 0.89428 0.49163 0.0
H468 H 0.16753 0.86628 0.44286 0.0
H469 H 0.18296 0.81532 0.44814 0.0
H470 H 0.10855 0.59462 0.47611 0.0
H471 H 0.14073 0.6584 0.48827 0.0
H472 H 0.16613 0.71087 0.4428 0.0
H473 H 0.13372 0.64723 0.43058 0.0
H474 H 0.14911 0.75184 0.46369 0.0
H475 H 0.2308 0.69535 0.4613 0.0
H476 H 0.24717 0.64496 0.46641 0.0
H477 H 0.23716 0.65734 0.51568 0.0
H478 H 0.22019 0.70747 0.51083 0.0
C479 C 0.31349 0.90385 0.48107 0.0
C480 C 0.33032 0.9105 0.49594 0.0
C481 C 0.27966 0.86953 0.47781 0.0
C482 C 0.26171 0.84157 0.48943 0.0
C483 C 0.27686 0.84954 0.5046 0.0
C484 C 0.31089 0.88364 0.50782 0.0
C485 C 0.23106 0.80217 0.4852 0.0
C486 C 0.23742 0.77171 0.48862 0.0
C487 C 0.19845 0.79489 0.47633 0.0
C488 C 0.18909 0.82551 0.47309 0.0
C489 C 0.18732 0.84806 0.4853 0.0
C490 C 0.1787 0.87699 0.48218 0.0
C491 C 0.17161 0.88356 0.46689 0.0
C492 C 0.17303 0.86116 0.4547 0.0
C493 C 0.18165 0.83219 0.45775 0.0
C494 C 0.12073 0.61979 0.46872 0.0
C495 C 0.11911 0.61603 0.4524 0.0
C496 C 0.1389 0.65615 0.47568 0.0
C497 C 0.15625 0.68931 0.46642 0.0
C498 C 0.15284 0.68564 0.45015 0.0
C499 C 0.13441 0.64928 0.44319 0.0
C500 C 0.18131 0.72754 0.47354 0.0
C501 C 0.17405 0.75761 0.47055 0.0
C502 C 0.2133 0.73469 0.48278 0.0
C503 C 0.22379 0.70479 0.4857 0.0
C504 C 0.23182 0.68712 0.47322 0.0
C505 C 0.24124 0.65864 0.47607 0.0
C506 C 0.24309 0.64787 0.49136 0.0
C507 C 0.23564 0.66565 0.50384 0.0
C508 C 0.22612 0.6941 0.50105 0.0
H509 H 0.25039 0.62582 0.49355 0.0
H510 H 0.16494 0.90598 0.4645 0.0
H511 H 0.48645 0.34898 0.84637 0.0
H512 H 0.48783 0.29251 0.837 0.0
H513 H 0.4055 0.27548 0.80126 0.0
H514 H 0.40453 0.33273 0.81034 0.0
H515 H 0.44169 0.21645 0.83038 0.0
H516 H 0.43918 0.25996 0.76769 0.0
H517 H 0.44431 0.31557 0.75341 0.0
H518 H 0.523 0.39239 0.78784 0.0
H519 H 0.51873 0.3373 0.80217 0.0
H520 H 0.4849 0.09606 0.78274 0.0
H521 H 0.45244 0.13026 0.79189 0.0
H522 H 0.55913 0.23789 0.7889 0.0
H523 H 0.59147 0.20409 0.77941 0.0
H524 H 0.49959 0.24411 0.77749 0.0
H525 H 0.52831 0.19283 0.82336 0.0
H526 H 0.52543 0.14106 0.83964 0.0
H527 H 0.40243 0.08573 0.84085 0.0
H528 H 0.4046 0.13699 0.8244 0.0
C529 C 0.46788 0.33279 0.83675 0.0
C530 C 0.44618 0.34599 0.82883 0.0
C531 C 0.4685 0.30027 0.83148 0.0
C532 C 0.44741 0.28036 0.81824 0.0
C533 C 0.42243 0.29088 0.81137 0.0
C534 C 0.42192 0.32362 0.81659 0.0
C535 C 0.45677 0.25329 0.81034 0.0
C536 C 0.45368 0.222 0.81871 0.0
C537 C 0.47307 0.26105 0.79522 0.0
C538 C 0.47825 0.29452 0.78607 0.0
C539 C 0.45782 0.28875 0.77211 0.0
C540 C 0.46048 0.32015 0.76405 0.0
C541 C 0.4836 0.35743 0.76982 0.0
C542 C 0.50484 0.36348 0.78346 0.0
C543 C 0.50239 0.3322 0.79153 0.0
C544 C 0.50131 0.12706 0.78389 0.0
C545 C 0.54079 0.1474 0.78046 0.0
C546 C 0.48278 0.1465 0.78917 0.0
C547 C 0.50344 0.18656 0.79113 0.0
C548 C 0.54265 0.20696 0.78744 0.0
C549 C 0.56118 0.18758 0.78219 0.0
C550 C 0.48492 0.20743 0.79761 0.0
C551 C 0.48649 0.23773 0.78897 0.0
C552 C 0.46788 0.19916 0.81259 0.0
C553 C 0.46659 0.16845 0.8225 0.0
C554 C 0.50065 0.16945 0.82699 0.0
C555 C 0.49915 0.14024 0.83627 0.0
C556 C 0.46377 0.11006 0.84123 0.0
C557 C 0.42981 0.10909 0.83697 0.0
C558 C 0.43116 0.13821 0.82768 0.0
H559 H 0.46266 0.08747 0.84841 0.0
H560 H 0.48519 0.38164 0.76368 0.0
H561 H 0.55718 0.93077 0.4989 0.0
H562 H 0.57374 0.88218 0.50622 0.0
H563 H 0.4672 0.8203 0.53151 0.0
H564 H 0.45067 0.8689 0.52449 0.0
H565 H 0.52637 0.82969 0.54876 0.0
H566 H 0.48089 0.78753 0.49645 0.0
H567 H 0.47891 0.79487 0.468 0.0
H568 H 0.5969 0.82418 0.46441 0.0
H569 H 0.59972 0.81751 0.49288 0.0
H570 H 0.51983 0.65474 0.56326 0.0
H571 H 0.50675 0.70397 0.55361 0.0
H572 H 0.61575 0.75925 0.52977 0.0
H573 H 0.62844 0.70907 0.53889 0.0
H574 H 0.55945 0.75584 0.51159 0.0
H575 H 0.60451 0.79611 0.56369 0.0
H576 H 0.60676 0.78888 0.59214 0.0
H577 H 0.49015 0.76385 0.59614 0.0
H578 H 0.48702 0.77039 0.56768 0.0
C579 C 0.53709 0.90663 0.50589 0.0
C580 C 0.50265 0.90382 0.51115 0.0
C581 C 0.54657 0.87883 0.51003 0.0
C582 C 0.52162 0.84756 0.51935 0.0
C583 C 0.48691 0.84428 0.52434 0.0
C584 C 0.47748 0.87207 0.52027 0.0
C585 C 0.53228 0.81907 0.52455 0.0
C586 C 0.53313 0.81318 0.54062 0.0
C587 C 0.54232 0.7985 0.51394 0.0
C588 C 0.54062 0.80241 0.49682 0.0
C589 C 0.5065 0.79585 0.48961 0.0
C590 C 0.50521 0.79983 0.47348 0.0
C591 C 0.53779 0.81009 0.46441 0.0
C592 C 0.5717 0.81629 0.47145 0.0
C593 C 0.57315 0.81238 0.48759 0.0
C594 C 0.54088 0.6771 0.55582 0.0
C595 C 0.5752 0.67798 0.55184 0.0
C596 C 0.53352 0.70546 0.55045 0.0
C597 C 0.56051 0.73554 0.54115 0.0
C598 C 0.59463 0.73635 0.537 0.0
C599 C 0.60198 0.70788 0.54233 0.0
C600 C 0.5529 0.76605 0.53578 0.0
C601 C 0.55279 0.77244 0.51971 0.0
C602 C 0.54359 0.78719 0.54639 0.0
C603 C 0.54544 0.78343 0.56353 0.0
C604 C 0.57926 0.78879 0.57062 0.0
C605 C 0.5807 0.78486 0.58675 0.0
C606 C 0.54859 0.77583 0.59594 0.0
C607 C 0.51499 0.77081 0.58901 0.0
C608 C 0.51338 0.77467 0.57288 0.0
H609 H 0.54977 0.77279 0.60842 0.0
H610 H 0.53673 0.81316 0.45192 0.0
H611 H 0.64528 0.57124 0.81934 0.0
H612 H 0.71349 0.5921 0.82187 0.0
H613 H 0.68704 0.5091 0.85839 0.0
H614 H 0.619 0.48756 0.85575 0.0
H615 H 0.76103 0.62422 0.84538 0.0
H616 H 0.74779 0.47562 0.85804 0.0
H617 H 0.70692 0.40787 0.8501 0.0
H618 H 0.67831 0.44346 0.80753 0.0
H619 H 0.71943 0.51142 0.81509 0.0
H620 H 0.91571 0.64131 0.88952 0.0
H621 H 0.8542 0.62658 0.87819 0.0
H622 H 0.87887 0.57982 0.83727 0.0
H623 H 0.94031 0.59405 0.8487 0.0
H624 H 0.80966 0.53273 0.84661 0.0
H625 H 0.87947 0.66608 0.83597 0.0
H626 H 0.92196 0.73516 0.84131 0.0
H627 H 0.84112 0.73276 0.87466 0.0
H628 H 0.79837 0.66352 0.86969 0.0
C629 C 0.65396 0.55723 0.82783 0.0
C630 C 0.62664 0.52765 0.83732 0.0
C631 C 0.69296 0.56925 0.82927 0.0
C632 C 0.7053 0.55186 0.84018 0.0
C633 C 0.6781 0.5224 0.84967 0.0
C634 C 0.63918 0.51024 0.84819 0.0
C635 C 0.74669 0.56533 0.84218 0.0
C636 C 0.77177 0.6043 0.84555 0.0
C637 C 0.76091 0.53951 0.84194 0.0
C638 C 0.73652 0.49865 0.8372 0.0
C639 C 0.73296 0.46901 0.84694 0.0
C640 C 0.7097 0.43056 0.84252 0.0
C641 C 0.68996 0.42137 0.82834 0.0
C642 C 0.69352 0.45061 0.81853 0.0
C643 C 0.71677 0.4891 0.82289 0.0
C644 C 0.90828 0.62848 0.87801 0.0
C645 C 0.93275 0.61882 0.86999 0.0
C646 C 0.87316 0.62012 0.87152 0.0
C647 C 0.86209 0.60248 0.8568 0.0
C648 C 0.88681 0.59342 0.84865 0.0
C649 C 0.92182 0.60149 0.85519 0.0
C650 C 0.8237 0.59139 0.85041 0.0
C651 C 0.79914 0.55281 0.84623 0.0
C652 C 0.81026 0.61779 0.8495 0.0
C653 C 0.83581 0.65951 0.85252 0.0
C654 C 0.87086 0.68021 0.84452 0.0
C655 C 0.89498 0.71941 0.84747 0.0
C656 C 0.88427 0.73832 0.85833 0.0
C657 C 0.84938 0.71807 0.86625 0.0
C658 C 0.82516 0.67885 0.86335 0.0
H659 H 0.90299 0.76868 0.8606 0.0
H660 H 0.67194 0.39158 0.82495 0.0
H661 H 0.12773 0.70596 0.14992 0.0
H662 H 0.18714 0.76419 0.15708 0.0
H663 H 0.14991 0.75023 0.20498 0.0
H664 H 0.08984 0.6923 0.19784 0.0
H665 H 0.19671 0.82751 0.19689 0.0
H666 H 0.19761 0.7082 0.19351 0.0
H667 H 0.18594 0.6485 0.18045 0.0
H668 H 0.26401 0.7145 0.14388 0.0
H669 H 0.27563 0.77461 0.15661 0.0
H670 H 0.37395 0.89557 0.23746 0.0
H671 H 0.30896 0.86122 0.22682 0.0
H672 H 0.35505 0.87729 0.18026 0.0
H673 H 0.42024 0.91213 0.1908 0.0
H674 H 0.30385 0.8031 0.18616 0.0
H675 H 0.30867 0.92377 0.19208 0.0
H676 H 0.31945 0.9822 0.20596 0.0
H677 H 0.2313 0.91312 0.23888 0.0
H678 H 0.22035 0.85421 0.22533 0.0
C679 C 0.13164 0.71595 0.1619 0.0
C680 C 0.10453 0.69421 0.17339 0.0
C681 C 0.16558 0.74922 0.16596 0.0
C682 C 0.17325 0.76087 0.18161 0.0
C683 C 0.14456 0.74155 0.19285 0.0
C684 C 0.11028 0.70842 0.18875 0.0
C685 C 0.2129 0.78884 0.18654 0.0
C686 C 0.22019 0.82223 0.19463 0.0
C687 C 0.24348 0.78194 0.18344 0.0
C688 C 0.23716 0.74587 0.17592 0.0
C689 C 0.2121 0.70996 0.18264 0.0
C690 C 0.2055 0.67606 0.1753 0.0
C691 C 0.22414 0.6777 0.16132 0.0
C692 C 0.24954 0.71327 0.15469 0.0
C693 C 0.25615 0.74727 0.16196 0.0
C694 C 0.3703 0.89259 0.22493 0.0
C695 C 0.40228 0.9064 0.21498 0.0
C696 C 0.3331 0.87295 0.21887 0.0
C697 C 0.32719 0.86691 0.20274 0.0
C698 C 0.35902 0.88163 0.19274 0.0
C699 C 0.39622 0.90132 0.19879 0.0
C700 C 0.288 0.84215 0.19647 0.0
C701 C 0.28066 0.80894 0.18822 0.0
C702 C 0.25749 0.84915 0.1996 0.0
C703 C 0.26391 0.88454 0.20775 0.0
C704 C 0.29179 0.921 0.20235 0.0
C705 C 0.29789 0.95422 0.21015 0.0
C706 C 0.27613 0.95137 0.22331 0.0
C707 C 0.24816 0.91529 0.22869 0.0
C708 C 0.24196 0.88197 0.22094 0.0
H709 H 0.2809 0.97712 0.22933 0.0
H710 H 0.21897 0.65141 0.15565 0.0
H711 H 0.43253 0.12045 0.52504 0.0
H712 H 0.42871 0.17901 0.52594 0.0
H713 H 0.43671 0.18663 0.47578 0.0
H714 H 0.43976 0.12701 0.47482 0.0
H715 H 0.49408 0.25094 0.4915 0.0
H716 H 0.35902 0.17994 0.49114 0.0
H717 H 0.29412 0.12786 0.49794 0.0
H718 H 0.31238 0.16579 0.54564 0.0
H719 H 0.37762 0.21775 0.53921 0.0
H720 H 0.52729 0.43515 0.51554 0.0
H721 H 0.4959 0.37453 0.50085 0.0
H722 H 0.46231 0.31144 0.54404 0.0
H723 H 0.49325 0.37155 0.55869 0.0
H724 H 0.40619 0.27745 0.52284 0.0
H725 H 0.54538 0.33106 0.52443 0.0
H726 H 0.61236 0.38083 0.51899 0.0
H727 H 0.58708 0.37294 0.47004 0.0
H728 H 0.51979 0.32341 0.47524 0.0
C729 C 0.43237 0.134 0.51418 0.0
C730 C 0.43662 0.11947 0.49987 0.0
C731 C 0.42992 0.1673 0.51468 0.0
C732 C 0.4322 0.18702 0.50092 0.0
C733 C 0.43456 0.17157 0.48651 0.0
C734 C 0.43622 0.1376 0.48597 0.0
C735 C 0.43825 0.22638 0.50215 0.0
C736 C 0.47431 0.25692 0.49786 0.0
C737 C 0.41266 0.23399 0.51066 0.0
C738 C 0.37334 0.2028 0.51467 0.0
C739 C 0.34932 0.17706 0.50311 0.0
C740 C 0.31243 0.14756 0.5069 0.0
C741 C 0.29913 0.14352 0.52222 0.0
C742 C 0.3227 0.169 0.53378 0.0
C743 C 0.35962 0.19855 0.53005 0.0
C744 C 0.51295 0.4083 0.52187 0.0
C745 C 0.51295 0.40807 0.53827 0.0
C746 C 0.49491 0.37375 0.51347 0.0
C747 C 0.47702 0.33846 0.52135 0.0
C748 C 0.47567 0.33831 0.5377 0.0
C749 C 0.49344 0.37272 0.54608 0.0
C750 C 0.46273 0.30151 0.51291 0.0
C751 C 0.42524 0.2716 0.51589 0.0
C752 C 0.48716 0.29429 0.50335 0.0
C753 C 0.52752 0.32401 0.50024 0.0
C754 C 0.55407 0.34018 0.51252 0.0
C755 C 0.59207 0.36829 0.50948 0.0
C756 C 0.60393 0.38015 0.49418 0.0
C757 C 0.57782 0.36382 0.48189 0.0
C758 C 0.53976 0.33574 0.48488 0.0
H759 H 0.63337 0.4019 0.49185 0.0
H760 H 0.27056 0.12066 0.52513 0.0
H761 H 0.3467 0.46667 0.86392 0.0
H762 H 0.28457 0.4627 0.86642 0.0
H763 H 0.26594 0.44265 0.81692 0.0
H764 H 0.32848 0.4461 0.81435 0.0
H765 H 0.25995 0.505 0.82802 0.0
H766 H 0.20567 0.37328 0.83974 0.0
H767 H 0.20099 0.31573 0.85195 0.0
H768 H 0.19557 0.35866 0.89725 0.0
H769 H 0.2008 0.41676 0.88536 0.0
H770 H 0.10752 0.53627 0.84965 0.0
H771 H 0.13654 0.50101 0.83805 0.0
H772 H 0.18107 0.49568 0.88312 0.0
H773 H 0.15167 0.53015 0.89475 0.0
H774 H 0.15956 0.43086 0.86743 0.0
H775 H 0.2343 0.56835 0.85633 0.0
H776 H 0.24347 0.62889 0.84524 0.0
H777 H 0.21424 0.5769 0.79976 0.0
H778 H 0.20444 0.51589 0.81065 0.0
C779 C 0.3291 0.46069 0.85359 0.0
C780 C 0.34247 0.45697 0.83892 0.0
C781 C 0.29345 0.45809 0.85506 0.0
C782 C 0.27055 0.45208 0.84187 0.0
C783 C 0.28313 0.44698 0.82724 0.0
C784 C 0.31873 0.44892 0.8258 0.0
C785 C 0.23625 0.45631 0.84342 0.0
C786 C 0.23719 0.488 0.83623 0.0
C787 C 0.20705 0.4345 0.85435 0.0
C788 C 0.20371 0.39949 0.86163 0.0
C789 C 0.20371 0.37059 0.85231 0.0
C790 C 0.20093 0.33783 0.85918 0.0
C791 C 0.19799 0.33355 0.87536 0.0
C792 C 0.19779 0.36199 0.88471 0.0
C793 C 0.20059 0.39482 0.87791 0.0
C794 C 0.12318 0.52716 0.85708 0.0
C795 C 0.12768 0.53624 0.87307 0.0
C796 C 0.13963 0.50696 0.85046 0.0
C797 C 0.16142 0.49617 0.85968 0.0
C798 C 0.16427 0.50356 0.87578 0.0
C799 C 0.14751 0.52334 0.88242 0.0
C800 C 0.18447 0.4806 0.85258 0.0
C801 C 0.18141 0.44691 0.85876 0.0
C802 C 0.21211 0.50084 0.84086 0.0
C803 C 0.21815 0.53749 0.83432 0.0
C804 C 0.22959 0.56979 0.84399 0.0
C805 C 0.23492 0.60418 0.83774 0.0
C806 C 0.22931 0.6067 0.82181 0.0
C807 C 0.21847 0.57487 0.8121 0.0
C808 C 0.21301 0.54039 0.8183 0.0
H809 H 0.23346 0.63334 0.81699 0.0
H810 H 0.19585 0.30817 0.88066 0.0
H811 H 0.87278 0.40677 0.14495 0.0
H812 H 0.82049 0.341 0.14943 0.0
H813 H 0.88644 0.32799 0.18602 0.0
H814 H 0.93897 0.39276 0.18132 0.0
H815 H 0.85004 0.26396 0.16994 0.0
H816 H 0.8151 0.35381 0.19322 0.0
H817 H 0.80179 0.40735 0.19186 0.0
H818 H 0.71333 0.34491 0.15798 0.0
H819 H 0.72615 0.29106 0.15915 0.0
H820 H 0.72328 0.13394 0.22471 0.0
H821 H 0.76956 0.19107 0.21057 0.0
H822 H 0.68302 0.17199 0.17652 0.0
H823 H 0.63646 0.11421 0.19052 0.0
H824 H 0.72407 0.24734 0.18586 0.0
H825 H 0.75137 0.15248 0.16665 0.0
H826 H 0.7646 0.09901 0.16822 0.0
H827 H 0.86777 0.1706 0.19405 0.0
H828 H 0.85488 0.22436 0.19284 0.0
C829 C 0.87633 0.38968 0.15379 0.0
C830 C 0.90996 0.4052 0.16287 0.0
C831 C 0.84633 0.35217 0.1564 0.0
C832 C 0.84925 0.32981 0.16826 0.0
C833 C 0.88346 0.34469 0.17682 0.0
C834 C 0.91351 0.38188 0.17413 0.0
C835 C 0.81639 0.29169 0.17249 0.0
C836 C 0.82254 0.26035 0.17346 0.0
C837 C 0.78002 0.2866 0.17659 0.0
C838 C 0.77181 0.31862 0.17616 0.0
C839 C 0.79286 0.35157 0.18547 0.0
C840 C 0.78536 0.38194 0.18475 0.0
C841 C 0.75673 0.37955 0.17484 0.0
C842 C 0.73541 0.3467 0.16569 0.0
C843 C 0.74274 0.31624 0.16639 0.0
C844 C 0.71413 0.14156 0.21412 0.0
C845 C 0.67622 0.11932 0.20869 0.0
C846 C 0.74061 0.17428 0.20606 0.0
C847 C 0.72985 0.18543 0.19237 0.0
C848 C 0.6919 0.16378 0.18704 0.0
C849 C 0.66533 0.1309 0.19509 0.0
C850 C 0.75837 0.22016 0.1839 0.0
C851 C 0.75133 0.25074 0.18208 0.0
C852 C 0.79397 0.22461 0.17905 0.0
C853 C 0.80201 0.19241 0.17973 0.0
C854 C 0.77675 0.15676 0.17275 0.0
C855 C 0.78421 0.1264 0.17357 0.0
C856 C 0.81698 0.13139 0.18125 0.0
C857 C 0.8424 0.16678 0.1881 0.0
C858 C 0.83505 0.19723 0.18734 0.0
H859 H 0.8227 0.10785 0.18186 0.0
H860 H 0.75106 0.40314 0.17425 0.0
H861 H 0.06962 0.61724 0.10347 0.0
H862 H 0.07291 0.62508 0.07523 0.0
H863 H 0.95988 0.52566 0.07068 0.0
H864 H 0.95622 0.51747 0.09903 0.0
H865 H 0.01323 0.52587 0.04965 0.0
H866 H 0.96895 0.61082 0.06635 0.0
H867 H 0.96998 0.66277 0.08211 0.0
H868 H 0.08139 0.74285 0.06402 0.0
H869 H 0.08127 0.69123 0.04831 0.0
H870 H 0.9955 0.55837 0.96942 0.0
H871 H 0.9842 0.54732 0.9974 0.0
H872 H 0.08997 0.65258 0.00687 0.0
H873 H 0.10053 0.66479 0.97895 0.0
H874 H 0.03541 0.64715 0.02545 0.0
H875 H 0.08223 0.56296 0.01006 0.0
H876 H 0.08335 0.5115 0.99471 0.0
H877 H 0.96981 0.43072 0.01061 0.0
H878 H 0.96781 0.48185 0.02589 0.0
C879 C 0.04537 0.597 0.09651 0.0
C880 C 0.01259 0.56676 0.10354 0.0
C881 C 0.04728 0.60164 0.08036 0.0
C882 C 0.0165 0.57615 0.0709 0.0
C883 C 0.98388 0.54568 0.07781 0.0
C884 C 0.98181 0.54115 0.09401 0.0
C885 C 0.01881 0.58129 0.05377 0.0
C886 C 0.01742 0.55209 0.0443 0.0
C887 C 0.02516 0.61589 0.04689 0.0
C888 C 0.02523 0.64707 0.05625 0.0
C889 C 0.9938 0.63944 0.06583 0.0
C890 C 0.9942 0.66884 0.07473 0.0
C891 C 0.02576 0.70607 0.0741 0.0
C892 C 0.05697 0.71399 0.06451 0.0
C893 C 0.05673 0.68468 0.05559 0.0
C894 C 0.01616 0.57941 0.97745 0.0
C895 C 0.049 0.61245 0.97191 0.0
C896 C 0.00987 0.57281 0.99345 0.0
C897 C 0.03649 0.59887 0.00425 0.0
C898 C 0.0691 0.632 0.99876 0.0
C899 C 0.07529 0.63874 0.98278 0.0
C900 C 0.03034 0.5919 0.02127 0.0
C901 C 0.03097 0.62078 0.03074 0.0
C902 C 0.02357 0.5571 0.02815 0.0
C903 C 0.02471 0.52632 0.01898 0.0
C904 C 0.05737 0.53429 0.01017 0.0
C905 C 0.05819 0.50518 0.00151 0.0
C906 C 0.02662 0.46789 0.00165 0.0
C907 C 0.99421 0.45963 0.01049 0.0
C908 C 0.99323 0.48866 0.01916 0.0
H909 H 0.02732 0.44539 0.99493 0.0
H910 H 0.02602 0.72879 0.081 0.0
H911 H 0.44908 0.02668 0.43577 0.0
H912 H 0.46027 0.02671 0.40773 0.0
H913 H 0.54139 0.98854 0.41628 0.0
H914 H 0.53108 0.98923 0.44426 0.0
H915 H 0.56951 0.04447 0.39571 0.0
H916 H 0.44956 0.92702 0.40261 0.0
H917 H 0.38228 0.88703 0.41103 0.0
H918 H 0.34884 0.95042 0.38106 0.0
H919 H 0.41606 0.99114 0.37263 0.0
H920 H 0.58042 0.9751 0.32081 0.0
H921 H 0.56844 0.98091 0.3484 0.0
H922 H 0.49807 0.02947 0.33573 0.0
H923 H 0.50962 0.02333 0.30808 0.0
H924 H 0.46396 0.97197 0.3579 0.0
H925 H 0.58463 0.08699 0.34997 0.0
H926 H 0.65201 0.12533 0.34147 0.0
H927 H 0.68417 0.06442 0.37339 0.0
H928 H 0.61685 0.02531 0.38193 0.0
C929 C 0.46919 0.01814 0.43169 0.0
C930 C 0.48915 0.00793 0.44228 0.0
C931 C 0.47547 0.01807 0.41564 0.0
C932 C 0.50144 0.00732 0.40989 0.0
C933 C 0.52129 0.99703 0.42044 0.0
C934 C 0.51524 0.99734 0.43646 0.0
C935 C 0.5085 0.00723 0.3929 0.0
C936 C 0.54645 0.02826 0.38747 0.0
C937 C 0.47833 0.98689 0.38209 0.0
C938 C 0.4379 0.9624 0.38712 0.0
C939 C 0.42791 0.93263 0.39792 0.0
C940 C 0.38978 0.9098 0.40267 0.0
C941 C 0.36132 0.91626 0.39662 0.0
C942 C 0.37093 0.9455 0.38576 0.0
C943 C 0.40903 0.96845 0.38098 0.0
C944 C 0.56239 0.987 0.32391 0.0
C945 C 0.546 0.99882 0.31231 0.0
C946 C 0.55577 0.99053 0.33966 0.0
C947 C 0.53259 0.00587 0.34409 0.0
C948 C 0.51613 0.01766 0.33254 0.0
C949 C 0.52298 0.01441 0.31678 0.0
C950 C 0.52495 0.00877 0.3608 0.0
C951 C 0.48694 0.98833 0.36615 0.0
C952 C 0.55506 0.02942 0.37156 0.0
C953 C 0.59561 0.05298 0.36648 0.0
C954 C 0.60601 0.08155 0.35508 0.0
C955 C 0.64421 0.10346 0.35028 0.0
C956 C 0.67234 0.09726 0.35686 0.0
C957 C 0.66234 0.06917 0.36829 0.0
C958 C 0.62417 0.04715 0.37313 0.0
H959 H 0.7019 0.11426 0.35312 0.0
H960 H 0.33181 0.89855 0.40032 0.0
H961 H 0.44699 0.42868 0.77177 0.0
H962 H 0.45507 0.42957 0.74335 0.0
H963 H 0.53631 0.55121 0.74538 0.0
H964 H 0.52883 0.55049 0.77364 0.0
H965 H 0.48072 0.53032 0.72191 0.0
H966 H 0.56892 0.4923 0.742 0.0
H967 H 0.58816 0.45159 0.75629 0.0
H968 H 0.5129 0.35466 0.72781 0.0
H969 H 0.49275 0.3947 0.71349 0.0
H970 H 0.58609 0.58134 0.65234 0.0
H971 H 0.56519 0.56859 0.67947 0.0
H972 H 0.4994 0.4471 0.66944 0.0
H973 H 0.52036 0.4597 0.64219 0.0
H974 H 0.53802 0.46005 0.69623 0.0
H975 H 0.4545 0.49905 0.67433 0.0
H976 H 0.43681 0.54002 0.65934 0.0
H977 H 0.50175 0.6339 0.69088 0.0
H978 H 0.52032 0.59366 0.70594 0.0
C979 C 0.46631 0.45563 0.76612 0.0
C980 C 0.48726 0.48954 0.77491 0.0
C981 C 0.47104 0.45604 0.74992 0.0
C982 C 0.49636 0.49045 0.74231 0.0
C983 C 0.51661 0.52439 0.75105 0.0
C984 C 0.51238 0.52389 0.76719 0.0
C985 C 0.5023 0.49155 0.72525 0.0
C986 C 0.4934 0.5151 0.71628 0.0
C987 C 0.51774 0.47072 0.71789 0.0
C988 C 0.52899 0.44639 0.72679 0.0
C989 C 0.55612 0.4622 0.73891 0.0
C990 C 0.56734 0.4393 0.74696 0.0
C991 C 0.5519 0.40062 0.74291 0.0
C992 C 0.52497 0.38468 0.73088 0.0
C993 C 0.5136 0.40745 0.72281 0.0
C994 C 0.56689 0.55193 0.65587 0.0
C995 C 0.55467 0.52155 0.6451 0.0
C996 C 0.55496 0.54467 0.67138 0.0
C997 C 0.53021 0.50693 0.67643 0.0
C998 C 0.51841 0.47644 0.66578 0.0
C999 C 0.53049 0.48368 0.65024 0.0
C1000 C 0.51725 0.49955 0.6929 0.0
C1001 C 0.52475 0.47479 0.70177 0.0
C1002 C 0.5003 0.5191 0.70017 0.0
C1003 C 0.48903 0.54339 0.6912 0.0
C1004 C 0.46524 0.52851 0.67801 0.0
C1005 C 0.45502 0.55159 0.66951 0.0
C1006 C 0.4682 0.58956 0.67414 0.0
C1007 C 0.49157 0.60449 0.68731 0.0
C1008 C 0.50192 0.58154 0.69584 0.0
H1009 H 0.46026 0.60738 0.66754 0.0
H1010 H 0.56062 0.38293 0.74916 0.0
H1011 H 0.45354 0.95796 0.56492 0.0
H1012 H 0.46883 0.9613 0.5926 0.0
H1013 H 0.51615 0.08424 0.59204 0.0
H1014 H 0.50212 0.08126 0.56421 0.0
H1015 H 0.56408 0.0687 0.60541 0.0
H1016 H 0.42919 0.02049 0.61083 0.0
H1017 H 0.36019 0.97673 0.60601 0.0
H1018 H 0.36929 0.88219 0.62403 0.0
H1019 H 0.43847 0.9253 0.62877 0.0
H1020 H 0.58608 0.09982 0.68687 0.0
H1021 H 0.56259 0.09318 0.6602 0.0
H1022 H 0.53391 0.97448 0.65948 0.0
H1023 H 0.55832 0.98106 0.68613 0.0
H1024 H 0.47585 0.98682 0.64715 0.0
H1025 H 0.61163 0.03669 0.64143 0.0
H1026 H 0.68016 0.08181 0.64661 0.0
H1027 H 0.66808 0.17525 0.62937 0.0
H1028 H 0.5993 0.13075 0.62429 0.0
C1029 C 0.46663 0.98565 0.57074 0.0
C1030 C 0.47676 0.01938 0.56235 0.0
C1031 C 0.47525 0.9875 0.5866 0.0
C1032 C 0.49345 0.02301 0.59446 0.0
C1033 C 0.50224 0.05653 0.58622 0.0
C1034 C 0.49411 0.05477 0.57032 0.0
C1035 C 0.50587 0.02563 0.61094 0.0
C1036 C 0.54454 0.05122 0.61456 0.0
C1037 C 0.48072 0.00207 0.62283 0.0
C1038 C 0.43911 0.97607 0.62001 0.0
C1039 C 0.41654 0.99031 0.61365 0.0
C1040 C 0.37739 0.96564 0.61095 0.0
C1041 C 0.36039 0.92669 0.61467 0.0
C1042 C 0.3825 0.91236 0.62114 0.0
C1043 C 0.42168 0.93691 0.62385 0.0
C1044 C 0.5753 0.0724 0.681 0.0
C1045 C 0.57454 0.04108 0.6886 0.0
C1046 C 0.56161 0.06861 0.6658 0.0
C1047 C 0.54681 0.03344 0.65786 0.0
C1048 C 0.54519 0.00185 0.66545 0.0
C1049 C 0.55909 0.00566 0.68067 0.0
C1050 C 0.53376 0.03008 0.64151 0.0
C1051 C 0.49515 0.00431 0.63794 0.0
C1052 C 0.55883 0.05367 0.62966 0.0
C1053 C 0.60024 0.08044 0.63262 0.0
C1054 C 0.62351 0.06691 0.63886 0.0
C1055 C 0.66241 0.09236 0.64176 0.0
C1056 C 0.67844 0.13139 0.63836 0.0
C1057 C 0.65561 0.14502 0.63201 0.0
C1058 C 0.61668 0.11969 0.62911 0.0
H1059 H 0.70856 0.15105 0.64061 0.0
H1060 H 0.33007 0.90763 0.61258 0.0
H1061 H 0.455 0.51081 0.90069 0.0
H1062 H 0.45087 0.49992 0.92887 0.0
H1063 H 0.50544 0.43167 0.92348 0.0
H1064 H 0.50927 0.4419 0.89542 0.0
H1065 H 0.44291 0.39603 0.94147 0.0
H1066 H 0.55404 0.52308 0.93837 0.0
H1067 H 0.58943 0.59147 0.93094 0.0
H1068 H 0.51118 0.61201 0.95769 0.0
H1069 H 0.475 0.5436 0.96511 0.0
H1070 H 0.48391 0.37786 0.01976 0.0
H1071 H 0.48968 0.39407 0.99207 0.0
H1072 H 0.43977 0.46558 0.00069 0.0
H1073 H 0.43469 0.45004 0.02846 0.0
H1074 H 0.49764 0.50023 0.98112 0.0
H1075 H 0.38697 0.37435 0.9846 0.0
H1076 H 0.35047 0.30599 0.992 0.0
H1077 H 0.42584 0.28305 0.96436 0.0
H1078 H 0.46312 0.3514 0.95696 0.0
C1079 C 0.46634 0.49368 0.90552 0.0
C1080 C 0.48239 0.47718 0.89577 0.0
C1081 C 0.46406 0.48759 0.92163 0.0
C1082 C 0.47803 0.46513 0.92828 0.0
C1083 C 0.49439 0.449 0.91859 0.0
C1084 C 0.49662 0.45499 0.90253 0.0
C1085 C 0.47464 0.45725 0.94526 0.0
C1086 C 0.45528 0.41881 0.95013 0.0
C1087 C 0.48976 0.48699 0.95657 0.0
C1088 C 0.51159 0.52815 0.95216 0.0
C1089 C 0.5442 0.54212 0.94257 0.0
C1090 C 0.56444 0.58089 0.93838 0.0
C1091 C 0.5525 0.60604 0.94381 0.0
C1092 C 0.52036 0.59248 0.95348 0.0
C1093 C 0.5 0.55372 0.95769 0.0
C1094 C 0.47409 0.39694 0.01572 0.0
C1095 C 0.45868 0.41253 0.02623 0.0
C1096 C 0.47735 0.40617 -0.0001 0.0
C1097 C 0.46457 0.43056 0.99424 0.0
C1098 C 0.44979 0.44669 0.00478 0.0
C1099 C 0.44692 0.43781 0.02063 0.0
C1100 C 0.46632 0.43895 0.97733 0.0
C1101 C 0.48521 0.47744 0.97246 0.0
C1102 C 0.45056 0.40925 0.96599 0.0
C1103 C 0.42803 0.36807 0.97034 0.0
C1104 C 0.39591 0.35478 0.98019 0.0
C1105 C 0.37507 0.31602 0.98437 0.0
C1106 C 0.38588 0.29021 0.97869 0.0
C1107 C 0.41752 0.30308 0.96877 0.0
C1108 C 0.43849 0.34182 0.96457 0.0
H1109 H 0.36971 0.26022 0.98194 0.0
H1110 H 0.5682 0.63605 0.94055 0.0
H1111 H 0.00396 0.5809 0.23028 0.0
H1112 H 0.00994 0.57417 0.25833 0.0
H1113 H 0.02998 0.47998 0.24951 0.0
H1114 H 0.02464 0.48676 0.22156 0.0
H1115 H 0.97025 0.51636 0.27841 0.0
H1116 H 0.09483 0.48328 0.2752 0.0
H1117 H 0.15073 0.49878 0.25854 0.0
H1118 H 0.15527 0.60294 0.24392 0.0
H1119 H 0.09976 0.58835 0.26065 0.0
H1120 H 0.98542 0.43304 0.34881 0.0
H1121 H 0.98022 0.44756 0.32156 0.0
H1122 H 0.08747 0.55444 0.32558 0.0
H1123 H 0.0929 0.54002 0.35279 0.0
H1124 H 0.08623 0.5191 0.29955 0.0
H1125 H 0.00163 0.5528 0.32497 0.0
H1126 H 0.94823 0.54321 0.34205 0.0
H1127 H 0.86866 0.44942 0.31319 0.0
H1128 H 0.92168 0.45809 0.29605 0.0
C1129 C 0.00962 0.55874 0.23431 0.0
C1130 C 0.01408 0.53455 0.22365 0.0
C1131 C 0.01292 0.55488 0.25034 0.0
C1132 C 0.02088 0.52691 0.25599 0.0
C1133 C 0.02449 0.50221 0.2454 0.0
C1134 C 0.02131 0.50608 0.2294 0.0
C1135 C 0.02569 0.52353 0.27293 0.0
C1136 C 0.99561 0.51702 0.28305 0.0
C1137 C 0.05914 0.52519 0.27902 0.0
C1138 C 0.0929 0.53451 0.26908 0.0
C1139 C 0.10786 0.50957 0.26848 0.0
C1140 C 0.13947 0.51818 0.25902 0.0
C1141 C 0.15647 0.55176 0.25014 0.0
C1142 C 0.14199 0.57687 0.25076 0.0
C1143 C 0.11043 0.56842 0.26021 0.0
C1144 C 0.00772 0.45977 0.34391 0.0
C1145 C 0.03959 0.48536 0.35293 0.0
C1146 C 0.00471 0.46805 0.32835 0.0
C1147 C 0.03328 0.50228 0.32157 0.0
C1148 C 0.06514 0.52782 0.33055 0.0
C1149 C 0.06826 0.51948 0.34608 0.0
C1150 C 0.03043 0.51105 0.30502 0.0
C1151 C 0.06088 0.51854 0.29494 0.0
C1152 C 0.99769 0.51111 0.29906 0.0
C1153 C 0.96569 0.5059 0.3093 0.0
C1154 C 0.97278 0.52995 0.32233 0.0
C1155 C 0.94257 0.52471 0.33201 0.0
C1156 C 0.90509 0.49567 0.32873 0.0
C1157 C 0.89772 0.47187 0.31573 0.0
C1158 C 0.92783 0.47697 0.30602 0.0
H1159 H 0.88174 0.49166 0.33624 0.0
H1160 H 0.1809 0.55835 0.24281 0.0
loop_
_geom_bond_atom_site_label_1
_geom_bond_atom_site_label_2
_geom_bond_distance
_geom_bond_site_symmetry_2
_ccdc_geom_bond_type
O0 Zn1 1.953 . S
O0 C16 1.225 . S
Zn1 O0 1.953 . S
Zn1 O2 1.949 . S
Zn1 O8 1.919 1_455 S
Zn1 O13 1.924 . S
O2 Zn1 1.949 . S
O2 Zn3 1.923 1_455 S
O2 Zn4 1.950 . S
O2 Zn5 1.945 . S
Zn3 O2 1.923 1_655 S
Zn3 O6 1.933 . S
Zn3 O9 1.941 . S
Zn3 O10 1.965 . S
Zn4 O2 1.950 . S
Zn4 O11 1.938 1_455 S
Zn4 O12 1.906 . S
Zn4 O22 1.953 . S
Zn5 O2 1.945 . S
Zn5 O7 1.932 . S
Zn5 O14 1.977 . S
Zn5 O15 1.910 . S
O6 Zn3 1.933 . S
O6 C17 1.226 1_655 S
O7 Zn5 1.932 . S
O7 C17 1.307 . S
O8 Zn1 1.919 1_655 S
O8 C19 1.253 . S
O9 Zn3 1.941 . S
O9 C19 1.283 . S
O10 Zn3 1.965 . S
O10 C18 1.303 . S
O11 Zn4 1.938 1_655 S
O11 C18 1.247 . S
O12 Zn4 1.906 . S
O12 C20 1.304 . S
O13 Zn1 1.924 . S
O13 C21 1.311 . S
O14 Zn5 1.977 . S
O14 C20 1.272 . S
O15 Zn5 1.910 . S
O15 C21 1.231 . S
C16 O0 1.225 . S
C16 O22 1.298 . S
C17 O6 1.226 1_455 S
C17 O7 1.307 . S
C18 O10 1.303 . S
C18 O11 1.247 . S
C19 O8 1.253 . S
C19 O9 1.283 . S
C20 O12 1.304 . S
C20 O14 1.272 . S
C21 O13 1.311 . S
C21 O15 1.231 . S
O22 Zn4 1.953 . S
O22 C16 1.298 . S
O23 Zn24 1.953 . S
O23 C39 1.225 . S
Zn24 O23 1.953 . S
Zn24 O25 1.949 . S
Zn24 O31 1.919 . S
Zn24 O36 1.924 1_545 S
O25 Zn24 1.949 . S
O25 Zn26 1.923 . S
O25 Zn27 1.950 . S
O25 Zn28 1.945 1_545 S
Zn26 O25 1.923 . S
Zn26 O29 1.933 . S
Zn26 O32 1.941 . S
Zn26 O33 1.965 . S
Zn27 O25 1.950 . S
Zn27 O34 1.938 . S
Zn27 O35 1.906 1_545 S
Zn27 O45 1.953 . S
Zn28 O25 1.945 1_565 S
Zn28 O30 1.932 . S
Zn28 O37 1.977 . S
Zn28 O38 1.910 . S
O29 Zn26 1.933 . S
O29 C40 1.226 . S
O30 Zn28 1.932 . S
O30 C40 1.307 1_565 S
O31 Zn24 1.919 . S
O31 C42 1.253 . S
O32 Zn26 1.941 . S
O32 C42 1.283 . S
O33 Zn26 1.965 . S
O33 C41 1.303 . S
O34 Zn27 1.938 . S
O34 C41 1.247 . S
O35 Zn27 1.906 1_565 S
O35 C43 1.304 . S
O36 Zn24 1.924 1_565 S
O36 C44 1.311 . S
O37 Zn28 1.977 . S
O37 C43 1.272 . S
O38 Zn28 1.910 . S
O38 C44 1.231 . S
C39 O23 1.225 . S
C39 O45 1.298 . S
C40 O29 1.226 . S
C40 O30 1.307 1_545 S
C41 O33 1.303 . S
C41 O34 1.247 . S
C42 O31 1.253 . S
C42 O32 1.283 . S
C43 O35 1.304 . S
C43 O37 1.272 . S
C44 O36 1.311 . S
C44 O38 1.231 . S
O45 Zn27 1.953 . S
O45 C39 1.298 . S
O46 Zn47 1.953 . S
O46 C62 1.225 . S
Zn47 O46 1.953 . S
Zn47 O48 1.949 . S
Zn47 O54 1.919 . S
Zn47 O59 1.924 . S
O48 Zn47 1.949 . S
O48 Zn49 1.923 . S
O48 Zn50 1.950 . S
O48 Zn51 1.945 . S
Zn49 O48 1.923 . S
Zn49 O52 1.933 . S
Zn49 O55 1.941 . S
Zn49 O56 1.965 . S
Zn50 O48 1.950 . S
Zn50 O57 1.938 . S
Zn50 O58 1.906 . S
Zn50 O68 1.953 . S
Zn51 O48 1.945 . S
Zn51 O53 1.932 . S
Zn51 O60 1.977 . S
Zn51 O61 1.910 . S
O52 Zn49 1.933 . S
O52 C63 1.226 . S
O53 Zn51 1.932 . S
O53 C63 1.307 . S
O54 Zn47 1.919 . S
O54 C65 1.253 . S
O55 Zn49 1.941 . S
O55 C65 1.283 . S
O56 Zn49 1.965 . S
O56 C64 1.303 . S
O57 Zn50 1.938 . S
O57 C64 1.247 . S
O58 Zn50 1.906 . S
O58 C66 1.304 . S
O59 Zn47 1.924 . S
O59 C67 1.311 . S
O60 Zn51 1.977 . S
O60 C66 1.272 . S
O61 Zn51 1.910 . S
O61 C67 1.231 . S
C62 O46 1.225 . S
C62 O68 1.298 . S
C63 O52 1.226 . S
C63 O53 1.307 . S
C64 O56 1.303 . S
C64 O57 1.247 . S
C65 O54 1.253 . S
C65 O55 1.283 . S
C66 O58 1.304 . S
C66 O60 1.272 . S
C67 O59 1.311 . S
C67 O61 1.231 . S
O68 Zn50 1.953 . S
O68 C62 1.298 . S
P69 O80 1.490 . S
P69 C83 1.812 . S
P69 C89 1.803 1_565 S
P69 C95 1.819 1_565 S
H70 C84 0.941 . S
H71 C85 0.939 . S
H72 C87 0.940 . S
H73 C88 0.940 . S
H74 C90 0.939 . S
H75 C91 0.942 . S
H76 C93 0.940 . S
H77 C94 0.939 . S
H78 C96 0.941 . S
H79 C100 0.939 . S
O80 P69 1.490 . S
H81 C97 0.939 . S
H82 C99 0.940 . S
C83 P69 1.812 . S
C83 C84 1.389 . S
C83 C88 1.391 . S
C84 H70 0.941 . S
C84 C83 1.389 . S
C84 C85 1.397 . S
C85 H71 0.939 . S
C85 C84 1.397 . S
C85 C86 1.378 . S
C86 C85 1.378 . S
C86 C87 1.378 . S
C87 H72 0.940 . S
C87 C86 1.378 . S
C87 C88 1.396 . S
C88 H73 0.940 . S
C88 C83 1.391 . S
C88 C87 1.396 . S
C89 P69 1.803 1_545 S
C89 C90 1.378 . S
C89 C94 1.400 . S
C90 H74 0.939 . S
C90 C89 1.378 . S
C90 C91 1.361 . S
C91 H75 0.942 . S
C91 C90 1.361 . S
C91 C92 1.369 . S
C92 C91 1.369 . S
C92 C93 1.404 . S
C93 H76 0.940 . S
C93 C92 1.404 . S
C93 C94 1.389 . S
C94 H77 0.939 . S
C94 C89 1.400 . S
C94 C93 1.389 . S
C95 P69 1.819 1_545 S
C95 C96 1.391 1_545 S
C95 C100 1.391 . S
C96 H78 0.941 . S
C96 C95 1.391 1_565 S
C96 C97 1.396 . S
C97 H81 0.939 . S
C97 C96 1.396 . S
C97 C98 1.397 1_565 S
C98 C97 1.397 1_545 S
C98 C99 1.385 . S
C99 H82 0.940 . S
C99 C98 1.385 . S
C99 C100 1.388 . S
C100 H79 0.939 . S
C100 C95 1.391 . S
C100 C99 1.388 . S
P101 O112 1.490 . S
P101 C115 1.812 . S
P101 C121 1.803 . S
P101 C127 1.819 . S
H102 C116 0.941 . S
H103 C117 0.939 . S
H104 C119 0.940 . S
H105 C120 0.940 . S
H106 C122 0.939 . S
H107 C123 0.942 . S
H108 C125 0.940 . S
H109 C126 0.939 . S
H110 C128 0.941 . S
H111 C132 0.939 . S
O112 P101 1.490 . S
H113 C129 0.939 . S
H114 C131 0.940 . S
C115 P101 1.812 . S
C115 C116 1.389 . S
C115 C120 1.391 . S
C116 H102 0.941 . S
C116 C115 1.389 . S
C116 C117 1.397 . S
C117 H103 0.939 . S
C117 C116 1.397 . S
C117 C118 1.378 . S
C118 C117 1.378 . S
C118 C119 1.378 . S
C119 H104 0.940 . S
C119 C118 1.378 . S
C119 C120 1.396 . S
C120 H105 0.940 . S
C120 C115 1.391 . S
C120 C119 1.396 . S
C121 P101 1.803 . S
C121 C122 1.378 . S
C121 C126 1.400 . S
C122 H106 0.939 . S
C122 C121 1.378 . S
C122 C123 1.361 . S
C123 H107 0.942 . S
C123 C122 1.361 . S
C123 C124 1.369 . S
C124 C123 1.369 . S
C124 C125 1.404 . S
C125 H108 0.940 . S
C125 C124 1.404 . S
C125 C126 1.389 . S
C126 H109 0.939 . S
C126 C121 1.400 . S
C126 C125 1.389 . S
C127 P101 1.819 . S
C127 C128 1.391 . S
C127 C132 1.391 . S
C128 H110 0.941 . S
C128 C127 1.391 . S
C128 C129 1.396 . S
C129 H113 0.939 . S
C129 C128 1.396 . S
C129 C130 1.397 . S
C130 C129 1.397 . S
C130 C131 1.385 . S
C131 H114 0.940 . S
C131 C130 1.385 . S
C131 C132 1.388 . S
C132 H111 0.939 . S
C132 C127 1.391 . S
C132 C131 1.388 . S
P133 O144 1.490 . S
P133 C147 1.812 . S
P133 C153 1.803 . S
P133 C159 1.819 . S
H134 C148 0.941 . S
H135 C149 0.939 . S
H136 C151 0.940 . S
H137 C152 0.940 . S
H138 C154 0.939 . S
H139 C155 0.942 . S
H140 C157 0.940 . S
H141 C158 0.939 . S
H142 C160 0.941 . S
H143 C164 0.939 1_655 S
O144 P133 1.490 . S
H145 C161 0.939 . S
H146 C163 0.940 . S
C147 P133 1.812 . S
C147 C148 1.389 . S
C147 C152 1.391 . S
C148 H134 0.941 . S
C148 C147 1.389 . S
C148 C149 1.397 . S
C149 H135 0.939 . S
C149 C148 1.397 . S
C149 C150 1.378 . S
C150 C149 1.378 . S
C150 C151 1.378 . S
C151 H136 0.940 . S
C151 C150 1.378 . S
C151 C152 1.396 . S
C152 H137 0.940 . S
C152 C147 1.391 . S
C152 C151 1.396 . S
C153 P133 1.803 . S
C153 C154 1.378 1_455 S
C153 C158 1.400 1_455 S
C154 H138 0.939 . S
C154 C153 1.378 1_655 S
C154 C155 1.361 . S
C155 H139 0.942 . S
C155 C154 1.361 . S
C155 C156 1.369 . S
C156 C155 1.369 . S
C156 C157 1.404 . S
C157 H140 0.940 . S
C157 C156 1.404 . S
C157 C158 1.389 . S
C158 H141 0.939 . S
C158 C153 1.400 1_655 S
C158 C157 1.389 . S
C159 P133 1.819 . S
C159 C160 1.391 . S
C159 C164 1.391 . S
C160 H142 0.941 . S
C160 C159 1.391 . S
C160 C161 1.396 . S
C161 H145 0.939 . S
C161 C160 1.396 . S
C161 C162 1.397 . S
C162 C161 1.397 . S
C162 C163 1.385 1_455 S
C163 H146 0.940 . S
C163 C162 1.385 1_655 S
C163 C164 1.388 1_655 S
C164 H143 0.939 1_455 S
C164 C159 1.391 . S
C164 C163 1.388 1_455 S
P165 O176 1.490 . S
P165 C179 1.812 . S
P165 C185 1.803 1_455 S
P165 C191 1.819 . S
H166 C180 0.941 . S
H167 C181 0.939 . S
H168 C183 0.940 . S
H169 C184 0.940 . S
H170 C186 0.939 . S
H171 C187 0.942 . S
H172 C189 0.940 . S
H173 C190 0.939 . S
H174 C192 0.941 . S
H175 C196 0.939 . S
O176 P165 1.490 . S
H177 C193 0.939 . S
H178 C195 0.940 . S
C179 P165 1.812 . S
C179 C180 1.389 . S
C179 C184 1.391 . S
C180 H166 0.941 . S
C180 C179 1.389 . S
C180 C181 1.397 . S
C181 H167 0.939 . S
C181 C180 1.397 . S
C181 C182 1.378 . S
C182 C181 1.378 . S
C182 C183 1.378 . S
C183 H168 0.940 . S
C183 C182 1.378 . S
C183 C184 1.396 . S
C184 H169 0.940 . S
C184 C179 1.391 . S
C184 C183 1.396 . S
C185 P165 1.803 1_655 S
C185 C186 1.378 . S
C185 C190 1.400 . S
C186 H170 0.939 . S
C186 C185 1.378 . S
C186 C187 1.361 . S
C187 H171 0.942 . S
C187 C186 1.361 . S
C187 C188 1.369 . S
C188 C187 1.369 . S
C188 C189 1.404 . S
C189 H172 0.940 . S
C189 C188 1.404 . S
C189 C190 1.389 . S
C190 H173 0.939 . S
C190 C185 1.400 . S
C190 C189 1.389 . S
C191 P165 1.819 . S
C191 C192 1.391 . S
C191 C196 1.391 1_455 S
C192 H174 0.941 . S
C192 C191 1.391 . S
C192 C193 1.396 . S
C193 H177 0.939 . S
C193 C192 1.396 . S
C193 C194 1.397 . S
C194 C193 1.397 . S
C194 C195 1.385 1_455 S
C195 H178 0.940 . S
C195 C194 1.385 1_655 S
C195 C196 1.388 . S
C196 H175 0.939 . S
C196 C191 1.391 1_655 S
C196 C195 1.388 . S
P197 O208 1.490 . S
P197 C211 1.812 . S
P197 C217 1.803 1_545 S
P197 C223 1.819 . S
H198 C212 0.941 . S
H199 C213 0.939 . S
H200 C215 0.940 . S
H201 C216 0.940 . S
H202 C218 0.939 . S
H203 C219 0.942 . S
H204 C221 0.940 . S
H205 C222 0.939 . S
H206 C224 0.941 . S
H207 C228 0.939 . S
O208 P197 1.490 . S
H209 C225 0.939 . S
H210 C227 0.940 . S
C211 P197 1.812 . S
C211 C212 1.389 . S
C211 C216 1.391 . S
C212 H198 0.941 . S
C212 C211 1.389 . S
C212 C213 1.397 . S
C213 H199 0.939 . S
C213 C212 1.397 . S
C213 C214 1.378 . S
C214 C213 1.378 . S
C214 C215 1.378 . S
C215 H200 0.940 . S
C215 C214 1.378 . S
C215 C216 1.396 . S
C216 H201 0.940 . S
C216 C211 1.391 . S
C216 C215 1.396 . S
C217 P197 1.803 1_565 S
C217 C218 1.378 . S
C217 C222 1.400 . S
C218 H202 0.939 . S
C218 C217 1.378 . S
C218 C219 1.361 . S
C219 H203 0.942 . S
C219 C218 1.361 . S
C219 C220 1.369 . S
C220 C219 1.369 . S
C220 C221 1.404 . S
C221 H204 0.940 . S
C221 C220 1.404 . S
C221 C222 1.389 . S
C222 H205 0.939 . S
C222 C217 1.400 . S
C222 C221 1.389 . S
C223 P197 1.819 . S
C223 C224 1.391 . S
C223 C228 1.391 1_545 S
C224 H206 0.941 . S
C224 C223 1.391 . S
C224 C225 1.396 . S
C225 H209 0.939 . S
C225 C224 1.396 . S
C225 C226 1.397 . S
C226 C225 1.397 . S
C226 C227 1.385 1_545 S
C227 H210 0.940 . S
C227 C226 1.385 1_565 S
C227 C228 1.388 . S
C228 H207 0.939 . S
C228 C223 1.391 1_565 S
C228 C227 1.388 . S
P229 O240 1.490 . S
P229 C243 1.812 . S
P229 C249 1.803 . S
P229 C255 1.819 . S
H230 C244 0.941 . S
H231 C245 0.939 . S
H232 C247 0.940 . S
H233 C248 0.940 . S
H234 C250 0.939 . S
H235 C251 0.942 . S
H236 C253 0.940 . S
H237 C254 0.939 . S
H238 C256 0.941 . S
H239 C260 0.939 . S
O240 P229 1.490 . S
H241 C257 0.939 . S
H242 C259 0.940 . S
C243 P229 1.812 . S
C243 C244 1.389 . S
C243 C248 1.391 . S
C244 H230 0.941 . S
C244 C243 1.389 . S
C244 C245 1.397 . S
C245 H231 0.939 . S
C245 C244 1.397 . S
C245 C246 1.378 . S
C246 C245 1.378 . S
C246 C247 1.378 . S
C247 H232 0.940 . S
C247 C246 1.378 . S
C247 C248 1.396 . S
C248 H233 0.940 . S
C248 C243 1.391 . S
C248 C247 1.396 . S
C249 P229 1.803 . S
C249 C250 1.378 . S
C249 C254 1.400 . S
C250 H234 0.939 . S
C250 C249 1.378 . S
C250 C251 1.361 . S
C251 H235 0.942 . S
C251 C250 1.361 . S
C251 C252 1.369 . S
C252 C251 1.369 . S
C252 C253 1.404 . S
C253 H236 0.940 . S
C253 C252 1.404 . S
C253 C254 1.389 . S
C254 H237 0.939 . S
C254 C249 1.400 . S
C254 C253 1.389 . S
C255 P229 1.819 . S
C255 C256 1.391 . S
C255 C260 1.391 . S
C256 H238 0.941 . S
C256 C255 1.391 . S
C256 C257 1.396 . S
C257 H241 0.939 . S
C257 C256 1.396 . S
C257 C258 1.397 . S
C258 C257 1.397 . S
C258 C259 1.385 . S
C259 H242 0.940 . S
C259 C258 1.385 . S
C259 C260 1.388 . S
C260 H239 0.939 . S
C260 C255 1.391 . S
C260 C259 1.388 . S
H261 C279 0.951 . S
H262 C281 0.951 . S
H263 C283 0.950 . S
H264 C284 0.950 . S
H265 C286 0.950 . S
H266 C289 0.950 . S
H267 C290 0.950 . S
H268 C292 0.950 . S
H269 C293 0.950 . S
H270 C294 0.951 . S
H271 C296 0.951 . S
H272 C298 0.950 . S
H273 C299 0.950 . S
H274 C301 0.950 . S
H275 C304 0.950 . S
H276 C305 0.950 . S
H277 C307 0.950 . S
H278 C308 0.950 . S
C279 H261 0.951 . S
C279 C280 1.366 . S
C279 C281 1.388 . S
C280 C279 1.366 . S
C280 C284 1.385 . S
C281 H262 0.951 . S
C281 C279 1.388 . S
C281 C282 1.366 . S
C282 C281 1.366 . S
C282 C283 1.414 . S
C282 C285 1.499 . S
C283 H263 0.950 . S
C283 C282 1.414 . S
C283 C284 1.374 . S
C284 H264 0.950 . S
C284 C280 1.385 . S
C284 C283 1.374 . S
C285 C282 1.499 . S
C285 C286 1.373 . S
C285 C287 1.389 . S
C286 H265 0.950 . S
C286 C285 1.373 . S
C286 C302 1.377 . S
C287 C285 1.389 . S
C287 C288 1.524 . S
C287 C301 1.377 . S
C288 C287 1.524 . S
C288 C289 1.397 . S
C288 C293 1.363 . S
C289 H266 0.950 . S
C289 C288 1.397 . S
C289 C290 1.334 . S
C290 H267 0.950 . S
C290 C289 1.334 . S
C290 C291 1.287 . S
C291 C290 1.287 . S
C291 C292 1.524 . S
C291 H310 0.913 . S
C292 H268 0.950 . S
C292 C291 1.524 . S
C292 C293 1.415 . S
C293 H269 0.950 . S
C293 C288 1.363 . S
C293 C292 1.415 . S
C294 H270 0.951 . S
C294 C295 1.366 . S
C294 C296 1.388 . S
C295 C294 1.366 . S
C295 C299 1.385 . S
C296 H271 0.951 . S
C296 C294 1.388 . S
C296 C297 1.366 . S
C297 C296 1.366 . S
C297 C298 1.414 . S
C297 C300 1.499 . S
C298 H272 0.950 . S
C298 C297 1.414 . S
C298 C299 1.374 . S
C299 H273 0.950 . S
C299 C295 1.385 . S
C299 C298 1.374 . S
C300 C297 1.499 . S
C300 C301 1.373 . S
C300 C302 1.389 . S
C301 H274 0.950 . S
C301 C287 1.377 . S
C301 C300 1.373 . S
C302 C286 1.377 . S
C302 C300 1.389 . S
C302 C303 1.524 . S
C303 C302 1.524 . S
C303 C304 1.397 . S
C303 C308 1.363 . S
C304 H275 0.950 . S
C304 C303 1.397 . S
C304 C305 1.334 . S
C305 H276 0.950 . S
C305 C304 1.334 . S
C305 C306 1.287 . S
C306 C305 1.287 . S
C306 C307 1.524 . S
C306 H309 0.999 . S
C307 H277 0.950 . S
C307 C306 1.524 . S
C307 C308 1.415 . S
C308 H278 0.950 . S
C308 C303 1.363 . S
C308 C307 1.415 . S
H309 C306 0.999 . S
H310 C291 0.913 . S
H311 C329 0.951 . S
H312 C331 0.951 . S
H313 C333 0.950 . S
H314 C334 0.950 . S
H315 C336 0.950 . S
H316 C339 0.950 . S
H317 C340 0.950 . S
H318 C342 0.950 . S
H319 C343 0.950 . S
H320 C344 0.951 . S
H321 C346 0.951 . S
H322 C348 0.950 . S
H323 C349 0.950 . S
H324 C351 0.950 . S
H325 C354 0.950 . S
H326 C355 0.950 . S
H327 C357 0.950 . S
H328 C358 0.950 . S
C329 H311 0.951 . S
C329 C330 1.366 . S
C329 C331 1.388 . S
C330 C329 1.366 . S
C330 C334 1.385 . S
C331 H312 0.951 . S
C331 C329 1.388 . S
C331 C332 1.366 . S
C332 C331 1.366 . S
C332 C333 1.414 . S
C332 C335 1.499 . S
C333 H313 0.950 . S
C333 C332 1.414 . S
C333 C334 1.374 . S
C334 H314 0.950 . S
C334 C330 1.385 . S
C334 C333 1.374 . S
C335 C332 1.499 . S
C335 C336 1.373 . S
C335 C337 1.389 . S
C336 H315 0.950 . S
C336 C335 1.373 . S
C336 C352 1.377 . S
C337 C335 1.389 . S
C337 C338 1.524 . S
C337 C351 1.377 . S
C338 C337 1.524 . S
C338 C339 1.397 . S
C338 C343 1.363 . S
C339 H316 0.950 . S
C339 C338 1.397 . S
C339 C340 1.334 . S
C340 H317 0.950 . S
C340 C339 1.334 . S
C340 C341 1.287 . S
C341 C340 1.287 . S
C341 C342 1.524 . S
C341 H360 0.913 . S
C342 H318 0.950 . S
C342 C341 1.524 . S
C342 C343 1.415 . S
C343 H319 0.950 . S
C343 C338 1.363 . S
C343 C342 1.415 . S
C344 H320 0.951 . S
C344 C345 1.366 . S
C344 C346 1.388 . S
C345 C344 1.366 . S
C345 C349 1.385 . S
C346 H321 0.951 . S
C346 C344 1.388 . S
C346 C347 1.366 . S
C347 C346 1.366 . S
C347 C348 1.414 . S
C347 C350 1.499 . S
C348 H322 0.950 . S
C348 C347 1.414 . S
C348 C349 1.374 . S
C349 H323 0.950 . S
C349 C345 1.385 . S
C349 C348 1.374 . S
C350 C347 1.499 . S
C350 C351 1.373 . S
C350 C352 1.389 . S
C351 H324 0.950 . S
C351 C337 1.377 . S
C351 C350 1.373 . S
C352 C336 1.377 . S
C352 C350 1.389 . S
C352 C353 1.524 . S
C353 C352 1.524 . S
C353 C354 1.397 . S
C353 C358 1.363 . S
C354 H325 0.950 . S
C354 C353 1.397 . S
C354 C355 1.334 . S
C355 H326 0.950 . S
C355 C354 1.334 . S
C355 C356 1.287 . S
C356 C355 1.287 . S
C356 C357 1.524 . S
C356 H359 0.999 . S
C357 H327 0.950 . S
C357 C356 1.524 . S
C357 C358 1.415 . S
C358 H328 0.950 . S
C358 C353 1.363 . S
C358 C357 1.415 . S
H359 C356 0.999 . S
H360 C341 0.913 . S
H361 C379 0.951 . S
H362 C381 0.951 . S
H363 C383 0.950 . S
H364 C384 0.950 . S
H365 C386 0.950 . S
H366 C389 0.950 . S
H367 C390 0.950 . S
H368 C392 0.950 . S
H369 C393 0.950 . S
H370 C394 0.951 . S
H371 C396 0.951 . S
H372 C398 0.950 . S
H373 C399 0.950 . S
H374 C401 0.950 . S
H375 C404 0.950 . S
H376 C405 0.950 . S
H377 C407 0.950 . S
H378 C408 0.950 . S
C379 H361 0.951 . S
C379 C380 1.366 . S
C379 C381 1.388 . S
C380 C379 1.366 . S
C380 C384 1.385 . S
C381 H362 0.951 . S
C381 C379 1.388 . S
C381 C382 1.366 . S
C382 C381 1.366 . S
C382 C383 1.414 . S
C382 C385 1.499 . S
C383 H363 0.950 . S
C383 C382 1.414 . S
C383 C384 1.374 . S
C384 H364 0.950 . S
C384 C380 1.385 . S
C384 C383 1.374 . S
C385 C382 1.499 . S
C385 C386 1.373 . S
C385 C387 1.389 . S
C386 H365 0.950 . S
C386 C385 1.373 . S
C386 C402 1.377 . S
C387 C385 1.389 . S
C387 C388 1.524 . S
C387 C401 1.377 . S
C388 C387 1.524 . S
C388 C389 1.397 . S
C388 C393 1.363 . S
C389 H366 0.950 . S
C389 C388 1.397 . S
C389 C390 1.334 . S
C390 H367 0.950 . S
C390 C389 1.334 . S
C390 C391 1.287 . S
C391 C390 1.287 . S
C391 C392 1.524 . S
C391 H410 0.913 . S
C392 H368 0.950 . S
C392 C391 1.524 . S
C392 C393 1.415 . S
C393 H369 0.950 . S
C393 C388 1.363 . S
C393 C392 1.415 . S
C394 H370 0.951 . S
C394 C395 1.366 . S
C394 C396 1.388 . S
C395 C394 1.366 . S
C395 C399 1.385 . S
C396 H371 0.951 . S
C396 C394 1.388 . S
C396 C397 1.366 . S
C397 C396 1.366 . S
C397 C398 1.414 . S
C397 C400 1.499 . S
C398 H372 0.950 . S
C398 C397 1.414 . S
C398 C399 1.374 . S
C399 H373 0.950 . S
C399 C395 1.385 . S
C399 C398 1.374 . S
C400 C397 1.499 . S
C400 C401 1.373 . S
C400 C402 1.389 . S
C401 H374 0.950 . S
C401 C387 1.377 . S
C401 C400 1.373 . S
C402 C386 1.377 . S
C402 C400 1.389 . S
C402 C403 1.524 . S
C403 C402 1.524 . S
C403 C404 1.397 . S
C403 C408 1.363 . S
C404 H375 0.950 . S
C404 C403 1.397 . S
C404 C405 1.334 . S
C405 H376 0.950 . S
C405 C404 1.334 . S
C405 C406 1.287 . S
C406 C405 1.287 . S
C406 C407 1.524 . S
C406 H409 0.999 . S
C407 H377 0.950 . S
C407 C406 1.524 . S
C407 C408 1.415 . S
C408 H378 0.950 . S
C408 C403 1.363 . S
C408 C407 1.415 . S
H409 C406 0.999 . S
H410 C391 0.913 . S
H411 C429 0.951 . S
H412 C431 0.951 . S
H413 C433 0.950 . S
H414 C434 0.950 . S
H415 C436 0.950 . S
H416 C439 0.950 . S
H417 C440 0.950 . S
H418 C442 0.950 . S
H419 C443 0.950 . S
H420 C444 0.951 . S
H421 C446 0.951 . S
H422 C448 0.950 . S
H423 C449 0.950 . S
H424 C451 0.950 . S
H425 C454 0.950 . S
H426 C455 0.950 . S
H427 C457 0.950 . S
H428 C458 0.950 . S
C429 H411 0.951 . S
C429 C430 1.366 . S
C429 C431 1.388 . S
C430 C429 1.366 . S
C430 C434 1.385 . S
C431 H412 0.951 . S
C431 C429 1.388 . S
C431 C432 1.366 . S
C432 C431 1.366 . S
C432 C433 1.414 . S
C432 C435 1.499 . S
C433 H413 0.950 . S
C433 C432 1.414 . S
C433 C434 1.374 . S
C434 H414 0.950 . S
C434 C430 1.385 . S
C434 C433 1.374 . S
C435 C432 1.499 . S
C435 C436 1.373 . S
C435 C437 1.389 . S
C436 H415 0.950 . S
C436 C435 1.373 . S
C436 C452 1.377 . S
C437 C435 1.389 . S
C437 C438 1.524 . S
C437 C451 1.377 . S
C438 C437 1.524 . S
C438 C439 1.397 . S
C438 C443 1.363 . S
C439 H416 0.950 . S
C439 C438 1.397 . S
C439 C440 1.334 . S
C440 H417 0.950 . S
C440 C439 1.334 . S
C440 C441 1.287 . S
C441 C440 1.287 . S
C441 C442 1.524 . S
C441 H460 0.913 . S
C442 H418 0.950 . S
C442 C441 1.524 . S
C442 C443 1.415 . S
C443 H419 0.950 . S
C443 C438 1.363 . S
C443 C442 1.415 . S
C444 H420 0.951 . S
C444 C445 1.366 . S
C444 C446 1.388 . S
C445 C444 1.366 . S
C445 C449 1.385 . S
C446 H421 0.951 . S
C446 C444 1.388 . S
C446 C447 1.366 . S
C447 C446 1.366 . S
C447 C448 1.414 . S
C447 C450 1.499 . S
C448 H422 0.950 . S
C448 C447 1.414 . S
C448 C449 1.374 . S
C449 H423 0.950 . S
C449 C445 1.385 . S
C449 C448 1.374 . S
C450 C447 1.499 . S
C450 C451 1.373 . S
C450 C452 1.389 . S
C451 H424 0.950 . S
C451 C437 1.377 . S
C451 C450 1.373 . S
C452 C436 1.377 . S
C452 C450 1.389 . S
C452 C453 1.524 . S
C453 C452 1.524 . S
C453 C454 1.397 . S
C453 C458 1.363 . S
C454 H425 0.950 . S
C454 C453 1.397 . S
C454 C455 1.334 . S
C455 H426 0.950 . S
C455 C454 1.334 . S
C455 C456 1.287 . S
C456 C455 1.287 . S
C456 C457 1.524 . S
C456 H459 0.999 . S
C457 H427 0.950 . S
C457 C456 1.524 . S
C457 C458 1.415 . S
C458 H428 0.950 . S
C458 C453 1.363 . S
C458 C457 1.415 . S
H459 C456 0.999 . S
H460 C441 0.913 . S
H461 C479 0.951 . S
H462 C481 0.951 . S
H463 C483 0.950 . S
H464 C484 0.950 . S
H465 C486 0.950 . S
H466 C489 0.950 . S
H467 C490 0.950 . S
H468 C492 0.950 . S
H469 C493 0.950 . S
H470 C494 0.951 . S
H471 C496 0.951 . S
H472 C498 0.950 . S
H473 C499 0.950 . S
H474 C501 0.950 . S
H475 C504 0.950 . S
H476 C505 0.950 . S
H477 C507 0.950 . S
H478 C508 0.950 . S
C479 H461 0.951 . S
C479 C480 1.366 . S
C479 C481 1.388 . S
C480 C479 1.366 . S
C480 C484 1.385 . S
C481 H462 0.951 . S
C481 C479 1.388 . S
C481 C482 1.366 . S
C482 C481 1.366 . S
C482 C483 1.414 . S
C482 C485 1.499 . S
C483 H463 0.950 . S
C483 C482 1.414 . S
C483 C484 1.374 . S
C484 H464 0.950 . S
C484 C480 1.385 . S
C484 C483 1.374 . S
C485 C482 1.499 . S
C485 C486 1.373 . S
C485 C487 1.389 . S
C486 H465 0.950 . S
C486 C485 1.373 . S
C486 C502 1.377 . S
C487 C485 1.389 . S
C487 C488 1.524 . S
C487 C501 1.377 . S
C488 C487 1.524 . S
C488 C489 1.397 . S
C488 C493 1.363 . S
C489 H466 0.950 . S
C489 C488 1.397 . S
C489 C490 1.334 . S
C490 H467 0.950 . S
C490 C489 1.334 . S
C490 C491 1.287 . S
C491 C490 1.287 . S
C491 C492 1.524 . S
C491 H510 0.913 . S
C492 H468 0.950 . S
C492 C491 1.524 . S
C492 C493 1.415 . S
C493 H469 0.950 . S
C493 C488 1.363 . S
C493 C492 1.415 . S
C494 H470 0.951 . S
C494 C495 1.366 . S
C494 C496 1.388 . S
C495 C494 1.366 . S
C495 C499 1.385 . S
C496 H471 0.951 . S
C496 C494 1.388 . S
C496 C497 1.366 . S
C497 C496 1.366 . S
C497 C498 1.414 . S
C497 C500 1.499 . S
C498 H472 0.950 . S
C498 C497 1.414 . S
C498 C499 1.374 . S
C499 H473 0.950 . S
C499 C495 1.385 . S
C499 C498 1.374 . S
C500 C497 1.499 . S
C500 C501 1.373 . S
C500 C502 1.389 . S
C501 H474 0.950 . S
C501 C487 1.377 . S
C501 C500 1.373 . S
C502 C486 1.377 . S
C502 C500 1.389 . S
C502 C503 1.524 . S
C503 C502 1.524 . S
C503 C504 1.397 . S
C503 C508 1.363 . S
C504 H475 0.950 . S
C504 C503 1.397 . S
C504 C505 1.334 . S
C505 H476 0.950 . S
C505 C504 1.334 . S
C505 C506 1.287 . S
C506 C505 1.287 . S
C506 C507 1.524 . S
C506 H509 0.999 . S
C507 H477 0.950 . S
C507 C506 1.524 . S
C507 C508 1.415 . S
C508 H478 0.950 . S
C508 C503 1.363 . S
C508 C507 1.415 . S
H509 C506 0.999 . S
H510 C491 0.913 . S
H511 C529 0.951 . S
H512 C531 0.951 . S
H513 C533 0.950 . S
H514 C534 0.950 . S
H515 C536 0.950 . S
H516 C539 0.950 . S
H517 C540 0.950 . S
H518 C542 0.950 . S
H519 C543 0.950 . S
H520 C544 0.951 . S
H521 C546 0.951 . S
H522 C548 0.950 . S
H523 C549 0.950 . S
H524 C551 0.950 . S
H525 C554 0.950 . S
H526 C555 0.950 . S
H527 C557 0.950 . S
H528 C558 0.950 . S
C529 H511 0.951 . S
C529 C530 1.366 . S
C529 C531 1.388 . S
C530 C529 1.366 . S
C530 C534 1.385 . S
C531 H512 0.951 . S
C531 C529 1.388 . S
C531 C532 1.366 . S
C532 C531 1.366 . S
C532 C533 1.414 . S
C532 C535 1.499 . S
C533 H513 0.950 . S
C533 C532 1.414 . S
C533 C534 1.374 . S
C534 H514 0.950 . S
C534 C530 1.385 . S
C534 C533 1.374 . S
C535 C532 1.499 . S
C535 C536 1.373 . S
C535 C537 1.389 . S
C536 H515 0.950 . S
C536 C535 1.373 . S
C536 C552 1.377 . S
C537 C535 1.389 . S
C537 C538 1.524 . S
C537 C551 1.377 . S
C538 C537 1.524 . S
C538 C539 1.397 . S
C538 C543 1.363 . S
C539 H516 0.950 . S
C539 C538 1.397 . S
C539 C540 1.334 . S
C540 H517 0.950 . S
C540 C539 1.334 . S
C540 C541 1.287 . S
C541 C540 1.287 . S
C541 C542 1.524 . S
C541 H560 0.913 . S
C542 H518 0.950 . S
C542 C541 1.524 . S
C542 C543 1.415 . S
C543 H519 0.950 . S
C543 C538 1.363 . S
C543 C542 1.415 . S
C544 H520 0.951 . S
C544 C545 1.366 . S
C544 C546 1.388 . S
C545 C544 1.366 . S
C545 C549 1.385 . S
C546 H521 0.951 . S
C546 C544 1.388 . S
C546 C547 1.366 . S
C547 C546 1.366 . S
C547 C548 1.414 . S
C547 C550 1.499 . S
C548 H522 0.950 . S
C548 C547 1.414 . S
C548 C549 1.374 . S
C549 H523 0.950 . S
C549 C545 1.385 . S
C549 C548 1.374 . S
C550 C547 1.499 . S
C550 C551 1.373 . S
C550 C552 1.389 . S
C551 H524 0.950 . S
C551 C537 1.377 . S
C551 C550 1.373 . S
C552 C536 1.377 . S
C552 C550 1.389 . S
C552 C553 1.524 . S
C553 C552 1.524 . S
C553 C554 1.397 . S
C553 C558 1.363 . S
C554 H525 0.950 . S
C554 C553 1.397 . S
C554 C555 1.334 . S
C555 H526 0.950 . S
C555 C554 1.334 . S
C555 C556 1.287 . S
C556 C555 1.287 . S
C556 C557 1.524 . S
C556 H559 0.999 . S
C557 H527 0.950 . S
C557 C556 1.524 . S
C557 C558 1.415 . S
C558 H528 0.950 . S
C558 C553 1.363 . S
C558 C557 1.415 . S
H559 C556 0.999 . S
H560 C541 0.913 . S
H561 C579 0.951 . S
H562 C581 0.951 . S
H563 C583 0.950 . S
H564 C584 0.950 . S
H565 C586 0.950 . S
H566 C589 0.950 . S
H567 C590 0.950 . S
H568 C592 0.950 . S
H569 C593 0.950 . S
H570 C594 0.951 . S
H571 C596 0.951 . S
H572 C598 0.950 . S
H573 C599 0.950 . S
H574 C601 0.950 . S
H575 C604 0.950 . S
H576 C605 0.950 . S
H577 C607 0.950 . S
H578 C608 0.950 . S
C579 H561 0.951 . S
C579 C580 1.366 . S
C579 C581 1.388 . S
C580 C579 1.366 . S
C580 C584 1.385 . S
C581 H562 0.951 . S
C581 C579 1.388 . S
C581 C582 1.366 . S
C582 C581 1.366 . S
C582 C583 1.414 . S
C582 C585 1.499 . S
C583 H563 0.950 . S
C583 C582 1.414 . S
C583 C584 1.374 . S
C584 H564 0.950 . S
C584 C580 1.385 . S
C584 C583 1.374 . S
C585 C582 1.499 . S
C585 C586 1.373 . S
C585 C587 1.389 . S
C586 H565 0.950 . S
C586 C585 1.373 . S
C586 C602 1.377 . S
C587 C585 1.389 . S
C587 C588 1.524 . S
C587 C601 1.377 . S
C588 C587 1.524 . S
C588 C589 1.397 . S
C588 C593 1.363 . S
C589 H566 0.950 . S
C589 C588 1.397 . S
C589 C590 1.334 . S
C590 H567 0.950 . S
C590 C589 1.334 . S
C590 C591 1.287 . S
C591 C590 1.287 . S
C591 C592 1.524 . S
C591 H610 0.913 . S
C592 H568 0.950 . S
C592 C591 1.524 . S
C592 C593 1.415 . S
C593 H569 0.950 . S
C593 C588 1.363 . S
C593 C592 1.415 . S
C594 H570 0.951 . S
C594 C595 1.366 . S
C594 C596 1.388 . S
C595 C594 1.366 . S
C595 C599 1.385 . S
C596 H571 0.951 . S
C596 C594 1.388 . S
C596 C597 1.366 . S
C597 C596 1.366 . S
C597 C598 1.414 . S
C597 C600 1.499 . S
C598 H572 0.950 . S
C598 C597 1.414 . S
C598 C599 1.374 . S
C599 H573 0.950 . S
C599 C595 1.385 . S
C599 C598 1.374 . S
C600 C597 1.499 . S
C600 C601 1.373 . S
C600 C602 1.389 . S
C601 H574 0.950 . S
C601 C587 1.377 . S
C601 C600 1.373 . S
C602 C586 1.377 . S
C602 C600 1.389 . S
C602 C603 1.524 . S
C603 C602 1.524 . S
C603 C604 1.397 . S
C603 C608 1.363 . S
C604 H575 0.950 . S
C604 C603 1.397 . S
C604 C605 1.334 . S
C605 H576 0.950 . S
C605 C604 1.334 . S
C605 C606 1.287 . S
C606 C605 1.287 . S
C606 C607 1.524 . S
C606 H609 0.999 . S
C607 H577 0.950 . S
C607 C606 1.524 . S
C607 C608 1.415 . S
C608 H578 0.950 . S
C608 C603 1.363 . S
C608 C607 1.415 . S
H609 C606 0.999 . S
H610 C591 0.913 . S
H611 C629 0.951 . S
H612 C631 0.951 . S
H613 C633 0.950 . S
H614 C634 0.950 . S
H615 C636 0.950 . S
H616 C639 0.950 . S
H617 C640 0.950 . S
H618 C642 0.950 . S
H619 C643 0.950 . S
H620 C644 0.951 . S
H621 C646 0.951 . S
H622 C648 0.950 . S
H623 C649 0.950 . S
H624 C651 0.950 . S
H625 C654 0.950 . S
H626 C655 0.950 . S
H627 C657 0.950 . S
H628 C658 0.950 . S
C629 H611 0.951 . S
C629 C630 1.366 . S
C629 C631 1.388 . S
C630 C629 1.366 . S
C630 C634 1.385 . S
C631 H612 0.951 . S
C631 C629 1.388 . S
C631 C632 1.366 . S
C632 C631 1.366 . S
C632 C633 1.414 . S
C632 C635 1.499 . S
C633 H613 0.950 . S
C633 C632 1.414 . S
C633 C634 1.374 . S
C634 H614 0.950 . S
C634 C630 1.385 . S
C634 C633 1.374 . S
C635 C632 1.499 . S
C635 C636 1.373 . S
C635 C637 1.389 . S
C636 H615 0.950 . S
C636 C635 1.373 . S
C636 C652 1.377 . S
C637 C635 1.389 . S
C637 C638 1.524 . S
C637 C651 1.377 . S
C638 C637 1.524 . S
C638 C639 1.397 . S
C638 C643 1.363 . S
C639 H616 0.950 . S
C639 C638 1.397 . S
C639 C640 1.334 . S
C640 H617 0.950 . S
C640 C639 1.334 . S
C640 C641 1.287 . S
C641 C640 1.287 . S
C641 C642 1.524 . S
C641 H660 0.913 . S
C642 H618 0.950 . S
C642 C641 1.524 . S
C642 C643 1.415 . S
C643 H619 0.950 . S
C643 C638 1.363 . S
C643 C642 1.415 . S
C644 H620 0.951 . S
C644 C645 1.366 . S
C644 C646 1.388 . S
C645 C644 1.366 . S
C645 C649 1.385 . S
C646 H621 0.951 . S
C646 C644 1.388 . S
C646 C647 1.366 . S
C647 C646 1.366 . S
C647 C648 1.414 . S
C647 C650 1.499 . S
C648 H622 0.950 . S
C648 C647 1.414 . S
C648 C649 1.374 . S
C649 H623 0.950 . S
C649 C645 1.385 . S
C649 C648 1.374 . S
C650 C647 1.499 . S
C650 C651 1.373 . S
C650 C652 1.389 . S
C651 H624 0.950 . S
C651 C637 1.377 . S
C651 C650 1.373 . S
C652 C636 1.377 . S
C652 C650 1.389 . S
C652 C653 1.524 . S
C653 C652 1.524 . S
C653 C654 1.397 . S
C653 C658 1.363 . S
C654 H625 0.950 . S
C654 C653 1.397 . S
C654 C655 1.334 . S
C655 H626 0.950 . S
C655 C654 1.334 . S
C655 C656 1.287 . S
C656 C655 1.287 . S
C656 C657 1.524 . S
C656 H659 0.999 . S
C657 H627 0.950 . S
C657 C656 1.524 . S
C657 C658 1.415 . S
C658 H628 0.950 . S
C658 C653 1.363 . S
C658 C657 1.415 . S
H659 C656 0.999 . S
H660 C641 0.913 . S
H661 C679 0.951 . S
H662 C681 0.951 . S
H663 C683 0.950 . S
H664 C684 0.950 . S
H665 C686 0.950 . S
H666 C689 0.950 . S
H667 C690 0.950 . S
H668 C692 0.950 . S
H669 C693 0.950 . S
H670 C694 0.951 . S
H671 C696 0.951 . S
H672 C698 0.950 . S
H673 C699 0.950 . S
H674 C701 0.950 . S
H675 C704 0.950 . S
H676 C705 0.950 . S
H677 C707 0.950 . S
H678 C708 0.950 . S
C679 H661 0.951 . S
C679 C680 1.366 . S
C679 C681 1.388 . S
C680 C679 1.366 . S
C680 C684 1.385 . S
C681 H662 0.951 . S
C681 C679 1.388 . S
C681 C682 1.366 . S
C682 C681 1.366 . S
C682 C683 1.414 . S
C682 C685 1.499 . S
C683 H663 0.950 . S
C683 C682 1.414 . S
C683 C684 1.374 . S
C684 H664 0.950 . S
C684 C680 1.385 . S
C684 C683 1.374 . S
C685 C682 1.499 . S
C685 C686 1.373 . S
C685 C687 1.389 . S
C686 H665 0.950 . S
C686 C685 1.373 . S
C686 C702 1.377 . S
C687 C685 1.389 . S
C687 C688 1.524 . S
C687 C701 1.377 . S
C688 C687 1.524 . S
C688 C689 1.397 . S
C688 C693 1.363 . S
C689 H666 0.950 . S
C689 C688 1.397 . S
C689 C690 1.334 . S
C690 H667 0.950 . S
C690 C689 1.334 . S
C690 C691 1.287 . S
C691 C690 1.287 . S
C691 C692 1.524 . S
C691 H710 0.913 . S
C692 H668 0.950 . S
C692 C691 1.524 . S
C692 C693 1.415 . S
C693 H669 0.950 . S
C693 C688 1.363 . S
C693 C692 1.415 . S
C694 H670 0.951 . S
C694 C695 1.366 . S
C694 C696 1.388 . S
C695 C694 1.366 . S
C695 C699 1.385 . S
C696 H671 0.951 . S
C696 C694 1.388 . S
C696 C697 1.366 . S
C697 C696 1.366 . S
C697 C698 1.414 . S
C697 C700 1.499 . S
C698 H672 0.950 . S
C698 C697 1.414 . S
C698 C699 1.374 . S
C699 H673 0.950 . S
C699 C695 1.385 . S
C699 C698 1.374 . S
C700 C697 1.499 . S
C700 C701 1.373 . S
C700 C702 1.389 . S
C701 H674 0.950 . S
C701 C687 1.377 . S
C701 C700 1.373 . S
C702 C686 1.377 . S
C702 C700 1.389 . S
C702 C703 1.524 . S
C703 C702 1.524 . S
C703 C704 1.397 . S
C703 C708 1.363 . S
C704 H675 0.950 . S
C704 C703 1.397 . S
C704 C705 1.334 . S
C705 H676 0.950 . S
C705 C704 1.334 . S
C705 C706 1.287 . S
C706 C705 1.287 . S
C706 C707 1.524 . S
C706 H709 0.999 . S
C707 H677 0.950 . S
C707 C706 1.524 . S
C707 C708 1.415 . S
C708 H678 0.950 . S
C708 C703 1.363 . S
C708 C707 1.415 . S
H709 C706 0.999 . S
H710 C691 0.913 . S
H711 C729 0.951 . S
H712 C731 0.951 . S
H713 C733 0.950 . S
H714 C734 0.950 . S
H715 C736 0.950 . S
H716 C739 0.950 . S
H717 C740 0.950 . S
H718 C742 0.950 . S
H719 C743 0.950 . S
H720 C744 0.951 . S
H721 C746 0.951 . S
H722 C748 0.950 . S
H723 C749 0.950 . S
H724 C751 0.950 . S
H725 C754 0.950 . S
H726 C755 0.950 . S
H727 C757 0.950 . S
H728 C758 0.950 . S
C729 H711 0.951 . S
C729 C730 1.366 . S
C729 C731 1.388 . S
C730 C729 1.366 . S
C730 C734 1.385 . S
C731 H712 0.951 . S
C731 C729 1.388 . S
C731 C732 1.366 . S
C732 C731 1.366 . S
C732 C733 1.414 . S
C732 C735 1.499 . S
C733 H713 0.950 . S
C733 C732 1.414 . S
C733 C734 1.374 . S
C734 H714 0.950 . S
C734 C730 1.385 . S
C734 C733 1.374 . S
C735 C732 1.499 . S
C735 C736 1.373 . S
C735 C737 1.389 . S
C736 H715 0.950 . S
C736 C735 1.373 . S
C736 C752 1.377 . S
C737 C735 1.389 . S
C737 C738 1.524 . S
C737 C751 1.377 . S
C738 C737 1.524 . S
C738 C739 1.397 . S
C738 C743 1.363 . S
C739 H716 0.950 . S
C739 C738 1.397 . S
C739 C740 1.334 . S
C740 H717 0.950 . S
C740 C739 1.334 . S
C740 C741 1.287 . S
C741 C740 1.287 . S
C741 C742 1.524 . S
C741 H760 0.913 . S
C742 H718 0.950 . S
C742 C741 1.524 . S
C742 C743 1.415 . S
C743 H719 0.950 . S
C743 C738 1.363 . S
C743 C742 1.415 . S
C744 H720 0.951 . S
C744 C745 1.366 . S
C744 C746 1.388 . S
C745 C744 1.366 . S
C745 C749 1.385 . S
C746 H721 0.951 . S
C746 C744 1.388 . S
C746 C747 1.366 . S
C747 C746 1.366 . S
C747 C748 1.414 . S
C747 C750 1.499 . S
C748 H722 0.950 . S
C748 C747 1.414 . S
C748 C749 1.374 . S
C749 H723 0.950 . S
C749 C745 1.385 . S
C749 C748 1.374 . S
C750 C747 1.499 . S
C750 C751 1.373 . S
C750 C752 1.389 . S
C751 H724 0.950 . S
C751 C737 1.377 . S
C751 C750 1.373 . S
C752 C736 1.377 . S
C752 C750 1.389 . S
C752 C753 1.524 . S
C753 C752 1.524 . S
C753 C754 1.397 . S
C753 C758 1.363 . S
C754 H725 0.950 . S
C754 C753 1.397 . S
C754 C755 1.334 . S
C755 H726 0.950 . S
C755 C754 1.334 . S
C755 C756 1.287 . S
C756 C755 1.287 . S
C756 C757 1.524 . S
C756 H759 0.999 . S
C757 H727 0.950 . S
C757 C756 1.524 . S
C757 C758 1.415 . S
C758 H728 0.950 . S
C758 C753 1.363 . S
C758 C757 1.415 . S
H759 C756 0.999 . S
H760 C741 0.913 . S
H761 C779 0.951 . S
H762 C781 0.951 . S
H763 C783 0.950 . S
H764 C784 0.950 . S
H765 C786 0.950 . S
H766 C789 0.950 . S
H767 C790 0.950 . S
H768 C792 0.950 . S
H769 C793 0.950 . S
H770 C794 0.951 . S
H771 C796 0.951 . S
H772 C798 0.950 . S
H773 C799 0.950 . S
H774 C801 0.950 . S
H775 C804 0.950 . S
H776 C805 0.950 . S
H777 C807 0.950 . S
H778 C808 0.950 . S
C779 H761 0.951 . S
C779 C780 1.366 . S
C779 C781 1.388 . S
C780 C779 1.366 . S
C780 C784 1.385 . S
C781 H762 0.951 . S
C781 C779 1.388 . S
C781 C782 1.366 . S
C782 C781 1.366 . S
C782 C783 1.414 . S
C782 C785 1.499 . S
C783 H763 0.950 . S
C783 C782 1.414 . S
C783 C784 1.374 . S
C784 H764 0.950 . S
C784 C780 1.385 . S
C784 C783 1.374 . S
C785 C782 1.499 . S
C785 C786 1.373 . S
C785 C787 1.389 . S
C786 H765 0.950 . S
C786 C785 1.373 . S
C786 C802 1.377 . S
C787 C785 1.389 . S
C787 C788 1.524 . S
C787 C801 1.377 . S
C788 C787 1.524 . S
C788 C789 1.397 . S
C788 C793 1.363 . S
C789 H766 0.950 . S
C789 C788 1.397 . S
C789 C790 1.334 . S
C790 H767 0.950 . S
C790 C789 1.334 . S
C790 C791 1.287 . S
C791 C790 1.287 . S
C791 C792 1.524 . S
C791 H810 0.913 . S
C792 H768 0.950 . S
C792 C791 1.524 . S
C792 C793 1.415 . S
C793 H769 0.950 . S
C793 C788 1.363 . S
C793 C792 1.415 . S
C794 H770 0.951 . S
C794 C795 1.366 . S
C794 C796 1.388 . S
C795 C794 1.366 . S
C795 C799 1.385 . S
C796 H771 0.951 . S
C796 C794 1.388 . S
C796 C797 1.366 . S
C797 C796 1.366 . S
C797 C798 1.414 . S
C797 C800 1.499 . S
C798 H772 0.950 . S
C798 C797 1.414 . S
C798 C799 1.374 . S
C799 H773 0.950 . S
C799 C795 1.385 . S
C799 C798 1.374 . S
C800 C797 1.499 . S
C800 C801 1.373 . S
C800 C802 1.389 . S
C801 H774 0.950 . S
C801 C787 1.377 . S
C801 C800 1.373 . S
C802 C786 1.377 . S
C802 C800 1.389 . S
C802 C803 1.524 . S
C803 C802 1.524 . S
C803 C804 1.397 . S
C803 C808 1.363 . S
C804 H775 0.950 . S
C804 C803 1.397 . S
C804 C805 1.334 . S
C805 H776 0.950 . S
C805 C804 1.334 . S
C805 C806 1.287 . S
C806 C805 1.287 . S
C806 C807 1.524 . S
C806 H809 0.999 . S
C807 H777 0.950 . S
C807 C806 1.524 . S
C807 C808 1.415 . S
C808 H778 0.950 . S
C808 C803 1.363 . S
C808 C807 1.415 . S
H809 C806 0.999 . S
H810 C791 0.913 . S
H811 C829 0.951 . S
H812 C831 0.951 . S
H813 C833 0.950 . S
H814 C834 0.950 . S
H815 C836 0.950 . S
H816 C839 0.950 . S
H817 C840 0.950 . S
H818 C842 0.950 . S
H819 C843 0.950 . S
H820 C844 0.951 . S
H821 C846 0.951 . S
H822 C848 0.950 . S
H823 C849 0.950 . S
H824 C851 0.950 . S
H825 C854 0.950 . S
H826 C855 0.950 . S
H827 C857 0.950 . S
H828 C858 0.950 . S
C829 H811 0.951 . S
C829 C830 1.366 . S
C829 C831 1.388 . S
C830 C829 1.366 . S
C830 C834 1.385 . S
C831 H812 0.951 . S
C831 C829 1.388 . S
C831 C832 1.366 . S
C832 C831 1.366 . S
C832 C833 1.414 . S
C832 C835 1.499 . S
C833 H813 0.950 . S
C833 C832 1.414 . S
C833 C834 1.374 . S
C834 H814 0.950 . S
C834 C830 1.385 . S
C834 C833 1.374 . S
C835 C832 1.499 . S
C835 C836 1.373 . S
C835 C837 1.389 . S
C836 H815 0.950 . S
C836 C835 1.373 . S
C836 C852 1.377 . S
C837 C835 1.389 . S
C837 C838 1.524 . S
C837 C851 1.377 . S
C838 C837 1.524 . S
C838 C839 1.397 . S
C838 C843 1.363 . S
C839 H816 0.950 . S
C839 C838 1.397 . S
C839 C840 1.334 . S
C840 H817 0.950 . S
C840 C839 1.334 . S
C840 C841 1.287 . S
C841 C840 1.287 . S
C841 C842 1.524 . S
C841 H860 0.913 . S
C842 H818 0.950 . S
C842 C841 1.524 . S
C842 C843 1.415 . S
C843 H819 0.950 . S
C843 C838 1.363 . S
C843 C842 1.415 . S
C844 H820 0.951 . S
C844 C845 1.366 . S
C844 C846 1.388 . S
C845 C844 1.366 . S
C845 C849 1.385 . S
C846 H821 0.951 . S
C846 C844 1.388 . S
C846 C847 1.366 . S
C847 C846 1.366 . S
C847 C848 1.414 . S
C847 C850 1.499 . S
C848 H822 0.950 . S
C848 C847 1.414 . S
C848 C849 1.374 . S
C849 H823 0.950 . S
C849 C845 1.385 . S
C849 C848 1.374 . S
C850 C847 1.499 . S
C850 C851 1.373 . S
C850 C852 1.389 . S
C851 H824 0.950 . S
C851 C837 1.377 . S
C851 C850 1.373 . S
C852 C836 1.377 . S
C852 C850 1.389 . S
C852 C853 1.524 . S
C853 C852 1.524 . S
C853 C854 1.397 . S
C853 C858 1.363 . S
C854 H825 0.950 . S
C854 C853 1.397 . S
C854 C855 1.334 . S
C855 H826 0.950 . S
C855 C854 1.334 . S
C855 C856 1.287 . S
C856 C855 1.287 . S
C856 C857 1.524 . S
C856 H859 0.999 . S
C857 H827 0.950 . S
C857 C856 1.524 . S
C857 C858 1.415 . S
C858 H828 0.950 . S
C858 C853 1.363 . S
C858 C857 1.415 . S
H859 C856 0.999 . S
H860 C841 0.913 . S
H861 C879 0.951 . S
H862 C881 0.951 . S
H863 C883 0.950 . S
H864 C884 0.950 . S
H865 C886 0.950 . S
H866 C889 0.952 . S
H867 C890 0.949 1_655 S
H868 C892 0.950 . S
H869 C893 0.950 . S
H870 C894 0.951 . S
H871 C896 0.951 1_554 S
H872 C898 0.937 1_554 S
H873 C899 0.950 . S
H874 C901 0.950 . S
H875 C904 0.950 . S
H876 C905 0.950 . S
H877 C907 0.950 . S
H878 C908 0.950 . S
C879 H861 0.951 . S
C879 C880 1.366 . S
C879 C881 1.388 . S
C880 C879 1.366 . S
C880 C884 1.385 1_455 S
C881 H862 0.951 . S
C881 C879 1.388 . S
C881 C882 1.366 . S
C882 C881 1.366 . S
C882 C883 1.414 1_455 S
C882 C885 1.499 . S
C883 H863 0.950 . S
C883 C882 1.414 1_655 S
C883 C884 1.374 . S
C884 H864 0.950 . S
C884 C880 1.385 1_655 S
C884 C883 1.374 . S
C885 C882 1.499 . S
C885 C886 1.373 . S
C885 C887 1.389 . S
C886 H865 0.950 . S
C886 C885 1.373 . S
C886 C902 1.377 . S
C887 C885 1.389 . S
C887 C888 1.524 . S
C887 C901 1.377 . S
C888 C887 1.524 . S
C888 C889 1.392 1_455 S
C888 C893 1.363 . S
C889 H866 0.952 . S
C889 C888 1.392 1_655 S
C889 C890 1.337 1_655 S
C890 H867 0.949 1_455 S
C890 C889 1.337 1_455 S
C890 C891 1.287 . S
C891 C890 1.287 . S
C891 C892 1.524 . S
C891 H910 0.913 . S
C892 H868 0.950 . S
C892 C891 1.524 . S
C892 C893 1.415 . S
C893 H869 0.950 . S
C893 C888 1.363 . S
C893 C892 1.415 . S
C894 H870 0.951 . S
C894 C895 1.366 1_655 S
C894 C896 1.388 . S
C895 C894 1.366 1_455 S
C895 C899 1.385 . S
C896 H871 0.951 1_556 S
C896 C894 1.388 . S
C896 C897 1.366 1_656 S
C897 C896 1.366 1_454 S
C897 C898 1.401 1_554 S
C897 C900 1.499 . S
C898 H872 0.937 1_556 S
C898 C897 1.401 1_556 S
C898 C899 1.401 . S
C899 H873 0.950 . S
C899 C895 1.385 . S
C899 C898 1.401 . S
C900 C897 1.499 . S
C900 C901 1.373 . S
C900 C902 1.389 . S
C901 H874 0.950 . S
C901 C887 1.377 . S
C901 C900 1.373 . S
C902 C886 1.377 . S
C902 C900 1.389 . S
C902 C903 1.524 . S
C903 C902 1.524 . S
C903 C904 1.397 . S
C903 C908 1.363 1_455 S
C904 H875 0.950 . S
C904 C903 1.397 . S
C904 C905 1.334 . S
C905 H876 0.950 . S
C905 C904 1.334 . S
C905 C906 1.287 . S
C906 C905 1.287 . S
C906 C907 1.524 1_455 S
C906 H909 0.999 . S
C907 H877 0.950 . S
C907 C906 1.524 1_655 S
C907 C908 1.415 . S
C908 H878 0.950 . S
C908 C903 1.363 1_655 S
C908 C907 1.415 . S
H909 C906 0.999 . S
H910 C891 0.913 . S
H911 C929 0.951 . S
H912 C931 0.951 . S
H913 C933 0.950 1_565 S
H914 C934 0.950 1_565 S
H915 C936 0.950 . S
H916 C939 0.950 . S
H917 C940 0.950 . S
H918 C942 0.950 . S
H919 C943 0.950 1_545 S
H920 C944 0.945 1_565 S
H921 C946 0.960 . S
H922 C948 0.950 . S
H923 C949 0.950 . S
H924 C951 0.950 1_565 S
H925 C954 0.950 . S
H926 C955 0.950 . S
H927 C957 0.950 . S
H928 C958 0.950 . S
C929 H911 0.951 . S
C929 C930 1.366 . S
C929 C931 1.388 . S
C930 C929 1.366 . S
C930 C934 1.385 . S
C931 H912 0.951 . S
C931 C929 1.388 . S
C931 C932 1.366 . S
C932 C931 1.366 . S
C932 C933 1.414 . S
C932 C935 1.499 . S
C933 H913 0.950 1_545 S
C933 C932 1.414 . S
C933 C934 1.374 . S
C934 H914 0.950 1_545 S
C934 C930 1.385 . S
C934 C933 1.374 . S
C935 C932 1.499 . S
C935 C936 1.373 . S
C935 C937 1.390 1_545 S
C936 H915 0.950 . S
C936 C935 1.373 . S
C936 C952 1.377 . S
C937 C935 1.390 1_565 S
C937 C938 1.527 . S
C937 C951 1.375 1_565 S
C938 C937 1.527 . S
C938 C939 1.397 . S
C938 C943 1.363 . S
C939 H916 0.950 . S
C939 C938 1.397 . S
C939 C940 1.334 . S
C940 H917 0.950 . S
C940 C939 1.334 . S
C940 C941 1.287 . S
C941 C940 1.287 . S
C941 C942 1.524 . S
C941 H960 0.913 . S
C942 H918 0.950 . S
C942 C941 1.524 . S
C942 C943 1.415 . S
C943 H919 0.950 1_565 S
C943 C938 1.363 . S
C943 C942 1.415 . S
C944 H920 0.945 1_545 S
C944 C945 1.366 . S
C944 C946 1.388 . S
C945 C944 1.366 . S
C945 C949 1.385 . S
C946 H921 0.960 . S
C946 C944 1.388 . S
C946 C947 1.366 . S
C947 C946 1.366 . S
C947 C948 1.414 . S
C947 C950 1.499 . S
C948 H922 0.950 . S
C948 C947 1.414 . S
C948 C949 1.374 . S
C949 H923 0.950 . S
C949 C945 1.385 . S
C949 C948 1.374 . S
C950 C947 1.499 . S
C950 C951 1.373 . S
C950 C952 1.389 . S
C951 H924 0.950 1_545 S
C951 C937 1.375 1_545 S
C951 C950 1.373 . S
C952 C936 1.377 . S
C952 C950 1.389 . S
C952 C953 1.524 . S
C953 C952 1.524 . S
C953 C954 1.397 . S
C953 C958 1.363 . S
C954 H925 0.950 . S
C954 C953 1.397 . S
C954 C955 1.334 . S
C955 H926 0.950 . S
C955 C954 1.334 . S
C955 C956 1.287 . S
C956 C955 1.287 . S
C956 C957 1.524 . S
C956 H959 0.999 . S
C957 H927 0.950 . S
C957 C956 1.524 . S
C957 C958 1.415 . S
C958 H928 0.950 . S
C958 C953 1.363 . S
C958 C957 1.415 . S
H959 C956 0.999 . S
H960 C941 0.913 . S
H961 C979 0.951 . S
H962 C981 0.951 . S
H963 C983 0.950 . S
H964 C984 0.950 . S
H965 C986 0.950 . S
H966 C989 0.950 . S
H967 C990 0.950 . S
H968 C992 0.950 . S
H969 C993 0.950 . S
H970 C994 0.951 . S
H971 C996 0.951 . S
H972 C998 0.950 . S
H973 C999 0.950 . S
H974 C1001 0.950 . S
H975 C1004 0.950 . S
H976 C1005 0.950 . S
H977 C1007 0.950 . S
H978 C1008 0.950 . S
C979 H961 0.951 . S
C979 C980 1.366 . S
C979 C981 1.388 . S
C980 C979 1.366 . S
C980 C984 1.385 . S
C981 H962 0.951 . S
C981 C979 1.388 . S
C981 C982 1.366 . S
C982 C981 1.366 . S
C982 C983 1.414 . S
C982 C985 1.499 . S
C983 H963 0.950 . S
C983 C982 1.414 . S
C983 C984 1.374 . S
C984 H964 0.950 . S
C984 C980 1.385 . S
C984 C983 1.374 . S
C985 C982 1.499 . S
C985 C986 1.373 . S
C985 C987 1.389 . S
C986 H965 0.950 . S
C986 C985 1.373 . S
C986 C1002 1.377 . S
C987 C985 1.389 . S
C987 C988 1.524 . S
C987 C1001 1.377 . S
C988 C987 1.524 . S
C988 C989 1.397 . S
C988 C993 1.363 . S
C989 H966 0.950 . S
C989 C988 1.397 . S
C989 C990 1.334 . S
C990 H967 0.950 . S
C990 C989 1.334 . S
C990 C991 1.287 . S
C991 C990 1.287 . S
C991 C992 1.524 . S
C991 H1010 0.913 . S
C992 H968 0.950 . S
C992 C991 1.524 . S
C992 C993 1.415 . S
C993 H969 0.950 . S
C993 C988 1.363 . S
C993 C992 1.415 . S
C994 H970 0.951 . S
C994 C995 1.366 . S
C994 C996 1.388 . S
C995 C994 1.366 . S
C995 C999 1.385 . S
C996 H971 0.951 . S
C996 C994 1.388 . S
C996 C997 1.366 . S
C997 C996 1.366 . S
C997 C998 1.414 . S
C997 C1000 1.499 . S
C998 H972 0.950 . S
C998 C997 1.414 . S
C998 C999 1.374 . S
C999 H973 0.950 . S
C999 C995 1.385 . S
C999 C998 1.374 . S
C1000 C997 1.499 . S
C1000 C1001 1.373 . S
C1000 C1002 1.389 . S
C1001 H974 0.950 . S
C1001 C987 1.377 . S
C1001 C1000 1.373 . S
C1002 C986 1.377 . S
C1002 C1000 1.389 . S
C1002 C1003 1.524 . S
C1003 C1002 1.524 . S
C1003 C1004 1.397 . S
C1003 C1008 1.363 . S
C1004 H975 0.950 . S
C1004 C1003 1.397 . S
C1004 C1005 1.334 . S
C1005 H976 0.950 . S
C1005 C1004 1.334 . S
C1005 C1006 1.287 . S
C1006 C1005 1.287 . S
C1006 C1007 1.524 . S
C1006 H1009 0.999 . S
C1007 H977 0.950 . S
C1007 C1006 1.524 . S
C1007 C1008 1.415 . S
C1008 H978 0.950 . S
C1008 C1003 1.363 . S
C1008 C1007 1.415 . S
H1009 C1006 0.999 . S
H1010 C991 0.913 . S
H1011 C1029 0.951 . S
H1012 C1031 0.951 . S
H1013 C1033 0.950 . S
H1014 C1034 0.950 . S
H1015 C1036 0.950 . S
H1016 C1039 0.950 . S
H1017 C1040 0.950 . S
H1018 C1042 0.950 . S
H1019 C1043 0.950 . S
H1020 C1044 0.951 . S
H1021 C1046 0.951 . S
H1022 C1048 0.950 . S
H1023 C1049 0.950 . S
H1024 C1051 0.950 . S
H1025 C1054 0.950 . S
H1026 C1055 0.950 . S
H1027 C1057 0.950 . S
H1028 C1058 0.950 . S
C1029 H1011 0.951 . S
C1029 C1030 1.366 1_565 S
C1029 C1031 1.388 . S
C1030 C1029 1.366 1_545 S
C1030 C1034 1.385 . S
C1031 H1012 0.951 . S
C1031 C1029 1.388 . S
C1031 C1032 1.366 1_565 S
C1032 C1031 1.366 1_545 S
C1032 C1033 1.414 . S
C1032 C1035 1.499 . S
C1033 H1013 0.950 . S
C1033 C1032 1.414 . S
C1033 C1034 1.374 . S
C1034 H1014 0.950 . S
C1034 C1030 1.385 . S
C1034 C1033 1.374 . S
C1035 C1032 1.499 . S
C1035 C1036 1.373 . S
C1035 C1037 1.389 1_545 S
C1036 H1015 0.950 . S
C1036 C1035 1.373 . S
C1036 C1052 1.377 . S
C1037 C1035 1.389 1_565 S
C1037 C1038 1.524 . S
C1037 C1051 1.377 . S
C1038 C1037 1.524 . S
C1038 C1039 1.397 . S
C1038 C1043 1.363 . S
C1039 H1016 0.950 . S
C1039 C1038 1.397 . S
C1039 C1040 1.334 . S
C1040 H1017 0.950 . S
C1040 C1039 1.334 . S
C1040 C1041 1.287 . S
C1041 C1040 1.287 . S
C1041 C1042 1.524 . S
C1041 H1060 0.913 . S
C1042 H1018 0.950 . S
C1042 C1041 1.524 . S
C1042 C1043 1.415 . S
C1043 H1019 0.950 . S
C1043 C1038 1.363 . S
C1043 C1042 1.415 . S
C1044 H1020 0.951 . S
C1044 C1045 1.366 . S
C1044 C1046 1.388 . S
C1045 C1044 1.366 . S
C1045 C1049 1.385 1_545 S
C1046 H1021 0.951 . S
C1046 C1044 1.388 . S
C1046 C1047 1.366 . S
C1047 C1046 1.366 . S
C1047 C1048 1.414 1_545 S
C1047 C1050 1.499 . S
C1048 H1022 0.950 . S
C1048 C1047 1.414 1_565 S
C1048 C1049 1.374 . S
C1049 H1023 0.950 . S
C1049 C1045 1.385 1_565 S
C1049 C1048 1.374 . S
C1050 C1047 1.499 . S
C1050 C1051 1.373 1_545 S
C1050 C1052 1.389 . S
C1051 H1024 0.950 . S
C1051 C1037 1.377 . S
C1051 C1050 1.373 1_565 S
C1052 C1036 1.377 . S
C1052 C1050 1.389 . S
C1052 C1053 1.524 . S
C1053 C1052 1.524 . S
C1053 C1054 1.397 . S
C1053 C1058 1.363 . S
C1054 H1025 0.950 . S
C1054 C1053 1.397 . S
C1054 C1055 1.334 . S
C1055 H1026 0.950 . S
C1055 C1054 1.334 . S
C1055 C1056 1.287 . S
C1056 C1055 1.287 . S
C1056 C1057 1.524 . S
C1056 H1059 0.999 . S
C1057 H1027 0.950 . S
C1057 C1056 1.524 . S
C1057 C1058 1.415 . S
C1058 H1028 0.950 . S
C1058 C1053 1.363 . S
C1058 C1057 1.415 . S
H1059 C1056 0.999 . S
H1060 C1041 0.913 . S
H1061 C1079 0.951 . S
H1062 C1081 0.951 . S
H1063 C1083 0.950 . S
H1064 C1084 0.950 . S
H1065 C1086 0.950 . S
H1066 C1089 0.950 . S
H1067 C1090 0.950 . S
H1068 C1092 0.950 . S
H1069 C1093 0.950 . S
H1070 C1094 0.951 . S
H1071 C1096 0.944 1_556 S
H1072 C1098 0.950 1_556 S
H1073 C1099 0.950 . S
H1074 C1101 0.950 . S
H1075 C1104 0.950 . S
H1076 C1105 0.950 . S
H1077 C1107 0.950 . S
H1078 C1108 0.950 . S
C1079 H1061 0.951 . S
C1079 C1080 1.366 . S
C1079 C1081 1.388 . S
C1080 C1079 1.366 . S
C1080 C1084 1.385 . S
C1081 H1062 0.951 . S
C1081 C1079 1.388 . S
C1081 C1082 1.366 . S
C1082 C1081 1.366 . S
C1082 C1083 1.414 . S
C1082 C1085 1.499 . S
C1083 H1063 0.950 . S
C1083 C1082 1.414 . S
C1083 C1084 1.374 . S
C1084 H1064 0.950 . S
C1084 C1080 1.385 . S
C1084 C1083 1.374 . S
C1085 C1082 1.499 . S
C1085 C1086 1.373 . S
C1085 C1087 1.389 . S
C1086 H1065 0.950 . S
C1086 C1085 1.373 . S
C1086 C1102 1.377 . S
C1087 C1085 1.389 . S
C1087 C1088 1.524 . S
C1087 C1101 1.377 . S
C1088 C1087 1.524 . S
C1088 C1089 1.397 . S
C1088 C1093 1.363 . S
C1089 H1066 0.950 . S
C1089 C1088 1.397 . S
C1089 C1090 1.334 . S
C1090 H1067 0.950 . S
C1090 C1089 1.334 . S
C1090 C1091 1.287 . S
C1091 C1090 1.287 . S
C1091 C1092 1.524 . S
C1091 H1110 0.913 . S
C1092 H1068 0.950 . S
C1092 C1091 1.524 . S
C1092 C1093 1.415 . S
C1093 H1069 0.950 . S
C1093 C1088 1.363 . S
C1093 C1092 1.415 . S
C1094 H1070 0.951 . S
C1094 C1095 1.366 . S
C1094 C1096 1.402 . S
C1095 C1094 1.366 . S
C1095 C1099 1.385 . S
C1096 H1071 0.944 1_554 S
C1096 C1094 1.402 . S
C1096 C1097 1.359 1_554 S
C1097 C1096 1.359 1_556 S
C1097 C1098 1.414 1_556 S
C1097 C1100 1.499 . S
C1098 H1072 0.950 1_554 S
C1098 C1097 1.414 1_554 S
C1098 C1099 1.374 . S
C1099 H1073 0.950 . S
C1099 C1095 1.385 . S
C1099 C1098 1.374 . S
C1100 C1097 1.499 . S
C1100 C1101 1.373 . S
C1100 C1102 1.389 . S
C1101 H1074 0.950 . S
C1101 C1087 1.377 . S
C1101 C1100 1.373 . S
C1102 C1086 1.377 . S
C1102 C1100 1.389 . S
C1102 C1103 1.524 . S
C1103 C1102 1.524 . S
C1103 C1104 1.397 . S
C1103 C1108 1.363 . S
C1104 H1075 0.950 . S
C1104 C1103 1.397 . S
C1104 C1105 1.334 . S
C1105 H1076 0.950 . S
C1105 C1104 1.334 . S
C1105 C1106 1.287 . S
C1106 C1105 1.287 . S
C1106 C1107 1.524 . S
C1106 H1109 0.999 . S
C1107 H1077 0.950 . S
C1107 C1106 1.524 . S
C1107 C1108 1.415 . S
C1108 H1078 0.950 . S
C1108 C1103 1.363 . S
C1108 C1107 1.415 . S
H1109 C1106 0.999 . S
H1110 C1091 0.913 . S
H1111 C1129 0.951 . S
H1112 C1131 0.951 . S
H1113 C1133 0.950 . S
H1114 C1134 0.950 . S
H1115 C1136 0.950 . S
H1116 C1139 0.950 . S
H1117 C1140 0.950 . S
H1118 C1142 0.950 . S
H1119 C1143 0.950 . S
H1120 C1144 0.951 . S
H1121 C1146 0.951 . S
H1122 C1148 0.950 . S
H1123 C1149 0.950 . S
H1124 C1151 0.950 . S
H1125 C1154 0.950 . S
H1126 C1155 0.950 . S
H1127 C1157 0.950 . S
H1128 C1158 0.950 . S
C1129 H1111 0.951 . S
C1129 C1130 1.366 . S
C1129 C1131 1.388 . S
C1130 C1129 1.366 . S
C1130 C1134 1.385 1_455 S
C1131 H1112 0.951 . S
C1131 C1129 1.388 . S
C1131 C1132 1.366 . S
C1132 C1131 1.366 . S
C1132 C1133 1.414 1_455 S
C1132 C1135 1.499 . S
C1133 H1113 0.950 . S
C1133 C1132 1.414 1_655 S
C1133 C1134 1.374 . S
C1134 H1114 0.950 . S
C1134 C1130 1.385 1_655 S
C1134 C1133 1.374 . S
C1135 C1132 1.499 . S
C1135 C1136 1.373 1_455 S
C1135 C1137 1.389 . S
C1136 H1115 0.950 . S
C1136 C1135 1.373 1_655 S
C1136 C1152 1.377 . S
C1137 C1135 1.389 . S
C1137 C1138 1.524 . S
C1137 C1151 1.377 . S
C1138 C1137 1.524 . S
C1138 C1139 1.397 . S
C1138 C1143 1.363 . S
C1139 H1116 0.950 . S
C1139 C1138 1.397 . S
C1139 C1140 1.334 . S
C1140 H1117 0.950 . S
C1140 C1139 1.334 . S
C1140 C1141 1.287 . S
C1141 C1140 1.287 . S
C1141 C1142 1.524 . S
C1141 H1160 0.913 . S
C1142 H1118 0.950 . S
C1142 C1141 1.524 . S
C1142 C1143 1.415 . S
C1143 H1119 0.950 . S
C1143 C1138 1.363 . S
C1143 C1142 1.415 . S
C1144 H1120 0.951 . S
C1144 C1145 1.366 1_655 S
C1144 C1146 1.388 . S
C1145 C1144 1.366 1_455 S
C1145 C1149 1.385 . S
C1146 H1121 0.951 . S
C1146 C1144 1.388 . S
C1146 C1147 1.366 1_655 S
C1147 C1146 1.366 1_455 S
C1147 C1148 1.414 . S
C1147 C1150 1.499 . S
C1148 H1122 0.950 . S
C1148 C1147 1.414 . S
C1148 C1149 1.374 . S
C1149 H1123 0.950 . S
C1149 C1145 1.385 . S
C1149 C1148 1.374 . S
C1150 C1147 1.499 . S
C1150 C1151 1.373 . S
C1150 C1152 1.389 1_455 S
C1151 H1124 0.950 . S
C1151 C1137 1.377 . S
C1151 C1150 1.373 . S
C1152 C1136 1.377 . S
C1152 C1150 1.389 1_655 S
C1152 C1153 1.524 . S
C1153 C1152 1.524 . S
C1153 C1154 1.397 . S
C1153 C1158 1.363 . S
C1154 H1125 0.950 . S
C1154 C1153 1.397 . S
C1154 C1155 1.334 . S
C1155 H1126 0.950 . S
C1155 C1154 1.334 . S
C1155 C1156 1.287 . S
C1156 C1155 1.287 . S
C1156 C1157 1.524 . S
C1156 H1159 0.999 . S
C1157 H1127 0.950 . S
C1157 C1156 1.524 . S
C1157 C1158 1.415 . S
C1158 H1128 0.950 . S
C1158 C1153 1.363 . S
C1158 C1157 1.415 . S
H1159 C1156 0.999 . S
H1160 C1141 0.913 . S
C280 C20 1.058 . S
C295 C252 1.061 . S
C330 C41 1.144 . S
C345 C188 1.116 . S
C380 C64 1.163 . S
C395 C220 1.131 . S
C430 C19 1.151 . S
C445 C246 1.183 . S
C495 C182 1.122 . S
C480 C44 1.125 . S
C545 C214 1.108 . S
C530 C67 1.115 . S
C580 C43 1.086 . S
C595 C124 1.090 . S
C630 C66 1.059 . S
C645 C156 1.062 . S
C680 C21 1.125 . S
C695 C86 1.120 . S
C745 C118 1.140 . S
C730 C42 1.113 . S
C795 C150 1.183 . S
C780 C65 1.151 . S
C830 C18 1.146 . S
C845 C92 1.118 . S
C895 C162 1.431 . S
C880 C17 1.457 . S
C930 C39 1.454 . S
C945 C98 1.423 . S
C980 C62 1.473 . S
C995 C130 1.446 . S
C1045 C226 1.405 . S
C1030 C40 1.436 . S
C1095 C258 1.431 . S
C1080 C63 1.457 . S
C1130 C16 1.453 . S
C1145 C194 1.422 . S
