# Generated by pormake.
# Topology dag, (6,3)-cn, num edge types: 1
# Building blocks:
#     Node 0, Type 0, BuildingBlock: MIDCAF_clean_sbu_0, # of connection points: 6
#     Node 1, Type 0, BuildingBlock: MIDCAF_clean_sbu_0, # of connection points: 6
#     Node 2, Type 0, BuildingBlock: MIDCAF_clean_sbu_0, # of connection points: 6
#     Node 3, Type 0, BuildingBlock: MIDCAF_clean_sbu_0, # of connection points: 6
#     Node 4, Type 1, BuildingBlock: VETTIZ_charged_linker_0, # of connection points: 3
#     Node 5, Type 1, BuildingBlock: VETTIZ_charged_linker_0, # of connection points: 3
#     Node 6, Type 1, BuildingBlock: VETTIZ_charged_linker_0, # of connection points: 3
#     Node 7, Type 1, BuildingBlock: VETTIZ_charged_linker_0, # of connection points: 3
#     Node 8, Type 1, BuildingBlock: VETTIZ_charged_linker_0, # of connection points: 3
#     Node 9, Type 1, BuildingBlock: VETTIZ_charged_linker_0, # of connection points: 3
#     Node 10, Type 1, BuildingBlock: VETTIZ_charged_linker_0, # of connection points: 3
#     Node 11, Type 1, BuildingBlock: VETTIZ_charged_linker_0, # of connection points: 3
#     Edge 12, Type (0, 1), BuildingBlock: UVAHIK_clean_linker_0, # of connection points: 2
#     Edge 13, Type (0, 1), BuildingBlock: UVAHIK_clean_linker_0, # of connection points: 2
#     Edge 14, Type (0, 1), BuildingBlock: UVAHIK_clean_linker_0, # of connection points: 2
#     Edge 15, Type (0, 1), BuildingBlock: UVAHIK_clean_linker_0, # of connection points: 2
#     Edge 16, Type (0, 1), BuildingBlock: UVAHIK_clean_linker_0, # of connection points: 2
#     Edge 17, Type (0, 1), BuildingBlock: UVAHIK_clean_linker_0, # of connection points: 2
#     Edge 18, Type (0, 1), BuildingBlock: UVAHIK_clean_linker_0, # of connection points: 2
#     Edge 19, Type (0, 1), BuildingBlock: UVAHIK_clean_linker_0, # of connection points: 2
#     Edge 20, Type (0, 1), BuildingBlock: UVAHIK_clean_linker_0, # of connection points: 2
#     Edge 21, Type (0, 1), BuildingBlock: UVAHIK_clean_linker_0, # of connection points: 2
#     Edge 22, Type (0, 1), BuildingBlock: UVAHIK_clean_linker_0, # of connection points: 2
#     Edge 23, Type (0, 1), BuildingBlock: UVAHIK_clean_linker_0, # of connection points: 2
#     Edge 24, Type (0, 1), BuildingBlock: UVAHIK_clean_linker_0, # of connection points: 2
#     Edge 25, Type (0, 1), BuildingBlock: UVAHIK_clean_linker_0, # of connection points: 2
#     Edge 26, Type (0, 1), BuildingBlock: UVAHIK_clean_linker_0, # of connection points: 2
#     Edge 27, Type (0, 1), BuildingBlock: UVAHIK_clean_linker_0, # of connection points: 2
#     Edge 28, Type (0, 1), BuildingBlock: UVAHIK_clean_linker_0, # of connection points: 2
#     Edge 29, Type (0, 1), BuildingBlock: UVAHIK_clean_linker_0, # of connection points: 2
#     Edge 30, Type (0, 1), BuildingBlock: UVAHIK_clean_linker_0, # of connection points: 2
#     Edge 31, Type (0, 1), BuildingBlock: UVAHIK_clean_linker_0, # of connection points: 2
#     Edge 32, Type (0, 1), BuildingBlock: UVAHIK_clean_linker_0, # of connection points: 2
#     Edge 33, Type (0, 1), BuildingBlock: UVAHIK_clean_linker_0, # of connection points: 2
#     Edge 34, Type (0, 1), BuildingBlock: UVAHIK_clean_linker_0, # of connection points: 2
#     Edge 35, Type (0, 1), BuildingBlock: UVAHIK_clean_linker_0, # of connection points: 2
# Relax obj value: 0.316
# Max RMSD: 0.190
# Mean RMSD: 0.179
data_MOF--net-dag--node1-MIDCAF_clean_sbu_0--node2-VETTIZ_charged_linker_0--edge1-UVAHIK_clean_linker_0
_symmetry_space_group_name_H-M    P1
_symmetry_Int_Tables_number       1
_symmetry_cell_setting            triclinic
loop_
_symmetry_equiv_pos_as_xyz
'x, y, z'
_cell_length_a     62.10017
_cell_length_b     61.764443
_cell_length_c     47.203849
_cell_angle_alpha  89.316871
_cell_angle_beta   89.812859
_cell_angle_gamma 90.014604
loop_
_atom_site_label
_atom_site_type_symbol
_atom_site_fract_x
_atom_site_fract_y
_atom_site_fract_z
_atom_type_partial_charge
Zn0 Zn 0.14713 0.84274 0.04939 0.0
Zn1 Zn 0.13728 0.84462 0.92706 0.0
Zn2 Zn 0.14044 0.8391 0.00104 0.0
C3 C 0.1165 0.8778 0.96432 0.0
C4 C 0.12228 0.80831 0.96844 0.0
O5 O 0.13794 0.80619 0.01988 0.0
O6 O 0.16061 0.8138 0.05418 0.0
C7 C 0.1774 0.867 0.02485 0.0
O8 O 0.11943 0.86688 0.98769 0.0
O9 O 0.12312 0.87128 0.94038 0.0
O10 O 0.1308 0.82415 0.95628 0.0
O11 O 0.12654 0.80663 0.99464 0.0
O12 O 0.16557 0.86842 0.04648 0.0
O13 O 0.17277 0.85334 0.00549 0.0
O14 O 0.11217 0.85797 0.01438 0.0
O15 O 0.11619 0.84564 0.05792 0.0
C16 C 0.10427 0.85411 0.03922 0.0
O17 O 0.17137 0.84238 0.97723 0.0
O18 O 0.16932 0.84579 0.9298 0.0
C19 C 0.15071 0.79996 0.03973 0.0
C20 C 0.18028 0.84406 0.95245 0.0
Zn21 Zn 0.6381 0.6698 0.42135 0.0
Zn22 Zn 0.6396 0.63066 0.56153 0.0
Zn23 Zn 0.63811 0.6389 0.5004 0.0
C24 C 0.63482 0.59448 0.53195 0.0
C25 C 0.62318 0.67062 0.5465 0.0
O26 O 0.65451 0.67046 0.4982 0.0
O27 O 0.63279 0.67712 0.46299 0.0
C28 C 0.66259 0.63426 0.43853 0.0
O29 O 0.64568 0.60584 0.51413 0.0
O30 O 0.62438 0.6038 0.55118 0.0
O31 O 0.62083 0.65611 0.56528 0.0
O32 O 0.63674 0.66766 0.52647 0.0
O33 O 0.66142 0.64591 0.41613 0.0
O34 O 0.65092 0.63933 0.45949 0.0
O35 O 0.60471 0.64172 0.48878 0.0
O36 O 0.6133 0.6582 0.44862 0.0
C37 C 0.59889 0.651 0.46561 0.0
O38 O 0.66167 0.65913 0.52252 0.0
O39 O 0.67185 0.63488 0.55455 0.0
C40 C 0.64913 0.68268 0.47709 0.0
C41 C 0.67611 0.65148 0.53954 0.0
Zn42 Zn 0.85265 0.14085 0.91703 0.0
Zn43 Zn 0.85283 0.16206 0.07577 0.0
Zn44 Zn 0.83948 0.14568 0.99162 0.0
C45 C 0.87908 0.14893 0.01988 0.0
C46 C 0.82341 0.12835 0.05863 0.0
O47 O 0.815 0.12964 0.96539 0.0
O48 O 0.81896 0.14524 0.92297 0.0
C49 C 0.84426 0.17912 0.94772 0.0
O50 O 0.87448 0.14291 0.9949 0.0
O51 O 0.86344 0.15622 0.03432 0.0
O52 O 0.83108 0.13689 0.08107 0.0
O53 O 0.82937 0.13479 0.03396 0.0
O54 O 0.83489 0.16641 0.93107 0.0
O55 O 0.83821 0.17793 0.97336 0.0
O56 O 0.83517 0.1157 0.96913 0.0
O57 O 0.86476 0.11684 0.94319 0.0
C58 C 0.84975 0.10588 0.9548 0.0
O59 O 0.82532 0.17786 -0.00031 0.0
O60 O 0.8458 0.17241 0.03586 0.0
C61 C 0.8067 0.13716 0.94228 0.0
C62 C 0.83009 0.18275 0.02519 0.0
Zn63 Zn 0.32667 0.33353 0.58157 0.0
Zn64 Zn 0.34842 0.359 0.47049 0.0
Zn65 Zn 0.34157 0.33977 0.5109 0.0
C66 C 0.38519 0.34343 0.48286 0.0
C67 C 0.30709 0.36778 0.48609 0.0
O68 O 0.30962 0.32399 0.51099 0.0
O69 O 0.30327 0.31983 0.5578 0.0
C70 C 0.35984 0.31274 0.5641 0.0
O71 O 0.37073 0.32957 0.48945 0.0
O72 O 0.37987 0.36317 0.48092 0.0
O73 O 0.32351 0.37889 0.47921 0.0
O74 O 0.30956 0.34816 0.49477 0.0
O75 O 0.35263 0.31315 0.58913 0.0
O76 O 0.35039 0.3243 0.5459 0.0
O77 O 0.34287 0.37153 0.52792 0.0
O78 O 0.33128 0.36585 0.57235 0.0
C79 C 0.33731 0.37849 0.55231 0.0
O80 O 0.31875 0.3248 0.48255 0.0
O81 O 0.3401 0.33217 0.44648 0.0
C82 C 0.29802 0.31705 0.5321 0.0
C83 C 0.32479 0.32102 0.45697 0.0
C84 C 0.20634 0.05615 0.18423 0.0
C85 C 0.19629 0.04052 0.16734 0.0
C86 C 0.175 0.04394 0.15821 0.0
C87 C 0.17415 0.07848 0.18172 0.0
C88 C 0.1948 0.07487 0.19152 0.0
C89 C 0.20242 0.09299 0.2101 0.0
H90 H 0.18336 0.18947 0.27244 0.0
C91 C 0.16679 0.09962 0.19222 0.0
C92 C 0.18308 0.10817 0.20916 0.0
H93 H 0.24028 0.14932 0.27738 0.0
H94 H 0.22407 0.1234 0.24642 0.0
H95 H 0.1767 0.18278 0.20341 0.0
H96 H 0.14749 0.1498 0.27528 0.0
H97 H 0.12761 0.15675 0.25016 0.0
H98 H 0.14237 0.17789 0.26752 0.0
H99 H 0.15878 0.19637 0.22729 0.0
H100 H 0.14868 0.1806 0.19839 0.0
C101 C 0.22266 0.10333 0.19617 0.0
C102 C 0.20613 0.0835 0.24023 0.0
C103 C 0.0955 0.12876 0.15754 0.0
C104 C 0.08364 0.14759 0.16272 0.0
C105 C 0.0915 0.16253 0.18257 0.0
C106 C 0.11136 0.15895 0.19631 0.0
C107 C 0.1233 0.14014 0.19029 0.0
C108 C 0.115 0.12533 0.17148 0.0
C109 C 0.129 0.1058 0.16821 0.0
C110 C 0.14763 0.11152 0.18729 0.0
C111 C 0.14442 0.13166 0.20023 0.0
C112 C 0.13597 0.10459 0.13667 0.0
C113 C 0.11634 0.08574 0.17943 0.0
C114 C 0.19214 0.17495 0.267 0.0
C115 C 0.21311 0.17137 0.27739 0.0
C116 C 0.22421 0.15249 0.2695 0.0
C117 C 0.2147 0.13738 0.25162 0.0
C118 C 0.19383 0.14112 0.24133 0.0
C119 C 0.1829 0.1597 0.24881 0.0
C120 C 0.16114 0.16116 0.23471 0.0
C121 C 0.16072 0.14017 0.21815 0.0
C122 C 0.17997 0.12851 0.22231 0.0
C123 C 0.16111 0.18133 0.21497 0.0
C124 C 0.14361 0.16156 0.258 0.0
H125 H 0.14795 0.06452 0.15705 0.0
H126 H 0.22267 0.05379 0.19165 0.0
H127 H 0.1938 0.071 0.24553 0.0
H128 H 0.20452 0.09565 0.25705 0.0
H129 H 0.22219 0.07569 0.24189 0.0
H130 H 0.22178 0.1026 0.17266 0.0
H131 H 0.23755 0.09476 0.20285 0.0
H132 H 0.22431 0.12075 0.20077 0.0
H133 H 0.08958 0.11671 0.14298 0.0
H134 H 0.08248 0.1771 0.18707 0.0
H135 H 0.11668 0.17094 0.21101 0.0
H136 H 0.13978 0.12102 0.12809 0.0
H137 H 0.12293 0.0977 0.1235 0.0
H138 H 0.15076 0.09505 0.13336 0.0
H139 H 0.10358 0.09036 0.19482 0.0
H140 H 0.12668 0.07427 0.1914 0.0
H141 H 0.10836 0.07703 0.16189 0.0
H142 H 0.16707 0.03216 0.14497 0.0
C143 C 0.16394 0.0628 0.16519 0.0
C144 C 0.32671 0.60683 0.67322 0.0
C145 C 0.3384 0.59521 0.65282 0.0
C146 C 0.35794 0.60355 0.64238 0.0
C147 C 0.35419 0.63482 0.67224 0.0
C148 C 0.33482 0.62681 0.68239 0.0
C149 C 0.32454 0.64201 0.70333 0.0
H150 H 0.33005 0.73781 0.77285 0.0
C151 C 0.3583 0.65576 0.68571 0.0
C152 C 0.341 0.66028 0.70392 0.0
H153 H 0.28019 0.68928 0.78056 0.0
H154 H 0.29893 0.6668 0.74651 0.0
H155 H 0.36868 0.70578 0.77496 0.0
H156 H 0.33502 0.73551 0.70517 0.0
H157 H 0.36253 0.73611 0.69651 0.0
H158 H 0.35311 0.75025 0.72739 0.0
H159 H 0.37237 0.73371 0.76524 0.0
H160 H 0.38828 0.71255 0.74953 0.0
C161 C 0.32267 0.63013 0.73226 0.0
C162 C 0.30275 0.64966 0.69103 0.0
C163 C 0.42634 0.69666 0.66025 0.0
C164 C 0.43421 0.71704 0.66761 0.0
C165 C 0.42278 0.72989 0.68681 0.0
C166 C 0.40323 0.72247 0.69831 0.0
C167 C 0.39528 0.70202 0.69043 0.0
C168 C 0.40691 0.68951 0.67179 0.0
C169 C 0.39595 0.66857 0.66509 0.0
C170 C 0.37564 0.67052 0.68274 0.0
C171 C 0.37544 0.68997 0.69768 0.0
C172 C 0.41051 0.64985 0.67588 0.0
C173 C 0.39121 0.66828 0.63277 0.0
C174 C 0.32298 0.72246 0.76699 0.0
C175 C 0.30356 0.71538 0.77916 0.0
C176 C 0.2952 0.69503 0.77149 0.0
C177 C 0.30605 0.68208 0.75168 0.0
C178 C 0.3255 0.68952 0.73966 0.0
C179 C 0.33359 0.70942 0.74754 0.0
C180 C 0.35461 0.71475 0.73349 0.0
C181 C 0.35798 0.69478 0.71586 0.0
C182 C 0.34087 0.68002 0.71923 0.0
C183 C 0.37198 0.717 0.75683 0.0
C184 C 0.35137 0.7353 0.71476 0.0
H185 H 0.38108 0.62843 0.6435 0.0
H186 H 0.31162 0.60061 0.68154 0.0
H187 H 0.30444 0.6538 0.66812 0.0
H188 H 0.29662 0.66446 0.70112 0.0
H189 H 0.29036 0.63675 0.69312 0.0
H190 H 0.33692 0.61959 0.73605 0.0
H191 H 0.30809 0.61971 0.73311 0.0
H192 H 0.32233 0.64133 0.75031 0.0
H193 H 0.43503 0.6866 0.64542 0.0
H194 H 0.42886 0.74567 0.69261 0.0
H195 H 0.39501 0.73298 0.71269 0.0
H196 H 0.41756 0.6538 0.69685 0.0
H197 H 0.42405 0.64694 0.66096 0.0
H198 H 0.4017 0.63452 0.67937 0.0
H199 H 0.39093 0.68489 0.62337 0.0
H200 H 0.3751 0.6616 0.62796 0.0
H201 H 0.40362 0.65893 0.62114 0.0
H202 H 0.36722 0.59464 0.62691 0.0
C203 C 0.36596 0.62317 0.65209 0.0
C204 C 0.76463 0.82132 0.26323 0.0
C205 C 0.77244 0.80131 0.27295 0.0
C206 C 0.79158 0.79295 0.2613 0.0
C207 C 0.79573 0.82537 0.23222 0.0
C208 C 0.77636 0.83294 0.24282 0.0
C209 C 0.77011 0.85445 0.23029 0.0
H210 H 0.79433 0.93963 0.14526 0.0
C211 C 0.80452 0.84215 0.21272 0.0
C212 C 0.78942 0.85914 0.21156 0.0
H213 H 0.73528 0.92844 0.19152 0.0
H214 H 0.74961 0.89462 0.21046 0.0
H215 H 0.82583 0.92475 0.19498 0.0
H216 H 0.79939 0.89351 0.12244 0.0
H217 H 0.82574 0.88369 0.1252 0.0
H218 H 0.82134 0.91232 0.12005 0.0
H219 H 0.83648 0.9289 0.15999 0.0
H220 H 0.84631 0.90753 0.18301 0.0
C221 C 0.76805 0.87095 0.25462 0.0
C222 C 0.74923 0.85136 0.21281 0.0
C223 C 0.87792 0.83336 0.16385 0.0
C224 C 0.88941 0.84725 0.14523 0.0
C225 C 0.8813 0.86809 0.13947 0.0
C226 C 0.86178 0.87486 0.15091 0.0
C227 C 0.8499 0.86064 0.16825 0.0
C228 C 0.85806 0.84042 0.17506 0.0
C229 C 0.84295 0.82801 0.19457 0.0
C230 C 0.82433 0.84399 0.19749 0.0
C231 C 0.82863 0.86292 0.18175 0.0
C232 C 0.85464 0.82404 0.22303 0.0
C233 C 0.83591 0.80707 0.17955 0.0
C234 C 0.78456 0.92981 0.1595 0.0
C235 C 0.76373 0.93627 0.1669 0.0
C236 C 0.75136 0.92342 0.18554 0.0
C237 C 0.75973 0.9039 0.1964 0.0
C238 C 0.78064 0.89739 0.18848 0.0
C239 C 0.79265 0.9104 0.17043 0.0
C240 C 0.81428 0.90097 0.16372 0.0
C241 C 0.81317 0.87976 0.18012 0.0
C242 C 0.79362 0.87785 0.19481 0.0
C243 C 0.83175 0.91629 0.17577 0.0
C244 C 0.8155 0.89751 0.13121 0.0
H245 H 0.81799 0.79797 0.23322 0.0
H246 H 0.74974 0.82787 0.27154 0.0
H247 H 0.74809 0.83465 0.20437 0.0
H248 H 0.74865 0.86196 0.19379 0.0
H249 H 0.73465 0.85419 0.22594 0.0
H250 H 0.78117 0.86857 0.27035 0.0
H251 H 0.75245 0.869 0.26597 0.0
H252 H 0.76955 0.88792 0.24734 0.0
H253 H 0.88394 0.81733 0.1689 0.0
H254 H 0.89013 0.87924 0.12585 0.0
H255 H 0.85658 0.89088 0.14535 0.0
H256 H 0.86382 0.83869 0.2293 0.0
H257 H 0.86623 0.81041 0.22137 0.0
H258 H 0.8435 0.8207 0.24078 0.0
H259 H 0.83285 0.81032 0.15669 0.0
H260 H 0.82068 0.80039 0.18801 0.0
H261 H 0.8486 0.79444 0.1811 0.0
H262 H 0.79775 0.77744 0.26853 0.0
C263 C 0.80335 0.80494 0.24104 0.0
C264 C 0.6561 0.2587 0.773 0.0
C265 C 0.67578 0.26548 0.78442 0.0
C266 C 0.6851 0.28497 0.77444 0.0
C267 C 0.65484 0.2908 0.74287 0.0
C268 C 0.64595 0.27153 0.7525 0.0
C269 C 0.62458 0.2668 0.73926 0.0
H270 H 0.54323 0.29901 0.65461 0.0
C271 C 0.63959 0.30064 0.72243 0.0
C272 C 0.62181 0.28661 0.72047 0.0
H273 H 0.54902 0.23818 0.69992 0.0
H274 H 0.58359 0.24944 0.71866 0.0
H275 H 0.56313 0.33042 0.70329 0.0
H276 H 0.58733 0.29795 0.63012 0.0
H277 H 0.60346 0.32111 0.63257 0.0
H278 H 0.57479 0.324 0.6273 0.0
H279 H 0.55693 0.3382 0.66748 0.0
H280 H 0.58012 0.34887 0.68547 0.0
C281 C 0.60738 0.26568 0.76311 0.0
C282 C 0.62675 0.24581 0.72177 0.0
C283 C 0.65556 0.37333 0.67357 0.0
C284 C 0.64386 0.38544 0.65338 0.0
C285 C 0.62358 0.37802 0.64457 0.0
C286 C 0.61502 0.35877 0.65535 0.0
C287 C 0.62688 0.34657 0.67509 0.0
C288 C 0.64682 0.35375 0.68393 0.0
C289 C 0.65698 0.3381 0.7048 0.0
C290 C 0.63989 0.32041 0.70659 0.0
C291 C 0.62233 0.32573 0.68926 0.0
C292 C 0.65976 0.34987 0.7333 0.0
C293 C 0.67826 0.32971 0.69182 0.0
C294 C 0.55177 0.28833 0.66909 0.0
C295 C 0.54343 0.26795 0.6764 0.0
C296 C 0.55524 0.25406 0.69435 0.0
C297 C 0.57526 0.26062 0.70501 0.0
C298 C 0.58357 0.28107 0.69713 0.0
C299 C 0.57184 0.2944 0.6793 0.0
C300 C 0.58363 0.31474 0.67124 0.0
C301 C 0.60433 0.31172 0.68766 0.0
C302 C 0.60414 0.29216 0.70298 0.0
C303 C 0.57033 0.3342 0.68218 0.0
C304 C 0.58745 0.31467 0.63866 0.0
H305 H 0.68263 0.31227 0.74681 0.0
H306 H 0.64837 0.24396 0.78045 0.0
H307 H 0.64327 0.24414 0.71288 0.0
H308 H 0.61608 0.24568 0.70307 0.0
H309 H 0.62347 0.23122 0.73507 0.0
H310 H 0.6105 0.2782 0.77936 0.0
H311 H 0.60754 0.24962 0.77397 0.0
H312 H 0.59091 0.269 0.75554 0.0
H313 H 0.67121 0.37877 0.68066 0.0
H314 H 0.61421 0.38729 0.62937 0.0
H315 H 0.59946 0.3542 0.64779 0.0
H316 H 0.64572 0.36054 0.73758 0.0
H317 H 0.67444 0.36015 0.73303 0.0
H318 H 0.66048 0.33866 0.75164 0.0
H319 H 0.67623 0.32648 0.66885 0.0
H320 H 0.68358 0.31421 0.70129 0.0
H321 H 0.69135 0.34183 0.69403 0.0
H322 H 0.70041 0.29038 0.78272 0.0
C323 C 0.67478 0.29762 0.75361 0.0
C324 C 0.70655 0.42819 0.31883 0.0
C325 C 0.69588 0.44323 0.33588 0.0
C326 C 0.67449 0.43946 0.34436 0.0
C327 C 0.67481 0.40521 0.32023 0.0
C328 C 0.69558 0.40936 0.31099 0.0
C329 C 0.70397 0.39176 0.2922 0.0
H330 H 0.68842 0.29549 0.22873 0.0
C331 C 0.66831 0.38389 0.30955 0.0
C332 C 0.68518 0.37595 0.29294 0.0
H333 H 0.74198 0.33977 0.21921 0.0
H334 H 0.72599 0.3637 0.25319 0.0
H335 H 0.6839 0.30114 0.2991 0.0
H336 H 0.65135 0.33132 0.22812 0.0
H337 H 0.63219 0.32388 0.25406 0.0
H338 H 0.64784 0.30318 0.2371 0.0
H339 H 0.66553 0.28648 0.27715 0.0
H340 H 0.65614 0.30237 0.30651 0.0
C341 C 0.72439 0.38202 0.30615 0.0
C342 C 0.70768 0.40161 0.26216 0.0
C343 C 0.59723 0.35218 0.34185 0.0
C344 C 0.58707 0.3321 0.33822 0.0
C345 C 0.59683 0.31674 0.32037 0.0
C346 C 0.61673 0.3212 0.30711 0.0
C347 C 0.6269 0.34125 0.31168 0.0
C348 C 0.617 0.35629 0.32877 0.0
C349 C 0.63005 0.3765 0.33213 0.0
C350 C 0.64962 0.37119 0.31437 0.0
C351 C 0.64776 0.35062 0.30224 0.0
C352 C 0.63569 0.37866 0.36398 0.0
C353 C 0.6171 0.39577 0.31942 0.0
C354 C 0.69672 0.31028 0.23425 0.0
C355 C 0.71634 0.31594 0.22117 0.0
C356 C 0.72666 0.33531 0.22869 0.0
C357 C 0.71737 0.34917 0.24845 0.0
C358 C 0.69745 0.34367 0.26071 0.0
C359 C 0.6875 0.32444 0.2538 0.0
C360 C 0.66614 0.32165 0.26865 0.0
C361 C 0.66464 0.34273 0.28476 0.0
C362 C 0.68318 0.35539 0.28018 0.0
C363 C 0.6678 0.30181 0.28884 0.0
C364 C 0.64833 0.31976 0.24595 0.0
H365 H 0.64767 0.41847 0.34406 0.0
H366 H 0.72293 0.43106 0.31176 0.0
H367 H 0.69701 0.41578 0.25815 0.0
H368 H 0.70366 0.39019 0.24509 0.0
H369 H 0.72456 0.40721 0.25936 0.0
H370 H 0.72218 0.38036 0.32948 0.0
H371 H 0.73863 0.39257 0.30232 0.0
H372 H 0.72815 0.36555 0.29878 0.0
H373 H 0.59001 0.36456 0.35488 0.0
H374 H 0.58932 0.30113 0.3172 0.0
H375 H 0.62352 0.30883 0.29404 0.0
H376 H 0.63889 0.36249 0.37375 0.0
H377 H 0.62222 0.38615 0.3759 0.0
H378 H 0.65052 0.38802 0.36773 0.0
H379 H 0.60629 0.3904 0.30211 0.0
H380 H 0.62755 0.40818 0.30934 0.0
H381 H 0.60689 0.40355 0.33576 0.0
H382 H 0.6661 0.45109 0.35741 0.0
C383 C 0.66388 0.42052 0.33665 0.0
C384 C 0.16107 0.21558 0.73713 0.0
C385 C 0.17899 0.20653 0.7237 0.0
C386 C 0.18664 0.18612 0.73263 0.0
C387 C 0.15741 0.18328 0.76669 0.0
C388 C 0.15038 0.20362 0.75821 0.0
C389 C 0.12955 0.20986 0.77208 0.0
H390 H 0.0443 0.18137 0.85284 0.0
C391 C 0.1414 0.17426 0.78689 0.0
C392 C 0.125 0.1898 0.78983 0.0
H393 H 0.05555 0.24305 0.81157 0.0
H394 H 0.09013 0.23018 0.79404 0.0
H395 H 0.06269 0.15123 0.80227 0.0
H396 H 0.08774 0.17717 0.87914 0.0
H397 H 0.10201 0.15296 0.87481 0.0
H398 H 0.07309 0.15219 0.87901 0.0
H399 H 0.05491 0.14212 0.83707 0.0
H400 H 0.07747 0.13036 0.81872 0.0
C401 C 0.11246 0.21337 0.74856 0.0
C402 C 0.13367 0.22994 0.79068 0.0
C403 C 0.15015 0.09846 0.83086 0.0
C404 C 0.13661 0.08631 0.84901 0.0
C405 C 0.11691 0.09508 0.85791 0.0
C406 C 0.11055 0.11568 0.84898 0.0
C407 C 0.12404 0.1278 0.83092 0.0
C408 C 0.14351 0.1193 0.82209 0.0
C409 C 0.15518 0.13471 0.80215 0.0
C410 C 0.13974 0.15391 0.80135 0.0
C411 C 0.12159 0.14953 0.81819 0.0
C412 C 0.15725 0.12375 0.77293 0.0
C413 C 0.17697 0.1408 0.81564 0.0
C414 C 0.05424 0.192 0.83983 0.0
C415 C 0.04751 0.21304 0.83322 0.0
C416 C 0.06069 0.22671 0.81668 0.0
C417 C 0.08063 0.21918 0.80665 0.0
C418 C 0.08719 0.19786 0.8134 0.0
C419 C 0.07405 0.18482 0.82994 0.0
C420 C 0.08373 0.16312 0.83634 0.0
C421 C 0.10495 0.16507 0.82071 0.0
C422 C 0.10677 0.18522 0.80696 0.0
C423 C 0.06898 0.14565 0.82317 0.0
C424 C 0.08673 0.16105 0.86895 0.0
H425 H 0.18245 0.15896 0.76019 0.0
H426 H 0.15477 0.23112 0.73021 0.0
H427 H 0.15018 0.22957 0.79978 0.0
H428 H 0.12282 0.23062 0.80925 0.0
H429 H 0.1321 0.24518 0.77812 0.0
H430 H 0.11453 0.20135 0.73139 0.0
H431 H 0.11391 0.22978 0.73885 0.0
H432 H 0.09579 0.21106 0.75609 0.0
H433 H 0.1653 0.09185 0.82354 0.0
H434 H 0.10629 0.08581 0.87173 0.0
H435 H 0.09523 0.12123 0.85639 0.0
H436 H 0.14331 0.1129 0.76892 0.0
H437 H 0.17211 0.1138 0.7717 0.0
H438 H 0.15708 0.13549 0.75511 0.0
H439 H 0.17473 0.14482 0.83837 0.0
H440 H 0.18439 0.15521 0.80564 0.0
H441 H 0.18852 0.12711 0.81445 0.0
H442 H 0.20048 0.17897 0.72231 0.0
C443 C 0.17607 0.17452 0.75436 0.0
C444 C 0.25904 0.65622 0.23866 0.0
C445 C 0.26635 0.67598 0.22739 0.0
C446 C 0.28696 0.68356 0.23484 0.0
C447 C 0.29243 0.65166 0.26459 0.0
C448 C 0.27228 0.64434 0.25682 0.0
C449 C 0.26711 0.62239 0.2688 0.0
H450 H 0.29494 0.53687 0.35047 0.0
C451 C 0.3022 0.63487 0.28314 0.0
C452 C 0.28745 0.6176 0.28519 0.0
H453 H 0.23659 0.54559 0.30231 0.0
H454 H 0.24966 0.5802 0.28451 0.0
H455 H 0.32721 0.55371 0.30192 0.0
H456 H 0.29745 0.58409 0.37333 0.0
H457 H 0.3237 0.59444 0.37145 0.0
H458 H 0.31971 0.56576 0.37684 0.0
H459 H 0.33657 0.5495 0.33747 0.0
H460 H 0.3466 0.57143 0.31546 0.0
C461 C 0.2639 0.60657 0.24384 0.0
C462 C 0.24731 0.62466 0.28862 0.0
C463 C 0.37476 0.64713 0.33152 0.0
C464 C 0.3867 0.6342 0.35065 0.0
C465 C 0.37925 0.61321 0.3574 0.0
C466 C 0.36 0.60542 0.34631 0.0
C467 C 0.34782 0.61868 0.32816 0.0
C468 C 0.35528 0.63905 0.32063 0.0
C469 C 0.34002 0.65045 0.30052 0.0
C470 C 0.32206 0.63375 0.29809 0.0
C471 C 0.32685 0.61523 0.31441 0.0
C472 C 0.35181 0.65423 0.27194 0.0
C473 C 0.33211 0.67147 0.31466 0.0
C474 C 0.28518 0.54622 0.33579 0.0
C475 C 0.26486 0.53875 0.32752 0.0
C476 C 0.25238 0.55117 0.30864 0.0
C477 C 0.26 0.57123 0.29851 0.0
C478 C 0.28029 0.57877 0.30739 0.0
C479 C 0.29258 0.56616 0.32546 0.0
C480 C 0.31363 0.57667 0.33281 0.0
C481 C 0.312 0.59777 0.31619 0.0
C482 C 0.29245 0.59893 0.30153 0.0
C483 C 0.33208 0.56213 0.32161 0.0
C484 C 0.31389 0.58037 0.36527 0.0
H485 H 0.31556 0.67805 0.2586 0.0
H486 H 0.24351 0.64973 0.2327 0.0
H487 H 0.24838 0.63978 0.30113 0.0
H488 H 0.24604 0.61148 0.30452 0.0
H489 H 0.23214 0.62537 0.27624 0.0
H490 H 0.27337 0.61173 0.22487 0.0
H491 H 0.24672 0.60576 0.23746 0.0
H492 H 0.26975 0.59004 0.24869 0.0
H493 H 0.38016 0.66327 0.32573 0.0
H494 H 0.3884 0.6027 0.37142 0.0
H495 H 0.35528 0.58938 0.3526 0.0
H496 H 0.3632 0.64078 0.26749 0.0
H497 H 0.36123 0.66952 0.27211 0.0
H498 H 0.34071 0.65454 0.25371 0.0
H499 H 0.32747 0.66822 0.33709 0.0
H500 H 0.3177 0.67838 0.30441 0.0
H501 H 0.34498 0.68396 0.31451 0.0
H502 H 0.29291 0.69876 0.22621 0.0
C503 C 0.30003 0.67154 0.25358 0.0
C504 C 0.82499 0.87914 0.83246 0.0
C505 C 0.83896 0.89178 0.84885 0.0
C506 C 0.85867 0.883 0.858 0.0
C507 C 0.85117 0.84991 0.83311 0.0
C508 C 0.83152 0.85824 0.82465 0.0
C509 C 0.81967 0.84288 0.80556 0.0
H510 H 0.82204 0.75046 0.72943 0.0
C511 C 0.85391 0.8285 0.82019 0.0
C512 C 0.83554 0.82413 0.80403 0.0
H513 H 0.77117 0.7982 0.73223 0.0
H514 H 0.79067 0.81799 0.76788 0.0
H515 H 0.86068 0.78306 0.72976 0.0
H516 H 0.82905 0.74774 0.79716 0.0
H517 H 0.8566 0.74807 0.80536 0.0
H518 H 0.84765 0.73499 0.77346 0.0
H519 H 0.8629 0.75424 0.73422 0.0
H520 H 0.88074 0.77246 0.75214 0.0
C521 C 0.8166 0.85425 0.77643 0.0
C522 C 0.79841 0.83615 0.82039 0.0
C523 C 0.92371 0.78797 0.8358 0.0
C524 C 0.9314 0.76794 0.82668 0.0
C525 C 0.91845 0.75485 0.80954 0.0
C526 C 0.89788 0.76195 0.80129 0.0
C527 C 0.89038 0.78224 0.81049 0.0
C528 C 0.90323 0.79472 0.82765 0.0
C529 C 0.89269 0.81554 0.83598 0.0
C530 C 0.87128 0.81363 0.82097 0.0
C531 C 0.87007 0.79426 0.80591 0.0
C532 C 0.90653 0.83447 0.82389 0.0
C533 C 0.88996 0.81535 0.86867 0.0
C534 C 0.81486 0.76496 0.73803 0.0
C535 C 0.79511 0.77283 0.72788 0.0
C536 C 0.78654 0.79198 0.7394 0.0
C537 C 0.79787 0.80343 0.76009 0.0
C538 C 0.81804 0.79575 0.76915 0.0
C539 C 0.82596 0.77657 0.7585 0.0
C540 C 0.84759 0.77071 0.77035 0.0
C541 C 0.85162 0.78977 0.78946 0.0
C542 C 0.83435 0.8045 0.78865 0.0
C543 C 0.86394 0.7699 0.74547 0.0
C544 C 0.84531 0.7492 0.78734 0.0
H545 H 0.88014 0.85658 0.85778 0.0
H546 H 0.80981 0.88566 0.82505 0.0
H547 H 0.80089 0.83394 0.84359 0.0
H548 H 0.79221 0.82044 0.81304 0.0
H549 H 0.7858 0.84871 0.81735 0.0
H550 H 0.83117 0.86379 0.77051 0.0
H551 H 0.8027 0.86556 0.77691 0.0
H552 H 0.81434 0.84283 0.75892 0.0
H553 H 0.93345 0.79814 0.84925 0.0
H554 H 0.92428 0.73927 0.80253 0.0
H555 H 0.88868 0.75143 0.78804 0.0
H556 H 0.91437 0.82995 0.80357 0.0
H557 H 0.91948 0.83901 0.83886 0.0
H558 H 0.89695 0.84901 0.81851 0.0
H559 H 0.88714 0.79862 0.87691 0.0
H560 H 0.87576 0.8246 0.87583 0.0
H561 H 0.90458 0.82168 0.87925 0.0
H562 H 0.86952 0.89249 0.87081 0.0
C563 C 0.86479 0.86215 0.85037 0.0
C564 C 0.19122 0.90343 0.015 0.0
C565 C 0.19565 0.88195 0.02293 0.0
C566 C 0.20274 0.92042 0.02705 0.0
C567 C 0.22582 0.9288 0.09657 0.0
H568 H 0.22878 0.98831 0.07 0.0
C569 C 0.19826 0.00058 0.16179 0.0
C570 C 0.20773 0.021 0.15763 0.0
C571 C 0.20574 0.98272 0.14688 0.0
C572 C 0.22856 0.97175 0.07779 0.0
H573 H 0.21716 0.86108 0.04657 0.0
H574 H 0.23801 0.89066 0.0667 0.0
H575 H 0.22761 0.95907 0.03575 0.0
H576 H 0.23331 0.03861 0.13633 0.0
H577 H 0.24648 0.00724 0.10998 0.0
H578 H 0.22575 0.94151 0.13857 0.0
C579 C 0.22534 0.89452 0.05176 0.0
C580 C 0.22769 0.955 0.05812 0.0
C581 C 0.2137 0.87754 0.03981 0.0
C582 C 0.22586 0.02296 0.13996 0.0
C583 C 0.23324 0.00508 0.12474 0.0
C584 C 0.22667 0.94552 0.11619 0.0
C585 C 0.21891 0.91612 0.0472 0.0
C586 C 0.22542 0.93336 0.06727 0.0
C587 C 0.22271 0.98497 0.12725 0.0
C588 C 0.22712 0.96723 0.10702 0.0
H589 H 0.17705 0.9072 0.00252 0.0
H590 H 0.19724 0.93681 0.02304 0.0
H591 H 0.22383 0.9124 0.10452 0.0
H592 H 0.18422 -0.00125 0.1753 0.0
H593 H 0.19712 0.96755 0.14918 0.0
C594 C 0.60342 0.70555 0.54964 0.0
C595 C 0.60418 0.68389 0.54136 0.0
C596 C 0.58344 0.71523 0.55495 0.0
C597 C 0.53705 0.69403 0.58832 0.0
H598 H 0.51107 0.75091 0.58135 0.0
C599 C 0.47387 0.71896 0.66716 0.0
C600 C 0.45427 0.72441 0.65442 0.0
C601 C 0.49277 0.71939 0.65118 0.0
C602 C 0.51829 0.73501 0.58344 0.0
H603 H 0.58524 0.65586 0.53012 0.0
H604 H 0.55081 0.67293 0.53759 0.0
H605 H 0.54171 0.74129 0.55066 0.0
H606 H 0.43874 0.73586 0.61613 0.0
H607 H 0.47195 0.73679 0.58804 0.0
H608 H 0.51412 0.68757 0.621 0.0
C609 C 0.56529 0.68255 0.53998 0.0
C610 C 0.53564 0.72955 0.56593 0.0
C611 C 0.58505 0.67288 0.53522 0.0
C612 C 0.4539 0.73199 0.62631 0.0
C613 C 0.47281 0.73248 0.61032 0.0
C614 C 0.52004 0.69953 0.6059 0.0
C615 C 0.5644 0.70312 0.55205 0.0
C616 C 0.54508 0.709 0.56831 0.0
C617 C 0.49217 0.72515 0.62228 0.0
C618 C 0.51064 0.72012 0.60386 0.0
H619 H 0.61808 0.71413 0.55483 0.0
H620 H 0.58303 0.73114 0.56433 0.0
H621 H 0.54429 0.67816 0.59089 0.0
H622 H 0.4743 0.71273 0.68871 0.0
H623 H 0.5076 0.71381 0.66086 0.0
C624 C 0.81518 0.08948 0.05345 0.0
C625 C 0.8085 0.11019 0.06124 0.0
C626 C 0.80202 0.07163 0.05912 0.0
C627 C 0.75857 0.05588 0.10876 0.0
H628 H 0.76656 0.00093 0.07147 0.0
C629 C 0.75991 0.97602 0.16891 0.0
C630 C 0.75557 0.95668 0.15495 0.0
C631 C 0.75794 -0.00423 0.15454 0.0
C632 C 0.76357 0.01617 0.08187 0.0
H633 H 0.78256 0.12927 0.07857 0.0
H634 H 0.75882 0.09826 0.08704 0.0
H635 H 0.77858 0.03398 0.04813 0.0
H636 H 0.74463 0.94236 0.11598 0.0
H637 H 0.74039 0.97702 0.09089 0.0
H638 H 0.74343 0.03807 0.14239 0.0
C639 C 0.77454 0.09545 0.07783 0.0
C640 C 0.77086 0.03516 0.06865 0.0
C641 C 0.788 0.11322 0.07289 0.0
C642 C 0.74776 0.95727 0.12714 0.0
C643 C 0.74561 0.97704 0.11276 0.0
C644 C 0.75092 0.03697 0.1217 0.0
C645 C 0.78171 0.07432 0.07206 0.0
C646 C 0.76949 0.0551 0.08261 0.0
C647 C 0.75158 -0.00354 0.12591 0.0
C648 C 0.75437 0.01677 0.10913 0.0
H649 H 0.83103 0.08698 0.04437 0.0
H650 H 0.80837 0.0557 0.05474 0.0
H651 H 0.75718 0.07083 0.12034 0.0
H652 H 0.76638 0.97576 0.19021 0.0
H653 H 0.76305 0.01028 0.16528 0.0
C654 C 0.37902 0.27831 0.5565 0.0
C655 C 0.37939 0.30092 0.55722 0.0
C656 C 0.39829 0.26675 0.55646 0.0
C657 C 0.45815 0.27333 0.56199 0.0
H658 H 0.44959 0.23679 0.62858 0.0
C659 C 0.50519 0.27456 0.66443 0.0
C660 C 0.52331 0.26107 0.66294 0.0
C661 C 0.48806 0.27159 0.64597 0.0
C662 C 0.45225 0.24636 0.6095 0.0
H663 H 0.39935 0.32957 0.55523 0.0
H664 H 0.43313 0.30958 0.55688 0.0
H665 H 0.41895 0.24648 0.59928 0.0
H666 H 0.53742 0.23322 0.64249 0.0
H667 H 0.50709 0.22808 0.60978 0.0
H668 H 0.49131 0.27473 0.57437 0.0
C669 C 0.41825 0.30051 0.55557 0.0
C670 C 0.43475 0.2519 0.59253 0.0
C671 C 0.39895 0.31202 0.55498 0.0
C672 C 0.52343 0.24361 0.64413 0.0
C673 C 0.50631 0.24078 0.62537 0.0
C674 C 0.47567 0.26773 0.57902 0.0
C675 C 0.41807 0.27775 0.5582 0.0
C676 C 0.4373 0.26645 0.56953 0.0
C677 C 0.48892 0.25521 0.62572 0.0
C678 C 0.47254 0.25505 0.60353 0.0
H679 H 0.36388 0.2696 0.55768 0.0
H680 H 0.39766 0.24924 0.55764 0.0
H681 H 0.46067 0.28436 0.54427 0.0
H682 H 0.5049 0.28819 0.67867 0.0
H683 H 0.47469 0.28286 0.64638 0.0
C684 C 0.69816 0.61757 0.42895 0.0
C685 C 0.67733 0.61582 0.44016 0.0
C686 C 0.7108 0.59911 0.42571 0.0
C687 C 0.71041 0.53855 0.43463 0.0
H688 H 0.73006 0.54134 0.35657 0.0
C689 C 0.70019 0.483 0.33514 0.0
C690 C 0.7067 0.4628 0.34576 0.0
C691 C 0.70628 0.50184 0.3489 0.0
C692 C 0.72503 0.54033 0.37855 0.0
H693 H 0.65378 0.59415 0.45893 0.0
H694 H 0.67514 0.56167 0.45175 0.0
H695 H 0.72257 0.57453 0.38145 0.0
H696 H 0.72533 0.44606 0.37786 0.0
H697 H 0.7359 0.47926 0.40239 0.0
H698 H 0.71097 0.50409 0.43041 0.0
C699 C 0.68225 0.57717 0.44627 0.0
C700 C 0.7209 0.55939 0.39304 0.0
C701 C 0.66988 0.59575 0.45023 0.0
C702 C 0.72042 0.46163 0.36927 0.0
C703 C 0.72631 0.48051 0.38332 0.0
C704 C 0.71446 0.51942 0.42001 0.0
C705 C 0.70244 0.57852 0.43262 0.0
C706 C 0.71246 0.55874 0.42077 0.0
C707 C 0.71871 0.50072 0.37374 0.0
C708 C 0.72072 0.52021 0.39138 0.0
H709 H 0.70431 0.63309 0.42166 0.0
H710 H 0.72655 0.60081 0.41603 0.0
H711 H 0.70434 0.53746 0.45613 0.0
H712 H 0.68934 0.48409 0.31725 0.0
H713 H 0.69988 0.51715 0.34129 0.0
C714 C 0.87548 0.18086 0.91481 0.0
C715 C 0.86716 0.1838 0.94217 0.0
C716 C 0.89713 0.18446 0.90924 0.0
C717 C 0.94099 0.21793 0.92579 0.0
H718 H 0.97295 0.1756 0.88253 0.0
C719 C 0.02575 0.22854 0.87178 0.0
C720 C 0.02668 0.2199 0.84446 0.0
C721 C 0.00686 0.22672 0.88777 0.0
C722 C 0.96421 0.18755 0.89464 0.0
H723 H 0.8749 0.1937 0.98499 0.0
H724 H 0.91305 0.20075 0.9747 0.0
H725 H 0.93986 0.16478 0.90681 0.0
H726 H 0.00866 0.20433 0.81129 0.0
H727 H 0.97544 0.20157 0.83891 0.0
H728 H 0.96497 0.24094 0.91239 0.0
C729 C 0.90266 0.19506 0.95798 0.0
C730 C 0.9455 0.18131 0.90872 0.0
C731 C 0.88091 0.19108 0.96374 0.0
C732 C 0.00806 0.21142 0.83218 0.0
C733 C -0.01074 0.20953 0.84812 0.0
C734 C 0.95983 0.2242 0.91166 0.0
C735 C 0.91085 0.1916 0.9307 0.0
C736 C 0.93326 0.19668 0.92327 0.0
C737 C -0.01106 0.21604 0.87652 0.0
C738 C 0.97094 0.20925 0.89491 0.0
H739 H 0.86525 0.17578 0.89756 0.0
H740 H 0.90307 0.18217 0.88787 0.0
H741 H 0.93164 0.23 0.93686 0.0
H742 H 0.04018 0.23472 0.8817 0.0
H743 H 0.00687 0.2319 0.90961 0.0
C744 C 0.27982 0.39614 0.48994 0.0
C745 C 0.28618 0.37657 0.47783 0.0
C746 C 0.26788 0.41103 0.47412 0.0
C747 C 0.24225 0.4246 0.40546 0.0
H748 H 0.28064 0.47404 0.40986 0.0
C749 C 0.25777 0.49895 0.3266 0.0
C750 C 0.25642 0.5188 0.34066 0.0
C751 C 0.2546 0.47951 0.34168 0.0
C752 C 0.26969 0.46042 0.40856 0.0
H753 H 0.28293 0.35578 0.44155 0.0
H754 H 0.26222 0.38203 0.41356 0.0
H755 H 0.28577 0.4434 0.44174 0.0
H756 H 0.24933 0.53439 0.38038 0.0
H757 H 0.24379 0.50053 0.40672 0.0
H758 H 0.22657 0.442 0.37142 0.0
C759 C 0.26615 0.38581 0.43529 0.0
C760 C 0.27248 0.44296 0.42694 0.0
C761 C 0.27786 0.37072 0.45138 0.0
C762 C 0.25029 0.51919 0.36922 0.0
C763 C 0.24711 0.4999 0.38419 0.0
C764 C 0.23945 0.44229 0.38682 0.0
C765 C 0.26261 0.40669 0.44579 0.0
C766 C 0.25857 0.42505 0.42605 0.0
C767 C 0.25012 0.47994 0.37085 0.0
C768 C 0.253 0.46043 0.3887 0.0
H769 H 0.28632 0.40103 0.51017 0.0
H770 H 0.26499 0.42692 0.48286 0.0
H771 H 0.23158 0.41079 0.40405 0.0
H772 H 0.26273 0.49844 0.3046 0.0
H773 H 0.25728 0.46425 0.33115 0.0
C774 C 0.10321 0.79866 0.92443 0.0
C775 C 0.10587 0.79545 0.95372 0.0
C776 C 0.08561 0.78993 0.91048 0.0
C777 C 0.03033 0.77169 0.92369 0.0
H778 H 0.03442 0.75366 0.84537 0.0
C779 C 0.9549 0.74911 0.86127 0.0
C780 C 0.95284 0.76111 0.83605 0.0
C781 C 0.9748 0.74783 0.87486 0.0
C782 C 0.03307 0.75854 0.86726 0.0
H783 H 0.09261 0.77996 0.99129 0.0
H784 H 0.06184 0.764 0.9666 0.0
H785 H 0.06717 0.76139 0.87179 0.0
H786 H 0.9696 0.78024 0.80431 0.0
H787 H 0.0046 0.77773 0.82773 0.0
H788 H -0.00383 0.76928 0.91889 0.0
C789 C 0.07333 0.7736 0.95457 0.0
C790 C 0.05178 0.76305 0.88239 0.0
C791 C 0.09104 0.78248 0.96865 0.0
C792 C 0.97108 0.77057 0.82351 0.0
C793 C -0.00899 0.76917 0.83696 0.0
C794 C 0.01162 0.76701 0.90862 0.0
C795 C 0.07027 0.77756 0.92539 0.0
C796 C 0.05061 0.7701 0.9106 0.0
C797 C -0.00714 0.75852 0.86334 0.0
C798 C 0.0128 0.76076 0.88012 0.0
H799 H 0.11428 0.80875 0.91235 0.0
H800 H 0.08357 0.79372 0.88819 0.0
H801 H 0.02881 0.77749 0.94517 0.0
H802 H 0.94085 0.74203 0.87141 0.0
H803 H 0.97586 0.73938 0.89504 0.0
C804 C 0.85969 0.0743 0.92477 0.0
C805 C 0.84585 0.08355 0.94491 0.0
C806 C 0.85522 0.05401 0.91357 0.0
C807 C 0.82612 0.00321 0.92657 0.0
H808 H 0.83523 -0.00414 0.84591 0.0
C809 C 0.81621 0.92013 0.87197 0.0
C810 C 0.83411 0.91456 0.85537 0.0
C811 C 0.81369 0.94143 0.88135 0.0
C812 C 0.83258 -0.00234 0.86846 0.0
H813 H 0.81679 0.07833 0.96975 0.0
H814 H 0.80909 0.04264 0.95018 0.0
H815 H 0.83892 0.03167 0.86648 0.0
H816 H 0.86279 0.92668 0.83438 0.0
H817 H 0.85835 0.96375 0.85034 0.0
H818 H 0.8204 0.96899 0.92859 0.0
C819 C 0.82335 0.05125 0.94306 0.0
C820 C 0.83476 0.01814 0.88025 0.0
C821 C 0.82775 0.07169 0.95421 0.0
C822 C 0.84884 0.93067 0.84716 0.0
C823 C 0.84622 0.95189 0.8562 0.0
C824 C 0.82395 0.98265 0.91474 0.0
C825 C 0.83688 0.04237 0.92228 0.0
C826 C 0.83213 0.02104 0.90954 0.0
C827 C 0.82886 0.95745 0.87384 0.0
C828 C 0.82774 0.97958 0.88567 0.0
H829 H 0.87384 0.08287 0.91723 0.0
H830 H 0.86621 0.04739 0.89804 0.0
H831 H 0.82407 0.00494 0.94923 0.0
H832 H 0.80475 0.90785 0.87866 0.0
H833 H 0.8001 0.94531 0.89481 0.0
C834 C 0.42474 0.34909 0.47907 0.0
C835 C 0.40655 0.33676 0.47247 0.0
C836 C 0.44433 0.34539 0.46537 0.0
C837 C 0.47343 0.30811 0.41607 0.0
H838 H 0.50682 0.36016 0.40159 0.0
C839 C 0.54897 0.31774 0.34034 0.0
C840 C 0.56663 0.32755 0.35369 0.0
C841 C 0.52903 0.31613 0.35433 0.0
C842 C 0.49765 0.34549 0.40549 0.0
H843 H 0.39452 0.31049 0.44703 0.0
H844 H 0.42849 0.30459 0.422 0.0
H845 H 0.47302 0.36261 0.42728 0.0
H846 H 0.57768 0.34165 0.39297 0.0
H847 H 0.54296 0.33936 0.41681 0.0
H848 H 0.49819 0.29129 0.39311 0.0
C849 C 0.42796 0.31669 0.43839 0.0
C850 C 0.47836 0.3468 0.42053 0.0
C851 C 0.40846 0.32003 0.45273 0.0
C852 C 0.56426 0.33456 0.38177 0.0
C853 C 0.54443 0.33318 0.39551 0.0
C854 C 0.49268 0.30688 0.40051 0.0
C855 C 0.44602 0.32976 0.44396 0.0
C856 C 0.46617 0.32808 0.42669 0.0
C857 C 0.52651 0.32443 0.38174 0.0
C858 C 0.50515 0.32552 0.39566 0.0
H859 H 0.42365 0.36199 0.49437 0.0
H860 H 0.45801 0.35526 0.47109 0.0
H861 H 0.46458 0.29332 0.42036 0.0
H862 H 0.55029 0.31222 0.31871 0.0
H863 H 0.51538 0.30931 0.34331 0.0
C864 C 0.12279 0.91531 0.98004 0.0
C865 C 0.1102 0.90078 0.96449 0.0
C866 C 0.12592 0.93658 0.97008 0.0
C867 C 0.12945 0.96351 0.90125 0.0
H868 H 0.13048 0.01755 0.942 0.0
C869 C 0.1326 0.04656 0.8448 0.0
C870 C 0.14188 0.06417 0.85866 0.0
C871 C 0.13178 0.0262 0.85801 0.0
C872 C 0.13074 0.00254 0.93039 0.0
H873 H 0.08885 0.89779 0.92859 0.0
H874 H 0.09384 0.93489 0.91168 0.0
H875 H 0.12037 0.98412 0.96684 0.0
H876 H 0.15837 0.07442 0.89646 0.0
H877 H 0.15775 0.03861 0.9193 0.0
H878 H 0.14007 0.98163 0.86492 0.0
C879 C 0.10171 0.92981 0.9311 0.0
C880 C 0.12474 0.98344 0.94464 0.0
C881 C 0.09848 0.90871 0.94114 0.0
C882 C 0.1515 0.06089 0.8852 0.0
C883 C 0.15077 0.04049 0.89842 0.0
C884 C 0.13568 0.98251 0.8871 0.0
C885 C 0.11645 0.94352 0.9445 0.0
C886 C 0.12356 0.96382 0.93005 0.0
C887 C 0.14016 0.02307 0.88546 0.0
C888 C 0.13601 0.0024 0.9013 0.0
H889 H 0.13235 0.90953 0.99775 0.0
H890 H 0.13728 0.94687 0.98092 0.0
H891 H 0.12926 0.94849 0.88962 0.0
H892 H 0.12463 0.04892 0.82461 0.0
H893 H 0.12325 0.01334 0.84742 0.0
C894 C 0.55922 0.64414 0.47373 0.0
C895 C 0.57593 0.65316 0.45732 0.0
C896 C 0.53785 0.64524 0.46429 0.0
C897 C 0.50198 0.67227 0.41076 0.0
H898 H 0.46803 0.62008 0.42078 0.0
C899 C 0.42331 0.65195 0.34833 0.0
C900 C 0.40676 0.64205 0.36423 0.0
C901 C 0.44333 0.65622 0.36085 0.0
C902 C 0.47721 0.63488 0.41805 0.0
H903 H 0.58306 0.67123 0.41861 0.0
H904 H 0.54626 0.67262 0.40203 0.0
H905 H 0.50377 0.62202 0.44145 0.0
H906 H 0.39756 0.63066 0.40618 0.0
H907 H 0.43228 0.63795 0.42779 0.0
H908 H 0.47541 0.68476 0.38651 0.0
C909 C 0.54943 0.66494 0.42234 0.0
C910 C 0.49769 0.63605 0.43006 0.0
C911 C 0.57067 0.66393 0.43179 0.0
C912 C 0.41016 0.63782 0.3932 0.0
C913 C 0.43005 0.64197 0.40559 0.0
C914 C 0.48149 0.67102 0.39851 0.0
C915 C 0.53273 0.65532 0.43818 0.0
C916 C 0.5104 0.65473 0.4266 0.0
C917 C 0.44707 0.65062 0.38942 0.0
C918 C 0.46887 0.65231 0.40212 0.0
H919 H 0.56267 0.63588 0.49356 0.0
H920 H 0.52535 0.63799 0.47733 0.0
H921 H 0.51118 0.68703 0.40788 0.0
H922 H 0.42116 0.65538 0.32596 0.0
H923 H 0.45617 0.66292 0.34787 0.0
C924 C 0.31651 0.40919 0.57108 0.0
C925 C 0.33512 0.40184 0.55729 0.0
C926 C 0.31461 0.43071 0.57902 0.0
C927 C 0.33867 0.48551 0.57026 0.0
H928 H 0.3109 0.4944 0.64294 0.0
C929 C 0.32721 0.57124 0.61361 0.0
C930 C 0.33119 0.57399 0.64257 0.0
C931 C 0.32496 0.55052 0.60253 0.0
C932 C 0.31885 0.49225 0.62272 0.0
H933 H 0.36605 0.4112 0.53991 0.0
H934 H 0.36322 0.44905 0.55485 0.0
H935 H 0.31387 0.45811 0.62438 0.0
H936 H 0.33542 0.55764 0.68289 0.0
H937 H 0.33203 0.5213 0.66364 0.0
H938 H 0.34475 0.51956 0.56945 0.0
C939 C 0.34984 0.43822 0.55903 0.0
C940 C 0.32027 0.47141 0.6118 0.0
C941 C 0.35155 0.41659 0.55052 0.0
C942 C 0.33196 0.55582 0.66056 0.0
C943 C 0.33004 0.53503 0.64943 0.0
C944 C 0.33749 0.50637 0.58138 0.0
C945 C 0.3315 0.4454 0.57396 0.0
C946 C 0.33013 0.46774 0.58537 0.0
C947 C 0.3271 0.5321 0.62012 0.0
C948 C 0.32755 0.51002 0.60777 0.0
H949 H 0.30344 0.39813 0.57606 0.0
H950 H 0.29995 0.43573 0.58954 0.0
H951 H 0.3462 0.48337 0.54977 0.0
H952 H 0.32668 0.58513 0.59939 0.0
H953 H 0.32215 0.54894 0.58002 0.0
C954 C 0.07469 0.85327 0.07474 0.0
C955 C 0.08104 0.85635 0.04629 0.0
C956 C 0.05316 0.85034 0.08202 0.0
C957 C -0.00219 0.86021 0.06155 0.0
H958 H 0.98585 0.812 0.11281 0.0
C959 C 0.91194 0.84418 0.10173 0.0
C960 C 0.90973 0.84077 0.13108 0.0
C961 C 0.93207 0.84285 0.08867 0.0
C962 C -0.01109 0.82558 0.09863 0.0
H963 H 0.06931 0.86009 0.00333 0.0
H964 H 0.03103 0.85583 0.01643 0.0
H965 H 0.02225 0.81733 0.09418 0.0
H966 H 0.92656 0.83184 0.16952 0.0
H967 H 0.962 0.82947 0.14672 0.0
H968 H 0.96473 0.86898 0.06674 0.0
C969 C 0.04313 0.85526 0.03289 0.0
C970 C 0.00973 0.82859 0.08787 0.0
C971 C 0.06497 0.8579 0.02542 0.0
C972 C 0.92783 0.83442 0.14684 0.0
C973 C 0.9481 0.83313 0.13373 0.0
C974 C 0.977 0.85726 0.07243 0.0
C975 C 0.03716 0.85073 0.0612 0.0
C976 C 0.0145 0.84618 0.06964 0.0
C977 C 0.95056 0.83813 0.10465 0.0
C978 C 0.97235 0.84009 0.09145 0.0
H979 H 0.08652 0.85214 0.09152 0.0
H980 H 0.04906 0.84742 0.10407 0.0
H981 H 0.00106 0.87401 0.04781 0.0
H982 H 0.89816 0.84888 0.08904 0.0
H983 H 0.93325 0.84623 0.06615 0.0
C984 C 0.65806 0.56138 0.53196 0.0
C985 C 0.63779 0.57097 0.5356 0.0
C986 C 0.66222 0.54083 0.54366 0.0
C987 C 0.64202 0.50547 0.60178 0.0
H988 H 0.67702 0.46122 0.56681 0.0
C989 C 0.65624 0.42379 0.65829 0.0
C990 C 0.65206 0.40593 0.64105 0.0
C991 C 0.6592 0.44436 0.64607 0.0
C992 C 0.66725 0.47345 0.5769 0.0
H993 H 0.60542 0.56602 0.5518 0.0
H994 H 0.61239 0.53011 0.57117 0.0
H995 H 0.67108 0.49554 0.54191 0.0
H996 H 0.64915 0.39505 0.59783 0.0
H997 H 0.65422 0.43071 0.57652 0.0
H998 H 0.63729 0.48311 0.63613 0.0
C999 C 0.62535 0.53857 0.56033 0.0
C1000 C 0.66397 0.49317 0.56269 0.0
C1001 C 0.62126 0.559 0.54883 0.0
C1002 C 0.65239 0.40863 0.6115 0.0
C1003 C 0.65541 0.42907 0.59933 0.0
C1004 C 0.64522 0.48576 0.61591 0.0
C1005 C 0.6461 0.52963 0.55898 0.0
C1006 C 0.65091 0.50921 0.57469 0.0
C1007 C 0.65814 0.44731 0.61646 0.0
C1008 C 0.6575 0.46932 0.60338 0.0
H1009 H 0.67112 0.57037 0.5221 0.0
H1010 H 0.67836 0.53432 0.54215 0.0
H1011 H 0.63227 0.51769 0.61195 0.0
H1012 H 0.65589 0.42207 0.68115 0.0
H1013 H 0.66152 0.45807 0.65984 0.0
C1014 C 0.90259 0.14743 0.06247 0.0
C1015 C 0.90062 0.14631 0.03288 0.0
C1016 C 0.92273 0.14693 0.07537 0.0
C1017 C 0.98023 0.15777 0.06138 0.0
H1018 H 0.98735 0.12956 0.13463 0.0
C1019 C 0.06257 0.14829 0.1177 0.0
C1020 C 0.06315 0.15105 0.14721 0.0
C1021 C 0.04301 0.14857 0.10316 0.0
C1022 C 0.98555 0.13774 0.11435 0.0
H1023 H 0.91836 0.1433 0.99355 0.0
H1024 H 0.95391 0.14212 0.01624 0.0
H1025 H 0.95334 0.12618 0.10953 0.0
H1026 H 0.04381 0.1569 0.18455 0.0
H1027 H 0.00941 0.15742 0.1591 0.0
H1028 H 0.01264 0.16911 0.06622 0.0
C1029 C 0.9397 0.14364 0.02942 0.0
C1030 C 0.96606 0.13577 0.09988 0.0
C1031 C 0.91937 0.14409 0.01642 0.0
C1032 C 0.04381 0.15488 0.16179 0.0
C1033 C 0.02415 0.15493 0.14725 0.0
C1034 C -0.00019 0.15962 0.07581 0.0
C1035 C 0.94161 0.14524 0.0591 0.0
C1036 C 0.96303 0.14595 0.07333 0.0
C1037 C 0.02352 0.15143 0.11782 0.0
C1038 C 0.00263 0.14979 0.10258 0.0
H1039 H 0.88853 0.14899 0.07587 0.0
H1040 H 0.92347 0.14852 0.09817 0.0
H1041 H 0.9784 0.16609 0.04121 0.0
H1042 H 0.07727 0.14535 0.10594 0.0
H1043 H 0.0431 0.14569 0.08057 0.0
C1044 C 0.17474 0.76845 0.03962 0.0
C1045 C 0.15453 0.77713 0.04629 0.0
C1046 C 0.18294 0.7511 0.05539 0.0
C1047 C 0.18006 0.7361 0.12911 0.0
H1048 H 0.22325 0.69362 0.10897 0.0
C1049 C 0.23056 0.69061 0.21295 0.0
C1050 C 0.25253 0.68773 0.20694 0.0
C1051 C 0.21667 0.6988 0.19232 0.0
C1052 C 0.21131 0.70553 0.11486 0.0
H1053 H 0.12604 0.7735 0.0723 0.0
H1054 H 0.14015 0.74279 0.09971 0.0
H1055 H 0.20008 0.70916 0.07214 0.0
H1056 H 0.27736 0.69161 0.17498 0.0
H1057 H 0.25309 0.70644 0.13886 0.0
H1058 H 0.19175 0.73326 0.17149 0.0
C1059 C 0.14976 0.74941 0.08248 0.0
C1060 C 0.19793 0.71425 0.09385 0.0
C1061 C 0.14155 0.76677 0.06662 0.0
C1062 C 0.26052 0.69388 0.18019 0.0
C1063 C 0.24657 0.70201 0.15944 0.0
C1064 C 0.19342 0.72745 0.15003 0.0
C1065 C 0.17109 0.74242 0.07826 0.0
C1066 C 0.18244 0.72994 0.10069 0.0
C1067 C 0.22444 0.70426 0.16518 0.0
C1068 C 0.20947 0.7124 0.14307 0.0
H1069 H 0.18511 0.77654 0.02429 0.0
H1070 H 0.19944 0.74617 0.05165 0.0
H1071 H 0.16868 0.74854 0.13503 0.0
H1072 H 0.22403 0.68602 0.23348 0.0
H1073 H 0.19971 0.70027 0.1974 0.0
C1074 C 0.69695 0.68612 0.53793 0.0
C1075 C 0.69561 0.66418 0.54591 0.0
C1076 C 0.71291 0.69929 0.54928 0.0
C1077 C 0.76043 0.69996 0.59765 0.0
H1078 H 0.73018 0.749 0.62949 0.0
C1079 C 0.78437 0.73897 0.70283 0.0
C1080 C 0.78439 0.76171 0.70413 0.0
C1081 C 0.77631 0.72852 0.67908 0.0
C1082 C 0.73902 0.73564 0.62042 0.0
H1083 H 0.71153 0.6382 0.56899 0.0
H1084 H 0.73885 0.66129 0.58961 0.0
H1085 H 0.71338 0.72827 0.59231 0.0
H1086 H 0.7757 0.79127 0.68168 0.0
H1087 H 0.7611 0.77293 0.64046 0.0
H1088 H 0.78563 0.70688 0.6271 0.0
C1089 C 0.72772 0.6684 0.57453 0.0
C1090 C 0.72947 0.7238 0.59892 0.0
C1091 C 0.71187 0.65518 0.56298 0.0
C1092 C 0.77562 0.77374 0.68151 0.0
C1093 C 0.76743 0.76327 0.65782 0.0
C1094 C 0.76996 0.71178 0.61933 0.0
C1095 C 0.7276 0.69082 0.56909 0.0
C1096 C 0.73981 0.70551 0.58775 0.0
C1097 C 0.76796 0.74058 0.65625 0.0
C1098 C 0.75908 0.72941 0.63135 0.0
H1099 H 0.68479 0.69356 0.52468 0.0
H1100 H 0.71277 0.71642 0.5441 0.0
H1101 H 0.76888 0.68608 0.58927 0.0
H1102 H 0.7907 0.72924 0.72013 0.0
H1103 H 0.77643 0.71099 0.67871 0.0
C1104 C 0.80851 0.2163 0.03274 0.0
C1105 C 0.81587 0.19612 0.04257 0.0
C1106 C 0.79635 0.22954 0.05059 0.0
C1107 C 0.78491 0.23625 0.12725 0.0
H1108 H 0.7391 0.27399 0.10097 0.0
C1109 C 0.72788 0.27963 0.20384 0.0
C1110 C 0.72591 0.30203 0.19925 0.0
C1111 C 0.73775 0.26672 0.18351 0.0
C1112 C 0.75191 0.26353 0.10848 0.0
H1113 H 0.81501 0.17322 0.07748 0.0
H1114 H 0.79308 0.19539 0.10788 0.0
H1115 H 0.75824 0.25128 0.06703 0.0
H1116 H 0.73192 0.32844 0.16958 0.0
H1117 H 0.74912 0.30577 0.13393 0.0
H1118 H 0.77827 0.24813 0.16871 0.0
C1119 C 0.79751 0.20173 0.08718 0.0
C1120 C 0.76294 0.25063 0.08909 0.0
C1121 C 0.81003 0.18888 0.0697 0.0
C1122 C 0.73346 0.31122 0.17371 0.0
C1123 C 0.74309 0.29827 0.15325 0.0
C1124 C 0.7737 0.24884 0.14659 0.0
C1125 C 0.79105 0.22249 0.07825 0.0
C1126 C 0.77949 0.23673 0.09832 0.0
C1127 C 0.74554 0.27597 0.15814 0.0
C1128 C 0.75708 0.26253 0.13741 0.0
H1129 H 0.81285 0.22213 0.01174 0.0
H1130 H 0.79171 0.24549 0.04305 0.0
H1131 H 0.79797 0.22624 0.13505 0.0
H1132 H 0.72225 0.2722 0.22341 0.0
H1133 H 0.73939 0.24951 0.18764 0.0
C1134 C 0.2586 0.31558 0.53396 0.0
C1135 C 0.27804 0.30502 0.52795 0.0
C1136 C 0.24156 0.30415 0.54654 0.0
C1137 C 0.22607 0.24921 0.57561 0.0
H1138 H 0.20785 0.28315 0.63993 0.0
C1139 C 0.18307 0.2094 0.6715 0.0
C1140 C 0.18798 0.21736 0.69837 0.0
C1141 C 0.19003 0.22039 0.64712 0.0
C1142 C 0.21293 0.27335 0.62227 0.0
H1143 H 0.29414 0.27408 0.52675 0.0
H1144 H 0.26484 0.25411 0.5487 0.0
H1145 H 0.22539 0.30092 0.60013 0.0
H1146 H 0.20372 0.24292 0.72133 0.0
H1147 H 0.21712 0.26162 0.67884 0.0
H1148 H 0.21529 0.2214 0.59884 0.0
C1149 C 0.26227 0.27105 0.54371 0.0
C1150 C 0.2226 0.28365 0.59898 0.0
C1151 C 0.27913 0.28246 0.53079 0.0
C1152 C 0.19998 0.23645 0.70068 0.0
C1153 C 0.20734 0.24727 0.6763 0.0
C1154 C 0.21674 0.23886 0.59911 0.0
C1155 C 0.24393 0.28207 0.55368 0.0
C1156 C 0.22983 0.27166 0.5756 0.0
C1157 C 0.20238 0.23943 0.64912 0.0
C1158 C 0.21051 0.25071 0.62307 0.0
H1159 H 0.25754 0.33306 0.53223 0.0
H1160 H 0.22739 0.31304 0.55303 0.0
H1161 H 0.23109 0.23944 0.55788 0.0
H1162 H 0.1734 0.1949 0.66939 0.0
H1163 H 0.18545 0.21406 0.62673 0.0
C1164 C 0.65644 0.71626 0.44987 0.0
C1165 C 0.66447 0.69796 0.46412 0.0
C1166 C 0.67 0.72913 0.4332 0.0
C1167 C 0.71931 0.72415 0.39111 0.0
H1168 H 0.71144 0.78593 0.38002 0.0
C1169 C 0.75353 0.76867 0.29278 0.0
C1170 C 0.76111 0.78984 0.29621 0.0
C1171 C 0.7425 0.75815 0.31487 0.0
C1172 C 0.71411 0.76873 0.38301 0.0
H1173 H 0.693 0.679 0.47318 0.0
H1174 H 0.71699 0.7017 0.44412 0.0
H1175 H 0.6926 0.7674 0.41849 0.0
H1176 H 0.76349 0.81665 0.32513 0.0
H1177 H 0.74513 0.79809 0.36414 0.0
H1178 H 0.74111 0.72548 0.35604 0.0
C1179 C 0.70014 0.70606 0.44573 0.0
C1180 C 0.70311 0.75807 0.40494 0.0
C1181 C 0.68652 0.69323 0.46262 0.0
C1182 C 0.75764 0.80032 0.32203 0.0
C1183 C 0.74699 0.78971 0.34427 0.0
C1184 C 0.73045 0.73484 0.36932 0.0
C1185 C 0.69188 0.72381 0.43021 0.0
C1186 C 0.70536 0.7356 0.40902 0.0
C1187 C 0.73922 0.76849 0.341 0.0
C1188 C 0.72781 0.75722 0.36475 0.0
H1189 H 0.63943 0.72014 0.45075 0.0
H1190 H 0.66302 0.74252 0.4214 0.0
H1191 H 0.72116 0.70679 0.39336 0.0
H1192 H 0.75581 0.76042 0.27287 0.0
H1193 H 0.73634 0.74202 0.31132 0.0
C1194 C 0.77133 0.13752 0.91855 0.0
C1195 C 0.78404 0.14367 0.94154 0.0
C1196 C 0.75323 0.14969 0.91108 0.0
C1197 C 0.74181 0.2059 0.90742 0.0
H1198 H 0.68847 0.18769 0.87259 0.0
C1199 C 0.69419 0.26229 0.83154 0.0
C1200 C 0.686 0.25239 0.8072 0.0
C1201 C 0.70242 0.24972 0.85385 0.0
C1202 C 0.70336 0.19303 0.88215 0.0
H1203 H 0.7872 0.16613 0.97613 0.0
H1204 H 0.75585 0.18788 0.96256 0.0
H1205 H 0.7077 0.16277 0.90417 0.0
H1206 H 0.6806 0.22163 0.78674 0.0
H1207 H 0.69535 0.19977 0.82517 0.0
H1208 H 0.7385 0.23548 0.88393 0.0
C1209 C 0.75957 0.17344 0.95069 0.0
C1210 C 0.71419 0.17883 0.90044 0.0
C1211 C 0.77737 0.16092 0.95857 0.0
C1212 C 0.68653 0.22971 0.80541 0.0
C1213 C 0.69482 0.21717 0.82757 0.0
C1214 C 0.73113 0.21999 0.88889 0.0
C1215 C 0.74803 0.16854 0.92603 0.0
C1216 C 0.73387 0.1849 0.91252 0.0
C1217 C 0.70273 0.22698 0.85218 0.0
C1218 C 0.71218 0.21344 0.87524 0.0
H1219 H 0.77645 0.12449 0.90493 0.0
H1220 H 0.74471 0.14562 0.89188 0.0
H1221 H 0.75714 0.21089 0.9161 0.0
H1222 H 0.69372 0.27973 0.83366 0.0
H1223 H 0.70827 0.2578 0.87254 0.0
C1224 C 0.32266 0.29745 0.41438 0.0
C1225 C 0.31345 0.30482 0.43969 0.0
C1226 C 0.31191 0.28229 0.39786 0.0
C1227 C 0.26741 0.24197 0.39904 0.0
H1228 H 0.2696 0.25082 0.31761 0.0
C1229 C 0.21324 0.1954 0.32002 0.0
C1230 C 0.2238 0.18724 0.29604 0.0
C1231 C 0.22397 0.20943 0.33833 0.0
C1232 C 0.26897 0.24803 0.3403 0.0
H1233 H 0.28581 0.30194 0.46766 0.0
H1234 H 0.26684 0.2758 0.43859 0.0
H1235 H 0.28899 0.27537 0.34833 0.0
H1236 H 0.25361 0.1877 0.27203 0.0
H1237 H 0.27224 0.21226 0.30375 0.0
H1238 H 0.24704 0.21472 0.39075 0.0
C1239 C 0.28255 0.28142 0.43171 0.0
C1240 C 0.28016 0.26204 0.35794 0.0
C1241 C 0.29338 0.29649 0.44834 0.0
C1242 C 0.24512 0.19364 0.29045 0.0
C1243 C 0.25574 0.2078 0.30852 0.0
C1244 C 0.25606 0.22799 0.38134 0.0
C1245 C 0.29159 0.27429 0.4061 0.0
C1246 C 0.27963 0.25917 0.38753 0.0
C1247 C 0.24533 0.21578 0.33271 0.0
C1248 C 0.25682 0.23084 0.35176 0.0
H1249 H 0.33825 0.30332 0.40736 0.0
H1250 H 0.31958 0.27681 0.3786 0.0
H1251 H 0.26685 0.23911 0.42171 0.0
H1252 H 0.19686 0.19058 0.32491 0.0
H1253 H 0.21551 0.21546 0.35671 0.0
C1254 C 0.21504 0.84839 0.92728 0.0
C1255 C 0.20307 0.83825 0.94888 0.0
C1256 C 0.23182 0.83733 0.91407 0.0
C1257 C 0.26161 0.78475 0.9106 0.0
H1258 H 0.2473 0.79068 0.83094 0.0
C1259 C 0.2848 0.72106 0.82579 0.0
C1260 C 0.29247 0.72942 0.79985 0.0
C1261 C 0.27616 0.73492 0.84617 0.0
C1262 C 0.25177 0.78897 0.85302 0.0
H1263 H 0.20103 0.81001 0.9764 0.0
H1264 H 0.22989 0.79042 0.95286 0.0
H1265 H 0.23187 0.81548 0.86465 0.0
H1266 H 0.29651 0.75868 0.77452 0.0
H1267 H 0.28172 0.78275 0.80994 0.0
H1268 H 0.28118 0.75769 0.89856 0.0
C1269 C 0.22662 0.80693 0.94619 0.0
C1270 C 0.24303 0.80333 0.87242 0.0
C1271 C 0.21012 0.81823 0.95984 0.0
C1272 C 0.29088 0.75177 0.79442 0.0
C1273 C 0.28228 0.76555 0.81466 0.0
C1274 C 0.27043 0.77029 0.89103 0.0
C1275 C 0.23646 0.81576 0.92178 0.0
C1276 C 0.24782 0.80148 0.90145 0.0
C1277 C 0.2749 0.75735 0.84083 0.0
C1278 C 0.26557 0.77229 0.86201 0.0
H1279 H 0.20994 0.86387 0.91859 0.0
H1280 H 0.23966 0.84488 0.89596 0.0
H1281 H 0.26552 0.78281 0.93282 0.0
H1282 H 0.286 0.70391 0.8306 0.0
H1283 H 0.27036 0.72809 0.86601 0.0
loop_
_geom_bond_atom_site_label_1
_geom_bond_atom_site_label_2
_geom_bond_distance
_geom_bond_site_symmetry_2
_ccdc_geom_bond_type
Zn0 O6 1.920 . S
Zn0 O12 1.898 . S
Zn0 O15 1.905 . S
Zn1 O9 1.905 . S
Zn1 O10 1.898 . S
Zn1 O18 1.920 . S
Zn2 O5 2.080 . S
Zn2 O8 2.114 1_554 S
Zn2 O11 2.120 1_554 S
Zn2 O13 2.120 . S
Zn2 O14 2.114 . S
Zn2 O17 2.080 1_554 S
C3 O8 1.166 . S
C3 O9 1.182 . S
C4 O10 1.167 . S
C4 O11 1.299 . S
O5 Zn2 2.080 . S
O5 C19 1.305 . S
O6 Zn0 1.920 . S
O6 C19 1.234 . S
C7 O12 1.167 . S
C7 O13 1.299 . S
O8 Zn2 2.114 1_556 S
O8 C3 1.166 . S
O9 Zn1 1.905 . S
O9 C3 1.182 . S
O10 Zn1 1.898 . S
O10 C4 1.167 . S
O11 Zn2 2.120 1_556 S
O11 C4 1.299 . S
O12 Zn0 1.898 . S
O12 C7 1.167 . S
O13 Zn2 2.120 . S
O13 C7 1.299 . S
O14 Zn2 2.114 . S
O14 C16 1.166 . S
O15 Zn0 1.905 . S
O15 C16 1.182 . S
C16 O14 1.166 . S
C16 O15 1.182 . S
O17 Zn2 2.080 1_556 S
O17 C20 1.305 . S
O18 Zn1 1.920 . S
O18 C20 1.234 . S
C19 O5 1.305 . S
C19 O6 1.234 . S
C20 O17 1.305 . S
C20 O18 1.234 . S
Zn21 O27 1.920 . S
Zn21 O33 1.898 . S
Zn21 O36 1.905 . S
Zn22 O30 1.905 . S
Zn22 O31 1.898 . S
Zn22 O39 1.920 . S
Zn23 O26 2.080 . S
Zn23 O29 2.114 . S
Zn23 O32 2.120 . S
Zn23 O34 2.120 . S
Zn23 O35 2.114 . S
Zn23 O38 2.080 . S
C24 O29 1.166 . S
C24 O30 1.182 . S
C25 O31 1.167 . S
C25 O32 1.299 . S
O26 Zn23 2.080 . S
O26 C40 1.305 . S
O27 Zn21 1.920 . S
O27 C40 1.234 . S
C28 O33 1.167 . S
C28 O34 1.299 . S
O29 Zn23 2.114 . S
O29 C24 1.166 . S
O30 Zn22 1.905 . S
O30 C24 1.182 . S
O31 Zn22 1.898 . S
O31 C25 1.167 . S
O32 Zn23 2.120 . S
O32 C25 1.299 . S
O33 Zn21 1.898 . S
O33 C28 1.167 . S
O34 Zn23 2.120 . S
O34 C28 1.299 . S
O35 Zn23 2.114 . S
O35 C37 1.166 . S
O36 Zn21 1.905 . S
O36 C37 1.182 . S
C37 O35 1.166 . S
C37 O36 1.182 . S
O38 Zn23 2.080 . S
O38 C41 1.305 . S
O39 Zn22 1.920 . S
O39 C41 1.234 . S
C40 O26 1.305 . S
C40 O27 1.234 . S
C41 O38 1.305 . S
C41 O39 1.234 . S
Zn42 O48 1.920 . S
Zn42 O54 1.898 . S
Zn42 O57 1.905 . S
Zn43 O51 1.905 . S
Zn43 O52 1.898 . S
Zn43 O60 1.920 . S
Zn44 O47 2.080 1_554 S
Zn44 O50 2.114 . S
Zn44 O53 2.120 . S
Zn44 O55 2.120 1_554 S
Zn44 O56 2.114 1_554 S
Zn44 O59 2.080 . S
C45 O50 1.166 . S
C45 O51 1.182 . S
C46 O52 1.167 . S
C46 O53 1.299 . S
O47 Zn44 2.080 1_556 S
O47 C61 1.305 . S
O48 Zn42 1.920 . S
O48 C61 1.234 . S
C49 O54 1.167 . S
C49 O55 1.299 . S
O50 Zn44 2.114 . S
O50 C45 1.166 . S
O51 Zn43 1.905 . S
O51 C45 1.182 . S
O52 Zn43 1.898 . S
O52 C46 1.167 . S
O53 Zn44 2.120 . S
O53 C46 1.299 . S
O54 Zn42 1.898 . S
O54 C49 1.167 . S
O55 Zn44 2.120 1_556 S
O55 C49 1.299 . S
O56 Zn44 2.114 1_556 S
O56 C58 1.166 . S
O57 Zn42 1.905 . S
O57 C58 1.182 . S
C58 O56 1.166 . S
C58 O57 1.182 . S
O59 Zn44 2.080 . S
O59 C62 1.305 . S
O60 Zn43 1.920 . S
O60 C62 1.234 . S
C61 O47 1.305 . S
C61 O48 1.234 . S
C62 O59 1.305 . S
C62 O60 1.234 . S
Zn63 O69 1.920 . S
Zn63 O75 1.898 . S
Zn63 O78 1.905 . S
Zn64 O72 1.905 . S
Zn64 O73 1.898 . S
Zn64 O81 1.920 . S
Zn65 O68 2.080 . S
Zn65 O71 2.114 . S
Zn65 O74 2.120 . S
Zn65 O76 2.120 . S
Zn65 O77 2.114 . S
Zn65 O80 2.080 . S
C66 O71 1.166 . S
C66 O72 1.182 . S
C67 O73 1.167 . S
C67 O74 1.299 . S
O68 Zn65 2.080 . S
O68 C82 1.305 . S
O69 Zn63 1.920 . S
O69 C82 1.234 . S
C70 O75 1.167 . S
C70 O76 1.299 . S
O71 Zn65 2.114 . S
O71 C66 1.166 . S
O72 Zn64 1.905 . S
O72 C66 1.182 . S
O73 Zn64 1.898 . S
O73 C67 1.167 . S
O74 Zn65 2.120 . S
O74 C67 1.299 . S
O75 Zn63 1.898 . S
O75 C70 1.167 . S
O76 Zn65 2.120 . S
O76 C70 1.299 . S
O77 Zn65 2.114 . S
O77 C79 1.166 . S
O78 Zn63 1.905 . S
O78 C79 1.182 . S
C79 O77 1.166 . S
C79 O78 1.182 . S
O80 Zn65 2.080 . S
O80 C83 1.305 . S
O81 Zn64 1.920 . S
O81 C83 1.234 . S
C82 O68 1.305 . S
C82 O69 1.234 . S
C83 O80 1.305 . S
C83 O81 1.234 . S
C84 C85 1.391 . S
C84 C88 1.391 . S
C84 H126 0.948 . S
C85 C84 1.391 . S
C85 C86 1.391 . S
C86 C85 1.391 . S
C86 H142 0.947 . S
C86 C143 1.392 . S
C87 C88 1.391 . S
C87 C91 1.397 . S
C87 C143 1.419 . S
C88 C84 1.391 . S
C88 C87 1.391 . S
C88 C89 1.399 . S
C89 C88 1.399 . S
C89 C92 1.396 . S
C89 C101 1.453 . S
C89 C102 1.684 . S
H90 C114 0.948 . S
C91 C87 1.397 . S
C91 C92 1.394 . S
C91 C110 1.723 . S
C92 C89 1.396 . S
C92 C91 1.394 . S
C92 C122 1.723 . S
H93 C116 0.947 . S
H94 C117 0.948 . S
H95 C123 0.982 . S
H96 C124 0.979 . S
H97 C124 0.980 . S
H98 C124 0.983 . S
H99 C123 0.979 . S
H100 C123 0.977 . S
C101 C89 1.453 . S
C101 H130 0.982 . S
C101 H131 0.979 . S
C101 H132 0.977 . S
C102 C89 1.684 . S
C102 H127 0.979 . S
C102 H128 0.980 . S
C102 H129 0.983 . S
C103 C104 1.391 . S
C103 C108 1.391 . S
C103 H133 0.948 . S
C104 C103 1.391 . S
C104 C105 1.391 . S
C105 C104 1.391 . S
C105 C106 1.392 . S
C105 H134 0.947 . S
C106 C105 1.392 . S
C106 C107 1.419 . S
C106 H135 0.948 . S
C107 C106 1.419 . S
C107 C108 1.391 . S
C107 C111 1.397 . S
C108 C103 1.391 . S
C108 C107 1.391 . S
C108 C109 1.399 . S
C109 C108 1.399 . S
C109 C110 1.396 . S
C109 C112 1.453 . S
C109 C113 1.684 . S
C110 C91 1.723 . S
C110 C109 1.396 . S
C110 C111 1.394 . S
C111 C107 1.397 . S
C111 C110 1.394 . S
C111 C121 1.723 . S
C112 C109 1.453 . S
C112 H136 0.982 . S
C112 H137 0.979 . S
C112 H138 0.977 . S
C113 C109 1.684 . S
C113 H139 0.979 . S
C113 H140 0.980 . S
C113 H141 0.983 . S
C114 H90 0.948 . S
C114 C115 1.391 . S
C114 C119 1.391 . S
C115 C114 1.391 . S
C115 C116 1.391 . S
C116 H93 0.947 . S
C116 C115 1.391 . S
C116 C117 1.392 . S
C117 H94 0.948 . S
C117 C116 1.392 . S
C117 C118 1.419 . S
C118 C117 1.419 . S
C118 C119 1.391 . S
C118 C122 1.397 . S
C119 C114 1.391 . S
C119 C118 1.391 . S
C119 C120 1.399 . S
C120 C119 1.399 . S
C120 C121 1.396 . S
C120 C123 1.453 . S
C120 C124 1.684 . S
C121 C111 1.723 . S
C121 C120 1.396 . S
C121 C122 1.394 . S
C122 C92 1.723 . S
C122 C118 1.397 . S
C122 C121 1.394 . S
C123 H95 0.982 . S
C123 H99 0.979 . S
C123 H100 0.977 . S
C123 C120 1.453 . S
C124 H96 0.979 . S
C124 H97 0.980 . S
C124 H98 0.983 . S
C124 C120 1.684 . S
H125 C143 0.948 . S
H126 C84 0.948 . S
H127 C102 0.979 . S
H128 C102 0.980 . S
H129 C102 0.983 . S
H130 C101 0.982 . S
H131 C101 0.979 . S
H132 C101 0.977 . S
H133 C103 0.948 . S
H134 C105 0.947 . S
H135 C106 0.948 . S
H136 C112 0.982 . S
H137 C112 0.979 . S
H138 C112 0.977 . S
H139 C113 0.979 . S
H140 C113 0.980 . S
H141 C113 0.983 . S
H142 C86 0.947 . S
C143 C86 1.392 . S
C143 C87 1.419 . S
C143 H125 0.948 . S
C144 C145 1.391 . S
C144 C148 1.391 . S
C144 H186 0.948 . S
C145 C144 1.391 . S
C145 C146 1.391 . S
C146 C145 1.391 . S
C146 H202 0.947 . S
C146 C203 1.392 . S
C147 C148 1.391 . S
C147 C151 1.397 . S
C147 C203 1.419 . S
C148 C144 1.391 . S
C148 C147 1.391 . S
C148 C149 1.399 . S
C149 C148 1.399 . S
C149 C152 1.396 . S
C149 C161 1.453 . S
C149 C162 1.684 . S
H150 C174 0.948 . S
C151 C147 1.397 . S
C151 C152 1.394 . S
C151 C170 1.723 . S
C152 C149 1.396 . S
C152 C151 1.394 . S
C152 C182 1.723 . S
H153 C176 0.947 . S
H154 C177 0.948 . S
H155 C183 0.982 . S
H156 C184 0.979 . S
H157 C184 0.980 . S
H158 C184 0.983 . S
H159 C183 0.979 . S
H160 C183 0.977 . S
C161 C149 1.453 . S
C161 H190 0.982 . S
C161 H191 0.979 . S
C161 H192 0.977 . S
C162 C149 1.684 . S
C162 H187 0.979 . S
C162 H188 0.980 . S
C162 H189 0.983 . S
C163 C164 1.391 . S
C163 C168 1.391 . S
C163 H193 0.948 . S
C164 C163 1.391 . S
C164 C165 1.391 . S
C165 C164 1.391 . S
C165 C166 1.392 . S
C165 H194 0.947 . S
C166 C165 1.392 . S
C166 C167 1.419 . S
C166 H195 0.948 . S
C167 C166 1.419 . S
C167 C168 1.391 . S
C167 C171 1.397 . S
C168 C163 1.391 . S
C168 C167 1.391 . S
C168 C169 1.399 . S
C169 C168 1.399 . S
C169 C170 1.396 . S
C169 C172 1.453 . S
C169 C173 1.684 . S
C170 C151 1.723 . S
C170 C169 1.396 . S
C170 C171 1.394 . S
C171 C167 1.397 . S
C171 C170 1.394 . S
C171 C181 1.723 . S
C172 C169 1.453 . S
C172 H196 0.982 . S
C172 H197 0.979 . S
C172 H198 0.977 . S
C173 C169 1.684 . S
C173 H199 0.979 . S
C173 H200 0.980 . S
C173 H201 0.983 . S
C174 H150 0.948 . S
C174 C175 1.391 . S
C174 C179 1.391 . S
C175 C174 1.391 . S
C175 C176 1.391 . S
C176 H153 0.947 . S
C176 C175 1.391 . S
C176 C177 1.392 . S
C177 H154 0.948 . S
C177 C176 1.392 . S
C177 C178 1.419 . S
C178 C177 1.419 . S
C178 C179 1.391 . S
C178 C182 1.397 . S
C179 C174 1.391 . S
C179 C178 1.391 . S
C179 C180 1.399 . S
C180 C179 1.399 . S
C180 C181 1.396 . S
C180 C183 1.453 . S
C180 C184 1.684 . S
C181 C171 1.723 . S
C181 C180 1.396 . S
C181 C182 1.394 . S
C182 C152 1.723 . S
C182 C178 1.397 . S
C182 C181 1.394 . S
C183 H155 0.982 . S
C183 H159 0.979 . S
C183 H160 0.977 . S
C183 C180 1.453 . S
C184 H156 0.979 . S
C184 H157 0.980 . S
C184 H158 0.983 . S
C184 C180 1.684 . S
H185 C203 0.948 . S
H186 C144 0.948 . S
H187 C162 0.979 . S
H188 C162 0.980 . S
H189 C162 0.983 . S
H190 C161 0.982 . S
H191 C161 0.979 . S
H192 C161 0.977 . S
H193 C163 0.948 . S
H194 C165 0.947 . S
H195 C166 0.948 . S
H196 C172 0.982 . S
H197 C172 0.979 . S
H198 C172 0.977 . S
H199 C173 0.979 . S
H200 C173 0.980 . S
H201 C173 0.983 . S
H202 C146 0.947 . S
C203 C146 1.392 . S
C203 C147 1.419 . S
C203 H185 0.948 . S
C204 C205 1.391 . S
C204 C208 1.391 . S
C204 H246 0.948 . S
C205 C204 1.391 . S
C205 C206 1.391 . S
C206 C205 1.391 . S
C206 H262 0.947 . S
C206 C263 1.392 . S
C207 C208 1.391 . S
C207 C211 1.397 . S
C207 C263 1.419 . S
C208 C204 1.391 . S
C208 C207 1.391 . S
C208 C209 1.399 . S
C209 C208 1.399 . S
C209 C212 1.396 . S
C209 C221 1.453 . S
C209 C222 1.684 . S
H210 C234 0.948 . S
C211 C207 1.397 . S
C211 C212 1.394 . S
C211 C230 1.723 . S
C212 C209 1.396 . S
C212 C211 1.394 . S
C212 C242 1.723 . S
H213 C236 0.947 . S
H214 C237 0.948 . S
H215 C243 0.982 . S
H216 C244 0.979 . S
H217 C244 0.980 . S
H218 C244 0.983 . S
H219 C243 0.979 . S
H220 C243 0.977 . S
C221 C209 1.453 . S
C221 H250 0.982 . S
C221 H251 0.979 . S
C221 H252 0.977 . S
C222 C209 1.684 . S
C222 H247 0.979 . S
C222 H248 0.980 . S
C222 H249 0.983 . S
C223 C224 1.391 . S
C223 C228 1.391 . S
C223 H253 0.948 . S
C224 C223 1.391 . S
C224 C225 1.391 . S
C225 C224 1.391 . S
C225 C226 1.392 . S
C225 H254 0.947 . S
C226 C225 1.392 . S
C226 C227 1.419 . S
C226 H255 0.948 . S
C227 C226 1.419 . S
C227 C228 1.391 . S
C227 C231 1.397 . S
C228 C223 1.391 . S
C228 C227 1.391 . S
C228 C229 1.399 . S
C229 C228 1.399 . S
C229 C230 1.396 . S
C229 C232 1.453 . S
C229 C233 1.684 . S
C230 C211 1.723 . S
C230 C229 1.396 . S
C230 C231 1.394 . S
C231 C227 1.397 . S
C231 C230 1.394 . S
C231 C241 1.723 . S
C232 C229 1.453 . S
C232 H256 0.982 . S
C232 H257 0.979 . S
C232 H258 0.977 . S
C233 C229 1.684 . S
C233 H259 0.979 . S
C233 H260 0.980 . S
C233 H261 0.983 . S
C234 H210 0.948 . S
C234 C235 1.391 . S
C234 C239 1.391 . S
C235 C234 1.391 . S
C235 C236 1.391 . S
C236 H213 0.947 . S
C236 C235 1.391 . S
C236 C237 1.392 . S
C237 H214 0.948 . S
C237 C236 1.392 . S
C237 C238 1.419 . S
C238 C237 1.419 . S
C238 C239 1.391 . S
C238 C242 1.397 . S
C239 C234 1.391 . S
C239 C238 1.391 . S
C239 C240 1.399 . S
C240 C239 1.399 . S
C240 C241 1.396 . S
C240 C243 1.453 . S
C240 C244 1.684 . S
C241 C231 1.723 . S
C241 C240 1.396 . S
C241 C242 1.394 . S
C242 C212 1.723 . S
C242 C238 1.397 . S
C242 C241 1.394 . S
C243 H215 0.982 . S
C243 H219 0.979 . S
C243 H220 0.977 . S
C243 C240 1.453 . S
C244 H216 0.979 . S
C244 H217 0.980 . S
C244 H218 0.983 . S
C244 C240 1.684 . S
H245 C263 0.948 . S
H246 C204 0.948 . S
H247 C222 0.979 . S
H248 C222 0.980 . S
H249 C222 0.983 . S
H250 C221 0.982 . S
H251 C221 0.979 . S
H252 C221 0.977 . S
H253 C223 0.948 . S
H254 C225 0.947 . S
H255 C226 0.948 . S
H256 C232 0.982 . S
H257 C232 0.979 . S
H258 C232 0.977 . S
H259 C233 0.979 . S
H260 C233 0.980 . S
H261 C233 0.983 . S
H262 C206 0.947 . S
C263 C206 1.392 . S
C263 C207 1.419 . S
C263 H245 0.948 . S
C264 C265 1.391 . S
C264 C268 1.391 . S
C264 H306 0.948 . S
C265 C264 1.391 . S
C265 C266 1.391 . S
C266 C265 1.391 . S
C266 H322 0.947 . S
C266 C323 1.392 . S
C267 C268 1.391 . S
C267 C271 1.397 . S
C267 C323 1.419 . S
C268 C264 1.391 . S
C268 C267 1.391 . S
C268 C269 1.399 . S
C269 C268 1.399 . S
C269 C272 1.396 . S
C269 C281 1.453 . S
C269 C282 1.684 . S
H270 C294 0.948 . S
C271 C267 1.397 . S
C271 C272 1.394 . S
C271 C290 1.723 . S
C272 C269 1.396 . S
C272 C271 1.394 . S
C272 C302 1.723 . S
H273 C296 0.947 . S
H274 C297 0.948 . S
H275 C303 0.982 . S
H276 C304 0.979 . S
H277 C304 0.980 . S
H278 C304 0.983 . S
H279 C303 0.979 . S
H280 C303 0.977 . S
C281 C269 1.453 . S
C281 H310 0.982 . S
C281 H311 0.979 . S
C281 H312 0.977 . S
C282 C269 1.684 . S
C282 H307 0.979 . S
C282 H308 0.980 . S
C282 H309 0.983 . S
C283 C284 1.391 . S
C283 C288 1.391 . S
C283 H313 0.948 . S
C284 C283 1.391 . S
C284 C285 1.391 . S
C285 C284 1.391 . S
C285 C286 1.392 . S
C285 H314 0.947 . S
C286 C285 1.392 . S
C286 C287 1.419 . S
C286 H315 0.948 . S
C287 C286 1.419 . S
C287 C288 1.391 . S
C287 C291 1.397 . S
C288 C283 1.391 . S
C288 C287 1.391 . S
C288 C289 1.399 . S
C289 C288 1.399 . S
C289 C290 1.396 . S
C289 C292 1.453 . S
C289 C293 1.684 . S
C290 C271 1.723 . S
C290 C289 1.396 . S
C290 C291 1.394 . S
C291 C287 1.397 . S
C291 C290 1.394 . S
C291 C301 1.723 . S
C292 C289 1.453 . S
C292 H316 0.982 . S
C292 H317 0.979 . S
C292 H318 0.977 . S
C293 C289 1.684 . S
C293 H319 0.979 . S
C293 H320 0.980 . S
C293 H321 0.983 . S
C294 H270 0.948 . S
C294 C295 1.391 . S
C294 C299 1.391 . S
C295 C294 1.391 . S
C295 C296 1.391 . S
C296 H273 0.947 . S
C296 C295 1.391 . S
C296 C297 1.392 . S
C297 H274 0.948 . S
C297 C296 1.392 . S
C297 C298 1.419 . S
C298 C297 1.419 . S
C298 C299 1.391 . S
C298 C302 1.397 . S
C299 C294 1.391 . S
C299 C298 1.391 . S
C299 C300 1.399 . S
C300 C299 1.399 . S
C300 C301 1.396 . S
C300 C303 1.453 . S
C300 C304 1.684 . S
C301 C291 1.723 . S
C301 C300 1.396 . S
C301 C302 1.394 . S
C302 C272 1.723 . S
C302 C298 1.397 . S
C302 C301 1.394 . S
C303 H275 0.982 . S
C303 H279 0.979 . S
C303 H280 0.977 . S
C303 C300 1.453 . S
C304 H276 0.979 . S
C304 H277 0.980 . S
C304 H278 0.983 . S
C304 C300 1.684 . S
H305 C323 0.948 . S
H306 C264 0.948 . S
H307 C282 0.979 . S
H308 C282 0.980 . S
H309 C282 0.983 . S
H310 C281 0.982 . S
H311 C281 0.979 . S
H312 C281 0.977 . S
H313 C283 0.948 . S
H314 C285 0.947 . S
H315 C286 0.948 . S
H316 C292 0.982 . S
H317 C292 0.979 . S
H318 C292 0.977 . S
H319 C293 0.979 . S
H320 C293 0.980 . S
H321 C293 0.983 . S
H322 C266 0.947 . S
C323 C266 1.392 . S
C323 C267 1.419 . S
C323 H305 0.948 . S
C324 C325 1.391 . S
C324 C328 1.391 . S
C324 H366 0.948 . S
C325 C324 1.391 . S
C325 C326 1.391 . S
C326 C325 1.391 . S
C326 H382 0.947 . S
C326 C383 1.392 . S
C327 C328 1.391 . S
C327 C331 1.397 . S
C327 C383 1.419 . S
C328 C324 1.391 . S
C328 C327 1.391 . S
C328 C329 1.399 . S
C329 C328 1.399 . S
C329 C332 1.396 . S
C329 C341 1.453 . S
C329 C342 1.684 . S
H330 C354 0.948 . S
C331 C327 1.397 . S
C331 C332 1.394 . S
C331 C350 1.723 . S
C332 C329 1.396 . S
C332 C331 1.394 . S
C332 C362 1.723 . S
H333 C356 0.947 . S
H334 C357 0.948 . S
H335 C363 0.982 . S
H336 C364 0.979 . S
H337 C364 0.980 . S
H338 C364 0.983 . S
H339 C363 0.979 . S
H340 C363 0.977 . S
C341 C329 1.453 . S
C341 H370 0.982 . S
C341 H371 0.979 . S
C341 H372 0.977 . S
C342 C329 1.684 . S
C342 H367 0.979 . S
C342 H368 0.980 . S
C342 H369 0.983 . S
C343 C344 1.391 . S
C343 C348 1.391 . S
C343 H373 0.948 . S
C344 C343 1.391 . S
C344 C345 1.391 . S
C345 C344 1.391 . S
C345 C346 1.392 . S
C345 H374 0.947 . S
C346 C345 1.392 . S
C346 C347 1.419 . S
C346 H375 0.948 . S
C347 C346 1.419 . S
C347 C348 1.391 . S
C347 C351 1.397 . S
C348 C343 1.391 . S
C348 C347 1.391 . S
C348 C349 1.399 . S
C349 C348 1.399 . S
C349 C350 1.396 . S
C349 C352 1.453 . S
C349 C353 1.684 . S
C350 C331 1.723 . S
C350 C349 1.396 . S
C350 C351 1.394 . S
C351 C347 1.397 . S
C351 C350 1.394 . S
C351 C361 1.723 . S
C352 C349 1.453 . S
C352 H376 0.982 . S
C352 H377 0.979 . S
C352 H378 0.977 . S
C353 C349 1.684 . S
C353 H379 0.979 . S
C353 H380 0.980 . S
C353 H381 0.983 . S
C354 H330 0.948 . S
C354 C355 1.391 . S
C354 C359 1.391 . S
C355 C354 1.391 . S
C355 C356 1.391 . S
C356 H333 0.947 . S
C356 C355 1.391 . S
C356 C357 1.392 . S
C357 H334 0.948 . S
C357 C356 1.392 . S
C357 C358 1.419 . S
C358 C357 1.419 . S
C358 C359 1.391 . S
C358 C362 1.397 . S
C359 C354 1.391 . S
C359 C358 1.391 . S
C359 C360 1.399 . S
C360 C359 1.399 . S
C360 C361 1.396 . S
C360 C363 1.453 . S
C360 C364 1.684 . S
C361 C351 1.723 . S
C361 C360 1.396 . S
C361 C362 1.394 . S
C362 C332 1.723 . S
C362 C358 1.397 . S
C362 C361 1.394 . S
C363 H335 0.982 . S
C363 H339 0.979 . S
C363 H340 0.977 . S
C363 C360 1.453 . S
C364 H336 0.979 . S
C364 H337 0.980 . S
C364 H338 0.983 . S
C364 C360 1.684 . S
H365 C383 0.948 . S
H366 C324 0.948 . S
H367 C342 0.979 . S
H368 C342 0.980 . S
H369 C342 0.983 . S
H370 C341 0.982 . S
H371 C341 0.979 . S
H372 C341 0.977 . S
H373 C343 0.948 . S
H374 C345 0.947 . S
H375 C346 0.948 . S
H376 C352 0.982 . S
H377 C352 0.979 . S
H378 C352 0.977 . S
H379 C353 0.979 . S
H380 C353 0.980 . S
H381 C353 0.983 . S
H382 C326 0.947 . S
C383 C326 1.392 . S
C383 C327 1.419 . S
C383 H365 0.948 . S
C384 C385 1.391 . S
C384 C388 1.391 . S
C384 H426 0.948 . S
C385 C384 1.391 . S
C385 C386 1.391 . S
C386 C385 1.391 . S
C386 H442 0.947 . S
C386 C443 1.392 . S
C387 C388 1.391 . S
C387 C391 1.397 . S
C387 C443 1.419 . S
C388 C384 1.391 . S
C388 C387 1.391 . S
C388 C389 1.399 . S
C389 C388 1.399 . S
C389 C392 1.396 . S
C389 C401 1.453 . S
C389 C402 1.684 . S
H390 C414 0.948 . S
C391 C387 1.397 . S
C391 C392 1.394 . S
C391 C410 1.723 . S
C392 C389 1.396 . S
C392 C391 1.394 . S
C392 C422 1.723 . S
H393 C416 0.947 . S
H394 C417 0.948 . S
H395 C423 0.982 . S
H396 C424 0.979 . S
H397 C424 0.980 . S
H398 C424 0.983 . S
H399 C423 0.979 . S
H400 C423 0.977 . S
C401 C389 1.453 . S
C401 H430 0.982 . S
C401 H431 0.979 . S
C401 H432 0.977 . S
C402 C389 1.684 . S
C402 H427 0.979 . S
C402 H428 0.980 . S
C402 H429 0.983 . S
C403 C404 1.391 . S
C403 C408 1.391 . S
C403 H433 0.948 . S
C404 C403 1.391 . S
C404 C405 1.391 . S
C405 C404 1.391 . S
C405 C406 1.392 . S
C405 H434 0.947 . S
C406 C405 1.392 . S
C406 C407 1.419 . S
C406 H435 0.948 . S
C407 C406 1.419 . S
C407 C408 1.391 . S
C407 C411 1.397 . S
C408 C403 1.391 . S
C408 C407 1.391 . S
C408 C409 1.399 . S
C409 C408 1.399 . S
C409 C410 1.396 . S
C409 C412 1.453 . S
C409 C413 1.684 . S
C410 C391 1.723 . S
C410 C409 1.396 . S
C410 C411 1.394 . S
C411 C407 1.397 . S
C411 C410 1.394 . S
C411 C421 1.723 . S
C412 C409 1.453 . S
C412 H436 0.982 . S
C412 H437 0.979 . S
C412 H438 0.977 . S
C413 C409 1.684 . S
C413 H439 0.979 . S
C413 H440 0.980 . S
C413 H441 0.983 . S
C414 H390 0.948 . S
C414 C415 1.391 . S
C414 C419 1.391 . S
C415 C414 1.391 . S
C415 C416 1.391 . S
C416 H393 0.947 . S
C416 C415 1.391 . S
C416 C417 1.392 . S
C417 H394 0.948 . S
C417 C416 1.392 . S
C417 C418 1.419 . S
C418 C417 1.419 . S
C418 C419 1.391 . S
C418 C422 1.397 . S
C419 C414 1.391 . S
C419 C418 1.391 . S
C419 C420 1.399 . S
C420 C419 1.399 . S
C420 C421 1.396 . S
C420 C423 1.453 . S
C420 C424 1.684 . S
C421 C411 1.723 . S
C421 C420 1.396 . S
C421 C422 1.394 . S
C422 C392 1.723 . S
C422 C418 1.397 . S
C422 C421 1.394 . S
C423 H395 0.982 . S
C423 H399 0.979 . S
C423 H400 0.977 . S
C423 C420 1.453 . S
C424 H396 0.979 . S
C424 H397 0.980 . S
C424 H398 0.983 . S
C424 C420 1.684 . S
H425 C443 0.948 . S
H426 C384 0.948 . S
H427 C402 0.979 . S
H428 C402 0.980 . S
H429 C402 0.983 . S
H430 C401 0.982 . S
H431 C401 0.979 . S
H432 C401 0.977 . S
H433 C403 0.948 . S
H434 C405 0.947 . S
H435 C406 0.948 . S
H436 C412 0.982 . S
H437 C412 0.979 . S
H438 C412 0.977 . S
H439 C413 0.979 . S
H440 C413 0.980 . S
H441 C413 0.983 . S
H442 C386 0.947 . S
C443 C386 1.392 . S
C443 C387 1.419 . S
C443 H425 0.948 . S
C444 C445 1.391 . S
C444 C448 1.391 . S
C444 H486 0.948 . S
C445 C444 1.391 . S
C445 C446 1.391 . S
C446 C445 1.391 . S
C446 H502 0.947 . S
C446 C503 1.392 . S
C447 C448 1.391 . S
C447 C451 1.397 . S
C447 C503 1.419 . S
C448 C444 1.391 . S
C448 C447 1.391 . S
C448 C449 1.399 . S
C449 C448 1.399 . S
C449 C452 1.396 . S
C449 C461 1.453 . S
C449 C462 1.684 . S
H450 C474 0.948 . S
C451 C447 1.397 . S
C451 C452 1.394 . S
C451 C470 1.723 . S
C452 C449 1.396 . S
C452 C451 1.394 . S
C452 C482 1.723 . S
H453 C476 0.947 . S
H454 C477 0.948 . S
H455 C483 0.982 . S
H456 C484 0.979 . S
H457 C484 0.980 . S
H458 C484 0.983 . S
H459 C483 0.979 . S
H460 C483 0.977 . S
C461 C449 1.453 . S
C461 H490 0.982 . S
C461 H491 0.979 . S
C461 H492 0.977 . S
C462 C449 1.684 . S
C462 H487 0.979 . S
C462 H488 0.980 . S
C462 H489 0.983 . S
C463 C464 1.391 . S
C463 C468 1.391 . S
C463 H493 0.948 . S
C464 C463 1.391 . S
C464 C465 1.391 . S
C465 C464 1.391 . S
C465 C466 1.392 . S
C465 H494 0.947 . S
C466 C465 1.392 . S
C466 C467 1.419 . S
C466 H495 0.948 . S
C467 C466 1.419 . S
C467 C468 1.391 . S
C467 C471 1.397 . S
C468 C463 1.391 . S
C468 C467 1.391 . S
C468 C469 1.399 . S
C469 C468 1.399 . S
C469 C470 1.396 . S
C469 C472 1.453 . S
C469 C473 1.684 . S
C470 C451 1.723 . S
C470 C469 1.396 . S
C470 C471 1.394 . S
C471 C467 1.397 . S
C471 C470 1.394 . S
C471 C481 1.723 . S
C472 C469 1.453 . S
C472 H496 0.982 . S
C472 H497 0.979 . S
C472 H498 0.977 . S
C473 C469 1.684 . S
C473 H499 0.979 . S
C473 H500 0.980 . S
C473 H501 0.983 . S
C474 H450 0.948 . S
C474 C475 1.391 . S
C474 C479 1.391 . S
C475 C474 1.391 . S
C475 C476 1.391 . S
C476 H453 0.947 . S
C476 C475 1.391 . S
C476 C477 1.392 . S
C477 H454 0.948 . S
C477 C476 1.392 . S
C477 C478 1.419 . S
C478 C477 1.419 . S
C478 C479 1.391 . S
C478 C482 1.397 . S
C479 C474 1.391 . S
C479 C478 1.391 . S
C479 C480 1.399 . S
C480 C479 1.399 . S
C480 C481 1.396 . S
C480 C483 1.453 . S
C480 C484 1.684 . S
C481 C471 1.723 . S
C481 C480 1.396 . S
C481 C482 1.394 . S
C482 C452 1.723 . S
C482 C478 1.397 . S
C482 C481 1.394 . S
C483 H455 0.982 . S
C483 H459 0.979 . S
C483 H460 0.977 . S
C483 C480 1.453 . S
C484 H456 0.979 . S
C484 H457 0.980 . S
C484 H458 0.983 . S
C484 C480 1.684 . S
H485 C503 0.948 . S
H486 C444 0.948 . S
H487 C462 0.979 . S
H488 C462 0.980 . S
H489 C462 0.983 . S
H490 C461 0.982 . S
H491 C461 0.979 . S
H492 C461 0.977 . S
H493 C463 0.948 . S
H494 C465 0.947 . S
H495 C466 0.948 . S
H496 C472 0.982 . S
H497 C472 0.979 . S
H498 C472 0.977 . S
H499 C473 0.979 . S
H500 C473 0.980 . S
H501 C473 0.983 . S
H502 C446 0.947 . S
C503 C446 1.392 . S
C503 C447 1.419 . S
C503 H485 0.948 . S
C504 C505 1.391 . S
C504 C508 1.391 . S
C504 H546 0.948 . S
C505 C504 1.391 . S
C505 C506 1.391 . S
C506 C505 1.391 . S
C506 H562 0.947 . S
C506 C563 1.392 . S
C507 C508 1.391 . S
C507 C511 1.397 . S
C507 C563 1.419 . S
C508 C504 1.391 . S
C508 C507 1.391 . S
C508 C509 1.399 . S
C509 C508 1.399 . S
C509 C512 1.396 . S
C509 C521 1.453 . S
C509 C522 1.684 . S
H510 C534 0.948 . S
C511 C507 1.397 . S
C511 C512 1.394 . S
C511 C530 1.723 . S
C512 C509 1.396 . S
C512 C511 1.394 . S
C512 C542 1.723 . S
H513 C536 0.947 . S
H514 C537 0.948 . S
H515 C543 0.982 . S
H516 C544 0.979 . S
H517 C544 0.980 . S
H518 C544 0.983 . S
H519 C543 0.979 . S
H520 C543 0.977 . S
C521 C509 1.453 . S
C521 H550 0.982 . S
C521 H551 0.979 . S
C521 H552 0.977 . S
C522 C509 1.684 . S
C522 H547 0.979 . S
C522 H548 0.980 . S
C522 H549 0.983 . S
C523 C524 1.391 . S
C523 C528 1.391 . S
C523 H553 0.948 . S
C524 C523 1.391 . S
C524 C525 1.391 . S
C525 C524 1.391 . S
C525 C526 1.392 . S
C525 H554 0.947 . S
C526 C525 1.392 . S
C526 C527 1.419 . S
C526 H555 0.948 . S
C527 C526 1.419 . S
C527 C528 1.391 . S
C527 C531 1.397 . S
C528 C523 1.391 . S
C528 C527 1.391 . S
C528 C529 1.399 . S
C529 C528 1.399 . S
C529 C530 1.396 . S
C529 C532 1.453 . S
C529 C533 1.684 . S
C530 C511 1.723 . S
C530 C529 1.396 . S
C530 C531 1.394 . S
C531 C527 1.397 . S
C531 C530 1.394 . S
C531 C541 1.723 . S
C532 C529 1.453 . S
C532 H556 0.982 . S
C532 H557 0.979 . S
C532 H558 0.977 . S
C533 C529 1.684 . S
C533 H559 0.979 . S
C533 H560 0.980 . S
C533 H561 0.983 . S
C534 H510 0.948 . S
C534 C535 1.391 . S
C534 C539 1.391 . S
C535 C534 1.391 . S
C535 C536 1.391 . S
C536 H513 0.947 . S
C536 C535 1.391 . S
C536 C537 1.392 . S
C537 H514 0.948 . S
C537 C536 1.392 . S
C537 C538 1.419 . S
C538 C537 1.419 . S
C538 C539 1.391 . S
C538 C542 1.397 . S
C539 C534 1.391 . S
C539 C538 1.391 . S
C539 C540 1.399 . S
C540 C539 1.399 . S
C540 C541 1.396 . S
C540 C543 1.453 . S
C540 C544 1.684 . S
C541 C531 1.723 . S
C541 C540 1.396 . S
C541 C542 1.394 . S
C542 C512 1.723 . S
C542 C538 1.397 . S
C542 C541 1.394 . S
C543 H515 0.982 . S
C543 H519 0.979 . S
C543 H520 0.977 . S
C543 C540 1.453 . S
C544 H516 0.979 . S
C544 H517 0.980 . S
C544 H518 0.983 . S
C544 C540 1.684 . S
H545 C563 0.948 . S
H546 C504 0.948 . S
H547 C522 0.979 . S
H548 C522 0.980 . S
H549 C522 0.983 . S
H550 C521 0.982 . S
H551 C521 0.979 . S
H552 C521 0.977 . S
H553 C523 0.948 . S
H554 C525 0.947 . S
H555 C526 0.948 . S
H556 C532 0.982 . S
H557 C532 0.979 . S
H558 C532 0.977 . S
H559 C533 0.979 . S
H560 C533 0.980 . S
H561 C533 0.983 . S
H562 C506 0.947 . S
C563 C506 1.392 . S
C563 C507 1.419 . S
C563 H545 0.948 . S
C564 C565 1.349 . S
C564 C566 1.327 . S
C564 H589 0.950 . S
C565 C564 1.349 . S
C565 C581 1.349 . S
C566 C564 1.327 . S
C566 C585 1.429 . S
C566 H590 0.950 . S
C567 C584 1.574 . S
C567 C586 1.368 . S
C567 H591 0.949 . S
H568 C572 0.949 . S
C569 C570 1.349 . S
C569 C571 1.327 1_545 S
C569 H592 0.950 . S
C570 C569 1.349 . S
C570 C582 1.349 . S
C571 C569 1.327 1_565 S
C571 C587 1.429 . S
C571 H593 0.950 . S
C572 H568 0.949 . S
C572 C580 1.574 . S
C572 C588 1.368 . S
H573 C581 0.950 . S
H574 C579 0.950 . S
H575 C580 0.949 . S
H576 C582 0.950 . S
H577 C583 0.950 . S
H578 C584 0.949 . S
C579 H574 0.950 . S
C579 C581 1.327 . S
C579 C585 1.429 . S
C580 C572 1.574 . S
C580 H575 0.949 . S
C580 C586 1.368 . S
C581 C565 1.349 . S
C581 H573 0.950 . S
C581 C579 1.327 . S
C582 C570 1.349 . S
C582 H576 0.950 . S
C582 C583 1.327 . S
C583 H577 0.950 . S
C583 C582 1.327 . S
C583 C587 1.429 1_545 S
C584 C567 1.574 . S
C584 H578 0.949 . S
C584 C588 1.368 . S
C585 C566 1.429 . S
C585 C579 1.429 . S
C585 C586 1.523 . S
C586 C567 1.368 . S
C586 C580 1.368 . S
C586 C585 1.523 . S
C587 C571 1.429 . S
C587 C583 1.429 1_565 S
C587 C588 1.523 . S
C588 C572 1.368 . S
C588 C584 1.368 . S
C588 C587 1.523 . S
H589 C564 0.950 . S
H590 C566 0.950 . S
H591 C567 0.949 . S
H592 C569 0.950 . S
H593 C571 0.950 . S
C594 C595 1.349 . S
C594 C596 1.327 . S
C594 H619 0.950 . S
C595 C594 1.349 . S
C595 C611 1.349 . S
C596 C594 1.327 . S
C596 C615 1.429 . S
C596 H620 0.950 . S
C597 C614 1.574 . S
C597 C616 1.368 . S
C597 H621 0.949 . S
H598 C602 0.949 . S
C599 C600 1.349 . S
C599 C601 1.327 . S
C599 H622 0.950 . S
C600 C599 1.349 . S
C600 C612 1.349 . S
C601 C599 1.327 . S
C601 C617 1.429 . S
C601 H623 0.950 . S
C602 H598 0.949 . S
C602 C610 1.574 . S
C602 C618 1.368 . S
H603 C611 0.950 . S
H604 C609 0.950 . S
H605 C610 0.949 . S
H606 C612 0.950 . S
H607 C613 0.950 . S
H608 C614 0.949 . S
C609 H604 0.950 . S
C609 C611 1.327 . S
C609 C615 1.429 . S
C610 C602 1.574 . S
C610 H605 0.949 . S
C610 C616 1.368 . S
C611 C595 1.349 . S
C611 H603 0.950 . S
C611 C609 1.327 . S
C612 C600 1.349 . S
C612 H606 0.950 . S
C612 C613 1.327 . S
C613 H607 0.950 . S
C613 C612 1.327 . S
C613 C617 1.429 . S
C614 C597 1.574 . S
C614 H608 0.949 . S
C614 C618 1.368 . S
C615 C596 1.429 . S
C615 C609 1.429 . S
C615 C616 1.523 . S
C616 C597 1.368 . S
C616 C610 1.368 . S
C616 C615 1.523 . S
C617 C601 1.429 . S
C617 C613 1.429 . S
C617 C618 1.523 . S
C618 C602 1.368 . S
C618 C614 1.368 . S
C618 C617 1.523 . S
H619 C594 0.950 . S
H620 C596 0.950 . S
H621 C597 0.949 . S
H622 C599 0.950 . S
H623 C601 0.950 . S
C624 C625 1.349 . S
C624 C626 1.327 . S
C624 H649 0.950 . S
C625 C624 1.349 . S
C625 C641 1.349 . S
C626 C624 1.327 . S
C626 C645 1.429 . S
C626 H650 0.950 . S
C627 C644 1.574 . S
C627 C646 1.368 . S
C627 H651 0.949 . S
H628 C632 0.949 . S
C629 C630 1.349 . S
C629 C631 1.327 1_565 S
C629 H652 0.950 . S
C630 C629 1.349 . S
C630 C642 1.349 . S
C631 C629 1.327 1_545 S
C631 C647 1.429 . S
C631 H653 0.950 . S
C632 H628 0.949 . S
C632 C640 1.574 . S
C632 C648 1.368 . S
H633 C641 0.950 . S
H634 C639 0.950 . S
H635 C640 0.949 . S
H636 C642 0.950 . S
H637 C643 0.950 . S
H638 C644 0.949 . S
C639 H634 0.950 . S
C639 C641 1.327 . S
C639 C645 1.429 . S
C640 C632 1.574 . S
C640 H635 0.949 . S
C640 C646 1.368 . S
C641 C625 1.349 . S
C641 H633 0.950 . S
C641 C639 1.327 . S
C642 C630 1.349 . S
C642 H636 0.950 . S
C642 C643 1.327 . S
C643 H637 0.950 . S
C643 C642 1.327 . S
C643 C647 1.429 1_565 S
C644 C627 1.574 . S
C644 H638 0.949 . S
C644 C648 1.368 . S
C645 C626 1.429 . S
C645 C639 1.429 . S
C645 C646 1.523 . S
C646 C627 1.368 . S
C646 C640 1.368 . S
C646 C645 1.523 . S
C647 C631 1.429 . S
C647 C643 1.429 1_545 S
C647 C648 1.523 . S
C648 C632 1.368 . S
C648 C644 1.368 . S
C648 C647 1.523 . S
H649 C624 0.950 . S
H650 C626 0.950 . S
H651 C627 0.949 . S
H652 C629 0.950 . S
H653 C631 0.950 . S
C654 C655 1.349 . S
C654 C656 1.327 . S
C654 H679 0.950 . S
C655 C654 1.349 . S
C655 C671 1.349 . S
C656 C654 1.327 . S
C656 C675 1.429 . S
C656 H680 0.950 . S
C657 C674 1.574 . S
C657 C676 1.368 . S
C657 H681 0.949 . S
H658 C662 0.949 . S
C659 C660 1.349 . S
C659 C661 1.327 . S
C659 H682 0.950 . S
C660 C659 1.349 . S
C660 C672 1.349 . S
C661 C659 1.327 . S
C661 C677 1.429 . S
C661 H683 0.950 . S
C662 H658 0.949 . S
C662 C670 1.574 . S
C662 C678 1.368 . S
H663 C671 0.950 . S
H664 C669 0.950 . S
H665 C670 0.949 . S
H666 C672 0.950 . S
H667 C673 0.950 . S
H668 C674 0.949 . S
C669 H664 0.950 . S
C669 C671 1.327 . S
C669 C675 1.429 . S
C670 C662 1.574 . S
C670 H665 0.949 . S
C670 C676 1.368 . S
C671 C655 1.349 . S
C671 H663 0.950 . S
C671 C669 1.327 . S
C672 C660 1.349 . S
C672 H666 0.950 . S
C672 C673 1.327 . S
C673 H667 0.950 . S
C673 C672 1.327 . S
C673 C677 1.429 . S
C674 C657 1.574 . S
C674 H668 0.949 . S
C674 C678 1.368 . S
C675 C656 1.429 . S
C675 C669 1.429 . S
C675 C676 1.523 . S
C676 C657 1.368 . S
C676 C670 1.368 . S
C676 C675 1.523 . S
C677 C661 1.429 . S
C677 C673 1.429 . S
C677 C678 1.523 . S
C678 C662 1.368 . S
C678 C674 1.368 . S
C678 C677 1.523 . S
H679 C654 0.950 . S
H680 C656 0.950 . S
H681 C657 0.949 . S
H682 C659 0.950 . S
H683 C661 0.950 . S
C684 C685 1.349 . S
C684 C686 1.327 . S
C684 H709 0.950 . S
C685 C684 1.349 . S
C685 C701 1.349 . S
C686 C684 1.327 . S
C686 C705 1.429 . S
C686 H710 0.950 . S
C687 C704 1.574 . S
C687 C706 1.368 . S
C687 H711 0.949 . S
H688 C692 0.949 . S
C689 C690 1.349 . S
C689 C691 1.327 . S
C689 H712 0.950 . S
C690 C689 1.349 . S
C690 C702 1.349 . S
C691 C689 1.327 . S
C691 C707 1.429 . S
C691 H713 0.950 . S
C692 H688 0.949 . S
C692 C700 1.574 . S
C692 C708 1.368 . S
H693 C701 0.950 . S
H694 C699 0.950 . S
H695 C700 0.949 . S
H696 C702 0.950 . S
H697 C703 0.950 . S
H698 C704 0.949 . S
C699 H694 0.950 . S
C699 C701 1.327 . S
C699 C705 1.429 . S
C700 C692 1.574 . S
C700 H695 0.949 . S
C700 C706 1.368 . S
C701 C685 1.349 . S
C701 H693 0.950 . S
C701 C699 1.327 . S
C702 C690 1.349 . S
C702 H696 0.950 . S
C702 C703 1.327 . S
C703 H697 0.950 . S
C703 C702 1.327 . S
C703 C707 1.429 . S
C704 C687 1.574 . S
C704 H698 0.949 . S
C704 C708 1.368 . S
C705 C686 1.429 . S
C705 C699 1.429 . S
C705 C706 1.523 . S
C706 C687 1.368 . S
C706 C700 1.368 . S
C706 C705 1.523 . S
C707 C691 1.429 . S
C707 C703 1.429 . S
C707 C708 1.523 . S
C708 C692 1.368 . S
C708 C704 1.368 . S
C708 C707 1.523 . S
H709 C684 0.950 . S
H710 C686 0.950 . S
H711 C687 0.949 . S
H712 C689 0.950 . S
H713 C691 0.950 . S
C714 C715 1.349 . S
C714 C716 1.327 . S
C714 H739 0.950 . S
C715 C714 1.349 . S
C715 C731 1.349 . S
C716 C714 1.327 . S
C716 C735 1.429 . S
C716 H740 0.950 . S
C717 C734 1.574 . S
C717 C736 1.368 . S
C717 H741 0.949 . S
H718 C722 0.949 . S
C719 C720 1.349 . S
C719 C721 1.327 . S
C719 H742 0.950 . S
C720 C719 1.349 . S
C720 C732 1.349 . S
C721 C719 1.327 . S
C721 C737 1.429 1_455 S
C721 H743 0.950 . S
C722 H718 0.949 . S
C722 C730 1.574 . S
C722 C738 1.368 . S
H723 C731 0.950 . S
H724 C729 0.950 . S
H725 C730 0.949 . S
H726 C732 0.950 . S
H727 C733 0.950 1_655 S
H728 C734 0.949 . S
C729 H724 0.950 . S
C729 C731 1.327 . S
C729 C735 1.429 . S
C730 C722 1.574 . S
C730 H725 0.949 . S
C730 C736 1.368 . S
C731 C715 1.349 . S
C731 H723 0.950 . S
C731 C729 1.327 . S
C732 C720 1.349 . S
C732 H726 0.950 . S
C732 C733 1.327 . S
C733 H727 0.950 1_455 S
C733 C732 1.327 . S
C733 C737 1.429 1_455 S
C734 C717 1.574 . S
C734 H728 0.949 . S
C734 C738 1.368 . S
C735 C716 1.429 . S
C735 C729 1.429 . S
C735 C736 1.523 . S
C736 C717 1.368 . S
C736 C730 1.368 . S
C736 C735 1.523 . S
C737 C721 1.429 1_655 S
C737 C733 1.429 1_655 S
C737 C738 1.523 . S
C738 C722 1.368 . S
C738 C734 1.368 . S
C738 C737 1.523 . S
H739 C714 0.950 . S
H740 C716 0.950 . S
H741 C717 0.949 . S
H742 C719 0.950 . S
H743 C721 0.950 . S
C744 C745 1.349 . S
C744 C746 1.327 . S
C744 H769 0.950 . S
C745 C744 1.349 . S
C745 C761 1.349 . S
C746 C744 1.327 . S
C746 C765 1.429 . S
C746 H770 0.950 . S
C747 C764 1.574 . S
C747 C766 1.368 . S
C747 H771 0.949 . S
H748 C752 0.949 . S
C749 C750 1.349 . S
C749 C751 1.327 . S
C749 H772 0.950 . S
C750 C749 1.349 . S
C750 C762 1.349 . S
C751 C749 1.327 . S
C751 C767 1.429 . S
C751 H773 0.950 . S
C752 H748 0.949 . S
C752 C760 1.574 . S
C752 C768 1.368 . S
H753 C761 0.950 . S
H754 C759 0.950 . S
H755 C760 0.949 . S
H756 C762 0.950 . S
H757 C763 0.950 . S
H758 C764 0.949 . S
C759 H754 0.950 . S
C759 C761 1.327 . S
C759 C765 1.429 . S
C760 C752 1.574 . S
C760 H755 0.949 . S
C760 C766 1.368 . S
C761 C745 1.349 . S
C761 H753 0.950 . S
C761 C759 1.327 . S
C762 C750 1.349 . S
C762 H756 0.950 . S
C762 C763 1.327 . S
C763 H757 0.950 . S
C763 C762 1.327 . S
C763 C767 1.429 . S
C764 C747 1.574 . S
C764 H758 0.949 . S
C764 C768 1.368 . S
C765 C746 1.429 . S
C765 C759 1.429 . S
C765 C766 1.523 . S
C766 C747 1.368 . S
C766 C760 1.368 . S
C766 C765 1.523 . S
C767 C751 1.429 . S
C767 C763 1.429 . S
C767 C768 1.523 . S
C768 C752 1.368 . S
C768 C764 1.368 . S
C768 C767 1.523 . S
H769 C744 0.950 . S
H770 C746 0.950 . S
H771 C747 0.949 . S
H772 C749 0.950 . S
H773 C751 0.950 . S
C774 C775 1.349 . S
C774 C776 1.327 . S
C774 H799 0.950 . S
C775 C774 1.349 . S
C775 C791 1.349 . S
C776 C774 1.327 . S
C776 C795 1.429 . S
C776 H800 0.950 . S
C777 C794 1.574 . S
C777 C796 1.368 . S
C777 H801 0.949 . S
H778 C782 0.949 . S
C779 C780 1.349 . S
C779 C781 1.327 . S
C779 H802 0.950 . S
C780 C779 1.349 . S
C780 C792 1.349 . S
C781 C779 1.327 . S
C781 C797 1.429 1_655 S
C781 H803 0.950 . S
C782 H778 0.949 . S
C782 C790 1.574 . S
C782 C798 1.368 . S
H783 C791 0.950 . S
H784 C789 0.950 . S
H785 C790 0.949 . S
H786 C792 0.950 . S
H787 C793 0.950 1_455 S
H788 C794 0.949 . S
C789 H784 0.950 . S
C789 C791 1.327 . S
C789 C795 1.429 . S
C790 C782 1.574 . S
C790 H785 0.949 . S
C790 C796 1.368 . S
C791 C775 1.349 . S
C791 H783 0.950 . S
C791 C789 1.327 . S
C792 C780 1.349 . S
C792 H786 0.950 . S
C792 C793 1.327 . S
C793 H787 0.950 1_655 S
C793 C792 1.327 . S
C793 C797 1.429 1_655 S
C794 C777 1.574 . S
C794 H788 0.949 . S
C794 C798 1.368 . S
C795 C776 1.429 . S
C795 C789 1.429 . S
C795 C796 1.523 . S
C796 C777 1.368 . S
C796 C790 1.368 . S
C796 C795 1.523 . S
C797 C781 1.429 1_455 S
C797 C793 1.429 1_455 S
C797 C798 1.523 . S
C798 C782 1.368 . S
C798 C794 1.368 . S
C798 C797 1.523 . S
H799 C774 0.950 . S
H800 C776 0.950 . S
H801 C777 0.949 . S
H802 C779 0.950 . S
H803 C781 0.950 . S
C804 C805 1.349 . S
C804 C806 1.327 . S
C804 H829 0.950 . S
C805 C804 1.349 . S
C805 C821 1.349 . S
C806 C804 1.327 . S
C806 C825 1.429 . S
C806 H830 0.950 . S
C807 C824 1.574 1_545 S
C807 C826 1.368 . S
C807 H831 0.949 . S
H808 C812 0.949 1_565 S
C809 C810 1.349 . S
C809 C811 1.327 . S
C809 H832 0.950 . S
C810 C809 1.349 . S
C810 C822 1.349 . S
C811 C809 1.327 . S
C811 C827 1.429 . S
C811 H833 0.950 . S
C812 H808 0.949 1_545 S
C812 C820 1.574 . S
C812 C828 1.368 1_545 S
H813 C821 0.950 . S
H814 C819 0.950 . S
H815 C820 0.949 . S
H816 C822 0.950 . S
H817 C823 0.950 . S
H818 C824 0.949 . S
C819 H814 0.950 . S
C819 C821 1.327 . S
C819 C825 1.429 . S
C820 C812 1.574 . S
C820 H815 0.949 . S
C820 C826 1.368 . S
C821 C805 1.349 . S
C821 H813 0.950 . S
C821 C819 1.327 . S
C822 C810 1.349 . S
C822 H816 0.950 . S
C822 C823 1.327 . S
C823 H817 0.950 . S
C823 C822 1.327 . S
C823 C827 1.429 . S
C824 C807 1.574 1_565 S
C824 H818 0.949 . S
C824 C828 1.368 . S
C825 C806 1.429 . S
C825 C819 1.429 . S
C825 C826 1.523 . S
C826 C807 1.368 . S
C826 C820 1.368 . S
C826 C825 1.523 . S
C827 C811 1.429 . S
C827 C823 1.429 . S
C827 C828 1.523 . S
C828 C812 1.368 1_565 S
C828 C824 1.368 . S
C828 C827 1.523 . S
H829 C804 0.950 . S
H830 C806 0.950 . S
H831 C807 0.949 . S
H832 C809 0.950 . S
H833 C811 0.950 . S
C834 C835 1.349 . S
C834 C836 1.327 . S
C834 H859 0.950 . S
C835 C834 1.349 . S
C835 C851 1.349 . S
C836 C834 1.327 . S
C836 C855 1.429 . S
C836 H860 0.950 . S
C837 C854 1.574 . S
C837 C856 1.368 . S
C837 H861 0.949 . S
H838 C842 0.949 . S
C839 C840 1.349 . S
C839 C841 1.327 . S
C839 H862 0.950 . S
C840 C839 1.349 . S
C840 C852 1.349 . S
C841 C839 1.327 . S
C841 C857 1.429 . S
C841 H863 0.950 . S
C842 H838 0.949 . S
C842 C850 1.574 . S
C842 C858 1.368 . S
H843 C851 0.950 . S
H844 C849 0.950 . S
H845 C850 0.949 . S
H846 C852 0.950 . S
H847 C853 0.950 . S
H848 C854 0.949 . S
C849 H844 0.950 . S
C849 C851 1.327 . S
C849 C855 1.429 . S
C850 C842 1.574 . S
C850 H845 0.949 . S
C850 C856 1.368 . S
C851 C835 1.349 . S
C851 H843 0.950 . S
C851 C849 1.327 . S
C852 C840 1.349 . S
C852 H846 0.950 . S
C852 C853 1.327 . S
C853 H847 0.950 . S
C853 C852 1.327 . S
C853 C857 1.429 . S
C854 C837 1.574 . S
C854 H848 0.949 . S
C854 C858 1.368 . S
C855 C836 1.429 . S
C855 C849 1.429 . S
C855 C856 1.523 . S
C856 C837 1.368 . S
C856 C850 1.368 . S
C856 C855 1.523 . S
C857 C841 1.429 . S
C857 C853 1.429 . S
C857 C858 1.523 . S
C858 C842 1.368 . S
C858 C854 1.368 . S
C858 C857 1.523 . S
H859 C834 0.950 . S
H860 C836 0.950 . S
H861 C837 0.949 . S
H862 C839 0.950 . S
H863 C841 0.950 . S
C864 C865 1.349 . S
C864 C866 1.327 . S
C864 H889 0.950 . S
C865 C864 1.349 . S
C865 C881 1.349 . S
C866 C864 1.327 . S
C866 C885 1.429 . S
C866 H890 0.950 . S
C867 C884 1.574 . S
C867 C886 1.368 . S
C867 H891 0.949 . S
H868 C872 0.949 . S
C869 C870 1.349 . S
C869 C871 1.327 . S
C869 H892 0.950 . S
C870 C869 1.349 . S
C870 C882 1.349 . S
C871 C869 1.327 . S
C871 C887 1.429 . S
C871 H893 0.950 . S
C872 H868 0.949 . S
C872 C880 1.574 1_545 S
C872 C888 1.368 . S
H873 C881 0.950 . S
H874 C879 0.950 . S
H875 C880 0.949 . S
H876 C882 0.950 . S
H877 C883 0.950 . S
H878 C884 0.959 . S
C879 H874 0.950 . S
C879 C881 1.327 . S
C879 C885 1.429 . S
C880 C872 1.574 1_565 S
C880 H875 0.949 . S
C880 C886 1.368 . S
C881 C865 1.349 . S
C881 H873 0.950 . S
C881 C879 1.327 . S
C882 C870 1.349 . S
C882 H876 0.950 . S
C882 C883 1.327 . S
C883 H877 0.950 . S
C883 C882 1.327 . S
C883 C887 1.429 . S
C884 C867 1.574 . S
C884 H878 0.959 . S
C884 C888 1.368 1_565 S
C885 C866 1.429 . S
C885 C879 1.429 . S
C885 C886 1.523 . S
C886 C867 1.368 . S
C886 C880 1.368 . S
C886 C885 1.523 . S
C887 C871 1.429 . S
C887 C883 1.429 . S
C887 C888 1.523 . S
C888 C872 1.368 . S
C888 C884 1.368 1_545 S
C888 C887 1.523 . S
H889 C864 0.950 . S
H890 C866 0.950 . S
H891 C867 0.949 . S
H892 C869 0.950 . S
H893 C871 0.950 . S
C894 C895 1.349 . S
C894 C896 1.327 . S
C894 H919 0.950 . S
C895 C894 1.349 . S
C895 C911 1.349 . S
C896 C894 1.327 . S
C896 C915 1.429 . S
C896 H920 0.950 . S
C897 C914 1.574 . S
C897 C916 1.368 . S
C897 H921 0.949 . S
H898 C902 0.949 . S
C899 C900 1.349 . S
C899 C901 1.327 . S
C899 H922 0.950 . S
C900 C899 1.349 . S
C900 C912 1.349 . S
C901 C899 1.327 . S
C901 C917 1.429 . S
C901 H923 0.950 . S
C902 H898 0.949 . S
C902 C910 1.574 . S
C902 C918 1.368 . S
H903 C911 0.950 . S
H904 C909 0.950 . S
H905 C910 0.949 . S
H906 C912 0.950 . S
H907 C913 0.950 . S
H908 C914 0.949 . S
C909 H904 0.950 . S
C909 C911 1.327 . S
C909 C915 1.429 . S
C910 C902 1.574 . S
C910 H905 0.949 . S
C910 C916 1.368 . S
C911 C895 1.349 . S
C911 H903 0.950 . S
C911 C909 1.327 . S
C912 C900 1.349 . S
C912 H906 0.950 . S
C912 C913 1.327 . S
C913 H907 0.950 . S
C913 C912 1.327 . S
C913 C917 1.429 . S
C914 C897 1.574 . S
C914 H908 0.949 . S
C914 C918 1.368 . S
C915 C896 1.429 . S
C915 C909 1.429 . S
C915 C916 1.523 . S
C916 C897 1.368 . S
C916 C910 1.368 . S
C916 C915 1.523 . S
C917 C901 1.429 . S
C917 C913 1.429 . S
C917 C918 1.523 . S
C918 C902 1.368 . S
C918 C914 1.368 . S
C918 C917 1.523 . S
H919 C894 0.950 . S
H920 C896 0.950 . S
H921 C897 0.949 . S
H922 C899 0.950 . S
H923 C901 0.950 . S
C924 C925 1.349 . S
C924 C926 1.327 . S
C924 H949 0.950 . S
C925 C924 1.349 . S
C925 C941 1.349 . S
C926 C924 1.327 . S
C926 C945 1.429 . S
C926 H950 0.950 . S
C927 C944 1.574 . S
C927 C946 1.368 . S
C927 H951 0.949 . S
H928 C932 0.949 . S
C929 C930 1.349 . S
C929 C931 1.327 . S
C929 H952 0.950 . S
C930 C929 1.349 . S
C930 C942 1.349 . S
C931 C929 1.327 . S
C931 C947 1.429 . S
C931 H953 0.950 . S
C932 H928 0.949 . S
C932 C940 1.574 . S
C932 C948 1.368 . S
H933 C941 0.950 . S
H934 C939 0.950 . S
H935 C940 0.949 . S
H936 C942 0.950 . S
H937 C943 0.950 . S
H938 C944 0.949 . S
C939 H934 0.950 . S
C939 C941 1.327 . S
C939 C945 1.429 . S
C940 C932 1.574 . S
C940 H935 0.949 . S
C940 C946 1.368 . S
C941 C925 1.349 . S
C941 H933 0.950 . S
C941 C939 1.327 . S
C942 C930 1.349 . S
C942 H936 0.950 . S
C942 C943 1.327 . S
C943 H937 0.950 . S
C943 C942 1.327 . S
C943 C947 1.429 . S
C944 C927 1.574 . S
C944 H938 0.949 . S
C944 C948 1.368 . S
C945 C926 1.429 . S
C945 C939 1.429 . S
C945 C946 1.523 . S
C946 C927 1.368 . S
C946 C940 1.368 . S
C946 C945 1.523 . S
C947 C931 1.429 . S
C947 C943 1.429 . S
C947 C948 1.523 . S
C948 C932 1.368 . S
C948 C944 1.368 . S
C948 C947 1.523 . S
H949 C924 0.950 . S
H950 C926 0.950 . S
H951 C927 0.949 . S
H952 C929 0.950 . S
H953 C931 0.950 . S
C954 C955 1.349 . S
C954 C956 1.327 . S
C954 H979 0.950 . S
C955 C954 1.349 . S
C955 C971 1.349 . S
C956 C954 1.327 . S
C956 C975 1.429 . S
C956 H980 0.950 . S
C957 C974 1.574 1_455 S
C957 C976 1.368 . S
C957 H981 0.949 . S
H958 C962 0.942 1_655 S
C959 C960 1.349 . S
C959 C961 1.327 . S
C959 H982 0.950 . S
C960 C959 1.349 . S
C960 C972 1.349 . S
C961 C959 1.327 . S
C961 C977 1.429 . S
C961 H983 0.950 . S
C962 H958 0.942 1_455 S
C962 C970 1.599 . S
C962 C978 1.353 1_455 S
H963 C971 0.950 . S
H964 C969 0.950 . S
H965 C970 0.949 . S
H966 C972 0.950 . S
H967 C973 0.950 . S
H968 C974 0.949 . S
C969 H964 0.950 . S
C969 C971 1.327 . S
C969 C975 1.429 . S
C970 C962 1.599 . S
C970 H965 0.949 . S
C970 C976 1.368 . S
C971 C955 1.349 . S
C971 H963 0.950 . S
C971 C969 1.327 . S
C972 C960 1.349 . S
C972 H966 0.950 . S
C972 C973 1.327 . S
C973 H967 0.950 . S
C973 C972 1.327 . S
C973 C977 1.429 . S
C974 C957 1.574 1_655 S
C974 H968 0.949 . S
C974 C978 1.368 . S
C975 C956 1.429 . S
C975 C969 1.429 . S
C975 C976 1.523 . S
C976 C957 1.368 . S
C976 C970 1.368 . S
C976 C975 1.523 . S
C977 C961 1.429 . S
C977 C973 1.429 . S
C977 C978 1.523 . S
C978 C962 1.353 1_655 S
C978 C974 1.368 . S
C978 C977 1.523 . S
H979 C954 0.950 . S
H980 C956 0.950 . S
H981 C957 0.949 . S
H982 C959 0.950 . S
H983 C961 0.950 . S
C984 C985 1.349 . S
C984 C986 1.327 . S
C984 H1009 0.950 . S
C985 C984 1.349 . S
C985 C1001 1.349 . S
C986 C984 1.327 . S
C986 C1005 1.429 . S
C986 H1010 0.950 . S
C987 C1004 1.574 . S
C987 C1006 1.368 . S
C987 H1011 0.949 . S
H988 C992 0.949 . S
C989 C990 1.349 . S
C989 C991 1.327 . S
C989 H1012 0.950 . S
C990 C989 1.349 . S
C990 C1002 1.349 . S
C991 C989 1.327 . S
C991 C1007 1.429 . S
C991 H1013 0.950 . S
C992 H988 0.949 . S
C992 C1000 1.574 . S
C992 C1008 1.368 . S
H993 C1001 0.950 . S
H994 C999 0.950 . S
H995 C1000 0.949 . S
H996 C1002 0.950 . S
H997 C1003 0.950 . S
H998 C1004 0.949 . S
C999 H994 0.950 . S
C999 C1001 1.327 . S
C999 C1005 1.429 . S
C1000 C992 1.574 . S
C1000 H995 0.949 . S
C1000 C1006 1.368 . S
C1001 C985 1.349 . S
C1001 H993 0.950 . S
C1001 C999 1.327 . S
C1002 C990 1.349 . S
C1002 H996 0.950 . S
C1002 C1003 1.327 . S
C1003 H997 0.950 . S
C1003 C1002 1.327 . S
C1003 C1007 1.429 . S
C1004 C987 1.574 . S
C1004 H998 0.949 . S
C1004 C1008 1.368 . S
C1005 C986 1.429 . S
C1005 C999 1.429 . S
C1005 C1006 1.523 . S
C1006 C987 1.368 . S
C1006 C1000 1.368 . S
C1006 C1005 1.523 . S
C1007 C991 1.429 . S
C1007 C1003 1.429 . S
C1007 C1008 1.523 . S
C1008 C992 1.368 . S
C1008 C1004 1.368 . S
C1008 C1007 1.523 . S
H1009 C984 0.950 . S
H1010 C986 0.950 . S
H1011 C987 0.949 . S
H1012 C989 0.950 . S
H1013 C991 0.950 . S
C1014 C1015 1.349 . S
C1014 C1016 1.327 . S
C1014 H1039 0.950 . S
C1015 C1014 1.349 . S
C1015 C1031 1.349 . S
C1016 C1014 1.327 . S
C1016 C1035 1.429 . S
C1016 H1040 0.950 . S
C1017 C1034 1.574 1_655 S
C1017 C1036 1.368 . S
C1017 H1041 0.949 . S
H1018 C1022 0.953 . S
C1019 C1020 1.349 . S
C1019 C1021 1.327 . S
C1019 H1042 0.950 . S
C1020 C1019 1.349 . S
C1020 C1032 1.349 . S
C1021 C1019 1.327 . S
C1021 C1037 1.429 . S
C1021 H1043 0.950 . S
C1022 H1018 0.953 . S
C1022 C1030 1.574 . S
C1022 C1038 1.368 1_655 S
H1023 C1031 0.950 . S
H1024 C1029 0.950 . S
H1025 C1030 0.949 . S
H1026 C1032 0.950 . S
H1027 C1033 0.950 . S
H1028 C1034 0.949 . S
C1029 H1024 0.950 . S
C1029 C1031 1.327 . S
C1029 C1035 1.429 . S
C1030 C1022 1.574 . S
C1030 H1025 0.949 . S
C1030 C1036 1.368 . S
C1031 C1015 1.349 . S
C1031 H1023 0.950 . S
C1031 C1029 1.327 . S
C1032 C1020 1.349 . S
C1032 H1026 0.950 . S
C1032 C1033 1.327 . S
C1033 H1027 0.950 . S
C1033 C1032 1.327 . S
C1033 C1037 1.429 . S
C1034 C1017 1.574 1_455 S
C1034 H1028 0.949 . S
C1034 C1038 1.368 . S
C1035 C1016 1.429 . S
C1035 C1029 1.429 . S
C1035 C1036 1.523 . S
C1036 C1017 1.368 . S
C1036 C1030 1.368 . S
C1036 C1035 1.523 . S
C1037 C1021 1.429 . S
C1037 C1033 1.429 . S
C1037 C1038 1.523 . S
C1038 C1022 1.368 1_455 S
C1038 C1034 1.368 . S
C1038 C1037 1.523 . S
H1039 C1014 0.950 . S
H1040 C1016 0.950 . S
H1041 C1017 0.949 . S
H1042 C1019 0.950 . S
H1043 C1021 0.950 . S
C1044 C1045 1.349 . S
C1044 C1046 1.327 . S
C1044 H1069 0.950 . S
C1045 C1044 1.349 . S
C1045 C1061 1.349 . S
C1046 C1044 1.327 . S
C1046 C1065 1.429 . S
C1046 H1070 0.950 . S
C1047 C1064 1.574 . S
C1047 C1066 1.368 . S
C1047 H1071 0.949 . S
H1048 C1052 0.949 . S
C1049 C1050 1.349 . S
C1049 C1051 1.327 . S
C1049 H1072 0.950 . S
C1050 C1049 1.349 . S
C1050 C1062 1.349 . S
C1051 C1049 1.327 . S
C1051 C1067 1.429 . S
C1051 H1073 0.950 . S
C1052 H1048 0.949 . S
C1052 C1060 1.574 . S
C1052 C1068 1.368 . S
H1053 C1061 0.950 . S
H1054 C1059 0.950 . S
H1055 C1060 0.949 . S
H1056 C1062 0.950 . S
H1057 C1063 0.950 . S
H1058 C1064 0.949 . S
C1059 H1054 0.950 . S
C1059 C1061 1.327 . S
C1059 C1065 1.429 . S
C1060 C1052 1.574 . S
C1060 H1055 0.949 . S
C1060 C1066 1.368 . S
C1061 C1045 1.349 . S
C1061 H1053 0.950 . S
C1061 C1059 1.327 . S
C1062 C1050 1.349 . S
C1062 H1056 0.950 . S
C1062 C1063 1.327 . S
C1063 H1057 0.950 . S
C1063 C1062 1.327 . S
C1063 C1067 1.429 . S
C1064 C1047 1.574 . S
C1064 H1058 0.949 . S
C1064 C1068 1.368 . S
C1065 C1046 1.429 . S
C1065 C1059 1.429 . S
C1065 C1066 1.523 . S
C1066 C1047 1.368 . S
C1066 C1060 1.368 . S
C1066 C1065 1.523 . S
C1067 C1051 1.429 . S
C1067 C1063 1.429 . S
C1067 C1068 1.523 . S
C1068 C1052 1.368 . S
C1068 C1064 1.368 . S
C1068 C1067 1.523 . S
H1069 C1044 0.950 . S
H1070 C1046 0.950 . S
H1071 C1047 0.949 . S
H1072 C1049 0.950 . S
H1073 C1051 0.950 . S
C1074 C1075 1.349 . S
C1074 C1076 1.327 . S
C1074 H1099 0.950 . S
C1075 C1074 1.349 . S
C1075 C1091 1.349 . S
C1076 C1074 1.327 . S
C1076 C1095 1.429 . S
C1076 H1100 0.950 . S
C1077 C1094 1.574 . S
C1077 C1096 1.368 . S
C1077 H1101 0.949 . S
H1078 C1082 0.949 . S
C1079 C1080 1.349 . S
C1079 C1081 1.327 . S
C1079 H1102 0.950 . S
C1080 C1079 1.349 . S
C1080 C1092 1.349 . S
C1081 C1079 1.327 . S
C1081 C1097 1.429 . S
C1081 H1103 0.950 . S
C1082 H1078 0.949 . S
C1082 C1090 1.574 . S
C1082 C1098 1.368 . S
H1083 C1091 0.950 . S
H1084 C1089 0.950 . S
H1085 C1090 0.949 . S
H1086 C1092 0.950 . S
H1087 C1093 0.950 . S
H1088 C1094 0.949 . S
C1089 H1084 0.950 . S
C1089 C1091 1.327 . S
C1089 C1095 1.429 . S
C1090 C1082 1.574 . S
C1090 H1085 0.949 . S
C1090 C1096 1.368 . S
C1091 C1075 1.349 . S
C1091 H1083 0.950 . S
C1091 C1089 1.327 . S
C1092 C1080 1.349 . S
C1092 H1086 0.950 . S
C1092 C1093 1.327 . S
C1093 H1087 0.950 . S
C1093 C1092 1.327 . S
C1093 C1097 1.429 . S
C1094 C1077 1.574 . S
C1094 H1088 0.949 . S
C1094 C1098 1.368 . S
C1095 C1076 1.429 . S
C1095 C1089 1.429 . S
C1095 C1096 1.523 . S
C1096 C1077 1.368 . S
C1096 C1090 1.368 . S
C1096 C1095 1.523 . S
C1097 C1081 1.429 . S
C1097 C1093 1.429 . S
C1097 C1098 1.523 . S
C1098 C1082 1.368 . S
C1098 C1094 1.368 . S
C1098 C1097 1.523 . S
H1099 C1074 0.950 . S
H1100 C1076 0.950 . S
H1101 C1077 0.949 . S
H1102 C1079 0.950 . S
H1103 C1081 0.950 . S
C1104 C1105 1.349 . S
C1104 C1106 1.327 . S
C1104 H1129 0.950 . S
C1105 C1104 1.349 . S
C1105 C1121 1.349 . S
C1106 C1104 1.327 . S
C1106 C1125 1.429 . S
C1106 H1130 0.950 . S
C1107 C1124 1.574 . S
C1107 C1126 1.368 . S
C1107 H1131 0.949 . S
H1108 C1112 0.949 . S
C1109 C1110 1.349 . S
C1109 C1111 1.327 . S
C1109 H1132 0.950 . S
C1110 C1109 1.349 . S
C1110 C1122 1.349 . S
C1111 C1109 1.327 . S
C1111 C1127 1.429 . S
C1111 H1133 0.950 . S
C1112 H1108 0.949 . S
C1112 C1120 1.574 . S
C1112 C1128 1.368 . S
H1113 C1121 0.950 . S
H1114 C1119 0.950 . S
H1115 C1120 0.949 . S
H1116 C1122 0.950 . S
H1117 C1123 0.950 . S
H1118 C1124 0.949 . S
C1119 H1114 0.950 . S
C1119 C1121 1.327 . S
C1119 C1125 1.429 . S
C1120 C1112 1.574 . S
C1120 H1115 0.949 . S
C1120 C1126 1.368 . S
C1121 C1105 1.349 . S
C1121 H1113 0.950 . S
C1121 C1119 1.327 . S
C1122 C1110 1.349 . S
C1122 H1116 0.950 . S
C1122 C1123 1.327 . S
C1123 H1117 0.950 . S
C1123 C1122 1.327 . S
C1123 C1127 1.429 . S
C1124 C1107 1.574 . S
C1124 H1118 0.949 . S
C1124 C1128 1.368 . S
C1125 C1106 1.429 . S
C1125 C1119 1.429 . S
C1125 C1126 1.523 . S
C1126 C1107 1.368 . S
C1126 C1120 1.368 . S
C1126 C1125 1.523 . S
C1127 C1111 1.429 . S
C1127 C1123 1.429 . S
C1127 C1128 1.523 . S
C1128 C1112 1.368 . S
C1128 C1124 1.368 . S
C1128 C1127 1.523 . S
H1129 C1104 0.950 . S
H1130 C1106 0.950 . S
H1131 C1107 0.949 . S
H1132 C1109 0.950 . S
H1133 C1111 0.950 . S
C1134 C1135 1.349 . S
C1134 C1136 1.327 . S
C1134 H1159 0.950 . S
C1135 C1134 1.349 . S
C1135 C1151 1.349 . S
C1136 C1134 1.327 . S
C1136 C1155 1.429 . S
C1136 H1160 0.950 . S
C1137 C1154 1.574 . S
C1137 C1156 1.368 . S
C1137 H1161 0.949 . S
H1138 C1142 0.949 . S
C1139 C1140 1.349 . S
C1139 C1141 1.327 . S
C1139 H1162 0.950 . S
C1140 C1139 1.349 . S
C1140 C1152 1.349 . S
C1141 C1139 1.327 . S
C1141 C1157 1.429 . S
C1141 H1163 0.950 . S
C1142 H1138 0.949 . S
C1142 C1150 1.574 . S
C1142 C1158 1.368 . S
H1143 C1151 0.950 . S
H1144 C1149 0.950 . S
H1145 C1150 0.949 . S
H1146 C1152 0.950 . S
H1147 C1153 0.950 . S
H1148 C1154 0.949 . S
C1149 H1144 0.950 . S
C1149 C1151 1.327 . S
C1149 C1155 1.429 . S
C1150 C1142 1.574 . S
C1150 H1145 0.949 . S
C1150 C1156 1.368 . S
C1151 C1135 1.349 . S
C1151 H1143 0.950 . S
C1151 C1149 1.327 . S
C1152 C1140 1.349 . S
C1152 H1146 0.950 . S
C1152 C1153 1.327 . S
C1153 H1147 0.950 . S
C1153 C1152 1.327 . S
C1153 C1157 1.429 . S
C1154 C1137 1.574 . S
C1154 H1148 0.949 . S
C1154 C1158 1.368 . S
C1155 C1136 1.429 . S
C1155 C1149 1.429 . S
C1155 C1156 1.523 . S
C1156 C1137 1.368 . S
C1156 C1150 1.368 . S
C1156 C1155 1.523 . S
C1157 C1141 1.429 . S
C1157 C1153 1.429 . S
C1157 C1158 1.523 . S
C1158 C1142 1.368 . S
C1158 C1154 1.368 . S
C1158 C1157 1.523 . S
H1159 C1134 0.950 . S
H1160 C1136 0.950 . S
H1161 C1137 0.949 . S
H1162 C1139 0.950 . S
H1163 C1141 0.950 . S
C1164 C1165 1.349 . S
C1164 C1166 1.327 . S
C1164 H1189 0.950 . S
C1165 C1164 1.349 . S
C1165 C1181 1.349 . S
C1166 C1164 1.327 . S
C1166 C1185 1.429 . S
C1166 H1190 0.950 . S
C1167 C1184 1.574 . S
C1167 C1186 1.368 . S
C1167 H1191 0.949 . S
H1168 C1172 0.949 . S
C1169 C1170 1.349 . S
C1169 C1171 1.327 . S
C1169 H1192 0.950 . S
C1170 C1169 1.349 . S
C1170 C1182 1.349 . S
C1171 C1169 1.327 . S
C1171 C1187 1.429 . S
C1171 H1193 0.950 . S
C1172 H1168 0.949 . S
C1172 C1180 1.574 . S
C1172 C1188 1.368 . S
H1173 C1181 0.950 . S
H1174 C1179 0.950 . S
H1175 C1180 0.949 . S
H1176 C1182 0.950 . S
H1177 C1183 0.950 . S
H1178 C1184 0.949 . S
C1179 H1174 0.950 . S
C1179 C1181 1.327 . S
C1179 C1185 1.429 . S
C1180 C1172 1.574 . S
C1180 H1175 0.949 . S
C1180 C1186 1.368 . S
C1181 C1165 1.349 . S
C1181 H1173 0.950 . S
C1181 C1179 1.327 . S
C1182 C1170 1.349 . S
C1182 H1176 0.950 . S
C1182 C1183 1.327 . S
C1183 H1177 0.950 . S
C1183 C1182 1.327 . S
C1183 C1187 1.429 . S
C1184 C1167 1.574 . S
C1184 H1178 0.949 . S
C1184 C1188 1.368 . S
C1185 C1166 1.429 . S
C1185 C1179 1.429 . S
C1185 C1186 1.523 . S
C1186 C1167 1.368 . S
C1186 C1180 1.368 . S
C1186 C1185 1.523 . S
C1187 C1171 1.429 . S
C1187 C1183 1.429 . S
C1187 C1188 1.523 . S
C1188 C1172 1.368 . S
C1188 C1184 1.368 . S
C1188 C1187 1.523 . S
H1189 C1164 0.950 . S
H1190 C1166 0.950 . S
H1191 C1167 0.949 . S
H1192 C1169 0.950 . S
H1193 C1171 0.950 . S
C1194 C1195 1.349 . S
C1194 C1196 1.327 . S
C1194 H1219 0.950 . S
C1195 C1194 1.349 . S
C1195 C1211 1.349 . S
C1196 C1194 1.327 . S
C1196 C1215 1.429 . S
C1196 H1220 0.950 . S
C1197 C1214 1.574 . S
C1197 C1216 1.368 . S
C1197 H1221 0.949 . S
H1198 C1202 0.949 . S
C1199 C1200 1.349 . S
C1199 C1201 1.327 . S
C1199 H1222 0.950 . S
C1200 C1199 1.349 . S
C1200 C1212 1.349 . S
C1201 C1199 1.327 . S
C1201 C1217 1.429 . S
C1201 H1223 0.950 . S
C1202 H1198 0.949 . S
C1202 C1210 1.574 . S
C1202 C1218 1.368 . S
H1203 C1211 0.950 . S
H1204 C1209 0.950 . S
H1205 C1210 0.949 . S
H1206 C1212 0.950 . S
H1207 C1213 0.950 . S
H1208 C1214 0.949 . S
C1209 H1204 0.950 . S
C1209 C1211 1.327 . S
C1209 C1215 1.429 . S
C1210 C1202 1.574 . S
C1210 H1205 0.949 . S
C1210 C1216 1.368 . S
C1211 C1195 1.349 . S
C1211 H1203 0.950 . S
C1211 C1209 1.327 . S
C1212 C1200 1.349 . S
C1212 H1206 0.950 . S
C1212 C1213 1.327 . S
C1213 H1207 0.950 . S
C1213 C1212 1.327 . S
C1213 C1217 1.429 . S
C1214 C1197 1.574 . S
C1214 H1208 0.949 . S
C1214 C1218 1.368 . S
C1215 C1196 1.429 . S
C1215 C1209 1.429 . S
C1215 C1216 1.523 . S
C1216 C1197 1.368 . S
C1216 C1210 1.368 . S
C1216 C1215 1.523 . S
C1217 C1201 1.429 . S
C1217 C1213 1.429 . S
C1217 C1218 1.523 . S
C1218 C1202 1.368 . S
C1218 C1214 1.368 . S
C1218 C1217 1.523 . S
H1219 C1194 0.950 . S
H1220 C1196 0.950 . S
H1221 C1197 0.949 . S
H1222 C1199 0.950 . S
H1223 C1201 0.950 . S
C1224 C1225 1.349 . S
C1224 C1226 1.327 . S
C1224 H1249 0.950 . S
C1225 C1224 1.349 . S
C1225 C1241 1.349 . S
C1226 C1224 1.327 . S
C1226 C1245 1.429 . S
C1226 H1250 0.950 . S
C1227 C1244 1.574 . S
C1227 C1246 1.368 . S
C1227 H1251 0.949 . S
H1228 C1232 0.949 . S
C1229 C1230 1.349 . S
C1229 C1231 1.327 . S
C1229 H1252 0.950 . S
C1230 C1229 1.349 . S
C1230 C1242 1.349 . S
C1231 C1229 1.327 . S
C1231 C1247 1.429 . S
C1231 H1253 0.950 . S
C1232 H1228 0.949 . S
C1232 C1240 1.574 . S
C1232 C1248 1.368 . S
H1233 C1241 0.950 . S
H1234 C1239 0.950 . S
H1235 C1240 0.949 . S
H1236 C1242 0.950 . S
H1237 C1243 0.950 . S
H1238 C1244 0.949 . S
C1239 H1234 0.950 . S
C1239 C1241 1.327 . S
C1239 C1245 1.429 . S
C1240 C1232 1.574 . S
C1240 H1235 0.949 . S
C1240 C1246 1.368 . S
C1241 C1225 1.349 . S
C1241 H1233 0.950 . S
C1241 C1239 1.327 . S
C1242 C1230 1.349 . S
C1242 H1236 0.950 . S
C1242 C1243 1.327 . S
C1243 H1237 0.950 . S
C1243 C1242 1.327 . S
C1243 C1247 1.429 . S
C1244 C1227 1.574 . S
C1244 H1238 0.949 . S
C1244 C1248 1.368 . S
C1245 C1226 1.429 . S
C1245 C1239 1.429 . S
C1245 C1246 1.523 . S
C1246 C1227 1.368 . S
C1246 C1240 1.368 . S
C1246 C1245 1.523 . S
C1247 C1231 1.429 . S
C1247 C1243 1.429 . S
C1247 C1248 1.523 . S
C1248 C1232 1.368 . S
C1248 C1244 1.368 . S
C1248 C1247 1.523 . S
H1249 C1224 0.950 . S
H1250 C1226 0.950 . S
H1251 C1227 0.949 . S
H1252 C1229 0.950 . S
H1253 C1231 0.950 . S
C1254 C1255 1.349 . S
C1254 C1256 1.327 . S
C1254 H1279 0.950 . S
C1255 C1254 1.349 . S
C1255 C1271 1.349 . S
C1256 C1254 1.327 . S
C1256 C1275 1.429 . S
C1256 H1280 0.950 . S
C1257 C1274 1.574 . S
C1257 C1276 1.368 . S
C1257 H1281 0.949 . S
H1258 C1262 0.949 . S
C1259 C1260 1.349 . S
C1259 C1261 1.327 . S
C1259 H1282 0.950 . S
C1260 C1259 1.349 . S
C1260 C1272 1.349 . S
C1261 C1259 1.327 . S
C1261 C1277 1.429 . S
C1261 H1283 0.950 . S
C1262 H1258 0.949 . S
C1262 C1270 1.574 . S
C1262 C1278 1.368 . S
H1263 C1271 0.950 . S
H1264 C1269 0.950 . S
H1265 C1270 0.949 . S
H1266 C1272 0.950 . S
H1267 C1273 0.950 . S
H1268 C1274 0.949 . S
C1269 H1264 0.950 . S
C1269 C1271 1.327 . S
C1269 C1275 1.429 . S
C1270 C1262 1.574 . S
C1270 H1265 0.949 . S
C1270 C1276 1.368 . S
C1271 C1255 1.349 . S
C1271 H1263 0.950 . S
C1271 C1269 1.327 . S
C1272 C1260 1.349 . S
C1272 H1266 0.950 . S
C1272 C1273 1.327 . S
C1273 H1267 0.950 . S
C1273 C1272 1.327 . S
C1273 C1277 1.429 . S
C1274 C1257 1.574 . S
C1274 H1268 0.949 . S
C1274 C1278 1.368 . S
C1275 C1256 1.429 . S
C1275 C1269 1.429 . S
C1275 C1276 1.523 . S
C1276 C1257 1.368 . S
C1276 C1270 1.368 . S
C1276 C1275 1.523 . S
C1277 C1261 1.429 . S
C1277 C1273 1.429 . S
C1277 C1278 1.523 . S
C1278 C1262 1.368 . S
C1278 C1274 1.368 . S
C1278 C1277 1.523 . S
H1279 C1254 0.950 . S
H1280 C1256 0.950 . S
H1281 C1257 0.949 . S
H1282 C1259 0.950 . S
H1283 C1261 0.950 . S
C565 C7 0.604 . S
C570 C85 0.634 . S
C595 C25 0.604 . S
C600 C164 0.512 . S
C625 C46 0.604 . S
C630 C235 0.511 . S
C660 C295 0.512 . S
C655 C70 0.604 . S
C690 C325 0.634 . S
C685 C28 0.604 . S
C715 C49 0.604 . S
C720 C415 0.513 . S
C745 C67 0.604 . S
C750 C475 0.512 . S
C775 C4 0.604 . S
C780 C524 0.513 . S
C805 C58 1.703 . S
C810 C505 1.705 . S
C840 C344 1.790 . S
C835 C66 1.703 . S
C870 C404 1.703 . S
C865 C3 1.703 . S
C895 C37 1.703 . S
C900 C464 1.703 . S
C930 C145 1.703 . S
C925 C79 1.703 . S
C955 C16 1.703 . S
C960 C224 1.702 . S
C990 C284 1.703 . S
C985 C24 1.703 . S
C1020 C104 1.790 . S
C1015 C45 1.702 . S
C1050 C445 1.007 . S
C1045 C19 0.927 . S
C1080 C535 1.007 . S
C1075 C41 0.927 . S
C1105 C62 0.927 . S
C1110 C355 1.015 . S
C1140 C385 1.007 . S
C1135 C82 0.927 . S
C1170 C205 1.007 . S
C1165 C40 0.927 . S
C1195 C61 0.927 . S
C1200 C265 1.010 . S
C1230 C115 1.017 . S
C1225 C83 0.927 . S
C1260 C175 1.007 . S
C1255 C20 0.927 . S
