# Generated by pormake.
# Topology anh, (6,3)-cn, num edge types: 1
# Building blocks:
#     Node 0, Type 0, BuildingBlock: GEDQOX_clean_sbu_0, # of connection points: 6
#     Node 1, Type 0, BuildingBlock: GEDQOX_clean_sbu_0, # of connection points: 6
#     Node 2, Type 0, BuildingBlock: GEDQOX_clean_sbu_0, # of connection points: 6
#     Node 3, Type 1, BuildingBlock: ESEHIV_clean_linker_0, # of connection points: 3
#     Node 4, Type 1, BuildingBlock: ESEHIV_clean_linker_0, # of connection points: 3
#     Node 5, Type 1, BuildingBlock: ESEHIV_clean_linker_0, # of connection points: 3
#     Node 6, Type 1, BuildingBlock: ESEHIV_clean_linker_0, # of connection points: 3
#     Node 7, Type 1, BuildingBlock: ESEHIV_clean_linker_0, # of connection points: 3
#     Node 8, Type 1, BuildingBlock: ESEHIV_clean_linker_0, # of connection points: 3
#     Edge 9, Type (0, 1), BuildingBlock: KIFKEQ_clean_linker_1, # of connection points: 2
#     Edge 10, Type (0, 1), BuildingBlock: KIFKEQ_clean_linker_1, # of connection points: 2
#     Edge 11, Type (0, 1), BuildingBlock: KIFKEQ_clean_linker_1, # of connection points: 2
#     Edge 12, Type (0, 1), BuildingBlock: KIFKEQ_clean_linker_1, # of connection points: 2
#     Edge 13, Type (0, 1), BuildingBlock: KIFKEQ_clean_linker_1, # of connection points: 2
#     Edge 14, Type (0, 1), BuildingBlock: KIFKEQ_clean_linker_1, # of connection points: 2
#     Edge 15, Type (0, 1), BuildingBlock: KIFKEQ_clean_linker_1, # of connection points: 2
#     Edge 16, Type (0, 1), BuildingBlock: KIFKEQ_clean_linker_1, # of connection points: 2
#     Edge 17, Type (0, 1), BuildingBlock: KIFKEQ_clean_linker_1, # of connection points: 2
#     Edge 18, Type (0, 1), BuildingBlock: KIFKEQ_clean_linker_1, # of connection points: 2
#     Edge 19, Type (0, 1), BuildingBlock: KIFKEQ_clean_linker_1, # of connection points: 2
#     Edge 20, Type (0, 1), BuildingBlock: KIFKEQ_clean_linker_1, # of connection points: 2
#     Edge 21, Type (0, 1), BuildingBlock: KIFKEQ_clean_linker_1, # of connection points: 2
#     Edge 22, Type (0, 1), BuildingBlock: KIFKEQ_clean_linker_1, # of connection points: 2
#     Edge 23, Type (0, 1), BuildingBlock: KIFKEQ_clean_linker_1, # of connection points: 2
#     Edge 24, Type (0, 1), BuildingBlock: KIFKEQ_clean_linker_1, # of connection points: 2
#     Edge 25, Type (0, 1), BuildingBlock: KIFKEQ_clean_linker_1, # of connection points: 2
#     Edge 26, Type (0, 1), BuildingBlock: KIFKEQ_clean_linker_1, # of connection points: 2
# Relax obj value: 0.208
# Max RMSD: 0.226
# Mean RMSD: 0.165
data_MOF--net-anh--node1-GEDQOX_clean_sbu_0--node2-ESEHIV_clean_linker_0--edge1-KIFKEQ_clean_linker_1
_symmetry_space_group_name_H-M    P1
_symmetry_Int_Tables_number       1
_symmetry_cell_setting            triclinic
loop_
_symmetry_equiv_pos_as_xyz
'x, y, z'
_cell_length_a     28.430549
_cell_length_b     27.687512
_cell_length_c     52.855038
_cell_angle_alpha  92.141689
_cell_angle_beta   90.911312
_cell_angle_gamma 101.0749
loop_
_atom_site_label
_atom_site_type_symbol
_atom_site_fract_x
_atom_site_fract_y
_atom_site_fract_z
_atom_type_partial_charge
Nd0 Nd 0.12129 0.55637 0.15087 0.0
Nd1 Nd 0.0984 0.4395 0.15447 0.0
C2 C 0.15454 0.64476 0.1348 0.0
C3 C 0.19602 0.68295 0.14338 0.0
C4 C 0.23075 0.70238 0.12596 0.0
C5 C 0.27209 0.73576 0.13415 0.0
C6 C 0.27932 0.74989 0.15988 0.0
C7 C 0.2448 0.73059 0.17733 0.0
C8 C 0.20348 0.69732 0.16918 0.0
C9 C 0.12137 0.53246 0.20114 0.0
C10 C 0.2107 0.49227 0.15304 0.0
C11 C 1.06295 0.34775 0.16517 0.0
C12 C 1.01499 0.31861 0.16935 0.0
C13 C 0.98141 0.33755 0.18402 0.0
C14 C 0.93619 0.3088 0.18784 0.0
C15 C 0.92371 0.26083 0.17688 0.0
C16 C 0.95686 0.24295 0.16138 0.0
C17 C 1.00211 0.27151 0.15774 0.0
C18 C 0.11384 0.47655 0.10756 0.0
C19 C 1.00778 0.50161 0.1498 0.0
O20 O 0.1654 0.6048 0.12426 0.0
O21 O 0.11833 0.63562 0.15019 0.0
O22 O 0.12857 0.57724 0.19361 0.0
O23 O 0.1149 0.50326 0.18206 0.0
O24 O 0.19515 0.53274 0.14704 0.0
O25 O 0.18081 0.45215 0.15983 0.0
O26 O 1.08078 0.38176 0.18253 0.0
O27 O 1.07085 0.36195 0.14204 0.0
O28 O 0.12853 0.43709 0.11423 0.0
O29 O 1.09061 0.49279 0.12483 0.0
O30 O 1.02221 0.46 0.1551 0.0
O31 O 1.03886 0.54269 0.1454 0.0
H32 H 0.22616 0.69121 0.10607 0.0
H33 H 0.29857 0.75028 0.12047 0.0
H34 H 0.24988 0.74127 0.19727 0.0
H35 H 0.17778 0.68242 0.18315 0.0
H36 H 0.99027 0.37427 0.19278 0.0
H37 H 0.91163 0.32359 0.20001 0.0
H38 H 0.94801 0.2066 0.15221 0.0
H39 H 1.02721 0.25669 0.14594 0.0
Nd40 Nd 0.53687 0.01798 0.52336 0.0
Nd41 Nd 0.6407 0.03768 0.5157 0.0
C42 C 0.44949 0.97806 0.53649 0.0
C43 C 0.41749 0.93153 0.52811 0.0
C44 C 0.39947 0.89655 0.54588 0.0
C45 C 0.37022 0.8517 0.53796 0.0
C46 C 0.35823 0.84158 0.51218 0.0
C47 C 0.37724 0.87607 0.49441 0.0
C48 C 0.40678 0.92044 0.50225 0.0
C49 C 0.56077 0.03073 0.47355 0.0
C50 C 0.59359 0.92429 0.5153 0.0
C51 C 0.72872 0.07621 0.50285 0.0
C52 C 0.75647 0.1269 0.50131 0.0
C53 C 0.74911 0.15653 0.48114 0.0
C54 C 0.77721 0.2035 0.47937 0.0
C55 C 0.81323 0.22174 0.49771 0.0
C56 C 0.81906 0.19296 0.51845 0.0
C57 C 0.79114 0.14596 0.52016 0.0
C58 C 0.61598 0.02136 0.56485 0.0
C59 C 0.58458 0.13034 0.52502 0.0
O60 O 0.48769 0.9734 0.54955 0.0
O61 O 0.45833 0.01233 0.51985 0.0
O62 O 0.52674 0.04855 0.48425 0.0
O63 O 0.57998 1.00587 0.48873 0.0
O64 O 0.55581 0.9407 0.52362 0.0
O65 O 0.63183 0.95477 0.50786 0.0
O66 O 0.69367 0.06186 0.48625 0.0
O67 O 0.7178 0.06138 0.52557 0.0
O68 O 0.64885 1.00254 0.5536 0.0
O69 O 0.59759 0.0484 0.55047 0.0
O70 O 0.61938 0.11416 0.51311 0.0
O71 O 0.55013 0.09922 0.53541 0.0
H72 H 0.40796 0.90398 0.56587 0.0
H73 H 0.356 0.82557 0.55197 0.0
H74 H 0.3691 0.86868 0.47438 0.0
H75 H 0.42112 0.94602 0.488 0.0
H76 H 0.72245 0.14312 0.46637 0.0
H77 H 0.77217 0.22456 0.46302 0.0
H78 H 0.84609 0.20632 0.53304 0.0
H79 H 0.79731 0.12415 0.53604 0.0
Nd80 Nd 0.53721 0.50247 0.83799 0.0
Nd81 Nd 0.64267 0.52771 0.84197 0.0
C82 C 0.44938 0.47028 0.82099 0.0
C83 C 0.42422 0.49324 0.80209 0.0
C84 C 0.45062 0.53085 0.78804 0.0
C85 C 0.42801 0.56623 0.77775 0.0
C86 C 0.37902 0.5644 0.78177 0.0
C87 C 0.35174 0.52179 0.79202 0.0
C88 C 0.37444 0.48667 0.80247 0.0
C89 C 0.57113 0.52135 0.88688 0.0
C90 C 0.58683 0.61661 0.83883 0.0
C91 C 0.7314 0.536 0.85712 0.0
C92 C 0.76691 0.51505 0.84292 0.0
C93 C 0.79448 0.48586 0.85511 0.0
C94 C 0.82523 0.46221 0.84117 0.0
C95 C 0.82846 0.46702 0.8147 0.0
C96 C 0.79731 0.4925 0.80238 0.0
C97 C 0.76796 0.51745 0.81642 0.0
C98 C 0.62136 0.53141 0.7911 0.0
C99 C 0.59594 0.41245 0.83408 0.0
O100 O 0.48579 0.45256 0.81254 0.0
O101 O 0.45917 0.49668 0.84217 0.0
O102 O 0.53388 0.53668 0.87816 0.0
O103 O 0.58788 0.49611 0.87018 0.0
O104 O 0.552 0.58388 0.82768 0.0
O105 O 0.62163 0.60199 0.85144 0.0
O106 O 0.6971 0.50286 0.86585 0.0
O107 O 0.71586 0.57248 0.84679 0.0
O108 O 0.66406 0.54133 0.80084 0.0
O109 O 0.59085 0.52093 0.80805 0.0
O110 O 0.6352 0.44567 0.83154 0.0
O111 O 0.5549 0.42533 0.8394 0.0
H112 H 0.48938 0.53614 0.78753 0.0
H113 H 0.44982 0.59826 0.76977 0.0
H114 H 0.31388 0.51891 0.79545 0.0
H115 H 0.35379 0.45774 0.81324 0.0
H116 H 0.79294 0.4822 0.87543 0.0
H117 H 0.849 0.44341 0.85153 0.0
H118 H 0.79875 0.49678 0.7821 0.0
H119 H 0.74718 0.53962 0.80641 0.0
H120 H 0.52164 0.97037 0.27836 0.0
H121 H 0.65458 0.07525 0.28213 0.0
H122 H 0.59422 0.01518 0.20982 0.0
C123 C 0.55156 0.9923 0.26898 0.0
C124 C 0.55352 0.98946 0.24243 0.0
C125 C 0.58803 0.02301 0.28348 0.0
C126 C 0.62634 0.05141 0.27106 0.0
C127 C 0.62894 0.04885 0.24452 0.0
C128 C 0.59237 0.01769 0.23029 0.0
H129 H 0.59237 0.61053 0.599 0.0
H130 H 0.58871 0.45498 0.59644 0.0
H131 H 0.5872 0.53102 0.52683 0.0
C132 C 0.59095 0.5764 0.58799 0.0
C133 C 0.58906 0.57623 0.56136 0.0
C134 C 0.59062 0.53289 0.60062 0.0
C135 C 0.58894 0.48876 0.58663 0.0
C136 C 0.58834 0.48796 0.56007 0.0
C137 C 0.58853 0.53177 0.54735 0.0
H138 H 1.06483 0.57481 0.92373 0.0
H139 H 0.21488 0.63824 0.93549 0.0
H140 H 0.15283 0.62611 0.86115 0.0
C141 C 0.09893 0.59237 0.91637 0.0
C142 C 0.10352 0.59837 0.89019 0.0
C143 C 0.13891 0.60621 0.933 0.0
C144 C 0.18301 0.62967 0.92339 0.0
C145 C 0.18665 0.63889 0.89759 0.0
C146 C 0.14725 0.62311 0.88131 0.0
H147 H 1.04349 0.44907 0.39283 0.0
H148 H 0.17534 0.55534 0.39544 0.0
H149 H 0.09586 0.52504 0.46321 0.0
C150 C 1.07055 0.47517 0.40344 0.0
C151 C 1.06649 0.48167 0.42986 0.0
C152 C 0.10885 0.50293 0.39061 0.0
C153 C 0.14427 0.5357 0.40484 0.0
C154 C 0.13946 0.54488 0.43088 0.0
C155 C 0.10061 0.51738 0.44326 0.0
H156 H 0.59091 0.08534 0.75728 0.0
H157 H 0.59574 0.9315 0.75719 0.0
H158 H 0.59908 0.01467 0.82807 0.0
C159 C 0.592 0.05243 0.76762 0.0
C160 C 0.59529 0.05548 0.79416 0.0
C161 C 0.59211 1.008 0.75424 0.0
C162 C 0.59531 0.96596 0.76757 0.0
C163 C 0.59717 0.96774 0.79416 0.0
C164 C 0.59658 0.01266 0.80757 0.0
H165 H 0.53023 0.49446 0.08032 0.0
H166 H 0.68263 0.50516 0.07967 0.0
H167 H 0.6093 0.49576 0.15071 0.0
C168 C 0.56402 0.49619 0.09044 0.0
C169 C 0.56409 0.49541 0.11701 0.0
C170 C 0.60634 0.50023 0.07678 0.0
C171 C 0.64961 0.5012 0.09003 0.0
C172 C 0.65162 0.49892 0.11658 0.0
C173 C 0.60829 0.49572 0.13022 0.0
H174 H 0.25992 0.41502 0.1568 0.0
H175 H 0.28247 0.57073 0.14451 0.0
H176 H 0.34515 0.41663 0.15119 0.0
H177 H 0.36696 0.57376 0.14086 0.0
H178 H 0.51308 0.56736 0.11198 0.0
H179 H 0.43027 0.56557 0.12075 0.0
H180 H 0.42399 0.42903 0.15916 0.0
H181 H 0.50737 0.42961 0.14796 0.0
C182 C 0.28311 0.44982 0.15322 0.0
C183 C 0.26365 0.49266 0.15108 0.0
C184 C 0.33268 0.451 0.15015 0.0
C185 C 0.3649 0.49529 0.14522 0.0
C186 C 0.34487 0.53816 0.14374 0.0
C187 C 0.29553 0.53671 0.14625 0.0
C188 C 0.49429 0.53736 0.12277 0.0
C189 C 0.51742 0.49892 0.12939 0.0
C190 C 0.44594 0.53623 0.12805 0.0
C191 C 0.41832 0.49707 0.14093 0.0
C192 C 0.44251 0.45964 0.14881 0.0
C193 C 0.49112 0.46035 0.14294 0.0
H194 H 0.90992 0.23744 0.50447 0.0
H195 H 0.79543 0.30953 0.48106 0.0
H196 H 0.96858 0.30721 0.49186 0.0
H197 H 0.85464 0.38045 0.46862 0.0
H198 H 0.97247 0.45163 0.41399 0.0
H199 H 0.90964 0.39557 0.43459 0.0
H200 H 1.0057 0.39097 0.49829 0.0
H201 H 1.06955 0.44406 0.4769 0.0
C202 C 0.89725 0.26892 0.49732 0.0
C203 C 0.84803 0.26783 0.49362 0.0
C204 C 0.93099 0.30912 0.49008 0.0
C205 C 0.9164 0.34941 0.47904 0.0
C206 C 0.86707 0.34958 0.47662 0.0
C207 C 0.83319 0.30908 0.48378 0.0
C208 C 0.98036 0.43837 0.4323 0.0
C209 C 1.02645 0.45164 0.44351 0.0
C210 C 0.94397 0.40694 0.44436 0.0
C211 C 0.95268 0.38842 0.46804 0.0
C212 C 0.99799 0.40386 0.47986 0.0
C213 C 1.03451 0.43478 0.46768 0.0
H214 H 0.51553 0.66206 0.82178 0.0
H215 H 0.66303 0.69219 0.84855 0.0
H216 H 0.52032 0.7497 0.81504 0.0
H217 H 0.66776 0.77969 0.84179 0.0
H218 H 0.66881 0.91594 0.79133 0.0
H219 H 0.66719 0.83225 0.80495 0.0
H220 H 0.52941 0.83118 0.83846 0.0
H221 H 0.53139 0.91528 0.82473 0.0
C222 C 0.54882 0.6874 0.82645 0.0
C223 C 0.58875 0.67009 0.83588 0.0
C224 C 0.55149 0.73769 0.82273 0.0
C225 C 0.59434 0.77179 0.82804 0.0
C226 C 0.63425 0.75444 0.83748 0.0
C227 C 0.63141 0.70427 0.8415 0.0
C228 C 0.63883 0.89815 0.80219 0.0
C229 C 0.60033 0.92194 0.80713 0.0
C230 C 0.63782 0.85025 0.80998 0.0
C231 C 0.59791 0.8248 0.82257 0.0
C232 C 0.56037 0.84958 0.82851 0.0
C233 C 0.5617 0.89784 0.82097 0.0
H234 H 0.96361 0.58054 0.14375 0.0
H235 H 0.93108 0.42321 0.15126 0.0
H236 H 0.87928 0.58221 0.14082 0.0
H237 H 0.84604 0.42366 0.14636 0.0
H238 H 0.6882 0.43244 0.14553 0.0
H239 H 0.77252 0.43353 0.15602 0.0
H240 H 0.81087 0.5743 0.12103 0.0
H241 H 0.72739 0.57406 0.11279 0.0
C242 C 0.93836 0.54597 0.14454 0.0
C243 C 0.95485 0.50182 0.1478 0.0
C244 C 0.8891 0.54666 0.1425 0.0
C245 C 0.85382 0.50296 0.14296 0.0
C246 C 0.87068 0.45862 0.14624 0.0
C247 C 0.92011 0.45815 0.14883 0.0
C248 C 0.7148 0.46438 0.14109 0.0
C249 C 0.70071 0.50348 0.12863 0.0
C250 C 0.76379 0.46469 0.14654 0.0
C251 C 0.80049 0.50381 0.1393 0.0
C252 C 0.78538 0.54357 0.12765 0.0
C253 C 0.73675 0.54356 0.12272 0.0
H254 H 0.36072 0.74549 0.52222 0.0
H255 H 0.2786 0.83661 0.48298 0.0
H256 H 0.30737 0.67144 0.50414 0.0
H257 H 0.22465 0.76357 0.46574 0.0
H258 H 0.17771 0.63433 0.41261 0.0
H259 H 0.23055 0.70281 0.43401 0.0
H260 H 0.22662 0.62072 0.50215 0.0
H261 H 0.17578 0.54994 0.47994 0.0
C262 C 0.33082 0.74953 0.51004 0.0
C263 C 0.32407 0.79653 0.50358 0.0
C264 C 0.30023 0.70728 0.49977 0.0
C265 C 0.26228 0.71158 0.48308 0.0
C266 C 0.25436 0.75883 0.47786 0.0
C267 C 0.28508 0.80072 0.48781 0.0
C268 C 0.18879 0.63014 0.43197 0.0
C269 C 0.17269 0.58624 0.44442 0.0
C270 C 0.21849 0.66996 0.44445 0.0
C271 C 0.2323 0.66763 0.46995 0.0
C272 C 0.21675 0.62366 0.48248 0.0
C273 C 0.18722 0.58332 0.46982 0.0
H274 H 0.52077 0.33534 0.82655 0.0
H275 H 0.67503 0.36961 0.83535 0.0
H276 H 0.52321 0.24828 0.82113 0.0
H277 H 0.67748 0.28223 0.83112 0.0
H278 H 0.66705 0.13295 0.78831 0.0
H279 H 0.66842 0.21869 0.80032 0.0
H280 H 0.53604 0.17588 0.84012 0.0
H281 H 0.5342 0.08959 0.82697 0.0
C282 C 0.55521 0.32418 0.82767 0.0
C283 C 0.59772 0.35942 0.8313 0.0
C284 C 0.5566 0.27408 0.8248 0.0
C285 C 0.60052 0.25781 0.8258 0.0
C286 C 0.643 0.29321 0.82985 0.0
C287 C 0.64165 0.34341 0.83236 0.0
C288 C 0.63886 0.1419 0.80012 0.0
C289 C 0.60061 0.10487 0.8068 0.0
C290 C 0.63963 0.19111 0.80711 0.0
C291 C 0.60216 0.20463 0.82109 0.0
C292 C 0.56511 0.16702 0.82899 0.0
C293 C 0.56432 0.11753 0.82186 0.0
H294 H 0.5149 0.85147 0.51681 0.0
H295 H 0.66948 0.87588 0.51492 0.0
H296 H 0.51178 0.76445 0.52256 0.0
H297 H 0.66652 0.78836 0.52169 0.0
H298 H 0.64376 0.6203 0.52294 0.0
H299 H 0.64407 0.70252 0.50685 0.0
H300 H 0.52915 0.71917 0.55707 0.0
H301 H 0.52797 0.63743 0.57217 0.0
C302 C 0.54832 0.83815 0.51749 0.0
C303 C 0.5925 0.87067 0.51565 0.0
C304 C 0.54653 0.78817 0.52093 0.0
C305 C 0.58891 0.76935 0.52305 0.0
C306 C 0.63314 0.80146 0.51997 0.0
C307 C 0.6349 0.85166 0.5162 0.0
C308 C 0.61801 0.64137 0.53002 0.0
C309 C 0.58607 0.62275 0.54892 0.0
C310 C 0.6185 0.68858 0.52106 0.0
C311 C 0.58674 0.71768 0.53069 0.0
C312 C 0.55369 0.69784 0.54887 0.0
C313 C 0.55327 0.65105 0.55776 0.0
H314 H 0.88157 0.52906 0.78252 0.0
H315 H 0.87952 0.39147 0.81849 0.0
H316 H 0.96344 0.5558 0.7941 0.0
H317 H 0.96466 0.41657 0.82859 0.0
H318 H 1.03974 0.5112 0.89533 0.0
H319 H 0.98541 0.4657 0.86382 0.0
H320 H 1.03658 0.57577 0.80931 0.0
H321 H 1.08354 0.62566 0.84216 0.0
C322 C 0.89943 0.50273 0.79146 0.0
C323 C 0.87325 0.46065 0.80234 0.0
C324 C 0.94733 0.51851 0.79842 0.0
C325 C 0.96957 0.49044 0.81487 0.0
C326 C 0.94715 0.44108 0.81799 0.0
C327 C 0.89859 0.42601 0.81161 0.0
C328 C 1.03826 0.52672 0.87692 0.0
C329 C 1.06653 0.57247 0.87156 0.0
C330 C 1.00823 0.49939 0.8583 0.0
C331 C 1.0069 0.51599 0.83344 0.0
C332 C 1.03578 0.56143 0.82807 0.0
C333 C 1.06364 0.59 0.84704 0.0
H334 H 0.3608 0.73033 0.18129 0.0
H335 H 0.2935 0.84916 0.15849 0.0
H336 H 0.42986 0.79023 0.19876 0.0
H337 H 0.36215 0.90923 0.17607 0.0
H338 H 0.45779 0.98758 0.24421 0.0
H339 H 0.39333 0.93043 0.22148 0.0
H340 H 0.49795 0.85937 0.18467 0.0
H341 H 0.56262 0.91713 0.20734 0.0
C342 C 0.36126 0.76934 0.17982 0.0
C343 C 0.32231 0.78555 0.16863 0.0
C344 C 0.40065 0.80351 0.18967 0.0
C345 C 0.40122 0.85433 0.18879 0.0
C346 C 0.36244 0.8703 0.17714 0.0
C347 C 0.32339 0.83613 0.16703 0.0
C348 C 0.4669 0.95991 0.23114 0.0
C349 C 0.51497 0.95653 0.22753 0.0
C350 C 0.43015 0.92747 0.21803 0.0
C351 C 0.4407 0.89049 0.20134 0.0
C352 C 0.48887 0.8874 0.19753 0.0
C353 C 0.52575 0.92049 0.21034 0.0
H354 H 0.52375 0.17744 0.55152 0.0
H355 H 0.64532 0.20454 0.50244 0.0
H356 H 0.5242 0.26524 0.55503 0.0
H357 H 0.64478 0.29255 0.50523 0.0
H358 H 0.66416 0.44814 0.54583 0.0
H359 H 0.66283 0.36161 0.53423 0.0
H360 H 0.50779 0.33353 0.53331 0.0
H361 H 0.50981 0.41986 0.54577 0.0
C362 C 0.55028 0.2021 0.54124 0.0
C363 C 0.58447 0.18388 0.52671 0.0
C364 C 0.55027 0.25257 0.54304 0.0
C365 C 0.58422 0.28622 0.5302 0.0
C366 C 0.61831 0.26789 0.51553 0.0
C367 C 0.6185 0.21734 0.51386 0.0
C368 C 0.62995 0.42355 0.54234 0.0
C369 C 0.5871 0.44034 0.54641 0.0
C370 C 0.62905 0.37395 0.53575 0.0
C371 C 0.58517 0.34021 0.53322 0.0
C372 C 0.54224 0.35814 0.53565 0.0
C373 C 0.54324 0.40766 0.54237 0.0
H374 H 0.29022 0.58161 0.7683 0.0
H375 H 0.42557 0.6516 0.80349 0.0
H376 H 0.2487 0.62632 0.7984 0.0
H377 H 0.384 0.69625 0.83307 0.0
H378 H 0.21995 0.72671 0.87691 0.0
H379 H 0.27232 0.73592 0.84006 0.0
H380 H 0.30266 0.59132 0.85116 0.0
H381 H 0.25108 0.58238 0.88783 0.0
C382 C 0.31132 0.6092 0.78111 0.0
C383 C 0.36066 0.61078 0.78461 0.0
C384 C 0.28753 0.6348 0.79836 0.0
C385 C 0.31348 0.66325 0.81835 0.0
C386 C 0.36351 0.67405 0.81785 0.0
C387 C 0.38725 0.64835 0.8007 0.0
C388 C 0.2403 0.69839 0.8723 0.0
C389 C 0.23266 0.65436 0.88539 0.0
C390 C 0.26927 0.70328 0.85106 0.0
C391 C 0.29059 0.66411 0.84294 0.0
C392 C 0.28648 0.62202 0.85738 0.0
C393 C 0.2579 0.61729 0.87859 0.0
H394 H 0.90949 0.16334 0.18673 0.0
H395 H 0.83438 0.28445 0.1813 0.0
H396 H 0.83634 0.11042 0.19969 0.0
H397 H 0.76115 0.23148 0.19536 0.0
H398 H 0.62911 0.10512 0.20286 0.0
H399 H 0.69877 0.15539 0.18346 0.0
H400 H 0.79186 0.1089 0.23913 0.0
H401 H 0.72296 0.05821 0.25796 0.0
C402 C 0.8772 0.17855 0.18795 0.0
C403 C 0.87785 0.2282 0.18302 0.0
C404 C 0.83539 0.14831 0.19567 0.0
C405 C 0.79321 0.16695 0.19879 0.0
C406 C 0.79315 0.21609 0.19301 0.0
C407 C 0.83516 0.24651 0.18525 0.0
C408 C 0.66459 0.10536 0.2107 0.0
C409 C 0.67068 0.07795 0.23197 0.0
C410 C 0.7043 0.13439 0.19976 0.0
C411 C 0.7507 0.13594 0.20976 0.0
C412 C 0.75662 0.10799 0.23081 0.0
C413 C 0.71712 0.07935 0.24176 0.0
H414 H 0.16383 0.44732 0.06819 0.0
H415 H 1.08125 0.55639 0.09147 0.0
H416 H 0.17235 0.48236 0.02617 0.0
H417 H 1.09063 0.59165 0.04964 0.0
H418 H 0.09224 0.51843 0.95006 0.0
H419 H 1.08971 0.49056 0.99326 0.0
H420 H 0.17749 0.62876 0.01926 0.0
H421 H 0.17984 0.65763 0.97584 0.0
C422 C 0.14794 0.47894 0.06438 0.0
C423 C 0.1217 0.49904 0.0829 0.0
C424 C 0.15291 0.49893 0.04049 0.0
C425 C 0.13223 0.53956 0.03502 0.0
C426 C 0.10721 0.56059 0.05371 0.0
C427 C 0.10176 0.5403 0.07749 0.0
C428 C 0.11046 0.54337 0.96494 0.0
C429 C 0.13593 0.59052 0.95954 0.0
C430 C 0.10942 0.52707 0.98956 0.0
C431 C 0.13364 0.55756 0.00923 0.0
C432 C 0.15863 0.60483 0.00416 0.0
C433 C 0.16004 0.62113 0.97941 0.0
H434 H 0.53005 0.09017 0.43984 0.0
H435 H 0.61066 0.97363 0.44536 0.0
H436 H 0.53989 0.08936 0.39401 0.0
H437 H 0.62031 0.97257 0.39935 0.0
H438 H 0.56768 0.94587 0.31487 0.0
H439 H 0.56505 0.94913 0.36111 0.0
H440 H 0.60384 0.10781 0.36178 0.0
H441 H 0.60578 0.10461 0.31554 0.0
C442 C 0.55006 0.06454 0.43122 0.0
C443 C 0.56933 0.03177 0.44608 0.0
C444 C 0.55593 0.06426 0.40502 0.0
C445 C 0.5807 0.03078 0.39308 0.0
C446 C 0.60064 0.99845 0.40802 0.0
C447 C 0.59533 0.99922 0.43432 0.0
C448 C 0.57539 0.98144 0.32491 0.0
C449 C 0.58664 0.02499 0.31158 0.0
C450 C 0.57443 0.98327 0.35137 0.0
C451 C 0.58426 0.02872 0.36506 0.0
C452 C 0.59578 0.07227 0.35173 0.0
C453 C 0.59716 0.07041 0.32529 0.0
H454 H 0.55268 0.47199 0.76112 0.0
H455 H 0.66802 0.59802 0.75977 0.0
H456 H 0.54431 0.47192 0.71502 0.0
H457 H 0.65734 0.60135 0.71428 0.0
H458 H 0.66813 0.56637 0.63111 0.0
H459 H 0.67323 0.56617 0.67709 0.0
H460 H 0.52136 0.50404 0.67872 0.0
H461 H 0.51802 0.50118 0.63246 0.0
C462 C 0.57537 0.50041 0.75093 0.0
C463 C 0.61116 0.53476 0.76385 0.0
C464 C 0.57056 0.50068 0.72446 0.0
C465 C 0.60057 0.53629 0.71047 0.0
C466 C 0.63464 0.57215 0.72392 0.0
C467 C 0.64042 0.57078 0.75015 0.0
C468 C 0.63608 0.55257 0.64148 0.0
C469 C 0.59279 0.53373 0.62852 0.0
C470 C 0.63864 0.5529 0.66791 0.0
C471 C 0.59757 0.53548 0.68208 0.0
C472 C 0.55403 0.51701 0.66877 0.0
C473 C 0.55184 0.5157 0.64225 0.0
H474 H 0.57739 0.08307 0.59643 0.0
H475 H 0.63301 0.94859 0.59425 0.0
H476 H 0.56908 0.07824 0.64225 0.0
H477 H 0.62214 0.94177 0.63961 0.0
H478 H 0.65532 0.9752 0.7232 0.0
H479 H 0.65792 0.97754 0.67727 0.0
H480 H 0.5287 0.03854 0.67636 0.0
H481 H 0.52798 0.03836 0.72258 0.0
C482 C 0.58701 0.05204 0.60576 0.0
C483 C 0.60638 0.01651 0.592 0.0
C484 C 0.58202 0.04902 0.63199 0.0
C485 C 0.59546 1.00986 0.64482 0.0
C486 C 0.61275 0.97323 0.63061 0.0
C487 C 0.61864 0.97685 0.60457 0.0
C488 C 0.62734 0.98867 0.71307 0.0
C489 C 0.5914 1.00642 0.72628 0.0
C490 C 0.62857 0.98985 0.68672 0.0
C491 C 0.59332 1.00798 0.67292 0.0
C492 C 0.55686 0.02504 0.68628 0.0
C493 C 0.55617 0.02463 0.71271 0.0
H494 H 0.56175 0.59153 0.92273 0.0
H495 H 0.60882 0.45327 0.9124 0.0
H496 H 0.57692 0.59078 0.96817 0.0
H497 H 0.62021 0.44979 0.95798 0.0
H498 H 0.66109 0.464 0.04071 0.0
H499 H 0.6601 0.47461 -0.00466 0.0
H500 H 0.54538 0.55615 0.0037 0.0
H501 H 0.55014 0.55009 0.04904 0.0
C502 C 0.57509 0.56078 0.93031 0.0
C503 C 0.5837 0.5223 0.91415 0.0
C504 C 0.58335 0.55993 0.95645 0.0
C505 C 0.59891 0.51967 0.96721 0.0
C506 C 0.60882 0.48182 0.95072 0.0
C507 C 0.60194 0.4835 0.92449 0.0
C508 C 0.63632 0.48507 0.03292 0.0
C509 C 0.60545 0.50581 0.04875 0.0
C510 C 0.63517 0.49053 0.00669 0.0
C511 C 0.60245 0.51608 -0.00459 0.0
C512 C 0.57179 0.53694 0.01136 0.0
C513 C 0.57371 0.53245 0.03757 0.0
H514 H 0.09431 0.59095 0.23725 0.0
H515 H 0.1299 0.4473 0.22532 0.0
H516 H 1.08707 0.57826 0.28206 0.0
H517 H 0.12522 0.43519 0.27127 0.0
H518 H 1.07921 0.42392 0.35624 0.0
H519 H 1.07749 0.42566 0.3099 0.0
H520 H 0.14273 0.5802 0.31501 0.0
H521 H 0.14043 0.57972 0.36039 0.0
C522 C 0.10082 0.55653 0.24432 0.0
C523 C 0.11347 0.52045 0.22789 0.0
C524 C 0.09701 0.54935 0.27014 0.0
C525 C 0.10711 0.50638 0.28052 0.0
C526 C 0.11746 0.46887 0.26393 0.0
C527 C 0.12034 0.47578 0.23769 0.0
C528 C 0.09265 0.45836 0.34742 0.0
C529 C 0.11014 0.50163 0.36231 0.0
C530 C 0.09219 0.45917 0.32083 0.0
C531 C 0.10936 0.5032 0.30863 0.0
C532 C 0.12804 0.5458 0.3236 0.0
C533 C 0.12771 0.54524 0.34988 0.0
loop_
_geom_bond_atom_site_label_1
_geom_bond_atom_site_label_2
_geom_bond_distance
_geom_bond_site_symmetry_2
_ccdc_geom_bond_type
Nd0 C2 2.836 . S
Nd0 O20 2.500 . S
Nd0 O21 2.492 . S
Nd0 O22 2.487 . S
Nd0 O23 2.682 . S
Nd0 O24 2.410 . S
Nd0 O29 2.414 . S
Nd0 O31 2.424 1_455 S
Nd1 C11 2.836 . S
Nd1 O23 2.414 1_655 S
Nd1 O25 2.424 1_655 S
Nd1 O26 2.500 . S
Nd1 O27 2.492 . S
Nd1 O28 2.487 . S
Nd1 O29 2.682 1_655 S
Nd1 O30 2.410 . S
C2 Nd0 2.836 . S
C2 C3 1.498 . S
C2 O20 1.258 . S
C2 O21 1.239 . S
C3 C2 1.498 . S
C3 C4 1.366 . S
C3 C8 1.407 . S
C4 C3 1.366 . S
C4 C5 1.392 . S
C4 H32 0.930 . S
C5 C4 1.392 . S
C5 C6 1.398 . S
C5 H33 0.929 . S
C6 C5 1.398 . S
C6 C7 1.352 . S
C7 C6 1.352 . S
C7 C8 1.384 . S
C7 H34 0.930 . S
C8 C3 1.407 . S
C8 C7 1.384 . S
C8 H35 0.929 . S
C9 O22 1.241 . S
C9 O23 1.273 . S
C10 O24 1.251 . S
C10 O25 1.268 . S
C11 Nd1 2.836 . S
C11 C12 1.498 . S
C11 O26 1.258 . S
C11 O27 1.239 . S
C12 C11 1.498 . S
C12 C13 1.366 . S
C12 C17 1.407 . S
C13 C12 1.366 . S
C13 C14 1.392 . S
C13 H36 0.930 . S
C14 C13 1.392 . S
C14 C15 1.398 . S
C14 H37 0.929 . S
C15 C14 1.398 . S
C15 C16 1.352 . S
C16 C15 1.352 . S
C16 C17 1.384 . S
C16 H38 0.930 . S
C17 C12 1.407 . S
C17 C16 1.384 . S
C17 H39 0.929 . S
C18 O28 1.241 1_455 S
C18 O29 1.273 . S
C19 O30 1.251 . S
C19 O31 1.268 . S
O20 Nd0 2.500 . S
O20 C2 1.258 . S
O21 Nd0 2.492 . S
O21 C2 1.239 . S
O22 Nd0 2.487 . S
O22 C9 1.241 . S
O23 Nd0 2.682 . S
O23 Nd1 2.414 1_455 S
O23 C9 1.273 . S
O24 Nd0 2.410 . S
O24 C10 1.251 . S
O25 Nd1 2.424 1_455 S
O25 C10 1.268 . S
O26 Nd1 2.500 . S
O26 C11 1.258 . S
O27 Nd1 2.492 . S
O27 C11 1.239 . S
O28 Nd1 2.487 . S
O28 C18 1.241 1_655 S
O29 Nd0 2.414 . S
O29 Nd1 2.682 1_455 S
O29 C18 1.273 . S
O30 Nd1 2.410 . S
O30 C19 1.251 . S
O31 Nd0 2.424 1_655 S
O31 C19 1.268 . S
H32 C4 0.930 . S
H33 C5 0.929 . S
H34 C7 0.930 . S
H35 C8 0.929 . S
H36 C13 0.930 . S
H37 C14 0.929 . S
H38 C16 0.930 . S
H39 C17 0.929 . S
Nd40 C42 2.837 . S
Nd40 O60 2.501 . S
Nd40 O61 2.493 . S
Nd40 O62 2.487 . S
Nd40 O63 2.682 1_565 S
Nd40 O64 2.411 . S
Nd40 O69 2.414 1_565 S
Nd40 O71 2.422 1_565 S
Nd41 C51 2.836 . S
Nd41 O63 2.414 . S
Nd41 O65 2.424 1_545 S
Nd41 O66 2.500 . S
Nd41 O67 2.492 . S
Nd41 O68 2.487 . S
Nd41 O69 2.682 . S
Nd41 O70 2.410 . S
C42 Nd40 2.837 . S
C42 C43 1.498 . S
C42 O60 1.258 . S
C42 O61 1.239 . S
C43 C42 1.498 . S
C43 C44 1.366 . S
C43 C48 1.407 . S
C44 C43 1.366 . S
C44 C45 1.392 . S
C44 H72 0.930 . S
C45 C44 1.392 . S
C45 C46 1.398 . S
C45 H73 0.929 . S
C46 C45 1.398 . S
C46 C47 1.352 . S
C47 C46 1.352 . S
C47 C48 1.384 . S
C47 H74 0.930 . S
C48 C43 1.407 . S
C48 C47 1.384 . S
C48 H75 0.929 . S
C49 O62 1.241 1_545 S
C49 O63 1.273 . S
C50 O64 1.251 . S
C50 O65 1.268 . S
C51 Nd41 2.836 . S
C51 C52 1.498 . S
C51 O66 1.258 . S
C51 O67 1.239 . S
C52 C51 1.498 . S
C52 C53 1.366 . S
C52 C57 1.407 . S
C53 C52 1.366 . S
C53 C54 1.392 . S
C53 H76 0.930 . S
C54 C53 1.392 . S
C54 C55 1.398 . S
C54 H77 0.929 . S
C55 C54 1.398 . S
C55 C56 1.352 . S
C56 C55 1.352 . S
C56 C57 1.384 . S
C56 H78 0.930 . S
C57 C52 1.407 . S
C57 C56 1.384 . S
C57 H79 0.929 . S
C58 O68 1.241 . S
C58 O69 1.273 . S
C59 O70 1.251 . S
C59 O71 1.268 . S
O60 Nd40 2.501 . S
O60 C42 1.258 . S
O61 Nd40 2.493 . S
O61 C42 1.239 . S
O62 Nd40 2.487 . S
O62 C49 1.241 1_565 S
O63 Nd40 2.682 1_545 S
O63 Nd41 2.414 . S
O63 C49 1.273 . S
O64 Nd40 2.411 . S
O64 C50 1.251 . S
O65 Nd41 2.424 1_565 S
O65 C50 1.268 . S
O66 Nd41 2.500 . S
O66 C51 1.258 . S
O67 Nd41 2.492 . S
O67 C51 1.239 . S
O68 Nd41 2.487 . S
O68 C58 1.241 . S
O69 Nd40 2.414 1_545 S
O69 Nd41 2.682 . S
O69 C58 1.273 . S
O70 Nd41 2.410 . S
O70 C59 1.251 . S
O71 Nd40 2.422 1_545 S
O71 C59 1.268 . S
H72 C44 0.930 . S
H73 C45 0.929 . S
H74 C47 0.930 . S
H75 C48 0.929 . S
H76 C53 0.930 . S
H77 C54 0.929 . S
H78 C56 0.930 . S
H79 C57 0.929 . S
Nd80 C82 2.836 . S
Nd80 O100 2.500 . S
Nd80 O101 2.492 . S
Nd80 O102 2.487 . S
Nd80 O103 2.682 . S
Nd80 O104 2.410 . S
Nd80 O109 2.414 . S
Nd80 O111 2.424 . S
Nd81 C91 2.836 . S
Nd81 O103 2.414 . S
Nd81 O105 2.424 . S
Nd81 O106 2.500 . S
Nd81 O107 2.492 . S
Nd81 O108 2.487 . S
Nd81 O109 2.682 . S
Nd81 O110 2.410 . S
C82 Nd80 2.836 . S
C82 C83 1.498 . S
C82 O100 1.258 . S
C82 O101 1.239 . S
C83 C82 1.498 . S
C83 C84 1.366 . S
C83 C88 1.407 . S
C84 C83 1.366 . S
C84 C85 1.392 . S
C84 H112 0.930 . S
C85 C84 1.392 . S
C85 C86 1.398 . S
C85 H113 0.929 . S
C86 C85 1.398 . S
C86 C87 1.352 . S
C87 C86 1.352 . S
C87 C88 1.384 . S
C87 H114 0.930 . S
C88 C83 1.407 . S
C88 C87 1.384 . S
C88 H115 0.929 . S
C89 O102 1.241 . S
C89 O103 1.273 . S
C90 O104 1.251 . S
C90 O105 1.268 . S
C91 Nd81 2.836 . S
C91 C92 1.498 . S
C91 O106 1.258 . S
C91 O107 1.239 . S
C92 C91 1.498 . S
C92 C93 1.366 . S
C92 C97 1.407 . S
C93 C92 1.366 . S
C93 C94 1.392 . S
C93 H116 0.930 . S
C94 C93 1.392 . S
C94 C95 1.398 . S
C94 H117 0.929 . S
C95 C94 1.398 . S
C95 C96 1.352 . S
C96 C95 1.352 . S
C96 C97 1.384 . S
C96 H118 0.930 . S
C97 C92 1.407 . S
C97 C96 1.384 . S
C97 H119 0.929 . S
C98 O108 1.241 . S
C98 O109 1.273 . S
C99 O110 1.251 . S
C99 O111 1.268 . S
O100 Nd80 2.500 . S
O100 C82 1.258 . S
O101 Nd80 2.492 . S
O101 C82 1.239 . S
O102 Nd80 2.487 . S
O102 C89 1.241 . S
O103 Nd80 2.682 . S
O103 Nd81 2.414 . S
O103 C89 1.273 . S
O104 Nd80 2.410 . S
O104 C90 1.251 . S
O105 Nd81 2.424 . S
O105 C90 1.268 . S
O106 Nd81 2.500 . S
O106 C91 1.258 . S
O107 Nd81 2.492 . S
O107 C91 1.239 . S
O108 Nd81 2.487 . S
O108 C98 1.241 . S
O109 Nd80 2.414 . S
O109 Nd81 2.682 . S
O109 C98 1.273 . S
O110 Nd81 2.410 . S
O110 C99 1.251 . S
O111 Nd80 2.424 . S
O111 C99 1.268 . S
H112 C84 0.930 . S
H113 C85 0.929 . S
H114 C87 0.930 . S
H115 C88 0.929 . S
H116 C93 0.930 . S
H117 C94 0.929 . S
H118 C96 0.930 . S
H119 C97 0.929 . S
H120 C123 0.931 . S
H121 C126 0.928 . S
H122 C128 0.930 . S
C123 H120 0.931 . S
C123 C124 1.413 . S
C123 C125 1.360 1_565 S
C124 C123 1.413 . S
C124 C128 1.429 1_565 S
C125 C123 1.360 1_545 S
C125 C126 1.372 . S
C126 H121 0.928 . S
C126 C125 1.372 . S
C126 C127 1.404 . S
C127 C126 1.404 . S
C127 C128 1.391 . S
C128 H122 0.930 . S
C128 C124 1.429 1_545 S
C128 C127 1.391 . S
H129 C132 0.931 . S
H130 C135 0.928 . S
H131 C137 0.930 . S
C132 H129 0.931 . S
C132 C133 1.413 . S
C132 C134 1.360 . S
C133 C132 1.413 . S
C133 C137 1.429 . S
C134 C132 1.360 . S
C134 C135 1.372 . S
C135 H130 0.928 . S
C135 C134 1.372 . S
C135 C136 1.404 . S
C136 C135 1.404 . S
C136 C137 1.391 . S
C137 H131 0.930 . S
C137 C133 1.429 . S
C137 C136 1.391 . S
H138 C141 0.931 . S
H139 C144 0.928 . S
H140 C146 0.930 . S
C141 H138 0.931 . S
C141 C142 1.413 . S
C141 C143 1.360 1_655 S
C142 C141 1.413 . S
C142 C146 1.429 1_655 S
C143 C141 1.360 1_455 S
C143 C144 1.372 . S
C144 H139 0.928 . S
C144 C143 1.372 . S
C144 C145 1.404 . S
C145 C144 1.404 . S
C145 C146 1.391 . S
C146 H140 0.930 . S
C146 C142 1.429 1_455 S
C146 C145 1.391 . S
H147 C150 0.931 . S
H148 C153 0.928 . S
H149 C155 0.930 . S
C150 H147 0.931 . S
C150 C151 1.413 . S
C150 C152 1.347 1_655 S
C151 C150 1.413 . S
C151 C155 1.417 1_655 S
C152 C150 1.347 1_455 S
C152 C153 1.385 . S
C153 H148 0.928 . S
C153 C152 1.385 . S
C153 C154 1.404 . S
C154 C153 1.404 . S
C154 C155 1.404 . S
C155 H149 0.930 . S
C155 C151 1.417 1_455 S
C155 C154 1.404 . S
H156 C159 0.931 . S
H157 C162 0.928 . S
H158 C164 0.930 . S
C159 H156 0.931 . S
C159 C160 1.413 . S
C159 C161 1.360 . S
C160 C159 1.413 . S
C160 C164 1.429 . S
C161 C159 1.360 . S
C161 C162 1.372 1_545 S
C162 H157 0.928 . S
C162 C161 1.372 1_565 S
C162 C163 1.404 . S
C163 C162 1.404 . S
C163 C164 1.391 1_565 S
C164 H158 0.930 . S
C164 C160 1.429 . S
C164 C163 1.391 1_545 S
H165 C168 0.931 . S
H166 C171 0.928 . S
H167 C173 0.930 . S
C168 H165 0.931 . S
C168 C169 1.413 . S
C168 C170 1.360 . S
C169 C168 1.413 . S
C169 C173 1.429 . S
C170 C168 1.360 . S
C170 C171 1.372 . S
C171 H166 0.928 . S
C171 C170 1.372 . S
C171 C172 1.404 . S
C172 C171 1.404 . S
C172 C173 1.391 . S
C173 H167 0.930 . S
C173 C169 1.429 . S
C173 C172 1.391 . S
H174 C182 0.950 . S
H175 C187 0.950 . S
H176 C184 0.950 . S
H177 C186 0.950 . S
H178 C188 0.950 . S
H179 C190 0.950 . S
H180 C192 0.950 . S
H181 C193 0.950 . S
C182 H174 0.950 . S
C182 C183 1.386 . S
C182 C184 1.391 . S
C183 C182 1.386 . S
C183 C187 1.393 . S
C184 H176 0.950 . S
C184 C182 1.391 . S
C184 C185 1.400 . S
C185 C184 1.400 . S
C185 C186 1.398 . S
C185 C191 1.491 . S
C186 H177 0.950 . S
C186 C185 1.398 . S
C186 C187 1.391 . S
C187 H175 0.950 . S
C187 C183 1.393 . S
C187 C186 1.391 . S
C188 H178 0.950 . S
C188 C189 1.386 . S
C188 C190 1.391 . S
C189 C188 1.386 . S
C189 C193 1.393 . S
C190 H179 0.950 . S
C190 C188 1.391 . S
C190 C191 1.400 . S
C191 C185 1.491 . S
C191 C190 1.400 . S
C191 C192 1.398 . S
C192 H180 0.950 . S
C192 C191 1.398 . S
C192 C193 1.391 . S
C193 H181 0.950 . S
C193 C189 1.393 . S
C193 C192 1.391 . S
H194 C202 0.950 . S
H195 C207 0.950 . S
H196 C204 0.950 . S
H197 C206 0.950 . S
H198 C208 0.950 . S
H199 C210 0.950 . S
H200 C212 0.950 . S
H201 C213 0.950 . S
C202 H194 0.950 . S
C202 C203 1.386 . S
C202 C204 1.391 . S
C203 C202 1.386 . S
C203 C207 1.393 . S
C204 H196 0.950 . S
C204 C202 1.391 . S
C204 C205 1.400 . S
C205 C204 1.400 . S
C205 C206 1.398 . S
C205 C211 1.491 . S
C206 H197 0.950 . S
C206 C205 1.398 . S
C206 C207 1.391 . S
C207 H195 0.950 . S
C207 C203 1.393 . S
C207 C206 1.391 . S
C208 H198 0.950 . S
C208 C209 1.386 . S
C208 C210 1.391 . S
C209 C208 1.386 . S
C209 C213 1.393 . S
C210 H199 0.950 . S
C210 C208 1.391 . S
C210 C211 1.400 . S
C211 C205 1.491 . S
C211 C210 1.400 . S
C211 C212 1.398 . S
C212 H200 0.950 . S
C212 C211 1.398 . S
C212 C213 1.391 . S
C213 H201 0.950 . S
C213 C209 1.393 . S
C213 C212 1.391 . S
H214 C222 0.950 . S
H215 C227 0.950 . S
H216 C224 0.950 . S
H217 C226 0.950 . S
H218 C228 0.950 . S
H219 C230 0.950 . S
H220 C232 0.950 . S
H221 C233 0.950 . S
C222 H214 0.950 . S
C222 C223 1.386 . S
C222 C224 1.391 . S
C223 C222 1.386 . S
C223 C227 1.393 . S
C224 H216 0.950 . S
C224 C222 1.391 . S
C224 C225 1.400 . S
C225 C224 1.400 . S
C225 C226 1.398 . S
C225 C231 1.491 . S
C226 H217 0.950 . S
C226 C225 1.398 . S
C226 C227 1.391 . S
C227 H215 0.950 . S
C227 C223 1.393 . S
C227 C226 1.391 . S
C228 H218 0.950 . S
C228 C229 1.386 . S
C228 C230 1.391 . S
C229 C228 1.386 . S
C229 C233 1.393 . S
C230 H219 0.950 . S
C230 C228 1.391 . S
C230 C231 1.400 . S
C231 C225 1.491 . S
C231 C230 1.400 . S
C231 C232 1.398 . S
C232 H220 0.950 . S
C232 C231 1.398 . S
C232 C233 1.391 . S
C233 H221 0.950 . S
C233 C229 1.393 . S
C233 C232 1.391 . S
H234 C242 0.950 . S
H235 C247 0.950 . S
H236 C244 0.950 . S
H237 C246 0.950 . S
H238 C248 0.950 . S
H239 C250 0.950 . S
H240 C252 0.950 . S
H241 C253 0.950 . S
C242 H234 0.950 . S
C242 C243 1.386 . S
C242 C244 1.391 . S
C243 C242 1.386 . S
C243 C247 1.393 . S
C244 H236 0.950 . S
C244 C242 1.391 . S
C244 C245 1.400 . S
C245 C244 1.400 . S
C245 C246 1.398 . S
C245 C251 1.491 . S
C246 H237 0.950 . S
C246 C245 1.398 . S
C246 C247 1.391 . S
C247 H235 0.950 . S
C247 C243 1.393 . S
C247 C246 1.391 . S
C248 H238 0.950 . S
C248 C249 1.386 . S
C248 C250 1.391 . S
C249 C248 1.386 . S
C249 C253 1.393 . S
C250 H239 0.950 . S
C250 C248 1.391 . S
C250 C251 1.400 . S
C251 C245 1.491 . S
C251 C250 1.400 . S
C251 C252 1.398 . S
C252 H240 0.950 . S
C252 C251 1.398 . S
C252 C253 1.391 . S
C253 H241 0.950 . S
C253 C249 1.393 . S
C253 C252 1.391 . S
H254 C262 0.950 . S
H255 C267 0.950 . S
H256 C264 0.950 . S
H257 C266 0.950 . S
H258 C268 0.950 . S
H259 C270 0.950 . S
H260 C272 0.950 . S
H261 C273 0.950 . S
C262 H254 0.950 . S
C262 C263 1.386 . S
C262 C264 1.391 . S
C263 C262 1.386 . S
C263 C267 1.393 . S
C264 H256 0.950 . S
C264 C262 1.391 . S
C264 C265 1.400 . S
C265 C264 1.400 . S
C265 C266 1.398 . S
C265 C271 1.491 . S
C266 H257 0.950 . S
C266 C265 1.398 . S
C266 C267 1.391 . S
C267 H255 0.950 . S
C267 C263 1.393 . S
C267 C266 1.391 . S
C268 H258 0.950 . S
C268 C269 1.386 . S
C268 C270 1.391 . S
C269 C268 1.386 . S
C269 C273 1.393 . S
C270 H259 0.950 . S
C270 C268 1.391 . S
C270 C271 1.400 . S
C271 C265 1.491 . S
C271 C270 1.400 . S
C271 C272 1.398 . S
C272 H260 0.950 . S
C272 C271 1.398 . S
C272 C273 1.391 . S
C273 H261 0.950 . S
C273 C269 1.393 . S
C273 C272 1.391 . S
H274 C282 0.950 . S
H275 C287 0.950 . S
H276 C284 0.950 . S
H277 C286 0.950 . S
H278 C288 0.950 . S
H279 C290 0.950 . S
H280 C292 0.950 . S
H281 C293 0.950 . S
C282 H274 0.950 . S
C282 C283 1.386 . S
C282 C284 1.391 . S
C283 C282 1.386 . S
C283 C287 1.393 . S
C284 H276 0.950 . S
C284 C282 1.391 . S
C284 C285 1.400 . S
C285 C284 1.400 . S
C285 C286 1.398 . S
C285 C291 1.491 . S
C286 H277 0.950 . S
C286 C285 1.398 . S
C286 C287 1.391 . S
C287 H275 0.950 . S
C287 C283 1.393 . S
C287 C286 1.391 . S
C288 H278 0.950 . S
C288 C289 1.386 . S
C288 C290 1.391 . S
C289 C288 1.386 . S
C289 C293 1.393 . S
C290 H279 0.950 . S
C290 C288 1.391 . S
C290 C291 1.400 . S
C291 C285 1.491 . S
C291 C290 1.400 . S
C291 C292 1.398 . S
C292 H280 0.950 . S
C292 C291 1.398 . S
C292 C293 1.391 . S
C293 H281 0.950 . S
C293 C289 1.393 . S
C293 C292 1.391 . S
H294 C302 0.950 . S
H295 C307 0.950 . S
H296 C304 0.950 . S
H297 C306 0.950 . S
H298 C308 0.950 . S
H299 C310 0.950 . S
H300 C312 0.950 . S
H301 C313 0.950 . S
C302 H294 0.950 . S
C302 C303 1.386 . S
C302 C304 1.391 . S
C303 C302 1.386 . S
C303 C307 1.393 . S
C304 H296 0.950 . S
C304 C302 1.391 . S
C304 C305 1.400 . S
C305 C304 1.400 . S
C305 C306 1.398 . S
C305 C311 1.491 . S
C306 H297 0.950 . S
C306 C305 1.398 . S
C306 C307 1.391 . S
C307 H295 0.950 . S
C307 C303 1.393 . S
C307 C306 1.391 . S
C308 H298 0.950 . S
C308 C309 1.386 . S
C308 C310 1.391 . S
C309 C308 1.386 . S
C309 C313 1.393 . S
C310 H299 0.950 . S
C310 C308 1.391 . S
C310 C311 1.400 . S
C311 C305 1.491 . S
C311 C310 1.400 . S
C311 C312 1.398 . S
C312 H300 0.950 . S
C312 C311 1.398 . S
C312 C313 1.391 . S
C313 H301 0.950 . S
C313 C309 1.393 . S
C313 C312 1.391 . S
H314 C322 0.950 . S
H315 C327 0.950 . S
H316 C324 0.950 . S
H317 C326 0.950 . S
H318 C328 0.950 . S
H319 C330 0.950 . S
H320 C332 0.950 . S
H321 C333 0.950 . S
C322 H314 0.950 . S
C322 C323 1.386 . S
C322 C324 1.391 . S
C323 C322 1.386 . S
C323 C327 1.393 . S
C324 H316 0.950 . S
C324 C322 1.391 . S
C324 C325 1.400 . S
C325 C324 1.400 . S
C325 C326 1.398 . S
C325 C331 1.491 . S
C326 H317 0.950 . S
C326 C325 1.398 . S
C326 C327 1.391 . S
C327 H315 0.950 . S
C327 C323 1.393 . S
C327 C326 1.391 . S
C328 H318 0.950 . S
C328 C329 1.386 . S
C328 C330 1.391 . S
C329 C328 1.386 . S
C329 C333 1.393 . S
C330 H319 0.950 . S
C330 C328 1.391 . S
C330 C331 1.400 . S
C331 C325 1.491 . S
C331 C330 1.400 . S
C331 C332 1.398 . S
C332 H320 0.950 . S
C332 C331 1.398 . S
C332 C333 1.391 . S
C333 H321 0.950 . S
C333 C329 1.393 . S
C333 C332 1.391 . S
H334 C342 0.950 . S
H335 C347 0.950 . S
H336 C344 0.950 . S
H337 C346 0.950 . S
H338 C348 0.950 . S
H339 C350 0.950 . S
H340 C352 0.950 . S
H341 C353 0.950 . S
C342 H334 0.950 . S
C342 C343 1.386 . S
C342 C344 1.391 . S
C343 C342 1.386 . S
C343 C347 1.393 . S
C344 H336 0.950 . S
C344 C342 1.391 . S
C344 C345 1.400 . S
C345 C344 1.400 . S
C345 C346 1.398 . S
C345 C351 1.491 . S
C346 H337 0.950 . S
C346 C345 1.398 . S
C346 C347 1.391 . S
C347 H335 0.950 . S
C347 C343 1.393 . S
C347 C346 1.391 . S
C348 H338 0.950 . S
C348 C349 1.386 . S
C348 C350 1.391 . S
C349 C348 1.386 . S
C349 C353 1.393 . S
C350 H339 0.950 . S
C350 C348 1.391 . S
C350 C351 1.400 . S
C351 C345 1.491 . S
C351 C350 1.400 . S
C351 C352 1.398 . S
C352 H340 0.950 . S
C352 C351 1.398 . S
C352 C353 1.391 . S
C353 H341 0.950 . S
C353 C349 1.393 . S
C353 C352 1.391 . S
H354 C362 0.950 . S
H355 C367 0.950 . S
H356 C364 0.950 . S
H357 C366 0.950 . S
H358 C368 0.950 . S
H359 C370 0.950 . S
H360 C372 0.950 . S
H361 C373 0.950 . S
C362 H354 0.950 . S
C362 C363 1.386 . S
C362 C364 1.391 . S
C363 C362 1.386 . S
C363 C367 1.393 . S
C364 H356 0.950 . S
C364 C362 1.391 . S
C364 C365 1.400 . S
C365 C364 1.400 . S
C365 C366 1.398 . S
C365 C371 1.491 . S
C366 H357 0.950 . S
C366 C365 1.398 . S
C366 C367 1.391 . S
C367 H355 0.950 . S
C367 C363 1.393 . S
C367 C366 1.391 . S
C368 H358 0.950 . S
C368 C369 1.386 . S
C368 C370 1.391 . S
C369 C368 1.386 . S
C369 C373 1.393 . S
C370 H359 0.950 . S
C370 C368 1.391 . S
C370 C371 1.400 . S
C371 C365 1.491 . S
C371 C370 1.400 . S
C371 C372 1.398 . S
C372 H360 0.950 . S
C372 C371 1.398 . S
C372 C373 1.391 . S
C373 H361 0.950 . S
C373 C369 1.393 . S
C373 C372 1.391 . S
H374 C382 0.950 . S
H375 C387 0.950 . S
H376 C384 0.950 . S
H377 C386 0.950 . S
H378 C388 0.950 . S
H379 C390 0.950 . S
H380 C392 0.950 . S
H381 C393 0.950 . S
C382 H374 0.950 . S
C382 C383 1.386 . S
C382 C384 1.391 . S
C383 C382 1.386 . S
C383 C387 1.393 . S
C384 H376 0.950 . S
C384 C382 1.391 . S
C384 C385 1.400 . S
C385 C384 1.400 . S
C385 C386 1.398 . S
C385 C391 1.491 . S
C386 H377 0.950 . S
C386 C385 1.398 . S
C386 C387 1.391 . S
C387 H375 0.950 . S
C387 C383 1.393 . S
C387 C386 1.391 . S
C388 H378 0.950 . S
C388 C389 1.386 . S
C388 C390 1.391 . S
C389 C388 1.386 . S
C389 C393 1.393 . S
C390 H379 0.950 . S
C390 C388 1.391 . S
C390 C391 1.400 . S
C391 C385 1.491 . S
C391 C390 1.400 . S
C391 C392 1.398 . S
C392 H380 0.950 . S
C392 C391 1.398 . S
C392 C393 1.391 . S
C393 H381 0.950 . S
C393 C389 1.393 . S
C393 C392 1.391 . S
H394 C402 0.950 . S
H395 C407 0.950 . S
H396 C404 0.950 . S
H397 C406 0.950 . S
H398 C408 0.950 . S
H399 C410 0.950 . S
H400 C412 0.950 . S
H401 C413 0.950 . S
C402 H394 0.950 . S
C402 C403 1.386 . S
C402 C404 1.391 . S
C403 C402 1.386 . S
C403 C407 1.393 . S
C404 H396 0.950 . S
C404 C402 1.391 . S
C404 C405 1.400 . S
C405 C404 1.400 . S
C405 C406 1.398 . S
C405 C411 1.491 . S
C406 H397 0.950 . S
C406 C405 1.398 . S
C406 C407 1.391 . S
C407 H395 0.950 . S
C407 C403 1.393 . S
C407 C406 1.391 . S
C408 H398 0.950 . S
C408 C409 1.386 . S
C408 C410 1.391 . S
C409 C408 1.386 . S
C409 C413 1.393 . S
C410 H399 0.950 . S
C410 C408 1.391 . S
C410 C411 1.400 . S
C411 C405 1.491 . S
C411 C410 1.400 . S
C411 C412 1.398 . S
C412 H400 0.950 . S
C412 C411 1.398 . S
C412 C413 1.391 . S
C413 H401 0.950 . S
C413 C409 1.393 . S
C413 C412 1.391 . S
H414 C422 0.950 . S
H415 C427 0.950 . S
H416 C424 0.950 . S
H417 C426 0.950 . S
H418 C428 0.950 . S
H419 C430 0.965 . S
H420 C432 0.950 . S
H421 C433 0.950 . S
C422 H414 0.950 . S
C422 C423 1.386 . S
C422 C424 1.391 . S
C423 C422 1.386 . S
C423 C427 1.393 1_455 S
C424 H416 0.950 . S
C424 C422 1.391 . S
C424 C425 1.400 . S
C425 C424 1.400 . S
C425 C426 1.398 1_455 S
C425 C431 1.491 . S
C426 H417 0.950 . S
C426 C425 1.398 1_655 S
C426 C427 1.391 . S
C427 H415 0.950 . S
C427 C423 1.393 1_655 S
C427 C426 1.391 . S
C428 H418 0.950 . S
C428 C429 1.386 1_655 S
C428 C430 1.361 1_556 S
C429 C428 1.386 1_455 S
C429 C433 1.393 . S
C430 H419 0.965 . S
C430 C428 1.361 1_554 S
C430 C431 1.416 1_655 S
C431 C425 1.491 . S
C431 C430 1.416 1_455 S
C431 C432 1.398 . S
C432 H420 0.950 . S
C432 C431 1.398 . S
C432 C433 1.391 1_554 S
C433 H421 0.950 . S
C433 C429 1.393 . S
C433 C432 1.391 1_556 S
H434 C442 0.950 . S
H435 C447 0.950 . S
H436 C444 0.950 . S
H437 C446 0.950 . S
H438 C448 0.950 . S
H439 C450 0.950 . S
H440 C452 0.950 . S
H441 C453 0.950 . S
C442 H434 0.950 . S
C442 C443 1.386 . S
C442 C444 1.391 . S
C443 C442 1.386 . S
C443 C447 1.393 1_545 S
C444 H436 0.950 . S
C444 C442 1.391 . S
C444 C445 1.400 . S
C445 C444 1.400 . S
C445 C446 1.398 1_545 S
C445 C451 1.491 . S
C446 H437 0.950 . S
C446 C445 1.398 1_565 S
C446 C447 1.391 . S
C447 H435 0.950 . S
C447 C443 1.393 1_565 S
C447 C446 1.391 . S
C448 H438 0.950 . S
C448 C449 1.386 1_565 S
C448 C450 1.391 . S
C449 C448 1.386 1_545 S
C449 C453 1.393 . S
C450 H439 0.950 . S
C450 C448 1.391 . S
C450 C451 1.400 1_565 S
C451 C445 1.491 . S
C451 C450 1.400 1_545 S
C451 C452 1.398 . S
C452 H440 0.950 . S
C452 C451 1.398 . S
C452 C453 1.391 . S
C453 H441 0.950 . S
C453 C449 1.393 . S
C453 C452 1.391 . S
H454 C462 0.950 . S
H455 C467 0.950 . S
H456 C464 0.950 . S
H457 C466 0.950 . S
H458 C468 0.950 . S
H459 C470 0.950 . S
H460 C472 0.950 . S
H461 C473 0.950 . S
C462 H454 0.950 . S
C462 C463 1.386 . S
C462 C464 1.391 . S
C463 C462 1.386 . S
C463 C467 1.393 . S
C464 H456 0.950 . S
C464 C462 1.391 . S
C464 C465 1.400 . S
C465 C464 1.400 . S
C465 C466 1.398 . S
C465 C471 1.491 . S
C466 H457 0.950 . S
C466 C465 1.398 . S
C466 C467 1.391 . S
C467 H455 0.950 . S
C467 C463 1.393 . S
C467 C466 1.391 . S
C468 H458 0.950 . S
C468 C469 1.386 . S
C468 C470 1.391 . S
C469 C468 1.386 . S
C469 C473 1.393 . S
C470 H459 0.950 . S
C470 C468 1.391 . S
C470 C471 1.400 . S
C471 C465 1.491 . S
C471 C470 1.400 . S
C471 C472 1.398 . S
C472 H460 0.950 . S
C472 C471 1.398 . S
C472 C473 1.391 . S
C473 H461 0.950 . S
C473 C469 1.393 . S
C473 C472 1.391 . S
H474 C482 0.950 . S
H475 C487 0.950 . S
H476 C484 0.950 . S
H477 C486 0.950 . S
H478 C488 0.950 . S
H479 C490 0.950 . S
H480 C492 0.950 . S
H481 C493 0.950 . S
C482 H474 0.950 . S
C482 C483 1.386 . S
C482 C484 1.391 . S
C483 C482 1.386 . S
C483 C487 1.393 1_545 S
C484 H476 0.950 . S
C484 C482 1.391 . S
C484 C485 1.400 . S
C485 C484 1.400 . S
C485 C486 1.398 1_545 S
C485 C491 1.491 . S
C486 H477 0.950 . S
C486 C485 1.398 1_565 S
C486 C487 1.391 . S
C487 H475 0.950 . S
C487 C483 1.393 1_565 S
C487 C486 1.391 . S
C488 H478 0.950 . S
C488 C489 1.386 1_565 S
C488 C490 1.391 . S
C489 C488 1.386 1_545 S
C489 C493 1.393 . S
C490 H479 0.950 . S
C490 C488 1.391 . S
C490 C491 1.400 1_565 S
C491 C485 1.491 . S
C491 C490 1.400 1_545 S
C491 C492 1.398 . S
C492 H480 0.950 . S
C492 C491 1.398 . S
C492 C493 1.391 . S
C493 H481 0.950 . S
C493 C489 1.393 . S
C493 C492 1.391 . S
H494 C502 0.950 . S
H495 C507 0.950 . S
H496 C504 0.950 . S
H497 C506 0.950 . S
H498 C508 0.950 . S
H499 C510 0.950 1_556 S
H500 C512 0.950 . S
H501 C513 0.950 . S
C502 H494 0.950 . S
C502 C503 1.386 . S
C502 C504 1.391 . S
C503 C502 1.386 . S
C503 C507 1.393 . S
C504 H496 0.950 . S
C504 C502 1.391 . S
C504 C505 1.400 . S
C505 C504 1.400 . S
C505 C506 1.398 . S
C505 C511 1.491 . S
C506 H497 0.950 . S
C506 C505 1.398 . S
C506 C507 1.391 . S
C507 H495 0.950 . S
C507 C503 1.393 . S
C507 C506 1.391 . S
C508 H498 0.950 . S
C508 C509 1.386 . S
C508 C510 1.391 . S
C509 C508 1.386 . S
C509 C513 1.393 . S
C510 H499 0.950 1_554 S
C510 C508 1.391 . S
C510 C511 1.400 1_554 S
C511 C505 1.491 . S
C511 C510 1.400 1_556 S
C511 C512 1.398 1_556 S
C512 H500 0.950 . S
C512 C511 1.398 1_554 S
C512 C513 1.391 . S
C513 H501 0.950 . S
C513 C509 1.393 . S
C513 C512 1.391 . S
H514 C522 0.950 . S
H515 C527 0.950 . S
H516 C524 0.950 . S
H517 C526 0.950 . S
H518 C528 0.950 . S
H519 C530 0.950 . S
H520 C532 0.950 . S
H521 C533 0.950 . S
C522 H514 0.950 . S
C522 C523 1.386 . S
C522 C524 1.391 . S
C523 C522 1.386 . S
C523 C527 1.393 1_455 S
C524 H516 0.950 . S
C524 C522 1.391 . S
C524 C525 1.400 . S
C525 C524 1.400 . S
C525 C526 1.398 1_455 S
C525 C531 1.491 . S
C526 H517 0.950 . S
C526 C525 1.398 1_655 S
C526 C527 1.391 . S
C527 H515 0.950 . S
C527 C523 1.393 1_655 S
C527 C526 1.391 . S
C528 H518 0.950 . S
C528 C529 1.386 1_655 S
C528 C530 1.391 . S
C529 C528 1.386 1_455 S
C529 C533 1.393 . S
C530 H519 0.950 . S
C530 C528 1.391 . S
C530 C531 1.400 1_655 S
C531 C525 1.491 . S
C531 C530 1.400 1_455 S
C531 C532 1.398 . S
C532 H520 0.950 . S
C532 C531 1.398 . S
C532 C533 1.391 . S
C533 H521 0.950 . S
C533 C529 1.393 . S
C533 C532 1.391 . S
C183 C10 2.991 . S
C189 C169 2.961 . S
C203 C55 1.270 . S
C209 C151 1.318 . S
C223 C90 1.801 . S
C229 C163 1.785 . S
C243 C19 2.880 . S
C249 C172 2.899 . S
C269 C154 1.368 . S
C263 C46 1.322 . S
C289 C160 1.904 . S
C283 C99 1.876 . S
C303 C50 1.816 . S
C309 C133 1.791 . S
C323 C95 0.709 . S
C329 C142 0.716 . S
C343 C6 1.353 . S
C349 C124 1.377 . S
C369 C136 1.843 . S
C363 C59 1.840 . S
C389 C145 0.513 . S
C383 C86 0.560 . S
C403 C15 1.346 . S
C409 C127 1.392 . S
C429 C143 1.071 . S
C423 C18 1.040 . S
C443 C49 1.448 . S
C449 C125 1.485 . S
C463 C98 1.321 . S
C469 C134 1.352 . S
C489 C161 1.366 . S
C483 C58 1.328 . S
C509 C170 1.791 . S
C503 C89 1.708 . S
C523 C9 1.447 . S
C529 C152 1.507 . S
