# Generated by pormake.
# Topology ptr, (4,4)-cn, num edge types: 1
# Building blocks:
#     Node 0, Type 0, BuildingBlock: TATPOV_clean_sbu_0, # of connection points: 4
#     Node 1, Type 0, BuildingBlock: TATPOV_clean_sbu_0, # of connection points: 4
#     Node 2, Type 0, BuildingBlock: TATPOV_clean_sbu_0, # of connection points: 4
#     Node 3, Type 0, BuildingBlock: TATPOV_clean_sbu_0, # of connection points: 4
#     Node 4, Type 0, BuildingBlock: TATPOV_clean_sbu_0, # of connection points: 4
#     Node 5, Type 0, BuildingBlock: TATPOV_clean_sbu_0, # of connection points: 4
#     Node 6, Type 0, BuildingBlock: TATPOV_clean_sbu_0, # of connection points: 4
#     Node 7, Type 0, BuildingBlock: TATPOV_clean_sbu_0, # of connection points: 4
#     Node 8, Type 0, BuildingBlock: TATPOV_clean_sbu_0, # of connection points: 4
#     Node 9, Type 0, BuildingBlock: TATPOV_clean_sbu_0, # of connection points: 4
#     Node 10, Type 0, BuildingBlock: TATPOV_clean_sbu_0, # of connection points: 4
#     Node 11, Type 0, BuildingBlock: TATPOV_clean_sbu_0, # of connection points: 4
#     Node 12, Type 0, BuildingBlock: TATPOV_clean_sbu_0, # of connection points: 4
#     Node 13, Type 0, BuildingBlock: TATPOV_clean_sbu_0, # of connection points: 4
#     Node 14, Type 0, BuildingBlock: TATPOV_clean_sbu_0, # of connection points: 4
#     Node 15, Type 0, BuildingBlock: TATPOV_clean_sbu_0, # of connection points: 4
#     Node 16, Type 0, BuildingBlock: TATPOV_clean_sbu_0, # of connection points: 4
#     Node 17, Type 0, BuildingBlock: TATPOV_clean_sbu_0, # of connection points: 4
#     Node 18, Type 1, BuildingBlock: NAWXER_clean_linker_0, # of connection points: 4
#     Node 19, Type 1, BuildingBlock: NAWXER_clean_linker_0, # of connection points: 4
#     Node 20, Type 1, BuildingBlock: NAWXER_clean_linker_0, # of connection points: 4
#     Node 21, Type 1, BuildingBlock: NAWXER_clean_linker_0, # of connection points: 4
#     Node 22, Type 1, BuildingBlock: NAWXER_clean_linker_0, # of connection points: 4
#     Node 23, Type 1, BuildingBlock: NAWXER_clean_linker_0, # of connection points: 4
#     Node 24, Type 1, BuildingBlock: NAWXER_clean_linker_0, # of connection points: 4
#     Node 25, Type 1, BuildingBlock: NAWXER_clean_linker_0, # of connection points: 4
#     Node 26, Type 1, BuildingBlock: NAWXER_clean_linker_0, # of connection points: 4
#     Node 27, Type 1, BuildingBlock: NAWXER_clean_linker_0, # of connection points: 4
#     Node 28, Type 1, BuildingBlock: NAWXER_clean_linker_0, # of connection points: 4
#     Node 29, Type 1, BuildingBlock: NAWXER_clean_linker_0, # of connection points: 4
#     Node 30, Type 1, BuildingBlock: NAWXER_clean_linker_0, # of connection points: 4
#     Node 31, Type 1, BuildingBlock: NAWXER_clean_linker_0, # of connection points: 4
#     Node 32, Type 1, BuildingBlock: NAWXER_clean_linker_0, # of connection points: 4
#     Node 33, Type 1, BuildingBlock: NAWXER_clean_linker_0, # of connection points: 4
#     Node 34, Type 1, BuildingBlock: NAWXER_clean_linker_0, # of connection points: 4
#     Node 35, Type 1, BuildingBlock: NAWXER_clean_linker_0, # of connection points: 4
#     Edge 36, Type (0, 1), BuildingBlock: ZUJKAS_clean_linker_0, # of connection points: 2
#     Edge 37, Type (0, 1), BuildingBlock: ZUJKAS_clean_linker_0, # of connection points: 2
#     Edge 38, Type (0, 1), BuildingBlock: ZUJKAS_clean_linker_0, # of connection points: 2
#     Edge 39, Type (0, 1), BuildingBlock: ZUJKAS_clean_linker_0, # of connection points: 2
#     Edge 40, Type (0, 1), BuildingBlock: ZUJKAS_clean_linker_0, # of connection points: 2
#     Edge 41, Type (0, 1), BuildingBlock: ZUJKAS_clean_linker_0, # of connection points: 2
#     Edge 42, Type (0, 1), BuildingBlock: ZUJKAS_clean_linker_0, # of connection points: 2
#     Edge 43, Type (0, 1), BuildingBlock: ZUJKAS_clean_linker_0, # of connection points: 2
#     Edge 44, Type (0, 1), BuildingBlock: ZUJKAS_clean_linker_0, # of connection points: 2
#     Edge 45, Type (0, 1), BuildingBlock: ZUJKAS_clean_linker_0, # of connection points: 2
#     Edge 46, Type (0, 1), BuildingBlock: ZUJKAS_clean_linker_0, # of connection points: 2
#     Edge 47, Type (0, 1), BuildingBlock: ZUJKAS_clean_linker_0, # of connection points: 2
#     Edge 48, Type (0, 1), BuildingBlock: ZUJKAS_clean_linker_0, # of connection points: 2
#     Edge 49, Type (0, 1), BuildingBlock: ZUJKAS_clean_linker_0, # of connection points: 2
#     Edge 50, Type (0, 1), BuildingBlock: ZUJKAS_clean_linker_0, # of connection points: 2
#     Edge 51, Type (0, 1), BuildingBlock: ZUJKAS_clean_linker_0, # of connection points: 2
#     Edge 52, Type (0, 1), BuildingBlock: ZUJKAS_clean_linker_0, # of connection points: 2
#     Edge 53, Type (0, 1), BuildingBlock: ZUJKAS_clean_linker_0, # of connection points: 2
#     Edge 54, Type (0, 1), BuildingBlock: ZUJKAS_clean_linker_0, # of connection points: 2
#     Edge 55, Type (0, 1), BuildingBlock: ZUJKAS_clean_linker_0, # of connection points: 2
#     Edge 56, Type (0, 1), BuildingBlock: ZUJKAS_clean_linker_0, # of connection points: 2
#     Edge 57, Type (0, 1), BuildingBlock: ZUJKAS_clean_linker_0, # of connection points: 2
#     Edge 58, Type (0, 1), BuildingBlock: ZUJKAS_clean_linker_0, # of connection points: 2
#     Edge 59, Type (0, 1), BuildingBlock: ZUJKAS_clean_linker_0, # of connection points: 2
#     Edge 60, Type (0, 1), BuildingBlock: ZUJKAS_clean_linker_0, # of connection points: 2
#     Edge 61, Type (0, 1), BuildingBlock: ZUJKAS_clean_linker_0, # of connection points: 2
#     Edge 62, Type (0, 1), BuildingBlock: ZUJKAS_clean_linker_0, # of connection points: 2
#     Edge 63, Type (0, 1), BuildingBlock: ZUJKAS_clean_linker_0, # of connection points: 2
#     Edge 64, Type (0, 1), BuildingBlock: ZUJKAS_clean_linker_0, # of connection points: 2
#     Edge 65, Type (0, 1), BuildingBlock: ZUJKAS_clean_linker_0, # of connection points: 2
#     Edge 66, Type (0, 1), BuildingBlock: ZUJKAS_clean_linker_0, # of connection points: 2
#     Edge 67, Type (0, 1), BuildingBlock: ZUJKAS_clean_linker_0, # of connection points: 2
#     Edge 68, Type (0, 1), BuildingBlock: ZUJKAS_clean_linker_0, # of connection points: 2
#     Edge 69, Type (0, 1), BuildingBlock: ZUJKAS_clean_linker_0, # of connection points: 2
#     Edge 70, Type (0, 1), BuildingBlock: ZUJKAS_clean_linker_0, # of connection points: 2
#     Edge 71, Type (0, 1), BuildingBlock: ZUJKAS_clean_linker_0, # of connection points: 2
#     Edge 72, Type (0, 1), BuildingBlock: ZUJKAS_clean_linker_0, # of connection points: 2
#     Edge 73, Type (0, 1), BuildingBlock: ZUJKAS_clean_linker_0, # of connection points: 2
#     Edge 74, Type (0, 1), BuildingBlock: ZUJKAS_clean_linker_0, # of connection points: 2
#     Edge 75, Type (0, 1), BuildingBlock: ZUJKAS_clean_linker_0, # of connection points: 2
#     Edge 76, Type (0, 1), BuildingBlock: ZUJKAS_clean_linker_0, # of connection points: 2
#     Edge 77, Type (0, 1), BuildingBlock: ZUJKAS_clean_linker_0, # of connection points: 2
#     Edge 78, Type (0, 1), BuildingBlock: ZUJKAS_clean_linker_0, # of connection points: 2
#     Edge 79, Type (0, 1), BuildingBlock: ZUJKAS_clean_linker_0, # of connection points: 2
#     Edge 80, Type (0, 1), BuildingBlock: ZUJKAS_clean_linker_0, # of connection points: 2
#     Edge 81, Type (0, 1), BuildingBlock: ZUJKAS_clean_linker_0, # of connection points: 2
#     Edge 82, Type (0, 1), BuildingBlock: ZUJKAS_clean_linker_0, # of connection points: 2
#     Edge 83, Type (0, 1), BuildingBlock: ZUJKAS_clean_linker_0, # of connection points: 2
#     Edge 84, Type (0, 1), BuildingBlock: ZUJKAS_clean_linker_0, # of connection points: 2
#     Edge 85, Type (0, 1), BuildingBlock: ZUJKAS_clean_linker_0, # of connection points: 2
#     Edge 86, Type (0, 1), BuildingBlock: ZUJKAS_clean_linker_0, # of connection points: 2
#     Edge 87, Type (0, 1), BuildingBlock: ZUJKAS_clean_linker_0, # of connection points: 2
#     Edge 88, Type (0, 1), BuildingBlock: ZUJKAS_clean_linker_0, # of connection points: 2
#     Edge 89, Type (0, 1), BuildingBlock: ZUJKAS_clean_linker_0, # of connection points: 2
#     Edge 90, Type (0, 1), BuildingBlock: ZUJKAS_clean_linker_0, # of connection points: 2
#     Edge 91, Type (0, 1), BuildingBlock: ZUJKAS_clean_linker_0, # of connection points: 2
#     Edge 92, Type (0, 1), BuildingBlock: ZUJKAS_clean_linker_0, # of connection points: 2
#     Edge 93, Type (0, 1), BuildingBlock: ZUJKAS_clean_linker_0, # of connection points: 2
#     Edge 94, Type (0, 1), BuildingBlock: ZUJKAS_clean_linker_0, # of connection points: 2
#     Edge 95, Type (0, 1), BuildingBlock: ZUJKAS_clean_linker_0, # of connection points: 2
#     Edge 96, Type (0, 1), BuildingBlock: ZUJKAS_clean_linker_0, # of connection points: 2
#     Edge 97, Type (0, 1), BuildingBlock: ZUJKAS_clean_linker_0, # of connection points: 2
#     Edge 98, Type (0, 1), BuildingBlock: ZUJKAS_clean_linker_0, # of connection points: 2
#     Edge 99, Type (0, 1), BuildingBlock: ZUJKAS_clean_linker_0, # of connection points: 2
#     Edge 100, Type (0, 1), BuildingBlock: ZUJKAS_clean_linker_0, # of connection points: 2
#     Edge 101, Type (0, 1), BuildingBlock: ZUJKAS_clean_linker_0, # of connection points: 2
#     Edge 102, Type (0, 1), BuildingBlock: ZUJKAS_clean_linker_0, # of connection points: 2
#     Edge 103, Type (0, 1), BuildingBlock: ZUJKAS_clean_linker_0, # of connection points: 2
#     Edge 104, Type (0, 1), BuildingBlock: ZUJKAS_clean_linker_0, # of connection points: 2
#     Edge 105, Type (0, 1), BuildingBlock: ZUJKAS_clean_linker_0, # of connection points: 2
#     Edge 106, Type (0, 1), BuildingBlock: ZUJKAS_clean_linker_0, # of connection points: 2
#     Edge 107, Type (0, 1), BuildingBlock: ZUJKAS_clean_linker_0, # of connection points: 2
# Relax obj value: 0.067
# Max RMSD: 0.243
# Mean RMSD: 0.105
data_MOF--net-ptr--node1-TATPOV_clean_sbu_0--node2-NAWXER_clean_linker_0--edge1-ZUJKAS_clean_linker_0
_symmetry_space_group_name_H-M    P1
_symmetry_Int_Tables_number       1
_symmetry_cell_setting            triclinic
loop_
_symmetry_equiv_pos_as_xyz
'x, y, z'
_cell_length_a     108.26904
_cell_length_b     109.79164
_cell_length_c     78.68546
_cell_angle_alpha  89.796457
_cell_angle_beta   90.531744
_cell_angle_gamma 121.47385
loop_
_atom_site_label
_atom_site_type_symbol
_atom_site_fract_x
_atom_site_fract_y
_atom_site_fract_z
_atom_type_partial_charge
Zn0 Zn 0.97018 0.35374 0.00947 0.0
Zn1 Zn 0.99594 0.35584 0.01392 0.0
O2 O 0.98187 0.33488 0.00721 0.0
O3 O 0.96071 0.33282 0.00346 0.0
O4 O 0.01403 0.35579 0.02009 0.0
O5 O 0.97044 0.36004 0.03362 0.0
O6 O 0.99209 0.363 0.03626 0.0
C7 C 0.96847 0.32731 0.00335 0.0
C8 C 0.99324 0.37388 0.98665 0.0
O9 O 0.00104 0.36981 0.99399 0.0
O10 O 0.98023 0.3688 0.99116 0.0
C11 C 0.01833 0.34871 0.01196 0.0
O12 O 0.0115 0.34203 0.99794 0.0
C13 C 0.98176 0.36394 0.04242 0.0
Zn14 Zn 0.64948 0.62284 0.99703 0.0
Zn15 Zn 0.6498 0.64609 0.0084 0.0
O16 O 0.67035 0.65415 0.99901 0.0
O17 O 0.66991 0.63533 0.98866 0.0
O18 O 0.65075 0.66347 0.01825 0.0
O19 O 0.64569 0.61466 0.02078 0.0
O20 O 0.64464 0.63314 0.0294 0.0
C21 C 0.67661 0.64866 0.99135 0.0
C22 C 0.62795 0.62735 0.98095 0.0
O23 O 0.63359 0.63853 0.99023 0.0
O24 O 0.63268 0.61896 0.98179 0.0
C25 C 0.65749 0.67565 0.01114 0.0
O26 O 0.66363 0.67696 0.99637 0.0
C27 C 0.64364 0.62126 0.03252 0.0
Zn28 Zn 0.34819 0.97528 0.03262 0.0
Zn29 Zn 0.35131 0.0003 0.02284 0.0
O30 O 0.32994 0.98787 0.03002 0.0
O31 O 0.32708 0.96723 0.03747 0.0
O32 O 0.35239 0.01815 0.01422 0.0
O33 O 0.35469 0.97307 0.00939 0.0
O34 O 0.3571 0.99349 0.00177 0.0
C35 C 0.32191 0.97515 0.03545 0.0
C36 C 0.36933 0.99971 0.05259 0.0
O37 O 0.36622 0.00686 0.04249 0.0
O38 O 0.363 0.98626 0.05108 0.0
C39 C 0.34595 0.02353 0.02165 0.0
O40 O 0.33914 0.01783 0.03593 0.0
C41 C 0.35799 0.98265 0.99829 0.0
Zn42 Zn 0.0405 0.65872 0.01439 0.0
Zn43 Zn 0.01383 0.65486 0.01023 0.0
O44 O 0.02756 0.67626 0.01526 0.0
O45 O 0.04952 0.67999 0.0176 0.0
O46 O 0.99516 0.65401 0.00487 0.0
O47 O 0.03898 0.65022 0.99102 0.0
O48 O 0.01718 0.64689 0.98835 0.0
C49 C 0.04108 0.68473 0.01779 0.0
C50 C 0.01876 0.63964 0.03925 0.0
O51 O 0.01002 0.64189 0.03086 0.0
O52 O 0.03192 0.64561 0.03487 0.0
C53 C 0.99132 0.6614 0.01315 0.0
O54 O 0.99899 0.66867 0.02649 0.0
C55 C 0.02742 0.6457 0.98245 0.0
Zn56 Zn 0.35441 0.38813 0.02483 0.0
Zn57 Zn 0.35299 0.36492 0.01171 0.0
O58 O 0.33229 0.35731 0.02039 0.0
O59 O 0.33349 0.37621 0.03167 0.0
O60 O 0.35137 0.34749 0.00102 0.0
O61 O 0.35981 0.39779 0.00195 0.0
O62 O 0.35957 0.37906 0.99162 0.0
C63 C 0.32628 0.36301 0.02816 0.0
C64 C 0.37395 0.38108 0.04113 0.0
O65 O 0.3683 0.37062 0.03072 0.0
O66 O 0.36999 0.39009 0.04093 0.0
C67 C 0.34591 0.33572 0.00899 0.0
O68 O 0.34157 0.33505 0.0247 0.0
C69 C 0.36162 0.39152 0.98962 0.0
Zn70 Zn 0.65648 0.02939 0.00027 0.0
Zn71 Zn 0.65113 0.00337 0.00879 0.0
O72 O 0.67262 0.0148 0.0019 0.0
O73 O 0.67766 0.03665 0.99696 0.0
O74 O 0.649 0.98503 0.01721 0.0
O75 O 0.64916 0.03136 0.023 0.0
O76 O 0.64527 0.01021 0.02987 0.0
C77 C 0.68168 0.02772 0.99789 0.0
C78 C 0.63508 0.00612 0.97864 0.0
O79 O 0.63686 0.99804 0.98873 0.0
O80 O 0.64234 0.01956 0.98071 0.0
C81 C 0.65403 0.97856 0.00915 0.0
O82 O 0.65983 0.98332 0.99416 0.0
C83 C 0.64489 0.02129 0.03364 0.0
Zn84 Zn 0.62683 0.68028 0.34571 0.0
Zn85 Zn 0.65288 0.68338 0.35162 0.0
O86 O 0.63916 0.66209 0.34557 0.0
O87 O 0.61773 0.65924 0.3411 0.0
O88 O 0.67118 0.68389 0.35822 0.0
O89 O 0.62672 0.68729 0.36941 0.0
O90 O 0.64868 0.69118 0.37318 0.0
C91 C 0.6258 0.65409 0.34168 0.0
C92 C 0.64991 0.69973 0.3224 0.0
O93 O 0.65792 0.69662 0.33104 0.0
O94 O 0.6367 0.69432 0.32627 0.0
C95 C 0.67552 0.6769 0.34996 0.0
O96 O 0.66853 0.6701 0.33606 0.0
C97 C 0.63797 0.69182 0.37857 0.0
Zn98 Zn 0.30895 0.95031 0.34081 0.0
Zn99 Zn 0.31318 0.97589 0.34945 0.0
O100 O 0.33281 0.9809 0.33926 0.0
O101 O 0.32942 0.95996 0.33233 0.0
O102 O 0.31641 0.99487 0.35715 0.0
O103 O 0.30463 0.94364 0.36505 0.0
O104 O 0.30724 0.9643 0.37181 0.0
C105 C 0.33754 0.97342 0.33303 0.0
C106 C 0.28986 0.95732 0.32316 0.0
O107 O 0.29686 0.96892 0.33158 0.0
O108 O 0.29283 0.94765 0.32505 0.0
C109 C 0.32825 0.00412 0.36423 0.0
O110 O 0.3386 0.00135 0.36615 0.0
C111 C 0.30438 0.95188 0.37608 0.0
Zn112 Zn 0.0146 0.30539 0.35666 0.0
Zn113 Zn 0.01926 0.33134 0.349 0.0
O114 O 0.99793 0.31989 0.35659 0.0
O115 O 0.99393 0.29853 0.36254 0.0
O116 O 0.02156 0.34986 0.34108 0.0
O117 O 0.01932 0.3027 0.33281 0.0
O118 O 0.02444 0.32452 0.32728 0.0
C119 C 0.98944 0.30708 0.36149 0.0
C120 C 0.03707 0.32874 0.37726 0.0
O121 O 0.03388 0.33657 0.3686 0.0
O122 O 0.03057 0.31542 0.37441 0.0
C123 C 0.01722 0.35678 0.34947 0.0
O124 O 0.01164 0.3522 0.3646 0.0
C125 C 0.0237 0.31305 0.32259 0.0
Zn126 Zn 0.70686 0.99051 0.35475 0.0
Zn127 Zn 0.68019 0.98559 0.34773 0.0
O128 O 0.69247 0.00713 0.35321 0.0
O129 O 0.7144 0.01144 0.35841 0.0
O130 O 0.66116 0.98314 0.34026 0.0
O131 O 0.70793 0.98334 0.3315 0.0
O132 O 0.68576 0.9785 0.32665 0.0
C133 C 0.7057 0.01583 0.35714 0.0
C134 C 0.68406 0.97038 0.37773 0.0
O135 O 0.67572 0.9727 0.36859 0.0
O136 O 0.69745 0.97658 0.37435 0.0
C137 C 0.65535 0.98898 0.34805 0.0
O138 O 0.66142 0.99613 0.36211 0.0
C139 C 0.69691 0.97838 0.32187 0.0
Zn140 Zn 0.01792 0.71608 0.36133 0.0
Zn141 Zn 0.01793 0.69303 0.34985 0.0
O142 O 0.9971 0.68472 0.35854 0.0
O143 O 0.99684 0.70362 0.36721 0.0
O144 O 0.01775 0.67601 0.33995 0.0
O145 O 0.02377 0.72534 0.33829 0.0
O146 O 0.02371 0.70642 0.3291 0.0
C147 C 0.99037 0.69024 0.36498 0.0
C148 C 0.03804 0.7106 0.37926 0.0
O149 O 0.03333 0.70015 0.36893 0.0
O150 O 0.03317 0.71887 0.37855 0.0
C151 C 0.00991 0.66338 0.34566 0.0
O152 O 0.00173 0.66116 0.35894 0.0
C153 C 0.02559 0.71873 0.32638 0.0
Zn154 Zn 0.31935 0.36184 0.32703 0.0
Zn155 Zn 0.31806 0.33751 0.33577 0.0
O156 O 0.33889 0.35084 0.32728 0.0
O157 O 0.3403 0.37098 0.32049 0.0
O158 O 0.31891 0.32042 0.3433 0.0
O159 O 0.31369 0.36362 0.35092 0.0
O160 O 0.31246 0.34356 0.35771 0.0
C161 C 0.34615 0.3636 0.32169 0.0
C162 C 0.29812 0.33691 0.30772 0.0
O163 O 0.30227 0.33018 0.31707 0.0
O164 O 0.30382 0.35027 0.30948 0.0
C165 C 0.30874 0.30979 0.35107 0.0
O166 O 0.29657 0.30938 0.35381 0.0
C167 C 0.31117 0.35406 0.36179 0.0
Zn168 Zn 0.29819 0.01971 0.67533 0.0
Zn169 Zn 0.32355 0.02227 0.68381 0.0
O170 O 0.30999 0.0009 0.67841 0.0
O171 O 0.28894 0.99842 0.67224 0.0
O172 O 0.34153 0.02293 0.69221 0.0
O173 O 0.29746 0.02797 0.6979 0.0
O174 O 0.31836 0.03025 0.70443 0.0
C175 C 0.29672 0.99301 0.67411 0.0
C176 C 0.32215 0.03823 0.65287 0.0
O177 O 0.32962 0.03517 0.66263 0.0
O178 O 0.3088 0.03301 0.65569 0.0
C179 C 0.34737 0.01724 0.68414 0.0
O180 O 0.34211 0.01146 0.66919 0.0
C181 C 0.30788 0.03186 0.70826 0.0
Zn182 Zn 0.98484 0.28821 0.66541 0.0
Zn183 Zn 0.98619 0.31191 0.67711 0.0
O184 O 0.00721 0.31899 0.66977 0.0
O185 O 0.00619 0.29956 0.66064 0.0
O186 O 0.98722 0.32943 0.68692 0.0
O187 O 0.97776 0.27866 0.68815 0.0
O188 O 0.97858 0.29797 0.69742 0.0
C189 C 0.01342 0.31286 0.66355 0.0
C190 C 0.96665 0.29574 0.64664 0.0
O191 O 0.97164 0.30603 0.65724 0.0
O192 O 0.97063 0.28676 0.64747 0.0
C193 C 0.99687 0.34216 0.68302 0.0
O194 O 0.00669 0.34434 0.67174 0.0
C195 C 0.97586 0.28532 0.69995 0.0
Zn196 Zn 0.69004 0.64469 0.69565 0.0
Zn197 Zn 0.69231 0.66963 0.68717 0.0
O198 O 0.67148 0.65703 0.69598 0.0
O199 O 0.66942 0.63666 0.70313 0.0
O200 O 0.69264 0.68723 0.67892 0.0
O201 O 0.69426 0.64189 0.67154 0.0
O202 O 0.69748 0.66292 0.66537 0.0
C203 C 0.66398 0.64442 0.70192 0.0
C204 C 0.71236 0.66957 0.71447 0.0
O205 O 0.70788 0.67644 0.70596 0.0
O206 O 0.70669 0.65626 0.71215 0.0
C207 C 0.68599 0.69231 0.68654 0.0
O208 O 0.67942 0.6865 0.70091 0.0
C209 C 0.69757 0.65182 0.66094 0.0
Zn210 Zn 0.37139 0.32183 0.68868 0.0
Zn211 Zn 0.34502 0.31755 0.68112 0.0
O212 O 0.35746 0.33867 0.68835 0.0
O213 O 0.37922 0.34263 0.69377 0.0
O214 O 0.32649 0.31605 0.67323 0.0
O215 O 0.37291 0.31545 0.6651 0.0
O216 O 0.35106 0.31129 0.65971 0.0
C217 C 0.37057 0.34711 0.69293 0.0
C218 C 0.34767 0.3008 0.71013 0.0
O219 O 0.33963 0.30353 0.70098 0.0
O220 O 0.36117 0.30713 0.70736 0.0
C221 C 0.32123 0.32262 0.68059 0.0
O222 O 0.3274 0.32977 0.69462 0.0
C223 C 0.36219 0.31108 0.65507 0.0
Zn224 Zn 0.68677 0.05242 0.6926 0.0
Zn225 Zn 0.68536 0.0283 0.68281 0.0
O226 O 0.66471 0.02143 0.69142 0.0
O227 O 0.66613 0.04111 0.70032 0.0
O228 O 0.68401 0.01029 0.67423 0.0
O229 O 0.69089 0.0598 0.66863 0.0
O230 O 0.69161 0.04085 0.66122 0.0
C231 C 0.65883 0.02772 0.69812 0.0
C232 C 0.70701 0.04709 0.71045 0.0
O233 O 0.70097 0.03565 0.70165 0.0
O234 O 0.7031 0.05607 0.70862 0.0
C235 C 0.67498 0.99789 0.67983 0.0
O236 O 0.66627 0.9965 0.69219 0.0
C237 C 0.6929 0.05277 0.65746 0.0
Zn238 Zn 0.97804 0.6947 0.66586 0.0
Zn239 Zn 0.97547 0.66995 0.67505 0.0
O240 O 0.99674 0.68243 0.66737 0.0
O241 O 0.99931 0.70325 0.66156 0.0
O242 O 0.97451 0.65219 0.68377 0.0
O243 O 0.97124 0.69674 0.68883 0.0
O244 O 0.96964 0.67665 0.69634 0.0
C245 C 0.00464 0.6954 0.66272 0.0
C246 C 0.95718 0.67031 0.64555 0.0
O247 O 0.96048 0.66323 0.65552 0.0
O248 O 0.96335 0.68373 0.64722 0.0
C249 C 0.97925 0.64552 0.67558 0.0
O250 O 0.9845 0.6499 0.66028 0.0
C251 C 0.96832 0.68723 0.69991 0.0
C252 C 0.19293 0.31123 0.12273 0.0
C253 C 0.19032 0.3019 0.10909 0.0
C254 C 0.18149 0.30992 0.13224 0.0
C255 C 0.16718 0.29922 0.12838 0.0
C256 C 0.17593 0.29118 0.10525 0.0
C257 C 0.16445 0.28994 0.11474 0.0
C258 C 0.15507 0.2984 0.13787 0.0
C259 C 0.17915 0.28612 0.17446 0.0
C260 C 0.18349 0.29383 0.18977 0.0
C261 C 0.16961 0.28727 0.16336 0.0
C262 C 0.1647 0.29658 0.16713 0.0
C263 C 0.17834 0.30283 0.19372 0.0
C264 C 0.16911 0.30423 0.1825 0.0
C265 C 0.15444 0.29803 0.15585 0.0
C266 C 0.0992 0.29527 0.1725 0.0
C267 C 0.10439 0.30568 0.18545 0.0
C268 C 0.10886 0.29406 0.16198 0.0
C269 C 0.12385 0.30317 0.1643 0.0
C270 C 0.11943 0.31512 0.18719 0.0
C271 C 0.12904 0.31375 0.17688 0.0
C272 C 0.13427 0.30123 0.15453 0.0
C273 C 0.11682 0.32046 0.11872 0.0
C274 C 0.10859 0.31149 0.10514 0.0
C275 C 0.12523 0.31713 0.12898 0.0
C276 C 0.12555 0.3047 0.12598 0.0
C277 C 0.10912 0.29915 0.102 0.0
C278 C 0.11761 0.29585 0.11226 0.0
C279 C 0.13475 0.30138 0.13664 0.0
H280 H 0.2038 0.31986 0.12579 0.0
H281 H 0.18381 0.31747 0.14241 0.0
H282 H 0.17352 0.28375 0.09492 0.0
H283 H 0.15345 0.28171 0.11146 0.0
H284 H 0.18291 0.27901 0.17126 0.0
H285 H 0.16596 0.28074 0.152 0.0
H286 H 0.18163 0.30897 0.2054 0.0
H287 H 0.16547 0.31141 0.18586 0.0
H288 H 0.08771 0.28771 0.1709 0.0
H289 H 0.10464 0.28571 0.15245 0.0
H290 H 0.12384 0.3235 0.1967 0.0
H291 H 0.14058 0.32094 0.17879 0.0
H292 H 0.11698 0.33023 0.12126 0.0
H293 H 0.13166 0.3244 0.13912 0.0
H294 H 0.10284 0.29194 0.09174 0.0
H295 H 0.11784 0.2863 0.10962 0.0
N296 N 0.14511 0.29992 0.12896 0.0
N297 N 0.14408 0.29954 0.16339 0.0
C298 C 0.66855 0.87485 0.12058 0.0
C299 C 0.67781 0.88175 0.10678 0.0
C300 C 0.67033 0.86548 0.13086 0.0
C301 C 0.68146 0.86283 0.12765 0.0
C302 C 0.68891 0.87901 0.10354 0.0
C303 C 0.69064 0.86956 0.11381 0.0
C304 C 0.68284 0.85233 0.13801 0.0
C305 C 0.69558 0.88892 0.17446 0.0
C306 C 0.68573 0.88553 0.18782 0.0
C307 C 0.69437 0.87823 0.1637 0.0
C308 C 0.68332 0.86395 0.16612 0.0
C309 C 0.67443 0.87123 0.18982 0.0
C310 C 0.67335 0.86055 0.17921 0.0
C311 C 0.6827 0.85235 0.15594 0.0
C312 C 0.69099 0.80387 0.17545 0.0
C313 C 0.68095 0.7981 0.18878 0.0
C314 C 0.69139 0.81427 0.16469 0.0
C315 C 0.68171 0.819 0.16705 0.0
C316 C 0.6714 0.80299 0.19115 0.0
C317 C 0.67183 0.81336 0.18045 0.0
C318 C 0.68221 0.83037 0.15635 0.0
C319 C 0.6686 0.79316 0.12127 0.0
C320 C 0.6781 0.79594 0.10772 0.0
C321 C 0.67008 0.8043 0.13136 0.0
C322 C 0.68122 0.81845 0.12825 0.0
C323 C 0.68917 0.81014 0.10456 0.0
C324 C 0.69066 0.82128 0.11467 0.0
C325 C 0.68251 0.8304 0.13838 0.0
H326 H 0.65966 0.8764 0.12322 0.0
H327 H 0.66277 0.86004 0.14109 0.0
H328 H 0.69631 0.88422 0.09311 0.0
H329 H 0.6992 0.86755 0.111 0.0
H330 H 0.70455 0.89975 0.17268 0.0
H331 H 0.70235 0.88105 0.15386 0.0
H332 H 0.66644 0.86823 0.19969 0.0
H333 H 0.66473 0.84959 0.18127 0.0
H334 H 0.69848 0.80032 0.1733 0.0
H335 H 0.69937 0.81872 0.1547 0.0
H336 H 0.66373 0.79899 0.20149 0.0
H337 H 0.66438 0.81696 0.18266 0.0
H338 H 0.66001 0.78235 0.12412 0.0
H339 H 0.66239 0.80187 0.14143 0.0
H340 H 0.69653 0.81267 0.09407 0.0
H341 H 0.69918 0.83214 0.11188 0.0
N342 N 0.68286 0.84141 0.12991 0.0
N343 N 0.6823 0.84135 0.16438 0.0
C344 C 0.11238 0.81398 0.12152 0.0
C345 C 0.10483 0.81531 0.10772 0.0
C346 C 0.12015 0.82528 0.13284 0.0
C347 C 0.12039 0.83811 0.13075 0.0
C348 C 0.10499 0.82812 0.10569 0.0
C349 C 0.11282 0.83948 0.11704 0.0
C350 C 0.12967 0.85047 0.14189 0.0
C351 C 0.09498 0.8175 0.17658 0.0
C352 C 0.10041 0.813 0.18991 0.0
C353 C 0.10442 0.82919 0.16646 0.0
C354 C 0.11945 0.83642 0.16942 0.0
C355 C 0.11546 0.8201 0.19255 0.0
C356 C 0.12484 0.83171 0.18248 0.0
C357 C 0.12973 0.8494 0.15979 0.0
C358 C 0.17778 0.90823 0.18232 0.0
C359 C 0.18452 0.90383 0.19411 0.0
C360 C 0.16681 0.89824 0.17151 0.0
C361 C 0.16235 0.88372 0.17247 0.0
C362 C 0.17993 0.88929 0.19508 0.0
C363 C 0.16891 0.87935 0.18447 0.0
C364 C 0.15073 0.87282 0.1614 0.0
C365 C 0.18843 0.89865 0.12726 0.0
C366 C 0.18625 0.90673 0.11502 0.0
C367 C 0.17689 0.88822 0.13669 0.0
C368 C 0.16288 0.88564 0.13418 0.0
C369 C 0.17217 0.90408 0.11246 0.0
C370 C 0.16055 0.89353 0.12189 0.0
C371 C 0.15063 0.87396 0.14353 0.0
H372 H 0.11238 0.80421 0.12352 0.0
H373 H 0.12627 0.82409 0.14298 0.0
H374 H 0.0994 0.82951 0.09507 0.0
H375 H 0.11307 0.84937 0.11503 0.0
H376 H 0.08342 0.81231 0.17436 0.0
H377 H 0.09997 0.83278 0.15666 0.0
H378 H 0.12 0.81673 0.20251 0.0
H379 H 0.13638 0.83706 0.18497 0.0
H380 H 0.18111 0.91937 0.18135 0.0
H381 H 0.16173 0.90182 0.16253 0.0
H382 H 0.18474 0.88555 0.20424 0.0
H383 H 0.16561 0.8682 0.18551 0.0
H384 H 0.19901 0.90005 0.12924 0.0
H385 H 0.17887 0.88192 0.14568 0.0
H386 H 0.17011 0.91012 0.10317 0.0
H387 H 0.14977 0.89155 0.11961 0.0
N388 N 0.14007 0.86277 0.13445 0.0
N389 N 0.14028 0.8606 0.16878 0.0
C390 C 0.32243 0.12414 0.85983 0.0
C391 C 0.31076 0.11594 0.84864 0.0
C392 C 0.32242 0.13433 0.87041 0.0
C393 C 0.31068 0.13643 0.87015 0.0
C394 C 0.29894 0.11793 0.84859 0.0
C395 C 0.29895 0.12814 0.85916 0.0
C396 C 0.31121 0.14817 0.87999 0.0
C397 C 0.30988 0.11705 0.91795 0.0
C398 C 0.32236 0.12253 0.92826 0.0
C399 C 0.30743 0.12617 0.90802 0.0
C400 C 0.31748 0.14095 0.90804 0.0
C401 C 0.33222 0.13737 0.92856 0.0
C402 C 0.32976 0.14648 0.91861 0.0
C403 C 0.31517 0.15075 0.89736 0.0
C404 C 0.3089 0.20129 0.91267 0.0
C405 C 0.32133 0.20936 0.92287 0.0
C406 C 0.30665 0.18917 0.90405 0.0
C407 C 0.31686 0.18497 0.90528 0.0
C408 C 0.33135 0.20491 0.92439 0.0
C409 C 0.32909 0.19281 0.91575 0.0
C410 C 0.31478 0.17228 0.89603 0.0
C411 C 0.3211 0.20347 0.8545 0.0
C412 C 0.30909 0.19885 0.84356 0.0
C413 C 0.32145 0.19412 0.86631 0.0
C414 C 0.30978 0.17998 0.86751 0.0
C415 C 0.2973 0.18473 0.84503 0.0
C416 C 0.29771 0.17536 0.85679 0.0
C417 C 0.31074 0.16964 0.87869 0.0
H418 H 0.33167 0.12282 0.86022 0.0
H419 H 0.33179 0.14085 0.87843 0.0
H420 H 0.28989 0.11195 0.83993 0.0
H421 H 0.28988 0.12973 0.85856 0.0
H422 H 0.30192 0.10571 0.9177 0.0
H423 H 0.29763 0.12167 0.90038 0.0
H424 H 0.342 0.14194 0.93624 0.0
H425 H 0.33762 0.15786 0.91893 0.0
H426 H 0.301 0.20444 0.91117 0.0
H427 H 0.29691 0.18308 0.89643 0.0
H428 H 0.34089 0.21073 0.93238 0.0
H429 H 0.33703 0.18969 0.91707 0.0
H430 H 0.33052 0.21414 0.8535 0.0
H431 H 0.33107 0.19782 0.87409 0.0
H432 H 0.28782 0.18085 0.83696 0.0
H433 H 0.28864 0.16445 0.85741 0.0
N434 N 0.30906 0.15766 0.87139 0.0
N435 N 0.31689 0.16275 0.90467 0.0
C436 C 0.90387 0.18879 0.90542 0.0
C437 C 0.89756 0.19357 0.91712 0.0
C438 C 0.8952 0.17652 0.89564 0.0
C439 C 0.88005 0.16894 0.89724 0.0
C440 C 0.88245 0.18563 0.9191 0.0
C441 C 0.87381 0.17347 0.90929 0.0
C442 C 0.87046 0.15616 0.88677 0.0
C443 C 0.89262 0.19242 0.84927 0.0
C444 C 0.90034 0.19039 0.83647 0.0
C445 C 0.88353 0.18121 0.8601 0.0
C446 C 0.88223 0.16783 0.85858 0.0
C447 C 0.89903 0.177 0.83498 0.0
C448 C 0.89003 0.16583 0.84589 0.0
C449 C 0.87174 0.15552 0.86897 0.0
C450 C 0.81444 0.10538 0.84855 0.0
C451 C 0.81862 0.1002 0.83486 0.0
C452 C 0.8248 0.11547 0.8597 0.0
C453 C 0.83956 0.12027 0.85775 0.0
C454 C 0.83336 0.10503 0.8328 0.0
C455 C 0.84373 0.11497 0.84417 0.0
C456 C 0.85075 0.13196 0.86855 0.0
C457 C 0.8221 0.09616 0.90416 0.0
C458 C 0.81377 0.09963 0.91433 0.0
C459 C 0.83393 0.10685 0.89514 0.0
C460 C 0.8376 0.12113 0.89631 0.0
C461 C 0.81774 0.11397 0.91582 0.0
C462 C 0.82962 0.12463 0.90702 0.0
C463 C 0.84956 0.13259 0.88635 0.0
H464 H 0.91548 0.19466 0.90358 0.0
H465 H 0.90032 0.17303 0.88678 0.0
H466 H 0.87725 0.1888 0.92828 0.0
H467 H 0.86218 0.16771 0.91096 0.0
H468 H 0.8932 0.20253 0.85052 0.0
H469 H 0.87721 0.18289 0.86933 0.0
H470 H 0.9049 0.17514 0.82528 0.0
H471 H 0.88905 0.15556 0.84433 0.0
H472 H 0.8032 0.10212 0.85017 0.0
H473 H 0.82127 0.11988 0.86946 0.0
H474 H 0.83687 0.10125 0.8223 0.0
H475 H 0.85505 0.1187 0.84218 0.0
H476 H 0.81924 0.08517 0.90284 0.0
H477 H 0.8401 0.10396 0.88714 0.0
H478 H 0.8116 0.11694 0.92377 0.0
H479 H 0.83232 0.13559 0.9082 0.0
N480 N 0.85939 0.14468 0.89469 0.0
N481 N 0.86189 0.1434 0.86062 0.0
C482 C 0.82467 0.7216 0.91064 0.0
C483 C 0.81801 0.71192 0.92408 0.0
C484 C 0.83584 0.72184 0.90154 0.0
C485 C 0.84013 0.71204 0.90532 0.0
C486 C 0.82292 0.70275 0.92851 0.0
C487 C 0.83384 0.70279 0.9192 0.0
C488 C 0.8511 0.71118 0.89507 0.0
C489 C 0.81513 0.70158 0.85795 0.0
C490 C 0.81919 0.71054 0.84362 0.0
C491 C 0.8256 0.70216 0.86899 0.0
C492 C 0.84038 0.71201 0.86627 0.0
C493 C 0.83401 0.72038 0.84093 0.0
C494 C 0.84448 0.72108 0.85211 0.0
C495 C 0.85163 0.71194 0.8771 0.0
C496 C 0.8915 0.69217 0.85824 0.0
C497 C 0.89966 0.70206 0.84546 0.0
C498 C 0.88279 0.69458 0.869 0.0
C499 C 0.88217 0.70699 0.86728 0.0
C500 C 0.8991 0.71453 0.84389 0.0
C501 C 0.89037 0.71692 0.85463 0.0
C502 C 0.87206 0.7091 0.87754 0.0
C503 C 0.90476 0.70967 0.91366 0.0
C504 C 0.89862 0.69851 0.92562 0.0
C505 C 0.89597 0.71292 0.90394 0.0
C506 C 0.88087 0.70499 0.90588 0.0
C507 C 0.88352 0.69084 0.92779 0.0
C508 C 0.87476 0.6941 0.91809 0.0
C509 C 0.87126 0.70791 0.89542 0.0
H510 H 0.82116 0.72887 0.90712 0.0
H511 H 0.84091 0.72952 0.89137 0.0
H512 H 0.81789 0.69512 0.93874 0.0
H513 H 0.83704 0.69523 0.92255 0.0
H514 H 0.80383 0.69396 0.86056 0.0
H515 H 0.82212 0.69467 0.87945 0.0
H516 H 0.83759 0.72726 0.82988 0.0
H517 H 0.85582 0.72857 0.84956 0.0
H518 H 0.89173 0.68249 0.8598 0.0
H519 H 0.87626 0.68657 0.87837 0.0
H520 H 0.90503 0.72224 0.83398 0.0
H521 H 0.88987 0.72645 0.85291 0.0
H522 H 0.91637 0.71597 0.9119 0.0
H523 H 0.90099 0.72164 0.89493 0.0
H524 H 0.87841 0.68209 0.93675 0.0
H525 H 0.86314 0.68787 0.91985 0.0
N526 N 0.86084 0.70903 0.90345 0.0
N527 N 0.86224 0.71108 0.86912 0.0
C528 C 0.76438 0.63069 0.44834 0.0
C529 C 0.7705 0.64246 0.43723 0.0
C530 C 0.77323 0.6275 0.45801 0.0
C531 C 0.78837 0.6361 0.4569 0.0
C532 C 0.78566 0.65081 0.43584 0.0
C533 C 0.79449 0.64761 0.4455 0.0
C534 C 0.79796 0.63317 0.46738 0.0
C535 C 0.77533 0.64611 0.50441 0.0
C536 C 0.7678 0.6363 0.51753 0.0
C537 C 0.78442 0.64424 0.49367 0.0
C538 C 0.78587 0.63231 0.49546 0.0
C539 C 0.76931 0.62438 0.5193 0.0
C540 C 0.77824 0.62242 0.50839 0.0
C541 C 0.79635 0.63076 0.48511 0.0
C542 C 0.85171 0.6367 0.50742 0.0
C543 C 0.84691 0.62556 0.51934 0.0
C544 C 0.84197 0.63717 0.49607 0.0
C545 C 0.82722 0.62649 0.49633 0.0
C546 C 0.83216 0.61473 0.51931 0.0
C547 C 0.8224 0.61527 0.50802 0.0
C548 C 0.81666 0.62776 0.48558 0.0
C549 C 0.84418 0.61993 0.45044 0.0
C550 C 0.85275 0.63149 0.43957 0.0
C551 C 0.83288 0.61937 0.45957 0.0
C552 C 0.83 0.63042 0.45808 0.0
C553 C 0.84959 0.64235 0.43787 0.0
C554 C 0.83828 0.64176 0.44694 0.0
C555 C 0.81833 0.63026 0.4679 0.0
H556 H 0.75274 0.62387 0.44946 0.0
H557 H 0.76824 0.61832 0.46636 0.0
H558 H 0.79074 0.66003 0.42754 0.0
H559 H 0.80614 0.65435 0.44436 0.0
H560 H 0.77437 0.65536 0.50256 0.0
H561 H 0.79058 0.65236 0.48424 0.0
H562 H 0.76396 0.61676 0.52946 0.0
H563 H 0.77938 0.61327 0.51025 0.0
H564 H 0.86289 0.64541 0.50729 0.0
H565 H 0.84589 0.64617 0.4875 0.0
H566 H 0.82809 0.6059 0.52815 0.0
H567 H 0.81104 0.60699 0.50852 0.0
H568 H 0.84617 0.61128 0.45184 0.0
H569 H 0.82638 0.61031 0.46776 0.0
H570 H 0.8561 0.65153 0.42985 0.0
H571 H 0.83622 0.65037 0.44555 0.0
N572 N 0.80895 0.63292 0.45951 0.0
N573 N 0.8057 0.62804 0.49346 0.0
C574 C 0.33066 0.20681 0.45456 0.0
C575 C 0.33813 0.21263 0.4393 0.0
C576 C 0.33366 0.19816 0.46464 0.0
C577 C 0.34441 0.19535 0.45989 0.0
C578 C 0.34866 0.20953 0.43435 0.0
C579 C 0.35172 0.20092 0.44452 0.0
C580 C 0.34754 0.18608 0.4705 0.0
C581 C 0.36091 0.2249 0.5032 0.0
C582 C 0.35239 0.22195 0.51778 0.0
C583 C 0.35973 0.21374 0.49335 0.0
C584 C 0.35004 0.19947 0.49796 0.0
C585 C 0.34262 0.20766 0.52224 0.0
C586 C 0.34155 0.19654 0.5125 0.0
C587 C 0.34927 0.18753 0.48835 0.0
C588 C 0.36381 0.14352 0.50887 0.0
C589 C 0.3551 0.13811 0.52341 0.0
C590 C 0.36226 0.1526 0.49769 0.0
C591 C 0.3519 0.15635 0.5008 0.0
C592 C 0.34469 0.14186 0.52635 0.0
C593 C 0.34321 0.15095 0.51525 0.0
C594 C 0.35047 0.16647 0.4897 0.0
C595 C 0.33584 0.12719 0.45818 0.0
C596 C 0.34484 0.1294 0.44428 0.0
C597 C 0.33724 0.13879 0.4672 0.0
C598 C 0.3477 0.15282 0.46255 0.0
C599 C 0.35523 0.14346 0.43955 0.0
C600 C 0.35655 0.15507 0.44853 0.0
C601 C 0.34901 0.16513 0.47184 0.0
H602 H 0.32257 0.20905 0.45886 0.0
H603 H 0.32749 0.1936 0.47612 0.0
H604 H 0.35444 0.21362 0.42253 0.0
H605 H 0.35987 0.19869 0.44044 0.0
H606 H 0.36853 0.23582 0.49947 0.0
H607 H 0.3666 0.21627 0.48236 0.0
H608 H 0.33608 0.20506 0.53356 0.0
H609 H 0.3341 0.18561 0.51637 0.0
H610 H 0.37203 0.14099 0.50632 0.0
H611 H 0.36933 0.1569 0.48682 0.0
H612 H 0.33759 0.13768 0.53721 0.0
H613 H 0.33516 0.15371 0.51792 0.0
H614 H 0.32779 0.11649 0.46218 0.0
H615 H 0.33005 0.13679 0.47774 0.0
H616 H 0.36219 0.14549 0.42877 0.0
H617 H 0.36457 0.16582 0.4446 0.0
N618 N 0.34763 0.175 0.4629 0.0
N619 N 0.35053 0.17761 0.49723 0.0
C620 C 0.7816 0.14742 0.45276 0.0
C621 C 0.77329 0.1488 0.43994 0.0
C622 C 0.79014 0.15872 0.46378 0.0
C623 C 0.79045 0.17163 0.46239 0.0
C624 C 0.77357 0.16172 0.43854 0.0
C625 C 0.7822 0.1731 0.4496 0.0
C626 C 0.80017 0.18382 0.47353 0.0
C627 C 0.76597 0.15176 0.50968 0.0
C628 C 0.77149 0.14567 0.52089 0.0
C629 C 0.77532 0.16348 0.49958 0.0
C630 C 0.79033 0.16936 0.50063 0.0
C631 C 0.78652 0.15129 0.5213 0.0
C632 C 0.79583 0.16312 0.51145 0.0
C633 C 0.80051 0.18249 0.49133 0.0
C634 C 0.84811 0.24168 0.51374 0.0
C635 C 0.85531 0.23756 0.52521 0.0
C636 C 0.83684 0.23148 0.50342 0.0
C637 C 0.83263 0.21702 0.50444 0.0
C638 C 0.85072 0.22303 0.52655 0.0
C639 C 0.83946 0.21288 0.51635 0.0
C640 C 0.82127 0.20601 0.49318 0.0
C641 C 0.85878 0.23464 0.4602 0.0
C642 C 0.8558 0.24106 0.44662 0.0
C643 C 0.84753 0.22373 0.4695 0.0
C644 C 0.83306 0.21934 0.46583 0.0
C645 C 0.84134 0.23645 0.44257 0.0
C646 C 0.83005 0.22569 0.45216 0.0
C647 C 0.82111 0.20733 0.47529 0.0
H648 H 0.78153 0.13757 0.45425 0.0
H649 H 0.79674 0.15745 0.4732 0.0
H650 H 0.76739 0.16315 0.42868 0.0
H651 H 0.78246 0.18305 0.44815 0.0
H652 H 0.75449 0.14786 0.50916 0.0
H653 H 0.77088 0.16825 0.4914 0.0
H654 H 0.79116 0.14669 0.52941 0.0
H655 H 0.80739 0.16745 0.51233 0.0
H656 H 0.85141 0.2528 0.5125 0.0
H657 H 0.83154 0.23488 0.49453 0.0
H658 H 0.85587 0.2195 0.5355 0.0
H659 H 0.83633 0.20179 0.51748 0.0
H660 H 0.86981 0.23769 0.46323 0.0
H661 H 0.8502 0.21851 0.47931 0.0
H662 H 0.8388 0.24114 0.43201 0.0
H663 H 0.81896 0.22225 0.44885 0.0
N664 N 0.81046 0.19622 0.46617 0.0
N665 N 0.81102 0.1936 0.50044 0.0
C666 C 0.98417 0.53465 0.18461 0.0
C667 C 0.99192 0.5384 0.16934 0.0
C668 C 0.98539 0.52563 0.19624 0.0
C669 C 0.99479 0.52065 0.19303 0.0
C670 C 0.00109 0.53324 0.16602 0.0
C671 C 0.00254 0.52452 0.17775 0.0
C672 C 0.99597 0.51061 0.20467 0.0
C673 C 0.00858 0.54942 0.23667 0.0
C674 C 0.99986 0.54674 0.251 0.0
C675 C 0.00757 0.53811 0.22736 0.0
C676 C 0.99761 0.5239 0.23199 0.0
C677 C 0.99008 0.53253 0.25577 0.0
C678 C 0.98901 0.52123 0.24638 0.0
C679 C 0.9967 0.51178 0.22262 0.0
C680 C 0.01263 0.4689 0.24301 0.0
C681 C 0.0031 0.46179 0.25653 0.0
C682 C 0.01095 0.47833 0.2327 0.0
C683 C 0.99966 0.48079 0.23562 0.0
C684 C 0.99203 0.46459 0.25969 0.0
C685 C 0.99039 0.47407 0.24939 0.0
C686 C 0.99771 0.49058 0.22454 0.0
C687 C 0.98641 0.45236 0.19184 0.0
C688 C 0.9959 0.45554 0.17817 0.0
C689 C 0.98689 0.46334 0.20134 0.0
C690 C 0.99688 0.47769 0.19735 0.0
C691 C 0.00594 0.46991 0.17429 0.0
C692 C 0.00633 0.48087 0.18371 0.0
C693 C 0.99704 0.48946 0.20667 0.0
H694 H 0.97692 0.53839 0.18733 0.0
H695 H 0.97881 0.52238 0.20755 0.0
H696 H 0.00723 0.53606 0.15436 0.0
H697 H 0.00976 0.52075 0.17484 0.0
H698 H 0.0164 0.56026 0.23287 0.0
H699 H 0.01471 0.54047 0.21666 0.0
H700 H 0.98316 0.53013 0.26668 0.0
H701 H 0.98137 0.51037 0.25032 0.0
H702 H 0.02148 0.46728 0.24046 0.0
H703 H 0.01851 0.48373 0.22246 0.0
H704 H 0.98443 0.45922 0.26991 0.0
H705 H 0.98169 0.47593 0.25194 0.0
H706 H 0.97858 0.44138 0.19512 0.0
H707 H 0.97928 0.46062 0.2116 0.0
H708 H 0.01323 0.4727 0.16367 0.0
H709 H 0.01403 0.49187 0.18031 0.0
N710 N 0.99626 0.49952 0.19748 0.0
N711 N 0.99742 0.50164 0.23183 0.0
C712 C 0.49386 0.43113 0.17173 0.0
C713 C 0.48837 0.43558 0.15839 0.0
C714 C 0.50419 0.44111 0.18312 0.0
C715 C 0.50909 0.4557 0.18146 0.0
C716 C 0.49344 0.45021 0.15674 0.0
C717 C 0.50372 0.46014 0.16806 0.0
C718 C 0.51992 0.46659 0.1933 0.0
C719 C 0.48033 0.4407 0.22508 0.0
C720 C 0.48192 0.43293 0.23827 0.0
C721 C 0.49231 0.45088 0.21598 0.0
C722 C 0.50618 0.45351 0.2198 0.0
C723 C 0.49584 0.43551 0.24198 0.0
C724 C 0.50788 0.4458 0.23291 0.0
C725 C 0.51894 0.46524 0.21118 0.0
C726 C 0.55545 0.5249 0.23461 0.0
C727 C 0.56286 0.52384 0.24874 0.0
C728 C 0.54821 0.51357 0.22322 0.0
C729 C 0.54836 0.50097 0.22558 0.0
C730 C 0.56308 0.51125 0.25108 0.0
C731 C 0.55575 0.49984 0.23966 0.0
C732 C 0.53978 0.48868 0.21408 0.0
C733 C 0.57643 0.52218 0.18228 0.0
C734 C 0.57165 0.52813 0.16994 0.0
C735 C 0.56644 0.50984 0.19106 0.0
C736 C 0.55156 0.50321 0.18746 0.0
C737 C 0.55675 0.5215 0.16647 0.0
C738 C 0.54683 0.50909 0.17503 0.0
C739 C 0.54077 0.48999 0.19622 0.0
H740 H 0.49031 0.41996 0.17324 0.0
H741 H 0.5084 0.43745 0.19313 0.0
H742 H 0.48925 0.45401 0.14687 0.0
H743 H 0.50729 0.47131 0.16652 0.0
H744 H 0.46988 0.43933 0.22215 0.0
H745 H 0.49079 0.45703 0.2063 0.0
H746 H 0.49746 0.42966 0.25197 0.0
H747 H 0.51853 0.44782 0.23618 0.0
H748 H 0.55518 0.53451 0.23237 0.0
H749 H 0.54223 0.51456 0.21275 0.0
H750 H 0.5686 0.5101 0.26194 0.0
H751 H 0.55579 0.49011 0.24184 0.0
H752 H 0.58787 0.52709 0.18514 0.0
H753 H 0.57032 0.50537 0.20048 0.0
H754 H 0.5528 0.52574 0.15684 0.0
H755 H 0.5354 0.50411 0.17203 0.0
N756 N 0.53079 0.47893 0.18656 0.0
N757 N 0.52895 0.47631 0.22089 0.0
C758 C 0.48018 0.03089 0.23985 0.0
C759 C 0.47144 0.0187 0.24978 0.0
C760 C 0.49177 0.0321 0.23069 0.0
C761 C 0.49478 0.0211 0.23117 0.0
C762 C 0.47465 0.00784 0.25043 0.0
C763 C 0.48625 0.00908 0.24131 0.0
C764 C 0.50696 0.02216 0.2215 0.0
C765 C 0.47474 0.01745 0.1816 0.0
C766 C 0.4795 0.02949 0.17117 0.0
C767 C 0.48438 0.01649 0.19263 0.0
C768 C 0.49896 0.02758 0.19348 0.0
C769 C 0.49406 0.04067 0.1722 0.0
C770 C 0.50375 0.03964 0.18314 0.0
C771 C 0.50939 0.02606 0.20418 0.0
C772 C 0.55332 0.01184 0.18367 0.0
C773 C 0.56212 0.02349 0.17305 0.0
C774 C 0.54324 0.01217 0.19433 0.0
C775 C 0.54185 0.02419 0.19467 0.0
C776 C 0.56082 0.03558 0.17357 0.0
C777 C 0.5507 0.03587 0.18419 0.0
C778 C 0.53036 0.02416 0.20475 0.0
C779 C 0.56127 0.02345 0.24273 0.0
C780 C 0.55519 0.01097 0.25266 0.0
C781 C 0.55246 0.02645 0.2327 0.0
C782 C 0.53739 0.017 0.23233 0.0
C783 C 0.54008 0.0016 0.25234 0.0
C784 C 0.53127 0.00464 0.24237 0.0
C785 C 0.52786 0.02013 0.22204 0.0
H786 H 0.47817 0.03956 0.23931 0.0
H787 H 0.49845 0.04167 0.22333 0.0
H788 H 0.46803 0.99821 0.25773 0.0
H789 H 0.48841 0.00049 0.24193 0.0
H790 H 0.46357 0.0087 0.18112 0.0
H791 H 0.48049 0.00693 0.2002 0.0
H792 H 0.49805 0.05 0.16417 0.0
H793 H 0.515 0.04823 0.18346 0.0
H794 H 0.5541 0.0024 0.18359 0.0
H795 H 0.53627 0.00286 0.20196 0.0
H796 H 0.56728 0.04462 0.16535 0.0
H797 H 0.54967 0.04517 0.18408 0.0
H798 H 0.57283 0.03106 0.24293 0.0
H799 H 0.5574 0.03627 0.22544 0.0
H800 H 0.53503 0.99182 0.25967 0.0
H801 H 0.51966 0.99722 0.24233 0.0
N802 N 0.51622 0.01925 0.22972 0.0
N803 N 0.52106 0.02701 0.19651 0.0
C804 C 0.52906 0.98861 0.79481 0.0
C805 C 0.52622 0.97953 0.78084 0.0
C806 C 0.51772 0.98742 0.80443 0.0
C807 C 0.50332 0.97701 0.80042 0.0
C808 C 0.51179 0.96909 0.77686 0.0
C809 C 0.50043 0.96792 0.7865 0.0
C810 C 0.49126 0.97624 0.81001 0.0
C811 C 0.51573 0.96433 0.8464 0.0
C812 C 0.52071 0.97268 0.86124 0.0
C813 C 0.50581 0.96509 0.83555 0.0
C814 C 0.50105 0.97453 0.83913 0.0
C815 C 0.51567 0.98183 0.86498 0.0
C816 C 0.50598 0.98275 0.85406 0.0
C817 C 0.49057 0.9757 0.82796 0.0
C818 C 0.43419 0.97221 0.84276 0.0
C819 C 0.43876 0.98117 0.85713 0.0
C820 C 0.44428 0.97134 0.83266 0.0
C821 C 0.45913 0.97951 0.83668 0.0
C822 C 0.45363 0.98934 0.86105 0.0
C823 C 0.46368 0.98848 0.85097 0.0
C824 C 0.47 0.97827 0.8268 0.0
C825 C 0.45188 0.99721 0.79143 0.0
C826 C 0.4438 0.98823 0.77779 0.0
C827 C 0.46061 0.99416 0.80151 0.0
C828 C 0.4614 0.98202 0.79824 0.0
C829 C 0.44486 0.97624 0.77433 0.0
C830 C 0.45367 0.97323 0.7844 0.0
C831 C 0.47068 0.97881 0.80889 0.0
H832 H 0.54007 0.99671 0.79826 0.0
H833 H 0.5202 0.99479 0.81486 0.0
H834 H 0.50927 0.96207 0.76605 0.0
H835 H 0.48937 0.95996 0.78305 0.0
H836 H 0.51934 0.95708 0.84333 0.0
H837 H 0.50181 0.95822 0.82449 0.0
H838 H 0.51944 0.9885 0.87624 0.0
H839 H 0.50245 0.99005 0.85721 0.0
H840 H 0.42282 0.9658 0.83938 0.0
H841 H 0.44045 0.96408 0.82194 0.0
H842 H 0.45751 0.99611 0.87221 0.0
H843 H 0.47505 0.99478 0.85442 0.0
H844 H 0.45161 0.00672 0.79422 0.0
H845 H 0.46684 0.00136 0.81181 0.0
H846 H 0.43871 0.96903 0.76402 0.0
H847 H 0.45425 0.96389 0.78156 0.0
N848 N 0.48122 0.97767 0.80117 0.0
N849 N 0.47998 0.97678 0.83558 0.0
C850 C 0.98953 0.53687 0.78286 0.0
C851 C 0.99849 0.54376 0.76883 0.0
C852 C 0.99168 0.52768 0.79304 0.0
C853 C 0.00289 0.52523 0.78949 0.0
C854 C 0.00956 0.54108 0.76515 0.0
C855 C 0.01166 0.53183 0.77532 0.0
C856 C 0.00515 0.51542 0.80019 0.0
C857 C 0.0175 0.55346 0.83373 0.0
C858 C 0.00853 0.55032 0.84792 0.0
C859 C 0.01651 0.54245 0.82377 0.0
C860 C 0.00652 0.52812 0.8278 0.0
C861 C 0.99845 0.53596 0.85182 0.0
C862 C 0.99754 0.52497 0.84193 0.0
C863 C 0.00602 0.51634 0.8181 0.0
C864 C 0.02158 0.47321 0.83852 0.0
C865 C 0.01196 0.46653 0.85208 0.0
C866 C 0.02005 0.48248 0.82767 0.0
C867 C 0.00891 0.48525 0.83024 0.0
C868 C 0.00088 0.46939 0.85463 0.0
C869 C 0.99946 0.47875 0.84391 0.0
C870 C 0.00736 0.49535 0.81927 0.0
C871 C 0.99573 0.45706 0.78731 0.0
C872 C 0.00428 0.45988 0.77276 0.0
C873 C 0.99639 0.46822 0.79656 0.0
C874 C 0.00586 0.48249 0.79173 0.0
C875 C 0.01351 0.47416 0.76774 0.0
C876 C 0.01425 0.48533 0.7771 0.0
C877 C 0.00653 0.49442 0.80133 0.0
H878 H 0.98068 0.5384 0.78585 0.0
H879 H 0.98447 0.52237 0.80361 0.0
H880 H 0.01675 0.54629 0.75455 0.0
H881 H 0.0203 0.52999 0.77227 0.0
H882 H 0.02535 0.56442 0.8304 0.0
H883 H 0.02378 0.54515 0.81314 0.0
H884 H 0.99154 0.5332 0.86282 0.0
H885 H 0.98986 0.51399 0.84538 0.0
H886 H 0.03021 0.47119 0.83627 0.0
H887 H 0.02764 0.48759 0.81738 0.0
H888 H 0.99345 0.46457 0.86513 0.0
H889 H 0.99089 0.48085 0.84623 0.0
H890 H 0.98858 0.44622 0.79165 0.0
H891 H 0.98939 0.46565 0.80743 0.0
H892 H 0.02003 0.47673 0.75642 0.0
H893 H 0.02144 0.49623 0.77294 0.0
N894 N 0.00554 0.50456 0.79248 0.0
N895 N 0.00699 0.50622 0.82693 0.0
C896 C 0.51653 0.57835 0.78564 0.0
C897 C 0.52356 0.57389 0.77457 0.0
C898 C 0.50413 0.5683 0.79439 0.0
C899 C 0.49861 0.55363 0.79232 0.0
C900 C 0.51773 0.55917 0.77222 0.0
C901 C 0.50535 0.54917 0.7809 0.0
C902 C 0.4859 0.54275 0.80195 0.0
C903 C 0.52094 0.56556 0.84157 0.0
C904 C 0.5177 0.57209 0.85469 0.0
C905 C 0.5103 0.55664 0.82983 0.0
C906 C 0.49625 0.55423 0.83077 0.0
C907 C 0.50372 0.56992 0.85541 0.0
C908 C 0.49306 0.56098 0.84362 0.0
C909 C 0.48452 0.54342 0.81971 0.0
C910 C 0.43921 0.48419 0.83828 0.0
C911 C 0.43201 0.48687 0.85115 0.0
C912 C 0.44872 0.49513 0.82741 0.0
C913 C 0.45099 0.50891 0.82896 0.0
C914 C 0.43418 0.50063 0.85255 0.0
C915 C 0.44363 0.51155 0.84161 0.0
C916 C 0.46221 0.52093 0.81881 0.0
C917 C 0.42875 0.48974 0.78199 0.0
C918 C 0.43416 0.48369 0.77078 0.0
C919 C 0.43823 0.50179 0.79167 0.0
C920 C 0.45328 0.5079 0.79045 0.0
C921 C 0.44924 0.49012 0.76927 0.0
C922 C 0.45867 0.50213 0.77892 0.0
C923 C 0.4636 0.52026 0.80104 0.0
H924 H 0.52061 0.58959 0.78754 0.0
H925 H 0.49891 0.572 0.80282 0.0
H926 H 0.52296 0.55533 0.76402 0.0
H927 H 0.50127 0.53791 0.77908 0.0
H928 H 0.53163 0.56708 0.8406 0.0
H929 H 0.51296 0.55122 0.8204 0.0
H930 H 0.50084 0.57465 0.86549 0.0
H931 H 0.48223 0.55909 0.84476 0.0
H932 H 0.43799 0.47379 0.83709 0.0
H933 H 0.45467 0.49292 0.8182 0.0
H934 H 0.42871 0.503 0.86227 0.0
H935 H 0.44536 0.52213 0.84319 0.0
H936 H 0.4172 0.48517 0.78326 0.0
H937 H 0.43381 0.50628 0.80016 0.0
H938 H 0.45379 0.48564 0.76098 0.0
H939 H 0.47024 0.50667 0.77772 0.0
N940 N 0.47542 0.53117 0.79336 0.0
N941 N 0.47268 0.53254 0.82739 0.0
C942 C 0.65828 0.78995 0.52499 0.0
C943 C 0.64731 0.7839 0.51254 0.0
C944 C 0.65955 0.8007 0.53572 0.0
C945 C 0.64956 0.80521 0.53457 0.0
C946 C 0.63742 0.78848 0.51127 0.0
C947 C 0.63851 0.79898 0.52221 0.0
C948 C 0.65118 0.81726 0.5449 0.0
C949 C 0.64775 0.78477 0.58289 0.0
C950 C 0.66013 0.7898 0.5933 0.0
C951 C 0.64587 0.79425 0.57286 0.0
C952 C 0.65643 0.8089 0.57289 0.0
C953 C 0.67053 0.80451 0.59349 0.0
C954 C 0.66865 0.81395 0.58346 0.0
C955 C 0.6547 0.81917 0.56244 0.0
C956 C 0.64719 0.86812 0.58083 0.0
C957 C 0.65945 0.87623 0.59124 0.0
C958 C 0.64568 0.85668 0.57133 0.0
C959 C 0.6564 0.85313 0.57206 0.0
C960 C 0.67007 0.87253 0.59212 0.0
C961 C 0.66849 0.86101 0.58273 0.0
C962 C 0.65494 0.84105 0.56206 0.0
C963 C 0.6626 0.87466 0.52357 0.0
C964 C 0.6518 0.87046 0.51099 0.0
C965 C 0.66242 0.86464 0.53471 0.0
C966 C 0.65126 0.85022 0.53377 0.0
C967 C 0.64056 0.85604 0.51016 0.0
C968 C 0.64034 0.84602 0.52139 0.0
C969 C 0.65165 0.83928 0.54449 0.0
H970 H 0.66616 0.78673 0.52599 0.0
H971 H 0.66859 0.80571 0.54457 0.0
H972 H 0.62888 0.78395 0.50175 0.0
H973 H 0.63077 0.80236 0.52088 0.0
H974 H 0.63942 0.77354 0.58268 0.0
H975 H 0.63615 0.79014 0.56516 0.0
H976 H 0.68026 0.80873 0.60119 0.0
H977 H 0.67689 0.82522 0.58377 0.0
H978 H 0.63886 0.87075 0.57985 0.0
H979 H 0.63611 0.85057 0.56345 0.0
H980 H 0.67954 0.87847 0.60021 0.0
H981 H 0.67682 0.85837 0.58361 0.0
H982 H 0.67135 0.88569 0.52468 0.0
H983 H 0.67126 0.86813 0.54372 0.0
H984 H 0.6322 0.85238 0.50047 0.0
H985 H 0.63174 0.83493 0.52024 0.0
N986 N 0.64978 0.82741 0.53669 0.0
N987 N 0.65648 0.83101 0.57029 0.0
C988 C 0.15385 0.76704 0.51591 0.0
C989 C 0.14752 0.77141 0.50353 0.0
C990 C 0.16446 0.77705 0.52703 0.0
C991 C 0.16888 0.79155 0.5259 0.0
C992 C 0.15235 0.78599 0.50209 0.0
C993 C 0.16297 0.79595 0.51309 0.0
C994 C 0.17949 0.80233 0.53799 0.0
C995 C 0.13967 0.7737 0.568 0.0
C996 C 0.14162 0.7671 0.58222 0.0
C997 C 0.15158 0.78448 0.55936 0.0
C998 C 0.16573 0.7886 0.56439 0.0
C999 C 0.15575 0.77138 0.58751 0.0
C1000 C 0.16771 0.78203 0.57864 0.0
C1001 C 0.17839 0.80066 0.55587 0.0
C1002 C 0.21678 0.85988 0.58109 0.0
C1003 C 0.22462 0.85826 0.59433 0.0
C1004 C 0.20871 0.84879 0.56962 0.0
C1005 C 0.20839 0.83588 0.57102 0.0
C1006 C 0.22428 0.84532 0.59576 0.0
C1007 C 0.2161 0.83416 0.58428 0.0
C1008 C 0.19935 0.824 0.55921 0.0
C1009 C 0.23603 0.85787 0.52768 0.0
C1010 C 0.23132 0.86419 0.51576 0.0
C1011 C 0.22598 0.84544 0.53627 0.0
C1012 C 0.21109 0.83909 0.53293 0.0
C1013 C 0.21641 0.85785 0.51258 0.0
C1014 C 0.20641 0.84536 0.52098 0.0
C1015 C 0.20026 0.82571 0.5414 0.0
H1016 H 0.15035 0.75587 0.51726 0.0
H1017 H 0.16909 0.77345 0.53662 0.0
H1018 H 0.14786 0.7897 0.49246 0.0
H1019 H 0.16629 0.80708 0.51186 0.0
H1020 H 0.1289 0.7709 0.56395 0.0
H1021 H 0.14967 0.78985 0.54903 0.0
H1022 H 0.15753 0.76653 0.59853 0.0
H1023 H 0.17852 0.78524 0.58298 0.0
H1024 H 0.21693 0.86976 0.57956 0.0
H1025 H 0.20255 0.85024 0.55976 0.0
H1026 H 0.23011 0.84373 0.60593 0.0
H1027 H 0.21583 0.8242 0.58571 0.0
H1028 H 0.24747 0.86254 0.53032 0.0
H1029 H 0.22984 0.84067 0.5453 0.0
H1030 H 0.21249 0.86236 0.50327 0.0
H1031 H 0.19498 0.8406 0.51817 0.0
N1032 N 0.1903 0.81483 0.53151 0.0
N1033 N 0.18848 0.81153 0.56577 0.0
C1034 C 0.23503 0.36638 0.5152 0.0
C1035 C 0.2299 0.35711 0.50112 0.0
C1036 C 0.22532 0.36731 0.52597 0.0
C1037 C 0.21032 0.35882 0.52295 0.0
C1038 C 0.21488 0.34848 0.49835 0.0
C1039 C 0.20522 0.34938 0.5091 0.0
C1040 C 0.19981 0.36034 0.53326 0.0
C1041 C 0.21927 0.34293 0.56906 0.0
C1042 C 0.22689 0.3518 0.58297 0.0
C1043 C 0.21068 0.34593 0.55864 0.0
C1044 C 0.20967 0.35797 0.56173 0.0
C1045 C 0.22577 0.36379 0.58613 0.0
C1046 C 0.21715 0.36678 0.57568 0.0
C1047 C 0.20001 0.36077 0.55121 0.0
C1048 C 0.14236 0.35141 0.56826 0.0
C1049 C 0.1458 0.3611 0.5817 0.0
C1050 C 0.15323 0.35232 0.55795 0.0
C1051 C 0.16776 0.36303 0.56076 0.0
C1052 C 0.16034 0.37192 0.58439 0.0
C1053 C 0.17124 0.37279 0.5741 0.0
C1054 C 0.17937 0.36327 0.55073 0.0
C1055 C 0.15421 0.37387 0.51339 0.0
C1056 C 0.14757 0.36382 0.50017 0.0
C1057 C 0.16435 0.3735 0.52423 0.0
C1058 C 0.16795 0.36302 0.52209 0.0
C1059 C 0.15116 0.35331 0.49822 0.0
C1060 C 0.16129 0.35298 0.50897 0.0
C1061 C 0.17908 0.36266 0.5328 0.0
H1062 H 0.24655 0.37329 0.51753 0.0
H1063 H 0.22956 0.37494 0.53632 0.0
H1064 H 0.21058 0.34107 0.48777 0.0
H1065 H 0.19371 0.34272 0.5065 0.0
H1066 H 0.21997 0.33367 0.56619 0.0
H1067 H 0.20466 0.33869 0.54829 0.0
H1068 H 0.23133 0.37072 0.59688 0.0
H1069 H 0.21633 0.37599 0.57847 0.0
H1070 H 0.13125 0.34301 0.56581 0.0
H1071 H 0.15029 0.34443 0.54804 0.0
H1072 H 0.16331 0.37944 0.59477 0.0
H1073 H 0.18242 0.38101 0.57662 0.0
H1074 H 0.15181 0.3822 0.51513 0.0
H1075 H 0.16958 0.38156 0.53404 0.0
H1076 H 0.14605 0.34521 0.48843 0.0
H1077 H 0.16386 0.34478 0.50708 0.0
N1078 N 0.18931 0.36122 0.52482 0.0
N1079 N 0.18985 0.36236 0.55924 0.0
H1080 H 0.9614 0.36623 0.06003 0.0
H1081 H 0.96498 0.37976 0.0861 0.0
H1082 H 0.00931 0.39042 0.08908 0.0
H1083 H 0.00589 0.37692 0.06294 0.0
H1084 H 0.97595 0.37822 0.12033 0.0
H1085 H 0.01075 0.42937 0.08598 0.0
H1086 H 0.99892 0.4128 0.07497 0.0
H1087 H 0.01555 0.41602 0.08433 0.0
C1088 C 0.97188 0.3713 0.06631 0.0
C1089 C 0.98341 0.37062 0.05928 0.0
C1090 C 0.97388 0.37899 0.08124 0.0
C1091 C 0.98744 0.3862 0.08936 0.0
C1092 C 0.9988 0.38503 0.08287 0.0
H1093 H 0.01815 0.45298 0.16646 0.0
H1094 H 0.01664 0.43508 0.14668 0.0
C1095 C 0.9968 0.37728 0.06796 0.0
C1096 C 0.98989 0.39573 0.10391 0.0
H1097 H 0.00639 0.43091 0.1148 0.0
C1098 C 0.98268 0.38974 0.11922 0.0
C1099 C 0.9987 0.41073 0.10236 0.0
C1100 C 0.00638 0.4177 0.08602 0.0
C1101 C 0.984 0.39841 0.13306 0.0
C1102 C 0.99247 0.41345 0.13133 0.0
C1103 C -8e-05 0.41938 0.11612 0.0
C1104 C 0.99325 0.42331 0.14473 0.0
C1105 C 0.9764 0.39137 0.14939 0.0
C1106 C 0.9806 0.4226 0.1503 0.0
C1107 C 0.98144 0.43278 0.16164 0.0
C1108 C 0.99496 0.44399 0.16744 0.0
C1109 C 0.0076 0.44453 0.1621 0.0
C1110 C 0.00674 0.43429 0.15085 0.0
H1111 H 0.97454 0.38045 0.15056 0.0
H1112 H 0.98271 0.39774 0.16064 0.0
H1113 H 0.96567 0.3904 0.14951 0.0
H1114 H 0.9701 0.41449 0.14539 0.0
H1115 H 0.97154 0.43222 0.16531 0.0
H1116 H 0.6436 0.59785 0.04448 0.0
H1117 H 0.63408 0.58557 0.07151 0.0
H1118 H 0.62413 0.61728 0.08617 0.0
H1119 H 0.6337 0.62974 0.05914 0.0
H1120 H 0.64109 0.59751 0.1084 0.0
H1121 H 0.58474 0.57612 0.08464 0.0
H1122 H 0.59984 0.58236 0.07037 0.0
H1123 H 0.59766 0.59495 0.0824 0.0
C1124 C 0.63955 0.60233 0.05351 0.0
C1125 C 0.63928 0.61471 0.04958 0.0
C1126 C 0.63418 0.59533 0.06897 0.0
C1127 C 0.62836 0.60051 0.08071 0.0
C1128 C 0.62857 0.61314 0.07718 0.0
H1129 H 0.57081 0.55213 0.16379 0.0
H1130 H 0.58615 0.5717 0.14443 0.0
C1131 C 0.63404 0.62022 0.06175 0.0
C1132 C 0.62104 0.59199 0.09598 0.0
H1133 H 0.58748 0.56854 0.11149 0.0
C1134 C 0.62938 0.59126 0.10922 0.0
C1135 C 0.60578 0.58393 0.09693 0.0
C1136 C 0.59639 0.58424 0.08284 0.0
C1137 C 0.62279 0.5825 0.12344 0.0
C1138 C 0.60749 0.57401 0.12412 0.0
C1139 C 0.5992 0.57506 0.111 0.0
C1140 C 0.59971 0.56338 0.13774 0.0
C1141 C 0.63229 0.58252 0.13759 0.0
C1142 C 0.60239 0.55232 0.14066 0.0
C1143 C 0.59372 0.54122 0.15185 0.0
C1144 C 0.58207 0.54085 0.16005 0.0
C1145 C 0.57968 0.55214 0.15753 0.0
C1146 C 0.58845 0.56331 0.14652 0.0
H1147 H 0.6429 0.59276 0.13802 0.0
H1148 H 0.62701 0.58075 0.15014 0.0
H1149 H 0.63445 0.57383 0.13534 0.0
H1150 H 0.61074 0.55189 0.1337 0.0
H1151 H 0.59566 0.53254 0.1534 0.0
H1152 H 0.37261 0.98783 0.08127 0.0
H1153 H 0.39249 0.99866 0.10184 0.0
H1154 H 0.41185 0.0385 0.07453 0.0
H1155 H 0.39175 0.02771 0.05379 0.0
H1156 H 0.43024 0.02655 0.08113 0.0
H1157 H 0.40355 0.02973 0.13928 0.0
H1158 H 0.39344 0.01295 0.12829 0.0
H1159 H 0.39646 0.02897 0.11815 0.0
C1160 C 0.38097 0.99896 0.07974 0.0
C1161 C 0.38064 0.00691 0.06587 0.0
C1162 C 0.39227 0.00516 0.09158 0.0
C1163 C 0.40354 0.01941 0.08979 0.0
C1164 C 0.40315 0.02752 0.07618 0.0
H1165 H 0.47511 0.05156 0.16504 0.0
H1166 H 0.45797 0.05198 0.14464 0.0
C1167 C 0.39168 0.02135 0.06439 0.0
C1168 C 0.41625 0.02514 0.10131 0.0
H1169 H 0.42544 0.0294 0.14344 0.0
C1170 C 0.42933 0.02753 0.09471 0.0
C1171 C 0.41504 0.02644 0.119 0.0
C1172 C 0.4014 0.02452 0.12662 0.0
C1173 C 0.44089 0.03021 0.10549 0.0
C1174 C 0.43927 0.03047 0.12326 0.0
C1175 C 0.42659 0.02908 0.12979 0.0
C1176 C 0.44993 0.03061 0.13524 0.0
C1177 C 0.45453 0.03214 0.0979 0.0
C1178 C 0.45094 0.01843 0.13673 0.0
C1179 C 0.46055 0.01811 0.14839 0.0
C1180 C 0.46941 0.03002 0.15875 0.0
C1181 C 0.46847 0.04228 0.15714 0.0
C1182 C 0.45869 0.04252 0.14556 0.0
H1183 H 0.45544 0.03492 0.08419 0.0
H1184 H 0.46425 0.04062 0.10474 0.0
H1185 H 0.45444 0.02202 0.09917 0.0
H1186 H 0.44417 0.00909 0.12895 0.0
H1187 H 0.46114 0.00858 0.14923 0.0
H1188 H 0.36592 0.00101 0.97124 0.0
H1189 H 0.37726 0.00021 0.94482 0.0
H1190 H 0.37435 0.96131 0.9613 0.0
H1191 H 0.36304 0.96198 0.98771 0.0
H1192 H 0.40268 0.98414 0.95154 0.0
H1193 H 0.36041 0.97277 0.90279 0.0
H1194 H 0.36456 0.98684 0.91767 0.0
H1195 H 0.35629 0.96878 0.92506 0.0
C1196 C 0.3675 0.99217 0.96915 0.0
C1197 C 0.36362 0.98159 0.98163 0.0
C1198 C 0.37392 0.9917 0.95401 0.0
C1199 C 0.37652 0.98064 0.9511 0.0
C1200 C 0.37235 0.96989 0.96331 0.0
H1201 H 0.41271 0.95864 0.86772 0.0
H1202 H 0.39674 0.9589 0.88935 0.0
C1203 C 0.3659 0.97031 0.9784 0.0
C1204 C 0.38472 0.98089 0.93604 0.0
H1205 H 0.38332 0.97812 0.89273 0.0
C1206 C 0.39845 0.98281 0.93869 0.0
C1207 C 0.37911 0.97911 0.91933 0.0
C1208 C 0.36424 0.97665 0.91593 0.0
C1209 C 0.40681 0.98311 0.92503 0.0
C1210 C 0.4013 0.9815 0.90831 0.0
C1211 C 0.38751 0.97945 0.90561 0.0
C1212 C 0.40976 0.98169 0.8936 0.0
C1213 C 0.42144 0.985 0.92853 0.0
C1214 C 0.42211 0.99449 0.88857 0.0
C1215 C 0.4312 0.99441 0.87616 0.0
C1216 C 0.42813 0.9815 0.86862 0.0
C1217 C 0.41534 0.96878 0.87315 0.0
C1218 C 0.40622 0.96889 0.88554 0.0
H1219 H 0.4232 0.98397 0.94227 0.0
H1220 H 0.42262 0.97699 0.92133 0.0
H1221 H 0.43005 0.99576 0.92424 0.0
H1222 H 0.42494 0.00448 0.89463 0.0
H1223 H 0.44082 0.00442 0.87274 0.0
H1224 H 0.01753 0.38241 0.96738 0.0
H1225 H 0.02619 0.39936 0.94349 0.0
H1226 H 0.9909 0.40627 0.95091 0.0
H1227 H 0.98214 0.38941 0.97445 0.0
H1228 H 0.00725 0.39673 0.91293 0.0
H1229 H 0.0296 0.44721 0.94943 0.0
H1230 H 0.02773 0.43115 0.95841 0.0
H1231 H 0.01221 0.43296 0.95644 0.0
C1232 C 0.01171 0.38765 0.96398 0.0
C1233 C 0.99914 0.38455 0.97278 0.0
C1234 C 0.01665 0.39728 0.95034 0.0
C1235 C 0.00923 0.40412 0.94559 0.0
C1236 C 0.99685 0.4012 0.95452 0.0
H1237 H 0.99071 0.44042 0.86336 0.0
H1238 H 0.99281 0.42533 0.88467 0.0
C1239 C 0.99182 0.3915 0.96793 0.0
C1240 C 0.01379 0.41386 0.93084 0.0
H1241 H 0.02366 0.4479 0.92018 0.0
C1242 C 0.01116 0.40799 0.91445 0.0
C1243 C 0.01898 0.42855 0.93289 0.0
C1244 C 0.02243 0.43542 0.95023 0.0
C1245 C 0.01265 0.41627 0.90008 0.0
C1246 C 0.01678 0.4307 0.90225 0.0
C1247 C 0.0204 0.4368 0.91855 0.0
C1248 C 0.01597 0.43923 0.88814 0.0
C1249 C 0.00936 0.4094 0.88274 0.0
C1250 C 0.02829 0.45209 0.88309 0.0
C1251 C 0.0271 0.46076 0.8709 0.0
C1252 C 0.01353 0.4568 0.86381 0.0
C1253 C 0.00128 0.44378 0.86869 0.0
C1254 C 0.00249 0.43509 0.88073 0.0
H1255 H 0.01063 0.39999 0.88262 0.0
H1256 H 0.99798 0.40569 0.87923 0.0
H1257 H 0.01653 0.41712 0.87296 0.0
H1258 H 0.03875 0.45553 0.8888 0.0
H1259 H 0.0367 0.4708 0.86749 0.0
H1260 H 0.61609 0.64362 0.97304 0.0
H1261 H 0.59578 0.63733 0.95342 0.0
H1262 H 0.59218 0.5971 0.94275 0.0
H1263 H 0.61222 0.60317 0.96212 0.0
H1264 H 0.59359 0.62948 0.91743 0.0
H1265 H 0.55069 0.58624 0.95642 0.0
H1266 H 0.56791 0.59987 0.96525 0.0
H1267 H 0.56637 0.58479 0.95424 0.0
C1268 C 0.61092 0.63342 0.96655 0.0
C1269 C 0.61575 0.62388 0.96921 0.0
C1270 C 0.59935 0.62986 0.95536 0.0
C1271 C 0.59237 0.61666 0.94688 0.0
C1272 C 0.59726 0.60723 0.94942 0.0
H1273 H 0.53533 0.56484 0.87079 0.0
H1274 H 0.55284 0.57768 0.89355 0.0
C1275 C 0.60879 0.61077 0.96046 0.0
C1276 C 0.5802 0.61263 0.93491 0.0
H1277 H 0.54566 0.5855 0.92645 0.0
C1278 C 0.58297 0.62008 0.91951 0.0
C1279 C 0.56638 0.6004 0.93774 0.0
C1280 C 0.56258 0.59243 0.95439 0.0
C1281 C 0.57257 0.61496 0.90636 0.0
C1282 C 0.55911 0.60219 0.90882 0.0
C1283 C 0.55604 0.59526 0.92459 0.0
C1284 C 0.54872 0.59493 0.89467 0.0
C1285 C 0.57632 0.6227 0.88957 0.0
C1286 C 0.5406 0.60041 0.88779 0.0
C1287 C 0.53057 0.59309 0.87468 0.0
C1288 C 0.52857 0.58023 0.86825 0.0
C1289 C 0.53679 0.57485 0.87522 0.0
C1290 C 0.54672 0.58211 0.88831 0.0
H1291 H 0.58771 0.63182 0.88925 0.0
H1292 H 0.57461 0.61521 0.87909 0.0
H1293 H 0.56905 0.62684 0.88717 0.0
H1294 H 0.54192 0.61024 0.89266 0.0
H1295 H 0.52442 0.59751 0.86953 0.0
H1296 H 0.00289 0.63168 0.96273 0.0
H1297 H 0.999 0.61713 0.93744 0.0
H1298 H 0.04336 0.62786 0.94004 0.0
H1299 H 0.04741 0.64243 0.96532 0.0
H1300 H 0.03157 0.62853 0.90565 0.0
H1301 H 0.99788 0.57825 0.94202 0.0
H1302 H 0.99312 0.59164 0.94358 0.0
H1303 H 0.01002 0.59511 0.95233 0.0
C1304 C 0.01189 0.63109 0.95783 0.0
C1305 C 0.02544 0.63813 0.96615 0.0
C1306 C 0.00962 0.62274 0.94341 0.0
C1307 C 0.02086 0.62132 0.93704 0.0
C1308 C 0.03455 0.62881 0.94483 0.0
H1309 H 0.03355 0.57337 0.86 0.0
H1310 H 0.03609 0.59134 0.88031 0.0
C1311 C 0.03683 0.63711 0.95929 0.0
C1312 C 0.01816 0.61143 0.92282 0.0
H1313 H 0.00119 0.576 0.913 0.0
C1314 C 0.02488 0.61704 0.90718 0.0
C1315 C 0.00941 0.59648 0.92491 0.0
C1316 C 0.00223 0.58993 0.94162 0.0
C1317 C 0.02304 0.60804 0.89348 0.0
C1318 C 0.01455 0.59305 0.89569 0.0
C1319 C 0.00767 0.58748 0.9113 0.0
C1320 C 0.01307 0.58286 0.8823 0.0
C1321 C 0.03006 0.61469 0.87675 0.0
C1322 C 0.99927 0.57196 0.87685 0.0
C1323 C 0.99779 0.56158 0.86537 0.0
C1324 C 0.01008 0.5619 0.85912 0.0
C1325 C 0.02389 0.57298 0.86436 0.0
C1326 C 0.02536 0.5833 0.87593 0.0
H1327 H 0.03206 0.62566 0.87548 0.0
H1328 H 0.04067 0.61545 0.87605 0.0
H1329 H 0.02325 0.60815 0.86586 0.0
H1330 H 0.98964 0.57138 0.88166 0.0
H1331 H 0.98702 0.55324 0.86147 0.0
H1332 H 0.37087 0.38357 0.96174 0.0
H1333 H 0.38104 0.39721 0.93549 0.0
H1334 H 0.37407 0.43003 0.95406 0.0
H1335 H 0.36391 0.41656 0.98021 0.0
H1336 H 0.36597 0.42165 0.91847 0.0
H1337 H 0.42179 0.43517 0.9357 0.0
H1338 H 0.4077 0.41659 0.93601 0.0
H1339 H 0.40748 0.42867 0.95113 0.0
C1340 C 0.37138 0.39362 0.96017 0.0
C1341 C 0.3667 0.39903 0.97314 0.0
C1342 C 0.37722 0.40141 0.94519 0.0
C1343 C 0.37841 0.41467 0.94296 0.0
C1344 C 0.37325 0.41982 0.95558 0.0
H1345 H 0.43185 0.48978 0.88553 0.0
H1346 H 0.41798 0.47117 0.90651 0.0
C1347 C 0.3675 0.41211 0.97055 0.0
C1348 C 0.38566 0.42363 0.92791 0.0
H1349 H 0.41901 0.44506 0.91048 0.0
C1350 C 0.37753 0.42664 0.91655 0.0
C1351 C 0.40077 0.43021 0.92563 0.0
C1352 C 0.41003 0.42763 0.93778 0.0
C1353 C 0.38419 0.43629 0.90308 0.0
C1354 C 0.39932 0.44302 0.90098 0.0
C1355 C 0.40739 0.4398 0.91214 0.0
C1356 C 0.40716 0.45419 0.888 0.0
C1357 C 0.37514 0.43965 0.89158 0.0
C1358 C 0.40561 0.45077 0.87065 0.0
C1359 C 0.41351 0.4614 0.8586 0.0
C1360 C 0.42304 0.47563 0.86373 0.0
C1361 C 0.42443 0.47899 0.88114 0.0
C1362 C 0.4166 0.46836 0.89315 0.0
H1363 H 0.36392 0.43501 0.89632 0.0
H1364 H 0.3802 0.45139 0.89031 0.0
H1365 H 0.37456 0.43525 0.87872 0.0
H1366 H 0.39845 0.43985 0.86646 0.0
H1367 H 0.41217 0.45851 0.84527 0.0
H1368 H 0.61135 0.97892 0.97584 0.0
H1369 H 0.59167 0.97028 0.95477 0.0
H1370 H 0.61452 0.01097 0.9292 0.0
H1371 H 0.63389 0.01975 0.95035 0.0
H1372 H 0.58745 0.00347 0.93657 0.0
H1373 H 0.58692 0.95796 0.90534 0.0
H1374 H 0.58583 0.95676 0.9281 0.0
H1375 H 0.60193 0.97087 0.91829 0.0
C1376 C 0.61227 0.98591 0.96553 0.0
C1377 C 0.6241 5e-05 0.96483 0.0
C1378 C 0.60106 0.98094 0.95345 0.0
C1379 C 0.60166 0.98995 0.94033 0.0
C1380 C 0.6138 0.00383 0.93922 0.0
H1381 H 0.54609 0.97457 0.85276 0.0
H1382 H 0.56521 0.97725 0.87224 0.0
C1383 C 0.62487 0.00884 0.95135 0.0
C1384 C 0.58913 0.98561 0.92874 0.0
H1385 H 0.56718 0.96105 0.89889 0.0
C1386 C 0.58305 0.9942 0.92832 0.0
C1387 C 0.58345 0.97358 0.91789 0.0
C1388 C 0.58993 0.96432 0.91726 0.0
C1389 C 0.57153 0.99116 0.91734 0.0
C1390 C 0.56558 0.97893 0.9068 0.0
C1391 C 0.57166 0.97032 0.90713 0.0
C1392 C 0.55331 0.97525 0.89508 0.0
C1393 C 0.56609 0.00134 0.91684 0.0
C1394 C 0.54011 0.97271 0.90148 0.0
C1395 C 0.52929 0.97132 0.89042 0.0
C1396 C 0.53138 0.97223 0.87276 0.0
C1397 C 0.54421 0.97381 0.86633 0.0
C1398 C 0.55512 0.97534 0.87742 0.0
H1399 H 0.57416 0.01195 0.92222 0.0
H1400 H 0.56346 0.00286 0.90363 0.0
H1401 H 0.5561 0.99688 0.92451 0.0
H1402 H 0.53838 0.97228 0.91506 0.0
H1403 H 0.5194 0.96987 0.8957 0.0
H1404 H 0.6413 0.04277 0.04482 0.0
H1405 H 0.629 0.04315 0.07047 0.0
H1406 H 0.62171 0.00201 0.08499 0.0
H1407 H 0.63407 0.00151 0.05933 0.0
H1408 H 0.5997 0.02199 0.07775 0.0
H1409 H 0.63762 0.02662 0.12903 0.0
H1410 H 0.64317 0.03127 0.1072 0.0
H1411 H 0.63292 0.01286 0.11348 0.0
C1412 C 0.63727 0.03387 0.05355 0.0
C1413 C 0.63864 0.02208 0.04998 0.0
C1414 C 0.63023 0.03412 0.06821 0.0
C1415 C 0.62455 0.02267 0.07966 0.0
C1416 C 0.62622 0.01105 0.07642 0.0
H1417 H 0.55657 0.00103 0.15272 0.0
H1418 H 0.57215 0.00043 0.13083 0.0
C1419 C 0.63323 0.01076 0.06171 0.0
C1420 C 0.61591 0.02246 0.09425 0.0
H1421 H 0.61489 0.02274 0.13763 0.0
C1422 C 0.60302 0.02216 0.09084 0.0
C1423 C 0.62034 0.02276 0.11129 0.0
C1424 C 0.63432 0.02351 0.11557 0.0
C1425 C 0.59435 0.02206 0.10403 0.0
C1426 C 0.59864 0.02214 0.12106 0.0
C1427 C 0.61161 0.02257 0.12452 0.0
C1428 C 0.58984 0.02205 0.13537 0.0
C1429 C 0.58075 0.02206 0.09967 0.0
C1430 C 0.59483 0.03428 0.14544 0.0
C1431 C 0.58597 0.03466 0.15798 0.0
C1432 C 0.57203 0.02276 0.16074 0.0
C1433 C 0.5673 0.01033 0.15101 0.0
C1434 C 0.57614 0.00999 0.13844 0.0
H1435 H 0.58042 0.02474 0.0861 0.0
H1436 H 0.57117 0.0113 0.10211 0.0
H1437 H 0.57984 0.02983 0.10774 0.0
H1438 H 0.60541 0.04367 0.14326 0.0
H1439 H 0.58997 0.04432 0.1654 0.0
H1440 H 0.03526 0.6377 0.06414 0.0
H1441 H 0.02743 0.61996 0.08669 0.0
H1442 H 0.98308 0.60097 0.06989 0.0
H1443 H 0.99082 0.61904 0.0474 0.0
H1444 H 0.98591 0.60191 0.10524 0.0
H1445 H 0.01584 0.57912 0.07616 0.0
H1446 H 0.02731 0.59785 0.08047 0.0
H1447 H 0.01276 0.59177 0.0652 0.0
C1448 C 0.02381 0.62982 0.06527 0.0
C1449 C 0.01368 0.62964 0.05382 0.0
C1450 C 0.01937 0.61965 0.07815 0.0
C1451 C 0.00473 0.60893 0.07968 0.0
C1452 C 0.99446 0.60909 0.06881 0.0
H1453 H 0.98463 0.53257 0.13598 0.0
H1454 H 0.98499 0.54871 0.1142 0.0
C1455 C 0.99889 0.61941 0.05598 0.0
C1456 C 0.0004 0.59728 0.09221 0.0
H1457 H 0.00788 0.57201 0.1046 0.0
C1458 C 0.99058 0.59525 0.10505 0.0
C1459 C 0.00625 0.5884 0.09171 0.0
C1460 C 0.016 0.58927 0.07754 0.0
C1461 C 0.98689 0.58491 0.11779 0.0
C1462 C 0.99348 0.57665 0.11787 0.0
C1463 C 0.00291 0.5784 0.10468 0.0
C1464 C 0.99109 0.56627 0.13155 0.0
C1465 C 0.9759 0.58289 0.13091 0.0
C1466 C 0.99408 0.57063 0.14865 0.0
C1467 C 0.99363 0.5613 0.16115 0.0
C1468 C 0.99051 0.5476 0.15668 0.0
C1469 C 0.98713 0.54312 0.1397 0.0
C1470 C 0.98733 0.55233 0.12728 0.0
H1471 H 0.96851 0.58626 0.12594 0.0
H1472 H 0.96932 0.57158 0.13504 0.0
H1473 H 0.98163 0.58959 0.14218 0.0
H1474 H 0.99739 0.58143 0.15224 0.0
H1475 H 0.99642 0.56503 0.17416 0.0
H1476 H 0.38391 0.36299 0.04766 0.0
H1477 H 0.40214 0.36621 0.06895 0.0
H1478 H 0.40754 0.40653 0.08368 0.0
H1479 H 0.38936 0.40334 0.06288 0.0
H1480 H 0.4308 0.38743 0.07229 0.0
H1481 H 0.40096 0.38669 0.12909 0.0
H1482 H 0.39229 0.38056 0.10857 0.0
H1483 H 0.40185 0.39929 0.11385 0.0
C1484 C 0.38895 0.3725 0.05551 0.0
C1485 C 0.38509 0.38285 0.05365 0.0
C1486 C 0.39934 0.37431 0.06766 0.0
C1487 C 0.40594 0.38644 0.07818 0.0
C1488 C 0.40228 0.39688 0.07607 0.0
H1489 H 0.48643 0.43848 0.12411 0.0
H1490 H 0.46629 0.42317 0.10525 0.0
C1491 C 0.39193 0.39507 0.06405 0.0
C1492 C 0.41711 0.38875 0.09096 0.0
H1493 H 0.42715 0.39955 0.13198 0.0
C1494 C 0.42991 0.38978 0.08545 0.0
C1495 C 0.41581 0.39141 0.10823 0.0
C1496 C 0.40191 0.38926 0.11531 0.0
C1497 C 0.44188 0.39458 0.09643 0.0
C1498 C 0.44112 0.39879 0.11319 0.0
C1499 C 0.42789 0.39658 0.11906 0.0
C1500 C 0.45415 0.40696 0.1242 0.0
C1501 C 0.45531 0.39537 0.08981 0.0
C1502 C 0.45405 0.4031 0.14127 0.0
C1503 C 0.46545 0.41209 0.15227 0.0
C1504 C 0.47714 0.42513 0.1464 0.0
C1505 C 0.4775 0.42863 0.12913 0.0
C1506 C 0.46608 0.41972 0.11821 0.0
H1507 H 0.45246 0.38684 0.08026 0.0
H1508 H 0.46218 0.40578 0.08337 0.0
H1509 H 0.46172 0.39434 0.1002 0.0
H1510 H 0.44491 0.39337 0.14623 0.0
H1511 H 0.46476 0.40913 0.16553 0.0
H1512 H 0.66215 0.71325 0.3942 0.0
H1513 H 0.66325 0.7267 0.41941 0.0
H1514 H 0.61707 0.69904 0.42563 0.0
H1515 H 0.61584 0.68616 0.39977 0.0
H1516 H 0.62323 0.72443 0.42822 0.0
H1517 H 0.66294 0.72071 0.46877 0.0
H1518 H 0.67072 0.72803 0.44851 0.0
H1519 H 0.65536 0.71002 0.44985 0.0
C1520 C 0.65228 0.7099 0.40113 0.0
C1521 C 0.63891 0.69868 0.39504 0.0
C1522 C 0.65293 0.71753 0.41566 0.0
C1523 C 0.64028 0.71378 0.42469 0.0
C1524 C 0.62699 0.70217 0.41893 0.0
H1525 H 0.64534 0.75853 0.51943 0.0
H1526 H 0.64279 0.74055 0.49886 0.0
C1527 C 0.62629 0.69479 0.40417 0.0
C1528 C 0.64066 0.72276 0.43906 0.0
H1529 H 0.65925 0.74011 0.47515 0.0
C1530 C 0.63099 0.72766 0.4386 0.0
C1531 C 0.65057 0.72684 0.45285 0.0
C1532 C 0.66035 0.72097 0.45512 0.0
C1533 C 0.63124 0.73682 0.45114 0.0
C1534 C 0.64192 0.74183 0.46414 0.0
C1535 C 0.65125 0.73653 0.46501 0.0
C1536 C 0.64376 0.75277 0.47668 0.0
C1537 C 0.61987 0.74086 0.45037 0.0
C1538 C 0.64549 0.76573 0.4711 0.0
C1539 C 0.64663 0.77581 0.48279 0.0
C1540 C 0.64651 0.77331 0.50031 0.0
C1541 C 0.64542 0.76064 0.50596 0.0
C1542 C 0.64397 0.7504 0.49423 0.0
H1543 H 0.60986 0.73246 0.44388 0.0
H1544 H 0.61696 0.74258 0.46325 0.0
H1545 H 0.62408 0.75085 0.44294 0.0
H1546 H 0.64592 0.76807 0.45766 0.0
H1547 H 0.64772 0.78563 0.47815 0.0
H1548 H 0.30261 0.92843 0.39052 0.0
H1549 H 0.29304 0.91821 0.4184 0.0
H1550 H 0.28654 0.9529 0.42937 0.0
H1551 H 0.29622 0.96334 0.40138 0.0
H1552 H 0.30152 0.93228 0.45406 0.0
H1553 H 0.24544 0.91329 0.43097 0.0
H1554 H 0.25997 0.91761 0.41643 0.0
H1555 H 0.25945 0.93162 0.4274 0.0
C1556 C 0.29931 0.93401 0.3989 0.0
C1557 C 0.30005 0.94664 0.39367 0.0
C1558 C 0.29391 0.92818 0.41486 0.0
C1559 C 0.28904 0.93478 0.42584 0.0
C1560 C 0.29025 0.94766 0.421 0.0
H1561 H 0.23089 0.88848 0.50982 0.0
H1562 H 0.24648 0.9081 0.49062 0.0
C1563 C 0.29578 0.9536 0.40504 0.0
C1564 C 0.28165 0.92742 0.44167 0.0
H1565 H 0.24793 0.90544 0.45773 0.0
C1566 C 0.28982 0.92657 0.45504 0.0
C1567 C 0.26641 0.92006 0.44286 0.0
C1568 C 0.2572 0.92057 0.42868 0.0
C1569 C 0.28307 0.91821 0.46948 0.0
C1570 C 0.26776 0.9102 0.47026 0.0
C1571 C 0.25966 0.91156 0.45715 0.0
C1572 C 0.25978 0.89951 0.48379 0.0
C1573 C 0.29243 0.91803 0.48368 0.0
C1574 C 0.26219 0.88826 0.48654 0.0
C1575 C 0.25338 0.87713 0.49762 0.0
C1576 C 0.24183 0.8769 0.50589 0.0
C1577 C 0.23967 0.88836 0.50351 0.0
C1578 C 0.24859 0.89957 0.49259 0.0
H1579 H 0.30311 0.92818 0.48413 0.0
H1580 H 0.28714 0.91632 0.49622 0.0
H1581 H 0.29445 0.90924 0.48142 0.0
H1582 H 0.27044 0.88771 0.47954 0.0
H1583 H 0.25514 0.86833 0.49903 0.0
H1584 H 0.05131 0.35612 0.39009 0.0
H1585 H 0.06988 0.366 0.41259 0.0
H1586 H 0.06714 0.32549 0.41698 0.0
H1587 H 0.04849 0.3155 0.39496 0.0
H1588 H 0.06697 0.33657 0.44786 0.0
H1589 H 0.11207 0.37741 0.40828 0.0
H1590 H 0.09608 0.37847 0.40893 0.0
H1591 H 0.09531 0.36334 0.39911 0.0
C1592 C 0.0547 0.34934 0.39584 0.0
C1593 C 0.04843 0.33502 0.39069 0.0
C1594 C 0.06536 0.35502 0.40864 0.0
C1595 C 0.07001 0.34652 0.41634 0.0
C1596 C 0.06371 0.33224 0.41124 0.0
H1597 H 0.14504 0.35924 0.46586 0.0
H1598 H 0.12613 0.35716 0.44687 0.0
C1599 C 0.05305 0.32655 0.3986 0.0
C1600 C 0.08138 0.35221 0.42979 0.0
H1601 H 0.11754 0.37532 0.43671 0.0
C1602 C 0.078 0.34516 0.44552 0.0
C1603 C 0.09576 0.36339 0.42665 0.0
C1604 C 0.10012 0.37106 0.40981 0.0
C1605 C 0.08873 0.3485 0.45791 0.0
C1606 C 0.10318 0.35948 0.45465 0.0
C1607 C 0.10644 0.36697 0.43921 0.0
C1608 C 0.1153 0.36214 0.46615 0.0
C1609 C 0.08461 0.33964 0.47392 0.0
C1610 C 0.11574 0.366 0.48325 0.0
C1611 C 0.12644 0.36694 0.49427 0.0
C1612 C 0.13695 0.36416 0.48833 0.0
C1613 C 0.1369 0.36108 0.47098 0.0
C1614 C 0.12618 0.36005 0.46004 0.0
H1615 H 0.07373 0.32978 0.47284 0.0
H1616 H 0.09263 0.33655 0.47698 0.0
H1617 H 0.08438 0.34602 0.4847 0.0
H1618 H 0.10763 0.36797 0.48815 0.0
H1619 H 0.12617 0.36936 0.50754 0.0
H1620 H 0.04376 0.3347 0.30273 0.0
H1621 H 0.0543 0.33245 0.27647 0.0
H1622 H 0.02504 0.28673 0.27754 0.0
H1623 H 0.01503 0.28889 0.30425 0.0
H1624 H 0.05072 0.29216 0.27335 0.0
H1625 H 0.04302 0.32601 0.22778 0.0
H1626 H 0.05228 0.336 0.24647 0.0
H1627 H 0.03399 0.32096 0.24801 0.0
C1628 C 0.03941 0.3242 0.29717 0.0
C1629 C 0.02864 0.31196 0.30556 0.0
C1630 C 0.04536 0.32293 0.28206 0.0
C1631 C 0.04035 0.30942 0.27483 0.0
C1632 C 0.0291 0.29726 0.28284 0.0
H1633 H 0.07714 0.30108 0.17937 0.0
H1634 H 0.06033 0.30084 0.20021 0.0
C1635 C 0.02339 0.2985 0.29811 0.0
C1636 C 0.04789 0.3078 0.26013 0.0
H1637 H 0.06186 0.32122 0.22098 0.0
C1638 C 0.05293 0.29837 0.2618 0.0
C1639 C 0.05063 0.31569 0.24489 0.0
C1640 C 0.04454 0.3251 0.24161 0.0
C1641 C 0.06107 0.29703 0.24904 0.0
C1642 C 0.06479 0.30576 0.23442 0.0
C1643 C 0.05923 0.31472 0.23234 0.0
C1644 C 0.07496 0.30616 0.22162 0.0
C1645 C 0.06558 0.28623 0.25139 0.0
C1646 C 0.08883 0.30948 0.22669 0.0
C1647 C 0.09831 0.30935 0.21495 0.0
C1648 C 0.09429 0.30621 0.19773 0.0
C1649 C 0.08052 0.30331 0.19256 0.0
C1650 C 0.07094 0.30329 0.20442 0.0
H1651 H 0.05794 0.27733 0.25977 0.0
H1652 H 0.06613 0.28168 0.23904 0.0
H1653 H 0.07643 0.2915 0.25754 0.0
H1654 H 0.09231 0.31207 0.23982 0.0
H1655 H 0.10871 0.31144 0.21951 0.0
H1656 H 0.63477 0.70518 0.29892 0.0
H1657 H 0.64413 0.72128 0.27469 0.0
H1658 H 0.68761 0.73267 0.28792 0.0
H1659 H 0.6783 0.71641 0.3124 0.0
H1660 H 0.68308 0.75636 0.28128 0.0
H1661 H 0.66099 0.71579 0.22996 0.0
H1662 H 0.64797 0.71286 0.24593 0.0
H1663 H 0.66346 0.71172 0.25155 0.0
C1664 C 0.64633 0.71103 0.29671 0.0
C1665 C 0.65579 0.70948 0.30762 0.0
C1666 C 0.65164 0.72017 0.28277 0.0
C1667 C 0.66652 0.72798 0.27939 0.0
C1668 C 0.67607 0.7266 0.29026 0.0
H1669 H 0.70377 0.79738 0.2032 0.0
H1670 H 0.70264 0.78022 0.22414 0.0
C1671 C 0.67073 0.71733 0.30422 0.0
C1672 C 0.67191 0.73803 0.26489 0.0
H1673 H 0.66725 0.73949 0.22214 0.0
C1674 C 0.67993 0.75274 0.26827 0.0
C1675 C 0.66776 0.7332 0.24798 0.0
C1676 C 0.65968 0.71753 0.24357 0.0
C1677 C 0.68305 0.76276 0.25531 0.0
C1678 C 0.67822 0.75789 0.23852 0.0
C1679 C 0.6709 0.74319 0.23502 0.0
C1680 C 0.67923 0.76768 0.22485 0.0
C1681 C 0.69068 0.7784 0.25988 0.0
C1682 C 0.66646 0.76598 0.21784 0.0
C1683 C 0.66706 0.77563 0.20579 0.0
C1684 C 0.68046 0.78719 0.20047 0.0
C1685 C 0.69328 0.78856 0.20701 0.0
C1686 C 0.69266 0.77887 0.2191 0.0
H1687 H 0.69139 0.78013 0.27385 0.0
H1688 H 0.70185 0.78396 0.25482 0.0
H1689 H 0.68498 0.7834 0.25412 0.0
H1690 H 0.65598 0.75737 0.22201 0.0
H1691 H 0.657 0.77411 0.20077 0.0
H1692 H 0.27052 0.93254 0.30708 0.0
H1693 H 0.2525 0.92881 0.28562 0.0
H1694 H 0.26512 0.973 0.28951 0.0
H1695 H 0.28334 0.97692 0.3112 0.0
H1696 H 0.22888 0.93498 0.28842 0.0
H1697 H 0.26915 0.96496 0.23756 0.0
H1698 H 0.2737 0.95821 0.25601 0.0
H1699 H 0.27153 0.97323 0.25806 0.0
C1700 C 0.26948 0.9415 0.30347 0.0
C1701 C 0.27844 0.95506 0.3108 0.0
C1702 C 0.25914 0.93932 0.29123 0.0
C1703 C 0.25757 0.95064 0.28594 0.0
C1704 C 0.26626 0.96416 0.29339 0.0
H1705 H 0.18487 0.92465 0.21361 0.0
H1706 H 0.20284 0.9394 0.23552 0.0
C1707 C 0.27661 0.96635 0.30579 0.0
C1708 C 0.24701 0.94808 0.27227 0.0
H1709 H 0.24468 0.95126 0.22937 0.0
C1710 C 0.23224 0.9388 0.27556 0.0
C1711 C 0.25154 0.95304 0.25555 0.0
C1712 C 0.26733 0.96288 0.25142 0.0
C1713 C 0.22192 0.93371 0.26238 0.0
C1714 C 0.22653 0.93813 0.24551 0.0
C1715 C 0.24121 0.948 0.24234 0.0
C1716 C 0.21665 0.93097 0.23088 0.0
C1717 C 0.2063 0.92291 0.26641 0.0
C1718 C 0.21879 0.92181 0.22067 0.0
C1719 C 0.20863 0.91345 0.20823 0.0
C1720 C 0.19615 0.91414 0.2057 0.0
C1721 C 0.19441 0.92393 0.21528 0.0
C1722 C 0.20459 0.93228 0.22784 0.0
H1723 H 0.20484 0.91938 0.27988 0.0
H1724 H 0.19961 0.92769 0.26396 0.0
H1725 H 0.20216 0.91339 0.25808 0.0
H1726 H 0.22805 0.92068 0.2228 0.0
H1727 H 0.21034 0.90614 0.20086 0.0
H1728 H 0.7201 0.98213 0.3039 0.0
H1729 H 0.71974 0.96952 0.27819 0.0
H1730 H 0.67301 0.94625 0.27786 0.0
H1731 H 0.67333 0.95928 0.30309 0.0
H1732 H 0.70997 0.94265 0.27508 0.0
H1733 H 0.68005 0.95577 0.22878 0.0
H1734 H 0.68679 0.96522 0.24867 0.0
H1735 H 0.66974 0.94846 0.24777 0.0
C1736 C 0.70975 0.97451 0.29815 0.0
C1737 C 0.69674 0.97171 0.3055 0.0
C1738 C 0.70956 0.96731 0.28346 0.0
C1739 C 0.69636 0.95705 0.2759 0.0
C1740 C 0.68335 0.9544 0.28309 0.0
H1741 H 0.6809 0.88269 0.22212 0.0
H1742 H 0.684 0.9008 0.24233 0.0
C1743 C 0.68354 0.96179 0.29763 0.0
C1744 C 0.69617 0.94819 0.26155 0.0
H1745 H 0.68078 0.93459 0.22274 0.0
C1746 C 0.70375 0.94108 0.26354 0.0
C1747 C 0.68828 0.94627 0.24631 0.0
C1748 C 0.6809 0.95448 0.24268 0.0
C1749 C 0.7032 0.93171 0.25108 0.0
C1750 C 0.69439 0.92894 0.23647 0.0
C1751 C 0.68732 0.9365 0.23409 0.0
C1752 C 0.69199 0.91787 0.22386 0.0
C1753 C 0.71213 0.92493 0.25373 0.0
C1754 C 0.6948 0.92125 0.20656 0.0
C1755 C 0.69263 0.91076 0.19479 0.0
C1756 C 0.6876 0.89668 0.20011 0.0
C1757 C 0.6846 0.89334 0.21745 0.0
C1758 C 0.68662 0.90376 0.22913 0.0
H1759 H 0.72172 0.93167 0.26197 0.0
H1760 H 0.70544 0.91448 0.26016 0.0
H1761 H 0.71593 0.92312 0.24147 0.0
H1762 H 0.69881 0.93204 0.20218 0.0
H1763 H 0.69482 0.91369 0.18152 0.0
H1764 H 0.03139 0.70827 0.29784 0.0
H1765 H 0.04112 0.72071 0.27083 0.0
H1766 H 0.04074 0.75726 0.29002 0.0
H1767 H 0.03085 0.74492 0.31681 0.0
H1768 H 0.03112 0.75053 0.25618 0.0
H1769 H 0.0835 0.75342 0.26704 0.0
H1770 H 0.06749 0.73587 0.26708 0.0
H1771 H 0.07027 0.74834 0.28357 0.0
C1772 C 0.03327 0.71891 0.29625 0.0
C1773 C 0.03048 0.72566 0.30957 0.0
C1774 C 0.03887 0.72601 0.28083 0.0
C1775 C 0.04183 0.73997 0.27853 0.0
C1776 C 0.03855 0.74649 0.29155 0.0
H1777 H 0.10244 0.81262 0.22437 0.0
H1778 H 0.08707 0.79329 0.24377 0.0
C1779 C 0.03294 0.73942 0.3069 0.0
C1780 C 0.04911 0.74827 0.26306 0.0
H1781 H 0.08174 0.76513 0.24302 0.0
C1782 C 0.04212 0.75357 0.25311 0.0
C1783 C 0.06349 0.75228 0.25922 0.0
C1784 C 0.07172 0.7473 0.26982 0.0
C1785 C 0.04931 0.76321 0.23978 0.0
C1786 C 0.06381 0.7675 0.23625 0.0
C1787 C 0.0706 0.76175 0.24576 0.0
C1788 C 0.0727 0.77911 0.22412 0.0
C1789 C 0.04166 0.76933 0.23017 0.0
C1790 C 0.06966 0.77756 0.2066 0.0
C1791 C 0.0785 0.78863 0.19541 0.0
C1792 C 0.09056 0.80135 0.20159 0.0
C1793 C 0.0934 0.80287 0.21917 0.0
C1794 C 0.0846 0.79185 0.23029 0.0
H1795 H 0.03125 0.76654 0.23616 0.0
H1796 H 0.04865 0.78114 0.22941 0.0
H1797 H 0.03934 0.76508 0.217 0.0
H1798 H 0.06061 0.76772 0.20158 0.0
H1799 H 0.07611 0.78713 0.18191 0.0
H1800 H 0.29114 0.34867 0.28176 0.0
H1801 H 0.27051 0.33685 0.26236 0.0
H1802 H 0.25749 0.29622 0.28537 0.0
H1803 H 0.27843 0.30802 0.30486 0.0
H1804 H 0.25458 0.29543 0.24888 0.0
H1805 H 0.22935 0.32239 0.27949 0.0
H1806 H 0.24757 0.33472 0.27289 0.0
H1807 H 0.24421 0.32176 0.28911 0.0
C1808 C 0.28397 0.3372 0.28269 0.0
C1809 C 0.28631 0.32931 0.29503 0.0
C1810 C 0.27216 0.33047 0.27159 0.0
C1811 C 0.26232 0.31572 0.27269 0.0
C1812 C 0.26493 0.30764 0.28442 0.0
H1813 H 0.17927 0.2868 0.22324 0.0
H1814 H 0.19716 0.2886 0.24394 0.0
C1815 C 0.27687 0.31439 0.29553 0.0
C1816 C 0.24903 0.30908 0.26199 0.0
H1817 H 0.2202 0.31234 0.25203 0.0
C1818 C 0.24691 0.29894 0.24967 0.0
C1819 C 0.23889 0.31344 0.26331 0.0
C1820 C 0.24001 0.32356 0.27703 0.0
C1821 C 0.23527 0.29359 0.23804 0.0
C1822 C 0.22575 0.29879 0.23857 0.0
C1823 C 0.22753 0.30841 0.25145 0.0
C1824 C 0.21426 0.29508 0.22556 0.0
C1825 C 0.23335 0.28247 0.22532 0.0
C1826 C 0.21774 0.29773 0.20823 0.0
C1827 C 0.20743 0.29646 0.19635 0.0
C1828 C 0.19358 0.29283 0.20168 0.0
C1829 C 0.18991 0.28966 0.21887 0.0
C1830 C 0.20012 0.29068 0.23067 0.0
H1831 H 0.23786 0.27609 0.23028 0.0
H1832 H 0.22175 0.2751 0.22201 0.0
H1833 H 0.23929 0.28787 0.21356 0.0
H1834 H 0.22865 0.30153 0.20399 0.0
H1835 H 0.21053 0.29912 0.18318 0.0
H1836 H 0.30413 0.3353 0.38832 0.0
H1837 H 0.29308 0.33535 0.41534 0.0
H1838 H 0.29472 0.37403 0.40061 0.0
H1839 H 0.306 0.37427 0.37384 0.0
H1840 H 0.30196 0.37407 0.43457 0.0
H1841 H 0.25068 0.32401 0.41709 0.0
H1842 H 0.26664 0.32287 0.41744 0.0
H1843 H 0.26492 0.33399 0.40197 0.0
C1844 C 0.30228 0.34391 0.39092 0.0
C1845 C 0.3058 0.3547 0.37883 0.0
C1846 C 0.29591 0.34388 0.40633 0.0
C1847 C 0.29285 0.35456 0.40983 0.0
C1848 C 0.29695 0.36567 0.39813 0.0
H1849 H 0.22806 0.35676 0.46657 0.0
H1850 H 0.2443 0.35575 0.44613 0.0
C1851 C 0.30336 0.36575 0.3828 0.0
C1852 C 0.28462 0.35387 0.42514 0.0
H1853 H 0.25114 0.33473 0.44302 0.0
C1854 C 0.2909 0.3654 0.43657 0.0
C1855 C 0.27015 0.34259 0.42757 0.0
C1856 C 0.26261 0.3302 0.41533 0.0
C1857 C 0.28296 0.36617 0.45011 0.0
C1858 C 0.26843 0.35499 0.45237 0.0
C1859 C 0.26231 0.34325 0.44126 0.0
C1860 C 0.25891 0.35582 0.46513 0.0
C1861 C 0.28993 0.37923 0.46136 0.0
C1862 C 0.26175 0.35619 0.48263 0.0
C1863 C 0.25243 0.35676 0.49441 0.0
C1864 C 0.24007 0.35682 0.48883 0.0
C1865 C 0.23735 0.35649 0.47129 0.0
C1866 C 0.24665 0.35597 0.45958 0.0
H1867 H 0.30021 0.38802 0.45597 0.0
H1868 H 0.28247 0.38317 0.46334 0.0
H1869 H 0.29239 0.3764 0.47397 0.0
H1870 H 0.27103 0.35585 0.48718 0.0
H1871 H 0.25473 0.35687 0.50785 0.0
H1872 H 0.65571 0.95318 0.38765 0.0
H1873 H 0.6466 0.9365 0.41171 0.0
H1874 H 0.69027 0.9483 0.42461 0.0
H1875 H 0.69944 0.96492 0.40088 0.0
H1876 H 0.65041 0.91303 0.41766 0.0
H1877 H 0.67426 0.9526 0.46984 0.0
H1878 H 0.6722 0.95736 0.44845 0.0
H1879 H 0.68727 0.95543 0.45393 0.0
C1880 C 0.66337 0.95229 0.3957 0.0
C1881 C 0.67831 0.96043 0.39235 0.0
C1882 C 0.65814 0.94275 0.40941 0.0
C1883 C 0.66779 0.94136 0.42009 0.0
C1884 C 0.68267 0.94944 0.41674 0.0
H1885 H 0.67602 0.89158 0.49529 0.0
H1886 H 0.67765 0.90852 0.47398 0.0
C1887 C 0.68788 0.95888 0.40307 0.0
C1888 C 0.6625 0.93104 0.43435 0.0
H1889 H 0.66785 0.92862 0.47674 0.0
C1890 C 0.65393 0.9164 0.43066 0.0
C1891 C 0.66708 0.93551 0.45129 0.0
C1892 C 0.67559 0.95109 0.45617 0.0
C1893 C 0.65066 0.90608 0.44329 0.0
C1894 C 0.65598 0.91059 0.46001 0.0
C1895 C 0.66388 0.92521 0.46387 0.0
C1896 C 0.65466 0.90039 0.47328 0.0
C1897 C 0.64226 0.89048 0.43849 0.0
C1898 C 0.64117 0.8903 0.48009 0.0
C1899 C 0.6402 0.88063 0.49246 0.0
C1900 C 0.65271 0.88094 0.49823 0.0
C1901 C 0.6662 0.89118 0.49141 0.0
C1902 C 0.66715 0.90083 0.47913 0.0
H1903 H 0.64062 0.88886 0.42453 0.0
H1904 H 0.64796 0.88513 0.44316 0.0
H1905 H 0.63147 0.88519 0.44458 0.0
H1906 H 0.63143 0.88993 0.47589 0.0
H1907 H 0.62967 0.873 0.49759 0.0
H1908 H 0.04798 0.73017 0.40487 0.0
H1909 H 0.06628 0.73484 0.42632 0.0
H1910 H 0.07164 0.70176 0.40507 0.0
H1911 H 0.05316 0.69692 0.38332 0.0
H1912 H 0.06598 0.71358 0.45042 0.0
H1913 H 0.11339 0.73958 0.40699 0.0
H1914 H 0.09649 0.7382 0.40144 0.0
H1915 H 0.09777 0.72258 0.40119 0.0
C1916 C 0.05301 0.72385 0.40467 0.0
C1917 C 0.04913 0.71319 0.3923 0.0
C1918 C 0.06344 0.72652 0.417 0.0
C1919 C 0.07032 0.71869 0.41722 0.0
C1920 C 0.06649 0.70797 0.40501 0.0
H1921 H 0.14607 0.7493 0.48555 0.0
H1922 H 0.12691 0.73311 0.46552 0.0
C1923 C 0.05593 0.70521 0.39264 0.0
C1924 C 0.08159 0.7221 0.43027 0.0
H1925 H 0.11822 0.74174 0.43632 0.0
C1926 C 0.07741 0.71947 0.44735 0.0
C1927 C 0.09646 0.72967 0.42618 0.0
C1928 C 0.10142 0.73277 0.40798 0.0
C1929 C 0.08774 0.72493 0.46052 0.0
C1930 C 0.10259 0.73347 0.45646 0.0
C1931 C 0.10681 0.73523 0.43937 0.0
C1932 C 0.11363 0.74223 0.46952 0.0
C1933 C 0.08263 0.72192 0.47867 0.0
C1934 C 0.1125 0.75269 0.47831 0.0
C1935 C 0.12336 0.7619 0.48961 0.0
C1936 C 0.13564 0.7609 0.49232 0.0
C1937 C 0.13666 0.75023 0.48378 0.0
C1938 C 0.12578 0.74103 0.47233 0.0
H1939 H 0.07207 0.71169 0.47969 0.0
H1940 H 0.09065 0.72145 0.4871 0.0
H1941 H 0.08109 0.73058 0.48327 0.0
H1942 H 0.10337 0.754 0.47608 0.0
H1943 H 0.12221 0.76993 0.49613 0.0
H1944 H 0.28832 0.03869 0.71902 0.0
H1945 H 0.28968 0.05198 0.74451 0.0
H1946 H 0.32932 0.05448 0.75957 0.0
H1947 H 0.32812 0.04117 0.734 0.0
H1948 H 0.30666 0.04677 0.78656 0.0
H1949 H 0.32179 0.09586 0.74962 0.0
H1950 H 0.30633 0.0796 0.7418 0.0
H1951 H 0.32393 0.08173 0.74141 0.0
C1952 C 0.29729 0.04195 0.72778 0.0
C1953 C 0.30818 0.03895 0.72439 0.0
C1954 C 0.29805 0.04957 0.74232 0.0
C1955 C 0.30967 0.0543 0.75377 0.0
C1956 C 0.32029 0.05092 0.75081 0.0
H1957 H 0.33377 0.12051 0.82958 0.0
H1958 H 0.33422 0.10493 0.80779 0.0
C1959 C 0.31959 0.04335 0.73619 0.0
C1960 C 0.31093 0.06325 0.76847 0.0
H1961 H 0.31634 0.09587 0.77867 0.0
C1962 C 0.30885 0.05754 0.7849 0.0
C1963 C 0.31394 0.07732 0.7662 0.0
C1964 C 0.31675 0.08409 0.74884 0.0
C1965 C 0.30932 0.06546 0.79916 0.0
C1966 C 0.31187 0.07936 0.79682 0.0
C1967 C 0.31432 0.08518 0.78041 0.0
C1968 C 0.31188 0.08809 0.81114 0.0
C1969 C 0.30718 0.05894 0.8166 0.0
C1970 C 0.29917 0.08373 0.82029 0.0
C1971 C 0.29888 0.0926 0.83279 0.0
C1972 C 0.31129 0.106 0.83633 0.0
C1973 C 0.32408 0.11018 0.82735 0.0
C1974 C 0.32434 0.10133 0.81483 0.0
H1975 H 0.30889 0.0498 0.81665 0.0
H1976 H 0.3147 0.06701 0.82599 0.0
H1977 H 0.29594 0.05496 0.82076 0.0
H1978 H 0.28936 0.07365 0.81744 0.0
H1979 H 0.28889 0.08905 0.83955 0.0
H1980 H 0.96521 0.29366 0.72603 0.0
H1981 H 0.9541 0.2806 0.75238 0.0
H1982 H 0.96214 0.24765 0.73732 0.0
H1983 H 0.97317 0.26051 0.71108 0.0
H1984 H 0.92946 0.25184 0.75346 0.0
H1985 H 0.97719 0.257 0.78716 0.0
H1986 H 0.97876 0.26886 0.77019 0.0
H1987 H 0.97551 0.25142 0.76538 0.0
C1988 C 0.96477 0.28372 0.72844 0.0
C1989 C 0.97005 0.27811 0.71644 0.0
C1990 C 0.95842 0.27629 0.74347 0.0
C1991 C 0.95748 0.26327 0.74686 0.0
C1992 C 0.96299 0.2578 0.73508 0.0
H1993 H 0.90094 0.18814 0.80203 0.0
H1994 H 0.91502 0.2072 0.78158 0.0
C1995 C 0.96921 0.26513 0.72002 0.0
C1996 C 0.94978 0.25474 0.76202 0.0
H1997 H 0.95387 0.23844 0.79679 0.0
C1998 C 0.93482 0.24908 0.7631 0.0
C1999 C 0.95684 0.25127 0.77461 0.0
C2000 C 0.97299 0.25755 0.77442 0.0
C2001 C 0.9266 0.23943 0.77599 0.0
C2002 C 0.93353 0.23531 0.78799 0.0
C2003 C 0.94859 0.24154 0.78745 0.0
C2004 C 0.92516 0.2239 0.80053 0.0
C2005 C 0.9105 0.23345 0.77648 0.0
C2006 C 0.92643 0.22699 0.81796 0.0
C2007 C 0.9184 0.21611 0.8297 0.0
C2008 C 0.90914 0.20195 0.82417 0.0
C2009 C 0.90809 0.19891 0.80669 0.0
C2010 C 0.91601 0.20979 0.79499 0.0
H2011 H 0.90743 0.24012 0.76907 0.0
H2012 H 0.90472 0.22256 0.77092 0.0
H2013 H 0.90679 0.23265 0.78978 0.0
H2014 H 0.93353 0.23782 0.82246 0.0
H2015 H 0.9195 0.21873 0.8431 0.0
H2016 H 0.72379 0.69649 0.72799 0.0
H2017 H 0.7428 0.70792 0.74997 0.0
H2018 H 0.74657 0.67076 0.75152 0.0
H2019 H 0.72765 0.65923 0.72986 0.0
H2020 H 0.74107 0.69024 0.78535 0.0
H2021 H 0.7893 0.71151 0.74369 0.0
H2022 H 0.77248 0.70967 0.73654 0.0
H2023 H 0.77383 0.69415 0.7387 0.0
C2024 C 0.72873 0.6908 0.73296 0.0
C2025 C 0.72417 0.67693 0.72721 0.0
C2026 C 0.73955 0.69733 0.7455 0.0
C2027 C 0.74605 0.69015 0.75225 0.0
C2028 C 0.74167 0.67645 0.74638 0.0
H2029 H 0.79472 0.68598 0.83298 0.0
H2030 H 0.77694 0.68341 0.81182 0.0
C2031 C 0.73083 0.66988 0.73403 0.0
C2032 C 0.75711 0.69656 0.76587 0.0
H2033 H 0.79316 0.71057 0.77329 0.0
C2034 C 0.7525 0.69496 0.78276 0.0
C2035 C 0.77196 0.7027 0.76236 0.0
C2036 C 0.77731 0.70473 0.74435 0.0
C2037 C 0.76236 0.6987 0.79632 0.0
C2038 C 0.77711 0.70406 0.79282 0.0
C2039 C 0.78183 0.70642 0.77592 0.0
C2040 C 0.78751 0.70599 0.80642 0.0
C2041 C 0.75688 0.69651 0.81429 0.0
C2042 C 0.79942 0.71956 0.81031 0.0
C2043 C 0.80957 0.72112 0.82263 0.0
C2044 C 0.80808 0.70909 0.83109 0.0
C2045 C 0.79608 0.69552 0.82708 0.0
C2046 C 0.78591 0.69401 0.81491 0.0
H2047 H 0.7463 0.69586 0.81495 0.0
H2048 H 0.75537 0.68635 0.81925 0.0
H2049 H 0.7648 0.70531 0.82269 0.0
H2050 H 0.80086 0.72892 0.80381 0.0
H2051 H 0.81857 0.73174 0.82551 0.0
H2052 H 0.71237 0.67333 0.6379 0.0
H2053 H 0.72265 0.67191 0.61086 0.0
H2054 H 0.70408 0.62672 0.61815 0.0
H2055 H 0.69392 0.62801 0.64524 0.0
H2056 H 0.74206 0.65882 0.61046 0.0
H2057 H 0.69433 0.6335 0.5668 0.0
H2058 H 0.69547 0.64417 0.58489 0.0
H2059 H 0.69195 0.62645 0.58803 0.0
C2060 C 0.71027 0.66304 0.63362 0.0
C2061 C 0.70239 0.65079 0.64375 0.0
C2062 C 0.71616 0.66227 0.61819 0.0
C2063 C 0.71401 0.6492 0.61254 0.0
C2064 C 0.70571 0.63687 0.62227 0.0
H2065 H 0.74219 0.61653 0.53256 0.0
H2066 H 0.7293 0.62061 0.55498 0.0
C2067 C 0.69998 0.63765 0.63777 0.0
C2068 C 0.72156 0.64859 0.59733 0.0
H2069 H 0.71593 0.63557 0.55687 0.0
C2070 C 0.73643 0.6539 0.59864 0.0
C2071 C 0.71406 0.64198 0.58211 0.0
C2072 C 0.69807 0.63624 0.58021 0.0
C2073 C 0.744 0.6524 0.58526 0.0
C2074 C 0.73653 0.64579 0.56994 0.0
C2075 C 0.72165 0.64068 0.56856 0.0
C2076 C 0.74387 0.64354 0.55552 0.0
C2077 C 0.75976 0.65732 0.58798 0.0
C2078 C 0.75613 0.65511 0.54806 0.0
C2079 C 0.76373 0.6528 0.53552 0.0
C2080 C 0.75905 0.63886 0.52991 0.0
C2081 C 0.74632 0.62737 0.53682 0.0
C2082 C 0.73883 0.62969 0.54953 0.0
H2083 H 0.76267 0.65842 0.60171 0.0
H2084 H 0.76241 0.64977 0.58216 0.0
H2085 H 0.76661 0.66794 0.58199 0.0
H2086 H 0.76001 0.66593 0.55219 0.0
H2087 H 0.77352 0.66192 0.53063 0.0
H2088 H 0.30929 0.0478 0.63126 0.0
H2089 H 0.31993 0.06393 0.60735 0.0
H2090 H 0.36075 0.06698 0.61682 0.0
H2091 H 0.35017 0.05085 0.64126 0.0
H2092 H 0.36406 0.0931 0.6111 0.0
H2093 H 0.32929 0.05587 0.56072 0.0
H2094 H 0.31839 0.05617 0.57752 0.0
H2095 H 0.33051 0.04985 0.58171 0.0
C2096 C 0.32051 0.05177 0.62827 0.0
C2097 C 0.32885 0.04794 0.63817 0.0
C2098 C 0.32655 0.06093 0.61446 0.0
C2099 C 0.34103 0.06638 0.61002 0.0
C2100 C 0.3495 0.06274 0.61992 0.0
H2101 H 0.35994 0.11645 0.51631 0.0
H2102 H 0.36059 0.0997 0.5364 0.0
C2103 C 0.34344 0.05355 0.63387 0.0
C2104 C 0.34725 0.07647 0.59556 0.0
H2105 H 0.3392 0.08109 0.55496 0.0
C2106 C 0.35886 0.09041 0.59868 0.0
C2107 C 0.34077 0.0729 0.57921 0.0
C2108 C 0.32916 0.05782 0.57455 0.0
C2109 C 0.36328 0.10115 0.58634 0.0
C2110 C 0.35564 0.09792 0.57068 0.0
C2111 C 0.34491 0.0837 0.56706 0.0
C2112 C 0.35741 0.10921 0.5587 0.0
C2113 C 0.37589 0.1159 0.59039 0.0
C2114 C 0.35554 0.12021 0.56452 0.0
C2115 C 0.35535 0.12987 0.55313 0.0
C2116 C 0.35673 0.12861 0.53556 0.0
C2117 C 0.35897 0.11781 0.52976 0.0
C2118 C 0.35927 0.10818 0.54122 0.0
H2119 H 0.38382 0.11534 0.59892 0.0
H2120 H 0.38155 0.12181 0.57871 0.0
H2121 H 0.37188 0.122 0.59717 0.0
H2122 H 0.35367 0.12103 0.57785 0.0
H2123 H 0.35384 0.13819 0.55809 0.0
H2124 H 0.95232 0.31024 0.64321 0.0
H2125 H 0.93405 0.3063 0.62158 0.0
H2126 H 0.93888 0.27346 0.59856 0.0
H2127 H 0.95699 0.27726 0.6199 0.0
H2128 H 0.9388 0.29487 0.57532 0.0
H2129 H 0.89229 0.26887 0.62004 0.0
H2130 H 0.90798 0.28586 0.62569 0.0
H2131 H 0.90931 0.27028 0.62493 0.0
C2132 C 0.94953 0.30223 0.63348 0.0
C2133 C 0.95605 0.294 0.63335 0.0
C2134 C 0.93908 0.29998 0.62119 0.0
C2135 C 0.93509 0.28954 0.60858 0.0
C2136 C 0.94183 0.28157 0.60821 0.0
H2137 H 0.88109 0.23939 0.53022 0.0
H2138 H 0.90071 0.25529 0.54947 0.0
C2139 C 0.95215 0.28373 0.62047 0.0
C2140 C 0.92361 0.28636 0.59591 0.0
H2141 H 0.88688 0.26723 0.59092 0.0
C2142 C 0.92744 0.28909 0.57873 0.0
C2143 C 0.90884 0.27895 0.60043 0.0
C2144 C 0.90423 0.27572 0.61875 0.0
C2145 C 0.91684 0.28388 0.56586 0.0
C2146 C 0.90206 0.27548 0.57032 0.0
C2147 C 0.89822 0.27363 0.58754 0.0
C2148 C 0.89065 0.26692 0.5575 0.0
C2149 C 0.92157 0.28703 0.54759 0.0
C2150 C 0.87837 0.26806 0.55575 0.0
C2151 C 0.86703 0.25885 0.54478 0.0
C2152 C 0.86773 0.24824 0.53566 0.0
C2153 C 0.88019 0.24737 0.53721 0.0
C2154 C 0.89149 0.25657 0.54805 0.0
H2155 H 0.9321 0.29729 0.54646 0.0
H2156 H 0.92306 0.27844 0.54262 0.0
H2157 H 0.91339 0.28756 0.53953 0.0
H2158 H 0.87745 0.27588 0.56308 0.0
H2159 H 0.8575 0.25968 0.54391 0.0
H2160 H 0.33922 0.29513 0.63364 0.0
H2161 H 0.33888 0.2824 0.60802 0.0
H2162 H 0.38492 0.30033 0.61306 0.0
H2163 H 0.38529 0.31275 0.63895 0.0
H2164 H 0.35257 0.29042 0.57725 0.0
H2165 H 0.36962 0.25795 0.61322 0.0
H2166 H 0.3642 0.26902 0.6236 0.0
H2167 H 0.38211 0.27683 0.61502 0.0
C2168 C 0.3493 0.29646 0.62923 0.0
C2169 C 0.36225 0.30479 0.63848 0.0
C2170 C 0.34909 0.28919 0.61457 0.0
C2171 C 0.36181 0.29015 0.60886 0.0
C2172 C 0.3749 0.29912 0.61751 0.0
H2173 H 0.3776 0.24528 0.529 0.0
H2174 H 0.38042 0.26326 0.54962 0.0
C2175 C 0.3751 0.30627 0.63226 0.0
C2176 C 0.36126 0.28131 0.59432 0.0
H2177 H 0.36777 0.2551 0.58337 0.0
C2178 C 0.3559 0.28271 0.57858 0.0
C2179 C 0.36553 0.27118 0.59611 0.0
C2180 C 0.37055 0.26852 0.61293 0.0
C2181 C 0.3548 0.27431 0.56454 0.0
C2182 C 0.35911 0.26424 0.56637 0.0
C2183 C 0.3646 0.26294 0.58202 0.0
C2184 C 0.35742 0.25442 0.55248 0.0
C2185 C 0.34911 0.27627 0.54784 0.0
C2186 C 0.34356 0.24359 0.54722 0.0
C2187 C 0.34192 0.23328 0.53552 0.0
C2188 C 0.35413 0.23366 0.52887 0.0
C2189 C 0.36801 0.24481 0.53376 0.0
C2190 C 0.36964 0.25504 0.54557 0.0
H2191 H 0.34926 0.28646 0.54745 0.0
H2192 H 0.35559 0.27607 0.5371 0.0
H2193 H 0.33776 0.26735 0.54599 0.0
H2194 H 0.334 0.24282 0.5526 0.0
H2195 H 0.33109 0.22487 0.5319 0.0
H2196 H 0.68528 0.06957 0.6408 0.0
H2197 H 0.69496 0.08227 0.61407 0.0
H2198 H 0.72119 0.06342 0.60943 0.0
H2199 H 0.71085 0.05005 0.63572 0.0
H2200 H 0.72117 0.10201 0.60978 0.0
H2201 H 0.70898 0.06093 0.56123 0.0
H2202 H 0.70049 0.05649 0.5818 0.0
H2203 H 0.71822 0.05905 0.57912 0.0
C2204 C 0.69285 0.06788 0.63384 0.0
C2205 C 0.69737 0.05888 0.6403 0.0
C2206 C 0.69838 0.07514 0.61857 0.0
C2207 C 0.70875 0.07377 0.60961 0.0
C2208 C 0.71292 0.06439 0.61579 0.0
H2209 H 0.77743 0.14204 0.55375 0.0
H2210 H 0.76156 0.12383 0.57386 0.0
C2211 C 0.7071 0.05683 0.6309 0.0
C2212 C 0.71644 0.08347 0.59513 0.0
H2213 H 0.72851 0.08488 0.55477 0.0
C2214 C 0.72255 0.09819 0.59768 0.0
C2215 C 0.71815 0.07856 0.57921 0.0
C2216 C 0.71096 0.06288 0.57512 0.0
C2217 C 0.73067 0.10813 0.58505 0.0
C2218 C 0.73326 0.10331 0.56962 0.0
C2219 C 0.72672 0.08858 0.56673 0.0
C2220 C 0.74317 0.1135 0.55669 0.0
C2221 C 0.73632 0.12373 0.5884 0.0
C2222 C 0.73834 0.11331 0.54002 0.0
C2223 C 0.74758 0.12354 0.52822 0.0
C2224 C 0.76181 0.13415 0.53292 0.0
C2225 C 0.76666 0.13398 0.54953 0.0
C2226 C 0.7575 0.12368 0.56118 0.0
H2227 H 0.72956 0.12509 0.59783 0.0
H2228 H 0.74748 0.12886 0.5937 0.0
H2229 H 0.73663 0.12941 0.57655 0.0
H2230 H 0.72734 0.10543 0.53624 0.0
H2231 H 0.74355 0.12318 0.51547 0.0
H2232 H 0.95045 0.68271 0.62002 0.0
H2233 H 0.93062 0.67121 0.59952 0.0
H2234 H 0.91799 0.62998 0.62043 0.0
H2235 H 0.93809 0.64146 0.64105 0.0
H2236 H 0.91709 0.63065 0.58413 0.0
H2237 H 0.88826 0.6546 0.61325 0.0
H2238 H 0.90667 0.66766 0.60809 0.0
H2239 H 0.90294 0.65429 0.62388 0.0
C2240 C 0.94353 0.67119 0.62029 0.0
C2241 C 0.94577 0.66302 0.63234 0.0
C2242 C 0.93215 0.66463 0.60857 0.0
C2243 C 0.92266 0.64979 0.60871 0.0
C2244 C 0.92515 0.64149 0.62023 0.0
H2245 H 0.84152 0.61797 0.55292 0.0
H2246 H 0.85877 0.62069 0.57495 0.0
C2247 C 0.93663 0.64805 0.63199 0.0
C2248 C 0.90999 0.64317 0.59702 0.0
H2249 H 0.88078 0.64525 0.58515 0.0
C2250 C 0.90901 0.63366 0.58445 0.0
C2251 C 0.89931 0.64689 0.59768 0.0
C2252 C 0.89923 0.6563 0.61156 0.0
C2253 C 0.89802 0.62834 0.57197 0.0
C2254 C 0.88795 0.6329 0.57193 0.0
C2255 C 0.88856 0.64185 0.58503 0.0
C2256 C 0.87712 0.62919 0.55808 0.0
C2257 C 0.89733 0.61794 0.55897 0.0
C2258 C 0.88161 0.63281 0.54117 0.0
C2259 C 0.87169 0.63104 0.52845 0.0
C2260 C 0.85711 0.62583 0.53241 0.0
C2261 C 0.85258 0.62182 0.5493 0.0
C2262 C 0.86248 0.62347 0.56197 0.0
H2263 H 0.90217 0.61188 0.56403 0.0
H2264 H 0.88601 0.61025 0.5549 0.0
H2265 H 0.90364 0.62394 0.54764 0.0
H2266 H 0.89289 0.63755 0.53787 0.0
H2267 H 0.87554 0.63408 0.51557 0.0
H2268 H 0.96106 0.66903 0.7271 0.0
H2269 H 0.95015 0.66989 0.75392 0.0
H2270 H 0.95192 0.70823 0.73734 0.0
H2271 H 0.96279 0.70753 0.71063 0.0
H2272 H 0.96084 0.69414 0.77917 0.0
H2273 H 0.90806 0.67775 0.74811 0.0
H2274 H 0.92132 0.67468 0.73858 0.0
H2275 H 0.92374 0.69215 0.73793 0.0
C2276 C 0.95922 0.6777 0.72921 0.0
C2277 C 0.9627 0.68815 0.71665 0.0
C2278 C 0.95302 0.67818 0.74454 0.0
C2279 C 0.95011 0.68903 0.74746 0.0
C2280 C 0.95396 0.69969 0.7352 0.0
H2281 H 0.92674 0.72062 0.83305 0.0
H2282 H 0.93933 0.71616 0.81052 0.0
C2283 C 0.9602 0.69927 0.71995 0.0
C2284 C 0.9426 0.68907 0.76302 0.0
H2285 H 0.91135 0.68625 0.77647 0.0
C2286 C 0.94997 0.69229 0.77867 0.0
C2287 C 0.92838 0.68648 0.76228 0.0
C2288 C 0.91982 0.68245 0.74587 0.0
C2289 C 0.94362 0.6935 0.79357 0.0
C2290 C 0.92964 0.69155 0.79267 0.0
C2291 C 0.92211 0.68782 0.77711 0.0
C2292 C 0.92276 0.69385 0.80749 0.0
C2293 C 0.95193 0.69689 0.81012 0.0
C2294 C 0.90925 0.6828 0.81319 0.0
C2295 C 0.90197 0.68535 0.82593 0.0
C2296 C 0.90803 0.69904 0.83313 0.0
C2297 C 0.92175 0.70999 0.82767 0.0
C2298 C 0.92903 0.70742 0.81494 0.0
H2299 H 0.96044 0.69414 0.80963 0.0
H2300 H 0.95731 0.70851 0.81271 0.0
H2301 H 0.94457 0.69105 0.82085 0.0
H2302 H 0.90417 0.67229 0.80748 0.0
H2303 H 0.89134 0.67674 0.82968 0.0
H2304 H 0.31895 0.28193 0.71728 0.0
H2305 H 0.3091 0.2636 0.73955 0.0
H2306 H 0.35246 0.27745 0.75662 0.0
H2307 H 0.36235 0.29546 0.73437 0.0
H2308 H 0.3359 0.24864 0.75213 0.0
H2309 H 0.30667 0.26782 0.79084 0.0
H2310 H 0.30183 0.26498 0.76867 0.0
H2311 H 0.31976 0.2788 0.77496 0.0
C2312 C 0.32636 0.28112 0.72587 0.0
C2313 C 0.34143 0.29013 0.724 0.0
C2314 C 0.32072 0.2707 0.73864 0.0
C2315 C 0.33005 0.26925 0.74984 0.0
C2316 C 0.34506 0.27837 0.74812 0.0
H2317 H 0.31999 0.2277 0.84542 0.0
H2318 H 0.32328 0.24385 0.82207 0.0
C2319 C 0.35069 0.28868 0.73536 0.0
C2320 C 0.32443 0.25787 0.76293 0.0
H2321 H 0.30488 0.24633 0.79954 0.0
C2322 C 0.32904 0.24807 0.76244 0.0
C2323 C 0.31557 0.25724 0.77643 0.0
C2324 C 0.31074 0.26783 0.77792 0.0
C2325 C 0.32534 0.23787 0.77526 0.0
C2326 C 0.31643 0.23718 0.78875 0.0
C2327 C 0.31159 0.24681 0.78911 0.0
C2328 C 0.3129 0.22715 0.80314 0.0
C2329 C 0.33153 0.22833 0.7746 0.0
C2330 C 0.30558 0.21236 0.80036 0.0
C2331 C 0.30391 0.20312 0.8136 0.0
C2332 C 0.30938 0.20848 0.82997 0.0
C2333 C 0.31594 0.22324 0.83291 0.0
C2334 C 0.3177 0.23248 0.81962 0.0
H2335 H 0.34084 0.23253 0.76579 0.0
H2336 H 0.33517 0.22714 0.7874 0.0
H2337 H 0.32304 0.21759 0.77001 0.0
H2338 H 0.30154 0.208 0.7878 0.0
H2339 H 0.29887 0.19185 0.8108 0.0
H2340 H 0.71578 0.02899 0.7217 0.0
H2341 H 0.73411 0.0339 0.74363 0.0
H2342 H 0.7427 0.07672 0.74914 0.0
H2343 H 0.72437 0.07189 0.72766 0.0
H2344 H 0.76345 0.05419 0.74572 0.0
H2345 H 0.73418 0.06198 0.79759 0.0
H2346 H 0.72566 0.05404 0.77748 0.0
H2347 H 0.73657 0.07317 0.77972 0.0
C2348 C 0.72158 0.03945 0.7276 0.0
C2349 C 0.71848 0.04999 0.72307 0.0
C2350 C 0.73204 0.04222 0.74011 0.0
C2351 C 0.73952 0.05556 0.74828 0.0
C2352 C 0.73677 0.06622 0.74335 0.0
H2353 H 0.82008 0.10317 0.80044 0.0
H2354 H 0.80071 0.08966 0.77971 0.0
C2355 C 0.72632 0.06345 0.73098 0.0
C2356 C 0.7503 0.05858 0.76191 0.0
H2357 H 0.75967 0.07192 0.80215 0.0
C2358 C 0.76255 0.05785 0.75816 0.0
C2359 C 0.74895 0.06302 0.77828 0.0
C2360 C 0.73555 0.06295 0.78358 0.0
C2361 C 0.7739 0.06228 0.77004 0.0
C2362 C 0.77308 0.06789 0.78589 0.0
C2363 C 0.76043 0.06781 0.78994 0.0
C2364 C 0.78546 0.07477 0.79807 0.0
C2365 C 0.78664 0.06096 0.76541 0.0
C2366 C 0.78336 0.07103 0.81536 0.0
C2367 C 0.79435 0.07893 0.82727 0.0
C2368 C 0.80768 0.09067 0.8221 0.0
C2369 C 0.80999 0.09404 0.80473 0.0
C2370 C 0.79894 0.08625 0.79286 0.0
H2371 H 0.78336 0.05201 0.75636 0.0
H2372 H 0.79493 0.07093 0.75907 0.0
H2373 H 0.79162 0.0592 0.77682 0.0
H2374 H 0.77305 0.06225 0.81972 0.0
H2375 H 0.79232 0.07609 0.84059 0.0
H2376 H 0.02974 0.33368 0.9986 0.0
H2377 H 0.04609 0.32759 0.01276 0.0
H2378 H 0.04833 0.35208 0.05663 0.0
H2379 H 0.03212 0.35831 0.04264 0.0
H2380 H 0.07618 0.34841 0.03083 0.0
H2381 H 0.03144 0.308 0.07122 0.0
H2382 H 0.02817 0.3137 0.05099 0.0
H2383 H 0.03325 0.3252 0.06917 0.0
C2384 C 0.03386 0.33794 0.01116 0.0
C2385 C 0.02954 0.3464 0.01953 0.0
C2386 C 0.0432 0.33445 0.01921 0.0
C2387 C 0.04826 0.33929 0.03576 0.0
C2388 C 0.04444 0.34818 0.04388 0.0
H2389 H 0.09227 0.32253 0.11527 0.0
H2390 H 0.07822 0.3293 0.09752 0.0
C2391 C 0.03519 0.35174 0.03583 0.0
C2392 C 0.05693 0.3345 0.04497 0.0
H2393 H 0.05493 0.31277 0.0773 0.0
C2394 C 0.07157 0.34056 0.04092 0.0
C2395 C 0.05081 0.32428 0.05811 0.0
C2396 C 0.03503 0.3173 0.06265 0.0
C2397 C 0.08043 0.33694 0.05007 0.0
C2398 C 0.07433 0.32677 0.06333 0.0
C2399 C 0.05959 0.32056 0.06715 0.0
C2400 C 0.0831 0.32275 0.07387 0.0
C2401 C 0.09632 0.34443 0.04586 0.0
C2402 C 0.09038 0.31665 0.06651 0.0
C2403 C 0.09861 0.31292 0.07663 0.0
C2404 C 0.09958 0.3151 0.09433 0.0
C2405 C 0.09201 0.32096 0.10166 0.0
C2406 C 0.08387 0.32474 0.09154 0.0
H2407 H 0.09995 0.35441 0.03856 0.0
H2408 H 0.10303 0.34711 0.05759 0.0
H2409 H 0.09828 0.33727 0.03797 0.0
H2410 H 0.08968 0.31472 0.05295 0.0
H2411 H 0.10436 0.30852 0.07053 0.0
H2412 H 0.67255 0.70348 0.00051 0.0
H2413 H 0.6766 0.72456 0.01606 0.0
H2414 H 0.65038 0.69767 0.05717 0.0
H2415 H 0.6464 0.67657 0.04186 0.0
H2416 H 0.65682 0.73158 0.02839 0.0
H2417 H 0.68863 0.72669 0.08076 0.0
H2418 H 0.68483 0.71699 0.06101 0.0
H2419 H 0.67125 0.71082 0.07721 0.0
C2420 C 0.66761 0.70204 0.01284 0.0
C2421 C 0.65924 0.68835 0.02 0.0
C2422 C 0.66994 0.7141 0.0217 0.0
C2423 C 0.66401 0.71268 0.03789 0.0
C2424 C 0.65531 0.69901 0.04485 0.0
H2425 H 0.65286 0.77309 0.09551 0.0
H2426 H 0.64992 0.75337 0.07802 0.0
C2427 C 0.65298 0.68696 0.03602 0.0
C2428 C 0.66691 0.72549 0.04753 0.0
H2429 H 0.68135 0.74351 0.08474 0.0
C2430 C 0.66224 0.73425 0.04067 0.0
C2431 C 0.67419 0.72906 0.06342 0.0
C2432 C 0.68015 0.72049 0.07099 0.0
C2433 C 0.66432 0.74628 0.04951 0.0
C2434 C 0.67106 0.74949 0.06573 0.0
C2435 C 0.67607 0.74095 0.07237 0.0
C2436 C 0.67288 0.76156 0.07612 0.0
C2437 C 0.65942 0.75552 0.04134 0.0
C2438 C 0.68675 0.77252 0.08121 0.0
C2439 C 0.68847 0.78372 0.09139 0.0
C2440 C 0.67632 0.78411 0.09679 0.0
C2441 C 0.66243 0.77305 0.09171 0.0
C2442 C 0.66074 0.76187 0.08153 0.0
H2443 H 0.65823 0.75399 0.02734 0.0
H2444 H 0.64871 0.7526 0.04651 0.0
H2445 H 0.66717 0.767 0.04409 0.0
H2446 H 0.69625 0.77241 0.07729 0.0
H2447 H 0.69929 0.79196 0.09526 0.0
H2448 H 0.30584 0.9876 0.02968 0.0
H2449 H 0.28089 0.97869 0.03861 0.0
H2450 H 0.27895 0.94186 0.06119 0.0
H2451 H 0.3035 0.95037 0.0519 0.0
H2452 H 0.25464 0.93454 0.04374 0.0
H2453 H 0.26879 0.98036 0.08655 0.0
H2454 H 0.27364 0.98476 0.06464 0.0
H2455 H 0.28237 0.97769 0.07727 0.0
C2456 C 0.30005 0.97757 0.03648 0.0
C2457 C 0.30668 0.96973 0.04014 0.0
C2458 C 0.28583 0.97255 0.04167 0.0
C2459 C 0.27813 0.95972 0.0508 0.0
C2460 C 0.28467 0.95179 0.05416 0.0
H2461 H 0.21426 0.925 0.12528 0.0
H2462 H 0.23525 0.93926 0.10738 0.0
C2463 C 0.29875 0.95669 0.04885 0.0
C2464 C 0.26333 0.95441 0.05724 0.0
H2465 H 0.24457 0.96144 0.08624 0.0
C2466 C 0.25235 0.94048 0.05288 0.0
C2467 C 0.26043 0.96219 0.06919 0.0
C2468 C 0.27192 0.97704 0.07484 0.0
C2469 C 0.23883 0.93376 0.06085 0.0
C2470 C 0.23603 0.94141 0.07312 0.0
C2471 C 0.24673 0.95564 0.07677 0.0
C2472 C 0.22293 0.93424 0.0839 0.0
C2473 C 0.22809 0.91824 0.05686 0.0
C2474 C 0.20893 0.92709 0.07678 0.0
C2475 C 0.19688 0.91859 0.08697 0.0
C2476 C 0.19862 0.9173 0.10452 0.0
C2477 C 0.21256 0.92541 0.11175 0.0
C2478 C 0.22457 0.93372 0.10155 0.0
H2479 H 0.23315 0.91319 0.04989 0.0
H2480 H 0.22325 0.91207 0.06869 0.0
H2481 H 0.21924 0.91742 0.04877 0.0
H2482 H 0.20737 0.92765 0.06326 0.0
H2483 H 0.18632 0.91252 0.08096 0.0
H2484 H 0.33134 0.0361 0.03284 0.0
H2485 H 0.32802 0.05383 0.01801 0.0
H2486 H 0.35464 0.05481 0.97698 0.0
H2487 H 0.35816 0.03719 0.99175 0.0
H2488 H 0.36055 0.08213 0.98718 0.0
H2489 H 0.30187 0.04398 0.97546 0.0
H2490 H 0.30753 0.04573 0.99731 0.0
H2491 H 0.31406 0.03827 0.98211 0.0
C2492 C 0.33659 0.04016 0.02072 0.0
C2493 C 0.34493 0.03514 0.01342 0.0
C2494 C 0.33461 0.05023 0.01223 0.0
C2495 C 0.34089 0.05543 0.99628 0.0
C2496 C 0.34965 0.05086 0.98925 0.0
H2497 H 0.31814 0.09662 0.9189 0.0
H2498 H 0.32287 0.0807 0.93575 0.0
C2499 C 0.35163 0.04078 0.99771 0.0
C2500 C 0.33807 0.06539 0.9867 0.0
H2501 H 0.31119 0.06796 0.96727 0.0
C2502 C 0.34977 0.07906 0.98285 0.0
C2503 C 0.324 0.06126 0.98088 0.0
C2504 C 0.31114 0.04647 0.98399 0.0
C2505 C 0.34776 0.08879 0.97342 0.0
C2506 C 0.33365 0.08476 0.96789 0.0
C2507 C 0.32197 0.07105 0.97164 0.0
C2508 C 0.3308 0.09449 0.95782 0.0
C2509 C 0.36078 0.10318 0.96912 0.0
C2510 C 0.33352 0.10743 0.96474 0.0
C2511 C 0.33076 0.11653 0.95518 0.0
C2512 C 0.32515 0.1128 0.93854 0.0
C2513 C 0.3223 0.09974 0.93173 0.0
C2514 C 0.32506 0.09066 0.94131 0.0
H2515 H 0.37106 0.10333 0.97079 0.0
H2516 H 0.36009 0.1062 0.95581 0.0
H2517 H 0.36116 0.11139 0.97766 0.0
H2518 H 0.33766 0.11044 0.9776 0.0
H2519 H 0.33284 0.12639 0.96091 0.0
H2520 H 0.94047 0.30842 0.99383 0.0
H2521 H 0.93044 0.28451 0.98219 0.0
H2522 H 0.97189 0.28817 0.98829 0.0
H2523 H 0.98215 0.31232 0.99977 0.0
H2524 H 0.96013 0.27904 0.95639 0.0
H2525 H 0.91923 0.24699 0.00499 0.0
H2526 H 0.91751 0.26148 0.99749 0.0
H2527 H 0.93368 0.26519 0.00876 0.0
C2528 C 0.94744 0.30411 0.99293 0.0
C2529 C 0.96212 0.31231 0.99775 0.0
C2530 C 0.94165 0.29037 0.98637 0.0
C2531 C 0.95035 0.28447 0.98463 0.0
C2532 C 0.96496 0.2925 0.98965 0.0
H2533 H 0.92406 0.2032 0.93239 0.0
H2534 H 0.93835 0.22496 0.94944 0.0
C2535 C 0.97079 0.30629 0.99623 0.0
C2536 C 0.94435 0.27034 0.97638 0.0
H2537 H 0.91557 0.23603 0.9774 0.0
C2538 C 0.95056 0.26955 0.96114 0.0
C2539 C 0.93191 0.25796 0.98265 0.0
C2540 C 0.92529 0.25789 0.99947 0.0
C2541 C 0.94413 0.25692 0.9515 0.0
C2542 C 0.93125 0.24481 0.95734 0.0
C2543 C 0.92541 0.2454 0.97293 0.0
C2544 C 0.92299 0.23182 0.9468 0.0
C2545 C 0.95069 0.25678 0.93473 0.0
C2546 C 0.90967 0.22854 0.93972 0.0
C2547 C 0.90157 0.21625 0.92992 0.0
C2548 C 0.90655 0.20689 0.92712 0.0
C2549 C 0.91999 0.21026 0.93415 0.0
C2550 C 0.92814 0.22264 0.94394 0.0
H2551 H 0.95981 0.26753 0.93114 0.0
H2552 H 0.95481 0.24941 0.93555 0.0
H2553 H 0.94234 0.25278 0.9245 0.0
H2554 H 0.90558 0.23556 0.94174 0.0
H2555 H 0.89142 0.21414 0.92444 0.0
H2556 H 0.69642 0.67655 0.99984 0.0
H2557 H 0.7217 0.69096 0.99069 0.0
H2558 H 0.71593 0.65577 0.96013 0.0
H2559 H 0.69097 0.64125 0.96955 0.0
H2560 H 0.73995 0.66683 0.97933 0.0
H2561 H 0.7381 0.71038 0.9455 0.0
H2562 H 0.73238 0.70784 0.96726 0.0
H2563 H 0.72194 0.69407 0.95188 0.0
C2564 C 0.70055 0.67193 0.9911 0.0
C2565 C 0.69171 0.65774 0.98547 0.0
C2566 C 0.71495 0.68021 0.98579 0.0
C2567 C 0.72065 0.6745 0.97458 0.0
C2568 C 0.71177 0.6604 0.96881 0.0
H2569 H 0.7935 0.70826 0.90931 0.0
H2570 H 0.77068 0.70135 0.92337 0.0
C2571 C 0.69749 0.65211 0.97422 0.0
C2572 C 0.73602 0.68277 0.96927 0.0
H2573 H 0.76079 0.71216 0.94706 0.0
C2574 C 0.74454 0.6768 0.97237 0.0
C2575 C 0.74194 0.69572 0.96011 0.0
C2576 C 0.73311 0.70236 0.95583 0.0
C2577 C 0.75864 0.68311 0.96608 0.0
C2578 C 0.76461 0.69609 0.95694 0.0
C2579 C 0.75624 0.7023 0.95422 0.0
C2580 C 0.77901 0.7026 0.94885 0.0
C2581 C 0.76668 0.67538 0.96856 0.0
C2582 C 0.79143 0.70621 0.95853 0.0
C2583 C 0.80439 0.70994 0.9505 0.0
C2584 C 0.80523 0.71046 0.93269 0.0
C2585 C 0.79313 0.70799 0.92307 0.0
C2586 C 0.78011 0.70403 0.93109 0.0
H2587 H 0.75929 0.66401 0.9721 0.0
H2588 H 0.77249 0.67575 0.95683 0.0
H2589 H 0.77476 0.68059 0.97897 0.0
H2590 H 0.79093 0.70556 0.97227 0.0
H2591 H 0.81365 0.71197 0.95818 0.0
H2592 H 0.97392 0.64864 0.98533 0.0
H2593 H 0.95712 0.65446 0.97205 0.0
H2594 H 0.96574 0.68469 0.01206 0.0
H2595 H 0.98265 0.67904 0.02541 0.0
H2596 H 0.93199 0.65392 0.98463 0.0
H2597 H 0.97673 0.70851 0.9676 0.0
H2598 H 0.9799 0.69459 0.9742 0.0
H2599 H 0.97578 0.7039 0.9897 0.0
C2600 C 0.97213 0.65641 0.99143 0.0
C2601 C 0.97974 0.66348 0.00635 0.0
C2602 C 0.96252 0.65971 0.98382 0.0
C2603 C 0.9604 0.67018 0.99093 0.0
C2604 C 0.96743 0.67675 0.00624 0.0
H2605 H 0.89632 0.69122 0.95931 0.0
H2606 H 0.91099 0.68413 0.97543 0.0
C2607 C 0.97703 0.67345 0.01389 0.0
C2608 C 0.95133 0.67462 0.98189 0.0
H2609 H 0.95294 0.70275 0.96106 0.0
C2610 C 0.93653 0.6646 0.97952 0.0
C2611 C 0.95737 0.6885 0.97504 0.0
C2612 C 0.97334 0.69949 0.9766 0.0
C2613 C 0.92755 0.66815 0.97056 0.0
C2614 C 0.93355 0.68211 0.96397 0.0
C2615 C 0.94837 0.69209 0.96625 0.0
C2616 C 0.9247 0.68649 0.95429 0.0
C2617 C 0.91181 0.65685 0.96789 0.0
C2618 C 0.92778 0.69048 0.93718 0.0
C2619 C 0.91941 0.69451 0.92791 0.0
C2620 C 0.90784 0.6947 0.93563 0.0
C2621 C 0.90497 0.69093 0.95289 0.0
C2622 C 0.91334 0.68689 0.96213 0.0
H2623 H 0.90967 0.64595 0.97038 0.0
H2624 H 0.90511 0.65883 0.97673 0.0
H2625 H 0.90827 0.65724 0.95471 0.0
H2626 H 0.93654 0.69027 0.93092 0.0
H2627 H 0.92181 0.69718 0.91461 0.0
H2628 H 0.33439 0.30888 0.02224 0.0
H2629 H 0.33055 0.28746 0.0078 0.0
H2630 H 0.34912 0.31186 0.9621 0.0
H2631 H 0.3529 0.33331 0.97636 0.0
H2632 H 0.32275 0.28604 0.95678 0.0
H2633 H 0.36135 0.27797 0.99486 0.0
H2634 H 0.34842 0.27966 0.00715 0.0
H2635 H 0.36167 0.29458 0.99492 0.0
C2636 C 0.33775 0.30972 0.00915 0.0
C2637 C 0.34399 0.32283 0.00047 0.0
C2638 C 0.3356 0.29748 0.00094 0.0
C2639 C 0.33971 0.29812 0.98395 0.0
C2640 C 0.34592 0.31116 0.97525 0.0
H2641 H 0.34691 0.2349 0.9265 0.0
H2642 H 0.35114 0.25633 0.94128 0.0
C2643 C 0.3481 0.32341 0.98343 0.0
C2644 C 0.33715 0.28511 0.97506 0.0
H2645 H 0.34599 0.25946 0.97562 0.0
C2646 C 0.32784 0.28023 0.96086 0.0
C2647 C 0.34393 0.27765 0.98034 0.0
C2648 C 0.35451 0.28277 0.99505 0.0
C2649 C 0.32498 0.26798 0.95191 0.0
C2650 C 0.33148 0.26032 0.95744 0.0
C2651 C 0.34093 0.2653 0.97151 0.0
C2652 C 0.32881 0.24725 0.94861 0.0
C2653 C 0.31524 0.26346 0.93642 0.0
C2654 C 0.31487 0.23499 0.94802 0.0
C2655 C 0.31242 0.22269 0.93966 0.0
C2656 C 0.3239 0.22241 0.93182 0.0
C2657 C 0.33787 0.2347 0.93258 0.0
C2658 C 0.3403 0.24697 0.94095 0.0
H2659 H 0.31396 0.27225 0.93154 0.0
H2660 H 0.31954 0.25988 0.92609 0.0
H2661 H 0.30435 0.25439 0.93982 0.0
H2662 H 0.30591 0.2349 0.95415 0.0
H2663 H 0.30159 0.21334 0.93956 0.0
H2664 H 0.69238 0.01067 0.98999 0.0
H2665 H 0.71642 0.01832 0.97873 0.0
H2666 H 0.72864 0.06235 0.98361 0.0
H2667 H 0.70477 0.05487 0.99475 0.0
H2668 H 0.72707 0.03482 0.94855 0.0
H2669 H 0.76406 0.06208 0.00302 0.0
H2670 H 0.74495 0.04927 0.00559 0.0
H2671 H 0.75114 0.06748 1.0 0.0
C2672 C 0.7003 0.02198 0.98898 0.0
C2673 C 0.69666 0.03217 0.99318 0.0
C2674 C 0.714 0.02632 0.98254 0.0
C2675 C 0.72434 0.04089 0.98054 0.0
C2676 C 0.72091 0.05106 0.98536 0.0
H2677 H 0.78695 0.09586 0.9134 0.0
H2678 H 0.76561 0.0786 0.92935 0.0
C2679 C 0.70721 0.04676 0.9916 0.0
C2680 C 0.73812 0.04564 0.97167 0.0
H2681 H 0.77448 0.06947 0.97501 0.0
C2682 C 0.73749 0.04211 0.95444 0.0
C2683 C 0.7517 0.05503 0.9794 0.0
C2684 C 0.75305 0.05858 0.99808 0.0
C2685 C 0.74997 0.04863 0.9444 0.0
C2686 C 0.76333 0.05895 0.95182 0.0
C2687 C 0.76417 0.06162 0.96934 0.0
C2688 C 0.77603 0.06844 0.94126 0.0
C2689 C 0.74867 0.04493 0.92577 0.0
C2690 C 0.78896 0.06844 0.94274 0.0
C2691 C 0.80118 0.07828 0.93354 0.0
C2692 C 0.80067 0.08841 0.92306 0.0
C2693 C 0.78765 0.08822 0.92148 0.0
C2694 C 0.77544 0.07831 0.93047 0.0
H2695 H 0.73896 0.03425 0.92311 0.0
H2696 H 0.74762 0.05296 0.91835 0.0
H2697 H 0.75845 0.04507 0.92131 0.0
H2698 H 0.78962 0.06095 0.95114 0.0
H2699 H 0.81115 0.07829 0.93503 0.0
H2700 H 0.6465 0.96874 0.04167 0.0
H2701 H 0.65025 0.95128 0.05631 0.0
H2702 H 0.66703 0.9443 0.01028 0.0
H2703 H 0.66365 0.96206 0.99559 0.0
H2704 H 0.63978 0.92302 0.05069 0.0
H2705 H 0.69962 0.95436 0.04388 0.0
H2706 H 0.68851 0.96176 0.03918 0.0
H2707 H 0.68978 0.95018 0.02414 0.0
C2708 C 0.65091 0.96345 0.0346 0.0
C2709 C 0.65491 0.9669 0.01749 0.0
C2710 C 0.65305 0.95346 0.043 0.0
C2711 C 0.6592 0.94671 0.0345 0.0
C2712 C 0.66262 0.94966 0.01722 0.0
H2713 H 0.68029 0.88453 0.07206 0.0
H2714 H 0.67581 0.9 0.05386 0.0
C2715 C 0.66057 0.95973 0.00881 0.0
C2716 C 0.66217 0.93674 0.04388 0.0
H2717 H 0.68939 0.93162 0.05669 0.0
C2718 C 0.65062 0.92489 0.05197 0.0
C2719 C 0.67635 0.93922 0.04557 0.0
C2720 C 0.68931 0.95213 0.03787 0.0
C2721 C 0.65286 0.91548 0.06174 0.0
C2722 C 0.66703 0.91805 0.06354 0.0
C2723 C 0.67854 0.92971 0.05522 0.0
C2724 C 0.67015 0.90901 0.07456 0.0
C2725 C 0.64008 0.90284 0.07007 0.0
C2726 C 0.66874 0.90924 0.09223 0.0
C2727 C 0.67147 0.90058 0.10269 0.0
C2728 C 0.67562 0.89148 0.09567 0.0
C2729 C 0.67727 0.89151 0.07793 0.0
C2730 C 0.67462 0.90025 0.06749 0.0
H2731 H 0.62962 0.90065 0.06457 0.0
H2732 H 0.64072 0.89312 0.06875 0.0
H2733 H 0.64018 0.90505 0.08384 0.0
H2734 H 0.66554 0.91613 0.09793 0.0
H2735 H 0.67038 0.90106 0.1163 0.0
H2736 H 0.02587 0.69814 0.02163 0.0
H2737 H 0.03503 0.72234 0.03227 0.0
H2738 H 0.07812 0.72951 0.03539 0.0
H2739 H 0.06916 0.7055 0.02459 0.0
H2740 H 0.04764 0.73194 0.06352 0.0
H2741 H 0.08567 0.7663 0.01364 0.0
H2742 H 0.07213 0.74772 0.01003 0.0
H2743 H 0.08903 0.75266 0.02036 0.0
C2744 C 0.03735 0.70496 0.02427 0.0
C2745 C 0.04678 0.69986 0.0223 0.0
C2746 C 0.04255 0.71879 0.03036 0.0
C2747 C 0.05728 0.72779 0.03441 0.0
C2748 C 0.06678 0.72287 0.03197 0.0
H2749 H 0.11473 0.79932 0.09378 0.0
H2750 H 0.10184 0.77889 0.07464 0.0
C2751 C 0.0616 0.70908 0.0259 0.0
C2752 C 0.06256 0.74174 0.04284 0.0
H2753 H 0.08943 0.77691 0.0415 0.0
C2754 C 0.05658 0.74184 0.05855 0.0
C2755 C 0.0742 0.75464 0.03631 0.0
C2756 C 0.08053 0.75537 0.01907 0.0
C2757 C 0.06251 0.75431 0.06842 0.0
C2758 C 0.07461 0.76704 0.06226 0.0
C2759 C 0.08018 0.7671 0.0462 0.0
C2760 C 0.08248 0.77998 0.07301 0.0
C2761 C 0.05631 0.7536 0.08575 0.0
C2762 C 0.07594 0.78751 0.07819 0.0
C2763 C 0.08327 0.79917 0.08925 0.0
C2764 C 0.09723 0.80345 0.09528 0.0
C2765 C 0.10387 0.79612 0.08962 0.0
C2766 C 0.09658 0.78452 0.07857 0.0
H2767 H 0.04847 0.74244 0.08971 0.0
H2768 H 0.06509 0.75867 0.09545 0.0
H2769 H 0.05059 0.75954 0.08551 0.0
H2770 H 0.06512 0.78425 0.07386 0.0
H2771 H 0.07787 0.80461 0.0934 0.0
H2772 H 0.31159 0.37145 0.04797 0.0
H2773 H 0.28685 0.35714 0.05806 0.0
H2774 H 0.28132 0.32058 0.03077 0.0
H2775 H 0.30641 0.33482 0.0209 0.0
H2776 H 0.26155 0.34353 0.04044 0.0
H2777 H 0.26854 0.30464 0.07839 0.0
H2778 H 0.2837 0.32083 0.07003 0.0
H2779 H 0.27295 0.30584 0.05625 0.0
C2780 C 0.30517 0.36037 0.04407 0.0
C2781 C 0.31102 0.35427 0.03367 0.0
C2782 C 0.29099 0.3522 0.04985 0.0
C2783 C 0.28228 0.33775 0.04534 0.0
C2784 C 0.28794 0.33164 0.03469 0.0
H2785 H 0.19094 0.29902 0.07447 0.0
H2786 H 0.21188 0.30476 0.05706 0.0
C2787 C 0.30224 0.33981 0.02897 0.0
C2788 C 0.26732 0.32935 0.05196 0.0
H2789 H 0.2457 0.30231 0.07914 0.0
C2790 C 0.258 0.3344 0.04875 0.0
C2791 C 0.26277 0.3175 0.06286 0.0
C2792 C 0.27251 0.3119 0.06724 0.0
C2793 C 0.24454 0.3284 0.05675 0.0
C2794 C 0.24007 0.31669 0.06789 0.0
C2795 C 0.24912 0.31122 0.07052 0.0
C2796 C 0.22684 0.31105 0.07831 0.0
C2797 C 0.23566 0.33524 0.05399 0.0
C2798 C 0.2281 0.31185 0.09609 0.0
C2799 C 0.21609 0.30825 0.1061 0.0
C2800 C 0.20257 0.30388 0.09854 0.0
C2801 C 0.20116 0.30233 0.08075 0.0
C2802 C 0.21317 0.30578 0.07074 0.0
H2803 H 0.24211 0.34599 0.04814 0.0
H2804 H 0.22646 0.32844 0.04531 0.0
H2805 H 0.23122 0.3363 0.06617 0.0
H2806 H 0.23851 0.31576 0.10222 0.0
H2807 H 0.2175 0.30921 0.11978 0.0
H2808 H 0.6855 0.66044 0.33733 0.0
H2809 H 0.70275 0.65529 0.35077 0.0
H2810 H 0.70881 0.68355 0.3922 0.0
H2811 H 0.69167 0.68887 0.37883 0.0
H2812 H 0.73492 0.68608 0.38011 0.0
H2813 H 0.69191 0.62992 0.39379 0.0
H2814 H 0.6932 0.63528 0.37195 0.0
H2815 H 0.68789 0.64338 0.38777 0.0
C2816 C 0.69061 0.66569 0.34921 0.0
C2817 C 0.68711 0.67498 0.35708 0.0
C2818 C 0.7004 0.66267 0.35691 0.0
C2819 C 0.70684 0.66885 0.37261 0.0
C2820 C 0.70388 0.67861 0.38012 0.0
H2821 H 0.74621 0.64191 0.44792 0.0
H2822 H 0.7311 0.64843 0.43178 0.0
C2823 C 0.69407 0.68162 0.37246 0.0
C2824 C 0.71626 0.66478 0.38154 0.0
H2825 H 0.71594 0.63672 0.40086 0.0
C2826 C 0.73081 0.67529 0.38461 0.0
C2827 C 0.71077 0.65073 0.38758 0.0
C2828 C 0.69507 0.63917 0.38527 0.0
C2829 C 0.74008 0.67208 0.3935 0.0
C2830 C 0.73465 0.65797 0.39928 0.0
C2831 C 0.72008 0.64749 0.39629 0.0
C2832 C 0.74381 0.65393 0.40887 0.0
C2833 C 0.7555 0.68388 0.39696 0.0
C2834 C 0.75583 0.65465 0.40123 0.0
C2835 C 0.76444 0.65084 0.41038 0.0
C2836 C 0.76114 0.64617 0.42733 0.0
C2837 C 0.74896 0.64529 0.43484 0.0
C2838 C 0.74036 0.64909 0.42567 0.0
H2839 H 0.75703 0.69461 0.39509 0.0
H2840 H 0.75883 0.68316 0.41014 0.0
H2841 H 0.7628 0.6828 0.38811 0.0
H2842 H 0.7585 0.65808 0.38815 0.0
H2843 H 0.77359 0.65141 0.40411 0.0
H2844 H 0.35291 0.02712 0.37722 0.0
H2845 H 0.35568 0.04885 0.38958 0.0
H2846 H 0.31071 0.03333 0.37901 0.0
H2847 H 0.3078 0.01156 0.36654 0.0
H2848 H 0.34827 0.06925 0.37339 0.0
H2849 H 0.31739 0.04219 0.43187 0.0
H2850 H 0.32536 0.0347 0.41866 0.0
H2851 H 0.3091 0.03393 0.41186 0.0
C2852 C 0.34361 0.02833 0.37745 0.0
C2853 C 0.33011 0.01757 0.37097 0.0
C2854 C 0.34523 0.04077 0.38449 0.0
C2855 C 0.33337 0.04259 0.38533 0.0
C2856 C 0.31995 0.03202 0.3786 0.0
H2857 H 0.31984 0.10555 0.43356 0.0
H2858 H 0.31726 0.08491 0.41841 0.0
C2859 C 0.31833 0.01962 0.37145 0.0
C2860 C 0.33496 0.05544 0.39352 0.0
H2861 H 0.32529 0.06654 0.42867 0.0
C2862 C 0.34328 0.06871 0.38548 0.0
C2863 C 0.32838 0.05462 0.40925 0.0
C2864 C 0.31962 0.04064 0.41855 0.0
C2865 C 0.34502 0.08121 0.39267 0.0
C2866 C 0.33856 0.08043 0.40853 0.0
C2867 C 0.33023 0.06712 0.41653 0.0
C2868 C 0.34028 0.09325 0.41712 0.0
C2869 C 0.35346 0.09506 0.38302 0.0
C2870 C 0.35408 0.10477 0.42152 0.0
C2871 C 0.35559 0.11661 0.43013 0.0
C2872 C 0.3433 0.11704 0.43471 0.0
C2873 C 0.3295 0.10547 0.43034 0.0
C2874 C 0.32801 0.0937 0.42163 0.0
H2875 H 0.35398 0.09317 0.36925 0.0
H2876 H 0.34859 0.10173 0.3845 0.0
H2877 H 0.36472 0.10115 0.38804 0.0
H2878 H 0.36369 0.10451 0.41859 0.0
H2879 H 0.36635 0.12527 0.43355 0.0
H2880 H 0.96708 0.27968 0.36492 0.0
H2881 H 0.94326 0.27138 0.37677 0.0
H2882 H 0.95419 0.31497 0.38258 0.0
H2883 H 0.97806 0.32341 0.37028 0.0
H2884 H 0.93984 0.27761 0.40899 0.0
H2885 H 0.91285 0.29541 0.36352 0.0
H2886 H 0.92861 0.29468 0.358 0.0
H2887 H 0.93054 0.30915 0.37069 0.0
C2888 C 0.96436 0.28752 0.36846 0.0
C2889 C 0.97449 0.3022 0.36679 0.0
C2890 C 0.95072 0.28275 0.37519 0.0
C2891 C 0.94692 0.29255 0.3805 0.0
C2892 C 0.95679 0.30722 0.37829 0.0
H2893 H 0.88039 0.26505 0.45747 0.0
H2894 H 0.90237 0.28 0.44099 0.0
C2895 C 0.97045 0.31202 0.37135 0.0
C2896 C 0.93327 0.28727 0.38994 0.0
H2897 H 0.90062 0.28511 0.38939 0.0
C2898 C 0.93128 0.27928 0.40471 0.0
C2899 C 0.92212 0.28943 0.38428 0.0
C2900 C 0.92352 0.29753 0.36818 0.0
C2901 C 0.91837 0.27316 0.41385 0.0
C2902 C 0.90726 0.27545 0.40837 0.0
C2903 C 0.90925 0.28354 0.39366 0.0
C2904 C 0.89324 0.26872 0.41733 0.0
C2905 C 0.91658 0.26386 0.42897 0.0
C2906 C 0.88058 0.25808 0.40919 0.0
C2907 C 0.86795 0.24968 0.41853 0.0
C2908 C 0.8679 0.25177 0.43612 0.0
C2909 C 0.88025 0.26315 0.44395 0.0
C2910 C 0.89278 0.27165 0.43457 0.0
H2911 H 0.9246 0.26045 0.42896 0.0
H2912 H 0.9182 0.26996 0.44084 0.0
H2913 H 0.90554 0.25417 0.42917 0.0
H2914 H 0.88071 0.25568 0.39588 0.0
H2915 H 0.85857 0.24094 0.41224 0.0
H2916 H 0.02541 0.36706 0.31725 0.0
H2917 H 0.02337 0.38584 0.30326 0.0
H2918 H 0.00672 0.39286 0.34933 0.0
H2919 H 0.00869 0.37403 0.36352 0.0
H2920 H 0.99584 0.38505 0.30053 0.0
H2921 H 0.03968 0.43365 0.33315 0.0
H2922 H 0.03948 0.4171 0.33249 0.0
H2923 H 0.02741 0.41884 0.34632 0.0
C2924 C 0.02147 0.37269 0.32451 0.0
C2925 C 0.01718 0.36901 0.34151 0.0
C2926 C 0.0203 0.38341 0.31647 0.0
C2927 C 0.01498 0.39076 0.3253 0.0
C2928 C 0.01101 0.3874 0.34238 0.0
H2929 H -0.0001 0.45777 0.29107 0.0
H2930 H 0.00199 0.44026 0.30819 0.0
C2931 C 0.01211 0.37661 0.35043 0.0
C2932 C 0.01277 0.40132 0.31623 0.0
H2933 H 0.02532 0.43694 0.31312 0.0
C2934 C 0.00227 0.3964 0.30327 0.0
C2935 C 0.02108 0.41606 0.32 0.0
C2936 C 0.03263 0.42183 0.33367 0.0
C2937 C 0.99985 0.40587 0.2939 0.0
C2938 C 0.00846 0.42069 0.29729 0.0
C2939 C 0.01879 0.42558 0.3105 0.0
C2940 C 0.00717 0.43129 0.28694 0.0
C2941 C 0.98798 0.39986 0.28059 0.0
C2942 C 0.00956 0.43218 0.26937 0.0
C2943 C 0.0082 0.44204 0.25954 0.0
C2944 C 0.00461 0.45137 0.26711 0.0
C2945 C 0.00245 0.45061 0.28479 0.0
C2946 C 0.00375 0.44068 0.29461 0.0
H2947 H 0.97973 0.38848 0.28311 0.0
H2948 H 0.98248 0.40602 0.28001 0.0
H2949 H 0.99274 0.40045 0.26797 0.0
H2950 H 0.01249 0.42524 0.26323 0.0
H2951 H 0.00981 0.44222 0.24595 0.0
H2952 H 0.59788 0.63427 0.33297 0.0
H2953 H 0.58885 0.6109 0.32009 0.0
H2954 H 0.63126 0.6166 0.32465 0.0
H2955 H 0.64049 0.64011 0.33765 0.0
H2956 H 0.60222 0.60883 0.28883 0.0
H2957 H 0.60192 0.57442 0.34126 0.0
H2958 H 0.60107 0.59016 0.34527 0.0
H2959 H 0.61778 0.59198 0.3388 0.0
C2960 C 0.60527 0.6305 0.33154 0.0
C2961 C 0.61995 0.63913 0.33623 0.0
C2962 C 0.60007 0.61712 0.32419 0.0
C2963 C 0.60938 0.61204 0.32149 0.0
C2964 C 0.62388 0.62029 0.32683 0.0
H2965 H 0.5899 0.53564 0.26325 0.0
H2966 H 0.60227 0.55688 0.28161 0.0
C2967 C 0.62913 0.63373 0.3342 0.0
C2968 C 0.60415 0.59884 0.31145 0.0
H2969 H 0.59417 0.5638 0.31414 0.0
C2970 C 0.60053 0.599 0.29433 0.0
C2971 C 0.60215 0.58613 0.31865 0.0
C2972 C 0.60585 0.58551 0.33703 0.0
C2973 C 0.59464 0.58668 0.28427 0.0
C2974 C 0.59202 0.57378 0.29164 0.0
C2975 C 0.59613 0.57371 0.3086 0.0
C2976 C 0.58426 0.5602 0.28204 0.0
C2977 C 0.59118 0.58755 0.26584 0.0
C2978 C 0.56993 0.55484 0.27671 0.0
C2979 C 0.5629 0.5428 0.26629 0.0
C2980 C 0.57002 0.53583 0.26105 0.0
C2981 C 0.58415 0.5408 0.2671 0.0
C2982 C 0.59122 0.55292 0.27753 0.0
H2983 H 0.59738 0.5987 0.26106 0.0
H2984 H 0.59359 0.5808 0.25774 0.0
H2985 H 0.57947 0.58365 0.26451 0.0
H2986 H 0.56429 0.56016 0.28033 0.0
H2987 H 0.5519 0.53904 0.26215 0.0
H2988 H 0.35166 0.96035 0.32245 0.0
H2989 H 0.37534 0.97122 0.30922 0.0
H2990 H 0.38062 0.01282 0.31392 0.0
H2991 H 0.35687 0.002 0.32753 0.0
H2992 H 0.38313 0.98639 0.27924 0.0
H2993 H 0.41916 0.01928 0.33255 0.0
H2994 H 0.40056 0.00524 0.33571 0.0
H2995 H 0.4047 0.02214 0.32716 0.0
C2996 C 0.35787 0.97183 0.32084 0.0
C2997 C 0.35235 0.9803 0.32602 0.0
C2998 C 0.37142 0.97803 0.31326 0.0
C2999 C 0.37977 0.99282 0.31067 0.0
C3000 C 0.37444 0.0014 0.31604 0.0
H3001 H 0.45202 0.02612 0.2392 0.0
H3002 H 0.4304 0.02202 0.25397 0.0
C3003 C 0.36085 0.99519 0.32375 0.0
C3004 C 0.39369 0.99897 0.30157 0.0
H3005 H 0.43032 0.02067 0.30637 0.0
C3006 C 0.39346 0.99397 0.28511 0.0
C3007 C 0.40711 0.00877 0.30934 0.0
C3008 C 0.408 0.01413 0.32721 0.0
C3009 C 0.40629 0.99822 0.27633 0.0
C3010 C 0.41974 0.00801 0.28409 0.0
C3011 C 0.41998 0.01325 0.30043 0.0
C3012 C 0.43364 0.01205 0.27592 0.0
C3013 C 0.40534 0.99169 0.25914 0.0
C3014 C 0.44295 0.00836 0.2837 0.0
C3015 C 0.45543 0.01088 0.27542 0.0
C3016 C 0.45883 0.01713 0.25917 0.0
C3017 C 0.44977 0.02134 0.25172 0.0
C3018 C 0.43733 0.01888 0.26007 0.0
H3019 H 0.39449 0.98203 0.25677 0.0
H3020 H 0.40731 0.9996 0.24909 0.0
H3021 H 0.41363 0.9887 0.25797 0.0
H3022 H 0.44035 0.00316 0.29599 0.0
H3023 H 0.46232 0.00779 0.28168 0.0
H3024 H 0.64132 0.00185 0.3602 0.0
H3025 H 0.62233 0.00395 0.34597 0.0
H3026 H 0.62246 0.97886 0.30401 0.0
H3027 H 0.64128 0.97654 0.3182 0.0
H3028 H 0.62523 0.01674 0.31481 0.0
H3029 H 0.57928 0.96059 0.31319 0.0
H3030 H 0.59482 0.96653 0.32699 0.0
H3031 H 0.59577 0.9629 0.30493 0.0
C3032 C 0.63715 0.99657 0.34808 0.0
C3033 C 0.64284 0.98904 0.34034 0.0
C3034 C 0.62631 0.9978 0.33995 0.0
C3035 C 0.62088 0.99144 0.32401 0.0
C3036 C 0.62628 0.98361 0.31645 0.0
H3037 H 0.58173 0.01507 0.24489 0.0
H3038 H 0.59735 0.0104 0.26288 0.0
C3039 C 0.63711 0.98237 0.32456 0.0
C3040 C 0.61046 0.99395 0.31467 0.0
H3041 H 0.5773 0.97704 0.29507 0.0
C3042 C 0.6147 0.00807 0.31062 0.0
C3043 C 0.59668 0.98263 0.30932 0.0
C3044 C 0.59128 0.96731 0.31396 0.0
C3045 C 0.6057 0.01115 0.30097 0.0
C3046 C 0.5922 0.9998 0.29505 0.0
C3047 C 0.58775 0.98571 0.29949 0.0
C3048 C 0.58261 0.00239 0.28409 0.0
C3049 C 0.6107 0.02653 0.29722 0.0
C3050 C 0.56904 0.99918 0.28997 0.0
C3051 C 0.56013 0.00193 0.27977 0.0
C3052 C 0.56457 0.00784 0.26343 0.0
C3053 C 0.57809 0.01079 0.25751 0.0
C3054 C 0.58701 0.00809 0.26775 0.0
H3055 H 0.6196 0.03398 0.30591 0.0
H3056 H 0.61477 0.02908 0.284 0.0
H3057 H 0.6016 0.0284 0.29833 0.0
H3058 H 0.56546 0.99477 0.30255 0.0
H3059 H 0.54987 0.99968 0.28482 0.0
H3060 H 0.99191 0.63485 0.35189 0.0
H3061 H 0.99064 0.61484 0.33658 0.0
H3062 H 0.02553 0.6444 0.30426 0.0
H3063 H 0.0269 0.66448 0.31946 0.0
H3064 H 0.98564 0.60961 0.30031 0.0
H3065 H 0.03788 0.61636 0.32206 0.0
H3066 H 0.02911 0.62414 0.33318 0.0
H3067 H 0.03887 0.63219 0.31399 0.0
C3068 C 0.99939 0.63711 0.34162 0.0
C3069 C 0.00952 0.65126 0.33691 0.0
C3070 C 0.99863 0.62567 0.33287 0.0
C3071 C 0.00808 0.62817 0.31942 0.0
C3072 C 0.01827 0.64226 0.31477 0.0
H3073 H 0.00161 0.57107 0.23921 0.0
H3074 H 0.00351 0.59077 0.25595 0.0
C3075 C 0.019 0.65371 0.32343 0.0
C3076 C 0.00691 0.61604 0.30981 0.0
H3077 H 0.02524 0.59944 0.30012 0.0
C3078 C 0.99427 0.60734 0.30028 0.0
C3079 C 0.01816 0.61309 0.30995 0.0
C3080 C 0.03174 0.62184 0.32044 0.0
C3081 C 0.99268 0.59588 0.29062 0.0
C3082 C 0.00406 0.59314 0.29043 0.0
C3083 C 0.0166 0.60167 0.3002 0.0
C3084 C 0.00307 0.58133 0.28029 0.0
C3085 C 0.97879 0.58669 0.2808 0.0
C3086 C 0.00245 0.56966 0.28846 0.0
C3087 C 0.00138 0.55841 0.27895 0.0
C3088 C 0.00107 0.55873 0.26109 0.0
C3089 C 0.00191 0.57056 0.25294 0.0
C3090 C 0.00288 0.58176 0.26248 0.0
H3091 H 0.97002 0.58839 0.28499 0.0
H3092 H 0.98073 0.58938 0.26709 0.0
H3093 H 0.97505 0.57521 0.28224 0.0
H3094 H 0.00267 0.5692 0.30221 0.0
H3095 H 0.00095 0.54954 0.28558 0.0
H3096 H 0.36258 0.38812 0.30377 0.0
H3097 H 0.38683 0.39754 0.29265 0.0
H3098 H 0.38838 0.36259 0.31554 0.0
H3099 H 0.36378 0.35277 0.3263 0.0
H3100 H 0.41222 0.4067 0.30821 0.0
H3101 H 0.39866 0.36023 0.26702 0.0
H3102 H 0.38496 0.36225 0.27714 0.0
H3103 H 0.39489 0.35614 0.28917 0.0
C3104 C 0.36805 0.38241 0.30649 0.0
C3105 C 0.3612 0.36963 0.31584 0.0
C3106 C 0.38194 0.38783 0.30012 0.0
C3107 C 0.38934 0.38066 0.30303 0.0
C3108 C 0.38273 0.36811 0.31279 0.0
H3109 H 0.48088 0.42825 0.27272 0.0
H3110 H 0.45939 0.41381 0.29001 0.0
C3111 C 0.36872 0.36257 0.31902 0.0
C3112 C 0.40394 0.38648 0.29567 0.0
H3113 H 0.42286 0.37942 0.26693 0.0
C3114 C 0.41461 0.40071 0.29929 0.0
C3115 C 0.40697 0.37864 0.28394 0.0
C3116 C 0.39575 0.36352 0.27893 0.0
C3117 C 0.42801 0.40753 0.29104 0.0
C3118 C 0.43103 0.39973 0.27924 0.0
C3119 C 0.42056 0.38533 0.27608 0.0
C3120 C 0.44433 0.40673 0.2688 0.0
C3121 C 0.43843 0.42324 0.29436 0.0
C3122 C 0.4431 0.40679 0.25103 0.0
C3123 C 0.45538 0.41471 0.24107 0.0
C3124 C 0.46917 0.42287 0.24866 0.0
C3125 C 0.47046 0.42211 0.26641 0.0
C3126 C 0.45815 0.41401 0.27636 0.0
H3127 H 0.43306 0.42832 0.30058 0.0
H3128 H 0.44724 0.42456 0.30293 0.0
H3129 H 0.44336 0.42903 0.28235 0.0
H3130 H 0.43255 0.40112 0.24489 0.0
H3131 H 0.45401 0.41473 0.22742 0.0
H3132 H 0.33361 0.30911 0.35051 0.0
H3133 H 0.33806 0.29164 0.36392 0.0
H3134 H 0.29392 0.26787 0.38127 0.0
H3135 H 0.28931 0.28532 0.36788 0.0
H3136 H 0.3341 0.28486 0.39992 0.0
H3137 H 0.30078 0.23745 0.35867 0.0
H3138 H 0.30677 0.25543 0.35186 0.0
H3139 H 0.29199 0.24641 0.3664 0.0
C3140 C 0.32477 0.30009 0.357 0.0
C3141 C 0.31109 0.29862 0.35813 0.0
C3142 C 0.32736 0.29013 0.36468 0.0
C3143 C 0.3163 0.27843 0.37345 0.0
C3144 C 0.30255 0.27674 0.37434 0.0
H3145 H 0.31172 0.2095 0.43256 0.0
H3146 H 0.30673 0.22561 0.41659 0.0
C3147 C 0.29996 0.28675 0.36674 0.0
C3148 C 0.31942 0.26848 0.3825 0.0
H3149 H 0.31126 0.23396 0.3833 0.0
C3150 C 0.32917 0.27374 0.39627 0.0
C3151 C 0.31288 0.25399 0.37773 0.0
C3152 C 0.30259 0.24794 0.36279 0.0
C3153 C 0.3324 0.26482 0.40561 0.0
C3154 C 0.32598 0.25033 0.40075 0.0
C3155 C 0.31621 0.24508 0.38697 0.0
C3156 C 0.32909 0.24041 0.41 0.0
C3157 C 0.34233 0.27091 0.42088 0.0
C3158 C 0.34329 0.24324 0.41134 0.0
C3159 C 0.34622 0.23416 0.42067 0.0
C3160 C 0.33497 0.22197 0.42871 0.0
C3161 C 0.32069 0.21894 0.42686 0.0
C3162 C 0.31779 0.22807 0.4176 0.0
H3163 H 0.34304 0.28079 0.42561 0.0
H3164 H 0.33861 0.26305 0.43142 0.0
H3165 H 0.35339 0.2737 0.41727 0.0
H3166 H 0.35214 0.25254 0.40526 0.0
H3167 H 0.35735 0.23687 0.42189 0.0
H3168 H 0.68949 0.02822 0.36134 0.0
H3169 H 0.69812 0.0527 0.37072 0.0
H3170 H 0.74197 0.06179 0.37187 0.0
H3171 H 0.73355 0.03755 0.36245 0.0
H3172 H 0.71265 0.06442 0.40132 0.0
H3173 H 0.74634 0.09664 0.34738 0.0
H3174 H 0.73292 0.07782 0.34546 0.0
H3175 H 0.75062 0.08362 0.35408 0.0
C3176 C 0.701 0.03552 0.36331 0.0
C3177 C 0.71084 0.03092 0.36117 0.0
C3178 C 0.7059 0.04949 0.36867 0.0
C3179 C 0.7207 0.05912 0.37173 0.0
C3180 C 0.73054 0.05464 0.3692 0.0
H3181 H 0.78172 0.13236 0.42403 0.0
H3182 H 0.76712 0.11148 0.40603 0.0
C3183 C 0.72568 0.04072 0.36395 0.0
C3184 C 0.72591 0.07341 0.37915 0.0
H3185 H 0.75212 0.10856 0.37468 0.0
C3186 C 0.72103 0.07415 0.39536 0.0
C3187 C 0.7368 0.08606 0.37129 0.0
C3188 C 0.74187 0.08603 0.35351 0.0
C3189 C 0.72753 0.08706 0.40445 0.0
C3190 C 0.73905 0.09954 0.397 0.0
C3191 C 0.74333 0.09895 0.38039 0.0
C3192 C 0.7479 0.11282 0.40694 0.0
C3193 C 0.72268 0.08706 0.42237 0.0
C3194 C 0.742 0.12066 0.41316 0.0
C3195 C 0.75033 0.1326 0.42357 0.0
C3196 C 0.76466 0.13683 0.42793 0.0
C3197 C 0.77064 0.12921 0.42117 0.0
C3198 C 0.76235 0.11735 0.41077 0.0
H3199 H 0.71509 0.07609 0.42712 0.0
H3200 H 0.73216 0.09238 0.43113 0.0
H3201 H 0.7171 0.09313 0.42276 0.0
H3202 H 0.73091 0.11743 0.41016 0.0
H3203 H 0.74543 0.13826 0.42861 0.0
H3204 H 0.97244 0.69895 0.37601 0.0
H3205 H 0.94834 0.68437 0.38795 0.0
H3206 H 0.94976 0.64636 0.37936 0.0
H3207 H 0.97402 0.66093 0.36712 0.0
H3208 H 0.9226 0.64365 0.37086 0.0
H3209 H 0.94173 0.66596 0.43535 0.0
H3210 H 0.94698 0.67959 0.41953 0.0
H3211 H 0.95394 0.66787 0.41864 0.0
C3212 C 0.96765 0.68749 0.37655 0.0
C3213 C 0.97524 0.68113 0.37078 0.0
C3214 C 0.95388 0.67918 0.38345 0.0
C3215 C 0.94743 0.66435 0.38487 0.0
C3216 C 0.95465 0.65783 0.37849 0.0
H3217 H 0.87232 0.62475 0.45155 0.0
H3218 H 0.89436 0.62905 0.43772 0.0
C3219 C 0.96849 0.66616 0.37151 0.0
C3220 C 0.93327 0.65589 0.39337 0.0
H3221 H 0.91619 0.65454 0.43012 0.0
C3222 C 0.92118 0.64583 0.3839 0.0
C3223 C 0.93152 0.6585 0.4105 0.0
C3224 C 0.94426 0.66846 0.42166 0.0
C3225 C 0.90721 0.63897 0.39082 0.0
C3226 C 0.90533 0.64252 0.40749 0.0
C3227 C 0.91757 0.65191 0.41727 0.0
C3228 C 0.89085 0.63767 0.41465 0.0
C3229 C 0.89461 0.62814 0.38013 0.0
C3230 C 0.88141 0.64086 0.40619 0.0
C3231 C 0.86872 0.63825 0.41396 0.0
C3232 C 0.8653 0.6326 0.43051 0.0
C3233 C 0.87452 0.62896 0.43874 0.0
C3234 C 0.88717 0.63148 0.43088 0.0
H3235 H 0.89809 0.62287 0.37095 0.0
H3236 H 0.88583 0.61982 0.3881 0.0
H3237 H 0.89019 0.63365 0.37269 0.0
H3238 H 0.88415 0.64596 0.39385 0.0
H3239 H 0.86176 0.64099 0.40716 0.0
H3240 H 0.35826 0.02509 0.71639 0.0
H3241 H 0.37567 0.02072 0.73081 0.0
H3242 H 0.37993 0.00163 0.6852 0.0
H3243 H 0.36247 0.00593 0.6706 0.0
H3244 H 0.37122 0.99198 0.73399 0.0
H3245 H 0.42257 0.03087 0.7017 0.0
H3246 H 0.40707 0.03292 0.70201 0.0
H3247 H 0.40706 0.01987 0.68836 0.0
C3248 C 0.36302 0.02013 0.70932 0.0
C3249 C 0.35894 0.01583 0.69233 0.0
C3250 C 0.37295 0.01763 0.71761 0.0
C3251 C 0.37912 0.01094 0.70903 0.0
C3252 C 0.3754 0.00696 0.69196 0.0
H3253 H 0.4393 0.98546 0.74323 0.0
H3254 H 0.42326 0.9903 0.72629 0.0
C3255 C 0.36539 0.00939 0.68367 0.0
C3256 C 0.38871 0.0073 0.71835 0.0
H3257 H 0.42364 0.01531 0.72165 0.0
C3258 C 0.38269 0.99708 0.73132 0.0
C3259 C 0.4036 0.01387 0.71468 0.0
C3260 C 0.41056 0.02507 0.70101 0.0
C3261 C 0.39118 0.99321 0.74075 0.0
C3262 C 0.40618 4e-05 0.7374 0.0
C3263 C 0.41215 0.01013 0.72423 0.0
C3264 C 0.41587 0.99708 0.74768 0.0
C3265 C 0.38393 0.98166 0.75401 0.0
C3266 C 0.41718 0.99944 0.76529 0.0
C3267 C 0.42617 0.99651 0.77503 0.0
C3268 C 0.43423 0.99133 0.76734 0.0
C3269 C 0.43307 0.9892 0.74962 0.0
C3270 C 0.42401 0.99208 0.73989 0.0
H3271 H 0.37213 0.97466 0.75147 0.0
H3272 H 0.3888 0.97493 0.75458 0.0
H3273 H 0.38529 0.98668 0.76666 0.0
H3274 H 0.41124 0.00357 0.77153 0.0
H3275 H 0.42667 0.99816 0.78864 0.0
H3276 H 0.01838 0.37033 0.68172 0.0
H3277 H 0.01963 0.39035 0.69689 0.0
H3278 H 0.97762 0.36182 0.71845 0.0
H3279 H 0.97646 0.34169 0.70372 0.0
H3280 H 0.00258 0.40156 0.69545 0.0
H3281 H 0.00127 0.38132 0.76047 0.0
H3282 H 0.00404 0.3735 0.74188 0.0
H3283 H 0.98607 0.36897 0.74762 0.0
C3284 C 0.00941 0.3683 0.68971 0.0
C3285 C 0.99738 0.35439 0.69163 0.0
C3286 C 0.01014 0.37976 0.69837 0.0
C3287 C 0.99886 0.37755 0.70908 0.0
C3288 C 0.98664 0.36373 0.71064 0.0
H3289 H 0.98029 0.43362 0.76561 0.0
H3290 H 0.9792 0.41386 0.74999 0.0
C3291 C 0.98596 0.35224 0.70211 0.0
C3292 C 0.9998 0.38972 0.71846 0.0
H3293 H 0.99856 0.40145 0.75822 0.0
C3294 C 0.00179 0.40157 0.70918 0.0
C3295 C 0.99883 0.38975 0.7364 0.0
C3296 C 0.99758 0.37777 0.7472 0.0
C3297 C 0.00257 0.41331 0.71733 0.0
C3298 C 0.00134 0.41318 0.73519 0.0
C3299 C 0.99941 0.40141 0.7445 0.0
C3300 C 0.00208 0.42523 0.74446 0.0
C3301 C 0.0045 0.42571 0.70686 0.0
C3302 C 0.01535 0.43809 0.7466 0.0
C3303 C 0.01607 0.44935 0.75574 0.0
C3304 C 0.00351 0.44795 0.76286 0.0
C3305 C 0.99022 0.43502 0.76057 0.0
C3306 C 0.98954 0.42374 0.75154 0.0
H3307 H 0.00336 0.42335 0.69302 0.0
H3308 H 0.99643 0.42853 0.71059 0.0
H3309 H 0.01543 0.43517 0.70933 0.0
H3310 H 0.02516 0.43934 0.74135 0.0
H3311 H 0.02652 0.45904 0.75747 0.0
H3312 H 0.64996 0.65908 0.70549 0.0
H3313 H 0.62602 0.65026 0.7178 0.0
H3314 H 0.62043 0.60866 0.72437 0.0
H3315 H 0.64432 0.61737 0.71242 0.0
H3316 H 0.59849 0.62808 0.70848 0.0
H3317 H 0.61388 0.61839 0.77209 0.0
H3318 H 0.62709 0.62878 0.75606 0.0
H3319 H 0.6176 0.60958 0.75555 0.0
C3320 C 0.64361 0.64804 0.70951 0.0
C3321 C 0.64912 0.63897 0.70815 0.0
C3322 C 0.62995 0.64303 0.71654 0.0
C3323 C 0.62161 0.6289 0.72233 0.0
C3324 C 0.62685 0.6197 0.72037 0.0
H3325 H 0.53193 0.57287 0.74211 0.0
H3326 H 0.55564 0.58834 0.7295 0.0
C3327 C 0.64049 0.6247 0.71345 0.0
C3328 C 0.60744 0.62366 0.73053 0.0
H3329 H 0.58846 0.607 0.76627 0.0
C3330 C 0.59632 0.62363 0.7212 0.0
C3331 C 0.60473 0.61817 0.74727 0.0
C3332 C 0.61651 0.61886 0.7584 0.0
C3333 C 0.58231 0.61754 0.72785 0.0
C3334 C 0.57934 0.61109 0.7441 0.0
C3335 C 0.59068 0.6118 0.75374 0.0
C3336 C 0.56446 0.60274 0.75102 0.0
C3337 C 0.57086 0.61806 0.71737 0.0
C3338 C 0.56153 0.60555 0.7674 0.0
C3339 C 0.54805 0.5965 0.77483 0.0
C3340 C 0.53725 0.58443 0.76601 0.0
C3341 C 0.54006 0.58196 0.74935 0.0
C3342 C 0.55355 0.59095 0.742 0.0
H3343 H 0.57576 0.62736 0.70862 0.0
H3344 H 0.565 0.60825 0.70948 0.0
H3345 H 0.56289 0.61867 0.72553 0.0
H3346 H 0.56983 0.61453 0.77466 0.0
H3347 H 0.54634 0.59863 0.78774 0.0
H3348 H 0.69772 0.7062 0.65661 0.0
H3349 H 0.69363 0.72358 0.64224 0.0
H3350 H 0.66675 0.72152 0.68359 0.0
H3351 H 0.67065 0.70401 0.69803 0.0
H3352 H 0.65403 0.71832 0.65152 0.0
H3353 H 0.70984 0.76576 0.65353 0.0
H3354 H 0.70865 0.75004 0.64496 0.0
H3355 H 0.70417 0.75032 0.66684 0.0
C3356 C 0.69107 0.70955 0.66277 0.0
C3357 C 0.68452 0.70372 0.67849 0.0
C3358 C 0.6888 0.71954 0.65456 0.0
C3359 C 0.68002 0.72395 0.66194 0.0
C3360 C 0.67362 0.7183 0.67772 0.0
H3361 H 0.67046 0.79369 0.62598 0.0
H3362 H 0.67481 0.77759 0.64302 0.0
C3363 C 0.6759 0.70832 0.68596 0.0
C3364 C 0.6769 0.73388 0.65277 0.0
H3365 H 0.69292 0.76724 0.63542 0.0
C3366 C 0.66252 0.72905 0.64808 0.0
C3367 C 0.68797 0.74791 0.64845 0.0
C3368 C 0.70351 0.7539 0.65383 0.0
C3369 C 0.65894 0.73777 0.63885 0.0
C3370 C 0.67008 0.75161 0.634 0.0
C3371 C 0.68442 0.75657 0.63902 0.0
C3372 C 0.66709 0.76115 0.62373 0.0
C3373 C 0.64326 0.73215 0.63451 0.0
C3374 C 0.66138 0.75728 0.6072 0.0
C3375 C 0.65895 0.76648 0.59739 0.0
C3376 C 0.66227 0.77979 0.6039 0.0
C3377 C 0.66796 0.7836 0.6205 0.0
C3378 C 0.67039 0.7744 0.63029 0.0
H3379 H 0.63584 0.72303 0.64276 0.0
H3380 H 0.64068 0.74066 0.63579 0.0
H3381 H 0.64113 0.72837 0.62114 0.0
H3382 H 0.65904 0.74723 0.60177 0.0
H3383 H 0.65478 0.76332 0.58456 0.0
H3384 H 0.31072 0.97816 0.6734 0.0
H3385 H 0.30067 0.95334 0.66445 0.0
H3386 H 0.25884 0.94851 0.65695 0.0
H3387 H 0.26866 0.97313 0.66601 0.0
H3388 H 0.25807 0.92483 0.67335 0.0
H3389 H 0.2906 0.94142 0.61402 0.0
H3390 H 0.30036 0.94796 0.63377 0.0
H3391 H 0.2885 0.95384 0.62676 0.0
C3392 C 0.29935 0.97177 0.67001 0.0
C3393 C 0.29052 0.97768 0.67027 0.0
C3394 C 0.29365 0.95761 0.66484 0.0
C3395 C 0.27907 0.94918 0.65982 0.0
C3396 C 0.27013 0.95487 0.66073 0.0
H3397 H 0.21591 0.87464 0.60985 0.0
H3398 H 0.23025 0.89546 0.62801 0.0
C3399 C 0.27579 0.96897 0.66587 0.0
C3400 C 0.27311 0.93465 0.65279 0.0
H3401 H 0.27347 0.91705 0.6173 0.0
C3402 C 0.26156 0.92307 0.66121 0.0
C3403 C 0.27775 0.9324 0.637 0.0
C3404 C 0.28992 0.94453 0.62723 0.0
C3405 C 0.25417 0.90937 0.65396 0.0
C3406 C 0.25829 0.90729 0.63774 0.0
C3407 C 0.27033 0.9187 0.62974 0.0
C3408 C 0.24936 0.89388 0.62803 0.0
C3409 C 0.24184 0.89731 0.66359 0.0
C3410 C 0.2554 0.88616 0.62182 0.0
C3411 C 0.24723 0.87429 0.61127 0.0
C3412 C 0.23298 0.87009 0.60659 0.0
C3413 C 0.22691 0.8777 0.61311 0.0
C3414 C 0.23503 0.88949 0.62366 0.0
H3415 H 0.24316 0.89931 0.67751 0.0
H3416 H 0.23153 0.89642 0.65963 0.0
H3417 H 0.24099 0.88697 0.66095 0.0
H3418 H 0.2665 0.88948 0.6249 0.0
H3419 H 0.25223 0.8687 0.60632 0.0
H3420 H 0.03193 0.34206 0.66336 0.0
H3421 H 0.05717 0.35541 0.65373 0.0
H3422 H 0.05508 0.31578 0.64378 0.0
H3423 H 0.03011 0.30243 0.6534 0.0
H3424 H 0.08096 0.33707 0.66099 0.0
H3425 H 0.06813 0.35763 0.60274 0.0
H3426 H 0.06273 0.36086 0.62296 0.0
H3427 H 0.05418 0.34298 0.61487 0.0
C3428 C 0.0369 0.33621 0.65925 0.0
C3429 C 0.02896 0.32117 0.65902 0.0
C3430 C 0.05128 0.34385 0.65369 0.0
C3431 C 0.0579 0.33656 0.64788 0.0
C3432 C 0.05015 0.3216 0.64819 0.0
H3433 H 0.12433 0.33653 0.59586 0.0
H3434 H 0.10472 0.3334 0.61399 0.0
C3435 C 0.03584 0.31399 0.65365 0.0
C3436 C 0.0727 0.34421 0.6408 0.0
H3437 H 0.09131 0.36097 0.60483 0.0
C3438 C 0.08334 0.34255 0.64887 0.0
C3439 C 0.07578 0.35142 0.62504 0.0
C3440 C 0.06464 0.35333 0.61577 0.0
C3441 C 0.09671 0.34724 0.64115 0.0
C3442 C 0.09939 0.35353 0.62485 0.0
C3443 C 0.08917 0.35609 0.61731 0.0
C3444 C 0.11182 0.35584 0.61458 0.0
C3445 C 0.10768 0.34498 0.65027 0.0
C3446 C 0.12219 0.36948 0.60865 0.0
C3447 C 0.13342 0.37129 0.59817 0.0
C3448 C 0.13427 0.35944 0.59325 0.0
C3449 C 0.12387 0.34583 0.59928 0.0
C3450 C 0.11276 0.34405 0.60981 0.0
H3451 H 0.10614 0.34443 0.66425 0.0
H3452 H 0.10632 0.33471 0.64607 0.0
H3453 H 0.11891 0.35367 0.64736 0.0
H3454 H 0.12154 0.37868 0.61206 0.0
H3455 H 0.14123 0.38189 0.5936 0.0
H3456 H 0.30939 0.33807 0.69102 0.0
H3457 H 0.29197 0.34186 0.67557 0.0
H3458 H 0.28915 0.3135 0.6359 0.0
H3459 H 0.30669 0.30977 0.65111 0.0
H3460 H 0.29471 0.33957 0.62387 0.0
H3461 H 0.24823 0.31601 0.66811 0.0
H3462 H 0.26523 0.32887 0.67777 0.0
H3463 H 0.26269 0.31241 0.66968 0.0
C3464 C 0.3049 0.33245 0.67914 0.0
C3465 C 0.30946 0.32364 0.67229 0.0
C3466 C 0.29489 0.33459 0.67036 0.0
C3467 C 0.28917 0.32787 0.65466 0.0
C3468 C 0.29341 0.31876 0.64802 0.0
H3469 H 0.22025 0.32564 0.59494 0.0
H3470 H 0.23543 0.31999 0.61238 0.0
C3471 C 0.30342 0.31663 0.65676 0.0
C3472 C 0.27961 0.33111 0.64456 0.0
H3473 H 0.24736 0.32971 0.64514 0.0
C3474 C 0.28433 0.33737 0.62849 0.0
C3475 C 0.26604 0.32813 0.65057 0.0
C3476 C 0.26015 0.32086 0.66741 0.0
C3477 C 0.27592 0.34089 0.61834 0.0
C3478 C 0.26253 0.33828 0.62454 0.0
C3479 C 0.2577 0.33184 0.64051 0.0
C3480 C 0.25325 0.34187 0.61443 0.0
C3481 C 0.28133 0.34715 0.60094 0.0
C3482 C 0.25817 0.35608 0.61002 0.0
C3483 C 0.24957 0.35934 0.59995 0.0
C3484 C 0.23587 0.34844 0.59415 0.0
C3485 C 0.23086 0.33425 0.59894 0.0
C3486 C 0.23946 0.33101 0.60901 0.0
H3487 H 0.2899 0.34526 0.59649 0.0
H3488 H 0.27233 0.34255 0.59147 0.0
H3489 H 0.28599 0.35886 0.60144 0.0
H3490 H 0.2687 0.36465 0.6143 0.0
H3491 H 0.25377 0.37036 0.59643 0.0
H3492 H 0.69302 0.99696 0.65643 0.0
H3493 H 0.69035 0.97583 0.64237 0.0
H3494 H 0.65157 0.94885 0.67087 0.0
H3495 H 0.65416 0.96987 0.68511 0.0
H3496 H 0.68643 0.94882 0.6603 0.0
H3497 H 0.64143 0.94063 0.61749 0.0
H3498 H 0.65414 0.95781 0.62679 0.0
H3499 H 0.64036 0.94396 0.63967 0.0
C3500 C 0.68395 0.98653 0.65977 0.0
C3501 C 0.67378 0.9851 0.67186 0.0
C3502 C 0.68246 0.97449 0.65175 0.0
C3503 C 0.67071 0.96085 0.65553 0.0
C3504 C 0.66066 0.95933 0.66774 0.0
H3505 H 0.6391 0.87743 0.61027 0.0
H3506 H 0.64202 0.89776 0.62654 0.0
C3507 C 0.66219 0.97135 0.67588 0.0
C3508 C 0.66887 0.9482 0.64652 0.0
H3509 H 0.64859 0.92379 0.61583 0.0
C3510 C 0.67818 0.94331 0.65056 0.0
C3511 C 0.65802 0.94106 0.63395 0.0
C3512 C 0.64792 0.94611 0.62906 0.0
C3513 C 0.67684 0.93131 0.64243 0.0
C3514 C 0.66615 0.92429 0.62958 0.0
C3515 C 0.65679 0.92918 0.62565 0.0
C3516 C 0.66454 0.91192 0.61997 0.0
C3517 C 0.68667 0.92609 0.64795 0.0
C3518 C 0.67616 0.91316 0.6107 0.0
C3519 C 0.67454 0.90154 0.60149 0.0
C3520 C 0.66119 0.88852 0.60114 0.0
C3521 C 0.64949 0.88736 0.61022 0.0
C3522 C 0.65116 0.89895 0.61955 0.0
H3523 H 0.69099 0.92976 0.66102 0.0
H3524 H 0.68093 0.91425 0.6476 0.0
H3525 H 0.69603 0.93042 0.63923 0.0
H3526 H 0.68646 0.92318 0.61042 0.0
H3527 H 0.68367 0.90283 0.59438 0.0
H3528 H 0.01785 0.68074 0.65402 0.0
H3529 H 0.0422 0.69076 0.64233 0.0
H3530 H 0.05014 0.73329 0.64874 0.0
H3531 H 0.02581 0.7234 0.65993 0.0
H3532 H 0.05541 0.72869 0.61697 0.0
H3533 H 0.0828 0.71162 0.66271 0.0
H3534 H 0.06583 0.69733 0.65455 0.0
H3535 H 0.06617 0.71089 0.66761 0.0
C3536 C 0.0249 0.69224 0.65321 0.0
C3537 C 0.01988 0.70128 0.65776 0.0
C3538 C 0.03883 0.69795 0.64661 0.0
C3539 C 0.04803 0.71279 0.64477 0.0
C3540 C 0.04322 0.72181 0.65003 0.0
H3541 H 0.13752 0.76664 0.61644 0.0
H3542 H 0.11484 0.75175 0.63178 0.0
C3543 C 0.0293 0.71613 0.65641 0.0
C3544 C 0.06207 0.71899 0.63587 0.0
H3545 H 0.09534 0.7225 0.63713 0.0
C3546 C 0.06414 0.72733 0.62139 0.0
C3547 C 0.07346 0.71726 0.64171 0.0
C3548 C 0.07206 0.7089 0.65758 0.0
C3549 C 0.0773 0.73412 0.61269 0.0
C3550 C 0.08861 0.73218 0.61829 0.0
C3551 C 0.08657 0.7238 0.63275 0.0
C3552 C 0.10282 0.73942 0.60969 0.0
C3553 C 0.07909 0.7437 0.59789 0.0
C3554 C 0.10372 0.73699 0.59237 0.0
C3555 C 0.11659 0.74557 0.58357 0.0
C3556 C 0.12884 0.75654 0.59203 0.0
C3557 C 0.12824 0.75823 0.60964 0.0
C3558 C 0.1153 0.74974 0.6184 0.0
H3559 H 0.07087 0.74686 0.59799 0.0
H3560 H 0.09002 0.75354 0.59802 0.0
H3561 H 0.07775 0.73792 0.58582 0.0
H3562 H 0.0943 0.72885 0.5855 0.0
H3563 H 0.11684 0.74393 0.57004 0.0
H3564 H 0.98816 0.62855 0.66168 0.0
H3565 H 0.99018 0.60974 0.6758 0.0
H3566 H 0.97415 0.61718 0.72215 0.0
H3567 H 0.9718 0.63571 0.7081 0.0
H3568 H 0.00691 0.61235 0.70318 0.0
H3569 H 0.94929 0.57426 0.71816 0.0
H3570 H 0.95489 0.58881 0.70338 0.0
H3571 H 0.95553 0.59191 0.72592 0.0
C3572 C 0.98489 0.62606 0.67482 0.0
C3573 C 0.97976 0.6336 0.68373 0.0
C3574 C 0.98608 0.61532 0.68287 0.0
C3575 C 0.9821 0.61189 0.69996 0.0
C3576 C 0.97693 0.61937 0.70885 0.0
H3577 H 0.99147 0.56318 0.77926 0.0
H3578 H 0.98741 0.57918 0.76164 0.0
C3579 C 0.97568 0.63005 0.7008 0.0
C3580 C 0.98413 0.60108 0.70881 0.0
H3581 H 0.96669 0.57088 0.73303 0.0
C3582 C 0.99808 0.60318 0.70952 0.0
C3583 C 0.97259 0.58911 0.71708 0.0
C3584 C 0.95721 0.58579 0.71597 0.0
C3585 C 0.0009 0.59392 0.71877 0.0
C3586 C 0.98945 0.58221 0.72741 0.0
C3587 C 0.97545 0.57994 0.72645 0.0
C3588 C 0.99186 0.5724 0.7379 0.0
C3589 C 0.01618 0.59695 0.71971 0.0
C3590 C 0.99557 0.56321 0.73033 0.0
C3591 C 0.99776 0.55393 0.74034 0.0
C3592 C 0.99626 0.55368 0.75812 0.0
C3593 C 0.99251 0.56293 0.76561 0.0
C3594 C 0.99026 0.57214 0.75558 0.0
H3595 H 0.02419 0.60775 0.71483 0.0
H3596 H 0.01913 0.59605 0.73301 0.0
H3597 H 0.01694 0.58895 0.71195 0.0
H3598 H 0.99665 0.56313 0.71667 0.0
H3599 H 0.00039 0.5468 0.73412 0.0
H3600 H 0.39803 0.36819 0.70164 0.0
H3601 H 0.40576 0.39157 0.71371 0.0
H3602 H 0.36213 0.38283 0.70935 0.0
H3603 H 0.35427 0.35939 0.697 0.0
H3604 H 0.38382 0.41112 0.70004 0.0
H3605 H 0.39531 0.39569 0.76264 0.0
H3606 H 0.40437 0.39297 0.74543 0.0
H3607 H 0.38491 0.3828 0.74624 0.0
C3608 C 0.39007 0.37125 0.70309 0.0
C3609 C 0.37549 0.36184 0.69853 0.0
C3610 C 0.39451 0.3846 0.71007 0.0
C3611 C 0.38445 0.38877 0.71276 0.0
C3612 C 0.37003 0.37973 0.7075 0.0
H3613 H 0.40942 0.45996 0.78214 0.0
H3614 H 0.39478 0.43708 0.76751 0.0
C3615 C 0.36556 0.36635 0.70045 0.0
C3616 C 0.38902 0.4024 0.72156 0.0
H3617 H 0.40481 0.42054 0.75827 0.0
C3618 C 0.38827 0.41317 0.71283 0.0
C3619 C 0.39451 0.40491 0.73839 0.0
C3620 C 0.3947 0.39344 0.74881 0.0
C3621 C 0.39355 0.42666 0.72023 0.0
C3622 C 0.39993 0.42946 0.73665 0.0
C3623 C 0.40003 0.41845 0.74563 0.0
C3624 C 0.40738 0.44389 0.74444 0.0
C3625 C 0.39226 0.43776 0.71038 0.0
C3626 C 0.41918 0.4554 0.73624 0.0
C3627 C 0.42747 0.46852 0.7445 0.0
C3628 C 0.42425 0.47036 0.76123 0.0
C3629 C 0.41211 0.45897 0.7692 0.0
C3630 C 0.40377 0.44585 0.76089 0.0
H3631 H 0.38308 0.43272 0.70118 0.0
H3632 H 0.39072 0.44485 0.71898 0.0
H3633 H 0.40233 0.44442 0.70305 0.0
H3634 H 0.42237 0.45407 0.72371 0.0
H3635 H 0.43664 0.47713 0.73792 0.0
H3636 H 0.64056 0.99856 0.70034 0.0
H3637 H 0.61549 0.98553 0.71062 0.0
H3638 H 0.6177 0.02546 0.71855 0.0
H3639 H 0.64249 0.03848 0.70838 0.0
H3640 H 0.60618 0.9889 0.74338 0.0
H3641 H 0.57971 0.00137 0.69151 0.0
H3642 H 0.59706 0.00294 0.68906 0.0
H3643 H 0.59588 0.01696 0.69921 0.0
C3644 C 0.63563 0.00454 0.70412 0.0
C3645 C 0.64352 0.01956 0.70354 0.0
C3646 C 0.62134 0.99708 0.70998 0.0
C3647 C 0.6147 0.00454 0.71507 0.0
C3648 C 0.62253 0.0195 0.71435 0.0
H3649 H 0.54923 0.00448 0.76939 0.0
H3650 H 0.56942 0.00776 0.75225 0.0
C3651 C 0.63676 0.02692 0.70864 0.0
C3652 C 0.59993 0.99703 0.72219 0.0
H3653 H 0.5677 0.99547 0.71869 0.0
C3654 C 0.59759 0.98997 0.73781 0.0
C3655 C 0.58877 0.99843 0.71483 0.0
C3656 C 0.59041 0.00521 0.69764 0.0
C3657 C 0.58477 0.98527 0.74691 0.0
C3658 C 0.57405 0.98759 0.74006 0.0
C3659 C 0.57601 0.9938 0.72394 0.0
C3660 C 0.56155 0.9852 0.7502 0.0
C3661 C 0.58316 0.97873 0.76426 0.0
C3662 C 0.55038 0.97141 0.75461 0.0
C3663 C 0.53881 0.96949 0.76449 0.0
C3664 C 0.53829 0.98137 0.77014 0.0
C3665 C 0.54944 0.99514 0.76549 0.0
C3666 C 0.56092 0.99703 0.75559 0.0
H3667 H 0.59317 0.97912 0.76852 0.0
H3668 H 0.58038 0.98436 0.77376 0.0
H3669 H 0.57418 0.96739 0.76392 0.0
H3670 H 0.55063 0.96215 0.75042 0.0
H3671 H 0.5304 0.95876 0.76793 0.0
loop_
_geom_bond_atom_site_label_1
_geom_bond_atom_site_label_2
_geom_bond_distance
_geom_bond_site_symmetry_2
_ccdc_geom_bond_type
Zn0 O3 2.031 1_554 S
Zn0 O5 2.049 . S
Zn0 O10 2.067 1_554 S
Zn1 O2 1.962 1_455 S
Zn1 O4 1.986 . S
Zn1 O6 1.996 1_455 S
Zn1 O9 1.943 . S
O2 Zn1 1.962 1_655 S
O2 C7 1.254 . S
O3 Zn0 2.031 1_556 S
O3 C7 1.269 1_556 S
O4 Zn1 1.986 . S
O4 C11 1.262 . S
O5 Zn0 2.049 . S
O5 C13 1.260 . S
O6 Zn1 1.996 1_655 S
O6 C13 1.257 . S
C7 O2 1.254 . S
C7 O3 1.269 1_554 S
C8 O9 1.249 1_556 S
C8 O10 1.270 1_455 S
O9 Zn1 1.943 . S
O9 C8 1.249 1_554 S
O10 Zn0 2.067 1_556 S
O10 C8 1.270 1_655 S
C11 O4 1.262 . S
C11 O12 1.232 . S
O12 C11 1.232 . S
C13 O5 1.260 . S
C13 O6 1.257 . S
Zn14 O17 2.031 1_554 S
Zn14 O19 2.049 . S
Zn14 O24 2.067 1_554 S
Zn15 O16 1.962 . S
Zn15 O18 1.986 . S
Zn15 O20 1.996 . S
Zn15 O23 1.943 . S
O16 Zn15 1.962 . S
O16 C21 1.254 . S
O17 Zn14 2.031 1_556 S
O17 C21 1.269 1_556 S
O18 Zn15 1.986 . S
O18 C25 1.262 . S
O19 Zn14 2.049 . S
O19 C27 1.260 . S
O20 Zn15 1.996 . S
O20 C27 1.257 . S
C21 O16 1.254 . S
C21 O17 1.269 1_554 S
C22 O23 1.249 1_556 S
C22 O24 1.270 . S
O23 Zn15 1.943 . S
O23 C22 1.249 1_554 S
O24 Zn14 2.067 1_556 S
O24 C22 1.270 . S
C25 O18 1.262 . S
C25 O26 1.232 . S
O26 C25 1.232 . S
C27 O19 1.260 . S
C27 O20 1.257 . S
Zn28 O31 2.031 . S
Zn28 O33 2.049 1_554 S
Zn28 O38 2.050 1_565 S
Zn29 O30 1.962 1_545 S
Zn29 O32 1.986 1_554 S
Zn29 O34 1.996 1_544 S
Zn29 O37 1.943 . S
O30 Zn29 1.962 1_565 S
O30 C35 1.254 . S
O31 Zn28 2.031 . S
O31 C35 1.269 . S
O32 Zn29 1.986 1_556 S
O32 C39 1.259 1_556 S
O33 Zn28 2.049 1_556 S
O33 C41 1.260 . S
O34 Zn29 1.996 1_566 S
O34 C41 1.257 . S
C35 O30 1.254 . S
C35 O31 1.269 . S
C36 O37 1.249 . S
C36 O38 1.303 . S
O37 Zn29 1.943 . S
O37 C36 1.249 . S
O38 Zn28 2.050 1_545 S
O38 C36 1.303 . S
C39 O32 1.259 1_554 S
C39 O40 1.237 . S
O40 C39 1.237 . S
C41 O33 1.260 . S
C41 O34 1.257 . S
Zn42 O45 2.031 . S
Zn42 O47 2.049 1_554 S
Zn42 O52 2.067 . S
Zn43 O44 1.962 1_655 S
Zn43 O46 1.986 1_554 S
Zn43 O48 1.996 1_654 S
Zn43 O51 1.943 . S
O44 Zn43 1.962 1_455 S
O44 C49 1.254 . S
O45 Zn42 2.031 . S
O45 C49 1.269 . S
O46 Zn43 1.986 1_556 S
O46 C53 1.265 . S
O47 Zn42 2.049 1_556 S
O47 C55 1.260 . S
O48 Zn43 1.996 1_456 S
O48 C55 1.257 . S
C49 O44 1.254 . S
C49 O45 1.269 . S
C50 O51 1.249 . S
C50 O52 1.270 1_655 S
O51 Zn43 1.943 . S
O51 C50 1.249 . S
O52 Zn42 2.067 . S
O52 C50 1.270 1_455 S
C53 O46 1.265 . S
C53 O54 1.227 1_556 S
O54 C53 1.227 1_554 S
C55 O47 1.260 . S
C55 O48 1.257 . S
Zn56 O59 2.031 . S
Zn56 O61 2.049 1_554 S
Zn56 O66 2.067 . S
Zn57 O58 1.962 . S
Zn57 O60 1.986 1_554 S
Zn57 O62 1.996 1_554 S
Zn57 O65 1.943 . S
O58 Zn57 1.962 . S
O58 C63 1.254 . S
O59 Zn56 2.031 . S
O59 C63 1.269 . S
O60 Zn57 1.986 1_556 S
O60 C67 1.262 . S
O61 Zn56 2.049 1_556 S
O61 C69 1.260 . S
O62 Zn57 1.996 1_556 S
O62 C69 1.257 . S
C63 O58 1.254 . S
C63 O59 1.269 . S
C64 O65 1.249 . S
C64 O66 1.270 . S
O65 Zn57 1.943 . S
O65 C64 1.249 . S
O66 Zn56 2.067 . S
O66 C64 1.270 . S
C67 O60 1.262 . S
C67 O68 1.232 1_556 S
O68 C67 1.232 1_554 S
C69 O61 1.260 . S
C69 O62 1.257 . S
Zn70 O73 2.013 1_554 S
Zn70 O75 2.049 . S
Zn70 O80 2.068 1_554 S
Zn71 O72 1.962 1_565 S
Zn71 O74 1.986 . S
Zn71 O76 1.996 1_565 S
Zn71 O79 1.943 . S
O72 Zn71 1.962 1_545 S
O72 C77 1.254 . S
O73 Zn70 2.013 1_556 S
O73 C77 1.258 1_556 S
O74 Zn71 1.986 . S
O74 C81 1.262 . S
O75 Zn70 2.049 . S
O75 C83 1.260 . S
O76 Zn71 1.996 1_545 S
O76 C83 1.257 . S
C77 O72 1.254 . S
C77 O73 1.258 1_554 S
C78 O79 1.249 1_556 S
C78 O80 1.270 1_565 S
O79 Zn71 1.943 . S
O79 C78 1.249 1_554 S
O80 Zn70 2.068 1_556 S
O80 C78 1.270 1_545 S
C81 O74 1.262 . S
C81 O82 1.232 . S
O82 C81 1.232 . S
C83 O75 1.260 . S
C83 O76 1.257 . S
Zn84 O87 2.031 . S
Zn84 O89 2.049 . S
Zn84 O94 2.067 . S
Zn85 O86 1.962 . S
Zn85 O88 1.986 . S
Zn85 O90 1.996 . S
Zn85 O93 1.943 . S
O86 Zn85 1.962 . S
O86 C91 1.254 . S
O87 Zn84 2.031 . S
O87 C91 1.269 . S
O88 Zn85 1.986 . S
O88 C95 1.262 . S
O89 Zn84 2.049 . S
O89 C97 1.260 . S
O90 Zn85 1.996 . S
O90 C97 1.257 . S
C91 O86 1.254 . S
C91 O87 1.269 . S
C92 O93 1.249 . S
C92 O94 1.270 . S
O93 Zn85 1.943 . S
O93 C92 1.249 . S
O94 Zn84 2.067 . S
O94 C92 1.270 . S
C95 O88 1.262 . S
C95 O96 1.232 . S
O96 C95 1.232 . S
C97 O89 1.260 . S
C97 O90 1.257 . S
Zn98 O101 2.031 . S
Zn98 O103 2.049 . S
Zn98 O108 2.067 . S
Zn99 O100 1.962 . S
Zn99 O102 1.986 1_565 S
Zn99 O104 1.996 . S
Zn99 O107 1.943 . S
O100 Zn99 1.962 . S
O100 C105 1.254 . S
O101 Zn98 2.031 . S
O101 C105 1.269 . S
O102 Zn99 1.986 1_545 S
O102 C109 1.262 . S
O103 Zn98 2.049 . S
O103 C111 1.260 . S
O104 Zn99 1.996 . S
O104 C111 1.257 . S
C105 O100 1.254 . S
C105 O101 1.269 . S
C106 O107 1.249 . S
C106 O108 1.270 . S
O107 Zn99 1.943 . S
O107 C106 1.249 . S
O108 Zn98 2.067 . S
O108 C106 1.270 . S
C109 O102 1.262 . S
C109 O110 1.232 . S
O110 C109 1.232 . S
C111 O103 1.260 . S
C111 O104 1.257 . S
Zn112 O115 2.031 . S
Zn112 O117 2.049 . S
Zn112 O122 2.067 . S
Zn113 O114 1.962 1_455 S
Zn113 O116 1.986 . S
Zn113 O118 1.996 . S
Zn113 O121 1.943 . S
O114 Zn113 1.962 1_655 S
O114 C119 1.254 . S
O115 Zn112 2.031 . S
O115 C119 1.269 1_455 S
O116 Zn113 1.986 . S
O116 C123 1.262 . S
O117 Zn112 2.049 . S
O117 C125 1.260 . S
O118 Zn113 1.996 . S
O118 C125 1.257 . S
C119 O114 1.254 . S
C119 O115 1.269 1_655 S
C120 O121 1.249 . S
C120 O122 1.270 . S
O121 Zn113 1.943 . S
O121 C120 1.249 . S
O122 Zn112 2.067 . S
O122 C120 1.270 . S
C123 O116 1.262 . S
C123 O124 1.232 . S
O124 C123 1.232 . S
C125 O117 1.260 . S
C125 O118 1.257 . S
Zn126 O129 2.031 . S
Zn126 O131 2.049 . S
Zn126 O136 2.067 . S
Zn127 O128 1.962 1_565 S
Zn127 O130 1.986 . S
Zn127 O132 1.996 . S
Zn127 O135 1.943 . S
O128 Zn127 1.962 1_545 S
O128 C133 1.254 . S
O129 Zn126 2.031 . S
O129 C133 1.269 1_565 S
O130 Zn127 1.986 . S
O130 C137 1.262 . S
O131 Zn126 2.049 . S
O131 C139 1.260 . S
O132 Zn127 1.996 . S
O132 C139 1.257 . S
C133 O128 1.254 . S
C133 O129 1.269 1_545 S
C134 O135 1.249 . S
C134 O136 1.270 . S
O135 Zn127 1.943 . S
O135 C134 1.249 . S
O136 Zn126 2.067 . S
O136 C134 1.270 . S
C137 O130 1.262 . S
C137 O138 1.232 . S
O138 C137 1.232 . S
C139 O131 1.260 . S
C139 O132 1.257 . S
Zn140 O143 2.031 . S
Zn140 O145 2.049 . S
Zn140 O150 2.067 . S
Zn141 O142 1.962 1_455 S
Zn141 O144 1.986 . S
Zn141 O146 1.996 . S
Zn141 O149 1.943 . S
O142 Zn141 1.962 1_655 S
O142 C147 1.254 . S
O143 Zn140 2.031 . S
O143 C147 1.269 1_455 S
O144 Zn141 1.986 . S
O144 C151 1.262 . S
O145 Zn140 2.049 . S
O145 C153 1.260 . S
O146 Zn141 1.996 . S
O146 C153 1.257 . S
C147 O142 1.254 . S
C147 O143 1.269 1_655 S
C148 O149 1.249 . S
C148 O150 1.270 . S
O149 Zn141 1.943 . S
O149 C148 1.249 . S
O150 Zn140 2.067 . S
O150 C148 1.270 . S
C151 O144 1.262 . S
C151 O152 1.232 . S
O152 C151 1.232 . S
C153 O145 1.260 . S
C153 O146 1.257 . S
Zn154 O157 2.031 . S
Zn154 O159 2.049 . S
Zn154 O164 2.067 . S
Zn155 O156 1.962 . S
Zn155 O158 1.986 . S
Zn155 O160 1.996 . S
Zn155 O163 1.943 . S
O156 Zn155 1.962 . S
O156 C161 1.254 . S
O157 Zn154 2.031 . S
O157 C161 1.269 . S
O158 Zn155 1.986 . S
O158 C165 1.262 . S
O159 Zn154 2.049 . S
O159 C167 1.260 . S
O160 Zn155 1.996 . S
O160 C167 1.257 . S
C161 O156 1.254 . S
C161 O157 1.269 . S
C162 O163 1.249 . S
C162 O164 1.270 . S
O163 Zn155 1.943 . S
O163 C162 1.249 . S
O164 Zn154 2.067 . S
O164 C162 1.270 . S
C165 O158 1.262 . S
C165 O166 1.232 . S
O166 C165 1.232 . S
C167 O159 1.260 . S
C167 O160 1.257 . S
Zn168 O171 2.031 . S
Zn168 O173 2.049 . S
Zn168 O178 2.067 . S
Zn169 O170 1.908 1_545 S
Zn169 O172 1.986 . S
Zn169 O174 1.996 . S
Zn169 O177 1.943 . S
O170 Zn169 1.908 1_565 S
O170 C175 1.233 . S
O171 Zn168 2.031 . S
O171 C175 1.269 1_545 S
O172 Zn169 1.986 . S
O172 C179 1.262 . S
O173 Zn168 2.049 . S
O173 C181 1.260 . S
O174 Zn169 1.996 . S
O174 C181 1.257 . S
C175 O170 1.233 . S
C175 O171 1.269 1_565 S
C176 O177 1.249 . S
C176 O178 1.270 . S
O177 Zn169 1.943 . S
O177 C176 1.249 . S
O178 Zn168 2.067 . S
O178 C176 1.270 . S
C179 O172 1.262 . S
C179 O180 1.232 . S
O180 C179 1.232 . S
C181 O173 1.260 . S
C181 O174 1.257 . S
Zn182 O185 2.031 . S
Zn182 O187 2.049 . S
Zn182 O192 2.067 . S
Zn183 O184 1.962 1_655 S
Zn183 O186 1.986 . S
Zn183 O188 1.996 . S
Zn183 O191 1.943 . S
O184 Zn183 1.962 1_455 S
O184 C189 1.254 . S
O185 Zn182 2.031 . S
O185 C189 1.269 1_655 S
O186 Zn183 1.986 . S
O186 C193 1.262 . S
O187 Zn182 2.049 . S
O187 C195 1.260 . S
O188 Zn183 1.996 . S
O188 C195 1.257 . S
C189 O184 1.254 . S
C189 O185 1.269 1_455 S
C190 O191 1.249 . S
C190 O192 1.270 . S
O191 Zn183 1.943 . S
O191 C190 1.249 . S
O192 Zn182 2.067 . S
O192 C190 1.270 . S
C193 O186 1.262 . S
C193 O194 1.232 . S
O194 C193 1.232 . S
C195 O187 1.260 . S
C195 O188 1.257 . S
Zn196 O199 2.031 . S
Zn196 O201 2.049 . S
Zn196 O206 2.067 . S
Zn197 O198 1.962 . S
Zn197 O200 1.986 . S
Zn197 O202 1.996 . S
Zn197 O205 1.943 . S
O198 Zn197 1.962 . S
O198 C203 1.254 . S
O199 Zn196 2.031 . S
O199 C203 1.269 . S
O200 Zn197 1.986 . S
O200 C207 1.262 . S
O201 Zn196 2.049 . S
O201 C209 1.260 . S
O202 Zn197 1.996 . S
O202 C209 1.257 . S
C203 O198 1.254 . S
C203 O199 1.269 . S
C204 O205 1.249 . S
C204 O206 1.270 . S
O205 Zn197 1.943 . S
O205 C204 1.249 . S
O206 Zn196 2.067 . S
O206 C204 1.270 . S
C207 O200 1.262 . S
C207 O208 1.232 . S
O208 C207 1.232 . S
C209 O201 1.260 . S
C209 O202 1.257 . S
Zn210 O213 2.031 . S
Zn210 O215 2.049 . S
Zn210 O220 2.067 . S
Zn211 O212 1.962 . S
Zn211 O214 1.986 . S
Zn211 O216 1.996 . S
Zn211 O219 1.943 . S
O212 Zn211 1.962 . S
O212 C217 1.254 . S
O213 Zn210 2.031 . S
O213 C217 1.269 . S
O214 Zn211 1.986 . S
O214 C221 1.262 . S
O215 Zn210 2.049 . S
O215 C223 1.260 . S
O216 Zn211 1.996 . S
O216 C223 1.257 . S
C217 O212 1.254 . S
C217 O213 1.269 . S
C218 O219 1.249 . S
C218 O220 1.270 . S
O219 Zn211 1.943 . S
O219 C218 1.249 . S
O220 Zn210 2.067 . S
O220 C218 1.270 . S
C221 O214 1.262 . S
C221 O222 1.232 . S
O222 C221 1.232 . S
C223 O215 1.260 . S
C223 O216 1.257 . S
Zn224 O227 2.031 . S
Zn224 O229 2.049 . S
Zn224 O234 2.067 . S
Zn225 O226 1.962 . S
Zn225 O228 1.983 1_545 S
Zn225 O230 1.996 . S
Zn225 O233 1.943 . S
O226 Zn225 1.962 . S
O226 C231 1.254 . S
O227 Zn224 2.031 . S
O227 C231 1.269 . S
O228 Zn225 1.983 1_565 S
O228 C235 1.265 . S
O229 Zn224 2.049 . S
O229 C237 1.260 . S
O230 Zn225 1.996 . S
O230 C237 1.257 . S
C231 O226 1.254 . S
C231 O227 1.269 . S
C232 O233 1.249 . S
C232 O234 1.270 . S
O233 Zn225 1.943 . S
O233 C232 1.249 . S
O234 Zn224 2.067 . S
O234 C232 1.270 . S
C235 O228 1.265 . S
C235 O236 1.232 . S
O236 C235 1.232 . S
C237 O229 1.260 . S
C237 O230 1.257 . S
Zn238 O241 2.031 . S
Zn238 O243 2.049 . S
Zn238 O248 2.067 . S
Zn239 O240 1.962 1_655 S
Zn239 O242 1.986 . S
Zn239 O244 1.996 . S
Zn239 O247 1.943 . S
O240 Zn239 1.962 1_455 S
O240 C245 1.254 . S
O241 Zn238 2.031 . S
O241 C245 1.269 1_655 S
O242 Zn239 1.986 . S
O242 C249 1.262 . S
O243 Zn238 2.049 . S
O243 C251 1.260 . S
O244 Zn239 1.996 . S
O244 C251 1.257 . S
C245 O240 1.254 . S
C245 O241 1.269 1_455 S
C246 O247 1.249 . S
C246 O248 1.270 . S
O247 Zn239 1.943 . S
O247 C246 1.249 . S
O248 Zn238 2.067 . S
O248 C246 1.270 . S
C249 O242 1.262 . S
C249 O250 1.232 . S
O250 C249 1.232 . S
C251 O243 1.260 . S
C251 O244 1.257 . S
C252 C253 1.384 . S
C252 C254 1.384 . S
C252 H280 0.931 . S
C253 C252 1.384 . S
C253 C256 1.382 . S
C254 C252 1.384 . S
C254 C255 1.381 . S
C254 H281 0.930 . S
C255 C254 1.381 . S
C255 C257 1.381 . S
C255 C258 1.487 . S
C256 C253 1.382 . S
C256 C257 1.387 . S
C256 H282 0.930 . S
C257 C255 1.381 . S
C257 C256 1.387 . S
C257 H283 0.931 . S
C258 C255 1.487 . S
C258 C265 1.399 . S
C258 N296 1.343 . S
C259 C260 1.384 . S
C259 C261 1.384 . S
C259 H284 0.931 . S
C260 C259 1.384 . S
C260 C263 1.382 . S
C261 C259 1.384 . S
C261 C262 1.381 . S
C261 H285 0.930 . S
C262 C261 1.381 . S
C262 C264 1.381 . S
C262 C265 1.487 . S
C263 C260 1.382 . S
C263 C264 1.387 . S
C263 H286 0.930 . S
C264 C262 1.381 . S
C264 C263 1.387 . S
C264 H287 0.931 . S
C265 C258 1.399 . S
C265 C262 1.487 . S
C265 N297 1.343 . S
C266 C267 1.384 . S
C266 C268 1.384 . S
C266 H288 0.931 . S
C267 C266 1.384 . S
C267 C270 1.382 . S
C268 C266 1.384 . S
C268 C269 1.381 . S
C268 H289 0.930 . S
C269 C268 1.381 . S
C269 C271 1.381 . S
C269 C272 1.487 . S
C270 C267 1.382 . S
C270 C271 1.387 . S
C270 H290 0.930 . S
C271 C269 1.381 . S
C271 C270 1.387 . S
C271 H291 0.931 . S
C272 C269 1.487 . S
C272 C279 1.399 . S
C272 N297 1.343 . S
C273 C274 1.384 . S
C273 C275 1.384 . S
C273 H292 0.931 . S
C274 C273 1.384 . S
C274 C277 1.382 . S
C275 C273 1.384 . S
C275 C276 1.381 . S
C275 H293 0.930 . S
C276 C275 1.381 . S
C276 C278 1.381 . S
C276 C279 1.487 . S
C277 C274 1.382 . S
C277 C278 1.387 . S
C277 H294 0.930 . S
C278 C276 1.381 . S
C278 C277 1.387 . S
C278 H295 0.931 . S
C279 C272 1.399 . S
C279 C276 1.487 . S
C279 N296 1.343 . S
H280 C252 0.931 . S
H281 C254 0.930 . S
H282 C256 0.930 . S
H283 C257 0.931 . S
H284 C259 0.931 . S
H285 C261 0.930 . S
H286 C263 0.930 . S
H287 C264 0.931 . S
H288 C266 0.931 . S
H289 C268 0.930 . S
H290 C270 0.930 . S
H291 C271 0.931 . S
H292 C273 0.931 . S
H293 C275 0.930 . S
H294 C277 0.930 . S
H295 C278 0.931 . S
N296 C258 1.343 . S
N296 C279 1.343 . S
N297 C265 1.343 . S
N297 C272 1.343 . S
C298 C299 1.384 . S
C298 C300 1.384 . S
C298 H326 0.931 . S
C299 C298 1.384 . S
C299 C302 1.382 . S
C300 C298 1.384 . S
C300 C301 1.381 . S
C300 H327 0.930 . S
C301 C300 1.381 . S
C301 C303 1.381 . S
C301 C304 1.487 . S
C302 C299 1.382 . S
C302 C303 1.387 . S
C302 H328 0.930 . S
C303 C301 1.381 . S
C303 C302 1.387 . S
C303 H329 0.931 . S
C304 C301 1.487 . S
C304 C311 1.399 . S
C304 N342 1.343 . S
C305 C306 1.384 . S
C305 C307 1.384 . S
C305 H330 0.931 . S
C306 C305 1.384 . S
C306 C309 1.382 . S
C307 C305 1.384 . S
C307 C308 1.381 . S
C307 H331 0.930 . S
C308 C307 1.381 . S
C308 C310 1.381 . S
C308 C311 1.487 . S
C309 C306 1.382 . S
C309 C310 1.387 . S
C309 H332 0.930 . S
C310 C308 1.381 . S
C310 C309 1.387 . S
C310 H333 0.931 . S
C311 C304 1.399 . S
C311 C308 1.487 . S
C311 N343 1.343 . S
C312 C313 1.384 . S
C312 C314 1.384 . S
C312 H334 0.931 . S
C313 C312 1.384 . S
C313 C316 1.382 . S
C314 C312 1.384 . S
C314 C315 1.381 . S
C314 H335 0.930 . S
C315 C314 1.381 . S
C315 C317 1.381 . S
C315 C318 1.487 . S
C316 C313 1.382 . S
C316 C317 1.387 . S
C316 H336 0.930 . S
C317 C315 1.381 . S
C317 C316 1.387 . S
C317 H337 0.931 . S
C318 C315 1.487 . S
C318 C325 1.399 . S
C318 N343 1.343 . S
C319 C320 1.384 . S
C319 C321 1.384 . S
C319 H338 0.931 . S
C320 C319 1.384 . S
C320 C323 1.382 . S
C321 C319 1.384 . S
C321 C322 1.381 . S
C321 H339 0.930 . S
C322 C321 1.381 . S
C322 C324 1.381 . S
C322 C325 1.487 . S
C323 C320 1.382 . S
C323 C324 1.387 . S
C323 H340 0.930 . S
C324 C322 1.381 . S
C324 C323 1.387 . S
C324 H341 0.931 . S
C325 C318 1.399 . S
C325 C322 1.487 . S
C325 N342 1.343 . S
H326 C298 0.931 . S
H327 C300 0.930 . S
H328 C302 0.930 . S
H329 C303 0.931 . S
H330 C305 0.931 . S
H331 C307 0.930 . S
H332 C309 0.930 . S
H333 C310 0.931 . S
H334 C312 0.931 . S
H335 C314 0.930 . S
H336 C316 0.930 . S
H337 C317 0.931 . S
H338 C319 0.931 . S
H339 C321 0.930 . S
H340 C323 0.930 . S
H341 C324 0.931 . S
N342 C304 1.343 . S
N342 C325 1.343 . S
N343 C311 1.343 . S
N343 C318 1.343 . S
C344 C345 1.384 . S
C344 C346 1.384 . S
C344 H372 0.931 . S
C345 C344 1.384 . S
C345 C348 1.382 . S
C346 C344 1.384 . S
C346 C347 1.381 . S
C346 H373 0.930 . S
C347 C346 1.381 . S
C347 C349 1.381 . S
C347 C350 1.487 . S
C348 C345 1.382 . S
C348 C349 1.387 . S
C348 H374 0.930 . S
C349 C347 1.381 . S
C349 C348 1.387 . S
C349 H375 0.931 . S
C350 C347 1.487 . S
C350 C357 1.399 . S
C350 N388 1.343 . S
C351 C352 1.384 . S
C351 C353 1.384 . S
C351 H376 0.931 . S
C352 C351 1.384 . S
C352 C355 1.382 . S
C353 C351 1.384 . S
C353 C354 1.381 . S
C353 H377 0.930 . S
C354 C353 1.381 . S
C354 C356 1.381 . S
C354 C357 1.487 . S
C355 C352 1.382 . S
C355 C356 1.387 . S
C355 H378 0.930 . S
C356 C354 1.381 . S
C356 C355 1.387 . S
C356 H379 0.931 . S
C357 C350 1.399 . S
C357 C354 1.487 . S
C357 N389 1.343 . S
C358 C359 1.384 . S
C358 C360 1.384 . S
C358 H380 0.931 . S
C359 C358 1.384 . S
C359 C362 1.382 . S
C360 C358 1.384 . S
C360 C361 1.381 . S
C360 H381 0.930 . S
C361 C360 1.381 . S
C361 C363 1.381 . S
C361 C364 1.487 . S
C362 C359 1.382 . S
C362 C363 1.387 . S
C362 H382 0.930 . S
C363 C361 1.381 . S
C363 C362 1.387 . S
C363 H383 0.931 . S
C364 C361 1.487 . S
C364 C371 1.399 . S
C364 N389 1.343 . S
C365 C366 1.384 . S
C365 C367 1.384 . S
C365 H384 0.931 . S
C366 C365 1.384 . S
C366 C369 1.382 . S
C367 C365 1.384 . S
C367 C368 1.381 . S
C367 H385 0.930 . S
C368 C367 1.381 . S
C368 C370 1.381 . S
C368 C371 1.487 . S
C369 C366 1.382 . S
C369 C370 1.387 . S
C369 H386 0.930 . S
C370 C368 1.381 . S
C370 C369 1.387 . S
C370 H387 0.931 . S
C371 C364 1.399 . S
C371 C368 1.487 . S
C371 N388 1.343 . S
H372 C344 0.931 . S
H373 C346 0.930 . S
H374 C348 0.930 . S
H375 C349 0.931 . S
H376 C351 0.931 . S
H377 C353 0.930 . S
H378 C355 0.930 . S
H379 C356 0.931 . S
H380 C358 0.931 . S
H381 C360 0.930 . S
H382 C362 0.930 . S
H383 C363 0.931 . S
H384 C365 0.931 . S
H385 C367 0.930 . S
H386 C369 0.930 . S
H387 C370 0.931 . S
N388 C350 1.343 . S
N388 C371 1.343 . S
N389 C357 1.343 . S
N389 C364 1.343 . S
C390 C391 1.384 . S
C390 C392 1.384 . S
C390 H418 0.931 . S
C391 C390 1.384 . S
C391 C394 1.382 . S
C392 C390 1.384 . S
C392 C393 1.381 . S
C392 H419 0.930 . S
C393 C392 1.381 . S
C393 C395 1.381 . S
C393 C396 1.487 . S
C394 C391 1.382 . S
C394 C395 1.387 . S
C394 H420 0.930 . S
C395 C393 1.381 . S
C395 C394 1.387 . S
C395 H421 0.931 . S
C396 C393 1.487 . S
C396 C403 1.399 . S
C396 N434 1.343 . S
C397 C398 1.384 . S
C397 C399 1.384 . S
C397 H422 0.931 . S
C398 C397 1.384 . S
C398 C401 1.382 . S
C399 C397 1.384 . S
C399 C400 1.381 . S
C399 H423 0.930 . S
C400 C399 1.381 . S
C400 C402 1.381 . S
C400 C403 1.487 . S
C401 C398 1.382 . S
C401 C402 1.387 . S
C401 H424 0.930 . S
C402 C400 1.381 . S
C402 C401 1.387 . S
C402 H425 0.931 . S
C403 C396 1.399 . S
C403 C400 1.487 . S
C403 N435 1.343 . S
C404 C405 1.384 . S
C404 C406 1.384 . S
C404 H426 0.931 . S
C405 C404 1.384 . S
C405 C408 1.382 . S
C406 C404 1.384 . S
C406 C407 1.381 . S
C406 H427 0.930 . S
C407 C406 1.381 . S
C407 C409 1.381 . S
C407 C410 1.487 . S
C408 C405 1.382 . S
C408 C409 1.387 . S
C408 H428 0.930 . S
C409 C407 1.381 . S
C409 C408 1.387 . S
C409 H429 0.931 . S
C410 C407 1.487 . S
C410 C417 1.399 . S
C410 N435 1.343 . S
C411 C412 1.384 . S
C411 C413 1.384 . S
C411 H430 0.931 . S
C412 C411 1.384 . S
C412 C415 1.382 . S
C413 C411 1.384 . S
C413 C414 1.381 . S
C413 H431 0.930 . S
C414 C413 1.381 . S
C414 C416 1.381 . S
C414 C417 1.487 . S
C415 C412 1.382 . S
C415 C416 1.387 . S
C415 H432 0.930 . S
C416 C414 1.381 . S
C416 C415 1.387 . S
C416 H433 0.931 . S
C417 C410 1.399 . S
C417 C414 1.487 . S
C417 N434 1.343 . S
H418 C390 0.931 . S
H419 C392 0.930 . S
H420 C394 0.930 . S
H421 C395 0.931 . S
H422 C397 0.931 . S
H423 C399 0.930 . S
H424 C401 0.930 . S
H425 C402 0.931 . S
H426 C404 0.931 . S
H427 C406 0.930 . S
H428 C408 0.930 . S
H429 C409 0.931 . S
H430 C411 0.931 . S
H431 C413 0.930 . S
H432 C415 0.930 . S
H433 C416 0.931 . S
N434 C396 1.343 . S
N434 C417 1.343 . S
N435 C403 1.343 . S
N435 C410 1.343 . S
C436 C437 1.384 . S
C436 C438 1.384 . S
C436 H464 0.931 . S
C437 C436 1.384 . S
C437 C440 1.382 . S
C438 C436 1.384 . S
C438 C439 1.381 . S
C438 H465 0.930 . S
C439 C438 1.381 . S
C439 C441 1.381 . S
C439 C442 1.487 . S
C440 C437 1.382 . S
C440 C441 1.387 . S
C440 H466 0.930 . S
C441 C439 1.381 . S
C441 C440 1.387 . S
C441 H467 0.931 . S
C442 C439 1.487 . S
C442 C449 1.399 . S
C442 N480 1.343 . S
C443 C444 1.384 . S
C443 C445 1.384 . S
C443 H468 0.931 . S
C444 C443 1.384 . S
C444 C447 1.382 . S
C445 C443 1.384 . S
C445 C446 1.381 . S
C445 H469 0.930 . S
C446 C445 1.381 . S
C446 C448 1.381 . S
C446 C449 1.487 . S
C447 C444 1.382 . S
C447 C448 1.387 . S
C447 H470 0.930 . S
C448 C446 1.381 . S
C448 C447 1.387 . S
C448 H471 0.931 . S
C449 C442 1.399 . S
C449 C446 1.487 . S
C449 N481 1.343 . S
C450 C451 1.384 . S
C450 C452 1.384 . S
C450 H472 0.931 . S
C451 C450 1.384 . S
C451 C454 1.382 . S
C452 C450 1.384 . S
C452 C453 1.381 . S
C452 H473 0.930 . S
C453 C452 1.381 . S
C453 C455 1.381 . S
C453 C456 1.487 . S
C454 C451 1.382 . S
C454 C455 1.387 . S
C454 H474 0.930 . S
C455 C453 1.381 . S
C455 C454 1.387 . S
C455 H475 0.931 . S
C456 C453 1.487 . S
C456 C463 1.399 . S
C456 N481 1.343 . S
C457 C458 1.384 . S
C457 C459 1.384 . S
C457 H476 0.931 . S
C458 C457 1.384 . S
C458 C461 1.382 . S
C459 C457 1.384 . S
C459 C460 1.381 . S
C459 H477 0.930 . S
C460 C459 1.381 . S
C460 C462 1.381 . S
C460 C463 1.487 . S
C461 C458 1.382 . S
C461 C462 1.387 . S
C461 H478 0.930 . S
C462 C460 1.381 . S
C462 C461 1.387 . S
C462 H479 0.931 . S
C463 C456 1.399 . S
C463 C460 1.487 . S
C463 N480 1.343 . S
H464 C436 0.931 . S
H465 C438 0.930 . S
H466 C440 0.930 . S
H467 C441 0.931 . S
H468 C443 0.931 . S
H469 C445 0.930 . S
H470 C447 0.930 . S
H471 C448 0.931 . S
H472 C450 0.931 . S
H473 C452 0.930 . S
H474 C454 0.930 . S
H475 C455 0.931 . S
H476 C457 0.931 . S
H477 C459 0.930 . S
H478 C461 0.930 . S
H479 C462 0.931 . S
N480 C442 1.343 . S
N480 C463 1.343 . S
N481 C449 1.343 . S
N481 C456 1.343 . S
C482 C483 1.384 . S
C482 C484 1.384 . S
C482 H510 0.931 . S
C483 C482 1.384 . S
C483 C486 1.382 . S
C484 C482 1.384 . S
C484 C485 1.381 . S
C484 H511 0.930 . S
C485 C484 1.381 . S
C485 C487 1.381 . S
C485 C488 1.487 . S
C486 C483 1.382 . S
C486 C487 1.387 . S
C486 H512 0.930 . S
C487 C485 1.381 . S
C487 C486 1.387 . S
C487 H513 0.931 . S
C488 C485 1.487 . S
C488 C495 1.399 . S
C488 N526 1.343 . S
C489 C490 1.384 . S
C489 C491 1.384 . S
C489 H514 0.931 . S
C490 C489 1.384 . S
C490 C493 1.382 . S
C491 C489 1.384 . S
C491 C492 1.381 . S
C491 H515 0.930 . S
C492 C491 1.381 . S
C492 C494 1.381 . S
C492 C495 1.487 . S
C493 C490 1.382 . S
C493 C494 1.387 . S
C493 H516 0.930 . S
C494 C492 1.381 . S
C494 C493 1.387 . S
C494 H517 0.931 . S
C495 C488 1.399 . S
C495 C492 1.487 . S
C495 N527 1.343 . S
C496 C497 1.384 . S
C496 C498 1.384 . S
C496 H518 0.931 . S
C497 C496 1.384 . S
C497 C500 1.382 . S
C498 C496 1.384 . S
C498 C499 1.381 . S
C498 H519 0.930 . S
C499 C498 1.381 . S
C499 C501 1.381 . S
C499 C502 1.487 . S
C500 C497 1.382 . S
C500 C501 1.387 . S
C500 H520 0.930 . S
C501 C499 1.381 . S
C501 C500 1.387 . S
C501 H521 0.931 . S
C502 C499 1.487 . S
C502 C509 1.399 . S
C502 N527 1.343 . S
C503 C504 1.384 . S
C503 C505 1.384 . S
C503 H522 0.931 . S
C504 C503 1.384 . S
C504 C507 1.382 . S
C505 C503 1.384 . S
C505 C506 1.381 . S
C505 H523 0.930 . S
C506 C505 1.381 . S
C506 C508 1.381 . S
C506 C509 1.487 . S
C507 C504 1.382 . S
C507 C508 1.387 . S
C507 H524 0.930 . S
C508 C506 1.381 . S
C508 C507 1.387 . S
C508 H525 0.931 . S
C509 C502 1.399 . S
C509 C506 1.487 . S
C509 N526 1.343 . S
H510 C482 0.931 . S
H511 C484 0.930 . S
H512 C486 0.930 . S
H513 C487 0.931 . S
H514 C489 0.931 . S
H515 C491 0.930 . S
H516 C493 0.930 . S
H517 C494 0.931 . S
H518 C496 0.931 . S
H519 C498 0.930 . S
H520 C500 0.930 . S
H521 C501 0.931 . S
H522 C503 0.931 . S
H523 C505 0.930 . S
H524 C507 0.930 . S
H525 C508 0.931 . S
N526 C488 1.343 . S
N526 C509 1.343 . S
N527 C495 1.343 . S
N527 C502 1.343 . S
C528 C529 1.384 . S
C528 C530 1.384 . S
C528 H556 0.931 . S
C529 C528 1.384 . S
C529 C532 1.382 . S
C530 C528 1.384 . S
C530 C531 1.381 . S
C530 H557 0.930 . S
C531 C530 1.381 . S
C531 C533 1.381 . S
C531 C534 1.487 . S
C532 C529 1.382 . S
C532 C533 1.387 . S
C532 H558 0.930 . S
C533 C531 1.381 . S
C533 C532 1.387 . S
C533 H559 0.931 . S
C534 C531 1.487 . S
C534 C541 1.399 . S
C534 N572 1.343 . S
C535 C536 1.384 . S
C535 C537 1.384 . S
C535 H560 0.931 . S
C536 C535 1.384 . S
C536 C539 1.382 . S
C537 C535 1.384 . S
C537 C538 1.381 . S
C537 H561 0.930 . S
C538 C537 1.381 . S
C538 C540 1.381 . S
C538 C541 1.487 . S
C539 C536 1.382 . S
C539 C540 1.387 . S
C539 H562 0.930 . S
C540 C538 1.381 . S
C540 C539 1.387 . S
C540 H563 0.931 . S
C541 C534 1.399 . S
C541 C538 1.487 . S
C541 N573 1.343 . S
C542 C543 1.384 . S
C542 C544 1.384 . S
C542 H564 0.931 . S
C543 C542 1.384 . S
C543 C546 1.382 . S
C544 C542 1.384 . S
C544 C545 1.381 . S
C544 H565 0.930 . S
C545 C544 1.381 . S
C545 C547 1.381 . S
C545 C548 1.487 . S
C546 C543 1.382 . S
C546 C547 1.387 . S
C546 H566 0.930 . S
C547 C545 1.381 . S
C547 C546 1.387 . S
C547 H567 0.931 . S
C548 C545 1.487 . S
C548 C555 1.399 . S
C548 N573 1.343 . S
C549 C550 1.384 . S
C549 C551 1.384 . S
C549 H568 0.931 . S
C550 C549 1.384 . S
C550 C553 1.382 . S
C551 C549 1.384 . S
C551 C552 1.381 . S
C551 H569 0.930 . S
C552 C551 1.381 . S
C552 C554 1.381 . S
C552 C555 1.487 . S
C553 C550 1.382 . S
C553 C554 1.387 . S
C553 H570 0.930 . S
C554 C552 1.381 . S
C554 C553 1.387 . S
C554 H571 0.931 . S
C555 C548 1.399 . S
C555 C552 1.487 . S
C555 N572 1.343 . S
H556 C528 0.931 . S
H557 C530 0.930 . S
H558 C532 0.930 . S
H559 C533 0.931 . S
H560 C535 0.931 . S
H561 C537 0.930 . S
H562 C539 0.930 . S
H563 C540 0.931 . S
H564 C542 0.931 . S
H565 C544 0.930 . S
H566 C546 0.930 . S
H567 C547 0.931 . S
H568 C549 0.931 . S
H569 C551 0.930 . S
H570 C553 0.930 . S
H571 C554 0.931 . S
N572 C534 1.343 . S
N572 C555 1.343 . S
N573 C541 1.343 . S
N573 C548 1.343 . S
C574 C575 1.384 . S
C574 C576 1.384 . S
C574 H602 0.931 . S
C575 C574 1.384 . S
C575 C578 1.382 . S
C576 C574 1.384 . S
C576 C577 1.381 . S
C576 H603 0.930 . S
C577 C576 1.381 . S
C577 C579 1.381 . S
C577 C580 1.487 . S
C578 C575 1.382 . S
C578 C579 1.387 . S
C578 H604 0.930 . S
C579 C577 1.381 . S
C579 C578 1.387 . S
C579 H605 0.931 . S
C580 C577 1.487 . S
C580 C587 1.399 . S
C580 N618 1.343 . S
C581 C582 1.384 . S
C581 C583 1.384 . S
C581 H606 0.931 . S
C582 C581 1.384 . S
C582 C585 1.382 . S
C583 C581 1.384 . S
C583 C584 1.381 . S
C583 H607 0.930 . S
C584 C583 1.381 . S
C584 C586 1.381 . S
C584 C587 1.487 . S
C585 C582 1.382 . S
C585 C586 1.387 . S
C585 H608 0.930 . S
C586 C584 1.381 . S
C586 C585 1.387 . S
C586 H609 0.931 . S
C587 C580 1.399 . S
C587 C584 1.487 . S
C587 N619 1.343 . S
C588 C589 1.384 . S
C588 C590 1.384 . S
C588 H610 0.931 . S
C589 C588 1.384 . S
C589 C592 1.382 . S
C590 C588 1.384 . S
C590 C591 1.381 . S
C590 H611 0.930 . S
C591 C590 1.381 . S
C591 C593 1.381 . S
C591 C594 1.487 . S
C592 C589 1.382 . S
C592 C593 1.387 . S
C592 H612 0.930 . S
C593 C591 1.381 . S
C593 C592 1.387 . S
C593 H613 0.931 . S
C594 C591 1.487 . S
C594 C601 1.399 . S
C594 N619 1.343 . S
C595 C596 1.384 . S
C595 C597 1.384 . S
C595 H614 0.931 . S
C596 C595 1.384 . S
C596 C599 1.382 . S
C597 C595 1.384 . S
C597 C598 1.381 . S
C597 H615 0.930 . S
C598 C597 1.381 . S
C598 C600 1.381 . S
C598 C601 1.487 . S
C599 C596 1.382 . S
C599 C600 1.387 . S
C599 H616 0.930 . S
C600 C598 1.381 . S
C600 C599 1.387 . S
C600 H617 0.931 . S
C601 C594 1.399 . S
C601 C598 1.487 . S
C601 N618 1.343 . S
H602 C574 0.931 . S
H603 C576 0.930 . S
H604 C578 0.930 . S
H605 C579 0.931 . S
H606 C581 0.931 . S
H607 C583 0.930 . S
H608 C585 0.930 . S
H609 C586 0.931 . S
H610 C588 0.931 . S
H611 C590 0.930 . S
H612 C592 0.930 . S
H613 C593 0.931 . S
H614 C595 0.931 . S
H615 C597 0.930 . S
H616 C599 0.930 . S
H617 C600 0.931 . S
N618 C580 1.343 . S
N618 C601 1.343 . S
N619 C587 1.343 . S
N619 C594 1.343 . S
C620 C621 1.384 . S
C620 C622 1.384 . S
C620 H648 0.931 . S
C621 C620 1.384 . S
C621 C624 1.382 . S
C622 C620 1.384 . S
C622 C623 1.381 . S
C622 H649 0.930 . S
C623 C622 1.381 . S
C623 C625 1.381 . S
C623 C626 1.487 . S
C624 C621 1.382 . S
C624 C625 1.387 . S
C624 H650 0.930 . S
C625 C623 1.381 . S
C625 C624 1.387 . S
C625 H651 0.931 . S
C626 C623 1.487 . S
C626 C633 1.399 . S
C626 N664 1.343 . S
C627 C628 1.384 . S
C627 C629 1.384 . S
C627 H652 0.931 . S
C628 C627 1.384 . S
C628 C631 1.382 . S
C629 C627 1.384 . S
C629 C630 1.381 . S
C629 H653 0.930 . S
C630 C629 1.381 . S
C630 C632 1.381 . S
C630 C633 1.487 . S
C631 C628 1.382 . S
C631 C632 1.387 . S
C631 H654 0.930 . S
C632 C630 1.381 . S
C632 C631 1.387 . S
C632 H655 0.931 . S
C633 C626 1.399 . S
C633 C630 1.487 . S
C633 N665 1.343 . S
C634 C635 1.384 . S
C634 C636 1.384 . S
C634 H656 0.931 . S
C635 C634 1.384 . S
C635 C638 1.382 . S
C636 C634 1.384 . S
C636 C637 1.381 . S
C636 H657 0.930 . S
C637 C636 1.381 . S
C637 C639 1.381 . S
C637 C640 1.487 . S
C638 C635 1.382 . S
C638 C639 1.387 . S
C638 H658 0.930 . S
C639 C637 1.381 . S
C639 C638 1.387 . S
C639 H659 0.931 . S
C640 C637 1.487 . S
C640 C647 1.399 . S
C640 N665 1.343 . S
C641 C642 1.384 . S
C641 C643 1.384 . S
C641 H660 0.931 . S
C642 C641 1.384 . S
C642 C645 1.382 . S
C643 C641 1.384 . S
C643 C644 1.381 . S
C643 H661 0.930 . S
C644 C643 1.381 . S
C644 C646 1.381 . S
C644 C647 1.487 . S
C645 C642 1.382 . S
C645 C646 1.387 . S
C645 H662 0.930 . S
C646 C644 1.381 . S
C646 C645 1.387 . S
C646 H663 0.931 . S
C647 C640 1.399 . S
C647 C644 1.487 . S
C647 N664 1.343 . S
H648 C620 0.931 . S
H649 C622 0.930 . S
H650 C624 0.930 . S
H651 C625 0.931 . S
H652 C627 0.931 . S
H653 C629 0.930 . S
H654 C631 0.930 . S
H655 C632 0.931 . S
H656 C634 0.931 . S
H657 C636 0.930 . S
H658 C638 0.930 . S
H659 C639 0.931 . S
H660 C641 0.931 . S
H661 C643 0.930 . S
H662 C645 0.930 . S
H663 C646 0.931 . S
N664 C626 1.343 . S
N664 C647 1.343 . S
N665 C633 1.343 . S
N665 C640 1.343 . S
C666 C667 1.384 . S
C666 C668 1.384 . S
C666 H694 0.931 . S
C667 C666 1.384 . S
C667 C670 1.382 1_655 S
C668 C666 1.384 . S
C668 C669 1.403 . S
C668 H695 0.930 . S
C669 C668 1.403 . S
C669 C671 1.370 1_655 S
C669 C672 1.474 1_655 S
C670 C667 1.382 1_455 S
C670 C671 1.387 . S
C670 H696 0.930 . S
C671 C669 1.370 1_455 S
C671 C670 1.387 . S
C671 H697 0.931 . S
C672 C669 1.474 1_455 S
C672 C679 1.399 1_455 S
C672 N710 1.312 . S
C673 C674 1.384 . S
C673 C675 1.384 . S
C673 H698 0.931 . S
C674 C673 1.384 . S
C674 C677 1.382 1_455 S
C675 C673 1.384 . S
C675 C676 1.380 . S
C675 H699 0.930 . S
C676 C675 1.380 . S
C676 C678 1.384 1_455 S
C676 C679 1.489 1_455 S
C677 C674 1.382 1_655 S
C677 C678 1.387 . S
C677 H700 0.930 . S
C678 C676 1.384 1_655 S
C678 C677 1.387 . S
C678 H701 0.931 . S
C679 C672 1.399 1_655 S
C679 C676 1.489 1_655 S
C679 N711 1.361 . S
C680 C681 1.384 . S
C680 C682 1.384 . S
C680 H702 0.931 . S
C681 C680 1.384 . S
C681 C684 1.382 1_455 S
C682 C680 1.384 . S
C682 C683 1.424 . S
C682 H703 0.930 . S
C683 C682 1.424 . S
C683 C685 1.360 1_455 S
C683 C686 1.465 . S
C684 C681 1.382 1_655 S
C684 C685 1.387 . S
C684 H704 0.930 . S
C685 C683 1.360 1_655 S
C685 C684 1.387 . S
C685 H705 0.931 . S
C686 C683 1.465 . S
C686 C693 1.398 . S
C686 N711 1.322 1_455 S
C687 C688 1.384 . S
C687 C689 1.384 . S
C687 H706 0.931 . S
C688 C687 1.384 . S
C688 C691 1.382 1_655 S
C689 C687 1.384 . S
C689 C690 1.380 1_655 S
C689 H707 0.930 . S
C690 C689 1.380 1_455 S
C690 C692 1.384 . S
C690 C693 1.498 . S
C691 C688 1.382 1_455 S
C691 C692 1.387 . S
C691 H708 0.930 . S
C692 C690 1.384 . S
C692 C691 1.387 . S
C692 H709 0.931 . S
C693 C686 1.398 . S
C693 C690 1.498 . S
C693 N710 1.361 . S
H694 C666 0.931 . S
H695 C668 0.930 . S
H696 C670 0.930 . S
H697 C671 0.931 . S
H698 C673 0.931 . S
H699 C675 0.930 . S
H700 C677 0.930 . S
H701 C678 0.931 . S
H702 C680 0.931 . S
H703 C682 0.930 . S
H704 C684 0.930 . S
H705 C685 0.931 . S
H706 C687 0.931 . S
H707 C689 0.930 . S
H708 C691 0.930 . S
H709 C692 0.931 . S
N710 C672 1.312 . S
N710 C693 1.361 . S
N711 C679 1.361 . S
N711 C686 1.322 1_655 S
C712 C713 1.384 . S
C712 C714 1.384 . S
C712 H740 0.931 . S
C713 C712 1.384 . S
C713 C716 1.382 . S
C714 C712 1.384 . S
C714 C715 1.381 . S
C714 H741 0.930 . S
C715 C714 1.381 . S
C715 C717 1.381 . S
C715 C718 1.487 . S
C716 C713 1.382 . S
C716 C717 1.387 . S
C716 H742 0.930 . S
C717 C715 1.381 . S
C717 C716 1.387 . S
C717 H743 0.931 . S
C718 C715 1.487 . S
C718 C725 1.399 . S
C718 N756 1.343 . S
C719 C720 1.384 . S
C719 C721 1.384 . S
C719 H744 0.931 . S
C720 C719 1.384 . S
C720 C723 1.382 . S
C721 C719 1.384 . S
C721 C722 1.381 . S
C721 H745 0.930 . S
C722 C721 1.381 . S
C722 C724 1.381 . S
C722 C725 1.487 . S
C723 C720 1.382 . S
C723 C724 1.387 . S
C723 H746 0.930 . S
C724 C722 1.381 . S
C724 C723 1.387 . S
C724 H747 0.931 . S
C725 C718 1.399 . S
C725 C722 1.487 . S
C725 N757 1.343 . S
C726 C727 1.384 . S
C726 C728 1.384 . S
C726 H748 0.931 . S
C727 C726 1.384 . S
C727 C730 1.382 . S
C728 C726 1.384 . S
C728 C729 1.381 . S
C728 H749 0.930 . S
C729 C728 1.381 . S
C729 C731 1.381 . S
C729 C732 1.487 . S
C730 C727 1.382 . S
C730 C731 1.387 . S
C730 H750 0.930 . S
C731 C729 1.381 . S
C731 C730 1.387 . S
C731 H751 0.931 . S
C732 C729 1.487 . S
C732 C739 1.399 . S
C732 N757 1.343 . S
C733 C734 1.384 . S
C733 C735 1.384 . S
C733 H752 0.931 . S
C734 C733 1.384 . S
C734 C737 1.382 . S
C735 C733 1.384 . S
C735 C736 1.381 . S
C735 H753 0.930 . S
C736 C735 1.381 . S
C736 C738 1.381 . S
C736 C739 1.487 . S
C737 C734 1.382 . S
C737 C738 1.387 . S
C737 H754 0.930 . S
C738 C736 1.381 . S
C738 C737 1.387 . S
C738 H755 0.931 . S
C739 C732 1.399 . S
C739 C736 1.487 . S
C739 N756 1.343 . S
H740 C712 0.931 . S
H741 C714 0.930 . S
H742 C716 0.930 . S
H743 C717 0.931 . S
H744 C719 0.931 . S
H745 C721 0.930 . S
H746 C723 0.930 . S
H747 C724 0.931 . S
H748 C726 0.931 . S
H749 C728 0.930 . S
H750 C730 0.930 . S
H751 C731 0.931 . S
H752 C733 0.931 . S
H753 C735 0.930 . S
H754 C737 0.930 . S
H755 C738 0.931 . S
N756 C718 1.343 . S
N756 C739 1.343 . S
N757 C725 1.343 . S
N757 C732 1.343 . S
C758 C759 1.384 1_545 S
C758 C760 1.384 . S
C758 H786 0.931 . S
C759 C758 1.384 1_565 S
C759 C762 1.382 . S
C760 C758 1.384 . S
C760 C761 1.381 1_545 S
C760 H787 0.930 . S
C761 C760 1.381 1_565 S
C761 C763 1.381 . S
C761 C764 1.487 . S
C762 C759 1.382 . S
C762 C763 1.387 . S
C762 H788 0.930 . S
C763 C761 1.381 . S
C763 C762 1.387 . S
C763 H789 0.931 . S
C764 C761 1.487 . S
C764 C771 1.399 1_565 S
C764 N802 1.343 . S
C765 C766 1.384 1_565 S
C765 C767 1.384 . S
C765 H790 0.931 . S
C766 C765 1.384 1_545 S
C766 C769 1.382 . S
C767 C765 1.384 . S
C767 C768 1.381 1_565 S
C767 H791 0.930 . S
C768 C767 1.381 1_545 S
C768 C770 1.381 . S
C768 C771 1.487 . S
C769 C766 1.382 . S
C769 C770 1.387 . S
C769 H792 0.930 . S
C770 C768 1.381 . S
C770 C769 1.387 . S
C770 H793 0.931 . S
C771 C764 1.399 1_545 S
C771 C768 1.487 . S
C771 N803 1.343 . S
C772 C773 1.384 1_565 S
C772 C774 1.384 . S
C772 H794 0.931 . S
C773 C772 1.384 1_545 S
C773 C776 1.382 . S
C774 C772 1.384 . S
C774 C775 1.381 1_565 S
C774 H795 0.930 . S
C775 C774 1.381 1_545 S
C775 C777 1.381 . S
C775 C778 1.457 . S
C776 C773 1.382 . S
C776 C777 1.387 . S
C776 H796 0.930 . S
C777 C775 1.381 . S
C777 C776 1.387 . S
C777 H797 0.931 . S
C778 C775 1.457 . S
C778 C785 1.391 1_545 S
C778 N803 1.388 . S
C779 C780 1.384 1_545 S
C779 C781 1.384 . S
C779 H798 0.931 . S
C780 C779 1.384 1_565 S
C780 C783 1.382 . S
C781 C779 1.384 . S
C781 C782 1.381 1_545 S
C781 H799 0.930 . S
C782 C781 1.381 1_565 S
C782 C784 1.381 . S
C782 C785 1.487 . S
C783 C780 1.382 . S
C783 C784 1.387 . S
C783 H800 0.930 . S
C784 C782 1.381 . S
C784 C783 1.387 . S
C784 H801 0.931 . S
C785 C778 1.391 1_565 S
C785 C782 1.487 . S
C785 N802 1.343 . S
H786 C758 0.931 . S
H787 C760 0.930 . S
H788 C762 0.930 . S
H789 C763 0.931 . S
H790 C765 0.931 . S
H791 C767 0.930 . S
H792 C769 0.930 . S
H793 C770 0.931 . S
H794 C772 0.931 . S
H795 C774 0.930 . S
H796 C776 0.930 . S
H797 C777 0.931 . S
H798 C779 0.931 . S
H799 C781 0.930 . S
H800 C783 0.930 . S
H801 C784 0.931 . S
N802 C764 1.343 . S
N802 C785 1.343 . S
N803 C771 1.343 . S
N803 C778 1.388 . S
C804 C805 1.435 . S
C804 C806 1.384 . S
C804 H832 0.931 . S
C805 C804 1.435 . S
C805 C808 1.369 1_545 S
C806 C804 1.384 . S
C806 C807 1.380 1_545 S
C806 H833 0.930 . S
C807 C806 1.380 1_565 S
C807 C809 1.387 . S
C807 C810 1.492 . S
C808 C805 1.369 1_565 S
C808 C809 1.387 . S
C808 H834 0.930 . S
C809 C807 1.387 . S
C809 C808 1.387 . S
C809 H835 0.931 . S
C810 C807 1.492 . S
C810 C817 1.399 1_565 S
C810 N848 1.359 . S
C811 C812 1.384 . S
C811 C813 1.384 . S
C811 H836 0.931 . S
C812 C811 1.384 . S
C812 C815 1.382 1_565 S
C813 C811 1.384 . S
C813 C814 1.414 . S
C813 H837 0.930 . S
C814 C813 1.414 . S
C814 C816 1.365 1_565 S
C814 C817 1.471 1_565 S
C815 C812 1.382 1_545 S
C815 C816 1.387 . S
C815 H838 0.930 . S
C816 C814 1.365 1_545 S
C816 C815 1.387 . S
C816 H839 0.931 . S
C817 C810 1.399 1_545 S
C817 C814 1.471 1_545 S
C817 N849 1.306 . S
C818 C819 1.422 . S
C818 C820 1.384 . S
C818 H840 0.931 . S
C819 C818 1.422 . S
C819 C822 1.372 1_565 S
C820 C818 1.384 . S
C820 C821 1.376 1_565 S
C820 H841 0.930 . S
C821 C820 1.376 1_545 S
C821 C823 1.400 . S
C821 C824 1.492 . S
C822 C819 1.372 1_545 S
C822 C823 1.387 . S
C822 H842 0.930 . S
C823 C821 1.400 . S
C823 C822 1.387 . S
C823 H843 0.931 . S
C824 C821 1.492 . S
C824 C831 1.399 . S
C824 N849 1.359 . S
C825 C826 1.384 . S
C825 C827 1.384 . S
C825 H844 0.931 . S
C826 C825 1.384 . S
C826 C829 1.382 1_545 S
C827 C825 1.384 . S
C827 C828 1.435 . S
C827 H845 0.930 . S
C828 C827 1.435 . S
C828 C830 1.355 1_545 S
C828 C831 1.462 . S
C829 C826 1.382 1_565 S
C829 C830 1.387 . S
C829 H846 0.930 . S
C830 C828 1.355 1_565 S
C830 C829 1.387 . S
C830 H847 0.931 . S
C831 C824 1.399 . S
C831 C828 1.462 . S
C831 N848 1.316 1_545 S
H832 C804 0.931 . S
H833 C806 0.930 . S
H834 C808 0.930 . S
H835 C809 0.931 . S
H836 C811 0.931 . S
H837 C813 0.930 . S
H838 C815 0.930 . S
H839 C816 0.931 . S
H840 C818 0.931 . S
H841 C820 0.930 . S
H842 C822 0.930 . S
H843 C823 0.931 . S
H844 C825 0.931 . S
H845 C827 0.930 . S
H846 C829 0.930 . S
H847 C830 0.931 . S
N848 C810 1.359 . S
N848 C831 1.316 1_565 S
N849 C817 1.306 . S
N849 C824 1.359 . S
C850 C851 1.384 . S
C850 C852 1.384 . S
C850 H878 0.931 . S
C851 C850 1.384 . S
C851 C854 1.382 1_655 S
C852 C850 1.384 . S
C852 C853 1.438 . S
C852 H879 0.930 . S
C853 C852 1.438 . S
C853 C855 1.354 1_655 S
C853 C856 1.461 . S
C854 C851 1.382 1_455 S
C854 C855 1.387 . S
C854 H880 0.930 . S
C855 C853 1.354 1_455 S
C855 C854 1.387 . S
C855 H881 0.931 . S
C856 C853 1.461 . S
C856 C863 1.399 . S
C856 N894 1.325 1_655 S
C857 C858 1.384 . S
C857 C859 1.384 . S
C857 H882 0.931 . S
C858 C857 1.384 . S
C858 C861 1.382 1_455 S
C859 C857 1.384 . S
C859 C860 1.383 1_455 S
C859 H883 0.930 . S
C860 C859 1.383 1_655 S
C860 C862 1.377 . S
C860 C863 1.501 . S
C861 C858 1.382 1_655 S
C861 C862 1.387 . S
C861 H884 0.930 . S
C862 C860 1.377 . S
C862 C861 1.387 . S
C862 H885 0.931 . S
C863 C856 1.399 . S
C863 C860 1.501 . S
C863 N895 1.358 . S
C864 C865 1.384 . S
C864 C866 1.384 . S
C864 H886 0.931 . S
C865 C864 1.384 . S
C865 C868 1.382 1_455 S
C866 C864 1.384 . S
C866 C867 1.417 . S
C866 H887 0.930 . S
C867 C866 1.417 . S
C867 C869 1.363 1_455 S
C867 C870 1.470 1_455 S
C868 C865 1.382 1_655 S
C868 C869 1.387 . S
C868 H888 0.930 . S
C869 C867 1.363 1_655 S
C869 C868 1.387 . S
C869 H889 0.931 . S
C870 C867 1.470 1_655 S
C870 C877 1.399 1_655 S
C870 N895 1.315 . S
C871 C872 1.384 . S
C871 C873 1.384 . S
C871 H890 0.931 . S
C872 C871 1.384 . S
C872 C875 1.382 1_655 S
C873 C871 1.384 . S
C873 C874 1.383 . S
C873 H891 0.930 . S
C874 C873 1.383 . S
C874 C876 1.377 1_655 S
C874 C877 1.492 1_655 S
C875 C872 1.382 1_455 S
C875 C876 1.387 . S
C875 H892 0.930 . S
C876 C874 1.377 1_455 S
C876 C875 1.387 . S
C876 H893 0.931 . S
C877 C870 1.399 1_455 S
C877 C874 1.492 1_455 S
C877 N894 1.358 . S
H878 C850 0.931 . S
H879 C852 0.930 . S
H880 C854 0.930 . S
H881 C855 0.931 . S
H882 C857 0.931 . S
H883 C859 0.930 . S
H884 C861 0.930 . S
H885 C862 0.931 . S
H886 C864 0.931 . S
H887 C866 0.930 . S
H888 C868 0.930 . S
H889 C869 0.931 . S
H890 C871 0.931 . S
H891 C873 0.930 . S
H892 C875 0.930 . S
H893 C876 0.931 . S
N894 C856 1.325 1_455 S
N894 C877 1.358 . S
N895 C863 1.358 . S
N895 C870 1.315 . S
C896 C897 1.384 . S
C896 C898 1.384 . S
C896 H924 0.931 . S
C897 C896 1.384 . S
C897 C900 1.382 . S
C898 C896 1.384 . S
C898 C899 1.381 . S
C898 H925 0.930 . S
C899 C898 1.381 . S
C899 C901 1.381 . S
C899 C902 1.487 . S
C900 C897 1.382 . S
C900 C901 1.387 . S
C900 H926 0.930 . S
C901 C899 1.381 . S
C901 C900 1.387 . S
C901 H927 0.931 . S
C902 C899 1.487 . S
C902 C909 1.399 . S
C902 N940 1.343 . S
C903 C904 1.384 . S
C903 C905 1.384 . S
C903 H928 0.931 . S
C904 C903 1.384 . S
C904 C907 1.382 . S
C905 C903 1.384 . S
C905 C906 1.381 . S
C905 H929 0.930 . S
C906 C905 1.381 . S
C906 C908 1.381 . S
C906 C909 1.487 . S
C907 C904 1.382 . S
C907 C908 1.387 . S
C907 H930 0.930 . S
C908 C906 1.381 . S
C908 C907 1.387 . S
C908 H931 0.931 . S
C909 C902 1.399 . S
C909 C906 1.487 . S
C909 N941 1.343 . S
C910 C911 1.384 . S
C910 C912 1.384 . S
C910 H932 0.931 . S
C911 C910 1.384 . S
C911 C914 1.382 . S
C912 C910 1.384 . S
C912 C913 1.381 . S
C912 H933 0.930 . S
C913 C912 1.381 . S
C913 C915 1.381 . S
C913 C916 1.487 . S
C914 C911 1.382 . S
C914 C915 1.387 . S
C914 H934 0.930 . S
C915 C913 1.381 . S
C915 C914 1.387 . S
C915 H935 0.931 . S
C916 C913 1.487 . S
C916 C923 1.399 . S
C916 N941 1.343 . S
C917 C918 1.384 . S
C917 C919 1.384 . S
C917 H936 0.931 . S
C918 C917 1.384 . S
C918 C921 1.382 . S
C919 C917 1.384 . S
C919 C920 1.381 . S
C919 H937 0.930 . S
C920 C919 1.381 . S
C920 C922 1.381 . S
C920 C923 1.487 . S
C921 C918 1.382 . S
C921 C922 1.387 . S
C921 H938 0.930 . S
C922 C920 1.381 . S
C922 C921 1.387 . S
C922 H939 0.931 . S
C923 C916 1.399 . S
C923 C920 1.487 . S
C923 N940 1.343 . S
H924 C896 0.931 . S
H925 C898 0.930 . S
H926 C900 0.930 . S
H927 C901 0.931 . S
H928 C903 0.931 . S
H929 C905 0.930 . S
H930 C907 0.930 . S
H931 C908 0.931 . S
H932 C910 0.931 . S
H933 C912 0.930 . S
H934 C914 0.930 . S
H935 C915 0.931 . S
H936 C917 0.931 . S
H937 C919 0.930 . S
H938 C921 0.930 . S
H939 C922 0.931 . S
N940 C902 1.343 . S
N940 C923 1.343 . S
N941 C909 1.343 . S
N941 C916 1.343 . S
C942 C943 1.384 . S
C942 C944 1.384 . S
C942 H970 0.931 . S
C943 C942 1.384 . S
C943 C946 1.382 . S
C944 C942 1.384 . S
C944 C945 1.381 . S
C944 H971 0.930 . S
C945 C944 1.381 . S
C945 C947 1.381 . S
C945 C948 1.487 . S
C946 C943 1.382 . S
C946 C947 1.387 . S
C946 H972 0.930 . S
C947 C945 1.381 . S
C947 C946 1.387 . S
C947 H973 0.931 . S
C948 C945 1.487 . S
C948 C955 1.399 . S
C948 N986 1.343 . S
C949 C950 1.384 . S
C949 C951 1.384 . S
C949 H974 0.931 . S
C950 C949 1.384 . S
C950 C953 1.382 . S
C951 C949 1.384 . S
C951 C952 1.381 . S
C951 H975 0.930 . S
C952 C951 1.381 . S
C952 C954 1.381 . S
C952 C955 1.487 . S
C953 C950 1.382 . S
C953 C954 1.387 . S
C953 H976 0.930 . S
C954 C952 1.381 . S
C954 C953 1.387 . S
C954 H977 0.931 . S
C955 C948 1.399 . S
C955 C952 1.487 . S
C955 N987 1.343 . S
C956 C957 1.384 . S
C956 C958 1.384 . S
C956 H978 0.931 . S
C957 C956 1.384 . S
C957 C960 1.382 . S
C958 C956 1.384 . S
C958 C959 1.381 . S
C958 H979 0.930 . S
C959 C958 1.381 . S
C959 C961 1.381 . S
C959 C962 1.487 . S
C960 C957 1.382 . S
C960 C961 1.387 . S
C960 H980 0.930 . S
C961 C959 1.381 . S
C961 C960 1.387 . S
C961 H981 0.931 . S
C962 C959 1.487 . S
C962 C969 1.399 . S
C962 N987 1.343 . S
C963 C964 1.384 . S
C963 C965 1.384 . S
C963 H982 0.931 . S
C964 C963 1.384 . S
C964 C967 1.382 . S
C965 C963 1.384 . S
C965 C966 1.381 . S
C965 H983 0.930 . S
C966 C965 1.381 . S
C966 C968 1.381 . S
C966 C969 1.487 . S
C967 C964 1.382 . S
C967 C968 1.387 . S
C967 H984 0.930 . S
C968 C966 1.381 . S
C968 C967 1.387 . S
C968 H985 0.931 . S
C969 C962 1.399 . S
C969 C966 1.487 . S
C969 N986 1.343 . S
H970 C942 0.931 . S
H971 C944 0.930 . S
H972 C946 0.930 . S
H973 C947 0.931 . S
H974 C949 0.931 . S
H975 C951 0.930 . S
H976 C953 0.930 . S
H977 C954 0.931 . S
H978 C956 0.931 . S
H979 C958 0.930 . S
H980 C960 0.930 . S
H981 C961 0.931 . S
H982 C963 0.931 . S
H983 C965 0.930 . S
H984 C967 0.930 . S
H985 C968 0.931 . S
N986 C948 1.343 . S
N986 C969 1.343 . S
N987 C955 1.343 . S
N987 C962 1.343 . S
C988 C989 1.384 . S
C988 C990 1.384 . S
C988 H1016 0.931 . S
C989 C988 1.384 . S
C989 C992 1.382 . S
C990 C988 1.384 . S
C990 C991 1.381 . S
C990 H1017 0.930 . S
C991 C990 1.381 . S
C991 C993 1.381 . S
C991 C994 1.487 . S
C992 C989 1.382 . S
C992 C993 1.387 . S
C992 H1018 0.930 . S
C993 C991 1.381 . S
C993 C992 1.387 . S
C993 H1019 0.931 . S
C994 C991 1.487 . S
C994 C1001 1.399 . S
C994 N1032 1.343 . S
C995 C996 1.384 . S
C995 C997 1.384 . S
C995 H1020 0.931 . S
C996 C995 1.384 . S
C996 C999 1.382 . S
C997 C995 1.384 . S
C997 C998 1.381 . S
C997 H1021 0.930 . S
C998 C997 1.381 . S
C998 C1000 1.381 . S
C998 C1001 1.487 . S
C999 C996 1.382 . S
C999 C1000 1.387 . S
C999 H1022 0.930 . S
C1000 C998 1.381 . S
C1000 C999 1.387 . S
C1000 H1023 0.931 . S
C1001 C994 1.399 . S
C1001 C998 1.487 . S
C1001 N1033 1.343 . S
C1002 C1003 1.384 . S
C1002 C1004 1.384 . S
C1002 H1024 0.931 . S
C1003 C1002 1.384 . S
C1003 C1006 1.382 . S
C1004 C1002 1.384 . S
C1004 C1005 1.381 . S
C1004 H1025 0.930 . S
C1005 C1004 1.381 . S
C1005 C1007 1.381 . S
C1005 C1008 1.487 . S
C1006 C1003 1.382 . S
C1006 C1007 1.387 . S
C1006 H1026 0.930 . S
C1007 C1005 1.381 . S
C1007 C1006 1.387 . S
C1007 H1027 0.931 . S
C1008 C1005 1.487 . S
C1008 C1015 1.399 . S
C1008 N1033 1.343 . S
C1009 C1010 1.384 . S
C1009 C1011 1.384 . S
C1009 H1028 0.931 . S
C1010 C1009 1.384 . S
C1010 C1013 1.382 . S
C1011 C1009 1.384 . S
C1011 C1012 1.381 . S
C1011 H1029 0.930 . S
C1012 C1011 1.381 . S
C1012 C1014 1.381 . S
C1012 C1015 1.487 . S
C1013 C1010 1.382 . S
C1013 C1014 1.387 . S
C1013 H1030 0.930 . S
C1014 C1012 1.381 . S
C1014 C1013 1.387 . S
C1014 H1031 0.931 . S
C1015 C1008 1.399 . S
C1015 C1012 1.487 . S
C1015 N1032 1.343 . S
H1016 C988 0.931 . S
H1017 C990 0.930 . S
H1018 C992 0.930 . S
H1019 C993 0.931 . S
H1020 C995 0.931 . S
H1021 C997 0.930 . S
H1022 C999 0.930 . S
H1023 C1000 0.931 . S
H1024 C1002 0.931 . S
H1025 C1004 0.930 . S
H1026 C1006 0.930 . S
H1027 C1007 0.931 . S
H1028 C1009 0.931 . S
H1029 C1011 0.930 . S
H1030 C1013 0.930 . S
H1031 C1014 0.931 . S
N1032 C994 1.343 . S
N1032 C1015 1.343 . S
N1033 C1001 1.343 . S
N1033 C1008 1.343 . S
C1034 C1035 1.384 . S
C1034 C1036 1.384 . S
C1034 H1062 0.931 . S
C1035 C1034 1.384 . S
C1035 C1038 1.382 . S
C1036 C1034 1.384 . S
C1036 C1037 1.381 . S
C1036 H1063 0.930 . S
C1037 C1036 1.381 . S
C1037 C1039 1.381 . S
C1037 C1040 1.487 . S
C1038 C1035 1.382 . S
C1038 C1039 1.387 . S
C1038 H1064 0.930 . S
C1039 C1037 1.381 . S
C1039 C1038 1.387 . S
C1039 H1065 0.931 . S
C1040 C1037 1.487 . S
C1040 C1047 1.399 . S
C1040 N1078 1.343 . S
C1041 C1042 1.384 . S
C1041 C1043 1.384 . S
C1041 H1066 0.931 . S
C1042 C1041 1.384 . S
C1042 C1045 1.382 . S
C1043 C1041 1.384 . S
C1043 C1044 1.381 . S
C1043 H1067 0.930 . S
C1044 C1043 1.381 . S
C1044 C1046 1.381 . S
C1044 C1047 1.487 . S
C1045 C1042 1.382 . S
C1045 C1046 1.387 . S
C1045 H1068 0.930 . S
C1046 C1044 1.381 . S
C1046 C1045 1.387 . S
C1046 H1069 0.931 . S
C1047 C1040 1.399 . S
C1047 C1044 1.487 . S
C1047 N1079 1.343 . S
C1048 C1049 1.384 . S
C1048 C1050 1.384 . S
C1048 H1070 0.931 . S
C1049 C1048 1.384 . S
C1049 C1052 1.382 . S
C1050 C1048 1.384 . S
C1050 C1051 1.381 . S
C1050 H1071 0.930 . S
C1051 C1050 1.381 . S
C1051 C1053 1.381 . S
C1051 C1054 1.487 . S
C1052 C1049 1.382 . S
C1052 C1053 1.387 . S
C1052 H1072 0.930 . S
C1053 C1051 1.381 . S
C1053 C1052 1.387 . S
C1053 H1073 0.931 . S
C1054 C1051 1.487 . S
C1054 C1061 1.399 . S
C1054 N1079 1.343 . S
C1055 C1056 1.384 . S
C1055 C1057 1.384 . S
C1055 H1074 0.931 . S
C1056 C1055 1.384 . S
C1056 C1059 1.382 . S
C1057 C1055 1.384 . S
C1057 C1058 1.381 . S
C1057 H1075 0.930 . S
C1058 C1057 1.381 . S
C1058 C1060 1.381 . S
C1058 C1061 1.487 . S
C1059 C1056 1.382 . S
C1059 C1060 1.387 . S
C1059 H1076 0.930 . S
C1060 C1058 1.381 . S
C1060 C1059 1.387 . S
C1060 H1077 0.931 . S
C1061 C1054 1.399 . S
C1061 C1058 1.487 . S
C1061 N1078 1.343 . S
H1062 C1034 0.931 . S
H1063 C1036 0.930 . S
H1064 C1038 0.930 . S
H1065 C1039 0.931 . S
H1066 C1041 0.931 . S
H1067 C1043 0.930 . S
H1068 C1045 0.930 . S
H1069 C1046 0.931 . S
H1070 C1048 0.931 . S
H1071 C1050 0.930 . S
H1072 C1052 0.930 . S
H1073 C1053 0.931 . S
H1074 C1055 0.931 . S
H1075 C1057 0.930 . S
H1076 C1059 0.930 . S
H1077 C1060 0.931 . S
N1078 C1040 1.343 . S
N1078 C1061 1.343 . S
N1079 C1047 1.343 . S
N1079 C1054 1.343 . S
H1080 C1088 0.929 . S
H1081 C1090 0.930 . S
H1082 C1092 0.930 . S
H1083 C1095 0.929 . S
H1084 C1098 0.930 . S
H1085 C1100 0.960 . S
H1086 C1100 0.960 . S
H1087 C1100 0.960 . S
C1088 H1080 0.929 . S
C1088 C1089 1.377 . S
C1088 C1090 1.384 . S
C1089 C1088 1.377 . S
C1089 C1095 1.390 1_655 S
C1090 H1081 0.930 . S
C1090 C1088 1.384 . S
C1090 C1091 1.372 . S
C1091 C1090 1.372 . S
C1091 C1092 1.400 1_655 S
C1091 C1096 1.490 . S
C1092 H1082 0.930 . S
C1092 C1091 1.400 1_455 S
C1092 C1095 1.386 . S
H1093 C1109 0.930 . S
H1094 C1110 0.931 . S
C1095 H1083 0.929 . S
C1095 C1089 1.390 1_455 S
C1095 C1092 1.386 . S
C1096 C1091 1.490 . S
C1096 C1098 1.395 . S
C1096 C1099 1.403 1_655 S
H1097 C1103 0.930 . S
C1098 H1084 0.930 . S
C1098 C1096 1.395 . S
C1098 C1101 1.403 . S
C1099 C1096 1.403 1_455 S
C1099 C1100 1.524 . S
C1099 C1103 1.400 . S
C1100 H1085 0.960 . S
C1100 H1086 0.960 . S
C1100 H1087 0.960 . S
C1100 C1099 1.524 . S
C1101 C1098 1.403 . S
C1101 C1102 1.392 . S
C1101 C1105 1.495 . S
C1102 C1101 1.392 . S
C1102 C1103 1.385 1_655 S
C1102 C1104 1.478 . S
C1103 H1097 0.930 . S
C1103 C1099 1.400 . S
C1103 C1102 1.385 1_455 S
C1104 C1102 1.478 . S
C1104 C1106 1.381 . S
C1104 C1110 1.383 1_655 S
C1105 C1101 1.495 . S
C1105 H1111 0.959 . S
C1105 H1112 0.961 . S
C1105 H1113 0.960 . S
C1106 C1104 1.381 . S
C1106 C1107 1.394 . S
C1106 H1114 0.930 . S
C1107 C1106 1.394 . S
C1107 C1108 1.383 . S
C1107 H1115 0.929 . S
C1108 C1107 1.383 . S
C1108 C1109 1.377 1_655 S
C1109 H1093 0.930 . S
C1109 C1108 1.377 1_455 S
C1109 C1110 1.379 . S
C1110 H1094 0.931 . S
C1110 C1104 1.383 1_455 S
C1110 C1109 1.379 . S
H1111 C1105 0.959 . S
H1112 C1105 0.961 . S
H1113 C1105 0.960 . S
H1114 C1106 0.930 . S
H1115 C1107 0.929 . S
H1116 C1124 0.929 . S
H1117 C1126 0.930 . S
H1118 C1128 0.930 . S
H1119 C1131 0.929 . S
H1120 C1134 0.930 . S
H1121 C1136 0.960 . S
H1122 C1136 0.960 . S
H1123 C1136 0.960 . S
C1124 H1116 0.929 . S
C1124 C1125 1.377 . S
C1124 C1126 1.384 . S
C1125 C1124 1.377 . S
C1125 C1131 1.390 . S
C1126 H1117 0.930 . S
C1126 C1124 1.384 . S
C1126 C1127 1.372 . S
C1127 C1126 1.372 . S
C1127 C1128 1.400 . S
C1127 C1132 1.490 . S
C1128 H1118 0.930 . S
C1128 C1127 1.400 . S
C1128 C1131 1.386 . S
H1129 C1145 0.930 . S
H1130 C1146 0.931 . S
C1131 H1119 0.929 . S
C1131 C1125 1.390 . S
C1131 C1128 1.386 . S
C1132 C1127 1.490 . S
C1132 C1134 1.395 . S
C1132 C1135 1.403 . S
H1133 C1139 0.930 . S
C1134 H1120 0.930 . S
C1134 C1132 1.395 . S
C1134 C1137 1.403 . S
C1135 C1132 1.403 . S
C1135 C1136 1.524 . S
C1135 C1139 1.400 . S
C1136 H1121 0.960 . S
C1136 H1122 0.960 . S
C1136 H1123 0.960 . S
C1136 C1135 1.524 . S
C1137 C1134 1.403 . S
C1137 C1138 1.392 . S
C1137 C1141 1.495 . S
C1138 C1137 1.392 . S
C1138 C1139 1.385 . S
C1138 C1140 1.478 . S
C1139 H1133 0.930 . S
C1139 C1135 1.400 . S
C1139 C1138 1.385 . S
C1140 C1138 1.478 . S
C1140 C1142 1.381 . S
C1140 C1146 1.383 . S
C1141 C1137 1.495 . S
C1141 H1147 0.959 . S
C1141 H1148 0.961 . S
C1141 H1149 0.960 . S
C1142 C1140 1.381 . S
C1142 C1143 1.394 . S
C1142 H1150 0.930 . S
C1143 C1142 1.394 . S
C1143 C1144 1.383 . S
C1143 H1151 0.929 . S
C1144 C1143 1.383 . S
C1144 C1145 1.377 . S
C1145 H1129 0.930 . S
C1145 C1144 1.377 . S
C1145 C1146 1.379 . S
C1146 H1130 0.931 . S
C1146 C1140 1.383 . S
C1146 C1145 1.379 . S
H1147 C1141 0.959 . S
H1148 C1141 0.961 . S
H1149 C1141 0.960 . S
H1150 C1142 0.930 . S
H1151 C1143 0.929 . S
H1152 C1160 0.929 1_565 S
H1153 C1162 0.957 . S
H1154 C1164 0.930 . S
H1155 C1167 0.929 . S
H1156 C1170 0.930 . S
H1157 C1172 0.960 . S
H1158 C1172 0.960 . S
H1159 C1172 0.960 . S
C1160 H1152 0.929 1_545 S
C1160 C1161 1.377 . S
C1160 C1162 1.368 1_545 S
C1161 C1160 1.377 . S
C1161 C1167 1.390 . S
C1162 H1153 0.957 . S
C1162 C1160 1.368 1_565 S
C1162 C1163 1.362 1_565 S
C1163 C1162 1.362 1_545 S
C1163 C1164 1.400 . S
C1163 C1168 1.490 . S
C1164 H1154 0.930 . S
C1164 C1163 1.400 . S
C1164 C1167 1.386 . S
H1165 C1181 0.930 . S
H1166 C1182 0.931 . S
C1167 H1155 0.929 . S
C1167 C1161 1.390 . S
C1167 C1164 1.386 . S
C1168 C1163 1.490 . S
C1168 C1170 1.395 1_545 S
C1168 C1171 1.403 . S
H1169 C1175 0.930 . S
C1170 H1156 0.930 . S
C1170 C1168 1.395 1_565 S
C1170 C1173 1.403 . S
C1171 C1168 1.403 . S
C1171 C1172 1.524 . S
C1171 C1175 1.400 . S
C1172 H1157 0.960 . S
C1172 H1158 0.960 . S
C1172 H1159 0.960 . S
C1172 C1171 1.524 . S
C1173 C1170 1.403 . S
C1173 C1174 1.392 1_565 S
C1173 C1177 1.495 . S
C1174 C1173 1.392 1_545 S
C1174 C1175 1.385 . S
C1174 C1176 1.478 . S
C1175 H1169 0.930 . S
C1175 C1171 1.400 . S
C1175 C1174 1.385 . S
C1176 C1174 1.478 . S
C1176 C1178 1.381 1_545 S
C1176 C1182 1.383 . S
C1177 C1173 1.495 . S
C1177 H1183 0.959 . S
C1177 H1184 0.961 . S
C1177 H1185 0.960 . S
C1178 C1176 1.381 1_565 S
C1178 C1179 1.394 . S
C1178 H1186 0.930 . S
C1179 C1178 1.394 . S
C1179 C1180 1.383 1_565 S
C1179 H1187 0.929 . S
C1180 C1179 1.383 1_545 S
C1180 C1181 1.377 . S
C1181 H1165 0.930 . S
C1181 C1180 1.377 . S
C1181 C1182 1.379 . S
C1182 H1166 0.931 . S
C1182 C1176 1.383 . S
C1182 C1181 1.379 . S
H1183 C1177 0.959 . S
H1184 C1177 0.961 . S
H1185 C1177 0.960 . S
H1186 C1178 0.930 . S
H1187 C1179 0.929 . S
H1188 C1196 0.929 . S
H1189 C1198 0.930 . S
H1190 C1200 0.930 . S
H1191 C1203 0.929 . S
H1192 C1206 0.930 . S
H1193 C1208 0.960 . S
H1194 C1208 1.033 . S
H1195 C1208 0.935 1_565 S
C1196 H1188 0.929 . S
C1196 C1197 1.377 1_545 S
C1196 C1198 1.384 . S
C1197 C1196 1.377 1_565 S
C1197 C1203 1.390 . S
C1198 H1189 0.930 . S
C1198 C1196 1.384 . S
C1198 C1199 1.338 1_545 S
C1199 C1198 1.338 1_565 S
C1199 C1200 1.414 . S
C1199 C1204 1.489 . S
C1200 H1190 0.930 . S
C1200 C1199 1.414 . S
C1200 C1203 1.386 . S
H1201 C1217 0.930 . S
H1202 C1218 0.931 . S
C1203 H1191 0.929 . S
C1203 C1197 1.390 . S
C1203 C1200 1.386 . S
C1204 C1199 1.489 . S
C1204 C1206 1.383 . S
C1204 C1207 1.401 . S
H1205 C1211 0.930 . S
C1206 H1192 0.930 . S
C1206 C1204 1.383 . S
C1206 C1209 1.439 . S
C1207 C1204 1.401 . S
C1207 C1208 1.477 1_565 S
C1207 C1211 1.382 . S
C1208 H1193 0.960 . S
C1208 H1194 1.033 . S
C1208 H1195 0.935 1_545 S
C1208 C1207 1.477 1_545 S
C1209 C1206 1.439 . S
C1209 C1210 1.401 . S
C1209 C1213 1.495 . S
C1210 C1209 1.401 . S
C1210 C1211 1.367 . S
C1210 C1212 1.520 . S
C1211 H1205 0.930 . S
C1211 C1207 1.382 . S
C1211 C1210 1.367 . S
C1212 C1210 1.520 . S
C1212 C1214 1.381 1_565 S
C1212 C1218 1.383 . S
C1213 C1209 1.495 . S
C1213 H1219 0.959 . S
C1213 H1220 0.961 . S
C1213 H1221 0.960 1_565 S
C1214 C1212 1.381 1_545 S
C1214 C1215 1.394 . S
C1214 H1222 0.930 . S
C1215 C1214 1.394 . S
C1215 C1216 1.383 1_545 S
C1215 H1223 0.929 . S
C1216 C1215 1.383 1_565 S
C1216 C1217 1.377 . S
C1217 H1201 0.930 . S
C1217 C1216 1.377 . S
C1217 C1218 1.379 . S
C1218 H1202 0.931 . S
C1218 C1212 1.383 . S
C1218 C1217 1.379 . S
H1219 C1213 0.959 . S
H1220 C1213 0.961 . S
H1221 C1213 0.960 1_545 S
H1222 C1214 0.930 . S
H1223 C1215 0.929 . S
H1224 C1232 0.929 . S
H1225 C1234 0.930 . S
H1226 C1236 1.018 . S
H1227 C1239 0.957 . S
H1228 C1242 0.930 . S
H1229 C1244 0.960 . S
H1230 C1244 0.960 . S
H1231 C1244 0.960 . S
C1232 H1224 0.929 . S
C1232 C1233 1.377 . S
C1232 C1234 1.384 . S
C1233 C1232 1.377 . S
C1233 C1239 1.344 1_455 S
C1234 H1225 0.930 . S
C1234 C1232 1.384 . S
C1234 C1235 1.372 . S
C1235 C1234 1.372 . S
C1235 C1236 1.352 1_455 S
C1235 C1240 1.490 . S
C1236 H1226 1.018 . S
C1236 C1235 1.352 1_655 S
C1236 C1239 1.369 . S
H1237 C1253 0.930 . S
H1238 C1254 0.931 . S
C1239 H1227 0.957 . S
C1239 C1233 1.344 1_655 S
C1239 C1236 1.369 . S
C1240 C1235 1.490 . S
C1240 C1242 1.395 . S
C1240 C1243 1.403 . S
H1241 C1247 0.930 . S
C1242 H1228 0.930 . S
C1242 C1240 1.395 . S
C1242 C1245 1.403 . S
C1243 C1240 1.403 . S
C1243 C1244 1.524 . S
C1243 C1247 1.400 . S
C1244 H1229 0.960 . S
C1244 H1230 0.960 . S
C1244 H1231 0.960 . S
C1244 C1243 1.524 . S
C1245 C1242 1.403 . S
C1245 C1246 1.392 . S
C1245 C1249 1.495 . S
C1246 C1245 1.392 . S
C1246 C1247 1.385 . S
C1246 C1248 1.478 . S
C1247 H1241 0.930 . S
C1247 C1243 1.400 . S
C1247 C1246 1.385 . S
C1248 C1246 1.478 . S
C1248 C1250 1.381 . S
C1248 C1254 1.383 1_455 S
C1249 C1245 1.495 . S
C1249 H1255 0.959 . S
C1249 H1256 0.961 1_455 S
C1249 H1257 0.960 . S
C1250 C1248 1.381 . S
C1250 C1251 1.394 . S
C1250 H1258 0.930 . S
C1251 C1250 1.394 . S
C1251 C1252 1.383 . S
C1251 H1259 0.929 . S
C1252 C1251 1.383 . S
C1252 C1253 1.377 1_455 S
C1253 H1237 0.930 . S
C1253 C1252 1.377 1_655 S
C1253 C1254 1.379 . S
C1254 H1238 0.931 . S
C1254 C1248 1.383 1_655 S
C1254 C1253 1.379 . S
H1255 C1249 0.959 . S
H1256 C1249 0.961 1_655 S
H1257 C1249 0.960 . S
H1258 C1250 0.930 . S
H1259 C1251 0.929 . S
H1260 C1268 0.929 . S
H1261 C1270 0.930 . S
H1262 C1272 0.930 . S
H1263 C1275 0.929 . S
H1264 C1278 0.930 . S
H1265 C1280 0.960 . S
H1266 C1280 0.960 . S
H1267 C1280 0.960 . S
C1268 H1260 0.929 . S
C1268 C1269 1.377 . S
C1268 C1270 1.384 . S
C1269 C1268 1.377 . S
C1269 C1275 1.390 . S
C1270 H1261 0.930 . S
C1270 C1268 1.384 . S
C1270 C1271 1.372 . S
C1271 C1270 1.372 . S
C1271 C1272 1.400 . S
C1271 C1276 1.490 . S
C1272 H1262 0.930 . S
C1272 C1271 1.400 . S
C1272 C1275 1.386 . S
H1273 C1289 0.930 . S
H1274 C1290 0.931 . S
C1275 H1263 0.929 . S
C1275 C1269 1.390 . S
C1275 C1272 1.386 . S
C1276 C1271 1.490 . S
C1276 C1278 1.395 . S
C1276 C1279 1.403 . S
H1277 C1283 0.930 . S
C1278 H1264 0.930 . S
C1278 C1276 1.395 . S
C1278 C1281 1.403 . S
C1279 C1276 1.403 . S
C1279 C1280 1.524 . S
C1279 C1283 1.400 . S
C1280 H1265 0.960 . S
C1280 H1266 0.960 . S
C1280 H1267 0.960 . S
C1280 C1279 1.524 . S
C1281 C1278 1.403 . S
C1281 C1282 1.392 . S
C1281 C1285 1.495 . S
C1282 C1281 1.392 . S
C1282 C1283 1.385 . S
C1282 C1284 1.478 . S
C1283 H1277 0.930 . S
C1283 C1279 1.400 . S
C1283 C1282 1.385 . S
C1284 C1282 1.478 . S
C1284 C1286 1.381 . S
C1284 C1290 1.383 . S
C1285 C1281 1.495 . S
C1285 H1291 0.959 . S
C1285 H1292 0.961 . S
C1285 H1293 0.960 . S
C1286 C1284 1.381 . S
C1286 C1287 1.394 . S
C1286 H1294 0.930 . S
C1287 C1286 1.394 . S
C1287 C1288 1.383 . S
C1287 H1295 0.929 . S
C1288 C1287 1.383 . S
C1288 C1289 1.377 . S
C1289 H1273 0.930 . S
C1289 C1288 1.377 . S
C1289 C1290 1.379 . S
C1290 H1274 0.931 . S
C1290 C1284 1.383 . S
C1290 C1289 1.379 . S
H1291 C1285 0.959 . S
H1292 C1285 0.961 . S
H1293 C1285 0.960 . S
H1294 C1286 0.930 . S
H1295 C1287 0.929 . S
H1296 C1304 0.929 . S
H1297 C1306 0.930 . S
H1298 C1308 0.930 . S
H1299 C1311 0.929 . S
H1300 C1314 0.930 . S
H1301 C1316 0.960 . S
H1302 C1316 0.960 . S
H1303 C1316 0.960 1_455 S
C1304 H1296 0.929 . S
C1304 C1305 1.377 1_655 S
C1304 C1306 1.384 . S
C1305 C1304 1.377 1_455 S
C1305 C1311 1.390 . S
C1306 H1297 0.930 . S
C1306 C1304 1.384 . S
C1306 C1307 1.372 1_655 S
C1307 C1306 1.372 1_455 S
C1307 C1308 1.400 . S
C1307 C1312 1.490 . S
C1308 H1298 0.930 . S
C1308 C1307 1.400 . S
C1308 C1311 1.386 . S
H1309 C1325 0.930 . S
H1310 C1326 0.931 . S
C1311 H1299 0.929 . S
C1311 C1305 1.390 . S
C1311 C1308 1.386 . S
C1312 C1307 1.490 . S
C1312 C1314 1.395 . S
C1312 C1315 1.403 . S
H1313 C1319 0.941 1_655 S
C1314 H1300 0.930 . S
C1314 C1312 1.395 . S
C1314 C1317 1.403 . S
C1315 C1312 1.403 . S
C1315 C1316 1.524 1_455 S
C1315 C1319 1.400 . S
C1316 H1301 0.960 . S
C1316 H1302 0.960 . S
C1316 H1303 0.960 1_655 S
C1316 C1315 1.524 1_655 S
C1317 C1314 1.403 . S
C1317 C1318 1.392 . S
C1317 C1321 1.495 . S
C1318 C1317 1.392 . S
C1318 C1319 1.385 . S
C1318 C1320 1.478 . S
C1319 H1313 0.941 1_455 S
C1319 C1315 1.400 . S
C1319 C1318 1.385 . S
C1320 C1318 1.478 . S
C1320 C1322 1.381 1_455 S
C1320 C1326 1.383 . S
C1321 C1317 1.495 . S
C1321 H1327 0.959 . S
C1321 H1328 0.961 . S
C1321 H1329 0.960 . S
C1322 C1320 1.381 1_655 S
C1322 C1323 1.394 . S
C1322 H1330 0.930 . S
C1323 C1322 1.394 . S
C1323 C1324 1.383 1_655 S
C1323 H1331 0.929 . S
C1324 C1323 1.383 1_455 S
C1324 C1325 1.377 . S
C1325 H1309 0.930 . S
C1325 C1324 1.377 . S
C1325 C1326 1.379 . S
C1326 H1310 0.931 . S
C1326 C1320 1.383 . S
C1326 C1325 1.379 . S
H1327 C1321 0.959 . S
H1328 C1321 0.961 . S
H1329 C1321 0.960 . S
H1330 C1322 0.930 . S
H1331 C1323 0.929 . S
H1332 C1340 0.929 . S
H1333 C1342 0.930 . S
H1334 C1344 0.930 . S
H1335 C1347 0.929 . S
H1336 C1350 0.930 . S
H1337 C1352 0.960 . S
H1338 C1352 0.960 . S
H1339 C1352 0.960 . S
C1340 H1332 0.929 . S
C1340 C1341 1.377 . S
C1340 C1342 1.384 . S
C1341 C1340 1.377 . S
C1341 C1347 1.390 . S
C1342 H1333 0.930 . S
C1342 C1340 1.384 . S
C1342 C1343 1.372 . S
C1343 C1342 1.372 . S
C1343 C1344 1.400 . S
C1343 C1348 1.490 . S
C1344 H1334 0.930 . S
C1344 C1343 1.400 . S
C1344 C1347 1.386 . S
H1345 C1361 0.930 . S
H1346 C1362 0.931 . S
C1347 H1335 0.929 . S
C1347 C1341 1.390 . S
C1347 C1344 1.386 . S
C1348 C1343 1.490 . S
C1348 C1350 1.395 . S
C1348 C1351 1.403 . S
H1349 C1355 0.930 . S
C1350 H1336 0.930 . S
C1350 C1348 1.395 . S
C1350 C1353 1.403 . S
C1351 C1348 1.403 . S
C1351 C1352 1.524 . S
C1351 C1355 1.400 . S
C1352 H1337 0.960 . S
C1352 H1338 0.960 . S
C1352 H1339 0.960 . S
C1352 C1351 1.524 . S
C1353 C1350 1.403 . S
C1353 C1354 1.392 . S
C1353 C1357 1.495 . S
C1354 C1353 1.392 . S
C1354 C1355 1.385 . S
C1354 C1356 1.478 . S
C1355 H1349 0.930 . S
C1355 C1351 1.400 . S
C1355 C1354 1.385 . S
C1356 C1354 1.478 . S
C1356 C1358 1.381 . S
C1356 C1362 1.383 . S
C1357 C1353 1.495 . S
C1357 H1363 0.959 . S
C1357 H1364 0.961 . S
C1357 H1365 0.960 . S
C1358 C1356 1.381 . S
C1358 C1359 1.394 . S
C1358 H1366 0.930 . S
C1359 C1358 1.394 . S
C1359 C1360 1.383 . S
C1359 H1367 0.929 . S
C1360 C1359 1.383 . S
C1360 C1361 1.377 . S
C1361 H1345 0.930 . S
C1361 C1360 1.377 . S
C1361 C1362 1.379 . S
C1362 H1346 0.931 . S
C1362 C1356 1.383 . S
C1362 C1361 1.379 . S
H1363 C1357 0.959 . S
H1364 C1357 0.961 . S
H1365 C1357 0.960 . S
H1366 C1358 0.930 . S
H1367 C1359 0.929 . S
H1368 C1376 0.929 . S
H1369 C1378 0.930 . S
H1370 C1380 0.938 . S
H1371 C1383 0.908 . S
H1372 C1386 0.930 . S
H1373 C1388 0.960 . S
H1374 C1388 0.960 . S
H1375 C1388 0.960 . S
C1376 H1368 0.929 . S
C1376 C1377 1.377 . S
C1376 C1378 1.384 . S
C1377 C1376 1.377 . S
C1377 C1383 1.390 . S
C1378 H1369 0.930 . S
C1378 C1376 1.384 . S
C1378 C1379 1.372 . S
C1379 C1378 1.372 . S
C1379 C1380 1.400 . S
C1379 C1384 1.490 . S
C1380 H1370 0.938 . S
C1380 C1379 1.400 . S
C1380 C1383 1.386 . S
H1381 C1397 0.930 . S
H1382 C1398 0.931 . S
C1383 H1371 0.908 . S
C1383 C1377 1.390 . S
C1383 C1380 1.386 . S
C1384 C1379 1.490 . S
C1384 C1386 1.395 1_565 S
C1384 C1387 1.403 . S
H1385 C1391 0.930 . S
C1386 H1372 0.930 . S
C1386 C1384 1.395 1_545 S
C1386 C1389 1.403 . S
C1387 C1384 1.403 . S
C1387 C1388 1.524 . S
C1387 C1391 1.400 . S
C1388 H1373 0.960 . S
C1388 H1374 0.960 . S
C1388 H1375 0.960 . S
C1388 C1387 1.524 . S
C1389 C1386 1.403 . S
C1389 C1390 1.392 1_545 S
C1389 C1393 1.495 . S
C1390 C1389 1.392 1_565 S
C1390 C1391 1.385 . S
C1390 C1392 1.478 . S
C1391 H1385 0.930 . S
C1391 C1387 1.400 . S
C1391 C1390 1.385 . S
C1392 C1390 1.478 . S
C1392 C1394 1.381 . S
C1392 C1398 1.383 1_565 S
C1393 C1389 1.495 . S
C1393 H1399 0.959 . S
C1393 H1400 0.961 . S
C1393 H1401 0.960 . S
C1394 C1392 1.381 . S
C1394 C1395 1.394 . S
C1394 H1402 0.930 . S
C1395 C1394 1.394 . S
C1395 C1396 1.383 . S
C1395 H1403 0.929 . S
C1396 C1395 1.383 . S
C1396 C1397 1.377 1_565 S
C1397 H1381 0.930 . S
C1397 C1396 1.377 1_545 S
C1397 C1398 1.379 . S
C1398 H1382 0.931 . S
C1398 C1392 1.383 1_545 S
C1398 C1397 1.379 . S
H1399 C1393 0.959 . S
H1400 C1393 0.961 . S
H1401 C1393 0.960 . S
H1402 C1394 0.930 . S
H1403 C1395 0.929 . S
H1404 C1412 0.929 . S
H1405 C1414 0.930 . S
H1406 C1416 0.930 . S
H1407 C1419 0.929 . S
H1408 C1422 0.930 . S
H1409 C1424 0.960 . S
H1410 C1424 0.960 . S
H1411 C1424 0.960 1_565 S
C1412 H1404 0.929 . S
C1412 C1413 1.377 . S
C1412 C1414 1.384 . S
C1413 C1412 1.377 . S
C1413 C1419 1.390 1_545 S
C1414 H1405 0.930 . S
C1414 C1412 1.384 . S
C1414 C1415 1.372 . S
C1415 C1414 1.372 . S
C1415 C1416 1.400 1_545 S
C1415 C1420 1.490 . S
C1416 H1406 0.930 . S
C1416 C1415 1.400 1_565 S
C1416 C1419 1.386 . S
H1417 C1433 0.930 . S
H1418 C1434 0.931 . S
C1419 H1407 0.929 . S
C1419 C1413 1.390 1_565 S
C1419 C1416 1.386 . S
C1420 C1415 1.490 . S
C1420 C1422 1.395 . S
C1420 C1423 1.403 . S
H1421 C1427 0.930 . S
C1422 H1408 0.930 . S
C1422 C1420 1.395 . S
C1422 C1425 1.403 . S
C1423 C1420 1.403 . S
C1423 C1424 1.524 . S
C1423 C1427 1.400 . S
C1424 H1409 0.960 . S
C1424 H1410 0.960 . S
C1424 H1411 0.960 1_545 S
C1424 C1423 1.524 . S
C1425 C1422 1.403 . S
C1425 C1426 1.392 . S
C1425 C1429 1.495 . S
C1426 C1425 1.392 . S
C1426 C1427 1.385 . S
C1426 C1428 1.478 . S
C1427 H1421 0.930 . S
C1427 C1423 1.400 . S
C1427 C1426 1.385 . S
C1428 C1426 1.478 . S
C1428 C1430 1.381 . S
C1428 C1434 1.383 1_545 S
C1429 C1425 1.495 . S
C1429 H1435 0.959 . S
C1429 H1436 0.961 1_545 S
C1429 H1437 0.960 . S
C1430 C1428 1.381 . S
C1430 C1431 1.394 . S
C1430 H1438 0.930 . S
C1431 C1430 1.394 . S
C1431 C1432 1.383 . S
C1431 H1439 0.929 . S
C1432 C1431 1.383 . S
C1432 C1433 1.377 1_545 S
C1433 H1417 0.930 . S
C1433 C1432 1.377 1_565 S
C1433 C1434 1.379 . S
C1434 H1418 0.931 . S
C1434 C1428 1.383 1_565 S
C1434 C1433 1.379 . S
H1435 C1429 0.959 . S
H1436 C1429 0.961 1_565 S
H1437 C1429 0.960 . S
H1438 C1430 0.930 . S
H1439 C1431 0.929 . S
H1440 C1448 0.952 1_455 S
H1441 C1450 0.923 1_455 S
H1442 C1452 0.930 . S
H1443 C1455 0.929 . S
H1444 C1458 0.930 . S
H1445 C1460 0.960 . S
H1446 C1460 0.960 . S
H1447 C1460 0.960 . S
C1448 H1440 0.952 1_655 S
C1448 C1449 1.398 . S
C1448 C1450 1.368 . S
C1449 C1448 1.398 . S
C1449 C1455 1.390 . S
C1450 H1441 0.923 1_655 S
C1450 C1448 1.368 . S
C1450 C1451 1.362 . S
C1451 C1450 1.362 . S
C1451 C1452 1.400 . S
C1451 C1456 1.490 . S
C1452 H1442 0.930 . S
C1452 C1451 1.400 . S
C1452 C1455 1.386 . S
H1453 C1469 0.930 . S
H1454 C1470 0.931 . S
C1455 H1443 0.929 . S
C1455 C1449 1.390 . S
C1455 C1452 1.386 . S
C1456 C1451 1.490 . S
C1456 C1458 1.395 . S
C1456 C1459 1.403 1_655 S
H1457 C1463 0.930 . S
C1458 H1444 0.930 . S
C1458 C1456 1.395 . S
C1458 C1461 1.403 . S
C1459 C1456 1.403 1_455 S
C1459 C1460 1.524 . S
C1459 C1463 1.400 . S
C1460 H1445 0.960 . S
C1460 H1446 0.960 . S
C1460 H1447 0.960 . S
C1460 C1459 1.524 . S
C1461 C1458 1.403 . S
C1461 C1462 1.392 . S
C1461 C1465 1.495 . S
C1462 C1461 1.392 . S
C1462 C1463 1.385 1_655 S
C1462 C1464 1.478 . S
C1463 H1457 0.930 . S
C1463 C1459 1.400 . S
C1463 C1462 1.385 1_455 S
C1464 C1462 1.478 . S
C1464 C1466 1.359 1_655 S
C1464 C1470 1.383 . S
C1465 C1461 1.495 . S
C1465 H1471 0.959 . S
C1465 H1472 0.961 . S
C1465 H1473 0.960 . S
C1466 C1464 1.359 1_455 S
C1466 C1467 1.432 . S
C1466 H1474 0.922 . S
C1467 C1466 1.432 . S
C1467 C1468 1.383 1_455 S
C1467 H1475 0.929 . S
C1468 C1467 1.383 1_655 S
C1468 C1469 1.377 . S
C1469 H1453 0.930 . S
C1469 C1468 1.377 . S
C1469 C1470 1.379 . S
C1470 H1454 0.931 . S
C1470 C1464 1.383 . S
C1470 C1469 1.379 . S
H1471 C1465 0.959 . S
H1472 C1465 0.961 . S
H1473 C1465 0.960 . S
H1474 C1466 0.922 . S
H1475 C1467 0.929 . S
H1476 C1484 0.929 . S
H1477 C1486 0.930 . S
H1478 C1488 0.930 . S
H1479 C1491 0.929 . S
H1480 C1494 0.930 . S
H1481 C1496 0.960 . S
H1482 C1496 0.960 . S
H1483 C1496 0.960 . S
C1484 H1476 0.929 . S
C1484 C1485 1.377 . S
C1484 C1486 1.384 . S
C1485 C1484 1.377 . S
C1485 C1491 1.390 . S
C1486 H1477 0.930 . S
C1486 C1484 1.384 . S
C1486 C1487 1.372 . S
C1487 C1486 1.372 . S
C1487 C1488 1.400 . S
C1487 C1492 1.490 . S
C1488 H1478 0.930 . S
C1488 C1487 1.400 . S
C1488 C1491 1.386 . S
H1489 C1505 0.930 . S
H1490 C1506 0.931 . S
C1491 H1479 0.929 . S
C1491 C1485 1.390 . S
C1491 C1488 1.386 . S
C1492 C1487 1.490 . S
C1492 C1494 1.395 . S
C1492 C1495 1.403 . S
H1493 C1499 0.930 . S
C1494 H1480 0.930 . S
C1494 C1492 1.395 . S
C1494 C1497 1.403 . S
C1495 C1492 1.403 . S
C1495 C1496 1.524 . S
C1495 C1499 1.400 . S
C1496 H1481 0.960 . S
C1496 H1482 0.960 . S
C1496 H1483 0.960 . S
C1496 C1495 1.524 . S
C1497 C1494 1.403 . S
C1497 C1498 1.392 . S
C1497 C1501 1.495 . S
C1498 C1497 1.392 . S
C1498 C1499 1.385 . S
C1498 C1500 1.478 . S
C1499 H1493 0.930 . S
C1499 C1495 1.400 . S
C1499 C1498 1.385 . S
C1500 C1498 1.478 . S
C1500 C1502 1.381 . S
C1500 C1506 1.383 . S
C1501 C1497 1.495 . S
C1501 H1507 0.959 . S
C1501 H1508 0.961 . S
C1501 H1509 0.960 . S
C1502 C1500 1.381 . S
C1502 C1503 1.394 . S
C1502 H1510 0.930 . S
C1503 C1502 1.394 . S
C1503 C1504 1.383 . S
C1503 H1511 0.929 . S
C1504 C1503 1.383 . S
C1504 C1505 1.377 . S
C1505 H1489 0.930 . S
C1505 C1504 1.377 . S
C1505 C1506 1.379 . S
C1506 H1490 0.931 . S
C1506 C1500 1.383 . S
C1506 C1505 1.379 . S
H1507 C1501 0.959 . S
H1508 C1501 0.961 . S
H1509 C1501 0.960 . S
H1510 C1502 0.930 . S
H1511 C1503 0.929 . S
H1512 C1520 0.929 . S
H1513 C1522 0.930 . S
H1514 C1524 0.930 . S
H1515 C1527 0.929 . S
H1516 C1530 0.930 . S
H1517 C1532 0.960 . S
H1518 C1532 0.960 . S
H1519 C1532 0.960 . S
C1520 H1512 0.929 . S
C1520 C1521 1.377 . S
C1520 C1522 1.384 . S
C1521 C1520 1.377 . S
C1521 C1527 1.390 . S
C1522 H1513 0.930 . S
C1522 C1520 1.384 . S
C1522 C1523 1.372 . S
C1523 C1522 1.372 . S
C1523 C1524 1.400 . S
C1523 C1528 1.490 . S
C1524 H1514 0.930 . S
C1524 C1523 1.400 . S
C1524 C1527 1.386 . S
H1525 C1541 0.930 . S
H1526 C1542 0.931 . S
C1527 H1515 0.929 . S
C1527 C1521 1.390 . S
C1527 C1524 1.386 . S
C1528 C1523 1.490 . S
C1528 C1530 1.395 . S
C1528 C1531 1.403 . S
H1529 C1535 0.930 . S
C1530 H1516 0.930 . S
C1530 C1528 1.395 . S
C1530 C1533 1.403 . S
C1531 C1528 1.403 . S
C1531 C1532 1.524 . S
C1531 C1535 1.400 . S
C1532 H1517 0.960 . S
C1532 H1518 0.960 . S
C1532 H1519 0.960 . S
C1532 C1531 1.524 . S
C1533 C1530 1.403 . S
C1533 C1534 1.392 . S
C1533 C1537 1.495 . S
C1534 C1533 1.392 . S
C1534 C1535 1.385 . S
C1534 C1536 1.478 . S
C1535 H1529 0.930 . S
C1535 C1531 1.400 . S
C1535 C1534 1.385 . S
C1536 C1534 1.478 . S
C1536 C1538 1.381 . S
C1536 C1542 1.383 . S
C1537 C1533 1.495 . S
C1537 H1543 0.959 . S
C1537 H1544 0.961 . S
C1537 H1545 0.960 . S
C1538 C1536 1.381 . S
C1538 C1539 1.394 . S
C1538 H1546 0.930 . S
C1539 C1538 1.394 . S
C1539 C1540 1.383 . S
C1539 H1547 0.929 . S
C1540 C1539 1.383 . S
C1540 C1541 1.377 . S
C1541 H1525 0.930 . S
C1541 C1540 1.377 . S
C1541 C1542 1.379 . S
C1542 H1526 0.931 . S
C1542 C1536 1.383 . S
C1542 C1541 1.379 . S
H1543 C1537 0.959 . S
H1544 C1537 0.961 . S
H1545 C1537 0.960 . S
H1546 C1538 0.930 . S
H1547 C1539 0.929 . S
H1548 C1556 0.929 . S
H1549 C1558 0.930 . S
H1550 C1560 0.930 . S
H1551 C1563 0.929 . S
H1552 C1566 0.930 . S
H1553 C1568 0.960 . S
H1554 C1568 0.960 . S
H1555 C1568 0.960 . S
C1556 H1548 0.929 . S
C1556 C1557 1.377 . S
C1556 C1558 1.384 . S
C1557 C1556 1.377 . S
C1557 C1563 1.390 . S
C1558 H1549 0.930 . S
C1558 C1556 1.384 . S
C1558 C1559 1.372 . S
C1559 C1558 1.372 . S
C1559 C1560 1.400 . S
C1559 C1564 1.490 . S
C1560 H1550 0.930 . S
C1560 C1559 1.400 . S
C1560 C1563 1.386 . S
H1561 C1577 0.930 . S
H1562 C1578 0.931 . S
C1563 H1551 0.929 . S
C1563 C1557 1.390 . S
C1563 C1560 1.386 . S
C1564 C1559 1.490 . S
C1564 C1566 1.395 . S
C1564 C1567 1.403 . S
H1565 C1571 0.930 . S
C1566 H1552 0.930 . S
C1566 C1564 1.395 . S
C1566 C1569 1.403 . S
C1567 C1564 1.403 . S
C1567 C1568 1.524 . S
C1567 C1571 1.400 . S
C1568 H1553 0.960 . S
C1568 H1554 0.960 . S
C1568 H1555 0.960 . S
C1568 C1567 1.524 . S
C1569 C1566 1.403 . S
C1569 C1570 1.392 . S
C1569 C1573 1.495 . S
C1570 C1569 1.392 . S
C1570 C1571 1.385 . S
C1570 C1572 1.478 . S
C1571 H1565 0.930 . S
C1571 C1567 1.400 . S
C1571 C1570 1.385 . S
C1572 C1570 1.478 . S
C1572 C1574 1.381 . S
C1572 C1578 1.383 . S
C1573 C1569 1.495 . S
C1573 H1579 0.959 . S
C1573 H1580 0.961 . S
C1573 H1581 0.960 . S
C1574 C1572 1.381 . S
C1574 C1575 1.394 . S
C1574 H1582 0.930 . S
C1575 C1574 1.394 . S
C1575 C1576 1.383 . S
C1575 H1583 0.929 . S
C1576 C1575 1.383 . S
C1576 C1577 1.377 . S
C1577 H1561 0.930 . S
C1577 C1576 1.377 . S
C1577 C1578 1.379 . S
C1578 H1562 0.931 . S
C1578 C1572 1.383 . S
C1578 C1577 1.379 . S
H1579 C1573 0.959 . S
H1580 C1573 0.961 . S
H1581 C1573 0.960 . S
H1582 C1574 0.930 . S
H1583 C1575 0.929 . S
H1584 C1592 0.929 . S
H1585 C1594 0.930 . S
H1586 C1596 0.930 . S
H1587 C1599 0.929 . S
H1588 C1602 0.930 . S
H1589 C1604 0.960 . S
H1590 C1604 0.960 . S
H1591 C1604 0.960 . S
C1592 H1584 0.929 . S
C1592 C1593 1.377 . S
C1592 C1594 1.384 . S
C1593 C1592 1.377 . S
C1593 C1599 1.390 . S
C1594 H1585 0.930 . S
C1594 C1592 1.384 . S
C1594 C1595 1.372 . S
C1595 C1594 1.372 . S
C1595 C1596 1.400 . S
C1595 C1600 1.490 . S
C1596 H1586 0.930 . S
C1596 C1595 1.400 . S
C1596 C1599 1.386 . S
H1597 C1613 0.930 . S
H1598 C1614 0.931 . S
C1599 H1587 0.929 . S
C1599 C1593 1.390 . S
C1599 C1596 1.386 . S
C1600 C1595 1.490 . S
C1600 C1602 1.395 . S
C1600 C1603 1.403 . S
H1601 C1607 0.930 . S
C1602 H1588 0.930 . S
C1602 C1600 1.395 . S
C1602 C1605 1.403 . S
C1603 C1600 1.403 . S
C1603 C1604 1.524 . S
C1603 C1607 1.400 . S
C1604 H1589 0.960 . S
C1604 H1590 0.960 . S
C1604 H1591 0.960 . S
C1604 C1603 1.524 . S
C1605 C1602 1.403 . S
C1605 C1606 1.392 . S
C1605 C1609 1.495 . S
C1606 C1605 1.392 . S
C1606 C1607 1.385 . S
C1606 C1608 1.478 . S
C1607 H1601 0.930 . S
C1607 C1603 1.400 . S
C1607 C1606 1.385 . S
C1608 C1606 1.478 . S
C1608 C1610 1.381 . S
C1608 C1614 1.383 . S
C1609 C1605 1.495 . S
C1609 H1615 0.959 . S
C1609 H1616 0.961 . S
C1609 H1617 0.960 . S
C1610 C1608 1.381 . S
C1610 C1611 1.394 . S
C1610 H1618 0.930 . S
C1611 C1610 1.394 . S
C1611 C1612 1.383 . S
C1611 H1619 0.929 . S
C1612 C1611 1.383 . S
C1612 C1613 1.377 . S
C1613 H1597 0.930 . S
C1613 C1612 1.377 . S
C1613 C1614 1.379 . S
C1614 H1598 0.931 . S
C1614 C1608 1.383 . S
C1614 C1613 1.379 . S
H1615 C1609 0.959 . S
H1616 C1609 0.961 . S
H1617 C1609 0.960 . S
H1618 C1610 0.930 . S
H1619 C1611 0.929 . S
H1620 C1628 0.929 . S
H1621 C1630 0.930 . S
H1622 C1632 0.930 . S
H1623 C1635 0.929 . S
H1624 C1638 0.930 . S
H1625 C1640 0.960 . S
H1626 C1640 0.960 . S
H1627 C1640 0.960 . S
C1628 H1620 0.929 . S
C1628 C1629 1.377 . S
C1628 C1630 1.384 . S
C1629 C1628 1.377 . S
C1629 C1635 1.390 . S
C1630 H1621 0.930 . S
C1630 C1628 1.384 . S
C1630 C1631 1.372 . S
C1631 C1630 1.372 . S
C1631 C1632 1.400 . S
C1631 C1636 1.490 . S
C1632 H1622 0.930 . S
C1632 C1631 1.400 . S
C1632 C1635 1.386 . S
H1633 C1649 0.930 . S
H1634 C1650 0.931 . S
C1635 H1623 0.929 . S
C1635 C1629 1.390 . S
C1635 C1632 1.386 . S
C1636 C1631 1.490 . S
C1636 C1638 1.395 . S
C1636 C1639 1.403 . S
H1637 C1643 0.930 . S
C1638 H1624 0.930 . S
C1638 C1636 1.395 . S
C1638 C1641 1.403 . S
C1639 C1636 1.403 . S
C1639 C1640 1.524 . S
C1639 C1643 1.400 . S
C1640 H1625 0.960 . S
C1640 H1626 0.960 . S
C1640 H1627 0.960 . S
C1640 C1639 1.524 . S
C1641 C1638 1.403 . S
C1641 C1642 1.392 . S
C1641 C1645 1.495 . S
C1642 C1641 1.392 . S
C1642 C1643 1.385 . S
C1642 C1644 1.478 . S
C1643 H1637 0.930 . S
C1643 C1639 1.400 . S
C1643 C1642 1.385 . S
C1644 C1642 1.478 . S
C1644 C1646 1.381 . S
C1644 C1650 1.383 . S
C1645 C1641 1.495 . S
C1645 H1651 0.959 . S
C1645 H1652 0.961 . S
C1645 H1653 0.960 . S
C1646 C1644 1.381 . S
C1646 C1647 1.394 . S
C1646 H1654 0.930 . S
C1647 C1646 1.394 . S
C1647 C1648 1.383 . S
C1647 H1655 0.929 . S
C1648 C1647 1.383 . S
C1648 C1649 1.377 . S
C1649 H1633 0.930 . S
C1649 C1648 1.377 . S
C1649 C1650 1.379 . S
C1650 H1634 0.931 . S
C1650 C1644 1.383 . S
C1650 C1649 1.379 . S
H1651 C1645 0.959 . S
H1652 C1645 0.961 . S
H1653 C1645 0.960 . S
H1654 C1646 0.930 . S
H1655 C1647 0.929 . S
H1656 C1664 0.929 . S
H1657 C1666 0.930 . S
H1658 C1668 0.930 . S
H1659 C1671 0.929 . S
H1660 C1674 0.930 . S
H1661 C1676 0.960 . S
H1662 C1676 0.960 . S
H1663 C1676 0.960 . S
C1664 H1656 0.929 . S
C1664 C1665 1.377 . S
C1664 C1666 1.384 . S
C1665 C1664 1.377 . S
C1665 C1671 1.390 . S
C1666 H1657 0.930 . S
C1666 C1664 1.384 . S
C1666 C1667 1.372 . S
C1667 C1666 1.372 . S
C1667 C1668 1.400 . S
C1667 C1672 1.490 . S
C1668 H1658 0.930 . S
C1668 C1667 1.400 . S
C1668 C1671 1.386 . S
H1669 C1685 0.930 . S
H1670 C1686 0.931 . S
C1671 H1659 0.929 . S
C1671 C1665 1.390 . S
C1671 C1668 1.386 . S
C1672 C1667 1.490 . S
C1672 C1674 1.395 . S
C1672 C1675 1.403 . S
H1673 C1679 0.930 . S
C1674 H1660 0.930 . S
C1674 C1672 1.395 . S
C1674 C1677 1.403 . S
C1675 C1672 1.403 . S
C1675 C1676 1.524 . S
C1675 C1679 1.400 . S
C1676 H1661 0.960 . S
C1676 H1662 0.960 . S
C1676 H1663 0.960 . S
C1676 C1675 1.524 . S
C1677 C1674 1.403 . S
C1677 C1678 1.392 . S
C1677 C1681 1.495 . S
C1678 C1677 1.392 . S
C1678 C1679 1.385 . S
C1678 C1680 1.478 . S
C1679 H1673 0.930 . S
C1679 C1675 1.400 . S
C1679 C1678 1.385 . S
C1680 C1678 1.478 . S
C1680 C1682 1.381 . S
C1680 C1686 1.383 . S
C1681 C1677 1.495 . S
C1681 H1687 0.959 . S
C1681 H1688 0.961 . S
C1681 H1689 0.960 . S
C1682 C1680 1.381 . S
C1682 C1683 1.394 . S
C1682 H1690 0.930 . S
C1683 C1682 1.394 . S
C1683 C1684 1.383 . S
C1683 H1691 0.929 . S
C1684 C1683 1.383 . S
C1684 C1685 1.377 . S
C1685 H1669 0.930 . S
C1685 C1684 1.377 . S
C1685 C1686 1.379 . S
C1686 H1670 0.931 . S
C1686 C1680 1.383 . S
C1686 C1685 1.379 . S
H1687 C1681 0.959 . S
H1688 C1681 0.961 . S
H1689 C1681 0.960 . S
H1690 C1682 0.930 . S
H1691 C1683 0.929 . S
H1692 C1700 0.929 . S
H1693 C1702 0.930 . S
H1694 C1704 0.930 . S
H1695 C1707 0.929 . S
H1696 C1710 0.930 . S
H1697 C1712 0.960 . S
H1698 C1712 0.960 . S
H1699 C1712 0.960 . S
C1700 H1692 0.929 . S
C1700 C1701 1.377 . S
C1700 C1702 1.384 . S
C1701 C1700 1.377 . S
C1701 C1707 1.390 . S
C1702 H1693 0.930 . S
C1702 C1700 1.384 . S
C1702 C1703 1.372 . S
C1703 C1702 1.372 . S
C1703 C1704 1.400 . S
C1703 C1708 1.490 . S
C1704 H1694 0.930 . S
C1704 C1703 1.400 . S
C1704 C1707 1.386 . S
H1705 C1721 0.930 . S
H1706 C1722 0.931 . S
C1707 H1695 0.929 . S
C1707 C1701 1.390 . S
C1707 C1704 1.386 . S
C1708 C1703 1.490 . S
C1708 C1710 1.395 . S
C1708 C1711 1.403 . S
H1709 C1715 0.930 . S
C1710 H1696 0.930 . S
C1710 C1708 1.395 . S
C1710 C1713 1.403 . S
C1711 C1708 1.403 . S
C1711 C1712 1.524 . S
C1711 C1715 1.400 . S
C1712 H1697 0.960 . S
C1712 H1698 0.960 . S
C1712 H1699 0.960 . S
C1712 C1711 1.524 . S
C1713 C1710 1.403 . S
C1713 C1714 1.392 . S
C1713 C1717 1.495 . S
C1714 C1713 1.392 . S
C1714 C1715 1.385 . S
C1714 C1716 1.478 . S
C1715 H1709 0.930 . S
C1715 C1711 1.400 . S
C1715 C1714 1.385 . S
C1716 C1714 1.478 . S
C1716 C1718 1.381 . S
C1716 C1722 1.383 . S
C1717 C1713 1.495 . S
C1717 H1723 0.959 . S
C1717 H1724 0.961 . S
C1717 H1725 0.960 . S
C1718 C1716 1.381 . S
C1718 C1719 1.394 . S
C1718 H1726 0.930 . S
C1719 C1718 1.394 . S
C1719 C1720 1.383 . S
C1719 H1727 0.929 . S
C1720 C1719 1.383 . S
C1720 C1721 1.377 . S
C1721 H1705 0.930 . S
C1721 C1720 1.377 . S
C1721 C1722 1.379 . S
C1722 H1706 0.931 . S
C1722 C1716 1.383 . S
C1722 C1721 1.379 . S
H1723 C1717 0.959 . S
H1724 C1717 0.961 . S
H1725 C1717 0.960 . S
H1726 C1718 0.930 . S
H1727 C1719 0.929 . S
H1728 C1736 0.929 . S
H1729 C1738 0.930 . S
H1730 C1740 0.930 . S
H1731 C1743 0.929 . S
H1732 C1746 0.930 . S
H1733 C1748 0.960 . S
H1734 C1748 0.960 . S
H1735 C1748 0.960 . S
C1736 H1728 0.929 . S
C1736 C1737 1.377 . S
C1736 C1738 1.384 . S
C1737 C1736 1.377 . S
C1737 C1743 1.390 . S
C1738 H1729 0.930 . S
C1738 C1736 1.384 . S
C1738 C1739 1.372 . S
C1739 C1738 1.372 . S
C1739 C1740 1.400 . S
C1739 C1744 1.490 . S
C1740 H1730 0.930 . S
C1740 C1739 1.400 . S
C1740 C1743 1.386 . S
H1741 C1757 0.930 . S
H1742 C1758 0.931 . S
C1743 H1731 0.929 . S
C1743 C1737 1.390 . S
C1743 C1740 1.386 . S
C1744 C1739 1.490 . S
C1744 C1746 1.395 . S
C1744 C1747 1.403 . S
H1745 C1751 0.930 . S
C1746 H1732 0.930 . S
C1746 C1744 1.395 . S
C1746 C1749 1.403 . S
C1747 C1744 1.403 . S
C1747 C1748 1.524 . S
C1747 C1751 1.400 . S
C1748 H1733 0.960 . S
C1748 H1734 0.960 . S
C1748 H1735 0.960 . S
C1748 C1747 1.524 . S
C1749 C1746 1.403 . S
C1749 C1750 1.392 . S
C1749 C1753 1.495 . S
C1750 C1749 1.392 . S
C1750 C1751 1.385 . S
C1750 C1752 1.478 . S
C1751 H1745 0.930 . S
C1751 C1747 1.400 . S
C1751 C1750 1.385 . S
C1752 C1750 1.478 . S
C1752 C1754 1.381 . S
C1752 C1758 1.383 . S
C1753 C1749 1.495 . S
C1753 H1759 0.959 . S
C1753 H1760 0.961 . S
C1753 H1761 0.960 . S
C1754 C1752 1.381 . S
C1754 C1755 1.394 . S
C1754 H1762 0.930 . S
C1755 C1754 1.394 . S
C1755 C1756 1.383 . S
C1755 H1763 0.929 . S
C1756 C1755 1.383 . S
C1756 C1757 1.377 . S
C1757 H1741 0.930 . S
C1757 C1756 1.377 . S
C1757 C1758 1.379 . S
C1758 H1742 0.931 . S
C1758 C1752 1.383 . S
C1758 C1757 1.379 . S
H1759 C1753 0.959 . S
H1760 C1753 0.961 . S
H1761 C1753 0.960 . S
H1762 C1754 0.930 . S
H1763 C1755 0.929 . S
H1764 C1772 0.929 . S
H1765 C1774 0.930 . S
H1766 C1776 0.930 . S
H1767 C1779 0.929 . S
H1768 C1782 0.930 . S
H1769 C1784 0.960 . S
H1770 C1784 0.960 . S
H1771 C1784 0.960 . S
C1772 H1764 0.929 . S
C1772 C1773 1.377 . S
C1772 C1774 1.384 . S
C1773 C1772 1.377 . S
C1773 C1779 1.390 . S
C1774 H1765 0.930 . S
C1774 C1772 1.384 . S
C1774 C1775 1.372 . S
C1775 C1774 1.372 . S
C1775 C1776 1.400 . S
C1775 C1780 1.490 . S
C1776 H1766 0.930 . S
C1776 C1775 1.400 . S
C1776 C1779 1.386 . S
H1777 C1793 0.930 . S
H1778 C1794 0.931 . S
C1779 H1767 0.929 . S
C1779 C1773 1.390 . S
C1779 C1776 1.386 . S
C1780 C1775 1.490 . S
C1780 C1782 1.395 . S
C1780 C1783 1.403 . S
H1781 C1787 0.930 . S
C1782 H1768 0.930 . S
C1782 C1780 1.395 . S
C1782 C1785 1.403 . S
C1783 C1780 1.403 . S
C1783 C1784 1.524 . S
C1783 C1787 1.400 . S
C1784 H1769 0.960 . S
C1784 H1770 0.960 . S
C1784 H1771 0.960 . S
C1784 C1783 1.524 . S
C1785 C1782 1.403 . S
C1785 C1786 1.392 . S
C1785 C1789 1.495 . S
C1786 C1785 1.392 . S
C1786 C1787 1.385 . S
C1786 C1788 1.478 . S
C1787 H1781 0.930 . S
C1787 C1783 1.400 . S
C1787 C1786 1.385 . S
C1788 C1786 1.478 . S
C1788 C1790 1.381 . S
C1788 C1794 1.383 . S
C1789 C1785 1.495 . S
C1789 H1795 0.959 . S
C1789 H1796 0.961 . S
C1789 H1797 0.960 . S
C1790 C1788 1.381 . S
C1790 C1791 1.394 . S
C1790 H1798 0.930 . S
C1791 C1790 1.394 . S
C1791 C1792 1.383 . S
C1791 H1799 0.929 . S
C1792 C1791 1.383 . S
C1792 C1793 1.377 . S
C1793 H1777 0.930 . S
C1793 C1792 1.377 . S
C1793 C1794 1.379 . S
C1794 H1778 0.931 . S
C1794 C1788 1.383 . S
C1794 C1793 1.379 . S
H1795 C1789 0.959 . S
H1796 C1789 0.961 . S
H1797 C1789 0.960 . S
H1798 C1790 0.930 . S
H1799 C1791 0.929 . S
H1800 C1808 0.929 . S
H1801 C1810 0.930 . S
H1802 C1812 0.930 . S
H1803 C1815 0.929 . S
H1804 C1818 0.930 . S
H1805 C1820 0.960 . S
H1806 C1820 0.960 . S
H1807 C1820 0.960 . S
C1808 H1800 0.929 . S
C1808 C1809 1.377 . S
C1808 C1810 1.384 . S
C1809 C1808 1.377 . S
C1809 C1815 1.390 . S
C1810 H1801 0.930 . S
C1810 C1808 1.384 . S
C1810 C1811 1.372 . S
C1811 C1810 1.372 . S
C1811 C1812 1.400 . S
C1811 C1816 1.490 . S
C1812 H1802 0.930 . S
C1812 C1811 1.400 . S
C1812 C1815 1.386 . S
H1813 C1829 0.930 . S
H1814 C1830 0.931 . S
C1815 H1803 0.929 . S
C1815 C1809 1.390 . S
C1815 C1812 1.386 . S
C1816 C1811 1.490 . S
C1816 C1818 1.395 . S
C1816 C1819 1.403 . S
H1817 C1823 0.930 . S
C1818 H1804 0.930 . S
C1818 C1816 1.395 . S
C1818 C1821 1.403 . S
C1819 C1816 1.403 . S
C1819 C1820 1.524 . S
C1819 C1823 1.400 . S
C1820 H1805 0.960 . S
C1820 H1806 0.960 . S
C1820 H1807 0.960 . S
C1820 C1819 1.524 . S
C1821 C1818 1.403 . S
C1821 C1822 1.392 . S
C1821 C1825 1.495 . S
C1822 C1821 1.392 . S
C1822 C1823 1.385 . S
C1822 C1824 1.478 . S
C1823 H1817 0.930 . S
C1823 C1819 1.400 . S
C1823 C1822 1.385 . S
C1824 C1822 1.478 . S
C1824 C1826 1.381 . S
C1824 C1830 1.383 . S
C1825 C1821 1.495 . S
C1825 H1831 0.959 . S
C1825 H1832 0.961 . S
C1825 H1833 0.960 . S
C1826 C1824 1.381 . S
C1826 C1827 1.394 . S
C1826 H1834 0.930 . S
C1827 C1826 1.394 . S
C1827 C1828 1.383 . S
C1827 H1835 0.929 . S
C1828 C1827 1.383 . S
C1828 C1829 1.377 . S
C1829 H1813 0.930 . S
C1829 C1828 1.377 . S
C1829 C1830 1.379 . S
C1830 H1814 0.931 . S
C1830 C1824 1.383 . S
C1830 C1829 1.379 . S
H1831 C1825 0.959 . S
H1832 C1825 0.961 . S
H1833 C1825 0.960 . S
H1834 C1826 0.930 . S
H1835 C1827 0.929 . S
H1836 C1844 0.929 . S
H1837 C1846 0.930 . S
H1838 C1848 0.930 . S
H1839 C1851 0.929 . S
H1840 C1854 0.930 . S
H1841 C1856 0.960 . S
H1842 C1856 0.960 . S
H1843 C1856 0.960 . S
C1844 H1836 0.929 . S
C1844 C1845 1.377 . S
C1844 C1846 1.384 . S
C1845 C1844 1.377 . S
C1845 C1851 1.390 . S
C1846 H1837 0.930 . S
C1846 C1844 1.384 . S
C1846 C1847 1.372 . S
C1847 C1846 1.372 . S
C1847 C1848 1.400 . S
C1847 C1852 1.490 . S
C1848 H1838 0.930 . S
C1848 C1847 1.400 . S
C1848 C1851 1.386 . S
H1849 C1865 0.930 . S
H1850 C1866 0.931 . S
C1851 H1839 0.929 . S
C1851 C1845 1.390 . S
C1851 C1848 1.386 . S
C1852 C1847 1.490 . S
C1852 C1854 1.395 . S
C1852 C1855 1.403 . S
H1853 C1859 0.930 . S
C1854 H1840 0.930 . S
C1854 C1852 1.395 . S
C1854 C1857 1.403 . S
C1855 C1852 1.403 . S
C1855 C1856 1.524 . S
C1855 C1859 1.400 . S
C1856 H1841 0.960 . S
C1856 H1842 0.960 . S
C1856 H1843 0.960 . S
C1856 C1855 1.524 . S
C1857 C1854 1.403 . S
C1857 C1858 1.392 . S
C1857 C1861 1.495 . S
C1858 C1857 1.392 . S
C1858 C1859 1.385 . S
C1858 C1860 1.478 . S
C1859 H1853 0.930 . S
C1859 C1855 1.400 . S
C1859 C1858 1.385 . S
C1860 C1858 1.478 . S
C1860 C1862 1.381 . S
C1860 C1866 1.383 . S
C1861 C1857 1.495 . S
C1861 H1867 0.959 . S
C1861 H1868 0.961 . S
C1861 H1869 0.960 . S
C1862 C1860 1.381 . S
C1862 C1863 1.394 . S
C1862 H1870 0.930 . S
C1863 C1862 1.394 . S
C1863 C1864 1.383 . S
C1863 H1871 0.929 . S
C1864 C1863 1.383 . S
C1864 C1865 1.377 . S
C1865 H1849 0.930 . S
C1865 C1864 1.377 . S
C1865 C1866 1.379 . S
C1866 H1850 0.931 . S
C1866 C1860 1.383 . S
C1866 C1865 1.379 . S
H1867 C1861 0.959 . S
H1868 C1861 0.961 . S
H1869 C1861 0.960 . S
H1870 C1862 0.930 . S
H1871 C1863 0.929 . S
H1872 C1880 0.929 . S
H1873 C1882 0.930 . S
H1874 C1884 0.930 . S
H1875 C1887 0.929 . S
H1876 C1890 0.930 . S
H1877 C1892 0.960 . S
H1878 C1892 0.960 . S
H1879 C1892 0.960 . S
C1880 H1872 0.929 . S
C1880 C1881 1.377 . S
C1880 C1882 1.384 . S
C1881 C1880 1.377 . S
C1881 C1887 1.390 . S
C1882 H1873 0.930 . S
C1882 C1880 1.384 . S
C1882 C1883 1.372 . S
C1883 C1882 1.372 . S
C1883 C1884 1.400 . S
C1883 C1888 1.490 . S
C1884 H1874 0.930 . S
C1884 C1883 1.400 . S
C1884 C1887 1.386 . S
H1885 C1901 0.930 . S
H1886 C1902 0.931 . S
C1887 H1875 0.929 . S
C1887 C1881 1.390 . S
C1887 C1884 1.386 . S
C1888 C1883 1.490 . S
C1888 C1890 1.395 . S
C1888 C1891 1.403 . S
H1889 C1895 0.930 . S
C1890 H1876 0.930 . S
C1890 C1888 1.395 . S
C1890 C1893 1.403 . S
C1891 C1888 1.403 . S
C1891 C1892 1.524 . S
C1891 C1895 1.400 . S
C1892 H1877 0.960 . S
C1892 H1878 0.960 . S
C1892 H1879 0.960 . S
C1892 C1891 1.524 . S
C1893 C1890 1.403 . S
C1893 C1894 1.392 . S
C1893 C1897 1.495 . S
C1894 C1893 1.392 . S
C1894 C1895 1.385 . S
C1894 C1896 1.478 . S
C1895 H1889 0.930 . S
C1895 C1891 1.400 . S
C1895 C1894 1.385 . S
C1896 C1894 1.478 . S
C1896 C1898 1.381 . S
C1896 C1902 1.383 . S
C1897 C1893 1.495 . S
C1897 H1903 0.959 . S
C1897 H1904 0.961 . S
C1897 H1905 0.960 . S
C1898 C1896 1.381 . S
C1898 C1899 1.394 . S
C1898 H1906 0.930 . S
C1899 C1898 1.394 . S
C1899 C1900 1.383 . S
C1899 H1907 0.929 . S
C1900 C1899 1.383 . S
C1900 C1901 1.377 . S
C1901 H1885 0.930 . S
C1901 C1900 1.377 . S
C1901 C1902 1.379 . S
C1902 H1886 0.931 . S
C1902 C1896 1.383 . S
C1902 C1901 1.379 . S
H1903 C1897 0.959 . S
H1904 C1897 0.961 . S
H1905 C1897 0.960 . S
H1906 C1898 0.930 . S
H1907 C1899 0.929 . S
H1908 C1916 0.929 . S
H1909 C1918 0.930 . S
H1910 C1920 0.930 . S
H1911 C1923 0.929 . S
H1912 C1926 0.930 . S
H1913 C1928 0.960 . S
H1914 C1928 0.960 . S
H1915 C1928 0.960 . S
C1916 H1908 0.929 . S
C1916 C1917 1.377 . S
C1916 C1918 1.384 . S
C1917 C1916 1.377 . S
C1917 C1923 1.390 . S
C1918 H1909 0.930 . S
C1918 C1916 1.384 . S
C1918 C1919 1.372 . S
C1919 C1918 1.372 . S
C1919 C1920 1.400 . S
C1919 C1924 1.490 . S
C1920 H1910 0.930 . S
C1920 C1919 1.400 . S
C1920 C1923 1.386 . S
H1921 C1937 0.930 . S
H1922 C1938 0.931 . S
C1923 H1911 0.929 . S
C1923 C1917 1.390 . S
C1923 C1920 1.386 . S
C1924 C1919 1.490 . S
C1924 C1926 1.395 . S
C1924 C1927 1.403 . S
H1925 C1931 0.930 . S
C1926 H1912 0.930 . S
C1926 C1924 1.395 . S
C1926 C1929 1.403 . S
C1927 C1924 1.403 . S
C1927 C1928 1.524 . S
C1927 C1931 1.400 . S
C1928 H1913 0.960 . S
C1928 H1914 0.960 . S
C1928 H1915 0.960 . S
C1928 C1927 1.524 . S
C1929 C1926 1.403 . S
C1929 C1930 1.392 . S
C1929 C1933 1.495 . S
C1930 C1929 1.392 . S
C1930 C1931 1.385 . S
C1930 C1932 1.478 . S
C1931 H1925 0.930 . S
C1931 C1927 1.400 . S
C1931 C1930 1.385 . S
C1932 C1930 1.478 . S
C1932 C1934 1.381 . S
C1932 C1938 1.383 . S
C1933 C1929 1.495 . S
C1933 H1939 0.959 . S
C1933 H1940 0.961 . S
C1933 H1941 0.960 . S
C1934 C1932 1.381 . S
C1934 C1935 1.394 . S
C1934 H1942 0.930 . S
C1935 C1934 1.394 . S
C1935 C1936 1.383 . S
C1935 H1943 0.929 . S
C1936 C1935 1.383 . S
C1936 C1937 1.377 . S
C1937 H1921 0.930 . S
C1937 C1936 1.377 . S
C1937 C1938 1.379 . S
C1938 H1922 0.931 . S
C1938 C1932 1.383 . S
C1938 C1937 1.379 . S
H1939 C1933 0.959 . S
H1940 C1933 0.961 . S
H1941 C1933 0.960 . S
H1942 C1934 0.930 . S
H1943 C1935 0.929 . S
H1944 C1952 0.929 . S
H1945 C1954 0.930 . S
H1946 C1956 0.930 . S
H1947 C1959 0.929 . S
H1948 C1962 0.930 . S
H1949 C1964 0.960 . S
H1950 C1964 0.960 . S
H1951 C1964 0.960 . S
C1952 H1944 0.929 . S
C1952 C1953 1.377 . S
C1952 C1954 1.384 . S
C1953 C1952 1.377 . S
C1953 C1959 1.390 . S
C1954 H1945 0.930 . S
C1954 C1952 1.384 . S
C1954 C1955 1.372 . S
C1955 C1954 1.372 . S
C1955 C1956 1.400 . S
C1955 C1960 1.490 . S
C1956 H1946 0.930 . S
C1956 C1955 1.400 . S
C1956 C1959 1.386 . S
H1957 C1973 0.930 . S
H1958 C1974 0.931 . S
C1959 H1947 0.929 . S
C1959 C1953 1.390 . S
C1959 C1956 1.386 . S
C1960 C1955 1.490 . S
C1960 C1962 1.395 . S
C1960 C1963 1.403 . S
H1961 C1967 0.930 . S
C1962 H1948 0.930 . S
C1962 C1960 1.395 . S
C1962 C1965 1.403 . S
C1963 C1960 1.403 . S
C1963 C1964 1.524 . S
C1963 C1967 1.400 . S
C1964 H1949 0.960 . S
C1964 H1950 0.960 . S
C1964 H1951 0.960 . S
C1964 C1963 1.524 . S
C1965 C1962 1.403 . S
C1965 C1966 1.392 . S
C1965 C1969 1.495 . S
C1966 C1965 1.392 . S
C1966 C1967 1.385 . S
C1966 C1968 1.478 . S
C1967 H1961 0.930 . S
C1967 C1963 1.400 . S
C1967 C1966 1.385 . S
C1968 C1966 1.478 . S
C1968 C1970 1.381 . S
C1968 C1974 1.383 . S
C1969 C1965 1.495 . S
C1969 H1975 0.959 . S
C1969 H1976 0.961 . S
C1969 H1977 0.960 . S
C1970 C1968 1.381 . S
C1970 C1971 1.394 . S
C1970 H1978 0.930 . S
C1971 C1970 1.394 . S
C1971 C1972 1.383 . S
C1971 H1979 0.929 . S
C1972 C1971 1.383 . S
C1972 C1973 1.377 . S
C1973 H1957 0.930 . S
C1973 C1972 1.377 . S
C1973 C1974 1.379 . S
C1974 H1958 0.931 . S
C1974 C1968 1.383 . S
C1974 C1973 1.379 . S
H1975 C1969 0.959 . S
H1976 C1969 0.961 . S
H1977 C1969 0.960 . S
H1978 C1970 0.930 . S
H1979 C1971 0.929 . S
H1980 C1988 0.929 . S
H1981 C1990 0.930 . S
H1982 C1992 0.930 . S
H1983 C1995 0.929 . S
H1984 C1998 0.930 . S
H1985 C2000 0.960 . S
H1986 C2000 0.960 . S
H1987 C2000 0.960 . S
C1988 H1980 0.929 . S
C1988 C1989 1.377 . S
C1988 C1990 1.384 . S
C1989 C1988 1.377 . S
C1989 C1995 1.390 . S
C1990 H1981 0.930 . S
C1990 C1988 1.384 . S
C1990 C1991 1.372 . S
C1991 C1990 1.372 . S
C1991 C1992 1.400 . S
C1991 C1996 1.490 . S
C1992 H1982 0.930 . S
C1992 C1991 1.400 . S
C1992 C1995 1.386 . S
H1993 C2009 0.930 . S
H1994 C2010 0.931 . S
C1995 H1983 0.929 . S
C1995 C1989 1.390 . S
C1995 C1992 1.386 . S
C1996 C1991 1.490 . S
C1996 C1998 1.395 . S
C1996 C1999 1.403 . S
H1997 C2003 0.930 . S
C1998 H1984 0.930 . S
C1998 C1996 1.395 . S
C1998 C2001 1.403 . S
C1999 C1996 1.403 . S
C1999 C2000 1.524 . S
C1999 C2003 1.400 . S
C2000 H1985 0.960 . S
C2000 H1986 0.960 . S
C2000 H1987 0.960 . S
C2000 C1999 1.524 . S
C2001 C1998 1.403 . S
C2001 C2002 1.392 . S
C2001 C2005 1.495 . S
C2002 C2001 1.392 . S
C2002 C2003 1.385 . S
C2002 C2004 1.478 . S
C2003 H1997 0.930 . S
C2003 C1999 1.400 . S
C2003 C2002 1.385 . S
C2004 C2002 1.478 . S
C2004 C2006 1.381 . S
C2004 C2010 1.383 . S
C2005 C2001 1.495 . S
C2005 H2011 0.959 . S
C2005 H2012 0.961 . S
C2005 H2013 0.960 . S
C2006 C2004 1.381 . S
C2006 C2007 1.394 . S
C2006 H2014 0.930 . S
C2007 C2006 1.394 . S
C2007 C2008 1.383 . S
C2007 H2015 0.929 . S
C2008 C2007 1.383 . S
C2008 C2009 1.377 . S
C2009 H1993 0.930 . S
C2009 C2008 1.377 . S
C2009 C2010 1.379 . S
C2010 H1994 0.931 . S
C2010 C2004 1.383 . S
C2010 C2009 1.379 . S
H2011 C2005 0.959 . S
H2012 C2005 0.961 . S
H2013 C2005 0.960 . S
H2014 C2006 0.930 . S
H2015 C2007 0.929 . S
H2016 C2024 0.929 . S
H2017 C2026 0.930 . S
H2018 C2028 0.930 . S
H2019 C2031 0.929 . S
H2020 C2034 0.930 . S
H2021 C2036 0.960 . S
H2022 C2036 0.960 . S
H2023 C2036 0.960 . S
C2024 H2016 0.929 . S
C2024 C2025 1.377 . S
C2024 C2026 1.384 . S
C2025 C2024 1.377 . S
C2025 C2031 1.390 . S
C2026 H2017 0.930 . S
C2026 C2024 1.384 . S
C2026 C2027 1.372 . S
C2027 C2026 1.372 . S
C2027 C2028 1.400 . S
C2027 C2032 1.490 . S
C2028 H2018 0.930 . S
C2028 C2027 1.400 . S
C2028 C2031 1.386 . S
H2029 C2045 0.930 . S
H2030 C2046 0.931 . S
C2031 H2019 0.929 . S
C2031 C2025 1.390 . S
C2031 C2028 1.386 . S
C2032 C2027 1.490 . S
C2032 C2034 1.395 . S
C2032 C2035 1.403 . S
H2033 C2039 0.930 . S
C2034 H2020 0.930 . S
C2034 C2032 1.395 . S
C2034 C2037 1.403 . S
C2035 C2032 1.403 . S
C2035 C2036 1.524 . S
C2035 C2039 1.400 . S
C2036 H2021 0.960 . S
C2036 H2022 0.960 . S
C2036 H2023 0.960 . S
C2036 C2035 1.524 . S
C2037 C2034 1.403 . S
C2037 C2038 1.392 . S
C2037 C2041 1.495 . S
C2038 C2037 1.392 . S
C2038 C2039 1.385 . S
C2038 C2040 1.478 . S
C2039 H2033 0.930 . S
C2039 C2035 1.400 . S
C2039 C2038 1.385 . S
C2040 C2038 1.478 . S
C2040 C2042 1.381 . S
C2040 C2046 1.383 . S
C2041 C2037 1.495 . S
C2041 H2047 0.959 . S
C2041 H2048 0.961 . S
C2041 H2049 0.960 . S
C2042 C2040 1.381 . S
C2042 C2043 1.394 . S
C2042 H2050 0.930 . S
C2043 C2042 1.394 . S
C2043 C2044 1.383 . S
C2043 H2051 0.929 . S
C2044 C2043 1.383 . S
C2044 C2045 1.377 . S
C2045 H2029 0.930 . S
C2045 C2044 1.377 . S
C2045 C2046 1.379 . S
C2046 H2030 0.931 . S
C2046 C2040 1.383 . S
C2046 C2045 1.379 . S
H2047 C2041 0.959 . S
H2048 C2041 0.961 . S
H2049 C2041 0.960 . S
H2050 C2042 0.930 . S
H2051 C2043 0.929 . S
H2052 C2060 0.929 . S
H2053 C2062 0.930 . S
H2054 C2064 0.930 . S
H2055 C2067 0.929 . S
H2056 C2070 0.930 . S
H2057 C2072 0.960 . S
H2058 C2072 0.960 . S
H2059 C2072 0.960 . S
C2060 H2052 0.929 . S
C2060 C2061 1.377 . S
C2060 C2062 1.384 . S
C2061 C2060 1.377 . S
C2061 C2067 1.390 . S
C2062 H2053 0.930 . S
C2062 C2060 1.384 . S
C2062 C2063 1.372 . S
C2063 C2062 1.372 . S
C2063 C2064 1.400 . S
C2063 C2068 1.490 . S
C2064 H2054 0.930 . S
C2064 C2063 1.400 . S
C2064 C2067 1.386 . S
H2065 C2081 0.930 . S
H2066 C2082 0.931 . S
C2067 H2055 0.929 . S
C2067 C2061 1.390 . S
C2067 C2064 1.386 . S
C2068 C2063 1.490 . S
C2068 C2070 1.395 . S
C2068 C2071 1.403 . S
H2069 C2075 0.930 . S
C2070 H2056 0.930 . S
C2070 C2068 1.395 . S
C2070 C2073 1.403 . S
C2071 C2068 1.403 . S
C2071 C2072 1.524 . S
C2071 C2075 1.400 . S
C2072 H2057 0.960 . S
C2072 H2058 0.960 . S
C2072 H2059 0.960 . S
C2072 C2071 1.524 . S
C2073 C2070 1.403 . S
C2073 C2074 1.392 . S
C2073 C2077 1.495 . S
C2074 C2073 1.392 . S
C2074 C2075 1.385 . S
C2074 C2076 1.478 . S
C2075 H2069 0.930 . S
C2075 C2071 1.400 . S
C2075 C2074 1.385 . S
C2076 C2074 1.478 . S
C2076 C2078 1.381 . S
C2076 C2082 1.383 . S
C2077 C2073 1.495 . S
C2077 H2083 0.959 . S
C2077 H2084 0.961 . S
C2077 H2085 0.960 . S
C2078 C2076 1.381 . S
C2078 C2079 1.394 . S
C2078 H2086 0.930 . S
C2079 C2078 1.394 . S
C2079 C2080 1.383 . S
C2079 H2087 0.929 . S
C2080 C2079 1.383 . S
C2080 C2081 1.377 . S
C2081 H2065 0.930 . S
C2081 C2080 1.377 . S
C2081 C2082 1.379 . S
C2082 H2066 0.931 . S
C2082 C2076 1.383 . S
C2082 C2081 1.379 . S
H2083 C2077 0.959 . S
H2084 C2077 0.961 . S
H2085 C2077 0.960 . S
H2086 C2078 0.930 . S
H2087 C2079 0.929 . S
H2088 C2096 0.929 . S
H2089 C2098 0.930 . S
H2090 C2100 0.930 . S
H2091 C2103 0.929 . S
H2092 C2106 0.930 . S
H2093 C2108 0.960 . S
H2094 C2108 0.960 . S
H2095 C2108 0.960 . S
C2096 H2088 0.929 . S
C2096 C2097 1.377 . S
C2096 C2098 1.384 . S
C2097 C2096 1.377 . S
C2097 C2103 1.390 . S
C2098 H2089 0.930 . S
C2098 C2096 1.384 . S
C2098 C2099 1.372 . S
C2099 C2098 1.372 . S
C2099 C2100 1.400 . S
C2099 C2104 1.490 . S
C2100 H2090 0.930 . S
C2100 C2099 1.400 . S
C2100 C2103 1.386 . S
H2101 C2117 0.930 . S
H2102 C2118 0.931 . S
C2103 H2091 0.929 . S
C2103 C2097 1.390 . S
C2103 C2100 1.386 . S
C2104 C2099 1.490 . S
C2104 C2106 1.395 . S
C2104 C2107 1.403 . S
H2105 C2111 0.930 . S
C2106 H2092 0.930 . S
C2106 C2104 1.395 . S
C2106 C2109 1.403 . S
C2107 C2104 1.403 . S
C2107 C2108 1.524 . S
C2107 C2111 1.400 . S
C2108 H2093 0.960 . S
C2108 H2094 0.960 . S
C2108 H2095 0.960 . S
C2108 C2107 1.524 . S
C2109 C2106 1.403 . S
C2109 C2110 1.392 . S
C2109 C2113 1.495 . S
C2110 C2109 1.392 . S
C2110 C2111 1.385 . S
C2110 C2112 1.478 . S
C2111 H2105 0.930 . S
C2111 C2107 1.400 . S
C2111 C2110 1.385 . S
C2112 C2110 1.478 . S
C2112 C2114 1.381 . S
C2112 C2118 1.383 . S
C2113 C2109 1.495 . S
C2113 H2119 0.959 . S
C2113 H2120 0.961 . S
C2113 H2121 0.960 . S
C2114 C2112 1.381 . S
C2114 C2115 1.394 . S
C2114 H2122 0.930 . S
C2115 C2114 1.394 . S
C2115 C2116 1.383 . S
C2115 H2123 0.929 . S
C2116 C2115 1.383 . S
C2116 C2117 1.377 . S
C2117 H2101 0.930 . S
C2117 C2116 1.377 . S
C2117 C2118 1.379 . S
C2118 H2102 0.931 . S
C2118 C2112 1.383 . S
C2118 C2117 1.379 . S
H2119 C2113 0.959 . S
H2120 C2113 0.961 . S
H2121 C2113 0.960 . S
H2122 C2114 0.930 . S
H2123 C2115 0.929 . S
H2124 C2132 0.929 . S
H2125 C2134 0.930 . S
H2126 C2136 0.930 . S
H2127 C2139 0.929 . S
H2128 C2142 0.930 . S
H2129 C2144 0.960 . S
H2130 C2144 0.960 . S
H2131 C2144 0.960 . S
C2132 H2124 0.929 . S
C2132 C2133 1.377 . S
C2132 C2134 1.384 . S
C2133 C2132 1.377 . S
C2133 C2139 1.390 . S
C2134 H2125 0.930 . S
C2134 C2132 1.384 . S
C2134 C2135 1.372 . S
C2135 C2134 1.372 . S
C2135 C2136 1.400 . S
C2135 C2140 1.490 . S
C2136 H2126 0.930 . S
C2136 C2135 1.400 . S
C2136 C2139 1.386 . S
H2137 C2153 0.930 . S
H2138 C2154 0.931 . S
C2139 H2127 0.929 . S
C2139 C2133 1.390 . S
C2139 C2136 1.386 . S
C2140 C2135 1.490 . S
C2140 C2142 1.395 . S
C2140 C2143 1.403 . S
H2141 C2147 0.930 . S
C2142 H2128 0.930 . S
C2142 C2140 1.395 . S
C2142 C2145 1.403 . S
C2143 C2140 1.403 . S
C2143 C2144 1.524 . S
C2143 C2147 1.400 . S
C2144 H2129 0.960 . S
C2144 H2130 0.960 . S
C2144 H2131 0.960 . S
C2144 C2143 1.524 . S
C2145 C2142 1.403 . S
C2145 C2146 1.392 . S
C2145 C2149 1.495 . S
C2146 C2145 1.392 . S
C2146 C2147 1.385 . S
C2146 C2148 1.478 . S
C2147 H2141 0.930 . S
C2147 C2143 1.400 . S
C2147 C2146 1.385 . S
C2148 C2146 1.478 . S
C2148 C2150 1.381 . S
C2148 C2154 1.383 . S
C2149 C2145 1.495 . S
C2149 H2155 0.959 . S
C2149 H2156 0.961 . S
C2149 H2157 0.960 . S
C2150 C2148 1.381 . S
C2150 C2151 1.394 . S
C2150 H2158 0.930 . S
C2151 C2150 1.394 . S
C2151 C2152 1.383 . S
C2151 H2159 0.929 . S
C2152 C2151 1.383 . S
C2152 C2153 1.377 . S
C2153 H2137 0.930 . S
C2153 C2152 1.377 . S
C2153 C2154 1.379 . S
C2154 H2138 0.931 . S
C2154 C2148 1.383 . S
C2154 C2153 1.379 . S
H2155 C2149 0.959 . S
H2156 C2149 0.961 . S
H2157 C2149 0.960 . S
H2158 C2150 0.930 . S
H2159 C2151 0.929 . S
H2160 C2168 0.929 . S
H2161 C2170 0.930 . S
H2162 C2172 0.930 . S
H2163 C2175 0.929 . S
H2164 C2178 0.930 . S
H2165 C2180 0.960 . S
H2166 C2180 0.960 . S
H2167 C2180 0.960 . S
C2168 H2160 0.929 . S
C2168 C2169 1.377 . S
C2168 C2170 1.384 . S
C2169 C2168 1.377 . S
C2169 C2175 1.390 . S
C2170 H2161 0.930 . S
C2170 C2168 1.384 . S
C2170 C2171 1.372 . S
C2171 C2170 1.372 . S
C2171 C2172 1.400 . S
C2171 C2176 1.490 . S
C2172 H2162 0.930 . S
C2172 C2171 1.400 . S
C2172 C2175 1.386 . S
H2173 C2189 0.930 . S
H2174 C2190 0.931 . S
C2175 H2163 0.929 . S
C2175 C2169 1.390 . S
C2175 C2172 1.386 . S
C2176 C2171 1.490 . S
C2176 C2178 1.395 . S
C2176 C2179 1.403 . S
H2177 C2183 0.930 . S
C2178 H2164 0.930 . S
C2178 C2176 1.395 . S
C2178 C2181 1.403 . S
C2179 C2176 1.403 . S
C2179 C2180 1.524 . S
C2179 C2183 1.400 . S
C2180 H2165 0.960 . S
C2180 H2166 0.960 . S
C2180 H2167 0.960 . S
C2180 C2179 1.524 . S
C2181 C2178 1.403 . S
C2181 C2182 1.392 . S
C2181 C2185 1.495 . S
C2182 C2181 1.392 . S
C2182 C2183 1.385 . S
C2182 C2184 1.478 . S
C2183 H2177 0.930 . S
C2183 C2179 1.400 . S
C2183 C2182 1.385 . S
C2184 C2182 1.478 . S
C2184 C2186 1.381 . S
C2184 C2190 1.383 . S
C2185 C2181 1.495 . S
C2185 H2191 0.959 . S
C2185 H2192 0.961 . S
C2185 H2193 0.960 . S
C2186 C2184 1.381 . S
C2186 C2187 1.394 . S
C2186 H2194 0.930 . S
C2187 C2186 1.394 . S
C2187 C2188 1.383 . S
C2187 H2195 0.929 . S
C2188 C2187 1.383 . S
C2188 C2189 1.377 . S
C2189 H2173 0.930 . S
C2189 C2188 1.377 . S
C2189 C2190 1.379 . S
C2190 H2174 0.931 . S
C2190 C2184 1.383 . S
C2190 C2189 1.379 . S
H2191 C2185 0.959 . S
H2192 C2185 0.961 . S
H2193 C2185 0.960 . S
H2194 C2186 0.930 . S
H2195 C2187 0.929 . S
H2196 C2204 0.929 . S
H2197 C2206 0.930 . S
H2198 C2208 0.930 . S
H2199 C2211 0.929 . S
H2200 C2214 0.930 . S
H2201 C2216 0.960 . S
H2202 C2216 0.960 . S
H2203 C2216 0.960 . S
C2204 H2196 0.929 . S
C2204 C2205 1.377 . S
C2204 C2206 1.384 . S
C2205 C2204 1.377 . S
C2205 C2211 1.390 . S
C2206 H2197 0.930 . S
C2206 C2204 1.384 . S
C2206 C2207 1.372 . S
C2207 C2206 1.372 . S
C2207 C2208 1.400 . S
C2207 C2212 1.490 . S
C2208 H2198 0.930 . S
C2208 C2207 1.400 . S
C2208 C2211 1.386 . S
H2209 C2225 0.930 . S
H2210 C2226 0.931 . S
C2211 H2199 0.929 . S
C2211 C2205 1.390 . S
C2211 C2208 1.386 . S
C2212 C2207 1.490 . S
C2212 C2214 1.395 . S
C2212 C2215 1.403 . S
H2213 C2219 0.930 . S
C2214 H2200 0.930 . S
C2214 C2212 1.395 . S
C2214 C2217 1.403 . S
C2215 C2212 1.403 . S
C2215 C2216 1.524 . S
C2215 C2219 1.400 . S
C2216 H2201 0.960 . S
C2216 H2202 0.960 . S
C2216 H2203 0.960 . S
C2216 C2215 1.524 . S
C2217 C2214 1.403 . S
C2217 C2218 1.392 . S
C2217 C2221 1.495 . S
C2218 C2217 1.392 . S
C2218 C2219 1.385 . S
C2218 C2220 1.478 . S
C2219 H2213 0.930 . S
C2219 C2215 1.400 . S
C2219 C2218 1.385 . S
C2220 C2218 1.478 . S
C2220 C2222 1.381 . S
C2220 C2226 1.383 . S
C2221 C2217 1.495 . S
C2221 H2227 0.959 . S
C2221 H2228 0.961 . S
C2221 H2229 0.960 . S
C2222 C2220 1.381 . S
C2222 C2223 1.394 . S
C2222 H2230 0.930 . S
C2223 C2222 1.394 . S
C2223 C2224 1.383 . S
C2223 H2231 0.929 . S
C2224 C2223 1.383 . S
C2224 C2225 1.377 . S
C2225 H2209 0.930 . S
C2225 C2224 1.377 . S
C2225 C2226 1.379 . S
C2226 H2210 0.931 . S
C2226 C2220 1.383 . S
C2226 C2225 1.379 . S
H2227 C2221 0.959 . S
H2228 C2221 0.961 . S
H2229 C2221 0.960 . S
H2230 C2222 0.930 . S
H2231 C2223 0.929 . S
H2232 C2240 0.929 . S
H2233 C2242 0.930 . S
H2234 C2244 0.930 . S
H2235 C2247 0.929 . S
H2236 C2250 0.930 . S
H2237 C2252 0.960 . S
H2238 C2252 0.960 . S
H2239 C2252 0.960 . S
C2240 H2232 0.929 . S
C2240 C2241 1.377 . S
C2240 C2242 1.384 . S
C2241 C2240 1.377 . S
C2241 C2247 1.390 . S
C2242 H2233 0.930 . S
C2242 C2240 1.384 . S
C2242 C2243 1.372 . S
C2243 C2242 1.372 . S
C2243 C2244 1.400 . S
C2243 C2248 1.490 . S
C2244 H2234 0.930 . S
C2244 C2243 1.400 . S
C2244 C2247 1.386 . S
H2245 C2261 0.930 . S
H2246 C2262 0.931 . S
C2247 H2235 0.929 . S
C2247 C2241 1.390 . S
C2247 C2244 1.386 . S
C2248 C2243 1.490 . S
C2248 C2250 1.395 . S
C2248 C2251 1.403 . S
H2249 C2255 0.930 . S
C2250 H2236 0.930 . S
C2250 C2248 1.395 . S
C2250 C2253 1.403 . S
C2251 C2248 1.403 . S
C2251 C2252 1.524 . S
C2251 C2255 1.400 . S
C2252 H2237 0.960 . S
C2252 H2238 0.960 . S
C2252 H2239 0.960 . S
C2252 C2251 1.524 . S
C2253 C2250 1.403 . S
C2253 C2254 1.392 . S
C2253 C2257 1.495 . S
C2254 C2253 1.392 . S
C2254 C2255 1.385 . S
C2254 C2256 1.478 . S
C2255 H2249 0.930 . S
C2255 C2251 1.400 . S
C2255 C2254 1.385 . S
C2256 C2254 1.478 . S
C2256 C2258 1.381 . S
C2256 C2262 1.383 . S
C2257 C2253 1.495 . S
C2257 H2263 0.959 . S
C2257 H2264 0.961 . S
C2257 H2265 0.960 . S
C2258 C2256 1.381 . S
C2258 C2259 1.394 . S
C2258 H2266 0.930 . S
C2259 C2258 1.394 . S
C2259 C2260 1.383 . S
C2259 H2267 0.929 . S
C2260 C2259 1.383 . S
C2260 C2261 1.377 . S
C2261 H2245 0.930 . S
C2261 C2260 1.377 . S
C2261 C2262 1.379 . S
C2262 H2246 0.931 . S
C2262 C2256 1.383 . S
C2262 C2261 1.379 . S
H2263 C2257 0.959 . S
H2264 C2257 0.961 . S
H2265 C2257 0.960 . S
H2266 C2258 0.930 . S
H2267 C2259 0.929 . S
H2268 C2276 0.929 . S
H2269 C2278 0.930 . S
H2270 C2280 0.930 . S
H2271 C2283 0.929 . S
H2272 C2286 0.930 . S
H2273 C2288 0.960 . S
H2274 C2288 0.960 . S
H2275 C2288 0.960 . S
C2276 H2268 0.929 . S
C2276 C2277 1.377 . S
C2276 C2278 1.384 . S
C2277 C2276 1.377 . S
C2277 C2283 1.390 . S
C2278 H2269 0.930 . S
C2278 C2276 1.384 . S
C2278 C2279 1.372 . S
C2279 C2278 1.372 . S
C2279 C2280 1.400 . S
C2279 C2284 1.490 . S
C2280 H2270 0.930 . S
C2280 C2279 1.400 . S
C2280 C2283 1.386 . S
H2281 C2297 0.930 . S
H2282 C2298 0.931 . S
C2283 H2271 0.929 . S
C2283 C2277 1.390 . S
C2283 C2280 1.386 . S
C2284 C2279 1.490 . S
C2284 C2286 1.395 . S
C2284 C2287 1.403 . S
H2285 C2291 0.930 . S
C2286 H2272 0.930 . S
C2286 C2284 1.395 . S
C2286 C2289 1.403 . S
C2287 C2284 1.403 . S
C2287 C2288 1.524 . S
C2287 C2291 1.400 . S
C2288 H2273 0.960 . S
C2288 H2274 0.960 . S
C2288 H2275 0.960 . S
C2288 C2287 1.524 . S
C2289 C2286 1.403 . S
C2289 C2290 1.392 . S
C2289 C2293 1.495 . S
C2290 C2289 1.392 . S
C2290 C2291 1.385 . S
C2290 C2292 1.478 . S
C2291 H2285 0.930 . S
C2291 C2287 1.400 . S
C2291 C2290 1.385 . S
C2292 C2290 1.478 . S
C2292 C2294 1.381 . S
C2292 C2298 1.383 . S
C2293 C2289 1.495 . S
C2293 H2299 0.959 . S
C2293 H2300 0.961 . S
C2293 H2301 0.960 . S
C2294 C2292 1.381 . S
C2294 C2295 1.394 . S
C2294 H2302 0.930 . S
C2295 C2294 1.394 . S
C2295 C2296 1.383 . S
C2295 H2303 0.929 . S
C2296 C2295 1.383 . S
C2296 C2297 1.377 . S
C2297 H2281 0.930 . S
C2297 C2296 1.377 . S
C2297 C2298 1.379 . S
C2298 H2282 0.931 . S
C2298 C2292 1.383 . S
C2298 C2297 1.379 . S
H2299 C2293 0.959 . S
H2300 C2293 0.961 . S
H2301 C2293 0.960 . S
H2302 C2294 0.930 . S
H2303 C2295 0.929 . S
H2304 C2312 0.929 . S
H2305 C2314 0.930 . S
H2306 C2316 0.930 . S
H2307 C2319 0.929 . S
H2308 C2322 0.930 . S
H2309 C2324 0.960 . S
H2310 C2324 0.960 . S
H2311 C2324 0.960 . S
C2312 H2304 0.929 . S
C2312 C2313 1.377 . S
C2312 C2314 1.384 . S
C2313 C2312 1.377 . S
C2313 C2319 1.390 . S
C2314 H2305 0.930 . S
C2314 C2312 1.384 . S
C2314 C2315 1.372 . S
C2315 C2314 1.372 . S
C2315 C2316 1.400 . S
C2315 C2320 1.490 . S
C2316 H2306 0.930 . S
C2316 C2315 1.400 . S
C2316 C2319 1.386 . S
H2317 C2333 0.930 . S
H2318 C2334 0.931 . S
C2319 H2307 0.929 . S
C2319 C2313 1.390 . S
C2319 C2316 1.386 . S
C2320 C2315 1.490 . S
C2320 C2322 1.395 . S
C2320 C2323 1.403 . S
H2321 C2327 0.930 . S
C2322 H2308 0.930 . S
C2322 C2320 1.395 . S
C2322 C2325 1.403 . S
C2323 C2320 1.403 . S
C2323 C2324 1.524 . S
C2323 C2327 1.400 . S
C2324 H2309 0.960 . S
C2324 H2310 0.960 . S
C2324 H2311 0.960 . S
C2324 C2323 1.524 . S
C2325 C2322 1.403 . S
C2325 C2326 1.392 . S
C2325 C2329 1.495 . S
C2326 C2325 1.392 . S
C2326 C2327 1.385 . S
C2326 C2328 1.478 . S
C2327 H2321 0.930 . S
C2327 C2323 1.400 . S
C2327 C2326 1.385 . S
C2328 C2326 1.478 . S
C2328 C2330 1.381 . S
C2328 C2334 1.383 . S
C2329 C2325 1.495 . S
C2329 H2335 0.959 . S
C2329 H2336 0.961 . S
C2329 H2337 0.960 . S
C2330 C2328 1.381 . S
C2330 C2331 1.394 . S
C2330 H2338 0.930 . S
C2331 C2330 1.394 . S
C2331 C2332 1.383 . S
C2331 H2339 0.929 . S
C2332 C2331 1.383 . S
C2332 C2333 1.377 . S
C2333 H2317 0.930 . S
C2333 C2332 1.377 . S
C2333 C2334 1.379 . S
C2334 H2318 0.931 . S
C2334 C2328 1.383 . S
C2334 C2333 1.379 . S
H2335 C2329 0.959 . S
H2336 C2329 0.961 . S
H2337 C2329 0.960 . S
H2338 C2330 0.930 . S
H2339 C2331 0.929 . S
H2340 C2348 0.929 . S
H2341 C2350 0.930 . S
H2342 C2352 0.930 . S
H2343 C2355 0.929 . S
H2344 C2358 0.930 . S
H2345 C2360 0.960 . S
H2346 C2360 0.960 . S
H2347 C2360 0.960 . S
C2348 H2340 0.929 . S
C2348 C2349 1.377 . S
C2348 C2350 1.384 . S
C2349 C2348 1.377 . S
C2349 C2355 1.390 . S
C2350 H2341 0.930 . S
C2350 C2348 1.384 . S
C2350 C2351 1.372 . S
C2351 C2350 1.372 . S
C2351 C2352 1.400 . S
C2351 C2356 1.490 . S
C2352 H2342 0.930 . S
C2352 C2351 1.400 . S
C2352 C2355 1.386 . S
H2353 C2369 0.930 . S
H2354 C2370 0.931 . S
C2355 H2343 0.929 . S
C2355 C2349 1.390 . S
C2355 C2352 1.386 . S
C2356 C2351 1.490 . S
C2356 C2358 1.395 . S
C2356 C2359 1.403 . S
H2357 C2363 0.930 . S
C2358 H2344 0.930 . S
C2358 C2356 1.395 . S
C2358 C2361 1.403 . S
C2359 C2356 1.403 . S
C2359 C2360 1.524 . S
C2359 C2363 1.400 . S
C2360 H2345 0.960 . S
C2360 H2346 0.960 . S
C2360 H2347 0.960 . S
C2360 C2359 1.524 . S
C2361 C2358 1.403 . S
C2361 C2362 1.392 . S
C2361 C2365 1.495 . S
C2362 C2361 1.392 . S
C2362 C2363 1.385 . S
C2362 C2364 1.478 . S
C2363 H2357 0.930 . S
C2363 C2359 1.400 . S
C2363 C2362 1.385 . S
C2364 C2362 1.478 . S
C2364 C2366 1.381 . S
C2364 C2370 1.383 . S
C2365 C2361 1.495 . S
C2365 H2371 0.959 . S
C2365 H2372 0.961 . S
C2365 H2373 0.960 . S
C2366 C2364 1.381 . S
C2366 C2367 1.394 . S
C2366 H2374 0.930 . S
C2367 C2366 1.394 . S
C2367 C2368 1.383 . S
C2367 H2375 0.929 . S
C2368 C2367 1.383 . S
C2368 C2369 1.377 . S
C2369 H2353 0.930 . S
C2369 C2368 1.377 . S
C2369 C2370 1.379 . S
C2370 H2354 0.931 . S
C2370 C2364 1.383 . S
C2370 C2369 1.379 . S
H2371 C2365 0.959 . S
H2372 C2365 0.961 . S
H2373 C2365 0.960 . S
H2374 C2366 0.930 . S
H2375 C2367 0.929 . S
H2376 C2384 0.929 . S
H2377 C2386 0.930 . S
H2378 C2388 0.930 . S
H2379 C2391 0.929 . S
H2380 C2394 0.930 . S
H2381 C2396 0.960 . S
H2382 C2396 0.960 . S
H2383 C2396 0.960 . S
C2384 H2376 0.929 . S
C2384 C2385 1.377 . S
C2384 C2386 1.384 . S
C2385 C2384 1.377 . S
C2385 C2391 1.390 . S
C2386 H2377 0.930 . S
C2386 C2384 1.384 . S
C2386 C2387 1.372 . S
C2387 C2386 1.372 . S
C2387 C2388 1.400 . S
C2387 C2392 1.490 . S
C2388 H2378 0.930 . S
C2388 C2387 1.400 . S
C2388 C2391 1.386 . S
H2389 C2405 0.930 . S
H2390 C2406 0.931 . S
C2391 H2379 0.929 . S
C2391 C2385 1.390 . S
C2391 C2388 1.386 . S
C2392 C2387 1.490 . S
C2392 C2394 1.395 . S
C2392 C2395 1.403 . S
H2393 C2399 0.930 . S
C2394 H2380 0.930 . S
C2394 C2392 1.395 . S
C2394 C2397 1.403 . S
C2395 C2392 1.403 . S
C2395 C2396 1.524 . S
C2395 C2399 1.400 . S
C2396 H2381 0.960 . S
C2396 H2382 0.960 . S
C2396 H2383 0.960 . S
C2396 C2395 1.524 . S
C2397 C2394 1.403 . S
C2397 C2398 1.392 . S
C2397 C2401 1.495 . S
C2398 C2397 1.392 . S
C2398 C2399 1.385 . S
C2398 C2400 1.478 . S
C2399 H2393 0.930 . S
C2399 C2395 1.400 . S
C2399 C2398 1.385 . S
C2400 C2398 1.478 . S
C2400 C2402 1.381 . S
C2400 C2406 1.383 . S
C2401 C2397 1.495 . S
C2401 H2407 0.959 . S
C2401 H2408 0.961 . S
C2401 H2409 0.960 . S
C2402 C2400 1.381 . S
C2402 C2403 1.394 . S
C2402 H2410 0.930 . S
C2403 C2402 1.394 . S
C2403 C2404 1.383 . S
C2403 H2411 0.929 . S
C2404 C2403 1.383 . S
C2404 C2405 1.377 . S
C2405 H2389 0.930 . S
C2405 C2404 1.377 . S
C2405 C2406 1.379 . S
C2406 H2390 0.931 . S
C2406 C2400 1.383 . S
C2406 C2405 1.379 . S
H2407 C2401 0.959 . S
H2408 C2401 0.961 . S
H2409 C2401 0.960 . S
H2410 C2402 0.930 . S
H2411 C2403 0.929 . S
H2412 C2420 0.929 . S
H2413 C2422 0.930 . S
H2414 C2424 0.930 . S
H2415 C2427 0.929 . S
H2416 C2430 0.930 . S
H2417 C2432 0.960 . S
H2418 C2432 0.960 . S
H2419 C2432 0.960 . S
C2420 H2412 0.929 . S
C2420 C2421 1.377 . S
C2420 C2422 1.384 . S
C2421 C2420 1.377 . S
C2421 C2427 1.390 . S
C2422 H2413 0.930 . S
C2422 C2420 1.384 . S
C2422 C2423 1.372 . S
C2423 C2422 1.372 . S
C2423 C2424 1.400 . S
C2423 C2428 1.490 . S
C2424 H2414 0.930 . S
C2424 C2423 1.400 . S
C2424 C2427 1.386 . S
H2425 C2441 0.930 . S
H2426 C2442 0.931 . S
C2427 H2415 0.929 . S
C2427 C2421 1.390 . S
C2427 C2424 1.386 . S
C2428 C2423 1.490 . S
C2428 C2430 1.395 . S
C2428 C2431 1.403 . S
H2429 C2435 0.930 . S
C2430 H2416 0.930 . S
C2430 C2428 1.395 . S
C2430 C2433 1.403 . S
C2431 C2428 1.403 . S
C2431 C2432 1.524 . S
C2431 C2435 1.400 . S
C2432 H2417 0.960 . S
C2432 H2418 0.960 . S
C2432 H2419 0.960 . S
C2432 C2431 1.524 . S
C2433 C2430 1.403 . S
C2433 C2434 1.392 . S
C2433 C2437 1.495 . S
C2434 C2433 1.392 . S
C2434 C2435 1.385 . S
C2434 C2436 1.478 . S
C2435 H2429 0.930 . S
C2435 C2431 1.400 . S
C2435 C2434 1.385 . S
C2436 C2434 1.478 . S
C2436 C2438 1.381 . S
C2436 C2442 1.383 . S
C2437 C2433 1.495 . S
C2437 H2443 0.959 . S
C2437 H2444 0.961 . S
C2437 H2445 0.960 . S
C2438 C2436 1.381 . S
C2438 C2439 1.394 . S
C2438 H2446 0.930 . S
C2439 C2438 1.394 . S
C2439 C2440 1.383 . S
C2439 H2447 0.929 . S
C2440 C2439 1.383 . S
C2440 C2441 1.377 . S
C2441 H2425 0.930 . S
C2441 C2440 1.377 . S
C2441 C2442 1.379 . S
C2442 H2426 0.931 . S
C2442 C2436 1.383 . S
C2442 C2441 1.379 . S
H2443 C2437 0.959 . S
H2444 C2437 0.961 . S
H2445 C2437 0.960 . S
H2446 C2438 0.930 . S
H2447 C2439 0.929 . S
H2448 C2456 0.929 . S
H2449 C2458 0.930 . S
H2450 C2460 0.930 . S
H2451 C2463 0.929 . S
H2452 C2466 0.930 . S
H2453 C2468 0.960 . S
H2454 C2468 0.960 . S
H2455 C2468 0.960 . S
C2456 H2448 0.929 . S
C2456 C2457 1.377 . S
C2456 C2458 1.384 . S
C2457 C2456 1.377 . S
C2457 C2463 1.390 . S
C2458 H2449 0.930 . S
C2458 C2456 1.384 . S
C2458 C2459 1.372 . S
C2459 C2458 1.372 . S
C2459 C2460 1.400 . S
C2459 C2464 1.490 . S
C2460 H2450 0.930 . S
C2460 C2459 1.400 . S
C2460 C2463 1.386 . S
H2461 C2477 0.930 . S
H2462 C2478 0.931 . S
C2463 H2451 0.929 . S
C2463 C2457 1.390 . S
C2463 C2460 1.386 . S
C2464 C2459 1.490 . S
C2464 C2466 1.395 . S
C2464 C2467 1.403 . S
H2465 C2471 0.930 . S
C2466 H2452 0.930 . S
C2466 C2464 1.395 . S
C2466 C2469 1.403 . S
C2467 C2464 1.403 . S
C2467 C2468 1.524 . S
C2467 C2471 1.400 . S
C2468 H2453 0.960 . S
C2468 H2454 0.960 . S
C2468 H2455 0.960 . S
C2468 C2467 1.524 . S
C2469 C2466 1.403 . S
C2469 C2470 1.392 . S
C2469 C2473 1.495 . S
C2470 C2469 1.392 . S
C2470 C2471 1.385 . S
C2470 C2472 1.478 . S
C2471 H2465 0.930 . S
C2471 C2467 1.400 . S
C2471 C2470 1.385 . S
C2472 C2470 1.478 . S
C2472 C2474 1.381 . S
C2472 C2478 1.383 . S
C2473 C2469 1.495 . S
C2473 H2479 0.959 . S
C2473 H2480 0.961 . S
C2473 H2481 0.960 . S
C2474 C2472 1.381 . S
C2474 C2475 1.394 . S
C2474 H2482 0.930 . S
C2475 C2474 1.394 . S
C2475 C2476 1.383 . S
C2475 H2483 0.929 . S
C2476 C2475 1.383 . S
C2476 C2477 1.377 . S
C2477 H2461 0.930 . S
C2477 C2476 1.377 . S
C2477 C2478 1.379 . S
C2478 H2462 0.931 . S
C2478 C2472 1.383 . S
C2478 C2477 1.379 . S
H2479 C2473 0.959 . S
H2480 C2473 0.961 . S
H2481 C2473 0.960 . S
H2482 C2474 0.930 . S
H2483 C2475 0.929 . S
H2484 C2492 0.888 1_554 S
H2485 C2494 0.930 . S
H2486 C2496 0.930 . S
H2487 C2499 0.929 . S
H2488 C2502 0.930 . S
H2489 C2504 0.960 . S
H2490 C2504 0.960 . S
H2491 C2504 0.960 . S
C2492 H2484 0.888 1_556 S
C2492 C2493 1.397 . S
C2492 C2494 1.406 . S
C2493 C2492 1.397 . S
C2493 C2499 1.390 . S
C2494 H2485 0.930 . S
C2494 C2492 1.406 . S
C2494 C2495 1.372 . S
C2495 C2494 1.372 . S
C2495 C2496 1.400 . S
C2495 C2500 1.490 . S
C2496 H2486 0.930 . S
C2496 C2495 1.400 . S
C2496 C2499 1.386 . S
H2497 C2513 0.930 . S
H2498 C2514 0.931 . S
C2499 H2487 0.929 . S
C2499 C2493 1.390 . S
C2499 C2496 1.386 . S
C2500 C2495 1.490 . S
C2500 C2502 1.395 . S
C2500 C2503 1.403 . S
H2501 C2507 0.930 . S
C2502 H2488 0.930 . S
C2502 C2500 1.395 . S
C2502 C2505 1.403 . S
C2503 C2500 1.403 . S
C2503 C2504 1.524 . S
C2503 C2507 1.400 . S
C2504 H2489 0.960 . S
C2504 H2490 0.960 . S
C2504 H2491 0.960 . S
C2504 C2503 1.524 . S
C2505 C2502 1.403 . S
C2505 C2506 1.392 . S
C2505 C2509 1.495 . S
C2506 C2505 1.392 . S
C2506 C2507 1.385 . S
C2506 C2508 1.478 . S
C2507 H2501 0.930 . S
C2507 C2503 1.400 . S
C2507 C2506 1.385 . S
C2508 C2506 1.478 . S
C2508 C2510 1.381 . S
C2508 C2514 1.383 . S
C2509 C2505 1.495 . S
C2509 H2515 0.959 . S
C2509 H2516 0.961 . S
C2509 H2517 0.960 . S
C2510 C2508 1.381 . S
C2510 C2511 1.394 . S
C2510 H2518 0.930 . S
C2511 C2510 1.394 . S
C2511 C2512 1.383 . S
C2511 H2519 0.929 . S
C2512 C2511 1.383 . S
C2512 C2513 1.377 . S
C2513 H2497 0.930 . S
C2513 C2512 1.377 . S
C2513 C2514 1.379 . S
C2514 H2498 0.931 . S
C2514 C2508 1.383 . S
C2514 C2513 1.379 . S
H2515 C2509 0.959 . S
H2516 C2509 0.961 . S
H2517 C2509 0.960 . S
H2518 C2510 0.930 . S
H2519 C2511 0.929 . S
H2520 C2528 0.929 . S
H2521 C2530 0.930 . S
H2522 C2532 0.930 . S
H2523 C2535 0.989 . S
H2524 C2538 0.930 . S
H2525 C2540 0.960 . S
H2526 C2540 0.960 . S
H2527 C2540 0.960 . S
C2528 H2520 0.929 . S
C2528 C2529 1.377 . S
C2528 C2530 1.384 . S
C2529 C2528 1.377 . S
C2529 C2535 1.364 1_556 S
C2530 H2521 0.930 . S
C2530 C2528 1.384 . S
C2530 C2531 1.372 . S
C2531 C2530 1.372 . S
C2531 C2532 1.400 . S
C2531 C2536 1.490 . S
C2532 H2522 0.930 . S
C2532 C2531 1.400 . S
C2532 C2535 1.355 1_556 S
H2533 C2549 0.930 . S
H2534 C2550 0.931 . S
C2535 H2523 0.989 . S
C2535 C2529 1.364 1_554 S
C2535 C2532 1.355 1_554 S
C2536 C2531 1.490 . S
C2536 C2538 1.395 . S
C2536 C2539 1.403 . S
H2537 C2543 0.930 . S
C2538 H2524 0.930 . S
C2538 C2536 1.395 . S
C2538 C2541 1.403 . S
C2539 C2536 1.403 . S
C2539 C2540 1.524 . S
C2539 C2543 1.400 . S
C2540 H2525 0.960 . S
C2540 H2526 0.960 . S
C2540 H2527 0.960 . S
C2540 C2539 1.524 . S
C2541 C2538 1.403 . S
C2541 C2542 1.392 . S
C2541 C2545 1.495 . S
C2542 C2541 1.392 . S
C2542 C2543 1.385 . S
C2542 C2544 1.478 . S
C2543 H2537 0.930 . S
C2543 C2539 1.400 . S
C2543 C2542 1.385 . S
C2544 C2542 1.478 . S
C2544 C2546 1.381 . S
C2544 C2550 1.383 . S
C2545 C2541 1.495 . S
C2545 H2551 0.959 . S
C2545 H2552 0.961 . S
C2545 H2553 0.960 . S
C2546 C2544 1.381 . S
C2546 C2547 1.394 . S
C2546 H2554 0.930 . S
C2547 C2546 1.394 . S
C2547 C2548 1.383 . S
C2547 H2555 0.929 . S
C2548 C2547 1.383 . S
C2548 C2549 1.377 . S
C2549 H2533 0.930 . S
C2549 C2548 1.377 . S
C2549 C2550 1.379 . S
C2550 H2534 0.931 . S
C2550 C2544 1.383 . S
C2550 C2549 1.379 . S
H2551 C2545 0.959 . S
H2552 C2545 0.961 . S
H2553 C2545 0.960 . S
H2554 C2546 0.930 . S
H2555 C2547 0.929 . S
H2556 C2564 0.929 . S
H2557 C2566 0.955 . S
H2558 C2568 0.930 . S
H2559 C2571 0.929 . S
H2560 C2574 0.930 . S
H2561 C2576 0.960 . S
H2562 C2576 0.960 . S
H2563 C2576 0.960 . S
C2564 H2556 0.929 . S
C2564 C2565 1.377 1_554 S
C2564 C2566 1.384 1_554 S
C2565 C2564 1.377 1_556 S
C2565 C2571 1.390 . S
C2566 H2557 0.955 . S
C2566 C2564 1.384 1_556 S
C2566 C2567 1.372 . S
C2567 C2566 1.372 . S
C2567 C2568 1.400 . S
C2567 C2572 1.490 . S
C2568 H2558 0.930 . S
C2568 C2567 1.400 . S
C2568 C2571 1.386 . S
H2569 C2585 0.930 . S
H2570 C2586 0.931 . S
C2571 H2559 0.929 . S
C2571 C2565 1.390 . S
C2571 C2568 1.386 . S
C2572 C2567 1.490 . S
C2572 C2574 1.395 . S
C2572 C2575 1.403 . S
H2573 C2579 0.930 . S
C2574 H2560 0.930 . S
C2574 C2572 1.395 . S
C2574 C2577 1.403 . S
C2575 C2572 1.403 . S
C2575 C2576 1.524 . S
C2575 C2579 1.400 . S
C2576 H2561 0.960 . S
C2576 H2562 0.960 . S
C2576 H2563 0.960 . S
C2576 C2575 1.524 . S
C2577 C2574 1.403 . S
C2577 C2578 1.392 . S
C2577 C2581 1.495 . S
C2578 C2577 1.392 . S
C2578 C2579 1.385 . S
C2578 C2580 1.478 . S
C2579 H2573 0.930 . S
C2579 C2575 1.400 . S
C2579 C2578 1.385 . S
C2580 C2578 1.478 . S
C2580 C2582 1.381 . S
C2580 C2586 1.383 . S
C2581 C2577 1.495 . S
C2581 H2587 0.959 . S
C2581 H2588 0.961 . S
C2581 H2589 0.960 . S
C2582 C2580 1.381 . S
C2582 C2583 1.394 . S
C2582 H2590 0.930 . S
C2583 C2582 1.394 . S
C2583 C2584 1.383 . S
C2583 H2591 0.929 . S
C2584 C2583 1.383 . S
C2584 C2585 1.377 . S
C2585 H2569 0.930 . S
C2585 C2584 1.377 . S
C2585 C2586 1.379 . S
C2586 H2570 0.931 . S
C2586 C2580 1.383 . S
C2586 C2585 1.379 . S
H2587 C2581 0.959 . S
H2588 C2581 0.961 . S
H2589 C2581 0.960 . S
H2590 C2582 0.930 . S
H2591 C2583 0.929 . S
H2592 C2600 0.929 . S
H2593 C2602 0.930 . S
H2594 C2604 0.930 . S
H2595 C2607 0.883 1_554 S
H2596 C2610 0.930 . S
H2597 C2612 0.960 . S
H2598 C2612 0.960 . S
H2599 C2612 0.960 . S
C2600 H2592 0.929 . S
C2600 C2601 1.377 . S
C2600 C2602 1.384 . S
C2601 C2600 1.377 . S
C2601 C2607 1.412 . S
C2602 H2593 0.930 . S
C2602 C2600 1.384 . S
C2602 C2603 1.372 . S
C2603 C2602 1.372 . S
C2603 C2604 1.400 . S
C2603 C2608 1.490 . S
C2604 H2594 0.930 . S
C2604 C2603 1.400 . S
C2604 C2607 1.411 . S
H2605 C2621 0.930 . S
H2606 C2622 0.931 . S
C2607 H2595 0.883 1_556 S
C2607 C2601 1.412 . S
C2607 C2604 1.411 . S
C2608 C2603 1.490 . S
C2608 C2610 1.395 . S
C2608 C2611 1.403 . S
H2609 C2615 0.930 . S
C2610 H2596 0.930 . S
C2610 C2608 1.395 . S
C2610 C2613 1.403 . S
C2611 C2608 1.403 . S
C2611 C2612 1.524 . S
C2611 C2615 1.400 . S
C2612 H2597 0.960 . S
C2612 H2598 0.960 . S
C2612 H2599 0.960 . S
C2612 C2611 1.524 . S
C2613 C2610 1.403 . S
C2613 C2614 1.392 . S
C2613 C2617 1.495 . S
C2614 C2613 1.392 . S
C2614 C2615 1.385 . S
C2614 C2616 1.478 . S
C2615 H2609 0.930 . S
C2615 C2611 1.400 . S
C2615 C2614 1.385 . S
C2616 C2614 1.478 . S
C2616 C2618 1.381 . S
C2616 C2622 1.383 . S
C2617 C2613 1.495 . S
C2617 H2623 0.959 . S
C2617 H2624 0.961 . S
C2617 H2625 0.960 . S
C2618 C2616 1.381 . S
C2618 C2619 1.394 . S
C2618 H2626 0.930 . S
C2619 C2618 1.394 . S
C2619 C2620 1.383 . S
C2619 H2627 0.929 . S
C2620 C2619 1.383 . S
C2620 C2621 1.377 . S
C2621 H2605 0.930 . S
C2621 C2620 1.377 . S
C2621 C2622 1.379 . S
C2622 H2606 0.931 . S
C2622 C2616 1.383 . S
C2622 C2621 1.379 . S
H2623 C2617 0.959 . S
H2624 C2617 0.961 . S
H2625 C2617 0.960 . S
H2626 C2618 0.930 . S
H2627 C2619 0.929 . S
H2628 C2636 0.929 . S
H2629 C2638 0.930 . S
H2630 C2640 0.930 . S
H2631 C2643 0.929 . S
H2632 C2646 0.930 . S
H2633 C2648 0.960 . S
H2634 C2648 0.960 . S
H2635 C2648 0.960 . S
C2636 H2628 0.929 . S
C2636 C2637 1.377 . S
C2636 C2638 1.384 . S
C2637 C2636 1.377 . S
C2637 C2643 1.390 . S
C2638 H2629 0.930 . S
C2638 C2636 1.384 . S
C2638 C2639 1.372 . S
C2639 C2638 1.372 . S
C2639 C2640 1.400 . S
C2639 C2644 1.490 . S
C2640 H2630 0.930 . S
C2640 C2639 1.400 . S
C2640 C2643 1.386 . S
H2641 C2657 0.930 . S
H2642 C2658 0.931 . S
C2643 H2631 0.929 . S
C2643 C2637 1.390 . S
C2643 C2640 1.386 . S
C2644 C2639 1.490 . S
C2644 C2646 1.395 . S
C2644 C2647 1.403 . S
H2645 C2651 0.930 . S
C2646 H2632 0.930 . S
C2646 C2644 1.395 . S
C2646 C2649 1.403 . S
C2647 C2644 1.403 . S
C2647 C2648 1.524 . S
C2647 C2651 1.400 . S
C2648 H2633 0.960 . S
C2648 H2634 0.960 . S
C2648 H2635 0.960 . S
C2648 C2647 1.524 . S
C2649 C2646 1.403 . S
C2649 C2650 1.392 . S
C2649 C2653 1.495 . S
C2650 C2649 1.392 . S
C2650 C2651 1.385 . S
C2650 C2652 1.478 . S
C2651 H2645 0.930 . S
C2651 C2647 1.400 . S
C2651 C2650 1.385 . S
C2652 C2650 1.478 . S
C2652 C2654 1.381 . S
C2652 C2658 1.383 . S
C2653 C2649 1.495 . S
C2653 H2659 0.959 . S
C2653 H2660 0.961 . S
C2653 H2661 0.960 . S
C2654 C2652 1.381 . S
C2654 C2655 1.394 . S
C2654 H2662 0.930 . S
C2655 C2654 1.394 . S
C2655 C2656 1.383 . S
C2655 H2663 0.929 . S
C2656 C2655 1.383 . S
C2656 C2657 1.377 . S
C2657 H2641 0.930 . S
C2657 C2656 1.377 . S
C2657 C2658 1.379 . S
C2658 H2642 0.931 . S
C2658 C2652 1.383 . S
C2658 C2657 1.379 . S
H2659 C2653 0.959 . S
H2660 C2653 0.961 . S
H2661 C2653 0.960 . S
H2662 C2654 0.930 . S
H2663 C2655 0.929 . S
H2664 C2672 0.929 . S
H2665 C2674 0.930 . S
H2666 C2676 0.930 . S
H2667 C2679 0.929 . S
H2668 C2682 0.930 . S
H2669 C2684 0.960 . S
H2670 C2684 0.960 . S
H2671 C2684 0.960 . S
C2672 H2664 0.929 . S
C2672 C2673 1.377 1_554 S
C2672 C2674 1.384 1_554 S
C2673 C2672 1.377 1_556 S
C2673 C2679 1.390 . S
C2674 H2665 0.930 . S
C2674 C2672 1.384 1_556 S
C2674 C2675 1.372 . S
C2675 C2674 1.372 . S
C2675 C2676 1.400 . S
C2675 C2680 1.490 . S
C2676 H2666 0.930 . S
C2676 C2675 1.400 . S
C2676 C2679 1.386 . S
H2677 C2693 0.930 . S
H2678 C2694 0.931 . S
C2679 H2667 0.929 . S
C2679 C2673 1.390 . S
C2679 C2676 1.386 . S
C2680 C2675 1.490 . S
C2680 C2682 1.395 . S
C2680 C2683 1.403 . S
H2681 C2687 0.930 . S
C2682 H2668 0.930 . S
C2682 C2680 1.395 . S
C2682 C2685 1.403 . S
C2683 C2680 1.403 . S
C2683 C2684 1.524 . S
C2683 C2687 1.400 . S
C2684 H2669 0.960 . S
C2684 H2670 0.960 . S
C2684 H2671 0.960 . S
C2684 C2683 1.524 . S
C2685 C2682 1.403 . S
C2685 C2686 1.392 . S
C2685 C2689 1.495 . S
C2686 C2685 1.392 . S
C2686 C2687 1.385 . S
C2686 C2688 1.478 . S
C2687 H2681 0.930 . S
C2687 C2683 1.400 . S
C2687 C2686 1.385 . S
C2688 C2686 1.478 . S
C2688 C2690 1.381 . S
C2688 C2694 1.383 . S
C2689 C2685 1.495 . S
C2689 H2695 0.959 . S
C2689 H2696 0.961 . S
C2689 H2697 0.960 . S
C2690 C2688 1.381 . S
C2690 C2691 1.394 . S
C2690 H2698 0.930 . S
C2691 C2690 1.394 . S
C2691 C2692 1.383 . S
C2691 H2699 0.929 . S
C2692 C2691 1.383 . S
C2692 C2693 1.377 . S
C2693 H2677 0.930 . S
C2693 C2692 1.377 . S
C2693 C2694 1.379 . S
C2694 H2678 0.931 . S
C2694 C2688 1.383 . S
C2694 C2693 1.379 . S
H2695 C2689 0.959 . S
H2696 C2689 0.961 . S
H2697 C2689 0.960 . S
H2698 C2690 0.930 . S
H2699 C2691 0.929 . S
H2700 C2708 0.929 . S
H2701 C2710 0.930 . S
H2702 C2712 0.930 . S
H2703 C2715 0.929 . S
H2704 C2718 0.930 . S
H2705 C2720 0.960 . S
H2706 C2720 0.960 . S
H2707 C2720 0.960 . S
C2708 H2700 0.929 . S
C2708 C2709 1.377 . S
C2708 C2710 1.384 . S
C2709 C2708 1.377 . S
C2709 C2715 1.390 . S
C2710 H2701 0.930 . S
C2710 C2708 1.384 . S
C2710 C2711 1.372 . S
C2711 C2710 1.372 . S
C2711 C2712 1.400 . S
C2711 C2716 1.490 . S
C2712 H2702 0.930 . S
C2712 C2711 1.400 . S
C2712 C2715 1.386 . S
H2713 C2729 0.930 . S
H2714 C2730 0.931 . S
C2715 H2703 0.929 . S
C2715 C2709 1.390 . S
C2715 C2712 1.386 . S
C2716 C2711 1.490 . S
C2716 C2718 1.395 . S
C2716 C2719 1.403 . S
H2717 C2723 0.930 . S
C2718 H2704 0.930 . S
C2718 C2716 1.395 . S
C2718 C2721 1.403 . S
C2719 C2716 1.403 . S
C2719 C2720 1.524 . S
C2719 C2723 1.400 . S
C2720 H2705 0.960 . S
C2720 H2706 0.960 . S
C2720 H2707 0.960 . S
C2720 C2719 1.524 . S
C2721 C2718 1.403 . S
C2721 C2722 1.392 . S
C2721 C2725 1.495 . S
C2722 C2721 1.392 . S
C2722 C2723 1.385 . S
C2722 C2724 1.478 . S
C2723 H2717 0.930 . S
C2723 C2719 1.400 . S
C2723 C2722 1.385 . S
C2724 C2722 1.478 . S
C2724 C2726 1.381 . S
C2724 C2730 1.383 . S
C2725 C2721 1.495 . S
C2725 H2731 0.959 . S
C2725 H2732 0.961 . S
C2725 H2733 0.960 . S
C2726 C2724 1.381 . S
C2726 C2727 1.394 . S
C2726 H2734 0.930 . S
C2727 C2726 1.394 . S
C2727 C2728 1.383 . S
C2727 H2735 0.929 . S
C2728 C2727 1.383 . S
C2728 C2729 1.377 . S
C2729 H2713 0.930 . S
C2729 C2728 1.377 . S
C2729 C2730 1.379 . S
C2730 H2714 0.931 . S
C2730 C2724 1.383 . S
C2730 C2729 1.379 . S
H2731 C2725 0.959 . S
H2732 C2725 0.961 . S
H2733 C2725 0.960 . S
H2734 C2726 0.930 . S
H2735 C2727 0.929 . S
H2736 C2744 0.929 . S
H2737 C2746 0.930 . S
H2738 C2748 0.930 . S
H2739 C2751 0.929 . S
H2740 C2754 0.930 . S
H2741 C2756 0.960 . S
H2742 C2756 0.960 . S
H2743 C2756 0.960 . S
C2744 H2736 0.929 . S
C2744 C2745 1.377 . S
C2744 C2746 1.384 . S
C2745 C2744 1.377 . S
C2745 C2751 1.390 . S
C2746 H2737 0.930 . S
C2746 C2744 1.384 . S
C2746 C2747 1.372 . S
C2747 C2746 1.372 . S
C2747 C2748 1.400 . S
C2747 C2752 1.490 . S
C2748 H2738 0.930 . S
C2748 C2747 1.400 . S
C2748 C2751 1.386 . S
H2749 C2765 0.930 . S
H2750 C2766 0.931 . S
C2751 H2739 0.929 . S
C2751 C2745 1.390 . S
C2751 C2748 1.386 . S
C2752 C2747 1.490 . S
C2752 C2754 1.395 . S
C2752 C2755 1.403 . S
H2753 C2759 0.930 . S
C2754 H2740 0.930 . S
C2754 C2752 1.395 . S
C2754 C2757 1.403 . S
C2755 C2752 1.403 . S
C2755 C2756 1.524 . S
C2755 C2759 1.400 . S
C2756 H2741 0.960 . S
C2756 H2742 0.960 . S
C2756 H2743 0.960 . S
C2756 C2755 1.524 . S
C2757 C2754 1.403 . S
C2757 C2758 1.392 . S
C2757 C2761 1.495 . S
C2758 C2757 1.392 . S
C2758 C2759 1.385 . S
C2758 C2760 1.478 . S
C2759 H2753 0.930 . S
C2759 C2755 1.400 . S
C2759 C2758 1.385 . S
C2760 C2758 1.478 . S
C2760 C2762 1.381 . S
C2760 C2766 1.383 . S
C2761 C2757 1.495 . S
C2761 H2767 0.959 . S
C2761 H2768 0.961 . S
C2761 H2769 0.960 . S
C2762 C2760 1.381 . S
C2762 C2763 1.394 . S
C2762 H2770 0.930 . S
C2763 C2762 1.394 . S
C2763 C2764 1.383 . S
C2763 H2771 0.929 . S
C2764 C2763 1.383 . S
C2764 C2765 1.377 . S
C2765 H2749 0.930 . S
C2765 C2764 1.377 . S
C2765 C2766 1.379 . S
C2766 H2750 0.931 . S
C2766 C2760 1.383 . S
C2766 C2765 1.379 . S
H2767 C2761 0.959 . S
H2768 C2761 0.961 . S
H2769 C2761 0.960 . S
H2770 C2762 0.930 . S
H2771 C2763 0.929 . S
H2772 C2780 0.929 . S
H2773 C2782 0.930 . S
H2774 C2784 0.930 . S
H2775 C2787 0.929 . S
H2776 C2790 0.930 . S
H2777 C2792 0.960 . S
H2778 C2792 0.960 . S
H2779 C2792 0.960 . S
C2780 H2772 0.929 . S
C2780 C2781 1.377 . S
C2780 C2782 1.384 . S
C2781 C2780 1.377 . S
C2781 C2787 1.390 . S
C2782 H2773 0.930 . S
C2782 C2780 1.384 . S
C2782 C2783 1.372 . S
C2783 C2782 1.372 . S
C2783 C2784 1.400 . S
C2783 C2788 1.490 . S
C2784 H2774 0.930 . S
C2784 C2783 1.400 . S
C2784 C2787 1.386 . S
H2785 C2801 0.930 . S
H2786 C2802 0.931 . S
C2787 H2775 0.929 . S
C2787 C2781 1.390 . S
C2787 C2784 1.386 . S
C2788 C2783 1.490 . S
C2788 C2790 1.395 . S
C2788 C2791 1.403 . S
H2789 C2795 0.930 . S
C2790 H2776 0.930 . S
C2790 C2788 1.395 . S
C2790 C2793 1.403 . S
C2791 C2788 1.403 . S
C2791 C2792 1.524 . S
C2791 C2795 1.400 . S
C2792 H2777 0.960 . S
C2792 H2778 0.960 . S
C2792 H2779 0.960 . S
C2792 C2791 1.524 . S
C2793 C2790 1.403 . S
C2793 C2794 1.392 . S
C2793 C2797 1.495 . S
C2794 C2793 1.392 . S
C2794 C2795 1.385 . S
C2794 C2796 1.478 . S
C2795 H2789 0.930 . S
C2795 C2791 1.400 . S
C2795 C2794 1.385 . S
C2796 C2794 1.478 . S
C2796 C2798 1.381 . S
C2796 C2802 1.383 . S
C2797 C2793 1.495 . S
C2797 H2803 0.959 . S
C2797 H2804 0.961 . S
C2797 H2805 0.960 . S
C2798 C2796 1.381 . S
C2798 C2799 1.394 . S
C2798 H2806 0.930 . S
C2799 C2798 1.394 . S
C2799 C2800 1.383 . S
C2799 H2807 0.929 . S
C2800 C2799 1.383 . S
C2800 C2801 1.377 . S
C2801 H2785 0.930 . S
C2801 C2800 1.377 . S
C2801 C2802 1.379 . S
C2802 H2786 0.931 . S
C2802 C2796 1.383 . S
C2802 C2801 1.379 . S
H2803 C2797 0.959 . S
H2804 C2797 0.961 . S
H2805 C2797 0.960 . S
H2806 C2798 0.930 . S
H2807 C2799 0.929 . S
H2808 C2816 0.929 . S
H2809 C2818 0.930 . S
H2810 C2820 0.930 . S
H2811 C2823 0.929 . S
H2812 C2826 0.930 . S
H2813 C2828 0.960 . S
H2814 C2828 0.960 . S
H2815 C2828 0.960 . S
C2816 H2808 0.929 . S
C2816 C2817 1.377 . S
C2816 C2818 1.384 . S
C2817 C2816 1.377 . S
C2817 C2823 1.390 . S
C2818 H2809 0.930 . S
C2818 C2816 1.384 . S
C2818 C2819 1.372 . S
C2819 C2818 1.372 . S
C2819 C2820 1.400 . S
C2819 C2824 1.490 . S
C2820 H2810 0.930 . S
C2820 C2819 1.400 . S
C2820 C2823 1.386 . S
H2821 C2837 0.930 . S
H2822 C2838 0.931 . S
C2823 H2811 0.929 . S
C2823 C2817 1.390 . S
C2823 C2820 1.386 . S
C2824 C2819 1.490 . S
C2824 C2826 1.395 . S
C2824 C2827 1.403 . S
H2825 C2831 0.930 . S
C2826 H2812 0.930 . S
C2826 C2824 1.395 . S
C2826 C2829 1.403 . S
C2827 C2824 1.403 . S
C2827 C2828 1.524 . S
C2827 C2831 1.400 . S
C2828 H2813 0.960 . S
C2828 H2814 0.960 . S
C2828 H2815 0.960 . S
C2828 C2827 1.524 . S
C2829 C2826 1.403 . S
C2829 C2830 1.392 . S
C2829 C2833 1.495 . S
C2830 C2829 1.392 . S
C2830 C2831 1.385 . S
C2830 C2832 1.478 . S
C2831 H2825 0.930 . S
C2831 C2827 1.400 . S
C2831 C2830 1.385 . S
C2832 C2830 1.478 . S
C2832 C2834 1.381 . S
C2832 C2838 1.383 . S
C2833 C2829 1.495 . S
C2833 H2839 0.959 . S
C2833 H2840 0.961 . S
C2833 H2841 0.960 . S
C2834 C2832 1.381 . S
C2834 C2835 1.394 . S
C2834 H2842 0.930 . S
C2835 C2834 1.394 . S
C2835 C2836 1.383 . S
C2835 H2843 0.929 . S
C2836 C2835 1.383 . S
C2836 C2837 1.377 . S
C2837 H2821 0.930 . S
C2837 C2836 1.377 . S
C2837 C2838 1.379 . S
C2838 H2822 0.931 . S
C2838 C2832 1.383 . S
C2838 C2837 1.379 . S
H2839 C2833 0.959 . S
H2840 C2833 0.961 . S
H2841 C2833 0.960 . S
H2842 C2834 0.930 . S
H2843 C2835 0.929 . S
H2844 C2852 0.929 . S
H2845 C2854 0.930 . S
H2846 C2856 0.930 . S
H2847 C2859 0.929 . S
H2848 C2862 0.930 . S
H2849 C2864 0.960 . S
H2850 C2864 0.960 . S
H2851 C2864 0.960 . S
C2852 H2844 0.929 . S
C2852 C2853 1.377 . S
C2852 C2854 1.384 . S
C2853 C2852 1.377 . S
C2853 C2859 1.390 . S
C2854 H2845 0.930 . S
C2854 C2852 1.384 . S
C2854 C2855 1.372 . S
C2855 C2854 1.372 . S
C2855 C2856 1.400 . S
C2855 C2860 1.490 . S
C2856 H2846 0.930 . S
C2856 C2855 1.400 . S
C2856 C2859 1.386 . S
H2857 C2873 0.930 . S
H2858 C2874 0.931 . S
C2859 H2847 0.929 . S
C2859 C2853 1.390 . S
C2859 C2856 1.386 . S
C2860 C2855 1.490 . S
C2860 C2862 1.395 . S
C2860 C2863 1.403 . S
H2861 C2867 0.930 . S
C2862 H2848 0.930 . S
C2862 C2860 1.395 . S
C2862 C2865 1.403 . S
C2863 C2860 1.403 . S
C2863 C2864 1.524 . S
C2863 C2867 1.400 . S
C2864 H2849 0.960 . S
C2864 H2850 0.960 . S
C2864 H2851 0.960 . S
C2864 C2863 1.524 . S
C2865 C2862 1.403 . S
C2865 C2866 1.392 . S
C2865 C2869 1.495 . S
C2866 C2865 1.392 . S
C2866 C2867 1.385 . S
C2866 C2868 1.478 . S
C2867 H2861 0.930 . S
C2867 C2863 1.400 . S
C2867 C2866 1.385 . S
C2868 C2866 1.478 . S
C2868 C2870 1.381 . S
C2868 C2874 1.383 . S
C2869 C2865 1.495 . S
C2869 H2875 0.959 . S
C2869 H2876 0.961 . S
C2869 H2877 0.960 . S
C2870 C2868 1.381 . S
C2870 C2871 1.394 . S
C2870 H2878 0.930 . S
C2871 C2870 1.394 . S
C2871 C2872 1.383 . S
C2871 H2879 0.929 . S
C2872 C2871 1.383 . S
C2872 C2873 1.377 . S
C2873 H2857 0.930 . S
C2873 C2872 1.377 . S
C2873 C2874 1.379 . S
C2874 H2858 0.931 . S
C2874 C2868 1.383 . S
C2874 C2873 1.379 . S
H2875 C2869 0.959 . S
H2876 C2869 0.961 . S
H2877 C2869 0.960 . S
H2878 C2870 0.930 . S
H2879 C2871 0.929 . S
H2880 C2888 0.929 . S
H2881 C2890 0.930 . S
H2882 C2892 0.930 . S
H2883 C2895 0.929 . S
H2884 C2898 0.930 . S
H2885 C2900 0.960 . S
H2886 C2900 0.960 . S
H2887 C2900 0.960 . S
C2888 H2880 0.929 . S
C2888 C2889 1.377 . S
C2888 C2890 1.384 . S
C2889 C2888 1.377 . S
C2889 C2895 1.390 . S
C2890 H2881 0.930 . S
C2890 C2888 1.384 . S
C2890 C2891 1.372 . S
C2891 C2890 1.372 . S
C2891 C2892 1.400 . S
C2891 C2896 1.490 . S
C2892 H2882 0.930 . S
C2892 C2891 1.400 . S
C2892 C2895 1.386 . S
H2893 C2909 0.930 . S
H2894 C2910 0.931 . S
C2895 H2883 0.929 . S
C2895 C2889 1.390 . S
C2895 C2892 1.386 . S
C2896 C2891 1.490 . S
C2896 C2898 1.395 . S
C2896 C2899 1.403 . S
H2897 C2903 0.930 . S
C2898 H2884 0.930 . S
C2898 C2896 1.395 . S
C2898 C2901 1.403 . S
C2899 C2896 1.403 . S
C2899 C2900 1.524 . S
C2899 C2903 1.400 . S
C2900 H2885 0.960 . S
C2900 H2886 0.960 . S
C2900 H2887 0.960 . S
C2900 C2899 1.524 . S
C2901 C2898 1.403 . S
C2901 C2902 1.392 . S
C2901 C2905 1.495 . S
C2902 C2901 1.392 . S
C2902 C2903 1.385 . S
C2902 C2904 1.478 . S
C2903 H2897 0.930 . S
C2903 C2899 1.400 . S
C2903 C2902 1.385 . S
C2904 C2902 1.478 . S
C2904 C2906 1.381 . S
C2904 C2910 1.383 . S
C2905 C2901 1.495 . S
C2905 H2911 0.959 . S
C2905 H2912 0.961 . S
C2905 H2913 0.960 . S
C2906 C2904 1.381 . S
C2906 C2907 1.394 . S
C2906 H2914 0.930 . S
C2907 C2906 1.394 . S
C2907 C2908 1.383 . S
C2907 H2915 0.929 . S
C2908 C2907 1.383 . S
C2908 C2909 1.377 . S
C2909 H2893 0.930 . S
C2909 C2908 1.377 . S
C2909 C2910 1.379 . S
C2910 H2894 0.931 . S
C2910 C2904 1.383 . S
C2910 C2909 1.379 . S
H2911 C2905 0.959 . S
H2912 C2905 0.961 . S
H2913 C2905 0.960 . S
H2914 C2906 0.930 . S
H2915 C2907 0.929 . S
H2916 C2924 0.929 . S
H2917 C2926 0.930 . S
H2918 C2928 0.930 . S
H2919 C2931 0.929 . S
H2920 C2934 0.930 1_655 S
H2921 C2936 0.960 . S
H2922 C2936 0.960 . S
H2923 C2936 0.960 . S
C2924 H2916 0.929 . S
C2924 C2925 1.377 . S
C2924 C2926 1.384 . S
C2925 C2924 1.377 . S
C2925 C2931 1.390 . S
C2926 H2917 0.930 . S
C2926 C2924 1.384 . S
C2926 C2927 1.372 . S
C2927 C2926 1.372 . S
C2927 C2928 1.400 . S
C2927 C2932 1.490 . S
C2928 H2918 0.930 . S
C2928 C2927 1.400 . S
C2928 C2931 1.386 . S
H2929 C2945 0.968 . S
H2930 C2946 0.928 1_655 S
C2931 H2919 0.929 . S
C2931 C2925 1.390 . S
C2931 C2928 1.386 . S
C2932 C2927 1.490 . S
C2932 C2934 1.448 . S
C2932 C2935 1.403 . S
H2933 C2939 0.930 . S
C2934 H2920 0.930 1_455 S
C2934 C2932 1.448 . S
C2934 C2937 1.356 1_455 S
C2935 C2932 1.403 . S
C2935 C2936 1.524 . S
C2935 C2939 1.400 . S
C2936 H2921 0.960 . S
C2936 H2922 0.960 . S
C2936 H2923 0.960 . S
C2936 C2935 1.524 . S
C2937 C2934 1.356 1_655 S
C2937 C2938 1.392 1_655 S
C2937 C2941 1.495 . S
C2938 C2937 1.392 1_455 S
C2938 C2939 1.385 . S
C2938 C2940 1.478 . S
C2939 H2933 0.930 . S
C2939 C2935 1.400 . S
C2939 C2938 1.385 . S
C2940 C2938 1.478 . S
C2940 C2942 1.381 . S
C2940 C2946 1.395 . S
C2941 C2937 1.495 . S
C2941 H2947 0.959 . S
C2941 H2948 0.961 . S
C2941 H2949 0.960 . S
C2942 C2940 1.381 . S
C2942 C2943 1.394 . S
C2942 H2950 0.930 . S
C2943 C2942 1.394 . S
C2943 C2944 1.383 . S
C2943 H2951 0.929 . S
C2944 C2943 1.383 . S
C2944 C2945 1.370 1_455 S
C2945 H2929 0.968 . S
C2945 C2944 1.370 1_655 S
C2945 C2946 1.343 1_655 S
C2946 H2930 0.928 1_455 S
C2946 C2940 1.395 . S
C2946 C2945 1.343 1_455 S
H2947 C2941 0.959 . S
H2948 C2941 0.961 . S
H2949 C2941 0.960 . S
H2950 C2942 0.930 . S
H2951 C2943 0.929 . S
H2952 C2960 0.929 . S
H2953 C2962 0.930 . S
H2954 C2964 0.930 . S
H2955 C2967 0.929 . S
H2956 C2970 0.930 . S
H2957 C2972 0.960 . S
H2958 C2972 0.960 . S
H2959 C2972 0.960 . S
C2960 H2952 0.929 . S
C2960 C2961 1.377 . S
C2960 C2962 1.384 . S
C2961 C2960 1.377 . S
C2961 C2967 1.390 . S
C2962 H2953 0.930 . S
C2962 C2960 1.384 . S
C2962 C2963 1.372 . S
C2963 C2962 1.372 . S
C2963 C2964 1.400 . S
C2963 C2968 1.490 . S
C2964 H2954 0.930 . S
C2964 C2963 1.400 . S
C2964 C2967 1.386 . S
H2965 C2981 0.930 . S
H2966 C2982 0.931 . S
C2967 H2955 0.929 . S
C2967 C2961 1.390 . S
C2967 C2964 1.386 . S
C2968 C2963 1.490 . S
C2968 C2970 1.395 . S
C2968 C2971 1.403 . S
H2969 C2975 0.930 . S
C2970 H2956 0.930 . S
C2970 C2968 1.395 . S
C2970 C2973 1.403 . S
C2971 C2968 1.403 . S
C2971 C2972 1.524 . S
C2971 C2975 1.400 . S
C2972 H2957 0.960 . S
C2972 H2958 0.960 . S
C2972 H2959 0.960 . S
C2972 C2971 1.524 . S
C2973 C2970 1.403 . S
C2973 C2974 1.392 . S
C2973 C2977 1.495 . S
C2974 C2973 1.392 . S
C2974 C2975 1.385 . S
C2974 C2976 1.478 . S
C2975 H2969 0.930 . S
C2975 C2971 1.400 . S
C2975 C2974 1.385 . S
C2976 C2974 1.478 . S
C2976 C2978 1.381 . S
C2976 C2982 1.383 . S
C2977 C2973 1.495 . S
C2977 H2983 0.959 . S
C2977 H2984 0.961 . S
C2977 H2985 0.960 . S
C2978 C2976 1.381 . S
C2978 C2979 1.394 . S
C2978 H2986 0.930 . S
C2979 C2978 1.394 . S
C2979 C2980 1.383 . S
C2979 H2987 0.929 . S
C2980 C2979 1.383 . S
C2980 C2981 1.377 . S
C2981 H2965 0.930 . S
C2981 C2980 1.377 . S
C2981 C2982 1.379 . S
C2982 H2966 0.931 . S
C2982 C2976 1.383 . S
C2982 C2981 1.379 . S
H2983 C2977 0.959 . S
H2984 C2977 0.961 . S
H2985 C2977 0.960 . S
H2986 C2978 0.930 . S
H2987 C2979 0.929 . S
H2988 C2996 0.929 . S
H2989 C2998 0.930 . S
H2990 C3000 0.952 . S
H2991 C3003 0.904 1_545 S
H2992 C3006 0.930 . S
H2993 C3008 0.960 . S
H2994 C3008 0.960 . S
H2995 C3008 0.960 . S
C2996 H2988 0.929 . S
C2996 C2997 1.377 . S
C2996 C2998 1.384 . S
C2997 C2996 1.377 . S
C2997 C3003 1.404 . S
C2998 H2989 0.930 . S
C2998 C2996 1.384 . S
C2998 C2999 1.372 . S
C2999 C2998 1.372 . S
C2999 C3000 1.362 1_565 S
C2999 C3004 1.490 . S
C3000 H2990 0.952 . S
C3000 C2999 1.362 1_545 S
C3000 C3003 1.414 1_545 S
H3001 C3017 0.930 . S
H3002 C3018 0.931 . S
C3003 H2991 0.904 1_565 S
C3003 C2997 1.404 . S
C3003 C3000 1.414 1_565 S
C3004 C2999 1.490 . S
C3004 C3006 1.395 . S
C3004 C3007 1.403 1_565 S
H3005 C3011 0.930 . S
C3006 H2992 0.930 . S
C3006 C3004 1.395 . S
C3006 C3009 1.403 . S
C3007 C3004 1.403 1_545 S
C3007 C3008 1.524 . S
C3007 C3011 1.400 . S
C3008 H2993 0.960 . S
C3008 H2994 0.960 . S
C3008 H2995 0.960 . S
C3008 C3007 1.524 . S
C3009 C3006 1.403 . S
C3009 C3010 1.392 . S
C3009 C3013 1.495 . S
C3010 C3009 1.392 . S
C3010 C3011 1.385 1_565 S
C3010 C3012 1.478 . S
C3011 H3005 0.930 . S
C3011 C3007 1.400 . S
C3011 C3010 1.385 1_545 S
C3012 C3010 1.478 . S
C3012 C3014 1.381 . S
C3012 C3018 1.383 1_565 S
C3013 C3009 1.495 . S
C3013 H3019 0.959 . S
C3013 H3020 0.961 . S
C3013 H3021 0.960 . S
C3014 C3012 1.381 . S
C3014 C3015 1.394 . S
C3014 H3022 0.930 . S
C3015 C3014 1.394 . S
C3015 C3016 1.383 . S
C3015 H3023 0.929 . S
C3016 C3015 1.383 . S
C3016 C3017 1.377 1_565 S
C3017 H3001 0.930 . S
C3017 C3016 1.377 1_545 S
C3017 C3018 1.379 . S
C3018 H3002 0.931 . S
C3018 C3012 1.383 1_545 S
C3018 C3017 1.379 . S
H3019 C3013 0.959 . S
H3020 C3013 0.961 . S
H3021 C3013 0.960 . S
H3022 C3014 0.930 . S
H3023 C3015 0.929 . S
H3024 C3032 0.929 . S
H3025 C3034 0.930 . S
H3026 C3036 0.896 1_545 S
H3027 C3039 0.933 . S
H3028 C3042 0.930 . S
H3029 C3044 0.960 . S
H3030 C3044 0.960 . S
H3031 C3044 0.960 . S
C3032 H3024 0.929 . S
C3032 C3033 1.377 . S
C3032 C3034 1.384 . S
C3033 C3032 1.377 . S
C3033 C3039 1.390 . S
C3034 H3025 0.930 . S
C3034 C3032 1.384 . S
C3034 C3035 1.372 . S
C3035 C3034 1.372 . S
C3035 C3036 1.400 . S
C3035 C3040 1.490 . S
C3036 H3026 0.896 1_565 S
C3036 C3035 1.400 . S
C3036 C3039 1.386 . S
H3037 C3053 0.930 . S
H3038 C3054 0.931 . S
C3039 H3027 0.933 . S
C3039 C3033 1.390 . S
C3039 C3036 1.386 . S
C3040 C3035 1.490 . S
C3040 C3042 1.395 . S
C3040 C3043 1.403 . S
H3041 C3047 0.930 . S
C3042 H3028 0.930 . S
C3042 C3040 1.395 . S
C3042 C3045 1.403 . S
C3043 C3040 1.403 . S
C3043 C3044 1.524 . S
C3043 C3047 1.400 . S
C3044 H3029 0.960 . S
C3044 H3030 0.960 . S
C3044 H3031 0.960 . S
C3044 C3043 1.524 . S
C3045 C3042 1.403 . S
C3045 C3046 1.392 . S
C3045 C3049 1.495 1_565 S
C3046 C3045 1.392 . S
C3046 C3047 1.385 . S
C3046 C3048 1.478 . S
C3047 H3041 0.930 . S
C3047 C3043 1.400 . S
C3047 C3046 1.385 . S
C3048 C3046 1.478 . S
C3048 C3050 1.381 . S
C3048 C3054 1.383 1_565 S
C3049 C3045 1.495 1_545 S
C3049 H3055 0.959 . S
C3049 H3056 0.961 . S
C3049 H3057 0.960 1_545 S
C3050 C3048 1.381 . S
C3050 C3051 1.394 . S
C3050 H3058 0.930 . S
C3051 C3050 1.394 . S
C3051 C3052 1.383 . S
C3051 H3059 0.929 . S
C3052 C3051 1.383 . S
C3052 C3053 1.377 1_565 S
C3053 H3037 0.930 . S
C3053 C3052 1.377 1_545 S
C3053 C3054 1.379 . S
C3054 H3038 0.931 . S
C3054 C3048 1.383 1_545 S
C3054 C3053 1.379 . S
H3055 C3049 0.959 . S
H3056 C3049 0.961 . S
H3057 C3049 0.960 1_565 S
H3058 C3050 0.930 . S
H3059 C3051 0.929 . S
H3060 C3068 0.929 1_655 S
H3061 C3070 0.908 1_655 S
H3062 C3072 0.930 . S
H3063 C3075 0.929 . S
H3064 C3078 0.930 . S
H3065 C3080 0.960 . S
H3066 C3080 0.960 . S
H3067 C3080 0.960 . S
C3068 H3060 0.929 1_455 S
C3068 C3069 1.377 . S
C3068 C3070 1.356 . S
C3069 C3068 1.377 . S
C3069 C3075 1.390 . S
C3070 H3061 0.908 1_455 S
C3070 C3068 1.356 . S
C3070 C3071 1.430 . S
C3071 C3070 1.430 . S
C3071 C3072 1.400 . S
C3071 C3076 1.490 . S
C3072 H3062 0.930 . S
C3072 C3071 1.400 . S
C3072 C3075 1.386 . S
H3073 C3089 0.930 . S
H3074 C3090 0.931 . S
C3075 H3063 0.929 . S
C3075 C3069 1.390 . S
C3075 C3072 1.386 . S
C3076 C3071 1.490 . S
C3076 C3078 1.395 1_455 S
C3076 C3079 1.403 . S
H3077 C3083 0.930 . S
C3078 H3064 0.930 . S
C3078 C3076 1.395 1_655 S
C3078 C3081 1.403 . S
C3079 C3076 1.403 . S
C3079 C3080 1.524 . S
C3079 C3083 1.400 . S
C3080 H3065 0.960 . S
C3080 H3066 0.960 . S
C3080 H3067 0.960 . S
C3080 C3079 1.524 . S
C3081 C3078 1.403 . S
C3081 C3082 1.392 1_655 S
C3081 C3085 1.495 . S
C3082 C3081 1.392 1_455 S
C3082 C3083 1.385 . S
C3082 C3084 1.478 . S
C3083 H3077 0.930 . S
C3083 C3079 1.400 . S
C3083 C3082 1.385 . S
C3084 C3082 1.478 . S
C3084 C3086 1.381 1_455 S
C3084 C3090 1.383 . S
C3085 C3081 1.495 . S
C3085 H3091 0.959 . S
C3085 H3092 0.961 . S
C3085 H3093 0.960 . S
C3086 C3084 1.381 1_655 S
C3086 C3087 1.394 . S
C3086 H3094 0.930 . S
C3087 C3086 1.394 . S
C3087 C3088 1.383 1_655 S
C3087 H3095 0.929 . S
C3088 C3087 1.383 1_455 S
C3088 C3089 1.377 . S
C3089 H3073 0.930 . S
C3089 C3088 1.377 . S
C3089 C3090 1.379 . S
C3090 H3074 0.931 . S
C3090 C3084 1.383 . S
C3090 C3089 1.379 . S
H3091 C3085 0.959 . S
H3092 C3085 0.961 . S
H3093 C3085 0.960 . S
H3094 C3086 0.930 . S
H3095 C3087 0.929 . S
H3096 C3104 0.929 . S
H3097 C3106 0.930 . S
H3098 C3108 0.930 . S
H3099 C3111 0.929 . S
H3100 C3114 0.930 . S
H3101 C3116 0.960 . S
H3102 C3116 0.960 . S
H3103 C3116 0.960 . S
C3104 H3096 0.929 . S
C3104 C3105 1.377 . S
C3104 C3106 1.384 . S
C3105 C3104 1.377 . S
C3105 C3111 1.390 . S
C3106 H3097 0.930 . S
C3106 C3104 1.384 . S
C3106 C3107 1.372 . S
C3107 C3106 1.372 . S
C3107 C3108 1.400 . S
C3107 C3112 1.490 . S
C3108 H3098 0.930 . S
C3108 C3107 1.400 . S
C3108 C3111 1.386 . S
H3109 C3125 0.930 . S
H3110 C3126 0.931 . S
C3111 H3099 0.929 . S
C3111 C3105 1.390 . S
C3111 C3108 1.386 . S
C3112 C3107 1.490 . S
C3112 C3114 1.395 . S
C3112 C3115 1.403 . S
H3113 C3119 0.930 . S
C3114 H3100 0.930 . S
C3114 C3112 1.395 . S
C3114 C3117 1.403 . S
C3115 C3112 1.403 . S
C3115 C3116 1.524 . S
C3115 C3119 1.400 . S
C3116 H3101 0.960 . S
C3116 H3102 0.960 . S
C3116 H3103 0.960 . S
C3116 C3115 1.524 . S
C3117 C3114 1.403 . S
C3117 C3118 1.392 . S
C3117 C3121 1.495 . S
C3118 C3117 1.392 . S
C3118 C3119 1.385 . S
C3118 C3120 1.478 . S
C3119 H3113 0.930 . S
C3119 C3115 1.400 . S
C3119 C3118 1.385 . S
C3120 C3118 1.478 . S
C3120 C3122 1.381 . S
C3120 C3126 1.383 . S
C3121 C3117 1.495 . S
C3121 H3127 0.959 . S
C3121 H3128 0.961 . S
C3121 H3129 0.960 . S
C3122 C3120 1.381 . S
C3122 C3123 1.394 . S
C3122 H3130 0.930 . S
C3123 C3122 1.394 . S
C3123 C3124 1.383 . S
C3123 H3131 0.929 . S
C3124 C3123 1.383 . S
C3124 C3125 1.377 . S
C3125 H3109 0.930 . S
C3125 C3124 1.377 . S
C3125 C3126 1.379 . S
C3126 H3110 0.931 . S
C3126 C3120 1.383 . S
C3126 C3125 1.379 . S
H3127 C3121 0.959 . S
H3128 C3121 0.961 . S
H3129 C3121 0.960 . S
H3130 C3122 0.930 . S
H3131 C3123 0.929 . S
H3132 C3140 0.929 . S
H3133 C3142 0.930 . S
H3134 C3144 0.930 . S
H3135 C3147 0.929 . S
H3136 C3150 0.930 . S
H3137 C3152 0.960 . S
H3138 C3152 0.960 . S
H3139 C3152 0.960 . S
C3140 H3132 0.929 . S
C3140 C3141 1.377 . S
C3140 C3142 1.384 . S
C3141 C3140 1.377 . S
C3141 C3147 1.390 . S
C3142 H3133 0.930 . S
C3142 C3140 1.384 . S
C3142 C3143 1.372 . S
C3143 C3142 1.372 . S
C3143 C3144 1.400 . S
C3143 C3148 1.490 . S
C3144 H3134 0.930 . S
C3144 C3143 1.400 . S
C3144 C3147 1.386 . S
H3145 C3161 0.930 . S
H3146 C3162 0.931 . S
C3147 H3135 0.929 . S
C3147 C3141 1.390 . S
C3147 C3144 1.386 . S
C3148 C3143 1.490 . S
C3148 C3150 1.395 . S
C3148 C3151 1.403 . S
H3149 C3155 0.930 . S
C3150 H3136 0.930 . S
C3150 C3148 1.395 . S
C3150 C3153 1.403 . S
C3151 C3148 1.403 . S
C3151 C3152 1.524 . S
C3151 C3155 1.400 . S
C3152 H3137 0.960 . S
C3152 H3138 0.960 . S
C3152 H3139 0.960 . S
C3152 C3151 1.524 . S
C3153 C3150 1.403 . S
C3153 C3154 1.392 . S
C3153 C3157 1.495 . S
C3154 C3153 1.392 . S
C3154 C3155 1.385 . S
C3154 C3156 1.478 . S
C3155 H3149 0.930 . S
C3155 C3151 1.400 . S
C3155 C3154 1.385 . S
C3156 C3154 1.478 . S
C3156 C3158 1.381 . S
C3156 C3162 1.383 . S
C3157 C3153 1.495 . S
C3157 H3163 0.959 . S
C3157 H3164 0.961 . S
C3157 H3165 0.960 . S
C3158 C3156 1.381 . S
C3158 C3159 1.394 . S
C3158 H3166 0.930 . S
C3159 C3158 1.394 . S
C3159 C3160 1.383 . S
C3159 H3167 0.929 . S
C3160 C3159 1.383 . S
C3160 C3161 1.377 . S
C3161 H3145 0.930 . S
C3161 C3160 1.377 . S
C3161 C3162 1.379 . S
C3162 H3146 0.931 . S
C3162 C3156 1.383 . S
C3162 C3161 1.379 . S
H3163 C3157 0.959 . S
H3164 C3157 0.961 . S
H3165 C3157 0.960 . S
H3166 C3158 0.930 . S
H3167 C3159 0.929 . S
H3168 C3176 0.929 . S
H3169 C3178 0.930 . S
H3170 C3180 0.930 . S
H3171 C3183 0.929 . S
H3172 C3186 0.930 . S
H3173 C3188 0.960 . S
H3174 C3188 0.960 . S
H3175 C3188 0.960 . S
C3176 H3168 0.929 . S
C3176 C3177 1.377 . S
C3176 C3178 1.384 . S
C3177 C3176 1.377 . S
C3177 C3183 1.390 . S
C3178 H3169 0.930 . S
C3178 C3176 1.384 . S
C3178 C3179 1.372 . S
C3179 C3178 1.372 . S
C3179 C3180 1.400 . S
C3179 C3184 1.490 . S
C3180 H3170 0.930 . S
C3180 C3179 1.400 . S
C3180 C3183 1.386 . S
H3181 C3197 0.930 . S
H3182 C3198 0.931 . S
C3183 H3171 0.929 . S
C3183 C3177 1.390 . S
C3183 C3180 1.386 . S
C3184 C3179 1.490 . S
C3184 C3186 1.395 . S
C3184 C3187 1.403 . S
H3185 C3191 0.930 . S
C3186 H3172 0.930 . S
C3186 C3184 1.395 . S
C3186 C3189 1.403 . S
C3187 C3184 1.403 . S
C3187 C3188 1.524 . S
C3187 C3191 1.400 . S
C3188 H3173 0.960 . S
C3188 H3174 0.960 . S
C3188 H3175 0.960 . S
C3188 C3187 1.524 . S
C3189 C3186 1.403 . S
C3189 C3190 1.392 . S
C3189 C3193 1.495 . S
C3190 C3189 1.392 . S
C3190 C3191 1.385 . S
C3190 C3192 1.478 . S
C3191 H3185 0.930 . S
C3191 C3187 1.400 . S
C3191 C3190 1.385 . S
C3192 C3190 1.478 . S
C3192 C3194 1.381 . S
C3192 C3198 1.383 . S
C3193 C3189 1.495 . S
C3193 H3199 0.959 . S
C3193 H3200 0.961 . S
C3193 H3201 0.960 . S
C3194 C3192 1.381 . S
C3194 C3195 1.394 . S
C3194 H3202 0.930 . S
C3195 C3194 1.394 . S
C3195 C3196 1.383 . S
C3195 H3203 0.929 . S
C3196 C3195 1.383 . S
C3196 C3197 1.377 . S
C3197 H3181 0.930 . S
C3197 C3196 1.377 . S
C3197 C3198 1.379 . S
C3198 H3182 0.931 . S
C3198 C3192 1.383 . S
C3198 C3197 1.379 . S
H3199 C3193 0.959 . S
H3200 C3193 0.961 . S
H3201 C3193 0.960 . S
H3202 C3194 0.930 . S
H3203 C3195 0.929 . S
H3204 C3212 0.929 . S
H3205 C3214 0.930 . S
H3206 C3216 0.930 . S
H3207 C3219 0.929 . S
H3208 C3222 0.930 . S
H3209 C3224 0.960 . S
H3210 C3224 0.960 . S
H3211 C3224 0.960 . S
C3212 H3204 0.929 . S
C3212 C3213 1.377 . S
C3212 C3214 1.384 . S
C3213 C3212 1.377 . S
C3213 C3219 1.390 . S
C3214 H3205 0.930 . S
C3214 C3212 1.384 . S
C3214 C3215 1.372 . S
C3215 C3214 1.372 . S
C3215 C3216 1.400 . S
C3215 C3220 1.490 . S
C3216 H3206 0.930 . S
C3216 C3215 1.400 . S
C3216 C3219 1.386 . S
H3217 C3233 0.930 . S
H3218 C3234 0.931 . S
C3219 H3207 0.929 . S
C3219 C3213 1.390 . S
C3219 C3216 1.386 . S
C3220 C3215 1.490 . S
C3220 C3222 1.395 . S
C3220 C3223 1.403 . S
H3221 C3227 0.930 . S
C3222 H3208 0.930 . S
C3222 C3220 1.395 . S
C3222 C3225 1.403 . S
C3223 C3220 1.403 . S
C3223 C3224 1.524 . S
C3223 C3227 1.400 . S
C3224 H3209 0.960 . S
C3224 H3210 0.960 . S
C3224 H3211 0.960 . S
C3224 C3223 1.524 . S
C3225 C3222 1.403 . S
C3225 C3226 1.392 . S
C3225 C3229 1.495 . S
C3226 C3225 1.392 . S
C3226 C3227 1.385 . S
C3226 C3228 1.478 . S
C3227 H3221 0.930 . S
C3227 C3223 1.400 . S
C3227 C3226 1.385 . S
C3228 C3226 1.478 . S
C3228 C3230 1.381 . S
C3228 C3234 1.383 . S
C3229 C3225 1.495 . S
C3229 H3235 0.959 . S
C3229 H3236 0.961 . S
C3229 H3237 0.960 . S
C3230 C3228 1.381 . S
C3230 C3231 1.394 . S
C3230 H3238 0.930 . S
C3231 C3230 1.394 . S
C3231 C3232 1.383 . S
C3231 H3239 0.929 . S
C3232 C3231 1.383 . S
C3232 C3233 1.377 . S
C3233 H3217 0.930 . S
C3233 C3232 1.377 . S
C3233 C3234 1.379 . S
C3234 H3218 0.931 . S
C3234 C3228 1.383 . S
C3234 C3233 1.379 . S
H3235 C3229 0.959 . S
H3236 C3229 0.961 . S
H3237 C3229 0.960 . S
H3238 C3230 0.930 . S
H3239 C3231 0.929 . S
H3240 C3248 0.929 . S
H3241 C3250 0.930 . S
H3242 C3252 0.930 . S
H3243 C3255 0.929 . S
H3244 C3258 0.944 . S
H3245 C3260 0.960 . S
H3246 C3260 0.960 . S
H3247 C3260 0.960 . S
C3248 H3240 0.929 . S
C3248 C3249 1.377 . S
C3248 C3250 1.384 . S
C3249 C3248 1.377 . S
C3249 C3255 1.390 . S
C3250 H3241 0.930 . S
C3250 C3248 1.384 . S
C3250 C3251 1.372 . S
C3251 C3250 1.372 . S
C3251 C3252 1.400 . S
C3251 C3256 1.490 . S
C3252 H3242 0.930 . S
C3252 C3251 1.400 . S
C3252 C3255 1.386 . S
H3253 C3269 0.930 . S
H3254 C3270 0.931 . S
C3255 H3243 0.929 . S
C3255 C3249 1.390 . S
C3255 C3252 1.386 . S
C3256 C3251 1.490 . S
C3256 C3258 1.345 1_545 S
C3256 C3259 1.403 . S
H3257 C3263 0.930 . S
C3258 H3244 0.944 . S
C3258 C3256 1.345 1_565 S
C3258 C3261 1.442 . S
C3259 C3256 1.403 . S
C3259 C3260 1.524 . S
C3259 C3263 1.400 . S
C3260 H3245 0.960 . S
C3260 H3246 0.960 . S
C3260 H3247 0.960 . S
C3260 C3259 1.524 . S
C3261 C3258 1.442 . S
C3261 C3262 1.392 1_565 S
C3261 C3265 1.495 . S
C3262 C3261 1.392 1_545 S
C3262 C3263 1.385 . S
C3262 C3264 1.478 . S
C3263 H3257 0.930 . S
C3263 C3259 1.400 . S
C3263 C3262 1.385 . S
C3264 C3262 1.478 . S
C3264 C3266 1.381 . S
C3264 C3270 1.383 . S
C3265 C3261 1.495 . S
C3265 H3271 0.959 . S
C3265 H3272 0.961 . S
C3265 H3273 0.960 . S
C3266 C3264 1.381 . S
C3266 C3267 1.394 . S
C3266 H3274 0.930 . S
C3267 C3266 1.394 . S
C3267 C3268 1.383 . S
C3267 H3275 0.929 . S
C3268 C3267 1.383 . S
C3268 C3269 1.377 . S
C3269 H3253 0.930 . S
C3269 C3268 1.377 . S
C3269 C3270 1.379 . S
C3270 H3254 0.931 . S
C3270 C3264 1.383 . S
C3270 C3269 1.379 . S
H3271 C3265 0.959 . S
H3272 C3265 0.961 . S
H3273 C3265 0.960 . S
H3274 C3266 0.930 . S
H3275 C3267 0.929 . S
H3276 C3284 0.929 . S
H3277 C3286 0.930 . S
H3278 C3288 0.930 . S
H3279 C3291 0.929 . S
H3280 C3294 0.910 1_455 S
H3281 C3296 0.960 . S
H3282 C3296 0.960 . S
H3283 C3296 0.960 . S
C3284 H3276 0.929 . S
C3284 C3285 1.377 1_455 S
C3284 C3286 1.384 . S
C3285 C3284 1.377 1_655 S
C3285 C3291 1.390 . S
C3286 H3277 0.930 . S
C3286 C3284 1.384 . S
C3286 C3287 1.372 1_455 S
C3287 C3286 1.372 1_655 S
C3287 C3288 1.400 . S
C3287 C3292 1.490 . S
C3288 H3278 0.930 . S
C3288 C3287 1.400 . S
C3288 C3291 1.386 . S
H3289 C3305 0.930 . S
H3290 C3306 0.931 . S
C3291 H3279 0.929 . S
C3291 C3285 1.390 . S
C3291 C3288 1.386 . S
C3292 C3287 1.490 . S
C3292 C3294 1.395 . S
C3292 C3295 1.403 . S
H3293 C3299 0.930 . S
C3294 H3280 0.910 1_655 S
C3294 C3292 1.395 . S
C3294 C3297 1.389 . S
C3295 C3292 1.403 . S
C3295 C3296 1.524 . S
C3295 C3299 1.400 . S
C3296 H3281 0.960 . S
C3296 H3282 0.960 . S
C3296 H3283 0.960 . S
C3296 C3295 1.524 . S
C3297 C3294 1.389 . S
C3297 C3298 1.403 . S
C3297 C3301 1.500 1_655 S
C3298 C3297 1.403 . S
C3298 C3299 1.385 . S
C3298 C3300 1.478 . S
C3299 H3293 0.930 . S
C3299 C3295 1.400 . S
C3299 C3298 1.385 . S
C3300 C3298 1.478 . S
C3300 C3302 1.381 1_655 S
C3300 C3306 1.383 . S
C3301 C3297 1.500 1_455 S
C3301 H3307 0.959 . S
C3301 H3308 0.961 1_455 S
C3301 H3309 0.960 . S
C3302 C3300 1.381 1_455 S
C3302 C3303 1.394 . S
C3302 H3310 0.930 . S
C3303 C3302 1.394 . S
C3303 C3304 1.383 1_455 S
C3303 H3311 0.929 . S
C3304 C3303 1.383 1_655 S
C3304 C3305 1.377 . S
C3305 H3289 0.930 . S
C3305 C3304 1.377 . S
C3305 C3306 1.379 . S
C3306 H3290 0.931 . S
C3306 C3300 1.383 . S
C3306 C3305 1.379 . S
H3307 C3301 0.959 . S
H3308 C3301 0.961 1_655 S
H3309 C3301 0.960 . S
H3310 C3302 0.930 . S
H3311 C3303 0.929 . S
H3312 C3320 0.929 . S
H3313 C3322 0.930 . S
H3314 C3324 0.930 . S
H3315 C3327 0.929 . S
H3316 C3330 0.930 . S
H3317 C3332 0.960 . S
H3318 C3332 0.960 . S
H3319 C3332 0.960 . S
C3320 H3312 0.929 . S
C3320 C3321 1.377 . S
C3320 C3322 1.384 . S
C3321 C3320 1.377 . S
C3321 C3327 1.390 . S
C3322 H3313 0.930 . S
C3322 C3320 1.384 . S
C3322 C3323 1.372 . S
C3323 C3322 1.372 . S
C3323 C3324 1.400 . S
C3323 C3328 1.490 . S
C3324 H3314 0.930 . S
C3324 C3323 1.400 . S
C3324 C3327 1.386 . S
H3325 C3341 0.930 . S
H3326 C3342 0.931 . S
C3327 H3315 0.929 . S
C3327 C3321 1.390 . S
C3327 C3324 1.386 . S
C3328 C3323 1.490 . S
C3328 C3330 1.395 . S
C3328 C3331 1.403 . S
H3329 C3335 0.930 . S
C3330 H3316 0.930 . S
C3330 C3328 1.395 . S
C3330 C3333 1.403 . S
C3331 C3328 1.403 . S
C3331 C3332 1.524 . S
C3331 C3335 1.400 . S
C3332 H3317 0.960 . S
C3332 H3318 0.960 . S
C3332 H3319 0.960 . S
C3332 C3331 1.524 . S
C3333 C3330 1.403 . S
C3333 C3334 1.392 . S
C3333 C3337 1.495 . S
C3334 C3333 1.392 . S
C3334 C3335 1.385 . S
C3334 C3336 1.478 . S
C3335 H3329 0.930 . S
C3335 C3331 1.400 . S
C3335 C3334 1.385 . S
C3336 C3334 1.478 . S
C3336 C3338 1.381 . S
C3336 C3342 1.383 . S
C3337 C3333 1.495 . S
C3337 H3343 0.959 . S
C3337 H3344 0.961 . S
C3337 H3345 0.960 . S
C3338 C3336 1.381 . S
C3338 C3339 1.394 . S
C3338 H3346 0.930 . S
C3339 C3338 1.394 . S
C3339 C3340 1.383 . S
C3339 H3347 0.929 . S
C3340 C3339 1.383 . S
C3340 C3341 1.377 . S
C3341 H3325 0.930 . S
C3341 C3340 1.377 . S
C3341 C3342 1.379 . S
C3342 H3326 0.931 . S
C3342 C3336 1.383 . S
C3342 C3341 1.379 . S
H3343 C3337 0.959 . S
H3344 C3337 0.961 . S
H3345 C3337 0.960 . S
H3346 C3338 0.930 . S
H3347 C3339 0.929 . S
H3348 C3356 0.929 . S
H3349 C3358 0.930 . S
H3350 C3360 0.930 . S
H3351 C3363 0.929 . S
H3352 C3366 0.930 . S
H3353 C3368 0.960 . S
H3354 C3368 0.960 . S
H3355 C3368 0.960 . S
C3356 H3348 0.929 . S
C3356 C3357 1.377 . S
C3356 C3358 1.384 . S
C3357 C3356 1.377 . S
C3357 C3363 1.390 . S
C3358 H3349 0.930 . S
C3358 C3356 1.384 . S
C3358 C3359 1.372 . S
C3359 C3358 1.372 . S
C3359 C3360 1.400 . S
C3359 C3364 1.490 . S
C3360 H3350 0.930 . S
C3360 C3359 1.400 . S
C3360 C3363 1.386 . S
H3361 C3377 0.930 . S
H3362 C3378 0.931 . S
C3363 H3351 0.929 . S
C3363 C3357 1.390 . S
C3363 C3360 1.386 . S
C3364 C3359 1.490 . S
C3364 C3366 1.395 . S
C3364 C3367 1.403 . S
H3365 C3371 0.930 . S
C3366 H3352 0.930 . S
C3366 C3364 1.395 . S
C3366 C3369 1.403 . S
C3367 C3364 1.403 . S
C3367 C3368 1.524 . S
C3367 C3371 1.400 . S
C3368 H3353 0.960 . S
C3368 H3354 0.960 . S
C3368 H3355 0.960 . S
C3368 C3367 1.524 . S
C3369 C3366 1.403 . S
C3369 C3370 1.392 . S
C3369 C3373 1.495 . S
C3370 C3369 1.392 . S
C3370 C3371 1.385 . S
C3370 C3372 1.478 . S
C3371 H3365 0.930 . S
C3371 C3367 1.400 . S
C3371 C3370 1.385 . S
C3372 C3370 1.478 . S
C3372 C3374 1.381 . S
C3372 C3378 1.383 . S
C3373 C3369 1.495 . S
C3373 H3379 0.959 . S
C3373 H3380 0.961 . S
C3373 H3381 0.960 . S
C3374 C3372 1.381 . S
C3374 C3375 1.394 . S
C3374 H3382 0.930 . S
C3375 C3374 1.394 . S
C3375 C3376 1.383 . S
C3375 H3383 0.929 . S
C3376 C3375 1.383 . S
C3376 C3377 1.377 . S
C3377 H3361 0.930 . S
C3377 C3376 1.377 . S
C3377 C3378 1.379 . S
C3378 H3362 0.931 . S
C3378 C3372 1.383 . S
C3378 C3377 1.379 . S
H3379 C3373 0.959 . S
H3380 C3373 0.961 . S
H3381 C3373 0.960 . S
H3382 C3374 0.930 . S
H3383 C3375 0.929 . S
H3384 C3392 0.929 . S
H3385 C3394 0.930 . S
H3386 C3396 0.930 . S
H3387 C3399 0.929 . S
H3388 C3402 0.930 . S
H3389 C3404 0.960 . S
H3390 C3404 0.960 . S
H3391 C3404 0.960 . S
C3392 H3384 0.929 . S
C3392 C3393 1.377 . S
C3392 C3394 1.384 . S
C3393 C3392 1.377 . S
C3393 C3399 1.390 . S
C3394 H3385 0.930 . S
C3394 C3392 1.384 . S
C3394 C3395 1.372 . S
C3395 C3394 1.372 . S
C3395 C3396 1.400 . S
C3395 C3400 1.490 . S
C3396 H3386 0.930 . S
C3396 C3395 1.400 . S
C3396 C3399 1.386 . S
H3397 C3413 0.930 . S
H3398 C3414 0.931 . S
C3399 H3387 0.929 . S
C3399 C3393 1.390 . S
C3399 C3396 1.386 . S
C3400 C3395 1.490 . S
C3400 C3402 1.395 . S
C3400 C3403 1.403 . S
H3401 C3407 0.930 . S
C3402 H3388 0.930 . S
C3402 C3400 1.395 . S
C3402 C3405 1.403 . S
C3403 C3400 1.403 . S
C3403 C3404 1.524 . S
C3403 C3407 1.400 . S
C3404 H3389 0.960 . S
C3404 H3390 0.960 . S
C3404 H3391 0.960 . S
C3404 C3403 1.524 . S
C3405 C3402 1.403 . S
C3405 C3406 1.392 . S
C3405 C3409 1.495 . S
C3406 C3405 1.392 . S
C3406 C3407 1.385 . S
C3406 C3408 1.478 . S
C3407 H3401 0.930 . S
C3407 C3403 1.400 . S
C3407 C3406 1.385 . S
C3408 C3406 1.478 . S
C3408 C3410 1.381 . S
C3408 C3414 1.383 . S
C3409 C3405 1.495 . S
C3409 H3415 0.959 . S
C3409 H3416 0.961 . S
C3409 H3417 0.960 . S
C3410 C3408 1.381 . S
C3410 C3411 1.394 . S
C3410 H3418 0.930 . S
C3411 C3410 1.394 . S
C3411 C3412 1.383 . S
C3411 H3419 0.929 . S
C3412 C3411 1.383 . S
C3412 C3413 1.377 . S
C3413 H3397 0.930 . S
C3413 C3412 1.377 . S
C3413 C3414 1.379 . S
C3414 H3398 0.931 . S
C3414 C3408 1.383 . S
C3414 C3413 1.379 . S
H3415 C3409 0.959 . S
H3416 C3409 0.961 . S
H3417 C3409 0.960 . S
H3418 C3410 0.930 . S
H3419 C3411 0.929 . S
H3420 C3428 0.929 . S
H3421 C3430 0.930 . S
H3422 C3432 0.930 . S
H3423 C3435 0.929 . S
H3424 C3438 0.930 . S
H3425 C3440 0.960 . S
H3426 C3440 0.960 . S
H3427 C3440 0.960 . S
C3428 H3420 0.929 . S
C3428 C3429 1.377 . S
C3428 C3430 1.384 . S
C3429 C3428 1.377 . S
C3429 C3435 1.390 . S
C3430 H3421 0.930 . S
C3430 C3428 1.384 . S
C3430 C3431 1.372 . S
C3431 C3430 1.372 . S
C3431 C3432 1.400 . S
C3431 C3436 1.490 . S
C3432 H3422 0.930 . S
C3432 C3431 1.400 . S
C3432 C3435 1.386 . S
H3433 C3449 0.930 . S
H3434 C3450 0.931 . S
C3435 H3423 0.929 . S
C3435 C3429 1.390 . S
C3435 C3432 1.386 . S
C3436 C3431 1.490 . S
C3436 C3438 1.395 . S
C3436 C3439 1.403 . S
H3437 C3443 0.930 . S
C3438 H3424 0.930 . S
C3438 C3436 1.395 . S
C3438 C3441 1.403 . S
C3439 C3436 1.403 . S
C3439 C3440 1.524 . S
C3439 C3443 1.400 . S
C3440 H3425 0.960 . S
C3440 H3426 0.960 . S
C3440 H3427 0.960 . S
C3440 C3439 1.524 . S
C3441 C3438 1.403 . S
C3441 C3442 1.392 . S
C3441 C3445 1.495 . S
C3442 C3441 1.392 . S
C3442 C3443 1.385 . S
C3442 C3444 1.478 . S
C3443 H3437 0.930 . S
C3443 C3439 1.400 . S
C3443 C3442 1.385 . S
C3444 C3442 1.478 . S
C3444 C3446 1.381 . S
C3444 C3450 1.383 . S
C3445 C3441 1.495 . S
C3445 H3451 0.959 . S
C3445 H3452 0.961 . S
C3445 H3453 0.960 . S
C3446 C3444 1.381 . S
C3446 C3447 1.394 . S
C3446 H3454 0.930 . S
C3447 C3446 1.394 . S
C3447 C3448 1.383 . S
C3447 H3455 0.929 . S
C3448 C3447 1.383 . S
C3448 C3449 1.377 . S
C3449 H3433 0.930 . S
C3449 C3448 1.377 . S
C3449 C3450 1.379 . S
C3450 H3434 0.931 . S
C3450 C3444 1.383 . S
C3450 C3449 1.379 . S
H3451 C3445 0.959 . S
H3452 C3445 0.961 . S
H3453 C3445 0.960 . S
H3454 C3446 0.930 . S
H3455 C3447 0.929 . S
H3456 C3464 0.929 . S
H3457 C3466 0.930 . S
H3458 C3468 0.930 . S
H3459 C3471 0.929 . S
H3460 C3474 0.930 . S
H3461 C3476 0.960 . S
H3462 C3476 0.960 . S
H3463 C3476 0.960 . S
C3464 H3456 0.929 . S
C3464 C3465 1.377 . S
C3464 C3466 1.384 . S
C3465 C3464 1.377 . S
C3465 C3471 1.390 . S
C3466 H3457 0.930 . S
C3466 C3464 1.384 . S
C3466 C3467 1.372 . S
C3467 C3466 1.372 . S
C3467 C3468 1.400 . S
C3467 C3472 1.490 . S
C3468 H3458 0.930 . S
C3468 C3467 1.400 . S
C3468 C3471 1.386 . S
H3469 C3485 0.930 . S
H3470 C3486 0.931 . S
C3471 H3459 0.929 . S
C3471 C3465 1.390 . S
C3471 C3468 1.386 . S
C3472 C3467 1.490 . S
C3472 C3474 1.395 . S
C3472 C3475 1.403 . S
H3473 C3479 0.930 . S
C3474 H3460 0.930 . S
C3474 C3472 1.395 . S
C3474 C3477 1.403 . S
C3475 C3472 1.403 . S
C3475 C3476 1.524 . S
C3475 C3479 1.400 . S
C3476 H3461 0.960 . S
C3476 H3462 0.960 . S
C3476 H3463 0.960 . S
C3476 C3475 1.524 . S
C3477 C3474 1.403 . S
C3477 C3478 1.392 . S
C3477 C3481 1.495 . S
C3478 C3477 1.392 . S
C3478 C3479 1.385 . S
C3478 C3480 1.478 . S
C3479 H3473 0.930 . S
C3479 C3475 1.400 . S
C3479 C3478 1.385 . S
C3480 C3478 1.478 . S
C3480 C3482 1.381 . S
C3480 C3486 1.383 . S
C3481 C3477 1.495 . S
C3481 H3487 0.959 . S
C3481 H3488 0.961 . S
C3481 H3489 0.960 . S
C3482 C3480 1.381 . S
C3482 C3483 1.394 . S
C3482 H3490 0.930 . S
C3483 C3482 1.394 . S
C3483 C3484 1.383 . S
C3483 H3491 0.929 . S
C3484 C3483 1.383 . S
C3484 C3485 1.377 . S
C3485 H3469 0.930 . S
C3485 C3484 1.377 . S
C3485 C3486 1.379 . S
C3486 H3470 0.931 . S
C3486 C3480 1.383 . S
C3486 C3485 1.379 . S
H3487 C3481 0.959 . S
H3488 C3481 0.961 . S
H3489 C3481 0.960 . S
H3490 C3482 0.930 . S
H3491 C3483 0.929 . S
H3492 C3500 0.929 . S
H3493 C3502 0.930 . S
H3494 C3504 0.930 . S
H3495 C3507 0.929 . S
H3496 C3510 0.930 . S
H3497 C3512 0.960 . S
H3498 C3512 0.960 . S
H3499 C3512 0.960 . S
C3500 H3492 0.929 . S
C3500 C3501 1.377 . S
C3500 C3502 1.384 . S
C3501 C3500 1.377 . S
C3501 C3507 1.390 . S
C3502 H3493 0.930 . S
C3502 C3500 1.384 . S
C3502 C3503 1.372 . S
C3503 C3502 1.372 . S
C3503 C3504 1.400 . S
C3503 C3508 1.490 . S
C3504 H3494 0.930 . S
C3504 C3503 1.400 . S
C3504 C3507 1.386 . S
H3505 C3521 0.930 . S
H3506 C3522 0.931 . S
C3507 H3495 0.929 . S
C3507 C3501 1.390 . S
C3507 C3504 1.386 . S
C3508 C3503 1.490 . S
C3508 C3510 1.395 . S
C3508 C3511 1.403 . S
H3509 C3515 0.930 . S
C3510 H3496 0.930 . S
C3510 C3508 1.395 . S
C3510 C3513 1.403 . S
C3511 C3508 1.403 . S
C3511 C3512 1.524 . S
C3511 C3515 1.400 . S
C3512 H3497 0.960 . S
C3512 H3498 0.960 . S
C3512 H3499 0.960 . S
C3512 C3511 1.524 . S
C3513 C3510 1.403 . S
C3513 C3514 1.392 . S
C3513 C3517 1.495 . S
C3514 C3513 1.392 . S
C3514 C3515 1.385 . S
C3514 C3516 1.478 . S
C3515 H3509 0.930 . S
C3515 C3511 1.400 . S
C3515 C3514 1.385 . S
C3516 C3514 1.478 . S
C3516 C3518 1.381 . S
C3516 C3522 1.383 . S
C3517 C3513 1.495 . S
C3517 H3523 0.959 . S
C3517 H3524 0.961 . S
C3517 H3525 0.960 . S
C3518 C3516 1.381 . S
C3518 C3519 1.394 . S
C3518 H3526 0.930 . S
C3519 C3518 1.394 . S
C3519 C3520 1.383 . S
C3519 H3527 0.929 . S
C3520 C3519 1.383 . S
C3520 C3521 1.377 . S
C3521 H3505 0.930 . S
C3521 C3520 1.377 . S
C3521 C3522 1.379 . S
C3522 H3506 0.931 . S
C3522 C3516 1.383 . S
C3522 C3521 1.379 . S
H3523 C3517 0.959 . S
H3524 C3517 0.961 . S
H3525 C3517 0.960 . S
H3526 C3518 0.930 . S
H3527 C3519 0.929 . S
H3528 C3536 0.929 . S
H3529 C3538 0.930 . S
H3530 C3540 0.930 . S
H3531 C3543 0.929 . S
H3532 C3546 0.930 . S
H3533 C3548 0.960 . S
H3534 C3548 0.960 . S
H3535 C3548 0.960 . S
C3536 H3528 0.929 . S
C3536 C3537 1.377 . S
C3536 C3538 1.384 . S
C3537 C3536 1.377 . S
C3537 C3543 1.390 . S
C3538 H3529 0.930 . S
C3538 C3536 1.384 . S
C3538 C3539 1.372 . S
C3539 C3538 1.372 . S
C3539 C3540 1.400 . S
C3539 C3544 1.490 . S
C3540 H3530 0.930 . S
C3540 C3539 1.400 . S
C3540 C3543 1.386 . S
H3541 C3557 0.930 . S
H3542 C3558 0.931 . S
C3543 H3531 0.929 . S
C3543 C3537 1.390 . S
C3543 C3540 1.386 . S
C3544 C3539 1.490 . S
C3544 C3546 1.395 . S
C3544 C3547 1.403 . S
H3545 C3551 0.930 . S
C3546 H3532 0.930 . S
C3546 C3544 1.395 . S
C3546 C3549 1.403 . S
C3547 C3544 1.403 . S
C3547 C3548 1.524 . S
C3547 C3551 1.400 . S
C3548 H3533 0.960 . S
C3548 H3534 0.960 . S
C3548 H3535 0.960 . S
C3548 C3547 1.524 . S
C3549 C3546 1.403 . S
C3549 C3550 1.392 . S
C3549 C3553 1.495 . S
C3550 C3549 1.392 . S
C3550 C3551 1.385 . S
C3550 C3552 1.478 . S
C3551 H3545 0.930 . S
C3551 C3547 1.400 . S
C3551 C3550 1.385 . S
C3552 C3550 1.478 . S
C3552 C3554 1.381 . S
C3552 C3558 1.383 . S
C3553 C3549 1.495 . S
C3553 H3559 0.959 . S
C3553 H3560 0.961 . S
C3553 H3561 0.960 . S
C3554 C3552 1.381 . S
C3554 C3555 1.394 . S
C3554 H3562 0.930 . S
C3555 C3554 1.394 . S
C3555 C3556 1.383 . S
C3555 H3563 0.929 . S
C3556 C3555 1.383 . S
C3556 C3557 1.377 . S
C3557 H3541 0.930 . S
C3557 C3556 1.377 . S
C3557 C3558 1.379 . S
C3558 H3542 0.931 . S
C3558 C3552 1.383 . S
C3558 C3557 1.379 . S
H3559 C3553 0.959 . S
H3560 C3553 0.961 . S
H3561 C3553 0.960 . S
H3562 C3554 0.930 . S
H3563 C3555 0.929 . S
H3564 C3572 0.929 . S
H3565 C3574 0.930 . S
H3566 C3576 0.930 . S
H3567 C3579 0.929 . S
H3568 C3582 0.930 . S
H3569 C3584 0.960 . S
H3570 C3584 0.960 . S
H3571 C3584 0.960 . S
C3572 H3564 0.929 . S
C3572 C3573 1.377 . S
C3572 C3574 1.384 . S
C3573 C3572 1.377 . S
C3573 C3579 1.390 . S
C3574 H3565 0.930 . S
C3574 C3572 1.384 . S
C3574 C3575 1.372 . S
C3575 C3574 1.372 . S
C3575 C3576 1.400 . S
C3575 C3580 1.490 . S
C3576 H3566 0.930 . S
C3576 C3575 1.400 . S
C3576 C3579 1.386 . S
H3577 C3593 0.930 . S
H3578 C3594 0.931 . S
C3579 H3567 0.929 . S
C3579 C3573 1.390 . S
C3579 C3576 1.386 . S
C3580 C3575 1.490 . S
C3580 C3582 1.395 1_655 S
C3580 C3583 1.403 . S
H3581 C3587 0.930 . S
C3582 H3568 0.930 . S
C3582 C3580 1.395 1_455 S
C3582 C3585 1.403 . S
C3583 C3580 1.403 . S
C3583 C3584 1.524 . S
C3583 C3587 1.400 . S
C3584 H3569 0.960 . S
C3584 H3570 0.960 . S
C3584 H3571 0.960 . S
C3584 C3583 1.524 . S
C3585 C3582 1.403 . S
C3585 C3586 1.392 1_455 S
C3585 C3589 1.495 . S
C3586 C3585 1.392 1_655 S
C3586 C3587 1.385 . S
C3586 C3588 1.478 . S
C3587 H3581 0.930 . S
C3587 C3583 1.400 . S
C3587 C3586 1.385 . S
C3588 C3586 1.478 . S
C3588 C3590 1.381 . S
C3588 C3594 1.383 . S
C3589 C3585 1.495 . S
C3589 H3595 0.959 . S
C3589 H3596 0.961 . S
C3589 H3597 0.960 . S
C3590 C3588 1.381 . S
C3590 C3591 1.394 . S
C3590 H3598 0.935 . S
C3591 C3590 1.394 . S
C3591 C3592 1.383 . S
C3591 H3599 0.928 1_655 S
C3592 C3591 1.383 . S
C3592 C3593 1.377 . S
C3593 H3577 0.930 . S
C3593 C3592 1.377 . S
C3593 C3594 1.379 . S
C3594 H3578 0.931 . S
C3594 C3588 1.383 . S
C3594 C3593 1.379 . S
H3595 C3589 0.959 . S
H3596 C3589 0.961 . S
H3597 C3589 0.960 . S
H3598 C3590 0.935 . S
H3599 C3591 0.928 1_455 S
H3600 C3608 0.929 . S
H3601 C3610 0.930 . S
H3602 C3612 0.930 . S
H3603 C3615 0.929 . S
H3604 C3618 0.930 . S
H3605 C3620 0.960 . S
H3606 C3620 0.960 . S
H3607 C3620 0.960 . S
C3608 H3600 0.929 . S
C3608 C3609 1.377 . S
C3608 C3610 1.384 . S
C3609 C3608 1.377 . S
C3609 C3615 1.390 . S
C3610 H3601 0.930 . S
C3610 C3608 1.384 . S
C3610 C3611 1.372 . S
C3611 C3610 1.372 . S
C3611 C3612 1.400 . S
C3611 C3616 1.490 . S
C3612 H3602 0.930 . S
C3612 C3611 1.400 . S
C3612 C3615 1.386 . S
H3613 C3629 0.930 . S
H3614 C3630 0.931 . S
C3615 H3603 0.929 . S
C3615 C3609 1.390 . S
C3615 C3612 1.386 . S
C3616 C3611 1.490 . S
C3616 C3618 1.395 . S
C3616 C3619 1.403 . S
H3617 C3623 0.930 . S
C3618 H3604 0.930 . S
C3618 C3616 1.395 . S
C3618 C3621 1.403 . S
C3619 C3616 1.403 . S
C3619 C3620 1.524 . S
C3619 C3623 1.400 . S
C3620 H3605 0.960 . S
C3620 H3606 0.960 . S
C3620 H3607 0.960 . S
C3620 C3619 1.524 . S
C3621 C3618 1.403 . S
C3621 C3622 1.392 . S
C3621 C3625 1.495 . S
C3622 C3621 1.392 . S
C3622 C3623 1.385 . S
C3622 C3624 1.478 . S
C3623 H3617 0.930 . S
C3623 C3619 1.400 . S
C3623 C3622 1.385 . S
C3624 C3622 1.478 . S
C3624 C3626 1.381 . S
C3624 C3630 1.383 . S
C3625 C3621 1.495 . S
C3625 H3631 0.959 . S
C3625 H3632 0.961 . S
C3625 H3633 0.960 . S
C3626 C3624 1.381 . S
C3626 C3627 1.394 . S
C3626 H3634 0.930 . S
C3627 C3626 1.394 . S
C3627 C3628 1.383 . S
C3627 H3635 0.929 . S
C3628 C3627 1.383 . S
C3628 C3629 1.377 . S
C3629 H3613 0.930 . S
C3629 C3628 1.377 . S
C3629 C3630 1.379 . S
C3630 H3614 0.931 . S
C3630 C3624 1.383 . S
C3630 C3629 1.379 . S
H3631 C3625 0.959 . S
H3632 C3625 0.961 . S
H3633 C3625 0.960 . S
H3634 C3626 0.930 . S
H3635 C3627 0.929 . S
H3636 C3644 0.929 1_565 S
H3637 C3646 0.939 . S
H3638 C3648 0.930 . S
H3639 C3651 0.929 . S
H3640 C3654 0.930 . S
H3641 C3656 0.960 . S
H3642 C3656 0.960 . S
H3643 C3656 0.960 . S
C3644 H3636 0.929 1_545 S
C3644 C3645 1.377 . S
C3644 C3646 1.389 1_545 S
C3645 C3644 1.377 . S
C3645 C3651 1.390 . S
C3646 H3637 0.939 . S
C3646 C3644 1.389 1_565 S
C3646 C3647 1.358 1_565 S
C3647 C3646 1.358 1_545 S
C3647 C3648 1.400 . S
C3647 C3652 1.490 . S
C3648 H3638 0.930 . S
C3648 C3647 1.400 . S
C3648 C3651 1.386 . S
H3649 C3665 0.930 . S
H3650 C3666 0.931 . S
C3651 H3639 0.929 . S
C3651 C3645 1.390 . S
C3651 C3648 1.386 . S
C3652 C3647 1.490 . S
C3652 C3654 1.395 . S
C3652 C3655 1.403 . S
H3653 C3659 0.930 . S
C3654 H3640 0.930 . S
C3654 C3652 1.395 . S
C3654 C3657 1.403 . S
C3655 C3652 1.403 . S
C3655 C3656 1.524 . S
C3655 C3659 1.400 . S
C3656 H3641 0.960 . S
C3656 H3642 0.960 . S
C3656 H3643 0.960 . S
C3656 C3655 1.524 . S
C3657 C3654 1.403 . S
C3657 C3658 1.392 . S
C3657 C3661 1.495 . S
C3658 C3657 1.392 . S
C3658 C3659 1.385 . S
C3658 C3660 1.478 . S
C3659 H3653 0.930 . S
C3659 C3655 1.400 . S
C3659 C3658 1.385 . S
C3660 C3658 1.478 . S
C3660 C3662 1.381 1_545 S
C3660 C3666 1.383 . S
C3661 C3657 1.495 . S
C3661 H3667 0.959 . S
C3661 H3668 0.961 . S
C3661 H3669 0.960 1_545 S
C3662 C3660 1.381 1_565 S
C3662 C3663 1.394 . S
C3662 H3670 0.930 . S
C3663 C3662 1.394 . S
C3663 C3664 1.383 1_565 S
C3663 H3671 0.929 . S
C3664 C3663 1.383 1_545 S
C3664 C3665 1.377 . S
C3665 H3649 0.930 . S
C3665 C3664 1.377 . S
C3665 C3666 1.379 . S
C3666 H3650 0.931 . S
C3666 C3660 1.383 . S
C3666 C3665 1.379 . S
H3667 C3661 0.959 . S
H3668 C3661 0.961 . S
H3669 C3661 0.960 1_565 S
H3670 C3662 0.930 . S
H3671 C3663 0.929 . S
C1089 C13 1.374 . S
C1108 C688 1.450 . S
C1125 C27 1.309 . S
C1144 C734 1.386 . S
C1180 C766 1.410 . S
C1161 C36 1.315 . S
C1197 C41 1.375 . S
C1216 C819 1.420 . S
C1233 C8 1.429 . S
C1252 C865 1.538 . S
C1269 C22 1.408 . S
C1288 C904 1.492 . S
C1305 C55 1.378 . S
C1324 C858 1.436 . S
C1360 C911 1.392 . S
C1341 C69 1.317 . S
C1396 C812 1.430 . S
C1377 C78 1.343 . S
C1413 C83 1.355 . S
C1432 C773 1.419 . S
C1468 C667 1.552 . S
C1449 C50 1.443 . S
C1485 C64 1.411 . S
C1504 C713 1.484 . S
C1521 C97 1.558 . S
C1540 C943 1.653 . S
C1557 C111 1.373 . S
C1576 C1010 1.460 . S
C1612 C1056 1.551 . S
C1593 C120 1.506 . S
C1629 C125 1.448 . S
C1648 C267 1.524 . S
C1665 C92 1.666 . S
C1684 C313 1.714 . S
C1701 C106 1.476 . S
C1720 C359 1.527 . S
C1737 C139 1.475 . S
C1756 C306 1.557 . S
C1773 C153 1.375 . S
C1792 C352 1.443 . S
C1828 C260 1.584 . S
C1809 C162 1.511 . S
C1864 C1035 1.628 . S
C1845 C167 1.534 . S
C1900 C964 1.702 . S
C1881 C134 1.654 . S
C1936 C989 1.551 . S
C1917 C148 1.502 . S
C1953 C181 1.470 . S
C1972 C391 1.565 . S
C1989 C195 1.361 . S
C2008 C444 1.418 . S
C2025 C204 1.513 . S
C2044 C490 1.576 . S
C2061 C209 1.529 . S
C2080 C536 1.613 . S
C2116 C589 1.726 . S
C2097 C176 1.664 . S
C2152 C635 1.558 . S
C2133 C190 1.513 . S
C2188 C582 1.644 . S
C2169 C223 1.563 . S
C2224 C628 1.478 . S
C2205 C237 1.398 . S
C2241 C246 1.489 . S
C2260 C543 1.558 . S
C2296 C497 1.509 . S
C2277 C251 1.427 . S
C2313 C218 1.665 . S
C2332 C412 1.720 . S
C2368 C451 1.556 . S
C2349 C232 1.482 . S
C2404 C274 1.462 . S
C2385 C11 1.448 . S
C2421 C25 1.295 . S
C2440 C320 1.314 . S
C2476 C366 1.452 . S
C2457 C35 1.465 . S
C2512 C398 1.434 . S
C2493 C39 1.448 1_556 S
C2548 C437 1.547 . S
C2529 C7 1.574 1_556 S
C2584 C483 1.360 . S
C2565 C21 1.396 1_556 S
C2601 C53 1.463 . S
C2620 C504 1.456 . S
C2637 C67 1.287 . S
C2656 C405 1.276 . S
C2673 C77 1.436 1_556 S
C2692 C458 1.418 . S
C2709 C81 1.478 . S
C2728 C299 1.486 . S
C2764 C345 1.541 . S
C2745 C49 1.565 . S
C2781 C63 1.394 . S
C2800 C253 1.365 . S
C2836 C529 1.382 . S
C2817 C95 1.404 . S
C2853 C109 1.416 . S
C2872 C596 1.430 . S
C2889 C119 1.529 . S
C2908 C642 1.507 . S
C2944 C681 1.194 . S
C2925 C123 1.199 . S
C2961 C91 1.504 . S
C2980 C727 1.478 . S
C2997 C105 1.192 . S
C3016 C759 1.187 . S
C3033 C137 1.242 . S
C3052 C780 1.243 . S
C3069 C151 1.086 . S
C3088 C674 1.085 . S
C3124 C720 1.382 . S
C3105 C161 1.404 . S
C3141 C165 1.433 . S
C3160 C575 1.425 . S
C3177 C133 1.609 . S
C3196 C621 1.587 . S
C3232 C550 1.512 . S
C3213 C147 1.522 . S
C3268 C826 1.255 . S
C3249 C179 1.256 . S
C3285 C193 1.076 . S
C3304 C872 1.090 . S
C3321 C203 1.395 . S
C3340 C897 1.393 . S
C3376 C950 1.422 . S
C3357 C207 1.414 . S
C3412 C1003 1.600 . S
C3393 C175 1.615 . S
C3429 C189 1.527 . S
C3448 C1049 1.520 . S
C3465 C221 1.417 . S
C3484 C1042 1.413 . S
C3501 C235 1.413 . S
C3520 C957 1.394 . S
C3556 C996 1.482 . S
C3537 C245 1.509 . S
C3592 C851 1.182 . S
C3573 C249 1.180 . S
C3628 C918 1.505 . S
C3609 C217 1.512 . S
C3645 C231 1.212 . S
C3664 C805 1.175 . S
