# Generated by pormake.
# Topology rtl, (3,6)-cn, num edge types: 1
# Building blocks:
#     Node 0, Type 0, BuildingBlock: QEWDON_clean_linker_0, # of connection points: 3
#     Node 1, Type 0, BuildingBlock: QEWDON_clean_linker_0, # of connection points: 3
#     Node 2, Type 0, BuildingBlock: QEWDON_clean_linker_0, # of connection points: 3
#     Node 3, Type 0, BuildingBlock: QEWDON_clean_linker_0, # of connection points: 3
#     Node 4, Type 1, BuildingBlock: VOLQOD_clean_sbu_1, # of connection points: 6
#     Node 5, Type 1, BuildingBlock: VOLQOD_clean_sbu_1, # of connection points: 6
#     Edge 6, Type (0, 1), BuildingBlock: TEMPAE_clean_linker_10, # of connection points: 2
#     Edge 7, Type (0, 1), BuildingBlock: TEMPAE_clean_linker_10, # of connection points: 2
#     Edge 8, Type (0, 1), BuildingBlock: TEMPAE_clean_linker_10, # of connection points: 2
#     Edge 9, Type (0, 1), BuildingBlock: TEMPAE_clean_linker_10, # of connection points: 2
#     Edge 10, Type (0, 1), BuildingBlock: TEMPAE_clean_linker_10, # of connection points: 2
#     Edge 11, Type (0, 1), BuildingBlock: TEMPAE_clean_linker_10, # of connection points: 2
#     Edge 12, Type (0, 1), BuildingBlock: TEMPAE_clean_linker_10, # of connection points: 2
#     Edge 13, Type (0, 1), BuildingBlock: TEMPAE_clean_linker_10, # of connection points: 2
#     Edge 14, Type (0, 1), BuildingBlock: TEMPAE_clean_linker_10, # of connection points: 2
#     Edge 15, Type (0, 1), BuildingBlock: TEMPAE_clean_linker_10, # of connection points: 2
#     Edge 16, Type (0, 1), BuildingBlock: TEMPAE_clean_linker_10, # of connection points: 2
#     Edge 17, Type (0, 1), BuildingBlock: TEMPAE_clean_linker_10, # of connection points: 2
# Relax obj value: 0.048
# Max RMSD: 0.148
# Mean RMSD: 0.136
data_MOF--net-rtl--node1-VOLQOD_clean_sbu_1--node2-QEWDON_clean_linker_0--edge1-TEMPAE_clean_linker_10
_symmetry_space_group_name_H-M    P1
_symmetry_Int_Tables_number       1
_symmetry_cell_setting            triclinic
loop_
_symmetry_equiv_pos_as_xyz
'x, y, z'
_cell_length_a     40.195777
_cell_length_b     40.605502
_cell_length_c     21.775879
_cell_angle_alpha  91.804744
_cell_angle_beta   91.921752
_cell_angle_gamma 89.885006
loop_
_atom_site_label
_atom_site_type_symbol
_atom_site_fract_x
_atom_site_fract_y
_atom_site_fract_z
_atom_type_partial_charge
H0 H 0.23552 0.83988 0.12207 0.0
C1 C 0.22171 0.84617 0.08045 0.0
C2 C 0.18825 0.85611 0.08339 0.0
C3 C 0.23775 0.84585 0.02401 0.0
H4 H 0.1459 0.87468 0.03222 0.0
C5 C 0.17108 0.86527 0.02943 0.0
C6 C 0.18667 0.86497 0.97286 0.0
C7 C 0.22009 0.85516 0.9705 0.0
C8 C 0.27369 0.83854 0.02097 0.0
H9 H 0.23259 0.85505 0.92713 0.0
C10 C 0.28648 0.80746 0.0362 0.0
C11 C 0.32049 0.80015 0.02882 0.0
C12 C 0.29514 0.86261 -0.00017 0.0
H13 H 0.28571 0.88668 0.98789 0.0
C14 C 0.32885 0.85581 -0.00637 0.0
H15 H 0.26984 0.78892 0.05247 0.0
C16 C 0.34145 0.82481 0.00752 0.0
H17 H 0.36752 0.81994 -3e-05 0.0
H18 H 0.34519 0.87445 0.97696 0.0
H19 H 0.73121 0.68874 0.44977 0.0
C20 C 0.71616 0.68225 0.48797 0.0
C21 C 0.68518 0.66709 0.47658 0.0
C22 C 0.72871 0.68673 0.54873 0.0
H23 H 0.64283 0.64489 0.51625 0.0
C24 C 0.66652 0.65713 0.5257 0.0
C25 C 0.67895 0.66079 0.58635 0.0
C26 C 0.70996 0.67602 0.59777 0.0
C27 C 0.76314 0.69847 0.56054 0.0
H28 H 0.72022 0.67817 0.64441 0.0
C29 C 0.77311 0.72983 0.54251 0.0
C30 C 0.80626 0.74006 0.55294 0.0
C31 C 0.78648 0.67765 0.58913 0.0
H32 H 0.77928 0.65337 0.60311 0.0
C33 C 0.81944 0.68772 0.59886 0.0
H34 H 0.75521 0.74618 0.52089 0.0
C35 C 0.82936 0.71873 0.58072 0.0
H36 H 0.85498 0.72632 0.58913 0.0
H37 H 0.83733 0.67146 0.62058 0.0
H38 H 0.77662 0.17695 0.10769 0.0
C39 C 0.78827 0.17687 0.06348 0.0
C40 C 0.82182 0.16792 0.05941 0.0
C41 C 0.76929 0.18416 0.01031 0.0
H42 H 0.86193 0.15786 -0.00138 0.0
C43 C 0.83646 0.16647 0.00204 0.0
C44 C 0.81742 0.17229 0.94839 0.0
C45 C 0.78382 0.18145 0.95256 0.0
C46 C 0.73326 0.19001 0.01514 0.0
H47 H 0.76869 0.18478 0.91106 0.0
C48 C 0.71985 0.22196 0.0119 0.0
C49 C 0.68587 0.22738 0.02257 0.0
C50 C 0.71245 0.16346 0.0273 0.0
H51 H 0.72248 0.13875 0.03021 0.0
C52 C 0.67866 0.16866 0.03647 0.0
H53 H 0.736 0.24258 0.00352 0.0
C54 C 0.66544 0.20041 0.03456 0.0
H55 H 0.63917 0.20394 0.04235 0.0
H56 H 0.66274 0.14807 0.04581 0.0
H57 H 0.3176 0.29074 0.60384 0.0
C58 C 0.32119 0.30481 0.56309 0.0
C59 C 0.32854 0.3386 0.56894 0.0
C60 C 0.32066 0.28882 0.50489 0.0
H61 H 0.34146 0.38218 0.52112 0.0
C62 C 0.33432 0.35643 0.51632 0.0
C63 C 0.33493 0.3405 0.4585 0.0
C64 C 0.32803 0.30671 0.4529 0.0
C65 C 0.31547 0.25288 0.49847 0.0
H66 H 0.32911 0.2942 0.40825 0.0
C67 C 0.28512 0.23866 0.51388 0.0
C68 C 0.27956 0.20462 0.50367 0.0
C69 C 0.34062 0.23285 0.47421 0.0
H70 H 0.36416 0.24341 0.46207 0.0
C71 C 0.33558 0.19907 0.46528 0.0
H72 H 0.26575 0.25423 0.53256 0.0
C73 C 0.30526 0.18503 0.47946 0.0
H74 H 0.30169 0.15892 0.46991 0.0
H75 H 0.35505 0.18379 0.44632 0.0
O76 O 0.92774 0.97493 0.5083 0.0
Zn77 Zn 0.9527 0.01853 0.50838 0.0
O78 O 1.001 0.01232 0.51432 0.0
Zn79 Zn 0.01932 0.03536 0.58881 0.0
Zn80 Zn 0.01078 0.9655 0.51922 0.0
Zn81 Zn 0.02116 0.02895 0.44063 0.0
O82 O 0.05375 0.06881 0.56641 0.0
O83 O 0.05628 0.06266 0.46492 0.0
O84 O 0.9373 0.04722 0.57874 0.0
O85 O 0.98303 0.05868 0.63567 0.0
O86 O 0.04319 0.00379 0.64567 0.0
O87 O 0.0385 0.95598 0.59403 0.0
O88 O 0.03724 0.94866 0.44845 0.0
O89 O 0.93959 0.04296 0.43283 0.0
O90 O 0.04425 0.99267 0.39257 0.0
O91 O 0.98678 0.05039 0.38466 0.0
C92 C 0.93803 0.94557 0.51605 0.0
C93 C 0.06632 0.07629 0.51571 0.0
C94 C 0.04936 0.97306 0.64029 0.0
C95 C 0.95175 0.06136 0.62529 0.0
C96 C 0.04896 0.96218 0.40196 0.0
C97 C 0.95542 0.05421 0.38842 0.0
O98 O 0.96894 0.93905 0.52203 0.0
O99 O 0.56688 0.46741 0.02338 0.0
Zn100 Zn 0.54586 0.51282 0.02335 0.0
O101 O 0.49725 0.51104 0.02459 0.0
Zn102 Zn 0.47795 0.53291 0.95248 0.0
Zn103 Zn 0.48364 0.46511 0.02162 0.0
Zn104 Zn 0.48184 0.53238 0.10083 0.0
O105 O 0.44894 0.57096 0.97942 0.0
O106 O 0.44999 0.56956 0.08142 0.0
O107 O 0.56067 0.53585 0.94904 0.0
O108 O 0.51395 0.55166 0.90134 0.0
O109 O 0.44959 0.50143 0.8984 0.0
O110 O 0.45269 0.45521 0.95025 0.0
O111 O 0.45826 0.45427 0.09537 0.0
O112 O 0.56441 0.53975 0.09524 0.0
O113 O 0.45799 0.50024 0.15342 0.0
O114 O 0.52047 0.55245 0.15061 0.0
C115 C 0.55434 0.4386 0.01879 0.0
C116 C 0.43984 0.58234 0.03144 0.0
C117 C 0.44147 0.47146 0.90514 0.0
C118 C 0.54563 0.55065 0.90556 0.0
C119 C 0.45 0.47013 0.14376 0.0
C120 C 0.55162 0.55387 0.14182 0.0
O121 O 0.52292 0.43434 0.01635 0.0
C122 C 0.21699 0.20586 0.49803 0.0
C123 C 0.24662 0.18956 0.51476 0.0
C124 C 0.18594 0.19038 0.5021 0.0
C125 C 0.18452 0.1577 0.52265 0.0
C126 C 0.21418 0.14162 0.54192 0.0
C127 C 0.24479 0.15783 0.53818 0.0
C128 C 0.15482 0.20849 0.48191 0.0
C129 C 0.21376 0.10673 0.56398 0.0
C130 C 0.10376 0.11835 0.5693 0.0
C131 C 0.09478 0.09953 0.51614 0.0
C132 C 0.13226 0.1384 0.57147 0.0
C133 C 0.1525 0.13926 0.51958 0.0
C134 C 0.14311 0.12099 0.46533 0.0
C135 C 0.11428 0.10156 0.46414 0.0
C136 C 0.14118 0.15799 0.62975 0.0
C137 C 0.16419 0.121 0.40917 0.0
H138 H 0.21808 0.23024 0.47935 0.0
H139 H 0.26747 0.14532 0.55246 0.0
H140 H 0.14442 0.19689 0.43863 0.0
H141 H 0.13554 0.20678 0.51697 0.0
H142 H 0.15969 0.2349 0.47391 0.0
H143 H 0.23876 0.09838 0.58037 0.0
H144 H 0.19623 0.10464 0.60191 0.0
H145 H 0.20487 0.0898 0.52596 0.0
H146 H 0.08874 0.11711 0.60958 0.0
H147 H 0.10766 0.08708 0.42289 0.0
H148 H 0.14553 0.18417 0.6193 0.0
H149 H 0.16466 0.14838 0.65062 0.0
H150 H 0.12144 0.15683 0.66411 0.0
H151 H 0.16801 0.14659 0.39449 0.0
H152 H 0.15281 0.1064 0.36993 0.0
H153 H 0.1891 0.11055 0.42046 0.0
C154 C 0.316 0.73834 0.02047 0.0
C155 C 0.33413 0.76658 0.03961 0.0
C156 C 0.3303 0.70679 0.02353 0.0
C157 C 0.36369 0.70344 0.04532 0.0
C158 C 0.38159 0.73165 0.06725 0.0
C159 C 0.36649 0.76276 0.06472 0.0
C160 C 0.31019 0.67723 0.00084 0.0
C161 C 0.41729 0.7292 0.0906 0.0
C162 C 0.40137 0.62077 0.08734 0.0
C163 C 0.41834 0.61206 0.0339 0.0
C164 C 0.3824 0.64985 0.09103 0.0
C165 C 0.38094 0.67101 0.04056 0.0
C166 C 0.39755 0.66205 0.98617 0.0
C167 C 0.41577 0.63257 0.98332 0.0
C168 C 0.36445 0.65823 0.14928 0.0
C169 C 0.397 0.68414 0.93161 0.0
H170 H 0.29109 0.74093 0.00059 0.0
H171 H 0.38043 0.78431 0.08102 0.0
H172 H 0.32021 0.66746 0.95703 0.0
H173 H 0.31215 0.65727 0.03441 0.0
H174 H 0.28349 0.68339 -0.0072 0.0
H175 H 0.42714 0.7532 0.10907 0.0
H176 H 0.41955 0.71092 0.12729 0.0
H177 H 0.43317 0.72049 0.05264 0.0
H178 H 0.40301 0.60491 0.12645 0.0
H179 H 0.4289 0.62613 0.94195 0.0
H180 H 0.33789 0.66373 0.1384 0.0
H181 H 0.37551 0.68068 0.17194 0.0
H182 H 0.36582 0.63794 0.18234 0.0
H183 H 0.37095 0.68913 0.91617 0.0
H184 H 0.41052 0.67322 0.89222 0.0
H185 H 0.40859 0.70819 0.94508 0.0
C186 C 0.83923 0.77707 0.48962 0.0
C187 C 0.81718 0.77329 0.53723 0.0
C188 C 0.85468 0.80747 0.4811 0.0
C189 C 0.84851 0.83434 0.52229 0.0
C190 C 0.82482 0.83099 0.56845 0.0
C191 C 0.80925 0.80043 0.57513 0.0
C192 C 0.87928 0.81015 0.43062 0.0
C193 C 0.81788 0.85882 0.61384 0.0
C194 C 0.92267 0.89056 0.55344 0.0
C195 C 0.91399 0.9182 0.51938 0.0
C196 C 0.90108 0.86366 0.55604 0.0
C197 C 0.87027 0.86397 0.52258 0.0
C198 C 0.86115 0.89192 0.48846 0.0
C199 C 0.883 0.91896 0.48785 0.0
C200 C 0.91151 0.83467 0.59411 0.0
C201 C 0.82881 0.89285 0.45132 0.0
H202 H 0.84534 0.75587 0.46059 0.0
H203 H 0.79239 0.7972 0.61233 0.0
H204 H 0.87514 0.83321 0.40546 0.0
H205 H 0.90494 0.81104 0.45103 0.0
H206 H 0.87755 0.78889 0.39727 0.0
H207 H 0.7958 0.8538 0.64142 0.0
H208 H 0.83979 0.86237 0.64572 0.0
H209 H 0.8138 0.88224 0.58984 0.0
H210 H 0.94643 0.89002 0.57847 0.0
H211 H 0.8763 0.94023 0.46123 0.0
H212 H 0.91441 0.81244 0.56382 0.0
H213 H 0.89201 0.82918 0.62718 0.0
H214 H 0.93538 0.83914 0.62021 0.0
H215 H 0.82881 0.87317 0.4148 0.0
H216 H 0.8247 0.91694 0.42944 0.0
H217 H 0.80757 0.88793 0.48094 0.0
C218 C 0.65282 0.27208 0.07286 0.0
C219 C 0.67145 0.26101 0.023 0.0
C220 C 0.63645 0.3026 0.07224 0.0
C221 C 0.63831 0.32233 0.02 0.0
C222 C 0.65796 0.31174 0.97025 0.0
C223 C 0.67457 0.28124 0.97258 0.0
C224 C 0.61627 0.31321 0.1267 0.0
C225 C 0.66026 0.33189 0.9135 0.0
C226 C 0.56406 0.3788 -0.00549 0.0
C227 C 0.57652 0.40935 0.01649 0.0
C228 C 0.58428 0.3506 -0.00648 0.0
C229 C 0.61769 0.35279 0.01599 0.0
C230 C 0.63061 0.38363 0.0375 0.0
C231 C 0.60994 0.41161 0.03703 0.0
C232 C 0.56966 0.31828 0.96938 0.0
C233 C 0.66595 0.38686 0.06264 0.0
H234 H 0.65075 0.25657 0.1122 0.0
H235 H 0.68887 0.27259 0.93391 0.0
H236 H 0.62335 0.33851 0.14276 0.0
H237 H 0.58946 0.31373 0.11291 0.0
H238 H 0.61967 0.2964 0.16572 0.0
H239 H 0.67847 0.32146 0.88088 0.0
H240 H 0.63548 0.33291 0.88958 0.0
H241 H 0.66756 0.3576 0.92627 0.0
H242 H 0.53838 0.37687 0.97797 0.0
H243 H 0.61974 0.43511 0.05423 0.0
H244 H 0.5691 0.30053 0.00703 0.0
H245 H 0.58546 0.30738 0.93318 0.0
H246 H 0.54395 0.32115 0.94993 0.0
H247 H 0.66919 0.37201 0.10434 0.0
H248 H 0.67271 0.41282 0.07485 0.0
H249 H 0.68359 0.37703 0.0285 0.0
C250 C 0.18663 0.88078 0.18983 0.0
C251 C 0.17156 0.86122 0.14263 0.0
C252 C 0.16791 0.8935 0.23849 0.0
C253 C 0.13339 0.88658 0.23944 0.0
C254 C 0.11885 0.86439 0.19494 0.0
C255 C 0.1382 0.8518 0.14727 0.0
C256 C 0.18446 0.91654 0.28585 0.0
C257 C 0.0822 0.85626 0.19432 0.0
C258 C 0.08296 0.91192 0.3778 0.0
C259 C 0.06984 0.94237 0.35981 0.0
C260 C 0.104 0.89356 0.33951 0.0
C261 C 0.11173 0.90574 0.28157 0.0
C262 C 0.09828 0.93626 0.26287 0.0
C263 C 0.07769 0.9543 0.30237 0.0
C264 C 0.11818 0.86132 0.36122 0.0
C265 C 0.10559 0.94987 0.20097 0.0
H266 H 0.21236 0.88824 0.18631 0.0
H267 H 0.12662 0.83633 0.11113 0.0
H268 H 0.17671 0.94223 0.27688 0.0
H269 H 0.17667 0.91084 0.33273 0.0
H270 H 0.21204 0.91517 0.28467 0.0
H271 H 0.07577 0.83538 0.16191 0.0
H272 H 0.07439 0.85 0.24089 0.0
H273 H 0.06761 0.87815 0.18018 0.0
H274 H 0.07726 0.90264 0.42237 0.0
H275 H 0.06761 0.97773 0.28808 0.0
H276 H 0.14578 0.86233 0.36227 0.0
H277 H 0.11057 0.84096 0.32863 0.0
H278 H 0.1099 0.85538 0.40776 0.0
H279 H 0.13279 0.95348 0.19723 0.0
H280 H 0.09289 0.97378 0.19313 0.0
H281 H 0.09748 0.93206 0.16379 0.0
C282 C 0.64878 0.61332 0.628 0.0
C283 C 0.66077 0.64562 0.6363 0.0
C284 C 0.63037 0.5986 0.6731 0.0
C285 C 0.62382 0.61659 0.72804 0.0
C286 C 0.63631 0.64905 0.73729 0.0
C287 C 0.65482 0.66318 0.69125 0.0
C288 C 0.61778 0.56382 0.66175 0.0
C289 C 0.62975 0.66892 0.79537 0.0
C290 C 0.54995 0.58699 0.8152 0.0
C291 C 0.56556 0.56788 0.86039 0.0
C292 C 0.56869 0.60373 0.77281 0.0
C293 C 0.60383 0.60118 0.77552 0.0
C294 C 0.61976 0.58222 0.82132 0.0
C295 C 0.60045 0.56584 0.86321 0.0
C296 C 0.55086 0.62376 0.72453 0.0
C297 C 0.65719 0.57876 0.82538 0.0
H298 H 0.65392 0.59945 0.586 0.0
H299 H 0.66404 0.68817 0.6976 0.0
H300 H 0.62742 0.54777 0.69862 0.0
H301 H 0.59022 0.56345 0.66298 0.0
H302 H 0.62533 0.55315 0.61671 0.0
H303 H 0.6416 0.69362 0.79583 0.0
H304 H 0.60254 0.67217 0.80025 0.0
H305 H 0.63924 0.65556 0.83604 0.0
H306 H 0.52304 0.58891 0.81285 0.0
H307 H 0.6128 0.55123 0.89803 0.0
H308 H 0.55562 0.61304 0.67814 0.0
H309 H 0.56057 0.64934 0.72612 0.0
H310 H 0.52354 0.62461 0.73057 0.0
H311 H 0.66605 0.56635 0.78284 0.0
H312 H 0.66579 0.56431 0.86539 0.0
H313 H 0.66903 0.60343 0.82905 0.0
C314 C 0.86793 0.17089 0.13906 0.0
C315 C 0.84014 0.15449 0.1127 0.0
C316 C 0.88723 0.15646 0.18601 0.0
C317 C 0.879 0.12455 0.20523 0.0
C318 C 0.85081 0.10803 0.17856 0.0
C319 C 0.83148 0.12342 0.13302 0.0
C320 C 0.91658 0.17515 0.21453 0.0
C321 C 0.84162 0.07372 0.19678 0.0
C322 C 0.94624 0.0719 0.28022 0.0
C323 C 0.9369 0.07308 0.34163 0.0
C324 C 0.92775 0.08878 0.23524 0.0
C325 C 0.89998 0.10806 0.25267 0.0
C326 C 0.89124 0.11025 0.31506 0.0
C327 C 0.9095 0.09231 0.35864 0.0
C328 C 0.93729 0.08517 0.16889 0.0
C329 C 0.86241 0.13129 0.33569 0.0
H330 H 0.8746 0.19484 0.1226 0.0
H331 H 0.81021 0.11068 0.11156 0.0
H332 H 0.91466 0.17674 0.26526 0.0
H333 H 0.93999 0.16182 0.20451 0.0
H334 H 0.91836 0.20049 0.19713 0.0
H335 H 0.81912 0.06422 0.17109 0.0
H336 H 0.86263 0.0566 0.18813 0.0
H337 H 0.83695 0.07352 0.24667 0.0
H338 H 0.96737 0.05695 0.26708 0.0
H339 H 0.90254 0.0936 0.40634 0.0
H340 H 0.94208 0.10972 0.1501 0.0
H341 H 0.91638 0.07394 0.14104 0.0
H342 H 0.95979 0.0696 0.1631 0.0
H343 H 0.86512 0.15676 0.31952 0.0
H344 H 0.86048 0.13232 0.38649 0.0
H345 H 0.83876 0.12132 0.31509 0.0
C346 C 0.32041 0.38306 0.64867 0.0
C347 C 0.33697 0.3544 0.62929 0.0
C348 C 0.3332 0.40256 0.69835 0.0
C349 C 0.3638 0.39368 0.72745 0.0
C350 C 0.37977 0.36392 0.70959 0.0
C351 C 0.36588 0.34441 0.6611 0.0
C352 C 0.31488 0.43349 0.71751 0.0
C353 C 0.41274 0.35385 0.73863 0.0
C354 C 0.42095 0.46023 0.79706 0.0
C355 C 0.41888 0.4545 0.85982 0.0
C356 C 0.40241 0.44111 0.75334 0.0
C357 C 0.38061 0.41648 0.77326 0.0
C358 C 0.37699 0.41205 0.83683 0.0
C359 C 0.3966 0.43076 0.87936 0.0
C360 C 0.40745 0.44611 0.68586 0.0
C361 C 0.35322 0.38685 0.85987 0.0
H362 H 0.29822 0.39084 0.62339 0.0
H363 H 0.37895 0.32256 0.64506 0.0
H364 H 0.31344 0.43545 0.7683 0.0
H365 H 0.32861 0.45538 0.7027 0.0
H366 H 0.28924 0.43423 0.69686 0.0
H367 H 0.42109 0.32926 0.72137 0.0
H368 H 0.43203 0.37228 0.72861 0.0
H369 H 0.41106 0.35326 0.78929 0.0
H370 H 0.4383 0.47849 0.78204 0.0
H371 H 0.39473 0.42661 0.92808 0.0
H372 H 0.38326 0.45083 0.66177 0.0
H373 H 0.41804 0.42337 0.66463 0.0
H374 H 0.42447 0.46698 0.67803 0.0
H375 H 0.32837 0.38935 0.83671 0.0
H376 H 0.35036 0.38929 0.91038 0.0
H377 H 0.36246 0.36169 0.84871 0.0
C378 C 0.68067 0.62362 0.39541 0.0
C379 C 0.67392 0.6561 0.4144 0.0
C380 C 0.66298 0.60873 0.34552 0.0
C381 C 0.6382 0.627 0.31373 0.0
C382 C 0.63317 0.66069 0.32994 0.0
C383 C 0.65088 0.67479 0.38088 0.0
C384 C 0.66885 0.57268 0.33033 0.0
C385 C 0.6075 0.68115 0.29627 0.0
C386 C 0.60284 0.58724 0.16557 0.0
C387 C 0.57337 0.57317 0.18547 0.0
C388 C 0.62367 0.60587 0.20626 0.0
C389 C 0.61523 0.60976 0.2686 0.0
C390 C 0.58545 0.59567 0.28889 0.0
C391 C 0.56465 0.57789 0.24684 0.0
C392 C 0.65477 0.62121 0.18271 0.0
C393 C 0.57592 0.59872 0.35535 0.0
H394 H 0.69813 0.60915 0.42246 0.0
H395 H 0.6454 0.69976 0.39657 0.0
H396 H 0.64679 0.55823 0.34277 0.0
H397 H 0.67213 0.56863 0.28031 0.0
H398 H 0.69108 0.56292 0.35547 0.0
H399 H 0.61035 0.70786 0.30785 0.0
H400 H 0.60926 0.67723 0.24582 0.0
H401 H 0.58221 0.67345 0.30881 0.0
H402 H 0.60942 0.58402 0.11787 0.0
H403 H 0.54193 0.567 0.26236 0.0
H404 H 0.6771 0.61022 0.20536 0.0
H405 H 0.65519 0.64801 0.19437 0.0
H406 H 0.65665 0.61766 0.13215 0.0
H407 H 0.59561 0.58763 0.38513 0.0
H408 H 0.55191 0.58638 0.36359 0.0
H409 H 0.57386 0.62507 0.36974 0.0
C410 C 0.85762 0.17991 0.86528 0.0
C411 C 0.83146 0.16217 0.8891 0.0
C412 C 0.87601 0.16658 0.81667 0.0
C413 C 0.86871 0.13433 0.79333 0.0
C414 C 0.84136 0.11696 0.81583 0.0
C415 C 0.82283 0.1313 0.86309 0.0
C416 C 0.9043 0.18628 0.7926 0.0
C417 C 0.83318 0.08227 0.79325 0.0
C418 C 0.90386 0.09889 0.64554 0.0
C419 C 0.93158 0.08138 0.6679 0.0
C420 C 0.88392 0.11744 0.68555 0.0
C421 C 0.89128 0.1175 0.74955 0.0
C422 C 0.9194 0.09998 0.77228 0.0
C423 C 0.93955 0.08256 0.73101 0.0
C424 C 0.85485 0.13668 0.65943 0.0
C425 C 0.92761 0.09875 0.84037 0.0
H426 H 0.86445 0.20363 0.88624 0.0
H427 H 0.80297 0.11742 0.88269 0.0
H428 H 0.92838 0.17552 0.8083 0.0
H429 H 0.90357 0.18529 0.74159 0.0
H430 H 0.90354 0.21247 0.80887 0.0
H431 H 0.80993 0.07297 0.81277 0.0
H432 H 0.83041 0.08106 0.74241 0.0
H433 H 0.85393 0.06555 0.80636 0.0
H434 H 0.89792 0.09832 0.59657 0.0
H435 H 0.9609 0.0689 0.74831 0.0
H436 H 0.85611 0.16268 0.67664 0.0
H437 H 0.83118 0.12627 0.67492 0.0
H438 H 0.85416 0.13627 0.60836 0.0
H439 H 0.93146 0.12402 0.86006 0.0
H440 H 0.9503 0.08395 0.8505 0.0
H441 H 0.90644 0.08788 0.86415 0.0
C442 C 0.37738 0.34779 0.38 0.0
C443 C 0.34778 0.35835 0.40639 0.0
C444 C 0.39276 0.36675 0.33644 0.0
C445 C 0.37768 0.39656 0.31797 0.0
C446 C 0.34707 0.40668 0.34287 0.0
C447 C 0.33269 0.38763 0.38765 0.0
C448 C 0.42571 0.35546 0.31182 0.0
C449 C 0.32984 0.43784 0.323 0.0
C450 C 0.43407 0.46037 0.25162 0.0
C451 C 0.43013 0.453 0.18857 0.0
C452 C 0.41678 0.44242 0.29444 0.0
C453 C 0.3944 0.41728 0.27332 0.0
C454 C 0.38933 0.41076 0.20952 0.0
C455 C 0.40764 0.42839 0.16793 0.0
C456 C 0.42336 0.44953 0.36224 0.0
C457 C 0.36501 0.3848 0.18523 0.0
H458 H 0.38924 0.32538 0.39553 0.0
H459 H 0.30985 0.39574 0.40856 0.0
H460 H 0.42384 0.35255 0.26101 0.0
H461 H 0.44505 0.37436 0.32316 0.0
H462 H 0.43408 0.33168 0.33101 0.0
H463 H 0.30508 0.441 0.34363 0.0
H464 H 0.34544 0.45952 0.33667 0.0
H465 H 0.32653 0.43762 0.27219 0.0
H466 H 0.45156 0.47932 0.26751 0.0
H467 H 0.40426 0.42298 0.11903 0.0
H468 H 0.43396 0.4273 0.38398 0.0
H469 H 0.39974 0.45543 0.38507 0.0
H470 H 0.44093 0.47036 0.37103 0.0
H471 H 0.37375 0.36008 0.19893 0.0
H472 H 0.36195 0.3847 0.13432 0.0
H473 H 0.34031 0.38891 0.20543 0.0
C474 C 0.13453 0.87 0.9077 0.0
C475 C 0.16836 0.87753 0.91798 0.0
C476 C 0.11562 0.88502 0.86116 0.0
C477 C 0.13106 0.90768 0.82316 0.0
C478 C 0.16553 0.91425 0.83132 0.0
C479 C 0.18375 0.89924 0.87893 0.0
C480 C 0.0789 0.87741 0.85392 0.0
C481 C 0.18293 0.93788 0.79093 0.0
C482 C 0.08562 0.9264 0.67298 0.0
C483 C 0.07049 0.95675 0.68726 0.0
C484 C 0.10596 0.91049 0.71637 0.0
C485 C 0.11086 0.92501 0.77582 0.0
C486 C 0.09572 0.95566 0.79062 0.0
C487 C 0.0759 0.97133 0.74593 0.0
C488 C 0.12211 0.87809 0.69863 0.0
C489 C 0.10006 0.97164 0.85393 0.0
H490 H 0.12261 0.85281 0.93706 0.0
H491 H 0.20977 0.90548 0.88695 0.0
H492 H 0.06424 0.90026 0.8617 0.0
H493 H 0.0728 0.86818 0.8064 0.0
H494 H 0.07086 0.85875 0.88656 0.0
H495 H 0.21025 0.93853 0.80045 0.0
H496 H 0.1782 0.93087 0.74176 0.0
H497 H 0.17284 0.96309 0.79837 0.0
H498 H 0.08187 0.91514 0.62748 0.0
H499 H 0.06423 0.99473 0.75724 0.0
H500 H 0.1131 0.85835 0.72796 0.0
H501 H 0.14948 0.87978 0.70647 0.0
H502 H 0.11678 0.87073 0.64972 0.0
H503 H 0.09053 0.955 0.88878 0.0
H504 H 0.08679 0.9956 0.85792 0.0
H505 H 0.12687 0.97579 0.8652 0.0
loop_
_geom_bond_atom_site_label_1
_geom_bond_atom_site_label_2
_geom_bond_distance
_geom_bond_site_symmetry_2
_ccdc_geom_bond_type
H0 C1 0.949 . S
C1 H0 0.949 . S
C1 C2 1.395 . S
C1 C3 1.391 . S
C2 C1 1.395 . S
C2 C5 1.390 . S
C3 C1 1.391 . S
C3 C7 1.387 1_554 S
C3 C8 1.491 1_554 S
H4 C5 0.950 . S
C5 C2 1.390 . S
C5 H4 0.950 . S
C5 C6 1.378 1_554 S
C6 C5 1.378 1_556 S
C6 C7 1.409 . S
C7 C3 1.387 1_556 S
C7 C6 1.409 . S
C7 H9 0.951 . S
C8 C3 1.491 1_556 S
C8 C10 1.380 1_556 S
C8 C12 1.406 . S
H9 C7 0.951 . S
C10 C8 1.380 1_554 S
C10 C11 1.390 . S
C10 H15 0.949 . S
C11 C10 1.390 . S
C11 C16 1.399 1_554 S
C12 C8 1.406 . S
C12 H13 0.950 . S
C12 C14 1.375 . S
H13 C12 0.950 . S
C14 C12 1.375 . S
C14 C16 1.382 . S
C14 H18 0.950 . S
H15 C10 0.949 . S
C16 C11 1.399 1_556 S
C16 C14 1.382 . S
C16 H17 0.952 . S
H17 C16 0.952 . S
H18 C14 0.950 . S
H19 C20 0.949 . S
C20 H19 0.949 . S
C20 C21 1.395 . S
C20 C22 1.391 . S
C21 C20 1.395 . S
C21 C24 1.390 . S
C22 C20 1.391 . S
C22 C26 1.387 . S
C22 C27 1.491 . S
H23 C24 0.950 . S
C24 C21 1.390 . S
C24 H23 0.950 . S
C24 C25 1.378 . S
C25 C24 1.378 . S
C25 C26 1.409 . S
C26 C22 1.387 . S
C26 C25 1.409 . S
C26 H28 0.951 . S
C27 C22 1.491 . S
C27 C29 1.382 . S
C27 C31 1.404 . S
H28 C26 0.951 . S
C29 C27 1.382 . S
C29 C30 1.390 . S
C29 H34 0.949 . S
C30 C29 1.390 . S
C30 C35 1.399 . S
C31 C27 1.404 . S
C31 H32 0.950 . S
C31 C33 1.375 . S
H32 C31 0.950 . S
C33 C31 1.375 . S
C33 C35 1.382 . S
C33 H37 0.950 . S
H34 C29 0.949 . S
C35 C30 1.399 . S
C35 C33 1.382 . S
C35 H36 0.952 . S
H36 C35 0.952 . S
H37 C33 0.950 . S
H38 C39 0.949 . S
C39 H38 0.949 . S
C39 C40 1.395 . S
C39 C41 1.391 . S
C40 C39 1.395 . S
C40 C43 1.390 . S
C41 C39 1.391 . S
C41 C45 1.387 1_554 S
C41 C46 1.491 1_554 S
H42 C43 0.950 . S
C43 C40 1.390 . S
C43 H42 0.950 . S
C43 C44 1.378 1_554 S
C44 C43 1.378 1_556 S
C44 C45 1.409 . S
C45 C41 1.387 1_556 S
C45 C44 1.409 . S
C45 H47 0.951 . S
C46 C41 1.491 1_556 S
C46 C48 1.382 1_556 S
C46 C50 1.404 . S
H47 C45 0.951 . S
C48 C46 1.382 1_554 S
C48 C49 1.390 . S
C48 H53 0.949 . S
C49 C48 1.390 . S
C49 C54 1.399 1_554 S
C50 C46 1.404 . S
C50 H51 0.950 . S
C50 C52 1.375 . S
H51 C50 0.950 . S
C52 C50 1.375 . S
C52 C54 1.382 . S
C52 H56 0.950 . S
H53 C48 0.949 . S
C54 C49 1.399 1_556 S
C54 C52 1.382 . S
C54 H55 0.952 . S
H55 C54 0.952 . S
H56 C52 0.950 . S
H57 C58 0.949 . S
C58 H57 0.949 . S
C58 C59 1.395 . S
C58 C60 1.391 . S
C59 C58 1.395 . S
C59 C62 1.390 . S
C60 C58 1.391 . S
C60 C64 1.387 . S
C60 C65 1.491 . S
H61 C62 0.950 . S
C62 C59 1.390 . S
C62 H61 0.950 . S
C62 C63 1.378 . S
C63 C62 1.378 . S
C63 C64 1.409 . S
C64 C60 1.387 . S
C64 C63 1.409 . S
C64 H66 0.951 . S
C65 C60 1.491 . S
C65 C67 1.382 . S
C65 C69 1.404 . S
H66 C64 0.951 . S
C67 C65 1.382 . S
C67 C68 1.390 . S
C67 H72 0.949 . S
C68 C67 1.390 . S
C68 C73 1.399 . S
C69 C65 1.404 . S
C69 H70 0.950 . S
C69 C71 1.375 . S
H70 C69 0.950 . S
C71 C69 1.375 . S
C71 C73 1.382 . S
C71 H75 0.950 . S
H72 C67 0.949 . S
C73 C68 1.399 . S
C73 C71 1.382 . S
C73 H74 0.952 . S
H74 C73 0.952 . S
H75 C71 0.950 . S
O76 Zn77 1.953 1_565 S
O76 C92 1.225 . S
Zn77 O76 1.953 1_545 S
Zn77 O78 1.949 1_655 S
Zn77 O84 1.919 . S
Zn77 O89 1.924 . S
O78 Zn77 1.949 1_455 S
O78 Zn79 1.923 . S
O78 Zn80 1.950 1_545 S
O78 Zn81 1.945 . S
Zn79 O78 1.923 . S
Zn79 O82 1.933 . S
Zn79 O85 1.941 1_455 S
Zn79 O86 1.965 1_545 S
Zn80 O78 1.950 1_565 S
Zn80 O87 1.938 . S
Zn80 O88 1.906 . S
Zn80 O98 1.953 1_455 S
Zn81 O78 1.945 . S
Zn81 O83 1.932 . S
Zn81 O90 1.977 1_545 S
Zn81 O91 1.910 1_455 S
O82 Zn79 1.933 . S
O82 C93 1.226 . S
O83 Zn81 1.932 . S
O83 C93 1.307 . S
O84 Zn77 1.919 . S
O84 C95 1.253 . S
O85 Zn79 1.941 1_655 S
O85 C95 1.283 . S
O86 Zn79 1.965 1_565 S
O86 C94 1.303 . S
O87 Zn80 1.938 . S
O87 C94 1.247 . S
O88 Zn80 1.906 . S
O88 C96 1.304 . S
O89 Zn77 1.924 . S
O89 C97 1.311 . S
O90 Zn81 1.977 1_565 S
O90 C96 1.272 . S
O91 Zn81 1.910 1_655 S
O91 C97 1.231 . S
C92 O76 1.225 . S
C92 O98 1.298 . S
C93 O82 1.226 . S
C93 O83 1.307 . S
C94 O86 1.303 . S
C94 O87 1.247 . S
C95 O84 1.253 . S
C95 O85 1.283 . S
C96 O88 1.304 . S
C96 O90 1.272 . S
C97 O89 1.311 . S
C97 O91 1.231 . S
O98 Zn80 1.953 1_655 S
O98 C92 1.298 . S
O99 Zn100 1.953 . S
O99 C115 1.225 . S
Zn100 O99 1.953 . S
Zn100 O101 1.949 . S
Zn100 O107 1.919 1_554 S
Zn100 O112 1.924 . S
O101 Zn100 1.949 . S
O101 Zn102 1.923 1_554 S
O101 Zn103 1.950 . S
O101 Zn104 1.945 . S
Zn102 O101 1.923 1_556 S
Zn102 O105 1.933 . S
Zn102 O108 1.941 . S
Zn102 O109 1.965 . S
Zn103 O101 1.950 . S
Zn103 O110 1.938 1_554 S
Zn103 O111 1.906 . S
Zn103 O121 1.953 . S
Zn104 O101 1.945 . S
Zn104 O106 1.932 . S
Zn104 O113 1.977 . S
Zn104 O114 1.910 . S
O105 Zn102 1.933 . S
O105 C116 1.226 1_556 S
O106 Zn104 1.932 . S
O106 C116 1.307 . S
O107 Zn100 1.919 1_556 S
O107 C118 1.253 . S
O108 Zn102 1.941 . S
O108 C118 1.283 . S
O109 Zn102 1.965 . S
O109 C117 1.303 . S
O110 Zn103 1.938 1_556 S
O110 C117 1.247 . S
O111 Zn103 1.906 . S
O111 C119 1.304 . S
O112 Zn100 1.924 . S
O112 C120 1.311 . S
O113 Zn104 1.977 . S
O113 C119 1.272 . S
O114 Zn104 1.910 . S
O114 C120 1.231 . S
C115 O99 1.225 . S
C115 O121 1.298 . S
C116 O105 1.226 1_554 S
C116 O106 1.307 . S
C117 O109 1.303 . S
C117 O110 1.247 . S
C118 O107 1.253 . S
C118 O108 1.283 . S
C119 O111 1.304 . S
C119 O113 1.272 . S
C120 O112 1.311 . S
C120 O114 1.231 . S
O121 Zn103 1.953 . S
O121 C115 1.298 . S
C122 C123 1.391 . S
C122 C124 1.394 . S
C122 H138 0.931 . S
C123 C122 1.391 . S
C123 C127 1.376 . S
C124 C122 1.394 . S
C124 C125 1.369 . S
C124 C128 1.531 . S
C125 C124 1.369 . S
C125 C126 1.410 . S
C125 C133 1.503 . S
C126 C125 1.410 . S
C126 C127 1.392 . S
C126 C129 1.511 . S
C127 C123 1.376 . S
C127 C126 1.392 . S
C127 H139 0.929 . S
C128 C124 1.531 . S
C128 H140 0.960 . S
C128 H141 0.962 . S
C128 H142 0.960 . S
C129 C126 1.511 . S
C129 H143 0.961 . S
C129 H144 0.961 . S
C129 H145 0.961 . S
C130 C131 1.370 . S
C130 C132 1.363 . S
C130 H146 0.931 . S
C131 C130 1.370 . S
C131 C135 1.408 . S
C132 C130 1.363 . S
C132 C133 1.370 . S
C132 C136 1.524 . S
C133 C125 1.503 . S
C133 C132 1.370 . S
C133 C134 1.403 . S
C134 C133 1.403 . S
C134 C135 1.404 . S
C134 C137 1.539 . S
C135 C131 1.408 . S
C135 C134 1.404 . S
C135 H147 0.930 . S
C136 C132 1.524 . S
C136 H148 0.956 . S
C136 H149 0.961 . S
C136 H150 0.961 . S
C137 C134 1.539 . S
C137 H151 0.958 . S
C137 H152 0.961 . S
C137 H153 0.960 . S
H138 C122 0.931 . S
H139 C127 0.929 . S
H140 C128 0.960 . S
H141 C128 0.962 . S
H142 C128 0.960 . S
H143 C129 0.961 . S
H144 C129 0.961 . S
H145 C129 0.961 . S
H146 C130 0.931 . S
H147 C135 0.930 . S
H148 C136 0.956 . S
H149 C136 0.961 . S
H150 C136 0.961 . S
H151 C137 0.958 . S
H152 C137 0.961 . S
H153 C137 0.960 . S
C154 C155 1.391 1_556 S
C154 C156 1.394 . S
C154 H170 0.931 . S
C155 C154 1.391 1_554 S
C155 C159 1.376 . S
C156 C154 1.394 . S
C156 C157 1.369 1_556 S
C156 C160 1.531 . S
C157 C156 1.369 1_554 S
C157 C158 1.410 . S
C157 C165 1.503 . S
C158 C157 1.410 . S
C158 C159 1.392 . S
C158 C161 1.511 . S
C159 C155 1.376 . S
C159 C158 1.392 . S
C159 H171 0.929 . S
C160 C156 1.531 . S
C160 H172 0.960 . S
C160 H173 0.962 . S
C160 H174 0.960 . S
C161 C158 1.511 . S
C161 H175 0.961 . S
C161 H176 0.961 . S
C161 H177 0.961 . S
C162 C163 1.370 . S
C162 C164 1.363 . S
C162 H178 0.931 . S
C163 C162 1.370 . S
C163 C167 1.408 . S
C164 C162 1.363 . S
C164 C165 1.370 . S
C164 C168 1.524 . S
C165 C157 1.503 . S
C165 C164 1.370 . S
C165 C166 1.403 . S
C166 C165 1.403 . S
C166 C167 1.404 . S
C166 C169 1.539 . S
C167 C163 1.408 . S
C167 C166 1.404 . S
C167 H179 0.930 . S
C168 C164 1.524 . S
C168 H180 0.956 . S
C168 H181 0.961 . S
C168 H182 0.961 . S
C169 C166 1.539 . S
C169 H183 0.958 1_554 S
C169 H184 0.961 . S
C169 H185 0.960 . S
H170 C154 0.931 . S
H171 C159 0.929 . S
H172 C160 0.960 . S
H173 C160 0.962 . S
H174 C160 0.960 . S
H175 C161 0.961 . S
H176 C161 0.961 . S
H177 C161 0.961 . S
H178 C162 0.931 . S
H179 C167 0.930 . S
H180 C168 0.956 . S
H181 C168 0.961 . S
H182 C168 0.961 . S
H183 C169 0.958 1_556 S
H184 C169 0.961 . S
H185 C169 0.960 . S
C186 C187 1.391 . S
C186 C188 1.394 . S
C186 H202 0.931 . S
C187 C186 1.391 . S
C187 C191 1.376 . S
C188 C186 1.394 . S
C188 C189 1.369 . S
C188 C192 1.531 . S
C189 C188 1.369 . S
C189 C190 1.410 . S
C189 C197 1.503 . S
C190 C189 1.410 . S
C190 C191 1.392 . S
C190 C193 1.511 . S
C191 C187 1.376 . S
C191 C190 1.392 . S
C191 H203 0.929 . S
C192 C188 1.531 . S
C192 H204 0.960 . S
C192 H205 0.962 . S
C192 H206 0.960 . S
C193 C190 1.511 . S
C193 H207 0.961 . S
C193 H208 0.961 . S
C193 H209 0.961 . S
C194 C195 1.370 . S
C194 C196 1.363 . S
C194 H210 0.931 . S
C195 C194 1.370 . S
C195 C199 1.408 . S
C196 C194 1.363 . S
C196 C197 1.370 . S
C196 C200 1.524 . S
C197 C189 1.503 . S
C197 C196 1.370 . S
C197 C198 1.403 . S
C198 C197 1.403 . S
C198 C199 1.404 . S
C198 C201 1.539 . S
C199 C195 1.408 . S
C199 C198 1.404 . S
C199 H211 0.930 . S
C200 C196 1.524 . S
C200 H212 0.956 . S
C200 H213 0.961 . S
C200 H214 0.961 . S
C201 C198 1.539 . S
C201 H215 0.958 . S
C201 H216 0.961 . S
C201 H217 0.960 . S
H202 C186 0.931 . S
H203 C191 0.929 . S
H204 C192 0.960 . S
H205 C192 0.962 . S
H206 C192 0.960 . S
H207 C193 0.961 . S
H208 C193 0.961 . S
H209 C193 0.961 . S
H210 C194 0.931 . S
H211 C199 0.930 . S
H212 C200 0.956 . S
H213 C200 0.961 . S
H214 C200 0.961 . S
H215 C201 0.958 . S
H216 C201 0.961 . S
H217 C201 0.960 . S
C218 C219 1.391 . S
C218 C220 1.394 . S
C218 H234 0.931 . S
C219 C218 1.391 . S
C219 C223 1.376 . S
C220 C218 1.394 . S
C220 C221 1.369 . S
C220 C224 1.531 . S
C221 C220 1.369 . S
C221 C222 1.410 . S
C221 C229 1.503 . S
C222 C221 1.410 . S
C222 C223 1.392 . S
C222 C225 1.511 . S
C223 C219 1.376 . S
C223 C222 1.392 . S
C223 H235 0.929 . S
C224 C220 1.531 . S
C224 H236 0.960 . S
C224 H237 0.962 . S
C224 H238 0.960 . S
C225 C222 1.511 . S
C225 H239 0.961 . S
C225 H240 0.961 . S
C225 H241 0.961 . S
C226 C227 1.370 1_556 S
C226 C228 1.363 . S
C226 H242 0.931 . S
C227 C226 1.370 1_554 S
C227 C231 1.408 . S
C228 C226 1.363 . S
C228 C229 1.370 1_556 S
C228 C232 1.524 . S
C229 C221 1.503 . S
C229 C228 1.370 1_554 S
C229 C230 1.403 . S
C230 C229 1.403 . S
C230 C231 1.404 . S
C230 C233 1.539 . S
C231 C227 1.408 . S
C231 C230 1.404 . S
C231 H243 0.930 . S
C232 C228 1.524 . S
C232 H244 0.956 . S
C232 H245 0.961 . S
C232 H246 0.961 . S
C233 C230 1.539 . S
C233 H247 0.958 . S
C233 H248 0.961 . S
C233 H249 0.960 . S
H234 C218 0.931 . S
H235 C223 0.929 . S
H236 C224 0.960 . S
H237 C224 0.962 . S
H238 C224 0.960 . S
H239 C225 0.961 . S
H240 C225 0.961 . S
H241 C225 0.961 . S
H242 C226 0.931 . S
H243 C231 0.930 . S
H244 C232 0.956 . S
H245 C232 0.961 . S
H246 C232 0.961 . S
H247 C233 0.958 . S
H248 C233 0.961 . S
H249 C233 0.960 . S
C250 C251 1.391 . S
C250 C252 1.394 . S
C250 H266 0.931 . S
C251 C250 1.391 . S
C251 C255 1.376 . S
C252 C250 1.394 . S
C252 C253 1.369 . S
C252 C256 1.531 . S
C253 C252 1.369 . S
C253 C254 1.410 . S
C253 C261 1.503 . S
C254 C253 1.410 . S
C254 C255 1.392 . S
C254 C257 1.511 . S
C255 C251 1.376 . S
C255 C254 1.392 . S
C255 H267 0.929 . S
C256 C252 1.531 . S
C256 H268 0.960 . S
C256 H269 0.962 . S
C256 H270 0.960 . S
C257 C254 1.511 . S
C257 H271 0.961 . S
C257 H272 0.961 . S
C257 H273 0.961 . S
C258 C259 1.370 . S
C258 C260 1.363 . S
C258 H274 0.931 . S
C259 C258 1.370 . S
C259 C263 1.408 . S
C260 C258 1.363 . S
C260 C261 1.370 . S
C260 C264 1.524 . S
C261 C253 1.503 . S
C261 C260 1.370 . S
C261 C262 1.403 . S
C262 C261 1.403 . S
C262 C263 1.404 . S
C262 C265 1.539 . S
C263 C259 1.408 . S
C263 C262 1.404 . S
C263 H275 0.930 . S
C264 C260 1.524 . S
C264 H276 0.956 . S
C264 H277 0.961 . S
C264 H278 0.961 . S
C265 C262 1.539 . S
C265 H279 0.958 . S
C265 H280 0.961 . S
C265 H281 0.960 . S
H266 C250 0.931 . S
H267 C255 0.929 . S
H268 C256 0.960 . S
H269 C256 0.962 . S
H270 C256 0.960 . S
H271 C257 0.961 . S
H272 C257 0.961 . S
H273 C257 0.961 . S
H274 C258 0.931 . S
H275 C263 0.930 . S
H276 C264 0.956 . S
H277 C264 0.961 . S
H278 C264 0.961 . S
H279 C265 0.958 . S
H280 C265 0.961 . S
H281 C265 0.960 . S
C282 C283 1.391 . S
C282 C284 1.394 . S
C282 H298 0.931 . S
C283 C282 1.391 . S
C283 C287 1.376 . S
C284 C282 1.394 . S
C284 C285 1.369 . S
C284 C288 1.531 . S
C285 C284 1.369 . S
C285 C286 1.410 . S
C285 C293 1.503 . S
C286 C285 1.410 . S
C286 C287 1.392 . S
C286 C289 1.511 . S
C287 C283 1.376 . S
C287 C286 1.392 . S
C287 H299 0.929 . S
C288 C284 1.531 . S
C288 H300 0.960 . S
C288 H301 0.962 . S
C288 H302 0.960 . S
C289 C286 1.511 . S
C289 H303 0.961 . S
C289 H304 0.961 . S
C289 H305 0.961 . S
C290 C291 1.370 . S
C290 C292 1.363 . S
C290 H306 0.931 . S
C291 C290 1.370 . S
C291 C295 1.408 . S
C292 C290 1.363 . S
C292 C293 1.370 . S
C292 C296 1.524 . S
C293 C285 1.503 . S
C293 C292 1.370 . S
C293 C294 1.403 . S
C294 C293 1.403 . S
C294 C295 1.404 . S
C294 C297 1.539 . S
C295 C291 1.408 . S
C295 C294 1.404 . S
C295 H307 0.930 . S
C296 C292 1.524 . S
C296 H308 0.956 . S
C296 H309 0.961 . S
C296 H310 0.961 . S
C297 C294 1.539 . S
C297 H311 0.958 . S
C297 H312 0.961 . S
C297 H313 0.960 . S
H298 C282 0.931 . S
H299 C287 0.929 . S
H300 C288 0.960 . S
H301 C288 0.962 . S
H302 C288 0.960 . S
H303 C289 0.961 . S
H304 C289 0.961 . S
H305 C289 0.961 . S
H306 C290 0.931 . S
H307 C295 0.930 . S
H308 C296 0.956 . S
H309 C296 0.961 . S
H310 C296 0.961 . S
H311 C297 0.958 . S
H312 C297 0.961 . S
H313 C297 0.960 . S
C314 C315 1.391 . S
C314 C316 1.394 . S
C314 H330 0.931 . S
C315 C314 1.391 . S
C315 C319 1.376 . S
C316 C314 1.394 . S
C316 C317 1.369 . S
C316 C320 1.531 . S
C317 C316 1.369 . S
C317 C318 1.410 . S
C317 C325 1.503 . S
C318 C317 1.410 . S
C318 C319 1.392 . S
C318 C321 1.511 . S
C319 C315 1.376 . S
C319 C318 1.392 . S
C319 H331 0.929 . S
C320 C316 1.531 . S
C320 H332 0.960 . S
C320 H333 0.962 . S
C320 H334 0.960 . S
C321 C318 1.511 . S
C321 H335 0.961 . S
C321 H336 0.961 . S
C321 H337 0.961 . S
C322 C323 1.370 . S
C322 C324 1.363 . S
C322 H338 0.931 . S
C323 C322 1.370 . S
C323 C327 1.408 . S
C324 C322 1.363 . S
C324 C325 1.370 . S
C324 C328 1.524 . S
C325 C317 1.503 . S
C325 C324 1.370 . S
C325 C326 1.403 . S
C326 C325 1.403 . S
C326 C327 1.404 . S
C326 C329 1.539 . S
C327 C323 1.408 . S
C327 C326 1.404 . S
C327 H339 0.930 . S
C328 C324 1.524 . S
C328 H340 0.956 . S
C328 H341 0.961 . S
C328 H342 0.961 . S
C329 C326 1.539 . S
C329 H343 0.958 . S
C329 H344 0.961 . S
C329 H345 0.960 . S
H330 C314 0.931 . S
H331 C319 0.929 . S
H332 C320 0.960 . S
H333 C320 0.962 . S
H334 C320 0.960 . S
H335 C321 0.961 . S
H336 C321 0.961 . S
H337 C321 0.961 . S
H338 C322 0.931 . S
H339 C327 0.930 . S
H340 C328 0.956 . S
H341 C328 0.961 . S
H342 C328 0.961 . S
H343 C329 0.958 . S
H344 C329 0.961 . S
H345 C329 0.960 . S
C346 C347 1.391 . S
C346 C348 1.394 . S
C346 H362 0.931 . S
C347 C346 1.391 . S
C347 C351 1.376 . S
C348 C346 1.394 . S
C348 C349 1.369 . S
C348 C352 1.531 . S
C349 C348 1.369 . S
C349 C350 1.410 . S
C349 C357 1.503 . S
C350 C349 1.410 . S
C350 C351 1.392 . S
C350 C353 1.511 . S
C351 C347 1.376 . S
C351 C350 1.392 . S
C351 H363 0.929 . S
C352 C348 1.531 . S
C352 H364 0.960 . S
C352 H365 0.962 . S
C352 H366 0.960 . S
C353 C350 1.511 . S
C353 H367 0.961 . S
C353 H368 0.961 . S
C353 H369 0.961 . S
C354 C355 1.370 . S
C354 C356 1.363 . S
C354 H370 0.931 . S
C355 C354 1.370 . S
C355 C359 1.408 . S
C356 C354 1.363 . S
C356 C357 1.370 . S
C356 C360 1.524 . S
C357 C349 1.503 . S
C357 C356 1.370 . S
C357 C358 1.403 . S
C358 C357 1.403 . S
C358 C359 1.404 . S
C358 C361 1.539 . S
C359 C355 1.408 . S
C359 C358 1.404 . S
C359 H371 0.930 . S
C360 C356 1.524 . S
C360 H372 0.956 . S
C360 H373 0.961 . S
C360 H374 0.961 . S
C361 C358 1.539 . S
C361 H375 0.958 . S
C361 H376 0.961 . S
C361 H377 0.960 . S
H362 C346 0.931 . S
H363 C351 0.929 . S
H364 C352 0.960 . S
H365 C352 0.962 . S
H366 C352 0.960 . S
H367 C353 0.961 . S
H368 C353 0.961 . S
H369 C353 0.961 . S
H370 C354 0.931 . S
H371 C359 0.930 . S
H372 C360 0.956 . S
H373 C360 0.961 . S
H374 C360 0.961 . S
H375 C361 0.958 . S
H376 C361 0.961 . S
H377 C361 0.960 . S
C378 C379 1.391 . S
C378 C380 1.394 . S
C378 H394 0.931 . S
C379 C378 1.391 . S
C379 C383 1.376 . S
C380 C378 1.394 . S
C380 C381 1.369 . S
C380 C384 1.531 . S
C381 C380 1.369 . S
C381 C382 1.410 . S
C381 C389 1.503 . S
C382 C381 1.410 . S
C382 C383 1.392 . S
C382 C385 1.511 . S
C383 C379 1.376 . S
C383 C382 1.392 . S
C383 H395 0.929 . S
C384 C380 1.531 . S
C384 H396 0.960 . S
C384 H397 0.962 . S
C384 H398 0.960 . S
C385 C382 1.511 . S
C385 H399 0.961 . S
C385 H400 0.961 . S
C385 H401 0.961 . S
C386 C387 1.370 . S
C386 C388 1.363 . S
C386 H402 0.931 . S
C387 C386 1.370 . S
C387 C391 1.408 . S
C388 C386 1.363 . S
C388 C389 1.370 . S
C388 C392 1.524 . S
C389 C381 1.503 . S
C389 C388 1.370 . S
C389 C390 1.403 . S
C390 C389 1.403 . S
C390 C391 1.404 . S
C390 C393 1.539 . S
C391 C387 1.408 . S
C391 C390 1.404 . S
C391 H403 0.930 . S
C392 C388 1.524 . S
C392 H404 0.956 . S
C392 H405 0.961 . S
C392 H406 0.961 . S
C393 C390 1.539 . S
C393 H407 0.958 . S
C393 H408 0.961 . S
C393 H409 0.960 . S
H394 C378 0.931 . S
H395 C383 0.929 . S
H396 C384 0.960 . S
H397 C384 0.962 . S
H398 C384 0.960 . S
H399 C385 0.961 . S
H400 C385 0.961 . S
H401 C385 0.961 . S
H402 C386 0.931 . S
H403 C391 0.930 . S
H404 C392 0.956 . S
H405 C392 0.961 . S
H406 C392 0.961 . S
H407 C393 0.958 . S
H408 C393 0.961 . S
H409 C393 0.960 . S
C410 C411 1.391 . S
C410 C412 1.394 . S
C410 H426 0.931 . S
C411 C410 1.391 . S
C411 C415 1.376 . S
C412 C410 1.394 . S
C412 C413 1.369 . S
C412 C416 1.531 . S
C413 C412 1.369 . S
C413 C414 1.410 . S
C413 C421 1.503 . S
C414 C413 1.410 . S
C414 C415 1.392 . S
C414 C417 1.511 . S
C415 C411 1.376 . S
C415 C414 1.392 . S
C415 H427 0.929 . S
C416 C412 1.531 . S
C416 H428 0.960 . S
C416 H429 0.962 . S
C416 H430 0.960 . S
C417 C414 1.511 . S
C417 H431 0.961 . S
C417 H432 0.961 . S
C417 H433 0.961 . S
C418 C419 1.370 . S
C418 C420 1.363 . S
C418 H434 0.931 . S
C419 C418 1.370 . S
C419 C423 1.408 . S
C420 C418 1.363 . S
C420 C421 1.370 . S
C420 C424 1.524 . S
C421 C413 1.503 . S
C421 C420 1.370 . S
C421 C422 1.403 . S
C422 C421 1.403 . S
C422 C423 1.404 . S
C422 C425 1.539 . S
C423 C419 1.408 . S
C423 C422 1.404 . S
C423 H435 0.930 . S
C424 C420 1.524 . S
C424 H436 0.956 . S
C424 H437 0.961 . S
C424 H438 0.961 . S
C425 C422 1.539 . S
C425 H439 0.958 . S
C425 H440 0.961 . S
C425 H441 0.960 . S
H426 C410 0.931 . S
H427 C415 0.929 . S
H428 C416 0.960 . S
H429 C416 0.962 . S
H430 C416 0.960 . S
H431 C417 0.961 . S
H432 C417 0.961 . S
H433 C417 0.961 . S
H434 C418 0.931 . S
H435 C423 0.930 . S
H436 C424 0.956 . S
H437 C424 0.961 . S
H438 C424 0.961 . S
H439 C425 0.958 . S
H440 C425 0.961 . S
H441 C425 0.960 . S
C442 C443 1.391 . S
C442 C444 1.394 . S
C442 H458 0.931 . S
C443 C442 1.391 . S
C443 C447 1.376 . S
C444 C442 1.394 . S
C444 C445 1.369 . S
C444 C448 1.531 . S
C445 C444 1.369 . S
C445 C446 1.410 . S
C445 C453 1.503 . S
C446 C445 1.410 . S
C446 C447 1.392 . S
C446 C449 1.511 . S
C447 C443 1.376 . S
C447 C446 1.392 . S
C447 H459 0.929 . S
C448 C444 1.531 . S
C448 H460 0.960 . S
C448 H461 0.962 . S
C448 H462 0.960 . S
C449 C446 1.511 . S
C449 H463 0.961 . S
C449 H464 0.961 . S
C449 H465 0.961 . S
C450 C451 1.370 . S
C450 C452 1.363 . S
C450 H466 0.931 . S
C451 C450 1.370 . S
C451 C455 1.408 . S
C452 C450 1.363 . S
C452 C453 1.370 . S
C452 C456 1.524 . S
C453 C445 1.503 . S
C453 C452 1.370 . S
C453 C454 1.403 . S
C454 C453 1.403 . S
C454 C455 1.404 . S
C454 C457 1.539 . S
C455 C451 1.408 . S
C455 C454 1.404 . S
C455 H467 0.930 . S
C456 C452 1.524 . S
C456 H468 0.956 . S
C456 H469 0.961 . S
C456 H470 0.961 . S
C457 C454 1.539 . S
C457 H471 0.958 . S
C457 H472 0.961 . S
C457 H473 0.960 . S
H458 C442 0.931 . S
H459 C447 0.929 . S
H460 C448 0.960 . S
H461 C448 0.962 . S
H462 C448 0.960 . S
H463 C449 0.961 . S
H464 C449 0.961 . S
H465 C449 0.961 . S
H466 C450 0.931 . S
H467 C455 0.930 . S
H468 C456 0.956 . S
H469 C456 0.961 . S
H470 C456 0.961 . S
H471 C457 0.958 . S
H472 C457 0.961 . S
H473 C457 0.960 . S
C474 C475 1.391 . S
C474 C476 1.394 . S
C474 H490 0.931 . S
C475 C474 1.391 . S
C475 C479 1.376 . S
C476 C474 1.394 . S
C476 C477 1.369 . S
C476 C480 1.531 . S
C477 C476 1.369 . S
C477 C478 1.410 . S
C477 C485 1.503 . S
C478 C477 1.410 . S
C478 C479 1.392 . S
C478 C481 1.511 . S
C479 C475 1.376 . S
C479 C478 1.392 . S
C479 H491 0.929 . S
C480 C476 1.531 . S
C480 H492 0.960 . S
C480 H493 0.962 . S
C480 H494 0.960 . S
C481 C478 1.511 . S
C481 H495 0.961 . S
C481 H496 0.961 . S
C481 H497 0.961 . S
C482 C483 1.370 . S
C482 C484 1.363 . S
C482 H498 0.931 . S
C483 C482 1.370 . S
C483 C487 1.408 . S
C484 C482 1.363 . S
C484 C485 1.370 . S
C484 C488 1.524 . S
C485 C477 1.503 . S
C485 C484 1.370 . S
C485 C486 1.403 . S
C486 C485 1.403 . S
C486 C487 1.404 . S
C486 C489 1.539 . S
C487 C483 1.408 . S
C487 C486 1.404 . S
C487 H499 0.930 . S
C488 C484 1.524 . S
C488 H500 0.956 . S
C488 H501 0.961 . S
C488 H502 0.961 . S
C489 C486 1.539 . S
C489 H503 0.958 . S
C489 H504 0.961 . S
C489 H505 0.960 . S
H490 C474 0.931 . S
H491 C479 0.929 . S
H492 C480 0.960 . S
H493 C480 0.962 . S
H494 C480 0.960 . S
H495 C481 0.961 . S
H496 C481 0.961 . S
H497 C481 0.961 . S
H498 C482 0.931 . S
H499 C487 0.930 . S
H500 C488 0.956 . S
H501 C488 0.961 . S
H502 C488 0.961 . S
H503 C489 0.958 . S
H504 C489 0.961 . S
H505 C489 0.960 . S
C131 C93 1.532 . S
C123 C68 1.371 . S
C155 C11 1.363 . S
C163 C116 1.535 . S
C187 C30 1.465 . S
C195 C92 1.564 . S
C219 C49 1.469 . S
C227 C115 1.561 . S
C259 C96 1.532 . S
C251 C2 1.500 . S
C291 C118 1.546 . S
C283 C25 1.600 . S
C315 C40 1.571 . S
C323 C97 1.520 . S
C347 C59 1.542 . S
C355 C117 1.538 . S
C387 C120 1.413 . S
C379 C21 1.417 . S
C419 C95 1.433 . S
C411 C44 1.486 . S
C451 C119 1.432 . S
C443 C63 1.469 . S
C475 C6 1.477 . S
C483 C94 1.417 . S
