# Generated by pormake.
# Topology zzz, (3,6)-cn, num edge types: 1
# Building blocks:
#     Node 0, Type 0, BuildingBlock: MIDCAF_clean_linker_0, # of connection points: 3
#     Node 1, Type 0, BuildingBlock: MIDCAF_clean_linker_0, # of connection points: 3
#     Node 2, Type 0, BuildingBlock: MIDCAF_clean_linker_0, # of connection points: 3
#     Node 3, Type 0, BuildingBlock: MIDCAF_clean_linker_0, # of connection points: 3
#     Node 4, Type 0, BuildingBlock: MIDCAF_clean_linker_0, # of connection points: 3
#     Node 5, Type 0, BuildingBlock: MIDCAF_clean_linker_0, # of connection points: 3
#     Node 6, Type 0, BuildingBlock: MIDCAF_clean_linker_0, # of connection points: 3
#     Node 7, Type 0, BuildingBlock: MIDCAF_clean_linker_0, # of connection points: 3
#     Node 8, Type 1, BuildingBlock: BETDIP_clean_sbu_0, # of connection points: 6
#     Node 9, Type 1, BuildingBlock: BETDIP_clean_sbu_0, # of connection points: 6
#     Node 10, Type 1, BuildingBlock: BETDIP_clean_sbu_0, # of connection points: 6
#     Node 11, Type 1, BuildingBlock: BETDIP_clean_sbu_0, # of connection points: 6
#     Edge 12, Type (0, 1), BuildingBlock: TEMPAE_clean_linker_10, # of connection points: 2
#     Edge 13, Type (0, 1), BuildingBlock: TEMPAE_clean_linker_10, # of connection points: 2
#     Edge 14, Type (0, 1), BuildingBlock: TEMPAE_clean_linker_10, # of connection points: 2
#     Edge 15, Type (0, 1), BuildingBlock: TEMPAE_clean_linker_10, # of connection points: 2
#     Edge 16, Type (0, 1), BuildingBlock: TEMPAE_clean_linker_10, # of connection points: 2
#     Edge 17, Type (0, 1), BuildingBlock: TEMPAE_clean_linker_10, # of connection points: 2
#     Edge 18, Type (0, 1), BuildingBlock: TEMPAE_clean_linker_10, # of connection points: 2
#     Edge 19, Type (0, 1), BuildingBlock: TEMPAE_clean_linker_10, # of connection points: 2
#     Edge 20, Type (0, 1), BuildingBlock: TEMPAE_clean_linker_10, # of connection points: 2
#     Edge 21, Type (0, 1), BuildingBlock: TEMPAE_clean_linker_10, # of connection points: 2
#     Edge 22, Type (0, 1), BuildingBlock: TEMPAE_clean_linker_10, # of connection points: 2
#     Edge 23, Type (0, 1), BuildingBlock: TEMPAE_clean_linker_10, # of connection points: 2
#     Edge 24, Type (0, 1), BuildingBlock: TEMPAE_clean_linker_10, # of connection points: 2
#     Edge 25, Type (0, 1), BuildingBlock: TEMPAE_clean_linker_10, # of connection points: 2
#     Edge 26, Type (0, 1), BuildingBlock: TEMPAE_clean_linker_10, # of connection points: 2
#     Edge 27, Type (0, 1), BuildingBlock: TEMPAE_clean_linker_10, # of connection points: 2
#     Edge 28, Type (0, 1), BuildingBlock: TEMPAE_clean_linker_10, # of connection points: 2
#     Edge 29, Type (0, 1), BuildingBlock: TEMPAE_clean_linker_10, # of connection points: 2
#     Edge 30, Type (0, 1), BuildingBlock: TEMPAE_clean_linker_10, # of connection points: 2
#     Edge 31, Type (0, 1), BuildingBlock: TEMPAE_clean_linker_10, # of connection points: 2
#     Edge 32, Type (0, 1), BuildingBlock: TEMPAE_clean_linker_10, # of connection points: 2
#     Edge 33, Type (0, 1), BuildingBlock: TEMPAE_clean_linker_10, # of connection points: 2
#     Edge 34, Type (0, 1), BuildingBlock: TEMPAE_clean_linker_10, # of connection points: 2
#     Edge 35, Type (0, 1), BuildingBlock: TEMPAE_clean_linker_10, # of connection points: 2
# Relax obj value: 0.443
# Max RMSD: 0.266
# Mean RMSD: 0.243
data_MOF--net-zzz--node1-BETDIP_clean_sbu_0--node2-MIDCAF_clean_linker_0--edge1-TEMPAE_clean_linker_10
_symmetry_space_group_name_H-M    P1
_symmetry_Int_Tables_number       1
_symmetry_cell_setting            triclinic
loop_
_symmetry_equiv_pos_as_xyz
'x, y, z'
_cell_length_a     59.756926
_cell_length_b     59.794788
_cell_length_c     18.771787
_cell_angle_alpha  89.691839
_cell_angle_beta   89.954308
_cell_angle_gamma 89.97036
loop_
_atom_site_label
_atom_site_type_symbol
_atom_site_fract_x
_atom_site_fract_y
_atom_site_fract_z
_atom_type_partial_charge
C0 C 0.8083 0.52107 0.3733 0.0
C1 C 0.8165 0.50831 0.43107 0.0
C2 C 0.80313 0.4908 0.45761 0.0
C3 C 0.78323 0.48486 0.42346 0.0
H4 H 0.7167 0.5255 0.20079 0.0
H5 H 0.68362 0.53672 0.13065 0.0
H6 H 0.65915 0.46886 0.14022 0.0
H7 H 0.69181 0.45779 0.20839 0.0
H8 H 0.75381 0.44077 0.10567 0.0
H9 H 0.78128 0.41733 0.04813 0.0
H10 H 0.80393 0.39373 0.2542 0.0
H11 H 0.7774 0.41886 0.31159 0.0
H12 H 0.78334 0.5239 0.29088 0.0
H13 H 0.81818 0.53465 0.35139 0.0
H14 H 0.80864 0.4809 0.5028 0.0
H15 H 0.77431 0.47016 0.44199 0.0
N16 N 0.74141 0.49416 0.286 0.0
N17 N 0.73538 0.46152 0.21855 0.0
N18 N 0.76654 0.46385 0.29274 0.0
C19 C 0.72846 0.48214 0.23953 0.0
C20 C 0.75429 0.45228 0.24506 0.0
C21 C 0.76044 0.48466 0.31349 0.0
C22 C 0.70706 0.4907 0.20928 0.0
C23 C 0.70398 0.51317 0.18902 0.0
C24 C 0.68506 0.51955 0.14875 0.0
C25 C 0.66896 0.50356 0.12836 0.0
C26 C 0.67146 0.4815 0.15313 0.0
C27 C 0.69019 0.47518 0.19264 0.0
C28 C 0.76402 0.43209 0.21291 0.0
C29 C 0.76408 0.42995 0.13859 0.0
C30 C 0.7799 0.41629 0.10553 0.0
C31 C 0.79562 0.40421 0.14645 0.0
C32 C 0.79281 0.40355 0.22095 0.0
C33 C 0.77748 0.41778 0.25399 0.0
C34 C 0.77597 0.49635 0.36222 0.0
C35 C 0.78821 0.51509 0.33901 0.0
C36 C 0.96909 0.80396 0.43031 0.0
C37 C 0.99157 0.81004 0.44094 0.0
C38 C 0.00834 0.79613 0.41182 0.0
C39 C 1.00267 0.77737 0.37031 0.0
H40 H 0.97015 0.68168 0.26931 0.0
H41 H 0.97997 0.64805 0.20216 0.0
H42 H 0.01988 0.68839 0.0588 0.0
H43 H 0.01042 0.72163 0.12733 0.0
H44 H 0.94016 0.73586 0.06566 0.0
H45 H 0.92828 0.76019 0.96853 0.0
H46 H 0.91231 0.81186 0.12056 0.0
H47 H 0.92315 0.78741 0.21688 0.0
H48 H 0.94593 0.782 0.37982 0.0
H49 H 0.9556 0.81422 0.45053 0.0
H50 H 0.02585 0.80005 0.41954 0.0
H51 H 0.01587 0.76774 0.34553 0.0
N52 N 0.9849 0.73732 0.28368 0.0
N53 N 0.96065 0.73128 0.18644 0.0
N54 N 0.9557 0.76251 0.25838 0.0
C55 C 0.9781 0.72448 0.22744 0.0
C56 C 0.9493 0.75025 0.20157 0.0
C57 C 0.97327 0.75639 0.29984 0.0
C58 C 0.99003 0.70412 0.20463 0.0
C59 C 0.98189 0.68307 0.22552 0.0
C60 C 0.98719 0.6639 0.18606 0.0
C61 C 1.0005 0.66543 0.12417 0.0
C62 C 0.00982 0.68637 0.10639 0.0
C63 C 1.00455 0.70548 0.14598 0.0
C64 C 0.93381 0.76022 0.14866 0.0
C65 C 0.93314 0.75204 0.07858 0.0
C66 C 0.92636 0.76603 0.02272 0.0
C67 C 0.92051 0.78841 0.03628 0.0
C68 C 0.91713 0.79492 0.10743 0.0
C69 C 0.92366 0.7809 0.16316 0.0
C70 C 0.98011 0.77225 0.35677 0.0
C71 C 0.96349 0.78541 0.38918 0.0
C72 C 0.72408 1.00138 0.39346 0.0
C73 C 0.71634 0.01521 0.44889 0.0
C74 C 0.72969 0.03342 0.46949 0.0
C75 C 0.749 0.03898 0.43132 0.0
H76 H 0.83771 0.06354 0.20934 0.0
H77 H 0.87051 0.05254 0.14162 0.0
H78 H 0.8461 0.98463 0.13399 0.0
H79 H 0.81311 0.99576 0.2043 0.0
H80 H 0.77239 0.07526 0.09642 0.0
H81 H 0.74416 0.09711 0.03528 0.0
H82 H 0.7233 0.12548 0.23635 0.0
H83 H 0.75059 0.102 0.29779 0.0
H84 H 0.74802 0.99727 0.3087 0.0
H85 H 0.71418 0.98726 0.37608 0.0
H86 H 0.72451 0.04416 0.51277 0.0
H87 H 0.75784 0.0542 0.44484 0.0
N88 N 0.78927 0.02788 0.29192 0.0
N89 N 0.79318 0.0586 0.21343 0.0
N90 N 0.76281 0.05707 0.29137 0.0
C91 C 0.8012 0.03901 0.2404 0.0
C92 C 0.77407 0.0677 0.23878 0.0
C93 C 0.77009 0.03729 0.31817 0.0
C94 C 0.82272 0.03056 0.21152 0.0
C95 C 0.83948 0.04615 0.19435 0.0
C96 C 0.85824 0.03987 0.15503 0.0
C97 C 0.86071 0.01783 0.13067 0.0
C98 C 0.84469 1.00177 0.15179 0.0
C99 C 0.82583 0.0081 0.19213 0.0
C100 C 0.76323 0.08658 0.20181 0.0
C101 C 0.7623 0.08676 0.1272 0.0
C102 C 0.74606 0.09948 0.09207 0.0
C103 C 0.73077 0.1126 0.13098 0.0
C104 C 0.73412 0.11489 0.20485 0.0
C105 C 0.7499 0.10163 0.24013 0.0
C106 C 0.75567 0.02637 0.37209 0.0
C107 C 0.74358 0.00695 0.35523 0.0
C108 C 0.40238 0.73801 0.23767 0.0
C109 C 0.40308 0.7355 0.16328 0.0
C110 C 0.41412 0.75188 0.1222 0.0
C111 C 0.42706 0.76829 0.15531 0.0
H112 H 0.4568 0.84124 0.22278 0.0
H113 H 0.46961 0.87342 0.15471 0.0
H114 H 0.53615 0.84537 0.14642 0.0
H115 H 0.52314 0.81278 0.21587 0.0
H116 H 0.46502 0.76009 0.46338 0.0
H117 H 0.47507 0.72624 0.5288 0.0
H118 H 0.53047 0.71554 0.38526 0.0
H119 H 0.52045 0.74989 0.32017 0.0
H120 H 0.41675 0.75407 0.32833 0.0
H121 H 0.39353 0.72599 0.27065 0.0
H122 H 0.41498 0.75051 0.06476 0.0
H123 H 0.43737 0.77909 0.1224 0.0
N124 N 0.45903 0.79683 0.23403 0.0
N125 N 0.49096 0.7912 0.30597 0.0
N126 N 0.46028 0.76667 0.31323 0.0
C127 C 0.47958 0.80366 0.25634 0.0
C128 C 0.48094 0.77276 0.33534 0.0
C129 C 0.4493 0.77838 0.26238 0.0
C130 C 0.48894 0.82443 0.22454 0.0
C131 C 0.47428 0.84206 0.2076 0.0
C132 C 0.48167 0.86063 0.16889 0.0
C133 C 0.50392 0.86204 0.14504 0.0
C134 C 0.51888 0.84474 0.16388 0.0
C135 C 0.51151 0.82619 0.20401 0.0
C136 C 0.49208 0.75774 0.38716 0.0
C137 C 0.47992 0.75103 0.44767 0.0
C138 C 0.48549 0.73144 0.48446 0.0
C139 C 0.50325 0.71787 0.46128 0.0
C140 C 0.51669 0.72561 0.40453 0.0
C141 C 0.51111 0.7454 0.36762 0.0
C142 C 0.4293 0.7683 0.22975 0.0
C143 C 0.41561 0.75412 0.27072 0.0
C144 C 0.23271 0.5037 0.95088 0.0
C145 C 0.21683 0.48672 0.93688 0.0
C146 C 0.22118 0.46521 0.96421 0.0
C147 C 0.2401 0.4609 0.00543 0.0
H148 H 0.34812 0.46528 0.11105 0.0
H149 H 0.38194 0.47563 0.17607 0.0
H150 H 0.34568 0.52912 0.27809 0.0
H151 H 0.31204 0.51887 0.21165 0.0
H152 H 0.29846 0.44697 0.31678 0.0
H153 H 0.27673 0.43543 0.42035 0.0
H154 H 0.22358 0.41346 0.28084 0.0
H155 H 0.24559 0.42378 0.17877 0.0
H156 H 0.26311 0.51294 0.00561 0.0
H157 H 0.23025 0.52045 0.93017 0.0
H158 H 0.20944 0.45165 0.9567 0.0
H159 H 0.24223 0.44412 0.02644 0.0
N160 N 0.29207 0.48511 0.08634 0.0
N161 N 0.30075 0.46342 0.18829 0.0
N162 N 0.26771 0.45686 0.12642 0.0
C163 C 0.30637 0.47974 0.14107 0.0
C164 C 0.28147 0.45187 0.18135 0.0
C165 C 0.27261 0.47319 0.07849 0.0
C166 C 0.3276 0.49162 0.15489 0.0
C167 C 0.34776 0.48 0.14445 0.0
C168 C 0.36702 0.48568 0.18292 0.0
C169 C 0.36652 0.50297 0.23356 0.0
C170 C 0.34682 0.51582 0.23934 0.0
C171 C 0.32754 0.51012 0.20065 0.0
C172 C 0.27317 0.43739 0.23977 0.0
C173 C 0.28254 0.43876 0.3083 0.0
C174 C 0.27 0.43225 0.36784 0.0
C175 C 0.24786 0.42466 0.35949 0.0
C176 C 0.24035 0.4196 0.29032 0.0
C177 C 0.25294 0.42583 0.23107 0.0
C178 C 0.2554 0.47796 0.02257 0.0
C179 C 0.25179 0.49937 0.99329 0.0
C180 C 0.0093 0.20807 0.03371 0.0
C181 C 0.02214 0.20746 0.97097 0.0
C182 C 0.03483 0.22661 0.95291 0.0
C183 C 0.03499 0.24559 0.99746 0.0
H184 H 0.05817 0.33266 0.13621 0.0
H185 H 0.056 0.36977 0.18922 0.0
H186 H 0.9853 0.35966 0.22716 0.0
H187 H 0.98752 0.32368 0.16945 0.0
H188 H 0.0135 0.29589 0.35377 0.0
H189 H 1.00544 0.28184 0.47347 0.0
H190 H 0.03147 0.21716 0.41398 0.0
H191 H 0.03922 0.23098 0.29461 0.0
H192 H 1.00016 0.2261 0.12734 0.0
H193 H 0.99954 0.19368 0.05014 0.0
H194 H 0.04485 0.22681 0.90482 0.0
H195 H 0.04542 0.25976 0.98344 0.0
N196 N 0.02482 0.28586 0.10109 0.0
N197 N 0.02735 0.29364 0.22374 0.0
N198 N 0.02679 0.25663 0.18585 0.0
C199 C 0.02598 0.30099 0.15571 0.0
C200 C 0.02786 0.27166 0.23947 0.0
C201 C 0.02541 0.26338 0.11664 0.0
C202 C 0.02295 0.32536 0.14745 0.0
C203 C 0.04192 0.33914 0.15141 0.0
C204 C 0.04073 0.36019 0.1842 0.0
C205 C 0.02062 0.36771 0.21567 0.0
C206 C 1.00117 0.35489 0.20401 0.0
C207 C 1.00232 0.33415 0.16976 0.0
C208 C 0.0267 0.26437 0.31452 0.0
C209 C 0.01802 0.27881 0.36682 0.0
C210 C 0.01342 0.27087 0.43538 0.0
C211 C 0.0179 0.24852 0.45306 0.0
C212 C 0.02814 0.23461 0.40226 0.0
C213 C 0.03236 0.24241 0.33354 0.0
C214 C 0.0228 0.24561 0.06161 0.0
C215 C 0.00973 0.22672 0.0783 0.0
C216 C 0.30825 0.99634 0.97294 0.0
C217 C 0.31178 0.01477 0.92739 0.0
C218 C 0.29633 0.03268 0.9306 0.0
C219 C 0.27879 0.03265 0.981 0.0
H220 H 0.19556 0.994 0.13372 0.0
H221 H 0.15909 0.99479 0.19341 0.0
H222 H 0.1743 0.06025 0.27641 0.0
H223 H 0.21052 0.05932 0.21642 0.0
H224 H 0.24577 0.99416 0.34391 0.0
H225 H 0.2671 0.97832 0.44393 0.0
H226 H 0.32858 0.99902 0.34157 0.0
H227 H 0.30759 0.01481 0.24362 0.0
H228 H 0.28961 0.98235 0.05947 0.0
H229 H 0.31977 0.98236 0.97371 0.0
H230 H 0.29823 0.04706 0.89589 0.0
H231 H 0.26813 0.04723 0.98545 0.0
N232 N 0.24074 0.02198 0.09727 0.0
N233 N 0.24106 0.01734 0.22239 0.0
N234 N 0.27378 0.01178 0.15728 0.0
C235 C 0.22982 0.02241 0.16162 0.0
C236 C 0.26303 0.01214 0.2206 0.0
C237 C 0.26304 0.01664 0.09558 0.0
C238 C 0.20564 0.02681 0.16915 0.0
C239 C 0.19052 0.00903 0.16144 0.0
C240 C 0.16983 0.00933 0.19687 0.0
C241 C 0.16386 0.02744 0.24077 0.0
C242 C 0.17818 0.0461 0.24278 0.0
C243 C 0.1989 0.0457 0.20782 0.0
C244 C 0.27509 1.00551 0.28577 0.0
C245 C 0.26383 0.99573 0.34398 0.0
C246 C 0.27598 0.9866 0.40094 0.0
C247 C 0.29947 0.98752 0.40083 0.0
C248 C 0.31048 0.99838 0.34417 0.0
C249 C 0.29846 0.00723 0.28742 0.0
C250 C 0.27638 0.01473 0.02908 0.0
C251 C 0.29087 0.99633 0.02265 0.0
C252 C 0.51239 0.28764 0.39733 0.0
C253 C 0.52499 0.27455 0.4452 0.0
C254 C 0.53171 0.25302 0.42498 0.0
C255 C 0.52638 0.24499 0.35718 0.0
H256 H 0.5375 0.19139 0.13529 0.0
H257 H 0.53556 0.15396 0.18736 0.0
H258 H 0.46424 0.16157 0.21481 0.0
H259 H 0.46643 0.19914 0.16352 0.0
H260 H 0.48574 0.26335 0.98263 0.0
H261 H 0.48573 0.2958 0.90088 0.0
H262 H 0.53445 0.32849 0.03441 0.0
H263 H 0.53466 0.29654 0.11385 0.0
H264 H 0.49851 0.29065 0.29282 0.0
H265 H 0.5073 0.30448 0.41093 0.0
H266 H 0.54164 0.24275 0.46066 0.0
H267 H 0.53219 0.22853 0.34193 0.0
N268 N 0.50824 0.22948 0.22025 0.0
N269 N 0.50517 0.23747 0.09738 0.0
N270 N 0.51138 0.2663 0.18018 0.0
C271 C 0.50505 0.22237 0.15268 0.0
C272 C 0.50854 0.25972 0.11156 0.0
C273 C 0.51122 0.25133 0.23449 0.0
C274 C 0.50207 0.19807 0.14416 0.0
C275 C 0.52122 0.18447 0.14813 0.0
C276 C 0.52011 0.16307 0.17899 0.0
C277 C 0.49981 0.1549 0.20697 0.0
C278 C 0.48023 0.16749 0.19509 0.0
C279 C 0.48137 0.18885 0.16414 0.0
C280 C 0.51014 0.27731 0.05498 0.0
C281 C 0.49675 0.27731 0.99336 0.0
C282 C 0.4966 0.29601 0.947 0.0
C283 C 0.51012 0.31489 0.96077 0.0
C284 C 0.52405 0.31429 0.02102 0.0
C285 C 0.52403 0.29591 0.06717 0.0
C286 C 0.51488 0.25868 0.3082 0.0
C287 C 0.50758 0.27988 0.32933 0.0
Tb288 Tb 0.03054 1.00071 0.75878 0.0
Tb289 Tb 1.00169 0.01671 0.64214 0.0
C290 C 0.04272 0.97826 0.8647 0.0
C291 C 0.03365 0.95649 0.88859 0.0
C292 C 0.01837 0.95581 0.94555 0.0
C293 C 1.00471 0.93714 0.95593 0.0
C294 C 1.00609 0.91894 0.90929 0.0
C295 C 0.02259 0.91878 0.8562 0.0
C296 C 0.03651 0.93729 0.8466 0.0
C297 C 0.05284 0.0152 0.64636 0.0
C298 C 0.01045 0.96619 0.64441 0.0
C299 C 0.98502 0.03972 0.54414 0.0
C300 C 0.97826 0.06343 0.5443 0.0
C301 C 0.98898 0.07833 0.4979 0.0
C302 C 0.98561 0.10127 0.50438 0.0
C303 C 0.97105 0.1099 0.55662 0.0
C304 C 0.95973 0.09487 0.60174 0.0
C305 C 0.96339 0.07185 0.59589 0.0
C306 C 0.97971 1.00173 0.75495 0.0
C307 C 0.02236 0.05188 0.75503 0.0
O308 O 0.02845 0.9948 0.86852 0.0
O309 O 0.05381 0.97849 0.80441 0.0
O310 O 0.03492 1.00408 0.64605 0.0
O311 O 0.0598 0.01708 0.71162 0.0
O312 O 0.01682 0.96969 0.71123 0.0
O313 O 1.00633 0.9832 0.60122 0.0
O314 O 1.00657 0.03624 0.55041 0.0
O315 O 0.97324 0.02611 0.58398 0.0
O316 O 0.99729 0.01337 0.75468 0.0
O317 O 0.97322 0.99914 0.68973 0.0
O318 O 0.01193 0.04824 0.6938 0.0
O319 O 0.03028 0.03522 0.79385 0.0
H320 H 0.01589 0.97032 0.97901 0.0
H321 H 0.99219 0.93746 0.99771 0.0
H322 H 0.02423 0.90462 0.82081 0.0
H323 H 0.04853 0.93707 0.80347 0.0
H324 H 1.00078 0.07228 0.45856 0.0
H325 H 0.99518 0.11226 0.46992 0.0
H326 H 0.94832 0.10087 0.64218 0.0
H327 H 0.95506 0.06075 0.63318 0.0
Tb328 Tb 0.51967 0.02328 0.73531 0.0
Tb329 Tb 0.50575 0.99387 0.61993 0.0
C330 C 0.52834 0.0434 0.84902 0.0
C331 C 0.54736 0.0569 0.87403 0.0
C332 C 0.55807 0.05082 0.93764 0.0
C333 C 0.57729 0.06205 0.95953 0.0
C334 C 0.58605 0.07971 0.91848 0.0
C335 C 0.57491 0.08638 0.85612 0.0
C336 C 0.55578 0.07495 0.83369 0.0
C337 C 0.51776 0.04349 0.6095 0.0
C338 C 0.5573 1.00593 0.6376 0.0
C339 C 0.49713 0.97096 0.51219 0.0
C340 C 0.47873 0.95503 0.50062 0.0
C341 C 0.46418 0.9585 0.44331 0.0
C342 C 0.44363 0.9475 0.44123 0.0
C343 C 0.43729 0.93267 0.49634 0.0
C344 C 0.45287 0.9276 0.55003 0.0
C345 C 0.47337 0.93876 0.55239 0.0
C346 C 0.50694 0.97407 0.74624 0.0
C347 C 0.46783 0.01244 0.71471 0.0
O348 O 0.53257 0.02217 0.83913 0.0
O349 O 0.5161 0.05196 0.79795 0.0
O350 O 0.50413 0.02916 0.63315 0.0
O351 O 0.53232 0.04783 0.6585 0.0
O352 O 0.5529 0.01264 0.70299 0.0
O353 O 0.54089 1.00098 0.59306 0.0
O354 O 0.49094 0.99186 0.51886 0.0
O355 O 0.51206 0.96514 0.55972 0.0
O356 O 0.52107 0.98787 0.72228 0.0
O357 O 0.49218 0.97033 0.69766 0.0
O358 O 0.47242 1.00535 0.64978 0.0
O359 O 0.48411 0.0174 0.75972 0.0
H360 H 0.55185 0.037 0.96955 0.0
H361 H 0.58552 0.05675 0.0082 0.0
H362 H 0.58145 0.09988 0.82351 0.0
H363 H 0.54792 0.07992 0.7841 0.0
H364 H 0.46794 0.97099 0.40302 0.0
H365 H 0.43203 0.95217 0.39944 0.0
H366 H 0.44868 0.91603 0.59258 0.0
H367 H 0.48435 0.93564 0.59724 0.0
Tb368 Tb 0.49677 0.52314 0.77018 0.0
Tb369 Tb 0.52659 0.50904 0.64394 0.0
C370 C 0.48374 0.53972 0.88481 0.0
C371 C 0.4688 0.55856 0.90052 0.0
C372 C 0.45651 0.55879 0.96409 0.0
C373 C 0.44258 0.57691 0.97982 0.0
C374 C 0.44092 0.59508 0.93227 0.0
C375 C 0.45276 0.59447 0.86766 0.0
C376 C 0.46646 0.57627 0.85167 0.0
C377 C 0.47213 0.5182 0.65226 0.0
C378 C 0.51276 0.55893 0.65263 0.0
C379 C 0.54417 0.48805 0.54382 0.0
C380 C 0.5507 0.46425 0.54112 0.0
C381 C 0.538 0.44942 0.50019 0.0
C382 C 0.54162 0.42646 0.50533 0.0
C383 C 0.55832 0.41776 0.5506 0.0
C384 C 0.57153 0.43264 0.58994 0.0
C385 C 0.56775 0.45567 0.58534 0.0
C386 C 0.54764 0.52314 0.75946 0.0
C387 C 0.50784 0.47183 0.75373 0.0
O388 O 0.50288 0.54499 0.85449 0.0
O389 O 0.4741 0.52238 0.85535 0.0
O390 O 0.49277 0.51584 0.66142 0.0
O391 O 0.46408 0.5235 0.71393 0.0
O392 O 0.5071 0.55499 0.72013 0.0
O393 O 0.51812 0.54256 0.60843 0.0
O394 O 0.5226 0.49185 0.54772 0.0
O395 O 0.5556 0.50067 0.58737 0.0
O396 O 0.53031 0.51107 0.75767 0.0
O397 O 0.55399 0.5271 0.69456 0.0
O398 O 0.51767 0.47654 0.69202 0.0
O399 O 0.50006 0.48767 0.79621 0.0
H400 H 0.45795 0.54514 1.00199 0.0
H401 H 0.4338 0.57712 0.03032 0.0
H402 H 0.45167 0.60823 0.83003 0.0
H403 H 0.47548 0.57622 0.80162 0.0
H404 H 0.52464 0.45553 0.46629 0.0
H405 H 0.53076 0.41548 0.47539 0.0
H406 H 0.58464 0.4265 0.62472 0.0
H407 H 0.5778 0.46665 0.618 0.0
Tb408 Tb 0.00762 0.50004 0.75018 0.0
Tb409 Tb 0.02636 0.52698 0.62039 0.0
C410 C 0.98999 0.48995 0.86667 0.0
C411 C 0.97122 0.47558 0.88811 0.0
C412 C 0.95805 0.48172 0.94646 0.0
C413 C 0.9396 0.46877 0.96602 0.0
C414 C 0.93408 0.44942 0.92759 0.0
C415 C 0.94751 0.44308 0.86973 0.0
C416 C 0.96588 0.45616 0.84978 0.0
C417 C 0.01263 0.47376 0.63574 0.0
C418 C 0.97464 0.51844 0.62808 0.0
C419 C 0.05112 0.53681 0.51823 0.0
C420 C 0.07104 0.5237 0.49891 0.0
C421 C 0.07171 0.50091 0.51741 0.0
C422 C 0.09145 0.48878 0.51212 0.0
C423 C 0.1111 0.49918 0.4885 0.0
C424 C 0.11042 0.52184 0.46762 0.0
C425 C 0.09048 0.53409 0.47326 0.0
C426 C 0.0123 0.55087 0.72982 0.0
C427 C 0.05957 0.50498 0.73533 0.0
O428 O 0.98454 0.50797 0.83022 0.0
O429 O 0.00761 0.47965 0.84082 0.0
O430 O 0.01714 0.49404 0.64419 0.0
O431 O 1.00506 0.46694 0.6968 0.0
O432 O 0.97731 0.51217 0.69572 0.0
O433 O 0.99183 0.52301 0.58544 0.0
O434 O 0.03192 0.52652 0.51004 0.0
O435 O 0.05256 0.54674 0.5801 0.0
O436 O 0.02218 0.53225 0.73218 0.0
O437 O 0.01155 0.55757 0.66383 0.0
O438 O 0.05607 0.51118 0.6684 0.0
O439 O 0.04278 0.5021 0.7804 0.0
H440 H 0.96191 0.49665 0.97651 0.0
H441 H 0.92964 0.47388 0.01136 0.0
H442 H 0.9435 0.42833 0.83902 0.0
H443 H 0.97576 0.45123 0.80409 0.0
H444 H 0.05723 0.49263 0.53959 0.0
H445 H 0.09143 0.47131 0.52775 0.0
H446 H 0.12544 0.53023 0.44942 0.0
H447 H 0.09045 0.55175 0.46018 0.0
C448 C 0.1308 0.04426 0.30544 0.0
C449 C 0.14457 0.02574 0.29146 0.0
C450 C 0.11432 0.04346 0.35919 0.0
C451 C 0.11164 0.02376 0.40068 0.0
C452 C 0.12504 1.00482 0.38539 0.0
C453 C 0.14123 1.00602 0.33107 0.0
C454 C 0.10021 0.06393 0.37295 0.0
C455 C 0.12292 0.98352 0.42844 0.0
C456 C 0.08892 0.0274 0.5903 0.0
C457 C 0.06716 0.01899 0.58265 0.0
C458 C 0.10334 0.02951 0.53133 0.0
C459 C 0.09581 0.02323 0.46267 0.0
C460 C 0.07357 0.0154 0.45432 0.0
C461 C 0.05956 0.0133 0.5144 0.0
C462 C 0.12689 0.03786 0.54292 0.0
C463 C 0.06476 0.00873 0.38219 0.0
H464 H 0.13312 0.05952 0.27491 0.0
H465 H 0.15199 0.99174 0.32179 0.0
H466 H 0.08219 0.05946 0.373 0.0
H467 H 0.10417 0.07073 0.42635 0.0
H468 H 0.10306 0.07729 0.33259 0.0
H469 H 0.13372 0.96991 0.40757 0.0
H470 H 0.12766 0.98675 0.48459 0.0
H471 H 0.10531 0.97766 0.42857 0.0
H472 H 0.09489 0.03188 0.64283 0.0
H473 H 0.04275 0.00682 0.50805 0.0
H474 H 0.13029 0.05243 0.50774 0.0
H475 H 0.13904 0.02458 0.52863 0.0
H476 H 0.12992 0.04286 0.599 0.0
H477 H 0.06744 0.02244 0.34307 0.0
H478 H 0.04665 1.00456 0.38369 0.0
H479 H 0.07409 0.99393 0.36265 0.0
C480 C 0.51293 0.11641 0.24544 0.0
C481 C 0.49974 0.13547 0.25766 0.0
C482 C 0.515 0.09942 0.29748 0.0
C483 C 0.5039 0.10163 0.36389 0.0
C484 C 0.48999 0.12046 0.3755 0.0
C485 C 0.48804 0.13702 0.32241 0.0
C486 C 0.52972 0.07949 0.28235 0.0
C487 C 0.47803 0.12373 0.4456 0.0
C488 C 0.49732 0.05306 0.49596 0.0
C489 C 0.51476 0.05726 0.54402 0.0
C490 C 0.49398 0.06686 0.43566 0.0
C491 C 0.50827 0.08546 0.42363 0.0
C492 C 0.52615 0.08944 0.47146 0.0
C493 C 0.52923 0.07525 0.53061 0.0
C494 C 0.47491 0.06182 0.38567 0.0
C495 C 0.5417 0.10911 0.46137 0.0
H496 H 0.52195 0.11495 0.19555 0.0
H497 H 0.47814 0.15182 0.33324 0.0
H498 H 0.54479 0.0801 0.31677 0.0
H499 H 0.52073 0.06374 0.29516 0.0
H500 H 0.53523 0.07899 0.22584 0.0
H501 H 0.46665 0.13842 0.44454 0.0
H502 H 0.46813 0.10864 0.4595 0.0
H503 H 0.49051 0.12618 0.48862 0.0
H504 H 0.4861 0.03915 0.50591 0.0
H505 H 0.5428 0.07857 0.56736 0.0
H506 H 0.48107 0.06109 0.32995 0.0
H507 H 0.46233 0.07544 0.38819 0.0
H508 H 0.46651 0.04575 0.39893 0.0
H509 H 0.54949 0.10855 0.40777 0.0
H510 H 0.5552 0.10951 0.50199 0.0
H511 H 0.53205 0.12493 0.46464 0.0
C512 C 0.39213 0.52697 0.30876 0.0
C513 C 0.38528 0.50572 0.2859 0.0
C514 C 0.40817 0.52945 0.36329 0.0
C515 C 0.4175 0.51023 0.39658 0.0
C516 C 0.41121 0.48877 0.37207 0.0
C517 C 0.39528 0.48678 0.31726 0.0
C518 C 0.41452 0.55266 0.3871 0.0
C519 C 0.42046 0.4678 0.4062 0.0
C520 C 0.46882 0.51495 0.51842 0.0
C521 C 0.4588 0.5157 0.58594 0.0
C522 C 0.45567 0.51337 0.45609 0.0
C523 C 0.43198 0.51243 0.46151 0.0
C524 C 0.42191 0.51316 0.52982 0.0
C525 C 0.4354 0.51489 0.59083 0.0
C526 C 0.4671 0.51286 0.38445 0.0
C527 C 0.39681 0.51201 0.53864 0.0
H528 H 0.38472 0.54172 0.28463 0.0
H529 H 0.38992 0.47025 0.30119 0.0
H530 H 0.40808 0.55555 0.44173 0.0
H531 H 0.43299 0.5544 0.38911 0.0
H532 H 0.40764 0.56582 0.35131 0.0
H533 H 0.41546 0.45246 0.37714 0.0
H534 H 0.439 0.46853 0.40839 0.0
H535 H 0.41431 0.46645 0.46185 0.0
H536 H 0.48685 0.51599 0.51421 0.0
H537 H 0.42753 0.51554 0.64284 0.0
H538 H 0.46123 0.5271 0.35123 0.0
H539 H 0.46261 0.49729 0.35596 0.0
H540 H 0.48561 0.51376 0.3891 0.0
H541 H 0.38878 0.52608 0.50962 0.0
H542 H 0.39159 0.5127 0.59541 0.0
H543 H 0.39035 0.49627 0.51526 0.0
C544 C 0.03917 0.39128 0.31085 0.0
C545 C 0.0204 0.3869 0.26772 0.0
C546 C 0.0384 0.40714 0.36604 0.0
C547 C 0.01818 0.41861 0.38068 0.0
C548 C 0.9994 0.41492 0.33624 0.0
C549 C 1.00084 0.39947 0.27989 0.0
C550 C 0.05906 0.41095 0.41065 0.0
C551 C 0.97739 0.42652 0.35025 0.0
C552 C 0.00973 0.43701 0.57344 0.0
C553 C 0.01379 0.46009 0.56965 0.0
C554 C 0.01067 0.42349 0.51231 0.0
C555 C 0.01629 0.43314 0.44547 0.0
C556 C 0.0203 0.45648 0.44129 0.0
C557 C 0.01846 0.46969 0.50306 0.0
C558 C 1.00567 0.39883 0.51938 0.0
C559 C 0.02681 0.4675 0.3718 0.0
H560 H 0.05436 0.38167 0.30386 0.0
H561 H 0.98632 0.39691 0.24645 0.0
H562 H 0.06233 0.42913 0.41631 0.0
H563 H 0.0564 0.40401 0.46491 0.0
H564 H 0.07412 0.40291 0.38736 0.0
H565 H 0.96466 0.42274 0.30894 0.0
H566 H 0.97077 0.42114 0.40287 0.0
H567 H 0.97981 0.44488 0.35243 0.0
H568 H 1.00576 0.42944 0.62451 0.0
H569 H 0.02064 0.48752 0.49907 0.0
H570 H 0.02071 0.38895 0.50506 0.0
H571 H 0.99215 0.39408 0.48189 0.0
H572 H 1.00047 0.39411 0.57426 0.0
H573 H 0.04178 0.45912 0.34925 0.0
H574 H 0.03056 0.48557 0.37824 0.0
H575 H 0.01309 0.4657 0.33253 0.0
C576 C 0.89177 0.9928 0.08482 0.0
C577 C 0.87903 0.01247 0.07912 0.0
C578 C 0.90936 0.98833 0.03665 0.0
C579 C 0.9142 1.00381 0.98121 0.0
C580 C 0.90119 0.02352 0.97487 0.0
C581 C 0.88384 0.02754 0.02353 0.0
C582 C 0.92284 0.96714 0.0452 0.0
C583 C 0.90552 0.04041 0.91631 0.0
C584 C 0.96988 0.00836 0.88323 0.0
C585 C 0.96448 0.99913 0.81694 0.0
C586 C 0.95415 0.00867 0.93914 0.0
C587 C 0.93249 0.99958 0.92841 0.0
C588 C 0.92753 0.98897 0.86299 0.0
C589 C 0.94357 0.98887 0.80816 0.0
C590 C 0.96027 0.01995 0.00813 0.0
C591 C 0.90477 0.97897 0.84911 0.0
H592 H 0.88823 0.98109 0.12764 0.0
H593 H 0.8738 0.04254 0.01752 0.0
H594 H 0.92167 0.95696 0.99611 0.0
H595 H 0.94077 0.97131 0.05288 0.0
H596 H 0.91709 0.95685 0.09112 0.0
H597 H 0.894 0.05498 0.91905 0.0
H598 H 0.92298 0.04662 0.91971 0.0
H599 H 0.90355 0.03239 0.86353 0.0
H600 H 0.98606 0.01621 0.89051 0.0
H601 H 0.93938 0.9815 0.75725 0.0
H602 H 0.95522 0.00945 0.05431 0.0
H603 H 0.95112 0.03605 0.01224 0.0
H604 H 0.9785 0.0234 0.01178 0.0
H605 H 0.89956 0.96811 0.89424 0.0
H606 H 0.90444 0.96898 0.79939 0.0
H607 H 0.89221 0.99257 0.84429 0.0
C608 C 0.50312 0.90257 0.10858 0.0
C609 C 0.5105 0.88064 0.0959 0.0
C610 C 0.50549 0.91947 0.05671 0.0
C611 C 0.51538 0.91436 0.99014 0.0
C612 C 0.52428 0.89266 0.97898 0.0
C613 C 0.52178 0.87609 0.032 0.0
C614 C 0.49599 0.94238 0.07142 0.0
C615 C 0.53495 0.88644 0.90894 0.0
C616 C 0.49232 0.94447 0.82711 0.0
C617 C 0.50925 0.95991 0.81097 0.0
C618 C 0.49415 0.92978 0.88531 0.0
C619 C 0.51341 0.93049 0.92916 0.0
C620 C 0.53045 0.94636 0.91406 0.0
C621 C 0.52818 0.96091 0.85497 0.0
C622 C 0.47549 0.91327 0.89927 0.0
C623 C 0.55116 0.94775 0.95969 0.0
H624 H 0.49468 0.90632 0.15825 0.0
H625 H 0.52741 0.8592 0.02148 0.0
H626 H 0.50797 0.9556 0.05492 0.0
H627 H 0.48048 0.94481 0.03987 0.0
H628 H 0.49187 0.94464 0.12866 0.0
H629 H 0.54367 0.87005 0.91191 0.0
H630 H 0.52185 0.88545 0.86719 0.0
H631 H 0.54713 0.89941 0.89196 0.0
H632 H 0.47759 0.94367 0.79353 0.0
H633 H 0.54132 0.97282 0.84268 0.0
H634 H 0.46865 0.91571 0.95363 0.0
H635 H 0.48207 0.89594 0.89663 0.0
H636 H 0.46158 0.91496 0.86038 0.0
H637 H 0.54644 0.95016 0.01631 0.0
H638 H 0.56236 0.96165 0.94302 0.0
H639 H 0.56061 0.93182 0.95655 0.0
C640 C 0.6455 0.49426 0.02186 0.0
C641 C 0.65038 0.50901 0.07772 0.0
C642 C 0.62782 0.49835 0.9743 0.0
C643 C 0.61447 0.51776 0.98226 0.0
C644 C 0.61934 0.53287 0.03819 0.0
C645 C 0.63731 0.52839 0.08502 0.0
C646 C 0.62354 0.4819 0.91505 0.0
C647 C 0.60548 0.55369 0.04873 0.0
C648 C 0.58411 0.53496 0.81232 0.0
C649 C 0.5632 0.52463 0.82103 0.0
C650 C 0.60052 0.53388 0.8659 0.0
C651 C 0.59594 0.52226 0.93026 0.0
C652 C 0.57437 0.5129 0.94098 0.0
C653 C 0.55826 0.51416 0.8862 0.0
C654 C 0.62321 0.54408 0.8518 0.0
C655 C 0.56867 0.50054 0.00887 0.0
H656 H 0.65573 0.47946 0.01481 0.0
H657 H 0.64087 0.53983 0.12814 0.0
H658 H 0.6062 0.47537 0.91887 0.0
H659 H 0.62516 0.49041 0.86265 0.0
H660 H 0.63532 0.46752 0.91648 0.0
H661 H 0.61121 0.56364 0.09506 0.0
H662 H 0.60626 0.56436 1.00028 0.0
H663 H 0.58768 0.54908 0.05695 0.0
H664 H 0.58802 0.5432 0.76226 0.0
H665 H 0.54211 0.50621 0.89342 0.0
H666 H 0.63584 0.53058 0.84622 0.0
H667 H 0.62844 0.55464 0.89723 0.0
H668 H 0.62341 0.55443 0.80248 0.0
H669 H 0.5782 0.48462 0.01117 0.0
H670 H 0.55053 0.4966 0.01264 0.0
H671 H 0.57358 0.51054 0.05593 0.0
C672 C 0.02282 0.64223 0.03697 0.0
C673 C 1.0028 0.646 0.0744 0.0
C674 C 0.02434 0.62553 0.98449 0.0
C675 C 1.00544 0.61212 0.96881 0.0
C676 C 0.98545 0.61527 0.00814 0.0
C677 C 0.98436 0.63213 0.0601 0.0
C678 C 0.04602 0.62273 0.94417 0.0
C679 C 0.9649 0.60136 0.99348 0.0
C680 C 1.00173 0.5879 0.7815 0.0
C681 C 0.00906 0.56585 0.79194 0.0
C682 C 1.00025 0.60297 0.83863 0.0
C683 C 1.00615 0.59585 0.90829 0.0
C684 C 0.01303 0.5734 0.91944 0.0
C685 C 0.01444 0.55869 0.86115 0.0
C686 C 0.99276 0.62669 0.8241 0.0
C687 C 0.01931 0.56504 0.99273 0.0
H688 H 0.03728 0.65256 0.04804 0.0
H689 H 0.96867 0.63502 0.08755 0.0
H690 H 0.05163 0.60506 0.94675 0.0
H691 H 0.04339 0.62696 0.88716 0.0
H692 H 0.05956 0.63355 0.96531 0.0
H693 H 0.9513 0.60452 0.03254 0.0
H694 H 0.95851 0.60522 0.93931 0.0
H695 H 0.96914 0.5833 0.99483 0.0
H696 H 0.99753 0.59355 0.72819 0.0
H697 H 0.02013 0.54166 0.86962 0.0
H698 H 1.00632 0.6385 0.83852 0.0
H699 H 0.97804 0.6308 0.85759 0.0
H700 H 0.98828 0.62947 0.76732 0.0
H701 H 0.03406 0.57439 0.01248 0.0
H702 H 0.02334 0.54689 0.99313 0.0
H703 H 1.0054 0.56808 0.03065 0.0
C704 C 0.98533 0.23963 0.53047 0.0
C705 C 0.00844 0.23816 0.51803 0.0
C706 C 0.97415 0.22232 0.56649 0.0
C707 C 0.98644 0.20321 0.58776 0.0
C708 C 0.01014 0.20427 0.58918 0.0
C709 C 0.02093 0.22199 0.55447 0.0
C710 C 0.94897 0.22289 0.57064 0.0
C711 C 0.02412 0.18517 0.61734 0.0
C712 C 0.96801 0.14439 0.63333 0.0
C713 C 0.96901 0.13453 0.56549 0.0
C714 C 0.97098 0.16759 0.64152 0.0
C715 C 0.97596 0.18082 0.58094 0.0
C716 C 0.97458 0.17126 0.51202 0.0
C717 C 0.9705 0.14839 0.50538 0.0
C718 C 0.96984 0.1777 0.71491 0.0
C719 C 0.97929 0.18464 0.44501 0.0
H720 H 0.97559 0.25258 0.50436 0.0
H721 H 0.03895 0.22157 0.54755 0.0
H722 H 0.94181 0.21758 0.51891 0.0
H723 H 0.94251 0.21158 0.61295 0.0
H724 H 0.94304 0.24019 0.58101 0.0
H725 H 0.04235 0.18822 0.61098 0.0
H726 H 0.02061 0.18284 0.67481 0.0
H727 H 0.01985 0.16942 0.58945 0.0
H728 H 0.96629 0.13396 0.68037 0.0
H729 H 0.96993 0.1411 0.45268 0.0
H730 H 0.96171 0.19437 0.71303 0.0
H731 H 0.98693 0.18008 0.73632 0.0
H732 H 0.96044 0.16679 0.75247 0.0
H733 H 0.96752 0.19889 0.44066 0.0
H734 H 0.9777 0.17445 0.39595 0.0
H735 H 0.99652 0.19151 0.44676 0.0
C736 C 0.33322 0.98456 0.47708 0.0
C737 C 0.3131 0.97516 0.45382 0.0
C738 C 0.35051 0.97101 0.5026 0.0
C739 C 0.34702 0.94759 0.50861 0.0
C740 C 0.32538 0.9387 0.49747 0.0
C741 C 0.30865 0.95258 0.46878 0.0
C742 C 0.37326 0.98149 0.514 0.0
C743 C 0.32025 0.91427 0.5092 0.0
C744 C 0.40026 0.92335 0.4427 0.0
C745 C 0.41337 0.92625 0.5038 0.0
C746 C 0.37715 0.92707 0.44497 0.0
C747 C 0.36702 0.93289 0.51058 0.0
C748 C 0.37937 0.93081 0.57432 0.0
C749 C 0.40265 0.92799 0.57031 0.0
C750 C 0.36436 0.92804 0.37568 0.0
C751 C 0.36835 0.93435 0.64567 0.0
H752 H 0.33629 1.00223 0.46803 0.0
H753 H 0.29289 0.94525 0.45244 0.0
H754 H 0.37972 0.9773 0.56774 0.0
H755 H 0.38533 0.97484 0.47443 0.0
H756 H 0.37284 0.99999 0.50842 0.0
H757 H 0.30358 0.9124 0.53474 0.0
H758 H 0.31942 0.90568 0.45703 0.0
H759 H 0.33297 0.90583 0.54299 0.0
H760 H 0.40836 0.92072 0.39172 0.0
H761 H 0.41246 0.92954 0.61853 0.0
H762 H 0.3596 0.94561 0.36367 0.0
H763 H 0.34876 0.91812 0.37999 0.0
H764 H 0.37432 0.92154 0.33025 0.0
H765 H 0.36319 0.95207 0.65112 0.0
H766 H 0.37966 0.92997 0.69057 0.0
H767 H 0.35293 0.92405 0.64946 0.0
C768 C 0.51982 0.29905 0.55011 0.0
C769 C 0.53392 0.28534 0.5098 0.0
C770 C 0.52845 0.31781 0.58485 0.0
C771 C 0.55159 0.32255 0.5787 0.0
C772 C 0.56623 0.30581 0.55326 0.0
C773 C 0.55716 0.28731 0.51783 0.0
C774 C 0.51239 0.33436 0.61734 0.0
C775 C 0.5912 0.30932 0.55201 0.0
C776 C 0.55851 0.3798 0.49732 0.0
C777 C 0.56116 0.39318 0.55755 0.0
C778 C 0.55666 0.35661 0.5034 0.0
C779 C 0.55835 0.34635 0.57158 0.0
C780 C 0.56359 0.3595 0.63169 0.0
C781 C 0.56462 0.38291 0.6242 0.0
C782 C 0.55134 0.34341 0.43698 0.0
C783 C 0.56711 0.34914 0.70428 0.0
H784 H 0.50184 0.29687 0.54628 0.0
H785 H 0.56822 0.2763 0.48853 0.0
H786 H 0.51799 0.33869 0.67178 0.0
H787 H 0.51209 0.34997 0.58507 0.0
H788 H 0.49508 0.32767 0.62066 0.0
H789 H 0.60018 0.29305 0.55335 0.0
H790 H 0.59595 0.31814 0.50209 0.0
H791 H 0.59672 0.31966 0.59766 0.0
H792 H 0.55685 0.38759 0.44531 0.0
H793 H 0.56696 0.39311 0.67114 0.0
H794 H 0.53492 0.33498 0.44313 0.0
H795 H 0.56419 0.33035 0.42821 0.0
H796 H 0.5506 0.35411 0.38846 0.0
H797 H 0.55091 0.34813 0.73286 0.0
H798 H 0.5786 0.3595 0.73687 0.0
H799 H 0.57404 0.33197 0.70047 0.0
C800 C 0.23204 0.44754 0.4584 0.0
C801 C 0.23094 0.42806 0.41682 0.0
C802 C 0.2127 0.45665 0.4888 0.0
C803 C 0.19189 0.44629 0.47595 0.0
C804 C 0.19124 0.42481 0.44491 0.0
C805 C 0.21096 0.41569 0.41682 0.0
C806 C 0.21417 0.47881 0.5266 0.0
C807 C 0.16937 0.41275 0.43348 0.0
C808 C 0.13835 0.47274 0.54488 0.0
C809 C 0.13217 0.48623 0.48666 0.0
C810 C 0.15769 0.45947 0.54254 0.0
C811 C 0.17112 0.45979 0.48057 0.0
C812 C 0.16494 0.47344 0.4217 0.0
C813 C 0.1456 0.4866 0.4257 0.0
C814 C 0.16379 0.44565 0.60713 0.0
C815 C 0.17868 0.47402 0.35407 0.0
H816 H 0.24735 0.45719 0.4607 0.0
H817 H 0.21017 0.40003 0.38811 0.0
H818 H 0.20877 0.49238 0.48985 0.0
H819 H 0.20287 0.47903 0.57356 0.0
H820 H 0.23151 0.48244 0.54443 0.0
H821 H 0.17199 0.39493 0.41922 0.0
H822 H 0.1588 0.41358 0.48202 0.0
H823 H 0.16005 0.42104 0.38954 0.0
H824 H 0.12809 0.47264 0.59257 0.0
H825 H 0.14068 0.49681 0.38045 0.0
H826 H 0.17377 0.43064 0.59346 0.0
H827 H 0.14854 0.44014 0.63614 0.0
H828 H 0.1739 0.45609 0.64366 0.0
H829 H 0.19572 0.4804 0.36568 0.0
H830 H 0.17106 0.48481 0.31229 0.0
H831 H 0.18052 0.45686 0.33255 0.0
C832 C 0.94422 0.80474 0.94033 0.0
C833 C 0.92467 0.80608 0.98174 0.0
C834 C 0.95425 0.82402 0.91242 0.0
C835 C 0.94441 0.84507 0.92605 0.0
C836 C 0.9229 0.84616 0.9574 0.0
C837 C 0.91316 0.82654 0.98464 0.0
C838 C 0.97697 0.82204 0.87769 0.0
C839 C 0.91144 0.86825 0.97046 0.0
C840 C 0.98689 0.8889 0.97793 0.0
C841 C 0.98967 0.90061 0.91396 0.0
C842 C 0.97172 0.87113 0.98279 0.0
C843 C 0.95868 0.86534 0.92252 0.0
C844 C 0.96074 0.8778 0.85864 0.0
C845 C 0.97654 0.89511 0.85469 0.0
C846 C 0.97014 0.85816 0.05193 0.0
C847 C 0.94655 0.87261 0.7944 0.0
H848 H 0.95331 0.7891 0.93684 0.0
H849 H 0.89765 0.82763 0.01443 0.0
H850 H 0.97844 0.83352 0.83139 0.0
H851 H 0.99007 0.82675 0.91672 0.0
H852 H 0.98038 0.80471 0.85957 0.0
H853 H 0.8931 0.86609 0.97731 0.0
H854 H 0.91821 0.87574 0.01993 0.0
H855 H 0.91455 0.88019 0.92614 0.0
H856 H 0.99705 0.89331 0.0236 0.0
H857 H 0.97853 0.9045 0.80549 0.0
H858 H 0.97503 0.84048 0.04298 0.0
H859 H 0.95264 0.85817 0.07164 0.0
H860 H 0.98109 0.86517 0.09407 0.0
H861 H 0.95211 0.85659 0.77074 0.0
H862 H 0.94766 0.88594 0.75313 0.0
H863 H 0.92876 0.87051 0.80997 0.0
C864 C 0.68916 0.11695 0.1366 0.0
C865 C 0.70912 0.11942 0.09765 0.0
C866 C 0.66838 0.11637 0.10238 0.0
C867 C 0.6675 0.11789 0.02726 0.0
C868 C 0.68713 0.12318 0.98851 0.0
C869 C 0.70774 0.1241 0.02433 0.0
C870 C 0.64773 0.1113 0.14605 0.0
C871 C 0.68681 0.12542 0.90844 0.0
C872 C 0.62593 0.07654 0.95377 0.0
C873 C 0.60744 0.09018 0.93926 0.0
C874 C 0.64597 0.08566 0.97863 0.0
C875 C 0.6475 0.10902 0.98995 0.0
C876 C 0.6292 0.12304 0.9723 0.0
C877 C 0.60931 0.11341 0.94678 0.0
C878 C 0.66519 0.07008 0.99571 0.0
C879 C 0.63015 0.14798 0.98376 0.0
H880 H 0.6897 0.1133 0.19312 0.0
H881 H 0.72292 0.12685 0.99392 0.0
H882 H 0.63327 0.12133 0.12719 0.0
H883 H 0.64334 0.09337 0.14013 0.0
H884 H 0.6504 0.1147 0.20355 0.0
H885 H 0.70185 0.13436 0.88827 0.0
H886 H 0.68652 0.1085 0.88446 0.0
H887 H 0.67161 0.13443 0.89015 0.0
H888 H 0.62456 0.05861 0.94659 0.0
H889 H 0.59497 0.12394 0.93534 0.0
H890 H 0.6683 0.06999 0.05399 0.0
H891 H 0.68073 0.07596 0.9692 0.0
H892 H 0.66185 0.05264 0.97866 0.0
H893 H 0.62786 0.15154 0.04124 0.0
H894 H 0.61681 0.15686 0.95366 0.0
H895 H 0.64665 0.15484 0.96766 0.0
C896 C 0.38909 0.71188 0.06192 0.0
C897 C 0.39793 0.71346 0.13095 0.0
C898 C 0.39019 0.69167 0.02414 0.0
C899 C 0.4008 0.67291 0.05579 0.0
C900 C 0.4077 0.67386 0.12778 0.0
C901 C 0.40605 0.69406 0.16452 0.0
C902 C 0.38177 0.69099 0.94848 0.0
C903 C 0.41923 0.65432 0.1637 0.0
C904 C 0.40708 0.61442 0.98183 0.0
C905 C 0.42876 0.61556 0.95337 0.0
C906 C 0.39672 0.63355 0.00991 0.0
C907 C 0.40867 0.65398 0.01142 0.0
C908 C 0.43009 0.65539 0.97925 0.0
C909 C 0.43977 0.63619 0.95009 0.0
C910 C 0.37356 0.63156 0.04137 0.0
C911 C 0.44358 0.67676 0.9804 0.0
H912 H 0.3825 0.72673 0.03602 0.0
H913 H 0.41316 0.69507 0.2175 0.0
H914 H 0.39602 0.69331 0.91129 0.0
H915 H 0.37397 0.67458 0.93664 0.0
H916 H 0.36937 0.70446 0.93799 0.0
H917 H 0.42142 0.65697 0.22181 0.0
H918 H 0.40959 0.6387 0.15585 0.0
H919 H 0.436 0.65186 0.13947 0.0
H920 H 0.39845 0.59848 0.98351 0.0
H921 H 0.45658 0.63705 0.92849 0.0
H922 H 0.36347 0.64671 0.02962 0.0
H923 H 0.37482 0.62988 0.1001 0.0
H924 H 0.36461 0.61665 0.02078 0.0
H925 H 0.43361 0.69085 0.95854 0.0
H926 H 0.45932 0.6754 0.94919 0.0
H927 H 0.44794 0.68096 0.03622 0.0
C928 C 0.81868 0.39196 0.04106 0.0
C929 C 0.81737 0.39758 0.11356 0.0
C930 C 0.83892 0.39409 1.0035 0.0
C931 C 0.85821 0.40166 0.03972 0.0
C932 C 0.85777 0.40371 0.11468 0.0
C933 C 0.83735 0.40179 0.15067 0.0
C934 C 0.83895 0.39085 0.92389 0.0
C935 C 0.87817 0.41106 0.15585 0.0
C936 C 0.91511 0.41306 0.95684 0.0
C937 C 0.914 0.43632 0.94746 0.0
C938 C 0.89659 0.40103 0.98282 0.0
C939 C 0.87665 0.41266 0.99969 0.0
C940 C 0.87511 0.43595 0.98602 0.0
C941 C 0.89381 0.44746 0.96019 0.0
C942 C 0.89889 0.37623 0.99595 0.0
C943 C 0.85407 0.44902 1.00228 0.0
H944 H 0.80356 0.38774 0.01226 0.0
H945 H 0.83691 0.40604 0.20664 0.0
H946 H 0.83707 0.40735 0.89721 0.0
H947 H 0.85497 0.38342 0.90569 0.0
H948 H 0.82491 0.37998 0.90666 0.0
H949 H 0.87624 0.40799 0.21396 0.0
H950 H 0.89334 0.40219 0.13701 0.0
H951 H 0.88085 0.42924 0.14729 0.0
H952 H 0.93074 0.40441 0.9468 0.0
H953 H 0.89281 0.46537 0.95137 0.0
H954 H 0.88294 0.36732 0.98582 0.0
H955 H 0.90353 0.37331 0.05246 0.0
H956 H 0.9122 0.36885 0.96203 0.0
H957 H 0.83939 0.44108 0.97662 0.0
H958 H 0.85513 0.46666 0.98372 0.0
H959 H 0.85104 0.44901 0.06062 0.0
C960 C 0.04329 0.17761 0.90314 0.0
C961 C 0.02288 0.18637 0.92771 0.0
C962 C 0.04443 0.15637 0.87062 0.0
C963 C 0.0247 0.14347 0.86204 0.0
C964 C 1.00394 0.15269 0.88372 0.0
C965 C 1.00329 0.17388 0.91618 0.0
C966 C 0.0669 0.14739 0.84784 0.0
C967 C 0.9824 0.13982 0.87474 0.0
C968 C 0.02188 0.09352 0.73511 0.0
C969 C 0.02422 0.07527 0.78184 0.0
C970 C 0.02282 0.11569 0.75992 0.0
C971 C 0.02569 0.11996 0.83362 0.0
C972 C 0.02834 0.10156 0.88092 0.0
C973 C 0.02777 0.07952 0.85448 0.0
C974 C 0.02077 0.13455 0.70699 0.0
C975 C 0.03128 0.10513 0.95989 0.0
H976 H 0.05856 0.18695 0.91203 0.0
H977 H 0.98736 0.18056 0.93374 0.0
H978 H 0.07124 0.13253 0.8807 0.0
H979 H 0.06625 0.14187 0.79156 0.0
H980 H 0.08043 0.15999 0.85342 0.0
H981 H 0.96746 0.14998 0.88861 0.0
H982 H 0.98069 0.13402 0.81896 0.0
H983 H 0.98269 0.12474 0.90944 0.0
H984 H 0.01937 0.09048 0.67878 0.0
H985 H 0.02952 0.06558 0.89118 0.0
H986 H 0.03698 0.14351 0.70325 0.0
H987 H 0.00808 0.14668 0.72537 0.0
H988 H 0.01611 0.12864 0.65299 0.0
H989 H 0.04575 0.11631 0.96973 0.0
H990 H 0.03398 0.08918 0.98932 0.0
H991 H 0.01622 0.11347 0.9819 0.0
C992 C 0.34445 0.03588 0.8731 0.0
C993 C 0.33258 0.01575 0.88215 0.0
C994 C 0.36559 0.03636 0.83962 0.0
C995 C 0.37547 0.0162 0.81551 0.0
C996 C 0.36319 0.99602 0.82152 0.0
C997 C 0.34192 0.99609 0.85378 0.0
C998 C 0.3778 0.05836 0.83287 0.0
C999 C 0.37305 0.97404 0.79768 0.0
C1000 C 0.4264 0.01622 0.69127 0.0
C1001 C 0.44416 0.01375 0.73962 0.0
C1002 C 0.40403 0.01761 0.71514 0.0
C1003 C 0.39919 0.01587 0.78896 0.0
C1004 C 0.41708 0.01314 0.83778 0.0
C1005 C 0.43927 0.0124 0.81268 0.0
C1006 C 0.38556 0.02102 0.66144 0.0
C1007 C 0.41278 0.01065 0.91671 0.0
H1008 H 0.33772 0.0512 0.89499 0.0
H1009 H 0.33284 0.98047 0.85851 0.0
H1010 H 0.39236 0.05846 0.86951 0.0
H1011 H 0.38435 0.06059 0.77796 0.0
H1012 H 0.36688 0.07282 0.84593 0.0
H1013 H 0.36028 0.96057 0.79546 0.0
H1014 H 0.38097 0.97574 0.74451 0.0
H1015 H 0.38631 0.96885 0.83567 0.0
H1016 H 0.43001 0.0174 0.63478 0.0
H1017 H 0.45282 0.01027 0.85046 0.0
H1018 H 0.39207 0.02255 0.6062 0.0
H1019 H 0.376 0.03638 0.6744 0.0
H1020 H 0.37364 0.00682 0.66394 0.0
H1021 H 0.40387 0.0256 0.93697 0.0
H1022 H 0.42848 0.00845 0.94766 0.0
H1023 H 0.40184 0.99597 0.92666 0.0
C1024 C 0.52875 0.34811 0.90212 0.0
C1025 C 0.50917 0.33578 0.91596 0.0
C1026 C 0.52796 0.36942 0.86999 0.0
C1027 C 0.50707 0.3788 0.85023 0.0
C1028 C 0.48736 0.36593 0.86 0.0
C1029 C 0.48862 0.34465 0.89283 0.0
C1030 C 0.54945 0.38235 0.86028 0.0
C1031 C 0.46478 0.37504 0.83871 0.0
C1032 C 0.50352 0.44265 0.84992 0.0
C1033 C 0.50667 0.448 0.77769 0.0
C1034 C 0.50331 0.42027 0.87382 0.0
C1035 C 0.50589 0.40262 0.82431 0.0
C1036 C 0.50847 0.40791 0.75102 0.0
C1037 C 0.50907 0.43047 0.72873 0.0
C1038 C 0.50081 0.41555 0.95252 0.0
C1039 C 0.51059 0.38976 0.69603 0.0
H1040 H 0.5448 0.3413 0.91819 0.0
H1041 H 0.47335 0.33543 0.90334 0.0
H1042 H 0.55075 0.3889 0.80503 0.0
H1043 H 0.5495 0.39696 0.89653 0.0
H1044 H 0.56446 0.37199 0.87183 0.0
H1045 H 0.45141 0.36219 0.84263 0.0
H1046 H 0.46028 0.38922 0.87383 0.0
H1047 H 0.46531 0.38157 0.7833 0.0
H1048 H 0.50175 0.45601 0.88832 0.0
H1049 H 0.51131 0.43435 0.67269 0.0
H1050 H 0.51593 0.40676 0.97255 0.0
H1051 H 0.4863 0.40436 0.962 0.0
H1052 H 0.49843 0.43105 0.98399 0.0
H1053 H 0.524 0.37794 0.71149 0.0
H1054 H 0.5143 0.39651 0.64204 0.0
H1055 H 0.49478 0.38009 0.69362 0.0
C1056 C 0.18499 0.47415 0.85752 0.0
C1057 C 0.1952 0.49114 0.8978 0.0
C1058 C 0.16335 0.47667 0.82908 0.0
C1059 C 0.1516 0.497 0.83845 0.0
C1060 C 0.16219 0.51472 0.87534 0.0
C1061 C 0.18368 0.51153 0.90511 0.0
C1062 C 0.15264 0.457 0.79231 0.0
C1063 C 0.15052 0.53687 0.88532 0.0
C1064 C 0.10132 0.50784 0.71661 0.0
C1065 C 0.08314 0.5024 0.7611 0.0
C1066 C 0.12358 0.50644 0.74118 0.0
C1067 C 0.12796 0.4993 0.81198 0.0
C1068 C 0.10971 0.49355 0.85682 0.0
C1069 C 0.08761 0.49526 0.83107 0.0
C1070 C 0.14244 0.51257 0.69125 0.0
C1071 C 0.11353 0.4854 0.93208 0.0
H1072 H 0.19372 0.4585 0.84924 0.0
H1073 H 0.19104 0.52481 0.9363 0.0
H1074 H 0.14036 0.44911 0.82899 0.0
H1075 H 0.14337 0.46244 0.74411 0.0
H1076 H 0.16514 0.44414 0.77699 0.0
H1077 H 0.14455 0.5434 0.83325 0.0
H1078 H 0.1356 0.53455 0.91981 0.0
H1079 H 0.16159 0.54956 0.91004 0.0
H1080 H 0.09821 0.51342 0.66249 0.0
H1081 H 0.07381 0.49098 0.86604 0.0
H1082 H 0.15373 0.49801 0.68407 0.0
H1083 H 0.15257 0.52624 0.71462 0.0
H1084 H 0.13631 0.51804 0.63808 0.0
H1085 H 0.12396 0.47004 0.93149 0.0
H1086 H 0.09762 0.48163 0.96034 0.0
H1087 H 0.12282 0.49819 0.96276 0.0
C1088 C 0.01432 0.84557 0.4534 0.0
C1089 C 0.99698 0.83162 0.47796 0.0
C1090 C 0.01776 0.86701 0.48243 0.0
C1091 C 1.00337 0.87499 0.53678 0.0
C1092 C 0.98635 0.86074 0.56338 0.0
C1093 C 0.98354 0.83926 0.5344 0.0
C1094 C 0.03649 0.88139 0.45365 0.0
C1095 C 0.97066 0.86842 0.62131 0.0
C1096 C 0.01984 0.92518 0.65093 0.0
C1097 C 0.00853 0.94286 0.61715 0.0
C1098 C 0.01867 0.90315 0.62491 0.0
C1099 C 1.0055 0.89847 0.56402 0.0
C1100 C 0.99392 0.91625 0.52983 0.0
C1101 C 0.99574 0.93819 0.55632 0.0
C1102 C 0.03149 0.88491 0.66298 0.0
C1103 C 0.97937 0.91205 0.4656 0.0
H1104 H 0.02475 0.84009 0.40959 0.0
H1105 H 0.97045 0.82856 0.55536 0.0
H1106 H 0.02941 0.8963 0.42642 0.0
H1107 H 0.04709 0.88747 0.49803 0.0
H1108 H 0.04723 0.87224 0.41526 0.0
H1109 H 0.95791 0.85559 0.63496 0.0
H1110 H 0.98033 0.87244 0.66998 0.0
H1111 H 0.96193 0.88394 0.60435 0.0
H1112 H 0.03003 0.92862 0.69704 0.0
H1113 H 0.98688 0.95168 0.52981 0.0
H1114 H 0.04057 0.87426 0.62429 0.0
H1115 H 0.01963 0.87403 0.69255 0.0
H1116 H 0.04375 0.89178 0.70157 0.0
H1117 H 0.98949 0.90463 0.42216 0.0
H1118 H 0.97135 0.92759 0.44529 0.0
H1119 H 0.96606 0.89983 0.47945 0.0
C1120 C 0.67955 0.03116 0.48838 0.0
C1121 C 0.69343 0.01239 0.47986 0.0
C1122 C 0.65768 0.02916 0.51525 0.0
C1123 C 0.64931 0.00784 0.53469 0.0
C1124 C 0.66323 0.98878 0.52666 0.0
C1125 C 0.68505 0.99125 0.49888 0.0
C1126 C 0.64341 0.04991 0.52185 0.0
C1127 C 0.65504 0.96577 0.5473 0.0
C1128 C 0.59883 0.00812 0.65964 0.0
C1129 C 0.58094 1.00518 0.6121 0.0
C1130 C 0.62117 0.00826 0.6356 0.0
C1131 C 0.62584 1.00564 0.56206 0.0
C1132 C 0.60788 1.00232 0.51401 0.0
C1133 C 0.58573 1.00202 0.53957 0.0
C1134 C 0.63977 0.01169 0.68879 0.0
C1135 C 0.61201 0.99972 0.43512 0.0
H1136 H 0.68564 0.04752 0.47244 0.0
H1137 H 0.69564 0.97667 0.49266 0.0
H1138 H 0.62814 0.04819 0.48876 0.0
H1139 H 0.63788 0.05201 0.57783 0.0
H1140 H 0.65244 0.06528 0.50487 0.0
H1141 H 0.66804 0.95272 0.53949 0.0
H1142 H 0.6498 0.96562 0.60402 0.0
H1143 H 0.64014 0.96136 0.51511 0.0
H1144 H 0.59539 0.01046 0.71581 0.0
H1145 H 0.5721 0.99978 0.50222 0.0
H1146 H 0.64841 0.02774 0.67752 0.0
H1147 H 0.6524 0.99818 0.68384 0.0
H1148 H 0.63353 0.01198 0.74455 0.0
H1149 H 0.61966 0.01522 0.41341 0.0
H1150 H 0.59637 0.99627 0.40516 0.0
H1151 H 0.62399 0.98588 0.42551 0.0
C1152 C 0.48702 0.68119 0.50099 0.0
C1153 C 0.50595 0.69482 0.49132 0.0
C1154 C 0.48887 0.65928 0.5277 0.0
C1155 C 0.51018 0.65061 0.54584 0.0
C1156 C 0.5294 0.66425 0.53639 0.0
C1157 C 0.52708 0.68612 0.50875 0.0
C1158 C 0.46796 0.6453 0.5358 0.0
C1159 C 0.55239 0.65573 0.55561 0.0
C1160 C 0.51023 0.60047 0.67269 0.0
C1161 C 0.51294 0.58245 0.62573 0.0
C1162 C 0.50992 0.62272 0.64773 0.0
C1163 C 0.51219 0.62718 0.57383 0.0
C1164 C 0.51514 0.60909 0.52625 0.0
C1165 C 0.51556 0.58702 0.55271 0.0
C1166 C 0.50683 0.64145 0.70041 0.0
C1167 C 0.51733 0.61301 0.44702 0.0
H1168 H 0.47067 0.68756 0.48628 0.0
H1169 H 0.54176 0.69652 0.50157 0.0
H1170 H 0.46938 0.62996 0.50313 0.0
H1171 H 0.46596 0.6399 0.59207 0.0
H1172 H 0.45264 0.6545 0.51932 0.0
H1173 H 0.56561 0.66847 0.54624 0.0
H1174 H 0.55278 0.65065 0.61254 0.0
H1175 H 0.55639 0.64067 0.52375 0.0
H1176 H 0.5083 0.59722 0.72922 0.0
H1177 H 0.51759 0.5733 0.51577 0.0
H1178 H 0.49094 0.65041 0.68916 0.0
H1179 H 0.5206 0.65378 0.69482 0.0
H1180 H 0.50641 0.63532 0.75638 0.0
H1181 H 0.50183 0.62091 0.42626 0.0
H1182 H 0.52033 0.59726 0.41735 0.0
H1183 H 0.53133 0.62471 0.43592 0.0
C1184 C 0.84834 0.53294 0.47328 0.0
C1185 C 0.83971 0.51156 0.45944 0.0
C1186 C 0.87019 0.53574 0.50045 0.0
C1187 C 0.88392 0.51675 0.5132 0.0
C1188 C 0.87537 0.49519 0.49821 0.0
C1189 C 0.85348 0.49288 0.47185 0.0
C1190 C 0.87853 0.559 0.51619 0.0
C1191 C 0.88939 0.47447 0.50996 0.0
C1192 C 0.94764 0.52168 0.52519 0.0
C1193 C 0.9514 0.51968 0.59884 0.0
C1194 C 0.9258 0.52136 0.49676 0.0
C1195 C 0.90712 0.51918 0.54291 0.0
C1196 C 0.91078 0.51781 0.61741 0.0
C1197 C 0.93277 0.51798 0.64434 0.0
C1198 C 0.92277 0.52264 0.41702 0.0
C1199 C 0.89143 0.5156 0.66874 0.0
H1200 H 0.83785 0.54746 0.46402 0.0
H1201 H 0.84721 0.47631 0.45993 0.0
H1202 H 0.88285 0.56034 0.57349 0.0
H1203 H 0.89403 0.56242 0.48543 0.0
H1204 H 0.86595 0.57205 0.50295 0.0
H1205 H 0.88046 0.45895 0.4945 0.0
H1206 H 0.9051 0.47565 0.47861 0.0
H1207 H 0.89417 0.47309 0.56691 0.0
H1208 H 0.96181 0.52293 0.48933 0.0
H1209 H 0.93535 0.51653 0.70133 0.0
H1210 H 0.91095 0.53627 0.40297 0.0
H1211 H 0.9154 0.50678 0.39754 0.0
H1212 H 0.93882 0.52559 0.38858 0.0
H1213 H 0.88274 0.49946 0.65996 0.0
H1214 H 0.87906 0.52912 0.65913 0.0
H1215 H 0.89691 0.5163 0.72523 0.0
loop_
_geom_bond_atom_site_label_1
_geom_bond_atom_site_label_2
_geom_bond_distance
_geom_bond_site_symmetry_2
_ccdc_geom_bond_type
C0 C1 1.384 . S
C0 H13 0.947 . S
C0 C35 1.382 . S
C1 C0 1.384 . S
C1 C2 1.378 . S
C2 C1 1.378 . S
C2 C3 1.378 . S
C2 H14 0.952 . S
C3 C2 1.378 . S
C3 H15 0.950 . S
C3 C34 1.383 . S
H4 C23 0.947 . S
H5 C24 0.946 . S
H6 C26 0.953 . S
H7 C27 0.945 . S
H8 C29 0.952 . S
H9 C30 0.949 . S
H10 C32 0.950 . S
H11 C33 0.948 . S
H12 C35 0.951 . S
H13 C0 0.947 . S
H14 C2 0.952 . S
H15 C3 0.950 . S
N16 C19 1.382 . S
N16 C21 1.363 . S
N17 C19 1.371 . S
N17 C20 1.372 . S
N18 C20 1.361 . S
N18 C21 1.377 . S
C19 N16 1.382 . S
C19 N17 1.371 . S
C19 C22 1.480 . S
C20 N17 1.372 . S
C20 N18 1.361 . S
C20 C28 1.457 . S
C21 N16 1.363 . S
C21 N18 1.377 . S
C21 C34 1.479 . S
C22 C19 1.480 . S
C22 C23 1.383 . S
C22 C27 1.385 . S
C23 H4 0.947 . S
C23 C22 1.383 . S
C23 C24 1.388 . S
C24 H5 0.946 . S
C24 C23 1.388 . S
C24 C25 1.384 . S
C25 C24 1.384 . S
C25 C26 1.377 . S
C26 H6 0.953 . S
C26 C25 1.377 . S
C26 C27 1.369 . S
C27 H7 0.945 . S
C27 C22 1.385 . S
C27 C26 1.369 . S
C28 C20 1.457 . S
C28 C29 1.372 . S
C28 C33 1.364 . S
C29 H8 0.952 . S
C29 C28 1.372 . S
C29 C30 1.389 . S
C30 H9 0.949 . S
C30 C29 1.389 . S
C30 C31 1.387 . S
C31 C30 1.387 . S
C31 C32 1.372 . S
C32 H10 0.950 . S
C32 C31 1.372 . S
C32 C33 1.379 . S
C33 H11 0.948 . S
C33 C28 1.364 . S
C33 C32 1.379 . S
C34 C3 1.383 . S
C34 C21 1.479 . S
C34 C35 1.398 . S
C35 C0 1.382 . S
C35 H12 0.951 . S
C35 C34 1.398 . S
C36 C37 1.384 1_655 S
C36 H49 0.948 . S
C36 C71 1.382 1_655 S
C37 C36 1.384 1_455 S
C37 C38 1.378 . S
C38 C37 1.378 . S
C38 C39 1.378 . S
C38 H50 0.952 . S
C39 C38 1.378 . S
C39 H51 0.950 . S
C39 C70 1.383 . S
H40 C59 0.947 . S
H41 C60 0.952 . S
H42 C62 0.953 . S
H43 C63 0.945 . S
H44 C65 0.949 1_655 S
H45 C66 0.956 . S
H46 C68 0.950 . S
H47 C69 0.948 . S
H48 C71 0.951 1_655 S
H49 C36 0.948 . S
H50 C38 0.952 . S
H51 C39 0.950 . S
N52 C55 1.382 . S
N52 C57 1.363 . S
N53 C55 1.371 . S
N53 C56 1.372 . S
N54 C56 1.361 . S
N54 C57 1.377 . S
C55 N52 1.382 . S
C55 N53 1.371 . S
C55 C58 1.480 . S
C56 N53 1.372 . S
C56 N54 1.361 . S
C56 C64 1.457 . S
C57 N52 1.363 . S
C57 N54 1.377 . S
C57 C70 1.479 . S
C58 C55 1.480 . S
C58 C59 1.383 . S
C58 C63 1.385 . S
C59 H40 0.947 . S
C59 C58 1.383 . S
C59 C60 1.386 1_455 S
C60 H41 0.952 . S
C60 C59 1.386 1_655 S
C60 C61 1.381 1_655 S
C61 C60 1.381 1_455 S
C61 C62 1.377 . S
C62 H42 0.953 . S
C62 C61 1.377 . S
C62 C63 1.369 . S
C63 H43 0.945 . S
C63 C58 1.385 . S
C63 C62 1.369 . S
C64 C56 1.457 . S
C64 C65 1.376 . S
C64 C69 1.364 . S
C65 H44 0.949 1_455 S
C65 C64 1.376 . S
C65 C66 1.386 1_455 S
C66 H45 0.956 . S
C66 C65 1.386 1_655 S
C66 C67 1.383 1_655 S
C67 C66 1.383 1_455 S
C67 C68 1.372 . S
C68 H46 0.950 . S
C68 C67 1.372 . S
C68 C69 1.379 . S
C69 H47 0.948 . S
C69 C64 1.364 . S
C69 C68 1.379 . S
C70 C39 1.383 . S
C70 C57 1.479 . S
C70 C71 1.398 . S
C71 C36 1.382 1_455 S
C71 H48 0.951 1_455 S
C71 C70 1.398 . S
C72 C73 1.384 1_565 S
C72 H85 0.948 . S
C72 C107 1.382 1_565 S
C73 C72 1.384 1_545 S
C73 C74 1.378 . S
C74 C73 1.378 . S
C74 C75 1.378 . S
C74 H86 0.952 . S
C75 C74 1.378 . S
C75 H87 0.950 . S
C75 C106 1.383 . S
H76 C95 0.947 . S
H77 C96 0.952 . S
H78 C98 0.953 . S
H79 C99 0.945 . S
H80 C101 0.949 1_565 S
H81 C102 0.957 . S
H82 C104 0.950 . S
H83 C105 0.948 . S
H84 C107 0.951 1_565 S
H85 C72 0.948 . S
H86 C74 0.952 . S
H87 C75 0.950 . S
N88 C91 1.382 . S
N88 C93 1.363 . S
N89 C91 1.371 . S
N89 C92 1.372 . S
N90 C92 1.361 . S
N90 C93 1.377 . S
C91 N88 1.382 . S
C91 N89 1.371 . S
C91 C94 1.480 . S
C92 N89 1.372 . S
C92 N90 1.361 . S
C92 C100 1.457 . S
C93 N88 1.363 . S
C93 N90 1.377 . S
C93 C106 1.479 . S
C94 C91 1.480 . S
C94 C95 1.383 . S
C94 C99 1.385 . S
C95 H76 0.947 . S
C95 C94 1.383 . S
C95 C96 1.386 1_545 S
C96 H77 0.952 . S
C96 C95 1.386 1_565 S
C96 C97 1.382 1_565 S
C97 C96 1.382 1_545 S
C97 C98 1.377 . S
C98 H78 0.953 . S
C98 C97 1.377 . S
C98 C99 1.369 . S
C99 H79 0.945 . S
C99 C94 1.385 . S
C99 C98 1.369 . S
C100 C92 1.457 . S
C100 C101 1.376 . S
C100 C105 1.364 . S
C101 H80 0.949 1_545 S
C101 C100 1.376 . S
C101 C102 1.386 1_545 S
C102 H81 0.957 . S
C102 C101 1.386 1_565 S
C102 C103 1.383 1_565 S
C103 C102 1.383 1_545 S
C103 C104 1.372 . S
C104 H82 0.950 . S
C104 C103 1.372 . S
C104 C105 1.379 . S
C105 H83 0.948 . S
C105 C100 1.364 . S
C105 C104 1.379 . S
C106 C75 1.383 . S
C106 C93 1.479 . S
C106 C107 1.398 . S
C107 C72 1.382 1_545 S
C107 H84 0.951 1_545 S
C107 C106 1.398 . S
C108 C109 1.384 . S
C108 H121 0.947 . S
C108 C143 1.382 . S
C109 C108 1.384 . S
C109 C110 1.378 . S
C110 C109 1.378 . S
C110 C111 1.378 . S
C110 H122 0.952 . S
C111 C110 1.378 . S
C111 H123 0.950 . S
C111 C142 1.383 . S
H112 C131 0.947 . S
H113 C132 0.946 . S
H114 C134 0.953 . S
H115 C135 0.945 . S
H116 C137 0.952 . S
H117 C138 0.949 . S
H118 C140 0.950 . S
H119 C141 0.948 . S
H120 C143 0.951 . S
H121 C108 0.947 . S
H122 C110 0.952 . S
H123 C111 0.950 . S
N124 C127 1.382 . S
N124 C129 1.363 . S
N125 C127 1.371 . S
N125 C128 1.372 . S
N126 C128 1.361 . S
N126 C129 1.377 . S
C127 N124 1.382 . S
C127 N125 1.371 . S
C127 C130 1.480 . S
C128 N125 1.372 . S
C128 N126 1.361 . S
C128 C136 1.457 . S
C129 N124 1.363 . S
C129 N126 1.377 . S
C129 C142 1.479 . S
C130 C127 1.480 . S
C130 C131 1.383 . S
C130 C135 1.385 . S
C131 H112 0.947 . S
C131 C130 1.383 . S
C131 C132 1.388 . S
C132 H113 0.946 . S
C132 C131 1.388 . S
C132 C133 1.384 . S
C133 C132 1.384 . S
C133 C134 1.377 . S
C134 H114 0.953 . S
C134 C133 1.377 . S
C134 C135 1.369 . S
C135 H115 0.945 . S
C135 C130 1.385 . S
C135 C134 1.369 . S
C136 C128 1.457 . S
C136 C137 1.372 . S
C136 C141 1.364 . S
C137 H116 0.952 . S
C137 C136 1.372 . S
C137 C138 1.389 . S
C138 H117 0.949 . S
C138 C137 1.389 . S
C138 C139 1.387 . S
C139 C138 1.387 . S
C139 C140 1.372 . S
C140 H118 0.950 . S
C140 C139 1.372 . S
C140 C141 1.379 . S
C141 H119 0.948 . S
C141 C136 1.364 . S
C141 C140 1.379 . S
C142 C111 1.383 . S
C142 C129 1.479 . S
C142 C143 1.398 . S
C143 C108 1.382 . S
C143 H120 0.951 . S
C143 C142 1.398 . S
C144 C145 1.384 . S
C144 H157 0.947 . S
C144 C179 1.382 . S
C145 C144 1.384 . S
C145 C146 1.378 . S
C146 C145 1.378 . S
C146 C147 1.378 . S
C146 H158 0.952 . S
C147 C146 1.378 . S
C147 H159 0.950 . S
C147 C178 1.383 . S
H148 C167 0.947 1_556 S
H149 C168 0.946 . S
H150 C170 0.953 . S
H151 C171 0.945 . S
H152 C173 0.952 . S
H153 C174 0.949 . S
H154 C176 0.950 . S
H155 C177 0.948 . S
H156 C179 0.951 . S
H157 C144 0.947 . S
H158 C146 0.952 . S
H159 C147 0.950 . S
N160 C163 1.382 . S
N160 C165 1.363 1_554 S
N161 C163 1.371 . S
N161 C164 1.372 . S
N162 C164 1.361 . S
N162 C165 1.377 1_554 S
C163 N160 1.382 . S
C163 N161 1.371 . S
C163 C166 1.480 . S
C164 N161 1.372 . S
C164 N162 1.361 . S
C164 C172 1.457 . S
C165 N160 1.363 1_556 S
C165 N162 1.377 1_556 S
C165 C178 1.479 . S
C166 C163 1.480 . S
C166 C167 1.383 . S
C166 C171 1.385 . S
C167 H148 0.947 1_554 S
C167 C166 1.383 . S
C167 C168 1.388 . S
C168 H149 0.946 . S
C168 C167 1.388 . S
C168 C169 1.384 . S
C169 C168 1.384 . S
C169 C170 1.377 . S
C170 H150 0.953 . S
C170 C169 1.377 . S
C170 C171 1.369 . S
C171 H151 0.945 . S
C171 C166 1.385 . S
C171 C170 1.369 . S
C172 C164 1.457 . S
C172 C173 1.372 . S
C172 C177 1.364 . S
C173 H152 0.952 . S
C173 C172 1.372 . S
C173 C174 1.389 . S
C174 H153 0.949 . S
C174 C173 1.389 . S
C174 C175 1.387 . S
C175 C174 1.387 . S
C175 C176 1.372 . S
C176 H154 0.950 . S
C176 C175 1.372 . S
C176 C177 1.379 . S
C177 H155 0.948 . S
C177 C172 1.364 . S
C177 C176 1.379 . S
C178 C147 1.383 . S
C178 C165 1.479 . S
C178 C179 1.398 . S
C179 C144 1.382 . S
C179 H156 0.951 . S
C179 C178 1.398 . S
C180 C181 1.384 . S
C180 H193 0.948 1_455 S
C180 C215 1.382 . S
C181 C180 1.384 . S
C181 C182 1.378 . S
C182 C181 1.378 . S
C182 C183 1.378 . S
C182 H194 0.952 . S
C183 C182 1.378 . S
C183 H195 0.950 . S
C183 C214 1.383 . S
H184 C203 0.947 1_556 S
H185 C204 0.949 . S
H186 C206 0.953 . S
H187 C207 0.945 . S
H188 C209 0.947 1_655 S
H189 C210 0.954 . S
H190 C212 0.950 . S
H191 C213 0.948 . S
H192 C215 0.950 1_655 S
H193 C180 0.948 1_655 S
H194 C182 0.952 . S
H195 C183 0.950 . S
N196 C199 1.382 . S
N196 C201 1.363 1_554 S
N197 C199 1.371 . S
N197 C200 1.372 . S
N198 C200 1.361 . S
N198 C201 1.377 1_554 S
C199 N196 1.382 . S
C199 N197 1.371 . S
C199 C202 1.480 . S
C200 N197 1.372 . S
C200 N198 1.361 . S
C200 C208 1.457 . S
C201 N196 1.363 1_556 S
C201 N198 1.377 1_556 S
C201 C214 1.479 . S
C202 C199 1.480 . S
C202 C203 1.383 . S
C202 C207 1.385 . S
C203 H184 0.947 1_554 S
C203 C202 1.383 . S
C203 C204 1.387 1_455 S
C204 H185 0.949 . S
C204 C203 1.387 1_655 S
C204 C205 1.382 1_655 S
C205 C204 1.382 1_455 S
C205 C206 1.377 . S
C206 H186 0.953 . S
C206 C205 1.377 . S
C206 C207 1.369 . S
C207 H187 0.945 . S
C207 C202 1.385 . S
C207 C206 1.369 . S
C208 C200 1.457 . S
C208 C209 1.379 . S
C208 C213 1.364 . S
C209 H188 0.947 1_455 S
C209 C208 1.379 . S
C209 C210 1.387 1_455 S
C210 H189 0.954 . S
C210 C209 1.387 1_655 S
C210 C211 1.384 1_655 S
C211 C210 1.384 1_455 S
C211 C212 1.372 . S
C212 H190 0.950 . S
C212 C211 1.372 . S
C212 C213 1.379 . S
C213 H191 0.948 . S
C213 C208 1.364 . S
C213 C212 1.379 . S
C214 C183 1.383 . S
C214 C201 1.479 . S
C214 C215 1.399 . S
C215 C180 1.382 . S
C215 H192 0.950 1_455 S
C215 C214 1.399 . S
C216 C217 1.384 . S
C216 H229 0.948 1_545 S
C216 C251 1.382 . S
C217 C216 1.384 . S
C217 C218 1.378 . S
C218 C217 1.378 . S
C218 C219 1.378 . S
C218 H230 0.952 . S
C219 C218 1.378 . S
C219 H231 0.950 . S
C219 C250 1.383 . S
H220 C239 0.947 1_556 S
H221 C240 0.949 . S
H222 C242 0.953 . S
H223 C243 0.945 . S
H224 C245 0.947 1_565 S
H225 C246 0.954 . S
H226 C248 0.950 . S
H227 C249 0.948 . S
H228 C251 0.950 1_565 S
H229 C216 0.948 1_565 S
H230 C218 0.952 . S
H231 C219 0.950 . S
N232 C235 1.382 . S
N232 C237 1.363 1_554 S
N233 C235 1.371 . S
N233 C236 1.372 . S
N234 C236 1.361 . S
N234 C237 1.377 1_554 S
C235 N232 1.382 . S
C235 N233 1.371 . S
C235 C238 1.480 . S
C236 N233 1.372 . S
C236 N234 1.361 . S
C236 C244 1.457 . S
C237 N232 1.363 1_556 S
C237 N234 1.377 1_556 S
C237 C250 1.479 . S
C238 C235 1.480 . S
C238 C239 1.383 . S
C238 C243 1.385 . S
C239 H220 0.947 1_554 S
C239 C238 1.383 . S
C239 C240 1.387 1_545 S
C240 H221 0.949 . S
C240 C239 1.387 1_565 S
C240 C241 1.382 1_565 S
C241 C240 1.382 1_545 S
C241 C242 1.377 . S
C242 H222 0.953 . S
C242 C241 1.377 . S
C242 C243 1.369 . S
C243 H223 0.945 . S
C243 C238 1.385 . S
C243 C242 1.369 . S
C244 C236 1.457 . S
C244 C245 1.379 . S
C244 C249 1.364 . S
C245 H224 0.947 1_545 S
C245 C244 1.379 . S
C245 C246 1.387 1_545 S
C246 H225 0.954 . S
C246 C245 1.387 1_565 S
C246 C247 1.384 1_565 S
C247 C246 1.384 1_545 S
C247 C248 1.372 . S
C248 H226 0.950 . S
C248 C247 1.372 . S
C248 C249 1.379 . S
C249 H227 0.948 . S
C249 C244 1.364 . S
C249 C248 1.379 . S
C250 C219 1.383 . S
C250 C237 1.479 . S
C250 C251 1.399 . S
C251 C216 1.382 . S
C251 H228 0.950 1_545 S
C251 C250 1.399 . S
C252 C253 1.384 . S
C252 H265 0.947 . S
C252 C287 1.382 . S
C253 C252 1.384 . S
C253 C254 1.378 . S
C254 C253 1.378 . S
C254 C255 1.378 . S
C254 H266 0.952 . S
C255 C254 1.378 . S
C255 H267 0.950 . S
C255 C286 1.383 . S
H256 C275 0.947 . S
H257 C276 0.946 . S
H258 C278 0.953 . S
H259 C279 0.945 1_556 S
H260 C281 0.952 . S
H261 C282 0.949 . S
H262 C284 0.950 . S
H263 C285 0.948 . S
H264 C287 0.951 . S
H265 C252 0.947 . S
H266 C254 0.952 . S
H267 C255 0.950 . S
N268 C271 1.382 . S
N268 C273 1.363 . S
N269 C271 1.371 1_556 S
N269 C272 1.372 . S
N270 C272 1.361 1_554 S
N270 C273 1.377 . S
C271 N268 1.382 . S
C271 N269 1.371 1_554 S
C271 C274 1.480 . S
C272 N269 1.372 . S
C272 N270 1.361 1_556 S
C272 C280 1.457 . S
C273 N268 1.363 . S
C273 N270 1.377 . S
C273 C286 1.479 . S
C274 C271 1.480 . S
C274 C275 1.383 . S
C274 C279 1.385 . S
C275 H256 0.947 . S
C275 C274 1.383 . S
C275 C276 1.388 . S
C276 H257 0.946 . S
C276 C275 1.388 . S
C276 C277 1.384 . S
C277 C276 1.384 . S
C277 C278 1.377 . S
C278 H258 0.953 . S
C278 C277 1.377 . S
C278 C279 1.369 . S
C279 H259 0.945 1_554 S
C279 C274 1.385 . S
C279 C278 1.369 . S
C280 C272 1.457 . S
C280 C281 1.372 . S
C280 C285 1.364 . S
C281 H260 0.952 . S
C281 C280 1.372 . S
C281 C282 1.389 . S
C282 H261 0.949 . S
C282 C281 1.389 . S
C282 C283 1.387 . S
C283 C282 1.387 . S
C283 C284 1.372 . S
C284 H262 0.950 . S
C284 C283 1.372 . S
C284 C285 1.379 . S
C285 H263 0.948 . S
C285 C280 1.364 . S
C285 C284 1.379 . S
C286 C255 1.383 . S
C286 C273 1.479 . S
C286 C287 1.398 . S
C287 C252 1.382 . S
C287 H264 0.951 . S
C287 C286 1.398 . S
Tb288 C290 2.809 . S
Tb288 O308 2.484 . S
Tb288 O309 2.440 . S
Tb288 O310 2.658 1_565 S
Tb288 O311 2.409 . S
Tb288 O312 2.378 . S
Tb288 O316 2.325 1_455 S
Tb288 O319 2.341 1_565 S
Tb289 C299 2.809 . S
Tb289 O310 2.325 1_655 S
Tb289 O313 2.341 1_545 S
Tb289 O314 2.484 . S
Tb289 O315 2.440 . S
Tb289 O316 2.658 1_545 S
Tb289 O317 2.409 . S
Tb289 O318 2.378 . S
C290 Tb288 2.809 . S
C290 C291 1.514 . S
C290 O308 1.248 . S
C290 O309 1.266 . S
C291 C290 1.514 . S
C291 C292 1.359 . S
C291 C296 1.348 . S
C292 C291 1.359 . S
C292 C293 1.380 . S
C292 H320 0.929 1_455 S
C293 C292 1.380 . S
C293 C294 1.347 . S
C293 H321 0.931 1_455 S
C294 C293 1.347 . S
C294 C295 1.369 . S
C295 C294 1.369 . S
C295 C296 1.408 . S
C295 H322 0.930 . S
C296 C291 1.348 . S
C296 C295 1.408 . S
C296 H323 0.930 . S
C297 O310 1.281 1_565 S
C297 O311 1.254 . S
C298 O312 1.236 1_655 S
C298 O313 1.266 . S
C299 Tb289 2.809 . S
C299 C300 1.514 . S
C299 O314 1.248 . S
C299 O315 1.266 . S
C300 C299 1.514 . S
C300 C301 1.359 . S
C300 C305 1.348 . S
C301 C300 1.359 . S
C301 C302 1.380 . S
C301 H324 0.929 1_655 S
C302 C301 1.380 . S
C302 C303 1.347 . S
C302 H325 0.931 1_655 S
C303 C302 1.347 . S
C303 C304 1.369 . S
C304 C303 1.369 . S
C304 C305 1.408 . S
C304 H326 0.930 . S
C305 C300 1.348 . S
C305 C304 1.408 . S
C305 H327 0.930 . S
C306 O316 1.281 1_545 S
C306 O317 1.254 . S
C307 O318 1.236 1_455 S
C307 O319 1.266 . S
O308 Tb288 2.484 . S
O308 C290 1.248 . S
O309 Tb288 2.440 . S
O309 C290 1.266 . S
O310 Tb288 2.658 1_545 S
O310 Tb289 2.325 1_455 S
O310 C297 1.281 1_545 S
O311 Tb288 2.409 . S
O311 C297 1.254 . S
O312 Tb288 2.378 . S
O312 C298 1.236 1_455 S
O313 Tb289 2.341 1_565 S
O313 C298 1.266 . S
O314 Tb289 2.484 . S
O314 C299 1.248 . S
O315 Tb289 2.440 . S
O315 C299 1.266 . S
O316 Tb288 2.325 1_655 S
O316 Tb289 2.658 1_565 S
O316 C306 1.281 1_565 S
O317 Tb289 2.409 . S
O317 C306 1.254 . S
O318 Tb289 2.378 . S
O318 C307 1.236 1_655 S
O319 Tb288 2.341 1_545 S
O319 C307 1.266 . S
H320 C292 0.929 1_655 S
H321 C293 0.931 1_655 S
H322 C295 0.930 . S
H323 C296 0.930 . S
H324 C301 0.929 1_455 S
H325 C302 0.931 1_455 S
H326 C304 0.930 . S
H327 C305 0.930 . S
Tb328 C330 2.809 . S
Tb328 O348 2.484 . S
Tb328 O349 2.440 . S
Tb328 O350 2.658 . S
Tb328 O351 2.409 . S
Tb328 O352 2.378 . S
Tb328 O356 2.325 1_545 S
Tb328 O359 2.341 . S
Tb329 C339 2.809 . S
Tb329 O350 2.325 1_565 S
Tb329 O353 2.341 . S
Tb329 O354 2.484 . S
Tb329 O355 2.440 . S
Tb329 O356 2.658 . S
Tb329 O357 2.409 . S
Tb329 O358 2.378 . S
C330 Tb328 2.809 . S
C330 C331 1.514 . S
C330 O348 1.248 . S
C330 O349 1.266 . S
C331 C330 1.514 . S
C331 C332 1.359 . S
C331 C336 1.348 . S
C332 C331 1.359 . S
C332 C333 1.380 . S
C332 H360 0.929 1_545 S
C333 C332 1.380 . S
C333 C334 1.347 . S
C333 H361 0.931 1_545 S
C334 C333 1.347 . S
C334 C335 1.369 . S
C335 C334 1.369 . S
C335 C336 1.408 . S
C335 H362 0.930 . S
C336 C331 1.348 . S
C336 C335 1.408 . S
C336 H363 0.930 . S
C337 O350 1.281 . S
C337 O351 1.254 . S
C338 O352 1.236 1_565 S
C338 O353 1.266 . S
C339 Tb329 2.809 . S
C339 C340 1.514 . S
C339 O354 1.248 . S
C339 O355 1.266 . S
C340 C339 1.514 . S
C340 C341 1.359 . S
C340 C345 1.348 . S
C341 C340 1.359 . S
C341 C342 1.380 . S
C341 H364 0.929 1_565 S
C342 C341 1.380 . S
C342 C343 1.347 . S
C342 H365 0.931 1_565 S
C343 C342 1.347 . S
C343 C344 1.369 . S
C344 C343 1.369 . S
C344 C345 1.408 . S
C344 H366 0.930 . S
C345 C340 1.348 . S
C345 C344 1.408 . S
C345 H367 0.930 . S
C346 O356 1.281 . S
C346 O357 1.254 . S
C347 O358 1.236 1_545 S
C347 O359 1.266 . S
O348 Tb328 2.484 . S
O348 C330 1.248 . S
O349 Tb328 2.440 . S
O349 C330 1.266 . S
O350 Tb328 2.658 . S
O350 Tb329 2.325 1_545 S
O350 C337 1.281 . S
O351 Tb328 2.409 . S
O351 C337 1.254 . S
O352 Tb328 2.378 . S
O352 C338 1.236 1_545 S
O353 Tb329 2.341 . S
O353 C338 1.266 . S
O354 Tb329 2.484 . S
O354 C339 1.248 . S
O355 Tb329 2.440 . S
O355 C339 1.266 . S
O356 Tb328 2.325 1_565 S
O356 Tb329 2.658 . S
O356 C346 1.281 . S
O357 Tb329 2.409 . S
O357 C346 1.254 . S
O358 Tb329 2.378 . S
O358 C347 1.236 1_565 S
O359 Tb328 2.341 . S
O359 C347 1.266 . S
H360 C332 0.929 1_565 S
H361 C333 0.931 1_565 S
H362 C335 0.930 . S
H363 C336 0.930 . S
H364 C341 0.929 1_545 S
H365 C342 0.931 1_545 S
H366 C344 0.930 . S
H367 C345 0.930 . S
Tb368 C370 2.809 . S
Tb368 O388 2.484 . S
Tb368 O389 2.440 . S
Tb368 O390 2.658 . S
Tb368 O391 2.409 . S
Tb368 O392 2.378 . S
Tb368 O396 2.325 . S
Tb368 O399 2.341 . S
Tb369 C379 2.809 . S
Tb369 O390 2.325 . S
Tb369 O393 2.341 . S
Tb369 O394 2.484 . S
Tb369 O395 2.440 . S
Tb369 O396 2.658 . S
Tb369 O397 2.409 . S
Tb369 O398 2.378 . S
C370 Tb368 2.809 . S
C370 C371 1.514 . S
C370 O388 1.248 . S
C370 O389 1.266 . S
C371 C370 1.514 . S
C371 C372 1.359 . S
C371 C376 1.348 . S
C372 C371 1.359 . S
C372 C373 1.380 . S
C372 H400 0.929 . S
C373 C372 1.380 . S
C373 C374 1.347 . S
C373 H401 0.931 . S
C374 C373 1.347 . S
C374 C375 1.369 . S
C375 C374 1.369 . S
C375 C376 1.408 . S
C375 H402 0.930 . S
C376 C371 1.348 . S
C376 C375 1.408 . S
C376 H403 0.930 . S
C377 O390 1.281 . S
C377 O391 1.254 . S
C378 O392 1.236 . S
C378 O393 1.266 . S
C379 Tb369 2.809 . S
C379 C380 1.514 . S
C379 O394 1.248 . S
C379 O395 1.266 . S
C380 C379 1.514 . S
C380 C381 1.359 . S
C380 C385 1.348 . S
C381 C380 1.359 . S
C381 C382 1.380 . S
C381 H404 0.929 . S
C382 C381 1.380 . S
C382 C383 1.347 . S
C382 H405 0.931 . S
C383 C382 1.347 . S
C383 C384 1.369 . S
C384 C383 1.369 . S
C384 C385 1.408 . S
C384 H406 0.930 . S
C385 C380 1.348 . S
C385 C384 1.408 . S
C385 H407 0.930 . S
C386 O396 1.281 . S
C386 O397 1.254 . S
C387 O398 1.236 . S
C387 O399 1.266 . S
O388 Tb368 2.484 . S
O388 C370 1.248 . S
O389 Tb368 2.440 . S
O389 C370 1.266 . S
O390 Tb368 2.658 . S
O390 Tb369 2.325 . S
O390 C377 1.281 . S
O391 Tb368 2.409 . S
O391 C377 1.254 . S
O392 Tb368 2.378 . S
O392 C378 1.236 . S
O393 Tb369 2.341 . S
O393 C378 1.266 . S
O394 Tb369 2.484 . S
O394 C379 1.248 . S
O395 Tb369 2.440 . S
O395 C379 1.266 . S
O396 Tb368 2.325 . S
O396 Tb369 2.658 . S
O396 C386 1.281 . S
O397 Tb369 2.409 . S
O397 C386 1.254 . S
O398 Tb369 2.378 . S
O398 C387 1.236 . S
O399 Tb368 2.341 . S
O399 C387 1.266 . S
H400 C372 0.929 . S
H401 C373 0.931 . S
H402 C375 0.930 . S
H403 C376 0.930 . S
H404 C381 0.929 . S
H405 C382 0.931 . S
H406 C384 0.930 . S
H407 C385 0.930 . S
Tb408 C410 2.809 . S
Tb408 O428 2.484 . S
Tb408 O429 2.440 . S
Tb408 O430 2.658 1_655 S
Tb408 O431 2.409 . S
Tb408 O432 2.378 . S
Tb408 O436 2.325 . S
Tb408 O439 2.341 1_655 S
Tb409 C419 2.809 . S
Tb409 O430 2.325 . S
Tb409 O433 2.341 1_455 S
Tb409 O434 2.484 . S
Tb409 O435 2.440 . S
Tb409 O436 2.658 1_455 S
Tb409 O437 2.409 . S
Tb409 O438 2.378 . S
C410 Tb408 2.809 . S
C410 C411 1.514 . S
C410 O428 1.248 . S
C410 O429 1.266 . S
C411 C410 1.514 . S
C411 C412 1.359 . S
C411 C416 1.348 . S
C412 C411 1.359 . S
C412 C413 1.380 . S
C412 H440 0.929 . S
C413 C412 1.380 . S
C413 C414 1.347 . S
C413 H441 0.931 . S
C414 C413 1.347 . S
C414 C415 1.369 . S
C415 C414 1.369 . S
C415 C416 1.408 . S
C415 H442 0.930 . S
C416 C411 1.348 . S
C416 C415 1.408 . S
C416 H443 0.930 . S
C417 O430 1.276 1_655 S
C417 O431 1.260 . S
C418 O432 1.236 . S
C418 O433 1.266 . S
C419 Tb409 2.809 . S
C419 C420 1.514 . S
C419 O434 1.248 . S
C419 O435 1.266 . S
C420 C419 1.514 . S
C420 C421 1.359 . S
C420 C425 1.348 . S
C421 C420 1.359 . S
C421 C422 1.380 . S
C421 H444 0.929 . S
C422 C421 1.380 . S
C422 C423 1.347 . S
C422 H445 0.931 . S
C423 C422 1.347 . S
C423 C424 1.369 . S
C424 C423 1.369 . S
C424 C425 1.408 . S
C424 H446 0.930 . S
C425 C420 1.348 . S
C425 C424 1.408 . S
C425 H447 0.930 . S
C426 O436 1.272 1_455 S
C426 O437 1.266 . S
C427 O438 1.236 . S
C427 O439 1.266 . S
O428 Tb408 2.484 . S
O428 C410 1.248 . S
O429 Tb408 2.440 . S
O429 C410 1.266 . S
O430 Tb408 2.658 1_455 S
O430 Tb409 2.325 . S
O430 C417 1.276 1_455 S
O431 Tb408 2.409 . S
O431 C417 1.260 . S
O432 Tb408 2.378 . S
O432 C418 1.236 . S
O433 Tb409 2.341 1_655 S
O433 C418 1.266 . S
O434 Tb409 2.484 . S
O434 C419 1.248 . S
O435 Tb409 2.440 . S
O435 C419 1.266 . S
O436 Tb408 2.325 . S
O436 Tb409 2.658 1_655 S
O436 C426 1.272 1_655 S
O437 Tb409 2.409 . S
O437 C426 1.266 . S
O438 Tb409 2.378 . S
O438 C427 1.236 . S
O439 Tb408 2.341 1_455 S
O439 C427 1.266 . S
H440 C412 0.929 . S
H441 C413 0.931 . S
H442 C415 0.930 . S
H443 C416 0.930 . S
H444 C421 0.929 . S
H445 C422 0.931 . S
H446 C424 0.930 . S
H447 C425 0.930 . S
C448 C449 1.391 1_545 S
C448 C450 1.394 . S
C448 H464 0.931 . S
C449 C448 1.391 1_565 S
C449 C453 1.376 . S
C450 C448 1.394 . S
C450 C451 1.369 1_545 S
C450 C454 1.531 . S
C451 C450 1.369 1_565 S
C451 C452 1.410 . S
C451 C459 1.503 . S
C452 C451 1.410 . S
C452 C453 1.392 . S
C452 C455 1.511 . S
C453 C449 1.376 . S
C453 C452 1.392 . S
C453 H465 0.929 . S
C454 C450 1.531 . S
C454 H466 0.960 . S
C454 H467 0.962 . S
C454 H468 0.960 . S
C455 C452 1.511 . S
C455 H469 0.961 . S
C455 H470 0.961 . S
C455 H471 0.961 . S
C456 C457 1.365 1_545 S
C456 C458 1.363 . S
C456 H472 0.931 . S
C457 C456 1.365 1_565 S
C457 C461 1.414 . S
C458 C456 1.363 . S
C458 C459 1.370 1_545 S
C458 C462 1.524 . S
C459 C451 1.503 . S
C459 C458 1.370 1_565 S
C459 C460 1.403 . S
C460 C459 1.403 . S
C460 C461 1.404 . S
C460 C463 1.539 . S
C461 C457 1.414 . S
C461 C460 1.404 . S
C461 H473 0.930 . S
C462 C458 1.524 . S
C462 H474 0.956 . S
C462 H475 0.961 . S
C462 H476 0.961 . S
C463 C460 1.539 . S
C463 H477 0.958 . S
C463 H478 0.961 . S
C463 H479 0.960 . S
H464 C448 0.931 . S
H465 C453 0.929 . S
H466 C454 0.960 . S
H467 C454 0.962 . S
H468 C454 0.960 . S
H469 C455 0.961 . S
H470 C455 0.961 . S
H471 C455 0.961 . S
H472 C456 0.931 . S
H473 C461 0.930 . S
H474 C462 0.956 . S
H475 C462 0.961 . S
H476 C462 0.961 . S
H477 C463 0.958 . S
H478 C463 0.961 . S
H479 C463 0.960 . S
C480 C481 1.391 . S
C480 C482 1.394 . S
C480 H496 0.931 . S
C481 C480 1.391 . S
C481 C485 1.376 . S
C482 C480 1.394 . S
C482 C483 1.369 . S
C482 C486 1.531 . S
C483 C482 1.369 . S
C483 C484 1.410 . S
C483 C491 1.503 . S
C484 C483 1.410 . S
C484 C485 1.392 . S
C484 C487 1.511 . S
C485 C481 1.376 . S
C485 C484 1.392 . S
C485 H497 0.929 . S
C486 C482 1.531 . S
C486 H498 0.960 . S
C486 H499 0.962 . S
C486 H500 0.960 . S
C487 C484 1.511 . S
C487 H501 0.961 . S
C487 H502 0.961 . S
C487 H503 0.961 . S
C488 C489 1.370 . S
C488 C490 1.363 . S
C488 H504 0.931 . S
C489 C488 1.370 . S
C489 C493 1.408 . S
C490 C488 1.363 . S
C490 C491 1.370 . S
C490 C494 1.524 . S
C491 C483 1.503 . S
C491 C490 1.370 . S
C491 C492 1.403 . S
C492 C491 1.403 . S
C492 C493 1.404 . S
C492 C495 1.539 . S
C493 C489 1.408 . S
C493 C492 1.404 . S
C493 H505 0.930 . S
C494 C490 1.524 . S
C494 H506 0.956 . S
C494 H507 0.961 . S
C494 H508 0.961 . S
C495 C492 1.539 . S
C495 H509 0.958 . S
C495 H510 0.961 . S
C495 H511 0.960 . S
H496 C480 0.931 . S
H497 C485 0.929 . S
H498 C486 0.960 . S
H499 C486 0.962 . S
H500 C486 0.960 . S
H501 C487 0.961 . S
H502 C487 0.961 . S
H503 C487 0.961 . S
H504 C488 0.931 . S
H505 C493 0.930 . S
H506 C494 0.956 . S
H507 C494 0.961 . S
H508 C494 0.961 . S
H509 C495 0.958 . S
H510 C495 0.961 . S
H511 C495 0.960 . S
C512 C513 1.391 . S
C512 C514 1.394 . S
C512 H528 0.931 . S
C513 C512 1.391 . S
C513 C517 1.376 . S
C514 C512 1.394 . S
C514 C515 1.369 . S
C514 C518 1.531 . S
C515 C514 1.369 . S
C515 C516 1.410 . S
C515 C523 1.503 . S
C516 C515 1.410 . S
C516 C517 1.392 . S
C516 C519 1.511 . S
C517 C513 1.376 . S
C517 C516 1.392 . S
C517 H529 0.929 . S
C518 C514 1.531 . S
C518 H530 0.960 . S
C518 H531 0.962 . S
C518 H532 0.960 . S
C519 C516 1.511 . S
C519 H533 0.961 . S
C519 H534 0.961 . S
C519 H535 0.961 . S
C520 C521 1.370 . S
C520 C522 1.363 . S
C520 H536 0.931 . S
C521 C520 1.370 . S
C521 C525 1.408 . S
C522 C520 1.363 . S
C522 C523 1.370 . S
C522 C526 1.524 . S
C523 C515 1.503 . S
C523 C522 1.370 . S
C523 C524 1.403 . S
C524 C523 1.403 . S
C524 C525 1.404 . S
C524 C527 1.539 . S
C525 C521 1.408 . S
C525 C524 1.404 . S
C525 H537 0.930 . S
C526 C522 1.524 . S
C526 H538 0.956 . S
C526 H539 0.961 . S
C526 H540 0.961 . S
C527 C524 1.539 . S
C527 H541 0.958 . S
C527 H542 0.961 . S
C527 H543 0.960 . S
H528 C512 0.931 . S
H529 C517 0.929 . S
H530 C518 0.960 . S
H531 C518 0.962 . S
H532 C518 0.960 . S
H533 C519 0.961 . S
H534 C519 0.961 . S
H535 C519 0.961 . S
H536 C520 0.931 . S
H537 C525 0.930 . S
H538 C526 0.956 . S
H539 C526 0.961 . S
H540 C526 0.961 . S
H541 C527 0.958 . S
H542 C527 0.961 . S
H543 C527 0.960 . S
C544 C545 1.391 . S
C544 C546 1.394 . S
C544 H560 0.931 . S
C545 C544 1.391 . S
C545 C549 1.376 1_455 S
C546 C544 1.394 . S
C546 C547 1.369 . S
C546 C550 1.531 . S
C547 C546 1.369 . S
C547 C548 1.410 1_455 S
C547 C555 1.503 . S
C548 C547 1.410 1_655 S
C548 C549 1.392 . S
C548 C551 1.511 . S
C549 C545 1.376 1_655 S
C549 C548 1.392 . S
C549 H561 0.929 . S
C550 C546 1.531 . S
C550 H562 0.960 . S
C550 H563 0.962 . S
C550 H564 0.960 . S
C551 C548 1.511 . S
C551 H565 0.961 . S
C551 H566 0.961 . S
C551 H567 0.961 . S
C552 C553 1.370 1_655 S
C552 C554 1.363 . S
C552 H568 0.931 . S
C553 C552 1.370 1_455 S
C553 C557 1.408 . S
C554 C552 1.363 . S
C554 C555 1.370 1_655 S
C554 C558 1.524 . S
C555 C547 1.503 . S
C555 C554 1.370 1_455 S
C555 C556 1.403 . S
C556 C555 1.403 . S
C556 C557 1.404 . S
C556 C559 1.539 . S
C557 C553 1.408 . S
C557 C556 1.404 . S
C557 H569 0.930 . S
C558 C554 1.524 . S
C558 H570 0.956 . S
C558 H571 0.961 . S
C558 H572 0.961 . S
C559 C556 1.539 . S
C559 H573 0.958 . S
C559 H574 0.961 . S
C559 H575 0.960 . S
H560 C544 0.931 . S
H561 C549 0.929 . S
H562 C550 0.960 . S
H563 C550 0.962 . S
H564 C550 0.960 . S
H565 C551 0.961 . S
H566 C551 0.961 . S
H567 C551 0.961 . S
H568 C552 0.931 . S
H569 C557 0.930 . S
H570 C558 0.956 . S
H571 C558 0.961 . S
H572 C558 0.961 . S
H573 C559 0.958 . S
H574 C559 0.961 . S
H575 C559 0.960 . S
C576 C577 1.391 . S
C576 C578 1.394 . S
C576 H592 0.931 . S
C577 C576 1.391 . S
C577 C581 1.376 1_565 S
C578 C576 1.394 . S
C578 C579 1.369 . S
C578 C582 1.531 . S
C579 C578 1.369 . S
C579 C580 1.410 1_565 S
C579 C587 1.503 . S
C580 C579 1.410 1_545 S
C580 C581 1.392 . S
C580 C583 1.511 . S
C581 C577 1.376 1_545 S
C581 C580 1.392 . S
C581 H593 0.929 . S
C582 C578 1.531 . S
C582 H594 0.960 . S
C582 H595 0.962 . S
C582 H596 0.960 . S
C583 C580 1.511 . S
C583 H597 0.961 . S
C583 H598 0.961 1_554 S
C583 H599 0.961 . S
C584 C585 1.349 1_545 S
C584 C586 1.363 . S
C584 H600 0.931 . S
C585 C584 1.349 1_565 S
C585 C589 1.433 . S
C586 C584 1.363 . S
C586 C587 1.370 1_546 S
C586 C590 1.524 1_556 S
C587 C579 1.503 . S
C587 C586 1.370 1_564 S
C587 C588 1.403 1_554 S
C588 C587 1.403 1_556 S
C588 C589 1.404 . S
C588 C591 1.539 . S
C589 C585 1.433 . S
C589 C588 1.404 . S
C589 H601 0.930 . S
C590 C586 1.524 1_554 S
C590 H602 0.956 . S
C590 H603 0.961 . S
C590 H604 0.961 . S
C591 C588 1.539 . S
C591 H605 0.958 . S
C591 H606 0.961 . S
C591 H607 0.960 . S
H592 C576 0.931 . S
H593 C581 0.929 . S
H594 C582 0.960 . S
H595 C582 0.962 . S
H596 C582 0.960 . S
H597 C583 0.961 . S
H598 C583 0.961 1_556 S
H599 C583 0.961 . S
H600 C584 0.931 . S
H601 C589 0.930 . S
H602 C590 0.956 . S
H603 C590 0.961 . S
H604 C590 0.961 . S
H605 C591 0.958 . S
H606 C591 0.961 . S
H607 C591 0.960 . S
C608 C609 1.391 . S
C608 C610 1.394 . S
C608 H624 0.931 . S
C609 C608 1.391 . S
C609 C613 1.376 . S
C610 C608 1.394 . S
C610 C611 1.369 . S
C610 C614 1.531 . S
C611 C610 1.369 . S
C611 C612 1.410 . S
C611 C619 1.503 . S
C612 C611 1.410 . S
C612 C613 1.392 . S
C612 C615 1.511 . S
C613 C609 1.376 . S
C613 C612 1.392 . S
C613 H625 0.929 . S
C614 C610 1.531 . S
C614 H626 0.960 . S
C614 H627 0.962 . S
C614 H628 0.960 . S
C615 C612 1.511 . S
C615 H629 0.961 . S
C615 H630 0.961 1_554 S
C615 H631 0.961 . S
C616 C617 1.370 . S
C616 C618 1.363 . S
C616 H632 0.931 . S
C617 C616 1.370 . S
C617 C621 1.408 . S
C618 C616 1.363 . S
C618 C619 1.370 1_556 S
C618 C622 1.524 . S
C619 C611 1.503 . S
C619 C618 1.370 1_554 S
C619 C620 1.403 1_554 S
C620 C619 1.403 1_556 S
C620 C621 1.404 . S
C620 C623 1.539 1_556 S
C621 C617 1.408 . S
C621 C620 1.404 . S
C621 H633 0.930 . S
C622 C618 1.524 . S
C622 H634 0.956 1_556 S
C622 H635 0.961 1_556 S
C622 H636 0.961 . S
C623 C620 1.539 1_554 S
C623 H637 0.958 . S
C623 H638 0.961 1_554 S
C623 H639 0.960 . S
H624 C608 0.931 . S
H625 C613 0.929 . S
H626 C614 0.960 . S
H627 C614 0.962 . S
H628 C614 0.960 . S
H629 C615 0.961 . S
H630 C615 0.961 1_556 S
H631 C615 0.961 . S
H632 C616 0.931 . S
H633 C621 0.930 . S
H634 C622 0.956 1_554 S
H635 C622 0.961 1_554 S
H636 C622 0.961 . S
H637 C623 0.958 . S
H638 C623 0.961 1_556 S
H639 C623 0.960 . S
C640 C641 1.391 . S
C640 C642 1.394 . S
C640 H656 0.931 . S
C641 C640 1.391 . S
C641 C645 1.376 . S
C642 C640 1.394 . S
C642 C643 1.369 . S
C642 C646 1.531 . S
C643 C642 1.369 . S
C643 C644 1.410 . S
C643 C651 1.503 . S
C644 C643 1.410 . S
C644 C645 1.392 . S
C644 C647 1.511 . S
C645 C641 1.376 . S
C645 C644 1.392 . S
C645 H657 0.929 . S
C646 C642 1.531 . S
C646 H658 0.960 1_554 S
C646 H659 0.962 . S
C646 H660 0.960 . S
C647 C644 1.511 . S
C647 H661 0.961 . S
C647 H662 0.961 . S
C647 H663 0.961 . S
C648 C649 1.370 . S
C648 C650 1.363 . S
C648 H664 0.931 . S
C649 C648 1.370 . S
C649 C653 1.408 . S
C650 C648 1.363 . S
C650 C651 1.370 1_556 S
C650 C654 1.524 1_556 S
C651 C643 1.503 . S
C651 C650 1.370 1_554 S
C651 C652 1.403 1_554 S
C652 C651 1.403 1_556 S
C652 C653 1.404 . S
C652 C655 1.539 1_556 S
C653 C649 1.408 . S
C653 C652 1.404 . S
C653 H665 0.930 . S
C654 C650 1.524 1_554 S
C654 H666 0.956 . S
C654 H667 0.961 . S
C654 H668 0.961 1_554 S
C655 C652 1.539 1_554 S
C655 H669 0.958 1_554 S
C655 H670 0.961 1_554 S
C655 H671 0.960 . S
H656 C640 0.931 . S
H657 C645 0.929 . S
H658 C646 0.960 1_556 S
H659 C646 0.962 . S
H660 C646 0.960 . S
H661 C647 0.961 . S
H662 C647 0.961 . S
H663 C647 0.961 . S
H664 C648 0.931 . S
H665 C653 0.930 . S
H666 C654 0.956 . S
H667 C654 0.961 . S
H668 C654 0.961 1_556 S
H669 C655 0.958 1_556 S
H670 C655 0.961 1_556 S
H671 C655 0.960 . S
C672 C673 1.356 1_455 S
C672 C674 1.394 . S
C672 H688 0.931 . S
C673 C672 1.356 1_655 S
C673 C677 1.412 . S
C674 C672 1.394 . S
C674 C675 1.369 1_455 S
C674 C678 1.531 . S
C675 C674 1.369 1_655 S
C675 C676 1.410 . S
C675 C683 1.503 . S
C676 C675 1.410 . S
C676 C677 1.392 . S
C676 C679 1.511 . S
C677 C673 1.412 . S
C677 C676 1.392 . S
C677 H689 0.929 . S
C678 C674 1.531 . S
C678 H690 0.960 . S
C678 H691 0.962 . S
C678 H692 0.960 . S
C679 C676 1.511 . S
C679 H693 0.961 . S
C679 H694 0.961 . S
C679 H695 0.961 . S
C680 C681 1.370 1_455 S
C680 C682 1.363 . S
C680 H696 0.931 . S
C681 C680 1.370 1_655 S
C681 C685 1.408 . S
C682 C680 1.363 . S
C682 C683 1.370 1_456 S
C682 C686 1.524 . S
C683 C675 1.503 . S
C683 C682 1.370 1_654 S
C683 C684 1.400 1_554 S
C684 C683 1.400 1_556 S
C684 C685 1.417 . S
C684 C687 1.529 1_556 S
C685 C681 1.408 . S
C685 C684 1.417 . S
C685 H697 0.930 . S
C686 C682 1.524 . S
C686 H698 0.956 . S
C686 H699 0.961 1_455 S
C686 H700 0.961 . S
C687 C684 1.529 1_554 S
C687 H701 0.996 . S
C687 H702 0.961 . S
C687 H703 0.960 . S
H688 C672 0.931 . S
H689 C677 0.929 . S
H690 C678 0.960 . S
H691 C678 0.962 . S
H692 C678 0.960 . S
H693 C679 0.961 . S
H694 C679 0.961 . S
H695 C679 0.961 . S
H696 C680 0.931 . S
H697 C685 0.930 . S
H698 C686 0.956 . S
H699 C686 0.961 1_655 S
H700 C686 0.961 . S
H701 C687 0.996 . S
H702 C687 0.961 . S
H703 C687 0.960 . S
C704 C705 1.391 1_655 S
C704 C706 1.394 . S
C704 H720 0.931 . S
C705 C704 1.391 1_455 S
C705 C709 1.376 . S
C706 C704 1.394 . S
C706 C707 1.369 . S
C706 C710 1.531 . S
C707 C706 1.369 . S
C707 C708 1.410 1_655 S
C707 C715 1.503 . S
C708 C707 1.410 1_455 S
C708 C709 1.392 . S
C708 C711 1.511 . S
C709 C705 1.376 . S
C709 C708 1.392 . S
C709 H721 0.929 . S
C710 C706 1.531 . S
C710 H722 0.960 . S
C710 H723 0.962 . S
C710 H724 0.960 . S
C711 C708 1.511 . S
C711 H725 0.961 . S
C711 H726 0.961 . S
C711 H727 0.961 . S
C712 C713 1.370 . S
C712 C714 1.363 . S
C712 H728 0.931 . S
C713 C712 1.370 . S
C713 C717 1.408 . S
C714 C712 1.363 . S
C714 C715 1.370 . S
C714 C718 1.524 . S
C715 C707 1.503 . S
C715 C714 1.370 . S
C715 C716 1.403 . S
C716 C715 1.403 . S
C716 C717 1.404 . S
C716 C719 1.539 . S
C717 C713 1.408 . S
C717 C716 1.404 . S
C717 H729 0.930 . S
C718 C714 1.524 . S
C718 H730 0.956 . S
C718 H731 0.961 . S
C718 H732 0.961 . S
C719 C716 1.539 . S
C719 H733 0.958 . S
C719 H734 0.961 . S
C719 H735 0.960 . S
H720 C704 0.931 . S
H721 C709 0.929 . S
H722 C710 0.960 . S
H723 C710 0.962 . S
H724 C710 0.960 . S
H725 C711 0.961 . S
H726 C711 0.961 . S
H727 C711 0.961 . S
H728 C712 0.931 . S
H729 C717 0.930 . S
H730 C718 0.956 . S
H731 C718 0.961 . S
H732 C718 0.961 . S
H733 C719 0.958 . S
H734 C719 0.961 . S
H735 C719 0.960 . S
C736 C737 1.391 . S
C736 C738 1.394 . S
C736 H752 0.931 . S
C737 C736 1.391 . S
C737 C741 1.376 1_545 S
C738 C736 1.394 . S
C738 C739 1.369 1_545 S
C738 C742 1.531 . S
C739 C738 1.369 1_565 S
C739 C740 1.410 . S
C739 C747 1.503 . S
C740 C739 1.410 . S
C740 C741 1.392 . S
C740 C743 1.511 . S
C741 C737 1.376 1_565 S
C741 C740 1.392 . S
C741 H753 0.929 . S
C742 C738 1.531 . S
C742 H754 0.960 . S
C742 H755 0.962 . S
C742 H756 0.960 . S
C743 C740 1.511 . S
C743 H757 0.961 . S
C743 H758 0.961 . S
C743 H759 0.961 . S
C744 C745 1.370 . S
C744 C746 1.363 . S
C744 H760 0.931 . S
C745 C744 1.370 . S
C745 C749 1.408 . S
C746 C744 1.363 . S
C746 C747 1.370 . S
C746 C750 1.524 . S
C747 C739 1.503 . S
C747 C746 1.370 . S
C747 C748 1.403 . S
C748 C747 1.403 . S
C748 C749 1.404 . S
C748 C751 1.539 1_565 S
C749 C745 1.408 . S
C749 C748 1.404 . S
C749 H761 0.930 . S
C750 C746 1.524 . S
C750 H762 0.956 . S
C750 H763 0.961 . S
C750 H764 0.961 . S
C751 C748 1.539 1_545 S
C751 H765 0.958 . S
C751 H766 0.961 . S
C751 H767 0.960 . S
H752 C736 0.931 . S
H753 C741 0.929 . S
H754 C742 0.960 . S
H755 C742 0.962 . S
H756 C742 0.960 . S
H757 C743 0.961 . S
H758 C743 0.961 . S
H759 C743 0.961 . S
H760 C744 0.931 . S
H761 C749 0.930 . S
H762 C750 0.956 . S
H763 C750 0.961 . S
H764 C750 0.961 . S
H765 C751 0.958 . S
H766 C751 0.961 . S
H767 C751 0.960 . S
C768 C769 1.391 . S
C768 C770 1.394 . S
C768 H784 0.931 . S
C769 C768 1.391 . S
C769 C773 1.376 . S
C770 C768 1.394 . S
C770 C771 1.369 . S
C770 C774 1.531 . S
C771 C770 1.369 . S
C771 C772 1.410 . S
C771 C779 1.503 . S
C772 C771 1.410 . S
C772 C773 1.392 . S
C772 C775 1.511 . S
C773 C769 1.376 . S
C773 C772 1.392 . S
C773 H785 0.929 . S
C774 C770 1.531 . S
C774 H786 0.960 . S
C774 H787 0.962 . S
C774 H788 0.960 . S
C775 C772 1.511 . S
C775 H789 0.961 . S
C775 H790 0.961 . S
C775 H791 0.961 . S
C776 C777 1.370 . S
C776 C778 1.363 . S
C776 H792 0.931 . S
C777 C776 1.370 . S
C777 C781 1.408 . S
C778 C776 1.363 . S
C778 C779 1.370 . S
C778 C782 1.524 . S
C779 C771 1.503 . S
C779 C778 1.370 . S
C779 C780 1.403 . S
C780 C779 1.403 . S
C780 C781 1.404 . S
C780 C783 1.539 . S
C781 C777 1.408 . S
C781 C780 1.404 . S
C781 H793 0.930 . S
C782 C778 1.524 . S
C782 H794 0.956 . S
C782 H795 0.961 . S
C782 H796 0.961 . S
C783 C780 1.539 . S
C783 H797 0.958 . S
C783 H798 0.961 . S
C783 H799 0.960 . S
H784 C768 0.931 . S
H785 C773 0.929 . S
H786 C774 0.960 . S
H787 C774 0.962 . S
H788 C774 0.960 . S
H789 C775 0.961 . S
H790 C775 0.961 . S
H791 C775 0.961 . S
H792 C776 0.931 . S
H793 C781 0.930 . S
H794 C782 0.956 . S
H795 C782 0.961 . S
H796 C782 0.961 . S
H797 C783 0.958 . S
H798 C783 0.961 . S
H799 C783 0.960 . S
C800 C801 1.391 . S
C800 C802 1.394 . S
C800 H816 0.931 . S
C801 C800 1.391 . S
C801 C805 1.376 . S
C802 C800 1.394 . S
C802 C803 1.369 . S
C802 C806 1.531 . S
C803 C802 1.369 . S
C803 C804 1.410 . S
C803 C811 1.503 . S
C804 C803 1.410 . S
C804 C805 1.392 . S
C804 C807 1.511 . S
C805 C801 1.376 . S
C805 C804 1.392 . S
C805 H817 0.929 . S
C806 C802 1.531 . S
C806 H818 0.960 . S
C806 H819 0.962 . S
C806 H820 0.960 . S
C807 C804 1.511 . S
C807 H821 0.961 . S
C807 H822 0.961 . S
C807 H823 0.961 . S
C808 C809 1.370 . S
C808 C810 1.363 . S
C808 H824 0.931 . S
C809 C808 1.370 . S
C809 C813 1.408 . S
C810 C808 1.363 . S
C810 C811 1.370 . S
C810 C814 1.524 . S
C811 C803 1.503 . S
C811 C810 1.370 . S
C811 C812 1.403 . S
C812 C811 1.403 . S
C812 C813 1.404 . S
C812 C815 1.539 . S
C813 C809 1.408 . S
C813 C812 1.404 . S
C813 H825 0.930 . S
C814 C810 1.524 . S
C814 H826 0.956 . S
C814 H827 0.961 . S
C814 H828 0.961 . S
C815 C812 1.539 . S
C815 H829 0.958 . S
C815 H830 0.961 . S
C815 H831 0.960 . S
H816 C800 0.931 . S
H817 C805 0.929 . S
H818 C806 0.960 . S
H819 C806 0.962 . S
H820 C806 0.960 . S
H821 C807 0.961 . S
H822 C807 0.961 . S
H823 C807 0.961 . S
H824 C808 0.931 . S
H825 C813 0.930 . S
H826 C814 0.956 . S
H827 C814 0.961 . S
H828 C814 0.961 . S
H829 C815 0.958 . S
H830 C815 0.961 . S
H831 C815 0.960 . S
C832 C833 1.391 1_455 S
C832 C834 1.394 . S
C832 H848 0.931 . S
C833 C832 1.391 1_655 S
C833 C837 1.376 . S
C834 C832 1.394 . S
C834 C835 1.369 . S
C834 C838 1.531 1_554 S
C835 C834 1.369 . S
C835 C836 1.410 1_455 S
C835 C843 1.503 . S
C836 C835 1.410 1_655 S
C836 C837 1.392 . S
C836 C839 1.511 . S
C837 C833 1.376 . S
C837 C836 1.392 . S
C837 H849 0.929 . S
C838 C834 1.531 1_556 S
C838 H850 0.960 . S
C838 H851 0.962 1_556 S
C838 H852 0.960 . S
C839 C836 1.511 . S
C839 H853 0.961 . S
C839 H854 0.961 . S
C839 H855 0.961 . S
C840 C841 1.370 1_554 S
C840 C842 1.363 . S
C840 H856 0.931 . S
C841 C840 1.370 1_556 S
C841 C845 1.408 . S
C842 C840 1.363 . S
C842 C843 1.370 . S
C842 C846 1.524 . S
C843 C835 1.503 . S
C843 C842 1.370 . S
C843 C844 1.403 1_554 S
C844 C843 1.403 1_556 S
C844 C845 1.404 . S
C844 C847 1.539 1_455 S
C845 C841 1.408 . S
C845 C844 1.404 . S
C845 H857 0.930 . S
C846 C842 1.524 . S
C846 H858 0.956 . S
C846 H859 0.961 . S
C846 H860 0.961 . S
C847 C844 1.539 1_655 S
C847 H861 0.958 1_655 S
C847 H862 0.961 . S
C847 H863 0.960 . S
H848 C832 0.931 . S
H849 C837 0.929 . S
H850 C838 0.960 . S
H851 C838 0.962 1_554 S
H852 C838 0.960 . S
H853 C839 0.961 . S
H854 C839 0.961 . S
H855 C839 0.961 . S
H856 C840 0.931 . S
H857 C845 0.930 . S
H858 C846 0.956 . S
H859 C846 0.961 . S
H860 C846 0.961 . S
H861 C847 0.958 1_455 S
H862 C847 0.961 . S
H863 C847 0.960 . S
C864 C865 1.389 1_545 S
C864 C866 1.412 . S
C864 H880 0.917 1_545 S
C865 C864 1.389 1_565 S
C865 C869 1.376 1_565 S
C866 C864 1.412 . S
C866 C867 1.369 . S
C866 C870 1.531 . S
C867 C866 1.369 . S
C867 C868 1.410 . S
C867 C875 1.503 . S
C868 C867 1.410 . S
C868 C869 1.392 . S
C868 C871 1.511 1_554 S
C869 C865 1.376 1_545 S
C869 C868 1.392 . S
C869 H881 0.929 . S
C870 C866 1.531 . S
C870 H882 0.960 . S
C870 H883 0.962 1_545 S
C870 H884 0.960 . S
C871 C868 1.511 1_556 S
C871 H885 0.961 . S
C871 H886 0.961 . S
C871 H887 0.961 . S
C872 C873 1.370 . S
C872 C874 1.363 . S
C872 H888 0.946 . S
C873 C872 1.370 . S
C873 C877 1.408 . S
C874 C872 1.363 . S
C874 C875 1.370 1_556 S
C874 C878 1.524 1_545 S
C875 C867 1.503 . S
C875 C874 1.370 1_554 S
C875 C876 1.403 . S
C876 C875 1.403 . S
C876 C877 1.404 1_554 S
C876 C879 1.539 . S
C877 C873 1.408 . S
C877 C876 1.404 1_556 S
C877 H889 0.930 . S
C878 C874 1.524 1_565 S
C878 H890 0.956 1_556 S
C878 H891 0.961 . S
C878 H892 0.961 . S
C879 C876 1.539 . S
C879 H893 0.958 . S
C879 H894 0.961 . S
C879 H895 0.960 . S
H880 C864 0.917 1_565 S
H881 C869 0.929 . S
H882 C870 0.960 . S
H883 C870 0.962 1_565 S
H884 C870 0.960 . S
H885 C871 0.961 . S
H886 C871 0.961 . S
H887 C871 0.961 . S
H888 C872 0.946 . S
H889 C877 0.930 . S
H890 C878 0.956 1_554 S
H891 C878 0.961 . S
H892 C878 0.961 . S
H893 C879 0.958 . S
H894 C879 0.961 . S
H895 C879 0.960 . S
C896 C897 1.391 . S
C896 C898 1.394 . S
C896 H912 0.931 . S
C897 C896 1.391 . S
C897 C901 1.376 . S
C898 C896 1.394 . S
C898 C899 1.369 . S
C898 C902 1.531 1_554 S
C899 C898 1.369 . S
C899 C900 1.410 . S
C899 C907 1.503 . S
C900 C899 1.410 . S
C900 C901 1.392 . S
C900 C903 1.511 . S
C901 C897 1.376 . S
C901 C900 1.392 . S
C901 H913 0.929 . S
C902 C898 1.531 1_556 S
C902 H914 0.960 . S
C902 H915 0.962 . S
C902 H916 0.960 . S
C903 C900 1.511 . S
C903 H917 0.961 . S
C903 H918 0.961 . S
C903 H919 0.961 . S
C904 C905 1.370 . S
C904 C906 1.363 1_556 S
C904 H920 0.931 . S
C905 C904 1.370 . S
C905 C909 1.408 . S
C906 C904 1.363 1_554 S
C906 C907 1.370 . S
C906 C910 1.524 . S
C907 C899 1.503 . S
C907 C906 1.370 . S
C907 C908 1.403 1_554 S
C908 C907 1.403 1_556 S
C908 C909 1.404 . S
C908 C911 1.539 . S
C909 C905 1.408 . S
C909 C908 1.404 . S
C909 H921 0.930 . S
C910 C906 1.524 . S
C910 H922 0.956 . S
C910 H923 0.961 . S
C910 H924 0.961 . S
C911 C908 1.539 . S
C911 H925 0.958 . S
C911 H926 0.961 . S
C911 H927 0.960 1_556 S
H912 C896 0.931 . S
H913 C901 0.929 . S
H914 C902 0.960 . S
H915 C902 0.962 . S
H916 C902 0.960 . S
H917 C903 0.961 . S
H918 C903 0.961 . S
H919 C903 0.961 . S
H920 C904 0.931 . S
H921 C909 0.930 . S
H922 C910 0.956 . S
H923 C910 0.961 . S
H924 C910 0.961 . S
H925 C911 0.958 . S
H926 C911 0.961 . S
H927 C911 0.960 1_554 S
C928 C929 1.391 . S
C928 C930 1.394 . S
C928 H944 0.931 . S
C929 C928 1.391 . S
C929 C933 1.376 . S
C930 C928 1.394 . S
C930 C931 1.369 . S
C930 C934 1.531 1_554 S
C931 C930 1.369 . S
C931 C932 1.410 . S
C931 C939 1.503 . S
C932 C931 1.410 . S
C932 C933 1.392 . S
C932 C935 1.511 . S
C933 C929 1.376 . S
C933 C932 1.392 . S
C933 H945 0.929 . S
C934 C930 1.531 1_556 S
C934 H946 0.960 . S
C934 H947 0.962 . S
C934 H948 0.960 . S
C935 C932 1.511 . S
C935 H949 0.961 . S
C935 H950 0.961 . S
C935 H951 0.961 . S
C936 C937 1.370 . S
C936 C938 1.363 1_556 S
C936 H952 0.931 . S
C937 C936 1.370 . S
C937 C941 1.408 . S
C938 C936 1.363 1_554 S
C938 C939 1.370 . S
C938 C942 1.524 . S
C939 C931 1.503 . S
C939 C938 1.370 . S
C939 C940 1.403 1_554 S
C940 C939 1.403 1_556 S
C940 C941 1.404 . S
C940 C943 1.539 1_556 S
C941 C937 1.408 . S
C941 C940 1.404 . S
C941 H953 0.930 . S
C942 C938 1.524 . S
C942 H954 0.956 . S
C942 H955 0.961 . S
C942 H956 0.961 . S
C943 C940 1.539 1_554 S
C943 H957 0.958 1_554 S
C943 H958 0.961 . S
C943 H959 0.960 . S
H944 C928 0.931 . S
H945 C933 0.929 . S
H946 C934 0.960 . S
H947 C934 0.962 . S
H948 C934 0.960 . S
H949 C935 0.961 . S
H950 C935 0.961 . S
H951 C935 0.961 . S
H952 C936 0.931 . S
H953 C941 0.930 . S
H954 C942 0.956 . S
H955 C942 0.961 . S
H956 C942 0.961 . S
H957 C943 0.958 1_556 S
H958 C943 0.961 . S
H959 C943 0.960 . S
C960 C961 1.425 . S
C960 C962 1.394 . S
C960 H976 0.931 . S
C961 C960 1.425 . S
C961 C965 1.342 1_455 S
C962 C960 1.394 . S
C962 C963 1.369 . S
C962 C966 1.531 . S
C963 C962 1.369 . S
C963 C964 1.410 1_455 S
C963 C971 1.503 . S
C964 C963 1.410 1_655 S
C964 C965 1.392 . S
C964 C967 1.511 . S
C965 C961 1.342 1_655 S
C965 C964 1.392 . S
C965 H977 0.929 . S
C966 C962 1.531 . S
C966 H978 0.960 . S
C966 H979 0.962 . S
C966 H980 0.960 . S
C967 C964 1.511 . S
C967 H981 0.961 . S
C967 H982 0.961 . S
C967 H983 0.961 . S
C968 C969 1.370 . S
C968 C970 1.363 . S
C968 H984 0.931 . S
C969 C968 1.370 . S
C969 C973 1.408 1_455 S
C970 C968 1.363 . S
C970 C971 1.370 . S
C970 C974 1.524 . S
C971 C963 1.503 . S
C971 C970 1.370 . S
C971 C972 1.403 1_455 S
C972 C971 1.403 1_655 S
C972 C973 1.404 . S
C972 C975 1.539 . S
C973 C969 1.408 1_655 S
C973 C972 1.404 . S
C973 H985 0.930 . S
C974 C970 1.524 . S
C974 H986 0.956 . S
C974 H987 0.961 . S
C974 H988 0.961 . S
C975 C972 1.539 . S
C975 H989 0.958 . S
C975 H990 0.961 . S
C975 H991 0.960 . S
H976 C960 0.931 . S
H977 C965 0.929 . S
H978 C966 0.960 . S
H979 C966 0.962 . S
H980 C966 0.960 . S
H981 C967 0.961 . S
H982 C967 0.961 . S
H983 C967 0.961 . S
H984 C968 0.931 . S
H985 C973 0.930 . S
H986 C974 0.956 . S
H987 C974 0.961 . S
H988 C974 0.961 . S
H989 C975 0.958 . S
H990 C975 0.961 . S
H991 C975 0.960 . S
C992 C993 1.391 . S
C992 C994 1.394 . S
C992 H1008 0.931 . S
C993 C992 1.391 . S
C993 C997 1.376 1_545 S
C994 C992 1.394 . S
C994 C995 1.369 . S
C994 C998 1.531 . S
C995 C994 1.369 . S
C995 C996 1.410 1_545 S
C995 C1003 1.503 . S
C996 C995 1.410 1_565 S
C996 C997 1.392 . S
C996 C999 1.511 . S
C997 C993 1.376 1_565 S
C997 C996 1.392 . S
C997 H1009 0.929 . S
C998 C994 1.531 . S
C998 H1010 0.960 . S
C998 H1011 0.962 . S
C998 H1012 0.960 . S
C999 C996 1.511 . S
C999 H1013 0.961 . S
C999 H1014 0.961 . S
C999 H1015 0.961 . S
C1000 C1001 1.370 . S
C1000 C1002 1.363 . S
C1000 H1016 0.931 . S
C1001 C1000 1.370 . S
C1001 C1005 1.408 . S
C1002 C1000 1.363 . S
C1002 C1003 1.370 . S
C1002 C1006 1.524 . S
C1003 C995 1.503 . S
C1003 C1002 1.370 . S
C1003 C1004 1.402 . S
C1004 C1003 1.402 . S
C1004 C1005 1.404 . S
C1004 C1007 1.541 1_545 S
C1005 C1001 1.408 . S
C1005 C1004 1.404 . S
C1005 H1017 0.930 1_545 S
C1006 C1002 1.524 . S
C1006 H1018 0.956 . S
C1006 H1019 0.961 . S
C1006 H1020 0.961 . S
C1007 C1004 1.541 1_565 S
C1007 H1021 0.958 1_565 S
C1007 H1022 0.961 . S
C1007 H1023 0.960 . S
H1008 C992 0.931 . S
H1009 C997 0.929 . S
H1010 C998 0.960 . S
H1011 C998 0.962 . S
H1012 C998 0.960 . S
H1013 C999 0.961 . S
H1014 C999 0.961 . S
H1015 C999 0.961 . S
H1016 C1000 0.931 . S
H1017 C1005 0.930 1_565 S
H1018 C1006 0.956 . S
H1019 C1006 0.961 . S
H1020 C1006 0.961 . S
H1021 C1007 0.958 1_545 S
H1022 C1007 0.961 . S
H1023 C1007 0.960 . S
C1024 C1025 1.391 . S
C1024 C1026 1.394 . S
C1024 H1040 0.931 . S
C1025 C1024 1.391 . S
C1025 C1029 1.376 . S
C1026 C1024 1.394 . S
C1026 C1027 1.369 . S
C1026 C1030 1.531 . S
C1027 C1026 1.369 . S
C1027 C1028 1.410 . S
C1027 C1035 1.503 . S
C1028 C1027 1.410 . S
C1028 C1029 1.392 . S
C1028 C1031 1.511 . S
C1029 C1025 1.376 . S
C1029 C1028 1.392 . S
C1029 H1041 0.929 . S
C1030 C1026 1.531 . S
C1030 H1042 0.960 . S
C1030 H1043 0.962 . S
C1030 H1044 0.960 . S
C1031 C1028 1.511 . S
C1031 H1045 0.961 . S
C1031 H1046 0.961 . S
C1031 H1047 0.961 . S
C1032 C1033 1.370 . S
C1032 C1034 1.363 . S
C1032 H1048 0.931 . S
C1033 C1032 1.370 . S
C1033 C1037 1.408 . S
C1034 C1032 1.363 . S
C1034 C1035 1.370 . S
C1034 C1038 1.524 . S
C1035 C1027 1.503 . S
C1035 C1034 1.370 . S
C1035 C1036 1.403 . S
C1036 C1035 1.403 . S
C1036 C1037 1.404 . S
C1036 C1039 1.539 . S
C1037 C1033 1.408 . S
C1037 C1036 1.404 . S
C1037 H1049 0.930 . S
C1038 C1034 1.524 . S
C1038 H1050 0.956 . S
C1038 H1051 0.961 . S
C1038 H1052 0.961 . S
C1039 C1036 1.539 . S
C1039 H1053 0.958 . S
C1039 H1054 0.961 . S
C1039 H1055 0.960 . S
H1040 C1024 0.931 . S
H1041 C1029 0.929 . S
H1042 C1030 0.960 . S
H1043 C1030 0.962 . S
H1044 C1030 0.960 . S
H1045 C1031 0.961 . S
H1046 C1031 0.961 . S
H1047 C1031 0.961 . S
H1048 C1032 0.931 . S
H1049 C1037 0.930 . S
H1050 C1038 0.956 . S
H1051 C1038 0.961 . S
H1052 C1038 0.961 . S
H1053 C1039 0.958 . S
H1054 C1039 0.961 . S
H1055 C1039 0.960 . S
C1056 C1057 1.391 . S
C1056 C1058 1.394 . S
C1056 H1072 0.931 . S
C1057 C1056 1.391 . S
C1057 C1061 1.376 . S
C1058 C1056 1.394 . S
C1058 C1059 1.369 . S
C1058 C1062 1.531 . S
C1059 C1058 1.369 . S
C1059 C1060 1.410 . S
C1059 C1067 1.503 . S
C1060 C1059 1.410 . S
C1060 C1061 1.392 . S
C1060 C1063 1.511 . S
C1061 C1057 1.376 . S
C1061 C1060 1.392 . S
C1061 H1073 0.929 . S
C1062 C1058 1.531 . S
C1062 H1074 0.960 . S
C1062 H1075 0.962 . S
C1062 H1076 0.960 . S
C1063 C1060 1.511 . S
C1063 H1077 0.961 . S
C1063 H1078 0.961 . S
C1063 H1079 0.961 . S
C1064 C1065 1.370 . S
C1064 C1066 1.363 . S
C1064 H1080 0.931 . S
C1065 C1064 1.370 . S
C1065 C1069 1.408 . S
C1066 C1064 1.363 . S
C1066 C1067 1.370 . S
C1066 C1070 1.524 . S
C1067 C1059 1.503 . S
C1067 C1066 1.370 . S
C1067 C1068 1.403 . S
C1068 C1067 1.403 . S
C1068 C1069 1.404 . S
C1068 C1071 1.539 . S
C1069 C1065 1.408 . S
C1069 C1068 1.404 . S
C1069 H1081 0.930 . S
C1070 C1066 1.524 . S
C1070 H1082 0.956 . S
C1070 H1083 0.961 . S
C1070 H1084 0.961 . S
C1071 C1068 1.539 . S
C1071 H1085 0.958 . S
C1071 H1086 0.961 . S
C1071 H1087 0.960 . S
H1072 C1056 0.931 . S
H1073 C1061 0.929 . S
H1074 C1062 0.960 . S
H1075 C1062 0.962 . S
H1076 C1062 0.960 . S
H1077 C1063 0.961 . S
H1078 C1063 0.961 . S
H1079 C1063 0.961 . S
H1080 C1064 0.931 . S
H1081 C1069 0.930 . S
H1082 C1070 0.956 . S
H1083 C1070 0.961 . S
H1084 C1070 0.961 . S
H1085 C1071 0.958 . S
H1086 C1071 0.961 . S
H1087 C1071 0.960 . S
C1088 C1089 1.391 1_455 S
C1088 C1090 1.394 . S
C1088 H1104 0.931 . S
C1089 C1088 1.391 1_655 S
C1089 C1093 1.376 . S
C1090 C1088 1.394 . S
C1090 C1091 1.369 1_455 S
C1090 C1094 1.531 . S
C1091 C1090 1.369 1_655 S
C1091 C1092 1.410 . S
C1091 C1099 1.503 . S
C1092 C1091 1.410 . S
C1092 C1093 1.392 . S
C1092 C1095 1.511 . S
C1093 C1089 1.376 . S
C1093 C1092 1.392 . S
C1093 H1105 0.929 . S
C1094 C1090 1.531 . S
C1094 H1106 0.960 . S
C1094 H1107 0.962 . S
C1094 H1108 0.960 . S
C1095 C1092 1.511 . S
C1095 H1109 0.961 . S
C1095 H1110 0.961 . S
C1095 H1111 0.961 . S
C1096 C1097 1.370 1_455 S
C1096 C1098 1.363 . S
C1096 H1112 0.931 . S
C1097 C1096 1.370 1_655 S
C1097 C1101 1.408 . S
C1098 C1096 1.363 . S
C1098 C1099 1.370 1_455 S
C1098 C1102 1.524 . S
C1099 C1091 1.503 . S
C1099 C1098 1.370 1_655 S
C1099 C1100 1.403 . S
C1100 C1099 1.403 . S
C1100 C1101 1.404 . S
C1100 C1103 1.539 . S
C1101 C1097 1.408 . S
C1101 C1100 1.404 . S
C1101 H1113 0.930 . S
C1102 C1098 1.524 . S
C1102 H1114 0.956 . S
C1102 H1115 0.961 . S
C1102 H1116 0.961 . S
C1103 C1100 1.539 . S
C1103 H1117 0.958 . S
C1103 H1118 0.961 . S
C1103 H1119 0.960 . S
H1104 C1088 0.931 . S
H1105 C1093 0.929 . S
H1106 C1094 0.960 . S
H1107 C1094 0.962 . S
H1108 C1094 0.960 . S
H1109 C1095 0.961 . S
H1110 C1095 0.961 . S
H1111 C1095 0.961 . S
H1112 C1096 0.931 . S
H1113 C1101 0.930 . S
H1114 C1102 0.956 . S
H1115 C1102 0.961 . S
H1116 C1102 0.961 . S
H1117 C1103 0.958 . S
H1118 C1103 0.961 . S
H1119 C1103 0.960 . S
C1120 C1121 1.391 1_545 S
C1120 C1122 1.394 . S
C1120 H1136 0.931 . S
C1121 C1120 1.391 1_565 S
C1121 C1125 1.376 . S
C1122 C1120 1.394 . S
C1122 C1123 1.369 1_545 S
C1122 C1126 1.531 . S
C1123 C1122 1.369 1_565 S
C1123 C1124 1.410 . S
C1123 C1131 1.503 . S
C1124 C1123 1.410 . S
C1124 C1125 1.392 . S
C1124 C1127 1.511 . S
C1125 C1121 1.376 . S
C1125 C1124 1.392 . S
C1125 H1137 0.929 . S
C1126 C1122 1.531 . S
C1126 H1138 0.960 . S
C1126 H1139 0.962 . S
C1126 H1140 0.960 . S
C1127 C1124 1.511 . S
C1127 H1141 0.961 . S
C1127 H1142 0.961 . S
C1127 H1143 0.961 . S
C1128 C1129 1.370 . S
C1128 C1130 1.363 . S
C1128 H1144 0.931 1_565 S
C1129 C1128 1.370 . S
C1129 C1133 1.408 . S
C1130 C1128 1.363 . S
C1130 C1131 1.370 . S
C1130 C1134 1.524 1_565 S
C1131 C1123 1.503 . S
C1131 C1130 1.370 . S
C1131 C1132 1.403 . S
C1132 C1131 1.403 . S
C1132 C1133 1.404 . S
C1132 C1135 1.539 . S
C1133 C1129 1.408 . S
C1133 C1132 1.404 . S
C1133 H1145 0.930 . S
C1134 C1130 1.524 1_545 S
C1134 H1146 0.956 . S
C1134 H1147 0.961 1_545 S
C1134 H1148 0.961 . S
C1135 C1132 1.539 . S
C1135 H1149 0.958 . S
C1135 H1150 0.961 . S
C1135 H1151 0.960 . S
H1136 C1120 0.931 . S
H1137 C1125 0.929 . S
H1138 C1126 0.960 . S
H1139 C1126 0.962 . S
H1140 C1126 0.960 . S
H1141 C1127 0.961 . S
H1142 C1127 0.961 . S
H1143 C1127 0.961 . S
H1144 C1128 0.931 1_545 S
H1145 C1133 0.930 . S
H1146 C1134 0.956 . S
H1147 C1134 0.961 1_565 S
H1148 C1134 0.961 . S
H1149 C1135 0.958 . S
H1150 C1135 0.961 . S
H1151 C1135 0.960 . S
C1152 C1153 1.391 . S
C1152 C1154 1.394 . S
C1152 H1168 0.931 . S
C1153 C1152 1.391 . S
C1153 C1157 1.376 . S
C1154 C1152 1.394 . S
C1154 C1155 1.369 . S
C1154 C1158 1.531 . S
C1155 C1154 1.369 . S
C1155 C1156 1.410 . S
C1155 C1163 1.503 . S
C1156 C1155 1.410 . S
C1156 C1157 1.392 . S
C1156 C1159 1.511 . S
C1157 C1153 1.376 . S
C1157 C1156 1.392 . S
C1157 H1169 0.929 . S
C1158 C1154 1.531 . S
C1158 H1170 0.960 . S
C1158 H1171 0.962 . S
C1158 H1172 0.960 . S
C1159 C1156 1.511 . S
C1159 H1173 0.961 . S
C1159 H1174 0.961 . S
C1159 H1175 0.961 . S
C1160 C1161 1.370 . S
C1160 C1162 1.363 . S
C1160 H1176 0.931 . S
C1161 C1160 1.370 . S
C1161 C1165 1.408 . S
C1162 C1160 1.363 . S
C1162 C1163 1.370 . S
C1162 C1166 1.524 . S
C1163 C1155 1.503 . S
C1163 C1162 1.370 . S
C1163 C1164 1.403 . S
C1164 C1163 1.403 . S
C1164 C1165 1.404 . S
C1164 C1167 1.539 . S
C1165 C1161 1.408 . S
C1165 C1164 1.404 . S
C1165 H1177 0.930 . S
C1166 C1162 1.524 . S
C1166 H1178 0.956 . S
C1166 H1179 0.961 . S
C1166 H1180 0.961 . S
C1167 C1164 1.539 . S
C1167 H1181 0.958 . S
C1167 H1182 0.961 . S
C1167 H1183 0.960 . S
H1168 C1152 0.931 . S
H1169 C1157 0.929 . S
H1170 C1158 0.960 . S
H1171 C1158 0.962 . S
H1172 C1158 0.960 . S
H1173 C1159 0.961 . S
H1174 C1159 0.961 . S
H1175 C1159 0.961 . S
H1176 C1160 0.931 . S
H1177 C1165 0.930 . S
H1178 C1166 0.956 . S
H1179 C1166 0.961 . S
H1180 C1166 0.961 . S
H1181 C1167 0.958 . S
H1182 C1167 0.961 . S
H1183 C1167 0.960 . S
C1184 C1185 1.391 . S
C1184 C1186 1.394 . S
C1184 H1200 0.931 . S
C1185 C1184 1.391 . S
C1185 C1189 1.376 . S
C1186 C1184 1.394 . S
C1186 C1187 1.369 . S
C1186 C1190 1.531 . S
C1187 C1186 1.369 . S
C1187 C1188 1.410 . S
C1187 C1195 1.503 . S
C1188 C1187 1.410 . S
C1188 C1189 1.392 . S
C1188 C1191 1.511 . S
C1189 C1185 1.376 . S
C1189 C1188 1.392 . S
C1189 H1201 0.929 . S
C1190 C1186 1.531 . S
C1190 H1202 0.960 . S
C1190 H1203 0.962 . S
C1190 H1204 0.960 . S
C1191 C1188 1.511 . S
C1191 H1205 0.961 . S
C1191 H1206 0.961 . S
C1191 H1207 0.961 . S
C1192 C1193 1.370 . S
C1192 C1194 1.363 . S
C1192 H1208 0.931 . S
C1193 C1192 1.370 . S
C1193 C1197 1.408 . S
C1194 C1192 1.363 . S
C1194 C1195 1.370 . S
C1194 C1198 1.524 . S
C1195 C1187 1.503 . S
C1195 C1194 1.370 . S
C1195 C1196 1.403 . S
C1196 C1195 1.403 . S
C1196 C1197 1.404 . S
C1196 C1199 1.539 . S
C1197 C1193 1.408 . S
C1197 C1196 1.404 . S
C1197 H1209 0.930 . S
C1198 C1194 1.524 . S
C1198 H1210 0.956 . S
C1198 H1211 0.961 . S
C1198 H1212 0.961 . S
C1199 C1196 1.539 . S
C1199 H1213 0.958 . S
C1199 H1214 0.961 . S
C1199 H1215 0.960 . S
H1200 C1184 0.931 . S
H1201 C1189 0.929 . S
H1202 C1190 0.960 . S
H1203 C1190 0.962 . S
H1204 C1190 0.960 . S
H1205 C1191 0.961 . S
H1206 C1191 0.961 . S
H1207 C1191 0.961 . S
H1208 C1192 0.931 . S
H1209 C1197 0.930 . S
H1210 C1198 0.956 . S
H1211 C1198 0.961 . S
H1212 C1198 0.961 . S
H1213 C1199 0.958 . S
H1214 C1199 0.961 . S
H1215 C1199 0.960 . S
C449 C241 2.120 1_565 S
C457 C297 2.329 . S
C489 C337 2.368 . S
C481 C277 2.156 . S
C521 C377 2.356 . S
C513 C169 2.088 . S
C553 C417 2.347 1_455 S
C545 C205 2.132 . S
C585 C306 2.335 1_565 S
C577 C97 2.075 1_565 S
C609 C133 2.182 . S
C617 C346 2.374 . S
C641 C25 2.119 . S
C649 C386 2.354 . S
C673 C61 2.138 1_655 S
C681 C426 2.347 1_655 S
C713 C303 0.404 . S
C705 C211 0.311 . S
C745 C343 0.393 . S
C737 C247 0.479 . S
C777 C383 0.390 . S
C769 C253 0.485 . S
C801 C175 0.318 . S
C809 C423 0.426 . S
C833 C67 0.555 1_655 S
C841 C294 0.386 . S
C873 C334 0.458 . S
C865 C103 0.369 1_565 S
C905 C374 0.362 . S
C897 C109 0.413 . S
C929 C31 0.514 . S
C937 C414 0.369 . S
C961 C181 2.837 . S
C969 C307 3.208 . S
C993 C217 2.781 . S
C1001 C347 3.168 . S
C1033 C387 3.162 . S
C1025 C283 2.770 . S
C1065 C427 3.192 . S
C1057 C145 2.792 . S
C1089 C37 2.841 1_655 S
C1097 C298 3.226 . S
C1129 C338 3.173 . S
C1121 C73 2.788 1_565 S
C1161 C378 3.167 . S
C1153 C139 2.692 . S
C1185 C1 2.869 . S
C1193 C418 3.195 . S
