# Generated by pormake.
# Topology pts, (4,4)-cn, num edge types: 1
# Building blocks:
#     Node 0, Type 0, BuildingBlock: AZAVOO_clean_linker_0, # of connection points: 4
#     Node 1, Type 0, BuildingBlock: AZAVOO_clean_linker_0, # of connection points: 4
#     Node 2, Type 1, BuildingBlock: AZAVOO_clean_sbu_0, # of connection points: 4
#     Node 3, Type 1, BuildingBlock: AZAVOO_clean_sbu_0, # of connection points: 4
#     Edge 4, Type (0, 1), BuildingBlock: UVAHIK_clean_linker_0, # of connection points: 2
#     Edge 5, Type (0, 1), BuildingBlock: UVAHIK_clean_linker_0, # of connection points: 2
#     Edge 6, Type (0, 1), BuildingBlock: UVAHIK_clean_linker_0, # of connection points: 2
#     Edge 7, Type (0, 1), BuildingBlock: UVAHIK_clean_linker_0, # of connection points: 2
#     Edge 8, Type (0, 1), BuildingBlock: UVAHIK_clean_linker_0, # of connection points: 2
#     Edge 9, Type (0, 1), BuildingBlock: UVAHIK_clean_linker_0, # of connection points: 2
#     Edge 10, Type (0, 1), BuildingBlock: UVAHIK_clean_linker_0, # of connection points: 2
#     Edge 11, Type (0, 1), BuildingBlock: UVAHIK_clean_linker_0, # of connection points: 2
# Relax obj value: 0.111
# Max RMSD: 0.230
# Mean RMSD: 0.159
data_MOF--net-pts--node1-AZAVOO_clean_sbu_0--node2-AZAVOO_clean_linker_0--edge1-UVAHIK_clean_linker_0
_symmetry_space_group_name_H-M    P1
_symmetry_Int_Tables_number       1
_symmetry_cell_setting            triclinic
loop_
_symmetry_equiv_pos_as_xyz
'x, y, z'
_cell_length_a     32.719337
_cell_length_b     33.393488
_cell_length_c     57.889011
_cell_angle_alpha  91.770987
_cell_angle_beta   97.763909
_cell_angle_gamma 89.729387
loop_
_atom_site_label
_atom_site_type_symbol
_atom_site_fract_x
_atom_site_fract_y
_atom_site_fract_z
_atom_type_partial_charge
H0 H 0.49424 0.06851 0.84307 0.0
H1 H 0.82538 0.93598 0.04028 0.0
H2 H 0.49149 0.09346 0.97063 0.0
H3 H 0.42289 0.10376 0.94908 0.0
H4 H 0.39452 0.97885 0.95678 0.0
H5 H 0.4625 0.9696 0.97924 0.0
H6 H 0.56752 0.07867 0.94102 0.0
H7 H 0.54252 0.08517 0.89949 0.0
H8 H 0.4829 0.96971 0.89864 0.0
H9 H 0.50848 0.96345 0.9401 0.0
H10 H 0.65826 0.06033 0.97074 0.0
H11 H 0.71212 0.04973 0.94571 0.0
H12 H 0.65462 0.9384 0.91921 0.0
H13 H 0.60119 0.94867 0.94489 0.0
H14 H 0.66565 0.06147 0.02258 0.0
H15 H 0.73766 0.04905 0.03827 0.0
H16 H 0.72504 0.92599 0.01283 0.0
H17 H 0.6528 0.93867 0.99758 0.0
H18 H 0.59207 0.07591 0.04816 0.0
H19 H 0.64078 0.07784 0.08421 0.0
H20 H 0.65738 0.94981 0.07776 0.0
H21 H 0.60828 0.94807 0.04189 0.0
H22 H 0.4982 0.08872 0.0196 0.0
H23 H 0.44933 0.0976 0.04793 0.0
H24 H 0.46507 0.97318 0.06563 0.0
H25 H 0.51386 0.96465 0.03731 0.0
O26 O 0.5041 0.06518 0.85943 0.0
O27 O 0.4739 0.00574 0.85994 0.0
O28 O 0.80167 0.00513 0.04717 0.0
O29 O 0.79713 0.94182 0.03401 0.0
C30 C 0.52566 0.0229 0.98513 0.0
C31 C 0.55396 0.01744 0.96884 0.0
C32 C 0.59591 0.01002 0.97667 0.0
C33 C 0.60958 0.00801 0.00078 0.0
C34 C 0.58121 0.01299 0.01709 0.0
C35 C 0.5392 0.02064 0.0093 0.0
C36 C 0.4818 0.03081 0.97642 0.0
C37 C 0.46988 0.06872 0.96824 0.0
C38 C 0.43086 0.07436 0.9557 0.0
C39 C 0.40334 0.04197 0.9508 0.0
C40 C 0.41463 0.00459 0.96037 0.0
C41 C 0.45351 -0.00086 0.97318 0.0
C42 C 0.53971 0.02066 0.94351 0.0
C43 C 0.54923 0.05476 0.93177 0.0
C44 C 0.53483 0.05842 0.90809 0.0
C45 C 0.51062 0.028 0.89575 0.0
C46 C 0.5014 0.99372 0.90761 0.0
C47 C 0.51591 0.99007 0.93128 0.0
C48 C 0.62604 0.00514 0.95976 0.0
C49 C 0.65727 0.03366 0.95954 0.0
C50 C 0.68802 0.02749 0.94534 0.0
C51 C 0.68771 0.993 0.93078 0.0
C52 C 0.65551 0.96517 0.93031 0.0
C53 C 0.62501 0.97107 0.94486 0.0
C54 C 0.65399 0.0009 0.00909 0.0
C55 C 0.67851 0.03186 0.02043 0.0
C56 C 0.71964 0.0247 0.02933 0.0
C57 C 0.73708 0.98648 0.02685 0.0
C58 C 0.71256 0.95573 0.01508 0.0
C59 C 0.67135 0.9629 0.00628 0.0
C60 C 0.59705 0.01192 0.04232 0.0
C61 C 0.60461 0.04804 0.05516 0.0
C62 C 0.63265 0.04911 0.07567 0.0
C63 C 0.65345 0.01407 0.08342 0.0
C64 C 0.6422 0.97731 0.07192 0.0
C65 C 0.61388 0.9762 0.0516 0.0
C66 C 0.50949 0.02602 0.02638 0.0
C67 C 0.49084 0.06336 0.02951 0.0
C68 C 0.46288 0.06834 0.04564 0.0
C69 C 0.45336 0.0361 0.05904 0.0
C70 C 0.47215 -0.00127 0.0558 0.0
C71 C 0.49991 0.99375 0.0396 0.0
C72 C 0.49504 0.03214 0.87064 0.0
C73 C 0.78057 0.97855 0.03662 0.0
H74 H 0.06609 0.48688 0.36956 0.0
H75 H 0.06926 0.8386 0.55062 0.0
H76 H 0.01763 0.48997 0.48917 0.0
H77 H 0.02482 0.43346 0.46256 0.0
H78 H 0.15569 0.42935 0.48686 0.0
H79 H 0.14809 0.48722 0.51298 0.0
H80 H 0.02209 0.55908 0.45623 0.0
H81 H 0.02862 0.53193 0.41712 0.0
H82 H 0.15935 0.51458 0.43788 0.0
H83 H 0.15239 0.54218 0.47682 0.0
H84 H 0.01241 0.64861 0.47852 0.0
H85 H 0.01244 0.69295 0.4456 0.0
H86 H 0.14313 0.67176 0.44637 0.0
H87 H 0.14297 0.62897 0.47981 0.0
H88 H 0.99923 0.65115 0.5333 0.0
H89 H 0.98729 0.72148 0.54353 0.0
H90 H 0.11328 0.7491 0.53497 0.0
H91 H 0.12495 0.67858 0.52506 0.0
H92 H 0.00413 0.56879 0.5618 0.0
H93 H 0.98714 0.59688 0.59871 0.0
H94 H 0.10023 0.66574 0.60697 0.0
H95 H 0.11838 0.63468 0.57119 0.0
H96 H 0.0129 0.49678 0.54068 0.0
H97 H 0.01614 0.44142 0.56774 0.0
H98 H 0.1437 0.4698 0.592 0.0
H99 H 0.13999 0.52553 0.56505 0.0
O100 O 0.06445 0.49885 0.38485 0.0
O101 O 0.13149 0.49056 0.39642 0.0
O102 O 0.00872 0.79478 0.55097 0.0
O103 O 0.07315 0.8106 0.54665 0.0
C104 C 0.0803 0.53538 0.51048 0.0
C105 C 0.08182 0.56488 0.49367 0.0
C106 C 0.07695 0.60559 0.49972 0.0
C107 C 0.07023 0.61695 0.5226 0.0
C108 C 0.06974 0.58741 0.53971 0.0
C109 C 0.07505 0.54655 0.53356 0.0
C110 C 0.08235 0.49277 0.50283 0.0
C111 C 0.04749 0.47563 0.48956 0.0
C112 C 0.0518 0.44336 0.47422 0.0
C113 C 0.09107 0.42741 0.47214 0.0
C114 C 0.12519 0.44161 0.48763 0.0
C115 C 0.12084 0.47415 0.5029 0.0
C116 C 0.08675 0.55248 0.4693 0.0
C117 C 0.05219 0.54994 0.45215 0.0
C118 C 0.05598 0.5342 0.42989 0.0
C119 C 0.09446 0.52081 0.42442 0.0
C120 C 0.12925 0.52449 0.44153 0.0
C121 C 0.1254 0.54033 0.46375 0.0
C122 C 0.07771 0.6358 0.48155 0.0
C123 C 0.04112 0.65426 0.47182 0.0
C124 C 0.04113 0.6791 0.45283 0.0
C125 C 0.07773 0.68565 0.44321 0.0
C126 C 0.11451 0.66777 0.45347 0.0
C127 C 0.11449 0.64321 0.47252 0.0
C128 C 0.06296 0.65979 0.52848 0.0
C129 C 0.02423 0.67243 0.53371 0.0
C130 C 0.01748 0.71262 0.53951 0.0
C131 C 0.04935 0.74093 0.54007 0.0
C132 C 0.08808 0.72811 0.5347 0.0
C133 C 0.09481 0.68788 0.52897 0.0
C134 C 0.06252 0.59962 0.56376 0.0
C135 C 0.02591 0.58879 0.57205 0.0
C136 C 0.0159 0.60555 0.59301 0.0
C137 C 0.04188 0.63425 0.60584 0.0
C138 C 0.07954 0.64345 0.59794 0.0
C139 C 0.08992 0.62597 0.57728 0.0
C140 C 0.07609 0.51526 0.55114 0.0
C141 C 0.0413 0.49137 0.55211 0.0
C142 C 0.04321 0.45989 0.56754 0.0
C143 C 0.08018 0.45142 0.58194 0.0
C144 C 0.11492 0.47562 0.58101 0.0
C145 C 0.11279 0.50748 0.56579 0.0
C146 C 0.0981 0.50256 0.40108 0.0
C147 C 0.04235 0.78366 0.54623 0.0
Mg148 Mg 0.12108 0.05709 0.26718 0.0
O149 O 0.0562 0.05613 0.24551 0.0
O150 O 0.01121 0.05032 0.27114 0.0
Mg151 Mg 0.04526 0.04583 0.30782 0.0
C152 C 0.01925 0.05381 0.25033 0.0
C153 C 0.18928 0.0648 0.23857 0.0
O154 O 0.20411 0.04733 0.25797 0.0
O155 O 0.11128 0.12174 0.2802 0.0
O156 O 0.06675 0.11019 0.30537 0.0
O157 O 0.1246 0.99014 0.26459 0.0
O158 O 0.09926 0.02386 0.29278 0.0
C159 C 0.08882 0.134 0.29544 0.0
C160 C 0.10682 0.98981 0.28323 0.0
O161 O 0.15184 0.0762 0.23615 0.0
Mg162 Mg 0.97413 0.05048 0.73834 0.0
O163 O 0.03434 0.04159 0.76287 0.0
O164 O 0.07755 0.00602 0.7435 0.0
Mg165 Mg 0.04473 0.99183 0.70669 0.0
C166 C 0.06911 0.02452 0.76192 0.0
C167 C 0.9482 0.10652 0.78164 0.0
O168 O 0.94561 0.14241 0.79126 0.0
O169 O 0.00582 0.09487 0.71814 0.0
O170 O 0.04757 0.05898 0.69809 0.0
O171 O 0.94884 0.99278 0.74995 0.0
O172 O 0.98531 0.99779 0.72068 0.0
C173 C 0.03206 0.09247 0.70379 0.0
C174 C 0.96764 0.97544 0.73404 0.0
O175 O 0.95861 0.10337 0.76134 0.0
C176 C 0.38751 0.06321 0.07148 0.0
C177 C 0.42436 0.04142 0.07657 0.0
C178 C 0.36001 0.06743 0.08794 0.0
C179 C 0.33299 0.02075 0.1411 0.0
H180 H 0.27781 0.12161 0.15119 0.0
C181 C 0.25499 0.051 0.2224 0.0
C182 C 0.21495 0.06719 0.21943 0.0
C183 C 0.27855 0.0497 0.20406 0.0
C184 C 0.29267 0.09316 0.14836 0.0
H185 H 0.46185 0.0082 0.10323 0.0
H186 H 0.41427 0.01576 0.13193 0.0
H187 H 0.32297 0.11556 0.12079 0.0
H188 H 0.16886 0.09615 0.195 0.0
H189 H 0.21057 0.09416 0.16277 0.0
H190 H 0.30342 -0.00146 0.16886 0.0
C191 C 0.40601 0.02879 0.11504 0.0
C192 C 0.31849 0.08965 0.13095 0.0
C193 C 0.43336 0.02448 0.09859 0.0
C194 C 0.19957 0.08341 0.19783 0.0
C195 C 0.22343 0.08236 0.17941 0.0
C196 C 0.30747 0.02434 0.1585 0.0
C197 C 0.36882 0.05002 0.10988 0.0
C198 C 0.33946 0.05353 0.12737 0.0
C199 C 0.26285 0.06474 0.18226 0.0
C200 C 0.28754 0.06072 0.16259 0.0
H201 H 0.37953 0.07631 0.05458 0.0
H202 H 0.33148 0.08364 0.08331 0.0
H203 H 0.34775 0.9922 0.13844 0.0
H204 H 0.268 0.03846 0.23882 0.0
H205 H 0.30912 0.03663 0.20691 0.0
C206 C 0.05181 0.41008 0.61141 0.0
C207 C 0.08266 0.41657 0.59728 0.0
C208 C 0.05289 0.37606 0.62492 0.0
C209 C 0.08871 0.27284 0.62637 0.0
H210 H 0.06496 0.27844 0.69022 0.0
C211 C 0.07635 0.13018 0.67949 0.0
C212 C 0.04403 0.12979 0.69322 0.0
C213 C 0.08674 0.16558 0.66931 0.0
C214 C 0.0713 0.27628 0.67234 0.0
H215 H 0.13896 0.3929 0.58628 0.0
H216 H 0.14057 0.33298 0.60976 0.0
H217 H 0.07243 0.3401 0.6697 0.0
H218 H 0.99736 0.16647 0.70698 0.0
H219 H 0.01465 0.2274 0.68887 0.0
H220 H 0.0859 0.20911 0.62858 0.0
C221 C 0.11573 0.35436 0.61044 0.0
C222 C 0.07574 0.31163 0.66065 0.0
C223 C 0.11496 0.3887 0.59716 0.0
C224 C 0.0226 0.16561 0.69664 0.0
C225 C 0.03276 0.20078 0.68637 0.0
C226 C 0.08383 0.23742 0.63798 0.0
C227 C 0.08456 0.34762 0.62434 0.0
C228 C 0.08379 0.31025 0.63743 0.0
C229 C 0.06491 0.20129 0.67255 0.0
C230 C 0.07427 0.23871 0.66097 0.0
H231 H 0.02671 0.43122 0.6119 0.0
H232 H 0.02827 0.37143 0.63533 0.0
H233 H 0.09459 0.27093 0.6084 0.0
H234 H 0.09365 0.10317 0.6766 0.0
H235 H 0.11198 0.16498 0.65898 0.0
C236 C 0.72765 -0.00106 0.09608 0.0
C237 C 0.6907 0.01675 0.10103 0.0
C238 C 0.76408 0.0042 0.11142 0.0
C239 C 0.81173 0.07016 0.16053 0.0
H240 H 0.89173 0.98399 0.16923 0.0
C241 C 0.94488 0.06624 0.23652 0.0
C242 C 0.98407 0.05444 0.2314 0.0
C243 C 0.91065 0.06427 0.21933 0.0
C244 C 0.86989 0.00847 0.16672 0.0
H245 H 0.66262 0.05343 0.12606 0.0
H246 H 0.72596 0.06141 0.15347 0.0
H247 H 0.82782 0.97364 0.14281 0.0
H248 H 0.01826 0.03206 0.20413 0.0
H249 H 0.95783 0.02786 0.17402 0.0
H250 H 0.85344 0.10436 0.1852 0.0
C251 C 0.72712 0.04423 0.13741 0.0
C252 C 0.83323 0.00261 0.15158 0.0
C253 C 0.69072 0.03941 0.12185 0.0
C254 C 0.98846 0.04143 0.20855 0.0
C255 C 0.95393 0.03881 0.1914 0.0
C256 C 0.84815 0.07581 0.1759 0.0
C257 C 0.76439 0.02706 0.13226 0.0
C258 C 0.80355 0.03333 0.14834 0.0
C259 C 0.91468 0.04993 0.19672 0.0
C260 C 0.87748 0.04497 0.17921 0.0
H261 H 0.72871 0.98202 0.0799 0.0
H262 H 0.79219 0.99118 0.10657 0.0
H263 H 0.79012 0.09482 0.15813 0.0
H264 H 0.94053 0.07664 0.25393 0.0
H265 H 0.88073 0.07276 0.22396 0.0
C266 C 0.98656 0.66723 0.62622 0.0
C267 C 0.02836 0.65711 0.62609 0.0
C268 C 0.97445 0.69291 0.64358 0.0
C269 C 0.01365 0.74832 0.69979 0.0
H270 H 0.93146 0.82607 0.67592 0.0
C271 C 0.93465 0.90808 0.72765 0.0
C272 C 0.97046 0.93162 0.73144 0.0
C273 C 0.9369 0.8679 0.72017 0.0
C274 C 0.95383 0.80414 0.68304 0.0
H275 H 0.08965 0.66408 0.64546 0.0
H276 H 0.06912 0.71078 0.6746 0.0
H277 H 0.94436 0.76783 0.65189 0.0
H278 H 0.03682 0.9314 0.73248 0.0
H279 H 0.04097 0.86112 0.72011 0.0
H280 H 0.02516 0.78708 0.73025 0.0
C281 C 0.04534 0.69826 0.66161 0.0
C282 C 0.96126 0.77051 0.66928 0.0
C283 C 0.05734 0.67189 0.64453 0.0
C284 C 0.00879 0.9138 0.72949 0.0
C285 C 0.01117 0.87355 0.72258 0.0
C286 C 0.00673 0.78245 0.71338 0.0
C287 C 0.00384 0.71 0.66105 0.0
C288 C 0.99202 0.74257 0.67718 0.0
C289 C 0.97513 0.85063 0.717 0.0
C290 C 0.97739 0.8111 0.70489 0.0
H291 H 0.96316 0.65689 0.61232 0.0
H292 H 0.94205 0.70029 0.64281 0.0
H293 H 0.03684 0.72709 0.70679 0.0
H294 H 0.90474 0.92139 0.72892 0.0
H295 H 0.90868 0.85079 0.71597 0.0
C296 C 0.329 0.02494 0.93653 0.0
C297 C 0.36512 0.04602 0.93389 0.0
C298 C 0.29485 0.02532 0.91914 0.0
C299 C 0.27003 0.04183 0.85601 0.0
H300 H 0.15668 0.03848 0.86855 0.0
C301 C 0.09522 0.05114 0.80227 0.0
C302 C 0.10092 0.02665 0.78274 0.0
C303 C 0.12603 0.05417 0.82151 0.0
C304 C 0.18816 0.03976 0.86475 0.0
H305 H 0.39297 0.08498 0.91101 0.0
H306 H 0.33313 0.08708 0.88142 0.0
H307 H 0.21252 0.04554 0.90096 0.0
H308 H 0.14294 0.98508 0.76853 0.0
H309 H 0.19607 0.98976 0.80213 0.0
H310 H 0.24592 0.03708 0.81989 0.0
C311 C 0.33143 0.06946 0.89666 0.0
C312 C 0.22019 0.04336 0.88335 0.0
C313 C 0.3656 0.0688 0.91389 0.0
C314 C 0.13767 0.00459 0.78313 0.0
C315 C 0.16829 0.00744 0.80238 0.0
C316 C 0.23812 0.03844 0.83749 0.0
C317 C 0.296 0.04695 0.89877 0.0
C318 C 0.26154 0.04433 0.87918 0.0
C319 C 0.16311 0.03265 0.82169 0.0
C320 C 0.19679 0.03705 0.8416 0.0
H321 H 0.32734 0.00749 0.95183 0.0
H322 H 0.26816 0.00748 0.92131 0.0
H323 H 0.30148 0.04183 0.85212 0.0
H324 H 0.06726 0.06854 0.80258 0.0
H325 H 0.12116 0.07412 0.83599 0.0
C326 C 0.0665 0.37154 0.44363 0.0
C327 C 0.09675 0.40011 0.45203 0.0
C328 C 0.06901 0.3498 0.42289 0.0
C329 C 0.13812 0.30993 0.38448 0.0
H330 H 0.04076 0.3078 0.33809 0.0
C331 C 0.12664 0.19863 0.30609 0.0
C332 C 0.09 0.17625 0.30377 0.0
C333 C 0.12989 0.23466 0.31933 0.0
C334 C 0.06825 0.30807 0.35082 0.0
H335 H 0.15386 0.42757 0.44523 0.0
H336 H 0.15901 0.38804 0.40951 0.0
H337 H 0.04252 0.3515 0.37277 0.0
H338 H 0.02696 0.17566 0.31139 0.0
H339 H 0.03248 0.2376 0.33431 0.0
H340 H 0.16289 0.26456 0.36345 0.0
C341 C 0.13326 0.38297 0.41901 0.0
C342 C 0.0692 0.3331 0.37064 0.0
C343 C 0.13044 0.40523 0.4396 0.0
C344 C 0.05571 0.19216 0.31305 0.0
C345 C 0.05884 0.22798 0.32609 0.0
C346 C 0.13695 0.28436 0.36479 0.0
C347 C 0.10211 0.35569 0.41026 0.0
C348 C 0.10361 0.3333 0.38796 0.0
C349 C 0.09642 0.24891 0.33022 0.0
C350 C 0.10138 0.2821 0.34813 0.0
H351 H 0.04047 0.3664 0.4529 0.0
H352 H 0.04497 0.32836 0.41666 0.0
H353 H 0.16503 0.30969 0.39762 0.0
H354 H 0.15357 0.18699 0.29913 0.0
H355 H 0.1591 0.25039 0.3219 0.0
C356 C 0.71242 0.97809 0.89226 0.0
C357 C 0.72127 0.98644 0.91633 0.0
C358 C 0.74415 0.97709 0.87827 0.0
C359 C 0.84598 0.02199 0.87848 0.0
H360 H 0.84774 0.95865 0.82134 0.0
C361 C 0.95636 0.06697 0.81732 0.0
C362 C 0.93745 0.07169 0.79439 0.0
C363 C 0.93828 0.04274 0.83232 0.0
C364 C 0.84773 0.97648 0.83728 0.0
H365 H 0.77018 0.99676 0.94502 0.0
H366 H 0.82561 0.99422 0.92079 0.0
H367 H 0.79867 0.94217 0.84804 0.0
H368 H 0.88706 0.05276 0.76833 0.0
H369 H 0.85428 0.01153 0.79472 0.0
H370 H 0.89317 0.05752 0.86755 0.0
C371 C 0.79419 0.98964 0.91253 0.0
C372 C 0.8196 0.96708 0.85255 0.0
C373 C 0.76252 0.99108 0.92641 0.0
C374 C 0.90229 0.04911 0.78596 0.0
C375 C 0.88359 0.02549 0.80112 0.0
C376 C 0.87385 0.03138 0.86331 0.0
C377 C 0.78528 0.98408 0.88819 0.0
C378 C 0.81796 0.99025 0.87312 0.0
C379 C 0.90016 0.02394 0.82484 0.0
C380 C 0.87467 0.00928 0.84229 0.0
H381 H 0.6808 0.97444 0.8841 0.0
H382 H 0.73615 0.97305 0.85958 0.0
H383 H 0.84505 0.04109 0.89386 0.0
H384 H 0.98361 0.08415 0.82409 0.0
H385 H 0.95257 0.0412 0.85027 0.0
C386 C 0.11055 0.73644 0.42049 0.0
C387 C 0.07756 0.71045 0.42233 0.0
C388 C 0.11055 0.75965 0.40086 0.0
C389 C 0.04079 0.80673 0.35535 0.0
H390 H 0.14151 0.82584 0.32891 0.0
C391 C 0.10807 0.91474 0.2845 0.0
C392 C 0.09586 0.9519 0.29342 0.0
C393 C 0.10116 0.87933 0.29573 0.0
C394 C 0.11294 0.82028 0.33578 0.0
H395 H 0.01912 0.68781 0.40464 0.0
H396 H 0.01875 0.72922 0.37056 0.0
H397 H 0.13998 0.77365 0.35744 0.0
H398 H 0.06596 0.98071 0.3208 0.0
H399 H 0.05329 0.91942 0.33989 0.0
H400 H 0.01424 0.85438 0.33435 0.0
C401 C 0.04453 0.73155 0.3844 0.0
C402 C 0.1122 0.79074 0.35228 0.0
C403 C 0.04465 0.70808 0.40399 0.0
C404 C 0.07529 0.95275 0.31321 0.0
C405 C 0.0679 0.91748 0.32418 0.0
C406 C 0.04163 0.83645 0.33899 0.0
C407 C 0.07746 0.75762 0.38268 0.0
C408 C 0.07649 0.78451 0.36273 0.0
C409 C 0.0814 0.88051 0.31583 0.0
C410 C 0.07808 0.84431 0.32958 0.0
H411 H 0.13607 0.73949 0.43444 0.0
H412 H 0.13597 0.78008 0.40023 0.0
H413 H 0.01287 0.80267 0.36315 0.0
H414 H 0.12409 0.91309 0.2693 0.0
H415 H 0.11185 0.85115 0.28894 0.0
loop_
_geom_bond_atom_site_label_1
_geom_bond_atom_site_label_2
_geom_bond_distance
_geom_bond_site_symmetry_2
_ccdc_geom_bond_type
H0 O26 0.856 . S
H1 O29 0.853 1_545 S
H2 C37 0.930 . S
H3 C38 0.930 . S
H4 C40 0.930 1_565 S
H5 C41 0.930 1_565 S
H6 C43 0.931 . S
H7 C44 0.930 . S
H8 C46 0.930 . S
H9 C47 0.929 . S
H10 C49 0.930 . S
H11 C50 0.931 . S
H12 C52 0.930 . S
H13 C53 0.929 . S
H14 C55 0.931 . S
H15 C56 0.930 . S
H16 C58 0.930 . S
H17 C59 0.933 . S
H18 C61 0.930 . S
H19 C62 0.929 . S
H20 C64 0.931 1_565 S
H21 C65 0.930 1_565 S
H22 C67 0.929 . S
H23 C68 0.931 . S
H24 C70 0.930 . S
H25 C71 0.929 1_565 S
O26 H0 0.856 . S
O26 C72 1.300 . S
O27 C72 1.209 1_565 S
O28 C73 1.199 . S
O29 H1 0.853 1_565 S
O29 C73 1.297 1_565 S
C30 C31 1.404 . S
C30 C35 1.397 1_556 S
C30 C36 1.492 . S
C31 C30 1.404 . S
C31 C32 1.396 . S
C31 C42 1.492 . S
C32 C31 1.396 . S
C32 C33 1.397 1_556 S
C32 C48 1.509 . S
C33 C32 1.397 1_554 S
C33 C34 1.412 . S
C33 C54 1.485 . S
C34 C33 1.412 . S
C34 C35 1.388 . S
C34 C60 1.490 . S
C35 C30 1.397 1_554 S
C35 C34 1.388 . S
C35 C66 1.519 . S
C36 C30 1.492 . S
C36 C37 1.363 . S
C36 C41 1.390 . S
C37 H2 0.930 . S
C37 C36 1.363 . S
C37 C38 1.372 . S
C38 H3 0.930 . S
C38 C37 1.372 . S
C38 C39 1.383 . S
C39 C38 1.383 . S
C39 C40 1.395 . S
C40 H4 0.930 1_545 S
C40 C39 1.395 . S
C40 C41 1.362 . S
C41 H5 0.930 1_545 S
C41 C36 1.390 . S
C41 C40 1.362 . S
C42 C31 1.492 . S
C42 C43 1.377 . S
C42 C47 1.397 1_545 S
C43 H6 0.931 . S
C43 C42 1.377 . S
C43 C44 1.376 . S
C44 H7 0.930 . S
C44 C43 1.376 . S
C44 C45 1.376 . S
C45 C44 1.376 . S
C45 C46 1.378 1_545 S
C45 C72 1.486 . S
C46 H8 0.930 . S
C46 C45 1.378 1_565 S
C46 C47 1.376 . S
C47 H9 0.929 . S
C47 C42 1.397 1_565 S
C47 C46 1.376 . S
C48 C32 1.509 . S
C48 C49 1.391 . S
C48 C53 1.386 1_545 S
C49 H10 0.930 . S
C49 C48 1.391 . S
C49 C50 1.375 . S
C50 H11 0.931 . S
C50 C49 1.375 . S
C50 C51 1.375 . S
C51 C50 1.375 . S
C51 C52 1.361 1_545 S
C52 H12 0.930 . S
C52 C51 1.361 1_565 S
C52 C53 1.399 . S
C53 H13 0.929 . S
C53 C48 1.386 1_565 S
C53 C52 1.399 . S
C54 C33 1.485 . S
C54 C55 1.394 . S
C54 C59 1.360 1_545 S
C55 H14 0.931 . S
C55 C54 1.394 . S
C55 C56 1.372 . S
C56 H15 0.930 . S
C56 C55 1.372 . S
C56 C57 1.397 . S
C57 C56 1.397 . S
C57 C58 1.390 1_545 S
C57 C73 1.476 . S
C58 H16 0.930 . S
C58 C57 1.390 1_565 S
C58 C59 1.366 . S
C59 H17 0.933 . S
C59 C54 1.360 1_565 S
C59 C58 1.366 . S
C60 C34 1.490 . S
C60 C61 1.380 . S
C60 C65 1.386 . S
C61 H18 0.930 . S
C61 C60 1.380 . S
C61 C62 1.381 . S
C62 H19 0.929 . S
C62 C61 1.381 . S
C62 C63 1.371 . S
C63 C62 1.371 . S
C63 C64 1.380 . S
C64 H20 0.931 1_545 S
C64 C63 1.380 . S
C64 C65 1.387 . S
C65 H21 0.930 1_545 S
C65 C60 1.386 . S
C65 C64 1.387 . S
C66 C35 1.519 . S
C66 C67 1.377 . S
C66 C71 1.361 . S
C67 H22 0.929 . S
C67 C66 1.377 . S
C67 C68 1.386 . S
C68 H23 0.931 . S
C68 C67 1.386 . S
C68 C69 1.363 . S
C69 C68 1.363 . S
C69 C70 1.385 1_545 S
C70 H24 0.930 . S
C70 C69 1.385 1_565 S
C70 C71 1.396 1_565 S
C71 H25 0.929 1_545 S
C71 C66 1.361 . S
C71 C70 1.396 1_545 S
C72 O26 1.300 . S
C72 O27 1.209 1_545 S
C72 C45 1.486 . S
C73 O28 1.199 . S
C73 O29 1.297 1_545 S
C73 C57 1.476 . S
H74 O100 0.856 . S
H75 O103 0.854 . S
H76 C111 0.930 . S
H77 C112 0.930 1_655 S
H78 C114 0.930 . S
H79 C115 0.930 . S
H80 C117 0.931 . S
H81 C118 0.930 . S
H82 C120 0.930 . S
H83 C121 0.929 . S
H84 C123 0.930 . S
H85 C124 0.931 . S
H86 C126 0.930 . S
H87 C127 0.929 . S
H88 C129 0.931 . S
H89 C130 0.930 . S
H90 C132 0.930 . S
H91 C133 0.932 . S
H92 C135 0.930 1_655 S
H93 C136 0.929 1_655 S
H94 C138 0.931 . S
H95 C139 0.930 . S
H96 C141 0.929 . S
H97 C142 0.931 . S
H98 C144 0.930 . S
H99 C145 0.929 . S
O100 H74 0.856 . S
O100 C146 1.300 . S
O101 C146 1.209 . S
O102 C147 1.199 . S
O103 H75 0.854 . S
O103 C147 1.297 . S
C104 C105 1.404 . S
C104 C109 1.397 . S
C104 C110 1.492 . S
C105 C104 1.404 . S
C105 C106 1.396 . S
C105 C116 1.492 . S
C106 C105 1.396 . S
C106 C107 1.397 . S
C106 C122 1.509 . S
C107 C106 1.397 . S
C107 C108 1.412 . S
C107 C128 1.485 . S
C108 C107 1.412 . S
C108 C109 1.388 . S
C108 C134 1.490 . S
C109 C104 1.397 . S
C109 C108 1.388 . S
C109 C140 1.519 . S
C110 C104 1.492 . S
C110 C111 1.363 . S
C110 C115 1.390 . S
C111 H76 0.930 . S
C111 C110 1.363 . S
C111 C112 1.372 . S
C112 H77 0.930 1_455 S
C112 C111 1.372 . S
C112 C113 1.383 . S
C113 C112 1.383 . S
C113 C114 1.395 . S
C114 H78 0.930 . S
C114 C113 1.395 . S
C114 C115 1.362 . S
C115 H79 0.930 . S
C115 C110 1.390 . S
C115 C114 1.362 . S
C116 C105 1.492 . S
C116 C117 1.377 . S
C116 C121 1.397 . S
C117 H80 0.931 . S
C117 C116 1.377 . S
C117 C118 1.376 . S
C118 H81 0.930 . S
C118 C117 1.376 . S
C118 C119 1.376 . S
C119 C118 1.376 . S
C119 C120 1.378 . S
C119 C146 1.486 . S
C120 H82 0.930 . S
C120 C119 1.378 . S
C120 C121 1.376 . S
C121 H83 0.929 . S
C121 C116 1.397 . S
C121 C120 1.376 . S
C122 C106 1.509 . S
C122 C123 1.391 . S
C122 C127 1.386 . S
C123 H84 0.930 . S
C123 C122 1.391 . S
C123 C124 1.375 . S
C124 H85 0.931 . S
C124 C123 1.375 . S
C124 C125 1.375 . S
C125 C124 1.375 . S
C125 C126 1.361 . S
C126 H86 0.930 . S
C126 C125 1.361 . S
C126 C127 1.399 . S
C127 H87 0.929 . S
C127 C122 1.386 . S
C127 C126 1.399 . S
C128 C107 1.485 . S
C128 C129 1.394 . S
C128 C133 1.360 . S
C129 H88 0.931 . S
C129 C128 1.394 . S
C129 C130 1.372 . S
C130 H89 0.930 . S
C130 C129 1.372 . S
C130 C131 1.397 . S
C131 C130 1.397 . S
C131 C132 1.390 . S
C131 C147 1.476 . S
C132 H90 0.930 . S
C132 C131 1.390 . S
C132 C133 1.366 . S
C133 H91 0.932 . S
C133 C128 1.360 . S
C133 C132 1.366 . S
C134 C108 1.490 . S
C134 C135 1.380 . S
C134 C139 1.386 . S
C135 H92 0.930 1_455 S
C135 C134 1.380 . S
C135 C136 1.381 . S
C136 H93 0.929 1_455 S
C136 C135 1.381 . S
C136 C137 1.371 . S
C137 C136 1.371 . S
C137 C138 1.380 . S
C138 H94 0.931 . S
C138 C137 1.380 . S
C138 C139 1.387 . S
C139 H95 0.930 . S
C139 C134 1.386 . S
C139 C138 1.387 . S
C140 C109 1.519 . S
C140 C141 1.377 . S
C140 C145 1.361 . S
C141 H96 0.929 . S
C141 C140 1.377 . S
C141 C142 1.386 . S
C142 H97 0.931 . S
C142 C141 1.386 . S
C142 C143 1.363 . S
C143 C142 1.363 . S
C143 C144 1.385 . S
C144 H98 0.930 . S
C144 C143 1.385 . S
C144 C145 1.396 . S
C145 H99 0.929 . S
C145 C140 1.361 . S
C145 C144 1.396 . S
C146 O100 1.300 . S
C146 O101 1.209 . S
C146 C119 1.486 . S
C147 O102 1.199 . S
C147 O103 1.297 . S
C147 C131 1.476 . S
Mg148 O149 2.028 . S
Mg148 O155 1.986 . S
Mg148 O157 2.114 1_545 S
Mg148 O158 2.251 . S
Mg148 O161 2.010 . S
O149 Mg148 2.028 . S
O149 C152 1.250 . S
O150 Mg151 2.028 1_655 S
O150 C152 1.248 1_655 S
Mg151 O150 2.028 1_455 S
Mg151 O156 2.032 . S
Mg151 O158 2.079 . S
C152 O149 1.250 . S
C152 O150 1.248 1_455 S
C153 O154 1.264 . S
C153 O161 1.249 . S
O154 C153 1.264 . S
O155 Mg148 1.986 . S
O155 C159 1.246 . S
O156 Mg151 2.032 . S
O156 C159 1.259 . S
O157 Mg148 2.114 1_565 S
O157 C160 1.252 . S
O158 Mg148 2.251 . S
O158 Mg151 2.079 . S
O158 C160 1.273 1_545 S
C159 O155 1.246 . S
C159 O156 1.259 . S
C160 O157 1.252 . S
C160 O158 1.273 1_565 S
O161 Mg148 2.010 . S
O161 C153 1.249 . S
Mg162 O163 2.028 . S
Mg162 O169 1.986 . S
Mg162 O171 2.114 1_545 S
Mg162 O172 2.251 1_545 S
Mg162 O175 2.010 1_455 S
O163 Mg162 2.028 . S
O163 C166 1.250 . S
O164 Mg165 2.028 . S
O164 C166 1.248 . S
Mg165 O164 2.028 . S
Mg165 O170 2.032 . S
Mg165 O172 2.079 1_545 S
C166 O163 1.250 . S
C166 O164 1.248 . S
C167 O168 1.264 . S
C167 O175 1.249 . S
O168 C167 1.264 . S
O169 Mg162 1.986 . S
O169 C173 1.246 . S
O170 Mg165 2.032 . S
O170 C173 1.259 . S
O171 Mg162 2.114 1_565 S
O171 C174 1.252 . S
O172 Mg162 2.251 1_565 S
O172 Mg165 2.079 1_565 S
O172 C174 1.273 . S
C173 O169 1.246 . S
C173 O170 1.259 . S
C174 O171 1.252 . S
C174 O172 1.273 . S
O175 Mg162 2.010 1_655 S
O175 C167 1.249 . S
C176 C177 1.349 . S
C176 C178 1.327 . S
C176 H201 0.950 . S
C177 C176 1.349 . S
C177 C193 1.349 . S
C178 C176 1.327 . S
C178 C197 1.429 . S
C178 H202 0.950 . S
C179 C196 1.574 . S
C179 C198 1.368 . S
C179 H203 0.949 1_545 S
H180 C184 0.949 . S
C181 C182 1.349 . S
C181 C183 1.327 . S
C181 H204 0.950 1_545 S
C182 C181 1.349 . S
C182 C194 1.349 . S
C183 C181 1.327 . S
C183 C199 1.429 . S
C183 H205 0.950 1_545 S
C184 H180 0.949 . S
C184 C192 1.574 . S
C184 C200 1.368 . S
H185 C193 0.950 1_565 S
H186 C191 0.950 1_565 S
H187 C192 0.949 . S
H188 C194 0.950 . S
H189 C195 0.950 . S
H190 C196 0.949 1_565 S
C191 H186 0.950 1_545 S
C191 C193 1.327 . S
C191 C197 1.429 . S
C192 C184 1.574 . S
C192 H187 0.949 . S
C192 C198 1.368 . S
C193 C177 1.349 . S
C193 H185 0.950 1_545 S
C193 C191 1.327 . S
C194 C182 1.349 . S
C194 H188 0.950 . S
C194 C195 1.327 . S
C195 H189 0.950 . S
C195 C194 1.327 . S
C195 C199 1.429 . S
C196 C179 1.574 . S
C196 H190 0.949 1_545 S
C196 C200 1.368 . S
C197 C178 1.429 . S
C197 C191 1.429 . S
C197 C198 1.523 . S
C198 C179 1.368 . S
C198 C192 1.368 . S
C198 C197 1.523 . S
C199 C183 1.429 . S
C199 C195 1.429 . S
C199 C200 1.523 . S
C200 C184 1.368 . S
C200 C196 1.368 . S
C200 C199 1.523 . S
H201 C176 0.950 . S
H202 C178 0.950 . S
H203 C179 0.949 1_565 S
H204 C181 0.950 1_565 S
H205 C183 0.950 1_565 S
C206 C207 1.349 . S
C206 C208 1.327 . S
C206 H231 0.950 . S
C207 C206 1.349 . S
C207 C223 1.349 . S
C208 C206 1.327 . S
C208 C227 1.429 . S
C208 H232 0.950 . S
C209 C226 1.574 . S
C209 C228 1.368 . S
C209 H233 0.949 . S
H210 C214 0.949 1_655 S
C211 C212 1.349 . S
C211 C213 1.327 . S
C211 H234 0.950 . S
C212 C211 1.349 . S
C212 C224 1.349 . S
C213 C211 1.327 . S
C213 C229 1.429 . S
C213 H235 0.950 . S
C214 H210 0.949 1_455 S
C214 C222 1.574 . S
C214 C230 1.368 . S
H215 C223 0.950 . S
H216 C221 0.950 . S
H217 C222 0.966 . S
H218 C224 0.950 1_655 S
H219 C225 0.950 1_655 S
H220 C226 0.949 . S
C221 H216 0.950 . S
C221 C223 1.327 . S
C221 C227 1.429 . S
C222 C214 1.574 . S
C222 H217 0.966 . S
C222 C228 1.368 . S
C223 C207 1.349 . S
C223 H215 0.950 . S
C223 C221 1.327 . S
C224 C212 1.349 . S
C224 H218 0.950 1_455 S
C224 C225 1.327 . S
C225 H219 0.950 1_455 S
C225 C224 1.327 . S
C225 C229 1.429 . S
C226 C209 1.574 . S
C226 H220 0.949 . S
C226 C230 1.368 . S
C227 C208 1.429 . S
C227 C221 1.429 . S
C227 C228 1.523 . S
C228 C209 1.368 . S
C228 C222 1.368 . S
C228 C227 1.523 . S
C229 C213 1.429 . S
C229 C225 1.429 . S
C229 C230 1.523 . S
C230 C214 1.368 . S
C230 C226 1.368 . S
C230 C229 1.523 . S
H231 C206 0.950 . S
H232 C208 0.950 . S
H233 C209 0.949 . S
H234 C211 0.950 . S
H235 C213 0.950 . S
C236 C237 1.349 . S
C236 C238 1.327 . S
C236 H261 0.950 . S
C237 C236 1.349 . S
C237 C253 1.349 . S
C238 C236 1.327 . S
C238 C257 1.429 . S
C238 H262 0.950 . S
C239 C256 1.574 . S
C239 C258 1.368 . S
C239 H263 0.949 . S
H240 C244 0.949 . S
C241 C242 1.349 . S
C241 C243 1.327 . S
C241 H264 0.950 . S
C242 C241 1.349 . S
C242 C254 1.349 . S
C243 C241 1.327 . S
C243 C259 1.429 . S
C243 H265 0.950 . S
C244 H240 0.949 . S
C244 C252 1.574 . S
C244 C260 1.368 . S
H245 C253 0.950 . S
H246 C251 0.950 . S
H247 C252 0.949 . S
H248 C254 0.950 . S
H249 C255 0.950 . S
H250 C256 0.949 . S
C251 H246 0.950 . S
C251 C253 1.327 . S
C251 C257 1.429 . S
C252 C244 1.574 . S
C252 H247 0.949 . S
C252 C258 1.368 . S
C253 C237 1.349 . S
C253 H245 0.950 . S
C253 C251 1.327 . S
C254 C242 1.349 . S
C254 H248 0.950 . S
C254 C255 1.327 . S
C255 H249 0.950 . S
C255 C254 1.327 . S
C255 C259 1.429 . S
C256 C239 1.574 . S
C256 H250 0.949 . S
C256 C260 1.368 . S
C257 C238 1.429 . S
C257 C251 1.429 . S
C257 C258 1.523 . S
C258 C239 1.368 . S
C258 C252 1.368 . S
C258 C257 1.523 . S
C259 C243 1.429 . S
C259 C255 1.429 . S
C259 C260 1.523 . S
C260 C244 1.368 . S
C260 C256 1.368 . S
C260 C259 1.523 . S
H261 C236 0.950 . S
H262 C238 0.950 . S
H263 C239 0.949 . S
H264 C241 0.950 . S
H265 C243 0.950 . S
C266 C267 1.349 . S
C266 C268 1.327 . S
C266 H291 0.950 . S
C267 C266 1.349 . S
C267 C283 1.349 . S
C268 C266 1.327 . S
C268 C287 1.429 . S
C268 H292 0.950 . S
C269 C286 1.574 . S
C269 C288 1.368 . S
C269 H293 0.949 . S
H270 C274 0.949 . S
C271 C272 1.349 . S
C271 C273 1.327 . S
C271 H294 0.950 . S
C272 C271 1.349 . S
C272 C284 1.349 . S
C273 C271 1.327 . S
C273 C289 1.429 . S
C273 H295 0.950 . S
C274 H270 0.949 . S
C274 C282 1.574 . S
C274 C290 1.368 . S
H275 C283 0.950 . S
H276 C281 0.950 . S
H277 C282 0.949 . S
H278 C284 0.950 . S
H279 C285 0.950 . S
H280 C286 0.949 . S
C281 H276 0.950 . S
C281 C283 1.327 . S
C281 C287 1.429 . S
C282 C274 1.574 . S
C282 H277 0.949 . S
C282 C288 1.368 . S
C283 C267 1.349 . S
C283 H275 0.950 . S
C283 C281 1.327 . S
C284 C272 1.349 . S
C284 H278 0.950 . S
C284 C285 1.327 . S
C285 H279 0.950 . S
C285 C284 1.327 . S
C285 C289 1.429 . S
C286 C269 1.574 . S
C286 H280 0.949 . S
C286 C290 1.368 . S
C287 C268 1.429 . S
C287 C281 1.429 . S
C287 C288 1.523 . S
C288 C269 1.368 . S
C288 C282 1.368 . S
C288 C287 1.523 . S
C289 C273 1.429 . S
C289 C285 1.429 . S
C289 C290 1.523 . S
C290 C274 1.368 . S
C290 C286 1.368 . S
C290 C289 1.523 . S
H291 C266 0.950 . S
H292 C268 0.950 . S
H293 C269 0.949 . S
H294 C271 0.950 . S
H295 C273 0.950 . S
C296 C297 1.349 . S
C296 C298 1.327 . S
C296 H321 0.950 1_545 S
C297 C296 1.349 . S
C297 C313 1.349 . S
C298 C296 1.327 . S
C298 C317 1.429 . S
C298 H322 0.950 1_545 S
C299 C316 1.574 . S
C299 C318 1.368 . S
C299 H323 0.949 . S
H300 C304 0.949 1_565 S
C301 C302 1.349 . S
C301 C303 1.327 . S
C301 H324 0.950 . S
C302 C301 1.349 . S
C302 C314 1.359 . S
C303 C301 1.327 . S
C303 C319 1.429 . S
C303 H325 0.950 . S
C304 H300 0.949 1_545 S
C304 C312 1.574 . S
C304 C320 1.368 . S
H305 C313 0.950 . S
H306 C311 0.950 . S
H307 C312 0.949 1_565 S
H308 C314 0.940 1_565 S
H309 C315 0.950 1_565 S
H310 C316 0.949 . S
C311 H306 0.950 . S
C311 C313 1.327 . S
C311 C317 1.429 . S
C312 C304 1.574 . S
C312 H307 0.949 1_545 S
C312 C318 1.368 . S
C313 C297 1.349 . S
C313 H305 0.950 . S
C313 C311 1.327 . S
C314 C302 1.359 . S
C314 H308 0.940 1_545 S
C314 C315 1.327 . S
C315 H309 0.950 1_545 S
C315 C314 1.327 . S
C315 C319 1.429 . S
C316 C299 1.574 . S
C316 H310 0.949 . S
C316 C320 1.368 . S
C317 C298 1.429 . S
C317 C311 1.429 . S
C317 C318 1.523 . S
C318 C299 1.368 . S
C318 C312 1.368 . S
C318 C317 1.523 . S
C319 C303 1.429 . S
C319 C315 1.429 . S
C319 C320 1.523 . S
C320 C304 1.368 . S
C320 C316 1.368 . S
C320 C319 1.523 . S
H321 C296 0.950 1_565 S
H322 C298 0.950 1_565 S
H323 C299 0.949 . S
H324 C301 0.950 . S
H325 C303 0.950 . S
C326 C327 1.349 . S
C326 C328 1.327 . S
C326 H351 0.950 . S
C327 C326 1.349 . S
C327 C343 1.349 . S
C328 C326 1.327 . S
C328 C347 1.429 . S
C328 H352 0.950 . S
C329 C346 1.574 . S
C329 C348 1.368 . S
C329 H353 0.949 . S
H330 C334 0.949 . S
C331 C332 1.349 . S
C331 C333 1.327 . S
C331 H354 0.950 . S
C332 C331 1.349 . S
C332 C344 1.349 . S
C333 C331 1.327 . S
C333 C349 1.429 . S
C333 H355 0.950 . S
C334 H330 0.949 . S
C334 C342 1.574 . S
C334 C350 1.368 . S
H335 C343 0.950 . S
H336 C341 0.950 . S
H337 C342 0.949 . S
H338 C344 0.950 . S
H339 C345 0.950 . S
H340 C346 0.949 . S
C341 H336 0.950 . S
C341 C343 1.327 . S
C341 C347 1.429 . S
C342 C334 1.574 . S
C342 H337 0.949 . S
C342 C348 1.368 . S
C343 C327 1.349 . S
C343 H335 0.950 . S
C343 C341 1.327 . S
C344 C332 1.349 . S
C344 H338 0.950 . S
C344 C345 1.327 . S
C345 H339 0.950 . S
C345 C344 1.327 . S
C345 C349 1.429 . S
C346 C329 1.574 . S
C346 H340 0.949 . S
C346 C350 1.368 . S
C347 C328 1.429 . S
C347 C341 1.429 . S
C347 C348 1.523 . S
C348 C329 1.368 . S
C348 C342 1.368 . S
C348 C347 1.523 . S
C349 C333 1.429 . S
C349 C345 1.429 . S
C349 C350 1.523 . S
C350 C334 1.368 . S
C350 C346 1.368 . S
C350 C349 1.523 . S
H351 C326 0.950 . S
H352 C328 0.950 . S
H353 C329 0.949 . S
H354 C331 0.950 . S
H355 C333 0.950 . S
C356 C357 1.349 1_565 S
C356 C358 1.327 . S
C356 H381 0.950 . S
C357 C356 1.349 1_545 S
C357 C373 1.349 . S
C358 C356 1.327 . S
C358 C377 1.429 1_565 S
C358 H382 0.950 . S
C359 C376 1.574 . S
C359 C378 1.368 . S
C359 H383 0.949 . S
H360 C364 0.949 . S
C361 C362 1.349 . S
C361 C363 1.327 . S
C361 H384 0.950 . S
C362 C361 1.349 . S
C362 C374 1.349 . S
C363 C361 1.327 . S
C363 C379 1.429 . S
C363 H385 0.950 . S
C364 H360 0.949 . S
C364 C372 1.574 . S
C364 C380 1.368 1_565 S
H365 C373 0.950 . S
H366 C371 0.950 . S
H367 C372 0.949 . S
H368 C374 0.950 1_565 S
H369 C375 0.950 . S
H370 C376 0.949 . S
C371 H366 0.950 . S
C371 C373 1.327 . S
C371 C377 1.429 . S
C372 C364 1.574 . S
C372 H367 0.949 . S
C372 C378 1.368 1_565 S
C373 C357 1.349 . S
C373 H365 0.950 . S
C373 C371 1.327 . S
C374 C362 1.349 . S
C374 H368 0.950 1_545 S
C374 C375 1.327 1_545 S
C375 H369 0.950 . S
C375 C374 1.327 1_565 S
C375 C379 1.429 1_565 S
C376 C359 1.574 . S
C376 H370 0.949 . S
C376 C380 1.368 . S
C377 C358 1.429 1_545 S
C377 C371 1.429 . S
C377 C378 1.523 . S
C378 C359 1.368 . S
C378 C372 1.368 1_545 S
C378 C377 1.523 . S
C379 C363 1.429 . S
C379 C375 1.429 1_545 S
C379 C380 1.523 . S
C380 C364 1.368 1_545 S
C380 C376 1.368 . S
C380 C379 1.523 . S
H381 C356 0.950 . S
H382 C358 0.950 . S
H383 C359 0.949 . S
H384 C361 0.950 . S
H385 C363 0.950 . S
C386 C387 1.349 . S
C386 C388 1.327 . S
C386 H411 0.950 . S
C387 C386 1.349 . S
C387 C403 1.349 . S
C388 C386 1.327 . S
C388 C407 1.429 . S
C388 H412 0.950 . S
C389 C406 1.574 . S
C389 C408 1.368 . S
C389 H413 0.949 . S
H390 C394 0.949 . S
C391 C392 1.349 . S
C391 C393 1.327 . S
C391 H414 0.950 . S
C392 C391 1.349 . S
C392 C404 1.349 . S
C393 C391 1.327 . S
C393 C409 1.429 . S
C393 H415 0.950 . S
C394 H390 0.949 . S
C394 C402 1.574 . S
C394 C410 1.368 . S
H395 C403 0.950 . S
H396 C401 0.950 . S
H397 C402 0.949 . S
H398 C404 0.950 . S
H399 C405 0.950 . S
H400 C406 0.949 . S
C401 H396 0.950 . S
C401 C403 1.327 . S
C401 C407 1.429 . S
C402 C394 1.574 . S
C402 H397 0.949 . S
C402 C408 1.368 . S
C403 C387 1.349 . S
C403 H395 0.950 . S
C403 C401 1.327 . S
C404 C392 1.349 . S
C404 H398 0.950 . S
C404 C405 1.327 . S
C405 H399 0.950 . S
C405 C404 1.327 . S
C405 C409 1.429 . S
C406 C389 1.574 . S
C406 H400 0.949 . S
C406 C410 1.368 . S
C407 C388 1.429 . S
C407 C401 1.429 . S
C407 C408 1.523 . S
C408 C389 1.368 . S
C408 C402 1.368 . S
C408 C407 1.523 . S
C409 C393 1.429 . S
C409 C405 1.429 . S
C409 C410 1.523 . S
C410 C394 1.368 . S
C410 C406 1.368 . S
C410 C409 1.523 . S
H411 C386 0.950 . S
H412 C388 0.950 . S
H413 C389 0.949 . S
H414 C391 0.950 . S
H415 C393 0.950 . S
C182 C153 1.936 . S
C177 C69 2.204 . S
C212 C173 2.196 . S
C207 C143 2.241 . S
C242 C152 1.441 1_655 S
C237 C63 1.398 . S
C272 C174 1.483 . S
C267 C137 1.394 . S
C302 C166 1.388 . S
C297 C39 1.336 . S
C332 C159 1.294 . S
C327 C113 1.284 . S
C362 C167 0.719 . S
C357 C51 0.680 . S
C387 C125 0.697 . S
C392 C160 0.696 . S
