# Generated by pormake.
# Topology ctn, (3,4)-cn, num edge types: 1
# Building blocks:
#     Node 0, Type 0, BuildingBlock: MIDCAF_clean_linker_0, # of connection points: 3
#     Node 1, Type 0, BuildingBlock: MIDCAF_clean_linker_0, # of connection points: 3
#     Node 2, Type 0, BuildingBlock: MIDCAF_clean_linker_0, # of connection points: 3
#     Node 3, Type 0, BuildingBlock: MIDCAF_clean_linker_0, # of connection points: 3
#     Node 4, Type 0, BuildingBlock: MIDCAF_clean_linker_0, # of connection points: 3
#     Node 5, Type 0, BuildingBlock: MIDCAF_clean_linker_0, # of connection points: 3
#     Node 6, Type 0, BuildingBlock: MIDCAF_clean_linker_0, # of connection points: 3
#     Node 7, Type 0, BuildingBlock: MIDCAF_clean_linker_0, # of connection points: 3
#     Node 8, Type 0, BuildingBlock: MIDCAF_clean_linker_0, # of connection points: 3
#     Node 9, Type 0, BuildingBlock: MIDCAF_clean_linker_0, # of connection points: 3
#     Node 10, Type 0, BuildingBlock: MIDCAF_clean_linker_0, # of connection points: 3
#     Node 11, Type 0, BuildingBlock: MIDCAF_clean_linker_0, # of connection points: 3
#     Node 12, Type 0, BuildingBlock: MIDCAF_clean_linker_0, # of connection points: 3
#     Node 13, Type 0, BuildingBlock: MIDCAF_clean_linker_0, # of connection points: 3
#     Node 14, Type 0, BuildingBlock: MIDCAF_clean_linker_0, # of connection points: 3
#     Node 15, Type 0, BuildingBlock: MIDCAF_clean_linker_0, # of connection points: 3
#     Node 16, Type 1, BuildingBlock: QUQFOY_clean_sbu_1, # of connection points: 4
#     Node 17, Type 1, BuildingBlock: QUQFOY_clean_sbu_1, # of connection points: 4
#     Node 18, Type 1, BuildingBlock: QUQFOY_clean_sbu_1, # of connection points: 4
#     Node 19, Type 1, BuildingBlock: QUQFOY_clean_sbu_1, # of connection points: 4
#     Node 20, Type 1, BuildingBlock: QUQFOY_clean_sbu_1, # of connection points: 4
#     Node 21, Type 1, BuildingBlock: QUQFOY_clean_sbu_1, # of connection points: 4
#     Node 22, Type 1, BuildingBlock: QUQFOY_clean_sbu_1, # of connection points: 4
#     Node 23, Type 1, BuildingBlock: QUQFOY_clean_sbu_1, # of connection points: 4
#     Node 24, Type 1, BuildingBlock: QUQFOY_clean_sbu_1, # of connection points: 4
#     Node 25, Type 1, BuildingBlock: QUQFOY_clean_sbu_1, # of connection points: 4
#     Node 26, Type 1, BuildingBlock: QUQFOY_clean_sbu_1, # of connection points: 4
#     Node 27, Type 1, BuildingBlock: QUQFOY_clean_sbu_1, # of connection points: 4
#     Edge 28, Type (0, 1), BuildingBlock: XUDNAN_clean_linker_2, # of connection points: 2
#     Edge 29, Type (0, 1), BuildingBlock: XUDNAN_clean_linker_2, # of connection points: 2
#     Edge 30, Type (0, 1), BuildingBlock: XUDNAN_clean_linker_2, # of connection points: 2
#     Edge 31, Type (0, 1), BuildingBlock: XUDNAN_clean_linker_2, # of connection points: 2
#     Edge 32, Type (0, 1), BuildingBlock: XUDNAN_clean_linker_2, # of connection points: 2
#     Edge 33, Type (0, 1), BuildingBlock: XUDNAN_clean_linker_2, # of connection points: 2
#     Edge 34, Type (0, 1), BuildingBlock: XUDNAN_clean_linker_2, # of connection points: 2
#     Edge 35, Type (0, 1), BuildingBlock: XUDNAN_clean_linker_2, # of connection points: 2
#     Edge 36, Type (0, 1), BuildingBlock: XUDNAN_clean_linker_2, # of connection points: 2
#     Edge 37, Type (0, 1), BuildingBlock: XUDNAN_clean_linker_2, # of connection points: 2
#     Edge 38, Type (0, 1), BuildingBlock: XUDNAN_clean_linker_2, # of connection points: 2
#     Edge 39, Type (0, 1), BuildingBlock: XUDNAN_clean_linker_2, # of connection points: 2
#     Edge 40, Type (0, 1), BuildingBlock: XUDNAN_clean_linker_2, # of connection points: 2
#     Edge 41, Type (0, 1), BuildingBlock: XUDNAN_clean_linker_2, # of connection points: 2
#     Edge 42, Type (0, 1), BuildingBlock: XUDNAN_clean_linker_2, # of connection points: 2
#     Edge 43, Type (0, 1), BuildingBlock: XUDNAN_clean_linker_2, # of connection points: 2
#     Edge 44, Type (0, 1), BuildingBlock: XUDNAN_clean_linker_2, # of connection points: 2
#     Edge 45, Type (0, 1), BuildingBlock: XUDNAN_clean_linker_2, # of connection points: 2
#     Edge 46, Type (0, 1), BuildingBlock: XUDNAN_clean_linker_2, # of connection points: 2
#     Edge 47, Type (0, 1), BuildingBlock: XUDNAN_clean_linker_2, # of connection points: 2
#     Edge 48, Type (0, 1), BuildingBlock: XUDNAN_clean_linker_2, # of connection points: 2
#     Edge 49, Type (0, 1), BuildingBlock: XUDNAN_clean_linker_2, # of connection points: 2
#     Edge 50, Type (0, 1), BuildingBlock: XUDNAN_clean_linker_2, # of connection points: 2
#     Edge 51, Type (0, 1), BuildingBlock: XUDNAN_clean_linker_2, # of connection points: 2
#     Edge 52, Type (0, 1), BuildingBlock: XUDNAN_clean_linker_2, # of connection points: 2
#     Edge 53, Type (0, 1), BuildingBlock: XUDNAN_clean_linker_2, # of connection points: 2
#     Edge 54, Type (0, 1), BuildingBlock: XUDNAN_clean_linker_2, # of connection points: 2
#     Edge 55, Type (0, 1), BuildingBlock: XUDNAN_clean_linker_2, # of connection points: 2
#     Edge 56, Type (0, 1), BuildingBlock: XUDNAN_clean_linker_2, # of connection points: 2
#     Edge 57, Type (0, 1), BuildingBlock: XUDNAN_clean_linker_2, # of connection points: 2
#     Edge 58, Type (0, 1), BuildingBlock: XUDNAN_clean_linker_2, # of connection points: 2
#     Edge 59, Type (0, 1), BuildingBlock: XUDNAN_clean_linker_2, # of connection points: 2
#     Edge 60, Type (0, 1), BuildingBlock: XUDNAN_clean_linker_2, # of connection points: 2
#     Edge 61, Type (0, 1), BuildingBlock: XUDNAN_clean_linker_2, # of connection points: 2
#     Edge 62, Type (0, 1), BuildingBlock: XUDNAN_clean_linker_2, # of connection points: 2
#     Edge 63, Type (0, 1), BuildingBlock: XUDNAN_clean_linker_2, # of connection points: 2
#     Edge 64, Type (0, 1), BuildingBlock: XUDNAN_clean_linker_2, # of connection points: 2
#     Edge 65, Type (0, 1), BuildingBlock: XUDNAN_clean_linker_2, # of connection points: 2
#     Edge 66, Type (0, 1), BuildingBlock: XUDNAN_clean_linker_2, # of connection points: 2
#     Edge 67, Type (0, 1), BuildingBlock: XUDNAN_clean_linker_2, # of connection points: 2
#     Edge 68, Type (0, 1), BuildingBlock: XUDNAN_clean_linker_2, # of connection points: 2
#     Edge 69, Type (0, 1), BuildingBlock: XUDNAN_clean_linker_2, # of connection points: 2
#     Edge 70, Type (0, 1), BuildingBlock: XUDNAN_clean_linker_2, # of connection points: 2
#     Edge 71, Type (0, 1), BuildingBlock: XUDNAN_clean_linker_2, # of connection points: 2
#     Edge 72, Type (0, 1), BuildingBlock: XUDNAN_clean_linker_2, # of connection points: 2
#     Edge 73, Type (0, 1), BuildingBlock: XUDNAN_clean_linker_2, # of connection points: 2
#     Edge 74, Type (0, 1), BuildingBlock: XUDNAN_clean_linker_2, # of connection points: 2
#     Edge 75, Type (0, 1), BuildingBlock: XUDNAN_clean_linker_2, # of connection points: 2
# Relax obj value: 0.036
# Max RMSD: 0.143
# Mean RMSD: 0.064
data_MOF--net-ctn--node1-QUQFOY_clean_sbu_1--node2-MIDCAF_clean_linker_0--edge1-XUDNAN_clean_linker_2
_symmetry_space_group_name_H-M    P1
_symmetry_Int_Tables_number       1
_symmetry_cell_setting            triclinic
loop_
_symmetry_equiv_pos_as_xyz
'x, y, z'
_cell_length_a     66.986247
_cell_length_b     66.981071
_cell_length_c     67.134912
_cell_angle_alpha  92.883445
_cell_angle_beta   90.05677
_cell_angle_gamma 94.596678
loop_
_atom_site_label
_atom_site_type_symbol
_atom_site_fract_x
_atom_site_fract_y
_atom_site_fract_z
_atom_type_partial_charge
C0 C 0.01386 0.12207 0.12561 0.0
C1 C 0.01687 0.11544 0.14476 0.0
C2 C 0.03562 0.10926 0.14995 0.0
C3 C 0.051 0.10903 0.13586 0.0
H4 H 0.08938 0.06562 0.1102 0.0
H5 H 0.11073 0.03787 0.10816 0.0
H6 H 0.14716 0.06822 0.06403 0.0
H7 H 0.12533 0.09556 0.06549 0.0
H8 H 0.09895 0.12171 0.03564 0.0
H9 H 0.09427 0.13925 0.00514 0.0
H10 H 0.04567 0.16884 0.0328 0.0
H11 H 0.05005 0.1513 0.06302 0.0
H12 H 0.02639 0.12713 0.09688 0.0
H13 H 0.99942 0.12677 0.12133 0.0
H14 H 0.03812 0.10392 0.16464 0.0
H15 H 0.06519 0.10371 0.14004 0.0
N16 N 0.07763 0.10055 0.10223 0.0
N17 N 0.09049 0.1099 0.07122 0.0
N18 N 0.06302 0.12517 0.08485 0.0
C19 C 0.09119 0.09846 0.08736 0.0
C20 C 0.07646 0.12334 0.06989 0.0
C21 C 0.06355 0.11397 0.10108 0.0
C22 C 0.1055 0.08273 0.08784 0.0
C23 C 0.10207 0.06648 0.1002 0.0
C24 C 0.11439 0.05057 0.09909 0.0
C25 C 0.13058 0.05064 0.08575 0.0
C26 C 0.13454 0.06738 0.0741 0.0
C27 C 0.12209 0.08315 0.07503 0.0
C28 C 0.07478 0.13493 0.05179 0.0
C29 C 0.08733 0.13203 0.03526 0.0
C30 C 0.0847 0.14211 0.01779 0.0
C31 C 0.06943 0.15522 0.01649 0.0
C32 C 0.05728 0.1585 0.03318 0.0
C33 C 0.05991 0.14851 0.05059 0.0
C34 C 0.04791 0.11534 0.11651 0.0
C35 C 0.02931 0.12225 0.11168 0.0
C36 C 0.26151 0.66139 0.25837 0.0
C37 C 0.24063 0.6591 0.25575 0.0
C38 C 0.23124 0.67381 0.24576 0.0
C39 C 0.24251 0.69038 0.23853 0.0
H40 H 0.23971 0.74051 0.20322 0.0
H41 H 0.22638 0.7625 0.17929 0.0
H42 H 0.28642 0.78697 0.16695 0.0
H43 H 0.29978 0.76517 0.19062 0.0
H44 H 0.33743 0.75043 0.21451 0.0
H45 H 0.37117 0.75912 0.22748 0.0
H46 H 0.35531 0.72891 0.28139 0.0
H47 H 0.32213 0.71936 0.26793 0.0
H48 H 0.2888 0.67913 0.25357 0.0
H49 H 0.26932 0.65017 0.2656 0.0
H50 H 0.21515 0.67267 0.2437 0.0
H51 H 0.23482 0.70146 0.23096 0.0
N52 N 0.26772 0.72216 0.2205 0.0
N53 N 0.29852 0.74144 0.21947 0.0
N54 N 0.29482 0.71409 0.23989 0.0
C55 C 0.27918 0.73785 0.21327 0.0
C56 C 0.30639 0.7297 0.23284 0.0
C57 C 0.27553 0.71013 0.23373 0.0
C58 C 0.27083 0.75101 0.19882 0.0
C59 C 0.25007 0.75055 0.19536 0.0
C60 C 0.2424 0.76321 0.18178 0.0
C61 C 0.25538 0.77635 0.17122 0.0
C62 C 0.27608 0.77682 0.17471 0.0
C63 C 0.28372 0.76437 0.18838 0.0
C64 C 0.32712 0.73426 0.24023 0.0
C65 C 0.34127 0.74552 0.22906 0.0
C66 C 0.36059 0.75057 0.23656 0.0
C67 C 0.36606 0.74482 0.25556 0.0
C68 C 0.3519 0.73328 0.26654 0.0
C69 C 0.33274 0.72791 0.25889 0.0
C70 C 0.26339 0.69267 0.24129 0.0
C71 C 0.27273 0.678 0.25134 0.0
C72 C 0.94924 0.39968 0.03187 0.0
C73 C 0.94417 0.40054 0.01167 0.0
C74 C 0.93836 0.41861 0.00459 0.0
C75 C 0.93786 0.43563 0.01753 0.0
H76 H 0.90299 0.48546 0.0352 0.0
H77 H 0.88094 0.51216 0.03147 0.0
H78 H 0.9149 0.5489 0.0764 0.0
H79 H 0.93665 0.522 0.08057 0.0
H80 H 0.96255 0.4969 0.11207 0.0
H81 H 0.98689 0.49826 0.13923 0.0
H82 H 0.01655 0.45029 0.10927 0.0
H83 H 0.99188 0.44843 0.08264 0.0
H84 H 0.95351 0.41565 0.06008 0.0
H85 H 0.95395 0.38599 0.03765 0.0
H86 H 0.93436 0.41958 0.98905 0.0
H87 H 0.93364 0.44948 0.01169 0.0
N88 N 0.93326 0.46836 0.04833 0.0
N89 N 0.94826 0.48628 0.07619 0.0
N90 N 0.9584 0.45465 0.06631 0.0
C91 C 0.93474 0.485 0.06094 0.0
C92 C 0.9602 0.47116 0.07889 0.0
C93 C 0.94501 0.4531 0.05105 0.0
C94 C 0.92162 0.5015 0.05823 0.0
C95 C 0.90583 0.49923 0.04427 0.0
C96 C 0.89322 0.51462 0.04204 0.0
C97 C 0.89614 0.53271 0.05362 0.0
C98 C 0.91203 0.53506 0.06744 0.0
C99 C 0.92459 0.51963 0.06976 0.0
C100 C 0.97519 0.47251 0.09523 0.0
C101 C 0.97427 0.48666 0.1113 0.0
C102 C 0.98831 0.4875 0.12682 0.0
C103 C 0.00369 0.47433 0.12649 0.0
C104 C 0.00469 0.46037 0.11026 0.0
C105 C 0.99057 0.4594 0.0949 0.0
C106 C 0.94362 0.4349 0.0376 0.0
C107 C 0.94911 0.41671 0.04466 0.0
C108 C 0.72562 0.75065 0.19966 0.0
C109 C 0.73185 0.75503 0.18027 0.0
C110 C 0.73484 0.77512 0.17524 0.0
C111 C 0.73183 0.79058 0.18932 0.0
H112 H 0.67507 0.78964 0.25633 0.0
H113 H 0.64921 0.79097 0.28195 0.0
H114 H 0.68465 0.83916 0.31373 0.0
H115 H 0.71005 0.83822 0.28797 0.0
H116 H 0.72326 0.87268 0.25343 0.0
H117 H 0.74029 0.9055 0.24876 0.0
H118 H 0.77704 0.87968 0.20294 0.0
H119 H 0.75957 0.84687 0.20715 0.0
H120 H 0.71748 0.76244 0.22858 0.0
H121 H 0.72317 0.73524 0.20384 0.0
H122 H 0.7398 0.7789 0.16044 0.0
H123 H 0.73438 0.80591 0.18491 0.0
N124 N 0.71066 0.80039 0.23962 0.0
N125 N 0.71797 0.8342 0.24994 0.0
N126 N 0.73231 0.82136 0.2208 0.0
C127 C 0.70829 0.81602 0.25294 0.0
C128 C 0.72997 0.83703 0.23394 0.0
C129 C 0.72279 0.80301 0.22352 0.0
C130 C 0.6944 0.81406 0.26996 0.0
C131 C 0.67747 0.80023 0.269 0.0
C132 C 0.66269 0.80097 0.28371 0.0
C133 C 0.6647 0.81544 0.29969 0.0
C134 C 0.68238 0.8282 0.30135 0.0
C135 C 0.69698 0.8276 0.28661 0.0
C136 C 0.74013 0.85707 0.23076 0.0
C137 C 0.73493 0.87396 0.24231 0.0
C138 C 0.74474 0.89281 0.23968 0.0
C139 C 0.7601 0.89523 0.22555 0.0
C140 C 0.76509 0.87841 0.21376 0.0
C141 C 0.75516 0.85955 0.21629 0.0
C142 C 0.7255 0.78633 0.20872 0.0
C143 C 0.72227 0.76619 0.21373 0.0
C144 C 0.03482 0.91823 0.50301 0.0
C145 C 0.01401 0.91469 0.50575 0.0
C146 C 0.00112 0.92633 0.49556 0.0
C147 C 0.00871 0.94054 0.48248 0.0
H148 H 0.00425 0.95132 0.41768 0.0
H149 H 0.98473 0.95725 0.38806 0.0
H150 H 0.01276 0.01748 0.38726 0.0
H151 H 0.0327 0.01151 0.41668 0.0
H152 H 0.07517 0.01935 0.44137 0.0
H153 H 0.10771 0.03796 0.44668 0.0
H154 H 0.12664 0.99105 0.48242 0.0
H155 H 0.09398 0.97237 0.4773 0.0
H156 H 0.05851 0.93507 0.48822 0.0
H157 H 0.04523 0.90944 0.51037 0.0
H158 H 0.98507 0.92456 0.49769 0.0
H159 H 0.99831 0.9491 0.47479 0.0
N160 N 0.02573 0.96297 0.44975 0.0
N161 N 0.05047 0.98727 0.44013 0.0
N162 N 0.05552 0.96883 0.4683 0.0
C163 C 0.03231 0.97708 0.43696 0.0
C164 C 0.06219 0.98317 0.45571 0.0
C165 C 0.03718 0.95884 0.46549 0.0
C166 C 0.02002 0.98096 0.41948 0.0
C167 C 0.00621 0.96586 0.41124 0.0
C168 C 0.99513 0.96918 0.39426 0.0
C169 C 0.99733 0.98778 0.38546 0.0
C170 C 0.01081 0.00303 0.39387 0.0
C171 C 0.02223 0.99957 0.41061 0.0
C172 C 0.08198 0.99437 0.45893 0.0
C173 C 0.08625 0.01295 0.45034 0.0
C174 C 0.10483 0.02367 0.45345 0.0
C175 C 0.11963 0.01591 0.46495 0.0
C176 C 0.11549 0.99727 0.47339 0.0
C177 C 0.09678 0.98667 0.47055 0.0
C178 C 0.02943 0.94389 0.4796 0.0
C179 C 0.04245 0.93283 0.49021 0.0
C180 C 0.22136 0.79049 0.86659 0.0
C181 C 0.20461 0.80184 0.86873 0.0
C182 C 0.19007 0.80019 0.85349 0.0
C183 C 0.1924 0.78787 0.8364 0.0
H184 H 0.18779 0.78959 0.77307 0.0
H185 H 0.16483 0.79505 0.7462 0.0
H186 H 0.16634 0.73324 0.72506 0.0
H187 H 0.18955 0.72768 0.75215 0.0
H188 H 0.23219 0.70768 0.76957 0.0
H189 H 0.25319 0.67958 0.77134 0.0
H190 H 0.27123 0.70002 0.83117 0.0
H191 H 0.25025 0.72776 0.82963 0.0
H192 H 0.2367 0.76955 0.84833 0.0
H193 H 0.23303 0.7916 0.87785 0.0
H194 H 0.17678 0.80835 0.85477 0.0
H195 H 0.1809 0.78703 0.82497 0.0
N196 N 0.20096 0.76658 0.7993 0.0
N197 N 0.21492 0.73947 0.78254 0.0
N198 N 0.22408 0.74877 0.81573 0.0
C199 C 0.20256 0.75464 0.78254 0.0
C200 C 0.22587 0.73654 0.79913 0.0
C201 C 0.21158 0.76374 0.81596 0.0
C202 C 0.19037 0.75814 0.76483 0.0
C203 C 0.18343 0.77717 0.76259 0.0
C204 C 0.17039 0.78037 0.74708 0.0
C205 C 0.16378 0.76458 0.73354 0.0
C206 C 0.17114 0.74565 0.73537 0.0
C207 C 0.18448 0.7425 0.75079 0.0
C208 C 0.23932 0.71995 0.79951 0.0
C209 C 0.2407 0.70624 0.78307 0.0
C210 C 0.25281 0.69018 0.78403 0.0
C211 C 0.26373 0.68747 0.80146 0.0
C212 C 0.26273 0.70146 0.81766 0.0
C213 C 0.25071 0.71746 0.81671 0.0
C214 C 0.20918 0.77665 0.83422 0.0
C215 C 0.22355 0.77794 0.84959 0.0
C216 C 0.96941 0.63097 0.49419 0.0
C217 C 0.95673 0.63821 0.50904 0.0
C218 C 0.93654 0.63073 0.50918 0.0
C219 C 0.92944 0.61549 0.49538 0.0
H220 H 0.88119 0.57063 0.4845 0.0
H221 H 0.85497 0.54764 0.49825 0.0
H222 H 0.88173 0.49735 0.46956 0.0
H223 H 0.90761 0.52005 0.45546 0.0
H224 H 0.94276 0.52708 0.42667 0.0
H225 H 0.96746 0.51349 0.40426 0.0
H226 H 0.99959 0.57194 0.40339 0.0
H227 H 0.97493 0.58567 0.42581 0.0
H228 H 0.97267 0.61024 0.46942 0.0
H229 H 0.98499 0.63668 0.49361 0.0
H230 H 0.92646 0.63603 0.52051 0.0
H231 H 0.91397 0.60952 0.49634 0.0
N232 N 0.91871 0.57826 0.47271 0.0
N233 N 0.926 0.55408 0.44789 0.0
N234 N 0.94773 0.58299 0.45345 0.0
C235 C 0.91374 0.5605 0.46254 0.0
C236 C 0.94291 0.56532 0.4431 0.0
C237 C 0.9357 0.5896 0.46825 0.0
C238 C 0.89655 0.54715 0.46898 0.0
C239 C 0.88129 0.55469 0.48087 0.0
C240 C 0.86628 0.54162 0.48867 0.0
C241 C 0.86655 0.52085 0.48498 0.0
C242 C 0.88134 0.51336 0.4726 0.0
C243 C 0.89609 0.52638 0.4645 0.0
C244 C 0.95691 0.55747 0.42815 0.0
C245 C 0.95495 0.53713 0.42156 0.0
C246 C 0.96915 0.52928 0.40883 0.0
C247 C 0.98547 0.54164 0.40221 0.0
C248 C 0.98708 0.56211 0.40819 0.0
C249 C 0.973 0.56993 0.42111 0.0
C250 C 0.94235 0.60757 0.48105 0.0
C251 C 0.96229 0.6159 0.48026 0.0
C252 C 0.85651 0.80833 0.78242 0.0
C253 C 0.85626 0.80674 0.76145 0.0
C254 C 0.83817 0.80911 0.75142 0.0
C255 C 0.8206 0.81203 0.76216 0.0
H256 H 0.7705 0.85655 0.77867 0.0
H257 H 0.74393 0.87949 0.77668 0.0
H258 H 0.70366 0.83768 0.80704 0.0
H259 H 0.73011 0.8151 0.80938 0.0
H260 H 0.75281 0.80051 0.84955 0.0
H261 H 0.7507 0.78335 0.88064 0.0
H262 H 0.80872 0.76136 0.8695 0.0
H263 H 0.81085 0.77834 0.83819 0.0
H264 H 0.83962 0.81135 0.80923 0.0
H265 H 0.87023 0.80726 0.7907 0.0
H266 H 0.83734 0.80787 0.73529 0.0
H267 H 0.80674 0.81305 0.7541 0.0
N268 N 0.7864 0.82256 0.78867 0.0
N269 N 0.76799 0.81178 0.81647 0.0
N270 N 0.80046 0.80221 0.81162 0.0
C271 C 0.76927 0.82223 0.79963 0.0
C272 C 0.78348 0.80173 0.82259 0.0
C273 C 0.80204 0.81246 0.79466 0.0
C274 C 0.75251 0.83421 0.79453 0.0
C275 C 0.75582 0.85208 0.78448 0.0
C276 C 0.7406 0.8652 0.78331 0.0
C277 C 0.72183 0.86056 0.79208 0.0
C278 C 0.71811 0.8419 0.80058 0.0
C279 C 0.73327 0.82894 0.80188 0.0
C280 C 0.78203 0.79088 0.84132 0.0
C281 C 0.76514 0.792 0.85363 0.0
C282 C 0.76397 0.78227 0.87155 0.0
C283 C 0.7796 0.77111 0.87757 0.0
C284 C 0.79638 0.76974 0.86518 0.0
C285 C 0.79761 0.77956 0.84728 0.0
C286 C 0.82077 0.8123 0.78309 0.0
C287 C 0.83897 0.81084 0.79308 0.0
C288 C 0.36387 0.30466 0.27462 0.0
C289 C 0.36498 0.31542 0.25715 0.0
C290 C 0.34776 0.32386 0.25055 0.0
C291 C 0.32996 0.32189 0.26128 0.0
H292 H 0.27392 0.34158 0.26272 0.0
H293 H 0.24773 0.3634 0.25529 0.0
H294 H 0.21612 0.34585 0.30844 0.0
H295 H 0.24226 0.32418 0.31607 0.0
H296 H 0.25947 0.29483 0.34338 0.0
H297 H 0.25691 0.27771 0.37434 0.0
H298 H 0.31696 0.25961 0.36648 0.0
H299 H 0.31957 0.27663 0.3351 0.0
H300 H 0.34573 0.29447 0.29891 0.0
H301 H 0.3769 0.29807 0.28015 0.0
H302 H 0.34796 0.33187 0.23692 0.0
H303 H 0.31707 0.32868 0.2557 0.0
N304 N 0.29424 0.31995 0.28492 0.0
N305 N 0.27583 0.30856 0.31228 0.0
N306 N 0.3085 0.29918 0.30722 0.0
C307 C 0.27709 0.31935 0.29569 0.0
C308 C 0.29138 0.29839 0.31814 0.0
C309 C 0.31001 0.30991 0.29053 0.0
C310 C 0.26036 0.33124 0.29012 0.0
C311 C 0.26132 0.34221 0.27276 0.0
C312 C 0.24624 0.35463 0.2684 0.0
C313 C 0.22996 0.35643 0.28136 0.0
C314 C 0.22864 0.34496 0.29833 0.0
C315 C 0.24363 0.33248 0.30264 0.0
C316 C 0.28979 0.28725 0.33671 0.0
C317 C 0.27219 0.28721 0.34812 0.0
C318 C 0.27074 0.27748 0.366 0.0
C319 C 0.28682 0.26751 0.37298 0.0
C320 C 0.3043 0.26713 0.36144 0.0
C321 C 0.30579 0.27695 0.3435 0.0
C322 C 0.32885 0.31136 0.2789 0.0
C323 C 0.346 0.30266 0.28539 0.0
C324 C 0.43714 0.89353 0.53971 0.0
C325 C 0.43158 0.89573 0.51983 0.0
C326 C 0.4249 0.91406 0.51438 0.0
C327 C 0.42423 0.93007 0.5285 0.0
H328 H 0.3947 0.98173 0.54461 0.0
H329 H 0.37525 0.01026 0.53994 0.0
H330 H 0.40497 0.04199 0.59067 0.0
H331 H 0.42421 0.01328 0.59568 0.0
H332 H 0.45537 0.99155 0.6208 0.0
H333 H 0.4819 0.99365 0.6458 0.0
H334 H 0.50183 0.93752 0.62201 0.0
H335 H 0.47504 0.93509 0.59738 0.0
H336 H 0.4417 0.90759 0.56883 0.0
H337 H 0.4425 0.87961 0.54425 0.0
H338 H 0.42046 0.91607 0.49913 0.0
H339 H 0.41944 0.94417 0.5238 0.0
N340 N 0.42107 0.96144 0.56029 0.0
N341 N 0.43646 0.97812 0.58856 0.0
N342 N 0.44531 0.94617 0.57805 0.0
C343 C 0.42306 0.97775 0.57328 0.0
C344 C 0.44766 0.96238 0.59102 0.0
C345 C 0.43208 0.94556 0.56269 0.0
C346 C 0.4111 0.99514 0.57052 0.0
C347 C 0.39713 0.99475 0.55482 0.0
C348 C 0.38604 0.01119 0.55204 0.0
C349 C 0.38864 0.02847 0.56486 0.0
C350 C 0.40248 0.02885 0.58064 0.0
C351 C 0.41359 0.01239 0.58344 0.0
C352 C 0.46308 0.96321 0.60697 0.0
C353 C 0.46531 0.97959 0.62095 0.0
C354 C 0.48062 0.98085 0.63522 0.0
C355 C 0.4941 0.96583 0.6358 0.0
C356 C 0.49159 0.94925 0.62212 0.0
C357 C 0.47625 0.94793 0.60791 0.0
C358 C 0.43062 0.92812 0.54821 0.0
C359 C 0.4368 0.9096 0.55372 0.0
C360 C 0.23576 0.26999 0.66657 0.0
C361 C 0.22266 0.25259 0.66746 0.0
C362 C 0.21044 0.25017 0.68429 0.0
C363 C 0.21085 0.26506 0.69963 0.0
H364 H 0.19057 0.27655 0.75679 0.0
H365 H 0.16808 0.27215 0.78503 0.0
H366 H 0.17596 0.3357 0.80023 0.0
H367 H 0.19835 0.34025 0.77197 0.0
H368 H 0.2254 0.36794 0.74617 0.0
H369 H 0.2439 0.40032 0.74342 0.0
H370 H 0.28122 0.37482 0.69791 0.0
H371 H 0.26223 0.34239 0.70021 0.0
H372 H 0.24604 0.29841 0.6805 0.0
H373 H 0.24525 0.27233 0.65371 0.0
H374 H 0.20037 0.2368 0.68551 0.0
H375 H 0.20095 0.26276 0.7122 0.0
N376 N 0.21092 0.29653 0.73043 0.0
N377 N 0.21956 0.32965 0.74195 0.0
N378 N 0.23294 0.31734 0.71193 0.0
C379 C 0.20934 0.31165 0.74444 0.0
C380 C 0.23142 0.33264 0.72582 0.0
C381 C 0.22266 0.29922 0.71412 0.0
C382 C 0.19623 0.30877 0.76201 0.0
C383 C 0.1876 0.2896 0.76617 0.0
C384 C 0.17482 0.28704 0.78245 0.0
C385 C 0.17029 0.30359 0.79483 0.0
C386 C 0.17908 0.3227 0.79084 0.0
C387 C 0.19197 0.32526 0.77467 0.0
C388 C 0.24241 0.35248 0.72351 0.0
C389 C 0.23752 0.36918 0.73552 0.0
C390 C 0.2482 0.38778 0.73401 0.0
C391 C 0.26419 0.39017 0.72058 0.0
C392 C 0.26886 0.37357 0.70827 0.0
C393 C 0.25804 0.35494 0.70967 0.0
C394 C 0.22343 0.28282 0.69848 0.0
C395 C 0.2361 0.28498 0.68188 0.0
C396 C 0.7747 0.15736 0.73951 0.0
C397 C 0.75368 0.15611 0.73961 0.0
C398 C 0.74382 0.17292 0.73446 0.0
C399 C 0.7548 0.19085 0.73017 0.0
H400 H 0.76318 0.24442 0.68935 0.0
H401 H 0.75437 0.27272 0.67042 0.0
H402 H 0.78964 0.31336 0.7112 0.0
H403 H 0.79909 0.28509 0.72942 0.0
H404 H 0.84305 0.26628 0.73801 0.0
H405 H 0.87641 0.27067 0.75268 0.0
H406 H 0.87256 0.20805 0.76598 0.0
H407 H 0.83901 0.20364 0.75167 0.0
H408 H 0.80184 0.17575 0.73591 0.0
H409 H 0.78276 0.14456 0.74292 0.0
H410 H 0.72762 0.17249 0.73451 0.0
H411 H 0.74679 0.20374 0.72694 0.0
N412 N 0.77949 0.22745 0.72079 0.0
N413 N 0.80927 0.24767 0.72748 0.0
N414 N 0.80664 0.21425 0.73627 0.0
C415 C 0.79032 0.24547 0.72002 0.0
C416 C 0.81758 0.23211 0.73555 0.0
C417 C 0.78762 0.21177 0.72902 0.0
C418 C 0.78212 0.26254 0.7106 0.0
C419 C 0.76875 0.25946 0.69441 0.0
C420 C 0.76364 0.2757 0.68363 0.0
C421 C 0.7716 0.29532 0.68906 0.0
C422 C 0.7837 0.29842 0.70624 0.0
C423 C 0.78906 0.28222 0.71675 0.0
C424 C 0.83823 0.23463 0.74374 0.0
C425 C 0.8493 0.25339 0.74397 0.0
C426 C 0.86852 0.25589 0.75226 0.0
C427 C 0.87714 0.2397 0.76048 0.0
C428 C 0.86624 0.22087 0.75997 0.0
C429 C 0.84701 0.21836 0.75169 0.0
C430 C 0.77583 0.19233 0.73109 0.0
C431 C 0.78564 0.17525 0.73538 0.0
C432 C 0.50778 0.6274 0.61654 0.0
C433 C 0.50624 0.61181 0.62982 0.0
C434 C 0.52076 0.59777 0.62916 0.0
C435 C 0.53592 0.59868 0.6149 0.0
H436 H 0.57849 0.56435 0.58964 0.0
H437 H 0.59408 0.53324 0.58127 0.0
H438 H 0.61375 0.55645 0.52513 0.0
H439 H 0.59831 0.58738 0.53328 0.0
H440 H 0.58882 0.63016 0.52198 0.0
H441 H 0.58537 0.65171 0.49418 0.0
H442 H 0.53526 0.67721 0.52344 0.0
H443 H 0.5385 0.65564 0.55119 0.0
H444 H 0.5233 0.64017 0.59182 0.0
H445 H 0.49677 0.6384 0.61664 0.0
H446 H 0.52022 0.58581 0.63947 0.0
H447 H 0.54651 0.58728 0.61455 0.0
N448 N 0.5633 0.59766 0.58185 0.0
N449 N 0.57606 0.61074 0.55232 0.0
N450 N 0.55218 0.62749 0.57065 0.0
C451 C 0.57563 0.59632 0.56586 0.0
C452 C 0.56447 0.6264 0.55461 0.0
C453 C 0.55159 0.61326 0.58441 0.0
C454 C 0.58691 0.57834 0.56204 0.0
C455 C 0.58631 0.56292 0.57559 0.0
C456 C 0.59528 0.54512 0.57086 0.0
C457 C 0.60483 0.54235 0.55243 0.0
C458 C 0.60614 0.55805 0.53929 0.0
C459 C 0.59736 0.57584 0.54404 0.0
C460 C 0.56381 0.64099 0.53877 0.0
C461 C 0.57717 0.64048 0.52261 0.0
C462 C 0.57527 0.65289 0.5067 0.0
C463 C 0.55992 0.66596 0.50656 0.0
C464 C 0.54704 0.66702 0.52302 0.0
C465 C 0.549 0.65473 0.53898 0.0
C466 C 0.53693 0.61369 0.60095 0.0
C467 C 0.52296 0.62833 0.60225 0.0
C468 C 0.54601 0.41134 0.98674 0.0
C469 C 0.52537 0.40613 0.98879 0.0
C470 C 0.51181 0.41637 0.97784 0.0
C471 C 0.51869 0.43145 0.96532 0.0
H472 H 0.50347 0.46137 0.91485 0.0
H473 H 0.48341 0.47171 0.88743 0.0
H474 H 0.53238 0.51329 0.87067 0.0
H475 H 0.55256 0.50293 0.89792 0.0
H476 H 0.5905 0.51148 0.92693 0.0
H477 H 0.6177 0.53496 0.94014 0.0
H478 H 0.6179 0.5031 0.99442 0.0
H479 H 0.59089 0.47959 0.98138 0.0
H480 H 0.56884 0.4305 0.97347 0.0
H481 H 0.55696 0.40354 0.99452 0.0
H482 H 0.4958 0.41314 0.97928 0.0
H483 H 0.50784 0.43923 0.95736 0.0
N484 N 0.53544 0.45927 0.93613 0.0
N485 N 0.55932 0.486 0.93066 0.0
N486 N 0.56386 0.46478 0.95669 0.0
C487 C 0.54187 0.47524 0.92542 0.0
C488 C 0.57037 0.4809 0.94632 0.0
C489 C 0.54649 0.45387 0.95167 0.0
C490 C 0.52968 0.48129 0.90862 0.0
C491 C 0.51002 0.47268 0.90531 0.0
C492 C 0.49845 0.47869 0.88968 0.0
C493 C 0.50633 0.49331 0.87692 0.0
C494 C 0.52598 0.50184 0.88015 0.0
C495 C 0.5375 0.49596 0.89585 0.0
C496 C 0.58834 0.49376 0.95316 0.0
C497 C 0.59649 0.50932 0.94158 0.0
C498 C 0.61212 0.52271 0.94908 0.0
C499 C 0.6197 0.5209 0.96835 0.0
C500 C 0.61213 0.50492 0.9796 0.0
C501 C 0.5967 0.49142 0.97205 0.0
C502 C 0.53926 0.43695 0.96376 0.0
C503 C 0.55286 0.4267 0.97453 0.0
C504 C 0.70839 0.25985 0.3847 0.0
C505 C 0.70676 0.28056 0.38815 0.0
C506 C 0.70423 0.29231 0.37161 0.0
C507 C 0.70413 0.28367 0.35217 0.0
H508 H 0.70491 0.2429 0.25435 0.0
H509 H 0.68136 0.24876 0.22771 0.0
H510 H 0.64116 0.27255 0.27139 0.0
H511 H 0.66452 0.26693 0.29792 0.0
H512 H 0.73066 0.20418 0.27654 0.0
H513 H 0.75413 0.17782 0.27536 0.0
H514 H 0.7814 0.20294 0.33029 0.0
H515 H 0.75816 0.22887 0.33165 0.0
H516 H 0.7108 0.23553 0.36316 0.0
H517 H 0.70967 0.25013 0.39696 0.0
H518 H 0.70314 0.30832 0.37355 0.0
H519 H 0.7028 0.29313 0.33969 0.0
N520 N 0.69796 0.25894 0.31324 0.0
N521 N 0.71476 0.23718 0.29163 0.0
N522 N 0.72388 0.24145 0.32538 0.0
C523 C 0.70032 0.25026 0.29469 0.0
C524 C 0.72671 0.23286 0.30699 0.0
C525 C 0.70967 0.25447 0.32863 0.0
C526 C 0.68661 0.25439 0.2783 0.0
C527 C 0.69108 0.24945 0.25826 0.0
C528 C 0.67768 0.25289 0.243 0.0
C529 C 0.65942 0.261 0.24754 0.0
C530 C 0.65505 0.2661 0.2675 0.0
C531 C 0.66852 0.26296 0.28268 0.0
C532 C 0.74226 0.2184 0.30439 0.0
C533 C 0.74186 0.2042 0.28819 0.0
C534 C 0.75531 0.18915 0.28748 0.0
C535 C 0.76933 0.18813 0.30294 0.0
C536 C 0.77045 0.20305 0.31842 0.0
C537 C 0.75709 0.21795 0.31915 0.0
C538 C 0.70704 0.26327 0.34891 0.0
C539 C 0.70885 0.25139 0.36532 0.0
C540 C 0.4778 0.12206 0.01967 0.0
C541 C 0.46195 0.12538 0.03278 0.0
C542 C 0.44587 0.11072 0.03379 0.0
C543 C 0.44552 0.09309 0.02179 0.0
H544 H 0.43381 0.0277 0.02374 0.0
H545 H 0.40818 0.00136 0.03183 0.0
H546 H 0.39912 0.98576 0.96914 0.0
H547 H 0.42514 0.01189 0.96095 0.0
H548 H 0.47589 0.02151 0.94081 0.0
H549 H 0.49522 0.02068 0.91004 0.0
H550 H 0.50866 0.08479 0.91664 0.0
H551 H 0.48937 0.08574 0.94741 0.0
H552 H 0.48958 0.10246 0.99719 0.0
H553 H 0.49032 0.13324 0.01859 0.0
H554 H 0.43354 0.11291 0.04389 0.0
H555 H 0.43278 0.08216 0.02283 0.0
N556 N 0.44755 0.05546 0.99935 0.0
N557 N 0.45657 0.03832 0.96984 0.0
N558 N 0.47098 0.07085 0.97793 0.0
C559 C 0.44572 0.03882 0.98691 0.0
C560 C 0.46933 0.05426 0.9653 0.0
C561 C 0.46009 0.07154 0.99498 0.0
C562 C 0.43141 0.02186 0.99171 0.0
C563 C 0.42651 0.01851 0.01168 0.0
C564 C 0.41195 0.0034 0.01633 0.0
C565 C 0.40175 0.99163 0.00109 0.0
C566 C 0.40682 0.99472 0.98112 0.0
C567 C 0.42172 0.00957 0.97647 0.0
C568 C 0.48107 0.0537 0.94662 0.0
C569 C 0.48293 0.03545 0.93572 0.0
C570 C 0.49408 0.03493 0.91815 0.0
C571 C 0.5034 0.05266 0.91097 0.0
C572 C 0.50147 0.07091 0.92175 0.0
C573 C 0.49052 0.07142 0.93945 0.0
C574 C 0.46111 0.08988 0.00828 0.0
C575 C 0.47731 0.10453 0.00738 0.0
O576 O 0.22863 0.87208 0.00698 0.0
Cd577 Cd 0.24195 0.8831 0.03348 0.0
Cd578 Cd 0.22902 0.91802 0.02164 0.0
O579 O 0.21657 0.90008 0.99835 0.0
O580 O 0.24842 0.8587 0.04694 0.0
O581 O 0.22776 0.87997 0.05981 0.0
C582 C 0.23687 0.86382 0.06131 0.0
C583 C 0.20911 0.93968 0.03929 0.0
C584 C 0.21882 0.88158 0.99488 0.0
C585 C 0.27326 0.91656 0.02567 0.0
O586 O 0.25917 0.92661 0.02006 0.0
O587 O 0.26945 0.8992 0.0322 0.0
O588 O 0.21527 0.94321 0.02153 0.0
O589 O 0.21411 0.92354 0.0471 0.0
O590 O 0.15153 0.52614 0.29212 0.0
Cd591 Cd 0.13254 0.50033 0.2933 0.0
Cd592 Cd 0.11013 0.51992 0.26931 0.0
O593 O 0.13512 0.53976 0.26849 0.0
O594 O 0.149 0.47936 0.30304 0.0
O595 O 0.1355 0.47784 0.27284 0.0
C596 C 0.14632 0.47002 0.28585 0.0
C597 C 0.09508 0.50654 0.23991 0.0
C598 C 0.15014 0.54004 0.28009 0.0
C599 C 0.0931 0.51121 0.3093 0.0
O600 O 0.09181 0.52125 0.29387 0.0
O601 O 0.10779 0.50064 0.31152 0.0
O602 O 0.09315 0.52484 0.24607 0.0
O603 O 0.1061 0.49593 0.25029 0.0
O604 O 0.75828 0.6812 0.00316 0.0
Cd605 Cd 0.75049 0.66062 0.02438 0.0
Cd606 Cd 0.77093 0.63756 0.99818 0.0
O607 O 0.77526 0.66284 0.98207 0.0
O608 O 0.73701 0.6775 0.04463 0.0
O609 O 0.76417 0.66246 0.05139 0.0
C610 C 0.75044 0.6738 0.05734 0.0
C611 C 0.79731 0.62359 0.01322 0.0
C612 C 0.76827 0.67941 0.98717 0.0
C613 C 0.72885 0.62286 0.00517 0.0
O614 O 0.74427 0.62026 0.99467 0.0
O615 O 0.72878 0.63754 0.01791 0.0
O616 O 0.7935 0.62023 0.99442 0.0
O617 O 0.7863 0.63539 0.02338 0.0
O618 O 0.9068 0.02454 0.26349 0.0
Cd619 Cd 0.88952 0.03873 0.244 0.0
Cd620 Cd 0.86872 0.04607 0.27602 0.0
O621 O 0.89423 0.0388 0.2904 0.0
O622 O 0.9065 0.04351 0.22031 0.0
O623 O 0.89702 0.06802 0.24072 0.0
C624 C 0.90715 0.06238 0.22536 0.0
C625 C 0.85324 0.07466 0.28648 0.0
C626 C 0.90719 0.02824 0.28223 0.0
C627 C 0.84966 0.01702 0.24503 0.0
O628 O 0.84989 0.02295 0.26332 0.0
O629 O 0.86347 0.02346 0.23352 0.0
O630 O 0.85249 0.059 0.29695 0.0
O631 O 0.86333 0.07433 0.27009 0.0
O632 O 0.25371 0.17588 0.49405 0.0
Cd633 Cd 0.24424 0.15483 0.5141 0.0
Cd634 Cd 0.27483 0.13567 0.49632 0.0
O635 O 0.27891 0.16111 0.48017 0.0
O636 O 0.22395 0.16829 0.53037 0.0
O637 O 0.25254 0.16016 0.54296 0.0
C638 C 0.23574 0.16813 0.5455 0.0
C639 C 0.30051 0.12421 0.51482 0.0
C640 C 0.26809 0.17586 0.48172 0.0
C641 C 0.2342 0.11406 0.49329 0.0
O642 O 0.25237 0.11414 0.48796 0.0
O643 O 0.22823 0.1286 0.50396 0.0
O644 O 0.29991 0.12177 0.49562 0.0
O645 O 0.28688 0.13412 0.5235 0.0
O646 O 0.40646 0.53478 0.76491 0.0
Cd647 Cd 0.38597 0.54344 0.74474 0.0
Cd648 Cd 0.36399 0.54505 0.77888 0.0
O649 O 0.3902 0.53951 0.79303 0.0
O650 O 0.40255 0.5441 0.7203 0.0
O651 O 0.39077 0.57126 0.73425 0.0
C652 C 0.40147 0.56319 0.72054 0.0
C653 C 0.34683 0.57281 0.78856 0.0
C654 C 0.40584 0.53483 0.78382 0.0
C655 C 0.34883 0.51523 0.74672 0.0
O656 O 0.34751 0.521 0.76496 0.0
O657 O 0.36232 0.52332 0.73577 0.0
O658 O 0.34634 0.55718 0.7991 0.0
O659 O 0.35754 0.57287 0.77255 0.0
O660 O 0.73059 0.36806 0.5244 0.0
Cd661 Cd 0.73809 0.38946 0.54687 0.0
Cd662 Cd 0.71478 0.41239 0.52138 0.0
O663 O 0.7115 0.38503 0.5057 0.0
O664 O 0.75635 0.37532 0.5636 0.0
O665 O 0.72777 0.38553 0.575 0.0
C666 C 0.74405 0.37709 0.57812 0.0
C667 C 0.68665 0.43045 0.52553 0.0
C668 C 0.71956 0.36901 0.50911 0.0
C669 C 0.75735 0.42752 0.52898 0.0
O670 O 0.74151 0.4296 0.51916 0.0
O671 O 0.75807 0.41329 0.54068 0.0
O672 O 0.69498 0.42806 0.50839 0.0
O673 O 0.69411 0.42223 0.54055 0.0
O674 O 0.65564 0.03269 0.78391 0.0
Cd675 Cd 0.63351 0.01034 0.78947 0.0
Cd676 Cd 0.61496 0.02722 0.76036 0.0
O677 O 0.64204 0.04327 0.75687 0.0
O678 O 0.64619 0.99182 0.80695 0.0
O679 O 0.63601 0.98296 0.77614 0.0
C680 C 0.64429 0.97839 0.7925 0.0
C681 C 0.59873 0.00923 0.73382 0.0
C682 C 0.65651 0.04395 0.76919 0.0
C683 C 0.59581 0.0298 0.80013 0.0
O684 O 0.59658 0.03662 0.78283 0.0
O685 O 0.60845 0.01785 0.80533 0.0
O686 O 0.59944 0.02855 0.73539 0.0
O687 O 0.60807 7e-05 0.74705 0.0
O688 O 0.98638 0.27864 0.91718 0.0
Cd689 Cd 0.99807 0.25733 0.89842 0.0
Cd690 Cd 0.01567 0.29051 0.88204 0.0
O691 O 0.00247 0.30562 0.9055 0.0
O692 O 0.99727 0.23204 0.91313 0.0
O693 O 0.02533 0.24893 0.90427 0.0
C694 C 0.01661 0.23405 0.91322 0.0
C695 C 0.04988 0.29436 0.87577 0.0
C696 C 0.99033 0.29755 0.91787 0.0
C697 C 0.98667 0.26358 0.85642 0.0
O698 O 0.99784 0.27984 0.85821 0.0
O699 O 0.98495 0.25178 0.87069 0.0
O700 O 0.03826 0.30782 0.87089 0.0
O701 O 0.04211 0.27921 0.885 0.0
O702 O 0.47432 0.78649 0.41025 0.0
Cd703 Cd 0.4883 0.76862 0.38965 0.0
Cd704 Cd 0.50351 0.80378 0.37732 0.0
O705 O 0.49065 0.81506 0.403 0.0
O706 O 0.48893 0.74216 0.40182 0.0
O707 O 0.51612 0.76202 0.396 0.0
C708 C 0.50811 0.74582 0.40331 0.0
C709 C 0.53709 0.81163 0.37011 0.0
C710 C 0.4782 0.8052 0.41379 0.0
C711 C 0.47591 0.77875 0.34908 0.0
O712 O 0.48506 0.79582 0.35321 0.0
O713 O 0.47626 0.76483 0.36126 0.0
O714 O 0.52406 0.82466 0.36856 0.0
O715 O 0.53111 0.79426 0.37636 0.0
O716 O 0.98168 0.77311 0.67036 0.0
Cd717 Cd 0.00422 0.76729 0.65032 0.0
Cd718 Cd 0.97783 0.78651 0.62526 0.0
O719 O 0.96242 0.78987 0.65161 0.0
O720 O 0.02517 0.75673 0.66703 0.0
O721 O 0.03038 0.78454 0.6508 0.0
C722 C 0.03718 0.77169 0.66226 0.0
C723 C 0.98 0.81287 0.6037 0.0
C724 C 0.96625 0.78273 0.66824 0.0
C725 C 0.98715 0.74409 0.61366 0.0
O726 O 0.97679 0.7587 0.61056 0.0
O727 O 0.99924 0.74491 0.62829 0.0
O728 O 0.96352 0.80203 0.60614 0.0
O729 O 0.99536 0.80928 0.61421 0.0
O730 O 0.48642 0.28273 0.16985 0.0
Cd731 Cd 0.5077 0.27021 0.15179 0.0
Cd732 Cd 0.48951 0.29419 0.12379 0.0
O733 O 0.4773 0.30546 0.14965 0.0
O734 O 0.5259 0.25874 0.17083 0.0
O735 O 0.53601 0.28289 0.15098 0.0
C736 C 0.54013 0.27101 0.16473 0.0
C737 C 0.49356 0.31575 0.09745 0.0
C738 C 0.47658 0.2977 0.16654 0.0
C739 C 0.48617 0.2485 0.11757 0.0
O740 O 0.48034 0.26541 0.11352 0.0
O741 O 0.49853 0.24703 0.13166 0.0
O742 O 0.47618 0.30872 0.10308 0.0
O743 O 0.50897 0.31126 0.10735 0.0
H744 H 0.21508 0.79642 0.90772 0.0
H745 H 0.18991 0.839 0.87001 0.0
H746 H 0.18736 0.86244 0.89916 0.0
H747 H 0.18662 0.80782 0.95284 0.0
H748 H 0.20761 0.80548 0.96914 0.0
H749 H 0.20538 0.79099 0.94577 0.0
H750 H 0.24071 0.80555 0.93558 0.0
H751 H 0.24308 0.81998 0.95892 0.0
H752 H 0.2461 0.83237 0.93577 0.0
H753 H 0.18972 0.88229 0.93174 0.0
H754 H 0.19834 0.89774 0.96506 0.0
H755 H 0.22317 0.8428 0.98131 0.0
C756 C 0.20898 0.81063 0.90554 0.0
C757 C 0.20252 0.81571 0.88651 0.0
C758 C 0.19453 0.83449 0.88445 0.0
C759 C 0.19309 0.84798 0.90093 0.0
C760 C 0.19973 0.84254 0.91939 0.0
C761 C 0.20757 0.82435 0.92179 0.0
C762 C 0.21496 0.82276 0.94293 0.0
C763 C 0.20292 0.80575 0.95328 0.0
C764 C 0.23755 0.82001 0.94331 0.0
C765 C 0.21049 0.8431 0.9519 0.0
C766 C 0.20143 0.85416 0.93815 0.0
C767 C 0.19665 0.87372 0.9427 0.0
C768 C 0.20162 0.88236 0.96169 0.0
C769 C 0.21142 0.8715 0.97585 0.0
C770 C 0.21554 0.85147 0.97092 0.0
H771 H 0.0024 0.55642 0.36829 0.0
H772 H 0.00415 0.50769 0.40829 0.0
H773 H 0.0315 0.49408 0.38845 0.0
H774 H 0.01209 0.52707 0.32286 0.0
H775 H 0.02726 0.54722 0.31216 0.0
H776 H 0.0075 0.55276 0.32924 0.0
H777 H 0.03298 0.57479 0.35164 0.0
H778 H 0.05282 0.56928 0.33466 0.0
H779 H 0.05495 0.56412 0.36063 0.0
H780 H 0.05986 0.48693 0.36538 0.0
H781 H 0.086 0.48562 0.33952 0.0
H782 H 0.06497 0.53851 0.3141 0.0
C783 C 0.00854 0.54287 0.37282 0.0
C784 C 0.00121 0.53307 0.38978 0.0
C785 C 0.00945 0.51528 0.3952 0.0
C786 C 0.02503 0.50751 0.3841 0.0
C787 C 0.03203 0.51762 0.36755 0.0
C788 C 0.02394 0.53481 0.36181 0.0
C789 C 0.03419 0.54282 0.34344 0.0
C790 C 0.01937 0.54243 0.32589 0.0
C791 C 0.04434 0.56401 0.34787 0.0
C792 C 0.04948 0.5276 0.3399 0.0
C793 C 0.04804 0.51322 0.35399 0.0
C794 C 0.06103 0.49799 0.35415 0.0
C795 C 0.07586 0.49742 0.33946 0.0
C796 C 0.07745 0.51189 0.32475 0.0
C797 C 0.06401 0.52711 0.32501 0.0
H798 H 0.78909 0.733 0.88487 0.0
H799 H 0.76716 0.78644 0.91357 0.0
H800 H 0.76372 0.76933 0.94525 0.0
H801 H 0.75655 0.69795 0.90902 0.0
H802 H 0.77475 0.67979 0.91141 0.0
H803 H 0.77668 0.69663 0.89131 0.0
H804 H 0.81287 0.7088 0.90244 0.0
H805 H 0.81105 0.69197 0.92259 0.0
H806 H 0.81749 0.71837 0.92774 0.0
H807 H 0.76109 0.74604 0.97321 0.0
H808 H 0.75902 0.71795 0.99565 0.0
H809 H 0.78306 0.67964 0.94895 0.0
C810 C 0.78388 0.7412 0.89791 0.0
C811 C 0.77838 0.76105 0.89677 0.0
C812 C 0.77126 0.77116 0.91406 0.0
C813 C 0.76939 0.76162 0.93214 0.0
C814 C 0.77476 0.742 0.93271 0.0
C815 C 0.78189 0.7319 0.91608 0.0
C816 C 0.78579 0.71059 0.9205 0.0
C817 C 0.77265 0.69535 0.90728 0.0
C818 C 0.80813 0.70724 0.91818 0.0
C819 C 0.77946 0.71021 0.94214 0.0
C820 C 0.77327 0.72853 0.9489 0.0
C821 C 0.76604 0.73167 0.96814 0.0
C822 C 0.7649 0.71559 0.98077 0.0
C823 C 0.77093 0.69658 0.9741 0.0
C824 C 0.77852 0.69401 0.95457 0.0
H825 H 0.97269 0.01767 0.38006 0.0
H826 H 0.99562 0.96527 0.35048 0.0
H827 H 0.97592 0.97062 0.32024 0.0
H828 H 0.92284 0.00859 0.36067 0.0
H829 H 0.91921 0.03473 0.35821 0.0
H830 H 0.93598 0.02742 0.37701 0.0
H831 H 0.96472 0.05076 0.36288 0.0
H832 H 0.94803 0.05814 0.34403 0.0
H833 H 0.9712 0.0479 0.33689 0.0
H834 H 0.95401 0.98191 0.29329 0.0
H835 H 0.92945 0.9968 0.27222 0.0
H836 H 0.91934 0.04073 0.32016 0.0
C837 C 0.97365 0.00747 0.36711 0.0
C838 C 0.98571 0.99116 0.36741 0.0
C839 C 0.98641 0.97785 0.35042 0.0
C840 C 0.97536 0.98081 0.33322 0.0
C841 C 0.96355 0.99702 0.3334 0.0
C842 C 0.96247 0.01002 0.34996 0.0
C843 C 0.94787 0.02567 0.34661 0.0
C844 C 0.93044 0.02399 0.36151 0.0
C845 C 0.9586 0.04687 0.34766 0.0
C846 C 0.9409 0.01943 0.3256 0.0
C847 C 0.9503 0.00303 0.31816 0.0
C848 C 0.94649 0.99472 0.29896 0.0
C849 C 0.93257 0.00331 0.2871 0.0
C850 C 0.92243 0.01985 0.29459 0.0
C851 C 0.92675 0.028 0.31408 0.0
H852 H 0.25295 0.23661 0.6457 0.0
H853 H 0.18823 0.23495 0.6505 0.0
H854 H 0.18475 0.21108 0.62129 0.0
H855 H 0.2551 0.2356 0.59303 0.0
H856 H 0.27558 0.21974 0.59092 0.0
H857 H 0.27307 0.23565 0.61304 0.0
H858 H 0.27309 0.20474 0.63476 0.0
H859 H 0.27556 0.18871 0.61267 0.0
H860 H 0.25515 0.18358 0.62961 0.0
H861 H 0.18808 0.19002 0.59011 0.0
H862 H 0.19808 0.17196 0.55923 0.0
H863 H 0.26066 0.1859 0.57495 0.0
C864 C 0.23807 0.2311 0.64065 0.0
C865 C 0.22085 0.23754 0.65043 0.0
C866 C 0.20162 0.22998 0.64343 0.0
C867 C 0.19949 0.21648 0.62681 0.0
C868 C 0.21673 0.21051 0.61746 0.0
C869 C 0.23566 0.21743 0.62416 0.0
C870 C 0.25169 0.20906 0.61097 0.0
C871 C 0.26462 0.22602 0.60142 0.0
C872 C 0.26464 0.19573 0.62271 0.0
C873 C 0.23879 0.19674 0.59555 0.0
C874 C 0.21866 0.1978 0.59963 0.0
C875 C 0.20378 0.18881 0.5869 0.0
C876 C 0.2096 0.17864 0.56939 0.0
C877 C 0.23011 0.17737 0.56487 0.0
C878 C 0.24487 0.18629 0.57828 0.0
H879 H 0.4842 0.57709 0.63745 0.0
H880 H 0.48905 0.64095 0.65293 0.0
H881 H 0.46037 0.63617 0.67599 0.0
H882 H 0.43001 0.56944 0.63948 0.0
H883 H 0.43051 0.54526 0.65002 0.0
H884 H 0.45042 0.55412 0.63387 0.0
H885 H 0.47659 0.54926 0.66136 0.0
H886 H 0.45681 0.54025 0.67749 0.0
H887 H 0.47393 0.56114 0.6858 0.0
H888 H 0.43222 0.62357 0.69908 0.0
H889 H 0.40823 0.60434 0.72041 0.0
H890 H 0.42262 0.54912 0.68906 0.0
C891 C 0.4793 0.5901 0.64571 0.0
C892 C 0.48892 0.60937 0.6435 0.0
C893 C 0.4818 0.62605 0.65433 0.0
C894 C 0.46554 0.62348 0.66745 0.0
C895 C 0.45651 0.60417 0.66938 0.0
C896 C 0.46318 0.58781 0.65874 0.0
C897 C 0.45161 0.5685 0.66394 0.0
C898 C 0.43994 0.55876 0.64574 0.0
C899 C 0.46557 0.55394 0.67267 0.0
C900 C 0.43765 0.57643 0.67954 0.0
C901 C 0.44048 0.59704 0.68241 0.0
C902 C 0.42976 0.60745 0.6968 0.0
C903 C 0.41614 0.59643 0.7088 0.0
C904 C 0.41352 0.57525 0.70636 0.0
C905 C 0.42417 0.56531 0.69125 0.0
H906 H 0.73816 0.30332 0.66736 0.0
H907 H 0.80003 0.32487 0.6799 0.0
H908 H 0.79766 0.3511 0.65602 0.0
H909 H 0.74074 0.30819 0.61605 0.0
H910 H 0.71594 0.3163 0.61308 0.0
H911 H 0.72124 0.30097 0.63338 0.0
H912 H 0.70875 0.32772 0.65857 0.0
H913 H 0.7034 0.34317 0.6383 0.0
H914 H 0.71961 0.35323 0.65844 0.0
H915 H 0.7908 0.37151 0.62788 0.0
H916 H 0.77919 0.38579 0.59718 0.0
H917 H 0.72146 0.35237 0.60239 0.0
C918 C 0.7511 0.31375 0.6653 0.0
C919 C 0.76919 0.31215 0.67582 0.0
C920 C 0.78582 0.32605 0.67254 0.0
C921 C 0.78467 0.341 0.65889 0.0
C922 C 0.76678 0.34199 0.64861 0.0
C923 C 0.75022 0.32887 0.65167 0.0
C924 C 0.73335 0.33232 0.63743 0.0
C925 C 0.72748 0.31332 0.6242 0.0
C926 C 0.7152 0.33954 0.64888 0.0
C927 C 0.74337 0.34887 0.6254 0.0
C928 C 0.7626 0.35429 0.63231 0.0
C929 C 0.77562 0.36779 0.6226 0.0
C930 C 0.76894 0.37577 0.60519 0.0
C931 C 0.74939 0.37041 0.59779 0.0
C932 C 0.73627 0.35711 0.60819 0.0
H933 H 0.51771 -0.00019 0.64706 0.0
H934 H 0.50882 0.93623 0.65723 0.0
H935 H 0.53698 0.93971 0.6813 0.0
H936 H 0.57194 0.00455 0.65148 0.0
H937 H 0.5725 0.02892 0.66424 0.0
H938 H 0.55268 0.02105 0.64671 0.0
H939 H 0.52619 0.02763 0.67389 0.0
H940 H 0.54589 0.03567 0.69142 0.0
H941 H 0.52747 0.01575 0.69732 0.0
H942 H 0.56507 0.9507 0.7057 0.0
H943 H 0.58951 0.96854 0.72938 0.0
H944 H 0.57914 0.02483 0.70332 0.0
C945 C 0.52161 0.9866 0.65437 0.0
C946 C 0.51105 0.96774 0.65024 0.0
C947 C 0.51685 0.95079 0.65996 0.0
C948 C 0.5328 0.95262 0.67368 0.0
C949 C 0.54282 0.97148 0.67745 0.0
C950 C 0.5374 0.98816 0.66809 0.0
C951 C 0.54984 0.00692 0.67541 0.0
C952 C 0.56249 0.01588 0.65845 0.0
C953 C 0.53655 0.0224 0.68509 0.0
C954 C 0.56284 0.99829 0.69069 0.0
C955 C 0.55879 0.9778 0.69151 0.0
C956 C 0.56848 0.96673 0.70508 0.0
C957 C 0.58236 0.97697 0.71844 0.0
C958 C 0.58624 0.99806 0.71817 0.0
C959 C 0.57659 0.00869 0.70384 0.0
H960 H 0.88847 0.22485 0.79567 0.0
H961 H 0.91063 0.26175 0.74785 0.0
H962 H 0.94273 0.26917 0.7659 0.0
H963 H 0.90864 0.25556 0.83475 0.0
H964 H 0.91498 0.23563 0.85007 0.0
H965 H 0.89471 0.23137 0.83241 0.0
H966 H 0.91151 0.20115 0.81603 0.0
H967 H 0.93186 0.20527 0.83373 0.0
H968 H 0.93696 0.20459 0.80736 0.0
H969 H 0.97074 0.27545 0.79064 0.0
H970 H 0.99287 0.2799 0.82021 0.0
H971 H 0.95289 0.23796 0.85138 0.0
C972 C 0.90027 0.23403 0.78871 0.0
C973 C 0.89707 0.24269 0.77033 0.0
C974 C 0.9127 0.25509 0.762 0.0
C975 C 0.93103 0.25926 0.77206 0.0
C976 C 0.93354 0.25075 0.79032 0.0
C977 C 0.91865 0.23828 0.7985 0.0
C978 C 0.92459 0.23219 0.81896 0.0
C979 C 0.90986 0.23911 0.83498 0.0
C980 C 0.92634 0.20945 0.81901 0.0
C981 C 0.9449 0.2437 0.82127 0.0
C982 C 0.94987 0.25416 0.80451 0.0
C983 C 0.96719 0.26706 0.80372 0.0
C984 C 0.97962 0.26954 0.82061 0.0
C985 C 0.97467 0.25916 0.83803 0.0
C986 C 0.95727 0.24579 0.83816 0.0
H987 H 0.45069 0.89847 0.48411 0.0
H988 H 0.4189 0.85603 0.52185 0.0
H989 H 0.42599 0.82823 0.49786 0.0
H990 H 0.43584 0.87317 0.43588 0.0
H991 H 0.46003 0.87907 0.42497 0.0
H992 H 0.45076 0.89565 0.44416 0.0
H993 H 0.48289 0.89285 0.46504 0.0
H994 H 0.49217 0.87614 0.44602 0.0
H995 H 0.48975 0.86844 0.47131 0.0
H996 H 0.43803 0.80506 0.47067 0.0
H997 H 0.45445 0.78799 0.44247 0.0
H998 H 0.4792 0.84568 0.42302 0.0
C999 C 0.44482 0.88337 0.48705 0.0
C1000 C 0.43408 0.87934 0.50466 0.0
C1001 C 0.42712 0.85936 0.50837 0.0
C1002 C 0.43103 0.84353 0.49483 0.0
C1003 C 0.44198 0.84798 0.47775 0.0
C1004 C 0.44877 0.86741 0.47381 0.0
C1005 C 0.46127 0.86803 0.45506 0.0
C1006 C 0.45138 0.87967 0.43907 0.0
C1007 C 0.4828 0.87688 0.45964 0.0
C1008 C 0.46068 0.84589 0.44918 0.0
C1009 C 0.44932 0.83459 0.46235 0.0
C1010 C 0.44687 0.81375 0.46019 0.0
C1011 C 0.45628 0.8042 0.44413 0.0
C1012 C 0.46814 0.81549 0.43053 0.0
C1013 C 0.47027 0.83661 0.43315 0.0
H1014 H 0.13923 0.3264 0.804 0.0
H1015 H 0.16819 0.27464 0.82238 0.0
H1016 H 0.14231 0.269 0.8482 0.0
H1017 H 0.12222 0.34341 0.8542 0.0
H1018 H 0.09891 0.35069 0.84452 0.0
H1019 H 0.12105 0.35206 0.82926 0.0
H1020 H 0.10217 0.32954 0.80164 0.0
H1021 H 0.08003 0.32811 0.81678 0.0
H1022 H 0.09051 0.30543 0.80772 0.0
H1023 H 0.1117 0.26723 0.86974 0.0
H1024 H 0.07804 0.26859 0.88443 0.0
H1025 H 0.0692 0.32164 0.85194 0.0
C1026 C 0.14042 0.31421 0.81382 0.0
C1027 C 0.15577 0.30103 0.81132 0.0
C1028 C 0.1565 0.28486 0.82404 0.0
C1029 C 0.14198 0.28165 0.83882 0.0
C1030 C 0.12688 0.29478 0.84071 0.0
C1031 C 0.12603 0.31075 0.82857 0.0
C1032 C 0.10734 0.3216 0.83243 0.0
C1033 C 0.11271 0.34322 0.84059 0.0
C1034 C 0.09424 0.32112 0.81352 0.0
C1035 C 0.09749 0.30888 0.84824 0.0
C1036 C 0.10914 0.29367 0.85303 0.0
C1037 C 0.10257 0.27924 0.86632 0.0
C1038 C 0.08342 0.28014 0.87457 0.0
C1039 C 0.07103 0.29528 0.8694 0.0
C1040 C 0.07841 0.31005 0.85641 0.0
H1041 H 0.52442 0.67058 0.48808 0.0
H1042 H 0.5881 0.68795 0.48526 0.0
H1043 H 0.58224 0.70815 0.45622 0.0
H1044 H 0.51512 0.66716 0.43446 0.0
H1045 H 0.49098 0.67711 0.43694 0.0
H1046 H 0.50047 0.66311 0.45661 0.0
H1047 H 0.49618 0.69292 0.482 0.0
H1048 H 0.48656 0.70692 0.46246 0.0
H1049 H 0.50781 0.71738 0.47709 0.0
H1050 H 0.56882 0.72853 0.42913 0.0
H1051 H 0.54906 0.74734 0.40642 0.0
H1052 H 0.49442 0.71567 0.42684 0.0
C1053 C 0.53714 0.67864 0.48136 0.0
C1054 C 0.5567 0.67781 0.48894 0.0
C1055 C 0.573 0.68832 0.47957 0.0
C1056 C 0.56982 0.69981 0.46311 0.0
C1057 C 0.55028 0.70041 0.45609 0.0
C1058 C 0.53425 0.69001 0.46489 0.0
C1059 C 0.51465 0.69361 0.45504 0.0
C1060 C 0.50473 0.67408 0.44517 0.0
C1061 C 0.50048 0.70329 0.47004 0.0
C1062 C 0.52205 0.70809 0.4396 0.0
C1063 C 0.54265 0.71175 0.44032 0.0
C1064 C 0.55272 0.72557 0.42826 0.0
C1065 C 0.54138 0.73617 0.4154 0.0
C1066 C 0.52023 0.73284 0.41474 0.0
C1067 C 0.51058 0.71832 0.42674 0.0
H1068 H 0.86993 0.81988 0.72503 0.0
H1069 H 0.88384 0.78119 0.77237 0.0
H1070 H 0.91415 0.7724 0.75449 0.0
H1071 H 0.88482 0.78674 0.68502 0.0
H1072 H 0.89496 0.80665 0.67 0.0
H1073 H 0.87486 0.81098 0.68707 0.0
H1074 H 0.89626 0.84113 0.70393 0.0
H1075 H 0.91646 0.83684 0.68695 0.0
H1076 H 0.9208 0.83749 0.71348 0.0
H1077 H 0.94272 0.76731 0.73156 0.0
H1078 H 0.96688 0.76495 0.70404 0.0
H1079 H 0.93379 0.80547 0.67063 0.0
C1080 C 0.87928 0.80951 0.73164 0.0
C1081 C 0.87455 0.80154 0.75035 0.0
C1082 C 0.88733 0.78803 0.75839 0.0
C1083 C 0.90456 0.78278 0.74827 0.0
C1084 C 0.9088 0.79098 0.72998 0.0
C1085 C 0.89649 0.80394 0.72164 0.0
C1086 C 0.90416 0.80999 0.70139 0.0
C1087 C 0.88879 0.80318 0.6849 0.0
C1088 C 0.90975 0.83271 0.70145 0.0
C1089 C 0.9226 0.7983 0.69967 0.0
C1090 C 0.92507 0.78758 0.71642 0.0
C1091 C 0.94096 0.77562 0.71834 0.0
C1092 C 0.95463 0.77441 0.70263 0.0
C1093 C 0.95225 0.78499 0.68513 0.0
C1094 C 0.93604 0.79717 0.68377 0.0
H1095 H 0.02987 0.90211 0.54075 0.0
H1096 H 0.97925 0.89043 0.50005 0.0
H1097 H 0.96458 0.8648 0.52177 0.0
H1098 H 0.03385 0.85008 0.55061 0.0
H1099 H 0.04104 0.85525 0.57635 0.0
H1100 H 0.04718 0.87369 0.55824 0.0
H1101 H 0.02905 0.89989 0.57965 0.0
H1102 H 0.02274 0.88149 0.59777 0.0
H1103 H 0.00327 0.89428 0.58651 0.0
H1104 H 0.95503 0.8408 0.54765 0.0
H1105 H 0.95252 0.81743 0.5748 0.0
H1106 H 0.01042 0.84231 0.59771 0.0
C1107 C 0.01578 0.8941 0.53626 0.0
C1108 C 0.0056 0.8987 0.51876 0.0
C1109 C 0.98712 0.88778 0.51364 0.0
C1110 C 0.97869 0.87303 0.52581 0.0
C1111 C 0.98901 0.86907 0.54297 0.0
C1112 C 0.00726 0.87905 0.5481 0.0
C1113 C 0.01559 0.87115 0.56694 0.0
C1114 C 0.0356 0.862 0.56278 0.0
C1115 C 0.01779 0.88769 0.58371 0.0
C1116 C 0.99914 0.85517 0.57152 0.0
C1117 C 0.98387 0.85445 0.55759 0.0
C1118 C 0.96691 0.84114 0.55862 0.0
C1119 C 0.96562 0.82797 0.57417 0.0
C1120 C 0.98129 0.82801 0.58837 0.0
C1121 C 0.99822 0.8419 0.58706 0.0
H1122 H 0.12956 0.74063 0.72515 0.0
H1123 H 0.16219 0.79598 0.70905 0.0
H1124 H 0.13396 0.80318 0.68745 0.0
H1125 H 0.10494 0.7281 0.67637 0.0
H1126 H 0.08203 0.71846 0.68775 0.0
H1127 H 0.10567 0.71682 0.70015 0.0
H1128 H 0.09229 0.73543 0.73154 0.0
H1129 H 0.06872 0.73733 0.7192 0.0
H1130 H 0.08277 0.75964 0.72928 0.0
H1131 H 0.10098 0.80543 0.66954 0.0
H1132 H 0.06622 0.80226 0.6565 0.0
H1133 H 0.05543 0.74561 0.68489 0.0
C1134 C 0.131 0.75397 0.71663 0.0
C1135 C 0.14811 0.76767 0.71863 0.0
C1136 C 0.14919 0.78529 0.70771 0.0
C1137 C 0.13327 0.78947 0.69538 0.0
C1138 C 0.11638 0.77588 0.69414 0.0
C1139 C 0.11521 0.75842 0.70439 0.0
C1140 C 0.09496 0.7469 0.70155 0.0
C1141 C 0.09703 0.72635 0.69081 0.0
C1142 C 0.08405 0.74471 0.72158 0.0
C1143 C 0.08479 0.76075 0.68838 0.0
C1144 C 0.0974 0.77731 0.68411 0.0
C1145 C 0.09103 0.79244 0.67265 0.0
C1146 C 0.07126 0.79054 0.66535 0.0
C1147 C 0.0581 0.77371 0.66967 0.0
C1148 C 0.06509 0.75866 0.68128 0.0
H1149 H 0.94098 0.67262 0.5235 0.0
H1150 H 0.99064 0.63584 0.53095 0.0
H1151 H 0.00368 0.65874 0.55879 0.0
H1152 H 0.96932 0.72033 0.53377 0.0
H1153 H 0.94907 0.73138 0.54678 0.0
H1154 H 0.94372 0.71209 0.52742 0.0
H1155 H 0.92225 0.69107 0.55214 0.0
H1156 H 0.92761 0.71025 0.5716 0.0
H1157 H 0.93322 0.68483 0.57532 0.0
H1158 H 0.01059 0.68484 0.58651 0.0
H1159 H 0.01229 0.71382 0.61083 0.0
H1160 H 0.9586 0.73413 0.58473 0.0
C1161 C 0.9546 0.66943 0.53102 0.0
C1162 C 0.96485 0.65252 0.52511 0.0
C1163 C 0.98271 0.64887 0.53514 0.0
C1164 C 0.99014 0.6617 0.55103 0.0
C1165 C 0.97962 0.67817 0.55658 0.0
C1166 C 0.96234 0.6822 0.54678 0.0
C1167 C 0.95408 0.7011 0.55552 0.0
C1168 C 0.95405 0.71717 0.53994 0.0
C1169 C 0.93305 0.69653 0.56416 0.0
C1170 C 0.96934 0.70698 0.57185 0.0
C1171 C 0.98386 0.69349 0.57229 0.0
C1172 C 0.99936 0.69558 0.58626 0.0
C1173 C 0.00015 0.71205 0.60006 0.0
C1174 C 0.98562 0.72628 0.59966 0.0
C1175 C 0.97 0.72359 0.58537 0.0
H1176 H 0.77252 0.92231 0.25581 0.0
H1177 H 0.77384 0.91274 0.1914 0.0
H1178 H 0.79483 0.9446 0.18903 0.0
H1179 H 0.77052 0.97723 0.25649 0.0
H1180 H 0.7862 0.98107 0.2784 0.0
H1181 H 0.77001 0.95836 0.27475 0.0
H1182 H 0.80052 0.93727 0.27821 0.0
H1183 H 0.81678 0.95986 0.28181 0.0
H1184 H 0.82183 0.94163 0.26218 0.0
H1185 H 0.81806 0.97599 0.19409 0.0
H1186 H 0.84146 0.00444 0.20614 0.0
H1187 H 0.82351 0.99384 0.26708 0.0
C1188 C 0.77675 0.92711 0.24114 0.0
C1189 C 0.77148 0.91502 0.22379 0.0
C1190 C 0.77786 0.92165 0.20493 0.0
C1191 C 0.78964 0.9398 0.20342 0.0
C1192 C 0.79473 0.95122 0.22087 0.0
C1193 C 0.78836 0.94519 0.23936 0.0
C1194 C 0.79673 0.95957 0.25594 0.0
C1195 C 0.77986 0.96966 0.26705 0.0
C1196 C 0.80974 0.94894 0.27037 0.0
C1197 C 0.80925 0.97439 0.24396 0.0
C1198 C 0.80781 0.96942 0.22375 0.0
C1199 C 0.81908 0.9802 0.20985 0.0
C1200 C 0.83235 0.9963 0.21685 0.0
C1201 C 0.83422 0.00145 0.23754 0.0
C1202 C 0.82222 0.9905 0.25115 0.0
H1203 H 0.79119 0.17048 0.27291 0.0
H1204 H 0.77542 0.16669 0.33539 0.0
H1205 H 0.79646 0.13845 0.33812 0.0
H1206 H 0.79102 0.11731 0.26191 0.0
H1207 H 0.81212 0.11932 0.24529 0.0
H1208 H 0.79611 0.13961 0.24822 0.0
H1209 H 0.82691 0.16408 0.25789 0.0
H1210 H 0.843 0.14383 0.25511 0.0
H1211 H 0.84278 0.1586 0.27829 0.0
H1212 H 0.81805 0.11028 0.33418 0.0
H1213 H 0.83902 0.08313 0.3236 0.0
H1214 H 0.84174 0.10493 0.26376 0.0
C1215 C 0.79217 0.16364 0.28712 0.0
C1216 C 0.78183 0.1709 0.304 0.0
C1217 C 0.78349 0.1616 0.32236 0.0
C1218 C 0.79534 0.14551 0.32406 0.0
C1219 C 0.80551 0.13887 0.30726 0.0
C1220 C 0.80409 0.14756 0.28912 0.0
C1221 C 0.81648 0.13722 0.2734 0.0
C1222 C 0.80313 0.1278 0.25619 0.0
C1223 C 0.83329 0.15181 0.26573 0.0
C1224 C 0.82486 0.12127 0.28553 0.0
C1225 C 0.81832 0.12257 0.30503 0.0
C1226 C 0.82339 0.10915 0.319 0.0
C1227 C 0.8353 0.09378 0.31283 0.0
C1228 C 0.84209 0.09199 0.29291 0.0
C1229 C 0.83699 0.1061 0.27916 0.0
H1230 H 0.3634 0.98956 0.98721 0.0
H1231 H 0.40255 0.96138 0.02679 0.0
H1232 H 0.374 0.93825 0.03679 0.0
H1233 H 0.3218 0.9888 0.01985 0.0
H1234 H 0.30325 0.98402 0.00036 0.0
H1235 H 0.32701 0.99719 0.99515 0.0
H1236 H 0.33303 0.97106 0.96643 0.0
H1237 H 0.30921 0.95788 0.97145 0.0
H1238 H 0.3317 0.94479 0.97143 0.0
H1239 H 0.34107 0.91861 0.04265 0.0
H1240 H 0.30591 0.90471 0.04508 0.0
H1241 H 0.28808 0.94715 0.00297 0.0
C1242 C 0.36597 0.97826 0.9977 0.0
C1243 C 0.38511 0.97697 0.00609 0.0
C1244 C 0.38794 0.96243 0.02018 0.0
C1245 C 0.37186 0.94927 0.02589 0.0
C1246 C 0.35308 0.95106 0.01751 0.0
C1247 C 0.35005 0.96525 0.00379 0.0
C1248 C 0.32821 0.96482 0.99786 0.0
C1249 C 0.31957 0.9849 0.00366 0.0
C1250 C 0.32538 0.9593 0.97546 0.0
C1251 C 0.3194 0.94821 0.01043 0.0
C1252 C 0.33401 0.94032 0.0215 0.0
C1253 C 0.3295 0.92468 0.03407 0.0
C1254 C 0.3095 0.91689 0.03535 0.0
C1255 C 0.29427 0.92493 0.0243 0.0
C1256 C 0.29937 0.94082 0.01173 0.0
H1257 H 0.21538 0.38285 0.30881 0.0
H1258 H 0.21146 0.36371 0.24615 0.0
H1259 H 0.18796 0.38965 0.24056 0.0
H1260 H 0.16335 0.39439 0.31498 0.0
H1261 H 0.1699 0.41589 0.33161 0.0
H1262 H 0.18525 0.39497 0.33069 0.0
H1263 H 0.21638 0.41888 0.32307 0.0
H1264 H 0.20114 0.43984 0.32391 0.0
H1265 H 0.21578 0.43455 0.30204 0.0
H1266 H 0.16571 0.41871 0.24188 0.0
H1267 H 0.14769 0.44898 0.24972 0.0
H1268 H 0.16693 0.44875 0.31146 0.0
C1269 C 0.20927 0.38383 0.29398 0.0
C1270 C 0.21508 0.37117 0.27794 0.0
C1271 C 0.20721 0.37331 0.25863 0.0
C1272 C 0.19379 0.3879 0.25536 0.0
C1273 C 0.18847 0.40023 0.27153 0.0
C1274 C 0.19601 0.39832 0.29045 0.0
C1275 C 0.18886 0.41402 0.30514 0.0
C1276 C 0.17608 0.40423 0.32157 0.0
C1277 C 0.2066 0.42762 0.31405 0.0
C1278 C 0.17629 0.42526 0.29151 0.0
C1279 C 0.17605 0.41702 0.27222 0.0
C1280 C 0.16572 0.42522 0.25697 0.0
C1281 C 0.15553 0.44239 0.26156 0.0
C1282 C 0.15592 0.45123 0.28119 0.0
C1283 C 0.16631 0.44236 0.29631 0.0
H1284 H 0.1266 0.05535 0.47721 0.0
H1285 H 0.15681 0.00226 0.46011 0.0
H1286 H 0.18964 0.02173 0.46491 0.0
H1287 H 0.16063 0.09121 0.45398 0.0
H1288 H 0.1592 0.1102 0.47381 0.0
H1289 H 0.13821 0.09212 0.46873 0.0
H1290 H 0.1387 0.08184 0.50543 0.0
H1291 H 0.15965 0.09992 0.51064 0.0
H1292 H 0.16146 0.07397 0.51578 0.0
H1293 H 0.21905 0.04739 0.47073 0.0
H1294 H 0.24293 0.0766 0.47941 0.0
H1295 H 0.19322 0.11242 0.49393 0.0
C1296 C 0.14015 0.04788 0.47439 0.0
C1297 C 0.13927 0.02738 0.46819 0.0
C1298 C 0.15725 0.01797 0.46494 0.0
C1299 C 0.1759 0.02891 0.46754 0.0
C1300 C 0.17625 0.04916 0.47357 0.0
C1301 C 0.15884 0.0585 0.47714 0.0
C1302 C 0.16329 0.08025 0.48404 0.0
C1303 C 0.15483 0.09427 0.46925 0.0
C1304 C 0.1553 0.08422 0.50523 0.0
C1305 C 0.18593 0.08174 0.48375 0.0
C1306 C 0.19314 0.06371 0.47751 0.0
C1307 C 0.21358 0.06156 0.47573 0.0
C1308 C 0.22702 0.07825 0.48063 0.0
C1309 C 0.21994 0.09676 0.48742 0.0
C1310 C 0.1991 0.09844 0.48893 0.0
H1311 H 0.71847 0.1377 0.72387 0.0
H1312 H 0.76275 0.13307 0.77036 0.0
H1313 H 0.74365 0.10284 0.78177 0.0
H1314 H 0.67591 0.1237 0.75339 0.0
H1315 H 0.66236 0.10979 0.73329 0.0
H1316 H 0.68014 0.13041 0.72798 0.0
H1317 H 0.699 0.10696 0.704 0.0
H1318 H 0.68128 0.08625 0.70929 0.0
H1319 H 0.70768 0.08427 0.71303 0.0
H1320 H 0.71918 0.07401 0.78908 0.0
H1321 H 0.69066 0.04866 0.79201 0.0
H1322 H 0.66201 0.0723 0.74112 0.0
C1323 C 0.72415 0.13033 0.73645 0.0
C1324 C 0.74223 0.13768 0.74608 0.0
C1325 C 0.74918 0.12752 0.76245 0.0
C1326 C 0.73838 0.11038 0.76913 0.0
C1327 C 0.72064 0.10358 0.75932 0.0
C1328 C 0.71355 0.11321 0.74334 0.0
C1329 C 0.69373 0.10313 0.73584 0.0
C1330 C 0.67705 0.11762 0.73775 0.0
C1331 C 0.69554 0.09465 0.71426 0.0
C1332 C 0.69069 0.0865 0.75026 0.0
C1333 C 0.70644 0.08697 0.76361 0.0
C1334 C 0.70679 0.07341 0.77866 0.0
C1335 C 0.69051 0.05908 0.7802 0.0
C1336 C 0.6741 0.05844 0.76679 0.0
C1337 C 0.67436 0.07228 0.75155 0.0
H1338 H 0.37969 0.04425 0.52935 0.0
H1339 H 0.37073 0.05204 0.59319 0.0
H1340 H 0.34976 0.08001 0.58762 0.0
H1341 H 0.38079 0.09728 0.51815 0.0
H1342 H 0.36737 0.09191 0.49496 0.0
H1343 H 0.38323 0.0739 0.5042 0.0
H1344 H 0.35337 0.04673 0.50254 0.0
H1345 H 0.33747 0.0646 0.49325 0.0
H1346 H 0.33048 0.05158 0.51535 0.0
H1347 H 0.32735 0.10526 0.5747 0.0
H1348 H 0.30519 0.12517 0.55554 0.0
H1349 H 0.32897 0.10043 0.50033 0.0
C1350 C 0.3734 0.05187 0.54219 0.0
C1351 C 0.37687 0.04595 0.56171 0.0
C1352 C 0.3685 0.05648 0.57811 0.0
C1353 C 0.35652 0.07235 0.57509 0.0
C1354 C 0.35319 0.0776 0.5556 0.0
C1355 C 0.36146 0.0677 0.53945 0.0
C1356 C 0.35474 0.07542 0.51996 0.0
C1357 C 0.3726 0.08521 0.50866 0.0
C1358 C 0.34333 0.05858 0.50702 0.0
C1359 C 0.34097 0.09087 0.52761 0.0
C1360 C 0.3404 0.09209 0.54821 0.0
C1361 C 0.32787 0.1046 0.55857 0.0
C1362 C 0.31534 0.11586 0.54757 0.0
C1363 C 0.31541 0.11444 0.52645 0.0
C1364 C 0.3287 0.10204 0.51646 0.0
H1365 H 0.62876 0.51974 0.57408 0.0
H1366 H 0.59882 0.52136 0.51692 0.0
H1367 H 0.61363 0.49032 0.50538 0.0
H1368 H 0.67386 0.50444 0.55529 0.0
H1369 H 0.67863 0.48818 0.57505 0.0
H1370 H 0.66378 0.50911 0.57983 0.0
H1371 H 0.63475 0.48514 0.59242 0.0
H1372 H 0.64955 0.46409 0.58767 0.0
H1373 H 0.62503 0.46406 0.57657 0.0
H1374 H 0.63423 0.46184 0.49863 0.0
H1375 H 0.65976 0.43728 0.49693 0.0
H1376 H 0.67613 0.45297 0.55861 0.0
C1377 C 0.625 0.51326 0.55932 0.0
C1378 C 0.61269 0.52292 0.54635 0.0
C1379 C 0.60838 0.51427 0.52699 0.0
C1380 C 0.61657 0.49657 0.52038 0.0
C1381 C 0.62896 0.48761 0.53334 0.0
C1382 C 0.63314 0.49556 0.55243 0.0
C1383 C 0.64819 0.48375 0.56272 0.0
C1384 C 0.66724 0.49717 0.56855 0.0
C1385 C 0.63882 0.47366 0.58092 0.0
C1386 C 0.65227 0.46836 0.54618 0.0
C1387 C 0.64082 0.47077 0.52946 0.0
C1388 C 0.64302 0.45952 0.51172 0.0
C1389 C 0.65759 0.44566 0.51088 0.0
C1390 C 0.66971 0.44312 0.5277 0.0
C1391 C 0.66671 0.4543 0.5457 0.0
H1392 H 0.68863 0.31329 0.40461 0.0
H1393 H 0.73061 0.26962 0.41843 0.0
H1394 H 0.73528 0.28541 0.45204 0.0
H1395 H 0.71714 0.35454 0.42804 0.0
H1396 H 0.69582 0.36707 0.437 0.0
H1397 H 0.6936 0.35081 0.41481 0.0
H1398 H 0.66385 0.33004 0.43049 0.0
H1399 H 0.66605 0.34623 0.45278 0.0
H1400 H 0.66707 0.31954 0.45438 0.0
H1401 H 0.73723 0.30687 0.48341 0.0
H1402 H 0.73797 0.334 0.50963 0.0
H1403 H 0.69654 0.36515 0.47495 0.0
C1404 C 0.69876 0.30694 0.41466 0.0
C1405 C 0.70893 0.28989 0.40878 0.0
C1406 C 0.72206 0.2822 0.42259 0.0
C1407 C 0.72496 0.29116 0.44177 0.0
C1408 C 0.71481 0.30796 0.44697 0.0
C1409 C 0.70209 0.31589 0.43381 0.0
C1410 C 0.69431 0.33503 0.44262 0.0
C1411 C 0.7006 0.35292 0.42986 0.0
C1412 C 0.67146 0.33255 0.44522 0.0
C1413 C 0.705 0.3368 0.46261 0.0
C1414 C 0.71648 0.32083 0.46492 0.0
C1415 C 0.72821 0.31941 0.48185 0.0
C1416 C 0.72851 0.33491 0.49667 0.0
C1417 C 0.71733 0.35174 0.49439 0.0
C1418 C 0.70519 0.35246 0.47722 0.0
H1419 H 0.53173 0.02692 0.90027 0.0
H1420 H 0.50185 0.07728 0.87979 0.0
H1421 H 0.52186 0.07659 0.84885 0.0
H1422 H 0.58028 0.04247 0.88193 0.0
H1423 H 0.58653 0.0174 0.87494 0.0
H1424 H 0.56941 0.02149 0.89512 0.0
H1425 H 0.54263 0.99658 0.8775 0.0
H1426 H 0.55968 0.99239 0.85727 0.0
H1427 H 0.53524 0.0005 0.85225 0.0
H1428 H 0.545 0.07022 0.82015 0.0
H1429 H 0.57056 0.05959 0.79628 0.0
H1430 H 0.58585 0.01386 0.83601 0.0
C1431 C 0.52928 0.03767 0.88918 0.0
C1432 C 0.51522 0.05212 0.89234 0.0
C1433 C 0.51265 0.06617 0.87767 0.0
C1434 C 0.52386 0.06583 0.86004 0.0
C1435 C 0.53764 0.05141 0.8574 0.0
C1436 C 0.54045 0.03765 0.8716 0.0
C1437 C 0.5566 0.02407 0.86539 0.0
C1438 C 0.57425 0.02652 0.88023 0.0
C1439 C 0.54802 0.00208 0.86295 0.0
C1440 C 0.56246 0.03236 0.84548 0.0
C1441 C 0.55126 0.04803 0.84108 0.0
C1442 C 0.55389 0.05799 0.82344 0.0
C1443 C 0.56843 0.05182 0.80997 0.0
C1444 C 0.58026 0.03593 0.81429 0.0
C1445 C 0.57714 0.02611 0.8323 0.0
H1446 H 0.29823 0.23037 0.38185 0.0
H1447 H 0.27148 0.28253 0.40776 0.0
H1448 H 0.26599 0.26545 0.4392 0.0
H1449 H 0.2653 0.19415 0.40291 0.0
H1450 H 0.28385 0.17686 0.40755 0.0
H1451 H 0.28737 0.19374 0.3876 0.0
H1452 H 0.32173 0.20748 0.40254 0.0
H1453 H 0.31836 0.19056 0.42252 0.0
H1454 H 0.3232 0.21711 0.42811 0.0
H1455 H 0.26055 0.24195 0.46647 0.0
H1456 H 0.25643 0.21362 0.48856 0.0
H1457 H 0.2877 0.17683 0.44575 0.0
C1458 C 0.29163 0.23834 0.39429 0.0
C1459 C 0.28519 0.25775 0.39233 0.0
C1460 C 0.27627 0.26756 0.40884 0.0
C1461 C 0.27322 0.25805 0.4268 0.0
C1462 C 0.27934 0.23878 0.42811 0.0
C1463 C 0.2885 0.22906 0.4124 0.0
C1464 C 0.2927 0.20799 0.41746 0.0
C1465 C 0.28164 0.19226 0.40302 0.0
C1466 C 0.31535 0.20565 0.41767 0.0
C1467 C 0.28403 0.20725 0.43828 0.0
C1468 C 0.2765 0.22523 0.44413 0.0
C1469 C 0.26664 0.22788 0.4622 0.0
C1470 C 0.2643 0.21168 0.4746 0.0
C1471 C 0.27185 0.19307 0.46893 0.0
C1472 C 0.28206 0.19097 0.45062 0.0
H1473 H 0.46697 0.5021 0.87763 0.0
H1474 H 0.51824 0.49869 0.83849 0.0
H1475 H 0.49819 0.50938 0.81062 0.0
H1476 H 0.42946 0.48335 0.84142 0.0
H1477 H 0.41118 0.49995 0.85039 0.0
H1478 H 0.4296 0.49209 0.86727 0.0
H1479 H 0.4409 0.52926 0.87676 0.0
H1480 H 0.42256 0.53724 0.85986 0.0
H1481 H 0.44857 0.54592 0.85741 0.0
H1482 H 0.47258 0.51979 0.787 0.0
H1483 H 0.44319 0.52982 0.76905 0.0
H1484 H 0.40847 0.52693 0.8236 0.0
C1485 C 0.47392 0.50348 0.86316 0.0
C1486 C 0.49416 0.49958 0.8602 0.0
C1487 C 0.50281 0.50181 0.84112 0.0
C1488 C 0.49153 0.50778 0.8252 0.0
C1489 C 0.47164 0.51155 0.82863 0.0
C1490 C 0.4629 0.50954 0.84712 0.0
C1491 C 0.44127 0.51466 0.84682 0.0
C1492 C 0.42704 0.49642 0.85176 0.0
C1493 C 0.43815 0.53285 0.86106 0.0
C1494 C 0.4392 0.51977 0.82523 0.0
C1495 C 0.4569 0.51783 0.81502 0.0
C1496 C 0.45865 0.52142 0.79483 0.0
C1497 C 0.44184 0.52709 0.78477 0.0
C1498 C 0.4235 0.52921 0.79491 0.0
C1499 C 0.42228 0.52556 0.81545 0.0
H1500 H 0.71715 0.75082 0.14236 0.0
H1501 H 0.75475 0.72324 0.1839 0.0
H1502 H 0.7632 0.69841 0.15718 0.0
H1503 H 0.6981 0.7044 0.1154 0.0
H1504 H 0.69802 0.7161 0.0918 0.0
H1505 H 0.69427 0.73068 0.11458 0.0
H1506 H 0.72396 0.75581 0.10555 0.0
H1507 H 0.72791 0.74123 0.08286 0.0
H1508 H 0.74815 0.74672 0.10049 0.0
H1509 H 0.76965 0.67848 0.12467 0.0
H1510 H 0.77127 0.66356 0.0902 0.0
H1511 H 0.72847 0.70404 0.07097 0.0
C1512 C 0.72701 0.73942 0.14586 0.0
C1513 C 0.73536 0.7389 0.1651 0.0
C1514 C 0.7481 0.72373 0.16924 0.0
C1515 C 0.75304 0.70967 0.15415 0.0
C1516 C 0.74487 0.71089 0.13516 0.0
C1517 C 0.73189 0.72523 0.13111 0.0
C1518 C 0.7253 0.72364 0.10952 0.0
C1519 C 0.70258 0.71838 0.10773 0.0
C1520 C 0.73172 0.743 0.09899 0.0
C1521 C 0.73688 0.7064 0.10189 0.0
C1522 C 0.74814 0.69922 0.11682 0.0
C1523 C 0.76069 0.68383 0.11294 0.0
C1524 C 0.76159 0.67551 0.09333 0.0
C1525 C 0.7499 0.68254 0.07797 0.0
C1526 C 0.73742 0.69816 0.08243 0.0
H1527 H 0.98381 0.08985 0.13981 0.0
H1528 H 0.01236 0.13524 0.18094 0.0
H1529 H 0.98416 0.12985 0.20459 0.0
H1530 H 0.93117 0.09885 0.15081 0.0
H1531 H 0.92326 0.07246 0.14908 0.0
H1532 H 0.94402 0.08211 0.13437 0.0
H1533 H 0.96662 0.0569 0.14934 0.0
H1534 H 0.94595 0.04714 0.16395 0.0
H1535 H 0.96913 0.05641 0.17604 0.0
H1536 H 0.95362 0.1179 0.22435 0.0
H1537 H 0.92611 0.09766 0.24033 0.0
H1538 H 0.91928 0.05866 0.18682 0.0
C1539 C 0.98382 0.09893 0.15363 0.0
C1540 C 0.99988 0.11317 0.15857 0.0
C1541 C -6e-05 0.12441 0.17696 0.0
C1542 C 0.98398 0.12152 0.19035 0.0
C1543 C 0.9683 0.10721 0.18509 0.0
C1544 C 0.96826 0.09596 0.16723 0.0
C1545 C 0.95102 0.07994 0.16603 0.0
C1546 C 0.93651 0.08357 0.14907 0.0
C1547 C 0.95864 0.05886 0.16372 0.0
C1548 C 0.94161 0.08355 0.1862 0.0
C1549 C 0.95142 0.09967 0.1968 0.0
C1550 C 0.94575 0.10535 0.21612 0.0
C1551 C 0.93007 0.09385 0.22504 0.0
C1552 C 0.92064 0.07667 0.21475 0.0
C1553 C 0.92621 0.0718 0.19497 0.0
H1554 H 0.2693 0.78198 0.13367 0.0
H1555 H 0.22411 0.80037 0.1754 0.0
H1556 H 0.21301 0.82403 0.15119 0.0
H1557 H 0.28331 0.82971 0.11624 0.0
H1558 H 0.28705 0.82079 0.09084 0.0
H1559 H 0.29032 0.80456 0.11095 0.0
H1560 H 0.2644 0.77787 0.09453 0.0
H1561 H 0.26109 0.79401 0.07431 0.0
H1562 H 0.23974 0.78481 0.08848 0.0
H1563 H 0.20884 0.84763 0.12298 0.0
H1564 H 0.21094 0.86767 0.09287 0.0
H1565 H 0.25855 0.83273 0.07009 0.0
C1566 C 0.257 0.79092 0.13768 0.0
C1567 C 0.24759 0.78945 0.15639 0.0
C1568 C 0.2314 0.80121 0.16104 0.0
C1569 C 0.22507 0.81471 0.14743 0.0
C1570 C 0.23495 0.81604 0.1292 0.0
C1571 C 0.25044 0.80428 0.12428 0.0
C1572 C 0.25897 0.80874 0.10402 0.0
C1573 C 0.28122 0.81641 0.10562 0.0
C1574 C 0.25585 0.79026 0.08948 0.0
C1575 C 0.24612 0.82512 0.09838 0.0
C1576 C 0.23232 0.82918 0.11302 0.0
C1577 C 0.21944 0.8444 0.11133 0.0
C1578 C 0.22076 0.85572 0.09422 0.0
C1579 C 0.23481 0.85168 0.07909 0.0
C1580 C 0.24749 0.83608 0.08126 0.0
H1581 H 0.02092 0.50768 0.14746 0.0
H1582 H 0.0202 0.4427 0.14304 0.0
H1583 H 0.0453 0.44401 0.17006 0.0
H1584 H 0.07341 0.51821 0.15889 0.0
H1585 H 0.06937 0.53873 0.17644 0.0
H1586 H 0.05221 0.53278 0.15593 0.0
H1587 H 0.02258 0.52919 0.18065 0.0
H1588 H 0.03962 0.53526 0.20121 0.0
H1589 H 0.02362 0.51227 0.20061 0.0
H1590 H 0.07001 0.45238 0.19816 0.0
H1591 H 0.09088 0.4671 0.22644 0.0
H1592 H 0.07413 0.52633 0.21322 0.0
C1593 C 0.02591 0.49368 0.15221 0.0
C1594 C 0.01864 0.4751 0.14296 0.0
C1595 C 0.02581 0.45718 0.14957 0.0
C1596 C 0.04001 0.45774 0.16499 0.0
C1597 C 0.04685 0.47633 0.17372 0.0
C1598 C 0.03993 0.49395 0.16766 0.0
C1599 C 0.04903 0.5119 0.18003 0.0
C1600 C 0.06176 0.52625 0.16704 0.0
C1601 C 0.03274 0.52279 0.1913 0.0
C1602 C 0.06199 0.50159 0.19415 0.0
C1603 C 0.0607 0.4811 0.19015 0.0
C1604 C 0.07117 0.46842 0.20141 0.0
C1605 C 0.08301 0.47691 0.2174 0.0
C1606 C 0.08411 0.49784 0.22203 0.0
C1607 C 0.07361 0.51028 0.21006 0.0
H1608 H 0.38924 0.72469 0.28059 0.0
H1609 H 0.3877 0.781 0.25139 0.0
H1610 H 0.4188 0.79379 0.26877 0.0
H1611 H 0.40211 0.7465 0.32705 0.0
H1612 H 0.41795 0.72749 0.33412 0.0
H1613 H 0.39787 0.72119 0.31658 0.0
H1614 H 0.42301 0.70778 0.29085 0.0
H1615 H 0.44323 0.71403 0.30837 0.0
H1616 H 0.44449 0.72382 0.28384 0.0
H1617 H 0.44747 0.80213 0.29216 0.0
H1618 H 0.47092 0.80581 0.32063 0.0
H1619 H 0.45272 0.74486 0.33615 0.0
C1620 C 0.3955 0.73964 0.27764 0.0
C1621 C 0.38596 0.75172 0.26444 0.0
C1622 C 0.39486 0.77118 0.261 0.0
C1623 C 0.41253 0.77866 0.2709 0.0
C1624 C 0.42116 0.76655 0.28422 0.0
C1625 C 0.41295 0.74744 0.2876 0.0
C1626 C 0.42387 0.73833 0.30424 0.0
C1627 C 0.4096 0.73308 0.32151 0.0
C1628 C 0.43427 0.7199 0.29635 0.0
C1629 C 0.439 0.7556 0.31019 0.0
C1630 C 0.43745 0.77157 0.29818 0.0
C1631 C 0.44902 0.78964 0.30151 0.0
C1632 C 0.46227 0.79159 0.31777 0.0
C1633 C 0.46368 0.77562 0.33066 0.0
C1634 C 0.45214 0.75728 0.32651 0.0
H1635 H 0.96439 0.39898 0.97637 0.0
H1636 H 0.92911 0.36208 0.01676 0.0
H1637 H 0.93577 0.33175 0.99608 0.0
H1638 H 0.95046 0.36908 0.9299 0.0
H1639 H 0.97528 0.37287 0.91972 0.0
H1640 H 0.9659 0.39175 0.93649 0.0
H1641 H 0.99681 0.39014 0.95943 0.0
H1642 H 0.00617 0.37111 0.94288 0.0
H1643 H 0.00227 0.36643 0.96885 0.0
H1644 H 0.94818 0.30549 0.97258 0.0
H1645 H 0.96504 0.28478 0.94743 0.0
H1646 H 0.99295 0.33875 0.92256 0.0
C1647 C 0.95765 0.38455 0.98052 0.0
C1648 C 0.94609 0.38279 0.99801 0.0
C1649 C 0.93796 0.36365 0.00335 0.0
C1650 C 0.94163 0.3464 0.9917 0.0
C1651 C 0.95351 0.34858 0.9748 0.0
C1652 C 0.96133 0.36716 0.96915 0.0
C1653 C 0.97466 0.36523 0.95105 0.0
C1654 C 0.96606 0.37533 0.93324 0.0
C1655 C 0.99625 0.37373 0.95585 0.0
C1656 C 0.97338 0.34264 0.94763 0.0
C1657 C 0.96097 0.33336 0.9614 0.0
C1658 C 0.95781 0.31258 0.9616 0.0
C1659 C 0.96751 0.30095 0.94727 0.0
C1660 C 0.98034 0.31012 0.93299 0.0
C1661 C 0.98324 0.33127 0.93324 0.0
H1662 H 0.63869 0.78693 0.3165 0.0
H1663 H 0.65188 0.85125 0.3134 0.0
H1664 H 0.62258 0.85711 0.33428 0.0
H1665 H 0.58667 0.78723 0.31166 0.0
H1666 H 0.58054 0.76771 0.32868 0.0
H1667 H 0.60391 0.76842 0.31545 0.0
H1668 H 0.6232 0.76893 0.34897 0.0
H1669 H 0.59985 0.76824 0.36233 0.0
H1670 H 0.61914 0.78802 0.3681 0.0
H1671 H 0.59012 0.85626 0.35207 0.0
H1672 H 0.55657 0.84855 0.36627 0.0
H1673 H 0.56425 0.78491 0.35857 0.0
C1674 C 0.63554 0.80224 0.32042 0.0
C1675 C 0.64778 0.81862 0.31349 0.0
C1676 C 0.64306 0.83843 0.3189 0.0
C1677 C 0.62638 0.84194 0.33069 0.0
C1678 C 0.61455 0.8255 0.3371 0.0
C1679 C 0.61893 0.80603 0.33228 0.0
C1680 C 0.60302 0.79109 0.34011 0.0
C1681 C 0.59294 0.77784 0.32295 0.0
C1682 C 0.61183 0.77832 0.35582 0.0
C1683 C 0.58873 0.80523 0.3495 0.0
C1684 C 0.59577 0.82502 0.34771 0.0
C1685 C 0.58457 0.84084 0.35389 0.0
C1686 C 0.56553 0.83632 0.36188 0.0
C1687 C 0.55794 0.81617 0.36369 0.0
C1688 C 0.56987 0.80046 0.35774 0.0
H1689 H 0.03338 0.15999 0.999 0.0
H1690 H 0.09733 0.17356 0.99198 0.0
H1691 H 0.09089 0.19254 0.96226 0.0
H1692 H 0.02038 0.15545 0.94562 0.0
H1693 H 0.99728 0.16711 0.94956 0.0
H1694 H 0.00713 0.15283 0.96882 0.0
H1695 H 0.00638 0.18351 0.99387 0.0
H1696 H 0.99653 0.19785 0.97473 0.0
H1697 H 0.01919 0.20711 0.98779 0.0
H1698 H 0.07716 0.21292 0.9355 0.0
H1699 H 0.05739 0.23274 0.91382 0.0
H1700 H 0.0025 0.20554 0.93857 0.0
C1701 C 0.04606 0.16683 0.99113 0.0
C1702 C 0.06587 0.16535 0.99781 0.0
C1703 C 0.08205 0.17434 0.98699 0.0
C1704 C 0.07853 0.18517 0.97014 0.0
C1705 C 0.05876 0.18666 0.96421 0.0
C1706 C 0.04282 0.17761 0.97433 0.0
C1707 C 0.02298 0.18239 0.96573 0.0
C1708 C 0.01125 0.16331 0.9569 0.0
C1709 C 0.01055 0.19337 0.98147 0.0
C1710 C 0.0302 0.19608 0.94954 0.0
C1711 C 0.05088 0.19822 0.94875 0.0
C1712 C 0.06096 0.21112 0.93579 0.0
C1713 C 0.0496 0.22233 0.92356 0.0
C1714 C 0.0284 0.22058 0.92442 0.0
C1715 C 0.01866 0.207 0.93734 0.0
H1716 H 0.39153 0.28699 0.24841 0.0
H1717 H 0.38098 0.34904 0.23953 0.0
H1718 H 0.41058 0.35213 0.21777 0.0
H1719 H 0.44718 0.29446 0.24838 0.0
H1720 H 0.44961 0.2706 0.23534 0.0
H1721 H 0.42874 0.27382 0.2518 0.0
H1722 H 0.40412 0.26197 0.22301 0.0
H1723 H 0.42486 0.25878 0.20648 0.0
H1724 H 0.40563 0.27466 0.19993 0.0
H1725 H 0.43865 0.34743 0.19409 0.0
H1726 H 0.46414 0.33547 0.17081 0.0
H1727 H 0.45774 0.27704 0.19627 0.0
C1728 C 0.39574 0.30138 0.24231 0.0
C1729 C 0.38387 0.31774 0.24562 0.0
C1730 C 0.38966 0.3362 0.23699 0.0
C1731 C 0.40656 0.33817 0.22475 0.0
C1732 C 0.41767 0.32163 0.22146 0.0
C1733 C 0.41264 0.30364 0.23014 0.0
C1734 C 0.42641 0.28783 0.22321 0.0
C1735 C 0.43872 0.2813 0.24073 0.0
C1736 C 0.41454 0.26975 0.21252 0.0
C1737 C 0.43955 0.29958 0.20882 0.0
C1738 C 0.43433 0.31908 0.20813 0.0
C1739 C 0.44317 0.33233 0.19476 0.0
C1740 C 0.45757 0.32538 0.18156 0.0
C1741 C 0.46306 0.30543 0.18192 0.0
C1742 C 0.45417 0.29252 0.19599 0.0
H1743 H 0.54166 0.39722 0.02483 0.0
H1744 H 0.49234 0.3791 0.98399 0.0
H1745 H 0.479 0.35449 0.00756 0.0
H1746 H 0.54862 0.34659 0.03981 0.0
H1747 H 0.55507 0.35482 0.06514 0.0
H1748 H 0.56068 0.37132 0.04516 0.0
H1749 H 0.54084 0.39846 0.06324 0.0
H1750 H 0.53504 0.38201 0.0832 0.0
H1751 H 0.51512 0.39236 0.07004 0.0
H1752 H 0.46994 0.33327 0.03609 0.0
H1753 H 0.46726 0.31437 0.06664 0.0
H1754 H 0.524 0.34374 0.08777 0.0
C1755 C 0.52825 0.38789 0.02059 0.0
C1756 C 0.51797 0.39039 0.00253 0.0
C1757 C 0.50027 0.37795 0.99789 0.0
C1758 C 0.49263 0.36377 0.01112 0.0
C1759 C 0.50302 0.36191 0.0288 0.0
C1760 C 0.5206 0.37338 0.03345 0.0
C1761 C 0.52898 0.36812 0.05335 0.0
C1762 C 0.54956 0.35971 0.0507 0.0
C1763 C 0.53005 0.38632 0.06834 0.0
C1764 C 0.5132 0.35205 0.05925 0.0
C1765 C 0.49829 0.34887 0.04492 0.0
C1766 C 0.48162 0.33545 0.04731 0.0
C1767 C 0.4802 0.32487 0.06476 0.0
C1768 C 0.49547 0.32755 0.07949 0.0
C1769 C 0.51223 0.34127 0.07664 0.0
H1770 H 0.6196 0.2489 0.24731 0.0
H1771 H 0.66585 0.2792 0.21211 0.0
H1772 H 0.64048 0.28498 0.18653 0.0
H1773 H 0.59176 0.22404 0.20565 0.0
H1774 H 0.56783 0.22667 0.21732 0.0
H1775 H 0.58975 0.22485 0.23246 0.0
H1776 H 0.58322 0.25833 0.25148 0.0
H1777 H 0.56131 0.26029 0.23637 0.0
H1778 H 0.58086 0.28043 0.23767 0.0
H1779 H 0.60922 0.28895 0.16573 0.0
H1780 H 0.57545 0.28865 0.15053 0.0
H1781 H 0.55052 0.25452 0.19917 0.0
C1782 C 0.62438 0.25676 0.23421 0.0
C1783 C 0.64461 0.26373 0.23168 0.0
C1784 C 0.65039 0.27369 0.21424 0.0
C1785 C 0.63609 0.2771 0.19971 0.0
C1786 C 0.61617 0.27021 0.20278 0.0
C1787 C 0.6104 0.26005 0.21952 0.0
C1788 C 0.58817 0.25398 0.21933 0.0
C1789 C 0.58415 0.23102 0.21864 0.0
C1790 C 0.57779 0.26385 0.23727 0.0
C1791 C 0.58222 0.26252 0.19997 0.0
C1792 C 0.5985 0.27192 0.19064 0.0
C1793 C 0.59641 0.28146 0.17284 0.0
C1794 C 0.57719 0.28127 0.16434 0.0
C1795 C 0.5604 0.27145 0.17359 0.0
C1796 C 0.56308 0.26197 0.19161 0.0
H1797 H 0.49158 0.14308 0.0575 0.0
H1798 H 0.43184 0.1503 0.03543 0.0
H1799 H 0.43121 0.18214 0.05561 0.0
H1800 H 0.48314 0.16251 0.10794 0.0
H1801 H 0.50797 0.17486 0.11075 0.0
H1802 H 0.5038 0.15264 0.09454 0.0
H1803 H 0.51958 0.17185 0.06512 0.0
H1804 H 0.52386 0.1941 0.08124 0.0
H1805 H 0.50975 0.19491 0.05846 0.0
H1806 H 0.43767 0.21372 0.07661 0.0
H1807 H 0.45019 0.2427 0.09855 0.0
H1808 H 0.50504 0.21427 0.10868 0.0
C1809 C 0.47842 0.15144 0.05694 0.0
C1810 C 0.46176 0.14436 0.04495 0.0
C1811 C 0.44468 0.1555 0.04466 0.0
C1812 C 0.44421 0.17357 0.05601 0.0
C1813 C 0.46085 0.18013 0.06773 0.0
C1814 C 0.47758 0.16938 0.06842 0.0
C1815 C 0.49335 0.17974 0.08241 0.0
C1816 C 0.49729 0.16666 0.09995 0.0
C1817 C 0.51278 0.18549 0.07113 0.0
C1818 C 0.48296 0.19812 0.08928 0.0
C1819 C 0.46426 0.19806 0.08052 0.0
C1820 C 0.45218 0.21386 0.08374 0.0
C1821 C 0.45943 0.23025 0.09617 0.0
C1822 C 0.47848 0.23059 0.10541 0.0
C1823 C 0.49028 0.21421 0.10206 0.0
H1824 H 0.27611 0.4159 0.75218 0.0
H1825 H 0.27989 0.40865 0.68769 0.0
H1826 H 0.30085 0.44071 0.68712 0.0
H1827 H 0.27278 0.47 0.75443 0.0
H1828 H 0.28754 0.4738 0.77696 0.0
H1829 H 0.27241 0.45059 0.77211 0.0
H1830 H 0.30373 0.43074 0.77603 0.0
H1831 H 0.31895 0.45386 0.78087 0.0
H1832 H 0.32549 0.43655 0.76096 0.0
H1833 H 0.32267 0.47289 0.6939 0.0
H1834 H 0.34348 0.50262 0.70744 0.0
H1835 H 0.32402 0.48915 0.76731 0.0
C1836 C 0.281 0.42118 0.73786 0.0
C1837 C 0.27628 0.40973 0.71996 0.0
C1838 C 0.28347 0.41702 0.70162 0.0
C1839 C 0.29526 0.43529 0.70113 0.0
C1840 C 0.29961 0.44614 0.71909 0.0
C1841 C 0.29262 0.43937 0.73709 0.0
C1842 C 0.29981 0.45355 0.75434 0.0
C1843 C 0.28208 0.46252 0.76509 0.0
C1844 C 0.31277 0.44304 0.7689 0.0
C1845 C 0.31218 0.46925 0.74327 0.0
C1846 C 0.31186 0.46475 0.72295 0.0
C1847 C 0.32288 0.47666 0.70977 0.0
C1848 C 0.33468 0.49349 0.71761 0.0
C1849 C 0.3353 0.49828 0.73842 0.0
C1850 C 0.32369 0.48606 0.75131 0.0
H1851 H 0.28874 0.671 0.77356 0.0
H1852 H 0.26531 0.66381 0.83327 0.0
H1853 H 0.28507 0.63468 0.83678 0.0
H1854 H 0.28821 0.6184 0.75966 0.0
H1855 H 0.31117 0.62084 0.74568 0.0
H1856 H 0.29554 0.64149 0.74797 0.0
H1857 H 0.32559 0.66452 0.76234 0.0
H1858 H 0.3413 0.64391 0.76019 0.0
H1859 H 0.33874 0.65725 0.78393 0.0
H1860 H 0.30643 0.60597 0.83369 0.0
H1861 H 0.32809 0.57907 0.82408 0.0
H1862 H 0.33813 0.6046 0.76639 0.0
C1863 C 0.28772 0.66324 0.78733 0.0
C1864 C 0.27558 0.66979 0.80321 0.0
C1865 C 0.27476 0.65929 0.82104 0.0
C1866 C 0.28586 0.64267 0.82315 0.0
C1867 C 0.29776 0.6367 0.80731 0.0
C1868 C 0.2988 0.64661 0.78973 0.0
C1869 C 0.31265 0.63688 0.77496 0.0
C1870 C 0.3012 0.62893 0.75595 0.0
C1871 C 0.33064 0.65152 0.77007 0.0
C1872 C 0.31906 0.61986 0.78695 0.0
C1873 C 0.31029 0.6201 0.80557 0.0
C1874 C 0.31347 0.60566 0.81918 0.0
C1875 C 0.32579 0.59043 0.81357 0.0
C1876 C 0.33487 0.58976 0.79452 0.0
C1877 C 0.33157 0.60482 0.78113 0.0
H1878 H 0.82562 0.51646 0.48161 0.0
H1879 H 0.87609 0.49345 0.51086 0.0
H1880 H 0.85313 0.46861 0.52719 0.0
H1881 H 0.78929 0.50926 0.52219 0.0
H1882 H 0.7688 0.50138 0.50543 0.0
H1883 H 0.78893 0.51862 0.49749 0.0
H1884 H 0.79496 0.49473 0.46691 0.0
H1885 H 0.7749 0.47743 0.47476 0.0
H1886 H 0.79954 0.46903 0.47072 0.0
H1887 H 0.82536 0.44571 0.53916 0.0
H1888 H 0.79442 0.42453 0.54494 0.0
H1889 H 0.7616 0.46122 0.50686 0.0
C1890 C 0.83168 0.50635 0.49171 0.0
C1891 C 0.85249 0.5068 0.49519 0.0
C1892 C 0.86012 0.49321 0.50813 0.0
C1893 C 0.84723 0.47916 0.51749 0.0
C1894 C 0.82678 0.47888 0.51361 0.0
C1895 C 0.81901 0.492 0.50097 0.0
C1896 C 0.79659 0.48749 0.49833 0.0
C1897 C 0.78524 0.50525 0.50634 0.0
C1898 C 0.79119 0.48183 0.47638 0.0
C1899 C 0.79308 0.46964 0.51124 0.0
C1900 C 0.81068 0.46514 0.52011 0.0
C1901 C 0.81144 0.4491 0.53239 0.0
C1902 C 0.79375 0.43716 0.53556 0.0
C1903 C 0.77554 0.44117 0.52633 0.0
C1904 C 0.77525 0.45777 0.51415 0.0
H1905 H 0.70965 0.88655 0.76447 0.0
H1906 H 0.7011 0.86966 0.82567 0.0
H1907 H 0.67798 0.89608 0.83123 0.0
H1908 H 0.71038 0.9388 0.77444 0.0
H1909 H 0.69687 0.94388 0.75226 0.0
H1910 H 0.7115 0.92249 0.75234 0.0
H1911 H 0.68023 0.89917 0.74155 0.0
H1912 H 0.66547 0.92053 0.74145 0.0
H1913 H 0.65772 0.89956 0.75622 0.0
H1914 H 0.65897 0.92616 0.83161 0.0
H1915 H 0.64369 0.95777 0.82616 0.0
H1916 H 0.66269 0.95499 0.76442 0.0
C1917 C 0.70272 0.8883 0.77895 0.0
C1918 C 0.70701 0.87585 0.79456 0.0
C1919 C 0.69772 0.87869 0.81334 0.0
C1920 C 0.68462 0.89373 0.8167 0.0
C1921 C 0.68078 0.90578 0.80109 0.0
C1922 C 0.68938 0.9032 0.78253 0.0
C1923 C 0.6832 0.91883 0.76863 0.0
C1924 C 0.70159 0.93176 0.76151 0.0
C1925 C 0.67092 0.90893 0.75092 0.0
C1926 C 0.67028 0.93088 0.7825 0.0
C1927 C 0.66912 0.923 0.80114 0.0
C1928 C 0.65943 0.93228 0.81699 0.0
C1929 C 0.65085 0.95023 0.81378 0.0
C1930 C 0.65179 0.95856 0.79484 0.0
C1931 C 0.66135 0.9486 0.77891 0.0
H1932 H 0.65494 0.53638 0.95216 0.0
H1933 H 0.6175 0.54043 0.00467 0.0
H1934 H 0.64138 0.56695 0.0197 0.0
H1935 H 0.70232 0.54354 0.97861 0.0
H1936 H 0.71461 0.55811 0.95965 0.0
H1937 H 0.69451 0.53949 0.95292 0.0
H1938 H 0.67546 0.56645 0.93623 0.0
H1939 H 0.69548 0.58517 0.94295 0.0
H1940 H 0.67019 0.58891 0.95054 0.0
H1941 H 0.66837 0.59366 0.02847 0.0
H1942 H 0.69814 0.61776 0.03154 0.0
H1943 H 0.71903 0.59566 0.97394 0.0
C1944 C 0.65183 0.5429 0.9668 0.0
C1945 C 0.63445 0.5364 0.97732 0.0
C1946 C 0.63086 0.5451 0.9965 0.0
C1947 C 0.64426 0.56022 0.0051 0.0
C1948 C 0.66125 0.56632 0.99437 0.0
C1949 C 0.6652 0.55786 0.97573 0.0
C1950 C 0.68475 0.56699 0.96758 0.0
C1951 C 0.69994 0.55108 0.96452 0.0
C1952 C 0.68125 0.57751 0.94818 0.0
C1953 C 0.69107 0.58199 0.9845 0.0
C1954 C 0.6772 0.58143 -0.00028 0.0
C1955 C 0.67942 0.59419 0.01672 0.0
C1956 C 0.69635 0.60786 0.01828 0.0
C1957 C 0.71094 0.60853 0.00301 0.0
C1958 C 0.70822 0.59538 0.98592 0.0
H1959 H 0.20832 0.63734 0.2378 0.0
H1960 H 0.24616 0.64047 0.29064 0.0
H1961 H 0.22761 0.60997 0.30225 0.0
H1962 H 0.16239 0.62136 0.26287 0.0
H1963 H 0.15304 0.60525 0.24205 0.0
H1964 H 0.16953 0.62719 0.23781 0.0
H1965 H 0.19373 0.60503 0.21842 0.0
H1966 H 0.17739 0.58301 0.22272 0.0
H1967 H 0.2033 0.58419 0.23032 0.0
H1968 H 0.20548 0.57866 0.30773 0.0
H1969 H 0.18 0.54986 0.30762 0.0
H1970 H 0.1557 0.56828 0.25205 0.0
C1971 C 0.21257 0.63182 0.25195 0.0
C1972 C 0.22883 0.64128 0.26321 0.0
C1973 C 0.23403 0.6333 0.28152 0.0
C1974 C 0.22351 0.61604 0.28832 0.0
C1975 C 0.20772 0.60701 0.27675 0.0
C1976 C 0.20214 0.61472 0.25905 0.0
C1977 C 0.18447 0.60228 0.24953 0.0
C1978 C 0.16628 0.61477 0.24798 0.0
C1979 C 0.19007 0.59308 0.22904 0.0
C1980 C 0.18101 0.58636 0.26464 0.0
C1981 C 0.19465 0.58928 0.28016 0.0
C1982 C 0.19464 0.57627 0.29572 0.0
C1983 C 0.18016 0.55993 0.29548 0.0
C1984 C 0.16582 0.55686 0.27987 0.0
C1985 C 0.16636 0.57028 0.26426 0.0
H1986 H 0.87982 0.54491 0.01909 0.0
H1987 H 0.88126 0.55709 0.08324 0.0
H1988 H 0.85787 0.58337 0.07968 0.0
H1989 H 0.87612 0.59613 0.00505 0.0
H1990 H 0.85916 0.58883 0.98464 0.0
H1991 H 0.87712 0.57199 0.99211 0.0
H1992 H 0.84846 0.54428 0.99686 0.0
H1993 H 0.83044 0.56101 0.98935 0.0
H1994 H 0.82784 0.54953 0.01302 0.0
H1995 H 0.83292 0.60719 0.06925 0.0
H1996 H 0.80795 0.62616 0.05279 0.0
H1997 H 0.82241 0.59768 0.99567 0.0
C1998 C 0.87523 0.55306 0.03242 0.0
C1999 C 0.88248 0.54894 0.05145 0.0
C2000 C 0.87621 0.56017 0.06846 0.0
C2001 C 0.86285 0.57507 0.06661 0.0
C2002 C 0.85589 0.57861 0.04765 0.0
C2003 C 0.86187 0.56791 0.03086 0.0
C2004 C 0.8516 0.57402 0.01229 0.0
C2005 C 0.86692 0.5833 0.99766 0.0
C2006 C 0.83883 0.55615 0.0023 0.0
C2007 C 0.83865 0.5896 0.02128 0.0
C2008 C 0.84145 0.59217 0.04167 0.0
C2009 C 0.83069 0.60539 0.05327 0.0
C2010 C 0.81655 0.6161 0.04379 0.0
C2011 C 0.81325 0.61344 0.02294 0.0
C2012 C 0.82464 0.60015 0.01161 0.0
H2013 H 0.14575 0.03488 0.05099 0.0
H2014 H 0.14254 0.02605 0.11459 0.0
H2015 H 0.16142 0.99597 0.1097 0.0
H2016 H 0.14064 0.98351 0.03427 0.0
H2017 H 0.15824 0.98669 0.01416 0.0
H2018 H 0.14419 0.00725 0.02272 0.0
H2019 H 0.17719 0.02966 0.02905 0.0
H2020 H 0.19135 0.00922 0.02037 0.0
H2021 H 0.19629 0.02112 0.04475 0.0
H2022 H 0.18056 0.96635 0.09744 0.0
H2023 H 0.19964 0.94108 0.07917 0.0
H2024 H 0.19123 0.97086 0.02419 0.0
C2025 C 0.14923 0.02687 0.064 0.0
C2026 C 0.14262 0.03293 0.08319 0.0
C2027 C 0.14718 0.02162 0.09968 0.0
C2028 C 0.15799 0.00455 0.09707 0.0
C2029 C 0.16421 0.99903 0.07791 0.0
C2030 C 0.1601 0.00998 0.06171 0.0
C2031 C 0.16865 0.00118 0.04269 0.0
C2032 C 0.15193 0.99425 0.02758 0.0
C2033 C 0.1843 0.01619 0.03369 0.0
C2034 C 0.17828 0.98355 0.05069 0.0
C2035 C 0.17547 0.98241 0.071 0.0
C2036 C 0.1829 0.96716 0.08154 0.0
C2037 C 0.19366 0.95285 0.07105 0.0
C2038 C 0.19698 0.95405 0.05029 0.0
C2039 C 0.18905 0.96957 0.04008 0.0
loop_
_geom_bond_atom_site_label_1
_geom_bond_atom_site_label_2
_geom_bond_distance
_geom_bond_site_symmetry_2
_ccdc_geom_bond_type
C0 C1 1.384 . S
C0 H13 0.947 . S
C0 C35 1.382 . S
C1 C0 1.384 . S
C1 C2 1.378 . S
C2 C1 1.378 . S
C2 C3 1.378 . S
C2 H14 0.952 . S
C3 C2 1.378 . S
C3 H15 0.950 . S
C3 C34 1.383 . S
H4 C23 0.947 . S
H5 C24 0.946 . S
H6 C26 0.953 . S
H7 C27 0.945 . S
H8 C29 0.952 . S
H9 C30 0.949 . S
H10 C32 0.950 . S
H11 C33 0.948 . S
H12 C35 0.951 . S
H13 C0 0.947 . S
H14 C2 0.952 . S
H15 C3 0.950 . S
N16 C19 1.382 . S
N16 C21 1.363 . S
N17 C19 1.371 . S
N17 C20 1.372 . S
N18 C20 1.361 . S
N18 C21 1.377 . S
C19 N16 1.382 . S
C19 N17 1.371 . S
C19 C22 1.480 . S
C20 N17 1.372 . S
C20 N18 1.361 . S
C20 C28 1.457 . S
C21 N16 1.363 . S
C21 N18 1.377 . S
C21 C34 1.479 . S
C22 C19 1.480 . S
C22 C23 1.383 . S
C22 C27 1.385 . S
C23 H4 0.947 . S
C23 C22 1.383 . S
C23 C24 1.388 . S
C24 H5 0.946 . S
C24 C23 1.388 . S
C24 C25 1.384 . S
C25 C24 1.384 . S
C25 C26 1.377 . S
C26 H6 0.953 . S
C26 C25 1.377 . S
C26 C27 1.369 . S
C27 H7 0.945 . S
C27 C22 1.385 . S
C27 C26 1.369 . S
C28 C20 1.457 . S
C28 C29 1.372 . S
C28 C33 1.364 . S
C29 H8 0.952 . S
C29 C28 1.372 . S
C29 C30 1.389 . S
C30 H9 0.949 . S
C30 C29 1.389 . S
C30 C31 1.387 . S
C31 C30 1.387 . S
C31 C32 1.372 . S
C32 H10 0.950 . S
C32 C31 1.372 . S
C32 C33 1.379 . S
C33 H11 0.948 . S
C33 C28 1.364 . S
C33 C32 1.379 . S
C34 C3 1.383 . S
C34 C21 1.479 . S
C34 C35 1.398 . S
C35 C0 1.382 . S
C35 H12 0.951 . S
C35 C34 1.398 . S
C36 C37 1.384 . S
C36 H49 0.947 . S
C36 C71 1.382 . S
C37 C36 1.384 . S
C37 C38 1.378 . S
C38 C37 1.378 . S
C38 C39 1.378 . S
C38 H50 0.952 . S
C39 C38 1.378 . S
C39 H51 0.950 . S
C39 C70 1.383 . S
H40 C59 0.947 . S
H41 C60 0.946 . S
H42 C62 0.953 . S
H43 C63 0.945 . S
H44 C65 0.952 . S
H45 C66 0.949 . S
H46 C68 0.950 . S
H47 C69 0.948 . S
H48 C71 0.951 . S
H49 C36 0.947 . S
H50 C38 0.952 . S
H51 C39 0.950 . S
N52 C55 1.382 . S
N52 C57 1.363 . S
N53 C55 1.371 . S
N53 C56 1.372 . S
N54 C56 1.361 . S
N54 C57 1.377 . S
C55 N52 1.382 . S
C55 N53 1.371 . S
C55 C58 1.480 . S
C56 N53 1.372 . S
C56 N54 1.361 . S
C56 C64 1.457 . S
C57 N52 1.363 . S
C57 N54 1.377 . S
C57 C70 1.479 . S
C58 C55 1.480 . S
C58 C59 1.383 . S
C58 C63 1.385 . S
C59 H40 0.947 . S
C59 C58 1.383 . S
C59 C60 1.388 . S
C60 H41 0.946 . S
C60 C59 1.388 . S
C60 C61 1.384 . S
C61 C60 1.384 . S
C61 C62 1.377 . S
C62 H42 0.953 . S
C62 C61 1.377 . S
C62 C63 1.369 . S
C63 H43 0.945 . S
C63 C58 1.385 . S
C63 C62 1.369 . S
C64 C56 1.457 . S
C64 C65 1.372 . S
C64 C69 1.364 . S
C65 H44 0.952 . S
C65 C64 1.372 . S
C65 C66 1.389 . S
C66 H45 0.949 . S
C66 C65 1.389 . S
C66 C67 1.387 . S
C67 C66 1.387 . S
C67 C68 1.372 . S
C68 H46 0.950 . S
C68 C67 1.372 . S
C68 C69 1.379 . S
C69 H47 0.948 . S
C69 C64 1.364 . S
C69 C68 1.379 . S
C70 C39 1.383 . S
C70 C57 1.479 . S
C70 C71 1.398 . S
C71 C36 1.382 . S
C71 H48 0.951 . S
C71 C70 1.398 . S
C72 C73 1.384 . S
C72 H85 0.947 . S
C72 C107 1.382 . S
C73 C72 1.384 . S
C73 C74 1.378 . S
C74 C73 1.378 . S
C74 C75 1.378 . S
C74 H86 0.952 . S
C75 C74 1.378 . S
C75 H87 0.950 . S
C75 C106 1.383 . S
H76 C95 0.947 . S
H77 C96 0.946 . S
H78 C98 0.953 . S
H79 C99 0.945 . S
H80 C101 0.952 . S
H81 C102 0.949 . S
H82 C104 0.950 . S
H83 C105 0.948 . S
H84 C107 0.951 . S
H85 C72 0.947 . S
H86 C74 0.952 . S
H87 C75 0.950 . S
N88 C91 1.382 . S
N88 C93 1.363 . S
N89 C91 1.371 . S
N89 C92 1.372 . S
N90 C92 1.361 . S
N90 C93 1.377 . S
C91 N88 1.382 . S
C91 N89 1.371 . S
C91 C94 1.480 . S
C92 N89 1.372 . S
C92 N90 1.361 . S
C92 C100 1.457 . S
C93 N88 1.363 . S
C93 N90 1.377 . S
C93 C106 1.479 . S
C94 C91 1.480 . S
C94 C95 1.383 . S
C94 C99 1.385 . S
C95 H76 0.947 . S
C95 C94 1.383 . S
C95 C96 1.388 . S
C96 H77 0.946 . S
C96 C95 1.388 . S
C96 C97 1.384 . S
C97 C96 1.384 . S
C97 C98 1.377 . S
C98 H78 0.953 . S
C98 C97 1.377 . S
C98 C99 1.369 . S
C99 H79 0.945 . S
C99 C94 1.385 . S
C99 C98 1.369 . S
C100 C92 1.457 . S
C100 C101 1.372 . S
C100 C105 1.364 . S
C101 H80 0.952 . S
C101 C100 1.372 . S
C101 C102 1.389 . S
C102 H81 0.949 . S
C102 C101 1.389 . S
C102 C103 1.387 . S
C103 C102 1.387 . S
C103 C104 1.372 . S
C104 H82 0.950 . S
C104 C103 1.372 . S
C104 C105 1.379 . S
C105 H83 0.948 . S
C105 C100 1.364 . S
C105 C104 1.379 . S
C106 C75 1.383 . S
C106 C93 1.479 . S
C106 C107 1.398 . S
C107 C72 1.382 . S
C107 H84 0.951 . S
C107 C106 1.398 . S
C108 C109 1.384 . S
C108 H121 0.947 . S
C108 C143 1.382 . S
C109 C108 1.384 . S
C109 C110 1.378 . S
C110 C109 1.378 . S
C110 C111 1.378 . S
C110 H122 0.952 . S
C111 C110 1.378 . S
C111 H123 0.950 . S
C111 C142 1.383 . S
H112 C131 0.947 . S
H113 C132 0.946 . S
H114 C134 0.953 . S
H115 C135 0.945 . S
H116 C137 0.952 . S
H117 C138 0.949 . S
H118 C140 0.950 . S
H119 C141 0.948 . S
H120 C143 0.951 . S
H121 C108 0.947 . S
H122 C110 0.952 . S
H123 C111 0.950 . S
N124 C127 1.382 . S
N124 C129 1.363 . S
N125 C127 1.371 . S
N125 C128 1.372 . S
N126 C128 1.361 . S
N126 C129 1.377 . S
C127 N124 1.382 . S
C127 N125 1.371 . S
C127 C130 1.480 . S
C128 N125 1.372 . S
C128 N126 1.361 . S
C128 C136 1.457 . S
C129 N124 1.363 . S
C129 N126 1.377 . S
C129 C142 1.479 . S
C130 C127 1.480 . S
C130 C131 1.383 . S
C130 C135 1.385 . S
C131 H112 0.947 . S
C131 C130 1.383 . S
C131 C132 1.388 . S
C132 H113 0.946 . S
C132 C131 1.388 . S
C132 C133 1.384 . S
C133 C132 1.384 . S
C133 C134 1.377 . S
C134 H114 0.953 . S
C134 C133 1.377 . S
C134 C135 1.369 . S
C135 H115 0.945 . S
C135 C130 1.385 . S
C135 C134 1.369 . S
C136 C128 1.457 . S
C136 C137 1.372 . S
C136 C141 1.364 . S
C137 H116 0.952 . S
C137 C136 1.372 . S
C137 C138 1.389 . S
C138 H117 0.949 . S
C138 C137 1.389 . S
C138 C139 1.387 . S
C139 C138 1.387 . S
C139 C140 1.372 . S
C140 H118 0.950 . S
C140 C139 1.372 . S
C140 C141 1.379 . S
C141 H119 0.948 . S
C141 C136 1.364 . S
C141 C140 1.379 . S
C142 C111 1.383 . S
C142 C129 1.479 . S
C142 C143 1.398 . S
C143 C108 1.382 . S
C143 H120 0.951 . S
C143 C142 1.398 . S
C144 C145 1.384 . S
C144 H157 0.947 . S
C144 C179 1.382 . S
C145 C144 1.384 . S
C145 C146 1.378 . S
C146 C145 1.378 . S
C146 C147 1.378 . S
C146 H158 0.952 . S
C147 C146 1.378 . S
C147 H159 0.950 . S
C147 C178 1.383 . S
H148 C167 0.947 . S
H149 C168 0.946 . S
H150 C170 0.953 . S
H151 C171 0.945 . S
H152 C173 0.952 . S
H153 C174 0.949 . S
H154 C176 0.950 . S
H155 C177 0.948 . S
H156 C179 0.951 . S
H157 C144 0.947 . S
H158 C146 0.952 . S
H159 C147 0.950 . S
N160 C163 1.382 . S
N160 C165 1.363 . S
N161 C163 1.371 . S
N161 C164 1.372 . S
N162 C164 1.361 . S
N162 C165 1.377 . S
C163 N160 1.382 . S
C163 N161 1.371 . S
C163 C166 1.480 . S
C164 N161 1.372 . S
C164 N162 1.361 . S
C164 C172 1.457 . S
C165 N160 1.363 . S
C165 N162 1.377 . S
C165 C178 1.479 . S
C166 C163 1.480 . S
C166 C167 1.383 . S
C166 C171 1.385 . S
C167 H148 0.947 . S
C167 C166 1.383 . S
C167 C168 1.388 . S
C168 H149 0.946 . S
C168 C167 1.388 . S
C168 C169 1.384 . S
C169 C168 1.384 . S
C169 C170 1.377 . S
C170 H150 0.953 . S
C170 C169 1.377 . S
C170 C171 1.369 . S
C171 H151 0.945 . S
C171 C166 1.385 . S
C171 C170 1.369 . S
C172 C164 1.457 . S
C172 C173 1.372 . S
C172 C177 1.364 . S
C173 H152 0.952 . S
C173 C172 1.372 . S
C173 C174 1.389 1_565 S
C174 H153 0.949 . S
C174 C173 1.389 1_545 S
C174 C175 1.387 . S
C175 C174 1.387 . S
C175 C176 1.372 1_545 S
C176 H154 0.950 . S
C176 C175 1.372 1_565 S
C176 C177 1.379 . S
C177 H155 0.948 . S
C177 C172 1.364 . S
C177 C176 1.379 . S
C178 C147 1.383 . S
C178 C165 1.479 . S
C178 C179 1.398 . S
C179 C144 1.382 . S
C179 H156 0.951 . S
C179 C178 1.398 . S
C180 C181 1.384 . S
C180 H193 0.947 . S
C180 C215 1.382 . S
C181 C180 1.384 . S
C181 C182 1.378 . S
C182 C181 1.378 . S
C182 C183 1.378 . S
C182 H194 0.952 . S
C183 C182 1.378 . S
C183 H195 0.950 . S
C183 C214 1.383 . S
H184 C203 0.947 . S
H185 C204 0.946 . S
H186 C206 0.953 . S
H187 C207 0.945 . S
H188 C209 0.952 . S
H189 C210 0.949 . S
H190 C212 0.950 . S
H191 C213 0.948 . S
H192 C215 0.951 . S
H193 C180 0.947 . S
H194 C182 0.952 . S
H195 C183 0.950 . S
N196 C199 1.382 . S
N196 C201 1.363 . S
N197 C199 1.371 . S
N197 C200 1.372 . S
N198 C200 1.361 . S
N198 C201 1.377 . S
C199 N196 1.382 . S
C199 N197 1.371 . S
C199 C202 1.480 . S
C200 N197 1.372 . S
C200 N198 1.361 . S
C200 C208 1.457 . S
C201 N196 1.363 . S
C201 N198 1.377 . S
C201 C214 1.479 . S
C202 C199 1.480 . S
C202 C203 1.383 . S
C202 C207 1.385 . S
C203 H184 0.947 . S
C203 C202 1.383 . S
C203 C204 1.388 . S
C204 H185 0.946 . S
C204 C203 1.388 . S
C204 C205 1.384 . S
C205 C204 1.384 . S
C205 C206 1.377 . S
C206 H186 0.953 . S
C206 C205 1.377 . S
C206 C207 1.369 . S
C207 H187 0.945 . S
C207 C202 1.385 . S
C207 C206 1.369 . S
C208 C200 1.457 . S
C208 C209 1.372 . S
C208 C213 1.364 . S
C209 H188 0.952 . S
C209 C208 1.372 . S
C209 C210 1.389 . S
C210 H189 0.949 . S
C210 C209 1.389 . S
C210 C211 1.387 . S
C211 C210 1.387 . S
C211 C212 1.372 . S
C212 H190 0.950 . S
C212 C211 1.372 . S
C212 C213 1.379 . S
C213 H191 0.948 . S
C213 C208 1.364 . S
C213 C212 1.379 . S
C214 C183 1.383 . S
C214 C201 1.479 . S
C214 C215 1.398 . S
C215 C180 1.382 . S
C215 H192 0.951 . S
C215 C214 1.398 . S
C216 C217 1.384 . S
C216 H229 0.947 . S
C216 C251 1.382 . S
C217 C216 1.384 . S
C217 C218 1.378 . S
C218 C217 1.378 . S
C218 C219 1.378 . S
C218 H230 0.952 . S
C219 C218 1.378 . S
C219 H231 0.950 . S
C219 C250 1.383 . S
H220 C239 0.947 . S
H221 C240 0.946 . S
H222 C242 0.953 . S
H223 C243 0.945 . S
H224 C245 0.952 . S
H225 C246 0.949 . S
H226 C248 0.950 . S
H227 C249 0.948 . S
H228 C251 0.951 . S
H229 C216 0.947 . S
H230 C218 0.952 . S
H231 C219 0.950 . S
N232 C235 1.382 . S
N232 C237 1.363 . S
N233 C235 1.371 . S
N233 C236 1.372 . S
N234 C236 1.361 . S
N234 C237 1.377 . S
C235 N232 1.382 . S
C235 N233 1.371 . S
C235 C238 1.480 . S
C236 N233 1.372 . S
C236 N234 1.361 . S
C236 C244 1.457 . S
C237 N232 1.363 . S
C237 N234 1.377 . S
C237 C250 1.479 . S
C238 C235 1.480 . S
C238 C239 1.383 . S
C238 C243 1.385 . S
C239 H220 0.947 . S
C239 C238 1.383 . S
C239 C240 1.388 . S
C240 H221 0.946 . S
C240 C239 1.388 . S
C240 C241 1.384 . S
C241 C240 1.384 . S
C241 C242 1.377 . S
C242 H222 0.953 . S
C242 C241 1.377 . S
C242 C243 1.369 . S
C243 H223 0.945 . S
C243 C238 1.385 . S
C243 C242 1.369 . S
C244 C236 1.457 . S
C244 C245 1.372 . S
C244 C249 1.364 . S
C245 H224 0.952 . S
C245 C244 1.372 . S
C245 C246 1.389 . S
C246 H225 0.949 . S
C246 C245 1.389 . S
C246 C247 1.387 . S
C247 C246 1.387 . S
C247 C248 1.372 . S
C248 H226 0.950 . S
C248 C247 1.372 . S
C248 C249 1.379 . S
C249 H227 0.948 . S
C249 C244 1.364 . S
C249 C248 1.379 . S
C250 C219 1.383 . S
C250 C237 1.479 . S
C250 C251 1.398 . S
C251 C216 1.382 . S
C251 H228 0.951 . S
C251 C250 1.398 . S
C252 C253 1.384 . S
C252 H265 0.947 . S
C252 C287 1.382 . S
C253 C252 1.384 . S
C253 C254 1.378 . S
C254 C253 1.378 . S
C254 C255 1.378 . S
C254 H266 0.952 . S
C255 C254 1.378 . S
C255 H267 0.950 . S
C255 C286 1.383 . S
H256 C275 0.947 . S
H257 C276 0.946 . S
H258 C278 0.953 . S
H259 C279 0.945 . S
H260 C281 0.952 . S
H261 C282 0.949 . S
H262 C284 0.950 . S
H263 C285 0.948 . S
H264 C287 0.951 . S
H265 C252 0.947 . S
H266 C254 0.952 . S
H267 C255 0.950 . S
N268 C271 1.382 . S
N268 C273 1.363 . S
N269 C271 1.371 . S
N269 C272 1.372 . S
N270 C272 1.361 . S
N270 C273 1.377 . S
C271 N268 1.382 . S
C271 N269 1.371 . S
C271 C274 1.480 . S
C272 N269 1.372 . S
C272 N270 1.361 . S
C272 C280 1.457 . S
C273 N268 1.363 . S
C273 N270 1.377 . S
C273 C286 1.479 . S
C274 C271 1.480 . S
C274 C275 1.383 . S
C274 C279 1.385 . S
C275 H256 0.947 . S
C275 C274 1.383 . S
C275 C276 1.388 . S
C276 H257 0.946 . S
C276 C275 1.388 . S
C276 C277 1.384 . S
C277 C276 1.384 . S
C277 C278 1.377 . S
C278 H258 0.953 . S
C278 C277 1.377 . S
C278 C279 1.369 . S
C279 H259 0.945 . S
C279 C274 1.385 . S
C279 C278 1.369 . S
C280 C272 1.457 . S
C280 C281 1.372 . S
C280 C285 1.364 . S
C281 H260 0.952 . S
C281 C280 1.372 . S
C281 C282 1.389 . S
C282 H261 0.949 . S
C282 C281 1.389 . S
C282 C283 1.387 . S
C283 C282 1.387 . S
C283 C284 1.372 . S
C284 H262 0.950 . S
C284 C283 1.372 . S
C284 C285 1.379 . S
C285 H263 0.948 . S
C285 C280 1.364 . S
C285 C284 1.379 . S
C286 C255 1.383 . S
C286 C273 1.479 . S
C286 C287 1.398 . S
C287 C252 1.382 . S
C287 H264 0.951 . S
C287 C286 1.398 . S
C288 C289 1.384 . S
C288 H301 0.947 . S
C288 C323 1.382 . S
C289 C288 1.384 . S
C289 C290 1.378 . S
C290 C289 1.378 . S
C290 C291 1.378 . S
C290 H302 0.952 . S
C291 C290 1.378 . S
C291 H303 0.950 . S
C291 C322 1.383 . S
H292 C311 0.947 . S
H293 C312 0.946 . S
H294 C314 0.953 . S
H295 C315 0.945 . S
H296 C317 0.952 . S
H297 C318 0.949 . S
H298 C320 0.950 . S
H299 C321 0.948 . S
H300 C323 0.951 . S
H301 C288 0.947 . S
H302 C290 0.952 . S
H303 C291 0.950 . S
N304 C307 1.382 . S
N304 C309 1.363 . S
N305 C307 1.371 . S
N305 C308 1.372 . S
N306 C308 1.361 . S
N306 C309 1.377 . S
C307 N304 1.382 . S
C307 N305 1.371 . S
C307 C310 1.480 . S
C308 N305 1.372 . S
C308 N306 1.361 . S
C308 C316 1.457 . S
C309 N304 1.363 . S
C309 N306 1.377 . S
C309 C322 1.479 . S
C310 C307 1.480 . S
C310 C311 1.383 . S
C310 C315 1.385 . S
C311 H292 0.947 . S
C311 C310 1.383 . S
C311 C312 1.388 . S
C312 H293 0.946 . S
C312 C311 1.388 . S
C312 C313 1.384 . S
C313 C312 1.384 . S
C313 C314 1.377 . S
C314 H294 0.953 . S
C314 C313 1.377 . S
C314 C315 1.369 . S
C315 H295 0.945 . S
C315 C310 1.385 . S
C315 C314 1.369 . S
C316 C308 1.457 . S
C316 C317 1.372 . S
C316 C321 1.364 . S
C317 H296 0.952 . S
C317 C316 1.372 . S
C317 C318 1.389 . S
C318 H297 0.949 . S
C318 C317 1.389 . S
C318 C319 1.387 . S
C319 C318 1.387 . S
C319 C320 1.372 . S
C320 H298 0.950 . S
C320 C319 1.372 . S
C320 C321 1.379 . S
C321 H299 0.948 . S
C321 C316 1.364 . S
C321 C320 1.379 . S
C322 C291 1.383 . S
C322 C309 1.479 . S
C322 C323 1.398 . S
C323 C288 1.382 . S
C323 H300 0.951 . S
C323 C322 1.398 . S
C324 C325 1.384 . S
C324 H337 0.947 . S
C324 C359 1.382 . S
C325 C324 1.384 . S
C325 C326 1.378 . S
C326 C325 1.378 . S
C326 C327 1.378 . S
C326 H338 0.952 . S
C327 C326 1.378 . S
C327 H339 0.950 . S
C327 C358 1.383 . S
H328 C347 0.947 . S
H329 C348 0.946 . S
H330 C350 0.953 . S
H331 C351 0.945 . S
H332 C353 0.952 . S
H333 C354 0.949 . S
H334 C356 0.950 . S
H335 C357 0.948 . S
H336 C359 0.951 . S
H337 C324 0.947 . S
H338 C326 0.952 . S
H339 C327 0.950 . S
N340 C343 1.382 . S
N340 C345 1.363 . S
N341 C343 1.371 . S
N341 C344 1.372 . S
N342 C344 1.361 . S
N342 C345 1.377 . S
C343 N340 1.382 . S
C343 N341 1.371 . S
C343 C346 1.480 . S
C344 N341 1.372 . S
C344 N342 1.361 . S
C344 C352 1.457 . S
C345 N340 1.363 . S
C345 N342 1.377 . S
C345 C358 1.479 . S
C346 C343 1.480 . S
C346 C347 1.383 . S
C346 C351 1.385 . S
C347 H328 0.947 . S
C347 C346 1.383 . S
C347 C348 1.388 . S
C348 H329 0.946 . S
C348 C347 1.388 . S
C348 C349 1.384 . S
C349 C348 1.384 . S
C349 C350 1.377 . S
C350 H330 0.953 . S
C350 C349 1.377 . S
C350 C351 1.369 . S
C351 H331 0.945 . S
C351 C346 1.385 . S
C351 C350 1.369 . S
C352 C344 1.457 . S
C352 C353 1.372 . S
C352 C357 1.364 . S
C353 H332 0.952 . S
C353 C352 1.372 . S
C353 C354 1.389 . S
C354 H333 0.949 . S
C354 C353 1.389 . S
C354 C355 1.387 . S
C355 C354 1.387 . S
C355 C356 1.372 . S
C356 H334 0.950 . S
C356 C355 1.372 . S
C356 C357 1.379 . S
C357 H335 0.948 . S
C357 C352 1.364 . S
C357 C356 1.379 . S
C358 C327 1.383 . S
C358 C345 1.479 . S
C358 C359 1.398 . S
C359 C324 1.382 . S
C359 H336 0.951 . S
C359 C358 1.398 . S
C360 C361 1.384 . S
C360 H373 0.947 . S
C360 C395 1.382 . S
C361 C360 1.384 . S
C361 C362 1.378 . S
C362 C361 1.378 . S
C362 C363 1.378 . S
C362 H374 0.952 . S
C363 C362 1.378 . S
C363 H375 0.950 . S
C363 C394 1.383 . S
H364 C383 0.947 . S
H365 C384 0.946 . S
H366 C386 0.953 . S
H367 C387 0.945 . S
H368 C389 0.952 . S
H369 C390 0.949 . S
H370 C392 0.950 . S
H371 C393 0.948 . S
H372 C395 0.951 . S
H373 C360 0.947 . S
H374 C362 0.952 . S
H375 C363 0.950 . S
N376 C379 1.382 . S
N376 C381 1.363 . S
N377 C379 1.371 . S
N377 C380 1.372 . S
N378 C380 1.361 . S
N378 C381 1.377 . S
C379 N376 1.382 . S
C379 N377 1.371 . S
C379 C382 1.480 . S
C380 N377 1.372 . S
C380 N378 1.361 . S
C380 C388 1.457 . S
C381 N376 1.363 . S
C381 N378 1.377 . S
C381 C394 1.479 . S
C382 C379 1.480 . S
C382 C383 1.383 . S
C382 C387 1.385 . S
C383 H364 0.947 . S
C383 C382 1.383 . S
C383 C384 1.388 . S
C384 H365 0.946 . S
C384 C383 1.388 . S
C384 C385 1.384 . S
C385 C384 1.384 . S
C385 C386 1.377 . S
C386 H366 0.953 . S
C386 C385 1.377 . S
C386 C387 1.369 . S
C387 H367 0.945 . S
C387 C382 1.385 . S
C387 C386 1.369 . S
C388 C380 1.457 . S
C388 C389 1.372 . S
C388 C393 1.364 . S
C389 H368 0.952 . S
C389 C388 1.372 . S
C389 C390 1.389 . S
C390 H369 0.949 . S
C390 C389 1.389 . S
C390 C391 1.387 . S
C391 C390 1.387 . S
C391 C392 1.372 . S
C392 H370 0.950 . S
C392 C391 1.372 . S
C392 C393 1.379 . S
C393 H371 0.948 . S
C393 C388 1.364 . S
C393 C392 1.379 . S
C394 C363 1.383 . S
C394 C381 1.479 . S
C394 C395 1.398 . S
C395 C360 1.382 . S
C395 H372 0.951 . S
C395 C394 1.398 . S
C396 C397 1.384 . S
C396 H409 0.947 . S
C396 C431 1.382 . S
C397 C396 1.384 . S
C397 C398 1.378 . S
C398 C397 1.378 . S
C398 C399 1.378 . S
C398 H410 0.952 . S
C399 C398 1.378 . S
C399 H411 0.950 . S
C399 C430 1.383 . S
H400 C419 0.947 . S
H401 C420 0.946 . S
H402 C422 0.953 . S
H403 C423 0.945 . S
H404 C425 0.952 . S
H405 C426 0.949 . S
H406 C428 0.950 . S
H407 C429 0.948 . S
H408 C431 0.951 . S
H409 C396 0.947 . S
H410 C398 0.952 . S
H411 C399 0.950 . S
N412 C415 1.382 . S
N412 C417 1.363 . S
N413 C415 1.371 . S
N413 C416 1.372 . S
N414 C416 1.361 . S
N414 C417 1.377 . S
C415 N412 1.382 . S
C415 N413 1.371 . S
C415 C418 1.480 . S
C416 N413 1.372 . S
C416 N414 1.361 . S
C416 C424 1.457 . S
C417 N412 1.363 . S
C417 N414 1.377 . S
C417 C430 1.479 . S
C418 C415 1.480 . S
C418 C419 1.383 . S
C418 C423 1.385 . S
C419 H400 0.947 . S
C419 C418 1.383 . S
C419 C420 1.388 . S
C420 H401 0.946 . S
C420 C419 1.388 . S
C420 C421 1.384 . S
C421 C420 1.384 . S
C421 C422 1.377 . S
C422 H402 0.953 . S
C422 C421 1.377 . S
C422 C423 1.369 . S
C423 H403 0.945 . S
C423 C418 1.385 . S
C423 C422 1.369 . S
C424 C416 1.457 . S
C424 C425 1.372 . S
C424 C429 1.364 . S
C425 H404 0.952 . S
C425 C424 1.372 . S
C425 C426 1.389 . S
C426 H405 0.949 . S
C426 C425 1.389 . S
C426 C427 1.387 . S
C427 C426 1.387 . S
C427 C428 1.372 . S
C428 H406 0.950 . S
C428 C427 1.372 . S
C428 C429 1.379 . S
C429 H407 0.948 . S
C429 C424 1.364 . S
C429 C428 1.379 . S
C430 C399 1.383 . S
C430 C417 1.479 . S
C430 C431 1.398 . S
C431 C396 1.382 . S
C431 H408 0.951 . S
C431 C430 1.398 . S
C432 C433 1.384 . S
C432 H445 0.947 . S
C432 C467 1.382 . S
C433 C432 1.384 . S
C433 C434 1.378 . S
C434 C433 1.378 . S
C434 C435 1.378 . S
C434 H446 0.952 . S
C435 C434 1.378 . S
C435 H447 0.950 . S
C435 C466 1.383 . S
H436 C455 0.947 . S
H437 C456 0.946 . S
H438 C458 0.953 . S
H439 C459 0.945 . S
H440 C461 0.952 . S
H441 C462 0.949 . S
H442 C464 0.950 . S
H443 C465 0.948 . S
H444 C467 0.951 . S
H445 C432 0.947 . S
H446 C434 0.952 . S
H447 C435 0.950 . S
N448 C451 1.382 . S
N448 C453 1.363 . S
N449 C451 1.371 . S
N449 C452 1.372 . S
N450 C452 1.361 . S
N450 C453 1.377 . S
C451 N448 1.382 . S
C451 N449 1.371 . S
C451 C454 1.480 . S
C452 N449 1.372 . S
C452 N450 1.361 . S
C452 C460 1.457 . S
C453 N448 1.363 . S
C453 N450 1.377 . S
C453 C466 1.479 . S
C454 C451 1.480 . S
C454 C455 1.383 . S
C454 C459 1.385 . S
C455 H436 0.947 . S
C455 C454 1.383 . S
C455 C456 1.388 . S
C456 H437 0.946 . S
C456 C455 1.388 . S
C456 C457 1.384 . S
C457 C456 1.384 . S
C457 C458 1.377 . S
C458 H438 0.953 . S
C458 C457 1.377 . S
C458 C459 1.369 . S
C459 H439 0.945 . S
C459 C454 1.385 . S
C459 C458 1.369 . S
C460 C452 1.457 . S
C460 C461 1.372 . S
C460 C465 1.364 . S
C461 H440 0.952 . S
C461 C460 1.372 . S
C461 C462 1.389 . S
C462 H441 0.949 . S
C462 C461 1.389 . S
C462 C463 1.387 . S
C463 C462 1.387 . S
C463 C464 1.372 . S
C464 H442 0.950 . S
C464 C463 1.372 . S
C464 C465 1.379 . S
C465 H443 0.948 . S
C465 C460 1.364 . S
C465 C464 1.379 . S
C466 C435 1.383 . S
C466 C453 1.479 . S
C466 C467 1.398 . S
C467 C432 1.382 . S
C467 H444 0.951 . S
C467 C466 1.398 . S
C468 C469 1.384 . S
C468 H481 0.947 . S
C468 C503 1.382 . S
C469 C468 1.384 . S
C469 C470 1.378 . S
C470 C469 1.378 . S
C470 C471 1.378 . S
C470 H482 0.952 . S
C471 C470 1.378 . S
C471 H483 0.950 . S
C471 C502 1.383 . S
H472 C491 0.947 . S
H473 C492 0.946 . S
H474 C494 0.953 . S
H475 C495 0.945 . S
H476 C497 0.952 . S
H477 C498 0.949 . S
H478 C500 0.950 . S
H479 C501 0.948 . S
H480 C503 0.951 . S
H481 C468 0.947 . S
H482 C470 0.952 . S
H483 C471 0.950 . S
N484 C487 1.382 . S
N484 C489 1.363 . S
N485 C487 1.371 . S
N485 C488 1.372 . S
N486 C488 1.361 . S
N486 C489 1.377 . S
C487 N484 1.382 . S
C487 N485 1.371 . S
C487 C490 1.480 . S
C488 N485 1.372 . S
C488 N486 1.361 . S
C488 C496 1.457 . S
C489 N484 1.363 . S
C489 N486 1.377 . S
C489 C502 1.479 . S
C490 C487 1.480 . S
C490 C491 1.383 . S
C490 C495 1.385 . S
C491 H472 0.947 . S
C491 C490 1.383 . S
C491 C492 1.388 . S
C492 H473 0.946 . S
C492 C491 1.388 . S
C492 C493 1.384 . S
C493 C492 1.384 . S
C493 C494 1.377 . S
C494 H474 0.953 . S
C494 C493 1.377 . S
C494 C495 1.369 . S
C495 H475 0.945 . S
C495 C490 1.385 . S
C495 C494 1.369 . S
C496 C488 1.457 . S
C496 C497 1.372 . S
C496 C501 1.364 . S
C497 H476 0.952 . S
C497 C496 1.372 . S
C497 C498 1.389 . S
C498 H477 0.949 . S
C498 C497 1.389 . S
C498 C499 1.387 . S
C499 C498 1.387 . S
C499 C500 1.372 . S
C500 H478 0.950 . S
C500 C499 1.372 . S
C500 C501 1.379 . S
C501 H479 0.948 . S
C501 C496 1.364 . S
C501 C500 1.379 . S
C502 C471 1.383 . S
C502 C489 1.479 . S
C502 C503 1.398 . S
C503 C468 1.382 . S
C503 H480 0.951 . S
C503 C502 1.398 . S
C504 C505 1.384 . S
C504 H517 0.947 . S
C504 C539 1.382 . S
C505 C504 1.384 . S
C505 C506 1.378 . S
C506 C505 1.378 . S
C506 C507 1.378 . S
C506 H518 0.952 . S
C507 C506 1.378 . S
C507 H519 0.950 . S
C507 C538 1.383 . S
H508 C527 0.947 . S
H509 C528 0.946 . S
H510 C530 0.953 . S
H511 C531 0.945 . S
H512 C533 0.952 . S
H513 C534 0.949 . S
H514 C536 0.950 . S
H515 C537 0.948 . S
H516 C539 0.951 . S
H517 C504 0.947 . S
H518 C506 0.952 . S
H519 C507 0.950 . S
N520 C523 1.382 . S
N520 C525 1.363 . S
N521 C523 1.371 . S
N521 C524 1.372 . S
N522 C524 1.361 . S
N522 C525 1.377 . S
C523 N520 1.382 . S
C523 N521 1.371 . S
C523 C526 1.480 . S
C524 N521 1.372 . S
C524 N522 1.361 . S
C524 C532 1.457 . S
C525 N520 1.363 . S
C525 N522 1.377 . S
C525 C538 1.479 . S
C526 C523 1.480 . S
C526 C527 1.383 . S
C526 C531 1.385 . S
C527 H508 0.947 . S
C527 C526 1.383 . S
C527 C528 1.388 . S
C528 H509 0.946 . S
C528 C527 1.388 . S
C528 C529 1.384 . S
C529 C528 1.384 . S
C529 C530 1.377 . S
C530 H510 0.953 . S
C530 C529 1.377 . S
C530 C531 1.369 . S
C531 H511 0.945 . S
C531 C526 1.385 . S
C531 C530 1.369 . S
C532 C524 1.457 . S
C532 C533 1.372 . S
C532 C537 1.364 . S
C533 H512 0.952 . S
C533 C532 1.372 . S
C533 C534 1.389 . S
C534 H513 0.949 . S
C534 C533 1.389 . S
C534 C535 1.387 . S
C535 C534 1.387 . S
C535 C536 1.372 . S
C536 H514 0.950 . S
C536 C535 1.372 . S
C536 C537 1.379 . S
C537 H515 0.948 . S
C537 C532 1.364 . S
C537 C536 1.379 . S
C538 C507 1.383 . S
C538 C525 1.479 . S
C538 C539 1.398 . S
C539 C504 1.382 . S
C539 H516 0.951 . S
C539 C538 1.398 . S
C540 C541 1.384 . S
C540 H553 0.947 . S
C540 C575 1.382 . S
C541 C540 1.384 . S
C541 C542 1.378 . S
C542 C541 1.378 . S
C542 C543 1.378 . S
C542 H554 0.952 1_556 S
C543 C542 1.378 . S
C543 H555 0.950 . S
C543 C574 1.383 . S
H544 C563 0.947 . S
H545 C564 0.946 . S
H546 C566 0.953 . S
H547 C567 0.945 . S
H548 C569 0.952 . S
H549 C570 0.949 . S
H550 C572 0.950 . S
H551 C573 0.948 . S
H552 C575 0.951 . S
H553 C540 0.947 . S
H554 C542 0.952 1_554 S
H555 C543 0.950 . S
N556 C559 1.382 . S
N556 C561 1.363 . S
N557 C559 1.371 . S
N557 C560 1.372 . S
N558 C560 1.361 . S
N558 C561 1.377 . S
C559 N556 1.382 . S
C559 N557 1.371 . S
C559 C562 1.480 . S
C560 N557 1.372 . S
C560 N558 1.361 . S
C560 C568 1.457 . S
C561 N556 1.363 . S
C561 N558 1.377 . S
C561 C574 1.479 . S
C562 C559 1.480 . S
C562 C563 1.383 . S
C562 C567 1.385 . S
C563 H544 0.947 . S
C563 C562 1.383 . S
C563 C564 1.388 . S
C564 H545 0.946 . S
C564 C563 1.388 . S
C564 C565 1.384 . S
C565 C564 1.384 . S
C565 C566 1.377 . S
C566 H546 0.953 . S
C566 C565 1.377 . S
C566 C567 1.369 . S
C567 H547 0.945 . S
C567 C562 1.385 . S
C567 C566 1.369 . S
C568 C560 1.457 . S
C568 C569 1.372 . S
C568 C573 1.364 . S
C569 H548 0.952 . S
C569 C568 1.372 . S
C569 C570 1.389 . S
C570 H549 0.949 . S
C570 C569 1.389 . S
C570 C571 1.387 . S
C571 C570 1.387 . S
C571 C572 1.372 . S
C572 H550 0.950 . S
C572 C571 1.372 . S
C572 C573 1.379 . S
C573 H551 0.948 . S
C573 C568 1.364 . S
C573 C572 1.379 . S
C574 C543 1.383 . S
C574 C561 1.479 . S
C574 C575 1.398 . S
C575 C540 1.382 . S
C575 H552 0.951 . S
C575 C574 1.398 . S
O576 Cd577 2.223 . S
O576 C584 1.315 . S
Cd577 O576 2.223 . S
Cd577 O580 2.297 . S
Cd577 O581 2.439 . S
Cd577 O587 2.240 . S
Cd578 O579 2.240 . S
Cd578 O586 2.223 . S
Cd578 O588 2.297 . S
Cd578 O589 2.439 . S
O579 Cd578 2.240 . S
O579 C584 1.279 . S
O580 Cd577 2.297 . S
O580 C582 1.247 . S
O581 Cd577 2.439 . S
O581 C582 1.208 . S
C582 O580 1.247 . S
C582 O581 1.208 . S
C583 O588 1.247 . S
C583 O589 1.208 . S
C584 O576 1.315 . S
C584 O579 1.279 . S
C585 O586 1.315 . S
C585 O587 1.279 . S
O586 Cd578 2.223 . S
O586 C585 1.315 . S
O587 Cd577 2.240 . S
O587 C585 1.279 . S
O588 Cd578 2.297 . S
O588 C583 1.247 . S
O589 Cd578 2.439 . S
O589 C583 1.208 . S
O590 Cd591 2.223 . S
O590 C598 1.315 . S
Cd591 O590 2.223 . S
Cd591 O594 2.297 . S
Cd591 O595 2.439 . S
Cd591 O601 2.240 . S
Cd592 O593 2.240 . S
Cd592 O600 2.223 . S
Cd592 O602 2.297 . S
Cd592 O603 2.439 . S
O593 Cd592 2.240 . S
O593 C598 1.279 . S
O594 Cd591 2.297 . S
O594 C596 1.247 . S
O595 Cd591 2.439 . S
O595 C596 1.208 . S
C596 O594 1.247 . S
C596 O595 1.208 . S
C597 O602 1.247 . S
C597 O603 1.208 . S
C598 O590 1.315 . S
C598 O593 1.279 . S
C599 O600 1.315 . S
C599 O601 1.279 . S
O600 Cd592 2.223 . S
O600 C599 1.315 . S
O601 Cd591 2.240 . S
O601 C599 1.279 . S
O602 Cd592 2.297 . S
O602 C597 1.247 . S
O603 Cd592 2.439 . S
O603 C597 1.208 . S
O604 Cd605 2.223 1_556 S
O604 C612 1.315 . S
Cd605 O604 2.223 1_554 S
Cd605 O608 2.297 . S
Cd605 O609 2.439 . S
Cd605 O615 2.240 . S
Cd606 O607 2.240 . S
Cd606 O614 2.223 . S
Cd606 O616 2.297 1_556 S
Cd606 O617 2.439 1_556 S
O607 Cd606 2.240 . S
O607 C612 1.279 . S
O608 Cd605 2.297 . S
O608 C610 1.247 . S
O609 Cd605 2.439 . S
O609 C610 1.208 . S
C610 O608 1.247 . S
C610 O609 1.208 . S
C611 O616 1.247 . S
C611 O617 1.208 . S
C612 O604 1.315 . S
C612 O607 1.279 . S
C613 O614 1.315 . S
C613 O615 1.279 1_556 S
O614 Cd606 2.223 . S
O614 C613 1.315 . S
O615 Cd605 2.240 . S
O615 C613 1.279 1_554 S
O616 Cd606 2.297 1_554 S
O616 C611 1.247 . S
O617 Cd606 2.439 1_554 S
O617 C611 1.208 . S
O618 Cd619 2.223 . S
O618 C626 1.315 . S
Cd619 O618 2.223 . S
Cd619 O622 2.297 . S
Cd619 O623 2.439 . S
Cd619 O629 2.240 . S
Cd620 O621 2.240 . S
Cd620 O628 2.223 . S
Cd620 O630 2.297 . S
Cd620 O631 2.439 . S
O621 Cd620 2.240 . S
O621 C626 1.279 . S
O622 Cd619 2.297 . S
O622 C624 1.247 . S
O623 Cd619 2.439 . S
O623 C624 1.208 . S
C624 O622 1.247 . S
C624 O623 1.208 . S
C625 O630 1.247 . S
C625 O631 1.208 . S
C626 O618 1.315 . S
C626 O621 1.279 . S
C627 O628 1.315 . S
C627 O629 1.279 . S
O628 Cd620 2.223 . S
O628 C627 1.315 . S
O629 Cd619 2.240 . S
O629 C627 1.279 . S
O630 Cd620 2.297 . S
O630 C625 1.247 . S
O631 Cd620 2.439 . S
O631 C625 1.208 . S
O632 Cd633 2.223 . S
O632 C640 1.315 . S
Cd633 O632 2.223 . S
Cd633 O636 2.297 . S
Cd633 O637 2.439 . S
Cd633 O643 2.240 . S
Cd634 O635 2.240 . S
Cd634 O642 2.223 . S
Cd634 O644 2.297 . S
Cd634 O645 2.439 . S
O635 Cd634 2.240 . S
O635 C640 1.279 . S
O636 Cd633 2.297 . S
O636 C638 1.247 . S
O637 Cd633 2.439 . S
O637 C638 1.208 . S
C638 O636 1.247 . S
C638 O637 1.208 . S
C639 O644 1.247 . S
C639 O645 1.208 . S
C640 O632 1.315 . S
C640 O635 1.279 . S
C641 O642 1.315 . S
C641 O643 1.279 . S
O642 Cd634 2.223 . S
O642 C641 1.315 . S
O643 Cd633 2.240 . S
O643 C641 1.279 . S
O644 Cd634 2.297 . S
O644 C639 1.247 . S
O645 Cd634 2.439 . S
O645 C639 1.208 . S
O646 Cd647 2.223 . S
O646 C654 1.315 . S
Cd647 O646 2.223 . S
Cd647 O650 2.297 . S
Cd647 O651 2.439 . S
Cd647 O657 2.240 . S
Cd648 O649 2.240 . S
Cd648 O656 2.223 . S
Cd648 O658 2.297 . S
Cd648 O659 2.439 . S
O649 Cd648 2.240 . S
O649 C654 1.279 . S
O650 Cd647 2.297 . S
O650 C652 1.247 . S
O651 Cd647 2.439 . S
O651 C652 1.208 . S
C652 O650 1.247 . S
C652 O651 1.208 . S
C653 O658 1.247 . S
C653 O659 1.208 . S
C654 O646 1.315 . S
C654 O649 1.279 . S
C655 O656 1.315 . S
C655 O657 1.279 . S
O656 Cd648 2.223 . S
O656 C655 1.315 . S
O657 Cd647 2.240 . S
O657 C655 1.279 . S
O658 Cd648 2.297 . S
O658 C653 1.247 . S
O659 Cd648 2.439 . S
O659 C653 1.208 . S
O660 Cd661 2.223 . S
O660 C668 1.315 . S
Cd661 O660 2.223 . S
Cd661 O664 2.297 . S
Cd661 O665 2.439 . S
Cd661 O671 2.240 . S
Cd662 O663 2.240 . S
Cd662 O670 2.223 . S
Cd662 O672 2.297 . S
Cd662 O673 2.439 . S
O663 Cd662 2.240 . S
O663 C668 1.279 . S
O664 Cd661 2.297 . S
O664 C666 1.247 . S
O665 Cd661 2.439 . S
O665 C666 1.208 . S
C666 O664 1.247 . S
C666 O665 1.208 . S
C667 O672 1.247 . S
C667 O673 1.208 . S
C668 O660 1.315 . S
C668 O663 1.279 . S
C669 O670 1.315 . S
C669 O671 1.279 . S
O670 Cd662 2.223 . S
O670 C669 1.315 . S
O671 Cd661 2.240 . S
O671 C669 1.279 . S
O672 Cd662 2.297 . S
O672 C667 1.247 . S
O673 Cd662 2.439 . S
O673 C667 1.208 . S
O674 Cd675 2.223 1_545 S
O674 C682 1.315 . S
Cd675 O674 2.223 1_565 S
Cd675 O678 2.297 . S
Cd675 O679 2.439 . S
Cd675 O685 2.240 1_565 S
Cd676 O677 2.240 . S
Cd676 O684 2.223 . S
Cd676 O686 2.297 . S
Cd676 O687 2.439 1_545 S
O677 Cd676 2.240 . S
O677 C682 1.279 . S
O678 Cd675 2.297 . S
O678 C680 1.247 . S
O679 Cd675 2.439 . S
O679 C680 1.208 . S
C680 O678 1.247 . S
C680 O679 1.208 . S
C681 O686 1.247 1_565 S
C681 O687 1.208 . S
C682 O674 1.315 . S
C682 O677 1.279 . S
C683 O684 1.315 . S
C683 O685 1.279 . S
O684 Cd676 2.223 . S
O684 C683 1.315 . S
O685 Cd675 2.240 1_545 S
O685 C683 1.279 . S
O686 Cd676 2.297 . S
O686 C681 1.247 1_545 S
O687 Cd676 2.439 1_565 S
O687 C681 1.208 . S
O688 Cd689 2.223 . S
O688 C696 1.315 . S
Cd689 O688 2.223 . S
Cd689 O692 2.297 1_655 S
Cd689 O693 2.439 1_655 S
Cd689 O699 2.240 . S
Cd690 O691 2.240 . S
Cd690 O698 2.223 1_455 S
Cd690 O700 2.297 . S
Cd690 O701 2.439 . S
O691 Cd690 2.240 . S
O691 C696 1.279 1_455 S
O692 Cd689 2.297 1_455 S
O692 C694 1.247 . S
O693 Cd689 2.439 1_455 S
O693 C694 1.208 . S
C694 O692 1.247 . S
C694 O693 1.208 . S
C695 O700 1.247 . S
C695 O701 1.208 . S
C696 O688 1.315 . S
C696 O691 1.279 1_655 S
C697 O698 1.315 . S
C697 O699 1.279 . S
O698 Cd690 2.223 1_655 S
O698 C697 1.315 . S
O699 Cd689 2.240 . S
O699 C697 1.279 . S
O700 Cd690 2.297 . S
O700 C695 1.247 . S
O701 Cd690 2.439 . S
O701 C695 1.208 . S
O702 Cd703 2.223 . S
O702 C710 1.315 . S
Cd703 O702 2.223 . S
Cd703 O706 2.297 . S
Cd703 O707 2.439 . S
Cd703 O713 2.240 . S
Cd704 O705 2.240 . S
Cd704 O712 2.223 . S
Cd704 O714 2.297 . S
Cd704 O715 2.439 . S
O705 Cd704 2.240 . S
O705 C710 1.279 . S
O706 Cd703 2.297 . S
O706 C708 1.247 . S
O707 Cd703 2.439 . S
O707 C708 1.208 . S
C708 O706 1.247 . S
C708 O707 1.208 . S
C709 O714 1.247 . S
C709 O715 1.208 . S
C710 O702 1.315 . S
C710 O705 1.279 . S
C711 O712 1.315 . S
C711 O713 1.279 . S
O712 Cd704 2.223 . S
O712 C711 1.315 . S
O713 Cd703 2.240 . S
O713 C711 1.279 . S
O714 Cd704 2.297 . S
O714 C709 1.247 . S
O715 Cd704 2.439 . S
O715 C709 1.208 . S
O716 Cd717 2.223 1_655 S
O716 C724 1.315 . S
Cd717 O716 2.223 1_455 S
Cd717 O720 2.297 . S
Cd717 O721 2.439 . S
Cd717 O727 2.240 . S
Cd718 O719 2.240 . S
Cd718 O726 2.223 . S
Cd718 O728 2.297 1_655 S
Cd718 O729 2.439 1_655 S
O719 Cd718 2.240 . S
O719 C724 1.279 . S
O720 Cd717 2.297 . S
O720 C722 1.247 . S
O721 Cd717 2.439 . S
O721 C722 1.208 . S
C722 O720 1.247 . S
C722 O721 1.208 . S
C723 O728 1.247 . S
C723 O729 1.208 . S
C724 O716 1.315 . S
C724 O719 1.279 . S
C725 O726 1.315 . S
C725 O727 1.279 1_655 S
O726 Cd718 2.223 . S
O726 C725 1.315 . S
O727 Cd717 2.240 . S
O727 C725 1.279 1_455 S
O728 Cd718 2.297 1_455 S
O728 C723 1.247 . S
O729 Cd718 2.439 1_455 S
O729 C723 1.208 . S
O730 Cd731 2.223 . S
O730 C738 1.315 . S
Cd731 O730 2.223 . S
Cd731 O734 2.297 . S
Cd731 O735 2.439 . S
Cd731 O741 2.240 . S
Cd732 O733 2.240 . S
Cd732 O740 2.223 . S
Cd732 O742 2.297 . S
Cd732 O743 2.439 . S
O733 Cd732 2.240 . S
O733 C738 1.279 . S
O734 Cd731 2.297 . S
O734 C736 1.247 . S
O735 Cd731 2.439 . S
O735 C736 1.208 . S
C736 O734 1.247 . S
C736 O735 1.208 . S
C737 O742 1.247 . S
C737 O743 1.208 . S
C738 O730 1.315 . S
C738 O733 1.279 . S
C739 O740 1.315 . S
C739 O741 1.279 . S
O740 Cd732 2.223 . S
O740 C739 1.315 . S
O741 Cd731 2.240 . S
O741 C739 1.279 . S
O742 Cd732 2.297 . S
O742 C737 1.247 . S
O743 Cd732 2.439 . S
O743 C737 1.208 . S
H744 C756 0.930 . S
H745 C758 0.930 . S
H746 C759 0.930 . S
H747 C763 0.959 . S
H748 C763 0.959 . S
H749 C763 0.961 . S
H750 C764 0.960 . S
H751 C764 0.961 . S
H752 C764 0.959 . S
H753 C767 0.929 . S
H754 C768 0.931 . S
H755 C770 0.930 1_554 S
C756 H744 0.930 . S
C756 C757 1.399 . S
C756 C761 1.399 . S
C757 C756 1.399 . S
C757 C758 1.376 . S
C758 H745 0.930 . S
C758 C757 1.376 . S
C758 C759 1.388 . S
C759 H746 0.930 . S
C759 C758 1.388 . S
C759 C760 1.390 . S
C760 C759 1.390 . S
C760 C761 1.394 . S
C760 C766 1.465 . S
C761 C756 1.399 . S
C761 C760 1.394 . S
C761 C762 1.516 . S
C762 C761 1.516 . S
C762 C763 1.502 . S
C762 C764 1.561 . S
C762 C765 1.526 . S
C763 H747 0.959 . S
C763 H748 0.959 . S
C763 H749 0.961 . S
C763 C762 1.502 . S
C764 H750 0.960 . S
C764 H751 0.961 . S
C764 H752 0.959 . S
C764 C762 1.561 . S
C765 C762 1.526 . S
C765 C766 1.396 . S
C765 C770 1.390 . S
C766 C760 1.465 . S
C766 C765 1.396 . S
C766 C767 1.399 . S
C767 H753 0.929 . S
C767 C766 1.399 . S
C767 C768 1.385 . S
C768 H754 0.931 . S
C768 C767 1.385 . S
C768 C769 1.389 . S
C769 C768 1.389 . S
C769 C770 1.387 . S
C770 H755 0.930 1_556 S
C770 C765 1.390 . S
C770 C769 1.387 . S
H771 C783 0.930 . S
H772 C785 0.930 . S
H773 C786 0.930 . S
H774 C790 0.959 . S
H775 C790 0.959 . S
H776 C790 0.961 . S
H777 C791 0.960 . S
H778 C791 0.961 . S
H779 C791 0.959 . S
H780 C794 0.929 . S
H781 C795 0.931 . S
H782 C797 0.930 . S
C783 H771 0.930 . S
C783 C784 1.399 . S
C783 C788 1.399 1_655 S
C784 C783 1.399 . S
C784 C785 1.376 . S
C785 H772 0.930 . S
C785 C784 1.376 . S
C785 C786 1.388 1_655 S
C786 H773 0.930 . S
C786 C785 1.388 1_455 S
C786 C787 1.390 . S
C787 C786 1.390 . S
C787 C788 1.394 . S
C787 C793 1.465 . S
C788 C783 1.399 1_455 S
C788 C787 1.394 . S
C788 C789 1.516 . S
C789 C788 1.516 . S
C789 C790 1.502 . S
C789 C791 1.561 . S
C789 C792 1.526 . S
C790 H774 0.959 . S
C790 H775 0.959 . S
C790 H776 0.961 . S
C790 C789 1.502 . S
C791 H777 0.960 . S
C791 H778 0.961 . S
C791 H779 0.959 . S
C791 C789 1.561 . S
C792 C789 1.526 . S
C792 C793 1.396 . S
C792 C797 1.390 . S
C793 C787 1.465 . S
C793 C792 1.396 . S
C793 C794 1.399 . S
C794 H780 0.929 . S
C794 C793 1.399 . S
C794 C795 1.385 . S
C795 H781 0.931 . S
C795 C794 1.385 . S
C795 C796 1.389 . S
C796 C795 1.389 . S
C796 C797 1.387 . S
C797 H782 0.930 . S
C797 C792 1.390 . S
C797 C796 1.387 . S
H798 C810 0.930 . S
H799 C812 0.930 . S
H800 C813 0.930 . S
H801 C817 0.959 . S
H802 C817 0.959 . S
H803 C817 0.961 . S
H804 C818 0.960 . S
H805 C818 0.961 . S
H806 C818 0.959 . S
H807 C821 0.929 . S
H808 C822 0.931 . S
H809 C824 0.930 . S
C810 H798 0.930 . S
C810 C811 1.399 . S
C810 C815 1.399 . S
C811 C810 1.399 . S
C811 C812 1.376 . S
C812 H799 0.930 . S
C812 C811 1.376 . S
C812 C813 1.388 . S
C813 H800 0.930 . S
C813 C812 1.388 . S
C813 C814 1.390 . S
C814 C813 1.390 . S
C814 C815 1.394 . S
C814 C820 1.465 . S
C815 C810 1.399 . S
C815 C814 1.394 . S
C815 C816 1.516 . S
C816 C815 1.516 . S
C816 C817 1.502 . S
C816 C818 1.561 . S
C816 C819 1.526 . S
C817 H801 0.959 . S
C817 H802 0.959 . S
C817 H803 0.961 . S
C817 C816 1.502 . S
C818 H804 0.960 . S
C818 H805 0.961 . S
C818 H806 0.959 . S
C818 C816 1.561 . S
C819 C816 1.526 . S
C819 C820 1.396 . S
C819 C824 1.390 . S
C820 C814 1.465 . S
C820 C819 1.396 . S
C820 C821 1.399 . S
C821 H807 0.929 . S
C821 C820 1.399 . S
C821 C822 1.385 . S
C822 H808 0.931 . S
C822 C821 1.385 . S
C822 C823 1.389 . S
C823 C822 1.389 . S
C823 C824 1.387 . S
C824 H809 0.930 . S
C824 C819 1.390 . S
C824 C823 1.387 . S
H825 C837 0.930 1_545 S
H826 C839 0.930 . S
H827 C840 0.930 . S
H828 C844 0.959 . S
H829 C844 0.959 . S
H830 C844 0.961 . S
H831 C845 0.960 1_455 S
H832 C845 0.961 . S
H833 C845 0.959 . S
H834 C848 0.929 . S
H835 C849 0.931 1_565 S
H836 C851 0.930 . S
C837 H825 0.930 1_565 S
C837 C838 1.399 . S
C837 C842 1.399 1_465 S
C838 C837 1.399 . S
C838 C839 1.376 1_455 S
C839 H826 0.930 . S
C839 C838 1.376 1_655 S
C839 C840 1.388 . S
C840 H827 0.930 . S
C840 C839 1.388 . S
C840 C841 1.390 . S
C841 C840 1.390 . S
C841 C842 1.394 1_565 S
C841 C847 1.465 . S
C842 C837 1.399 1_645 S
C842 C841 1.394 1_545 S
C842 C843 1.516 . S
C843 C842 1.516 . S
C843 C844 1.502 . S
C843 C845 1.561 . S
C843 C846 1.526 . S
C844 H828 0.959 . S
C844 H829 0.959 . S
C844 H830 0.961 . S
C844 C843 1.502 . S
C845 H831 0.960 1_655 S
C845 H832 0.961 . S
C845 H833 0.959 . S
C845 C843 1.561 . S
C846 C843 1.526 . S
C846 C847 1.396 1_545 S
C846 C851 1.390 . S
C847 C841 1.465 . S
C847 C846 1.396 1_565 S
C847 C848 1.399 . S
C848 H834 0.929 . S
C848 C847 1.399 . S
C848 C849 1.385 1_565 S
C849 H835 0.931 1_545 S
C849 C848 1.385 1_545 S
C849 C850 1.389 . S
C850 C849 1.389 . S
C850 C851 1.387 . S
C851 H836 0.930 . S
C851 C846 1.390 . S
C851 C850 1.387 . S
H852 C864 0.930 . S
H853 C866 0.930 . S
H854 C867 0.930 . S
H855 C871 0.959 . S
H856 C871 0.959 . S
H857 C871 0.961 . S
H858 C872 0.960 . S
H859 C872 0.961 . S
H860 C872 0.959 . S
H861 C875 0.929 . S
H862 C876 0.931 . S
H863 C878 0.930 . S
C864 H852 0.930 . S
C864 C865 1.399 . S
C864 C869 1.399 . S
C865 C864 1.399 . S
C865 C866 1.376 . S
C866 H853 0.930 . S
C866 C865 1.376 . S
C866 C867 1.388 . S
C867 H854 0.930 . S
C867 C866 1.388 . S
C867 C868 1.390 . S
C868 C867 1.390 . S
C868 C869 1.394 . S
C868 C874 1.465 . S
C869 C864 1.399 . S
C869 C868 1.394 . S
C869 C870 1.516 . S
C870 C869 1.516 . S
C870 C871 1.502 . S
C870 C872 1.561 . S
C870 C873 1.526 . S
C871 H855 0.959 . S
C871 H856 0.959 . S
C871 H857 0.961 . S
C871 C870 1.502 . S
C872 H858 0.960 . S
C872 H859 0.961 . S
C872 H860 0.959 . S
C872 C870 1.561 . S
C873 C870 1.526 . S
C873 C874 1.396 . S
C873 C878 1.390 . S
C874 C868 1.465 . S
C874 C873 1.396 . S
C874 C875 1.399 . S
C875 H861 0.929 . S
C875 C874 1.399 . S
C875 C876 1.385 . S
C876 H862 0.931 . S
C876 C875 1.385 . S
C876 C877 1.389 . S
C877 C876 1.389 . S
C877 C878 1.387 . S
C878 H863 0.930 . S
C878 C873 1.390 . S
C878 C877 1.387 . S
H879 C891 0.930 . S
H880 C893 0.930 . S
H881 C894 0.930 . S
H882 C898 0.959 . S
H883 C898 0.959 . S
H884 C898 0.961 . S
H885 C899 0.960 . S
H886 C899 0.961 . S
H887 C899 0.959 . S
H888 C902 0.929 . S
H889 C903 0.931 . S
H890 C905 0.930 . S
C891 H879 0.930 . S
C891 C892 1.399 . S
C891 C896 1.399 . S
C892 C891 1.399 . S
C892 C893 1.376 . S
C893 H880 0.930 . S
C893 C892 1.376 . S
C893 C894 1.388 . S
C894 H881 0.930 . S
C894 C893 1.388 . S
C894 C895 1.390 . S
C895 C894 1.390 . S
C895 C896 1.394 . S
C895 C901 1.465 . S
C896 C891 1.399 . S
C896 C895 1.394 . S
C896 C897 1.516 . S
C897 C896 1.516 . S
C897 C898 1.502 . S
C897 C899 1.561 . S
C897 C900 1.526 . S
C898 H882 0.959 . S
C898 H883 0.959 . S
C898 H884 0.961 . S
C898 C897 1.502 . S
C899 H885 0.960 . S
C899 H886 0.961 . S
C899 H887 0.959 . S
C899 C897 1.561 . S
C900 C897 1.526 . S
C900 C901 1.396 . S
C900 C905 1.390 . S
C901 C895 1.465 . S
C901 C900 1.396 . S
C901 C902 1.399 . S
C902 H888 0.929 . S
C902 C901 1.399 . S
C902 C903 1.385 . S
C903 H889 0.931 . S
C903 C902 1.385 . S
C903 C904 1.389 . S
C904 C903 1.389 . S
C904 C905 1.387 . S
C905 H890 0.930 . S
C905 C900 1.390 . S
C905 C904 1.387 . S
H906 C918 0.930 . S
H907 C920 0.930 . S
H908 C921 0.930 . S
H909 C925 0.959 . S
H910 C925 0.959 . S
H911 C925 0.961 . S
H912 C926 0.960 . S
H913 C926 0.961 . S
H914 C926 0.959 . S
H915 C929 0.929 . S
H916 C930 0.931 . S
H917 C932 0.930 . S
C918 H906 0.930 . S
C918 C919 1.399 . S
C918 C923 1.399 . S
C919 C918 1.399 . S
C919 C920 1.376 . S
C920 H907 0.930 . S
C920 C919 1.376 . S
C920 C921 1.388 . S
C921 H908 0.930 . S
C921 C920 1.388 . S
C921 C922 1.390 . S
C922 C921 1.390 . S
C922 C923 1.394 . S
C922 C928 1.465 . S
C923 C918 1.399 . S
C923 C922 1.394 . S
C923 C924 1.516 . S
C924 C923 1.516 . S
C924 C925 1.502 . S
C924 C926 1.561 . S
C924 C927 1.526 . S
C925 H909 0.959 . S
C925 H910 0.959 . S
C925 H911 0.961 . S
C925 C924 1.502 . S
C926 H912 0.960 . S
C926 H913 0.961 . S
C926 H914 0.959 . S
C926 C924 1.561 . S
C927 C924 1.526 . S
C927 C928 1.396 . S
C927 C932 1.390 . S
C928 C922 1.465 . S
C928 C927 1.396 . S
C928 C929 1.399 . S
C929 H915 0.929 . S
C929 C928 1.399 . S
C929 C930 1.385 . S
C930 H916 0.931 . S
C930 C929 1.385 . S
C930 C931 1.389 . S
C931 C930 1.389 . S
C931 C932 1.387 . S
C932 H917 0.930 . S
C932 C927 1.390 . S
C932 C931 1.387 . S
H933 C945 0.930 . S
H934 C947 0.930 . S
H935 C948 0.930 . S
H936 C952 0.959 . S
H937 C952 0.959 . S
H938 C952 0.961 . S
H939 C953 0.960 . S
H940 C953 0.961 . S
H941 C953 0.987 . S
H942 C956 0.929 . S
H943 C957 0.931 . S
H944 C959 0.930 . S
C945 H933 0.930 . S
C945 C946 1.399 . S
C945 C950 1.399 . S
C946 C945 1.399 . S
C946 C947 1.376 . S
C947 H934 0.930 . S
C947 C946 1.376 . S
C947 C948 1.388 . S
C948 H935 0.930 . S
C948 C947 1.388 . S
C948 C949 1.390 . S
C949 C948 1.390 . S
C949 C950 1.394 . S
C949 C955 1.465 . S
C950 C945 1.399 . S
C950 C949 1.394 . S
C950 C951 1.516 . S
C951 C950 1.516 . S
C951 C952 1.502 . S
C951 C953 1.561 . S
C951 C954 1.526 . S
C952 H936 0.959 . S
C952 H937 0.959 . S
C952 H938 0.961 . S
C952 C951 1.502 . S
C953 H939 0.960 . S
C953 H940 0.961 . S
C953 H941 0.987 . S
C953 C951 1.561 . S
C954 C951 1.526 . S
C954 C955 1.396 . S
C954 C959 1.390 . S
C955 C949 1.465 . S
C955 C954 1.396 . S
C955 C956 1.399 . S
C956 H942 0.929 . S
C956 C955 1.399 . S
C956 C957 1.385 . S
C957 H943 0.931 . S
C957 C956 1.385 . S
C957 C958 1.389 . S
C958 C957 1.389 . S
C958 C959 1.387 . S
C959 H944 0.930 . S
C959 C954 1.390 . S
C959 C958 1.387 . S
H960 C972 0.930 . S
H961 C974 0.930 . S
H962 C975 0.930 . S
H963 C979 0.959 . S
H964 C979 0.959 . S
H965 C979 0.961 . S
H966 C980 0.960 . S
H967 C980 0.961 . S
H968 C980 0.959 . S
H969 C983 0.929 . S
H970 C984 0.931 . S
H971 C986 0.930 . S
C972 H960 0.930 . S
C972 C973 1.399 . S
C972 C977 1.399 . S
C973 C972 1.399 . S
C973 C974 1.376 . S
C974 H961 0.930 . S
C974 C973 1.376 . S
C974 C975 1.388 . S
C975 H962 0.930 . S
C975 C974 1.388 . S
C975 C976 1.390 . S
C976 C975 1.390 . S
C976 C977 1.394 . S
C976 C982 1.465 . S
C977 C972 1.399 . S
C977 C976 1.394 . S
C977 C978 1.516 . S
C978 C977 1.516 . S
C978 C979 1.502 . S
C978 C980 1.561 . S
C978 C981 1.526 . S
C979 H963 0.959 . S
C979 H964 0.959 . S
C979 H965 0.961 . S
C979 C978 1.502 . S
C980 H966 0.960 . S
C980 H967 0.961 . S
C980 H968 0.959 . S
C980 C978 1.561 . S
C981 C978 1.526 . S
C981 C982 1.396 . S
C981 C986 1.390 . S
C982 C976 1.465 . S
C982 C981 1.396 . S
C982 C983 1.399 . S
C983 H969 0.929 . S
C983 C982 1.399 . S
C983 C984 1.385 . S
C984 H970 0.931 . S
C984 C983 1.385 . S
C984 C985 1.389 . S
C985 C984 1.389 . S
C985 C986 1.387 . S
C986 H971 0.930 . S
C986 C981 1.390 . S
C986 C985 1.387 . S
H987 C999 0.930 . S
H988 C1001 0.930 . S
H989 C1002 0.930 . S
H990 C1006 0.959 . S
H991 C1006 0.959 . S
H992 C1006 0.961 . S
H993 C1007 0.960 . S
H994 C1007 0.961 . S
H995 C1007 0.959 . S
H996 C1010 0.929 . S
H997 C1011 0.931 . S
H998 C1013 0.930 . S
C999 H987 0.930 . S
C999 C1000 1.399 . S
C999 C1004 1.399 . S
C1000 C999 1.399 . S
C1000 C1001 1.376 . S
C1001 H988 0.930 . S
C1001 C1000 1.376 . S
C1001 C1002 1.388 . S
C1002 H989 0.930 . S
C1002 C1001 1.388 . S
C1002 C1003 1.390 . S
C1003 C1002 1.390 . S
C1003 C1004 1.394 . S
C1003 C1009 1.465 . S
C1004 C999 1.399 . S
C1004 C1003 1.394 . S
C1004 C1005 1.516 . S
C1005 C1004 1.516 . S
C1005 C1006 1.502 . S
C1005 C1007 1.561 . S
C1005 C1008 1.526 . S
C1006 H990 0.959 . S
C1006 H991 0.959 . S
C1006 H992 0.961 . S
C1006 C1005 1.502 . S
C1007 H993 0.960 . S
C1007 H994 0.961 . S
C1007 H995 0.959 . S
C1007 C1005 1.561 . S
C1008 C1005 1.526 . S
C1008 C1009 1.396 . S
C1008 C1013 1.390 . S
C1009 C1003 1.465 . S
C1009 C1008 1.396 . S
C1009 C1010 1.399 . S
C1010 H996 0.929 . S
C1010 C1009 1.399 . S
C1010 C1011 1.385 . S
C1011 H997 0.931 . S
C1011 C1010 1.385 . S
C1011 C1012 1.389 . S
C1012 C1011 1.389 . S
C1012 C1013 1.387 . S
C1013 H998 0.930 . S
C1013 C1008 1.390 . S
C1013 C1012 1.387 . S
H1014 C1026 0.930 . S
H1015 C1028 0.930 . S
H1016 C1029 0.930 . S
H1017 C1033 0.959 . S
H1018 C1033 0.959 . S
H1019 C1033 0.961 . S
H1020 C1034 0.960 . S
H1021 C1034 0.961 . S
H1022 C1034 0.959 . S
H1023 C1037 0.929 . S
H1024 C1038 0.931 . S
H1025 C1040 0.930 . S
C1026 H1014 0.930 . S
C1026 C1027 1.399 . S
C1026 C1031 1.399 . S
C1027 C1026 1.399 . S
C1027 C1028 1.376 . S
C1028 H1015 0.930 . S
C1028 C1027 1.376 . S
C1028 C1029 1.388 . S
C1029 H1016 0.930 . S
C1029 C1028 1.388 . S
C1029 C1030 1.390 . S
C1030 C1029 1.390 . S
C1030 C1031 1.394 . S
C1030 C1036 1.465 . S
C1031 C1026 1.399 . S
C1031 C1030 1.394 . S
C1031 C1032 1.516 . S
C1032 C1031 1.516 . S
C1032 C1033 1.502 . S
C1032 C1034 1.561 . S
C1032 C1035 1.526 . S
C1033 H1017 0.959 . S
C1033 H1018 0.959 . S
C1033 H1019 0.961 . S
C1033 C1032 1.502 . S
C1034 H1020 0.960 . S
C1034 H1021 0.961 . S
C1034 H1022 0.959 . S
C1034 C1032 1.561 . S
C1035 C1032 1.526 . S
C1035 C1036 1.396 . S
C1035 C1040 1.390 . S
C1036 C1030 1.465 . S
C1036 C1035 1.396 . S
C1036 C1037 1.399 . S
C1037 H1023 0.929 . S
C1037 C1036 1.399 . S
C1037 C1038 1.385 . S
C1038 H1024 0.931 . S
C1038 C1037 1.385 . S
C1038 C1039 1.389 . S
C1039 C1038 1.389 . S
C1039 C1040 1.387 . S
C1040 H1025 0.930 . S
C1040 C1035 1.390 . S
C1040 C1039 1.387 . S
H1041 C1053 0.930 . S
H1042 C1055 0.930 . S
H1043 C1056 0.930 . S
H1044 C1060 0.959 . S
H1045 C1060 0.959 . S
H1046 C1060 0.961 . S
H1047 C1061 0.960 . S
H1048 C1061 0.961 . S
H1049 C1061 0.959 . S
H1050 C1064 0.929 . S
H1051 C1065 0.931 . S
H1052 C1067 0.930 . S
C1053 H1041 0.930 . S
C1053 C1054 1.399 . S
C1053 C1058 1.399 . S
C1054 C1053 1.399 . S
C1054 C1055 1.376 . S
C1055 H1042 0.930 . S
C1055 C1054 1.376 . S
C1055 C1056 1.388 . S
C1056 H1043 0.930 . S
C1056 C1055 1.388 . S
C1056 C1057 1.390 . S
C1057 C1056 1.390 . S
C1057 C1058 1.394 . S
C1057 C1063 1.465 . S
C1058 C1053 1.399 . S
C1058 C1057 1.394 . S
C1058 C1059 1.516 . S
C1059 C1058 1.516 . S
C1059 C1060 1.502 . S
C1059 C1061 1.561 . S
C1059 C1062 1.526 . S
C1060 H1044 0.959 . S
C1060 H1045 0.959 . S
C1060 H1046 0.961 . S
C1060 C1059 1.502 . S
C1061 H1047 0.960 . S
C1061 H1048 0.961 . S
C1061 H1049 0.959 . S
C1061 C1059 1.561 . S
C1062 C1059 1.526 . S
C1062 C1063 1.396 . S
C1062 C1067 1.390 . S
C1063 C1057 1.465 . S
C1063 C1062 1.396 . S
C1063 C1064 1.399 . S
C1064 H1050 0.929 . S
C1064 C1063 1.399 . S
C1064 C1065 1.385 . S
C1065 H1051 0.931 . S
C1065 C1064 1.385 . S
C1065 C1066 1.389 . S
C1066 C1065 1.389 . S
C1066 C1067 1.387 . S
C1067 H1052 0.930 . S
C1067 C1062 1.390 . S
C1067 C1066 1.387 . S
H1068 C1080 0.930 . S
H1069 C1082 0.930 . S
H1070 C1083 0.930 . S
H1071 C1087 0.959 . S
H1072 C1087 0.959 . S
H1073 C1087 0.961 . S
H1074 C1088 0.960 . S
H1075 C1088 0.961 . S
H1076 C1088 0.959 . S
H1077 C1091 0.929 . S
H1078 C1092 0.931 . S
H1079 C1094 0.930 . S
C1080 H1068 0.930 . S
C1080 C1081 1.399 . S
C1080 C1085 1.399 . S
C1081 C1080 1.399 . S
C1081 C1082 1.376 . S
C1082 H1069 0.930 . S
C1082 C1081 1.376 . S
C1082 C1083 1.388 . S
C1083 H1070 0.930 . S
C1083 C1082 1.388 . S
C1083 C1084 1.390 . S
C1084 C1083 1.390 . S
C1084 C1085 1.394 . S
C1084 C1090 1.465 . S
C1085 C1080 1.399 . S
C1085 C1084 1.394 . S
C1085 C1086 1.516 . S
C1086 C1085 1.516 . S
C1086 C1087 1.502 . S
C1086 C1088 1.561 . S
C1086 C1089 1.526 . S
C1087 H1071 0.959 . S
C1087 H1072 0.959 . S
C1087 H1073 0.961 . S
C1087 C1086 1.502 . S
C1088 H1074 0.960 . S
C1088 H1075 0.961 . S
C1088 H1076 0.959 . S
C1088 C1086 1.561 . S
C1089 C1086 1.526 . S
C1089 C1090 1.396 . S
C1089 C1094 1.390 . S
C1090 C1084 1.465 . S
C1090 C1089 1.396 . S
C1090 C1091 1.399 . S
C1091 H1077 0.929 . S
C1091 C1090 1.399 . S
C1091 C1092 1.385 . S
C1092 H1078 0.931 . S
C1092 C1091 1.385 . S
C1092 C1093 1.389 . S
C1093 C1092 1.389 . S
C1093 C1094 1.387 . S
C1094 H1079 0.930 . S
C1094 C1089 1.390 . S
C1094 C1093 1.387 . S
H1095 C1107 0.930 . S
H1096 C1109 0.930 . S
H1097 C1110 0.930 . S
H1098 C1114 0.959 . S
H1099 C1114 0.959 . S
H1100 C1114 0.961 . S
H1101 C1115 0.960 . S
H1102 C1115 0.961 . S
H1103 C1115 0.959 . S
H1104 C1118 0.929 . S
H1105 C1119 0.931 . S
H1106 C1121 0.930 . S
C1107 H1095 0.930 . S
C1107 C1108 1.399 . S
C1107 C1112 1.399 . S
C1108 C1107 1.399 . S
C1108 C1109 1.376 . S
C1109 H1096 0.930 . S
C1109 C1108 1.376 . S
C1109 C1110 1.388 . S
C1110 H1097 0.930 . S
C1110 C1109 1.388 . S
C1110 C1111 1.390 . S
C1111 C1110 1.390 . S
C1111 C1112 1.394 . S
C1111 C1117 1.465 . S
C1112 C1107 1.399 . S
C1112 C1111 1.394 . S
C1112 C1113 1.516 . S
C1113 C1112 1.516 . S
C1113 C1114 1.502 . S
C1113 C1115 1.561 . S
C1113 C1116 1.526 . S
C1114 H1098 0.959 . S
C1114 H1099 0.959 . S
C1114 H1100 0.961 . S
C1114 C1113 1.502 . S
C1115 H1101 0.960 . S
C1115 H1102 0.961 . S
C1115 H1103 0.959 . S
C1115 C1113 1.561 . S
C1116 C1113 1.526 . S
C1116 C1117 1.396 . S
C1116 C1121 1.390 . S
C1117 C1111 1.465 . S
C1117 C1116 1.396 . S
C1117 C1118 1.399 . S
C1118 H1104 0.929 . S
C1118 C1117 1.399 . S
C1118 C1119 1.385 . S
C1119 H1105 0.931 . S
C1119 C1118 1.385 . S
C1119 C1120 1.389 . S
C1120 C1119 1.389 . S
C1120 C1121 1.387 . S
C1121 H1106 0.930 . S
C1121 C1116 1.390 . S
C1121 C1120 1.387 . S
H1122 C1134 0.930 . S
H1123 C1136 0.930 . S
H1124 C1137 0.930 . S
H1125 C1141 0.959 . S
H1126 C1141 0.959 . S
H1127 C1141 0.961 . S
H1128 C1142 0.960 . S
H1129 C1142 0.961 . S
H1130 C1142 0.959 . S
H1131 C1145 0.929 . S
H1132 C1146 0.931 . S
H1133 C1148 0.930 . S
C1134 H1122 0.930 . S
C1134 C1135 1.399 . S
C1134 C1139 1.399 . S
C1135 C1134 1.399 . S
C1135 C1136 1.376 . S
C1136 H1123 0.930 . S
C1136 C1135 1.376 . S
C1136 C1137 1.388 . S
C1137 H1124 0.930 . S
C1137 C1136 1.388 . S
C1137 C1138 1.390 . S
C1138 C1137 1.390 . S
C1138 C1139 1.394 . S
C1138 C1144 1.465 . S
C1139 C1134 1.399 . S
C1139 C1138 1.394 . S
C1139 C1140 1.516 . S
C1140 C1139 1.516 . S
C1140 C1141 1.502 . S
C1140 C1142 1.561 . S
C1140 C1143 1.526 . S
C1141 H1125 0.959 . S
C1141 H1126 0.959 . S
C1141 H1127 0.961 . S
C1141 C1140 1.502 . S
C1142 H1128 0.960 . S
C1142 H1129 0.961 . S
C1142 H1130 0.959 . S
C1142 C1140 1.561 . S
C1143 C1140 1.526 . S
C1143 C1144 1.396 . S
C1143 C1148 1.390 . S
C1144 C1138 1.465 . S
C1144 C1143 1.396 . S
C1144 C1145 1.399 . S
C1145 H1131 0.929 . S
C1145 C1144 1.399 . S
C1145 C1146 1.385 . S
C1146 H1132 0.931 . S
C1146 C1145 1.385 . S
C1146 C1147 1.389 . S
C1147 C1146 1.389 . S
C1147 C1148 1.387 . S
C1148 H1133 0.930 . S
C1148 C1143 1.390 . S
C1148 C1147 1.387 . S
H1149 C1161 0.930 . S
H1150 C1163 0.930 . S
H1151 C1164 0.930 . S
H1152 C1168 0.959 . S
H1153 C1168 0.959 . S
H1154 C1168 0.961 . S
H1155 C1169 0.960 . S
H1156 C1169 0.961 . S
H1157 C1169 0.959 . S
H1158 C1172 0.929 . S
H1159 C1173 0.931 . S
H1160 C1175 0.930 . S
C1161 H1149 0.930 . S
C1161 C1162 1.399 . S
C1161 C1166 1.399 . S
C1162 C1161 1.399 . S
C1162 C1163 1.376 . S
C1163 H1150 0.930 . S
C1163 C1162 1.376 . S
C1163 C1164 1.388 . S
C1164 H1151 0.930 . S
C1164 C1163 1.388 . S
C1164 C1165 1.390 . S
C1165 C1164 1.390 . S
C1165 C1166 1.394 . S
C1165 C1171 1.465 . S
C1166 C1161 1.399 . S
C1166 C1165 1.394 . S
C1166 C1167 1.516 . S
C1167 C1166 1.516 . S
C1167 C1168 1.502 . S
C1167 C1169 1.561 . S
C1167 C1170 1.526 . S
C1168 H1152 0.959 . S
C1168 H1153 0.959 . S
C1168 H1154 0.961 . S
C1168 C1167 1.502 . S
C1169 H1155 0.960 . S
C1169 H1156 0.961 . S
C1169 H1157 0.959 . S
C1169 C1167 1.561 . S
C1170 C1167 1.526 . S
C1170 C1171 1.396 . S
C1170 C1175 1.390 . S
C1171 C1165 1.465 . S
C1171 C1170 1.396 . S
C1171 C1172 1.399 . S
C1172 H1158 0.929 . S
C1172 C1171 1.399 . S
C1172 C1173 1.385 . S
C1173 H1159 0.931 . S
C1173 C1172 1.385 . S
C1173 C1174 1.389 . S
C1174 C1173 1.389 . S
C1174 C1175 1.387 . S
C1175 H1160 0.930 . S
C1175 C1170 1.390 . S
C1175 C1174 1.387 . S
H1176 C1188 0.930 . S
H1177 C1190 0.930 . S
H1178 C1191 0.930 . S
H1179 C1195 0.959 . S
H1180 C1195 0.959 . S
H1181 C1195 0.961 . S
H1182 C1196 0.960 . S
H1183 C1196 0.961 . S
H1184 C1196 0.959 . S
H1185 C1199 0.929 . S
H1186 C1200 0.931 . S
H1187 C1202 0.930 . S
C1188 H1176 0.930 . S
C1188 C1189 1.399 . S
C1188 C1193 1.399 . S
C1189 C1188 1.399 . S
C1189 C1190 1.376 . S
C1190 H1177 0.930 . S
C1190 C1189 1.376 . S
C1190 C1191 1.388 . S
C1191 H1178 0.930 . S
C1191 C1190 1.388 . S
C1191 C1192 1.390 . S
C1192 C1191 1.390 . S
C1192 C1193 1.394 . S
C1192 C1198 1.465 . S
C1193 C1188 1.399 . S
C1193 C1192 1.394 . S
C1193 C1194 1.516 . S
C1194 C1193 1.516 . S
C1194 C1195 1.502 . S
C1194 C1196 1.561 . S
C1194 C1197 1.526 . S
C1195 H1179 0.959 . S
C1195 H1180 0.959 . S
C1195 H1181 0.961 . S
C1195 C1194 1.502 . S
C1196 H1182 0.960 . S
C1196 H1183 0.961 . S
C1196 H1184 0.959 . S
C1196 C1194 1.561 . S
C1197 C1194 1.526 . S
C1197 C1198 1.396 . S
C1197 C1202 1.390 . S
C1198 C1192 1.465 . S
C1198 C1197 1.396 . S
C1198 C1199 1.399 . S
C1199 H1185 0.929 . S
C1199 C1198 1.399 . S
C1199 C1200 1.385 1_565 S
C1200 H1186 0.931 . S
C1200 C1199 1.385 1_545 S
C1200 C1201 1.389 . S
C1201 C1200 1.389 . S
C1201 C1202 1.387 1_545 S
C1202 H1187 0.930 . S
C1202 C1197 1.390 . S
C1202 C1201 1.387 1_565 S
H1203 C1215 0.930 . S
H1204 C1217 0.930 . S
H1205 C1218 0.930 . S
H1206 C1222 0.959 . S
H1207 C1222 0.959 . S
H1208 C1222 0.961 . S
H1209 C1223 0.960 . S
H1210 C1223 0.961 . S
H1211 C1223 0.959 . S
H1212 C1226 0.929 . S
H1213 C1227 0.931 . S
H1214 C1229 0.930 . S
C1215 H1203 0.930 . S
C1215 C1216 1.399 . S
C1215 C1220 1.399 . S
C1216 C1215 1.399 . S
C1216 C1217 1.376 . S
C1217 H1204 0.930 . S
C1217 C1216 1.376 . S
C1217 C1218 1.388 . S
C1218 H1205 0.930 . S
C1218 C1217 1.388 . S
C1218 C1219 1.390 . S
C1219 C1218 1.390 . S
C1219 C1220 1.394 . S
C1219 C1225 1.465 . S
C1220 C1215 1.399 . S
C1220 C1219 1.394 . S
C1220 C1221 1.516 . S
C1221 C1220 1.516 . S
C1221 C1222 1.502 . S
C1221 C1223 1.561 . S
C1221 C1224 1.526 . S
C1222 H1206 0.959 . S
C1222 H1207 0.959 . S
C1222 H1208 0.961 . S
C1222 C1221 1.502 . S
C1223 H1209 0.960 . S
C1223 H1210 0.961 . S
C1223 H1211 0.959 . S
C1223 C1221 1.561 . S
C1224 C1221 1.526 . S
C1224 C1225 1.396 . S
C1224 C1229 1.390 . S
C1225 C1219 1.465 . S
C1225 C1224 1.396 . S
C1225 C1226 1.399 . S
C1226 H1212 0.929 . S
C1226 C1225 1.399 . S
C1226 C1227 1.385 . S
C1227 H1213 0.931 . S
C1227 C1226 1.385 . S
C1227 C1228 1.389 . S
C1228 C1227 1.389 . S
C1228 C1229 1.387 . S
C1229 H1214 0.930 . S
C1229 C1224 1.390 . S
C1229 C1228 1.387 . S
H1230 C1242 0.930 . S
H1231 C1244 0.930 . S
H1232 C1245 0.930 . S
H1233 C1249 0.959 . S
H1234 C1249 0.959 . S
H1235 C1249 0.961 . S
H1236 C1250 0.960 . S
H1237 C1250 0.961 . S
H1238 C1250 0.959 . S
H1239 C1253 0.929 . S
H1240 C1254 0.931 . S
H1241 C1256 0.930 . S
C1242 H1230 0.930 . S
C1242 C1243 1.399 . S
C1242 C1247 1.399 . S
C1243 C1242 1.399 . S
C1243 C1244 1.376 . S
C1244 H1231 0.930 . S
C1244 C1243 1.376 . S
C1244 C1245 1.388 1_556 S
C1245 H1232 0.930 . S
C1245 C1244 1.388 1_554 S
C1245 C1246 1.390 1_554 S
C1246 C1245 1.390 1_556 S
C1246 C1247 1.394 . S
C1246 C1252 1.465 1_546 S
C1247 C1242 1.399 . S
C1247 C1246 1.394 . S
C1247 C1248 1.516 1_545 S
C1248 C1247 1.516 1_565 S
C1248 C1249 1.502 . S
C1248 C1250 1.561 . S
C1248 C1251 1.526 . S
C1249 H1233 0.959 . S
C1249 H1234 0.959 . S
C1249 H1235 0.961 . S
C1249 C1248 1.502 . S
C1250 H1236 0.960 . S
C1250 H1237 0.961 . S
C1250 H1238 0.959 . S
C1250 C1248 1.561 . S
C1251 C1248 1.526 . S
C1251 C1252 1.396 1_556 S
C1251 C1256 1.390 . S
C1252 C1246 1.465 1_564 S
C1252 C1251 1.396 1_554 S
C1252 C1253 1.399 . S
C1253 H1239 0.929 . S
C1253 C1252 1.399 . S
C1253 C1254 1.385 . S
C1254 H1240 0.931 . S
C1254 C1253 1.385 . S
C1254 C1255 1.389 . S
C1255 C1254 1.389 . S
C1255 C1256 1.387 1_554 S
C1256 H1241 0.930 . S
C1256 C1251 1.390 . S
C1256 C1255 1.387 1_556 S
H1257 C1269 0.930 . S
H1258 C1271 0.930 . S
H1259 C1272 0.930 . S
H1260 C1276 0.959 . S
H1261 C1276 0.959 . S
H1262 C1276 0.961 . S
H1263 C1277 0.960 . S
H1264 C1277 0.961 . S
H1265 C1277 0.959 . S
H1266 C1280 0.929 . S
H1267 C1281 0.931 . S
H1268 C1283 0.930 . S
C1269 H1257 0.930 . S
C1269 C1270 1.399 . S
C1269 C1274 1.399 . S
C1270 C1269 1.399 . S
C1270 C1271 1.376 . S
C1271 H1258 0.930 . S
C1271 C1270 1.376 . S
C1271 C1272 1.388 . S
C1272 H1259 0.930 . S
C1272 C1271 1.388 . S
C1272 C1273 1.390 . S
C1273 C1272 1.390 . S
C1273 C1274 1.394 . S
C1273 C1279 1.465 . S
C1274 C1269 1.399 . S
C1274 C1273 1.394 . S
C1274 C1275 1.516 . S
C1275 C1274 1.516 . S
C1275 C1276 1.502 . S
C1275 C1277 1.561 . S
C1275 C1278 1.526 . S
C1276 H1260 0.959 . S
C1276 H1261 0.959 . S
C1276 H1262 0.961 . S
C1276 C1275 1.502 . S
C1277 H1263 0.960 . S
C1277 H1264 0.961 . S
C1277 H1265 0.959 . S
C1277 C1275 1.561 . S
C1278 C1275 1.526 . S
C1278 C1279 1.396 . S
C1278 C1283 1.390 . S
C1279 C1273 1.465 . S
C1279 C1278 1.396 . S
C1279 C1280 1.399 . S
C1280 H1266 0.929 . S
C1280 C1279 1.399 . S
C1280 C1281 1.385 . S
C1281 H1267 0.931 . S
C1281 C1280 1.385 . S
C1281 C1282 1.389 . S
C1282 C1281 1.389 . S
C1282 C1283 1.387 . S
C1283 H1268 0.930 . S
C1283 C1278 1.390 . S
C1283 C1282 1.387 . S
H1284 C1296 0.930 . S
H1285 C1298 0.930 1_565 S
H1286 C1299 0.930 . S
H1287 C1303 0.959 . S
H1288 C1303 0.959 . S
H1289 C1303 0.961 . S
H1290 C1304 0.960 . S
H1291 C1304 0.961 . S
H1292 C1304 0.959 . S
H1293 C1307 0.929 . S
H1294 C1308 0.931 . S
H1295 C1310 0.930 . S
C1296 H1284 0.930 . S
C1296 C1297 1.399 . S
C1296 C1301 1.399 . S
C1297 C1296 1.399 . S
C1297 C1298 1.376 . S
C1298 H1285 0.930 1_545 S
C1298 C1297 1.376 . S
C1298 C1299 1.388 . S
C1299 H1286 0.930 . S
C1299 C1298 1.388 . S
C1299 C1300 1.390 . S
C1300 C1299 1.390 . S
C1300 C1301 1.394 . S
C1300 C1306 1.465 . S
C1301 C1296 1.399 . S
C1301 C1300 1.394 . S
C1301 C1302 1.516 . S
C1302 C1301 1.516 . S
C1302 C1303 1.502 . S
C1302 C1304 1.561 . S
C1302 C1305 1.526 . S
C1303 H1287 0.959 . S
C1303 H1288 0.959 . S
C1303 H1289 0.961 . S
C1303 C1302 1.502 . S
C1304 H1290 0.960 . S
C1304 H1291 0.961 . S
C1304 H1292 0.959 . S
C1304 C1302 1.561 . S
C1305 C1302 1.526 . S
C1305 C1306 1.396 . S
C1305 C1310 1.390 . S
C1306 C1300 1.465 . S
C1306 C1305 1.396 . S
C1306 C1307 1.399 . S
C1307 H1293 0.929 . S
C1307 C1306 1.399 . S
C1307 C1308 1.385 . S
C1308 H1294 0.931 . S
C1308 C1307 1.385 . S
C1308 C1309 1.389 . S
C1309 C1308 1.389 . S
C1309 C1310 1.387 . S
C1310 H1295 0.930 . S
C1310 C1305 1.390 . S
C1310 C1309 1.387 . S
H1311 C1323 0.930 . S
H1312 C1325 0.930 . S
H1313 C1326 0.930 . S
H1314 C1330 0.959 . S
H1315 C1330 0.959 . S
H1316 C1330 0.961 . S
H1317 C1331 0.960 . S
H1318 C1331 0.961 . S
H1319 C1331 0.959 . S
H1320 C1334 0.929 . S
H1321 C1335 0.931 . S
H1322 C1337 0.930 . S
C1323 H1311 0.930 . S
C1323 C1324 1.399 . S
C1323 C1328 1.399 . S
C1324 C1323 1.399 . S
C1324 C1325 1.376 . S
C1325 H1312 0.930 . S
C1325 C1324 1.376 . S
C1325 C1326 1.388 . S
C1326 H1313 0.930 . S
C1326 C1325 1.388 . S
C1326 C1327 1.390 . S
C1327 C1326 1.390 . S
C1327 C1328 1.394 . S
C1327 C1333 1.465 . S
C1328 C1323 1.399 . S
C1328 C1327 1.394 . S
C1328 C1329 1.516 . S
C1329 C1328 1.516 . S
C1329 C1330 1.502 . S
C1329 C1331 1.561 . S
C1329 C1332 1.526 . S
C1330 H1314 0.959 . S
C1330 H1315 0.959 . S
C1330 H1316 0.961 . S
C1330 C1329 1.502 . S
C1331 H1317 0.960 . S
C1331 H1318 0.961 . S
C1331 H1319 0.959 . S
C1331 C1329 1.561 . S
C1332 C1329 1.526 . S
C1332 C1333 1.396 . S
C1332 C1337 1.390 . S
C1333 C1327 1.465 . S
C1333 C1332 1.396 . S
C1333 C1334 1.399 . S
C1334 H1320 0.929 . S
C1334 C1333 1.399 . S
C1334 C1335 1.385 . S
C1335 H1321 0.931 . S
C1335 C1334 1.385 . S
C1335 C1336 1.389 . S
C1336 C1335 1.389 . S
C1336 C1337 1.387 . S
C1337 H1322 0.930 . S
C1337 C1332 1.390 . S
C1337 C1336 1.387 . S
H1338 C1350 0.930 . S
H1339 C1352 0.930 . S
H1340 C1353 0.930 . S
H1341 C1357 0.959 . S
H1342 C1357 0.959 . S
H1343 C1357 0.961 . S
H1344 C1358 0.960 . S
H1345 C1358 0.961 . S
H1346 C1358 0.959 . S
H1347 C1361 0.929 . S
H1348 C1362 0.931 . S
H1349 C1364 0.930 . S
C1350 H1338 0.930 . S
C1350 C1351 1.399 1_545 S
C1350 C1355 1.399 . S
C1351 C1350 1.399 1_565 S
C1351 C1352 1.376 . S
C1352 H1339 0.930 . S
C1352 C1351 1.376 . S
C1352 C1353 1.388 1_565 S
C1353 H1340 0.930 . S
C1353 C1352 1.388 1_545 S
C1353 C1354 1.390 . S
C1354 C1353 1.390 . S
C1354 C1355 1.394 . S
C1354 C1360 1.465 . S
C1355 C1350 1.399 . S
C1355 C1354 1.394 . S
C1355 C1356 1.516 . S
C1356 C1355 1.516 . S
C1356 C1357 1.502 . S
C1356 C1358 1.561 . S
C1356 C1359 1.526 . S
C1357 H1341 0.959 . S
C1357 H1342 0.959 . S
C1357 H1343 0.961 . S
C1357 C1356 1.502 . S
C1358 H1344 0.960 . S
C1358 H1345 0.961 . S
C1358 H1346 0.959 . S
C1358 C1356 1.561 . S
C1359 C1356 1.526 . S
C1359 C1360 1.396 . S
C1359 C1364 1.390 . S
C1360 C1354 1.465 . S
C1360 C1359 1.396 . S
C1360 C1361 1.399 . S
C1361 H1347 0.929 . S
C1361 C1360 1.399 . S
C1361 C1362 1.385 . S
C1362 H1348 0.931 . S
C1362 C1361 1.385 . S
C1362 C1363 1.389 . S
C1363 C1362 1.389 . S
C1363 C1364 1.387 . S
C1364 H1349 0.930 . S
C1364 C1359 1.390 . S
C1364 C1363 1.387 . S
H1365 C1377 0.930 . S
H1366 C1379 0.930 . S
H1367 C1380 0.930 . S
H1368 C1384 0.959 . S
H1369 C1384 0.959 . S
H1370 C1384 0.961 . S
H1371 C1385 0.960 . S
H1372 C1385 0.961 . S
H1373 C1385 0.959 . S
H1374 C1388 0.929 . S
H1375 C1389 0.931 . S
H1376 C1391 0.930 . S
C1377 H1365 0.930 . S
C1377 C1378 1.399 . S
C1377 C1382 1.399 . S
C1378 C1377 1.399 . S
C1378 C1379 1.376 . S
C1379 H1366 0.930 . S
C1379 C1378 1.376 . S
C1379 C1380 1.388 . S
C1380 H1367 0.930 . S
C1380 C1379 1.388 . S
C1380 C1381 1.390 . S
C1381 C1380 1.390 . S
C1381 C1382 1.394 . S
C1381 C1387 1.465 . S
C1382 C1377 1.399 . S
C1382 C1381 1.394 . S
C1382 C1383 1.516 . S
C1383 C1382 1.516 . S
C1383 C1384 1.502 . S
C1383 C1385 1.561 . S
C1383 C1386 1.526 . S
C1384 H1368 0.959 . S
C1384 H1369 0.959 . S
C1384 H1370 0.961 . S
C1384 C1383 1.502 . S
C1385 H1371 0.960 . S
C1385 H1372 0.961 . S
C1385 H1373 0.959 . S
C1385 C1383 1.561 . S
C1386 C1383 1.526 . S
C1386 C1387 1.396 . S
C1386 C1391 1.390 . S
C1387 C1381 1.465 . S
C1387 C1386 1.396 . S
C1387 C1388 1.399 . S
C1388 H1374 0.929 . S
C1388 C1387 1.399 . S
C1388 C1389 1.385 . S
C1389 H1375 0.931 . S
C1389 C1388 1.385 . S
C1389 C1390 1.389 . S
C1390 C1389 1.389 . S
C1390 C1391 1.387 . S
C1391 H1376 0.930 . S
C1391 C1386 1.390 . S
C1391 C1390 1.387 . S
H1392 C1404 0.930 . S
H1393 C1406 0.930 . S
H1394 C1407 0.930 . S
H1395 C1411 0.959 . S
H1396 C1411 0.959 . S
H1397 C1411 0.961 . S
H1398 C1412 0.960 . S
H1399 C1412 0.961 . S
H1400 C1412 0.959 . S
H1401 C1415 0.929 . S
H1402 C1416 0.931 . S
H1403 C1418 0.930 . S
C1404 H1392 0.930 . S
C1404 C1405 1.399 . S
C1404 C1409 1.399 . S
C1405 C1404 1.399 . S
C1405 C1406 1.376 . S
C1406 H1393 0.930 . S
C1406 C1405 1.376 . S
C1406 C1407 1.388 . S
C1407 H1394 0.930 . S
C1407 C1406 1.388 . S
C1407 C1408 1.390 . S
C1408 C1407 1.390 . S
C1408 C1409 1.394 . S
C1408 C1414 1.465 . S
C1409 C1404 1.399 . S
C1409 C1408 1.394 . S
C1409 C1410 1.516 . S
C1410 C1409 1.516 . S
C1410 C1411 1.502 . S
C1410 C1412 1.561 . S
C1410 C1413 1.526 . S
C1411 H1395 0.959 . S
C1411 H1396 0.959 . S
C1411 H1397 0.961 . S
C1411 C1410 1.502 . S
C1412 H1398 0.960 . S
C1412 H1399 0.961 . S
C1412 H1400 0.959 . S
C1412 C1410 1.561 . S
C1413 C1410 1.526 . S
C1413 C1414 1.396 . S
C1413 C1418 1.390 . S
C1414 C1408 1.465 . S
C1414 C1413 1.396 . S
C1414 C1415 1.399 . S
C1415 H1401 0.929 . S
C1415 C1414 1.399 . S
C1415 C1416 1.385 . S
C1416 H1402 0.931 . S
C1416 C1415 1.385 . S
C1416 C1417 1.389 . S
C1417 C1416 1.389 . S
C1417 C1418 1.387 . S
C1418 H1403 0.930 . S
C1418 C1413 1.390 . S
C1418 C1417 1.387 . S
H1419 C1431 0.930 . S
H1420 C1433 0.930 . S
H1421 C1434 0.930 . S
H1422 C1438 0.959 . S
H1423 C1438 0.957 1_565 S
H1424 C1438 0.961 . S
H1425 C1439 0.960 . S
H1426 C1439 0.961 . S
H1427 C1439 0.959 . S
H1428 C1442 0.929 . S
H1429 C1443 0.931 . S
H1430 C1445 0.930 . S
C1431 H1419 0.930 . S
C1431 C1432 1.399 . S
C1431 C1436 1.399 . S
C1432 C1431 1.399 . S
C1432 C1433 1.376 . S
C1433 H1420 0.930 . S
C1433 C1432 1.376 . S
C1433 C1434 1.388 . S
C1434 H1421 0.930 . S
C1434 C1433 1.388 . S
C1434 C1435 1.390 . S
C1435 C1434 1.390 . S
C1435 C1436 1.394 . S
C1435 C1441 1.465 . S
C1436 C1431 1.399 . S
C1436 C1435 1.394 . S
C1436 C1437 1.516 . S
C1437 C1436 1.516 . S
C1437 C1438 1.502 . S
C1437 C1439 1.561 . S
C1437 C1440 1.526 . S
C1438 H1422 0.959 . S
C1438 H1423 0.957 1_545 S
C1438 H1424 0.961 . S
C1438 C1437 1.502 . S
C1439 H1425 0.960 . S
C1439 H1426 0.961 . S
C1439 H1427 0.959 . S
C1439 C1437 1.561 . S
C1440 C1437 1.526 . S
C1440 C1441 1.396 . S
C1440 C1445 1.390 . S
C1441 C1435 1.465 . S
C1441 C1440 1.396 . S
C1441 C1442 1.399 . S
C1442 H1428 0.929 . S
C1442 C1441 1.399 . S
C1442 C1443 1.385 . S
C1443 H1429 0.931 . S
C1443 C1442 1.385 . S
C1443 C1444 1.389 . S
C1444 C1443 1.389 . S
C1444 C1445 1.387 . S
C1445 H1430 0.930 . S
C1445 C1440 1.390 . S
C1445 C1444 1.387 . S
H1446 C1458 0.930 . S
H1447 C1460 0.930 . S
H1448 C1461 0.930 . S
H1449 C1465 0.959 . S
H1450 C1465 0.959 . S
H1451 C1465 0.961 . S
H1452 C1466 0.960 . S
H1453 C1466 0.961 . S
H1454 C1466 0.959 . S
H1455 C1469 0.929 . S
H1456 C1470 0.931 . S
H1457 C1472 0.930 . S
C1458 H1446 0.930 . S
C1458 C1459 1.399 . S
C1458 C1463 1.399 . S
C1459 C1458 1.399 . S
C1459 C1460 1.376 . S
C1460 H1447 0.930 . S
C1460 C1459 1.376 . S
C1460 C1461 1.388 . S
C1461 H1448 0.930 . S
C1461 C1460 1.388 . S
C1461 C1462 1.390 . S
C1462 C1461 1.390 . S
C1462 C1463 1.394 . S
C1462 C1468 1.465 . S
C1463 C1458 1.399 . S
C1463 C1462 1.394 . S
C1463 C1464 1.516 . S
C1464 C1463 1.516 . S
C1464 C1465 1.502 . S
C1464 C1466 1.561 . S
C1464 C1467 1.526 . S
C1465 H1449 0.959 . S
C1465 H1450 0.959 . S
C1465 H1451 0.961 . S
C1465 C1464 1.502 . S
C1466 H1452 0.960 . S
C1466 H1453 0.961 . S
C1466 H1454 0.959 . S
C1466 C1464 1.561 . S
C1467 C1464 1.526 . S
C1467 C1468 1.396 . S
C1467 C1472 1.390 . S
C1468 C1462 1.465 . S
C1468 C1467 1.396 . S
C1468 C1469 1.399 . S
C1469 H1455 0.929 . S
C1469 C1468 1.399 . S
C1469 C1470 1.385 . S
C1470 H1456 0.931 . S
C1470 C1469 1.385 . S
C1470 C1471 1.389 . S
C1471 C1470 1.389 . S
C1471 C1472 1.387 . S
C1472 H1457 0.930 . S
C1472 C1467 1.390 . S
C1472 C1471 1.387 . S
H1473 C1485 0.930 . S
H1474 C1487 0.930 . S
H1475 C1488 0.930 . S
H1476 C1492 0.959 . S
H1477 C1492 0.959 . S
H1478 C1492 0.961 . S
H1479 C1493 0.960 . S
H1480 C1493 0.961 . S
H1481 C1493 0.959 . S
H1482 C1496 0.929 . S
H1483 C1497 0.931 . S
H1484 C1499 0.930 . S
C1485 H1473 0.930 . S
C1485 C1486 1.399 . S
C1485 C1490 1.399 . S
C1486 C1485 1.399 . S
C1486 C1487 1.376 . S
C1487 H1474 0.930 . S
C1487 C1486 1.376 . S
C1487 C1488 1.388 . S
C1488 H1475 0.930 . S
C1488 C1487 1.388 . S
C1488 C1489 1.390 . S
C1489 C1488 1.390 . S
C1489 C1490 1.394 . S
C1489 C1495 1.465 . S
C1490 C1485 1.399 . S
C1490 C1489 1.394 . S
C1490 C1491 1.516 . S
C1491 C1490 1.516 . S
C1491 C1492 1.502 . S
C1491 C1493 1.561 . S
C1491 C1494 1.526 . S
C1492 H1476 0.959 . S
C1492 H1477 0.959 . S
C1492 H1478 0.961 . S
C1492 C1491 1.502 . S
C1493 H1479 0.960 . S
C1493 H1480 0.961 . S
C1493 H1481 0.959 . S
C1493 C1491 1.561 . S
C1494 C1491 1.526 . S
C1494 C1495 1.396 . S
C1494 C1499 1.390 . S
C1495 C1489 1.465 . S
C1495 C1494 1.396 . S
C1495 C1496 1.399 . S
C1496 H1482 0.929 . S
C1496 C1495 1.399 . S
C1496 C1497 1.385 . S
C1497 H1483 0.931 . S
C1497 C1496 1.385 . S
C1497 C1498 1.389 . S
C1498 C1497 1.389 . S
C1498 C1499 1.387 . S
C1499 H1484 0.930 . S
C1499 C1494 1.390 . S
C1499 C1498 1.387 . S
H1500 C1512 0.930 . S
H1501 C1514 0.930 . S
H1502 C1515 0.930 . S
H1503 C1519 0.959 . S
H1504 C1519 0.959 . S
H1505 C1519 0.961 . S
H1506 C1520 0.960 . S
H1507 C1520 0.961 . S
H1508 C1520 0.959 . S
H1509 C1523 0.929 . S
H1510 C1524 0.931 . S
H1511 C1526 0.930 . S
C1512 H1500 0.930 . S
C1512 C1513 1.399 . S
C1512 C1517 1.399 . S
C1513 C1512 1.399 . S
C1513 C1514 1.376 . S
C1514 H1501 0.930 . S
C1514 C1513 1.376 . S
C1514 C1515 1.388 . S
C1515 H1502 0.930 . S
C1515 C1514 1.388 . S
C1515 C1516 1.390 . S
C1516 C1515 1.390 . S
C1516 C1517 1.394 . S
C1516 C1522 1.465 . S
C1517 C1512 1.399 . S
C1517 C1516 1.394 . S
C1517 C1518 1.516 . S
C1518 C1517 1.516 . S
C1518 C1519 1.502 . S
C1518 C1520 1.561 . S
C1518 C1521 1.526 . S
C1519 H1503 0.959 . S
C1519 H1504 0.959 . S
C1519 H1505 0.961 . S
C1519 C1518 1.502 . S
C1520 H1506 0.960 . S
C1520 H1507 0.961 . S
C1520 H1508 0.959 . S
C1520 C1518 1.561 . S
C1521 C1518 1.526 . S
C1521 C1522 1.396 . S
C1521 C1526 1.390 . S
C1522 C1516 1.465 . S
C1522 C1521 1.396 . S
C1522 C1523 1.399 . S
C1523 H1509 0.929 . S
C1523 C1522 1.399 . S
C1523 C1524 1.385 . S
C1524 H1510 0.931 . S
C1524 C1523 1.385 . S
C1524 C1525 1.389 . S
C1525 C1524 1.389 . S
C1525 C1526 1.387 . S
C1526 H1511 0.930 . S
C1526 C1521 1.390 . S
C1526 C1525 1.387 . S
H1527 C1539 0.930 . S
H1528 C1541 0.930 . S
H1529 C1542 0.930 . S
H1530 C1546 0.959 . S
H1531 C1546 0.959 . S
H1532 C1546 0.961 . S
H1533 C1547 0.960 . S
H1534 C1547 0.961 . S
H1535 C1547 0.959 . S
H1536 C1550 0.929 . S
H1537 C1551 0.931 . S
H1538 C1553 0.930 . S
C1539 H1527 0.930 . S
C1539 C1540 1.399 . S
C1539 C1544 1.399 1_455 S
C1540 C1539 1.399 . S
C1540 C1541 1.376 . S
C1541 H1528 0.930 . S
C1541 C1540 1.376 . S
C1541 C1542 1.388 . S
C1542 H1529 0.930 . S
C1542 C1541 1.388 . S
C1542 C1543 1.390 . S
C1543 C1542 1.390 . S
C1543 C1544 1.394 1_455 S
C1543 C1549 1.465 1_455 S
C1544 C1539 1.399 1_655 S
C1544 C1543 1.394 1_655 S
C1544 C1545 1.516 . S
C1545 C1544 1.516 . S
C1545 C1546 1.502 . S
C1545 C1547 1.561 . S
C1545 C1548 1.526 . S
C1546 H1530 0.959 . S
C1546 H1531 0.959 . S
C1546 H1532 0.961 . S
C1546 C1545 1.502 . S
C1547 H1533 0.960 . S
C1547 H1534 0.961 . S
C1547 H1535 0.959 . S
C1547 C1545 1.561 . S
C1548 C1545 1.526 . S
C1548 C1549 1.396 . S
C1548 C1553 1.390 . S
C1549 C1543 1.465 1_655 S
C1549 C1548 1.396 . S
C1549 C1550 1.399 . S
C1550 H1536 0.929 . S
C1550 C1549 1.399 . S
C1550 C1551 1.385 . S
C1551 H1537 0.931 . S
C1551 C1550 1.385 . S
C1551 C1552 1.389 . S
C1552 C1551 1.389 . S
C1552 C1553 1.387 . S
C1553 H1538 0.930 . S
C1553 C1548 1.390 . S
C1553 C1552 1.387 . S
H1554 C1566 0.930 . S
H1555 C1568 0.930 . S
H1556 C1569 0.930 . S
H1557 C1573 0.959 . S
H1558 C1573 0.959 . S
H1559 C1573 0.961 . S
H1560 C1574 0.960 . S
H1561 C1574 0.961 . S
H1562 C1574 0.959 . S
H1563 C1577 0.929 . S
H1564 C1578 0.931 . S
H1565 C1580 0.930 . S
C1566 H1554 0.930 . S
C1566 C1567 1.399 . S
C1566 C1571 1.399 . S
C1567 C1566 1.399 . S
C1567 C1568 1.376 . S
C1568 H1555 0.930 . S
C1568 C1567 1.376 . S
C1568 C1569 1.388 . S
C1569 H1556 0.930 . S
C1569 C1568 1.388 . S
C1569 C1570 1.390 . S
C1570 C1569 1.390 . S
C1570 C1571 1.394 . S
C1570 C1576 1.465 . S
C1571 C1566 1.399 . S
C1571 C1570 1.394 . S
C1571 C1572 1.516 . S
C1572 C1571 1.516 . S
C1572 C1573 1.502 . S
C1572 C1574 1.561 . S
C1572 C1575 1.526 . S
C1573 H1557 0.959 . S
C1573 H1558 0.959 . S
C1573 H1559 0.961 . S
C1573 C1572 1.502 . S
C1574 H1560 0.960 . S
C1574 H1561 0.961 . S
C1574 H1562 0.959 . S
C1574 C1572 1.561 . S
C1575 C1572 1.526 . S
C1575 C1576 1.396 . S
C1575 C1580 1.390 . S
C1576 C1570 1.465 . S
C1576 C1575 1.396 . S
C1576 C1577 1.399 . S
C1577 H1563 0.929 . S
C1577 C1576 1.399 . S
C1577 C1578 1.385 . S
C1578 H1564 0.931 . S
C1578 C1577 1.385 . S
C1578 C1579 1.389 . S
C1579 C1578 1.389 . S
C1579 C1580 1.387 . S
C1580 H1565 0.930 . S
C1580 C1575 1.390 . S
C1580 C1579 1.387 . S
H1581 C1593 0.930 . S
H1582 C1595 0.930 . S
H1583 C1596 0.930 . S
H1584 C1600 0.959 . S
H1585 C1600 0.959 . S
H1586 C1600 0.961 . S
H1587 C1601 0.960 . S
H1588 C1601 0.961 . S
H1589 C1601 0.959 . S
H1590 C1604 0.929 . S
H1591 C1605 0.931 . S
H1592 C1607 0.930 . S
C1593 H1581 0.930 . S
C1593 C1594 1.399 . S
C1593 C1598 1.399 . S
C1594 C1593 1.399 . S
C1594 C1595 1.376 . S
C1595 H1582 0.930 . S
C1595 C1594 1.376 . S
C1595 C1596 1.388 . S
C1596 H1583 0.930 . S
C1596 C1595 1.388 . S
C1596 C1597 1.390 . S
C1597 C1596 1.390 . S
C1597 C1598 1.394 . S
C1597 C1603 1.465 1_655 S
C1598 C1593 1.399 . S
C1598 C1597 1.394 . S
C1598 C1599 1.516 1_655 S
C1599 C1598 1.516 1_455 S
C1599 C1600 1.502 . S
C1599 C1601 1.561 . S
C1599 C1602 1.526 . S
C1600 H1584 0.959 . S
C1600 H1585 0.959 . S
C1600 H1586 0.961 . S
C1600 C1599 1.502 . S
C1601 H1587 0.960 . S
C1601 H1588 0.961 . S
C1601 H1589 0.959 . S
C1601 C1599 1.561 . S
C1602 C1599 1.526 . S
C1602 C1603 1.396 . S
C1602 C1607 1.390 . S
C1603 C1597 1.465 1_455 S
C1603 C1602 1.396 . S
C1603 C1604 1.399 . S
C1604 H1590 0.929 . S
C1604 C1603 1.399 . S
C1604 C1605 1.385 . S
C1605 H1591 0.931 . S
C1605 C1604 1.385 . S
C1605 C1606 1.389 . S
C1606 C1605 1.389 . S
C1606 C1607 1.387 . S
C1607 H1592 0.930 . S
C1607 C1602 1.390 . S
C1607 C1606 1.387 . S
H1608 C1620 0.930 . S
H1609 C1622 0.930 . S
H1610 C1623 0.930 . S
H1611 C1627 0.959 . S
H1612 C1627 0.959 . S
H1613 C1627 0.961 . S
H1614 C1628 0.960 . S
H1615 C1628 0.961 . S
H1616 C1628 0.959 . S
H1617 C1631 0.929 . S
H1618 C1632 0.931 . S
H1619 C1634 0.930 . S
C1620 H1608 0.930 . S
C1620 C1621 1.399 . S
C1620 C1625 1.399 . S
C1621 C1620 1.399 . S
C1621 C1622 1.376 . S
C1622 H1609 0.930 . S
C1622 C1621 1.376 . S
C1622 C1623 1.388 . S
C1623 H1610 0.930 . S
C1623 C1622 1.388 . S
C1623 C1624 1.390 . S
C1624 C1623 1.390 . S
C1624 C1625 1.394 . S
C1624 C1630 1.465 . S
C1625 C1620 1.399 . S
C1625 C1624 1.394 . S
C1625 C1626 1.516 . S
C1626 C1625 1.516 . S
C1626 C1627 1.502 . S
C1626 C1628 1.561 . S
C1626 C1629 1.526 . S
C1627 H1611 0.959 . S
C1627 H1612 0.959 . S
C1627 H1613 0.961 . S
C1627 C1626 1.502 . S
C1628 H1614 0.960 . S
C1628 H1615 0.961 . S
C1628 H1616 0.959 . S
C1628 C1626 1.561 . S
C1629 C1626 1.526 . S
C1629 C1630 1.396 . S
C1629 C1634 1.390 . S
C1630 C1624 1.465 . S
C1630 C1629 1.396 . S
C1630 C1631 1.399 . S
C1631 H1617 0.929 . S
C1631 C1630 1.399 . S
C1631 C1632 1.385 . S
C1632 H1618 0.931 . S
C1632 C1631 1.385 . S
C1632 C1633 1.389 . S
C1633 C1632 1.389 . S
C1633 C1634 1.387 . S
C1634 H1619 0.930 . S
C1634 C1629 1.390 . S
C1634 C1633 1.387 . S
H1635 C1647 0.930 . S
H1636 C1649 0.930 . S
H1637 C1650 0.930 . S
H1638 C1654 0.959 . S
H1639 C1654 0.959 . S
H1640 C1654 0.961 . S
H1641 C1655 0.960 . S
H1642 C1655 0.961 . S
H1643 C1655 0.959 . S
H1644 C1658 0.929 . S
H1645 C1659 0.931 . S
H1646 C1661 0.930 . S
C1647 H1635 0.930 . S
C1647 C1648 1.399 1_556 S
C1647 C1652 1.399 . S
C1648 C1647 1.399 1_554 S
C1648 C1649 1.376 . S
C1649 H1636 0.930 . S
C1649 C1648 1.376 . S
C1649 C1650 1.388 . S
C1650 H1637 0.930 . S
C1650 C1649 1.388 . S
C1650 C1651 1.390 1_554 S
C1651 C1650 1.390 1_556 S
C1651 C1652 1.394 . S
C1651 C1657 1.465 . S
C1652 C1647 1.399 . S
C1652 C1651 1.394 . S
C1652 C1653 1.516 . S
C1653 C1652 1.516 . S
C1653 C1654 1.502 . S
C1653 C1655 1.561 . S
C1653 C1656 1.526 . S
C1654 H1638 0.959 . S
C1654 H1639 0.959 . S
C1654 H1640 0.961 . S
C1654 C1653 1.502 . S
C1655 H1641 0.960 . S
C1655 H1642 0.961 . S
C1655 H1643 0.959 . S
C1655 C1653 1.561 . S
C1656 C1653 1.526 . S
C1656 C1657 1.396 . S
C1656 C1661 1.390 . S
C1657 C1651 1.465 . S
C1657 C1656 1.396 . S
C1657 C1658 1.399 . S
C1658 H1644 0.929 . S
C1658 C1657 1.399 . S
C1658 C1659 1.385 . S
C1659 H1645 0.931 . S
C1659 C1658 1.385 . S
C1659 C1660 1.389 . S
C1660 C1659 1.389 . S
C1660 C1661 1.387 . S
C1661 H1646 0.930 . S
C1661 C1656 1.390 . S
C1661 C1660 1.387 . S
H1662 C1674 0.930 . S
H1663 C1676 0.930 . S
H1664 C1677 0.930 . S
H1665 C1681 0.959 . S
H1666 C1681 0.959 . S
H1667 C1681 0.961 . S
H1668 C1682 0.960 . S
H1669 C1682 0.961 . S
H1670 C1682 0.959 . S
H1671 C1685 0.929 . S
H1672 C1686 0.931 . S
H1673 C1688 0.930 . S
C1674 H1662 0.930 . S
C1674 C1675 1.399 . S
C1674 C1679 1.399 . S
C1675 C1674 1.399 . S
C1675 C1676 1.376 . S
C1676 H1663 0.930 . S
C1676 C1675 1.376 . S
C1676 C1677 1.388 . S
C1677 H1664 0.930 . S
C1677 C1676 1.388 . S
C1677 C1678 1.390 . S
C1678 C1677 1.390 . S
C1678 C1679 1.394 . S
C1678 C1684 1.465 . S
C1679 C1674 1.399 . S
C1679 C1678 1.394 . S
C1679 C1680 1.516 . S
C1680 C1679 1.516 . S
C1680 C1681 1.502 . S
C1680 C1682 1.561 . S
C1680 C1683 1.526 . S
C1681 H1665 0.959 . S
C1681 H1666 0.959 . S
C1681 H1667 0.961 . S
C1681 C1680 1.502 . S
C1682 H1668 0.960 . S
C1682 H1669 0.961 . S
C1682 H1670 0.959 . S
C1682 C1680 1.561 . S
C1683 C1680 1.526 . S
C1683 C1684 1.396 . S
C1683 C1688 1.390 . S
C1684 C1678 1.465 . S
C1684 C1683 1.396 . S
C1684 C1685 1.399 . S
C1685 H1671 0.929 . S
C1685 C1684 1.399 . S
C1685 C1686 1.385 . S
C1686 H1672 0.931 . S
C1686 C1685 1.385 . S
C1686 C1687 1.389 . S
C1687 C1686 1.389 . S
C1687 C1688 1.387 . S
C1688 H1673 0.930 . S
C1688 C1683 1.390 . S
C1688 C1687 1.387 . S
H1689 C1701 0.930 . S
H1690 C1703 0.930 . S
H1691 C1704 0.930 . S
H1692 C1708 0.959 . S
H1693 C1708 0.959 . S
H1694 C1708 0.961 . S
H1695 C1709 0.960 . S
H1696 C1709 0.961 . S
H1697 C1709 0.959 . S
H1698 C1712 0.929 1_554 S
H1699 C1713 0.931 . S
H1700 C1715 0.930 . S
C1701 H1689 0.930 . S
C1701 C1702 1.399 . S
C1701 C1706 1.399 . S
C1702 C1701 1.399 . S
C1702 C1703 1.376 . S
C1703 H1690 0.930 . S
C1703 C1702 1.376 . S
C1703 C1704 1.388 . S
C1704 H1691 0.930 . S
C1704 C1703 1.388 . S
C1704 C1705 1.390 . S
C1705 C1704 1.390 . S
C1705 C1706 1.394 . S
C1705 C1711 1.465 1_554 S
C1706 C1701 1.399 . S
C1706 C1705 1.394 . S
C1706 C1707 1.516 1_554 S
C1707 C1706 1.516 1_556 S
C1707 C1708 1.502 . S
C1707 C1709 1.561 . S
C1707 C1710 1.526 . S
C1708 H1692 0.959 . S
C1708 H1693 0.959 . S
C1708 H1694 0.961 . S
C1708 C1707 1.502 . S
C1709 H1695 0.960 . S
C1709 H1696 0.961 . S
C1709 H1697 0.959 . S
C1709 C1707 1.561 . S
C1710 C1707 1.526 . S
C1710 C1711 1.396 . S
C1710 C1715 1.390 . S
C1711 C1705 1.465 1_556 S
C1711 C1710 1.396 . S
C1711 C1712 1.399 . S
C1712 H1698 0.929 1_556 S
C1712 C1711 1.399 . S
C1712 C1713 1.385 . S
C1713 H1699 0.931 . S
C1713 C1712 1.385 . S
C1713 C1714 1.389 . S
C1714 C1713 1.389 . S
C1714 C1715 1.387 . S
C1715 H1700 0.930 . S
C1715 C1710 1.390 . S
C1715 C1714 1.387 . S
H1716 C1728 0.930 . S
H1717 C1730 0.930 . S
H1718 C1731 0.930 . S
H1719 C1735 0.959 . S
H1720 C1735 0.959 . S
H1721 C1735 0.961 . S
H1722 C1736 0.960 . S
H1723 C1736 0.961 . S
H1724 C1736 0.959 . S
H1725 C1739 0.929 . S
H1726 C1740 0.931 . S
H1727 C1742 0.930 . S
C1728 H1716 0.930 . S
C1728 C1729 1.399 . S
C1728 C1733 1.399 . S
C1729 C1728 1.399 . S
C1729 C1730 1.376 . S
C1730 H1717 0.930 . S
C1730 C1729 1.376 . S
C1730 C1731 1.388 . S
C1731 H1718 0.930 . S
C1731 C1730 1.388 . S
C1731 C1732 1.390 . S
C1732 C1731 1.390 . S
C1732 C1733 1.394 . S
C1732 C1738 1.465 . S
C1733 C1728 1.399 . S
C1733 C1732 1.394 . S
C1733 C1734 1.516 . S
C1734 C1733 1.516 . S
C1734 C1735 1.502 . S
C1734 C1736 1.561 . S
C1734 C1737 1.526 . S
C1735 H1719 0.959 . S
C1735 H1720 0.959 . S
C1735 H1721 0.961 . S
C1735 C1734 1.502 . S
C1736 H1722 0.960 . S
C1736 H1723 0.961 . S
C1736 H1724 0.959 . S
C1736 C1734 1.561 . S
C1737 C1734 1.526 . S
C1737 C1738 1.396 . S
C1737 C1742 1.390 . S
C1738 C1732 1.465 . S
C1738 C1737 1.396 . S
C1738 C1739 1.399 . S
C1739 H1725 0.929 . S
C1739 C1738 1.399 . S
C1739 C1740 1.385 . S
C1740 H1726 0.931 . S
C1740 C1739 1.385 . S
C1740 C1741 1.389 . S
C1741 C1740 1.389 . S
C1741 C1742 1.387 . S
C1742 H1727 0.930 . S
C1742 C1737 1.390 . S
C1742 C1741 1.387 . S
H1743 C1755 0.930 1_554 S
H1744 C1757 0.930 . S
H1745 C1758 0.930 . S
H1746 C1762 0.959 . S
H1747 C1762 0.959 . S
H1748 C1762 0.961 . S
H1749 C1763 0.960 . S
H1750 C1763 0.961 . S
H1751 C1763 0.959 . S
H1752 C1766 0.929 . S
H1753 C1767 0.931 . S
H1754 C1769 0.930 . S
C1755 H1743 0.930 1_556 S
C1755 C1756 1.399 . S
C1755 C1760 1.399 1_556 S
C1756 C1755 1.399 . S
C1756 C1757 1.376 . S
C1757 H1744 0.930 . S
C1757 C1756 1.376 . S
C1757 C1758 1.388 . S
C1758 H1745 0.930 . S
C1758 C1757 1.388 . S
C1758 C1759 1.390 1_556 S
C1759 C1758 1.390 1_554 S
C1759 C1760 1.394 . S
C1759 C1765 1.465 . S
C1760 C1755 1.399 1_554 S
C1760 C1759 1.394 . S
C1760 C1761 1.516 . S
C1761 C1760 1.516 . S
C1761 C1762 1.502 . S
C1761 C1763 1.561 . S
C1761 C1764 1.526 . S
C1762 H1746 0.959 . S
C1762 H1747 0.959 . S
C1762 H1748 0.961 . S
C1762 C1761 1.502 . S
C1763 H1749 0.960 . S
C1763 H1750 0.961 . S
C1763 H1751 0.959 . S
C1763 C1761 1.561 . S
C1764 C1761 1.526 . S
C1764 C1765 1.396 . S
C1764 C1769 1.390 . S
C1765 C1759 1.465 . S
C1765 C1764 1.396 . S
C1765 C1766 1.399 . S
C1766 H1752 0.929 . S
C1766 C1765 1.399 . S
C1766 C1767 1.385 . S
C1767 H1753 0.931 . S
C1767 C1766 1.385 . S
C1767 C1768 1.389 . S
C1768 C1767 1.389 . S
C1768 C1769 1.387 . S
C1769 H1754 0.930 . S
C1769 C1764 1.390 . S
C1769 C1768 1.387 . S
H1770 C1782 0.930 . S
H1771 C1784 0.930 . S
H1772 C1785 0.930 . S
H1773 C1789 0.959 . S
H1774 C1789 0.959 . S
H1775 C1789 0.961 . S
H1776 C1790 0.960 . S
H1777 C1790 0.961 . S
H1778 C1790 0.959 . S
H1779 C1793 0.929 . S
H1780 C1794 0.931 . S
H1781 C1796 0.930 . S
C1782 H1770 0.930 . S
C1782 C1783 1.399 . S
C1782 C1787 1.399 . S
C1783 C1782 1.399 . S
C1783 C1784 1.376 . S
C1784 H1771 0.930 . S
C1784 C1783 1.376 . S
C1784 C1785 1.388 . S
C1785 H1772 0.930 . S
C1785 C1784 1.388 . S
C1785 C1786 1.390 . S
C1786 C1785 1.390 . S
C1786 C1787 1.394 . S
C1786 C1792 1.465 . S
C1787 C1782 1.399 . S
C1787 C1786 1.394 . S
C1787 C1788 1.516 . S
C1788 C1787 1.516 . S
C1788 C1789 1.502 . S
C1788 C1790 1.561 . S
C1788 C1791 1.526 . S
C1789 H1773 0.959 . S
C1789 H1774 0.959 . S
C1789 H1775 0.961 . S
C1789 C1788 1.502 . S
C1790 H1776 0.960 . S
C1790 H1777 0.961 . S
C1790 H1778 0.959 . S
C1790 C1788 1.561 . S
C1791 C1788 1.526 . S
C1791 C1792 1.396 . S
C1791 C1796 1.390 . S
C1792 C1786 1.465 . S
C1792 C1791 1.396 . S
C1792 C1793 1.399 . S
C1793 H1779 0.929 . S
C1793 C1792 1.399 . S
C1793 C1794 1.385 . S
C1794 H1780 0.931 . S
C1794 C1793 1.385 . S
C1794 C1795 1.389 . S
C1795 C1794 1.389 . S
C1795 C1796 1.387 . S
C1796 H1781 0.930 . S
C1796 C1791 1.390 . S
C1796 C1795 1.387 . S
H1797 C1809 0.920 1_556 S
H1798 C1811 0.930 . S
H1799 C1812 0.930 . S
H1800 C1816 0.959 . S
H1801 C1816 0.959 . S
H1802 C1816 0.961 . S
H1803 C1817 0.960 . S
H1804 C1817 0.961 . S
H1805 C1817 0.959 . S
H1806 C1820 0.929 . S
H1807 C1821 0.931 . S
H1808 C1823 0.930 . S
C1809 H1797 0.920 1_554 S
C1809 C1810 1.399 . S
C1809 C1814 1.399 . S
C1810 C1809 1.399 . S
C1810 C1811 1.376 . S
C1811 H1798 0.930 . S
C1811 C1810 1.376 . S
C1811 C1812 1.388 . S
C1812 H1799 0.930 . S
C1812 C1811 1.388 . S
C1812 C1813 1.390 . S
C1813 C1812 1.390 . S
C1813 C1814 1.394 . S
C1813 C1819 1.465 . S
C1814 C1809 1.399 . S
C1814 C1813 1.394 . S
C1814 C1815 1.516 . S
C1815 C1814 1.516 . S
C1815 C1816 1.502 . S
C1815 C1817 1.561 . S
C1815 C1818 1.526 . S
C1816 H1800 0.959 . S
C1816 H1801 0.959 . S
C1816 H1802 0.961 . S
C1816 C1815 1.502 . S
C1817 H1803 0.960 . S
C1817 H1804 0.961 . S
C1817 H1805 0.959 . S
C1817 C1815 1.561 . S
C1818 C1815 1.526 . S
C1818 C1819 1.396 . S
C1818 C1823 1.390 . S
C1819 C1813 1.465 . S
C1819 C1818 1.396 . S
C1819 C1820 1.399 . S
C1820 H1806 0.929 . S
C1820 C1819 1.399 . S
C1820 C1821 1.385 . S
C1821 H1807 0.931 . S
C1821 C1820 1.385 . S
C1821 C1822 1.389 . S
C1822 C1821 1.389 . S
C1822 C1823 1.387 . S
C1823 H1808 0.930 . S
C1823 C1818 1.390 . S
C1823 C1822 1.387 . S
H1824 C1836 0.930 . S
H1825 C1838 0.930 . S
H1826 C1839 0.930 . S
H1827 C1843 0.959 . S
H1828 C1843 0.959 . S
H1829 C1843 0.961 . S
H1830 C1844 0.960 . S
H1831 C1844 0.961 . S
H1832 C1844 0.959 . S
H1833 C1847 0.929 . S
H1834 C1848 0.931 . S
H1835 C1850 0.930 . S
C1836 H1824 0.930 . S
C1836 C1837 1.399 . S
C1836 C1841 1.399 . S
C1837 C1836 1.399 . S
C1837 C1838 1.376 . S
C1838 H1825 0.930 . S
C1838 C1837 1.376 . S
C1838 C1839 1.388 . S
C1839 H1826 0.930 . S
C1839 C1838 1.388 . S
C1839 C1840 1.390 . S
C1840 C1839 1.390 . S
C1840 C1841 1.394 . S
C1840 C1846 1.465 . S
C1841 C1836 1.399 . S
C1841 C1840 1.394 . S
C1841 C1842 1.516 . S
C1842 C1841 1.516 . S
C1842 C1843 1.502 . S
C1842 C1844 1.561 . S
C1842 C1845 1.526 . S
C1843 H1827 0.959 . S
C1843 H1828 0.959 . S
C1843 H1829 0.961 . S
C1843 C1842 1.502 . S
C1844 H1830 0.960 . S
C1844 H1831 0.961 . S
C1844 H1832 0.959 . S
C1844 C1842 1.561 . S
C1845 C1842 1.526 . S
C1845 C1846 1.396 . S
C1845 C1850 1.390 . S
C1846 C1840 1.465 . S
C1846 C1845 1.396 . S
C1846 C1847 1.399 . S
C1847 H1833 0.929 . S
C1847 C1846 1.399 . S
C1847 C1848 1.385 . S
C1848 H1834 0.931 . S
C1848 C1847 1.385 . S
C1848 C1849 1.389 . S
C1849 C1848 1.389 . S
C1849 C1850 1.387 . S
C1850 H1835 0.930 . S
C1850 C1845 1.390 . S
C1850 C1849 1.387 . S
H1851 C1863 0.930 . S
H1852 C1865 0.930 . S
H1853 C1866 0.930 . S
H1854 C1870 0.959 . S
H1855 C1870 0.959 . S
H1856 C1870 0.961 . S
H1857 C1871 0.960 . S
H1858 C1871 0.961 . S
H1859 C1871 0.959 . S
H1860 C1874 0.929 . S
H1861 C1875 0.931 . S
H1862 C1877 0.930 . S
C1863 H1851 0.930 . S
C1863 C1864 1.399 . S
C1863 C1868 1.399 . S
C1864 C1863 1.399 . S
C1864 C1865 1.376 . S
C1865 H1852 0.930 . S
C1865 C1864 1.376 . S
C1865 C1866 1.388 . S
C1866 H1853 0.930 . S
C1866 C1865 1.388 . S
C1866 C1867 1.390 . S
C1867 C1866 1.390 . S
C1867 C1868 1.394 . S
C1867 C1873 1.465 . S
C1868 C1863 1.399 . S
C1868 C1867 1.394 . S
C1868 C1869 1.516 . S
C1869 C1868 1.516 . S
C1869 C1870 1.502 . S
C1869 C1871 1.561 . S
C1869 C1872 1.526 . S
C1870 H1854 0.959 . S
C1870 H1855 0.959 . S
C1870 H1856 0.961 . S
C1870 C1869 1.502 . S
C1871 H1857 0.960 . S
C1871 H1858 0.961 . S
C1871 H1859 0.959 . S
C1871 C1869 1.561 . S
C1872 C1869 1.526 . S
C1872 C1873 1.396 . S
C1872 C1877 1.390 . S
C1873 C1867 1.465 . S
C1873 C1872 1.396 . S
C1873 C1874 1.399 . S
C1874 H1860 0.929 . S
C1874 C1873 1.399 . S
C1874 C1875 1.385 . S
C1875 H1861 0.931 . S
C1875 C1874 1.385 . S
C1875 C1876 1.389 . S
C1876 C1875 1.389 . S
C1876 C1877 1.387 . S
C1877 H1862 0.930 . S
C1877 C1872 1.390 . S
C1877 C1876 1.387 . S
H1878 C1890 0.930 . S
H1879 C1892 0.930 . S
H1880 C1893 0.930 . S
H1881 C1897 0.959 . S
H1882 C1897 0.959 . S
H1883 C1897 0.961 . S
H1884 C1898 0.960 . S
H1885 C1898 0.961 . S
H1886 C1898 0.959 . S
H1887 C1901 0.929 . S
H1888 C1902 0.931 . S
H1889 C1904 0.930 . S
C1890 H1878 0.930 . S
C1890 C1891 1.399 . S
C1890 C1895 1.399 . S
C1891 C1890 1.399 . S
C1891 C1892 1.376 . S
C1892 H1879 0.930 . S
C1892 C1891 1.376 . S
C1892 C1893 1.388 . S
C1893 H1880 0.930 . S
C1893 C1892 1.388 . S
C1893 C1894 1.390 . S
C1894 C1893 1.390 . S
C1894 C1895 1.394 . S
C1894 C1900 1.465 . S
C1895 C1890 1.399 . S
C1895 C1894 1.394 . S
C1895 C1896 1.516 . S
C1896 C1895 1.516 . S
C1896 C1897 1.502 . S
C1896 C1898 1.561 . S
C1896 C1899 1.526 . S
C1897 H1881 0.959 . S
C1897 H1882 0.959 . S
C1897 H1883 0.961 . S
C1897 C1896 1.502 . S
C1898 H1884 0.960 . S
C1898 H1885 0.961 . S
C1898 H1886 0.959 . S
C1898 C1896 1.561 . S
C1899 C1896 1.526 . S
C1899 C1900 1.396 . S
C1899 C1904 1.390 . S
C1900 C1894 1.465 . S
C1900 C1899 1.396 . S
C1900 C1901 1.399 . S
C1901 H1887 0.929 . S
C1901 C1900 1.399 . S
C1901 C1902 1.385 . S
C1902 H1888 0.931 . S
C1902 C1901 1.385 . S
C1902 C1903 1.389 . S
C1903 C1902 1.389 . S
C1903 C1904 1.387 . S
C1904 H1889 0.930 . S
C1904 C1899 1.390 . S
C1904 C1903 1.387 . S
H1905 C1917 0.930 . S
H1906 C1919 0.930 . S
H1907 C1920 0.930 . S
H1908 C1924 0.959 . S
H1909 C1924 0.959 . S
H1910 C1924 0.961 . S
H1911 C1925 0.960 . S
H1912 C1925 0.961 . S
H1913 C1925 0.959 . S
H1914 C1928 0.929 . S
H1915 C1929 0.931 . S
H1916 C1931 0.930 . S
C1917 H1905 0.930 . S
C1917 C1918 1.399 . S
C1917 C1922 1.399 . S
C1918 C1917 1.399 . S
C1918 C1919 1.376 . S
C1919 H1906 0.930 . S
C1919 C1918 1.376 . S
C1919 C1920 1.388 . S
C1920 H1907 0.930 . S
C1920 C1919 1.388 . S
C1920 C1921 1.390 . S
C1921 C1920 1.390 . S
C1921 C1922 1.394 . S
C1921 C1927 1.465 . S
C1922 C1917 1.399 . S
C1922 C1921 1.394 . S
C1922 C1923 1.516 . S
C1923 C1922 1.516 . S
C1923 C1924 1.502 . S
C1923 C1925 1.561 . S
C1923 C1926 1.526 . S
C1924 H1908 0.959 . S
C1924 H1909 0.959 . S
C1924 H1910 0.961 . S
C1924 C1923 1.502 . S
C1925 H1911 0.960 . S
C1925 H1912 0.961 . S
C1925 H1913 0.959 . S
C1925 C1923 1.561 . S
C1926 C1923 1.526 . S
C1926 C1927 1.396 . S
C1926 C1931 1.390 . S
C1927 C1921 1.465 . S
C1927 C1926 1.396 . S
C1927 C1928 1.399 . S
C1928 H1914 0.929 . S
C1928 C1927 1.399 . S
C1928 C1929 1.385 . S
C1929 H1915 0.931 . S
C1929 C1928 1.385 . S
C1929 C1930 1.389 . S
C1930 C1929 1.389 . S
C1930 C1931 1.387 . S
C1931 H1916 0.930 . S
C1931 C1926 1.390 . S
C1931 C1930 1.387 . S
H1932 C1944 0.930 . S
H1933 C1946 0.930 . S
H1934 C1947 0.930 . S
H1935 C1951 0.959 . S
H1936 C1951 0.959 . S
H1937 C1951 0.961 . S
H1938 C1952 0.960 . S
H1939 C1952 0.961 . S
H1940 C1952 0.959 . S
H1941 C1955 0.929 . S
H1942 C1956 0.931 1_554 S
H1943 C1958 0.930 . S
C1944 H1932 0.930 . S
C1944 C1945 1.399 . S
C1944 C1949 1.399 . S
C1945 C1944 1.399 . S
C1945 C1946 1.376 . S
C1946 H1933 0.930 . S
C1946 C1945 1.376 . S
C1946 C1947 1.388 . S
C1947 H1934 0.930 . S
C1947 C1946 1.388 . S
C1947 C1948 1.390 . S
C1948 C1947 1.390 . S
C1948 C1949 1.394 . S
C1948 C1954 1.465 . S
C1949 C1944 1.399 . S
C1949 C1948 1.394 . S
C1949 C1950 1.516 . S
C1950 C1949 1.516 . S
C1950 C1951 1.502 . S
C1950 C1952 1.561 . S
C1950 C1953 1.526 . S
C1951 H1935 0.959 . S
C1951 H1936 0.959 . S
C1951 H1937 0.961 . S
C1951 C1950 1.502 . S
C1952 H1938 0.960 . S
C1952 H1939 0.961 . S
C1952 H1940 0.959 . S
C1952 C1950 1.561 . S
C1953 C1950 1.526 . S
C1953 C1954 1.396 . S
C1953 C1958 1.390 . S
C1954 C1948 1.465 . S
C1954 C1953 1.396 . S
C1954 C1955 1.399 . S
C1955 H1941 0.929 . S
C1955 C1954 1.399 . S
C1955 C1956 1.385 . S
C1956 H1942 0.931 1_556 S
C1956 C1955 1.385 . S
C1956 C1957 1.389 . S
C1957 C1956 1.389 . S
C1957 C1958 1.387 . S
C1958 H1943 0.930 . S
C1958 C1953 1.390 . S
C1958 C1957 1.387 . S
H1959 C1971 0.930 . S
H1960 C1973 0.930 . S
H1961 C1974 0.930 . S
H1962 C1978 0.959 . S
H1963 C1978 0.959 . S
H1964 C1978 0.961 . S
H1965 C1979 0.960 . S
H1966 C1979 0.961 . S
H1967 C1979 0.959 . S
H1968 C1982 0.929 . S
H1969 C1983 0.931 . S
H1970 C1985 0.930 . S
C1971 H1959 0.930 . S
C1971 C1972 1.399 . S
C1971 C1976 1.399 . S
C1972 C1971 1.399 . S
C1972 C1973 1.376 . S
C1973 H1960 0.930 . S
C1973 C1972 1.376 . S
C1973 C1974 1.388 . S
C1974 H1961 0.930 . S
C1974 C1973 1.388 . S
C1974 C1975 1.390 . S
C1975 C1974 1.390 . S
C1975 C1976 1.394 . S
C1975 C1981 1.465 . S
C1976 C1971 1.399 . S
C1976 C1975 1.394 . S
C1976 C1977 1.516 . S
C1977 C1976 1.516 . S
C1977 C1978 1.502 . S
C1977 C1979 1.561 . S
C1977 C1980 1.526 . S
C1978 H1962 0.959 . S
C1978 H1963 0.959 . S
C1978 H1964 0.961 . S
C1978 C1977 1.502 . S
C1979 H1965 0.960 . S
C1979 H1966 0.961 . S
C1979 H1967 0.959 . S
C1979 C1977 1.561 . S
C1980 C1977 1.526 . S
C1980 C1981 1.396 . S
C1980 C1985 1.390 . S
C1981 C1975 1.465 . S
C1981 C1980 1.396 . S
C1981 C1982 1.399 . S
C1982 H1968 0.929 . S
C1982 C1981 1.399 . S
C1982 C1983 1.385 . S
C1983 H1969 0.931 . S
C1983 C1982 1.385 . S
C1983 C1984 1.389 . S
C1984 C1983 1.389 . S
C1984 C1985 1.387 . S
C1985 H1970 0.930 . S
C1985 C1980 1.390 . S
C1985 C1984 1.387 . S
H1986 C1998 0.930 . S
H1987 C2000 0.930 . S
H1988 C2001 0.930 . S
H1989 C2005 0.959 . S
H1990 C2005 0.959 . S
H1991 C2005 0.961 . S
H1992 C2006 0.960 . S
H1993 C2006 0.961 1_556 S
H1994 C2006 0.959 . S
H1995 C2009 0.929 . S
H1996 C2010 0.931 . S
H1997 C2012 0.930 . S
C1998 H1986 0.930 . S
C1998 C1999 1.399 . S
C1998 C2003 1.399 . S
C1999 C1998 1.399 . S
C1999 C2000 1.376 . S
C2000 H1987 0.930 . S
C2000 C1999 1.376 . S
C2000 C2001 1.388 . S
C2001 H1988 0.930 . S
C2001 C2000 1.388 . S
C2001 C2002 1.390 . S
C2002 C2001 1.390 . S
C2002 C2003 1.394 . S
C2002 C2008 1.465 . S
C2003 C1998 1.399 . S
C2003 C2002 1.394 . S
C2003 C2004 1.516 . S
C2004 C2003 1.516 . S
C2004 C2005 1.502 . S
C2004 C2006 1.561 . S
C2004 C2007 1.526 . S
C2005 H1989 0.959 . S
C2005 H1990 0.959 . S
C2005 H1991 0.961 . S
C2005 C2004 1.502 . S
C2006 H1992 0.960 . S
C2006 H1993 0.961 1_554 S
C2006 H1994 0.959 . S
C2006 C2004 1.561 . S
C2007 C2004 1.526 . S
C2007 C2008 1.396 . S
C2007 C2012 1.390 . S
C2008 C2002 1.465 . S
C2008 C2007 1.396 . S
C2008 C2009 1.399 . S
C2009 H1995 0.929 . S
C2009 C2008 1.399 . S
C2009 C2010 1.385 . S
C2010 H1996 0.931 . S
C2010 C2009 1.385 . S
C2010 C2011 1.389 . S
C2011 C2010 1.389 . S
C2011 C2012 1.387 . S
C2012 H1997 0.930 . S
C2012 C2007 1.390 . S
C2012 C2011 1.387 . S
H2013 C2025 0.930 . S
H2014 C2027 0.930 . S
H2015 C2028 0.930 . S
H2016 C2032 0.959 . S
H2017 C2032 0.959 . S
H2018 C2032 0.961 . S
H2019 C2033 0.960 . S
H2020 C2033 0.961 . S
H2021 C2033 0.959 . S
H2022 C2036 0.929 . S
H2023 C2037 0.931 . S
H2024 C2039 0.930 . S
C2025 H2013 0.930 . S
C2025 C2026 1.399 . S
C2025 C2030 1.399 . S
C2026 C2025 1.399 . S
C2026 C2027 1.376 . S
C2027 H2014 0.930 . S
C2027 C2026 1.376 . S
C2027 C2028 1.388 . S
C2028 H2015 0.930 . S
C2028 C2027 1.388 . S
C2028 C2029 1.390 . S
C2029 C2028 1.390 . S
C2029 C2030 1.394 . S
C2029 C2035 1.465 . S
C2030 C2025 1.399 . S
C2030 C2029 1.394 . S
C2030 C2031 1.516 . S
C2031 C2030 1.516 . S
C2031 C2032 1.502 . S
C2031 C2033 1.561 . S
C2031 C2034 1.526 . S
C2032 H2016 0.959 . S
C2032 H2017 0.959 . S
C2032 H2018 0.961 . S
C2032 C2031 1.502 . S
C2033 H2019 0.960 . S
C2033 H2020 0.961 . S
C2033 H2021 0.959 . S
C2033 C2031 1.561 . S
C2034 C2031 1.526 . S
C2034 C2035 1.396 . S
C2034 C2039 1.390 1_545 S
C2035 C2029 1.465 . S
C2035 C2034 1.396 . S
C2035 C2036 1.399 1_545 S
C2036 H2022 0.929 . S
C2036 C2035 1.399 1_565 S
C2036 C2037 1.385 . S
C2037 H2023 0.931 . S
C2037 C2036 1.385 . S
C2037 C2038 1.389 . S
C2038 C2037 1.389 . S
C2038 C2039 1.387 . S
C2039 H2024 0.930 . S
C2039 C2034 1.390 1_565 S
C2039 C2038 1.387 . S
C769 C584 1.613 1_556 S
C757 C181 1.617 . S
C796 C599 1.748 . S
C784 C247 1.704 . S
C811 C283 1.681 . S
C823 C612 1.696 . S
C850 C626 1.558 . S
C838 C169 1.649 . S
C877 C638 1.619 . S
C865 C361 1.703 . S
C904 C652 1.370 . S
C892 C433 1.384 . S
C919 C421 1.737 . S
C931 C666 1.700 . S
C958 C681 1.532 . S
C946 C355 1.531 . S
C973 C427 1.656 . S
C985 C697 1.663 . S
C1012 C710 1.534 . S
C1000 C325 1.534 . S
C1027 C385 1.601 . S
C1039 C695 1.572 . S
C1066 C708 1.570 . S
C1054 C463 1.583 . S
C1081 C253 1.843 . S
C1093 C724 1.828 . S
C1108 C145 1.630 . S
C1120 C723 1.571 . S
C1135 C205 1.721 . S
C1147 C722 1.689 . S
C1162 C217 1.590 . S
C1174 C725 1.653 . S
C1189 C139 1.707 . S
C1201 C627 1.697 . S
C1216 C535 1.500 . S
C1228 C625 1.448 . S
C1255 C585 1.557 . S
C1243 C565 1.506 . S
C1282 C596 1.764 . S
C1270 C313 1.749 . S
C1297 C175 1.656 . S
C1309 C641 1.617 . S
C1336 C682 1.866 . S
C1324 C397 1.875 . S
C1363 C639 1.554 . S
C1351 C349 1.554 . S
C1390 C667 1.535 . S
C1378 C457 1.546 . S
C1417 C668 1.595 . S
C1405 C505 1.612 . S
C1432 C571 1.754 . S
C1444 C683 1.723 . S
C1459 C319 1.681 . S
C1471 C640 1.696 . S
C1498 C654 1.536 . S
C1486 C493 1.627 . S
C1513 C109 1.706 . S
C1525 C610 1.654 . S
C1552 C624 1.354 . S
C1540 C1 1.362 . S
C1579 C582 1.739 . S
C1567 C61 1.764 . S
C1606 C597 1.535 . S
C1594 C103 1.532 . S
C1621 C67 1.667 . S
C1633 C711 1.656 . S
C1648 C73 1.558 . S
C1660 C696 1.521 . S
C1675 C133 1.596 . S
C1687 C709 1.514 . S
C1702 C31 1.571 . S
C1714 C694 1.559 . S
C1741 C738 1.854 . S
C1729 C289 1.841 . S
C1768 C737 1.579 . S
C1756 C469 1.639 . S
C1795 C736 1.686 . S
C1783 C529 1.720 . S
C1810 C541 1.630 1_554 S
C1822 C739 1.627 . S
C1837 C391 1.707 . S
C1849 C655 1.696 . S
C1876 C653 1.448 . S
C1864 C211 1.500 . S
C1903 C669 1.574 . S
C1891 C241 1.512 . S
C1930 C680 1.721 . S
C1918 C277 1.748 . S
C1945 C499 1.646 . S
C1957 C613 1.645 . S
C1984 C598 1.865 . S
C1972 C37 1.874 . S
C1999 C97 1.549 . S
C2011 C611 1.578 . S
C2038 C583 1.583 . S
C2026 C25 1.587 . S
