# Generated by pormake.
# Topology ssb, (4,4)-cn, num edge types: 1
# Building blocks:
#     Node 0, Type 0, BuildingBlock: MIFKUJ_clean_linker_1, # of connection points: 4
#     Node 1, Type 0, BuildingBlock: MIFKUJ_clean_linker_1, # of connection points: 4
#     Node 2, Type 0, BuildingBlock: MIFKUJ_clean_linker_1, # of connection points: 4
#     Node 3, Type 0, BuildingBlock: MIFKUJ_clean_linker_1, # of connection points: 4
#     Node 4, Type 0, BuildingBlock: MIFKUJ_clean_linker_1, # of connection points: 4
#     Node 5, Type 0, BuildingBlock: MIFKUJ_clean_linker_1, # of connection points: 4
#     Node 6, Type 0, BuildingBlock: MIFKUJ_clean_linker_1, # of connection points: 4
#     Node 7, Type 0, BuildingBlock: MIFKUJ_clean_linker_1, # of connection points: 4
#     Node 8, Type 1, BuildingBlock: KOZSID_clean_sbu_0, # of connection points: 4
#     Node 9, Type 1, BuildingBlock: KOZSID_clean_sbu_0, # of connection points: 4
#     Node 10, Type 1, BuildingBlock: KOZSID_clean_sbu_0, # of connection points: 4
#     Node 11, Type 1, BuildingBlock: KOZSID_clean_sbu_0, # of connection points: 4
#     Node 12, Type 1, BuildingBlock: KOZSID_clean_sbu_0, # of connection points: 4
#     Node 13, Type 1, BuildingBlock: KOZSID_clean_sbu_0, # of connection points: 4
#     Node 14, Type 1, BuildingBlock: KOZSID_clean_sbu_0, # of connection points: 4
#     Node 15, Type 1, BuildingBlock: KOZSID_clean_sbu_0, # of connection points: 4
#     Edge 16, Type (0, 1), BuildingBlock: EZIPEK_clean_linker_0, # of connection points: 2
#     Edge 17, Type (0, 1), BuildingBlock: EZIPEK_clean_linker_0, # of connection points: 2
#     Edge 18, Type (0, 1), BuildingBlock: EZIPEK_clean_linker_0, # of connection points: 2
#     Edge 19, Type (0, 1), BuildingBlock: EZIPEK_clean_linker_0, # of connection points: 2
#     Edge 20, Type (0, 1), BuildingBlock: EZIPEK_clean_linker_0, # of connection points: 2
#     Edge 21, Type (0, 1), BuildingBlock: EZIPEK_clean_linker_0, # of connection points: 2
#     Edge 22, Type (0, 1), BuildingBlock: EZIPEK_clean_linker_0, # of connection points: 2
#     Edge 23, Type (0, 1), BuildingBlock: EZIPEK_clean_linker_0, # of connection points: 2
#     Edge 24, Type (0, 1), BuildingBlock: EZIPEK_clean_linker_0, # of connection points: 2
#     Edge 25, Type (0, 1), BuildingBlock: EZIPEK_clean_linker_0, # of connection points: 2
#     Edge 26, Type (0, 1), BuildingBlock: EZIPEK_clean_linker_0, # of connection points: 2
#     Edge 27, Type (0, 1), BuildingBlock: EZIPEK_clean_linker_0, # of connection points: 2
#     Edge 28, Type (0, 1), BuildingBlock: EZIPEK_clean_linker_0, # of connection points: 2
#     Edge 29, Type (0, 1), BuildingBlock: EZIPEK_clean_linker_0, # of connection points: 2
#     Edge 30, Type (0, 1), BuildingBlock: EZIPEK_clean_linker_0, # of connection points: 2
#     Edge 31, Type (0, 1), BuildingBlock: EZIPEK_clean_linker_0, # of connection points: 2
#     Edge 32, Type (0, 1), BuildingBlock: EZIPEK_clean_linker_0, # of connection points: 2
#     Edge 33, Type (0, 1), BuildingBlock: EZIPEK_clean_linker_0, # of connection points: 2
#     Edge 34, Type (0, 1), BuildingBlock: EZIPEK_clean_linker_0, # of connection points: 2
#     Edge 35, Type (0, 1), BuildingBlock: EZIPEK_clean_linker_0, # of connection points: 2
#     Edge 36, Type (0, 1), BuildingBlock: EZIPEK_clean_linker_0, # of connection points: 2
#     Edge 37, Type (0, 1), BuildingBlock: EZIPEK_clean_linker_0, # of connection points: 2
#     Edge 38, Type (0, 1), BuildingBlock: EZIPEK_clean_linker_0, # of connection points: 2
#     Edge 39, Type (0, 1), BuildingBlock: EZIPEK_clean_linker_0, # of connection points: 2
#     Edge 40, Type (0, 1), BuildingBlock: EZIPEK_clean_linker_0, # of connection points: 2
#     Edge 41, Type (0, 1), BuildingBlock: EZIPEK_clean_linker_0, # of connection points: 2
#     Edge 42, Type (0, 1), BuildingBlock: EZIPEK_clean_linker_0, # of connection points: 2
#     Edge 43, Type (0, 1), BuildingBlock: EZIPEK_clean_linker_0, # of connection points: 2
#     Edge 44, Type (0, 1), BuildingBlock: EZIPEK_clean_linker_0, # of connection points: 2
#     Edge 45, Type (0, 1), BuildingBlock: EZIPEK_clean_linker_0, # of connection points: 2
#     Edge 46, Type (0, 1), BuildingBlock: EZIPEK_clean_linker_0, # of connection points: 2
#     Edge 47, Type (0, 1), BuildingBlock: EZIPEK_clean_linker_0, # of connection points: 2
# Relax obj value: 0.003
# Max RMSD: 0.028
# Mean RMSD: 0.017
data_MOF--net-ssb--node1-KOZSID_clean_sbu_0--node2-MIFKUJ_clean_linker_1--edge1-EZIPEK_clean_linker_0
_symmetry_space_group_name_H-M    P1
_symmetry_Int_Tables_number       1
_symmetry_cell_setting            triclinic
loop_
_symmetry_equiv_pos_as_xyz
'x, y, z'
_cell_length_a     50.348351
_cell_length_b     50.00247
_cell_length_c     37.075904
_cell_angle_alpha  92.795063
_cell_angle_beta   95.272316
_cell_angle_gamma 90.005658
loop_
_atom_site_label
_atom_site_type_symbol
_atom_site_fract_x
_atom_site_fract_y
_atom_site_fract_z
_atom_type_partial_charge
H0 H 0.29532 0.22622 0.20085 0.0
H1 H 0.33421 0.2295 0.16565 0.0
H2 H 0.35687 0.30406 0.22354 0.0
H3 H 0.31812 0.30081 0.2589 0.0
H4 H 0.29211 0.22368 0.27443 0.0
H5 H 0.25842 0.28395 0.17884 0.0
H6 H 0.26043 0.32322 0.14168 0.0
H7 H 0.26962 0.37467 0.23873 0.0
H8 H 0.26657 0.33547 0.2758 0.0
H9 H 0.22147 0.29087 0.34943 0.0
H10 H 0.18141 0.28848 0.38227 0.0
H11 H 0.15481 0.21865 0.31584 0.0
H12 H 0.19538 0.22054 0.2837 0.0
H13 H 0.22435 0.29558 0.27428 0.0
H14 H 0.24164 0.23287 0.36669 0.0
H15 H 0.23759 0.19318 0.40158 0.0
H16 H 0.26565 0.14409 0.31436 0.0
H17 H 0.2667 0.18333 0.27749 0.0
C18 C 0.30365 0.26337 0.23232 0.0
C19 C 0.30868 0.24324 0.20607 0.0
C20 C 0.33076 0.24513 0.18594 0.0
C21 C 0.34828 0.26705 0.19199 0.0
C22 C 0.34349 0.28705 0.21845 0.0
C23 C 0.32136 0.28521 0.23848 0.0
C24 C 0.27988 0.2616 0.25318 0.0
C25 C 0.27686 0.23897 0.27412 0.0
C26 C 0.26078 0.28244 0.25322 0.0
C27 C 0.26232 0.30651 0.23036 0.0
C28 C 0.26079 0.30366 0.19223 0.0
C29 C 0.26195 0.32617 0.17093 0.0
C30 C 0.26519 0.35224 0.1871 0.0
C31 C 0.26701 0.355 0.2253 0.0
C32 C 0.26525 0.33254 0.24655 0.0
C33 C 0.21151 0.25574 0.31437 0.0
C34 C 0.20704 0.27502 0.34196 0.0
C35 C 0.18424 0.27366 0.36067 0.0
C36 C 0.16517 0.25335 0.35157 0.0
C37 C 0.16933 0.23439 0.32339 0.0
C38 C 0.19243 0.23546 0.30513 0.0
C39 C 0.23597 0.25717 0.29502 0.0
C40 C 0.23928 0.27993 0.27454 0.0
C41 C 0.2552 0.2362 0.29552 0.0
C42 C 0.25362 0.2117 0.31828 0.0
C43 C 0.24593 0.21362 0.35405 0.0
C44 C 0.24411 0.19077 0.37458 0.0
C45 C 0.25125 0.1652 0.36098 0.0
C46 C 0.25981 0.16332 0.32578 0.0
C47 C 0.26062 0.18601 0.30469 0.0
H48 H 0.68892 0.25133 0.26062 0.0
H49 H 0.6477 0.25137 0.22052 0.0
H50 H 0.68901 0.28836 0.13894 0.0
H51 H 0.73108 0.28554 0.17737 0.0
H52 H 0.73118 0.22706 0.25964 0.0
H53 H 0.71336 0.32431 0.25544 0.0
H54 H 0.70572 0.3642 0.21942 0.0
H55 H 0.78202 0.35255 0.17695 0.0
H56 H 0.78958 0.31271 0.21241 0.0
H57 H 0.82406 0.22747 0.29919 0.0
H58 H 0.86376 0.22558 0.34253 0.0
H59 H 0.83881 0.2975 0.3986 0.0
H60 H 0.79854 0.29903 0.3559 0.0
H61 H 0.79194 0.30507 0.28536 0.0
H62 H 0.77819 0.19284 0.26329 0.0
H63 H 0.77979 0.1509 0.29546 0.0
H64 H 0.7621 0.19469 0.39351 0.0
H65 H 0.76132 0.23666 0.36166 0.0
C66 C 0.7133 0.26888 0.22256 0.0
C67 C 0.68939 0.25907 0.2339 0.0
C68 C 0.66574 0.25924 0.21111 0.0
C69 C 0.66516 0.27009 0.17685 0.0
C70 C 0.68895 0.28 0.16534 0.0
C71 C 0.71292 0.27875 0.18758 0.0
C72 C 0.73837 0.26801 0.24743 0.0
C73 C 0.74431 0.24427 0.26511 0.0
C74 C 0.75594 0.29019 0.25489 0.0
C75 C 0.75193 0.3155 0.23624 0.0
C76 C 0.7285 0.33051 0.23859 0.0
C77 C 0.72416 0.35317 0.21821 0.0
C78 C 0.74334 0.36107 0.19567 0.0
C79 C 0.76709 0.34663 0.19431 0.0
C80 C 0.77141 0.32404 0.21456 0.0
C81 C 0.80806 0.26322 0.32448 0.0
C82 C 0.82678 0.24258 0.32116 0.0
C83 C 0.84949 0.24154 0.34576 0.0
C84 C 0.85407 0.2613 0.37385 0.0
C85 C 0.83549 0.28198 0.37723 0.0
C86 C 0.81265 0.28292 0.35275 0.0
C87 C 0.78395 0.26448 0.29815 0.0
C88 C 0.77849 0.2881 0.27997 0.0
C89 C 0.76656 0.24239 0.29043 0.0
C90 C 0.76975 0.21766 0.31029 0.0
C91 C 0.77503 0.19337 0.29183 0.0
C92 C 0.77591 0.16958 0.31005 0.0
C93 C 0.77085 0.16985 0.34665 0.0
C94 C 0.766 0.19422 0.36523 0.0
C95 C 0.76562 0.21805 0.34719 0.0
H96 H 0.70239 0.78395 0.20167 0.0
H97 H 0.66104 0.78027 0.16125 0.0
H98 H 0.64511 0.70317 0.20206 0.0
H99 H 0.68627 0.70703 0.24329 0.0
H100 H 0.7108 0.78594 0.27309 0.0
H101 H 0.7279 0.72279 0.17534 0.0
H102 H 0.72573 0.682 0.13592 0.0
H103 H 0.75504 0.63604 0.22642 0.0
H104 H 0.75511 0.67641 0.26666 0.0
H105 H 0.79219 0.7209 0.34427 0.0
H106 H 0.83594 0.72393 0.37934 0.0
H107 H 0.85052 0.79964 0.33369 0.0
H108 H 0.80685 0.79648 0.29796 0.0
H109 H 0.78217 0.71788 0.27277 0.0
H110 H 0.76824 0.78196 0.36991 0.0
H111 H 0.77316 0.82331 0.40806 0.0
H112 H 0.73856 0.86803 0.31919 0.0
H113 H 0.7361 0.82723 0.27983 0.0
C114 C 0.69759 0.74568 0.22536 0.0
C115 C 0.68995 0.76631 0.20219 0.0
C116 C 0.66645 0.7642 0.17904 0.0
C117 C 0.65013 0.74144 0.17866 0.0
C118 C 0.65753 0.72085 0.20197 0.0
C119 C 0.681 0.72304 0.22534 0.0
C120 C 0.72289 0.74814 0.2494 0.0
C121 C 0.72668 0.77131 0.27287 0.0
C122 C 0.74303 0.72817 0.24941 0.0
C123 C 0.74112 0.70309 0.22465 0.0
C124 C 0.73304 0.70394 0.18726 0.0
C125 C 0.73207 0.68054 0.16447 0.0
C126 C 0.74013 0.65565 0.17796 0.0
C127 C 0.7485 0.65478 0.21516 0.0
C128 C 0.74873 0.67803 0.23815 0.0
C129 C 0.79614 0.75856 0.31869 0.0
C130 C 0.80475 0.73819 0.34179 0.0
C131 C 0.82963 0.7399 0.3618 0.0
C132 C 0.84634 0.76198 0.35901 0.0
C133 C 0.8378 0.78248 0.33615 0.0
C134 C 0.8129 0.78072 0.31597 0.0
C135 C 0.77019 0.75576 0.2963 0.0
C136 C 0.76627 0.73251 0.27315 0.0
C137 C 0.75003 0.77569 0.2966 0.0
C138 C 0.7524 0.80098 0.32113 0.0
C139 C 0.76243 0.80063 0.35796 0.0
C140 C 0.76489 0.82436 0.38015 0.0
C141 C 0.75628 0.84912 0.3668 0.0
C142 C 0.74551 0.84941 0.33039 0.0
C143 C 0.74391 0.82587 0.30787 0.0
H144 H 0.2231 0.71692 0.3457 0.0
H145 H 0.18434 0.72357 0.38096 0.0
H146 H 0.15539 0.78539 0.31061 0.0
H147 H 0.19379 0.77857 0.275 0.0
H148 H 0.22685 0.70094 0.27687 0.0
H149 H 0.26157 0.77692 0.35005 0.0
H150 H 0.25985 0.8212 0.38134 0.0
H151 H 0.23467 0.85604 0.27966 0.0
H152 H 0.23734 0.81176 0.24809 0.0
H153 H 0.28405 0.76377 0.18116 0.0
H154 H 0.32174 0.76177 0.14377 0.0
H155 H 0.35521 0.69647 0.20443 0.0
H156 H 0.31795 0.69902 0.2429 0.0
H157 H 0.28398 0.77671 0.24932 0.0
H158 H 0.25874 0.69601 0.1767 0.0
H159 H 0.26167 0.64993 0.15152 0.0
H160 H 0.26981 0.62082 0.2595 0.0
H161 H 0.26739 0.66703 0.28495 0.0
C162 C 0.21159 0.74742 0.30787 0.0
C163 C 0.20844 0.73192 0.33783 0.0
C164 C 0.18642 0.73575 0.35801 0.0
C165 C 0.1671 0.75502 0.3484 0.0
C166 C 0.17017 0.77052 0.31851 0.0
C167 C 0.19216 0.7667 0.29837 0.0
C168 C 0.23474 0.74312 0.28592 0.0
C169 C 0.23964 0.71739 0.27122 0.0
C170 C 0.25129 0.76452 0.27825 0.0
C171 C 0.24954 0.79119 0.29685 0.0
C172 C 0.25571 0.7941 0.33451 0.0
C173 C 0.25476 0.81928 0.35229 0.0
C174 C 0.2472 0.84183 0.33275 0.0
C175 C 0.24066 0.83886 0.29511 0.0
C176 C 0.24218 0.81372 0.27718 0.0
C177 C 0.29791 0.73144 0.21486 0.0
C178 C 0.29941 0.74894 0.1865 0.0
C179 C 0.32087 0.74778 0.16505 0.0
C180 C 0.34129 0.72901 0.17133 0.0
C181 C 0.33963 0.71108 0.19911 0.0
C182 C 0.31825 0.71242 0.22087 0.0
C183 C 0.27594 0.73447 0.23923 0.0
C184 C 0.27129 0.7601 0.2547 0.0
C185 C 0.26006 0.71269 0.24815 0.0
C186 C 0.2632 0.68503 0.23273 0.0
C187 C 0.26163 0.67983 0.19504 0.0
C188 C 0.26314 0.65359 0.18069 0.0
C189 C 0.26604 0.63215 0.20375 0.0
C190 C 0.26767 0.6372 0.2414 0.0
C191 C 0.26625 0.66349 0.25579 0.0
H192 H 0.18839 0.76855 0.74339 0.0
H193 H 0.14572 0.76789 0.70662 0.0
H194 H 0.18517 0.78979 0.61382 0.0
H195 H 0.22844 0.78665 0.64916 0.0
H196 H 0.22546 0.73904 0.74455 0.0
H197 H 0.22125 0.83386 0.7184 0.0
H198 H 0.21793 0.87313 0.68078 0.0
H199 H 0.29077 0.85021 0.63537 0.0
H200 H 0.29388 0.81064 0.67233 0.0
H201 H 0.33311 0.74379 0.74806 0.0
H202 H 0.37379 0.73779 0.789 0.0
H203 H 0.33706 0.78018 0.87545 0.0
H204 H 0.29602 0.78502 0.83497 0.0
H205 H 0.30021 0.80312 0.74194 0.0
H206 H 0.30035 0.70644 0.76678 0.0
H207 H 0.302 0.66779 0.80543 0.0
H208 H 0.23447 0.69857 0.85733 0.0
H209 H 0.23303 0.73748 0.81909 0.0
C210 C 0.212 0.77792 0.69946 0.0
C211 C 0.18813 0.77281 0.71499 0.0
C212 C 0.16363 0.77267 0.69408 0.0
C213 C 0.16212 0.77893 0.65746 0.0
C214 C 0.18579 0.78492 0.64204 0.0
C215 C 0.21052 0.78358 0.66249 0.0
C216 C 0.23816 0.77554 0.72167 0.0
C217 C 0.24152 0.75345 0.74429 0.0
C218 C 0.25966 0.79403 0.72054 0.0
C219 C 0.25768 0.81871 0.69822 0.0
C220 C 0.23647 0.83702 0.70021 0.0
C221 C 0.2346 0.85962 0.67874 0.0
C222 C 0.25403 0.86481 0.65491 0.0
C223 C 0.27543 0.84679 0.65331 0.0
C224 C 0.27726 0.82416 0.67465 0.0
C225 C 0.31162 0.76473 0.78864 0.0
C226 C 0.33387 0.75176 0.77584 0.0
C227 C 0.357 0.74835 0.79913 0.0
C228 C 0.35847 0.75858 0.83526 0.0
C229 C 0.33635 0.77211 0.84772 0.0
C230 C 0.31302 0.77493 0.82468 0.0
C231 C 0.28665 0.76722 0.7647 0.0
C232 C 0.28372 0.78916 0.74199 0.0
C233 C 0.26528 0.74903 0.76611 0.0
C234 C 0.2669 0.72548 0.79025 0.0
C235 C 0.28619 0.70529 0.7869 0.0
C236 C 0.28697 0.68298 0.80879 0.0
C237 C 0.26839 0.6801 0.83453 0.0
C238 C 0.24906 0.70019 0.83781 0.0
C239 C 0.24826 0.72247 0.81591 0.0
H240 H 0.31101 0.24157 0.81006 0.0
H241 H 0.35539 0.24329 0.84248 0.0
H242 H 0.32275 0.27927 0.93675 0.0
H243 H 0.27771 0.27468 0.90587 0.0
H244 H 0.27074 0.21693 0.81229 0.0
H245 H 0.28753 0.31105 0.82876 0.0
H246 H 0.29687 0.35506 0.85972 0.0
H247 H 0.22484 0.3489 0.91342 0.0
H248 H 0.21603 0.30446 0.88382 0.0
H249 H 0.17619 0.21181 0.78452 0.0
H250 H 0.13576 0.20887 0.74189 0.0
H251 H 0.15245 0.28726 0.70581 0.0
H252 H 0.19317 0.28998 0.74734 0.0
H253 H 0.20589 0.29138 0.81508 0.0
H254 H 0.22424 0.17831 0.80032 0.0
H255 H 0.22473 0.14139 0.75394 0.0
H256 H 0.23784 0.19822 0.67338 0.0
H257 H 0.23619 0.23507 0.71932 0.0
C258 C 0.29068 0.25824 0.85517 0.0
C259 C 0.3131 0.24932 0.83797 0.0
C260 C 0.33858 0.25054 0.85634 0.0
C261 C 0.34249 0.26164 0.89193 0.0
C262 C 0.32023 0.27072 0.90923 0.0
C263 C 0.29453 0.2684 0.89137 0.0
C264 C 0.26357 0.25661 0.83493 0.0
C265 C 0.25667 0.23332 0.8133 0.0
C266 C 0.24499 0.27799 0.83516 0.0
C267 C 0.25125 0.30428 0.85437 0.0
C268 C 0.27398 0.31893 0.84767 0.0
C269 C 0.27924 0.34405 0.8651 0.0
C270 C 0.26148 0.35514 0.88869 0.0
C271 C 0.23874 0.3406 0.89527 0.0
C272 C 0.2337 0.31535 0.87833 0.0
C273 C 0.18802 0.25098 0.76885 0.0
C274 C 0.17118 0.2284 0.76748 0.0
C275 C 0.14795 0.22682 0.74355 0.0
C276 C 0.14106 0.24795 0.72101 0.0
C277 C 0.15731 0.27089 0.72331 0.0
C278 C 0.18056 0.2724 0.74699 0.0
C279 C 0.21374 0.25212 0.79226 0.0
C280 C 0.22009 0.27507 0.81471 0.0
C281 C 0.23262 0.23131 0.79108 0.0
C282 C 0.22994 0.20929 0.76301 0.0
C283 C 0.22667 0.18276 0.77251 0.0
C284 C 0.22704 0.16181 0.74619 0.0
C285 C 0.2315 0.16714 0.71036 0.0
C286 C 0.23435 0.19375 0.70086 0.0
C287 C 0.23334 0.21469 0.72695 0.0
H288 H 0.71709 0.22269 0.83694 0.0
H289 H 0.67834 0.22601 0.87275 0.0
H290 H 0.65863 0.30257 0.82906 0.0
H291 H 0.69726 0.2993 0.79308 0.0
H292 H 0.72211 0.22167 0.76471 0.0
H293 H 0.74921 0.27798 0.86942 0.0
H294 H 0.74587 0.31543 0.91412 0.0
H295 H 0.75424 0.37142 0.83121 0.0
H296 H 0.75706 0.33396 0.78608 0.0
H297 H 0.78231 0.27074 0.67975 0.0
H298 H 0.82157 0.26807 0.6454 0.0
H299 H 0.86936 0.2451 0.74151 0.0
H300 H 0.82901 0.24359 0.77399 0.0
H301 H 0.79065 0.29356 0.77716 0.0
H302 H 0.76216 0.23051 0.67115 0.0
H303 H 0.76675 0.19028 0.63264 0.0
H304 H 0.75645 0.14188 0.72341 0.0
H305 H 0.75633 0.18245 0.76337 0.0
C306 C 0.71023 0.26082 0.81247 0.0
C307 C 0.70435 0.2401 0.83482 0.0
C308 C 0.68235 0.24203 0.85534 0.0
C309 C 0.66575 0.26457 0.85358 0.0
C310 C 0.67128 0.28507 0.8308 0.0
C311 C 0.69331 0.28319 0.81038 0.0
C312 C 0.73436 0.25934 0.792 0.0
C313 C 0.73726 0.23723 0.76743 0.0
C314 C 0.75403 0.27988 0.79612 0.0
C315 C 0.75305 0.30288 0.82391 0.0
C316 C 0.7501 0.29825 0.86056 0.0
C317 C 0.74829 0.31967 0.88624 0.0
C318 C 0.74965 0.34633 0.8761 0.0
C319 C 0.75303 0.35107 0.83971 0.0
C320 C 0.75478 0.32963 0.81396 0.0
C321 C 0.80229 0.25552 0.72864 0.0
C322 C 0.80095 0.26375 0.69288 0.0
C323 C 0.82356 0.26283 0.67352 0.0
C324 C 0.84865 0.25606 0.69054 0.0
C325 C 0.85029 0.2498 0.72733 0.0
C326 C 0.82727 0.24899 0.74593 0.0
C327 C 0.77818 0.25613 0.74909 0.0
C328 C 0.77546 0.27802 0.77416 0.0
C329 C 0.75889 0.23504 0.74574 0.0
C330 C 0.76082 0.21015 0.72117 0.0
C331 C 0.76289 0.21152 0.68368 0.0
C332 C 0.76455 0.18823 0.66117 0.0
C333 C 0.76217 0.16261 0.67477 0.0
C334 C 0.75878 0.16116 0.71196 0.0
C335 C 0.75856 0.18449 0.73485 0.0
H336 H 0.78905 0.73406 0.6842 0.0
H337 H 0.82649 0.73868 0.64666 0.0
H338 H 0.85964 0.80209 0.7201 0.0
H339 H 0.8226 0.79725 0.75797 0.0
H340 H 0.78554 0.72106 0.75313 0.0
H341 H 0.7519 0.79358 0.68443 0.0
H342 H 0.75554 0.83527 0.65315 0.0
H343 H 0.78683 0.87566 0.75366 0.0
H344 H 0.7823 0.8339 0.78536 0.0
H345 H 0.73316 0.78327 0.85783 0.0
H346 H 0.69505 0.78455 0.89225 0.0
H347 H 0.65258 0.73153 0.81133 0.0
H348 H 0.69172 0.72949 0.77786 0.0
H349 H 0.73208 0.80085 0.78437 0.0
H350 H 0.75485 0.72407 0.85286 0.0
H351 H 0.75136 0.67967 0.87735 0.0
H352 H 0.73829 0.64416 0.76881 0.0
H353 H 0.74164 0.68871 0.74406 0.0
C354 C 0.8028 0.76546 0.7238 0.0
C355 C 0.80442 0.74887 0.69237 0.0
C356 C 0.82566 0.75158 0.67086 0.0
C357 C 0.84572 0.77081 0.68056 0.0
C358 C 0.84429 0.78724 0.71209 0.0
C359 C 0.82309 0.78451 0.73357 0.0
C360 C 0.77985 0.7632 0.74628 0.0
C361 C 0.77362 0.73842 0.75956 0.0
C362 C 0.76438 0.7857 0.75519 0.0
C363 C 0.76688 0.81089 0.73701 0.0
C364 C 0.75944 0.81144 0.69972 0.0
C365 C 0.7615 0.8351 0.68198 0.0
C366 C 0.77135 0.85837 0.70126 0.0
C367 C 0.77906 0.85781 0.73857 0.0
C368 C 0.77648 0.83418 0.75652 0.0
C369 C 0.7149 0.75748 0.81418 0.0
C370 C 0.71521 0.77264 0.84693 0.0
C371 C 0.69249 0.77425 0.86601 0.0
C372 C 0.66788 0.76259 0.85149 0.0
C373 C 0.66922 0.74436 0.82113 0.0
C374 C 0.6921 0.74236 0.80228 0.0
C375 C 0.73788 0.75874 0.79175 0.0
C376 C 0.74404 0.78344 0.77824 0.0
C377 C 0.75275 0.73592 0.78201 0.0
C378 C 0.74825 0.70961 0.79671 0.0
C379 C 0.75071 0.70684 0.83432 0.0
C380 C 0.7489 0.68161 0.84825 0.0
C381 C 0.74464 0.65892 0.82474 0.0
C382 C 0.74157 0.66162 0.78716 0.0
C383 C 0.74349 0.68689 0.77318 0.0
C384 C 0.04988 0.27529 0.58847 0.0
C385 C 0.06235 0.29901 0.60168 0.0
C386 C 0.05375 0.31829 0.57842 0.0
C387 C 0.03654 0.30536 0.55246 0.0
N388 N 0.0334 0.27917 0.55811 0.0
Co389 Co 0.0108 0.25328 0.52609 0.0
N390 N 0.9912 0.28261 0.50108 0.0
C391 C 0.99881 0.30845 0.50188 0.0
C392 C 0.98097 0.32418 0.4824 0.0
C393 C 0.9609 0.30716 0.46831 0.0
C394 C 0.96776 0.2819 0.47994 0.0
N395 N 0.98877 0.22754 0.49345 0.0
C396 C 0.9658 0.23149 0.47242 0.0
C397 C 0.95718 0.20801 0.45341 0.0
C398 C 0.97552 0.18873 0.46292 0.0
C399 C 0.99425 0.20148 0.48705 0.0
N400 N 0.03026 0.22389 0.55148 0.0
C401 C 0.0306 0.19803 0.53951 0.0
C402 C 0.04642 0.18232 0.56191 0.0
C403 C 0.05705 0.19939 0.58953 0.0
C404 C 0.04714 0.22466 0.58234 0.0
N405 N 0.98393 0.2533 0.56142 0.0
C406 C 0.94178 0.25427 0.6064 0.0
C407 C 0.94827 0.23074 0.58708 0.0
C408 C 0.96987 0.23045 0.56586 0.0
C409 C 0.95755 0.27709 0.60359 0.0
C410 C 0.97793 0.2764 0.58024 0.0
N411 N 0.03731 0.25317 0.4903 0.0
C412 C 0.08328 0.25066 0.47741 0.0
C413 C 0.07595 0.25242 0.44036 0.0
C414 C 0.04879 0.25441 0.42859 0.0
C415 C 0.02981 0.25499 0.45406 0.0
C416 C 0.06369 0.25076 0.50163 0.0
H417 H 0.00911 0.25669 0.44443 0.0
H418 H 0.06973 0.24858 0.52952 0.0
H419 H 0.9747 0.21178 0.55236 0.0
H420 H 0.98841 0.29476 0.57698 0.0
C421 C 0.02045 0.31773 0.52545 0.0
C422 C 0.05665 0.24916 0.6031 0.0
C423 C 0.9527 0.25744 0.46811 0.0
C424 C 0.0142 0.18895 0.50884 0.0
H425 H 0.07668 0.30192 0.62515 0.0
H426 H 0.05904 0.33933 0.58061 0.0
H427 H 0.98193 0.34562 0.47977 0.0
H428 H 0.94338 0.31266 0.45119 0.0
H429 H 0.93954 0.20517 0.4346 0.0
H430 H 0.97469 0.16772 0.45436 0.0
H431 H 0.04972 0.16099 0.5587 0.0
H432 H 0.0711 0.194 0.61184 0.0
H433 H 0.93675 0.21258 0.58847 0.0
H434 H 0.95347 0.29566 0.61829 0.0
H435 H 0.10405 0.24887 0.48755 0.0
H436 H 0.04235 0.25563 0.40004 0.0
C437 C 0.73862 0.05088 0.56598 0.0
C438 C 0.71428 0.05806 0.57835 0.0
C439 C 0.69533 0.04218 0.55918 0.0
C440 C 0.70911 0.02592 0.53669 0.0
N441 N 0.73569 0.0304 0.54029 0.0
Co442 Co 0.7629 0.00889 0.51517 0.0
N443 N 0.735 0.98554 0.48714 0.0
C444 C 0.70842 0.98963 0.48545 0.0
C445 C 0.69396 0.97159 0.46247 0.0
C446 C 0.71243 0.95496 0.44864 0.0
C447 C 0.73722 0.96363 0.46432 0.0
N448 N 0.79023 0.98558 0.49297 0.0
C449 C 0.78751 0.962 0.47286 0.0
C450 C 0.81218 0.95119 0.46673 0.0
C451 C 0.83104 0.96861 0.483 0.0
C452 C 0.81694 0.98885 0.49856 0.0
N453 N 0.79066 0.03368 0.54079 0.0
C454 C 0.81688 0.03341 0.5357 0.0
C455 C 0.83096 0.05438 0.55336 0.0
C456 C 0.81259 0.0691 0.57053 0.0
C457 C 0.78825 0.05605 0.56275 0.0
N458 N 0.76519 0.98503 0.55595 0.0
C459 C 0.76983 0.94776 0.6098 0.0
C460 C 0.79146 0.9639 0.60416 0.0
C461 C 0.7888 0.98218 0.57695 0.0
C462 C 0.74553 0.9513 0.58945 0.0
C463 C 0.74355 0.97023 0.56303 0.0
N464 N 0.76091 0.03313 0.47422 0.0
C465 C 0.78291 0.0548 0.42821 0.0
C466 C 0.76308 0.07415 0.42582 0.0
C467 C 0.74105 0.07156 0.44548 0.0
C468 C 0.74016 0.05075 0.469 0.0
C469 C 0.78143 0.0345 0.45237 0.0
H470 H 0.72275 0.04992 0.48327 0.0
H471 H 0.79761 0.02073 0.45341 0.0
H472 H 0.80624 0.99337 0.57284 0.0
H473 H 0.72448 0.97224 0.54822 0.0
C474 C 0.69765 0.0079 0.50972 0.0
C475 C 0.76356 0.06546 0.57745 0.0
C476 C 0.76212 0.94968 0.45777 0.0
C477 C 0.82793 0.01189 0.51692 0.0
H478 H 0.71047 0.07369 0.59841 0.0
H479 H 0.67399 0.04285 0.56086 0.0
H480 H 0.67248 0.97006 0.45747 0.0
H481 H 0.70808 0.93795 0.42984 0.0
H482 H 0.81615 0.93278 0.45163 0.0
H483 H 0.85247 0.96681 0.48324 0.0
H484 H 0.85216 0.05829 0.55412 0.0
H485 H 0.81673 0.08727 0.58715 0.0
H486 H 0.81052 0.9617 0.61983 0.0
H487 H 0.7283 0.93922 0.59357 0.0
H488 H 0.79999 0.05599 0.41256 0.0
H489 H 0.72498 0.08598 0.44345 0.0
C490 C 0.04585 0.80063 0.56067 0.0
C491 C 0.05618 0.82607 0.56986 0.0
C492 C 0.0403 0.84357 0.55091 0.0
C493 C 0.02145 0.82792 0.53097 0.0
N494 N 0.02396 0.80145 0.53651 0.0
Co495 Co 0.0034 0.77136 0.50897 0.0
N496 N 0.98243 0.79695 0.4776 0.0
C497 C 0.9842 0.82397 0.47965 0.0
C498 C 0.96615 0.83623 0.45598 0.0
C499 C 0.95156 0.81584 0.43819 0.0
C500 C 0.96166 0.79228 0.45214 0.0
N501 N 0.98357 0.74122 0.48058 0.0
C502 C 0.96317 0.74188 0.4541 0.0
C503 C 0.95475 0.71635 0.44187 0.0
C504 C 0.97013 0.69887 0.46173 0.0
C505 C 0.98703 0.71468 0.48481 0.0
N506 N 0.02376 0.74586 0.54107 0.0
C507 C 0.0205 0.719 0.54087 0.0
C508 C 0.03734 0.70692 0.56627 0.0
C509 C 0.05257 0.72722 0.58328 0.0
C510 C 0.04422 0.75056 0.56699 0.0
N511 N 0.97513 0.77364 0.54338 0.0
C512 C 0.93344 0.7763 0.58948 0.0
C513 C 0.94218 0.75177 0.57569 0.0
C514 C 0.96293 0.75088 0.55313 0.0
C515 C 0.94607 0.79957 0.58031 0.0
C516 C 0.96666 0.7978 0.55723 0.0
N517 N 0.03168 0.76896 0.47472 0.0
C518 C 0.06546 0.7432 0.44618 0.0
C519 C 0.07486 0.76605 0.43135 0.0
C520 C 0.06192 0.79029 0.43759 0.0
C521 C 0.04046 0.79129 0.45916 0.0
C522 C 0.04396 0.74506 0.46748 0.0
H523 H 0.03153 0.81038 0.46327 0.0
H524 H 0.03795 0.72693 0.47831 0.0
H525 H 0.96856 0.73147 0.54376 0.0
H526 H 0.97531 0.81624 0.55082 0.0
C527 C 0.0026 0.83726 0.50466 0.0
C528 C 0.05797 0.77621 0.57465 0.0
C529 C 0.94997 0.76611 0.44162 0.0
C530 C 0.00384 0.70545 0.51369 0.0
H531 H 0.07378 0.83149 0.58766 0.0
H532 H 0.04287 0.86504 0.55053 0.0
H533 H 0.96352 0.85748 0.45264 0.0
H534 H 0.93498 0.81805 0.41782 0.0
H535 H 0.93856 0.71097 0.42156 0.0
H536 H 0.96837 0.67727 0.46064 0.0
H537 H 0.0392 0.68574 0.57071 0.0
H538 H 0.06875 0.72497 0.60422 0.0
H539 H 0.933 0.73327 0.58239 0.0
H540 H 0.93994 0.819 0.59071 0.0
H541 H 0.0749 0.724 0.44167 0.0
H542 H 0.06854 0.80841 0.4262 0.0
C543 C 0.27379 0.97323 0.55882 0.0
C544 C 0.2985 0.96591 0.57494 0.0
C545 C 0.31692 0.98232 0.5624 0.0
C546 C 0.30252 0.99878 0.53948 0.0
N547 N 0.276 0.99389 0.53655 0.0
Co548 Co 0.2482 0.01409 0.50643 0.0
N549 N 0.27561 0.03596 0.48459 0.0
C550 C 0.30231 0.03278 0.48986 0.0
C551 C 0.31641 0.04945 0.47028 0.0
C552 C 0.2976 0.06427 0.45141 0.0
C553 C 0.27296 0.05605 0.46092 0.0
N554 N 0.22039 0.03573 0.47847 0.0
C555 C 0.22272 0.05765 0.45833 0.0
C556 C 0.19791 0.06819 0.44761 0.0
C557 C 0.17935 0.05243 0.46107 0.0
C558 C 0.19375 0.03337 0.4796 0.0
N559 N 0.22088 0.99069 0.52601 0.0
C560 C 0.19425 0.99163 0.51733 0.0
C561 C 0.18033 0.97231 0.53279 0.0
C562 C 0.19924 0.95786 0.55213 0.0
C563 C 0.22372 0.96928 0.5475 0.0
N564 N 0.24684 0.04082 0.54761 0.0
C565 C 0.24306 0.08124 0.60226 0.0
C566 C 0.22198 0.06352 0.59268 0.0
C567 C 0.22416 0.04376 0.5653 0.0
C568 C 0.2664 0.07804 0.58499 0.0
C569 C 0.26803 0.05754 0.55828 0.0
N570 N 0.24927 0.98725 0.46546 0.0
C571 C 0.22576 0.95931 0.41786 0.0
C572 C 0.24806 0.94296 0.41586 0.0
C573 C 0.27153 0.95017 0.437 0.0
C574 C 0.27183 0.97253 0.46107 0.0
C575 C 0.22676 0.98121 0.44278 0.0
H576 H 0.29033 0.97704 0.47658 0.0
H577 H 0.20882 0.99242 0.44396 0.0
H578 H 0.207 0.03143 0.55872 0.0
H579 H 0.28654 0.05584 0.54647 0.0
C580 C 0.31345 0.01624 0.51648 0.0
C581 C 0.24902 0.95919 0.56449 0.0
C582 C 0.24784 0.06907 0.44834 0.0
C583 C 0.18294 0.01224 0.49694 0.0
H584 H 0.30284 0.94989 0.59316 0.0
H585 H 0.33837 0.98159 0.56816 0.0
H586 H 0.33785 0.05123 0.4706 0.0
H587 H 0.30162 0.07992 0.43346 0.0
H588 H 0.19362 0.08547 0.43163 0.0
H589 H 0.15789 0.05461 0.45771 0.0
H590 H 0.15895 0.96929 0.53063 0.0
H591 H 0.19546 0.94092 0.56805 0.0
H592 H 0.20364 0.06532 0.60577 0.0
H593 H 0.28328 0.09133 0.59206 0.0
H594 H 0.20736 0.95453 0.4013 0.0
H595 H 0.28938 0.93821 0.43555 0.0
C596 C 0.54231 0.76619 0.0711 0.0
C597 C 0.55125 0.79 0.08898 0.0
C598 C 0.53661 0.80998 0.07328 0.0
C599 C 0.51972 0.7973 0.04675 0.0
N600 N 0.52236 0.77036 0.04486 0.0
Co601 Co 0.50325 0.74442 0.00836 0.0
N602 N 0.48239 0.774 0.98437 0.0
C603 C 0.48345 0.80038 0.9945 0.0
C604 C 0.46555 0.81567 0.97458 0.0
C605 C 0.45193 0.798 0.95051 0.0
C606 C 0.46253 0.77286 0.95701 0.0
N607 N 0.48483 0.71863 0.9711 0.0
C608 C 0.46577 0.72292 0.9437 0.0
C609 C 0.45883 0.69945 0.92352 0.0
C610 C 0.47371 0.67953 0.93906 0.0
C611 C 0.48894 0.69194 0.9676 0.0
N612 N 0.52337 0.71477 0.03315 0.0
C613 C 0.52104 0.68822 0.02452 0.0
C614 C 0.53748 0.67274 0.04638 0.0
C615 C 0.55131 0.69045 0.07024 0.0
C616 C 0.54253 0.71581 0.06138 0.0
N617 N 0.47401 0.74014 0.04046 0.0
C618 C 0.43124 0.73449 0.08376 0.0
C619 C 0.44147 0.71232 0.06545 0.0
C620 C 0.46262 0.71558 0.04399 0.0
C621 C 0.4429 0.75946 0.08047 0.0
C622 C 0.46418 0.7618 0.05905 0.0
N623 N 0.53255 0.74865 0.97625 0.0
C624 C 0.56835 0.72977 0.94363 0.0
C625 C 0.57544 0.75506 0.93337 0.0
C626 C 0.56065 0.77704 0.94455 0.0
C627 C 0.53961 0.77346 0.96599 0.0
C628 C 0.5468 0.72699 0.96457 0.0
H629 H 0.52949 0.79113 0.97411 0.0
H630 H 0.54219 0.70711 0.97109 0.0
H631 H 0.4693 0.69795 0.03033 0.0
H632 H 0.47225 0.78137 0.0578 0.0
C633 C 0.50133 0.81014 0.02309 0.0
C634 C 0.55404 0.74028 0.07929 0.0
C635 C 0.45272 0.74848 0.93686 0.0
C636 C 0.5054 0.67879 0.99342 0.0
H637 H 0.567 0.79268 0.11078 0.0
H638 H 0.53834 0.83125 0.08003 0.0
H639 H 0.46249 0.83706 0.97757 0.0
H640 H 0.43582 0.80307 0.9307 0.0
H641 H 0.44405 0.69692 0.90048 0.0
H642 H 0.47292 0.6584 0.93117 0.0
H643 H 0.53983 0.65121 0.04436 0.0
H644 H 0.56665 0.68538 0.09116 0.0
H645 H 0.433 0.69259 0.06745 0.0
H646 H 0.43558 0.77713 0.09442 0.0
H647 H 0.5793 0.71221 0.93534 0.0
H648 H 0.56553 0.79701 0.93705 0.0
C649 C 0.24311 0.55285 0.0691 0.0
C650 C 0.22082 0.56926 0.07048 0.0
C651 C 0.20357 0.56218 0.04067 0.0
C652 C 0.21666 0.54286 0.02176 0.0
N653 N 0.24097 0.53749 0.03788 0.0
Co654 Co 0.26909 0.51818 0.01374 0.0
N655 N 0.24243 0.49833 0.98055 0.0
C656 C 0.21721 0.50604 0.97162 0.0
C657 C 0.20349 0.4881 0.94751 0.0
C658 C 0.22141 0.46809 0.94083 0.0
C659 C 0.24513 0.4751 0.9612 0.0
N660 N 0.29709 0.49888 0.98948 0.0
C661 C 0.2954 0.47538 0.96984 0.0
C662 C 0.3198 0.46875 0.95732 0.0
C663 C 0.33718 0.48921 0.96943 0.0
C664 C 0.32244 0.50704 0.98868 0.0
N665 N 0.29585 0.53868 0.04603 0.0
C666 C 0.32043 0.54476 0.03737 0.0
C667 C 0.33244 0.56466 0.05989 0.0
C668 C 0.31418 0.57136 0.08414 0.0
C669 C 0.29241 0.55421 0.07609 0.0
N670 N 0.26886 0.48948 0.04896 0.0
C671 C 0.26901 0.44599 0.09572 0.0
C672 C 0.29244 0.46044 0.09157 0.0
C673 C 0.29205 0.48158 0.06768 0.0
C674 C 0.24538 0.45455 0.0765 0.0
C675 C 0.24562 0.4765 0.05407 0.0
N676 N 0.26935 0.54702 0.97847 0.0
C677 C 0.27084 0.56154 0.91714 0.0
C678 C 0.26956 0.5886 0.92907 0.0
C679 C 0.26822 0.59425 0.96621 0.0
C680 C 0.26823 0.57341 0.99025 0.0
C681 C 0.27063 0.54114 0.94214 0.0
H682 H 0.26733 0.57888 0.01853 0.0
H683 H 0.2715 0.52057 0.93204 0.0
H684 H 0.31066 0.49137 0.06405 0.0
H685 H 0.22697 0.4827 0.04034 0.0
C686 C 0.20641 0.52791 0.99046 0.0
C687 C 0.26757 0.55456 0.09458 0.0
C688 C 0.2704 0.46066 0.95981 0.0
C689 C 0.3321 0.52958 0.01009 0.0
H690 H 0.21757 0.5854 0.09002 0.0
H691 H 0.18404 0.57044 0.03347 0.0
H692 H 0.18277 0.48898 0.93691 0.0
H693 H 0.21754 0.4506 0.92275 0.0
H694 H 0.32436 0.45131 0.94058 0.0
H695 H 0.35814 0.49054 0.96539 0.0
H696 H 0.352 0.57338 0.05879 0.0
H697 H 0.31657 0.58751 0.10465 0.0
H698 H 0.31115 0.45498 0.10609 0.0
H699 H 0.2267 0.44433 0.07889 0.0
H700 H 0.27196 0.5562 0.88867 0.0
H701 H 0.26724 0.6148 0.9767 0.0
C702 C 0.46287 0.29384 0.97497 0.0
C703 C 0.45173 0.31826 0.9657 0.0
C704 C 0.46798 0.33766 0.98282 0.0
C705 C 0.48785 0.32408 1.00182 0.0
N706 N 0.48567 0.29713 0.9973 0.0
Co707 Co 0.50773 0.26986 0.02444 0.0
N708 N 0.52936 0.29848 0.05354 0.0
C709 C 0.52716 0.32524 0.05033 0.0
C710 C 0.54639 0.33984 0.07117 0.0
C711 C 0.56215 0.32132 0.08833 0.0
C712 C 0.5514 0.29637 0.07716 0.0
N713 N 0.52898 0.24257 0.05247 0.0
C714 C 0.54979 0.24585 0.07823 0.0
C715 C 0.55851 0.22153 0.09137 0.0
C716 C 0.5431 0.20214 0.07257 0.0
C717 C 0.52579 0.21567 0.04932 0.0
N718 N 0.48678 0.24128 0.99447 0.0
C719 C 0.4906 0.21453 0.99515 0.0
C720 C 0.47303 0.19998 0.97142 0.0
C721 C 0.45672 0.21851 0.95509 0.0
C722 C 0.46521 0.24337 0.97009 0.0
N723 N 0.53461 0.26948 0.98805 0.0
C724 C 0.57617 0.26941 0.94192 0.0
C725 C 0.56762 0.24567 0.95538 0.0
C726 C 0.54693 0.24613 0.97811 0.0
C727 C 0.56316 0.2931 0.95089 0.0
C728 C 0.54249 0.29268 0.97371 0.0
N729 N 0.48094 0.27021 0.06078 0.0
C730 C 0.44829 0.24684 0.09179 0.0
C731 C 0.43915 0.27095 0.10646 0.0
C732 C 0.45185 0.29463 0.09913 0.0
C733 C 0.47261 0.29381 0.07642 0.0
C734 C 0.46915 0.2469 0.06936 0.0
H735 H 0.48132 0.31254 0.07143 0.0
H736 H 0.47496 0.22788 0.05862 0.0
H737 H 0.5416 0.22735 0.98771 0.0
H738 H 0.53345 0.31142 0.97974 0.0
C739 C 0.50751 0.33601 0.02636 0.0
C740 C 0.45058 0.26805 0.96305 0.0
C741 C 0.56325 0.27124 0.089 0.0
C742 C 0.50833 0.20365 0.02173 0.0
H743 H 0.43339 0.3218 0.9491 0.0
H744 H 0.46501 0.35909 0.9827 0.0
H745 H 0.54907 0.36136 0.07289 0.0
H746 H 0.57984 0.32574 0.10646 0.0
H747 H 0.57493 0.21812 0.11155 0.0
H748 H 0.545 0.18069 0.0746 0.0
H749 H 0.47139 0.17841 0.96781 0.0
H750 H 0.43973 0.21419 0.9356 0.0
H751 H 0.57714 0.22686 0.94874 0.0
H752 H 0.56913 0.31189 0.94062 0.0
H753 H 0.43907 0.22805 0.09719 0.0
H754 H 0.44547 0.3137 0.11042 0.0
C755 C 0.71829 0.55146 0.05545 0.0
C756 C 0.69408 0.56459 0.05709 0.0
C757 C 0.67707 0.55396 0.02904 0.0
C758 C 0.69166 0.53494 0.01176 0.0
N759 N 0.71667 0.5325 0.02756 0.0
Co760 Co 0.74454 0.50925 0.00756 0.0
N761 N 0.71788 0.48737 0.97608 0.0
C762 C 0.6937 0.49628 0.96388 0.0
C763 C 0.68155 0.48019 0.93619 0.0
C764 C 0.69922 0.45978 0.93086 0.0
C765 C 0.72077 0.46379 0.95688 0.0
N766 N 0.77229 0.48633 0.98713 0.0
C767 C 0.76983 0.46298 0.96664 0.0
C768 C 0.7931 0.45799 0.94992 0.0
C769 C 0.81115 0.4775 0.96286 0.0
C770 C 0.79766 0.49408 0.98531 0.0
N771 N 0.77149 0.53119 0.03881 0.0
C772 C 0.7978 0.53169 0.03478 0.0
C773 C 0.812 0.54796 0.0605 0.0
C774 C 0.79343 0.55887 0.08162 0.0
C775 C 0.7687 0.54905 0.06715 0.0
N776 N 0.74203 0.48488 0.04625 0.0
C777 C 0.73827 0.44707 0.09804 0.0
C778 C 0.76322 0.45602 0.08993 0.0
C779 C 0.76468 0.47501 0.06389 0.0
C780 C 0.71521 0.45778 0.08059 0.0
C781 C 0.71753 0.4767 0.05466 0.0
N782 N 0.74685 0.53353 0.96815 0.0
C783 C 0.74811 0.54095 0.90465 0.0
C784 C 0.74685 0.56851 0.91207 0.0
C785 C 0.74603 0.57836 0.94774 0.0
C786 C 0.74609 0.56052 0.97532 0.0
C787 C 0.74807 0.52375 0.93316 0.0
H788 H 0.74489 0.56854 1.00232 0.0
H789 H 0.74858 0.50257 0.92666 0.0
H790 H 0.78408 0.4813 0.05742 0.0
H791 H 0.69955 0.4843 0.04079 0.0
C792 C 0.68256 0.51853 0.9813 0.0
C793 C 0.74311 0.56043 0.07724 0.0
C794 C 0.74499 0.44673 0.96038 0.0
C795 C 0.80855 0.51521 0.00813 0.0
H796 H 0.68953 0.58105 0.0755 0.0
H797 H 0.65664 0.55977 0.02176 0.0
H798 H 0.66225 0.48299 0.92147 0.0
H799 H 0.69665 0.4442 0.90957 0.0
H800 H 0.79673 0.44218 0.93006 0.0
H801 H 0.83167 0.47926 0.95671 0.0
H802 H 0.83332 0.55146 0.06361 0.0
H803 H 0.79753 0.57341 0.10402 0.0
H804 H 0.78139 0.44796 0.10308 0.0
H805 H 0.69565 0.4511 0.08639 0.0
H806 H 0.74877 0.53286 0.87711 0.0
H807 H 0.74506 0.59969 0.95417 0.0
C808 C 0.13702 0.2301 0.3937 0.0
C809 C 0.14094 0.25205 0.37183 0.0
C810 C 0.1021 0.27457 0.39481 0.0
C811 C 0.09697 0.25171 0.41443 0.0
N812 N 0.10576 0.2052 0.42516 0.0
N813 N 0.12343 0.29213 0.34492 0.0
C814 C 0.11327 0.22866 0.41152 0.0
C815 C 0.12228 0.27336 0.37033 0.0
N816 N 0.15651 0.21128 0.39898 0.0
N817 N 0.08868 0.29789 0.40081 0.0
H818 H 0.13758 0.29159 0.32604 0.0
H819 H 0.10878 0.30658 0.34024 0.0
H820 H 0.07412 0.29987 0.419 0.0
H821 H 0.09371 0.31593 0.39022 0.0
H822 H 0.15585 0.19648 0.41772 0.0
H823 H 0.17455 0.21191 0.3873 0.0
H824 H 0.11551 0.18712 0.42076 0.0
H825 H 0.08817 0.20323 0.43767 0.0
C826 C 0.74882 0.12589 0.35524 0.0
C827 C 0.76979 0.14451 0.36546 0.0
C828 C 0.78542 0.11768 0.41647 0.0
C829 C 0.76599 0.0979 0.40426 0.0
N830 N 0.73277 0.08046 0.35812 0.0
N831 N 0.81135 0.15547 0.40082 0.0
C832 C 0.74876 0.10116 0.37239 0.0
C833 C 0.78913 0.13959 0.3946 0.0
N834 N 0.7283 0.1323 0.33044 0.0
N835 N 0.79951 0.11618 0.44965 0.0
H836 H 0.81494 0.17153 0.38497 0.0
H837 H 0.82738 0.15117 0.41942 0.0
H838 H 0.79712 0.10068 0.46691 0.0
H839 H 0.81179 0.13158 0.4615 0.0
H840 H 0.71113 0.12064 0.32491 0.0
H841 H 0.7272 0.15048 0.31777 0.0
H842 H 0.72184 0.08077 0.33288 0.0
H843 H 0.73233 0.06196 0.36993 0.0
C844 C 0.87478 0.76916 0.41795 0.0
C845 C 0.87297 0.76336 0.37995 0.0
C846 C 0.92175 0.76074 0.38195 0.0
C847 C 0.92335 0.76441 0.42025 0.0
N848 N 0.90166 0.768 0.47557 0.0
N849 N 0.89404 0.74947 0.32629 0.0
C850 C 0.89992 0.76741 0.43852 0.0
C851 C 0.89629 0.75804 0.36203 0.0
N852 N 0.85262 0.77728 0.43416 0.0
N853 N 0.94459 0.76038 0.36463 0.0
H854 H 0.87575 0.74732 0.31076 0.0
H855 H 0.91005 0.74246 0.31271 0.0
H856 H 0.96359 0.76156 0.37847 0.0
H857 H 0.94473 0.76084 0.33661 0.0
H858 H 0.85318 0.78458 0.46101 0.0
H859 H 0.83387 0.7789 0.41994 0.0
H860 H 0.88511 0.76686 0.49033 0.0
H861 H 0.91977 0.76741 0.49161 0.0
C862 C 0.26416 0.88911 0.34523 0.0
C863 C 0.24614 0.8685 0.35209 0.0
C864 C 0.23037 0.89621 0.40199 0.0
C865 C 0.24659 0.91769 0.39296 0.0
N866 N 0.27452 0.93653 0.3511 0.0
N867 N 0.20777 0.85479 0.38126 0.0
C868 C 0.26215 0.91474 0.36303 0.0
C869 C 0.22789 0.87279 0.37873 0.0
N870 N 0.28402 0.88393 0.32313 0.0
N871 N 0.21833 0.89759 0.43361 0.0
H872 H 0.20494 0.83765 0.36413 0.0
H873 H 0.19239 0.85823 0.39786 0.0
H874 H 0.2201 0.91411 0.45197 0.0
H875 H 0.2087 0.88134 0.44332 0.0
H876 H 0.29938 0.89741 0.32029 0.0
H877 H 0.28667 0.86525 0.31022 0.0
H878 H 0.28391 0.93606 0.32718 0.0
H879 H 0.27319 0.9557 0.36321 0.0
C880 C 0.13139 0.76264 0.60282 0.0
C881 C 0.13569 0.77884 0.63545 0.0
C882 C 0.08817 0.79014 0.63067 0.0
C883 C 0.08485 0.7772 0.59568 0.0
N884 N 0.10498 0.75583 0.54518 0.0
N885 N 0.11902 0.81362 0.67496 0.0
C886 C 0.10702 0.76494 0.58068 0.0
C887 C 0.1143 0.79423 0.64787 0.0
N888 N 0.14979 0.74398 0.59383 0.0
N889 N 0.06642 0.79818 0.64777 0.0
H890 H 0.13812 0.81843 0.6868 0.0
H891 H 0.10437 0.82688 0.68269 0.0
H892 H 0.04691 0.79523 0.63614 0.0
H893 H 0.06778 0.80549 0.67469 0.0
H894 H 0.14634 0.73008 0.57202 0.0
H895 H 0.16716 0.74033 0.61036 0.0
H896 H 0.12134 0.74904 0.53208 0.0
H897 H 0.08756 0.75751 0.52794 0.0
C898 C 0.25575 0.12657 0.68769 0.0
C899 C 0.23426 0.14486 0.68295 0.0
C900 C 0.22099 0.12359 0.62314 0.0
C901 C 0.24035 0.10335 0.62992 0.0
N902 N 0.27252 0.08259 0.67204 0.0
N903 N 0.19319 0.15745 0.6493 0.0
C904 C 0.25671 0.10396 0.6632 0.0
C905 C 0.21591 0.14241 0.65155 0.0
N906 N 0.27585 0.13133 0.71462 0.0
N907 N 0.20817 0.12547 0.58924 0.0
H908 H 0.18841 0.17101 0.66997 0.0
H909 H 0.17789 0.15454 0.62857 0.0
H910 H 0.2119 0.11255 0.56735 0.0
H911 H 0.19586 0.14145 0.58197 0.0
H912 H 0.29328 0.12006 0.71687 0.0
H913 H 0.27642 0.14813 0.73249 0.0
H914 H 0.28273 0.08091 0.69757 0.0
H915 H 0.27339 0.06536 0.65518 0.0
C916 C 0.8904 0.23343 0.66995 0.0
C917 C 0.87306 0.2559 0.6699 0.0
C918 C 0.89864 0.27537 0.62429 0.0
C919 C 0.9183 0.25509 0.62877 0.0
N920 N 0.93571 0.21889 0.66486 0.0
N921 N 0.86652 0.30206 0.65434 0.0
C922 C 0.91507 0.23531 0.65433 0.0
C923 C 0.87892 0.27806 0.64928 0.0
N924 N 0.88298 0.20981 0.68315 0.0
N925 N 0.89777 0.2913 0.59532 0.0
H926 H 0.8534 0.30556 0.67423 0.0
H927 H 0.87181 0.31923 0.64177 0.0
H928 H 0.91042 0.28873 0.5747 0.0
H929 H 0.88238 0.30485 0.58968 0.0
H930 H 0.8942 0.19238 0.68089 0.0
H931 H 0.86429 0.20678 0.69228 0.0
H932 H 0.93476 0.20566 0.6856 0.0
H933 H 0.95467 0.22074 0.656 0.0
C934 C 0.75649 0.90502 0.68761 0.0
C935 C 0.77372 0.88312 0.68161 0.0
C936 C 0.78875 0.90372 0.62867 0.0
C937 C 0.77275 0.92637 0.63594 0.0
N938 N 0.74661 0.95153 0.67704 0.0
N939 N 0.81113 0.8647 0.65271 0.0
C940 C 0.7583 0.92798 0.66701 0.0
C941 C 0.79151 0.88352 0.65418 0.0
N942 N 0.73745 0.90337 0.71144 0.0
N943 N 0.80005 0.9007 0.59657 0.0
H944 H 0.81392 0.84978 0.67141 0.0
H945 H 0.82618 0.86549 0.63528 0.0
H946 H 0.79796 0.91465 0.57652 0.0
H947 H 0.80946 0.88317 0.58838 0.0
H948 H 0.72248 0.91756 0.71374 0.0
H949 H 0.73514 0.88674 0.72677 0.0
H950 H 0.738 0.95456 0.7014 0.0
H951 H 0.74781 0.96885 0.66267 0.0
C952 C 0.86483 0.78679 0.62485 0.0
C953 C 0.86851 0.77353 0.65793 0.0
C954 C 0.91583 0.76688 0.64897 0.0
C955 C 0.9114 0.77717 0.6139 0.0
N956 N 0.88091 0.79414 0.56643 0.0
N957 N 0.89653 0.74791 0.69963 0.0
C958 C 0.8857 0.78653 0.60133 0.0
C959 C 0.89379 0.7628 0.66955 0.0
N960 N 0.8416 0.8002 0.61634 0.0
N961 N 0.94127 0.76171 0.66302 0.0
H962 H 0.88093 0.74461 0.71556 0.0
H963 H 0.91361 0.73702 0.70714 0.0
H964 H 0.95793 0.76479 0.64892 0.0
H965 H 0.94614 0.75681 0.68978 0.0
H966 H 0.8388 0.81271 0.59468 0.0
H967 H 0.82584 0.80066 0.63278 0.0
H968 H 0.86192 0.79811 0.55434 0.0
H969 H 0.89568 0.7946 0.54853 0.0
C970 C 0.24641 0.88589 0.59343 0.0
C971 C 0.25212 0.88909 0.63176 0.0
C972 C 0.25271 0.93824 0.62627 0.0
C973 C 0.24961 0.93488 0.5878 0.0
N974 N 0.24705 0.9052 0.53448 0.0
N975 N 0.2648 0.9184 0.68404 0.0
C976 C 0.24744 0.90858 0.57134 0.0
C977 C 0.25629 0.91534 0.64799 0.0
N978 N 0.23902 0.86127 0.57818 0.0
N979 N 0.25166 0.96342 0.64216 0.0
H980 H 0.26782 0.90229 0.70074 0.0
H981 H 0.27107 0.93664 0.69674 0.0
H982 H 0.24939 0.98056 0.62723 0.0
H983 H 0.25081 0.96718 0.66989 0.0
H984 H 0.23183 0.85803 0.55108 0.0
H985 H 0.23781 0.84435 0.59334 0.0
H986 H 0.24845 0.8866 0.5209 0.0
H987 H 0.24741 0.92122 0.51752 0.0
C988 C 0.12516 0.24139 0.65557 0.0
C989 C 0.11877 0.24515 0.6918 0.0
C990 C 0.07119 0.24742 0.67023 0.0
C991 C 0.07812 0.24748 0.63396 0.0
N992 N 0.11279 0.25059 0.59328 0.0
N993 N 0.08607 0.25386 0.73435 0.0
C994 C 0.1054 0.246 0.6269 0.0
C995 C 0.09182 0.24857 0.69943 0.0
N996 N 0.15015 0.23319 0.64849 0.0
N997 N 0.04495 0.24615 0.6767 0.0
H998 H 0.10065 0.25436 0.75628 0.0
H999 H 0.06722 0.25942 0.74138 0.0
H1000 H 0.02942 0.246 0.656 0.0
H1001 H 0.03862 0.24331 0.7022 0.0
H1002 H 0.15507 0.22742 0.62255 0.0
H1003 H 0.1652 0.22944 0.66888 0.0
H1004 H 0.13258 0.25233 0.58761 0.0
H1005 H 0.0993 0.25612 0.57225 0.0
C1006 C 0.78014 0.11598 0.65867 0.0
C1007 C 0.76256 0.13755 0.64993 0.0
C1008 C 0.74903 0.11354 0.59133 0.0
C1009 C 0.76353 0.09052 0.60246 0.0
N1010 N 0.78856 0.06838 0.65089 0.0
N1011 N 0.72487 0.15259 0.61099 0.0
C1012 C 0.77773 0.0913 0.63746 0.0
C1013 C 0.74549 0.13515 0.61704 0.0
N1014 N 0.80014 0.11937 0.68601 0.0
N1015 N 0.73897 0.1151 0.55602 0.0
H1016 H 0.72025 0.16746 0.63007 0.0
H1017 H 0.71052 0.15021 0.58894 0.0
H1018 H 0.74163 0.10002 0.53623 0.0
H1019 H 0.73037 0.13247 0.54582 0.0
H1020 H 0.81492 0.10512 0.69124 0.0
H1021 H 0.80378 0.13752 0.70067 0.0
H1022 H 0.79689 0.06731 0.67758 0.0
H1023 H 0.78693 0.04992 0.63647 0.0
C1024 C 0.87853 0.25392 0.43507 0.0
C1025 C 0.87913 0.26103 0.39851 0.0
C1026 C 0.92792 0.26388 0.40683 0.0
C1027 C 0.92721 0.25904 0.44416 0.0
N1028 N 0.90196 0.25313 0.49532 0.0
N1029 N 0.90372 0.27789 0.35152 0.0
C1030 C 0.9025 0.25517 0.45875 0.0
C1031 C 0.90366 0.26746 0.38493 0.0
N1032 N 0.85526 0.24505 0.44675 0.0
N1033 N 0.95178 0.26434 0.39203 0.0
H1034 H 0.88634 0.28104 0.33471 0.0
H1035 H 0.92071 0.28571 0.34182 0.0
H1036 H 0.97004 0.26216 0.40718 0.0
H1037 H 0.95339 0.26465 0.36425 0.0
H1038 H 0.85409 0.23688 0.47185 0.0
H1039 H 0.83736 0.24385 0.43017 0.0
H1040 H 0.88443 0.25315 0.5082 0.0
H1041 H 0.91919 0.2535 0.51329 0.0
C1042 C 0.74589 0.87682 0.4237 0.0
C1043 C 0.75842 0.87469 0.39073 0.0
C1044 C 0.77118 0.92244 0.4 0.0
C1045 C 0.76144 0.92357 0.43484 0.0
N1046 N 0.74435 0.89973 0.48276 0.0
N1047 N 0.78869 0.89446 0.35257 0.0
C1048 C 0.75033 0.90006 0.44758 0.0
C1049 C 0.77268 0.89725 0.38032 0.0
N1050 N 0.72857 0.85734 0.43148 0.0
N1051 N 0.77835 0.94552 0.38511 0.0
H1052 H 0.79139 0.8762 0.33859 0.0
H1053 H 0.8015 0.90952 0.34614 0.0
H1054 H 0.77725 0.96432 0.39837 0.0
H1055 H 0.78299 0.94622 0.35836 0.0
H1056 H 0.7169 0.85914 0.45327 0.0
H1057 H 0.72368 0.84071 0.41409 0.0
H1058 H 0.73872 0.88238 0.49461 0.0
H1059 H 0.74744 0.91621 0.50103 0.0
C1060 C 0.14565 0.77317 0.40323 0.0
C1061 C 0.1433 0.75861 0.36925 0.0
C1062 C 0.09536 0.75229 0.37391 0.0
C1063 C 0.09829 0.76443 0.40947 0.0
N1064 N 0.1268 0.78327 0.46023 0.0
N1065 N 0.11693 0.73118 0.32407 0.0
C1066 C 0.1236 0.7741 0.42474 0.0
C1067 C 0.11839 0.74734 0.35504 0.0
N1068 N 0.16876 0.78672 0.41448 0.0
N1069 N 0.07044 0.74618 0.35778 0.0
H1070 H 0.13328 0.72729 0.3093 0.0
H1071 H 0.10011 0.71994 0.31454 0.0
H1072 H 0.05312 0.74954 0.37075 0.0
H1073 H 0.06667 0.73997 0.33058 0.0
H1074 H 0.17076 0.80009 0.43701 0.0
H1075 H 0.18537 0.78634 0.39957 0.0
H1076 H 0.14532 0.78767 0.47415 0.0
H1077 H 0.11113 0.78454 0.47675 0.0
C1078 C 0.23509 0.11746 0.36992 0.0
C1079 C 0.25003 0.14061 0.38359 0.0
C1080 C 0.25985 0.11827 0.44148 0.0
C1081 C 0.24805 0.09399 0.42603 0.0
N1082 N 0.22913 0.0694 0.37223 0.0
N1083 N 0.28195 0.15975 0.43043 0.0
C1084 C 0.23709 0.09329 0.38923 0.0
C1085 C 0.26384 0.14011 0.41892 0.0
N1086 N 0.2179 0.11878 0.33935 0.0
N1087 N 0.26688 0.12075 0.47796 0.0
H1088 H 0.28667 0.17521 0.41423 0.0
H1089 H 0.29441 0.15901 0.4544 0.0
H1090 H 0.264 0.10545 0.49537 0.0
H1091 H 0.27312 0.13881 0.49128 0.0
H1092 H 0.20467 0.10337 0.33016 0.0
H1093 H 0.21473 0.1363 0.32546 0.0
H1094 H 0.22351 0.06725 0.34448 0.0
H1095 H 0.23052 0.05133 0.38518 0.0
C1096 C 0.61681 0.7577 0.85189 0.0
C1097 C 0.64173 0.76708 0.86914 0.0
C1098 C 0.62123 0.77317 0.92635 0.0
C1099 C 0.59824 0.75891 0.91102 0.0
N1100 N 0.5733 0.73853 0.85794 0.0
N1101 N 0.65451 0.80398 0.91145 0.0
C1102 C 0.59573 0.75146 0.87336 0.0
C1103 C 0.64082 0.7806 0.90358 0.0
N1104 N 0.61187 0.75904 0.8152 0.0
N1105 N 0.62464 0.77967 0.96268 0.0
H1106 H 0.66355 0.81372 0.89147 0.0
H1107 H 0.6528 0.8157 0.93517 0.0
H1108 H 0.611 0.77431 0.98065 0.0
H1109 H 0.64226 0.7883 0.97503 0.0
H1110 H 0.59335 0.75492 0.80113 0.0
H1111 H 0.62534 0.76806 0.79971 0.0
H1112 H 0.57186 0.72979 0.83174 0.0
H1113 H 0.5567 0.73516 0.872 0.0
C1114 C 0.2485 0.63635 0.85268 0.0
C1115 C 0.26908 0.65606 0.85793 0.0
C1116 C 0.29181 0.62922 0.90574 0.0
C1117 C 0.26981 0.61114 0.90327 0.0
N1118 N 0.22511 0.60015 0.87788 0.0
N1119 N 0.30817 0.67334 0.89391 0.0
C1120 C 0.2476 0.6154 0.87757 0.0
C1121 C 0.29019 0.653 0.88565 0.0
N1122 N 0.23018 0.63716 0.82319 0.0
N1123 N 0.31469 0.62328 0.92651 0.0
H1124 H 0.30745 0.69109 0.88025 0.0
H1125 H 0.32222 0.67366 0.91637 0.0
H1126 H 0.3168 0.60599 0.94114 0.0
H1127 H 0.33237 0.6341 0.92652 0.0
H1128 H 0.21646 0.62186 0.81559 0.0
H1129 H 0.23023 0.65199 0.80435 0.0
H1130 H 0.20723 0.60418 0.86272 0.0
H1131 H 0.22353 0.58482 0.89566 0.0
C1132 C 0.39018 0.2778 0.89481 0.0
C1133 C 0.37001 0.2638 0.91076 0.0
C1134 C 0.40191 0.25579 0.96316 0.0
C1135 C 0.4227 0.26669 0.94495 0.0
N1136 N 0.4375 0.28242 0.88963 0.0
N1137 N 0.35876 0.23396 0.95651 0.0
C1138 C 0.41711 0.27591 0.90952 0.0
C1139 C 0.37641 0.25126 0.94402 0.0
N1140 N 0.38356 0.29388 0.86663 0.0
N1141 N 0.40632 0.25019 0.9989 0.0
H1142 H 0.34039 0.22901 0.94248 0.0
H1143 H 0.36355 0.22236 0.97877 0.0
H1144 H 0.42463 0.2536 0.01396 0.0
H1145 H 0.39116 0.24461 0.01437 0.0
H1146 H 0.39729 0.30636 0.8563 0.0
H1147 H 0.3639 0.29699 0.85625 0.0
H1148 H 0.43452 0.2868 0.86236 0.0
H1149 H 0.45753 0.28105 0.89943 0.0
C1150 C 0.72264 0.3797 0.9116 0.0
C1151 C 0.74784 0.3692 0.90373 0.0
C1152 C 0.769 0.40137 0.94996 0.0
C1153 C 0.74513 0.41652 0.94898 0.0
N1154 N 0.69935 0.40591 0.95542 0.0
N1155 N 0.79553 0.3688 0.91881 0.0
C1156 C 0.72157 0.40169 0.93755 0.0
C1157 C 0.7712 0.37947 0.92423 0.0
N1158 N 0.69974 0.36908 0.89408 0.0
N1159 N 0.78804 0.40562 0.97827 0.0
H1160 H 0.79791 0.35236 0.90097 0.0
H1161 H 0.81335 0.37743 0.93045 0.0
H1162 H 0.78508 0.41918 0.99985 0.0
H1163 H 0.80485 0.3936 0.98234 0.0
H1164 H 0.68112 0.3778 0.8963 0.0
H1165 H 0.69965 0.35256 0.87573 0.0
H1166 H 0.68226 0.39403 0.95067 0.0
H1167 H 0.69956 0.4192 0.97807 0.0
C1168 C 0.63658 0.25804 0.11849 0.0
C1169 C 0.63942 0.27123 0.15349 0.0
C1170 C 0.59168 0.28162 0.14772 0.0
C1171 C 0.58963 0.27137 0.11125 0.0
N1172 N 0.6115 0.25476 0.05946 0.0
N1173 N 0.62081 0.3015 0.19726 0.0
C1174 C 0.61254 0.26114 0.09583 0.0
C1175 C 0.61727 0.28475 0.16695 0.0
N1176 N 0.65616 0.24145 0.10751 0.0
N1177 N 0.56918 0.28794 0.16424 0.0
H1178 H 0.63947 0.30544 0.21113 0.0
H1179 H 0.60571 0.3137 0.20621 0.0
H1180 H 0.55003 0.28576 0.15105 0.0
H1181 H 0.56948 0.293 0.19188 0.0
H1182 H 0.65388 0.22938 0.08371 0.0
H1183 H 0.67358 0.2376 0.12385 0.0
H1184 H 0.62834 0.24975 0.04624 0.0
H1185 H 0.59427 0.25689 0.04194 0.0
C1186 C 0.75702 0.631 0.12305 0.0
C1187 C 0.74114 0.63094 0.15279 0.0
C1188 C 0.72962 0.58357 0.13595 0.0
C1189 C 0.74269 0.58485 0.10363 0.0
N1190 N 0.76349 0.61308 0.06294 0.0
N1191 N 0.70803 0.60813 0.1832 0.0
C1192 C 0.75477 0.60955 0.09615 0.0
C1193 C 0.72628 0.60743 0.15811 0.0
N1194 N 0.7753 0.65097 0.12113 0.0
N1195 N 0.72077 0.55944 0.14594 0.0
H1196 H 0.70433 0.62531 0.199 0.0
H1197 H 0.69473 0.59252 0.18577 0.0
H1198 H 0.72285 0.54165 0.13055 0.0
H1199 H 0.71355 0.55672 0.17096 0.0
H1200 H 0.78927 0.65051 0.10203 0.0
H1201 H 0.77857 0.66642 0.14098 0.0
H1202 H 0.76961 0.6316 0.05485 0.0
H1203 H 0.76237 0.59821 0.04234 0.0
C1204 C 0.3613 0.72115 0.11179 0.0
C1205 C 0.36472 0.72884 0.14931 0.0
C1206 C 0.41252 0.7362 0.14463 0.0
C1207 C 0.40841 0.7317 0.10641 0.0
N1208 N 0.3779 0.72408 0.05276 0.0
N1209 N 0.39276 0.74809 0.20034 0.0
C1210 C 0.38252 0.72523 0.08972 0.0
C1211 C 0.39014 0.7375 0.16549 0.0
N1212 N 0.33797 0.7093 0.0974 0.0
N1213 N 0.43788 0.73848 0.16117 0.0
H1214 H 0.37687 0.74975 0.21646 0.0
H1215 H 0.41012 0.75745 0.21217 0.0
H1216 H 0.45478 0.73731 0.14688 0.0
H1217 H 0.44224 0.73897 0.1892 0.0
H1218 H 0.33529 0.70077 0.07112 0.0
H1219 H 0.32212 0.70574 0.1128 0.0
H1220 H 0.35889 0.72233 0.03914 0.0
H1221 H 0.39277 0.72729 0.03564 0.0
C1222 C 0.24784 0.39768 0.16638 0.0
C1223 C 0.26663 0.37651 0.16414 0.0
C1224 C 0.28594 0.39975 0.1151 0.0
C1225 C 0.26898 0.42227 0.12008 0.0
N1226 N 0.23866 0.44469 0.15822 0.0
N1227 N 0.30771 0.36108 0.14165 0.0
C1228 C 0.25133 0.42178 0.14798 0.0
C1229 C 0.28687 0.37863 0.13999 0.0
N1230 N 0.2259 0.39448 0.18487 0.0
N1231 N 0.30049 0.39778 0.08577 0.0
H1232 H 0.30968 0.34598 0.16013 0.0
H1233 H 0.3244 0.36326 0.12738 0.0
H1234 H 0.30035 0.41231 0.0666 0.0
H1235 H 0.31071 0.38049 0.07857 0.0
H1236 H 0.21023 0.40812 0.18431 0.0
H1237 H 0.22198 0.37693 0.19755 0.0
H1238 H 0.22762 0.44614 0.18067 0.0
H1239 H 0.24166 0.46303 0.14695 0.0
C1240 C 0.36896 0.28078 0.13645 0.0
C1241 C 0.3718 0.26899 0.17063 0.0
C1242 C 0.41953 0.26194 0.16476 0.0
C1243 C 0.41612 0.27126 0.12907 0.0
N1244 N 0.38706 0.28651 0.07888 0.0
N1245 N 0.39872 0.24564 0.21604 0.0
C1246 C 0.39069 0.27998 0.11438 0.0
C1247 C 0.39682 0.25884 0.18446 0.0
N1248 N 0.34562 0.2932 0.1254 0.0
N1249 N 0.44462 0.25685 0.18022 0.0
H1250 H 0.38272 0.2436 0.2317 0.0
H1251 H 0.41555 0.23506 0.22546 0.0
H1252 H 0.46169 0.25898 0.16664 0.0
H1253 H 0.44882 0.25273 0.20739 0.0
H1254 H 0.34327 0.30482 0.10278 0.0
H1255 H 0.3291 0.29368 0.14047 0.0
H1256 H 0.36843 0.28993 0.06532 0.0
H1257 H 0.40251 0.28659 0.06199 0.0
C1258 C 0.74414 0.41025 0.18545 0.0
C1259 C 0.73834 0.38371 0.17181 0.0
C1260 C 0.73139 0.39883 0.1099 0.0
C1261 C 0.73649 0.42551 0.12362 0.0
N1262 N 0.74237 0.45767 0.17428 0.0
N1263 N 0.72084 0.3532 0.12305 0.0
C1264 C 0.74117 0.43156 0.16143 0.0
C1265 C 0.73012 0.37817 0.1346 0.0
N1266 N 0.75346 0.41491 0.22102 0.0
N1267 N 0.72898 0.39308 0.07328 0.0
H1268 H 0.7198 0.33755 0.14048 0.0
H1269 H 0.71201 0.34861 0.09698 0.0
H1270 H 0.7296 0.40767 0.0542 0.0
H1271 H 0.72836 0.37367 0.06171 0.0
H1272 H 0.76102 0.4333 0.23167 0.0
H1273 H 0.75521 0.39986 0.2396 0.0
H1274 H 0.74309 0.46348 0.2017 0.0
H1275 H 0.74041 0.47374 0.1573 0.0
C1276 C 0.60005 0.74285 0.16716 0.0
C1277 C 0.62533 0.73931 0.1535 0.0
C1278 C 0.60399 0.73709 0.09118 0.0
C1279 C 0.57865 0.73897 0.10497 0.0
N1280 N 0.55194 0.7389 0.15561 0.0
N1281 N 0.65117 0.72787 0.10337 0.0
C1282 C 0.57651 0.74034 0.14288 0.0
C1283 C 0.62724 0.73489 0.11571 0.0
N1284 N 0.5986 0.74977 0.20306 0.0
N1285 N 0.60587 0.7382 0.05472 0.0
H1286 H 0.66858 0.7259 0.12059 0.0
H1287 H 0.65333 0.72171 0.07658 0.0
H1288 H 0.58925 0.73935 0.03585 0.0
H1289 H 0.62389 0.74001 0.04334 0.0
H1290 H 0.581 0.75557 0.21387 0.0
H1291 H 0.61537 0.75179 0.22171 0.0
H1292 H 0.54915 0.73692 0.18283 0.0
H1293 H 0.53427 0.7375 0.13855 0.0
C1294 C 0.2422 0.59135 0.17483 0.0
C1295 C 0.2665 0.60444 0.18775 0.0
C1296 C 0.29081 0.56936 0.15691 0.0
C1297 C 0.26718 0.56348 0.13439 0.0
N1298 N 0.22258 0.55131 0.1423 0.0
N1299 N 0.31461 0.60291 0.19671 0.0
C1300 C 0.24319 0.56885 0.14999 0.0
C1301 C 0.29112 0.59211 0.18136 0.0
N1302 N 0.21848 0.60141 0.18425 0.0
N1303 N 0.31191 0.55234 0.15651 0.0
H1304 H 0.31538 0.6193 0.21531 0.0
H1305 H 0.33313 0.5962 0.18964 0.0
H1306 H 0.3107 0.53454 0.14044 0.0
H1307 H 0.32905 0.55461 0.17442 0.0
H1308 H 0.20007 0.59472 0.17198 0.0
H1309 H 0.21743 0.61732 0.20335 0.0
H1310 H 0.20473 0.55247 0.15451 0.0
H1311 H 0.20473 0.55247 0.15451 0.0
C1312 C 0.38166 0.73981 0.89165 0.0
C1313 C 0.383 0.75487 0.86034 0.0
C1314 C 0.43105 0.76148 0.87616 0.0
C1315 C 0.42881 0.7497 0.90978 0.0
N1316 N 0.40111 0.73115 0.95217 0.0
N1317 N 0.40821 0.78416 0.82617 0.0
C1318 C 0.40385 0.73982 0.9183 0.0
C1319 C 0.40754 0.76676 0.85337 0.0
N1320 N 0.35956 0.72468 0.89532 0.0
N1321 N 0.45567 0.76741 0.86588 0.0
H1322 H 0.39132 0.78927 0.80956 0.0
H1323 H 0.42498 0.79551 0.82233 0.0
H1324 H 0.47329 0.7639 0.88202 0.0
H1325 H 0.4587 0.77353 0.84011 0.0
H1326 H 0.35854 0.71126 0.91578 0.0
H1327 H 0.34324 0.72351 0.87584 0.0
H1328 H 0.38273 0.72647 0.96112 0.0
H1329 H 0.4169 0.73078 0.97243 0.0
C1330 C 0.27209 0.38483 0.94459 0.0
C1331 C 0.2663 0.38219 0.90641 0.0
C1332 C 0.26845 0.43096 0.9029 0.0
C1333 C 0.27067 0.43358 0.94132 0.0
N1334 N 0.27136 0.41341 0.99906 0.0
N1335 N 0.25511 0.40273 0.84939 0.0
C1336 C 0.2717 0.41062 0.96228 0.0
C1337 C 0.26364 0.40525 0.88549 0.0
N1338 N 0.27872 0.36277 0.9638 0.0
N1339 N 0.27093 0.45304 0.88313 0.0
H1340 H 0.25094 0.3843 0.83565 0.0
H1341 H 0.24995 0.41897 0.83369 0.0
H1342 H 0.27383 0.47229 0.895 0.0
H1343 H 0.27232 0.45203 0.85524 0.0
H1344 H 0.28571 0.36382 0.99117 0.0
H1345 H 0.27965 0.34357 0.95163 0.0
H1346 H 0.26827 0.3974 0.01516 0.0
H1347 H 0.27214 0.432 0.01313 0.0
C1348 C 0.61706 0.25745 0.86087 0.0
C1349 C 0.64257 0.26672 0.87581 0.0
C1350 C 0.62476 0.27717 0.93437 0.0
C1351 C 0.59891 0.26933 0.91883 0.0
N1352 N 0.56935 0.25609 0.86619 0.0
N1353 N 0.67017 0.28927 0.92456 0.0
C1354 C 0.59475 0.26062 0.88172 0.0
C1355 C 0.64625 0.27775 0.91194 0.0
N1356 N 0.61431 0.24501 0.82706 0.0
N1357 N 0.62894 0.28314 0.97084 0.0
H1358 H 0.68652 0.28956 0.90919 0.0
H1359 H 0.67328 0.30031 0.94912 0.0
H1360 H 0.61365 0.28338 0.98803 0.0
H1361 H 0.64777 0.28595 0.98462 0.0
H1362 H 0.59703 0.23504 0.81619 0.0
H1363 H 0.63001 0.24299 0.81063 0.0
H1364 H 0.5646 0.25249 0.83846 0.0
H1365 H 0.5526 0.25802 0.88069 0.0
C1366 C 0.7692 0.61933 0.84863 0.0
C1367 C 0.74452 0.63226 0.84006 0.0
C1368 C 0.72098 0.59778 0.86935 0.0
C1369 C 0.74599 0.58752 0.88282 0.0
N1370 N 0.79401 0.58781 0.88622 0.0
N1371 N 0.69683 0.63459 0.84147 0.0
C1372 C 0.77017 0.5978 0.87224 0.0
C1373 C 0.72028 0.62147 0.84971 0.0
N1374 N 0.7916 0.62778 0.83418 0.0
N1375 N 0.69804 0.58481 0.8755 0.0
H1376 H 0.69554 0.65147 0.82594 0.0
H1377 H 0.67889 0.62966 0.85141 0.0
H1378 H 0.69803 0.56749 0.89011 0.0
H1379 H 0.67923 0.58979 0.86377 0.0
H1380 H 0.80971 0.6177 0.83653 0.0
H1381 H 0.79155 0.64381 0.81719 0.0
H1382 H 0.81241 0.59651 0.88323 0.0
H1383 H 0.79541 0.57138 0.90259 0.0
loop_
_geom_bond_atom_site_label_1
_geom_bond_atom_site_label_2
_geom_bond_distance
_geom_bond_site_symmetry_2
_ccdc_geom_bond_type
H0 C19 0.949 . S
H1 C20 0.950 . S
H2 C22 0.950 . S
H3 C23 0.950 . S
H4 C25 0.950 . S
H5 C28 0.950 . S
H6 C29 0.950 . S
H7 C31 0.951 . S
H8 C32 0.949 . S
H9 C34 0.949 . S
H10 C35 0.950 . S
H11 C37 0.950 . S
H12 C38 0.950 . S
H13 C40 0.950 . S
H14 C43 0.950 . S
H15 C44 0.950 . S
H16 C46 0.951 . S
H17 C47 0.949 . S
C18 C19 1.376 . S
C18 C23 1.386 . S
C18 C24 1.483 . S
C19 H0 0.949 . S
C19 C18 1.376 . S
C19 C20 1.397 . S
C20 H1 0.950 . S
C20 C19 1.397 . S
C20 C21 1.391 . S
C21 C20 1.391 . S
C21 C22 1.405 . S
C22 H2 0.950 . S
C22 C21 1.405 . S
C22 C23 1.367 . S
C23 H3 0.950 . S
C23 C18 1.386 . S
C23 C22 1.367 . S
C24 C18 1.483 . S
C24 C25 1.382 . S
C24 C26 1.403 . S
C25 H4 0.950 . S
C25 C24 1.382 . S
C25 C41 1.411 . S
C26 C24 1.403 . S
C26 C27 1.489 . S
C26 C40 1.411 . S
C27 C26 1.489 . S
C27 C28 1.383 . S
C27 C32 1.382 . S
C28 H5 0.950 . S
C28 C27 1.383 . S
C28 C29 1.395 . S
C29 H6 0.950 . S
C29 C28 1.395 . S
C29 C30 1.288 . S
C30 C29 1.288 . S
C30 C31 1.392 . S
C31 H7 0.951 . S
C31 C30 1.392 . S
C31 C32 1.392 . S
C32 H8 0.949 . S
C32 C27 1.382 . S
C32 C31 1.392 . S
C33 C34 1.376 . S
C33 C38 1.386 . S
C33 C39 1.483 . S
C34 H9 0.949 . S
C34 C33 1.376 . S
C34 C35 1.397 . S
C35 H10 0.950 . S
C35 C34 1.397 . S
C35 C36 1.391 . S
C36 C35 1.391 . S
C36 C37 1.405 . S
C37 H11 0.950 . S
C37 C36 1.405 . S
C37 C38 1.367 . S
C38 H12 0.950 . S
C38 C33 1.386 . S
C38 C37 1.367 . S
C39 C33 1.483 . S
C39 C40 1.382 . S
C39 C41 1.403 . S
C40 H13 0.950 . S
C40 C26 1.411 . S
C40 C39 1.382 . S
C41 C25 1.411 . S
C41 C39 1.403 . S
C41 C42 1.489 . S
C42 C41 1.489 . S
C42 C43 1.383 . S
C42 C47 1.382 . S
C43 H14 0.950 . S
C43 C42 1.383 . S
C43 C44 1.395 . S
C44 H15 0.950 . S
C44 C43 1.395 . S
C44 C45 1.288 . S
C45 C44 1.288 . S
C45 C46 1.392 . S
C46 H16 0.951 . S
C46 C45 1.392 . S
C46 C47 1.392 . S
C47 H17 0.949 . S
C47 C42 1.382 . S
C47 C46 1.392 . S
H48 C67 0.949 . S
H49 C68 0.950 . S
H50 C70 0.950 . S
H51 C71 0.950 . S
H52 C73 0.950 . S
H53 C76 0.950 . S
H54 C77 0.950 . S
H55 C79 0.951 . S
H56 C80 0.949 . S
H57 C82 0.949 . S
H58 C83 0.950 . S
H59 C85 0.950 . S
H60 C86 0.950 . S
H61 C88 0.950 . S
H62 C91 0.950 . S
H63 C92 0.950 . S
H64 C94 0.951 . S
H65 C95 0.949 . S
C66 C67 1.376 . S
C66 C71 1.386 . S
C66 C72 1.483 . S
C67 H48 0.949 . S
C67 C66 1.376 . S
C67 C68 1.397 . S
C68 H49 0.950 . S
C68 C67 1.397 . S
C68 C69 1.391 . S
C69 C68 1.391 . S
C69 C70 1.405 . S
C70 H50 0.950 . S
C70 C69 1.405 . S
C70 C71 1.367 . S
C71 H51 0.950 . S
C71 C66 1.386 . S
C71 C70 1.367 . S
C72 C66 1.483 . S
C72 C73 1.382 . S
C72 C74 1.403 . S
C73 H52 0.950 . S
C73 C72 1.382 . S
C73 C89 1.411 . S
C74 C72 1.403 . S
C74 C75 1.489 . S
C74 C88 1.411 . S
C75 C74 1.489 . S
C75 C76 1.383 . S
C75 C80 1.382 . S
C76 H53 0.950 . S
C76 C75 1.383 . S
C76 C77 1.395 . S
C77 H54 0.950 . S
C77 C76 1.395 . S
C77 C78 1.288 . S
C78 C77 1.288 . S
C78 C79 1.392 . S
C79 H55 0.951 . S
C79 C78 1.392 . S
C79 C80 1.392 . S
C80 H56 0.949 . S
C80 C75 1.382 . S
C80 C79 1.392 . S
C81 C82 1.376 . S
C81 C86 1.386 . S
C81 C87 1.483 . S
C82 H57 0.949 . S
C82 C81 1.376 . S
C82 C83 1.397 . S
C83 H58 0.950 . S
C83 C82 1.397 . S
C83 C84 1.391 . S
C84 C83 1.391 . S
C84 C85 1.405 . S
C85 H59 0.950 . S
C85 C84 1.405 . S
C85 C86 1.367 . S
C86 H60 0.950 . S
C86 C81 1.386 . S
C86 C85 1.367 . S
C87 C81 1.483 . S
C87 C88 1.382 . S
C87 C89 1.403 . S
C88 H61 0.950 . S
C88 C74 1.411 . S
C88 C87 1.382 . S
C89 C73 1.411 . S
C89 C87 1.403 . S
C89 C90 1.489 . S
C90 C89 1.489 . S
C90 C91 1.383 . S
C90 C95 1.382 . S
C91 H62 0.950 . S
C91 C90 1.383 . S
C91 C92 1.395 . S
C92 H63 0.950 . S
C92 C91 1.395 . S
C92 C93 1.288 . S
C93 C92 1.288 . S
C93 C94 1.392 . S
C94 H64 0.951 . S
C94 C93 1.392 . S
C94 C95 1.392 . S
C95 H65 0.949 . S
C95 C90 1.382 . S
C95 C94 1.392 . S
H96 C115 0.949 . S
H97 C116 0.950 . S
H98 C118 0.950 . S
H99 C119 0.950 . S
H100 C121 0.950 . S
H101 C124 0.950 . S
H102 C125 0.950 . S
H103 C127 0.951 . S
H104 C128 0.949 . S
H105 C130 0.949 . S
H106 C131 0.950 . S
H107 C133 0.950 . S
H108 C134 0.950 . S
H109 C136 0.950 . S
H110 C139 0.950 . S
H111 C140 0.950 . S
H112 C142 0.951 . S
H113 C143 0.949 . S
C114 C115 1.376 . S
C114 C119 1.386 . S
C114 C120 1.483 . S
C115 H96 0.949 . S
C115 C114 1.376 . S
C115 C116 1.397 . S
C116 H97 0.950 . S
C116 C115 1.397 . S
C116 C117 1.391 . S
C117 C116 1.391 . S
C117 C118 1.405 . S
C118 H98 0.950 . S
C118 C117 1.405 . S
C118 C119 1.367 . S
C119 H99 0.950 . S
C119 C114 1.386 . S
C119 C118 1.367 . S
C120 C114 1.483 . S
C120 C121 1.382 . S
C120 C122 1.403 . S
C121 H100 0.950 . S
C121 C120 1.382 . S
C121 C137 1.411 . S
C122 C120 1.403 . S
C122 C123 1.489 . S
C122 C136 1.411 . S
C123 C122 1.489 . S
C123 C124 1.383 . S
C123 C128 1.382 . S
C124 H101 0.950 . S
C124 C123 1.383 . S
C124 C125 1.395 . S
C125 H102 0.950 . S
C125 C124 1.395 . S
C125 C126 1.288 . S
C126 C125 1.288 . S
C126 C127 1.392 . S
C127 H103 0.951 . S
C127 C126 1.392 . S
C127 C128 1.392 . S
C128 H104 0.949 . S
C128 C123 1.382 . S
C128 C127 1.392 . S
C129 C130 1.376 . S
C129 C134 1.386 . S
C129 C135 1.483 . S
C130 H105 0.949 . S
C130 C129 1.376 . S
C130 C131 1.397 . S
C131 H106 0.950 . S
C131 C130 1.397 . S
C131 C132 1.391 . S
C132 C131 1.391 . S
C132 C133 1.405 . S
C133 H107 0.950 . S
C133 C132 1.405 . S
C133 C134 1.367 . S
C134 H108 0.950 . S
C134 C129 1.386 . S
C134 C133 1.367 . S
C135 C129 1.483 . S
C135 C136 1.382 . S
C135 C137 1.403 . S
C136 H109 0.950 . S
C136 C122 1.411 . S
C136 C135 1.382 . S
C137 C121 1.411 . S
C137 C135 1.403 . S
C137 C138 1.489 . S
C138 C137 1.489 . S
C138 C139 1.383 . S
C138 C143 1.382 . S
C139 H110 0.950 . S
C139 C138 1.383 . S
C139 C140 1.395 . S
C140 H111 0.950 . S
C140 C139 1.395 . S
C140 C141 1.288 . S
C141 C140 1.288 . S
C141 C142 1.392 . S
C142 H112 0.951 . S
C142 C141 1.392 . S
C142 C143 1.392 . S
C143 H113 0.949 . S
C143 C138 1.382 . S
C143 C142 1.392 . S
H144 C163 0.949 . S
H145 C164 0.950 . S
H146 C166 0.950 . S
H147 C167 0.950 . S
H148 C169 0.950 . S
H149 C172 0.950 . S
H150 C173 0.950 . S
H151 C175 0.951 . S
H152 C176 0.949 . S
H153 C178 0.949 . S
H154 C179 0.950 . S
H155 C181 0.950 . S
H156 C182 0.950 . S
H157 C184 0.950 . S
H158 C187 0.950 . S
H159 C188 0.950 . S
H160 C190 0.951 . S
H161 C191 0.949 . S
C162 C163 1.376 . S
C162 C167 1.386 . S
C162 C168 1.483 . S
C163 H144 0.949 . S
C163 C162 1.376 . S
C163 C164 1.397 . S
C164 H145 0.950 . S
C164 C163 1.397 . S
C164 C165 1.391 . S
C165 C164 1.391 . S
C165 C166 1.405 . S
C166 H146 0.950 . S
C166 C165 1.405 . S
C166 C167 1.367 . S
C167 H147 0.950 . S
C167 C162 1.386 . S
C167 C166 1.367 . S
C168 C162 1.483 . S
C168 C169 1.382 . S
C168 C170 1.403 . S
C169 H148 0.950 . S
C169 C168 1.382 . S
C169 C185 1.411 . S
C170 C168 1.403 . S
C170 C171 1.489 . S
C170 C184 1.411 . S
C171 C170 1.489 . S
C171 C172 1.383 . S
C171 C176 1.382 . S
C172 H149 0.950 . S
C172 C171 1.383 . S
C172 C173 1.395 . S
C173 H150 0.950 . S
C173 C172 1.395 . S
C173 C174 1.288 . S
C174 C173 1.288 . S
C174 C175 1.392 . S
C175 H151 0.951 . S
C175 C174 1.392 . S
C175 C176 1.392 . S
C176 H152 0.949 . S
C176 C171 1.382 . S
C176 C175 1.392 . S
C177 C178 1.376 . S
C177 C182 1.386 . S
C177 C183 1.483 . S
C178 H153 0.949 . S
C178 C177 1.376 . S
C178 C179 1.397 . S
C179 H154 0.950 . S
C179 C178 1.397 . S
C179 C180 1.391 . S
C180 C179 1.391 . S
C180 C181 1.405 . S
C181 H155 0.950 . S
C181 C180 1.405 . S
C181 C182 1.367 . S
C182 H156 0.950 . S
C182 C177 1.386 . S
C182 C181 1.367 . S
C183 C177 1.483 . S
C183 C184 1.382 . S
C183 C185 1.403 . S
C184 H157 0.950 . S
C184 C170 1.411 . S
C184 C183 1.382 . S
C185 C169 1.411 . S
C185 C183 1.403 . S
C185 C186 1.489 . S
C186 C185 1.489 . S
C186 C187 1.383 . S
C186 C191 1.382 . S
C187 H158 0.950 . S
C187 C186 1.383 . S
C187 C188 1.395 . S
C188 H159 0.950 . S
C188 C187 1.395 . S
C188 C189 1.288 . S
C189 C188 1.288 . S
C189 C190 1.392 . S
C190 H160 0.951 . S
C190 C189 1.392 . S
C190 C191 1.392 . S
C191 H161 0.949 . S
C191 C186 1.382 . S
C191 C190 1.392 . S
H192 C211 0.949 . S
H193 C212 0.950 . S
H194 C214 0.950 . S
H195 C215 0.950 . S
H196 C217 0.950 . S
H197 C220 0.950 . S
H198 C221 0.950 . S
H199 C223 0.951 . S
H200 C224 0.949 . S
H201 C226 0.949 . S
H202 C227 0.950 . S
H203 C229 0.950 . S
H204 C230 0.950 . S
H205 C232 0.950 . S
H206 C235 0.950 . S
H207 C236 0.950 . S
H208 C238 0.951 . S
H209 C239 0.949 . S
C210 C211 1.376 . S
C210 C215 1.386 . S
C210 C216 1.483 . S
C211 H192 0.949 . S
C211 C210 1.376 . S
C211 C212 1.397 . S
C212 H193 0.950 . S
C212 C211 1.397 . S
C212 C213 1.391 . S
C213 C212 1.391 . S
C213 C214 1.405 . S
C214 H194 0.950 . S
C214 C213 1.405 . S
C214 C215 1.367 . S
C215 H195 0.950 . S
C215 C210 1.386 . S
C215 C214 1.367 . S
C216 C210 1.483 . S
C216 C217 1.382 . S
C216 C218 1.403 . S
C217 H196 0.950 . S
C217 C216 1.382 . S
C217 C233 1.411 . S
C218 C216 1.403 . S
C218 C219 1.489 . S
C218 C232 1.411 . S
C219 C218 1.489 . S
C219 C220 1.383 . S
C219 C224 1.382 . S
C220 H197 0.950 . S
C220 C219 1.383 . S
C220 C221 1.395 . S
C221 H198 0.950 . S
C221 C220 1.395 . S
C221 C222 1.288 . S
C222 C221 1.288 . S
C222 C223 1.392 . S
C223 H199 0.951 . S
C223 C222 1.392 . S
C223 C224 1.392 . S
C224 H200 0.949 . S
C224 C219 1.382 . S
C224 C223 1.392 . S
C225 C226 1.376 . S
C225 C230 1.386 . S
C225 C231 1.483 . S
C226 H201 0.949 . S
C226 C225 1.376 . S
C226 C227 1.397 . S
C227 H202 0.950 . S
C227 C226 1.397 . S
C227 C228 1.391 . S
C228 C227 1.391 . S
C228 C229 1.405 . S
C229 H203 0.950 . S
C229 C228 1.405 . S
C229 C230 1.367 . S
C230 H204 0.950 . S
C230 C225 1.386 . S
C230 C229 1.367 . S
C231 C225 1.483 . S
C231 C232 1.382 . S
C231 C233 1.403 . S
C232 H205 0.950 . S
C232 C218 1.411 . S
C232 C231 1.382 . S
C233 C217 1.411 . S
C233 C231 1.403 . S
C233 C234 1.489 . S
C234 C233 1.489 . S
C234 C235 1.383 . S
C234 C239 1.382 . S
C235 H206 0.950 . S
C235 C234 1.383 . S
C235 C236 1.395 . S
C236 H207 0.950 . S
C236 C235 1.395 . S
C236 C237 1.288 . S
C237 C236 1.288 . S
C237 C238 1.392 . S
C238 H208 0.951 . S
C238 C237 1.392 . S
C238 C239 1.392 . S
C239 H209 0.949 . S
C239 C234 1.382 . S
C239 C238 1.392 . S
H240 C259 0.949 . S
H241 C260 0.950 . S
H242 C262 0.950 . S
H243 C263 0.950 . S
H244 C265 0.950 . S
H245 C268 0.950 . S
H246 C269 0.950 . S
H247 C271 0.951 . S
H248 C272 0.949 . S
H249 C274 0.949 . S
H250 C275 0.950 . S
H251 C277 0.950 . S
H252 C278 0.950 . S
H253 C280 0.950 . S
H254 C283 0.950 . S
H255 C284 0.950 . S
H256 C286 0.951 . S
H257 C287 0.949 . S
C258 C259 1.376 . S
C258 C263 1.386 . S
C258 C264 1.483 . S
C259 H240 0.949 . S
C259 C258 1.376 . S
C259 C260 1.397 . S
C260 H241 0.950 . S
C260 C259 1.397 . S
C260 C261 1.391 . S
C261 C260 1.391 . S
C261 C262 1.405 . S
C262 H242 0.950 . S
C262 C261 1.405 . S
C262 C263 1.367 . S
C263 H243 0.950 . S
C263 C258 1.386 . S
C263 C262 1.367 . S
C264 C258 1.483 . S
C264 C265 1.382 . S
C264 C266 1.403 . S
C265 H244 0.950 . S
C265 C264 1.382 . S
C265 C281 1.411 . S
C266 C264 1.403 . S
C266 C267 1.489 . S
C266 C280 1.411 . S
C267 C266 1.489 . S
C267 C268 1.383 . S
C267 C272 1.382 . S
C268 H245 0.950 . S
C268 C267 1.383 . S
C268 C269 1.395 . S
C269 H246 0.950 . S
C269 C268 1.395 . S
C269 C270 1.288 . S
C270 C269 1.288 . S
C270 C271 1.392 . S
C271 H247 0.951 . S
C271 C270 1.392 . S
C271 C272 1.392 . S
C272 H248 0.949 . S
C272 C267 1.382 . S
C272 C271 1.392 . S
C273 C274 1.376 . S
C273 C278 1.386 . S
C273 C279 1.483 . S
C274 H249 0.949 . S
C274 C273 1.376 . S
C274 C275 1.397 . S
C275 H250 0.950 . S
C275 C274 1.397 . S
C275 C276 1.391 . S
C276 C275 1.391 . S
C276 C277 1.405 . S
C277 H251 0.950 . S
C277 C276 1.405 . S
C277 C278 1.367 . S
C278 H252 0.950 . S
C278 C273 1.386 . S
C278 C277 1.367 . S
C279 C273 1.483 . S
C279 C280 1.382 . S
C279 C281 1.403 . S
C280 H253 0.950 . S
C280 C266 1.411 . S
C280 C279 1.382 . S
C281 C265 1.411 . S
C281 C279 1.403 . S
C281 C282 1.489 . S
C282 C281 1.489 . S
C282 C283 1.383 . S
C282 C287 1.382 . S
C283 H254 0.950 . S
C283 C282 1.383 . S
C283 C284 1.395 . S
C284 H255 0.950 . S
C284 C283 1.395 . S
C284 C285 1.288 . S
C285 C284 1.288 . S
C285 C286 1.392 . S
C286 H256 0.951 . S
C286 C285 1.392 . S
C286 C287 1.392 . S
C287 H257 0.949 . S
C287 C282 1.382 . S
C287 C286 1.392 . S
H288 C307 0.949 . S
H289 C308 0.950 . S
H290 C310 0.950 . S
H291 C311 0.950 . S
H292 C313 0.950 . S
H293 C316 0.950 . S
H294 C317 0.950 . S
H295 C319 0.951 . S
H296 C320 0.949 . S
H297 C322 0.949 . S
H298 C323 0.950 . S
H299 C325 0.950 . S
H300 C326 0.950 . S
H301 C328 0.950 . S
H302 C331 0.950 . S
H303 C332 0.950 . S
H304 C334 0.951 . S
H305 C335 0.949 . S
C306 C307 1.376 . S
C306 C311 1.386 . S
C306 C312 1.483 . S
C307 H288 0.949 . S
C307 C306 1.376 . S
C307 C308 1.397 . S
C308 H289 0.950 . S
C308 C307 1.397 . S
C308 C309 1.391 . S
C309 C308 1.391 . S
C309 C310 1.405 . S
C310 H290 0.950 . S
C310 C309 1.405 . S
C310 C311 1.367 . S
C311 H291 0.950 . S
C311 C306 1.386 . S
C311 C310 1.367 . S
C312 C306 1.483 . S
C312 C313 1.382 . S
C312 C314 1.403 . S
C313 H292 0.950 . S
C313 C312 1.382 . S
C313 C329 1.411 . S
C314 C312 1.403 . S
C314 C315 1.489 . S
C314 C328 1.411 . S
C315 C314 1.489 . S
C315 C316 1.383 . S
C315 C320 1.382 . S
C316 H293 0.950 . S
C316 C315 1.383 . S
C316 C317 1.395 . S
C317 H294 0.950 . S
C317 C316 1.395 . S
C317 C318 1.288 . S
C318 C317 1.288 . S
C318 C319 1.392 . S
C319 H295 0.951 . S
C319 C318 1.392 . S
C319 C320 1.392 . S
C320 H296 0.949 . S
C320 C315 1.382 . S
C320 C319 1.392 . S
C321 C322 1.376 . S
C321 C326 1.386 . S
C321 C327 1.483 . S
C322 H297 0.949 . S
C322 C321 1.376 . S
C322 C323 1.397 . S
C323 H298 0.950 . S
C323 C322 1.397 . S
C323 C324 1.391 . S
C324 C323 1.391 . S
C324 C325 1.405 . S
C325 H299 0.950 . S
C325 C324 1.405 . S
C325 C326 1.367 . S
C326 H300 0.950 . S
C326 C321 1.386 . S
C326 C325 1.367 . S
C327 C321 1.483 . S
C327 C328 1.382 . S
C327 C329 1.403 . S
C328 H301 0.950 . S
C328 C314 1.411 . S
C328 C327 1.382 . S
C329 C313 1.411 . S
C329 C327 1.403 . S
C329 C330 1.489 . S
C330 C329 1.489 . S
C330 C331 1.383 . S
C330 C335 1.382 . S
C331 H302 0.950 . S
C331 C330 1.383 . S
C331 C332 1.395 . S
C332 H303 0.950 . S
C332 C331 1.395 . S
C332 C333 1.288 . S
C333 C332 1.288 . S
C333 C334 1.392 . S
C334 H304 0.951 . S
C334 C333 1.392 . S
C334 C335 1.392 . S
C335 H305 0.949 . S
C335 C330 1.382 . S
C335 C334 1.392 . S
H336 C355 0.949 . S
H337 C356 0.950 . S
H338 C358 0.950 . S
H339 C359 0.950 . S
H340 C361 0.950 . S
H341 C364 0.950 . S
H342 C365 0.950 . S
H343 C367 0.951 . S
H344 C368 0.949 . S
H345 C370 0.949 . S
H346 C371 0.950 . S
H347 C373 0.950 . S
H348 C374 0.950 . S
H349 C376 0.950 . S
H350 C379 0.950 . S
H351 C380 0.950 . S
H352 C382 0.951 . S
H353 C383 0.949 . S
C354 C355 1.376 . S
C354 C359 1.386 . S
C354 C360 1.483 . S
C355 H336 0.949 . S
C355 C354 1.376 . S
C355 C356 1.397 . S
C356 H337 0.950 . S
C356 C355 1.397 . S
C356 C357 1.391 . S
C357 C356 1.391 . S
C357 C358 1.405 . S
C358 H338 0.950 . S
C358 C357 1.405 . S
C358 C359 1.367 . S
C359 H339 0.950 . S
C359 C354 1.386 . S
C359 C358 1.367 . S
C360 C354 1.483 . S
C360 C361 1.382 . S
C360 C362 1.403 . S
C361 H340 0.950 . S
C361 C360 1.382 . S
C361 C377 1.411 . S
C362 C360 1.403 . S
C362 C363 1.489 . S
C362 C376 1.411 . S
C363 C362 1.489 . S
C363 C364 1.383 . S
C363 C368 1.382 . S
C364 H341 0.950 . S
C364 C363 1.383 . S
C364 C365 1.395 . S
C365 H342 0.950 . S
C365 C364 1.395 . S
C365 C366 1.288 . S
C366 C365 1.288 . S
C366 C367 1.392 . S
C367 H343 0.951 . S
C367 C366 1.392 . S
C367 C368 1.392 . S
C368 H344 0.949 . S
C368 C363 1.382 . S
C368 C367 1.392 . S
C369 C370 1.376 . S
C369 C374 1.386 . S
C369 C375 1.483 . S
C370 H345 0.949 . S
C370 C369 1.376 . S
C370 C371 1.397 . S
C371 H346 0.950 . S
C371 C370 1.397 . S
C371 C372 1.391 . S
C372 C371 1.391 . S
C372 C373 1.405 . S
C373 H347 0.950 . S
C373 C372 1.405 . S
C373 C374 1.367 . S
C374 H348 0.950 . S
C374 C369 1.386 . S
C374 C373 1.367 . S
C375 C369 1.483 . S
C375 C376 1.382 . S
C375 C377 1.403 . S
C376 H349 0.950 . S
C376 C362 1.411 . S
C376 C375 1.382 . S
C377 C361 1.411 . S
C377 C375 1.403 . S
C377 C378 1.489 . S
C378 C377 1.489 . S
C378 C379 1.383 . S
C378 C383 1.382 . S
C379 H350 0.950 . S
C379 C378 1.383 . S
C379 C380 1.395 . S
C380 H351 0.950 . S
C380 C379 1.395 . S
C380 C381 1.288 . S
C381 C380 1.288 . S
C381 C382 1.392 . S
C382 H352 0.951 . S
C382 C381 1.392 . S
C382 C383 1.392 . S
C383 H353 0.949 . S
C383 C378 1.382 . S
C383 C382 1.392 . S
C384 C385 1.443 . S
C384 N388 1.376 . S
C384 C422 1.389 . S
C385 C384 1.443 . S
C385 C386 1.340 . S
C385 H425 0.951 . S
C386 C385 1.340 . S
C386 C387 1.439 . S
C386 H426 0.950 . S
C387 C386 1.439 . S
C387 N388 1.374 . S
C387 C421 1.395 . S
N388 C384 1.376 . S
N388 C387 1.374 . S
N388 Co389 2.008 . S
Co389 N388 2.008 . S
Co389 N390 1.995 1_455 S
Co389 N395 2.008 1_455 S
Co389 N400 1.995 . S
Co389 N405 2.282 1_455 S
Co389 N411 2.282 . S
N390 Co389 1.995 1_655 S
N390 C391 1.376 . S
N390 C394 1.383 . S
C391 N390 1.376 . S
C391 C392 1.446 . S
C391 C421 1.391 1_655 S
C392 C391 1.446 . S
C392 C393 1.339 . S
C392 H427 0.949 . S
C393 C392 1.339 . S
C393 C394 1.439 . S
C393 H428 0.950 . S
C394 N390 1.383 . S
C394 C393 1.439 . S
C394 C423 1.392 . S
N395 Co389 2.008 1_655 S
N395 C396 1.376 . S
N395 C399 1.374 . S
C396 N395 1.376 . S
C396 C397 1.443 . S
C396 C423 1.389 . S
C397 C396 1.443 . S
C397 C398 1.340 . S
C397 H429 0.951 . S
C398 C397 1.340 . S
C398 C399 1.439 . S
C398 H430 0.950 . S
C399 N395 1.374 . S
C399 C398 1.439 . S
C399 C424 1.396 . S
N400 Co389 1.995 . S
N400 C401 1.376 . S
N400 C404 1.383 . S
C401 N400 1.376 . S
C401 C402 1.446 . S
C401 C424 1.390 1_455 S
C402 C401 1.446 . S
C402 C403 1.339 . S
C402 H431 0.949 . S
C403 C402 1.339 . S
C403 C404 1.439 . S
C403 H432 0.950 . S
C404 N400 1.383 . S
C404 C403 1.439 . S
C404 C422 1.392 . S
N405 Co389 2.282 1_655 S
N405 C408 1.332 . S
N405 C410 1.332 . S
C406 C407 1.386 . S
C406 C409 1.388 . S
C407 C406 1.386 . S
C407 C408 1.382 . S
C407 H433 0.950 . S
C408 N405 1.332 . S
C408 C407 1.382 . S
C408 H419 0.952 . S
C409 C406 1.388 . S
C409 C410 1.382 . S
C409 H434 0.950 . S
C410 N405 1.332 . S
C410 C409 1.382 . S
C410 H420 0.948 . S
N411 Co389 2.282 . S
N411 C415 1.332 . S
N411 C416 1.332 . S
C412 C413 1.388 . S
C412 C416 1.382 . S
C412 H435 0.950 . S
C413 C412 1.388 . S
C413 C414 1.386 . S
C414 C413 1.386 . S
C414 C415 1.382 . S
C414 H436 0.950 . S
C415 N411 1.332 . S
C415 C414 1.382 . S
C415 H417 0.952 . S
C416 N411 1.332 . S
C416 C412 1.382 . S
C416 H418 0.948 . S
H417 C415 0.952 . S
H418 C416 0.948 . S
H419 C408 0.952 . S
H420 C410 0.948 . S
C421 C387 1.395 . S
C421 C391 1.391 1_455 S
C422 C384 1.389 . S
C422 C404 1.392 . S
C423 C394 1.392 . S
C423 C396 1.389 . S
C424 C399 1.396 . S
C424 C401 1.390 1_655 S
H425 C385 0.951 . S
H426 C386 0.950 . S
H427 C392 0.949 . S
H428 C393 0.950 . S
H429 C397 0.951 . S
H430 C398 0.950 . S
H431 C402 0.949 . S
H432 C403 0.950 . S
H433 C407 0.950 . S
H434 C409 0.950 . S
H435 C412 0.950 . S
H436 C414 0.950 . S
C437 C438 1.443 . S
C437 N441 1.376 . S
C437 C475 1.389 . S
C438 C437 1.443 . S
C438 C439 1.340 . S
C438 H478 0.951 . S
C439 C438 1.340 . S
C439 C440 1.439 . S
C439 H479 0.950 . S
C440 C439 1.439 . S
C440 N441 1.374 . S
C440 C474 1.395 . S
N441 C437 1.376 . S
N441 C440 1.374 . S
N441 Co442 2.008 . S
Co442 N441 2.008 . S
Co442 N443 1.995 1_545 S
Co442 N448 2.008 1_545 S
Co442 N453 1.995 . S
Co442 N458 2.282 1_545 S
Co442 N464 2.282 . S
N443 Co442 1.995 1_565 S
N443 C444 1.376 . S
N443 C447 1.383 . S
C444 N443 1.376 . S
C444 C445 1.446 . S
C444 C474 1.391 1_565 S
C445 C444 1.446 . S
C445 C446 1.339 . S
C445 H480 0.949 . S
C446 C445 1.339 . S
C446 C447 1.439 . S
C446 H481 0.950 . S
C447 N443 1.383 . S
C447 C446 1.439 . S
C447 C476 1.392 . S
N448 Co442 2.008 1_565 S
N448 C449 1.376 . S
N448 C452 1.374 . S
C449 N448 1.376 . S
C449 C450 1.443 . S
C449 C476 1.389 . S
C450 C449 1.443 . S
C450 C451 1.340 . S
C450 H482 0.951 . S
C451 C450 1.340 . S
C451 C452 1.439 . S
C451 H483 0.950 . S
C452 N448 1.374 . S
C452 C451 1.439 . S
C452 C477 1.378 1_565 S
N453 Co442 1.995 . S
N453 C454 1.376 . S
N453 C457 1.383 . S
C454 N453 1.376 . S
C454 C455 1.446 . S
C454 C477 1.410 . S
C455 C454 1.446 . S
C455 C456 1.339 . S
C455 H484 0.949 . S
C456 C455 1.339 . S
C456 C457 1.439 . S
C456 H485 0.950 . S
C457 N453 1.383 . S
C457 C456 1.439 . S
C457 C475 1.392 . S
N458 Co442 2.282 1_565 S
N458 C461 1.332 . S
N458 C463 1.332 . S
C459 C460 1.386 . S
C459 C462 1.388 . S
C460 C459 1.386 . S
C460 C461 1.382 . S
C460 H486 0.950 . S
C461 N458 1.332 . S
C461 C460 1.382 . S
C461 H472 0.952 . S
C462 C459 1.388 . S
C462 C463 1.382 . S
C462 H487 0.950 . S
C463 N458 1.332 . S
C463 C462 1.382 . S
C463 H473 0.948 . S
N464 Co442 2.282 . S
N464 C468 1.332 . S
N464 C469 1.332 . S
C465 C466 1.388 . S
C465 C469 1.382 . S
C465 H488 0.950 . S
C466 C465 1.388 . S
C466 C467 1.386 . S
C467 C466 1.386 . S
C467 C468 1.382 . S
C467 H489 0.950 . S
C468 N464 1.332 . S
C468 C467 1.382 . S
C468 H470 0.952 . S
C469 N464 1.332 . S
C469 C465 1.382 . S
C469 H471 0.948 . S
H470 C468 0.952 . S
H471 C469 0.948 . S
H472 C461 0.952 . S
H473 C463 0.948 . S
C474 C440 1.395 . S
C474 C444 1.391 1_545 S
C475 C437 1.389 . S
C475 C457 1.392 . S
C476 C447 1.392 . S
C476 C449 1.389 . S
C477 C452 1.378 1_545 S
C477 C454 1.410 . S
H478 C438 0.951 . S
H479 C439 0.950 . S
H480 C445 0.949 . S
H481 C446 0.950 . S
H482 C450 0.951 . S
H483 C451 0.950 . S
H484 C455 0.949 . S
H485 C456 0.950 . S
H486 C460 0.950 . S
H487 C462 0.950 . S
H488 C465 0.950 . S
H489 C467 0.950 . S
C490 C491 1.443 . S
C490 N494 1.376 . S
C490 C528 1.389 . S
C491 C490 1.443 . S
C491 C492 1.340 . S
C491 H531 0.951 . S
C492 C491 1.340 . S
C492 C493 1.439 . S
C492 H532 0.950 . S
C493 C492 1.439 . S
C493 N494 1.374 . S
C493 C527 1.395 . S
N494 C490 1.376 . S
N494 C493 1.374 . S
N494 Co495 2.008 . S
Co495 N494 2.008 . S
Co495 N496 1.995 1_455 S
Co495 N501 2.008 1_455 S
Co495 N506 1.995 . S
Co495 N511 2.282 1_455 S
Co495 N517 2.282 . S
N496 Co495 1.995 1_655 S
N496 C497 1.376 . S
N496 C500 1.383 . S
C497 N496 1.376 . S
C497 C498 1.446 . S
C497 C527 1.391 1_655 S
C498 C497 1.446 . S
C498 C499 1.339 . S
C498 H533 0.949 . S
C499 C498 1.339 . S
C499 C500 1.439 . S
C499 H534 0.950 . S
C500 N496 1.383 . S
C500 C499 1.439 . S
C500 C529 1.392 . S
N501 Co495 2.008 1_655 S
N501 C502 1.376 . S
N501 C505 1.374 . S
C502 N501 1.376 . S
C502 C503 1.443 . S
C502 C529 1.389 . S
C503 C502 1.443 . S
C503 C504 1.340 . S
C503 H535 0.951 . S
C504 C503 1.340 . S
C504 C505 1.439 . S
C504 H536 0.950 . S
C505 N501 1.374 . S
C505 C504 1.439 . S
C505 C530 1.395 . S
N506 Co495 1.995 . S
N506 C507 1.376 . S
N506 C510 1.383 . S
C507 N506 1.376 . S
C507 C508 1.446 . S
C507 C530 1.391 1_455 S
C508 C507 1.446 . S
C508 C509 1.339 . S
C508 H537 0.949 . S
C509 C508 1.339 . S
C509 C510 1.439 . S
C509 H538 0.950 . S
C510 N506 1.383 . S
C510 C509 1.439 . S
C510 C528 1.392 . S
N511 Co495 2.282 1_655 S
N511 C514 1.332 . S
N511 C516 1.332 . S
C512 C513 1.386 . S
C512 C515 1.388 . S
C513 C512 1.386 . S
C513 C514 1.382 . S
C513 H539 0.950 . S
C514 N511 1.332 . S
C514 C513 1.382 . S
C514 H525 0.952 . S
C515 C512 1.388 . S
C515 C516 1.382 . S
C515 H540 0.950 . S
C516 N511 1.332 . S
C516 C515 1.382 . S
C516 H526 0.948 . S
N517 Co495 2.282 . S
N517 C521 1.332 . S
N517 C522 1.332 . S
C518 C519 1.388 . S
C518 C522 1.382 . S
C518 H541 0.950 . S
C519 C518 1.388 . S
C519 C520 1.386 . S
C520 C519 1.386 . S
C520 C521 1.382 . S
C520 H542 0.950 . S
C521 N517 1.332 . S
C521 C520 1.382 . S
C521 H523 0.952 . S
C522 N517 1.332 . S
C522 C518 1.382 . S
C522 H524 0.948 . S
H523 C521 0.952 . S
H524 C522 0.948 . S
H525 C514 0.952 . S
H526 C516 0.948 . S
C527 C493 1.395 . S
C527 C497 1.391 1_455 S
C528 C490 1.389 . S
C528 C510 1.392 . S
C529 C500 1.392 . S
C529 C502 1.389 . S
C530 C505 1.395 . S
C530 C507 1.391 1_655 S
H531 C491 0.951 . S
H532 C492 0.950 . S
H533 C498 0.949 . S
H534 C499 0.950 . S
H535 C503 0.951 . S
H536 C504 0.950 . S
H537 C508 0.949 . S
H538 C509 0.950 . S
H539 C513 0.950 . S
H540 C515 0.950 . S
H541 C518 0.950 . S
H542 C520 0.950 . S
C543 C544 1.443 . S
C543 N547 1.376 . S
C543 C581 1.389 . S
C544 C543 1.443 . S
C544 C545 1.340 . S
C544 H584 0.951 . S
C545 C544 1.340 . S
C545 C546 1.439 . S
C545 H585 0.950 . S
C546 C545 1.439 . S
C546 N547 1.374 . S
C546 C580 1.402 . S
N547 C543 1.376 . S
N547 C546 1.374 . S
N547 Co548 2.008 1_565 S
Co548 N547 2.008 1_545 S
Co548 N549 1.995 . S
Co548 N554 2.008 . S
Co548 N559 1.995 1_545 S
Co548 N564 2.282 . S
Co548 N570 2.282 1_545 S
N549 Co548 1.995 . S
N549 C550 1.376 . S
N549 C553 1.383 . S
C550 N549 1.376 . S
C550 C551 1.446 . S
C550 C580 1.384 1_545 S
C551 C550 1.446 . S
C551 C552 1.339 . S
C551 H586 0.949 . S
C552 C551 1.339 . S
C552 C553 1.439 . S
C552 H587 0.950 . S
C553 N549 1.383 . S
C553 C552 1.439 . S
C553 C582 1.392 . S
N554 Co548 2.008 . S
N554 C555 1.376 . S
N554 C558 1.374 . S
C555 N554 1.376 . S
C555 C556 1.443 . S
C555 C582 1.389 . S
C556 C555 1.443 . S
C556 C557 1.340 . S
C556 H588 0.951 . S
C557 C556 1.340 . S
C557 C558 1.439 . S
C557 H589 0.950 . S
C558 N554 1.374 . S
C558 C557 1.439 . S
C558 C583 1.395 . S
N559 Co548 1.995 1_565 S
N559 C560 1.376 . S
N559 C563 1.383 . S
C560 N559 1.376 . S
C560 C561 1.446 . S
C560 C583 1.391 1_565 S
C561 C560 1.446 . S
C561 C562 1.339 . S
C561 H590 0.949 . S
C562 C561 1.339 . S
C562 C563 1.439 . S
C562 H591 0.950 . S
C563 N559 1.383 . S
C563 C562 1.439 . S
C563 C581 1.392 . S
N564 Co548 2.282 . S
N564 C567 1.332 . S
N564 C569 1.332 . S
C565 C566 1.386 . S
C565 C568 1.388 . S
C566 C565 1.386 . S
C566 C567 1.382 . S
C566 H592 0.950 . S
C567 N564 1.332 . S
C567 C566 1.382 . S
C567 H578 0.952 . S
C568 C565 1.388 . S
C568 C569 1.382 . S
C568 H593 0.950 . S
C569 N564 1.332 . S
C569 C568 1.382 . S
C569 H579 0.948 . S
N570 Co548 2.282 1_565 S
N570 C574 1.332 . S
N570 C575 1.332 . S
C571 C572 1.388 . S
C571 C575 1.382 . S
C571 H594 0.950 . S
C572 C571 1.388 . S
C572 C573 1.386 . S
C573 C572 1.386 . S
C573 C574 1.382 . S
C573 H595 0.950 . S
C574 N570 1.332 . S
C574 C573 1.382 . S
C574 H576 0.952 . S
C575 N570 1.332 . S
C575 C571 1.382 . S
C575 H577 0.948 . S
H576 C574 0.952 . S
H577 C575 0.948 . S
H578 C567 0.952 . S
H579 C569 0.948 . S
C580 C546 1.402 . S
C580 C550 1.384 1_565 S
C581 C543 1.389 . S
C581 C563 1.392 . S
C582 C553 1.392 . S
C582 C555 1.389 . S
C583 C558 1.395 . S
C583 C560 1.391 1_545 S
H584 C544 0.951 . S
H585 C545 0.950 . S
H586 C551 0.949 . S
H587 C552 0.950 . S
H588 C556 0.951 . S
H589 C557 0.950 . S
H590 C561 0.949 . S
H591 C562 0.950 . S
H592 C566 0.950 . S
H593 C568 0.950 . S
H594 C571 0.950 . S
H595 C573 0.950 . S
C596 C597 1.443 . S
C596 N600 1.376 . S
C596 C634 1.389 . S
C597 C596 1.443 . S
C597 C598 1.340 . S
C597 H637 0.951 . S
C598 C597 1.340 . S
C598 C599 1.439 . S
C598 H638 0.950 . S
C599 C598 1.439 . S
C599 N600 1.374 . S
C599 C633 1.390 1_554 S
N600 C596 1.376 . S
N600 C599 1.374 . S
N600 Co601 2.008 . S
Co601 N600 2.008 . S
Co601 N602 1.995 1_554 S
Co601 N607 2.008 1_554 S
Co601 N612 1.995 . S
Co601 N617 2.282 . S
Co601 N623 2.282 1_554 S
N602 Co601 1.995 1_556 S
N602 C603 1.376 . S
N602 C606 1.383 . S
C603 N602 1.376 . S
C603 C604 1.446 . S
C603 C633 1.396 . S
C604 C603 1.446 . S
C604 C605 1.339 . S
C604 H639 0.949 . S
C605 C604 1.339 . S
C605 C606 1.439 . S
C605 H640 0.950 . S
C606 N602 1.383 . S
C606 C605 1.439 . S
C606 C635 1.392 . S
N607 Co601 2.008 1_556 S
N607 C608 1.376 . S
N607 C611 1.374 . S
C608 N607 1.376 . S
C608 C609 1.443 . S
C608 C635 1.389 . S
C609 C608 1.443 . S
C609 C610 1.340 . S
C609 H641 0.951 . S
C610 C609 1.340 . S
C610 C611 1.439 . S
C610 H642 0.950 . S
C611 N607 1.374 . S
C611 C610 1.439 . S
C611 C636 1.386 1_556 S
N612 Co601 1.995 . S
N612 C613 1.376 . S
N612 C616 1.383 . S
C613 N612 1.376 . S
C613 C614 1.446 . S
C613 C636 1.400 . S
C614 C613 1.446 . S
C614 C615 1.339 . S
C614 H643 0.949 . S
C615 C614 1.339 . S
C615 C616 1.439 . S
C615 H644 0.950 . S
C616 N612 1.383 . S
C616 C615 1.439 . S
C616 C634 1.392 . S
N617 Co601 2.282 . S
N617 C620 1.332 . S
N617 C622 1.332 . S
C618 C619 1.386 . S
C618 C621 1.388 . S
C619 C618 1.386 . S
C619 C620 1.382 . S
C619 H645 0.950 . S
C620 N617 1.332 . S
C620 C619 1.382 . S
C620 H631 0.952 . S
C621 C618 1.388 . S
C621 C622 1.382 . S
C621 H646 0.950 . S
C622 N617 1.332 . S
C622 C621 1.382 . S
C622 H632 0.948 . S
N623 Co601 2.282 1_556 S
N623 C627 1.332 . S
N623 C628 1.332 . S
C624 C625 1.388 . S
C624 C628 1.382 . S
C624 H647 0.950 . S
C625 C624 1.388 . S
C625 C626 1.386 . S
C626 C625 1.386 . S
C626 C627 1.382 . S
C626 H648 0.950 . S
C627 N623 1.332 . S
C627 C626 1.382 . S
C627 H629 0.952 . S
C628 N623 1.332 . S
C628 C624 1.382 . S
C628 H630 0.948 . S
H629 C627 0.952 . S
H630 C628 0.948 . S
H631 C620 0.952 . S
H632 C622 0.948 . S
C633 C599 1.390 1_556 S
C633 C603 1.396 . S
C634 C596 1.389 . S
C634 C616 1.392 . S
C635 C606 1.392 . S
C635 C608 1.389 . S
C636 C611 1.386 1_554 S
C636 C613 1.400 . S
H637 C597 0.951 . S
H638 C598 0.950 . S
H639 C604 0.949 . S
H640 C605 0.950 . S
H641 C609 0.951 . S
H642 C610 0.950 . S
H643 C614 0.949 . S
H644 C615 0.950 . S
H645 C619 0.950 . S
H646 C621 0.950 . S
H647 C624 0.950 . S
H648 C626 0.950 . S
C649 C650 1.443 . S
C649 N653 1.376 . S
C649 C687 1.389 . S
C650 C649 1.443 . S
C650 C651 1.340 . S
C650 H690 0.951 . S
C651 C650 1.340 . S
C651 C652 1.439 . S
C651 H691 0.950 . S
C652 C651 1.439 . S
C652 N653 1.374 . S
C652 C686 1.395 . S
N653 C649 1.376 . S
N653 C652 1.374 . S
N653 Co654 2.008 . S
Co654 N653 2.008 . S
Co654 N655 1.995 1_554 S
Co654 N660 2.008 . S
Co654 N665 1.995 . S
Co654 N670 2.282 . S
Co654 N676 2.282 1_554 S
N655 Co654 1.995 1_556 S
N655 C656 1.376 . S
N655 C659 1.383 . S
C656 N655 1.376 . S
C656 C657 1.446 . S
C656 C686 1.391 1_556 S
C657 C656 1.446 . S
C657 C658 1.339 . S
C657 H692 0.949 . S
C658 C657 1.339 . S
C658 C659 1.439 . S
C658 H693 0.950 . S
C659 N655 1.383 . S
C659 C658 1.439 . S
C659 C688 1.392 . S
N660 Co654 2.008 . S
N660 C661 1.376 1_554 S
N660 C664 1.374 . S
C661 N660 1.376 1_556 S
C661 C662 1.443 . S
C661 C688 1.389 . S
C662 C661 1.443 . S
C662 C663 1.340 . S
C662 H694 0.951 . S
C663 C662 1.340 . S
C663 C664 1.439 1_556 S
C663 H695 0.950 1_556 S
C664 N660 1.374 . S
C664 C663 1.439 1_554 S
C664 C689 1.395 . S
N665 Co654 1.995 . S
N665 C666 1.376 . S
N665 C669 1.383 . S
C666 N665 1.376 . S
C666 C667 1.446 . S
C666 C689 1.391 . S
C667 C666 1.446 . S
C667 C668 1.339 . S
C667 H696 0.949 . S
C668 C667 1.339 . S
C668 C669 1.439 . S
C668 H697 0.950 . S
C669 N665 1.383 . S
C669 C668 1.439 . S
C669 C687 1.392 . S
N670 Co654 2.282 . S
N670 C673 1.332 . S
N670 C675 1.332 . S
C671 C672 1.386 . S
C671 C674 1.388 . S
C672 C671 1.386 . S
C672 C673 1.382 . S
C672 H698 0.950 . S
C673 N670 1.332 . S
C673 C672 1.382 . S
C673 H684 0.952 . S
C674 C671 1.388 . S
C674 C675 1.382 . S
C674 H699 0.950 . S
C675 N670 1.332 . S
C675 C674 1.382 . S
C675 H685 0.948 . S
N676 Co654 2.282 1_556 S
N676 C680 1.332 . S
N676 C681 1.332 . S
C677 C678 1.388 . S
C677 C681 1.382 . S
C677 H700 0.950 . S
C678 C677 1.388 . S
C678 C679 1.386 . S
C679 C678 1.386 . S
C679 C680 1.382 . S
C679 H701 0.950 . S
C680 N676 1.332 . S
C680 C679 1.382 . S
C680 H682 0.952 . S
C681 N676 1.332 . S
C681 C677 1.382 . S
C681 H683 0.948 . S
H682 C680 0.952 . S
H683 C681 0.948 . S
H684 C673 0.952 . S
H685 C675 0.948 . S
C686 C652 1.395 . S
C686 C656 1.391 1_554 S
C687 C649 1.389 . S
C687 C669 1.392 . S
C688 C659 1.392 . S
C688 C661 1.389 . S
C689 C664 1.395 . S
C689 C666 1.391 . S
H690 C650 0.951 . S
H691 C651 0.950 . S
H692 C657 0.949 . S
H693 C658 0.950 . S
H694 C662 0.951 . S
H695 C663 0.950 1_554 S
H696 C667 0.949 . S
H697 C668 0.950 . S
H698 C672 0.950 . S
H699 C674 0.950 . S
H700 C677 0.950 . S
H701 C679 0.950 . S
C702 C703 1.443 . S
C702 N706 1.376 1_556 S
C702 C740 1.389 . S
C703 C702 1.443 . S
C703 C704 1.340 1_556 S
C703 H743 0.951 . S
C704 C703 1.340 1_554 S
C704 C705 1.439 . S
C704 H744 0.950 . S
C705 C704 1.439 . S
C705 N706 1.374 . S
C705 C739 1.395 . S
N706 C702 1.376 1_554 S
N706 C705 1.374 . S
N706 Co707 2.008 . S
Co707 N706 2.008 . S
Co707 N708 1.995 . S
Co707 N713 2.008 . S
Co707 N718 1.986 1_554 S
Co707 N723 2.282 1_554 S
Co707 N729 2.282 . S
N708 Co707 1.995 . S
N708 C709 1.376 . S
N708 C712 1.383 . S
C709 N708 1.376 . S
C709 C710 1.446 . S
C709 C739 1.391 . S
C710 C709 1.446 . S
C710 C711 1.339 . S
C710 H745 0.949 . S
C711 C710 1.339 . S
C711 C712 1.439 . S
C711 H746 0.950 . S
C712 N708 1.383 . S
C712 C711 1.439 . S
C712 C741 1.392 . S
N713 Co707 2.008 . S
N713 C714 1.376 . S
N713 C717 1.374 . S
C714 N713 1.376 . S
C714 C715 1.443 . S
C714 C741 1.389 . S
C715 C714 1.443 . S
C715 C716 1.340 . S
C715 H747 0.951 . S
C716 C715 1.340 . S
C716 C717 1.439 . S
C716 H748 0.950 . S
C717 N713 1.374 . S
C717 C716 1.439 . S
C717 C742 1.395 . S
N718 Co707 1.986 1_556 S
N718 C719 1.377 . S
N718 C722 1.392 . S
C719 N718 1.377 . S
C719 C720 1.446 . S
C719 C742 1.391 1_556 S
C720 C719 1.446 . S
C720 C721 1.339 . S
C720 H749 0.949 . S
C721 C720 1.339 . S
C721 C722 1.439 . S
C721 H750 0.950 . S
C722 N718 1.392 . S
C722 C721 1.439 . S
C722 C740 1.392 . S
N723 Co707 2.282 1_556 S
N723 C726 1.332 . S
N723 C728 1.332 . S
C724 C725 1.386 . S
C724 C727 1.388 . S
C725 C724 1.386 . S
C725 C726 1.382 . S
C725 H751 0.950 . S
C726 N723 1.332 . S
C726 C725 1.382 . S
C726 H737 0.952 . S
C727 C724 1.388 . S
C727 C728 1.382 . S
C727 H752 0.950 . S
C728 N723 1.332 . S
C728 C727 1.382 . S
C728 H738 0.958 . S
N729 Co707 2.282 . S
N729 C733 1.332 . S
N729 C734 1.332 . S
C730 C731 1.388 . S
C730 C734 1.382 . S
C730 H753 0.950 . S
C731 C730 1.388 . S
C731 C732 1.386 . S
C732 C731 1.386 . S
C732 C733 1.382 . S
C732 H754 0.950 . S
C733 N729 1.332 . S
C733 C732 1.382 . S
C733 H735 0.952 . S
C734 N729 1.332 . S
C734 C730 1.382 . S
C734 H736 0.948 . S
H735 C733 0.952 . S
H736 C734 0.948 . S
H737 C726 0.952 . S
H738 C728 0.958 . S
C739 C705 1.395 . S
C739 C709 1.391 . S
C740 C702 1.389 . S
C740 C722 1.392 . S
C741 C712 1.392 . S
C741 C714 1.389 . S
C742 C717 1.395 . S
C742 C719 1.391 1_554 S
H743 C703 0.951 . S
H744 C704 0.950 . S
H745 C710 0.949 . S
H746 C711 0.950 . S
H747 C715 0.951 . S
H748 C716 0.950 . S
H749 C720 0.949 . S
H750 C721 0.950 . S
H751 C725 0.950 . S
H752 C727 0.950 . S
H753 C730 0.950 . S
H754 C732 0.950 . S
C755 C756 1.443 . S
C755 N759 1.376 . S
C755 C793 1.389 . S
C756 C755 1.443 . S
C756 C757 1.340 . S
C756 H796 0.951 . S
C757 C756 1.340 . S
C757 C758 1.439 . S
C757 H797 0.950 . S
C758 C757 1.439 . S
C758 N759 1.374 . S
C758 C792 1.395 1_554 S
N759 C755 1.376 . S
N759 C758 1.374 . S
N759 Co760 2.008 . S
Co760 N759 2.008 . S
Co760 N761 1.995 1_554 S
Co760 N766 2.008 1_554 S
Co760 N771 1.995 . S
Co760 N776 2.282 . S
Co760 N782 2.282 1_554 S
N761 Co760 1.995 1_556 S
N761 C762 1.376 . S
N761 C765 1.383 . S
C762 N761 1.376 . S
C762 C763 1.446 . S
C762 C792 1.391 . S
C763 C762 1.446 . S
C763 C764 1.339 . S
C763 H798 0.949 . S
C764 C763 1.339 . S
C764 C765 1.439 . S
C764 H799 0.950 . S
C765 N761 1.383 . S
C765 C764 1.439 . S
C765 C794 1.392 . S
N766 Co760 2.008 1_556 S
N766 C767 1.376 . S
N766 C770 1.374 1_556 S
C767 N766 1.376 . S
C767 C768 1.443 . S
C767 C794 1.389 . S
C768 C767 1.443 . S
C768 C769 1.340 . S
C768 H800 0.951 . S
C769 C768 1.340 . S
C769 C770 1.439 1_556 S
C769 H801 0.950 . S
C770 N766 1.374 1_554 S
C770 C769 1.439 1_554 S
C770 C795 1.395 . S
N771 Co760 1.995 . S
N771 C772 1.376 . S
N771 C775 1.383 . S
C772 N771 1.376 . S
C772 C773 1.446 . S
C772 C795 1.391 . S
C773 C772 1.446 . S
C773 C774 1.339 . S
C773 H802 0.949 . S
C774 C773 1.339 . S
C774 C775 1.439 . S
C774 H803 0.950 . S
C775 N771 1.383 . S
C775 C774 1.439 . S
C775 C793 1.392 . S
N776 Co760 2.282 . S
N776 C779 1.332 . S
N776 C781 1.332 . S
C777 C778 1.386 . S
C777 C780 1.388 . S
C778 C777 1.386 . S
C778 C779 1.382 . S
C778 H804 0.950 . S
C779 N776 1.332 . S
C779 C778 1.382 . S
C779 H790 0.952 . S
C780 C777 1.388 . S
C780 C781 1.382 . S
C780 H805 0.950 . S
C781 N776 1.332 . S
C781 C780 1.382 . S
C781 H791 0.948 . S
N782 Co760 2.282 1_556 S
N782 C786 1.332 . S
N782 C787 1.332 . S
C783 C784 1.388 . S
C783 C787 1.382 . S
C783 H806 0.950 . S
C784 C783 1.388 . S
C784 C785 1.386 . S
C785 C784 1.386 . S
C785 C786 1.382 . S
C785 H807 0.950 . S
C786 N782 1.332 . S
C786 C785 1.382 . S
C786 H788 0.952 . S
C787 N782 1.332 . S
C787 C783 1.382 . S
C787 H789 0.948 . S
H788 C786 0.952 . S
H789 C787 0.948 . S
H790 C779 0.952 . S
H791 C781 0.948 . S
C792 C758 1.395 1_556 S
C792 C762 1.391 . S
C793 C755 1.389 . S
C793 C775 1.392 . S
C794 C765 1.392 . S
C794 C767 1.389 . S
C795 C770 1.395 . S
C795 C772 1.391 . S
H796 C756 0.951 . S
H797 C757 0.950 . S
H798 C763 0.949 . S
H799 C764 0.950 . S
H800 C768 0.951 . S
H801 C769 0.950 . S
H802 C773 0.949 . S
H803 C774 0.950 . S
H804 C778 0.950 . S
H805 C780 0.950 . S
H806 C783 0.950 . S
H807 C785 0.950 . S
C808 C809 1.363 . S
C808 C814 1.379 . S
C808 N816 1.356 . S
C809 C808 1.363 . S
C809 C815 1.363 . S
C810 C811 1.363 . S
C810 C815 1.379 . S
C810 N817 1.356 . S
C811 C810 1.363 . S
C811 C814 1.363 . S
N812 C814 1.356 . S
N812 H824 0.984 . S
N812 H825 0.985 . S
N813 C815 1.356 . S
N813 H818 0.984 . S
N813 H819 0.985 . S
C814 C808 1.379 . S
C814 C811 1.363 . S
C814 N812 1.356 . S
C815 C809 1.363 . S
C815 C810 1.379 . S
C815 N813 1.356 . S
N816 C808 1.356 . S
N816 H822 0.984 . S
N816 H823 0.984 . S
N817 C810 1.356 . S
N817 H820 0.984 . S
N817 H821 0.985 . S
H818 N813 0.984 . S
H819 N813 0.985 . S
H820 N817 0.984 . S
H821 N817 0.985 . S
H822 N816 0.984 . S
H823 N816 0.984 . S
H824 N812 0.984 . S
H825 N812 0.985 . S
C826 C827 1.363 . S
C826 C832 1.379 . S
C826 N834 1.356 . S
C827 C826 1.363 . S
C827 C833 1.363 . S
C828 C829 1.363 . S
C828 C833 1.379 . S
C828 N835 1.356 . S
C829 C828 1.363 . S
C829 C832 1.363 . S
N830 C832 1.356 . S
N830 H842 0.984 . S
N830 H843 0.985 . S
N831 C833 1.356 . S
N831 H836 0.984 . S
N831 H837 0.985 . S
C832 C826 1.379 . S
C832 C829 1.363 . S
C832 N830 1.356 . S
C833 C827 1.363 . S
C833 C828 1.379 . S
C833 N831 1.356 . S
N834 C826 1.356 . S
N834 H840 0.984 . S
N834 H841 0.984 . S
N835 C828 1.356 . S
N835 H838 0.984 . S
N835 H839 0.985 . S
H836 N831 0.984 . S
H837 N831 0.985 . S
H838 N835 0.984 . S
H839 N835 0.985 . S
H840 N834 0.984 . S
H841 N834 0.984 . S
H842 N830 0.984 . S
H843 N830 0.985 . S
C844 C845 1.363 . S
C844 C850 1.379 . S
C844 N852 1.356 . S
C845 C844 1.363 . S
C845 C851 1.363 . S
C846 C847 1.363 . S
C846 C851 1.379 . S
C846 N853 1.356 . S
C847 C846 1.363 . S
C847 C850 1.363 . S
N848 C850 1.356 . S
N848 H860 0.984 . S
N848 H861 0.985 . S
N849 C851 1.356 . S
N849 H854 0.984 . S
N849 H855 0.985 . S
C850 C844 1.379 . S
C850 C847 1.363 . S
C850 N848 1.356 . S
C851 C845 1.363 . S
C851 C846 1.379 . S
C851 N849 1.356 . S
N852 C844 1.356 . S
N852 H858 0.984 . S
N852 H859 0.984 . S
N853 C846 1.356 . S
N853 H856 0.984 . S
N853 H857 0.985 . S
H854 N849 0.984 . S
H855 N849 0.985 . S
H856 N853 0.984 . S
H857 N853 0.985 . S
H858 N852 0.984 . S
H859 N852 0.984 . S
H860 N848 0.984 . S
H861 N848 0.985 . S
C862 C863 1.363 . S
C862 C868 1.379 . S
C862 N870 1.356 . S
C863 C862 1.363 . S
C863 C869 1.363 . S
C864 C865 1.363 . S
C864 C869 1.379 . S
C864 N871 1.356 . S
C865 C864 1.363 . S
C865 C868 1.363 . S
N866 C868 1.356 . S
N866 H878 0.984 . S
N866 H879 0.985 . S
N867 C869 1.356 . S
N867 H872 0.984 . S
N867 H873 0.985 . S
C868 C862 1.379 . S
C868 C865 1.363 . S
C868 N866 1.356 . S
C869 C863 1.363 . S
C869 C864 1.379 . S
C869 N867 1.356 . S
N870 C862 1.356 . S
N870 H876 0.984 . S
N870 H877 0.984 . S
N871 C864 1.356 . S
N871 H874 0.984 . S
N871 H875 0.985 . S
H872 N867 0.984 . S
H873 N867 0.985 . S
H874 N871 0.984 . S
H875 N871 0.985 . S
H876 N870 0.984 . S
H877 N870 0.984 . S
H878 N866 0.984 . S
H879 N866 0.985 . S
C880 C881 1.363 . S
C880 C886 1.379 . S
C880 N888 1.356 . S
C881 C880 1.363 . S
C881 C887 1.363 . S
C882 C883 1.363 . S
C882 C887 1.379 . S
C882 N889 1.356 . S
C883 C882 1.363 . S
C883 C886 1.363 . S
N884 C886 1.356 . S
N884 H896 0.984 . S
N884 H897 0.985 . S
N885 C887 1.356 . S
N885 H890 0.984 . S
N885 H891 0.985 . S
C886 C880 1.379 . S
C886 C883 1.363 . S
C886 N884 1.356 . S
C887 C881 1.363 . S
C887 C882 1.379 . S
C887 N885 1.356 . S
N888 C880 1.356 . S
N888 H894 0.984 . S
N888 H895 0.984 . S
N889 C882 1.356 . S
N889 H892 0.984 . S
N889 H893 0.985 . S
H890 N885 0.984 . S
H891 N885 0.985 . S
H892 N889 0.984 . S
H893 N889 0.985 . S
H894 N888 0.984 . S
H895 N888 0.984 . S
H896 N884 0.984 . S
H897 N884 0.985 . S
C898 C899 1.363 . S
C898 C904 1.379 . S
C898 N906 1.356 . S
C899 C898 1.363 . S
C899 C905 1.363 . S
C900 C901 1.363 . S
C900 C905 1.379 . S
C900 N907 1.356 . S
C901 C900 1.363 . S
C901 C904 1.363 . S
N902 C904 1.356 . S
N902 H914 0.984 . S
N902 H915 0.985 . S
N903 C905 1.356 . S
N903 H908 0.984 . S
N903 H909 0.985 . S
C904 C898 1.379 . S
C904 C901 1.363 . S
C904 N902 1.356 . S
C905 C899 1.363 . S
C905 C900 1.379 . S
C905 N903 1.356 . S
N906 C898 1.356 . S
N906 H912 0.984 . S
N906 H913 0.984 . S
N907 C900 1.356 . S
N907 H910 0.984 . S
N907 H911 0.985 . S
H908 N903 0.984 . S
H909 N903 0.985 . S
H910 N907 0.984 . S
H911 N907 0.985 . S
H912 N906 0.984 . S
H913 N906 0.984 . S
H914 N902 0.984 . S
H915 N902 0.985 . S
C916 C917 1.363 . S
C916 C922 1.379 . S
C916 N924 1.356 . S
C917 C916 1.363 . S
C917 C923 1.363 . S
C918 C919 1.363 . S
C918 C923 1.379 . S
C918 N925 1.356 . S
C919 C918 1.363 . S
C919 C922 1.363 . S
N920 C922 1.356 . S
N920 H932 0.984 . S
N920 H933 0.985 . S
N921 C923 1.356 . S
N921 H926 0.984 . S
N921 H927 0.985 . S
C922 C916 1.379 . S
C922 C919 1.363 . S
C922 N920 1.356 . S
C923 C917 1.363 . S
C923 C918 1.379 . S
C923 N921 1.356 . S
N924 C916 1.356 . S
N924 H930 0.984 . S
N924 H931 0.984 . S
N925 C918 1.356 . S
N925 H928 0.984 . S
N925 H929 0.985 . S
H926 N921 0.984 . S
H927 N921 0.985 . S
H928 N925 0.984 . S
H929 N925 0.985 . S
H930 N924 0.984 . S
H931 N924 0.984 . S
H932 N920 0.984 . S
H933 N920 0.985 . S
C934 C935 1.363 . S
C934 C940 1.379 . S
C934 N942 1.356 . S
C935 C934 1.363 . S
C935 C941 1.363 . S
C936 C937 1.363 . S
C936 C941 1.379 . S
C936 N943 1.356 . S
C937 C936 1.363 . S
C937 C940 1.363 . S
N938 C940 1.356 . S
N938 H950 0.984 . S
N938 H951 0.985 . S
N939 C941 1.356 . S
N939 H944 0.984 . S
N939 H945 0.985 . S
C940 C934 1.379 . S
C940 C937 1.363 . S
C940 N938 1.356 . S
C941 C935 1.363 . S
C941 C936 1.379 . S
C941 N939 1.356 . S
N942 C934 1.356 . S
N942 H948 0.984 . S
N942 H949 0.984 . S
N943 C936 1.356 . S
N943 H946 0.984 . S
N943 H947 0.985 . S
H944 N939 0.984 . S
H945 N939 0.985 . S
H946 N943 0.984 . S
H947 N943 0.985 . S
H948 N942 0.984 . S
H949 N942 0.984 . S
H950 N938 0.984 . S
H951 N938 0.985 . S
C952 C953 1.363 . S
C952 C958 1.379 . S
C952 N960 1.356 . S
C953 C952 1.363 . S
C953 C959 1.363 . S
C954 C955 1.363 . S
C954 C959 1.379 . S
C954 N961 1.356 . S
C955 C954 1.363 . S
C955 C958 1.363 . S
N956 C958 1.356 . S
N956 H968 0.984 . S
N956 H969 0.985 . S
N957 C959 1.356 . S
N957 H962 0.984 . S
N957 H963 0.985 . S
C958 C952 1.379 . S
C958 C955 1.363 . S
C958 N956 1.356 . S
C959 C953 1.363 . S
C959 C954 1.379 . S
C959 N957 1.356 . S
N960 C952 1.356 . S
N960 H966 0.984 . S
N960 H967 0.984 . S
N961 C954 1.356 . S
N961 H964 0.984 . S
N961 H965 0.985 . S
H962 N957 0.984 . S
H963 N957 0.985 . S
H964 N961 0.984 . S
H965 N961 0.985 . S
H966 N960 0.984 . S
H967 N960 0.984 . S
H968 N956 0.984 . S
H969 N956 0.985 . S
C970 C971 1.363 . S
C970 C976 1.379 . S
C970 N978 1.356 . S
C971 C970 1.363 . S
C971 C977 1.363 . S
C972 C973 1.363 . S
C972 C977 1.379 . S
C972 N979 1.356 . S
C973 C972 1.363 . S
C973 C976 1.363 . S
N974 C976 1.356 . S
N974 H986 0.984 . S
N974 H987 0.985 . S
N975 C977 1.356 . S
N975 H980 0.984 . S
N975 H981 0.985 . S
C976 C970 1.379 . S
C976 C973 1.363 . S
C976 N974 1.356 . S
C977 C971 1.363 . S
C977 C972 1.379 . S
C977 N975 1.356 . S
N978 C970 1.356 . S
N978 H984 0.984 . S
N978 H985 0.984 . S
N979 C972 1.356 . S
N979 H982 0.984 . S
N979 H983 0.985 . S
H980 N975 0.984 . S
H981 N975 0.985 . S
H982 N979 0.984 . S
H983 N979 0.985 . S
H984 N978 0.984 . S
H985 N978 0.984 . S
H986 N974 0.984 . S
H987 N974 0.985 . S
C988 C989 1.363 . S
C988 C994 1.379 . S
C988 N996 1.356 . S
C989 C988 1.363 . S
C989 C995 1.363 . S
C990 C991 1.363 . S
C990 C995 1.379 . S
C990 N997 1.356 . S
C991 C990 1.363 . S
C991 C994 1.363 . S
N992 C994 1.356 . S
N992 H1004 0.984 . S
N992 H1005 0.985 . S
N993 C995 1.356 . S
N993 H998 0.984 . S
N993 H999 0.985 . S
C994 C988 1.379 . S
C994 C991 1.363 . S
C994 N992 1.356 . S
C995 C989 1.363 . S
C995 C990 1.379 . S
C995 N993 1.356 . S
N996 C988 1.356 . S
N996 H1002 0.984 . S
N996 H1003 0.984 . S
N997 C990 1.356 . S
N997 H1000 0.984 . S
N997 H1001 0.985 . S
H998 N993 0.984 . S
H999 N993 0.985 . S
H1000 N997 0.984 . S
H1001 N997 0.985 . S
H1002 N996 0.984 . S
H1003 N996 0.984 . S
H1004 N992 0.984 . S
H1005 N992 0.985 . S
C1006 C1007 1.363 . S
C1006 C1012 1.379 . S
C1006 N1014 1.356 . S
C1007 C1006 1.363 . S
C1007 C1013 1.363 . S
C1008 C1009 1.363 . S
C1008 C1013 1.379 . S
C1008 N1015 1.356 . S
C1009 C1008 1.363 . S
C1009 C1012 1.363 . S
N1010 C1012 1.356 . S
N1010 H1022 0.984 . S
N1010 H1023 0.985 . S
N1011 C1013 1.356 . S
N1011 H1016 0.984 . S
N1011 H1017 0.985 . S
C1012 C1006 1.379 . S
C1012 C1009 1.363 . S
C1012 N1010 1.356 . S
C1013 C1007 1.363 . S
C1013 C1008 1.379 . S
C1013 N1011 1.356 . S
N1014 C1006 1.356 . S
N1014 H1020 0.984 . S
N1014 H1021 0.984 . S
N1015 C1008 1.356 . S
N1015 H1018 0.984 . S
N1015 H1019 0.985 . S
H1016 N1011 0.984 . S
H1017 N1011 0.985 . S
H1018 N1015 0.984 . S
H1019 N1015 0.985 . S
H1020 N1014 0.984 . S
H1021 N1014 0.984 . S
H1022 N1010 0.984 . S
H1023 N1010 0.985 . S
C1024 C1025 1.363 . S
C1024 C1030 1.379 . S
C1024 N1032 1.356 . S
C1025 C1024 1.363 . S
C1025 C1031 1.363 . S
C1026 C1027 1.363 . S
C1026 C1031 1.379 . S
C1026 N1033 1.356 . S
C1027 C1026 1.363 . S
C1027 C1030 1.363 . S
N1028 C1030 1.356 . S
N1028 H1040 0.984 . S
N1028 H1041 0.985 . S
N1029 C1031 1.356 . S
N1029 H1034 0.984 . S
N1029 H1035 0.985 . S
C1030 C1024 1.379 . S
C1030 C1027 1.363 . S
C1030 N1028 1.356 . S
C1031 C1025 1.363 . S
C1031 C1026 1.379 . S
C1031 N1029 1.356 . S
N1032 C1024 1.356 . S
N1032 H1038 0.984 . S
N1032 H1039 0.984 . S
N1033 C1026 1.356 . S
N1033 H1036 0.984 . S
N1033 H1037 0.985 . S
H1034 N1029 0.984 . S
H1035 N1029 0.985 . S
H1036 N1033 0.984 . S
H1037 N1033 0.985 . S
H1038 N1032 0.984 . S
H1039 N1032 0.984 . S
H1040 N1028 0.984 . S
H1041 N1028 0.985 . S
C1042 C1043 1.363 . S
C1042 C1048 1.379 . S
C1042 N1050 1.356 . S
C1043 C1042 1.363 . S
C1043 C1049 1.363 . S
C1044 C1045 1.363 . S
C1044 C1049 1.379 . S
C1044 N1051 1.356 . S
C1045 C1044 1.363 . S
C1045 C1048 1.363 . S
N1046 C1048 1.356 . S
N1046 H1058 0.984 . S
N1046 H1059 0.985 . S
N1047 C1049 1.356 . S
N1047 H1052 0.984 . S
N1047 H1053 0.985 . S
C1048 C1042 1.379 . S
C1048 C1045 1.363 . S
C1048 N1046 1.356 . S
C1049 C1043 1.363 . S
C1049 C1044 1.379 . S
C1049 N1047 1.356 . S
N1050 C1042 1.356 . S
N1050 H1056 0.984 . S
N1050 H1057 0.984 . S
N1051 C1044 1.356 . S
N1051 H1054 0.984 . S
N1051 H1055 0.985 . S
H1052 N1047 0.984 . S
H1053 N1047 0.985 . S
H1054 N1051 0.984 . S
H1055 N1051 0.985 . S
H1056 N1050 0.984 . S
H1057 N1050 0.984 . S
H1058 N1046 0.984 . S
H1059 N1046 0.985 . S
C1060 C1061 1.363 . S
C1060 C1066 1.379 . S
C1060 N1068 1.356 . S
C1061 C1060 1.363 . S
C1061 C1067 1.363 . S
C1062 C1063 1.363 . S
C1062 C1067 1.379 . S
C1062 N1069 1.356 . S
C1063 C1062 1.363 . S
C1063 C1066 1.363 . S
N1064 C1066 1.356 . S
N1064 H1076 0.984 . S
N1064 H1077 0.985 . S
N1065 C1067 1.356 . S
N1065 H1070 0.984 . S
N1065 H1071 0.985 . S
C1066 C1060 1.379 . S
C1066 C1063 1.363 . S
C1066 N1064 1.356 . S
C1067 C1061 1.363 . S
C1067 C1062 1.379 . S
C1067 N1065 1.356 . S
N1068 C1060 1.356 . S
N1068 H1074 0.984 . S
N1068 H1075 0.984 . S
N1069 C1062 1.356 . S
N1069 H1072 0.984 . S
N1069 H1073 0.985 . S
H1070 N1065 0.984 . S
H1071 N1065 0.985 . S
H1072 N1069 0.984 . S
H1073 N1069 0.985 . S
H1074 N1068 0.984 . S
H1075 N1068 0.984 . S
H1076 N1064 0.984 . S
H1077 N1064 0.985 . S
C1078 C1079 1.363 . S
C1078 C1084 1.379 . S
C1078 N1086 1.356 . S
C1079 C1078 1.363 . S
C1079 C1085 1.363 . S
C1080 C1081 1.363 . S
C1080 C1085 1.379 . S
C1080 N1087 1.356 . S
C1081 C1080 1.363 . S
C1081 C1084 1.363 . S
N1082 C1084 1.356 . S
N1082 H1094 0.984 . S
N1082 H1095 0.985 . S
N1083 C1085 1.356 . S
N1083 H1088 0.984 . S
N1083 H1089 0.985 . S
C1084 C1078 1.379 . S
C1084 C1081 1.363 . S
C1084 N1082 1.356 . S
C1085 C1079 1.363 . S
C1085 C1080 1.379 . S
C1085 N1083 1.356 . S
N1086 C1078 1.356 . S
N1086 H1092 0.984 . S
N1086 H1093 0.984 . S
N1087 C1080 1.356 . S
N1087 H1090 0.984 . S
N1087 H1091 0.985 . S
H1088 N1083 0.984 . S
H1089 N1083 0.985 . S
H1090 N1087 0.984 . S
H1091 N1087 0.985 . S
H1092 N1086 0.984 . S
H1093 N1086 0.984 . S
H1094 N1082 0.984 . S
H1095 N1082 0.985 . S
C1096 C1097 1.363 . S
C1096 C1102 1.379 . S
C1096 N1104 1.356 . S
C1097 C1096 1.363 . S
C1097 C1103 1.363 . S
C1098 C1099 1.363 . S
C1098 C1103 1.379 . S
C1098 N1105 1.356 . S
C1099 C1098 1.363 . S
C1099 C1102 1.363 . S
N1100 C1102 1.356 . S
N1100 H1112 0.984 . S
N1100 H1113 0.985 . S
N1101 C1103 1.356 . S
N1101 H1106 0.984 . S
N1101 H1107 0.985 . S
C1102 C1096 1.379 . S
C1102 C1099 1.363 . S
C1102 N1100 1.356 . S
C1103 C1097 1.363 . S
C1103 C1098 1.379 . S
C1103 N1101 1.356 . S
N1104 C1096 1.356 . S
N1104 H1110 0.984 . S
N1104 H1111 0.984 . S
N1105 C1098 1.356 . S
N1105 H1108 0.984 . S
N1105 H1109 0.985 . S
H1106 N1101 0.984 . S
H1107 N1101 0.985 . S
H1108 N1105 0.984 . S
H1109 N1105 0.985 . S
H1110 N1104 0.984 . S
H1111 N1104 0.984 . S
H1112 N1100 0.984 . S
H1113 N1100 0.985 . S
C1114 C1115 1.363 . S
C1114 C1120 1.379 . S
C1114 N1122 1.356 . S
C1115 C1114 1.363 . S
C1115 C1121 1.363 . S
C1116 C1117 1.363 . S
C1116 C1121 1.379 . S
C1116 N1123 1.356 . S
C1117 C1116 1.363 . S
C1117 C1120 1.363 . S
N1118 C1120 1.356 . S
N1118 H1130 0.984 . S
N1118 H1131 0.985 . S
N1119 C1121 1.356 . S
N1119 H1124 0.984 . S
N1119 H1125 0.985 . S
C1120 C1114 1.379 . S
C1120 C1117 1.363 . S
C1120 N1118 1.356 . S
C1121 C1115 1.363 . S
C1121 C1116 1.379 . S
C1121 N1119 1.356 . S
N1122 C1114 1.356 . S
N1122 H1128 0.984 . S
N1122 H1129 0.984 . S
N1123 C1116 1.356 . S
N1123 H1126 0.984 . S
N1123 H1127 0.985 . S
H1124 N1119 0.984 . S
H1125 N1119 0.985 . S
H1126 N1123 0.984 . S
H1127 N1123 0.985 . S
H1128 N1122 0.984 . S
H1129 N1122 0.984 . S
H1130 N1118 0.984 . S
H1131 N1118 0.985 . S
C1132 C1133 1.363 . S
C1132 C1138 1.379 . S
C1132 N1140 1.356 . S
C1133 C1132 1.363 . S
C1133 C1139 1.363 . S
C1134 C1135 1.363 . S
C1134 C1139 1.379 . S
C1134 N1141 1.356 . S
C1135 C1134 1.363 . S
C1135 C1138 1.363 . S
N1136 C1138 1.356 . S
N1136 H1148 0.984 . S
N1136 H1149 0.985 . S
N1137 C1139 1.356 . S
N1137 H1142 0.984 . S
N1137 H1143 0.985 . S
C1138 C1132 1.379 . S
C1138 C1135 1.363 . S
C1138 N1136 1.356 . S
C1139 C1133 1.363 . S
C1139 C1134 1.379 . S
C1139 N1137 1.356 . S
N1140 C1132 1.356 . S
N1140 H1146 0.984 . S
N1140 H1147 0.984 . S
N1141 C1134 1.356 . S
N1141 H1144 0.984 . S
N1141 H1145 0.985 . S
H1142 N1137 0.984 . S
H1143 N1137 0.985 . S
H1144 N1141 0.984 . S
H1145 N1141 0.985 . S
H1146 N1140 0.984 . S
H1147 N1140 0.984 . S
H1148 N1136 0.984 . S
H1149 N1136 0.985 . S
C1150 C1151 1.363 . S
C1150 C1156 1.379 . S
C1150 N1158 1.356 . S
C1151 C1150 1.363 . S
C1151 C1157 1.363 . S
C1152 C1153 1.363 . S
C1152 C1157 1.379 . S
C1152 N1159 1.356 . S
C1153 C1152 1.363 . S
C1153 C1156 1.363 . S
N1154 C1156 1.356 . S
N1154 H1166 0.984 . S
N1154 H1167 0.985 . S
N1155 C1157 1.356 . S
N1155 H1160 0.984 . S
N1155 H1161 0.985 . S
C1156 C1150 1.379 . S
C1156 C1153 1.363 . S
C1156 N1154 1.356 . S
C1157 C1151 1.363 . S
C1157 C1152 1.379 . S
C1157 N1155 1.356 . S
N1158 C1150 1.356 . S
N1158 H1164 0.984 . S
N1158 H1165 0.984 . S
N1159 C1152 1.356 . S
N1159 H1162 0.984 . S
N1159 H1163 0.985 . S
H1160 N1155 0.984 . S
H1161 N1155 0.985 . S
H1162 N1159 0.984 . S
H1163 N1159 0.985 . S
H1164 N1158 0.984 . S
H1165 N1158 0.984 . S
H1166 N1154 0.984 . S
H1167 N1154 0.985 . S
C1168 C1169 1.363 . S
C1168 C1174 1.379 . S
C1168 N1176 1.356 . S
C1169 C1168 1.363 . S
C1169 C1175 1.363 . S
C1170 C1171 1.363 . S
C1170 C1175 1.379 . S
C1170 N1177 1.356 . S
C1171 C1170 1.363 . S
C1171 C1174 1.363 . S
N1172 C1174 1.356 . S
N1172 H1184 0.984 . S
N1172 H1185 0.985 . S
N1173 C1175 1.356 . S
N1173 H1178 0.984 . S
N1173 H1179 0.985 . S
C1174 C1168 1.379 . S
C1174 C1171 1.363 . S
C1174 N1172 1.356 . S
C1175 C1169 1.363 . S
C1175 C1170 1.379 . S
C1175 N1173 1.356 . S
N1176 C1168 1.356 . S
N1176 H1182 0.984 . S
N1176 H1183 0.984 . S
N1177 C1170 1.356 . S
N1177 H1180 0.984 . S
N1177 H1181 0.985 . S
H1178 N1173 0.984 . S
H1179 N1173 0.985 . S
H1180 N1177 0.984 . S
H1181 N1177 0.985 . S
H1182 N1176 0.984 . S
H1183 N1176 0.984 . S
H1184 N1172 0.984 . S
H1185 N1172 0.985 . S
C1186 C1187 1.363 . S
C1186 C1192 1.379 . S
C1186 N1194 1.356 . S
C1187 C1186 1.363 . S
C1187 C1193 1.363 . S
C1188 C1189 1.363 . S
C1188 C1193 1.379 . S
C1188 N1195 1.356 . S
C1189 C1188 1.363 . S
C1189 C1192 1.363 . S
N1190 C1192 1.356 . S
N1190 H1202 0.984 . S
N1190 H1203 0.985 . S
N1191 C1193 1.356 . S
N1191 H1196 0.984 . S
N1191 H1197 0.985 . S
C1192 C1186 1.379 . S
C1192 C1189 1.363 . S
C1192 N1190 1.356 . S
C1193 C1187 1.363 . S
C1193 C1188 1.379 . S
C1193 N1191 1.356 . S
N1194 C1186 1.356 . S
N1194 H1200 0.984 . S
N1194 H1201 0.984 . S
N1195 C1188 1.356 . S
N1195 H1198 0.984 . S
N1195 H1199 0.985 . S
H1196 N1191 0.984 . S
H1197 N1191 0.985 . S
H1198 N1195 0.984 . S
H1199 N1195 0.985 . S
H1200 N1194 0.984 . S
H1201 N1194 0.984 . S
H1202 N1190 0.984 . S
H1203 N1190 0.985 . S
C1204 C1205 1.363 . S
C1204 C1210 1.379 . S
C1204 N1212 1.356 . S
C1205 C1204 1.363 . S
C1205 C1211 1.363 . S
C1206 C1207 1.363 . S
C1206 C1211 1.379 . S
C1206 N1213 1.356 . S
C1207 C1206 1.363 . S
C1207 C1210 1.363 . S
N1208 C1210 1.356 . S
N1208 H1220 0.984 . S
N1208 H1221 0.985 . S
N1209 C1211 1.356 . S
N1209 H1214 0.984 . S
N1209 H1215 0.985 . S
C1210 C1204 1.379 . S
C1210 C1207 1.363 . S
C1210 N1208 1.356 . S
C1211 C1205 1.363 . S
C1211 C1206 1.379 . S
C1211 N1209 1.356 . S
N1212 C1204 1.356 . S
N1212 H1218 0.984 . S
N1212 H1219 0.984 . S
N1213 C1206 1.356 . S
N1213 H1216 0.984 . S
N1213 H1217 0.985 . S
H1214 N1209 0.984 . S
H1215 N1209 0.985 . S
H1216 N1213 0.984 . S
H1217 N1213 0.985 . S
H1218 N1212 0.984 . S
H1219 N1212 0.984 . S
H1220 N1208 0.984 . S
H1221 N1208 0.985 . S
C1222 C1223 1.363 . S
C1222 C1228 1.379 . S
C1222 N1230 1.356 . S
C1223 C1222 1.363 . S
C1223 C1229 1.363 . S
C1224 C1225 1.363 . S
C1224 C1229 1.379 . S
C1224 N1231 1.356 . S
C1225 C1224 1.363 . S
C1225 C1228 1.363 . S
N1226 C1228 1.356 . S
N1226 H1238 0.984 . S
N1226 H1239 0.985 . S
N1227 C1229 1.356 . S
N1227 H1232 0.984 . S
N1227 H1233 0.985 . S
C1228 C1222 1.379 . S
C1228 C1225 1.363 . S
C1228 N1226 1.356 . S
C1229 C1223 1.363 . S
C1229 C1224 1.379 . S
C1229 N1227 1.356 . S
N1230 C1222 1.356 . S
N1230 H1236 0.984 . S
N1230 H1237 0.984 . S
N1231 C1224 1.356 . S
N1231 H1234 0.984 . S
N1231 H1235 0.985 . S
H1232 N1227 0.984 . S
H1233 N1227 0.985 . S
H1234 N1231 0.984 . S
H1235 N1231 0.985 . S
H1236 N1230 0.984 . S
H1237 N1230 0.984 . S
H1238 N1226 0.984 . S
H1239 N1226 0.985 . S
C1240 C1241 1.363 . S
C1240 C1246 1.379 . S
C1240 N1248 1.356 . S
C1241 C1240 1.363 . S
C1241 C1247 1.363 . S
C1242 C1243 1.363 . S
C1242 C1247 1.379 . S
C1242 N1249 1.356 . S
C1243 C1242 1.363 . S
C1243 C1246 1.363 . S
N1244 C1246 1.356 . S
N1244 H1256 0.984 . S
N1244 H1257 0.985 . S
N1245 C1247 1.356 . S
N1245 H1250 0.984 . S
N1245 H1251 0.985 . S
C1246 C1240 1.379 . S
C1246 C1243 1.363 . S
C1246 N1244 1.356 . S
C1247 C1241 1.363 . S
C1247 C1242 1.379 . S
C1247 N1245 1.356 . S
N1248 C1240 1.356 . S
N1248 H1254 0.984 . S
N1248 H1255 0.984 . S
N1249 C1242 1.356 . S
N1249 H1252 0.984 . S
N1249 H1253 0.985 . S
H1250 N1245 0.984 . S
H1251 N1245 0.985 . S
H1252 N1249 0.984 . S
H1253 N1249 0.985 . S
H1254 N1248 0.984 . S
H1255 N1248 0.984 . S
H1256 N1244 0.984 . S
H1257 N1244 0.985 . S
C1258 C1259 1.363 . S
C1258 C1264 1.379 . S
C1258 N1266 1.356 . S
C1259 C1258 1.363 . S
C1259 C1265 1.363 . S
C1260 C1261 1.363 . S
C1260 C1265 1.379 . S
C1260 N1267 1.356 . S
C1261 C1260 1.363 . S
C1261 C1264 1.363 . S
N1262 C1264 1.356 . S
N1262 H1274 0.984 . S
N1262 H1275 0.985 . S
N1263 C1265 1.356 . S
N1263 H1268 0.984 . S
N1263 H1269 0.985 . S
C1264 C1258 1.379 . S
C1264 C1261 1.363 . S
C1264 N1262 1.356 . S
C1265 C1259 1.363 . S
C1265 C1260 1.379 . S
C1265 N1263 1.356 . S
N1266 C1258 1.356 . S
N1266 H1272 0.984 . S
N1266 H1273 0.984 . S
N1267 C1260 1.356 . S
N1267 H1270 0.984 . S
N1267 H1271 0.985 . S
H1268 N1263 0.984 . S
H1269 N1263 0.985 . S
H1270 N1267 0.984 . S
H1271 N1267 0.985 . S
H1272 N1266 0.984 . S
H1273 N1266 0.984 . S
H1274 N1262 0.984 . S
H1275 N1262 0.985 . S
C1276 C1277 1.363 . S
C1276 C1282 1.379 . S
C1276 N1284 1.356 . S
C1277 C1276 1.363 . S
C1277 C1283 1.363 . S
C1278 C1279 1.363 . S
C1278 C1283 1.379 . S
C1278 N1285 1.356 . S
C1279 C1278 1.363 . S
C1279 C1282 1.363 . S
N1280 C1282 1.356 . S
N1280 H1292 0.984 . S
N1280 H1293 0.985 . S
N1281 C1283 1.356 . S
N1281 H1286 0.984 . S
N1281 H1287 0.985 . S
C1282 C1276 1.379 . S
C1282 C1279 1.363 . S
C1282 N1280 1.356 . S
C1283 C1277 1.363 . S
C1283 C1278 1.379 . S
C1283 N1281 1.356 . S
N1284 C1276 1.356 . S
N1284 H1290 0.984 . S
N1284 H1291 0.984 . S
N1285 C1278 1.356 . S
N1285 H1288 0.984 . S
N1285 H1289 0.985 . S
H1286 N1281 0.984 . S
H1287 N1281 0.985 . S
H1288 N1285 0.984 . S
H1289 N1285 0.985 . S
H1290 N1284 0.984 . S
H1291 N1284 0.984 . S
H1292 N1280 0.984 . S
H1293 N1280 0.985 . S
C1294 C1295 1.363 . S
C1294 C1300 1.379 . S
C1294 N1302 1.356 . S
C1295 C1294 1.363 . S
C1295 C1301 1.363 . S
C1296 C1297 1.363 . S
C1296 C1301 1.379 . S
C1296 N1303 1.356 . S
C1297 C1296 1.363 . S
C1297 C1300 1.363 . S
N1298 C1300 1.356 . S
N1298 H1310 0.984 . S
N1298 H1311 0.985 . S
N1299 C1301 1.356 . S
N1299 H1304 0.984 . S
N1299 H1305 0.985 . S
C1300 C1294 1.379 . S
C1300 C1297 1.363 . S
C1300 N1298 1.356 . S
C1301 C1295 1.363 . S
C1301 C1296 1.379 . S
C1301 N1299 1.356 . S
N1302 C1294 1.356 . S
N1302 H1308 0.984 . S
N1302 H1309 0.984 . S
N1303 C1296 1.356 . S
N1303 H1306 0.984 . S
N1303 H1307 0.985 . S
H1304 N1299 0.984 . S
H1305 N1299 0.985 . S
H1306 N1303 0.984 . S
H1307 N1303 0.985 . S
H1308 N1302 0.984 . S
H1309 N1302 0.984 . S
H1310 N1298 0.984 . S
H1311 N1298 0.985 . S
C1312 C1313 1.363 . S
C1312 C1318 1.379 . S
C1312 N1320 1.356 . S
C1313 C1312 1.363 . S
C1313 C1319 1.363 . S
C1314 C1315 1.363 . S
C1314 C1319 1.379 . S
C1314 N1321 1.356 . S
C1315 C1314 1.363 . S
C1315 C1318 1.363 . S
N1316 C1318 1.356 . S
N1316 H1328 0.984 . S
N1316 H1329 0.985 . S
N1317 C1319 1.356 . S
N1317 H1322 0.984 . S
N1317 H1323 0.985 . S
C1318 C1312 1.379 . S
C1318 C1315 1.363 . S
C1318 N1316 1.356 . S
C1319 C1313 1.363 . S
C1319 C1314 1.379 . S
C1319 N1317 1.356 . S
N1320 C1312 1.356 . S
N1320 H1326 0.984 . S
N1320 H1327 0.984 . S
N1321 C1314 1.356 . S
N1321 H1324 0.984 . S
N1321 H1325 0.985 . S
H1322 N1317 0.984 . S
H1323 N1317 0.985 . S
H1324 N1321 0.984 . S
H1325 N1321 0.985 . S
H1326 N1320 0.984 . S
H1327 N1320 0.984 . S
H1328 N1316 0.984 . S
H1329 N1316 0.985 . S
C1330 C1331 1.363 . S
C1330 C1336 1.379 . S
C1330 N1338 1.356 . S
C1331 C1330 1.363 . S
C1331 C1337 1.363 . S
C1332 C1333 1.363 . S
C1332 C1337 1.379 . S
C1332 N1339 1.356 . S
C1333 C1332 1.363 . S
C1333 C1336 1.363 . S
N1334 C1336 1.356 . S
N1334 H1346 0.984 1_556 S
N1334 H1347 0.985 . S
N1335 C1337 1.356 . S
N1335 H1340 0.984 . S
N1335 H1341 0.985 . S
C1336 C1330 1.379 . S
C1336 C1333 1.363 . S
C1336 N1334 1.356 . S
C1337 C1331 1.363 . S
C1337 C1332 1.379 . S
C1337 N1335 1.356 . S
N1338 C1330 1.356 . S
N1338 H1344 0.984 . S
N1338 H1345 0.984 . S
N1339 C1332 1.356 . S
N1339 H1342 0.984 . S
N1339 H1343 0.985 . S
H1340 N1335 0.984 . S
H1341 N1335 0.985 . S
H1342 N1339 0.984 . S
H1343 N1339 0.985 . S
H1344 N1338 0.984 . S
H1345 N1338 0.984 . S
H1346 N1334 0.984 1_554 S
H1347 N1334 0.985 . S
C1348 C1349 1.363 . S
C1348 C1354 1.379 . S
C1348 N1356 1.356 . S
C1349 C1348 1.363 . S
C1349 C1355 1.363 . S
C1350 C1351 1.363 . S
C1350 C1355 1.379 . S
C1350 N1357 1.356 . S
C1351 C1350 1.363 . S
C1351 C1354 1.363 . S
N1352 C1354 1.356 . S
N1352 H1364 0.984 . S
N1352 H1365 0.985 . S
N1353 C1355 1.356 . S
N1353 H1358 0.984 . S
N1353 H1359 0.985 . S
C1354 C1348 1.379 . S
C1354 C1351 1.363 . S
C1354 N1352 1.356 . S
C1355 C1349 1.363 . S
C1355 C1350 1.379 . S
C1355 N1353 1.356 . S
N1356 C1348 1.356 . S
N1356 H1362 0.984 . S
N1356 H1363 0.984 . S
N1357 C1350 1.356 . S
N1357 H1360 0.984 . S
N1357 H1361 0.985 . S
H1358 N1353 0.984 . S
H1359 N1353 0.985 . S
H1360 N1357 0.984 . S
H1361 N1357 0.985 . S
H1362 N1356 0.984 . S
H1363 N1356 0.984 . S
H1364 N1352 0.984 . S
H1365 N1352 0.985 . S
C1366 C1367 1.363 . S
C1366 C1372 1.379 . S
C1366 N1374 1.356 . S
C1367 C1366 1.363 . S
C1367 C1373 1.363 . S
C1368 C1369 1.363 . S
C1368 C1373 1.379 . S
C1368 N1375 1.356 . S
C1369 C1368 1.363 . S
C1369 C1372 1.363 . S
N1370 C1372 1.356 . S
N1370 H1382 0.984 . S
N1370 H1383 0.985 . S
N1371 C1373 1.356 . S
N1371 H1376 0.984 . S
N1371 H1377 0.985 . S
C1372 C1366 1.379 . S
C1372 C1369 1.363 . S
C1372 N1370 1.356 . S
C1373 C1367 1.363 . S
C1373 C1368 1.379 . S
C1373 N1371 1.356 . S
N1374 C1366 1.356 . S
N1374 H1380 0.984 . S
N1374 H1381 0.984 . S
N1375 C1368 1.356 . S
N1375 H1378 0.984 . S
N1375 H1379 0.985 . S
H1376 N1371 0.984 . S
H1377 N1371 0.985 . S
H1378 N1375 0.984 . S
H1379 N1375 0.985 . S
H1380 N1374 0.984 . S
H1381 N1374 0.984 . S
H1382 N1370 0.984 . S
H1383 N1370 0.985 . S
C811 C413 1.461 . S
C809 C36 1.461 . S
C829 C466 1.288 . S
C827 C93 1.282 . S
C847 C529 1.537 . S
C845 C132 1.537 . S
C865 C572 1.265 . S
C863 C174 1.266 . S
C881 C213 1.530 . S
C883 C528 1.532 . S
C901 C565 1.322 . S
C899 C285 1.311 . S
C919 C406 1.466 . S
C917 C324 1.465 . S
C937 C459 1.226 . S
C935 C366 1.224 . S
C955 C512 1.490 . S
C953 C357 1.483 . S
C973 C581 1.805 . S
C971 C222 1.808 . S
C991 C422 1.557 . S
C989 C276 1.557 . S
C1009 C475 1.727 . S
C1007 C333 1.721 . S
C1027 C423 1.548 . S
C1025 C84 1.548 . S
C1045 C476 1.791 . S
C1043 C141 1.784 . S
C1063 C519 1.499 . S
C1061 C165 1.493 . S
C1081 C582 1.748 . S
C1079 C45 1.732 . S
C1099 C625 1.435 . S
C1097 C372 1.434 . S
C1115 C237 1.661 . S
C1117 C678 1.672 . S
C1133 C261 1.561 . S
C1135 C740 1.563 . S
C1151 C318 1.664 . S
C1153 C794 1.668 . S
C1169 C69 1.494 . S
C1171 C741 1.497 . S
C1187 C126 1.732 . S
C1189 C793 1.737 . S
C1205 C180 1.490 . S
C1207 C618 1.489 . S
C1225 C671 1.617 . S
C1223 C30 1.617 . S
C1243 C731 1.462 . S
C1241 C21 1.455 . S
C1259 C78 1.349 . S
C1261 C777 1.348 . S
C1277 C117 1.578 . S
C1279 C634 1.580 . S
C1295 C189 1.328 . S
C1297 C687 1.341 . S
C1315 C635 1.515 . S
C1313 C228 1.513 . S
C1333 C688 1.404 . S
C1331 C270 1.406 . S
C1349 C309 1.511 . S
C1351 C724 1.516 . S
C1369 C784 1.294 . S
C1367 C381 1.289 . S
