# Generated by pormake.
# Topology zzz, (3,6)-cn, num edge types: 1
# Building blocks:
#     Node 0, Type 0, BuildingBlock: BETDIP_clean_linker_0, # of connection points: 3
#     Node 1, Type 0, BuildingBlock: BETDIP_clean_linker_0, # of connection points: 3
#     Node 2, Type 0, BuildingBlock: BETDIP_clean_linker_0, # of connection points: 3
#     Node 3, Type 0, BuildingBlock: BETDIP_clean_linker_0, # of connection points: 3
#     Node 4, Type 0, BuildingBlock: BETDIP_clean_linker_0, # of connection points: 3
#     Node 5, Type 0, BuildingBlock: BETDIP_clean_linker_0, # of connection points: 3
#     Node 6, Type 0, BuildingBlock: BETDIP_clean_linker_0, # of connection points: 3
#     Node 7, Type 0, BuildingBlock: BETDIP_clean_linker_0, # of connection points: 3
#     Node 8, Type 1, BuildingBlock: BETDAH_clean_sbu_0, # of connection points: 6
#     Node 9, Type 1, BuildingBlock: BETDAH_clean_sbu_0, # of connection points: 6
#     Node 10, Type 1, BuildingBlock: BETDAH_clean_sbu_0, # of connection points: 6
#     Node 11, Type 1, BuildingBlock: BETDAH_clean_sbu_0, # of connection points: 6
#     Edge 12, Type (0, 1), BuildingBlock: CIFDUS_clean_linker_0, # of connection points: 2
#     Edge 13, Type (0, 1), BuildingBlock: CIFDUS_clean_linker_0, # of connection points: 2
#     Edge 14, Type (0, 1), BuildingBlock: CIFDUS_clean_linker_0, # of connection points: 2
#     Edge 15, Type (0, 1), BuildingBlock: CIFDUS_clean_linker_0, # of connection points: 2
#     Edge 16, Type (0, 1), BuildingBlock: CIFDUS_clean_linker_0, # of connection points: 2
#     Edge 17, Type (0, 1), BuildingBlock: CIFDUS_clean_linker_0, # of connection points: 2
#     Edge 18, Type (0, 1), BuildingBlock: CIFDUS_clean_linker_0, # of connection points: 2
#     Edge 19, Type (0, 1), BuildingBlock: CIFDUS_clean_linker_0, # of connection points: 2
#     Edge 20, Type (0, 1), BuildingBlock: CIFDUS_clean_linker_0, # of connection points: 2
#     Edge 21, Type (0, 1), BuildingBlock: CIFDUS_clean_linker_0, # of connection points: 2
#     Edge 22, Type (0, 1), BuildingBlock: CIFDUS_clean_linker_0, # of connection points: 2
#     Edge 23, Type (0, 1), BuildingBlock: CIFDUS_clean_linker_0, # of connection points: 2
#     Edge 24, Type (0, 1), BuildingBlock: CIFDUS_clean_linker_0, # of connection points: 2
#     Edge 25, Type (0, 1), BuildingBlock: CIFDUS_clean_linker_0, # of connection points: 2
#     Edge 26, Type (0, 1), BuildingBlock: CIFDUS_clean_linker_0, # of connection points: 2
#     Edge 27, Type (0, 1), BuildingBlock: CIFDUS_clean_linker_0, # of connection points: 2
#     Edge 28, Type (0, 1), BuildingBlock: CIFDUS_clean_linker_0, # of connection points: 2
#     Edge 29, Type (0, 1), BuildingBlock: CIFDUS_clean_linker_0, # of connection points: 2
#     Edge 30, Type (0, 1), BuildingBlock: CIFDUS_clean_linker_0, # of connection points: 2
#     Edge 31, Type (0, 1), BuildingBlock: CIFDUS_clean_linker_0, # of connection points: 2
#     Edge 32, Type (0, 1), BuildingBlock: CIFDUS_clean_linker_0, # of connection points: 2
#     Edge 33, Type (0, 1), BuildingBlock: CIFDUS_clean_linker_0, # of connection points: 2
#     Edge 34, Type (0, 1), BuildingBlock: CIFDUS_clean_linker_0, # of connection points: 2
#     Edge 35, Type (0, 1), BuildingBlock: CIFDUS_clean_linker_0, # of connection points: 2
# Relax obj value: 0.307
# Max RMSD: 0.199
# Mean RMSD: 0.163
data_MOF--net-zzz--node1-BETDAH_clean_sbu_0--node2-BETDIP_clean_linker_0--edge1-CIFDUS_clean_linker_0
_symmetry_space_group_name_H-M    P1
_symmetry_Int_Tables_number       1
_symmetry_cell_setting            triclinic
loop_
_symmetry_equiv_pos_as_xyz
'x, y, z'
_cell_length_a     45.79765
_cell_length_b     45.596915
_cell_length_c     11.653435
_cell_angle_alpha  89.775983
_cell_angle_beta   89.974838
_cell_angle_gamma 90.010463
loop_
_atom_site_label
_atom_site_type_symbol
_atom_site_fract_x
_atom_site_fract_y
_atom_site_fract_z
_atom_type_partial_charge
H0 H 0.75461 0.53421 0.63954 0.0
H1 H 0.73167 0.52115 0.28595 0.0
H2 H 0.8179 0.54692 0.36788 0.0
H3 H 0.69149 0.57161 0.41034 0.0
C4 C 0.68699 0.54825 0.41611 0.0
C5 C 0.76055 0.5356 0.5498 0.0
C6 C 0.79082 0.53909 0.51683 0.0
C7 C 0.73822 0.53331 0.4619 0.0
C8 C 0.74715 0.52919 0.34884 0.0
C9 C 0.77642 0.53037 0.32094 0.0
C10 C 0.79599 0.54255 0.39874 0.0
N11 N 0.70736 0.53101 0.48287 0.0
H12 H 1.01302 0.75781 0.64698 0.0
H13 H 1.0139 0.74032 0.28276 0.0
H14 H 1.00553 0.82846 0.402 0.0
H15 H 0.97733 0.69081 0.44208 0.0
C16 C 1.0006 0.69173 0.42438 0.0
C17 C 1.01109 0.76547 0.55928 0.0
C18 C 1.00794 0.79623 0.53624 0.0
C19 C 1.01179 0.74475 0.46638 0.0
C20 C 1.01072 0.75526 0.35375 0.0
C21 C 1.00908 0.78516 0.33185 0.0
C22 C 1.00634 0.80516 0.42182 0.0
N23 N 1.01726 0.71399 0.48241 0.0
H24 H 0.7802 0.04219 0.60911 0.0
H25 H 0.80922 1.00178 0.29698 0.0
H26 H 0.73044 0.97316 0.44667 0.0
H27 H 0.8627 1.00577 0.50076 0.0
C28 C 0.85508 1.02175 0.43829 0.0
C29 C 0.77764 0.02512 0.54563 0.0
C30 C 0.7508 1.00885 0.53893 0.0
C31 C 0.80069 1.01958 0.46407 0.0
C32 C 0.79463 1.00156 0.37009 0.0
C33 C 0.7667 0.99032 0.3558 0.0
C34 C 0.74967 0.98685 0.4542 0.0
N35 N 0.82753 0.03576 0.4611 0.0
H36 H 0.49344 0.78729 0.62319 0.0
H37 H 0.5381 0.80926 0.30943 0.0
H38 H 0.5555 0.72769 0.4781 0.0
H39 H 0.53513 0.86511 0.50133 0.0
C40 C 0.51885 0.85805 0.43958 0.0
C41 C 0.51019 0.78242 0.56056 0.0
C42 C 0.5244 0.75451 0.56199 0.0
C43 C 0.51768 0.8037 0.47424 0.0
C44 C 0.53592 0.79516 0.38388 0.0
C45 C 0.54605 0.7664 0.37743 0.0
C46 C 0.54519 0.74909 0.47732 0.0
N47 N 0.50323 0.83144 0.46412 0.0
H48 H 0.2917 0.50851 0.89736 0.0
H49 H 0.31107 0.52935 0.25154 0.0
H50 H 0.22487 0.54145 0.12492 0.0
H51 H 0.35215 0.55463 0.13588 0.0
C52 C 0.35807 0.53181 0.12214 0.0
C53 C 0.28498 0.51714 0.9796 0.0
C54 C 0.25476 0.52462 0.99902 0.0
C55 C 0.30622 0.52075 0.07049 0.0
C56 C 0.29639 0.5294 0.1786 0.0
C57 C 0.26754 0.5365 0.19633 0.0
C58 C 0.24746 0.53585 0.10656 0.0
N59 N 0.33696 0.51433 0.06031 0.0
H60 H 0.04026 0.29731 0.91545 0.0
H61 H 0.02369 0.30796 0.27868 0.0
H62 H 1.01441 0.22366 0.1264 0.0
H63 H 0.99043 0.34957 0.15147 0.0
C64 C 1.01298 0.35704 0.1538 0.0
C65 C 0.03322 0.28833 0.99698 0.0
C66 C 0.0268 0.25736 0.00711 0.0
C67 C 0.02994 0.30739 0.09552 0.0
C68 C 0.02356 0.29471 0.20158 0.0
C69 C 1.01875 0.26499 0.21097 0.0
C70 C 1.01829 0.24701 0.11449 0.0
N71 N 0.03396 0.33879 0.09493 0.0
H72 H 0.2539 0.05317 0.94315 0.0
H73 H 0.22763 1.01669 0.26944 0.0
H74 H 0.31211 0.99764 0.13759 0.0
H75 H 0.17803 1.00928 0.08674 0.0
C76 C 0.18171 0.03013 0.12925 0.0
C77 C 0.25827 0.03874 0.01507 0.0
C78 C 0.28636 0.02488 0.02551 0.0
C79 C 0.2358 0.0334 0.09947 0.0
C80 C 0.24278 1.01741 0.19794 0.0
C81 C 0.27032 1.00564 0.2115 0.0
C82 C 0.29062 1.0068 0.12153 0.0
N83 N 0.20731 0.04646 0.0956 0.0
H84 H 0.49506 0.25766 0.94606 0.0
H85 H 0.53427 0.23046 0.2658 0.0
H86 H 0.55138 0.31598 0.13468 0.0
H87 H 0.53983 0.18195 0.09205 0.0
C88 C 0.51834 0.18497 0.12975 0.0
C89 C 0.50998 0.26189 0.01608 0.0
C90 C 0.52387 0.29001 0.0252 0.0
C91 C 0.51582 0.23923 0.09919 0.0
C92 C 0.53285 0.2459 0.19501 0.0
C93 C 0.54492 0.2735 0.20738 0.0
C94 C 0.54244 0.2943 0.11917 0.0
N95 N 0.50238 0.21084 0.09646 0.0
Ho96 Ho 0.04316 0.02554 0.85914 0.0
Ho97 Ho 0.99505 0.02564 0.71815 0.0
C98 C 1.01824 0.96172 0.76293 0.0
C99 C 0.07728 1.00925 0.0206 0.0
C100 C 0.07834 0.97887 0.06266 0.0
C101 C 0.0527 0.96563 0.10439 0.0
C102 C 0.05108 0.93545 0.11629 0.0
C103 C 0.07495 0.91782 0.08608 0.0
C104 C 0.10124 0.93098 0.05204 0.0
C105 C 0.10289 0.96139 0.0399 0.0
C106 C 0.0614 0.03621 0.64108 0.0
C107 C 0.02199 0.08973 0.80443 0.0
C108 C 0.95933 0.03767 0.55618 0.0
C109 C 0.96313 0.06407 0.48809 0.0
C110 C 0.99171 0.07463 0.47943 0.0
C111 C 0.99678 0.1043 0.47334 0.0
C112 C 0.97345 0.12424 0.46286 0.0
C113 C 0.9448 0.11294 0.45426 0.0
C114 C 0.93962 0.08306 0.47053 0.0
C115 C 0.97727 1.0166 0.93815 0.0
O116 O 0.03663 0.97588 0.83088 0.0
O117 O 0.99888 0.97669 0.70415 0.0
O118 O 0.08634 1.01264 0.91528 0.0
O119 O 0.05298 0.02341 0.04038 0.0
O120 O 0.07087 0.04975 0.73136 0.0
O121 O 0.04174 1.01774 0.67071 0.0
O122 O 1.00493 0.07529 0.7315 0.0
O123 O 0.03924 0.07471 0.87345 0.0
O124 O 0.95351 0.04324 0.6634 0.0
O125 O 0.9801 1.01827 0.54475 0.0
O126 O 0.96733 1.00282 0.84973 0.0
O127 O 0.99681 0.03461 0.90538 0.0
H128 H 0.03329 0.97831 0.12246 0.0
H129 H 0.03085 0.92585 0.14681 0.0
H130 H 0.12003 0.91771 0.03011 0.0
H131 H 0.12277 0.97109 1.0066 0.0
H132 H 1.01037 0.06049 0.49445 0.0
H133 H 1.01916 0.11087 0.48542 0.0
H134 H 0.92611 0.12696 0.44059 0.0
H135 H 0.91737 0.07525 0.47837 0.0
Ho136 Ho 0.52222 0.04618 0.86026 0.0
Ho137 Ho 0.51402 0.99818 0.71754 0.0
C138 C 0.57992 1.01757 0.73542 0.0
C139 C 0.54251 0.07962 0.0176 0.0
C140 C 0.57157 0.07638 0.06866 0.0
C141 C 0.58139 0.04833 0.10051 0.0
C142 C 0.61052 0.04365 0.12673 0.0
C143 C 0.63064 0.06677 0.11967 0.0
C144 C 0.62074 0.09513 0.09264 0.0
C145 C 0.59132 0.09988 0.06682 0.0
C146 C 0.50874 0.06534 0.64438 0.0
C147 C 0.45563 0.0294 0.82034 0.0
C148 C 0.49756 0.96284 0.55986 0.0
C149 C 0.47429 0.97012 0.48063 0.0
C150 C 0.46817 0.99995 0.46462 0.0
C151 C 0.44064 1.00873 0.43135 0.0
C152 C 0.41894 0.98779 0.4086 0.0
C153 C 0.42645 0.95775 0.41006 0.0
C154 C 0.4539 0.94894 0.44856 0.0
C155 C 0.527 0.97919 0.93389 0.0
O156 O 0.57047 0.03293 0.82457 0.0
O157 O 0.56079 1.00336 0.67323 0.0
O158 O 0.54274 0.08701 0.90945 0.0
O159 O 0.52413 0.05838 0.03918 0.0
O160 O 0.49833 0.07635 0.73831 0.0
O161 O 0.52554 0.0441 0.67005 0.0
O162 O 0.46696 1.01401 0.7352 0.0
O163 O 0.47328 0.04324 0.8917 0.0
O164 O 0.48869 0.96049 0.66581 0.0
O165 O 0.52074 0.97924 0.55012 0.0
O166 O 0.53722 0.96808 0.84044 0.0
O167 O 0.51037 1.00042 0.90778 0.0
H168 H 0.56692 0.02958 0.10036 0.0
H169 H 0.61735 1.02171 0.15062 0.0
H170 H 0.63586 0.11335 0.08721 0.0
H171 H 0.58427 0.12154 0.04026 0.0
H172 H 0.48356 1.01673 0.49048 0.0
H173 H 0.43607 0.03198 0.43374 0.0
H174 H 0.41073 0.94096 0.38832 0.0
H175 H 0.45839 0.92582 0.46142 0.0
Ho176 Ho 0.49268 0.52374 0.85786 0.0
Ho177 Ho 0.54196 0.51974 0.7018 0.0
C178 C 0.51865 0.58465 0.73905 0.0
C179 C 0.46063 0.54212 0.02248 0.0
C180 C 0.47002 0.56868 0.08154 0.0
C181 C 0.49918 0.57683 0.06453 0.0
C182 C 0.50915 0.60371 0.09954 0.0
C183 C 0.49078 0.6227 0.15906 0.0
C184 C 0.4614 0.61496 0.17814 0.0
C185 C 0.45087 0.58787 0.13801 0.0
C186 C 0.47423 0.50868 0.64128 0.0
C187 C 0.51653 0.45926 0.8186 0.0
C188 C 0.57022 0.50723 0.51871 0.0
C189 C 0.56261 0.48192 0.44931 0.0
C190 C 0.5338 0.47189 0.45728 0.0
C191 C 0.52731 0.4427 0.43892 0.0
C192 C 0.54937 0.42297 0.407 0.0
C193 C 0.57773 0.43391 0.38578 0.0
C194 C 0.58445 0.46312 0.40958 0.0
C195 C 0.56745 0.5273 0.9124 0.0
O196 O 0.49982 0.57228 0.81085 0.0
O197 O 0.53798 0.56862 0.6839 0.0
O198 O 0.45378 0.54655 0.91512 0.0
O199 O 0.47859 0.52003 0.03494 0.0
O200 O 0.46487 0.49744 0.737 0.0
O201 O 0.49415 0.52701 0.66807 0.0
O202 O 0.53067 0.47149 0.73154 0.0
O203 O 0.50156 0.47569 0.89053 0.0
O204 O 0.57926 0.49972 0.62076 0.0
O205 O 0.55068 0.52813 0.5218 0.0
O206 O 0.58115 0.52668 0.81585 0.0
O207 O 0.54009 0.526 0.89253 0.0
H208 H 0.51434 0.56267 0.02039 0.0
H209 H 0.53158 0.60964 0.08089 0.0
H210 H 0.44692 0.62961 0.22387 0.0
H211 H 0.42813 0.58207 0.14986 0.0
H212 H 0.51681 0.48577 0.49149 0.0
H213 H 0.50539 0.43556 0.45909 0.0
H214 H 0.59517 0.41976 0.35677 0.0
H215 H 0.60696 0.47032 0.40606 0.0
Ho216 Ho 1.01748 0.49902 0.85766 0.0
Ho217 Ho 0.02637 0.54711 0.70829 0.0
C218 C 0.95918 0.5293 0.74304 0.0
C219 C 0.9992 0.4622 0.00864 0.0
C220 C 0.96928 0.45923 0.05183 0.0
C221 C 0.95641 0.48214 0.11436 0.0
C222 C 0.92633 0.48304 0.12797 0.0
C223 C 0.90891 0.46111 0.07952 0.0
C224 C 0.92159 0.43708 0.02522 0.0
C225 C 0.95176 0.43613 0.0114 0.0
C226 C 0.03661 0.47994 0.64908 0.0
C227 C 0.08384 0.51938 0.83349 0.0
C228 C 0.03827 0.57615 0.52511 0.0
C229 C 0.06526 0.57195 0.46261 0.0
C230 C 0.07972 0.5454 0.48228 0.0
C231 C 0.10979 0.54435 0.48033 0.0
C232 C 0.12617 0.56915 0.44795 0.0
C233 C 0.11108 0.59467 0.41249 0.0
C234 C 0.0808 0.5963 0.42293 0.0
C235 C 1.01904 0.57342 0.9172 0.0
O236 O 0.96958 0.50871 0.81232 0.0
O237 O 0.97729 0.54747 0.69117 0.0
O238 O 1.00215 0.45567 0.90043 0.0
O239 O 1.01299 0.48631 0.03577 0.0
O240 O 0.04706 0.47185 0.74727 0.0
O241 O 1.01738 0.49974 0.66655 0.0
O242 O 0.07427 0.53342 0.74093 0.0
O243 O 0.06454 0.50733 0.90359 0.0
O244 O 0.04291 0.58634 0.62778 0.0
O245 O 1.02047 0.55376 0.52544 0.0
O246 O 0.02319 0.58688 0.82133 0.0
O247 O 1.01831 0.5459 0.89958 0.0
H248 H 0.96922 0.50034 0.14632 0.0
H249 H 0.91649 0.50169 0.17064 0.0
H250 H 0.90813 0.42002 0.98825 0.0
H251 H 0.96125 0.41828 0.96295 0.0
H252 H 0.06811 0.52634 0.51423 0.0
H253 H 0.1196 0.52438 0.51183 0.0
H254 H 0.12245 0.61388 0.38126 0.0
H255 H 0.06987 0.61708 0.40865 0.0
H256 H 0.12886 1.00641 0.17615 0.0
H257 H 0.19023 0.06883 0.31073 0.0
H258 H 0.1585 0.07645 0.4785 0.0
H259 H 0.11326 0.06449 0.58967 0.0
H260 H 0.05187 1.00228 0.45086 0.0
H261 H 0.08335 0.99552 0.28408 0.0
C262 C 0.13508 1.02203 0.24127 0.0
C263 C 0.16183 0.03731 0.22896 0.0
C264 C 0.11654 0.02636 0.3373 0.0
C265 C 0.16969 0.05713 0.31584 0.0
C266 C 0.15151 0.06135 0.41242 0.0
C267 C 0.10652 0.0497 0.5221 0.0
C268 C 0.07988 0.03392 0.53398 0.0
C269 C 0.12483 0.04606 0.42436 0.0
C270 C 0.07195 1.01478 0.44513 0.0
C271 C 0.09003 1.01096 0.34882 0.0
H272 H 0.54388 0.1333 0.18549 0.0
H273 H 0.47511 0.19108 0.29563 0.0
H274 H 0.46558 0.15897 0.46149 0.0
H275 H 0.47819 0.11503 0.58039 0.0
H276 H 0.54632 0.05692 0.46456 0.0
H277 H 0.55469 0.08837 0.29765 0.0
C278 C 0.52654 0.13871 0.24502 0.0
C279 C 0.51014 0.16462 0.22695 0.0
C280 C 0.52114 0.11998 0.34002 0.0
C281 C 0.48791 0.17128 0.30593 0.0
C282 C 0.48257 0.1529 0.40139 0.0
C283 C 0.49463 0.10902 0.51781 0.0
C284 C 0.51158 0.08338 0.53615 0.0
C285 C 0.49917 0.12725 0.42003 0.0
C286 C 0.5328 0.07622 0.45351 0.0
C287 C 0.53764 0.09431 0.35749 0.0
H288 H 0.36282 0.54536 0.34697 0.0
H289 H 0.40536 0.49477 0.08492 0.0
H290 H 0.44612 0.48438 0.21727 0.0
H291 H 0.47016 0.49036 0.41069 0.0
H292 H 0.42574 0.54096 0.66941 0.0
H293 H 0.38547 0.55016 0.53723 0.0
C294 C 0.38073 0.53153 0.31928 0.0
C295 C 0.38051 0.52035 0.20624 0.0
C296 C 0.40409 0.52582 0.39597 0.0
C297 C 0.40431 0.50294 0.17194 0.0
C298 C 0.42787 0.49733 0.24767 0.0
C299 C 0.45192 0.50373 0.43772 0.0
C300 C 0.45152 0.51538 0.55076 0.0
C301 C 0.42821 0.50883 0.36018 0.0
C302 C 0.42707 0.53207 0.58345 0.0
C303 C 0.40384 0.53725 0.5077 0.0
H304 H 0.05997 0.37418 0.29831 0.0
H305 H 0.97537 0.40092 0.17711 0.0
H306 H 0.97556 0.44276 0.30638 0.0
H307 H 0.99747 0.47025 0.46816 0.0
H308 H 0.08024 0.44152 0.60293 0.0
H309 H 0.08296 0.40306 0.45791 0.0
C310 C 0.04205 0.3897 0.29748 0.0
C311 C 1.01808 0.38478 0.22288 0.0
C312 C 0.0417 0.41358 0.37743 0.0
C313 C 0.99459 0.40463 0.22896 0.0
C314 C 0.99449 0.42853 0.3046 0.0
C315 C 1.0164 0.45602 0.46446 0.0
C316 C 0.03874 0.45934 0.54727 0.0
C317 C 1.01763 0.43313 0.38107 0.0
C318 C 0.06271 0.43991 0.54088 0.0
C319 C 0.06429 0.41765 0.45748 0.0
H320 H 0.91361 1.01459 0.42316 0.0
H321 H 0.83958 0.0396 0.2175 0.0
H322 H 0.87054 0.03981 0.04519 0.0
H323 H 0.9188 0.03027 0.95081 0.0
H324 H 0.99375 1.01186 0.16227 0.0
H325 H 0.96271 1.01164 0.3329 0.0
C326 C 0.90437 1.02078 0.34104 0.0
C327 C 0.87414 0.02698 0.3343 0.0
C328 C 0.92263 1.02194 0.24284 0.0
C329 C 0.8626 0.03475 0.22648 0.0
C330 C 0.8804 0.0348 0.12746 0.0
C331 C 0.92839 0.0267 0.03476 0.0
C332 C 0.95871 1.0206 0.04321 0.0
C333 C 0.91043 0.02804 0.13422 0.0
C334 C 0.97068 1.01638 0.15273 0.0
C335 C 0.95283 1.01643 0.25082 0.0
H336 H 0.52398 0.91724 0.42426 0.0
H337 H 0.50465 0.84155 0.21791 0.0
H338 H 0.50642 0.872 0.04399 0.0
H339 H 0.51605 0.92013 0.94897 0.0
H340 H 0.52846 0.99687 0.15783 0.0
H341 H 0.52681 0.96641 0.33103 0.0
C342 C 0.51952 0.90753 0.34139 0.0
C343 C 0.51437 0.87699 0.33488 0.0
C344 C 0.51955 0.92547 0.24179 0.0
C345 C 0.50866 0.86483 0.22645 0.0
C346 C 0.50979 0.88231 0.12656 0.0
C347 C 0.51819 0.93021 0.03265 0.0
C348 C 0.52326 0.96081 0.03993 0.0
C349 C 0.51569 0.91261 0.13289 0.0
C350 C 0.52516 0.97348 0.14921 0.0
C351 C 0.52398 0.95599 0.24867 0.0
H352 H 0.64497 0.58033 0.31193 0.0
H353 H 0.67454 0.49099 0.34138 0.0
H354 H 0.63835 0.47604 0.19621 0.0
H355 H 0.60083 0.48958 0.04608 0.0
H356 H 0.57166 0.57916 0.02376 0.0
H357 H 0.60462 0.59268 0.18012 0.0
C358 C 0.64332 0.55743 0.28802 0.0
C359 C 0.66285 0.53695 0.33829 0.0
C360 C 0.62231 0.54905 0.20473 0.0
C361 C 0.66009 0.50739 0.30526 0.0
C362 C 0.63937 0.49887 0.2213 0.0
C363 C 0.60109 0.51189 0.07788 0.0
C364 C 0.58283 0.53323 0.02454 0.0
C365 C 0.62063 0.5196 0.1686 0.0
C366 C 0.58433 0.56212 0.06523 0.0
C367 C 0.60364 0.56993 0.15389 0.0
H368 H 0.98 0.637 0.37797 0.0
H369 H 0.04758 0.69737 0.27512 0.0
H370 H 0.05986 0.66557 0.11239 0.0
H371 H 0.04792 0.6228 0.9875 0.0
H372 H 0.98371 0.56003 0.10132 0.0
H373 H 0.97384 0.59016 0.27139 0.0
C374 C 0.99781 0.64298 0.32114 0.0
C375 C 1.01252 0.66996 0.33866 0.0
C376 C 1.00515 0.62415 0.22866 0.0
C377 C 0.03573 0.67701 0.26444 0.0
C378 C 0.04265 0.65881 0.1706 0.0
C379 C 0.03202 0.61548 0.05038 0.0
C380 C 1.01625 0.58921 0.03011 0.0
C381 C 0.02697 0.6327 0.1499 0.0
C382 C 0.99611 0.57999 0.11383 0.0
C383 C 0.99038 0.59738 0.21106 0.0
H384 H 0.97396 0.25775 0.35815 0.0
H385 H 0.06501 0.23886 0.30339 0.0
H386 H 0.05924 0.19089 0.39107 0.0
H387 H 0.02546 0.15207 0.41776 0.0
H388 H 0.93532 0.17043 0.5078 0.0
H389 H 0.94352 0.22184 0.4646 0.0
C390 C 0.99283 0.2439 0.37368 0.0
C391 C 1.01951 0.25069 0.32197 0.0
C392 C 0.98919 0.21618 0.42252 0.0
C393 C 0.04423 0.2334 0.34278 0.0
C394 C 0.04077 0.20577 0.39013 0.0
C395 C 1.00754 0.16666 0.43595 0.0
C396 C 0.97929 0.15631 0.46092 0.0
C397 C 1.01278 0.19629 0.42076 0.0
C398 C 0.9569 0.17696 0.48029 0.0
C399 C 0.96166 0.20666 0.4586 0.0
H400 H 0.29823 0.04705 0.31901 0.0
H401 H 0.27129 0.95727 0.35461 0.0
H402 H 0.3174 0.94545 0.45164 0.0
H403 H 0.3694 0.95743 0.46561 0.0
H404 H 0.39888 0.04008 0.32097 0.0
H405 H 0.34937 0.05785 0.31813 0.0
C406 C 0.30219 0.02519 0.35328 0.0
C407 C 0.28249 1.00275 0.32669 0.0
C408 C 0.33061 1.01718 0.38036 0.0
C409 C 0.28674 0.97465 0.37231 0.0
C410 C 0.31344 0.96779 0.42365 0.0
C411 C 0.36523 0.97917 0.43165 0.0
C412 C 0.38832 0.99747 0.39605 0.0
C413 C 0.3364 0.98817 0.41679 0.0
C414 C 0.38199 0.02576 0.35398 0.0
C415 C 0.35354 0.03604 0.35181 0.0
H416 H 0.50384 0.2953 0.33655 0.0
H417 H 0.59636 0.28017 0.32675 0.0
H418 H 0.60502 0.32726 0.42157 0.0
H419 H 0.58711 0.37737 0.44637 0.0
H420 H 0.4969 0.39607 0.36011 0.0
H421 H 0.48613 0.34443 0.35907 0.0
C422 C 0.52578 0.30188 0.36111 0.0
C423 C 0.5495 0.28528 0.32229 0.0
C424 C 0.53074 0.33097 0.39075 0.0
C425 C 0.57787 0.29312 0.3547 0.0
C426 C 0.58276 0.32043 0.40501 0.0
C427 C 0.56514 0.3704 0.42576 0.0
C428 C 0.54297 0.3911 0.40404 0.0
C429 C 0.55958 0.34052 0.4122 0.0
C430 C 0.51445 0.38111 0.38095 0.0
C431 C 0.50816 0.35136 0.3796 0.0
H432 H 0.25593 0.58482 0.32036 0.0
H433 H 0.25132 0.49055 0.32217 0.0
H434 H 0.20485 0.49217 0.42215 0.0
H435 H 0.16129 0.52038 0.44123 0.0
H436 H 0.16561 0.61521 0.46366 0.0
H437 H 0.21721 0.61329 0.41689 0.0
C438 C 0.2457 0.56477 0.35077 0.0
C439 C 0.2559 0.53771 0.31189 0.0
C440 C 0.21859 0.56597 0.40508 0.0
C441 C 0.24326 0.51159 0.35158 0.0
C442 C 0.21639 0.51254 0.40605 0.0
C443 C 0.17307 0.54089 0.44289 0.0
C444 C 0.15858 0.56805 0.44921 0.0
C445 C 0.2029 0.53969 0.4232 0.0
C446 C 0.17542 0.59394 0.45011 0.0
C447 C 0.20519 0.59294 0.42612 0.0
H448 H 0.06418 0.79301 0.28031 0.0
H449 H 0.97713 0.80567 0.15075 0.0
H450 H 0.99426 0.84601 0.02844 0.0
H451 H 0.03007 0.88543 0.00756 0.0
H452 H 0.113 0.87901 0.18154 0.0
H453 H 0.10202 0.82861 0.23748 0.0
C454 C 0.04945 0.80373 0.2203 0.0
C455 C 1.01967 0.79687 0.22313 0.0
C456 C 0.05872 0.82879 0.16232 0.0
C457 C 1.00022 0.81078 0.14808 0.0
C458 C 1.00994 0.83412 0.08043 0.0
C459 C 0.04592 0.87265 0.05565 0.0
C460 C 0.07195 0.88582 0.09297 0.0
C461 C 0.03853 0.84467 0.09448 0.0
C462 C 0.0928 0.86917 0.15243 0.0
C463 C 0.08643 0.84049 0.18499 0.0
H464 H 0.75321 0.04677 0.33339 0.0
H465 H 0.74111 0.9627 0.17229 0.0
H466 H 0.70002 0.98272 0.06126 0.0
H467 H 0.66204 1.02035 0.04501 0.0
H468 H 0.6686 0.09954 0.24551 0.0
H469 H 0.71729 0.08517 0.30903 0.0
C470 C 0.74217 0.03305 0.27117 0.0
C471 C 0.75 1.0033 0.26033 0.0
C472 C 0.71702 0.04367 0.2186 0.0
C473 C 0.73544 0.98564 0.1809 0.0
C474 C 0.71177 0.99699 0.11933 0.0
C475 C 0.6743 0.03457 0.10176 0.0
C476 C 0.66173 0.06078 0.1418 0.0
C477 C 0.70139 0.02534 0.14313 0.0
C478 C 0.67795 0.07939 0.21303 0.0
C479 C 0.70567 0.07109 0.24981 0.0
H480 H 0.57787 0.71986 0.30463 0.0
H481 H 0.50684 0.77564 0.19981 0.0
H482 H 0.48128 0.7337 0.11925 0.0
H483 H 0.47406 0.67941 0.12023 0.0
H484 H 0.53832 0.62554 0.29113 0.0
H485 H 0.5696 0.66787 0.31956 0.0
C486 C 0.55704 0.72289 0.26171 0.0
C487 C 0.54341 0.75029 0.26717 0.0
C488 C 0.53993 0.69839 0.23755 0.0
C489 C 0.51755 0.75448 0.20285 0.0
C490 C 0.50224 0.7303 0.16035 0.0
C491 C 0.4946 0.67727 0.16585 0.0
C492 C 0.50421 0.64958 0.20248 0.0
C493 C 0.51214 0.70196 0.18611 0.0
C494 C 0.53078 0.64682 0.2617 0.0
C495 C 0.54889 0.67081 0.27598 0.0
H496 H 0.79547 0.52957 0.10138 0.0
H497 H 0.78556 0.47683 0.40629 0.0
H498 H 0.8253 0.44502 0.34642 0.0
H499 H 0.86998 0.44092 0.23149 0.0
H500 H 0.87916 0.49249 0.92352 0.0
H501 H 0.83126 0.51488 0.95611 0.0
C502 C 0.8009 0.51004 0.15038 0.0
C503 C 0.78834 0.50557 0.25776 0.0
C504 C 0.82372 0.49181 0.1154 0.0
C505 C 0.79525 0.48035 0.32242 0.0
C506 C 0.81818 0.46242 0.28924 0.0
C507 C 0.86072 0.45604 0.16916 0.0
C508 C 0.87755 0.46557 0.07659 0.0
C509 C 0.83371 0.46915 0.18945 0.0
C510 C 0.86609 0.48526 0.99578 0.0
C511 C 0.83905 0.49821 0.01477 0.0
H512 H 0.98732 0.22427 0.88169 0.0
H513 H 0.07894 0.2317 0.95749 0.0
H514 H 0.08619 0.18038 0.90349 0.0
H515 H 0.06519 0.13075 0.86051 0.0
H516 H 0.97439 0.12465 0.76677 0.0
H517 H 0.96833 0.17723 0.80051 0.0
C518 C 1.00922 0.21526 0.88038 0.0
C519 C 0.03269 0.23283 0.92162 0.0
C520 C 1.01323 0.18517 0.84962 0.0
C521 C 0.06056 0.21966 0.92295 0.0
C522 C 0.0646 0.18982 0.89448 0.0
C523 C 0.04411 0.14093 0.84619 0.0
C524 C 1.02009 0.12304 0.81323 0.0
C525 C 0.04092 0.17191 0.86209 0.0
C526 C 0.99325 0.13727 0.79317 0.0
C527 C 0.98974 0.16761 0.8126 0.0
H528 H 0.32799 0.98568 0.95201 0.0
H529 H 0.30792 0.07791 0.939 0.0
H530 H 0.35797 0.0882 0.87269 0.0
H531 H 0.41017 0.07115 0.83998 0.0
H532 H 0.42828 0.97848 0.8604 0.0
H533 H 0.37737 0.96865 0.90802 0.0
C534 C 0.33425 1.00816 0.93385 0.0
C535 C 0.31362 0.03095 0.95285 0.0
C536 C 0.36352 1.01401 0.9009 0.0
C537 C 0.32269 0.05972 0.92558 0.0
C538 C 0.35172 0.06567 0.88938 0.0
C539 C 0.4029 0.04884 0.85462 0.0
C540 C 0.4235 0.02553 0.8471 0.0
C541 C 0.3728 0.0431 0.88068 0.0
C542 C 0.41326 0.99681 0.86513 0.0
C543 C 0.38396 0.99114 0.89226 0.0
H544 H 0.5623 0.33177 0.94656 0.0
H545 H 0.47053 0.31103 0.94408 0.0
H546 H 0.45959 0.36109 0.87719 0.0
H547 H 0.47599 0.41343 0.84223 0.0
H548 H 0.56816 0.43247 0.85023 0.0
H549 H 0.57872 0.38139 0.89793 0.0
C550 C 0.53979 0.33792 0.93046 0.0
C551 C 0.5173 0.31718 0.95274 0.0
C552 C 0.53361 0.36716 0.89684 0.0
C553 C 0.48846 0.32597 0.92814 0.0
C554 C 0.48215 0.35497 0.89158 0.0
C555 C 0.49836 0.40629 0.85391 0.0
C556 C 0.52132 0.42712 0.84317 0.0
C557 C 0.50445 0.3762 0.87973 0.0
C558 C 0.55013 0.41718 0.85741 0.0
C559 C 0.55619 0.38782 0.88464 0.0
H560 H 0.209 0.4888 0.04183 0.0
H561 H 0.23911 0.55103 0.79017 0.0
H562 H 0.18929 0.55426 0.71031 0.0
H563 H 0.13478 0.54391 0.72971 0.0
H564 H 0.10711 0.48439 0.99822 0.0
H565 H 0.15733 0.47655 0.0541 0.0
C566 C 0.20502 0.50236 0.96673 0.0
C567 C 0.22849 0.51911 0.92142 0.0
C568 C 0.17595 0.50558 0.92659 0.0
C569 C 0.22216 0.53718 0.82595 0.0
C570 C 0.19329 0.53951 0.78174 0.0
C571 C 0.13971 0.52908 0.79993 0.0
C572 C 0.11626 0.51505 0.85968 0.0
C573 C 0.16958 0.52463 0.83414 0.0
C574 C 0.12385 0.4959 0.9503 0.0
C575 C 0.15293 0.49117 0.98259 0.0
H576 H 0.05268 0.83177 0.61145 0.0
H577 H 0.9599 0.819 0.64074 0.0
H578 H 0.95434 0.86891 0.71475 0.0
H579 H 0.97517 0.91893 0.7477 0.0
H580 H 0.06844 0.93045 0.73321 0.0
H581 H 0.07444 0.87904 0.67747 0.0
C582 C 0.03141 0.83936 0.6394 0.0
C583 C 1.00681 0.82086 0.62303 0.0
C584 C 0.02834 0.86854 0.68144 0.0
C585 C 0.97934 0.83198 0.65547 0.0
C586 C 0.9761 0.86093 0.69591 0.0
C587 C 0.99686 0.91008 0.73412 0.0
C588 C 0.02133 0.92902 0.74374 0.0
C589 C 1.00028 0.87986 0.70547 0.0
C590 C 0.0492 0.91675 0.72669 0.0
C591 C 0.05264 0.88718 0.69443 0.0
H592 H 0.69613 1.00706 0.44731 0.0
H593 H 0.73889 0.02998 0.76385 0.0
H594 H 0.69045 0.03683 0.85432 0.0
H595 H 0.63434 0.0323 0.84485 0.0
H596 H 0.59718 1.00212 0.52446 0.0
H597 H 0.64475 0.99999 0.43957 0.0
C598 C 0.69553 1.01244 0.53777 0.0
C599 C 0.72197 1.01646 0.59883 0.0
C600 C 0.66796 1.01448 0.59043 0.0
C601 C 0.71941 0.026 0.71365 0.0
C602 C 0.69148 0.02967 0.76597 0.0
C603 C 0.6367 0.02529 0.75661 0.0
C604 C 0.6113 1.01738 0.69248 0.0
C605 C 0.66531 0.02332 0.70579 0.0
C606 C 0.61548 1.00828 0.57803 0.0
C607 C 0.64301 1.00714 0.52798 0.0
H608 H 0.49787 0.70588 0.48217 0.0
H609 H 0.53522 0.74116 0.79086 0.0
H610 H 0.53564 0.69177 0.87736 0.0
H611 H 0.53014 0.63689 0.85627 0.0
H612 H 0.49735 0.60301 0.53639 0.0
H613 H 0.49047 0.65287 0.46396 0.0
C614 C 0.50502 0.703 0.5703 0.0
C615 C 0.51554 0.72774 0.63097 0.0
C616 C 0.50685 0.67428 0.61639 0.0
C617 C 0.52596 0.72306 0.74324 0.0
C618 C 0.52677 0.69455 0.79181 0.0
C619 C 0.52133 0.64053 0.77108 0.0
C620 C 0.51427 0.61599 0.70179 0.0
C621 C 0.51807 0.66974 0.728 0.0
C622 C 0.50309 0.62126 0.59132 0.0
C623 C 0.4991 0.64987 0.54976 0.0
H624 H 0.8426 0.5125 0.45997 0.0
H625 H 0.80254 0.55638 0.74693 0.0
H626 H 0.85026 0.55608 0.84651 0.0
H627 H 0.9053 0.54587 0.84538 0.0
H628 H 0.94301 0.50958 0.53767 0.0
H629 H 0.89476 0.50607 0.45126 0.0
C630 C 0.84385 0.52291 0.54322 0.0
C631 C 0.81831 0.53566 0.59214 0.0
C632 C 0.87153 0.52421 0.59648 0.0
C633 C 0.82124 0.54678 0.70445 0.0
C634 C 0.84882 0.54677 0.76135 0.0
C635 C 0.90284 0.53708 0.75969 0.0
C636 C 0.92816 0.52749 0.69885 0.0
C637 C 0.87443 0.53599 0.70743 0.0
C638 C 0.92428 0.51667 0.58728 0.0
C639 C 0.89654 0.51463 0.53764 0.0
loop_
_geom_bond_atom_site_label_1
_geom_bond_atom_site_label_2
_geom_bond_distance
_geom_bond_site_symmetry_2
_ccdc_geom_bond_type
H0 C5 0.930 . S
H1 C8 0.930 . S
H2 C10 0.930 . S
H3 C4 1.016 . S
C4 H3 1.016 . S
C4 N11 1.286 . S
C5 H0 0.930 . S
C5 C6 1.397 . S
C5 C7 1.361 . S
C6 C5 1.397 . S
C6 C10 1.390 . S
C7 C5 1.361 . S
C7 C8 1.393 . S
C7 N11 1.413 . S
C8 H1 0.930 . S
C8 C7 1.393 . S
C8 C9 1.399 . S
C9 C8 1.399 . S
C9 C10 1.381 . S
C10 H2 0.930 . S
C10 C6 1.390 . S
C10 C9 1.381 . S
N11 C4 1.286 . S
N11 C7 1.413 . S
H12 C17 0.930 . S
H13 C20 0.930 . S
H14 C22 0.930 . S
H15 C16 1.029 . S
C16 H15 1.029 . S
C16 N23 1.268 1_655 S
C17 H12 0.930 . S
C17 C18 1.397 . S
C17 C19 1.361 . S
C18 C17 1.397 . S
C18 C22 1.390 1_455 S
C19 C17 1.361 . S
C19 C20 1.393 . S
C19 N23 1.413 . S
C20 H13 0.930 . S
C20 C19 1.393 . S
C20 C21 1.402 . S
C21 C20 1.402 . S
C21 C22 1.379 1_455 S
C22 H14 0.930 . S
C22 C18 1.390 1_655 S
C22 C21 1.379 1_655 S
N23 C16 1.268 1_455 S
N23 C19 1.413 . S
H24 C29 0.930 . S
H25 C32 0.930 . S
H26 C34 0.930 . S
H27 C28 1.030 . S
C28 H27 1.030 . S
C28 N35 1.268 1_565 S
C29 H24 0.930 . S
C29 C30 1.397 . S
C29 C31 1.361 . S
C30 C29 1.397 . S
C30 C34 1.390 1_545 S
C31 C29 1.361 . S
C31 C32 1.393 . S
C31 N35 1.413 . S
C32 H25 0.930 . S
C32 C31 1.393 . S
C32 C33 1.402 . S
C33 C32 1.402 . S
C33 C34 1.379 1_545 S
C34 H26 0.930 . S
C34 C30 1.390 1_565 S
C34 C33 1.379 1_565 S
N35 C28 1.268 1_545 S
N35 C31 1.413 . S
H36 C41 0.930 . S
H37 C44 0.930 . S
H38 C46 0.930 . S
H39 C40 1.016 . S
C40 H39 1.016 . S
C40 N47 1.286 . S
C41 H36 0.930 . S
C41 C42 1.397 . S
C41 C43 1.361 . S
C42 C41 1.397 . S
C42 C46 1.390 . S
C43 C41 1.361 . S
C43 C44 1.393 . S
C43 N47 1.413 . S
C44 H37 0.930 . S
C44 C43 1.393 . S
C44 C45 1.399 . S
C45 C44 1.399 . S
C45 C46 1.381 . S
C46 H38 0.930 . S
C46 C42 1.390 . S
C46 C45 1.381 . S
N47 C40 1.286 . S
N47 C43 1.413 . S
H48 C53 0.930 . S
H49 C56 0.930 . S
H50 C58 0.931 . S
H51 C52 1.016 . S
C52 H51 1.016 . S
C52 N59 1.286 . S
C53 H48 0.930 . S
C53 C54 1.397 . S
C53 C55 1.361 1_556 S
C54 C53 1.397 . S
C54 C58 1.398 . S
C55 C53 1.361 1_554 S
C55 C56 1.393 . S
C55 N59 1.413 . S
C56 H49 0.930 . S
C56 C55 1.393 . S
C56 C57 1.399 . S
C57 C56 1.399 . S
C57 C58 1.372 1_554 S
C58 H50 0.931 . S
C58 C54 1.398 . S
C58 C57 1.372 1_556 S
N59 C52 1.286 . S
N59 C55 1.413 . S
H60 C65 0.930 . S
H61 C68 0.930 . S
H62 C70 0.930 1_556 S
H63 C64 1.026 . S
C64 H63 1.026 . S
C64 N71 1.272 1_655 S
C65 H60 0.930 . S
C65 C66 1.397 . S
C65 C67 1.361 1_556 S
C66 C65 1.397 . S
C66 C70 1.390 1_456 S
C67 C65 1.361 1_554 S
C67 C68 1.393 . S
C67 N71 1.413 . S
C68 H61 0.930 . S
C68 C67 1.393 . S
C68 C69 1.404 . S
C69 C68 1.404 . S
C69 C70 1.378 1_455 S
C70 H62 0.930 1_554 S
C70 C66 1.390 1_654 S
C70 C69 1.378 1_655 S
N71 C64 1.272 1_455 S
N71 C67 1.413 . S
H72 C77 0.930 . S
H73 C80 0.930 . S
H74 C82 0.929 1_556 S
H75 C76 1.026 . S
C76 H75 1.026 . S
C76 N83 1.272 1_565 S
C77 H72 0.930 . S
C77 C78 1.397 . S
C77 C79 1.361 1_556 S
C78 C77 1.397 . S
C78 C82 1.382 1_546 S
C79 C77 1.361 1_554 S
C79 C80 1.393 . S
C79 N83 1.413 . S
C80 H73 0.930 . S
C80 C79 1.393 . S
C80 C81 1.404 . S
C81 C80 1.404 . S
C81 C82 1.387 1_545 S
C82 H74 0.929 1_554 S
C82 C78 1.382 1_564 S
C82 C81 1.387 1_565 S
N83 C76 1.272 1_545 S
N83 C79 1.413 . S
H84 C89 0.930 . S
H85 C92 0.930 . S
H86 C94 0.930 . S
H87 C88 1.016 . S
C88 H87 1.016 . S
C88 N95 1.286 . S
C89 H84 0.930 . S
C89 C90 1.397 . S
C89 C91 1.361 1_556 S
C90 C89 1.397 . S
C90 C94 1.390 . S
C91 C89 1.361 1_554 S
C91 C92 1.393 . S
C91 N95 1.413 . S
C92 H85 0.930 . S
C92 C91 1.393 . S
C92 C93 1.399 . S
C93 C92 1.399 . S
C93 C94 1.381 1_554 S
C94 H86 0.930 . S
C94 C90 1.390 . S
C94 C93 1.381 1_556 S
N95 C88 1.286 . S
N95 C91 1.413 . S
Ho96 C99 2.811 1_556 S
Ho96 O116 2.322 . S
Ho96 O118 2.378 . S
Ho96 O119 2.524 1_556 S
Ho96 O120 2.381 . S
Ho96 O121 2.669 1_565 S
Ho96 O123 2.346 1_565 S
Ho96 O127 2.305 1_455 S
Ho97 C108 2.811 . S
Ho97 O117 2.346 1_545 S
Ho97 O121 2.305 1_655 S
Ho97 O122 2.322 . S
Ho97 O124 2.378 . S
Ho97 O125 2.524 . S
Ho97 O126 2.381 . S
Ho97 O127 2.669 1_545 S
C98 O116 1.259 1_655 S
C98 O117 1.268 . S
C99 Ho96 2.811 1_554 S
C99 C100 1.488 . S
C99 O118 1.215 1_554 S
C99 O119 1.289 . S
C100 C99 1.488 . S
C100 C101 1.348 . S
C100 C105 1.413 . S
C101 C100 1.348 . S
C101 C102 1.442 . S
C101 H128 0.930 1_455 S
C102 C101 1.442 . S
C102 C103 1.381 . S
C102 H129 0.931 1_455 S
C103 C102 1.381 . S
C103 C104 1.321 . S
C104 C103 1.321 . S
C104 C105 1.403 . S
C104 H130 0.934 . S
C105 C100 1.413 . S
C105 C104 1.403 . S
C105 H131 0.930 . S
C106 O120 1.275 . S
C106 O121 1.256 1_565 S
C107 O122 1.259 1_455 S
C107 O123 1.268 . S
C108 Ho97 2.811 . S
C108 C109 1.488 . S
C108 O124 1.215 . S
C108 O125 1.289 . S
C109 C108 1.488 . S
C109 C110 1.348 . S
C109 C114 1.413 . S
C110 C109 1.348 . S
C110 C111 1.442 . S
C110 H132 0.930 1_655 S
C111 C110 1.442 . S
C111 C112 1.381 . S
C111 H133 0.931 1_655 S
C112 C111 1.381 . S
C112 C113 1.321 . S
C113 C112 1.321 . S
C113 C114 1.403 . S
C113 H134 0.934 . S
C114 C109 1.413 . S
C114 C113 1.403 . S
C114 H135 0.930 . S
C115 O126 1.275 . S
C115 O127 1.256 1_545 S
O116 Ho96 2.322 . S
O116 C98 1.259 1_455 S
O117 Ho97 2.346 1_565 S
O117 C98 1.268 . S
O118 Ho96 2.378 . S
O118 C99 1.215 1_556 S
O119 Ho96 2.524 1_554 S
O119 C99 1.289 . S
O120 Ho96 2.381 . S
O120 C106 1.275 . S
O121 Ho96 2.669 1_545 S
O121 Ho97 2.305 1_455 S
O121 C106 1.256 1_545 S
O122 Ho97 2.322 . S
O122 C107 1.259 1_655 S
O123 Ho96 2.346 1_545 S
O123 C107 1.268 . S
O124 Ho97 2.378 . S
O124 C108 1.215 . S
O125 Ho97 2.524 . S
O125 C108 1.289 . S
O126 Ho97 2.381 . S
O126 C115 1.275 . S
O127 Ho96 2.305 1_655 S
O127 Ho97 2.669 1_565 S
O127 C115 1.256 1_565 S
H128 C101 0.930 1_655 S
H129 C102 0.931 1_655 S
H130 C104 0.934 . S
H131 C105 0.930 . S
H132 C110 0.930 1_455 S
H133 C111 0.931 1_455 S
H134 C113 0.934 . S
H135 C114 0.930 . S
Ho136 C139 2.811 1_556 S
Ho136 O156 2.322 . S
Ho136 O158 2.378 . S
Ho136 O159 2.524 1_556 S
Ho136 O160 2.381 . S
Ho136 O161 2.669 . S
Ho136 O163 2.346 . S
Ho136 O167 2.305 1_545 S
Ho137 C148 2.811 . S
Ho137 O157 2.346 . S
Ho137 O161 2.305 1_565 S
Ho137 O162 2.322 . S
Ho137 O164 2.378 . S
Ho137 O165 2.524 . S
Ho137 O166 2.381 . S
Ho137 O167 2.669 . S
C138 O156 1.259 1_565 S
C138 O157 1.268 . S
C139 Ho136 2.811 1_554 S
C139 C140 1.488 . S
C139 O158 1.215 1_554 S
C139 O159 1.289 . S
C140 C139 1.488 . S
C140 C141 1.348 . S
C140 C145 1.413 . S
C141 C140 1.348 . S
C141 C142 1.442 . S
C141 H168 0.930 1_545 S
C142 C141 1.442 . S
C142 C143 1.381 . S
C142 H169 0.931 1_545 S
C143 C142 1.381 . S
C143 C144 1.321 . S
C144 C143 1.321 . S
C144 C145 1.403 . S
C144 H170 0.934 . S
C145 C140 1.413 . S
C145 C144 1.403 . S
C145 H171 0.930 . S
C146 O160 1.275 . S
C146 O161 1.256 . S
C147 O162 1.259 1_545 S
C147 O163 1.268 . S
C148 Ho137 2.811 . S
C148 C149 1.488 . S
C148 O164 1.215 . S
C148 O165 1.289 . S
C149 C148 1.488 . S
C149 C150 1.348 . S
C149 C154 1.413 . S
C150 C149 1.348 . S
C150 C151 1.442 . S
C150 H172 0.930 1_565 S
C151 C150 1.442 . S
C151 C152 1.381 . S
C151 H173 0.931 1_565 S
C152 C151 1.381 . S
C152 C153 1.321 . S
C153 C152 1.321 . S
C153 C154 1.403 . S
C153 H174 0.934 . S
C154 C149 1.413 . S
C154 C153 1.403 . S
C154 H175 0.930 . S
C155 O166 1.275 . S
C155 O167 1.256 . S
O156 Ho136 2.322 . S
O156 C138 1.259 1_545 S
O157 Ho137 2.346 . S
O157 C138 1.268 . S
O158 Ho136 2.378 . S
O158 C139 1.215 1_556 S
O159 Ho136 2.524 1_554 S
O159 C139 1.289 . S
O160 Ho136 2.381 . S
O160 C146 1.275 . S
O161 Ho136 2.669 . S
O161 Ho137 2.305 1_545 S
O161 C146 1.256 . S
O162 Ho137 2.322 . S
O162 C147 1.259 1_565 S
O163 Ho136 2.346 . S
O163 C147 1.268 . S
O164 Ho137 2.378 . S
O164 C148 1.215 . S
O165 Ho137 2.524 . S
O165 C148 1.289 . S
O166 Ho137 2.381 . S
O166 C155 1.275 . S
O167 Ho136 2.305 1_565 S
O167 Ho137 2.669 . S
O167 C155 1.256 . S
H168 C141 0.930 1_565 S
H169 C142 0.931 1_565 S
H170 C144 0.934 . S
H171 C145 0.930 . S
H172 C150 0.930 1_545 S
H173 C151 0.931 1_545 S
H174 C153 0.934 . S
H175 C154 0.930 . S
Ho176 C179 2.811 1_556 S
Ho176 O196 2.322 . S
Ho176 O198 2.378 . S
Ho176 O199 2.524 1_556 S
Ho176 O200 2.381 . S
Ho176 O201 2.669 . S
Ho176 O203 2.346 . S
Ho176 O207 2.305 . S
Ho177 C188 2.811 . S
Ho177 O197 2.346 . S
Ho177 O201 2.305 . S
Ho177 O202 2.322 . S
Ho177 O204 2.378 . S
Ho177 O205 2.524 . S
Ho177 O206 2.381 . S
Ho177 O207 2.669 . S
C178 O196 1.259 . S
C178 O197 1.268 . S
C179 Ho176 2.811 1_554 S
C179 C180 1.488 . S
C179 O198 1.215 1_554 S
C179 O199 1.289 . S
C180 C179 1.488 . S
C180 C181 1.348 . S
C180 C185 1.413 . S
C181 C180 1.348 . S
C181 C182 1.442 . S
C181 H208 0.930 . S
C182 C181 1.442 . S
C182 C183 1.381 . S
C182 H209 0.931 . S
C183 C182 1.381 . S
C183 C184 1.321 . S
C184 C183 1.321 . S
C184 C185 1.403 . S
C184 H210 0.934 . S
C185 C180 1.413 . S
C185 C184 1.403 . S
C185 H211 0.930 . S
C186 O200 1.275 . S
C186 O201 1.256 . S
C187 O202 1.259 . S
C187 O203 1.268 . S
C188 Ho177 2.811 . S
C188 C189 1.488 . S
C188 O204 1.215 . S
C188 O205 1.289 . S
C189 C188 1.488 . S
C189 C190 1.348 . S
C189 C194 1.413 . S
C190 C189 1.348 . S
C190 C191 1.442 . S
C190 H212 0.930 . S
C191 C190 1.442 . S
C191 C192 1.381 . S
C191 H213 0.931 . S
C192 C191 1.381 . S
C192 C193 1.321 . S
C193 C192 1.321 . S
C193 C194 1.403 . S
C193 H214 0.934 . S
C194 C189 1.413 . S
C194 C193 1.403 . S
C194 H215 0.930 . S
C195 O206 1.275 . S
C195 O207 1.256 . S
O196 Ho176 2.322 . S
O196 C178 1.259 . S
O197 Ho177 2.346 . S
O197 C178 1.268 . S
O198 Ho176 2.378 . S
O198 C179 1.215 1_556 S
O199 Ho176 2.524 1_554 S
O199 C179 1.289 . S
O200 Ho176 2.381 . S
O200 C186 1.275 . S
O201 Ho176 2.669 . S
O201 Ho177 2.305 . S
O201 C186 1.256 . S
O202 Ho177 2.322 . S
O202 C187 1.259 . S
O203 Ho176 2.346 . S
O203 C187 1.268 . S
O204 Ho177 2.378 . S
O204 C188 1.215 . S
O205 Ho177 2.524 . S
O205 C188 1.289 . S
O206 Ho177 2.381 . S
O206 C195 1.275 . S
O207 Ho176 2.305 . S
O207 Ho177 2.669 . S
O207 C195 1.256 . S
H208 C181 0.930 . S
H209 C182 0.931 . S
H210 C184 0.934 . S
H211 C185 0.930 . S
H212 C190 0.930 . S
H213 C191 0.931 . S
H214 C193 0.934 . S
H215 C194 0.930 . S
Ho216 C219 2.811 1_556 S
Ho216 O236 2.322 . S
Ho216 O238 2.378 . S
Ho216 O239 2.524 1_556 S
Ho216 O240 2.381 . S
Ho216 O241 2.669 1_655 S
Ho216 O243 2.346 1_655 S
Ho216 O247 2.305 . S
Ho217 C228 2.811 . S
Ho217 O237 2.346 1_455 S
Ho217 O241 2.305 . S
Ho217 O242 2.322 . S
Ho217 O244 2.378 . S
Ho217 O245 2.524 . S
Ho217 O246 2.381 . S
Ho217 O247 2.669 1_455 S
C218 O236 1.259 . S
C218 O237 1.268 . S
C219 Ho216 2.811 1_554 S
C219 C220 1.488 . S
C219 O238 1.215 1_554 S
C219 O239 1.289 . S
C220 C219 1.488 . S
C220 C221 1.348 . S
C220 C225 1.413 . S
C221 C220 1.348 . S
C221 C222 1.442 . S
C221 H248 0.930 . S
C222 C221 1.442 . S
C222 C223 1.381 . S
C222 H249 0.931 . S
C223 C222 1.381 . S
C223 C224 1.321 . S
C224 C223 1.321 . S
C224 C225 1.403 . S
C224 H250 0.934 . S
C225 C220 1.413 . S
C225 C224 1.403 . S
C225 H251 0.930 . S
C226 O240 1.287 . S
C226 O241 1.249 1_655 S
C227 O242 1.259 . S
C227 O243 1.268 . S
C228 Ho217 2.811 . S
C228 C229 1.488 . S
C228 O244 1.215 . S
C228 O245 1.289 . S
C229 C228 1.488 . S
C229 C230 1.348 . S
C229 C234 1.413 . S
C230 C229 1.348 . S
C230 C231 1.442 . S
C230 H252 0.930 . S
C231 C230 1.442 . S
C231 C232 1.381 . S
C231 H253 0.931 . S
C232 C231 1.381 . S
C232 C233 1.321 . S
C233 C232 1.321 . S
C233 C234 1.403 . S
C233 H254 0.934 . S
C234 C229 1.413 . S
C234 C233 1.403 . S
C234 H255 0.930 . S
C235 O246 1.291 . S
C235 O247 1.247 1_455 S
O236 Ho216 2.322 . S
O236 C218 1.259 . S
O237 Ho217 2.346 1_655 S
O237 C218 1.268 . S
O238 Ho216 2.378 . S
O238 C219 1.215 1_556 S
O239 Ho216 2.524 1_554 S
O239 C219 1.289 . S
O240 Ho216 2.381 . S
O240 C226 1.287 . S
O241 Ho216 2.669 1_455 S
O241 Ho217 2.305 . S
O241 C226 1.249 1_455 S
O242 Ho217 2.322 . S
O242 C227 1.259 . S
O243 Ho216 2.346 1_455 S
O243 C227 1.268 . S
O244 Ho217 2.378 . S
O244 C228 1.215 . S
O245 Ho217 2.524 . S
O245 C228 1.289 . S
O246 Ho217 2.381 . S
O246 C235 1.291 . S
O247 Ho216 2.305 . S
O247 Ho217 2.669 1_655 S
O247 C235 1.247 1_655 S
H248 C221 0.930 . S
H249 C222 0.931 . S
H250 C224 0.934 . S
H251 C225 0.930 . S
H252 C230 0.930 . S
H253 C231 0.931 . S
H254 C233 0.934 . S
H255 C234 0.930 . S
H256 C262 0.930 . S
H257 C265 0.930 . S
H258 C266 0.930 . S
H259 C267 0.930 . S
H260 C270 0.930 . S
H261 C271 0.930 . S
C262 H256 0.930 . S
C262 C263 1.355 1_565 S
C262 C264 1.415 . S
C263 C262 1.355 1_545 S
C263 C265 1.419 . S
C264 C262 1.415 . S
C264 C269 1.425 1_565 S
C264 C271 1.409 . S
C265 H257 0.930 . S
C265 C263 1.419 . S
C265 C266 1.362 . S
C266 H258 0.930 . S
C266 C265 1.362 . S
C266 C269 1.409 . S
C267 H259 0.930 . S
C267 C268 1.355 1_545 S
C267 C269 1.415 . S
C268 C267 1.355 1_565 S
C268 C270 1.419 . S
C269 C264 1.425 1_545 S
C269 C266 1.409 . S
C269 C267 1.415 . S
C270 H260 0.930 . S
C270 C268 1.419 . S
C270 C271 1.362 . S
C271 H261 0.930 . S
C271 C264 1.409 . S
C271 C270 1.362 . S
H272 C278 0.930 . S
H273 C281 0.930 . S
H274 C282 0.930 . S
H275 C283 0.930 . S
H276 C286 0.930 . S
H277 C287 0.930 . S
C278 H272 0.930 . S
C278 C279 1.355 . S
C278 C280 1.415 . S
C279 C278 1.355 . S
C279 C281 1.419 . S
C280 C278 1.415 . S
C280 C285 1.425 . S
C280 C287 1.409 . S
C281 H273 0.930 . S
C281 C279 1.419 . S
C281 C282 1.362 . S
C282 H274 0.930 . S
C282 C281 1.362 . S
C282 C285 1.409 . S
C283 H275 0.930 . S
C283 C284 1.355 . S
C283 C285 1.415 . S
C284 C283 1.355 . S
C284 C286 1.419 . S
C285 C280 1.425 . S
C285 C282 1.409 . S
C285 C283 1.415 . S
C286 H276 0.930 . S
C286 C284 1.419 . S
C286 C287 1.362 . S
C287 H277 0.930 . S
C287 C280 1.409 . S
C287 C286 1.362 . S
H288 C294 0.930 . S
H289 C297 0.930 . S
H290 C298 0.930 . S
H291 C299 0.930 . S
H292 C302 0.930 . S
H293 C303 0.930 . S
C294 H288 0.930 . S
C294 C295 1.355 . S
C294 C296 1.415 . S
C295 C294 1.355 . S
C295 C297 1.419 . S
C296 C294 1.415 . S
C296 C301 1.425 . S
C296 C303 1.409 . S
C297 H289 0.930 . S
C297 C295 1.419 . S
C297 C298 1.362 . S
C298 H290 0.930 . S
C298 C297 1.362 . S
C298 C301 1.409 . S
C299 H291 0.930 . S
C299 C300 1.355 . S
C299 C301 1.415 . S
C300 C299 1.355 . S
C300 C302 1.419 . S
C301 C296 1.425 . S
C301 C298 1.409 . S
C301 C299 1.415 . S
C302 H292 0.930 . S
C302 C300 1.419 . S
C302 C303 1.362 . S
C303 H293 0.930 . S
C303 C296 1.409 . S
C303 C302 1.362 . S
H304 C310 0.930 . S
H305 C313 0.930 . S
H306 C314 0.930 . S
H307 C315 0.930 . S
H308 C318 0.930 . S
H309 C319 0.930 . S
C310 H304 0.930 . S
C310 C311 1.355 1_455 S
C310 C312 1.415 . S
C311 C310 1.355 1_655 S
C311 C313 1.419 . S
C312 C310 1.415 . S
C312 C317 1.425 1_455 S
C312 C319 1.409 . S
C313 H305 0.930 . S
C313 C311 1.419 . S
C313 C314 1.362 . S
C314 H306 0.930 . S
C314 C313 1.362 . S
C314 C317 1.409 . S
C315 H307 0.930 . S
C315 C316 1.355 1_655 S
C315 C317 1.415 . S
C316 C315 1.355 1_455 S
C316 C318 1.419 . S
C317 C312 1.425 1_655 S
C317 C314 1.409 . S
C317 C315 1.415 . S
C318 H308 0.930 . S
C318 C316 1.419 . S
C318 C319 1.362 . S
C319 H309 0.930 . S
C319 C312 1.409 . S
C319 C318 1.362 . S
H320 C326 0.930 . S
H321 C329 0.930 . S
H322 C330 0.930 . S
H323 C331 0.930 1_556 S
H324 C334 0.930 . S
H325 C335 0.930 . S
C326 H320 0.930 . S
C326 C327 1.356 . S
C326 C328 1.415 . S
C327 C326 1.356 . S
C327 C329 1.417 1_545 S
C328 C326 1.415 . S
C328 C333 1.425 1_545 S
C328 C335 1.409 . S
C329 H321 0.930 . S
C329 C327 1.417 1_565 S
C329 C330 1.362 . S
C330 H322 0.930 . S
C330 C329 1.362 . S
C330 C333 1.409 . S
C331 H323 0.930 1_554 S
C331 C332 1.355 . S
C331 C333 1.415 . S
C332 C331 1.355 . S
C332 C334 1.419 1_565 S
C333 C328 1.425 1_565 S
C333 C330 1.409 . S
C333 C331 1.415 . S
C334 H324 0.930 . S
C334 C332 1.419 1_545 S
C334 C335 1.362 . S
C335 H325 0.930 . S
C335 C328 1.409 . S
C335 C334 1.362 . S
H336 C342 0.930 . S
H337 C345 0.930 . S
H338 C346 0.930 . S
H339 C347 0.930 1_556 S
H340 C350 0.930 . S
H341 C351 0.930 . S
C342 H336 0.930 . S
C342 C343 1.355 . S
C342 C344 1.415 . S
C343 C342 1.355 . S
C343 C345 1.419 . S
C344 C342 1.415 . S
C344 C349 1.425 . S
C344 C351 1.409 . S
C345 H337 0.930 . S
C345 C343 1.419 . S
C345 C346 1.362 . S
C346 H338 0.930 . S
C346 C345 1.362 . S
C346 C349 1.409 . S
C347 H339 0.930 1_554 S
C347 C348 1.355 . S
C347 C349 1.415 . S
C348 C347 1.355 . S
C348 C350 1.419 . S
C349 C344 1.425 . S
C349 C346 1.409 . S
C349 C347 1.415 . S
C350 H340 0.930 . S
C350 C348 1.419 . S
C350 C351 1.362 . S
C351 H341 0.930 . S
C351 C344 1.409 . S
C351 C350 1.362 . S
H352 C358 0.930 . S
H353 C361 0.930 . S
H354 C362 0.930 . S
H355 C363 0.930 . S
H356 C366 0.930 1_556 S
H357 C367 0.930 . S
C358 H352 0.930 . S
C358 C359 1.355 . S
C358 C360 1.415 . S
C359 C358 1.355 . S
C359 C361 1.419 . S
C360 C358 1.415 . S
C360 C365 1.425 . S
C360 C367 1.409 . S
C361 H353 0.930 . S
C361 C359 1.419 . S
C361 C362 1.362 . S
C362 H354 0.930 . S
C362 C361 1.362 . S
C362 C365 1.409 . S
C363 H355 0.930 . S
C363 C364 1.355 1_554 S
C363 C365 1.415 . S
C364 C363 1.355 1_556 S
C364 C366 1.419 1_556 S
C365 C360 1.425 . S
C365 C362 1.409 . S
C365 C363 1.415 . S
C366 H356 0.930 1_554 S
C366 C364 1.419 1_554 S
C366 C367 1.362 . S
C367 H357 0.930 . S
C367 C360 1.409 . S
C367 C366 1.362 . S
H368 C374 0.930 . S
H369 C377 0.930 . S
H370 C378 0.930 . S
H371 C379 0.930 1_556 S
H372 C382 0.930 . S
H373 C383 0.930 . S
C374 H368 0.930 . S
C374 C375 1.355 1_655 S
C374 C376 1.415 . S
C375 C374 1.355 1_455 S
C375 C377 1.419 . S
C376 C374 1.415 . S
C376 C381 1.425 1_655 S
C376 C383 1.409 . S
C377 H369 0.930 . S
C377 C375 1.419 . S
C377 C378 1.362 . S
C378 H370 0.930 . S
C378 C377 1.362 . S
C378 C381 1.409 . S
C379 H371 0.930 1_554 S
C379 C380 1.355 1_454 S
C379 C381 1.415 . S
C380 C379 1.355 1_656 S
C380 C382 1.419 1_556 S
C381 C376 1.425 1_455 S
C381 C378 1.409 . S
C381 C379 1.415 . S
C382 H372 0.930 . S
C382 C380 1.419 1_554 S
C382 C383 1.362 . S
C383 H373 0.930 . S
C383 C376 1.409 . S
C383 C382 1.362 . S
H384 C390 0.930 . S
H385 C393 0.930 1_556 S
H386 C394 0.930 . S
H387 C395 0.930 . S
H388 C398 0.930 . S
H389 C399 0.930 . S
C390 H384 0.930 . S
C390 C391 1.355 1_655 S
C390 C392 1.415 . S
C391 C390 1.355 1_455 S
C391 C393 1.419 . S
C392 C390 1.415 . S
C392 C397 1.425 . S
C392 C399 1.409 . S
C393 H385 0.930 1_554 S
C393 C391 1.419 . S
C393 C394 1.362 1_455 S
C394 H386 0.930 . S
C394 C393 1.362 1_655 S
C394 C397 1.409 . S
C395 H387 0.930 . S
C395 C396 1.355 . S
C395 C397 1.415 . S
C396 C395 1.355 . S
C396 C398 1.419 . S
C397 C392 1.425 . S
C397 C394 1.409 . S
C397 C395 1.415 . S
C398 H388 0.930 . S
C398 C396 1.419 . S
C398 C399 1.362 . S
C399 H389 0.930 . S
C399 C392 1.409 . S
C399 C398 1.362 . S
H400 C406 0.930 . S
H401 C409 0.930 . S
H402 C410 0.930 . S
H403 C411 0.930 . S
H404 C414 0.930 . S
H405 C415 0.930 1_545 S
C406 H400 0.930 . S
C406 C407 1.354 1_545 S
C406 C408 1.415 1_545 S
C407 C406 1.354 1_565 S
C407 C409 1.428 . S
C408 C406 1.415 1_565 S
C408 C413 1.425 . S
C408 C415 1.409 . S
C409 H401 0.930 . S
C409 C407 1.428 . S
C409 C410 1.362 . S
C410 H402 0.930 . S
C410 C409 1.362 . S
C410 C413 1.409 . S
C411 H403 0.930 . S
C411 C412 1.355 . S
C411 C413 1.415 . S
C412 C411 1.355 . S
C412 C414 1.419 . S
C413 C408 1.425 . S
C413 C410 1.409 . S
C413 C411 1.415 . S
C414 H404 0.930 . S
C414 C412 1.419 . S
C414 C415 1.362 . S
C415 H405 0.930 1_565 S
C415 C408 1.409 . S
C415 C414 1.362 . S
H416 C422 0.930 . S
H417 C425 0.930 . S
H418 C426 0.930 . S
H419 C427 0.930 . S
H420 C430 0.930 . S
H421 C431 0.930 . S
C422 H416 0.930 . S
C422 C423 1.355 . S
C422 C424 1.415 . S
C423 C422 1.355 . S
C423 C425 1.419 . S
C424 C422 1.415 . S
C424 C429 1.425 . S
C424 C431 1.409 . S
C425 H417 0.930 . S
C425 C423 1.419 . S
C425 C426 1.362 . S
C426 H418 0.930 . S
C426 C425 1.362 . S
C426 C429 1.409 . S
C427 H419 0.930 . S
C427 C428 1.355 . S
C427 C429 1.415 . S
C428 C427 1.355 . S
C428 C430 1.419 . S
C429 C424 1.425 . S
C429 C426 1.409 . S
C429 C427 1.415 . S
C430 H420 0.930 . S
C430 C428 1.419 . S
C430 C431 1.362 . S
C431 H421 0.930 . S
C431 C424 1.409 . S
C431 C430 1.362 . S
H432 C438 0.930 . S
H433 C441 0.930 1_556 S
H434 C442 0.930 . S
H435 C443 0.930 . S
H436 C446 0.930 . S
H437 C447 0.930 . S
C438 H432 0.930 . S
C438 C439 1.355 . S
C438 C440 1.415 . S
C439 C438 1.355 . S
C439 C441 1.419 . S
C440 C438 1.415 . S
C440 C445 1.425 . S
C440 C447 1.409 . S
C441 H433 0.930 1_554 S
C441 C439 1.419 . S
C441 C442 1.362 . S
C442 H434 0.930 . S
C442 C441 1.362 . S
C442 C445 1.409 . S
C443 H435 0.930 . S
C443 C444 1.355 . S
C443 C445 1.415 . S
C444 C443 1.355 . S
C444 C446 1.419 . S
C445 C440 1.425 . S
C445 C442 1.409 . S
C445 C443 1.415 . S
C446 H436 0.930 . S
C446 C444 1.419 . S
C446 C447 1.362 . S
C447 H437 0.930 . S
C447 C440 1.409 . S
C447 C446 1.362 . S
H448 C454 0.930 . S
H449 C457 0.930 . S
H450 C458 0.930 . S
H451 C459 0.930 . S
H452 C462 0.930 . S
H453 C463 0.930 . S
C454 H448 0.930 . S
C454 C455 1.355 1_455 S
C454 C456 1.415 . S
C455 C454 1.355 1_655 S
C455 C457 1.419 . S
C456 C454 1.415 . S
C456 C461 1.425 . S
C456 C463 1.409 . S
C457 H449 0.930 . S
C457 C455 1.419 . S
C457 C458 1.362 . S
C458 H450 0.930 . S
C458 C457 1.362 . S
C458 C461 1.409 1_655 S
C459 H451 0.930 . S
C459 C460 1.355 . S
C459 C461 1.415 . S
C460 C459 1.355 . S
C460 C462 1.419 . S
C461 C456 1.425 . S
C461 C458 1.409 1_455 S
C461 C459 1.415 . S
C462 H452 0.930 . S
C462 C460 1.419 . S
C462 C463 1.362 . S
C463 H453 0.930 . S
C463 C456 1.409 . S
C463 C462 1.362 . S
H464 C470 0.930 . S
H465 C473 0.930 . S
H466 C474 0.930 1_565 S
H467 C475 0.930 . S
H468 C478 0.930 . S
H469 C479 0.930 . S
C470 H464 0.930 . S
C470 C471 1.355 1_545 S
C470 C472 1.415 . S
C471 C470 1.355 1_565 S
C471 C473 1.419 . S
C472 C470 1.415 . S
C472 C477 1.425 . S
C472 C479 1.409 . S
C473 H465 0.930 . S
C473 C471 1.419 . S
C473 C474 1.362 1_565 S
C474 H466 0.930 1_545 S
C474 C473 1.362 1_545 S
C474 C477 1.409 . S
C475 H467 0.930 . S
C475 C476 1.355 . S
C475 C477 1.415 . S
C476 C475 1.355 . S
C476 C478 1.419 . S
C477 C472 1.425 . S
C477 C474 1.409 . S
C477 C475 1.415 . S
C478 H468 0.930 . S
C478 C476 1.419 . S
C478 C479 1.362 . S
C479 H469 0.930 . S
C479 C472 1.409 . S
C479 C478 1.362 . S
H480 C486 0.930 . S
H481 C489 0.930 . S
H482 C490 0.930 . S
H483 C491 0.930 . S
H484 C494 0.930 . S
H485 C495 0.930 . S
C486 H480 0.930 . S
C486 C487 1.355 . S
C486 C488 1.415 . S
C487 C486 1.355 . S
C487 C489 1.419 . S
C488 C486 1.415 . S
C488 C493 1.425 . S
C488 C495 1.409 . S
C489 H481 0.930 . S
C489 C487 1.419 . S
C489 C490 1.362 . S
C490 H482 0.930 . S
C490 C489 1.362 . S
C490 C493 1.409 . S
C491 H483 0.930 . S
C491 C492 1.355 . S
C491 C493 1.415 . S
C492 C491 1.355 . S
C492 C494 1.419 . S
C493 C488 1.425 . S
C493 C490 1.409 . S
C493 C491 1.415 . S
C494 H484 0.930 . S
C494 C492 1.419 . S
C494 C495 1.362 . S
C495 H485 0.930 . S
C495 C488 1.409 . S
C495 C494 1.362 . S
H496 C502 0.930 . S
H497 C505 0.930 . S
H498 C506 0.930 . S
H499 C507 0.930 . S
H500 C510 0.930 . S
H501 C511 0.930 . S
C502 H496 0.930 . S
C502 C503 1.355 . S
C502 C504 1.415 . S
C503 C502 1.355 . S
C503 C505 1.419 . S
C504 C502 1.415 . S
C504 C509 1.425 . S
C504 C511 1.409 . S
C505 H497 0.930 . S
C505 C503 1.419 . S
C505 C506 1.362 . S
C506 H498 0.930 . S
C506 C505 1.362 . S
C506 C509 1.409 . S
C507 H499 0.930 . S
C507 C508 1.355 . S
C507 C509 1.415 . S
C508 C507 1.355 . S
C508 C510 1.419 . S
C509 C504 1.425 . S
C509 C506 1.409 . S
C509 C507 1.415 . S
C510 H500 0.930 . S
C510 C508 1.419 . S
C510 C511 1.362 . S
C511 H501 0.930 . S
C511 C504 1.409 . S
C511 C510 1.362 . S
H512 C518 0.930 . S
H513 C521 0.930 . S
H514 C522 0.930 . S
H515 C523 0.930 . S
H516 C526 0.930 . S
H517 C527 0.930 . S
C518 H512 0.930 . S
C518 C519 1.355 1_655 S
C518 C520 1.415 . S
C519 C518 1.355 1_455 S
C519 C521 1.419 . S
C520 C518 1.415 . S
C520 C525 1.425 1_655 S
C520 C527 1.409 . S
C521 H513 0.930 . S
C521 C519 1.419 . S
C521 C522 1.362 . S
C522 H514 0.930 . S
C522 C521 1.362 . S
C522 C525 1.409 . S
C523 H515 0.930 . S
C523 C524 1.355 . S
C523 C525 1.415 . S
C524 C523 1.355 . S
C524 C526 1.419 1_455 S
C525 C520 1.425 1_455 S
C525 C522 1.409 . S
C525 C523 1.415 . S
C526 H516 0.930 . S
C526 C524 1.419 1_655 S
C526 C527 1.362 . S
C527 H517 0.930 . S
C527 C520 1.409 . S
C527 C526 1.362 . S
H528 C534 0.930 . S
H529 C537 0.930 . S
H530 C538 0.930 . S
H531 C539 0.930 . S
H532 C542 0.930 . S
H533 C543 0.930 . S
C534 H528 0.930 . S
C534 C535 1.355 1_565 S
C534 C536 1.415 . S
C535 C534 1.355 1_545 S
C535 C537 1.419 . S
C536 C534 1.415 . S
C536 C541 1.425 1_565 S
C536 C543 1.409 . S
C537 H529 0.930 . S
C537 C535 1.419 . S
C537 C538 1.362 . S
C538 H530 0.930 . S
C538 C537 1.362 . S
C538 C541 1.409 . S
C539 H531 0.930 . S
C539 C540 1.355 . S
C539 C541 1.415 . S
C540 C539 1.355 . S
C540 C542 1.419 1_545 S
C541 C536 1.425 1_545 S
C541 C538 1.409 . S
C541 C539 1.415 . S
C542 H532 0.930 . S
C542 C540 1.419 1_565 S
C542 C543 1.362 . S
C543 H533 0.930 . S
C543 C536 1.409 . S
C543 C542 1.362 . S
H544 C550 0.930 . S
H545 C553 0.930 . S
H546 C554 0.930 . S
H547 C555 0.930 . S
H548 C558 0.930 . S
H549 C559 0.930 . S
C550 H544 0.930 . S
C550 C551 1.355 . S
C550 C552 1.415 . S
C551 C550 1.355 . S
C551 C553 1.419 . S
C552 C550 1.415 . S
C552 C557 1.425 . S
C552 C559 1.409 . S
C553 H545 0.930 . S
C553 C551 1.419 . S
C553 C554 1.362 . S
C554 H546 0.930 . S
C554 C553 1.362 . S
C554 C557 1.409 . S
C555 H547 0.930 . S
C555 C556 1.355 . S
C555 C557 1.415 . S
C556 C555 1.355 . S
C556 C558 1.419 . S
C557 C552 1.425 . S
C557 C554 1.409 . S
C557 C555 1.415 . S
C558 H548 0.930 . S
C558 C556 1.419 . S
C558 C559 1.362 . S
C559 H549 0.930 . S
C559 C552 1.409 . S
C559 C558 1.362 . S
H560 C566 0.930 . S
H561 C569 0.930 . S
H562 C570 0.930 . S
H563 C571 0.930 . S
H564 C574 0.930 1_554 S
H565 C575 0.930 1_554 S
C566 H560 0.930 . S
C566 C567 1.355 . S
C566 C568 1.415 . S
C567 C566 1.355 . S
C567 C569 1.419 . S
C568 C566 1.415 . S
C568 C573 1.425 . S
C568 C575 1.409 . S
C569 H561 0.930 . S
C569 C567 1.419 . S
C569 C570 1.362 . S
C570 H562 0.930 . S
C570 C569 1.362 . S
C570 C573 1.409 . S
C571 H563 0.930 . S
C571 C572 1.355 . S
C571 C573 1.415 . S
C572 C571 1.355 . S
C572 C574 1.419 . S
C573 C568 1.425 . S
C573 C570 1.409 . S
C573 C571 1.415 . S
C574 H564 0.930 1_556 S
C574 C572 1.419 . S
C574 C575 1.362 . S
C575 H565 0.930 1_556 S
C575 C568 1.409 . S
C575 C574 1.362 . S
H576 C582 0.930 . S
H577 C585 0.930 . S
H578 C586 0.930 . S
H579 C587 0.930 . S
H580 C590 0.930 . S
H581 C591 0.930 . S
C582 H576 0.930 . S
C582 C583 1.355 1_455 S
C582 C584 1.415 . S
C583 C582 1.355 1_655 S
C583 C585 1.419 . S
C584 C582 1.415 . S
C584 C589 1.425 1_455 S
C584 C591 1.409 . S
C585 H577 0.930 . S
C585 C583 1.419 . S
C585 C586 1.362 . S
C586 H578 0.930 . S
C586 C585 1.362 . S
C586 C589 1.409 . S
C587 H579 0.930 . S
C587 C588 1.355 . S
C587 C589 1.415 . S
C588 C587 1.355 . S
C588 C590 1.419 1_655 S
C589 C584 1.425 1_655 S
C589 C586 1.409 . S
C589 C587 1.415 . S
C590 H580 0.930 . S
C590 C588 1.419 1_455 S
C590 C591 1.362 . S
C591 H581 0.930 . S
C591 C584 1.409 . S
C591 C590 1.362 . S
H592 C598 0.930 . S
H593 C601 0.930 . S
H594 C602 0.930 . S
H595 C603 0.929 1_545 S
H596 C606 0.930 . S
H597 C607 0.930 . S
C598 H592 0.930 . S
C598 C599 1.366 . S
C598 C600 1.415 . S
C599 C598 1.366 . S
C599 C601 1.408 1_565 S
C600 C598 1.415 . S
C600 C605 1.420 1_565 S
C600 C607 1.409 . S
C601 H593 0.930 . S
C601 C599 1.408 1_545 S
C601 C602 1.362 . S
C602 H594 0.930 . S
C602 C601 1.362 . S
C602 C605 1.415 . S
C603 H595 0.929 1_565 S
C603 C604 1.356 . S
C603 C605 1.415 1_565 S
C604 C603 1.356 . S
C604 C606 1.419 . S
C605 C600 1.420 1_545 S
C605 C602 1.415 . S
C605 C603 1.415 1_545 S
C606 H596 0.930 . S
C606 C604 1.419 . S
C606 C607 1.362 . S
C607 H597 0.930 . S
C607 C600 1.409 . S
C607 C606 1.362 . S
H608 C614 0.930 . S
H609 C617 0.930 . S
H610 C618 0.930 . S
H611 C619 0.930 . S
H612 C622 0.930 . S
H613 C623 0.930 . S
C614 H608 0.930 . S
C614 C615 1.355 . S
C614 C616 1.415 . S
C615 C614 1.355 . S
C615 C617 1.419 . S
C616 C614 1.415 . S
C616 C621 1.425 . S
C616 C623 1.409 . S
C617 H609 0.930 . S
C617 C615 1.419 . S
C617 C618 1.362 . S
C618 H610 0.930 . S
C618 C617 1.362 . S
C618 C621 1.409 . S
C619 H611 0.930 . S
C619 C620 1.355 . S
C619 C621 1.415 . S
C620 C619 1.355 . S
C620 C622 1.419 . S
C621 C616 1.425 . S
C621 C618 1.409 . S
C621 C619 1.415 . S
C622 H612 0.930 . S
C622 C620 1.419 . S
C622 C623 1.362 . S
C623 H613 0.930 . S
C623 C616 1.409 . S
C623 C622 1.362 . S
H624 C630 0.930 . S
H625 C633 0.930 . S
H626 C634 0.930 . S
H627 C635 0.930 . S
H628 C638 0.930 . S
H629 C639 0.930 . S
C630 H624 0.930 . S
C630 C631 1.355 . S
C630 C632 1.415 . S
C631 C630 1.355 . S
C631 C633 1.419 . S
C632 C630 1.415 . S
C632 C637 1.425 . S
C632 C639 1.409 . S
C633 H625 0.930 . S
C633 C631 1.419 . S
C633 C634 1.362 . S
C634 H626 0.930 . S
C634 C633 1.362 . S
C634 C637 1.409 . S
C635 H627 0.930 . S
C635 C636 1.355 . S
C635 C637 1.415 . S
C636 C635 1.355 . S
C636 C638 1.419 . S
C637 C632 1.425 . S
C637 C634 1.409 . S
C637 C635 1.415 . S
C638 H628 0.930 . S
C638 C636 1.419 . S
C638 C639 1.362 . S
C639 H629 0.930 . S
C639 C632 1.409 . S
C639 C638 1.362 . S
C263 C76 1.812 1_545 S
C268 C106 2.042 . S
C284 C146 2.050 . S
C279 C88 1.839 . S
C300 C186 2.066 . S
C295 C52 1.915 . S
C316 C226 2.061 1_455 S
C311 C64 1.869 . S
C332 C115 2.052 1_564 S
C327 C28 1.813 1_545 S
C343 C40 1.817 . S
C348 C155 2.062 1_554 S
C359 C4 1.898 . S
C364 C195 2.072 . S
C375 C16 1.848 1_455 S
C380 C235 2.061 1_655 S
C396 C112 0.660 . S
C391 C69 0.590 . S
C412 C152 0.568 . S
C407 C81 0.631 1_565 S
C428 C192 0.543 . S
C423 C93 0.594 . S
C439 C57 0.584 . S
C444 C232 0.655 . S
C455 C21 0.704 1_655 S
C460 C103 0.714 . S
C476 C143 0.697 . S
C471 C33 0.718 1_565 S
C492 C183 0.579 . S
C487 C45 0.643 . S
C503 C9 0.531 . S
C508 C223 0.568 . S
C519 C66 2.109 . S
C524 C107 2.391 . S
C535 C78 2.124 . S
C540 C147 2.372 . S
C556 C187 2.362 . S
C551 C90 2.112 . S
C572 C227 2.401 . S
C567 C54 2.162 . S
C583 C18 2.153 1_655 S
C588 C98 2.400 . S
C604 C138 2.403 . S
C599 C30 2.142 1_565 S
C620 C178 2.379 . S
C615 C42 2.155 . S
C631 C6 2.172 . S
C636 C218 2.414 . S
