# Generated by pormake.
# Topology bwt, (3,3)-cn, num edge types: 1
# Building blocks:
#     Node 0, Type 0, BuildingBlock: WUSLED_clean_sbu_0, # of connection points: 3
#     Node 1, Type 0, BuildingBlock: WUSLED_clean_sbu_0, # of connection points: 3
#     Node 2, Type 0, BuildingBlock: WUSLED_clean_sbu_0, # of connection points: 3
#     Node 3, Type 0, BuildingBlock: WUSLED_clean_sbu_0, # of connection points: 3
#     Node 4, Type 0, BuildingBlock: WUSLED_clean_sbu_0, # of connection points: 3
#     Node 5, Type 0, BuildingBlock: WUSLED_clean_sbu_0, # of connection points: 3
#     Node 6, Type 0, BuildingBlock: WUSLED_clean_sbu_0, # of connection points: 3
#     Node 7, Type 0, BuildingBlock: WUSLED_clean_sbu_0, # of connection points: 3
#     Node 8, Type 0, BuildingBlock: WUSLED_clean_sbu_0, # of connection points: 3
#     Node 9, Type 0, BuildingBlock: WUSLED_clean_sbu_0, # of connection points: 3
#     Node 10, Type 0, BuildingBlock: WUSLED_clean_sbu_0, # of connection points: 3
#     Node 11, Type 0, BuildingBlock: WUSLED_clean_sbu_0, # of connection points: 3
#     Node 12, Type 0, BuildingBlock: WUSLED_clean_sbu_0, # of connection points: 3
#     Node 13, Type 0, BuildingBlock: WUSLED_clean_sbu_0, # of connection points: 3
#     Node 14, Type 0, BuildingBlock: WUSLED_clean_sbu_0, # of connection points: 3
#     Node 15, Type 0, BuildingBlock: WUSLED_clean_sbu_0, # of connection points: 3
#     Node 16, Type 0, BuildingBlock: WUSLED_clean_sbu_0, # of connection points: 3
#     Node 17, Type 0, BuildingBlock: WUSLED_clean_sbu_0, # of connection points: 3
#     Node 18, Type 0, BuildingBlock: WUSLED_clean_sbu_0, # of connection points: 3
#     Node 19, Type 0, BuildingBlock: WUSLED_clean_sbu_0, # of connection points: 3
#     Node 20, Type 0, BuildingBlock: WUSLED_clean_sbu_0, # of connection points: 3
#     Node 21, Type 0, BuildingBlock: WUSLED_clean_sbu_0, # of connection points: 3
#     Node 22, Type 0, BuildingBlock: WUSLED_clean_sbu_0, # of connection points: 3
#     Node 23, Type 0, BuildingBlock: WUSLED_clean_sbu_0, # of connection points: 3
#     Node 24, Type 1, BuildingBlock: BETDAH_clean_linker_0, # of connection points: 3
#     Node 25, Type 1, BuildingBlock: BETDAH_clean_linker_0, # of connection points: 3
#     Node 26, Type 1, BuildingBlock: BETDAH_clean_linker_0, # of connection points: 3
#     Node 27, Type 1, BuildingBlock: BETDAH_clean_linker_0, # of connection points: 3
#     Node 28, Type 1, BuildingBlock: BETDAH_clean_linker_0, # of connection points: 3
#     Node 29, Type 1, BuildingBlock: BETDAH_clean_linker_0, # of connection points: 3
#     Node 30, Type 1, BuildingBlock: BETDAH_clean_linker_0, # of connection points: 3
#     Node 31, Type 1, BuildingBlock: BETDAH_clean_linker_0, # of connection points: 3
#     Node 32, Type 1, BuildingBlock: BETDAH_clean_linker_0, # of connection points: 3
#     Node 33, Type 1, BuildingBlock: BETDAH_clean_linker_0, # of connection points: 3
#     Node 34, Type 1, BuildingBlock: BETDAH_clean_linker_0, # of connection points: 3
#     Node 35, Type 1, BuildingBlock: BETDAH_clean_linker_0, # of connection points: 3
#     Node 36, Type 1, BuildingBlock: BETDAH_clean_linker_0, # of connection points: 3
#     Node 37, Type 1, BuildingBlock: BETDAH_clean_linker_0, # of connection points: 3
#     Node 38, Type 1, BuildingBlock: BETDAH_clean_linker_0, # of connection points: 3
#     Node 39, Type 1, BuildingBlock: BETDAH_clean_linker_0, # of connection points: 3
#     Node 40, Type 1, BuildingBlock: BETDAH_clean_linker_0, # of connection points: 3
#     Node 41, Type 1, BuildingBlock: BETDAH_clean_linker_0, # of connection points: 3
#     Node 42, Type 1, BuildingBlock: BETDAH_clean_linker_0, # of connection points: 3
#     Node 43, Type 1, BuildingBlock: BETDAH_clean_linker_0, # of connection points: 3
#     Node 44, Type 1, BuildingBlock: BETDAH_clean_linker_0, # of connection points: 3
#     Node 45, Type 1, BuildingBlock: BETDAH_clean_linker_0, # of connection points: 3
#     Node 46, Type 1, BuildingBlock: BETDAH_clean_linker_0, # of connection points: 3
#     Node 47, Type 1, BuildingBlock: BETDAH_clean_linker_0, # of connection points: 3
#     Edge 48, Type (0, 1), BuildingBlock: CIFDUS_clean_linker_0, # of connection points: 2
#     Edge 49, Type (0, 1), BuildingBlock: CIFDUS_clean_linker_0, # of connection points: 2
#     Edge 50, Type (0, 1), BuildingBlock: CIFDUS_clean_linker_0, # of connection points: 2
#     Edge 51, Type (0, 1), BuildingBlock: CIFDUS_clean_linker_0, # of connection points: 2
#     Edge 52, Type (0, 1), BuildingBlock: CIFDUS_clean_linker_0, # of connection points: 2
#     Edge 53, Type (0, 1), BuildingBlock: CIFDUS_clean_linker_0, # of connection points: 2
#     Edge 54, Type (0, 1), BuildingBlock: CIFDUS_clean_linker_0, # of connection points: 2
#     Edge 55, Type (0, 1), BuildingBlock: CIFDUS_clean_linker_0, # of connection points: 2
#     Edge 56, Type (0, 1), BuildingBlock: CIFDUS_clean_linker_0, # of connection points: 2
#     Edge 57, Type (0, 1), BuildingBlock: CIFDUS_clean_linker_0, # of connection points: 2
#     Edge 58, Type (0, 1), BuildingBlock: CIFDUS_clean_linker_0, # of connection points: 2
#     Edge 59, Type (0, 1), BuildingBlock: CIFDUS_clean_linker_0, # of connection points: 2
#     Edge 60, Type (0, 1), BuildingBlock: CIFDUS_clean_linker_0, # of connection points: 2
#     Edge 61, Type (0, 1), BuildingBlock: CIFDUS_clean_linker_0, # of connection points: 2
#     Edge 62, Type (0, 1), BuildingBlock: CIFDUS_clean_linker_0, # of connection points: 2
#     Edge 63, Type (0, 1), BuildingBlock: CIFDUS_clean_linker_0, # of connection points: 2
#     Edge 64, Type (0, 1), BuildingBlock: CIFDUS_clean_linker_0, # of connection points: 2
#     Edge 65, Type (0, 1), BuildingBlock: CIFDUS_clean_linker_0, # of connection points: 2
#     Edge 66, Type (0, 1), BuildingBlock: CIFDUS_clean_linker_0, # of connection points: 2
#     Edge 67, Type (0, 1), BuildingBlock: CIFDUS_clean_linker_0, # of connection points: 2
#     Edge 68, Type (0, 1), BuildingBlock: CIFDUS_clean_linker_0, # of connection points: 2
#     Edge 69, Type (0, 1), BuildingBlock: CIFDUS_clean_linker_0, # of connection points: 2
#     Edge 70, Type (0, 1), BuildingBlock: CIFDUS_clean_linker_0, # of connection points: 2
#     Edge 71, Type (0, 1), BuildingBlock: CIFDUS_clean_linker_0, # of connection points: 2
#     Edge 72, Type (0, 1), BuildingBlock: CIFDUS_clean_linker_0, # of connection points: 2
#     Edge 73, Type (0, 1), BuildingBlock: CIFDUS_clean_linker_0, # of connection points: 2
#     Edge 74, Type (0, 1), BuildingBlock: CIFDUS_clean_linker_0, # of connection points: 2
#     Edge 75, Type (0, 1), BuildingBlock: CIFDUS_clean_linker_0, # of connection points: 2
#     Edge 76, Type (0, 1), BuildingBlock: CIFDUS_clean_linker_0, # of connection points: 2
#     Edge 77, Type (0, 1), BuildingBlock: CIFDUS_clean_linker_0, # of connection points: 2
#     Edge 78, Type (0, 1), BuildingBlock: CIFDUS_clean_linker_0, # of connection points: 2
#     Edge 79, Type (0, 1), BuildingBlock: CIFDUS_clean_linker_0, # of connection points: 2
#     Edge 80, Type (0, 1), BuildingBlock: CIFDUS_clean_linker_0, # of connection points: 2
#     Edge 81, Type (0, 1), BuildingBlock: CIFDUS_clean_linker_0, # of connection points: 2
#     Edge 82, Type (0, 1), BuildingBlock: CIFDUS_clean_linker_0, # of connection points: 2
#     Edge 83, Type (0, 1), BuildingBlock: CIFDUS_clean_linker_0, # of connection points: 2
#     Edge 84, Type (0, 1), BuildingBlock: CIFDUS_clean_linker_0, # of connection points: 2
#     Edge 85, Type (0, 1), BuildingBlock: CIFDUS_clean_linker_0, # of connection points: 2
#     Edge 86, Type (0, 1), BuildingBlock: CIFDUS_clean_linker_0, # of connection points: 2
#     Edge 87, Type (0, 1), BuildingBlock: CIFDUS_clean_linker_0, # of connection points: 2
#     Edge 88, Type (0, 1), BuildingBlock: CIFDUS_clean_linker_0, # of connection points: 2
#     Edge 89, Type (0, 1), BuildingBlock: CIFDUS_clean_linker_0, # of connection points: 2
#     Edge 90, Type (0, 1), BuildingBlock: CIFDUS_clean_linker_0, # of connection points: 2
#     Edge 91, Type (0, 1), BuildingBlock: CIFDUS_clean_linker_0, # of connection points: 2
#     Edge 92, Type (0, 1), BuildingBlock: CIFDUS_clean_linker_0, # of connection points: 2
#     Edge 93, Type (0, 1), BuildingBlock: CIFDUS_clean_linker_0, # of connection points: 2
#     Edge 94, Type (0, 1), BuildingBlock: CIFDUS_clean_linker_0, # of connection points: 2
#     Edge 95, Type (0, 1), BuildingBlock: CIFDUS_clean_linker_0, # of connection points: 2
#     Edge 96, Type (0, 1), BuildingBlock: CIFDUS_clean_linker_0, # of connection points: 2
#     Edge 97, Type (0, 1), BuildingBlock: CIFDUS_clean_linker_0, # of connection points: 2
#     Edge 98, Type (0, 1), BuildingBlock: CIFDUS_clean_linker_0, # of connection points: 2
#     Edge 99, Type (0, 1), BuildingBlock: CIFDUS_clean_linker_0, # of connection points: 2
#     Edge 100, Type (0, 1), BuildingBlock: CIFDUS_clean_linker_0, # of connection points: 2
#     Edge 101, Type (0, 1), BuildingBlock: CIFDUS_clean_linker_0, # of connection points: 2
#     Edge 102, Type (0, 1), BuildingBlock: CIFDUS_clean_linker_0, # of connection points: 2
#     Edge 103, Type (0, 1), BuildingBlock: CIFDUS_clean_linker_0, # of connection points: 2
#     Edge 104, Type (0, 1), BuildingBlock: CIFDUS_clean_linker_0, # of connection points: 2
#     Edge 105, Type (0, 1), BuildingBlock: CIFDUS_clean_linker_0, # of connection points: 2
#     Edge 106, Type (0, 1), BuildingBlock: CIFDUS_clean_linker_0, # of connection points: 2
#     Edge 107, Type (0, 1), BuildingBlock: CIFDUS_clean_linker_0, # of connection points: 2
#     Edge 108, Type (0, 1), BuildingBlock: CIFDUS_clean_linker_0, # of connection points: 2
#     Edge 109, Type (0, 1), BuildingBlock: CIFDUS_clean_linker_0, # of connection points: 2
#     Edge 110, Type (0, 1), BuildingBlock: CIFDUS_clean_linker_0, # of connection points: 2
#     Edge 111, Type (0, 1), BuildingBlock: CIFDUS_clean_linker_0, # of connection points: 2
#     Edge 112, Type (0, 1), BuildingBlock: CIFDUS_clean_linker_0, # of connection points: 2
#     Edge 113, Type (0, 1), BuildingBlock: CIFDUS_clean_linker_0, # of connection points: 2
#     Edge 114, Type (0, 1), BuildingBlock: CIFDUS_clean_linker_0, # of connection points: 2
#     Edge 115, Type (0, 1), BuildingBlock: CIFDUS_clean_linker_0, # of connection points: 2
#     Edge 116, Type (0, 1), BuildingBlock: CIFDUS_clean_linker_0, # of connection points: 2
#     Edge 117, Type (0, 1), BuildingBlock: CIFDUS_clean_linker_0, # of connection points: 2
#     Edge 118, Type (0, 1), BuildingBlock: CIFDUS_clean_linker_0, # of connection points: 2
#     Edge 119, Type (0, 1), BuildingBlock: CIFDUS_clean_linker_0, # of connection points: 2
# Relax obj value: 0.118
# Max RMSD: 0.174
# Mean RMSD: 0.086
data_MOF--net-bwt--node1-WUSLED_clean_sbu_0--node2-BETDAH_clean_linker_0--edge1-CIFDUS_clean_linker_0
_symmetry_space_group_name_H-M    P1
_symmetry_Int_Tables_number       1
_symmetry_cell_setting            triclinic
loop_
_symmetry_equiv_pos_as_xyz
'x, y, z'
_cell_length_a     62.160951
_cell_length_b     62.159175
_cell_length_c     62.183302
_cell_angle_alpha  95.084488
_cell_angle_beta   95.095117
_cell_angle_gamma 95.107394
loop_
_atom_site_label
_atom_site_type_symbol
_atom_site_fract_x
_atom_site_fract_y
_atom_site_fract_z
_atom_type_partial_charge
C0 C 0.32309 0.64287 0.3556 0.0
C1 C 0.33929 0.64502 0.37313 0.0
C2 C 0.36736 0.64121 0.34828 0.0
C3 C 0.36117 0.64429 0.36951 0.0
C4 C 0.35101 0.63873 0.3308 0.0
C5 C 0.32914 0.63958 0.33444 0.0
U6 U 0.27606 0.63256 0.38988 0.0
O7 O 0.24921 0.65193 0.39768 0.0
O8 O 0.24211 0.61908 0.38104 0.0
C9 C 0.23416 0.6367 0.38891 0.0
C10 C 0.2999 0.64374 0.35908 0.0
C11 C 0.21516 0.64364 0.37626 0.0
C12 C 0.19764 0.65781 0.34459 0.0
C13 C 0.21647 0.65224 0.35624 0.0
C14 C 0.17624 0.6465 0.37301 0.0
C15 C 0.17722 0.65489 0.3528 0.0
C16 C 0.19496 0.64098 0.38455 0.0
C17 C 0.29077 0.60665 0.4433 0.0
C18 C 0.26839 0.58371 0.46405 0.0
C19 C 0.30399 0.59945 0.47969 0.0
C20 C 0.30691 0.60955 0.46081 0.0
C21 C 0.28483 0.58613 0.48146 0.0
C22 C 0.27133 0.59388 0.44513 0.0
C23 C 0.29544 0.61585 0.42294 0.0
O24 O 0.28837 0.62484 0.35819 0.0
O25 O 0.29572 0.65749 0.37515 0.0
O26 O 0.29421 0.6368 0.42239 0.0
O27 O 0.28735 0.60435 0.40481 0.0
H28 H 0.33504 0.64731 0.38965 0.0
H29 H 0.37325 0.64599 0.38338 0.0
H30 H 0.35513 0.63661 0.31424 0.0
H31 H 0.31693 0.6378 0.32068 0.0
H32 H 0.19905 0.66437 0.32916 0.0
H33 H 0.23194 0.65446 0.34956 0.0
H34 H 0.16087 0.64359 0.37971 0.0
H35 H 0.19358 0.63427 0.39993 0.0
H36 H 0.25346 0.57354 0.46482 0.0
H37 H 0.31678 0.60213 0.49293 0.0
H38 H 0.32201 0.61937 0.45974 0.0
H39 H 0.25862 0.5914 0.43181 0.0
C40 C 0.19115 0.32065 0.77498 0.0
C41 C 0.17789 0.32324 0.79202 0.0
C42 C 0.14536 0.31743 0.76632 0.0
C43 C 0.15524 0.32153 0.78775 0.0
C44 C 0.15874 0.31485 0.74933 0.0
C45 C 0.18136 0.31642 0.75364 0.0
U46 U 0.24255 0.34784 0.80745 0.0
O47 O 0.2737 0.33585 0.81854 0.0
O48 O 0.27307 0.36217 0.79712 0.0
C49 C 0.28502 0.3497 0.80811 0.0
C50 C 0.21511 0.32327 0.77902 0.0
C51 C 0.30446 0.34277 0.79855 0.0
C52 C 0.32355 0.33064 0.76785 0.0
C53 C 0.30403 0.33387 0.77695 0.0
C54 C 0.34384 0.3447 0.80198 0.0
C55 C 0.34379 0.33655 0.78011 0.0
C56 C 0.32444 0.34764 0.81105 0.0
C57 C 0.23716 0.39075 0.85349 0.0
C58 C 0.26915 0.40927 0.87486 0.0
C59 C 0.23446 0.42406 0.8762 0.0
C60 C 0.22472 0.40669 0.86175 0.0
C61 C 0.25688 0.42577 0.88269 0.0
C62 C 0.2594 0.392 0.86028 0.0
C63 C 0.22716 0.374 0.83652 0.0
O64 O 0.22441 0.34216 0.77507 0.0
O65 O 0.22346 0.31648 0.79711 0.0
O66 O 0.23063 0.35387 0.83955 0.0
O67 O 0.22955 0.37871 0.81666 0.0
H68 H 0.18505 0.32681 0.80863 0.0
H69 H 0.14547 0.32385 0.8012 0.0
H70 H 0.15171 0.31142 0.73268 0.0
H71 H 0.19126 0.31447 0.74023 0.0
H72 H 0.32274 0.324 0.75108 0.0
H73 H 0.28873 0.33005 0.767 0.0
H74 H 0.35888 0.34994 0.81195 0.0
H75 H 0.32513 0.35474 0.82769 0.0
H76 H 0.28635 0.40979 0.87982 0.0
H77 H 0.22454 0.43652 0.88168 0.0
H78 H 0.20755 0.40604 0.85653 0.0
H79 H 0.2693 0.37986 0.85398 0.0
C80 C 0.72478 0.99462 0.63584 0.0
C81 C 0.74103 0.99588 0.6216 0.0
C82 C 0.76899 0.99885 0.652 0.0
C83 C 0.76289 0.99789 0.62957 0.0
C84 C 0.7526 0.9978 0.66625 0.0
C85 C 0.73065 0.99568 0.65821 0.0
U86 U 0.68467 0.994 0.58743 0.0
O87 O 0.65606 0.97154 0.57463 0.0
O88 O 0.65289 0.00634 0.5817 0.0
C89 C 0.64296 0.98701 0.57509 0.0
C90 C 0.70185 0.99191 0.62708 0.0
C91 C 0.62199 0.98201 0.58343 0.0
C92 C 0.59938 0.98018 0.61314 0.0
C93 C 0.61997 0.98257 0.60573 0.0
C94 C 0.58285 0.97587 0.576 0.0
C95 C 0.58059 0.97729 0.59834 0.0
C96 C 0.6034 0.97822 0.56863 0.0
C97 C 0.70496 0.0052 0.53411 0.0
C98 C 0.68489 0.99199 0.49951 0.0
C99 C 0.71096 0.02373 0.50211 0.0
C100 C 0.71555 0.02201 0.52427 0.0
C101 C 0.69582 0.00851 0.48938 0.0
C102 C 0.68926 0.99047 0.52166 0.0
C103 C 0.70985 0.00345 0.55741 0.0
O104 O 0.69422 0.00956 0.62054 0.0
O105 O 0.69649 0.97469 0.61313 0.0
O106 O 0.70661 0.9838 0.56355 0.0
O107 O 0.70242 0.01839 0.57028 0.0
H108 H 0.73678 0.99506 0.60424 0.0
H109 H 0.775 0.99824 0.61808 0.0
H110 H 0.75672 0.99873 0.68362 0.0
H111 H 0.71829 0.9948 0.66942 0.0
H112 H 0.59814 0.98163 0.63047 0.0
H113 H 0.63421 0.98557 0.61735 0.0
H114 H 0.56871 0.97347 0.56424 0.0
H115 H 0.60475 0.97775 0.55134 0.0
H116 H 0.67341 0.97975 0.49025 0.0
H117 H 0.71941 0.03687 0.49492 0.0
H118 H 0.72742 0.03375 0.53373 0.0
H119 H 0.68057 0.97755 0.52896 0.0
C120 C 0.74347 0.9974 0.25429 0.0
C121 C 0.73223 0.01251 0.24338 0.0
C122 C 0.69801 0.99691 0.25437 0.0
C123 C 0.70968 0.01215 0.24328 0.0
C124 C 0.70897 0.98031 0.263 0.0
C125 C 0.73148 0.98059 0.26298 0.0
U126 U 0.80643 1.00102 0.24912 0.0
O127 O 0.8308 0.9937 0.27455 0.0
O128 O 0.83006 0.02705 0.26565 0.0
C129 C 0.84011 0.0137 0.27734 0.0
C130 C 0.76701 1.00165 0.26102 0.0
C131 C 0.86388 0.01603 0.27833 0.0
C132 C 0.89833 0.02781 0.29929 0.0
C133 C 0.87572 0.02665 0.29705 0.0
C134 C 0.89759 0.00827 0.26368 0.0
C135 C 0.90954 0.01826 0.28283 0.0
C136 C 0.87489 0.00715 0.26145 0.0
C137 C 0.7977 0.98061 0.18887 0.0
C138 C 0.79418 0.96801 0.15055 0.0
C139 C 0.76239 0.97693 0.16813 0.0
C140 C 0.77526 0.98209 0.18784 0.0
C141 C 0.77178 0.97022 0.14917 0.0
C142 C 0.80701 0.97319 0.17025 0.0
C143 C 0.81177 0.98792 0.20884 0.0
O144 O 0.77831 0.98484 0.26249 0.0
O145 O 0.7777 0.01838 0.25389 0.0
O146 O 0.81131 0.00842 0.21594 0.0
O147 O 0.8113 0.97482 0.2243 0.0
H148 H 0.74092 0.02564 0.2364 0.0
H149 H 0.70163 0.02483 0.23594 0.0
H150 H 0.70056 0.96827 0.27161 0.0
H151 H 0.73968 0.96876 0.27158 0.0
H152 H 0.90704 0.03593 0.31406 0.0
H153 H 0.86744 0.03371 0.31017 0.0
H154 H 0.90572 1.00061 0.25077 0.0
H155 H 0.86593 0.99893 0.24684 0.0
H156 H 0.80196 0.96317 0.13623 0.0
H157 H 0.74516 0.97856 0.16765 0.0
H158 H 0.76781 0.98775 0.20214 0.0
H159 H 0.82434 0.97201 0.1708 0.0
C160 C 0.37629 0.33172 0.63113 0.0
C161 C 0.38211 0.34359 0.61405 0.0
C162 C 0.36289 0.3738 0.62775 0.0
C163 C 0.37572 0.36448 0.61251 0.0
C164 C 0.35721 0.36172 0.64495 0.0
C165 C 0.36405 0.34102 0.64672 0.0
U166 U 0.39278 0.26982 0.63393 0.0
O167 O 0.38264 0.25355 0.66206 0.0
O168 O 0.36494 0.24488 0.62991 0.0
C169 C 0.36722 0.2407 0.6503 0.0
C170 C 0.38223 0.30938 0.63216 0.0
C171 C 0.36562 0.21756 0.65435 0.0
C172 C 0.35033 0.18892 0.6744 0.0
C173 C 0.35353 0.21088 0.67099 0.0
C174 C 0.37164 0.1799 0.64471 0.0
C175 C 0.35911 0.17305 0.66115 0.0
C176 C 0.37489 0.20194 0.64137 0.0
C177 C 0.44699 0.26916 0.60783 0.0
C178 C 0.47515 0.26456 0.58352 0.0
C179 C 0.47352 0.29941 0.60372 0.0
C180 C 0.45519 0.29099 0.61298 0.0
C181 C 0.48393 0.2862 0.58909 0.0
C182 C 0.45691 0.25617 0.59279 0.0
C183 C 0.42879 0.25917 0.61845 0.0
O184 O 0.37684 0.29419 0.61602 0.0
O185 O 0.39344 0.30344 0.6492 0.0
O186 O 0.42765 0.26597 0.63893 0.0
O187 O 0.40981 0.25642 0.60694 0.0
H188 H 0.39169 0.33671 0.60191 0.0
H189 H 0.38096 0.37331 0.59936 0.0
H190 H 0.34706 0.36796 0.65683 0.0
H191 H 0.35926 0.33203 0.65996 0.0
H192 H 0.34094 0.1844 0.68744 0.0
H193 H 0.34627 0.22269 0.68123 0.0
H194 H 0.37847 0.16819 0.63401 0.0
H195 H 0.38427 0.20671 0.6284 0.0
H196 H 0.48287 0.25379 0.57261 0.0
H197 H 0.47971 0.3162 0.60822 0.0
H198 H 0.44769 0.30139 0.62443 0.0
H199 H 0.45085 0.23929 0.58861 0.0
C200 C 0.2607 0.74684 0.01122 0.0
C201 C 0.26215 0.73442 0.02898 0.0
C202 C 0.26138 0.70144 0.00472 0.0
C203 C 0.26256 0.71197 0.02578 0.0
C204 C 0.25835 0.71358 0.98687 0.0
C205 C 0.25817 0.73616 0.99009 0.0
U206 U 0.2525 0.80908 0.01215 0.0
O207 O 0.27794 0.83423 0.00629 0.0
O208 O 0.26606 0.83383 0.03846 0.0
C209 C 0.278 0.84447 0.0257 0.0
C210 C 0.26602 0.77058 0.01531 0.0
C211 C 0.276 0.86789 0.02607 0.0
C212 C 0.29246 0.904 0.02207 0.0
C213 C 0.29417 0.88185 0.02302 0.0
C214 C 0.25438 0.89859 0.02779 0.0
C215 C 0.27251 0.91265 0.0243 0.0
C216 C 0.25608 0.87638 0.02853 0.0
C217 C 0.1928 0.80145 0.98555 0.0
C218 C 0.15444 0.8019 0.97464 0.0
C219 C 0.17175 0.76883 0.96796 0.0
C220 C 0.19158 0.77952 0.97748 0.0
C221 C 0.15298 0.77998 0.96635 0.0
C222 C 0.17414 0.81249 0.98411 0.0
C223 C 0.21318 0.81362 0.99518 0.0
O224 O 0.26861 0.78168 0.99852 0.0
O225 O 0.25665 0.78091 0.03076 0.0
O226 O 0.2181 0.81256 0.01603 0.0
O227 O 0.22995 0.8128 0.98375 0.0
H228 H 0.26446 0.74224 0.04542 0.0
H229 H 0.26485 0.70294 0.0398 0.0
H230 H 0.2575 0.70579 0.97049 0.0
H231 H 0.25721 0.7453 0.97605 0.0
H232 H 0.30666 0.9142 0.01891 0.0
H233 H 0.30963 0.87555 0.02091 0.0
H234 H 0.23884 0.9047 0.0298 0.0
H235 H 0.24178 0.86583 0.03078 0.0
H236 H 0.14023 0.81082 0.97414 0.0
H237 H 0.17113 0.75194 0.9617 0.0
H238 H 0.20589 0.77077 0.97848 0.0
H239 H 0.17482 0.82941 0.99036 0.0
C240 C 0.777 0.19247 0.32362 0.0
C241 C 0.79252 0.18055 0.33367 0.0
C242 C 0.7688 0.14693 0.32412 0.0
C243 C 0.7885 0.15803 0.33386 0.0
C244 C 0.75345 0.15899 0.31379 0.0
C245 C 0.75753 0.18151 0.31357 0.0
U246 U 0.8094 0.24445 0.34798 0.0
O247 O 0.81998 0.27514 0.33478 0.0
O248 O 0.79946 0.27531 0.36184 0.0
C249 C 0.80979 0.28683 0.34854 0.0
C250 C 0.78052 0.21637 0.32478 0.0
C251 C 0.79937 0.30555 0.34091 0.0
C252 C 0.76735 0.32365 0.33074 0.0
C253 C 0.77711 0.30454 0.33422 0.0
C254 C 0.80212 0.3447 0.33995 0.0
C255 C 0.77962 0.34412 0.33422 0.0
C256 C 0.81182 0.32567 0.34313 0.0
C257 C 0.85623 0.23909 0.39047 0.0
C258 C 0.87776 0.27071 0.40947 0.0
C259 C 0.87964 0.23552 0.42308 0.0
C260 C 0.86493 0.22618 0.40575 0.0
C261 C 0.88596 0.25798 0.42539 0.0
C262 C 0.86291 0.26137 0.39224 0.0
C263 C 0.83888 0.2294 0.37398 0.0
O264 O 0.77695 0.22647 0.3434 0.0
O265 O 0.79843 0.22432 0.31733 0.0
O266 O 0.84162 0.23269 0.35376 0.0
O267 O 0.81919 0.23216 0.37904 0.0
H268 H 0.80764 0.18872 0.34163 0.0
H269 H 0.80085 0.14933 0.34168 0.0
H270 H 0.73799 0.15114 0.30638 0.0
H271 H 0.74527 0.19045 0.3059 0.0
H272 H 0.75008 0.32238 0.32593 0.0
H273 H 0.76717 0.28915 0.33243 0.0
H274 H 0.8122 0.35996 0.34323 0.0
H275 H 0.829 0.32683 0.34848 0.0
H276 H 0.8826 0.28797 0.41044 0.0
H277 H 0.8854 0.22522 0.43507 0.0
H278 H 0.85981 0.20897 0.40467 0.0
H279 H 0.85628 0.2716 0.38058 0.0
C280 C 0.63695 0.73294 0.99789 0.0
C281 C 0.62419 0.74843 0.98953 0.0
C282 C 0.65382 0.77685 0.99958 0.0
C283 C 0.63259 0.7701 0.99026 0.0
C284 C 0.66638 0.76145 0.00843 0.0
C285 C 0.65803 0.73966 0.00751 0.0
U286 U 0.59079 0.6905 0.00341 0.0
O287 O 0.57747 0.66144 0.98185 0.0
O288 O 0.58918 0.65845 0.01573 0.0
C289 C 0.58157 0.64827 0.99677 0.0
C290 C 0.62841 0.70987 0.99667 0.0
C291 C 0.59229 0.6291 0.98984 0.0
C292 C 0.62476 0.61054 0.9871 0.0
C293 C 0.61495 0.62948 0.99208 0.0
C294 C 0.58938 0.5909 0.97668 0.0
C295 C 0.61209 0.59093 0.97962 0.0
C296 C 0.57959 0.60983 0.98181 0.0
C297 C 0.53822 0.7085 0.02097 0.0
C298 C 0.5055 0.68354 0.01573 0.0
C299 C 0.50494 0.71957 0.03401 0.0
C300 C 0.52697 0.72407 0.03164 0.0
C301 C 0.49375 0.6995 0.02542 0.0
C302 C 0.52757 0.68798 0.01363 0.0
C303 C 0.56071 0.714 0.01664 0.0
O304 O 0.62466 0.70239 0.01526 0.0
O305 O 0.61288 0.70347 0.98104 0.0
O306 O 0.56434 0.71068 0.99616 0.0
O307 O 0.57548 0.70697 0.03002 0.0
H308 H 0.60774 0.74379 0.98231 0.0
H309 H 0.6224 0.78164 0.98361 0.0
H310 H 0.68283 0.76616 0.01563 0.0
H311 H 0.66809 0.72802 0.01417 0.0
H312 H 0.64226 0.61113 0.98991 0.0
H313 H 0.62502 0.64425 0.99824 0.0
H314 H 0.57915 0.57619 0.9707 0.0
H315 H 0.56205 0.60933 0.97991 0.0
H316 H 0.49746 0.66801 0.00872 0.0
H317 H 0.49653 0.73207 0.04198 0.0
H318 H 0.53507 0.7399 0.03762 0.0
H319 H 0.53615 0.67569 0.0055 0.0
C320 C 0.63923 0.35722 0.32196 0.0
C321 C 0.62146 0.36423 0.33218 0.0
C322 C 0.63294 0.34735 0.3647 0.0
C323 C 0.61828 0.35924 0.35326 0.0
C324 C 0.65116 0.34105 0.35469 0.0
C325 C 0.65423 0.34589 0.33351 0.0
U326 U 0.63126 0.39259 0.27583 0.0
O327 O 0.65236 0.40198 0.25065 0.0
O328 O 0.61991 0.385 0.24132 0.0
C329 C 0.63814 0.39314 0.23468 0.0
C330 C 0.64209 0.36144 0.29928 0.0
C331 C 0.64633 0.38048 0.21637 0.0
C332 C 0.64881 0.3462 0.19496 0.0
C333 C 0.64443 0.3577 0.21429 0.0
C334 C 0.65813 0.38006 0.18001 0.0
C335 C 0.65506 0.35724 0.17729 0.0
C336 C 0.65379 0.39151 0.19932 0.0
C337 C 0.60269 0.44436 0.29089 0.0
C338 C 0.60569 0.48048 0.27868 0.0
C339 C 0.57606 0.46948 0.29936 0.0
C340 C 0.58375 0.44908 0.30031 0.0
C341 C 0.5873 0.48562 0.28907 0.0
C342 C 0.61332 0.46003 0.27956 0.0
C343 C 0.61198 0.42391 0.29501 0.0
O344 O 0.62414 0.35999 0.28611 0.0
O345 O 0.6556 0.37837 0.29687 0.0
O346 O 0.63318 0.42405 0.29533 0.0
O347 O 0.60138 0.40593 0.28533 0.0
H348 H 0.60985 0.37333 0.32375 0.0
H349 H 0.60429 0.36463 0.36061 0.0
H350 H 0.6627 0.33178 0.36298 0.0
H351 H 0.66814 0.34049 0.32601 0.0
H352 H 0.64662 0.32863 0.1936 0.0
H353 H 0.63875 0.3488 0.22723 0.0
H354 H 0.66268 0.38917 0.16679 0.0
H355 H 0.65525 0.40909 0.20052 0.0
H356 H 0.6145 0.49248 0.27031 0.0
H357 H 0.56195 0.47296 0.30761 0.0
H358 H 0.57534 0.43722 0.30917 0.0
H359 H 0.62789 0.45675 0.27202 0.0
C360 C 0.01511 0.25749 0.7457 0.0
C361 C 0.03423 0.25462 0.73583 0.0
C362 C 0.0163 0.26092 0.70095 0.0
C363 C 0.03481 0.25626 0.71369 0.0
C364 C 0.99658 0.26152 0.71032 0.0
C365 C 0.99602 0.26 0.73259 0.0
U366 U 0.00983 0.25177 0.80796 0.0
O367 O 0.00322 0.27879 0.83096 0.0
O368 O 0.035 0.26585 0.83359 0.0
C369 C 0.02226 0.27936 0.84211 0.0
C370 C 0.01682 0.26309 0.7694 0.0
C371 C 0.02203 0.28055 0.86572 0.0
C372 C 0.02162 0.30272 0.89973 0.0
C373 C 0.02215 0.30094 0.87728 0.0
C374 C 0.02127 0.26364 0.89939 0.0
C375 C 0.02105 0.28409 0.91099 0.0
C376 C 0.02165 0.26186 0.87685 0.0
C377 C 0.98244 0.19339 0.79852 0.0
C378 C 0.96817 0.15551 0.79551 0.0
C379 C 0.97599 0.17269 0.7632 0.0
C380 C 0.98272 0.19224 0.77593 0.0
C381 C 0.96898 0.15399 0.7729 0.0
C382 C 0.97485 0.17504 0.80818 0.0
C383 C 0.99096 0.21315 0.81243 0.0
O384 O 0.99904 0.26662 0.77859 0.0
O385 O 0.03094 0.25371 0.78151 0.0
O386 O 0.01213 0.21767 0.81379 0.0
O387 O 0.98021 0.23024 0.81027 0.0
H388 H 0.04926 0.25292 0.7455 0.0
H389 H 0.05015 0.25533 0.70681 0.0
H390 H 0.98207 0.26514 0.70089 0.0
H391 H 0.98106 0.26249 0.73973 0.0
H392 H 0.02162 0.31867 0.9083 0.0
H393 H 0.02252 0.31551 0.8689 0.0
H394 H 0.02059 0.24902 0.90768 0.0
H395 H 0.02146 0.24595 0.86812 0.0
H396 H 0.96322 0.14139 0.80357 0.0
H397 H 0.97659 0.17214 0.74581 0.0
H398 H 0.98854 0.20632 0.76823 0.0
H399 H 0.97461 0.17567 0.82563 0.0
C400 C 0.32393 0.76853 0.18727 0.0
C401 C 0.33566 0.7806 0.17332 0.0
C402 C 0.32012 0.7556 0.14216 0.0
C403 C 0.33371 0.77423 0.15093 0.0
C404 C 0.30785 0.74411 0.15618 0.0
C405 C 0.30976 0.7505 0.17846 0.0
U406 U 0.35004 0.80368 0.23821 0.0
O407 O 0.33685 0.813 0.26926 0.0
O408 O 0.3654 0.79457 0.26876 0.0
C409 C 0.35121 0.80312 0.28057 0.0
C410 C 0.3271 0.77364 0.21105 0.0
C411 C 0.34372 0.79069 0.29822 0.0
C412 C 0.34387 0.75846 0.31783 0.0
C413 C 0.34677 0.76862 0.29891 0.0
C414 C 0.3334 0.79181 0.33517 0.0
C415 C 0.33782 0.77012 0.33647 0.0
C416 C 0.33639 0.80197 0.31629 0.0
C417 C 0.38928 0.85337 0.23136 0.0
C418 C 0.4182 0.87073 0.25784 0.0
C419 C 0.40644 0.88907 0.2267 0.0
C420 C 0.39113 0.87149 0.21954 0.0
C421 C 0.42026 0.88885 0.24585 0.0
C422 C 0.40277 0.85316 0.2507 0.0
C423 C 0.37378 0.83464 0.22271 0.0
O424 O 0.34657 0.77134 0.22012 0.0
O425 O 0.31925 0.79136 0.21884 0.0
O426 O 0.35343 0.8361 0.22635 0.0
O427 O 0.38025 0.81543 0.22545 0.0
H428 H 0.34671 0.7946 0.17983 0.0
H429 H 0.34345 0.78339 0.14063 0.0
H430 H 0.29696 0.72992 0.14995 0.0
H431 H 0.30049 0.74104 0.18891 0.0
H432 H 0.34762 0.74181 0.31819 0.0
H433 H 0.35247 0.75948 0.28526 0.0
H434 H 0.32832 0.80121 0.34901 0.0
H435 H 0.33398 0.81902 0.3162 0.0
H436 H 0.42836 0.87024 0.27284 0.0
H437 H 0.4077 0.90269 0.21701 0.0
H438 H 0.38089 0.87193 0.20458 0.0
H439 H 0.4015 0.83936 0.26016 0.0
C440 C 0.99824 0.64238 0.71991 0.0
C441 C 0.99946 0.62933 0.73719 0.0
C442 C 0.9981 0.66093 0.76299 0.0
C443 C 0.99936 0.6385 0.75853 0.0
C444 C 0.99751 0.674 0.7456 0.0
C445 C 0.99752 0.66478 0.72424 0.0
U446 U 0.99848 0.59239 0.6812 0.0
O447 O 0.97546 0.57908 0.65329 0.0
O448 O 0.00992 0.58641 0.64897 0.0
C449 C 0.99028 0.58033 0.63952 0.0
C450 C 0.99629 0.63241 0.69741 0.0
C451 C 0.98425 0.59078 0.61993 0.0
C452 C 0.97946 0.62319 0.60179 0.0
C453 C 0.98429 0.61337 0.62074 0.0
C454 C 0.97389 0.58786 0.58114 0.0
C455 C 0.97437 0.61058 0.58171 0.0
C456 C 0.97883 0.57806 0.60012 0.0
C457 C 0.0082 0.53957 0.70467 0.0
C458 C 0.99399 0.50463 0.686 0.0
C459 C 0.01729 0.50645 0.71967 0.0
C460 C 0.01929 0.52911 0.7207 0.0
C461 C 0.00406 0.49418 0.70267 0.0
C462 C 0.99619 0.52722 0.68688 0.0
C463 C 0.00754 0.56315 0.70756 0.0
O464 O 0.01413 0.62555 0.69054 0.0
O465 O 0.97916 0.61833 0.69226 0.0
O466 O 0.98808 0.56962 0.70403 0.0
O467 O 0.02257 0.57473 0.69882 0.0
H468 H 0.99991 0.61195 0.73411 0.0
H469 H 0.99952 0.62789 0.77143 0.0
H470 H 0.99683 0.69136 0.74848 0.0
H471 H 0.99658 0.67507 0.71108 0.0
H472 H 0.98045 0.64074 0.60281 0.0
H473 H 0.98847 0.62341 0.63595 0.0
H474 H 0.96988 0.57766 0.56602 0.0
H475 H 0.97866 0.56056 0.59929 0.0
H476 H 0.98362 0.49534 0.67284 0.0
H477 H 0.02498 0.49857 0.73276 0.0
H478 H 0.02865 0.53845 0.73448 0.0
H479 H 0.98765 0.53506 0.67427 0.0
C480 C 0.68389 0.37039 0.65237 0.0
C481 C 0.66904 0.37519 0.63551 0.0
C482 C 0.63957 0.37281 0.65899 0.0
C483 C 0.64712 0.37635 0.63876 0.0
C484 C 0.65462 0.36827 0.6759 0.0
C485 C 0.67653 0.36704 0.67259 0.0
U486 U 0.73022 0.37719 0.61687 0.0
O487 O 0.76486 0.38859 0.62403 0.0
O488 O 0.75529 0.35555 0.60869 0.0
C489 C 0.77137 0.36982 0.61718 0.0
C490 C 0.70691 0.36848 0.64887 0.0
C491 C 0.78949 0.36169 0.63049 0.0
C492 C 0.81744 0.36663 0.66113 0.0
C493 C 0.79843 0.37273 0.65044 0.0
C494 C 0.81866 0.33784 0.63259 0.0
C495 C 0.82806 0.34929 0.65223 0.0
C496 C 0.7997 0.34402 0.62186 0.0
C497 C 0.71123 0.40071 0.56215 0.0
C498 C 0.72847 0.42158 0.53583 0.0
C499 C 0.69234 0.40328 0.52675 0.0
C500 C 0.69297 0.39556 0.54712 0.0
C501 C 0.71008 0.41626 0.52069 0.0
C502 C 0.72904 0.41386 0.55645 0.0
C503 C 0.70996 0.39325 0.58392 0.0
O504 O 0.71019 0.35388 0.63319 0.0
O505 O 0.71904 0.38689 0.64868 0.0
O506 O 0.72049 0.40538 0.60062 0.0
O507 O 0.71021 0.37232 0.58545 0.0
H508 H 0.67439 0.37792 0.61977 0.0
H509 H 0.6361 0.38012 0.62544 0.0
H510 H 0.64939 0.36516 0.69158 0.0
H511 H 0.6877 0.36325 0.6858 0.0
H512 H 0.82424 0.37612 0.67601 0.0
H513 H 0.79117 0.38656 0.65751 0.0
H514 H 0.82608 0.32422 0.62532 0.0
H515 H 0.79333 0.33531 0.60642 0.0
H516 H 0.74247 0.43141 0.53163 0.0
H517 H 0.67772 0.3992 0.51577 0.0
H518 H 0.67893 0.38574 0.55128 0.0
H519 H 0.74328 0.4182 0.56789 0.0
C520 C 0.81627 0.67608 0.22562 0.0
C521 C 0.82833 0.66377 0.21196 0.0
C522 C 0.86217 0.67988 0.23242 0.0
C523 C 0.85104 0.66566 0.2153 0.0
C524 C 0.84994 0.69225 0.24599 0.0
C525 C 0.82722 0.69036 0.24261 0.0
U526 U 0.76356 0.6492 0.19533 0.0
O527 O 0.73357 0.63538 0.207 0.0
O528 O 0.73231 0.66207 0.18613 0.0
C529 C 0.72147 0.64889 0.19766 0.0
C530 C 0.79233 0.67367 0.22263 0.0
C531 C 0.70434 0.65757 0.21008 0.0
C532 C 0.68502 0.65899 0.2425 0.0
C533 C 0.70366 0.65508 0.23226 0.0
C534 C 0.66793 0.66936 0.20899 0.0
C535 C 0.66662 0.66552 0.23083 0.0
C536 C 0.68655 0.66535 0.19874 0.0
C537 C 0.76674 0.6056 0.14882 0.0
C538 C 0.73457 0.58774 0.12723 0.0
C539 C 0.76865 0.5717 0.12668 0.0
C540 C 0.77872 0.58902 0.14103 0.0
C541 C 0.74636 0.57066 0.11984 0.0
C542 C 0.74463 0.60498 0.14169 0.0
C543 C 0.77718 0.6225 0.16548 0.0
O544 O 0.78352 0.6803 0.20466 0.0
O545 O 0.78316 0.65485 0.22691 0.0
O546 O 0.77558 0.61797 0.18553 0.0
O547 O 0.77365 0.64263 0.1625 0.0
H548 H 0.82016 0.65255 0.19881 0.0
H549 H 0.85985 0.65567 0.2047 0.0
H550 H 0.85792 0.70356 0.25913 0.0
H551 H 0.81819 0.7 0.25332 0.0
H552 H 0.68463 0.65563 0.25926 0.0
H553 H 0.71707 0.64902 0.24145 0.0
H554 H 0.65429 0.67475 0.19957 0.0
H555 H 0.6866 0.6673 0.1816 0.0
H556 H 0.71748 0.58774 0.12199 0.0
H557 H 0.7782 0.55879 0.12153 0.0
H558 H 0.79578 0.58918 0.1465 0.0
H559 H 0.73507 0.6176 0.14759 0.0
C560 C 0.27718 0.99766 0.36362 0.0
C561 C 0.25989 0.99834 0.37664 0.0
C562 C 0.23467 1.00051 0.34478 0.0
C563 C 0.23883 0.9998 0.36732 0.0
C564 C 0.25201 0.99916 0.33176 0.0
C565 C 0.27309 0.99779 0.34113 0.0
U566 U 0.31606 0.99401 0.41311 0.0
O567 O 0.34729 0.98024 0.41794 0.0
O568 O 0.34537 0.01507 0.42639 0.0
C569 C 0.35796 0.9992 0.42474 0.0
C570 C 0.29957 0.9981 0.37358 0.0
C571 C 0.37916 0.00386 0.41631 0.0
C572 C 0.40678 0.02866 0.40366 0.0
C573 C 0.38583 0.02432 0.40983 0.0
C574 C 0.41459 0.99222 0.41034 0.0
C575 C 0.42142 0.01265 0.40393 0.0
C576 C 0.39377 0.98794 0.41656 0.0
C577 C 0.29666 0.98446 0.46664 0.0
C578 C 0.32276 0.99422 0.4981 0.0
C579 C 0.28585 0.9805 0.50269 0.0
C580 C 0.28084 0.97822 0.48016 0.0
C581 C 0.30663 0.98924 0.51174 0.0
C582 C 0.31786 0.99167 0.47567 0.0
C583 C 0.29088 0.98558 0.44344 0.0
O584 O 0.30571 0.01469 0.38809 0.0
O585 O 0.30532 0.97957 0.3798 0.0
O586 O 0.29767 0.97027 0.4305 0.0
O587 O 0.29467 0.00508 0.43715 0.0
H588 H 0.26278 0.99831 0.39408 0.0
H589 H 0.22595 1.00109 0.37787 0.0
H590 H 0.24933 0.99933 0.31434 0.0
H591 H 0.28627 0.99723 0.33086 0.0
H592 H 0.41157 0.04458 0.39887 0.0
H593 H 0.37502 0.03705 0.40974 0.0
H594 H 0.42523 0.97933 0.41027 0.0
H595 H 0.38913 0.97213 0.42174 0.0
H596 H 0.33882 1.00115 0.50485 0.0
H597 H 0.27314 0.97686 0.51304 0.0
H598 H 0.26443 0.97261 0.4734 0.0
H599 H 0.33029 0.99647 0.4654 0.0
C600 C 0.25923 1.00119 0.74449 0.0
C601 C 0.26796 0.023 0.74804 0.0
C602 C 0.30423 0.01228 0.74341 0.0
C603 C 0.29026 0.02847 0.74766 0.0
C604 C 0.29556 0.9904 0.74169 0.0
C605 C 0.27335 0.98497 0.74231 0.0
U606 U 0.19665 0.99714 0.75099 0.0
O607 O 0.17231 0.96998 0.73815 0.0
O608 O 0.17236 1.00119 0.72425 0.0
C609 C 0.16198 0.98198 0.72509 0.0
C610 C 0.23578 0.99512 0.73872 0.0
C611 C 0.13862 0.98222 0.72691 0.0
C612 C 0.1014 0.97113 0.71216 0.0
C613 C 0.12362 0.96894 0.71219 0.0
C614 C 0.10905 0.99935 0.74207 0.0
C615 C 0.09406 0.98682 0.72668 0.0
C616 C 0.13116 0.99696 0.7423 0.0
C617 C 0.20164 0.02506 0.81021 0.0
C618 C 0.19797 0.0414 0.8464 0.0
C619 C 0.23243 0.02919 0.83769 0.0
C620 C 0.2235 0.02262 0.81637 0.0
C621 C 0.21949 0.03802 0.85305 0.0
C622 C 0.18916 0.03499 0.82517 0.0
C623 C 0.19051 0.0152 0.78943 0.0
O624 O 0.22608 0.97984 0.74885 0.0
O625 O 0.2237 0.01087 0.73465 0.0
O626 O 0.19201 0.02625 0.77246 0.0
O627 O 0.1919 0.99431 0.78514 0.0
H628 H 0.25748 0.03591 0.74992 0.0
H629 H 0.29634 0.04546 0.74973 0.0
H630 H 0.30557 0.97738 0.73827 0.0
H631 H 0.26699 0.96804 0.7395 0.0
H632 H 0.09008 0.96141 0.70008 0.0
H633 H 0.12914 0.95747 0.70024 0.0
H634 H 0.10368 0.01148 0.75348 0.0
H635 H 0.14253 0.00725 0.75389 0.0
H636 H 0.18773 0.04835 0.85785 0.0
H637 H 0.24903 0.02631 0.84246 0.0
H638 H 0.23332 0.01485 0.805 0.0
H639 H 0.17224 0.03692 0.82068 0.0
C640 C 0.65581 0.68658 0.3707 0.0
C641 C 0.63865 0.67034 0.37107 0.0
C642 C 0.66424 0.64284 0.37491 0.0
C643 C 0.64279 0.64874 0.37303 0.0
C644 C 0.68135 0.65929 0.37461 0.0
C645 C 0.67716 0.68085 0.37248 0.0
U646 U 0.61974 0.73243 0.3787 0.0
O647 O 0.62697 0.76681 0.39158 0.0
O648 O 0.61138 0.75841 0.35837 0.0
C649 C 0.61884 0.77397 0.37362 0.0
C650 C 0.65172 0.70952 0.36894 0.0
C651 C 0.6291 0.79458 0.36721 0.0
C652 C 0.65163 0.81603 0.34503 0.0
C653 C 0.6439 0.79572 0.35139 0.0
C654 C 0.63007 0.83395 0.37039 0.0
C655 C 0.64443 0.83539 0.35421 0.0
C656 C 0.62254 0.81389 0.37674 0.0
C657 C 0.56609 0.71595 0.40389 0.0
C658 C 0.52955 0.72711 0.39949 0.0
C659 C 0.54034 0.70754 0.43001 0.0
C660 C 0.56105 0.70689 0.42294 0.0
C661 C 0.52417 0.71718 0.41807 0.0
C662 C 0.5503 0.72652 0.39246 0.0
C663 C 0.5871 0.71229 0.39544 0.0
O664 O 0.63566 0.71278 0.35472 0.0
O665 O 0.65192 0.72154 0.38746 0.0
O666 O 0.60463 0.72155 0.40718 0.0
O667 O 0.58815 0.71283 0.37446 0.0
H668 H 0.622 0.67435 0.36982 0.0
H669 H 0.62912 0.63663 0.37284 0.0
H670 H 0.69808 0.65565 0.37638 0.0
H671 H 0.69066 0.69312 0.37239 0.0
H672 H 0.6627 0.81653 0.33255 0.0
H673 H 0.64918 0.78101 0.34377 0.0
H674 H 0.62451 0.84844 0.3782 0.0
H675 H 0.61115 0.81345 0.38896 0.0
H676 H 0.51756 0.73499 0.39012 0.0
H677 H 0.53672 0.69961 0.44427 0.0
H678 H 0.57294 0.69858 0.43197 0.0
H679 H 0.55377 0.73377 0.37778 0.0
C680 C 0.75903 0.25903 0.00918 0.0
C681 C 0.76354 0.27689 0.02482 0.0
C682 C 0.74194 0.29887 0.00248 0.0
C683 C 0.75519 0.29656 0.02153 0.0
C684 C 0.73738 0.28076 0.9868 0.0
C685 C 0.74578 0.26102 0.99015 0.0
U686 U 0.76784 0.19697 0.00895 0.0
O687 O 0.74796 0.17967 0.98052 0.0
O688 O 0.73605 0.17994 0.01271 0.0
C689 C 0.73347 0.17137 0.99243 0.0
C690 C 0.77021 0.23954 0.0126 0.0
C691 C 0.72946 0.14755 0.98962 0.0
C692 C 0.70565 0.11478 0.97751 0.0
C693 C 0.70968 0.13744 0.97944 0.0
C694 C 0.74132 0.11217 0.99565 0.0
C695 C 0.72135 0.10186 0.98578 0.0
C696 C 0.74534 0.13477 0.99752 0.0
C697 C 0.8238 0.19072 0.03322 0.0
C698 C 0.86008 0.18868 0.05023 0.0
C699 C 0.84842 0.22348 0.04195 0.0
C700 C 0.82813 0.21329 0.03361 0.0
C701 C 0.86473 0.21128 0.05016 0.0
C702 C 0.83975 0.17848 0.04178 0.0
C703 C 0.80273 0.18012 0.02355 0.0
O704 O 0.77536 0.22796 0.9954 0.0
O705 O 0.76388 0.2278 0.02787 0.0
O706 O 0.78649 0.18319 0.03525 0.0
O707 O 0.79821 0.1829 0.00299 0.0
H708 H 0.77407 0.27578 0.03947 0.0
H709 H 0.75969 0.3101 0.03375 0.0
H710 H 0.72733 0.28172 0.9719 0.0
H711 H 0.7422 0.24748 0.97774 0.0
H712 H 0.69021 0.10739 0.96958 0.0
H713 H 0.69728 0.14706 0.97316 0.0
H714 H 0.75366 0.10282 0.00252 0.0
H715 H 0.76073 0.14233 0.00546 0.0
H716 H 0.87222 0.17887 0.05665 0.0
H717 H 0.85154 0.24082 0.0413 0.0
H718 H 0.81592 0.22298 0.02706 0.0
H719 H 0.83657 0.16105 0.0417 0.0
C720 C 0.23349 0.81017 0.68171 0.0
C721 C 0.21821 0.82477 0.67676 0.0
C722 C 0.24599 0.85533 0.68582 0.0
C723 C 0.22438 0.84716 0.67884 0.0
C724 C 0.26121 0.8405 0.69055 0.0
C725 C 0.255 0.81818 0.68855 0.0
U726 U 0.19406 0.76133 0.65958 0.0
O727 O 0.19968 0.73037 0.64224 0.0
O728 O 0.185 0.73048 0.67316 0.0
C729 C 0.19239 0.71881 0.65724 0.0
C730 C 0.2275 0.78656 0.67905 0.0
C731 C 0.20448 0.70036 0.66285 0.0
C732 C 0.23537 0.67933 0.65908 0.0
C733 C 0.22606 0.69899 0.65817 0.0
C734 C 0.20225 0.6627 0.67083 0.0
C735 C 0.22322 0.66075 0.66455 0.0
C736 C 0.19299 0.6823 0.66996 0.0
C737 C 0.14204 0.76963 0.62589 0.0
C738 C 0.12334 0.74116 0.59985 0.0
C739 C 0.10792 0.77538 0.60604 0.0
C740 C 0.12536 0.78283 0.62148 0.0
C741 C 0.10708 0.75471 0.59463 0.0
C742 C 0.14062 0.74852 0.61543 0.0
C743 C 0.16167 0.77856 0.63989 0.0
O744 O 0.21092 0.77956 0.68918 0.0
O745 O 0.22694 0.77745 0.65909 0.0
O746 O 0.17992 0.77574 0.63136 0.0
O747 O 0.16229 0.77455 0.66033 0.0
H748 H 0.20153 0.81884 0.67127 0.0
H749 H 0.21218 0.85806 0.67526 0.0
H750 H 0.27805 0.84609 0.69554 0.0
H751 H 0.26706 0.80714 0.69219 0.0
H752 H 0.25152 0.67832 0.65405 0.0
H753 H 0.23529 0.71269 0.65265 0.0
H754 H 0.19261 0.64874 0.67539 0.0
H755 H 0.17633 0.68298 0.67363 0.0
H756 H 0.12289 0.72503 0.59155 0.0
H757 H 0.09561 0.78614 0.60232 0.0
H758 H 0.1262 0.79915 0.62944 0.0
H759 H 0.15328 0.73802 0.61877 0.0
C760 C 0.3615 0.28246 0.99795 0.0
C761 C 0.37271 0.26457 0.99202 0.0
C762 C 0.34335 0.24 0.00203 0.0
C763 C 0.3637 0.24351 0.994 0.0
C764 C 0.3319 0.258 0.00728 0.0
C765 C 0.34094 0.27906 0.0053 0.0
U766 U 0.41207 0.31863 0.99304 0.0
O767 O 0.41827 0.35035 0.98037 0.0
O768 O 0.42824 0.34643 0.01448 0.0
C769 C 0.42586 0.36001 0.99957 0.0
C770 C 0.37214 0.30457 0.9985 0.0
C771 C 0.41668 0.3804 0.00613 0.0
C772 C 0.39876 0.40299 0.03159 0.0
C773 C 0.40771 0.38367 0.02601 0.0
C774 C 0.40781 0.41618 0.99769 0.0
C775 C 0.3984 0.41936 0.01736 0.0
C776 C 0.41695 0.39696 0.99222 0.0
C777 C 0.46245 0.29162 0.98106 0.0
C778 C 0.49758 0.31273 0.98656 0.0
C779 C 0.49527 0.27339 0.98214 0.0
C780 C 0.47269 0.27248 0.97944 0.0
C781 C 0.50785 0.29349 0.98653 0.0
C782 C 0.47495 0.31179 0.98394 0.0
C783 C 0.43912 0.29024 0.98297 0.0
O784 O 0.38738 0.30968 0.01463 0.0
O785 O 0.37795 0.31042 0.97986 0.0
O786 O 0.42733 0.29926 0.96829 0.0
O787 O 0.43415 0.29493 0.00282 0.0
H788 H 0.38875 0.26694 0.98655 0.0
H789 H 0.37308 0.23007 0.99009 0.0
H790 H 0.31609 0.25582 0.01326 0.0
H791 H 0.33215 0.29272 0.01006 0.0
H792 H 0.39189 0.405 0.04696 0.0
H793 H 0.40738 0.37126 0.03717 0.0
H794 H 0.40749 0.42822 0.98613 0.0
H795 H 0.42387 0.39486 0.97687 0.0
H796 H 0.50695 0.32839 0.99007 0.0
H797 H 0.50288 0.25837 0.98187 0.0
H798 H 0.46322 0.25681 0.97729 0.0
H799 H 0.46719 0.32672 0.98541 0.0
C800 C 0.36517 0.65132 0.68187 0.0
C801 C 0.37619 0.63744 0.66861 0.0
C802 C 0.36961 0.65907 0.63812 0.0
C803 C 0.37838 0.64126 0.64698 0.0
C804 C 0.35864 0.67294 0.65157 0.0
C805 C 0.35643 0.66907 0.67319 0.0
U806 U 0.37405 0.6166 0.72859 0.0
O807 O 0.3836 0.62477 0.76346 0.0
O808 O 0.3524 0.60573 0.75273 0.0
C809 C 0.3656 0.61515 0.76926 0.0
C810 C 0.36257 0.64725 0.70463 0.0
C811 C 0.35589 0.62588 0.78782 0.0
C812 C 0.35309 0.65734 0.81343 0.0
C813 C 0.35939 0.64837 0.79368 0.0
C814 C 0.33876 0.62168 0.8212 0.0
C815 C 0.34312 0.64401 0.82765 0.0
C816 C 0.34513 0.61275 0.80157 0.0
C817 C 0.40413 0.56554 0.71522 0.0
C818 C 0.40005 0.52899 0.72631 0.0
C819 C 0.43143 0.54068 0.70832 0.0
C820 C 0.42389 0.56115 0.70727 0.0
C821 C 0.4192 0.52416 0.71718 0.0
C822 C 0.3926 0.5495 0.7254 0.0
C823 C 0.39487 0.58587 0.71047 0.0
O824 O 0.34954 0.63001 0.70716 0.0
O825 O 0.3806 0.64913 0.71772 0.0
O826 O 0.40479 0.60401 0.72055 0.0
O827 O 0.3736 0.5854 0.70897 0.0
H828 H 0.38308 0.62362 0.67499 0.0
H829 H 0.38711 0.63035 0.63723 0.0
H830 H 0.35138 0.6866 0.64527 0.0
H831 H 0.34776 0.6799 0.6831 0.0
H832 H 0.35649 0.67464 0.81782 0.0
H833 H 0.36766 0.6589 0.78342 0.0
H834 H 0.3314 0.61091 0.83184 0.0
H835 H 0.34249 0.59533 0.79756 0.0
H836 H 0.39044 0.51663 0.73351 0.0
H837 H 0.44616 0.53741 0.70106 0.0
H838 H 0.43302 0.57328 0.69932 0.0
H839 H 0.37739 0.5525 0.73183 0.0
C840 C 0.98562 0.74256 0.25738 0.0
C841 C 0.0066 0.74312 0.26805 0.0
C842 C 0.99152 0.73992 0.3026 0.0
C843 C 0.0095 0.74178 0.29043 0.0
C844 C 0.97072 0.74124 0.29225 0.0
C845 C 0.9678 0.74241 0.26981 0.0
U846 U 0.98944 0.75054 0.19565 0.0
O847 O 0.96384 0.74005 0.16898 0.0
O848 O 0.99391 0.72406 0.17115 0.0
C849 C 0.97579 0.72643 0.15939 0.0
C850 C 0.98161 0.7377 0.23356 0.0
C851 C 0.97788 0.72868 0.13629 0.0
C852 C 0.96417 0.71957 0.09846 0.0
C853 C 0.96206 0.71809 0.12051 0.0
C854 C 0.99796 0.7424 0.10778 0.0
C855 C 0.98227 0.73158 0.09179 0.0
C856 C 0.99571 0.74108 0.12979 0.0
C857 C 0.02219 0.80816 0.20365 0.0
C858 C 0.04305 0.84244 0.20061 0.0
C859 C 0.0243 0.83742 0.23262 0.0
C860 C 0.01687 0.81613 0.22415 0.0
C861 C 0.03684 0.85096 0.22052 0.0
C862 C 0.03583 0.82121 0.1923 0.0
C863 C 0.01154 0.78783 0.19214 0.0
O864 O 0.96869 0.74951 0.22276 0.0
O865 O 0.99814 0.73231 0.22315 0.0
O866 O 0.02085 0.7699 0.19459 0.0
O867 O 0.99027 0.78521 0.19149 0.0
H868 H 0.0207 0.74317 0.25899 0.0
H869 H 0.02574 0.741 0.29804 0.0
H870 H 0.95657 0.73968 0.30119 0.0
H871 H 0.95144 0.74162 0.26195 0.0
H872 H 0.95159 0.71133 0.08668 0.0
H873 H 0.94811 0.70858 0.12525 0.0
H874 H 0.01229 0.75152 0.10334 0.0
H875 H 0.00808 0.7495 0.14174 0.0
H876 H 0.05282 0.8525 0.19106 0.0
H877 H 0.0192 0.8437 0.24797 0.0
H878 H 0.00621 0.80629 0.23307 0.0
H879 H 0.04 0.81535 0.1764 0.0
C880 C 0.6759 0.2323 0.81297 0.0
C881 C 0.66545 0.21792 0.82578 0.0
C882 C 0.67843 0.24181 0.85854 0.0
C883 C 0.66671 0.22261 0.84835 0.0
C884 C 0.68908 0.25601 0.84556 0.0
C885 C 0.68781 0.25129 0.82301 0.0
U886 U 0.65322 0.19667 0.76187 0.0
O887 O 0.63697 0.20444 0.73119 0.0
O888 O 0.66717 0.18857 0.73098 0.0
C889 C 0.65201 0.19734 0.71957 0.0
C890 C 0.67382 0.22801 0.78914 0.0
C891 C 0.65884 0.21087 0.70252 0.0
C892 C 0.65795 0.24431 0.68502 0.0
C893 C 0.65545 0.23295 0.70323 0.0
C894 C 0.66882 0.21216 0.66565 0.0
C895 C 0.66402 0.23388 0.66573 0.0
C896 C 0.66615 0.20078 0.68382 0.0
C897 C 0.61681 0.14515 0.76873 0.0
C898 C 0.58858 0.12715 0.74193 0.0
C899 C 0.59918 0.10987 0.77414 0.0
C900 C 0.61451 0.12749 0.78112 0.0
C901 C 0.58579 0.10967 0.75465 0.0
C902 C 0.60402 0.14473 0.74888 0.0
C903 C 0.6315 0.1644 0.77748 0.0
O904 O 0.68317 0.21122 0.78135 0.0
O905 O 0.65423 0.22899 0.77964 0.0
O906 O 0.62386 0.18313 0.77487 0.0
O907 O 0.65194 0.16415 0.77365 0.0
H908 H 0.65608 0.2032 0.81829 0.0
H909 H 0.65813 0.21141 0.85775 0.0
H910 H 0.69852 0.27075 0.85285 0.0
H911 H 0.696 0.26256 0.81339 0.0
H912 H 0.6539 0.26092 0.68573 0.0
H913 H 0.64981 0.24116 0.71746 0.0
H914 H 0.67396 0.20371 0.6513 0.0
H915 H 0.66888 0.18375 0.68289 0.0
H916 H 0.57878 0.12727 0.72664 0.0
H917 H 0.59737 0.09669 0.78433 0.0
H918 H 0.62423 0.12756 0.79648 0.0
H919 H 0.60566 0.15816 0.73898 0.0
C920 C 0.99473 0.39407 0.25868 0.0
C921 C 0.99375 0.39974 0.23738 0.0
C922 C 1.00092 0.36326 0.22436 0.0
C923 C 0.99683 0.38451 0.22037 0.0
C924 C 1.00172 0.35756 0.24581 0.0
C925 C 0.99864 0.37289 0.26289 0.0
U926 U 0.99479 0.41532 0.31864 0.0
O927 O 0.01935 0.39681 0.33406 0.0
O928 O 0.9847 0.38627 0.33437 0.0
C929 C 0.00469 0.38436 0.34237 0.0
C930 C 0.99211 0.41076 0.27615 0.0
C931 C 0.00775 0.3849 0.36603 0.0
C932 C 0.01765 0.36777 0.39845 0.0
C933 C 0.01514 0.36721 0.37585 0.0
C934 C 0.00588 0.404 0.40151 0.0
C935 C 0.01279 0.38608 0.4115 0.0
C936 C 0.00343 0.40342 0.37894 0.0
C937 C 0.98583 0.47411 0.33053 0.0
C938 C 0.98823 0.51318 0.33806 0.0
C939 C 0.98626 0.49692 0.30092 0.0
C940 C 0.98481 0.47633 0.30823 0.0
C941 C 0.98876 0.51554 0.31583 0.0
C942 C 0.98686 0.49255 0.34537 0.0
C943 C 0.98909 0.45307 0.33839 0.0
O944 O 0.00998 0.41841 0.28834 0.0
O945 O 0.97534 0.40707 0.28724 0.0
O946 O 0.00828 0.44671 0.33545 0.0
O947 O 0.97315 0.43764 0.33298 0.0
H948 H 0.99087 0.41609 0.23392 0.0
H949 H 0.99655 0.38959 0.20413 0.0
H950 H 0.00473 0.34129 0.24938 0.0
H951 H 0.99945 0.3683 0.27933 0.0
H952 H 0.02261 0.35355 0.40568 0.0
H953 H 0.01864 0.35286 0.36608 0.0
H954 H 0.0021 0.41832 0.41114 0.0
H955 H 0.99789 0.41733 0.37153 0.0
H956 H 0.99036 0.52726 0.34991 0.0
H957 H 0.98644 0.49832 0.28369 0.0
H958 H 0.98413 0.46217 0.29659 0.0
H959 H 0.98784 0.49104 0.36265 0.0
H960 H 0.27605 0.56968 0.60162 0.0
H961 H 0.31349 0.51439 0.59951 0.0
H962 H 0.3003 0.54609 0.66071 0.0
C963 C 0.28426 0.55751 0.6097 0.0
C964 C 0.28631 0.55914 0.63236 0.0
C965 C 0.29412 0.54167 0.59752 0.0
C966 C 0.30556 0.52658 0.60856 0.0
C967 C 0.30756 0.52806 0.63145 0.0
C968 C 0.29825 0.54461 0.64312 0.0
N969 N 0.32024 0.5146 0.64361 0.0
C970 C 0.32458 0.49348 0.63737 0.0
H971 H 0.32804 0.49639 0.97447 0.0
H972 H 0.28143 0.54326 0.98105 0.0
H973 H 0.33526 0.54367 0.02973 0.0
C974 C 0.32283 0.51085 0.98277 0.0
C975 C 0.33431 0.51971 0.00233 0.0
C976 C 0.30361 0.51896 0.97498 0.0
C977 C 0.29652 0.53708 0.98655 0.0
C978 C 0.30829 0.54635 0.00607 0.0
C979 C 0.32691 0.53732 0.01411 0.0
N980 N 0.30011 0.5628 0.01928 0.0
C981 C 0.29654 0.58298 0.01253 0.0
H982 H 0.68964 0.95612 0.37187 0.0
H983 H 0.72078 0.01435 0.35155 0.0
H984 H 0.71182 0.95538 0.30831 0.0
C985 C 0.69677 0.96469 0.35937 0.0
C986 C 0.69925 0.95324 0.33944 0.0
C987 C 0.70484 0.98658 0.36391 0.0
C988 C 0.71458 0.99745 0.34794 0.0
C989 C 0.71688 0.9864 0.32768 0.0
C990 C 0.70957 0.96414 0.32367 0.0
N991 N 0.72703 0.9971 0.31139 0.0
C992 C 0.73237 0.01949 0.31238 0.0
H993 H 0.73478 0.986 0.0282 0.0
H994 H 0.71242 0.91797 0.01687 0.0
H995 H 0.70381 0.96 0.96583 0.0
C996 C 0.72694 0.97222 0.01756 0.0
C997 C 0.71957 0.97529 0.99629 0.0
C998 C 0.72427 0.95167 0.02523 0.0
C999 C 0.71448 0.93387 0.01106 0.0
C1000 C 0.70707 0.93687 0.98952 0.0
C1001 C 0.70962 0.95763 0.98233 0.0
N1002 N 0.69692 0.9196 0.97456 0.0
C1003 C 0.69148 0.89848 0.97933 0.0
H1004 H 0.60125 0.28267 0.57135 0.0
H1005 H 0.59669 0.30289 0.50658 0.0
H1006 H 0.65335 0.27453 0.53178 0.0
C1007 C 0.60845 0.28543 0.55643 0.0
C1008 C 0.62883 0.27842 0.55374 0.0
C1009 C 0.59652 0.29413 0.53957 0.0
C1010 C 0.60583 0.29659 0.51988 0.0
C1011 C 0.62665 0.28988 0.51723 0.0
C1012 C 0.63777 0.28049 0.5341 0.0
N1013 N 0.63639 0.29043 0.49743 0.0
C1014 C 0.63258 0.3042 0.4813 0.0
H1015 H 0.03705 0.7234 0.98177 0.0
H1016 H 0.02995 0.70914 0.91251 0.0
H1017 H 0.97427 0.70096 0.94883 0.0
C1018 C 0.02677 0.71813 0.96687 0.0
C1019 C 0.00456 0.71256 0.96767 0.0
C1020 C 0.03597 0.71679 0.94711 0.0
C1021 C 0.02276 0.71 0.92777 0.0
C1022 C 1.00039 0.70412 0.92839 0.0
C1023 C 0.99147 0.70543 0.94837 0.0
N1024 N 0.98634 0.69684 0.90938 0.0
C1025 C 0.99322 0.69207 0.88898 0.0
H1026 H 0.9783 0.32619 0.49443 0.0
H1027 H 0.98475 0.28185 0.5433 0.0
H1028 H 0.03374 0.33508 0.54167 0.0
C1029 C 0.98667 0.32177 0.50922 0.0
C1030 C 0.00641 0.33342 0.51752 0.0
C1031 C 0.97882 0.30307 0.51815 0.0
C1032 C 0.99043 0.29654 0.53651 0.0
C1033 C 0.01007 0.30849 0.54528 0.0
C1034 C 0.01815 0.32656 0.53546 0.0
N1035 N 0.02308 0.3018 0.56281 0.0
C1036 C 0.01496 0.29208 0.58002 0.0
H1037 H 0.38083 0.68221 0.95995 0.0
H1038 H 0.35349 0.71315 0.01372 0.0
H1039 H 0.31536 0.70016 0.95172 0.0
C1040 C 0.36685 0.68855 0.96658 0.0
C1041 C 0.34788 0.69 0.95291 0.0
C1042 C 0.36888 0.69718 0.98826 0.0
C1043 C 0.35135 0.706 0.99704 0.0
C1044 C 0.33174 0.70672 0.98411 0.0
C1045 C 0.33006 0.69863 0.96199 0.0
N1046 N 0.31423 0.71688 0.99264 0.0
C1047 C 0.3152 0.72632 0.014 0.0
H1048 H 0.56722 0.60396 0.26743 0.0
H1049 H 0.51042 0.60177 0.30257 0.0
H1050 H 0.5348 0.66127 0.27827 0.0
C1051 C 0.55418 0.6119 0.27429 0.0
C1052 C 0.55271 0.63376 0.27162 0.0
C1053 C 0.53946 0.60025 0.28585 0.0
C1054 C 0.52199 0.6106 0.29374 0.0
C1055 C 0.52022 0.63274 0.29092 0.0
C1056 C 0.5359 0.64423 0.28018 0.0
N1057 N 0.50355 0.64442 0.29917 0.0
C1058 C 0.48437 0.6357 0.30643 0.0
H1059 H 0.97829 0.03257 0.73692 0.0
H1060 H 0.90981 0.02177 0.71827 0.0
H1061 H 0.95062 0.97054 0.70564 0.0
C1062 C 0.96443 0.02196 0.72925 0.0
C1063 C 0.96728 1.00077 0.721 0.0
C1064 C 0.94397 0.02983 0.72785 0.0
C1065 C 0.92568 0.01579 0.71926 0.0
C1066 C 0.92812 0.9942 0.71152 0.0
C1067 C 0.94889 0.98693 0.7123 0.0
N1068 N 0.91026 0.97936 0.70247 0.0
C1069 C 0.88891 0.98436 0.69961 0.0
H1070 H 0.48541 0.98641 0.31429 0.0
H1071 H 0.54593 0.97173 0.29043 0.0
H1072 H 0.54451 0.02304 0.34171 0.0
C1073 C 0.50281 0.98998 0.31415 0.0
C1074 C 0.51355 0.00651 0.32889 0.0
C1075 C 0.51418 0.97724 0.30022 0.0
C1076 C 0.53692 0.98152 0.30102 0.0
C1077 C 0.54788 0.99834 0.31588 0.0
C1078 C 0.53609 0.01046 0.32998 0.0
N1079 N 0.57073 0.00328 0.31774 0.0
C1080 C 0.58458 0.99641 0.30275 0.0
H1081 H 0.95128 0.37128 0.6833 0.0
H1082 H 0.01105 0.35533 0.71545 0.0
H1083 H 0.95723 0.30607 0.69901 0.0
C1084 C 0.96092 0.35951 0.6904 0.0
C1085 C 0.95174 0.33815 0.69024 0.0
C1086 C 0.98221 0.36591 0.69962 0.0
C1087 C 0.9947 0.35036 0.70813 0.0
C1088 C 0.98584 0.32867 0.70793 0.0
C1089 C 0.96422 0.32268 0.69908 0.0
N1090 N 0.99815 0.31274 0.71681 0.0
C1091 C 0.02031 0.31623 0.72351 0.0
H1092 H 0.72765 0.43373 0.4014 0.0
H1093 H 0.70417 0.49702 0.40612 0.0
H1094 H 0.71541 0.46549 0.34391 0.0
C1095 C 0.7226 0.44777 0.39381 0.0
C1096 C 0.7222 0.44753 0.37135 0.0
C1097 C 0.71564 0.46511 0.40654 0.0
C1098 C 0.7098 0.4836 0.39655 0.0
C1099 C 0.70997 0.48386 0.3738 0.0
C1100 C 0.71605 0.46567 0.3614 0.0
N1101 N 0.70254 0.50103 0.3623 0.0
C1102 C 0.70012 0.5222 0.37055 0.0
H1103 H 0.68278 0.51084 0.02136 0.0
H1104 H 0.7054 0.44826 0.02875 0.0
H1105 H 0.65152 0.4549 0.98168 0.0
C1106 C 0.68179 0.49357 0.01635 0.0
C1107 C 0.66587 0.48443 1.00009 0.0
C1108 C 0.69586 0.48069 0.02693 0.0
C1109 C 0.69453 0.45826 0.02055 0.0
C1110 C 0.67849 0.44891 0.00396 0.0
C1111 C 0.66408 0.46209 0.99411 0.0
N1112 N 0.67578 0.4264 0.99691 0.0
C1113 C 0.68922 0.41099 0.00342 0.0
H1114 H 0.32986 0.04708 0.63685 0.0
H1115 H 0.28999 0.98963 0.64777 0.0
H1116 H 0.29457 0.04636 0.69312 0.0
C1117 C 0.31927 0.03841 0.64677 0.0
C1118 C 0.31343 0.04937 0.66576 0.0
C1119 C 0.31024 0.01716 0.63954 0.0
C1120 C 0.2972 0.00593 0.65308 0.0
C1121 C 0.29223 0.01616 0.67288 0.0
C1122 C 0.29964 0.0381 0.67863 0.0
N1123 N 0.27907 0.00509 0.68682 0.0
C1124 C 0.2723 0.98297 0.68355 0.0
H1125 H 0.27201 0.02407 0.97176 0.0
H1126 H 0.29126 0.09254 0.97784 0.0
H1127 H 0.30285 0.05571 0.03245 0.0
C1128 C 0.27886 0.03869 0.98173 0.0
C1129 C 0.287 0.03738 0.0033 0.0
C1130 C 0.2802 0.05849 0.97249 0.0
C1131 C 0.2902 0.07725 0.98496 0.0
C1132 C 0.29839 0.0762 0.00668 0.0
C1133 C 0.29664 0.05632 0.01569 0.0
N1134 N 0.30848 0.09473 0.01998 0.0
C1135 C 0.31251 0.11507 0.01276 0.0
H1136 H 0.4041 0.73708 0.43649 0.0
H1137 H 0.40723 0.70209 0.4934 0.0
H1138 H 0.34658 0.72315 0.46782 0.0
C1139 C 0.39629 0.72987 0.44942 0.0
C1140 C 0.37416 0.73141 0.4505 0.0
C1141 C 0.40836 0.71886 0.46433 0.0
C1142 C 0.39814 0.71055 0.4817 0.0
C1143 C 0.37572 0.71219 0.48305 0.0
C1144 C 0.36383 0.72221 0.46708 0.0
N1145 N 0.36414 0.70298 0.49931 0.0
C1146 C 0.37269 0.69882 0.51986 0.0
H1147 H 0.98647 0.253 0.02391 0.0
H1148 H 0.99279 0.27098 0.09271 0.0
H1149 H 0.04213 0.29435 0.05355 0.0
C1150 C 0.99565 0.26134 0.03838 0.0
C1151 C 0.01513 0.27374 0.03647 0.0
C1152 C 0.98764 0.26004 0.05862 0.0
C1153 C 0.99909 0.27178 0.07708 0.0
C1154 C 0.01898 0.28402 0.07531 0.0
C1155 C 0.02705 0.28465 0.055 0.0
N1156 N 0.03116 0.29597 0.09355 0.0
C1157 C 0.02209 0.30282 0.11228 0.0
H1158 H 0.01458 0.68991 0.51494 0.0
H1159 H 0.04582 0.71111 0.4604 0.0
H1160 H 0.99665 0.65728 0.45141 0.0
C1161 C 0.01539 0.68947 0.49755 0.0
C1162 C 0.00281 0.67293 0.48401 0.0
C1163 C 0.03121 0.70322 0.48944 0.0
C1164 C 0.03321 0.70122 0.46696 0.0
C1165 C 0.02023 0.68508 0.45313 0.0
C1166 C 0.00532 0.67081 0.46179 0.0
N1167 N 0.0258 0.67964 0.43193 0.0
C1168 C 0.01928 0.69022 0.41408 0.0
H1169 H 0.62771 0.32454 0.05239 0.0
H1170 H 0.64631 0.30061 0.99073 0.0
H1171 H 0.69355 0.3099 0.04673 0.0
C1172 C 0.64019 0.31908 0.04267 0.0
C1173 C 0.66132 0.31826 0.05237 0.0
C1174 C 0.6349 0.31294 0.02049 0.0
C1175 C 0.65079 0.30586 0.00775 0.0
C1176 C 0.67195 0.30442 0.01716 0.0
C1177 C 0.67725 0.311 0.03943 0.0
N1178 N 0.68785 0.29559 0.00484 0.0
C1179 C 0.68447 0.28942 0.98259 0.0
H1180 H 0.43186 0.40102 0.72654 0.0
H1181 H 0.49528 0.40755 0.70339 0.0
H1182 H 0.46551 0.3447 0.71501 0.0
C1183 C 0.44607 0.39392 0.72129 0.0
C1184 C 0.44656 0.37154 0.72114 0.0
C1185 C 0.46318 0.40714 0.71449 0.0
C1186 C 0.48194 0.39761 0.7087 0.0
C1187 C 0.4829 0.37497 0.70908 0.0
C1188 C 0.46507 0.36211 0.71523 0.0
N1189 N 0.5009 0.36415 0.70268 0.0
C1190 C 0.52078 0.37363 0.69764 0.0
H1191 H 0.02277 0.97172 0.26355 0.0
H1192 H 0.08964 0.97815 0.28985 0.0
H1193 H 0.05076 0.03184 0.29833 0.0
C1194 C 0.03682 0.98155 0.27196 0.0
C1195 C 0.03465 0.00281 0.28021 0.0
C1196 C 0.05655 0.97249 0.27551 0.0
C1197 C 0.07439 0.98515 0.28715 0.0
C1198 C 0.07246 0.0068 0.29512 0.0
C1199 C 0.05247 0.01541 0.29175 0.0
N1200 N 0.0901 0.02026 0.30679 0.0
C1201 C 0.11034 0.01335 0.31233 0.0
H1202 H 0.51687 0.013 0.68841 0.0
H1203 H 0.45703 0.03337 0.70952 0.0
H1204 H 0.45621 0.98301 0.65702 0.0
C1205 C 0.49929 0.0111 0.68772 0.0
C1206 C 0.4878 0.99594 0.672 0.0
C1207 C 0.48851 0.02491 0.70122 0.0
C1208 C 0.46563 0.02273 0.69932 0.0
C1209 C 0.45394 0.00732 0.68351 0.0
C1210 C 0.46515 0.99436 0.66961 0.0
N1211 N 0.43097 0.00521 0.68023 0.0
C1212 C 0.41742 0.00922 0.69642 0.0
H1213 H 0.05294 0.63268 0.31847 0.0
H1214 H 0.99466 0.64981 0.28473 0.0
H1215 H 0.05255 0.69475 0.29289 0.0
C1216 C 0.04444 0.64426 0.30974 0.0
C1217 C 0.05532 0.6643 0.30677 0.0
C1218 C 0.02263 0.6391 0.30184 0.0
C1219 C 0.01149 0.65409 0.29088 0.0
C1220 C 0.02227 0.67413 0.28724 0.0
C1221 C 0.04426 0.67918 0.29527 0.0
N1222 N 0.01132 0.68942 0.27573 0.0
C1223 C 0.98883 0.68784 0.27108 0.0
H1224 H 0.14225 0.67319 0.36783 0.0
H1225 H 0.16594 0.64649 0.309 0.0
H1226 H 0.13103 0.64976 0.28882 0.0
H1227 H 0.09231 0.65636 0.28867 0.0
H1228 H 0.06844 0.68173 0.34771 0.0
H1229 H 0.10464 0.68271 0.36703 0.0
C1230 C 0.13984 0.66813 0.35057 0.0
C1231 C 0.15677 0.65937 0.34007 0.0
C1232 C 0.11956 0.66975 0.3391 0.0
C1233 C 0.15337 0.65339 0.31757 0.0
C1234 C 0.1333 0.65511 0.30601 0.0
C1235 C 0.0953 0.66269 0.3056 0.0
C1236 C 0.07793 0.66934 0.31673 0.0
C1237 C 0.11612 0.66279 0.31668 0.0
C1238 C 0.08172 0.67697 0.33878 0.0
C1239 C 0.10236 0.67733 0.34985 0.0
H1240 H 0.35146 0.34436 0.73865 0.0
H1241 H 0.38384 0.32826 0.79864 0.0
H1242 H 0.41894 0.33511 0.78464 0.0
H1243 H 0.44067 0.35033 0.757 0.0
H1244 H 0.40794 0.36538 0.69699 0.0
H1245 H 0.37284 0.35336 0.70895 0.0
C1246 C 0.36605 0.34163 0.74851 0.0
C1247 C 0.36479 0.3363 0.76996 0.0
C1248 C 0.38627 0.34538 0.74028 0.0
C1249 C 0.38416 0.33307 0.78236 0.0
C1250 C 0.40433 0.33684 0.7743 0.0
C1251 C 0.42587 0.35022 0.74633 0.0
C1252 C 0.42678 0.35864 0.72616 0.0
C1253 C 0.40564 0.34371 0.75355 0.0
C1254 C 0.40753 0.35882 0.71254 0.0
C1255 C 0.38746 0.35214 0.71946 0.0
H1256 H 0.56494 0.95686 0.63148 0.0
H1257 H 0.54751 0.99946 0.583 0.0
H1258 H 0.514 0.00529 0.59929 0.0
H1259 H 0.4929 0.00313 0.63077 0.0
H1260 H 0.51178 0.96297 0.68077 0.0
H1261 H 0.54119 0.95095 0.66036 0.0
C1262 C 0.55365 0.96719 0.62436 0.0
C1263 C 0.55882 0.97789 0.60624 0.0
C1264 C 0.53465 0.97089 0.63412 0.0
C1265 C 0.54389 0.99094 0.59691 0.0
C1266 C 0.52477 0.99441 0.60629 0.0
C1267 C 0.50297 0.99109 0.63666 0.0
C1268 C 0.50026 0.9837 0.65699 0.0
C1269 C 0.52037 0.98508 0.62532 0.0
C1270 C 0.51358 0.96855 0.66494 0.0
C1271 C 0.5305 0.96192 0.65343 0.0
H1272 H 0.93964 0.0245 0.25389 0.0
H1273 H 0.93303 0.00988 0.31972 0.0
H1274 H 0.9718 0.00655 0.32545 0.0
H1275 H 0.00716 0.00489 0.31099 0.0
H1276 H 0.01374 0.01701 0.24471 0.0
H1277 H 0.97553 0.02439 0.23986 0.0
C1278 C 0.94671 0.02061 0.26948 0.0
C1279 C 0.93341 0.01749 0.28634 0.0
C1280 C 0.96904 0.01834 0.27258 0.0
C1281 C 0.94289 0.0127 0.30654 0.0
C1282 C 0.96507 0.01064 0.30982 0.0
C1283 C 1.00023 0.00963 0.29568 0.0
C1284 C 0.01302 0.01075 0.27829 0.0
C1285 C 0.97823 0.01314 0.2929 0.0
C1286 C 0.00404 0.01637 0.25832 0.0
C1287 C 0.98223 0.02041 0.25554 0.0
H1288 H 0.3215 0.15151 0.67132 0.0
H1289 H 0.38694 0.14128 0.65768 0.0
H1290 H 0.37921 0.10242 0.66002 0.0
H1291 H 0.35328 0.07102 0.66383 0.0
H1292 H 0.28786 0.08121 0.67721 0.0
H1293 H 0.2965 0.12043 0.6781 0.0
C1294 C 0.33425 0.1409 0.66925 0.0
C1295 C 0.35475 0.14946 0.66408 0.0
C1296 C 0.32974 0.1185 0.67076 0.0
C1297 C 0.37088 0.13523 0.66118 0.0
C1298 C 0.36652 0.11297 0.6627 0.0
C1299 C 0.34097 0.08185 0.66714 0.0
C1300 C 0.3199 0.07313 0.67032 0.0
C1301 C 0.34592 0.10438 0.66712 0.0
C1302 C 0.30425 0.08743 0.67493 0.0
C1303 C 0.30912 0.10988 0.67518 0.0
H1304 H 0.30184 0.94739 0.03878 0.0
H1305 H 0.23856 0.93043 0.00377 0.0
H1306 H 0.23648 0.96809 0.99652 0.0
H1307 H 0.25382 0.00512 0.99735 0.0
H1308 H 0.31843 0.02146 0.02945 0.0
H1309 H 0.31867 0.98486 0.04076 0.0
C1310 C 0.28761 0.9519 0.02951 0.0
C1311 C 0.27047 0.93598 0.02172 0.0
C1312 C 0.28676 0.9735 0.02482 0.0
C1313 C 0.25192 0.94229 0.0102 0.0
C1314 C 0.25078 0.96382 0.00586 0.0
C1315 C 0.26799 1.00068 0.00679 0.0
C1316 C 0.28617 0.01598 0.01231 0.0
C1317 C 0.26829 0.97944 0.01266 0.0
C1318 C 0.30414 0.0101 0.02507 0.0
C1319 C 0.30438 0.9891 0.03139 0.0
H1320 H 0.73954 0.35183 0.34642 0.0
H1321 H 0.79577 0.38362 0.32205 0.0
H1322 H 0.78173 0.4187 0.32901 0.0
H1323 H 0.75558 0.44086 0.34648 0.0
H1324 H 0.69917 0.40848 0.36959 0.0
H1325 H 0.7107 0.37317 0.35777 0.0
C1326 C 0.74851 0.36624 0.34192 0.0
C1327 C 0.76903 0.36488 0.33419 0.0
C1328 C 0.74025 0.38642 0.34575 0.0
C1329 C 0.78029 0.38405 0.32871 0.0
C1330 C 0.77219 0.4042 0.33255 0.0
C1331 C 0.74554 0.42605 0.34824 0.0
C1332 C 0.72663 0.42718 0.35894 0.0
C1333 C 0.75253 0.40569 0.34175 0.0
C1334 C 0.71381 0.40791 0.36139 0.0
C1335 C 0.72049 0.38774 0.35479 0.0
H1336 H 0.59751 0.55079 0.98999 0.0
H1337 H 0.65029 0.58489 0.96222 0.0
H1338 H 0.67056 0.55311 0.96314 0.0
H1339 H 0.6753 0.5177 0.97662 0.0
H1340 H 0.62268 0.48347 0.00407 0.0
H1341 H 0.59989 0.51296 0.99775 0.0
C1342 C 0.61316 0.55112 0.98353 0.0
C1343 C 0.62255 0.57042 0.9765 0.0
C1344 C 0.62473 0.53275 0.98406 0.0
C1345 C 0.64294 0.57049 0.96832 0.0
C1346 C 0.6545 0.55227 0.96872 0.0
C1347 C 0.65859 0.51649 0.98054 0.0
C1348 C 0.65054 0.49865 0.99076 0.0
C1349 C 0.64587 0.53363 0.97727 0.0
C1350 C 0.62901 0.49707 0.99598 0.0
C1351 C 0.61613 0.51401 0.99259 0.0
H1352 H 0.68418 0.36487 0.14724 0.0
H1353 H 0.62774 0.32286 0.15789 0.0
H1354 H 0.62624 0.30567 0.12103 0.0
H1355 H 0.63867 0.30466 0.08471 0.0
H1356 H 0.69438 0.34681 0.07308 0.0
H1357 H 0.69854 0.36172 0.11125 0.0
C1358 C 0.67162 0.35187 0.14154 0.0
C1359 C 0.65607 0.34528 0.15549 0.0
C1360 C 0.67063 0.34214 0.12005 0.0
C1361 C 0.64012 0.32816 0.14779 0.0
C1362 C 0.6391 0.3184 0.12658 0.0
C1363 C 0.65186 0.31697 0.0906 0.0
C1364 C 0.66608 0.32481 0.07605 0.0
C1365 C 0.65396 0.32556 0.11244 0.0
C1366 C 0.68328 0.3405 0.08396 0.0
C1367 C 0.68554 0.34912 0.10576 0.0
H1368 H 0.04422 0.26517 0.94213 0.0
H1369 H 0.99337 0.30731 0.93261 0.0
H1370 H 0.98849 0.30937 0.9712 0.0
H1371 H 0.9969 0.29719 0.00715 0.0
H1372 H 0.0475 0.25515 0.01726 0.0
H1373 H 0.05447 0.25504 0.97895 0.0
C1374 C 0.03212 0.27481 0.94858 0.0
C1375 C 0.0191 0.28598 0.9346 0.0
C1376 C 0.02942 0.27593 0.97082 0.0
C1377 C 0.00367 0.29868 0.94312 0.0
C1378 C 1.00081 0.2998 0.96514 0.0
C1379 C 0.00969 0.28836 1.00093 0.0
C1380 C 0.02179 0.27628 0.01469 0.0
C1381 C 0.01339 0.28829 0.97906 0.0
C1382 C 0.03823 0.2647 0.00676 0.0
C1383 C 0.04206 0.26453 0.98492 0.0
H1384 H 0.3522 0.7899 0.37675 0.0
H1385 H 0.32484 0.72813 0.3439 0.0
H1386 H 0.33092 0.71102 0.37753 0.0
H1387 H 0.34807 0.71288 0.41524 0.0
H1388 H 0.37591 0.77455 0.4474 0.0
H1389 H 0.36493 0.7926 0.41535 0.0
C1390 C 0.34696 0.77282 0.37698 0.0
C1391 C 0.33828 0.76033 0.35762 0.0
C1392 C 0.35058 0.76306 0.39637 0.0
C1393 C 0.33197 0.73811 0.35838 0.0
C1394 C 0.33534 0.7283 0.37766 0.0
C1395 C 0.35101 0.73036 0.41538 0.0
C1396 C 0.36248 0.7425 0.43364 0.0
C1397 C 0.3452 0.7405 0.39661 0.0
C1398 C 0.36678 0.76504 0.43358 0.0
C1399 C 0.36071 0.77528 0.41519 0.0
H1400 H 0.98888 0.59905 0.5426 0.0
H1401 H 0.95298 0.64643 0.57505 0.0
H1402 H 0.95476 0.66844 0.54457 0.0
H1403 H 0.97229 0.67718 0.51211 0.0
H1404 H 0.00854 0.63006 0.48007 0.0
H1405 H 0.99993 0.60449 0.50642 0.0
C1406 C 0.98081 0.61382 0.54276 0.0
C1407 C 0.97134 0.62136 0.56139 0.0
C1408 C 0.98195 0.62645 0.5252 0.0
C1409 C 0.96101 0.64059 0.56123 0.0
C1410 C 0.9619 0.65314 0.54375 0.0
C1411 C 0.97756 0.66098 0.51049 0.0
C1412 C 0.99115 0.65551 0.4944 0.0
C1413 C 0.97319 0.6467 0.52613 0.0
C1414 C 0.99794 0.63454 0.49229 0.0
C1415 C 0.9933 0.62005 0.50756 0.0
H1416 H 0.86337 0.33595 0.63292 0.0
H1417 H 0.84085 0.3505 0.69583 0.0
H1418 H 0.87657 0.34577 0.71333 0.0
H1419 H 0.9153 0.34082 0.71071 0.0
H1420 H 0.93769 0.32602 0.64806 0.0
H1421 H 0.90087 0.3268 0.63057 0.0
C1422 C 0.86602 0.33761 0.65048 0.0
C1423 C 0.84929 0.34394 0.66292 0.0
C1424 C 0.88666 0.33468 0.66054 0.0
C1425 C 0.85341 0.34622 0.6857 0.0
C1426 C 0.87385 0.34334 0.69579 0.0
C1427 C 0.91186 0.33703 0.69331 0.0
C1428 C 0.92898 0.33291 0.68067 0.0
C1429 C 0.89074 0.33801 0.68338 0.0
C1430 C 0.9246 0.32871 0.65809 0.0
C1431 C 0.90361 0.32943 0.6481 0.0
H1432 H 0.62578 0.65243 0.21162 0.0
H1433 H 0.66012 0.67972 0.27272 0.0
H1434 H 0.62665 0.6752 0.29035 0.0
H1435 H 0.58862 0.65921 0.28926 0.0
H1436 H 0.55484 0.63151 0.22831 0.0
H1437 H 0.58684 0.64115 0.20959 0.0
C1438 C 0.62592 0.65801 0.22866 0.0
C1439 C 0.64564 0.66616 0.24082 0.0
C1440 C 0.60661 0.65531 0.23873 0.0
C1441 C 0.64535 0.67295 0.263 0.0
C1442 C 0.62617 0.67047 0.2731 0.0
C1443 C 0.58813 0.65606 0.27178 0.0
C1444 C 0.56943 0.64501 0.26004 0.0
C1445 C 0.60684 0.66108 0.26127 0.0
C1446 C 0.569 0.64038 0.2375 0.0
C1447 C 0.58736 0.64566 0.22688 0.0
H1448 H 0.4323 0.0339 0.36948 0.0
H1449 H 0.45973 0.99992 0.42131 0.0
H1450 H 0.49364 0.99921 0.40438 0.0
H1451 H 0.51259 0.00223 0.37148 0.0
H1452 H 0.48439 0.03479 0.31918 0.0
H1453 H 0.45407 0.04299 0.34005 0.0
C1454 C 0.44591 0.02696 0.37746 0.0
C1455 C 0.44329 0.01649 0.39632 0.0
C1456 C 0.46527 0.02639 0.36752 0.0
C1457 C 0.46112 0.00753 0.40641 0.0
C1458 C 0.48056 0.0072 0.39681 0.0
C1459 C 0.50026 0.01195 0.36516 0.0
C1460 C 0.50056 0.01801 0.344 0.0
C1461 C 0.48244 0.01571 0.37686 0.0
C1462 C 0.4844 0.0302 0.33559 0.0
C1463 C 0.46698 0.03461 0.34739 0.0
H1464 H 0.05732 0.95972 0.72854 0.0
H1465 H 0.08012 0.0255 0.71927 0.0
H1466 H 0.04286 0.03508 0.71514 0.0
H1467 H 0.00422 0.02501 0.71442 0.0
H1468 H 0.98068 0.96042 0.72741 0.0
H1469 H 0.01772 0.94985 0.72897 0.0
C1470 C 0.05399 0.97609 0.72558 0.0
C1471 C 0.07129 0.99196 0.72428 0.0
C1472 C 0.03247 0.98162 0.72369 0.0
C1473 C 0.06697 0.01315 0.72052 0.0
C1474 C 0.04571 0.01859 0.71807 0.0
C1475 C 0.00708 0.00869 0.71801 0.0
C1476 C 0.98958 0.99367 0.72109 0.0
C1477 C 0.02839 0.00301 0.71978 0.0
C1478 C 0.99374 0.97235 0.72483 0.0
C1479 C 0.01497 0.96633 0.72592 0.0
H1480 H 0.68504 0.85229 0.34559 0.0
H1481 H 0.61873 0.86765 0.34635 0.0
H1482 H 0.62951 0.90491 0.33977 0.0
H1483 H 0.6582 0.93426 0.33752 0.0
H1484 H 0.72441 0.91957 0.3358 0.0
H1485 H 0.71333 0.88107 0.33863 0.0
C1486 C 0.67291 0.86368 0.34391 0.0
C1487 C 0.65115 0.85717 0.34702 0.0
C1488 C 0.67923 0.88532 0.34001 0.0
C1489 C 0.63568 0.87226 0.34469 0.0
C1490 C 0.6418 0.89361 0.3408 0.0
C1491 C 0.67008 0.92248 0.33722 0.0
C1492 C 0.69204 0.92963 0.33633 0.0
C1493 C 0.66358 0.90049 0.33902 0.0
C1494 C 0.70736 0.91434 0.33616 0.0
C1495 C 0.70104 0.89237 0.338 0.0
H1496 H 0.74868 0.07064 0.97764 0.0
H1497 H 0.6833 0.07905 0.99274 0.0
H1498 H 0.67621 0.0401 0.99472 0.0
H1499 H 0.68958 0.00399 0.9955 0.0
H1500 H 0.75542 0.99583 0.98264 0.0
H1501 H 0.76145 0.03427 0.97652 0.0
C1502 C 0.73288 0.06397 0.98137 0.0
C1503 C 0.71661 0.07787 0.98514 0.0
C1504 C 0.72902 0.04156 0.98294 0.0
C1505 C 0.69608 0.06881 0.98953 0.0
C1506 C 0.69204 0.04651 0.99083 0.0
C1507 C 0.70505 0.01065 0.9909 0.0
C1508 C 0.72199 0.99731 0.98924 0.0
C1509 C 0.70849 0.0328 0.98796 0.0
C1510 C 0.74215 0.00594 0.98371 0.0
C1511 C 0.7456 0.02788 0.98037 0.0
H1512 H 0.26361 0.64844 0.67603 0.0
H1513 H 0.20051 0.62424 0.64408 0.0
H1514 H 0.21394 0.58966 0.63335 0.0
H1515 H 0.24447 0.56768 0.62958 0.0
H1516 H 0.30766 0.59117 0.66132 0.0
H1517 H 0.29342 0.62451 0.67575 0.0
C1518 C 0.25279 0.63549 0.66693 0.0
C1519 C 0.23111 0.63897 0.66081 0.0
C1520 C 0.26067 0.61556 0.66067 0.0
C1521 C 0.2172 0.62195 0.6492 0.0
C1522 C 0.2249 0.6022 0.6429 0.0
C1523 C 0.25496 0.57997 0.64001 0.0
C1524 C 0.27702 0.57716 0.64435 0.0
C1525 C 0.2467 0.59902 0.64808 0.0
C1526 C 0.29056 0.59303 0.65791 0.0
C1527 C 0.28246 0.61213 0.66599 0.0
H1528 H 0.40984 0.46113 0.00915 0.0
H1529 H 0.36023 0.42124 0.03575 0.0
H1530 H 0.33795 0.45141 0.03809 0.0
H1531 H 0.32975 0.4867 0.02663 0.0
H1532 H 0.37716 0.52525 0.99631 0.0
H1533 H 0.40321 0.49826 0.00146 0.0
C1534 C 0.39422 0.45909 0.01561 0.0
C1535 C 0.38666 0.4388 0.02199 0.0
C1536 C 0.38107 0.47631 0.01617 0.0
C1537 C 0.36661 0.43664 0.03084 0.0
C1538 C 0.35372 0.45386 0.03203 0.0
C1539 C 0.34612 0.48948 0.02196 0.0
C1540 C 0.35183 0.50785 0.01141 0.0
C1541 C 0.36043 0.47345 0.02399 0.0
C1542 C 0.37274 0.51128 0.00482 0.0
C1543 C 0.38744 0.49574 0.00751 0.0
H1544 H 0.37033 0.67144 0.8563 0.0
H1545 H 0.30688 0.63603 0.84925 0.0
H1546 H 0.30186 0.64801 0.88697 0.0
H1547 H 0.3167 0.66696 0.92296 0.0
H1548 H 0.38036 0.70216 0.92883 0.0
H1549 H 0.38402 0.69183 0.89087 0.0
C1550 C 0.35522 0.66664 0.86286 0.0
C1551 C 0.33902 0.65289 0.8499 0.0
C1552 C 0.35257 0.67334 0.88459 0.0
C1553 C 0.31971 0.6465 0.85889 0.0
C1554 C 0.31682 0.65337 0.88048 0.0
C1555 C 0.33122 0.67256 0.91583 0.0
C1556 C 0.34838 0.68497 0.92898 0.0
C1557 C 0.33331 0.66654 0.89366 0.0
C1558 C 0.36708 0.69213 0.91935 0.0
C1559 C 0.36919 0.68635 0.89753 0.0
H1560 H 0.97218 0.699 0.0589 0.0
H1561 H 0.99894 0.76596 0.07165 0.0
H1562 H 0.00708 0.76627 0.03407 0.0
H1563 H 0.00865 0.74691 0.99812 0.0
H1564 H 0.98071 0.68058 0.98483 0.0
H1565 H 0.97028 0.68086 0.02194 0.0
C1566 C 0.97937 0.71384 0.05343 0.0
C1567 C 0.98522 0.73233 0.06831 0.0
C1568 C 0.98375 0.71403 0.03166 0.0
C1569 C 0.99476 0.75129 0.0608 0.0
C1570 C 0.99929 0.75156 0.03923 0.0
C1571 C 1.00006 0.73262 0.00335 0.0
C1572 C 0.99555 0.7137 0.98894 0.0
C1573 C 0.99422 0.73291 0.02464 0.0
C1574 C 0.98423 0.69534 0.99569 0.0
C1575 C 0.97843 0.69546 0.01692 0.0
H1576 H 0.6503 0.21611 0.62452 0.0
H1577 H 0.67568 0.27682 0.66096 0.0
H1578 H 0.66881 0.2959 0.62876 0.0
H1579 H 0.65196 0.29581 0.59117 0.0
H1580 H 0.6277 0.23504 0.55475 0.0
H1581 H 0.63825 0.21539 0.58587 0.0
C1582 C 0.65494 0.23342 0.62538 0.0
C1583 C 0.66321 0.24499 0.64537 0.0
C1584 C 0.65106 0.2443 0.60676 0.0
C1585 C 0.66879 0.26751 0.64601 0.0
C1586 C 0.66497 0.27846 0.62755 0.0
C1587 C 0.64956 0.27822 0.59 0.0
C1588 C 0.63926 0.26675 0.57084 0.0
C1589 C 0.65554 0.26711 0.608 0.0
C1590 C 0.63588 0.24404 0.56936 0.0
C1591 C 0.64175 0.23287 0.58717 0.0
H1592 H 0.04339 0.37151 0.43915 0.0
H1593 H 0.98193 0.3989 0.43701 0.0
H1594 H 0.97747 0.38995 0.4738 0.0
H1595 H 0.98699 0.36712 0.50262 0.0
H1596 H 0.04657 0.33654 0.50316 0.0
H1597 H 0.05625 0.35454 0.47153 0.0
C1598 C 0.02924 0.37586 0.44694 0.0
C1599 C 0.0128 0.38537 0.43523 0.0
C1600 C 0.02642 0.37 0.46783 0.0
C1601 C 0.99479 0.39149 0.44564 0.0
C1602 C 0.99214 0.38624 0.46664 0.0
C1603 C 0.00244 0.36505 0.4962 0.0
C1604 C 0.01583 0.35023 0.50478 0.0
C1605 C 0.00727 0.37446 0.47737 0.0
C1606 C 0.03597 0.34783 0.49672 0.0
C1607 C 0.04134 0.35787 0.47843 0.0
H1608 H 0.31512 0.56643 0.50527 0.0
H1609 H 0.24829 0.58074 0.50277 0.0
H1610 H 0.24434 0.56465 0.53676 0.0
H1611 H 0.2607 0.54962 0.56878 0.0
H1612 H 0.32833 0.53819 0.57293 0.0
H1613 H 0.33093 0.54939 0.53647 0.0
C1614 C 0.29969 0.56608 0.51216 0.0
C1615 C 0.28209 0.57501 0.50149 0.0
C1616 C 0.29762 0.55712 0.53197 0.0
C1617 C 0.26208 0.57391 0.51047 0.0
C1618 C 0.25983 0.56477 0.52999 0.0
C1619 C 0.27598 0.54936 0.56163 0.0
C1620 C 0.29435 0.54328 0.57375 0.0
C1621 C 0.2776 0.55673 0.54108 0.0
C1622 C 0.31387 0.5426 0.564 0.0
C1623 C 0.31545 0.54931 0.54324 0.0
H1624 H 0.24111 0.44778 0.9171 0.0
H1625 H 0.29669 0.44743 0.88005 0.0
H1626 H 0.31495 0.47811 0.90383 0.0
H1627 H 0.31611 0.50365 0.93637 0.0
H1628 H 0.26084 0.50419 0.97357 0.0
H1629 H 0.24104 0.47559 0.94785 0.0
C1630 C 0.25706 0.45461 0.91398 0.0
C1631 C 0.26757 0.44501 0.89692 0.0
C1632 C 0.26741 0.47253 0.92755 0.0
C1633 C 0.28838 0.45403 0.89335 0.0
C1634 C 0.29878 0.47177 0.9068 0.0
C1635 C 0.29954 0.4978 0.93854 0.0
C1636 C 0.28992 0.50602 0.95678 0.0
C1637 C 0.28856 0.48096 0.92409 0.0
C1638 C 0.26847 0.49836 0.95947 0.0
C1639 C 0.25728 0.48178 0.94495 0.0
H1640 H 0.72639 0.0183 0.46214 0.0
H1641 H 0.65799 0.99878 0.46261 0.0
H1642 H 0.65423 0.99223 0.42314 0.0
H1643 H 0.67135 0.98798 0.38901 0.0
H1644 H 0.73949 0.00827 0.38875 0.0
H1645 H 0.74217 0.01945 0.42762 0.0
C1646 C 0.71049 0.01325 0.45366 0.0
C1647 C 0.69262 0.00859 0.46543 0.0
C1648 C 0.7084 0.00963 0.43098 0.0
C1649 C 0.67219 0.00189 0.45403 0.0
C1650 C 0.66998 0.99824 0.43144 0.0
C1651 C 0.68666 0.9952 0.39747 0.0
C1652 C 0.70523 0.99711 0.3862 0.0
C1653 C 0.68813 1.00134 0.41983 0.0
C1654 C 0.72496 0.00672 0.39714 0.0
C1655 C 0.72654 0.01295 0.41937 0.0
H1656 H 0.7728 0.93851 0.1159 0.0
H1657 H 0.74173 0.99592 0.13413 0.0
H1658 H 0.7226 0.99372 0.09799 0.0
H1659 H 0.7168 0.97734 0.06055 0.0
H1660 H 0.74879 0.92101 0.04117 0.0
H1661 H 0.76523 0.92071 0.07849 0.0
C1662 C 0.76177 0.95047 0.11196 0.0
C1663 C 0.75873 0.96736 0.12774 0.0
C1664 C 0.75102 0.94931 0.09096 0.0
C1665 C 0.74416 0.98258 0.12246 0.0
C1666 C 0.73333 0.98144 0.10172 0.0
C1667 C 0.7273 0.96493 0.06453 0.0
C1668 C 0.73181 0.94938 0.04814 0.0
C1669 C 0.73694 0.96514 0.08578 0.0
C1670 C 0.74506 0.93312 0.05356 0.0
C1671 C 0.75458 0.93306 0.07483 0.0
H1672 H 0.49691 0.27869 0.54832 0.0
H1673 H 0.51812 0.31158 0.61176 0.0
H1674 H 0.55405 0.32064 0.60036 0.0
H1675 H 0.58076 0.31498 0.57418 0.0
H1676 H 0.56056 0.27996 0.51165 0.0
H1677 H 0.52294 0.27647 0.52063 0.0
C1678 C 0.50934 0.28798 0.55961 0.0
C1679 C 0.50477 0.29423 0.58097 0.0
C1680 C 0.53021 0.29278 0.55307 0.0
C1681 C 0.52101 0.30665 0.5952 0.0
C1682 C 0.54167 0.31173 0.58874 0.0
C1683 C 0.56802 0.30701 0.56233 0.0
C1684 C 0.57349 0.29758 0.54234 0.0
C1685 C 0.54662 0.30433 0.56795 0.0
C1686 C 0.5568 0.2875 0.52707 0.0
C1687 C 0.53532 0.28523 0.53234 0.0
H1688 H 0.13542 0.73971 0.97288 0.0
H1689 H 0.12251 0.79545 0.93886 0.0
H1690 H 0.08552 0.77939 0.92743 0.0
H1691 H 0.05568 0.75117 0.93035 0.0
H1692 H 0.06838 0.69631 0.96556 0.0
H1693 H 0.10674 0.70995 0.97275 0.0
C1694 C 0.12469 0.74811 0.96253 0.0
C1695 C 0.13165 0.76884 0.95694 0.0
C1696 C 0.10338 0.73889 0.95621 0.0
C1697 C 0.11742 0.77962 0.94372 0.0
C1698 C 0.09629 0.77042 0.9371 0.0
C1699 C 0.06706 0.74199 0.93906 0.0
C1700 C 0.05947 0.72277 0.94732 0.0
C1701 C 0.08892 0.75031 0.9437 0.0
C1702 C 0.07409 0.7111 0.95897 0.0
C1703 C 0.09593 0.71897 0.96319 0.0
H1704 H 0.9207 0.24183 0.44653 0.0
H1705 H 0.88315 0.2971 0.44827 0.0
H1706 H 0.90695 0.31461 0.47927 0.0
H1707 H 0.93976 0.31539 0.50436 0.0
H1708 H 0.97748 0.26049 0.50287 0.0
H1709 H 0.9516 0.24117 0.47407 0.0
C1710 C 0.91747 0.25754 0.45388 0.0
C1711 C 0.90027 0.26821 0.44477 0.0
C1712 C 0.93104 0.26744 0.47202 0.0
C1713 C 0.89657 0.28871 0.45447 0.0
C1714 C 0.91002 0.29866 0.47241 0.0
C1715 C 0.94194 0.29895 0.4981 0.0
C1716 C 0.96037 0.2893 0.50575 0.0
C1717 C 0.92744 0.28831 0.48112 0.0
C1718 C 0.96319 0.26807 0.49749 0.0
C1719 C 0.94859 0.25719 0.48078 0.0
H1720 H 0.46541 0.72927 0.0178 0.0
H1721 H 0.46781 0.66208 0.02966 0.0
H1722 H 0.42852 0.65549 0.02083 0.0
H1723 H 0.3941 0.66819 0.00564 0.0
H1724 H 0.39233 0.73575 0.99565 0.0
H1725 H 0.43083 0.74299 0.00834 0.0
C1726 C 0.45739 0.71331 0.01919 0.0
C1727 C 0.46967 0.69616 0.02412 0.0
C1728 C 0.43489 0.70969 0.01427 0.0
C1729 C 0.45883 0.6755 0.02541 0.0
C1730 C 0.43635 0.67172 0.02044 0.0
C1731 C 0.40216 0.68452 0.00681 0.0
C1732 C 0.39068 0.70148 0.99985 0.0
C1733 C 0.42432 0.68856 0.01418 0.0
C1734 C 0.40103 0.7226 1.00119 0.0
C1735 C 0.423 0.72669 0.00829 0.0
H1736 H 0.54648 0.4992 0.28363 0.0
H1737 H 0.61408 0.52277 0.29874 0.0
H1738 H 0.60465 0.56002 0.30165 0.0
H1739 H 0.57776 0.58592 0.29868 0.0
H1740 H 0.51027 0.56361 0.28128 0.0
H1741 H 0.51891 0.5258 0.28161 0.0
C1742 C 0.55909 0.51252 0.28767 0.0
C1743 C 0.581 0.50819 0.29066 0.0
C1744 C 0.55355 0.53407 0.28923 0.0
C1745 C 0.59717 0.52562 0.29587 0.0
C1746 C 0.59178 0.54694 0.29775 0.0
C1747 C 0.56487 0.57279 0.29496 0.0
C1748 C 0.54344 0.57756 0.28963 0.0
C1749 C 0.5701 0.55133 0.29426 0.0
C1750 C 0.52688 0.56039 0.28547 0.0
C1751 C 0.53188 0.53879 0.2854 0.0
H1752 H 0.93666 0.12189 0.77648 0.0
H1753 H 0.99109 0.13772 0.7402 0.0
H1754 H 0.98624 0.1014 0.72127 0.0
H1755 H 0.96889 0.0643 0.71734 0.0
H1756 H 0.91588 0.04715 0.75475 0.0
H1757 H 0.91763 0.08489 0.77076 0.0
C1758 C 0.94741 0.11741 0.76437 0.0
C1759 C 0.96427 0.13257 0.75985 0.0
C1760 C 0.94482 0.09625 0.7538 0.0
C1761 C 0.97781 0.12656 0.74384 0.0
C1762 C 0.97517 0.1057 0.73311 0.0
C1763 C 0.95761 0.06888 0.7289 0.0
C1764 C 0.94247 0.05299 0.73511 0.0
C1765 C 0.95906 0.09033 0.7383 0.0
C1766 C 0.92766 0.05914 0.74973 0.0
C1767 C 0.92879 0.08065 0.75899 0.0
H1768 H 0.46256 0.8883 0.26214 0.0
H1769 H 0.41432 0.93177 0.24639 0.0
H1770 H 0.44046 0.96294 0.25866 0.0
H1771 H 0.47611 0.97788 0.27576 0.0
H1772 H 0.52387 0.93504 0.29433 0.0
H1773 H 0.49917 0.90361 0.27832 0.0
C1774 C 0.45779 0.9046 0.26146 0.0
C1775 C 0.43649 0.90767 0.25333 0.0
C1776 C 0.47291 0.92255 0.26874 0.0
C1777 C 0.43064 0.92891 0.25231 0.0
C1778 C 0.44557 0.94677 0.25937 0.0
C1779 C 0.48121 0.96166 0.2761 0.0
C1780 C 0.50172 0.95878 0.28635 0.0
C1781 C 0.46664 0.94376 0.26777 0.0
C1782 C 0.50825 0.93772 0.28637 0.0
C1783 C 0.494 0.91974 0.2775 0.0
H1784 H 0.02856 0.46039 0.6962 0.0
H1785 H 0.96561 0.47675 0.71231 0.0
H1786 H 0.95381 0.43848 0.71422 0.0
H1787 H 0.96098 0.40066 0.71045 0.0
H1788 H 0.02283 0.3831 0.69192 0.0
H1789 H 0.03577 0.42157 0.69229 0.0
C1790 C 0.01234 0.4554 0.70018 0.0
C1791 C 0.99785 0.47105 0.70406 0.0
C1792 C 0.00555 0.4333 0.70087 0.0
C1793 C 0.97685 0.46474 0.70917 0.0
C1794 C 0.97015 0.44295 0.71029 0.0
C1795 C 0.97723 0.4052 0.70626 0.0
C1796 C 0.99081 0.38906 0.70089 0.0
C1797 C 0.98428 0.42713 0.70597 0.0
C1798 C 0.01207 0.39525 0.69618 0.0
C1799 C 0.01942 0.41721 0.69625 0.0
H1800 H 0.72444 0.45599 0.50761 0.0
H1801 H 0.69397 0.39223 0.48323 0.0
H1802 H 0.69005 0.40327 0.44678 0.0
H1803 H 0.69598 0.4301 0.42153 0.0
H1804 H 0.7299 0.49276 0.44347 0.0
H1805 H 0.73103 0.48346 0.48124 0.0
C1806 C 0.71709 0.44451 0.49428 0.0
C1807 C 0.70922 0.42336 0.49834 0.0
C1808 C 0.71519 0.45087 0.47298 0.0
C1809 C 0.6997 0.40873 0.48081 0.0
C1810 C 0.69749 0.41499 0.45987 0.0
C1811 C 0.70362 0.44181 0.43457 0.0
C1812 C 0.71308 0.46199 0.42969 0.0
C1813 C 0.70516 0.43594 0.4558 0.0
C1814 C 0.72244 0.47714 0.44681 0.0
C1815 C 0.72332 0.47169 0.46834 0.0
H1816 H 0.76166 0.54758 0.08566 0.0
H1817 H 0.70603 0.5503 0.12247 0.0
H1818 H 0.68678 0.5202 0.09864 0.0
H1819 H 0.6845 0.4951 0.06568 0.0
H1820 H 0.73934 0.49233 0.02825 0.0
H1821 H 0.76056 0.51977 0.0545 0.0
C1822 C 0.74547 0.54136 0.08872 0.0
C1823 C 0.73524 0.55152 0.10571 0.0
C1824 C 0.73448 0.5238 0.07502 0.0
C1825 C 0.71415 0.54328 0.10922 0.0
C1826 C 0.70317 0.52587 0.09574 0.0
C1827 C 0.70137 0.49999 0.06378 0.0
C1828 C 0.71058 0.49151 0.04542 0.0
C1829 C 0.71304 0.51624 0.07842 0.0
C1830 C 0.7322 0.4983 0.04262 0.0
C1831 C 0.74415 0.51422 0.05742 0.0
H1832 H 0.30751 0.9653 0.54654 0.0
H1833 H 0.31352 0.03074 0.52834 0.0
H1834 H 0.31601 0.04514 0.56636 0.0
H1835 H 0.31321 0.03917 0.60381 0.0
H1836 H 0.31124 0.97414 0.62367 0.0
H1837 H 0.30984 0.95947 0.58575 0.0
C1838 C 0.30962 0.98267 0.55108 0.0
C1839 C 0.31023 0.99704 0.53491 0.0
C1840 C 0.31142 0.99085 0.57306 0.0
C1841 C 0.31306 0.0195 0.5407 0.0
C1842 C 0.31441 0.0277 0.56236 0.0
C1843 C 0.31331 0.02181 0.60024 0.0
C1844 C 0.31228 0.00791 0.61688 0.0
C1845 C 0.31326 0.01353 0.5786 0.0
C1846 C 0.31159 0.98535 0.61131 0.0
C1847 C 0.31094 0.97691 0.5896 0.0
H1848 H 0.25777 0.05977 0.87149 0.0
H1849 H 0.19913 0.02426 0.88677 0.0
H1850 H 0.21217 0.02873 0.92518 0.0
H1851 H 0.24073 0.04132 0.95425 0.0
H1852 H 0.29959 0.07686 0.93976 0.0
H1853 H 0.28588 0.07418 0.9013 0.0
C1854 C 0.2479 0.05309 0.88329 0.0
C1855 C 0.22753 0.04173 0.87635 0.0
C1856 C 0.25549 0.05579 0.90546 0.0
C1857 C 0.21477 0.03327 0.89177 0.0
C1858 C 0.22224 0.03573 0.91372 0.0
C1859 C 0.25051 0.04854 0.94265 0.0
C1860 C 0.27118 0.05909 0.94971 0.0
C1861 C 0.24262 0.04679 0.9207 0.0
C1862 C 0.28357 0.06872 0.93466 0.0
C1863 C 0.27581 0.06704 0.91268 0.0
H1864 H 0.50982 0.72292 0.45856 0.0
H1865 H 0.4873 0.70699 0.39082 0.0
H1866 H 0.44986 0.70389 0.39969 0.0
H1867 H 0.42348 0.70673 0.42618 0.0
H1868 H 0.44479 0.72443 0.49382 0.0
H1869 H 0.48278 0.72477 0.48567 0.0
C1870 C 0.49671 0.71866 0.44578 0.0
C1871 C 0.50141 0.71548 0.42399 0.0
C1872 C 0.47504 0.71693 0.45101 0.0
C1873 C 0.48419 0.71001 0.40764 0.0
C1874 C 0.46275 0.70803 0.41271 0.0
C1875 C 0.43642 0.7107 0.4392 0.0
C1876 C 0.4313 0.71588 0.46055 0.0
C1877 C 0.45801 0.71165 0.43427 0.0
C1878 C 0.44827 0.72036 0.47727 0.0
C1879 C 0.46998 0.72078 0.47256 0.0
H1880 H 0.90297 0.19609 0.04184 0.0
H1881 H 0.87621 0.25067 0.07377 0.0
H1882 H 0.91249 0.26997 0.08125 0.0
H1883 H 0.95149 0.27247 0.07582 0.0
H1884 H 0.97762 0.21789 0.0433 0.0
H1885 H 0.94199 0.19718 0.03946 0.0
C1886 C 0.90509 0.21198 0.05091 0.0
C1887 C 0.88688 0.22195 0.05712 0.0
C1888 C 0.92591 0.22299 0.05503 0.0
C1889 C 0.88993 0.24275 0.06852 0.0
C1890 C 0.91068 0.25377 0.07288 0.0
C1891 C 0.94939 0.25587 0.06837 0.0
C1892 C 0.967 0.24666 0.05979 0.0
C1893 C 0.92874 0.24422 0.0658 0.0
C1894 C 0.96417 0.22526 0.04991 0.0
C1895 C 0.94383 0.21347 0.04766 0.0
H1896 H 0.11298 0.73759 0.55432 0.0
H1897 H 0.06325 0.75672 0.59412 0.0
H1898 H 0.03536 0.74484 0.56402 0.0
H1899 H 0.02514 0.72735 0.52696 0.0
H1900 H 0.07513 0.70716 0.48786 0.0
H1901 H 0.10292 0.72182 0.51682 0.0
C1902 C 0.09601 0.73908 0.5564 0.0
C1903 C 0.09011 0.74777 0.57644 0.0
C1904 C 0.08016 0.73235 0.53903 0.0
C1905 C 0.06815 0.75005 0.57882 0.0
C1906 C 0.05223 0.74327 0.56163 0.0
C1907 C 0.04213 0.72639 0.52468 0.0
C1908 C 0.04796 0.71617 0.50518 0.0
C1909 C 0.05805 0.73424 0.54171 0.0
C1910 C 0.0701 0.71526 0.50245 0.0
C1911 C 0.08603 0.72334 0.51917 0.0
H1912 H 0.5418 0.31771 0.97263 0.0
H1913 H 0.52576 0.27121 0.0177 0.0
H1914 H 0.56366 0.27343 0.03228 0.0
H1915 H 0.60117 0.28898 0.03282 0.0
H1916 H 0.61834 0.33424 0.98715 0.0
H1917 H 0.58019 0.33228 0.97215 0.0
C1918 C 0.54673 0.30804 0.98556 0.0
C1919 C 0.53114 0.29422 0.99401 0.0
C1920 C 0.56863 0.30929 0.99381 0.0
C1921 C 0.53759 0.2817 0.01073 0.0
C1922 C 0.55919 0.28306 0.01919 0.0
C1923 C 0.59645 0.29844 0.01963 0.0
C1924 C 0.6122 0.3119 0.01118 0.0
C1925 C 0.57479 0.29687 0.01094 0.0
C1926 C 0.60624 0.32385 0.99386 0.0
C1927 C 0.58453 0.32271 0.98534 0.0
H1928 H 0.45902 0.50909 0.7259 0.0
H1929 H 0.39232 0.48828 0.70234 0.0
H1930 H 0.40092 0.45086 0.69705 0.0
H1931 H 0.42679 0.42406 0.69956 0.0
H1932 H 0.49289 0.44304 0.72627 0.0
H1933 H 0.48548 0.48132 0.72871 0.0
C1934 C 0.44644 0.49631 0.71959 0.0
C1935 C 0.42499 0.50144 0.71474 0.0
C1936 C 0.45147 0.47461 0.71679 0.0
C1937 C 0.40883 0.48474 0.70659 0.0
C1938 C 0.41377 0.46336 0.70336 0.0
C1939 C 0.43963 0.4365 0.70614 0.0
C1940 C 0.46028 0.43058 0.71314 0.0
C1941 C 0.43495 0.45813 0.70853 0.0
C1942 C 0.47685 0.44707 0.72076 0.0
C1943 C 0.47253 0.46894 0.7224 0.0
H1944 H 0.05511 0.87068 0.25971 0.0
H1945 H 0.02847 0.88385 0.19632 0.0
H1946 H 0.03382 0.92277 0.20721 0.0
H1947 H 0.04412 0.95295 0.23528 0.0
H1948 H 0.07118 0.9405 0.29869 0.0
H1949 H 0.06807 0.90148 0.28723 0.0
C1950 C 0.05061 0.88215 0.24833 0.0
C1951 C 0.04139 0.87448 0.22729 0.0
C1952 C 0.05389 0.90459 0.25467 0.0
C1953 C 0.03576 0.88942 0.21256 0.0
C1954 C 0.03873 0.91165 0.21879 0.0
C1955 C 0.04952 0.94167 0.24649 0.0
C1956 C 0.05773 0.94946 0.26779 0.0
C1957 C 0.04755 0.91939 0.23985 0.0
C1958 C 0.06492 0.93481 0.28215 0.0
C1959 C 0.06297 0.91252 0.27566 0.0
H1960 H 0.54397 0.11186 0.73831 0.0
H1961 H 0.58956 0.06637 0.75574 0.0
H1962 H 0.56203 0.03613 0.74396 0.0
H1963 H 0.526 0.02257 0.72646 0.0
H1964 H 0.48111 0.06773 0.70648 0.0
H1965 H 0.50705 0.09815 0.72226 0.0
C1966 C 0.54788 0.09532 0.73946 0.0
C1967 C 0.56883 0.09138 0.74778 0.0
C1968 C 0.532 0.07798 0.73249 0.0
C1969 C 0.57353 0.06986 0.74954 0.0
C1970 C 0.55781 0.05256 0.74278 0.0
C1971 C 0.52179 0.03908 0.72577 0.0
C1972 C 0.50171 0.04287 0.71515 0.0
C1973 C 0.53711 0.05643 0.734 0.0
C1974 C 0.49634 0.06433 0.71473 0.0
C1975 C 0.51131 0.08174 0.72346 0.0
H1976 H 0.97275 0.55389 0.32734 0.0
H1977 H 0.0191 0.52538 0.28861 0.0
H1978 H 0.03291 0.56119 0.28 0.0
H1979 H 0.03377 0.60073 0.28571 0.0
H1980 H 0.98751 0.62981 0.32386 0.0
H1981 H 0.97166 0.59369 0.33062 0.0
C1982 C 0.98572 0.55559 0.31686 0.0
C1983 C 0.99489 0.53708 0.30862 0.0
C1984 C 0.99371 0.57628 0.31208 0.0
C1985 C 0.01158 0.53938 0.29492 0.0
C1986 C 0.01963 0.55985 0.29014 0.0
C1987 C 0.02011 0.59903 0.29536 0.0
C1988 C 0.01185 0.61761 0.30449 0.0
C1989 C 0.01111 0.57839 0.29896 0.0
C1990 C 0.99403 0.61552 0.31676 0.0
C1991 C 0.98506 0.59496 0.32063 0.0
H1992 H 0.38573 0.61487 0.31875 0.0
H1993 H 0.40181 0.66793 0.36889 0.0
H1994 H 0.43981 0.66951 0.36162 0.0
H1995 H 0.46827 0.65744 0.33942 0.0
H1996 H 0.4524 0.60519 0.28869 0.0
H1997 H 0.41463 0.60162 0.29768 0.0
C1998 C 0.39753 0.62681 0.32806 0.0
C1999 C 0.39077 0.6413 0.34433 0.0
C2000 C 0.41945 0.62775 0.32367 0.0
C2001 C 0.40645 0.65641 0.35645 0.0
C2002 C 0.42823 0.65742 0.35221 0.0
C2003 C 0.45656 0.64503 0.33064 0.0
C2004 C 0.46298 0.63143 0.3136 0.0
C2005 C 0.43488 0.64335 0.33572 0.0
C2006 C 0.44776 0.61563 0.30204 0.0
C2007 C 0.42617 0.61371 0.3071 0.0
H2008 H 0.12188 0.33442 0.73382 0.0
H2009 H 0.11448 0.29698 0.78836 0.0
H2010 H 0.07502 0.29392 0.78043 0.0
H2011 H 0.04243 0.30136 0.75746 0.0
H2012 H 0.04992 0.33811 0.70265 0.0
H2013 H 0.08946 0.34207 0.71117 0.0
C2014 C 0.11166 0.32546 0.7439 0.0
C2015 C 0.12123 0.31589 0.76164 0.0
C2016 C 0.08896 0.32372 0.7392 0.0
C2017 C 0.10763 0.30469 0.77474 0.0
C2018 C 0.08503 0.30284 0.77015 0.0
C2019 C 0.05281 0.3102 0.74745 0.0
C2020 C 0.04351 0.31936 0.72943 0.0
C2021 C 0.07551 0.31223 0.75239 0.0
C2022 C 0.0569 0.33097 0.71661 0.0
C2023 C 0.07945 0.33316 0.72145 0.0
H2024 H 0.78771 0.97812 0.68464 0.0
H2025 H 0.80295 0.02306 0.63782 0.0
H2026 H 0.84157 0.02335 0.64915 0.0
H2027 H 0.8713 0.00941 0.67122 0.0
H2028 H 0.85607 0.96488 0.71817 0.0
H2029 H 0.81716 0.9662 0.70835 0.0
C2030 C 0.79942 0.9883 0.67718 0.0
C2031 C 0.79237 1.0004 0.66026 0.0
C2032 C 0.82163 0.98848 0.68385 0.0
C2033 C 0.80789 0.01325 0.65059 0.0
C2034 C 0.83001 0.01354 0.65715 0.0
C2035 C 0.85935 1.00029 0.67944 0.0
C2036 C 0.86623 0.98714 0.69537 0.0
C2037 C 0.83709 1.001 0.67355 0.0
C2038 C 0.8509 0.97518 0.70591 0.0
C2039 C 0.82873 0.97587 0.70024 0.0
H2040 H 0.66363 0.9663 0.25615 0.0
H2041 H 0.6824 0.03532 0.26634 0.0
H2042 H 0.64798 0.04121 0.28042 0.0
H2043 H 0.61381 0.0267 0.29288 0.0
H2044 H 0.59509 0.95791 0.28457 0.0
H2045 H 0.62813 0.9519 0.26676 0.0
C2046 C 0.6601 0.98264 0.26126 0.0
C2047 C 0.67567 1.00031 0.26002 0.0
C2048 C 0.6403 0.98594 0.26982 0.0
C2049 C 0.6707 0.0214 0.26664 0.0
C2050 C 0.65104 0.02481 0.27494 0.0
C2051 C 0.61686 0.01045 0.28679 0.0
C2052 C 0.60225 0.99275 0.28979 0.0
C2053 C 0.63592 0.0072 0.27697 0.0
C2054 C 0.60624 0.97172 0.2822 0.0
C2055 C 0.62512 0.96832 0.27214 0.0
H2056 H 0.35617 0.40469 0.66016 0.0
H2057 H 0.35224 0.39289 0.59033 0.0
H2058 H 0.34042 0.42885 0.58682 0.0
H2059 H 0.33068 0.46406 0.60364 0.0
H2060 H 0.33272 0.47438 0.67325 0.0
H2061 H 0.34501 0.43848 0.6767 0.0
C2062 C 0.3524 0.40969 0.6441 0.0
C2063 C 0.35529 0.39583 0.62559 0.0
C2064 C 0.34502 0.43023 0.64212 0.0
C2065 C 0.35071 0.40316 0.605 0.0
C2066 C 0.34369 0.42374 0.60291 0.0
C2067 C 0.33373 0.45828 0.61948 0.0
C2068 C 0.33086 0.47167 0.6382 0.0
C2069 C 0.34076 0.43746 0.62135 0.0
C2070 C 0.33485 0.4642 0.65866 0.0
C2071 C 0.34191 0.44372 0.66064 0.0
H2072 H 0.29586 0.68349 0.02189 0.0
H2073 H 0.23641 0.66786 0.98028 0.0
H2074 H 0.24271 0.62927 0.97749 0.0
H2075 H 0.26421 0.59973 0.98932 0.0
H2076 H 0.32387 0.61637 0.0306 0.0
H2077 H 0.31866 0.65495 0.03105 0.0
C2078 C 0.28433 0.67163 0.01222 0.0
C2079 C 0.26554 0.67834 0.00166 0.0
C2080 C 0.28818 0.64973 0.01065 0.0
C2081 C 0.25091 0.66295 0.98869 0.0
C2082 C 0.25451 0.64095 0.98714 0.0
C2083 C 0.27615 0.61193 0.99808 0.0
C2084 C 0.29438 0.60551 0.00993 0.0
C2085 C 0.27294 0.6341 0.99835 0.0
C2086 C 0.30979 0.62118 0.02134 0.0
C2087 C 0.30676 0.64316 0.02168 0.0
H2088 H 0.74784 0.11671 0.29273 0.0
H2089 H 0.7789 0.1232 0.35819 0.0
H2090 H 0.77075 0.08436 0.36037 0.0
H2091 H 0.7541 0.04824 0.34385 0.0
H2092 H 0.72206 0.04232 0.27908 0.0
H2093 H 0.73093 0.08107 0.27652 0.0
C2094 C 0.75268 0.10972 0.30757 0.0
C2095 C 0.76403 0.12304 0.32523 0.0
C2096 C 0.74767 0.08736 0.30885 0.0
C2097 C 0.77046 0.11344 0.34416 0.0
C2098 C 0.76564 0.09118 0.34552 0.0
C2099 C 0.7491 0.05555 0.32924 0.0
C2100 C 0.73753 0.04258 0.31157 0.0
C2101 C 0.7542 0.07796 0.32799 0.0
C2102 C 0.73107 0.05206 0.29275 0.0
C2103 C 0.73612 0.07422 0.29132 0.0
H2104 H 0.65117 0.80184 0.96611 0.0
H2105 H 0.67691 0.80326 0.03298 0.0
H2106 H 0.69121 0.84128 0.03287 0.0
H2107 H 0.69592 0.87453 0.0136 0.0
H2108 H 0.67001 0.8724 0.94676 0.0
H2109 H 0.65612 0.83436 0.94697 0.0
C2110 C 0.65978 0.81052 0.98071 0.0
C2111 C 0.66287 0.7998 0.99955 0.0
C2112 C 0.66792 0.83228 0.9805 0.0
C2113 C 0.67444 0.81113 0.01822 0.0
C2114 C 0.68253 0.83289 0.01819 0.0
C2115 C 0.68725 0.8656 0.99917 0.0
C2116 C 0.68386 0.876 0.98019 0.0
C2117 C 0.67933 0.84367 0.99942 0.0
C2118 C 0.67269 0.86453 0.96151 0.0
C2119 C 0.66476 0.84284 0.96163 0.0
H2120 H 0.66168 0.34883 0.40083 0.0
H2121 H 0.59451 0.33071 0.37756 0.0
H2122 H 0.58769 0.31739 0.41238 0.0
H2123 H 0.60151 0.30827 0.44878 0.0
H2124 H 0.66858 0.32658 0.4719 0.0
H2125 H 0.67477 0.34242 0.43805 0.0
C2126 C 0.64555 0.342 0.40341 0.0
C2127 C 0.62869 0.34065 0.38651 0.0
C2128 C 0.64172 0.33437 0.42352 0.0
C2129 C 0.60778 0.33207 0.39028 0.0
C2130 C 0.60387 0.32434 0.41018 0.0
C2131 C 0.61731 0.31615 0.44648 0.0
C2132 C 0.63456 0.31649 0.46273 0.0
C2133 C 0.62077 0.3251 0.42684 0.0
C2134 C 0.65505 0.32641 0.4596 0.0
C2135 C 0.65862 0.33532 0.44021 0.0
H2136 H 0.98933 0.24984 0.66346 0.0
H2137 H 0.04801 0.28928 0.68982 0.0
H2138 H 0.052 0.30297 0.65487 0.0
H2139 H 0.0395 0.30332 0.61662 0.0
H2140 H 0.98165 0.26376 0.58896 0.0
H2141 H 0.9765 0.25045 0.62451 0.0
C2142 C 0.00295 0.2614 0.66146 0.0
C2143 C 0.01849 0.26832 0.67916 0.0
C2144 C 0.00529 0.26913 0.64111 0.0
C2145 C 0.03605 0.28338 0.67639 0.0
C2146 C 0.03831 0.29132 0.65643 0.0
C2147 C 0.02575 0.29181 0.61849 0.0
C2148 C 0.01096 0.28441 0.60056 0.0
C2149 C 0.02315 0.28422 0.63869 0.0
C2150 C 0.99317 0.26957 0.60281 0.0
C2151 C 0.99029 0.26199 0.62304 0.0
H2152 H 0.31799 0.77836 0.10613 0.0
H2153 H 0.32148 0.71376 0.12572 0.0
H2154 H 0.32053 0.69914 0.08795 0.0
H2155 H 0.31892 0.70445 0.04922 0.0
H2156 H 0.31472 0.76847 0.02888 0.0
H2157 H 0.31608 0.78364 0.0669 0.0
C2158 C 0.31864 0.76111 0.10211 0.0
C2159 C 0.31965 0.74719 0.11883 0.0
C2160 C 0.31803 0.7527 0.08018 0.0
C2161 C 0.32034 0.72484 0.11325 0.0
C2162 C 0.31993 0.71644 0.09162 0.0
C2163 C 0.31817 0.72169 0.05315 0.0
C2164 C 0.31654 0.73536 0.03644 0.0
C2165 C 0.31874 0.73017 0.07496 0.0
C2166 C 0.31592 0.7577 0.04163 0.0
C2167 C 0.31667 0.76634 0.06333 0.0
H2168 H 0.01977 0.65129 0.80059 0.0
H2169 H 0.97204 0.69174 0.77613 0.0
H2170 H 0.96743 0.70603 0.81305 0.0
H2171 H 0.97541 0.70562 0.85252 0.0
H2172 H 0.02207 0.66447 0.87719 0.0
H2173 H 0.02853 0.65165 0.84004 0.0
C2174 C 0.00832 0.66318 0.80333 0.0
C2175 C 0.99629 0.6704 0.78554 0.0
C2176 C 0.0055 0.67113 0.82467 0.0
C2177 C 0.98176 0.68609 0.78944 0.0
C2178 C 0.97897 0.69417 0.81058 0.0
C2179 C 0.98715 0.69403 0.84964 0.0
C2180 C 0.99836 0.68597 0.86727 0.0
C2181 C 0.99057 0.68666 0.82831 0.0
C2182 C 0.01341 0.67088 0.86365 0.0
C2183 C 0.01703 0.66354 0.84247 0.0
H2184 H 0.62148 0.39033 0.69436 0.0
H2185 H 0.60449 0.35592 0.6309 0.0
H2186 H 0.56605 0.35494 0.63648 0.0
H2187 H 0.53715 0.36181 0.66034 0.0
H2188 H 0.55398 0.39538 0.72401 0.0
H2189 H 0.59246 0.39877 0.7175 0.0
C2190 C 0.60939 0.38259 0.68176 0.0
C2191 C 0.61601 0.37316 0.66224 0.0
C2192 C 0.58721 0.38198 0.68513 0.0
C2193 C 0.59998 0.36351 0.64598 0.0
C2194 C 0.57794 0.36284 0.6492 0.0
C2195 C 0.54927 0.37025 0.67257 0.0
C2196 C 0.54288 0.3786 0.69251 0.0
C2197 C 0.57135 0.37182 0.66878 0.0
C2198 C 0.55861 0.38913 0.70843 0.0
C2199 C 0.58059 0.39091 0.70476 0.0
H2200 H 0.88749 0.68317 0.27111 0.0
H2201 H 0.89149 0.68064 0.20201 0.0
H2202 H 0.93102 0.68274 0.2078 0.0
H2203 H 0.96475 0.68519 0.23257 0.0
H2204 H 0.96079 0.68791 0.30151 0.0
H2205 H 0.92108 0.68617 0.29582 0.0
C2206 C 0.89699 0.6833 0.25731 0.0
C2207 C 0.88639 0.68168 0.23613 0.0
C2208 C 0.91979 0.68454 0.26076 0.0
C2209 C 0.89908 0.68155 0.21847 0.0
C2210 C 0.92175 0.68287 0.22177 0.0
C2211 C 0.95508 0.68532 0.24626 0.0
C2212 C 0.96543 0.68654 0.26739 0.0
C2213 C 0.93229 0.68427 0.24282 0.0
C2214 C 0.95298 0.68683 0.2851 0.0
C2215 C 0.93033 0.68588 0.28185 0.0
H2216 H 0.19574 0.98215 0.35492 0.0
H2217 H 0.22384 0.02634 0.31292 0.0
H2218 H 0.18769 0.03323 0.29821 0.0
H2219 H 0.14794 0.02824 0.29859 0.0
H2220 H 0.1198 0.98506 0.34122 0.0
H2221 H 0.15605 0.9764 0.35461 0.0
C2222 C 0.19397 0.99335 0.3426 0.0
C2223 C 0.21254 0.00371 0.33508 0.0
C2224 C 0.1731 0.9975 0.33442 0.0
C2225 C 0.20989 0.01789 0.31883 0.0
C2226 C 0.1892 0.022 0.31051 0.0
C2227 C 0.14987 0.01681 0.31068 0.0
C2228 C 0.13153 0.00722 0.31901 0.0
C2229 C 0.17071 0.01208 0.31833 0.0
C2230 C 0.13391 0.99252 0.33466 0.0
C2231 C 0.15457 0.98763 0.3423 0.0
H2232 H 0.34023 0.99051 0.75152 0.0
H2233 H 0.31978 0.04728 0.72326 0.0
H2234 H 0.35409 0.05254 0.70774 0.0
H2235 H 0.38832 0.0385 0.69837 0.0
H2236 H 0.40848 0.98143 0.72575 0.0
H2237 H 0.37597 0.97873 0.74534 0.0
C2238 C 0.34322 0.00407 0.74201 0.0
C2239 C 0.32689 0.01796 0.738 0.0
C2240 C 0.36303 0.00692 0.73288 0.0
C2241 C 0.33166 0.03599 0.72639 0.0
C2242 C 0.35137 0.03903 0.71739 0.0
C2243 C 0.38576 0.02583 0.70908 0.0
C2244 C 0.4006 0.01024 0.71086 0.0
C2245 C 0.3669 0.02423 0.71997 0.0
C2246 C 0.3972 0.99368 0.72443 0.0
C2247 C 0.3786 0.99208 0.73548 0.0
H2248 H 0.69656 0.62086 0.35859 0.0
H2249 H 0.64211 0.61244 0.3966 0.0
H2250 H 0.64875 0.57466 0.39954 0.0
H2251 H 0.66962 0.54329 0.39048 0.0
H2252 H 0.7247 0.55253 0.35372 0.0
H2253 H 0.7186 0.59067 0.35165 0.0
C2254 C 0.68631 0.61097 0.36786 0.0
C2255 C 0.66874 0.61974 0.37722 0.0
C2256 C 0.69046 0.58928 0.36987 0.0
C2257 C 0.65548 0.60624 0.38878 0.0
C2258 C 0.65939 0.58458 0.39067 0.0
C2259 C 0.68048 0.55385 0.38243 0.0
C2260 C 0.69778 0.54531 0.37253 0.0
C2261 C 0.67677 0.57585 0.3812 0.0
C2262 C 0.71151 0.55892 0.36175 0.0
C2263 C 0.70792 0.58068 0.36043 0.0
H2264 H 0.72988 0.32876 0.03318 0.0
H2265 H 0.7335 0.31692 0.96407 0.0
H2266 H 0.71765 0.35062 0.95851 0.0
H2267 H 0.70262 0.38363 0.97314 0.0
H2268 H 0.70057 0.39638 0.04209 0.0
H2269 H 0.71706 0.36264 0.04794 0.0
C2270 C 0.72777 0.33367 0.0169 0.0
C2271 C 0.73302 0.32004 0.99911 0.0
C2272 C 0.71911 0.35341 0.01381 0.0
C2273 C 0.72937 0.32667 0.97812 0.0
C2274 C 0.72045 0.34612 0.97489 0.0
C2275 C 0.70604 0.37904 0.98944 0.0
C2276 C 0.70069 0.39232 0.00722 0.0
C2277 C 0.71525 0.35959 0.99259 0.0
C2278 C 0.70481 0.38632 0.02826 0.0
C2279 C 0.71404 0.36701 0.03155 0.0
H2280 H 0.23304 0.88618 0.6598 0.0
H2281 H 0.27412 0.87827 0.71777 0.0
H2282 H 0.28649 0.91683 0.72154 0.0
H2283 H 0.28599 0.95288 0.70834 0.0
H2284 H 0.24355 0.96175 0.65197 0.0
H2285 H 0.23141 0.92275 0.64745 0.0
C2286 C 0.2445 0.8929 0.67341 0.0
C2287 C 0.25275 0.87916 0.68835 0.0
C2288 C 0.25138 0.91527 0.6757 0.0
C2289 C 0.26781 0.88826 0.70573 0.0
C2290 C 0.27482 0.91038 0.70801 0.0
C2291 C 0.27391 0.94626 0.69526 0.0
C2292 C 0.26544 0.95998 0.68065 0.0
C2293 C 0.2668 0.92401 0.69307 0.0
C2294 C 0.25015 0.95132 0.66344 0.0
C2295 C 0.24322 0.92909 0.6609 0.0
H2296 H 0.34396 0.20207 0.97642 0.0
H2297 H 0.3238 0.22809 0.0373 0.0
H2298 H 0.31144 0.19165 0.04543 0.0
H2299 H 0.30787 0.15212 0.03613 0.0
H2300 H 0.32868 0.12575 0.97591 0.0
H2301 H 0.33948 0.16251 0.96662 0.0
C2302 C 0.33689 0.19975 0.99147 0.0
C2303 C 0.33478 0.21782 0.00619 0.0
C2304 C 0.33003 0.17867 0.99618 0.0
C2305 C 0.32532 0.21454 0.02551 0.0
C2306 C 0.31839 0.19367 0.03028 0.0
C2307 C 0.31462 0.15456 0.02092 0.0
C2308 C 0.31756 0.13659 0.00665 0.0
C2309 C 0.32084 0.17563 0.01584 0.0
C2310 C 0.32633 0.13959 0.98703 0.0
C2311 C 0.3325 0.16053 0.98178 0.0
H2312 H 0.37815 0.69775 0.62103 0.0
H2313 H 0.36519 0.62889 0.60271 0.0
H2314 H 0.36699 0.6349 0.56462 0.0
H2315 H 0.37009 0.65996 0.53602 0.0
H2316 H 0.38229 0.72873 0.55418 0.0
H2317 H 0.38291 0.7226 0.59265 0.0
C2318 C 0.37566 0.68404 0.60872 0.0
C2319 C 0.37147 0.66288 0.61488 0.0
C2320 C 0.37663 0.68762 0.58673 0.0
C2321 C 0.36865 0.64533 0.5986 0.0
C2322 C 0.36957 0.64876 0.57674 0.0
C2323 C 0.37333 0.67351 0.54849 0.0
C2324 C 0.37648 0.69473 0.54244 0.0
C2325 C 0.37336 0.66984 0.57056 0.0
C2326 C 0.38021 0.71224 0.55858 0.0
C2327 C 0.38038 0.70874 0.58054 0.0
H2328 H 0.01378 0.70797 0.31672 0.0
H2329 H 0.97489 0.75779 0.33893 0.0
H2330 H 0.97972 0.74687 0.37597 0.0
H2331 H 0.99583 0.72303 0.40215 0.0
H2332 H 0.03315 0.67237 0.37826 0.0
H2333 H 0.02768 0.68327 0.34156 0.0
C2334 C 0.0064 0.71646 0.32963 0.0
C2335 C 0.99428 0.73382 0.32516 0.0
C2336 C 0.0089 0.7098 0.35054 0.0
C2337 C 0.98444 0.74446 0.34204 0.0
C2338 C 0.9872 0.7382 0.36317 0.0
C2339 C 0.00274 0.71453 0.38882 0.0
C2340 C 0.01509 0.69715 0.39271 0.0
C2341 C 0.99951 0.72092 0.36765 0.0
C2342 C 0.02379 0.68595 0.3755 0.0
C2343 C 0.02072 0.69219 0.35457 0.0
H2344 H 0.67579 0.28123 0.88081 0.0
H2345 H 0.68321 0.21426 0.89036 0.0
H2346 H 0.68498 0.22289 0.92963 0.0
H2347 H 0.68531 0.24977 0.96155 0.0
H2348 H 0.67844 0.31666 0.95192 0.0
H2349 H 0.67583 0.3079 0.91248 0.0
C2350 C 0.67799 0.26853 0.89146 0.0
C2351 C 0.67942 0.24712 0.88254 0.0
C2352 C 0.6791 0.27363 0.91406 0.0
C2353 C 0.68184 0.23083 0.89668 0.0
C2354 C 0.68297 0.23577 0.91918 0.0
C2355 C 0.68307 0.26231 0.95071 0.0
C2356 C 0.68194 0.28377 0.95938 0.0
C2357 C 0.68167 0.25712 0.92807 0.0
C2358 C 0.67923 0.30002 0.94542 0.0
C2359 C 0.6778 0.29501 0.92292 0.0
H2360 H 0.9797 0.35659 0.18382 0.0
H2361 H 0.03215 0.33492 0.22403 0.0
H2362 H 0.04216 0.31244 0.19294 0.0
H2363 H 0.03823 0.30177 0.15349 0.0
H2364 H 0.9868 0.32462 0.11315 0.0
H2365 H 0.97423 0.34405 0.14503 0.0
C2366 C 0.9933 0.34691 0.18579 0.0
C2367 C 0.0053 0.34762 0.20616 0.0
C2368 C 0.99924 0.33441 0.16777 0.0
C2369 C 0.02256 0.33459 0.20857 0.0
C2370 C 0.02842 0.32187 0.19075 0.0
C2371 C 0.02409 0.31077 0.15187 0.0
C2372 C 0.01335 0.31195 0.13129 0.0
C2373 C 0.01719 0.32205 0.17019 0.0
C2374 C 0.99516 0.32361 0.12904 0.0
C2375 C 0.98805 0.33471 0.14719 0.0
loop_
_geom_bond_atom_site_label_1
_geom_bond_atom_site_label_2
_geom_bond_distance
_geom_bond_site_symmetry_2
_ccdc_geom_bond_type
C0 C1 1.264 . S
C0 C5 1.479 . S
C0 C10 1.465 . S
C1 C0 1.264 . S
C1 C3 1.339 . S
C1 H28 0.931 . S
C2 C3 1.395 . S
C2 C4 1.320 . S
C3 C1 1.339 . S
C3 C2 1.395 . S
C3 H29 0.929 . S
C4 C2 1.320 . S
C4 C5 1.405 . S
C4 H30 0.930 . S
C5 C0 1.479 . S
C5 C4 1.405 . S
C5 H31 0.931 . S
U6 O7 2.454 . S
U6 O8 2.458 . S
U6 C9 2.984 . S
U6 C10 2.847 . S
U6 C23 2.882 . S
U6 O24 2.441 . S
U6 O25 2.420 . S
U6 O26 2.455 . S
U6 O27 2.449 . S
O7 U6 2.454 . S
O7 C9 1.353 . S
O8 U6 2.458 . S
O8 C9 1.286 . S
C9 U6 2.984 . S
C9 O7 1.353 . S
C9 O8 1.286 . S
C9 C11 1.363 . S
C10 C0 1.465 . S
C10 U6 2.847 . S
C10 O24 1.249 . S
C10 O25 1.202 . S
C11 C9 1.363 . S
C11 C13 1.408 . S
C11 C16 1.342 . S
C12 C13 1.310 . S
C12 C15 1.461 . S
C12 H32 0.932 . S
C13 C11 1.408 . S
C13 C12 1.310 . S
C13 H33 0.930 . S
C14 C15 1.474 . S
C14 C16 1.285 . S
C14 H34 0.929 . S
C15 C12 1.461 . S
C15 C14 1.474 . S
C16 C11 1.342 . S
C16 C14 1.285 . S
C16 H35 0.930 . S
C17 C20 1.424 . S
C17 C22 1.245 . S
C17 C23 1.428 . S
C18 C21 1.260 . S
C18 C22 1.477 . S
C18 H36 0.932 . S
C19 C20 1.384 . S
C19 C21 1.479 . S
C19 H37 0.929 . S
C20 C17 1.424 . S
C20 C19 1.384 . S
C20 H38 0.928 . S
C21 C18 1.260 . S
C21 C19 1.479 . S
C22 C17 1.245 . S
C22 C18 1.477 . S
C22 H39 0.932 . S
C23 U6 2.882 . S
C23 C17 1.428 . S
C23 O26 1.301 . S
C23 O27 1.282 . S
O24 U6 2.441 . S
O24 C10 1.249 . S
O25 U6 2.420 . S
O25 C10 1.202 . S
O26 U6 2.455 . S
O26 C23 1.301 . S
O27 U6 2.449 . S
O27 C23 1.282 . S
H28 C1 0.931 . S
H29 C3 0.929 . S
H30 C4 0.930 . S
H31 C5 0.931 . S
H32 C12 0.932 . S
H33 C13 0.930 . S
H34 C14 0.929 . S
H35 C16 0.930 . S
H36 C18 0.932 . S
H37 C19 0.929 . S
H38 C20 0.928 . S
H39 C22 0.932 . S
C40 C41 1.264 . S
C40 C45 1.479 . S
C40 C50 1.465 . S
C41 C40 1.264 . S
C41 C43 1.339 . S
C41 H68 0.931 . S
C42 C43 1.395 . S
C42 C44 1.320 . S
C43 C41 1.339 . S
C43 C42 1.395 . S
C43 H69 0.929 . S
C44 C42 1.320 . S
C44 C45 1.405 . S
C44 H70 0.930 . S
C45 C40 1.479 . S
C45 C44 1.405 . S
C45 H71 0.931 . S
U46 O47 2.454 . S
U46 O48 2.458 . S
U46 C49 2.984 . S
U46 C50 2.847 . S
U46 C63 2.882 . S
U46 O64 2.441 . S
U46 O65 2.420 . S
U46 O66 2.455 . S
U46 O67 2.449 . S
O47 U46 2.454 . S
O47 C49 1.353 . S
O48 U46 2.458 . S
O48 C49 1.286 . S
C49 U46 2.984 . S
C49 O47 1.353 . S
C49 O48 1.286 . S
C49 C51 1.363 . S
C50 C40 1.465 . S
C50 U46 2.847 . S
C50 O64 1.249 . S
C50 O65 1.202 . S
C51 C49 1.363 . S
C51 C53 1.408 . S
C51 C56 1.342 . S
C52 C53 1.310 . S
C52 C55 1.461 . S
C52 H72 0.932 . S
C53 C51 1.408 . S
C53 C52 1.310 . S
C53 H73 0.930 . S
C54 C55 1.474 . S
C54 C56 1.285 . S
C54 H74 0.929 . S
C55 C52 1.461 . S
C55 C54 1.474 . S
C56 C51 1.342 . S
C56 C54 1.285 . S
C56 H75 0.930 . S
C57 C60 1.424 . S
C57 C62 1.245 . S
C57 C63 1.428 . S
C58 C61 1.260 . S
C58 C62 1.477 . S
C58 H76 0.932 . S
C59 C60 1.384 . S
C59 C61 1.479 . S
C59 H77 0.929 . S
C60 C57 1.424 . S
C60 C59 1.384 . S
C60 H78 0.928 . S
C61 C58 1.260 . S
C61 C59 1.479 . S
C62 C57 1.245 . S
C62 C58 1.477 . S
C62 H79 0.932 . S
C63 U46 2.882 . S
C63 C57 1.428 . S
C63 O66 1.301 . S
C63 O67 1.282 . S
O64 U46 2.441 . S
O64 C50 1.249 . S
O65 U46 2.420 . S
O65 C50 1.202 . S
O66 U46 2.455 . S
O66 C63 1.301 . S
O67 U46 2.449 . S
O67 C63 1.282 . S
H68 C41 0.931 . S
H69 C43 0.929 . S
H70 C44 0.930 . S
H71 C45 0.931 . S
H72 C52 0.932 . S
H73 C53 0.930 . S
H74 C54 0.929 . S
H75 C56 0.930 . S
H76 C58 0.932 . S
H77 C59 0.929 . S
H78 C60 0.928 . S
H79 C62 0.932 . S
C80 C81 1.264 . S
C80 C85 1.479 . S
C80 C90 1.465 . S
C81 C80 1.264 . S
C81 C83 1.339 . S
C81 H108 0.931 . S
C82 C83 1.395 . S
C82 C84 1.320 . S
C83 C81 1.339 . S
C83 C82 1.395 . S
C83 H109 0.929 . S
C84 C82 1.320 . S
C84 C85 1.405 . S
C84 H110 0.925 1_565 S
C85 C80 1.479 . S
C85 C84 1.405 . S
C85 H111 0.931 . S
U86 O87 2.454 . S
U86 O88 2.458 . S
U86 C89 2.984 . S
U86 C90 2.847 . S
U86 C103 2.882 . S
U86 O104 2.441 . S
U86 O105 2.420 . S
U86 O106 2.455 . S
U86 O107 2.449 . S
O87 U86 2.454 . S
O87 C89 1.353 . S
O88 U86 2.458 . S
O88 C89 1.286 . S
C89 U86 2.984 . S
C89 O87 1.353 . S
C89 O88 1.286 . S
C89 C91 1.363 . S
C90 C80 1.465 . S
C90 U86 2.847 . S
C90 O104 1.249 . S
C90 O105 1.202 . S
C91 C89 1.363 . S
C91 C93 1.408 . S
C91 C96 1.342 . S
C92 C93 1.310 . S
C92 C95 1.461 . S
C92 H112 0.932 . S
C93 C91 1.408 . S
C93 C92 1.310 . S
C93 H113 0.930 . S
C94 C95 1.473 1_545 S
C94 C96 1.284 1_545 S
C94 H114 0.932 . S
C95 C92 1.461 . S
C95 C94 1.473 1_565 S
C96 C91 1.342 . S
C96 C94 1.284 1_565 S
C96 H115 0.935 . S
C97 C100 1.424 . S
C97 C102 1.245 . S
C97 C103 1.428 . S
C98 C101 1.260 . S
C98 C102 1.477 . S
C98 H116 0.932 . S
C99 C100 1.384 . S
C99 C101 1.479 . S
C99 H117 0.929 . S
C100 C97 1.424 . S
C100 C99 1.384 . S
C100 H118 0.928 . S
C101 C98 1.260 . S
C101 C99 1.479 . S
C102 C97 1.245 . S
C102 C98 1.477 . S
C102 H119 0.932 . S
C103 U86 2.882 . S
C103 C97 1.428 . S
C103 O106 1.301 . S
C103 O107 1.282 . S
O104 U86 2.441 . S
O104 C90 1.249 . S
O105 U86 2.420 . S
O105 C90 1.202 . S
O106 U86 2.455 . S
O106 C103 1.301 . S
O107 U86 2.449 . S
O107 C103 1.282 . S
H108 C81 0.931 . S
H109 C83 0.929 . S
H110 C84 0.925 1_545 S
H111 C85 0.931 . S
H112 C92 0.932 . S
H113 C93 0.930 . S
H114 C94 0.932 . S
H115 C96 0.935 . S
H116 C98 0.932 . S
H117 C99 0.929 . S
H118 C100 0.928 . S
H119 C102 0.932 . S
C120 C121 1.264 . S
C120 C125 1.479 . S
C120 C130 1.465 . S
C121 C120 1.264 . S
C121 C123 1.339 . S
C121 H148 0.931 . S
C122 C123 1.395 . S
C122 C124 1.320 . S
C123 C121 1.339 . S
C123 C122 1.395 . S
C123 H149 0.929 . S
C124 C122 1.320 . S
C124 C125 1.405 . S
C124 H150 0.930 . S
C125 C120 1.479 . S
C125 C124 1.405 . S
C125 H151 0.931 . S
U126 O127 2.454 . S
U126 O128 2.458 . S
U126 C129 2.984 . S
U126 C130 2.847 . S
U126 C143 2.882 . S
U126 O144 2.441 . S
U126 O145 2.420 . S
U126 O146 2.455 . S
U126 O147 2.449 . S
O127 U126 2.454 . S
O127 C129 1.353 . S
O128 U126 2.458 . S
O128 C129 1.286 . S
C129 U126 2.984 . S
C129 O127 1.353 . S
C129 O128 1.286 . S
C129 C131 1.363 . S
C130 C120 1.465 . S
C130 U126 2.847 . S
C130 O144 1.249 . S
C130 O145 1.202 . S
C131 C129 1.363 . S
C131 C133 1.408 . S
C131 C136 1.342 . S
C132 C133 1.310 . S
C132 C135 1.461 . S
C132 H152 0.932 . S
C133 C131 1.408 . S
C133 C132 1.310 . S
C133 H153 0.930 . S
C134 C135 1.474 . S
C134 C136 1.285 . S
C134 H154 0.929 . S
C135 C132 1.461 . S
C135 C134 1.474 . S
C136 C131 1.342 . S
C136 C134 1.285 . S
C136 H155 0.930 . S
C137 C140 1.424 . S
C137 C142 1.245 . S
C137 C143 1.428 1_565 S
C138 C141 1.260 . S
C138 C142 1.477 . S
C138 H156 0.932 . S
C139 C140 1.384 . S
C139 C141 1.479 . S
C139 H157 0.929 . S
C140 C137 1.424 . S
C140 C139 1.384 . S
C140 H158 0.928 . S
C141 C138 1.260 . S
C141 C139 1.479 . S
C142 C137 1.245 . S
C142 C138 1.477 . S
C142 H159 0.932 . S
C143 U126 2.882 . S
C143 C137 1.428 1_545 S
C143 O146 1.301 . S
C143 O147 1.282 . S
O144 U126 2.441 . S
O144 C130 1.249 . S
O145 U126 2.420 . S
O145 C130 1.202 . S
O146 U126 2.455 . S
O146 C143 1.301 . S
O147 U126 2.449 . S
O147 C143 1.282 . S
H148 C121 0.931 . S
H149 C123 0.929 . S
H150 C124 0.930 . S
H151 C125 0.931 . S
H152 C132 0.932 . S
H153 C133 0.930 . S
H154 C134 0.929 . S
H155 C136 0.930 . S
H156 C138 0.932 . S
H157 C139 0.929 . S
H158 C140 0.928 . S
H159 C142 0.932 . S
C160 C161 1.264 . S
C160 C165 1.479 . S
C160 C170 1.465 . S
C161 C160 1.264 . S
C161 C163 1.339 . S
C161 H188 0.931 . S
C162 C163 1.395 . S
C162 C164 1.320 . S
C163 C161 1.339 . S
C163 C162 1.395 . S
C163 H189 0.929 . S
C164 C162 1.320 . S
C164 C165 1.405 . S
C164 H190 0.930 . S
C165 C160 1.479 . S
C165 C164 1.405 . S
C165 H191 0.931 . S
U166 O167 2.454 . S
U166 O168 2.458 . S
U166 C169 2.984 . S
U166 C170 2.847 . S
U166 C183 2.882 . S
U166 O184 2.441 . S
U166 O185 2.420 . S
U166 O186 2.455 . S
U166 O187 2.449 . S
O167 U166 2.454 . S
O167 C169 1.353 . S
O168 U166 2.458 . S
O168 C169 1.286 . S
C169 U166 2.984 . S
C169 O167 1.353 . S
C169 O168 1.286 . S
C169 C171 1.363 . S
C170 C160 1.465 . S
C170 U166 2.847 . S
C170 O184 1.249 . S
C170 O185 1.202 . S
C171 C169 1.363 . S
C171 C173 1.408 . S
C171 C176 1.342 . S
C172 C173 1.310 . S
C172 C175 1.461 . S
C172 H192 0.932 . S
C173 C171 1.408 . S
C173 C172 1.310 . S
C173 H193 0.930 . S
C174 C175 1.474 . S
C174 C176 1.285 . S
C174 H194 0.929 . S
C175 C172 1.461 . S
C175 C174 1.474 . S
C176 C171 1.342 . S
C176 C174 1.285 . S
C176 H195 0.930 . S
C177 C180 1.424 . S
C177 C182 1.245 . S
C177 C183 1.428 . S
C178 C181 1.260 . S
C178 C182 1.477 . S
C178 H196 0.932 . S
C179 C180 1.384 . S
C179 C181 1.479 . S
C179 H197 0.929 . S
C180 C177 1.424 . S
C180 C179 1.384 . S
C180 H198 0.928 . S
C181 C178 1.260 . S
C181 C179 1.479 . S
C182 C177 1.245 . S
C182 C178 1.477 . S
C182 H199 0.932 . S
C183 U166 2.882 . S
C183 C177 1.428 . S
C183 O186 1.301 . S
C183 O187 1.282 . S
O184 U166 2.441 . S
O184 C170 1.249 . S
O185 U166 2.420 . S
O185 C170 1.202 . S
O186 U166 2.455 . S
O186 C183 1.301 . S
O187 U166 2.449 . S
O187 C183 1.282 . S
H188 C161 0.931 . S
H189 C163 0.929 . S
H190 C164 0.930 . S
H191 C165 0.931 . S
H192 C172 0.932 . S
H193 C173 0.930 . S
H194 C174 0.929 . S
H195 C176 0.930 . S
H196 C178 0.932 . S
H197 C179 0.929 . S
H198 C180 0.928 . S
H199 C182 0.932 . S
C200 C201 1.264 . S
C200 C205 1.479 . S
C200 C210 1.465 . S
C201 C200 1.264 . S
C201 C203 1.339 . S
C201 H228 0.931 . S
C202 C203 1.395 . S
C202 C204 1.320 . S
C203 C201 1.339 . S
C203 C202 1.395 . S
C203 H229 0.929 . S
C204 C202 1.320 . S
C204 C205 1.405 . S
C204 H230 0.930 . S
C205 C200 1.479 . S
C205 C204 1.405 . S
C205 H231 0.931 . S
U206 O207 2.454 . S
U206 O208 2.458 . S
U206 C209 2.984 . S
U206 C210 2.847 . S
U206 C223 2.882 . S
U206 O224 2.441 . S
U206 O225 2.420 . S
U206 O226 2.455 . S
U206 O227 2.449 . S
O207 U206 2.454 . S
O207 C209 1.353 . S
O208 U206 2.458 . S
O208 C209 1.286 . S
C209 U206 2.984 . S
C209 O207 1.353 . S
C209 O208 1.286 . S
C209 C211 1.363 . S
C210 C200 1.465 . S
C210 U206 2.847 . S
C210 O224 1.249 . S
C210 O225 1.202 . S
C211 C209 1.363 . S
C211 C213 1.408 . S
C211 C216 1.342 . S
C212 C213 1.310 . S
C212 C215 1.461 . S
C212 H232 0.932 . S
C213 C211 1.408 . S
C213 C212 1.310 . S
C213 H233 0.930 . S
C214 C215 1.474 . S
C214 C216 1.285 . S
C214 H234 0.929 . S
C215 C212 1.461 . S
C215 C214 1.474 . S
C216 C211 1.342 . S
C216 C214 1.285 . S
C216 H235 0.930 . S
C217 C220 1.424 . S
C217 C222 1.245 . S
C217 C223 1.428 1_556 S
C218 C221 1.260 . S
C218 C222 1.477 . S
C218 H236 0.932 . S
C219 C220 1.384 . S
C219 C221 1.479 . S
C219 H237 0.929 . S
C220 C217 1.424 . S
C220 C219 1.384 . S
C220 H238 0.928 . S
C221 C218 1.260 . S
C221 C219 1.479 . S
C222 C217 1.245 . S
C222 C218 1.477 . S
C222 H239 0.932 . S
C223 U206 2.882 . S
C223 C217 1.428 1_554 S
C223 O226 1.301 . S
C223 O227 1.282 . S
O224 U206 2.441 . S
O224 C210 1.249 . S
O225 U206 2.420 . S
O225 C210 1.202 . S
O226 U206 2.455 . S
O226 C223 1.301 . S
O227 U206 2.449 . S
O227 C223 1.282 . S
H228 C201 0.931 . S
H229 C203 0.929 . S
H230 C204 0.930 . S
H231 C205 0.931 . S
H232 C212 0.932 . S
H233 C213 0.930 . S
H234 C214 0.929 . S
H235 C216 0.930 . S
H236 C218 0.932 . S
H237 C219 0.929 . S
H238 C220 0.928 . S
H239 C222 0.932 . S
C240 C241 1.264 . S
C240 C245 1.479 . S
C240 C250 1.465 . S
C241 C240 1.264 . S
C241 C243 1.339 . S
C241 H268 0.931 . S
C242 C243 1.395 . S
C242 C244 1.320 . S
C243 C241 1.339 . S
C243 C242 1.395 . S
C243 H269 0.929 . S
C244 C242 1.320 . S
C244 C245 1.405 . S
C244 H270 0.930 . S
C245 C240 1.479 . S
C245 C244 1.405 . S
C245 H271 0.931 . S
U246 O247 2.454 . S
U246 O248 2.458 . S
U246 C249 2.984 . S
U246 C250 2.847 . S
U246 C263 2.882 . S
U246 O264 2.441 . S
U246 O265 2.420 . S
U246 O266 2.455 . S
U246 O267 2.449 . S
O247 U246 2.454 . S
O247 C249 1.353 . S
O248 U246 2.458 . S
O248 C249 1.286 . S
C249 U246 2.984 . S
C249 O247 1.353 . S
C249 O248 1.286 . S
C249 C251 1.363 . S
C250 C240 1.465 . S
C250 U246 2.847 . S
C250 O264 1.249 . S
C250 O265 1.202 . S
C251 C249 1.363 . S
C251 C253 1.408 . S
C251 C256 1.342 . S
C252 C253 1.310 . S
C252 C255 1.461 . S
C252 H272 0.932 . S
C253 C251 1.408 . S
C253 C252 1.310 . S
C253 H273 0.930 . S
C254 C255 1.474 . S
C254 C256 1.285 . S
C254 H274 0.929 . S
C255 C252 1.461 . S
C255 C254 1.474 . S
C256 C251 1.342 . S
C256 C254 1.285 . S
C256 H275 0.930 . S
C257 C260 1.424 . S
C257 C262 1.245 . S
C257 C263 1.428 . S
C258 C261 1.260 . S
C258 C262 1.477 . S
C258 H276 0.932 . S
C259 C260 1.384 . S
C259 C261 1.479 . S
C259 H277 0.929 . S
C260 C257 1.424 . S
C260 C259 1.384 . S
C260 H278 0.928 . S
C261 C258 1.260 . S
C261 C259 1.479 . S
C262 C257 1.245 . S
C262 C258 1.477 . S
C262 H279 0.932 . S
C263 U246 2.882 . S
C263 C257 1.428 . S
C263 O266 1.301 . S
C263 O267 1.282 . S
O264 U246 2.441 . S
O264 C250 1.249 . S
O265 U246 2.420 . S
O265 C250 1.202 . S
O266 U246 2.455 . S
O266 C263 1.301 . S
O267 U246 2.449 . S
O267 C263 1.282 . S
H268 C241 0.931 . S
H269 C243 0.929 . S
H270 C244 0.930 . S
H271 C245 0.931 . S
H272 C252 0.932 . S
H273 C253 0.930 . S
H274 C254 0.929 . S
H275 C256 0.930 . S
H276 C258 0.932 . S
H277 C259 0.929 . S
H278 C260 0.928 . S
H279 C262 0.932 . S
C280 C281 1.264 . S
C280 C285 1.479 . S
C280 C290 1.465 . S
C281 C280 1.264 . S
C281 C283 1.339 . S
C281 H308 0.931 . S
C282 C283 1.395 . S
C282 C284 1.320 . S
C283 C281 1.339 . S
C283 C282 1.395 . S
C283 H309 0.929 . S
C284 C282 1.320 . S
C284 C285 1.405 . S
C284 H310 0.925 1_556 S
C285 C280 1.479 . S
C285 C284 1.405 . S
C285 H311 0.931 . S
U286 O287 2.454 . S
U286 O288 2.458 . S
U286 C289 2.984 . S
U286 C290 2.847 . S
U286 C303 2.882 . S
U286 O304 2.441 . S
U286 O305 2.420 . S
U286 O306 2.455 . S
U286 O307 2.449 . S
O287 U286 2.454 . S
O287 C289 1.353 . S
O288 U286 2.458 . S
O288 C289 1.286 . S
C289 U286 2.984 . S
C289 O287 1.353 . S
C289 O288 1.286 . S
C289 C291 1.363 . S
C290 C280 1.465 . S
C290 U286 2.847 . S
C290 O304 1.249 . S
C290 O305 1.202 . S
C291 C289 1.363 . S
C291 C293 1.408 . S
C291 C296 1.342 . S
C292 C293 1.310 . S
C292 C295 1.461 . S
C292 H312 0.932 . S
C293 C291 1.408 . S
C293 C292 1.310 . S
C293 H313 0.930 . S
C294 C295 1.473 1_554 S
C294 C296 1.284 1_554 S
C294 H314 0.932 . S
C295 C292 1.461 . S
C295 C294 1.473 1_556 S
C296 C291 1.342 . S
C296 C294 1.284 1_556 S
C296 H315 0.935 . S
C297 C300 1.424 . S
C297 C302 1.245 . S
C297 C303 1.428 . S
C298 C301 1.260 . S
C298 C302 1.477 . S
C298 H316 0.932 . S
C299 C300 1.384 . S
C299 C301 1.479 . S
C299 H317 0.929 . S
C300 C297 1.424 . S
C300 C299 1.384 . S
C300 H318 0.928 . S
C301 C298 1.260 . S
C301 C299 1.479 . S
C302 C297 1.245 . S
C302 C298 1.477 . S
C302 H319 0.932 . S
C303 U286 2.882 . S
C303 C297 1.428 . S
C303 O306 1.301 . S
C303 O307 1.282 . S
O304 U286 2.441 . S
O304 C290 1.249 . S
O305 U286 2.420 . S
O305 C290 1.202 . S
O306 U286 2.455 . S
O306 C303 1.301 . S
O307 U286 2.449 . S
O307 C303 1.282 . S
H308 C281 0.931 . S
H309 C283 0.929 . S
H310 C284 0.925 1_554 S
H311 C285 0.931 . S
H312 C292 0.932 . S
H313 C293 0.930 . S
H314 C294 0.932 . S
H315 C296 0.935 . S
H316 C298 0.932 . S
H317 C299 0.929 . S
H318 C300 0.928 . S
H319 C302 0.932 . S
C320 C321 1.264 . S
C320 C325 1.479 . S
C320 C330 1.465 . S
C321 C320 1.264 . S
C321 C323 1.339 . S
C321 H348 0.931 . S
C322 C323 1.395 . S
C322 C324 1.320 . S
C323 C321 1.339 . S
C323 C322 1.395 . S
C323 H349 0.929 . S
C324 C322 1.320 . S
C324 C325 1.405 . S
C324 H350 0.930 . S
C325 C320 1.479 . S
C325 C324 1.405 . S
C325 H351 0.931 . S
U326 O327 2.454 . S
U326 O328 2.458 . S
U326 C329 2.984 . S
U326 C330 2.847 . S
U326 C343 2.882 . S
U326 O344 2.441 . S
U326 O345 2.420 . S
U326 O346 2.455 . S
U326 O347 2.449 . S
O327 U326 2.454 . S
O327 C329 1.353 . S
O328 U326 2.458 . S
O328 C329 1.286 . S
C329 U326 2.984 . S
C329 O327 1.353 . S
C329 O328 1.286 . S
C329 C331 1.363 . S
C330 C320 1.465 . S
C330 U326 2.847 . S
C330 O344 1.249 . S
C330 O345 1.202 . S
C331 C329 1.363 . S
C331 C333 1.408 . S
C331 C336 1.342 . S
C332 C333 1.310 . S
C332 C335 1.461 . S
C332 H352 0.932 . S
C333 C331 1.408 . S
C333 C332 1.310 . S
C333 H353 0.930 . S
C334 C335 1.474 . S
C334 C336 1.285 . S
C334 H354 0.929 . S
C335 C332 1.461 . S
C335 C334 1.474 . S
C336 C331 1.342 . S
C336 C334 1.285 . S
C336 H355 0.930 . S
C337 C340 1.424 . S
C337 C342 1.245 . S
C337 C343 1.428 . S
C338 C341 1.260 . S
C338 C342 1.477 . S
C338 H356 0.932 . S
C339 C340 1.384 . S
C339 C341 1.479 . S
C339 H357 0.929 . S
C340 C337 1.424 . S
C340 C339 1.384 . S
C340 H358 0.928 . S
C341 C338 1.260 . S
C341 C339 1.479 . S
C342 C337 1.245 . S
C342 C338 1.477 . S
C342 H359 0.932 . S
C343 U326 2.882 . S
C343 C337 1.428 . S
C343 O346 1.301 . S
C343 O347 1.282 . S
O344 U326 2.441 . S
O344 C330 1.249 . S
O345 U326 2.420 . S
O345 C330 1.202 . S
O346 U326 2.455 . S
O346 C343 1.301 . S
O347 U326 2.449 . S
O347 C343 1.282 . S
H348 C321 0.931 . S
H349 C323 0.929 . S
H350 C324 0.930 . S
H351 C325 0.931 . S
H352 C332 0.932 . S
H353 C333 0.930 . S
H354 C334 0.929 . S
H355 C336 0.930 . S
H356 C338 0.932 . S
H357 C339 0.929 . S
H358 C340 0.928 . S
H359 C342 0.932 . S
C360 C361 1.264 . S
C360 C365 1.479 . S
C360 C370 1.465 . S
C361 C360 1.264 . S
C361 C363 1.339 . S
C361 H388 0.931 . S
C362 C363 1.395 . S
C362 C364 1.320 . S
C363 C361 1.339 . S
C363 C362 1.395 . S
C363 H389 0.929 . S
C364 C362 1.320 . S
C364 C365 1.405 . S
C364 H390 0.930 . S
C365 C360 1.479 . S
C365 C364 1.405 . S
C365 H391 0.931 . S
U366 O367 2.454 . S
U366 O368 2.458 . S
U366 C369 2.984 . S
U366 C370 2.847 . S
U366 C383 2.882 . S
U366 O384 2.441 . S
U366 O385 2.420 . S
U366 O386 2.455 . S
U366 O387 2.449 . S
O367 U366 2.454 . S
O367 C369 1.353 . S
O368 U366 2.458 . S
O368 C369 1.286 . S
C369 U366 2.984 . S
C369 O367 1.353 . S
C369 O368 1.286 . S
C369 C371 1.363 . S
C370 C360 1.465 . S
C370 U366 2.847 . S
C370 O384 1.249 . S
C370 O385 1.202 . S
C371 C369 1.363 . S
C371 C373 1.408 . S
C371 C376 1.342 . S
C372 C373 1.310 . S
C372 C375 1.461 . S
C372 H392 0.932 . S
C373 C371 1.408 . S
C373 C372 1.310 . S
C373 H393 0.930 . S
C374 C375 1.474 . S
C374 C376 1.285 . S
C374 H394 0.929 . S
C375 C372 1.461 . S
C375 C374 1.474 . S
C376 C371 1.342 . S
C376 C374 1.285 . S
C376 H395 0.930 . S
C377 C380 1.424 . S
C377 C382 1.245 . S
C377 C383 1.428 1_655 S
C378 C381 1.260 . S
C378 C382 1.477 . S
C378 H396 0.932 . S
C379 C380 1.384 . S
C379 C381 1.479 . S
C379 H397 0.929 . S
C380 C377 1.424 . S
C380 C379 1.384 . S
C380 H398 0.928 . S
C381 C378 1.260 . S
C381 C379 1.479 . S
C382 C377 1.245 . S
C382 C378 1.477 . S
C382 H399 0.932 . S
C383 U366 2.882 . S
C383 C377 1.428 1_455 S
C383 O386 1.301 . S
C383 O387 1.282 . S
O384 U366 2.441 . S
O384 C370 1.249 . S
O385 U366 2.420 . S
O385 C370 1.202 . S
O386 U366 2.455 . S
O386 C383 1.301 . S
O387 U366 2.449 . S
O387 C383 1.282 . S
H388 C361 0.931 . S
H389 C363 0.929 . S
H390 C364 0.930 . S
H391 C365 0.931 . S
H392 C372 0.932 . S
H393 C373 0.930 . S
H394 C374 0.929 . S
H395 C376 0.930 . S
H396 C378 0.932 . S
H397 C379 0.929 . S
H398 C380 0.928 . S
H399 C382 0.932 . S
C400 C401 1.264 . S
C400 C405 1.479 . S
C400 C410 1.465 . S
C401 C400 1.264 . S
C401 C403 1.339 . S
C401 H428 0.931 . S
C402 C403 1.395 . S
C402 C404 1.320 . S
C403 C401 1.339 . S
C403 C402 1.395 . S
C403 H429 0.929 . S
C404 C402 1.320 . S
C404 C405 1.405 . S
C404 H430 0.930 . S
C405 C400 1.479 . S
C405 C404 1.405 . S
C405 H431 0.931 . S
U406 O407 2.454 . S
U406 O408 2.458 . S
U406 C409 2.984 . S
U406 C410 2.847 . S
U406 C423 2.882 . S
U406 O424 2.441 . S
U406 O425 2.420 . S
U406 O426 2.455 . S
U406 O427 2.449 . S
O407 U406 2.454 . S
O407 C409 1.353 . S
O408 U406 2.458 . S
O408 C409 1.286 . S
C409 U406 2.984 . S
C409 O407 1.353 . S
C409 O408 1.286 . S
C409 C411 1.363 . S
C410 C400 1.465 . S
C410 U406 2.847 . S
C410 O424 1.249 . S
C410 O425 1.202 . S
C411 C409 1.363 . S
C411 C413 1.408 . S
C411 C416 1.342 . S
C412 C413 1.310 . S
C412 C415 1.461 . S
C412 H432 0.932 . S
C413 C411 1.408 . S
C413 C412 1.310 . S
C413 H433 0.930 . S
C414 C415 1.474 . S
C414 C416 1.285 . S
C414 H434 0.929 . S
C415 C412 1.461 . S
C415 C414 1.474 . S
C416 C411 1.342 . S
C416 C414 1.285 . S
C416 H435 0.930 . S
C417 C420 1.424 . S
C417 C422 1.245 . S
C417 C423 1.428 . S
C418 C421 1.260 . S
C418 C422 1.477 . S
C418 H436 0.932 . S
C419 C420 1.384 . S
C419 C421 1.479 . S
C419 H437 0.929 . S
C420 C417 1.424 . S
C420 C419 1.384 . S
C420 H438 0.928 . S
C421 C418 1.260 . S
C421 C419 1.479 . S
C422 C417 1.245 . S
C422 C418 1.477 . S
C422 H439 0.932 . S
C423 U406 2.882 . S
C423 C417 1.428 . S
C423 O426 1.301 . S
C423 O427 1.282 . S
O424 U406 2.441 . S
O424 C410 1.249 . S
O425 U406 2.420 . S
O425 C410 1.202 . S
O426 U406 2.455 . S
O426 C423 1.301 . S
O427 U406 2.449 . S
O427 C423 1.282 . S
H428 C401 0.931 . S
H429 C403 0.929 . S
H430 C404 0.930 . S
H431 C405 0.931 . S
H432 C412 0.932 . S
H433 C413 0.930 . S
H434 C414 0.929 . S
H435 C416 0.930 . S
H436 C418 0.932 . S
H437 C419 0.929 . S
H438 C420 0.928 . S
H439 C422 0.932 . S
C440 C441 1.264 . S
C440 C445 1.479 . S
C440 C450 1.465 . S
C441 C440 1.264 . S
C441 C443 1.339 . S
C441 H468 0.931 . S
C442 C443 1.395 . S
C442 C444 1.320 . S
C443 C441 1.339 . S
C443 C442 1.395 . S
C443 H469 0.929 . S
C444 C442 1.320 . S
C444 C445 1.405 . S
C444 H470 0.925 1_655 S
C445 C440 1.479 . S
C445 C444 1.405 . S
C445 H471 0.931 . S
U446 O447 2.454 . S
U446 O448 2.458 . S
U446 C449 2.984 . S
U446 C450 2.847 . S
U446 C463 2.882 . S
U446 O464 2.441 . S
U446 O465 2.420 . S
U446 O466 2.455 . S
U446 O467 2.449 . S
O447 U446 2.454 . S
O447 C449 1.353 . S
O448 U446 2.458 . S
O448 C449 1.286 . S
C449 U446 2.984 . S
C449 O447 1.353 . S
C449 O448 1.286 . S
C449 C451 1.363 . S
C450 C440 1.465 . S
C450 U446 2.847 . S
C450 O464 1.249 . S
C450 O465 1.202 . S
C451 C449 1.363 . S
C451 C453 1.408 . S
C451 C456 1.342 . S
C452 C453 1.310 . S
C452 C455 1.461 . S
C452 H472 0.932 . S
C453 C451 1.408 . S
C453 C452 1.310 . S
C453 H473 0.930 . S
C454 C455 1.473 1_455 S
C454 C456 1.284 1_455 S
C454 H474 0.932 . S
C455 C452 1.461 . S
C455 C454 1.473 1_655 S
C456 C451 1.342 . S
C456 C454 1.284 1_655 S
C456 H475 0.935 . S
C457 C460 1.424 . S
C457 C462 1.245 . S
C457 C463 1.428 . S
C458 C461 1.260 . S
C458 C462 1.477 . S
C458 H476 0.932 . S
C459 C460 1.384 . S
C459 C461 1.479 . S
C459 H477 0.929 . S
C460 C457 1.424 . S
C460 C459 1.384 . S
C460 H478 0.928 . S
C461 C458 1.260 . S
C461 C459 1.479 . S
C462 C457 1.245 . S
C462 C458 1.477 . S
C462 H479 0.932 . S
C463 U446 2.882 . S
C463 C457 1.428 . S
C463 O466 1.301 . S
C463 O467 1.282 . S
O464 U446 2.441 . S
O464 C450 1.249 . S
O465 U446 2.420 . S
O465 C450 1.202 . S
O466 U446 2.455 . S
O466 C463 1.301 . S
O467 U446 2.449 . S
O467 C463 1.282 . S
H468 C441 0.931 . S
H469 C443 0.929 . S
H470 C444 0.925 1_455 S
H471 C445 0.931 . S
H472 C452 0.932 . S
H473 C453 0.930 . S
H474 C454 0.932 . S
H475 C456 0.935 . S
H476 C458 0.932 . S
H477 C459 0.929 . S
H478 C460 0.928 . S
H479 C462 0.932 . S
C480 C481 1.264 . S
C480 C485 1.479 . S
C480 C490 1.465 . S
C481 C480 1.264 . S
C481 C483 1.339 . S
C481 H508 0.931 . S
C482 C483 1.395 . S
C482 C484 1.320 . S
C483 C481 1.339 . S
C483 C482 1.395 . S
C483 H509 0.929 . S
C484 C482 1.320 . S
C484 C485 1.405 . S
C484 H510 0.930 . S
C485 C480 1.479 . S
C485 C484 1.405 . S
C485 H511 0.931 . S
U486 O487 2.454 . S
U486 O488 2.458 . S
U486 C489 2.984 . S
U486 C490 2.847 . S
U486 C503 2.882 . S
U486 O504 2.441 . S
U486 O505 2.420 . S
U486 O506 2.455 . S
U486 O507 2.449 . S
O487 U486 2.454 . S
O487 C489 1.353 . S
O488 U486 2.458 . S
O488 C489 1.286 . S
C489 U486 2.984 . S
C489 O487 1.353 . S
C489 O488 1.286 . S
C489 C491 1.363 . S
C490 C480 1.465 . S
C490 U486 2.847 . S
C490 O504 1.249 . S
C490 O505 1.202 . S
C491 C489 1.363 . S
C491 C493 1.408 . S
C491 C496 1.342 . S
C492 C493 1.310 . S
C492 C495 1.461 . S
C492 H512 0.932 . S
C493 C491 1.408 . S
C493 C492 1.310 . S
C493 H513 0.930 . S
C494 C495 1.474 . S
C494 C496 1.285 . S
C494 H514 0.929 . S
C495 C492 1.461 . S
C495 C494 1.474 . S
C496 C491 1.342 . S
C496 C494 1.285 . S
C496 H515 0.930 . S
C497 C500 1.424 . S
C497 C502 1.245 . S
C497 C503 1.428 . S
C498 C501 1.260 . S
C498 C502 1.477 . S
C498 H516 0.932 . S
C499 C500 1.384 . S
C499 C501 1.479 . S
C499 H517 0.929 . S
C500 C497 1.424 . S
C500 C499 1.384 . S
C500 H518 0.928 . S
C501 C498 1.260 . S
C501 C499 1.479 . S
C502 C497 1.245 . S
C502 C498 1.477 . S
C502 H519 0.932 . S
C503 U486 2.882 . S
C503 C497 1.428 . S
C503 O506 1.301 . S
C503 O507 1.282 . S
O504 U486 2.441 . S
O504 C490 1.249 . S
O505 U486 2.420 . S
O505 C490 1.202 . S
O506 U486 2.455 . S
O506 C503 1.301 . S
O507 U486 2.449 . S
O507 C503 1.282 . S
H508 C481 0.931 . S
H509 C483 0.929 . S
H510 C484 0.930 . S
H511 C485 0.931 . S
H512 C492 0.932 . S
H513 C493 0.930 . S
H514 C494 0.929 . S
H515 C496 0.930 . S
H516 C498 0.932 . S
H517 C499 0.929 . S
H518 C500 0.928 . S
H519 C502 0.932 . S
C520 C521 1.264 . S
C520 C525 1.479 . S
C520 C530 1.465 . S
C521 C520 1.264 . S
C521 C523 1.339 . S
C521 H548 0.931 . S
C522 C523 1.395 . S
C522 C524 1.320 . S
C523 C521 1.339 . S
C523 C522 1.395 . S
C523 H549 0.929 . S
C524 C522 1.320 . S
C524 C525 1.405 . S
C524 H550 0.930 . S
C525 C520 1.479 . S
C525 C524 1.405 . S
C525 H551 0.931 . S
U526 O527 2.454 . S
U526 O528 2.458 . S
U526 C529 2.984 . S
U526 C530 2.847 . S
U526 C543 2.882 . S
U526 O544 2.441 . S
U526 O545 2.420 . S
U526 O546 2.455 . S
U526 O547 2.449 . S
O527 U526 2.454 . S
O527 C529 1.353 . S
O528 U526 2.458 . S
O528 C529 1.286 . S
C529 U526 2.984 . S
C529 O527 1.353 . S
C529 O528 1.286 . S
C529 C531 1.363 . S
C530 C520 1.465 . S
C530 U526 2.847 . S
C530 O544 1.249 . S
C530 O545 1.202 . S
C531 C529 1.363 . S
C531 C533 1.408 . S
C531 C536 1.342 . S
C532 C533 1.310 . S
C532 C535 1.461 . S
C532 H552 0.932 . S
C533 C531 1.408 . S
C533 C532 1.310 . S
C533 H553 0.930 . S
C534 C535 1.474 . S
C534 C536 1.285 . S
C534 H554 0.929 . S
C535 C532 1.461 . S
C535 C534 1.474 . S
C536 C531 1.342 . S
C536 C534 1.285 . S
C536 H555 0.930 . S
C537 C540 1.424 . S
C537 C542 1.245 . S
C537 C543 1.428 . S
C538 C541 1.260 . S
C538 C542 1.477 . S
C538 H556 0.932 . S
C539 C540 1.384 . S
C539 C541 1.479 . S
C539 H557 0.929 . S
C540 C537 1.424 . S
C540 C539 1.384 . S
C540 H558 0.928 . S
C541 C538 1.260 . S
C541 C539 1.479 . S
C542 C537 1.245 . S
C542 C538 1.477 . S
C542 H559 0.932 . S
C543 U526 2.882 . S
C543 C537 1.428 . S
C543 O546 1.301 . S
C543 O547 1.282 . S
O544 U526 2.441 . S
O544 C530 1.249 . S
O545 U526 2.420 . S
O545 C530 1.202 . S
O546 U526 2.455 . S
O546 C543 1.301 . S
O547 U526 2.449 . S
O547 C543 1.282 . S
H548 C521 0.931 . S
H549 C523 0.929 . S
H550 C524 0.930 . S
H551 C525 0.931 . S
H552 C532 0.932 . S
H553 C533 0.930 . S
H554 C534 0.929 . S
H555 C536 0.930 . S
H556 C538 0.932 . S
H557 C539 0.929 . S
H558 C540 0.928 . S
H559 C542 0.932 . S
C560 C561 1.264 . S
C560 C565 1.479 . S
C560 C570 1.465 . S
C561 C560 1.264 . S
C561 C563 1.339 . S
C561 H588 0.931 . S
C562 C563 1.395 . S
C562 C564 1.320 . S
C563 C561 1.339 . S
C563 C562 1.395 . S
C563 H589 0.929 . S
C564 C562 1.320 . S
C564 C565 1.405 . S
C564 H590 0.920 1_565 S
C565 C560 1.479 . S
C565 C564 1.405 . S
C565 H591 0.931 . S
U566 O567 2.454 . S
U566 O568 2.458 . S
U566 C569 2.984 . S
U566 C570 2.847 . S
U566 C583 2.882 . S
U566 O584 2.441 . S
U566 O585 2.420 . S
U566 O586 2.455 . S
U566 O587 2.449 . S
O567 U566 2.454 . S
O567 C569 1.353 . S
O568 U566 2.458 . S
O568 C569 1.286 . S
C569 U566 2.984 . S
C569 O567 1.353 . S
C569 O568 1.286 . S
C569 C571 1.363 . S
C570 C560 1.465 . S
C570 U566 2.847 . S
C570 O584 1.249 . S
C570 O585 1.202 . S
C571 C569 1.363 . S
C571 C573 1.408 . S
C571 C576 1.342 . S
C572 C573 1.310 . S
C572 C575 1.460 . S
C572 H592 0.932 . S
C573 C571 1.408 . S
C573 C572 1.310 . S
C573 H593 0.930 . S
C574 C575 1.475 1_545 S
C574 C576 1.286 1_545 S
C574 H594 0.930 . S
C575 C572 1.460 . S
C575 C574 1.475 1_565 S
C576 C571 1.342 . S
C576 C574 1.286 1_565 S
C576 H595 0.930 . S
C577 C580 1.424 . S
C577 C582 1.245 . S
C577 C583 1.428 . S
C578 C581 1.260 . S
C578 C582 1.477 . S
C578 H596 0.932 . S
C579 C580 1.384 . S
C579 C581 1.479 . S
C579 H597 0.929 . S
C580 C577 1.424 . S
C580 C579 1.384 . S
C580 H598 0.928 . S
C581 C578 1.260 . S
C581 C579 1.479 . S
C582 C577 1.245 . S
C582 C578 1.477 . S
C582 H599 0.932 . S
C583 U566 2.882 . S
C583 C577 1.428 . S
C583 O586 1.301 . S
C583 O587 1.282 . S
O584 U566 2.441 . S
O584 C570 1.249 . S
O585 U566 2.420 . S
O585 C570 1.202 . S
O586 U566 2.455 . S
O586 C583 1.301 . S
O587 U566 2.449 . S
O587 C583 1.282 . S
H588 C561 0.931 . S
H589 C563 0.929 . S
H590 C564 0.920 1_545 S
H591 C565 0.931 . S
H592 C572 0.932 . S
H593 C573 0.930 . S
H594 C574 0.930 . S
H595 C576 0.930 . S
H596 C578 0.932 . S
H597 C579 0.929 . S
H598 C580 0.928 . S
H599 C582 0.932 . S
C600 C601 1.264 . S
C600 C605 1.479 1_545 S
C600 C610 1.465 . S
C601 C600 1.264 . S
C601 C603 1.339 1_545 S
C601 H628 0.931 . S
C602 C603 1.395 . S
C602 C604 1.320 . S
C603 C601 1.339 1_565 S
C603 C602 1.395 . S
C603 H629 0.929 1_565 S
C604 C602 1.320 . S
C604 C605 1.405 . S
C604 H630 0.930 . S
C605 C600 1.479 1_565 S
C605 C604 1.405 . S
C605 H631 0.931 . S
U606 O607 2.454 1_545 S
U606 O608 2.458 . S
U606 C609 2.988 . S
U606 C610 2.847 . S
U606 C623 2.882 . S
U606 O624 2.441 . S
U606 O625 2.420 . S
U606 O626 2.455 . S
U606 O627 2.449 . S
O607 U606 2.454 1_565 S
O607 C609 1.350 1_565 S
O608 U606 2.458 . S
O608 C609 1.290 . S
C609 U606 2.988 . S
C609 O607 1.350 1_545 S
C609 O608 1.290 . S
C609 C611 1.361 1_545 S
C610 C600 1.465 . S
C610 U606 2.847 . S
C610 O624 1.249 . S
C610 O625 1.202 . S
C611 C609 1.361 1_565 S
C611 C613 1.408 . S
C611 C616 1.342 . S
C612 C613 1.310 . S
C612 C615 1.461 . S
C612 H632 0.932 . S
C613 C611 1.408 . S
C613 C612 1.310 . S
C613 H633 0.930 . S
C614 C615 1.474 . S
C614 C616 1.285 . S
C614 H634 0.929 . S
C615 C612 1.461 . S
C615 C614 1.474 . S
C616 C611 1.342 . S
C616 C614 1.285 . S
C616 H635 0.933 . S
C617 C620 1.424 . S
C617 C622 1.245 . S
C617 C623 1.428 . S
C618 C621 1.260 . S
C618 C622 1.477 . S
C618 H636 0.932 . S
C619 C620 1.384 . S
C619 C621 1.479 . S
C619 H637 0.929 . S
C620 C617 1.424 . S
C620 C619 1.384 . S
C620 H638 0.928 . S
C621 C618 1.260 . S
C621 C619 1.479 . S
C622 C617 1.245 . S
C622 C618 1.477 . S
C622 H639 0.932 . S
C623 U606 2.882 . S
C623 C617 1.428 . S
C623 O626 1.301 . S
C623 O627 1.282 . S
O624 U606 2.441 . S
O624 C610 1.249 . S
O625 U606 2.420 . S
O625 C610 1.202 . S
O626 U606 2.455 . S
O626 C623 1.301 . S
O627 U606 2.449 . S
O627 C623 1.282 . S
H628 C601 0.931 . S
H629 C603 0.929 1_545 S
H630 C604 0.930 . S
H631 C605 0.931 . S
H632 C612 0.932 . S
H633 C613 0.930 . S
H634 C614 0.929 . S
H635 C616 0.933 . S
H636 C618 0.932 . S
H637 C619 0.929 . S
H638 C620 0.928 . S
H639 C622 0.932 . S
C640 C641 1.264 . S
C640 C645 1.479 . S
C640 C650 1.465 . S
C641 C640 1.264 . S
C641 C643 1.339 . S
C641 H668 0.931 . S
C642 C643 1.395 . S
C642 C644 1.320 . S
C643 C641 1.339 . S
C643 C642 1.395 . S
C643 H669 0.929 . S
C644 C642 1.320 . S
C644 C645 1.405 . S
C644 H670 0.930 . S
C645 C640 1.479 . S
C645 C644 1.405 . S
C645 H671 0.931 . S
U646 O647 2.454 . S
U646 O648 2.458 . S
U646 C649 2.984 . S
U646 C650 2.847 . S
U646 C663 2.882 . S
U646 O664 2.441 . S
U646 O665 2.420 . S
U646 O666 2.455 . S
U646 O667 2.449 . S
O647 U646 2.454 . S
O647 C649 1.353 . S
O648 U646 2.458 . S
O648 C649 1.286 . S
C649 U646 2.984 . S
C649 O647 1.353 . S
C649 O648 1.286 . S
C649 C651 1.363 . S
C650 C640 1.465 . S
C650 U646 2.847 . S
C650 O664 1.249 . S
C650 O665 1.202 . S
C651 C649 1.363 . S
C651 C653 1.408 . S
C651 C656 1.342 . S
C652 C653 1.310 . S
C652 C655 1.461 . S
C652 H672 0.932 . S
C653 C651 1.408 . S
C653 C652 1.310 . S
C653 H673 0.930 . S
C654 C655 1.474 . S
C654 C656 1.285 . S
C654 H674 0.929 . S
C655 C652 1.461 . S
C655 C654 1.474 . S
C656 C651 1.342 . S
C656 C654 1.285 . S
C656 H675 0.930 . S
C657 C660 1.424 . S
C657 C662 1.245 . S
C657 C663 1.428 . S
C658 C661 1.260 . S
C658 C662 1.477 . S
C658 H676 0.932 . S
C659 C660 1.384 . S
C659 C661 1.479 . S
C659 H677 0.929 . S
C660 C657 1.424 . S
C660 C659 1.384 . S
C660 H678 0.928 . S
C661 C658 1.260 . S
C661 C659 1.479 . S
C662 C657 1.245 . S
C662 C658 1.477 . S
C662 H679 0.932 . S
C663 U646 2.882 . S
C663 C657 1.428 . S
C663 O666 1.301 . S
C663 O667 1.282 . S
O664 U646 2.441 . S
O664 C650 1.249 . S
O665 U646 2.420 . S
O665 C650 1.202 . S
O666 U646 2.455 . S
O666 C663 1.301 . S
O667 U646 2.449 . S
O667 C663 1.282 . S
H668 C641 0.931 . S
H669 C643 0.929 . S
H670 C644 0.930 . S
H671 C645 0.931 . S
H672 C652 0.932 . S
H673 C653 0.930 . S
H674 C654 0.929 . S
H675 C656 0.930 . S
H676 C658 0.932 . S
H677 C659 0.929 . S
H678 C660 0.928 . S
H679 C662 0.932 . S
C680 C681 1.264 . S
C680 C685 1.479 1_554 S
C680 C690 1.465 . S
C681 C680 1.264 . S
C681 C683 1.339 1_554 S
C681 H708 0.931 . S
C682 C683 1.395 . S
C682 C684 1.320 . S
C683 C681 1.339 1_556 S
C683 C682 1.395 . S
C683 H709 0.929 1_556 S
C684 C682 1.320 . S
C684 C685 1.405 . S
C684 H710 0.930 . S
C685 C680 1.479 1_556 S
C685 C684 1.405 . S
C685 H711 0.931 . S
U686 O687 2.454 1_554 S
U686 O688 2.458 . S
U686 C689 2.988 . S
U686 C690 2.847 . S
U686 C703 2.882 . S
U686 O704 2.441 . S
U686 O705 2.420 . S
U686 O706 2.455 . S
U686 O707 2.449 . S
O687 U686 2.454 1_556 S
O687 C689 1.350 1_556 S
O688 U686 2.458 . S
O688 C689 1.290 . S
C689 U686 2.988 . S
C689 O687 1.350 1_554 S
C689 O688 1.290 . S
C689 C691 1.361 1_554 S
C690 C680 1.465 . S
C690 U686 2.847 . S
C690 O704 1.249 . S
C690 O705 1.202 . S
C691 C689 1.361 1_556 S
C691 C693 1.408 . S
C691 C696 1.342 . S
C692 C693 1.310 . S
C692 C695 1.461 . S
C692 H712 0.932 . S
C693 C691 1.408 . S
C693 C692 1.310 . S
C693 H713 0.930 . S
C694 C695 1.474 . S
C694 C696 1.285 . S
C694 H714 0.929 . S
C695 C692 1.461 . S
C695 C694 1.474 . S
C696 C691 1.342 . S
C696 C694 1.285 . S
C696 H715 0.933 . S
C697 C700 1.424 . S
C697 C702 1.245 . S
C697 C703 1.428 . S
C698 C701 1.260 . S
C698 C702 1.477 . S
C698 H716 0.932 . S
C699 C700 1.384 . S
C699 C701 1.479 . S
C699 H717 0.929 . S
C700 C697 1.424 . S
C700 C699 1.384 . S
C700 H718 0.928 . S
C701 C698 1.260 . S
C701 C699 1.479 . S
C702 C697 1.245 . S
C702 C698 1.477 . S
C702 H719 0.932 . S
C703 U686 2.882 . S
C703 C697 1.428 . S
C703 O706 1.301 . S
C703 O707 1.282 . S
O704 U686 2.441 . S
O704 C690 1.249 . S
O705 U686 2.420 . S
O705 C690 1.202 . S
O706 U686 2.455 . S
O706 C703 1.301 . S
O707 U686 2.449 . S
O707 C703 1.282 . S
H708 C681 0.931 . S
H709 C683 0.929 1_554 S
H710 C684 0.930 . S
H711 C685 0.931 . S
H712 C692 0.932 . S
H713 C693 0.930 . S
H714 C694 0.929 . S
H715 C696 0.933 . S
H716 C698 0.932 . S
H717 C699 0.929 . S
H718 C700 0.928 . S
H719 C702 0.932 . S
C720 C721 1.264 . S
C720 C725 1.479 . S
C720 C730 1.465 . S
C721 C720 1.264 . S
C721 C723 1.339 . S
C721 H748 0.931 . S
C722 C723 1.395 . S
C722 C724 1.320 . S
C723 C721 1.339 . S
C723 C722 1.395 . S
C723 H749 0.929 . S
C724 C722 1.320 . S
C724 C725 1.405 . S
C724 H750 0.930 . S
C725 C720 1.479 . S
C725 C724 1.405 . S
C725 H751 0.931 . S
U726 O727 2.454 . S
U726 O728 2.458 . S
U726 C729 2.984 . S
U726 C730 2.847 . S
U726 C743 2.882 . S
U726 O744 2.441 . S
U726 O745 2.420 . S
U726 O746 2.455 . S
U726 O747 2.449 . S
O727 U726 2.454 . S
O727 C729 1.353 . S
O728 U726 2.458 . S
O728 C729 1.286 . S
C729 U726 2.984 . S
C729 O727 1.353 . S
C729 O728 1.286 . S
C729 C731 1.363 . S
C730 C720 1.465 . S
C730 U726 2.847 . S
C730 O744 1.249 . S
C730 O745 1.202 . S
C731 C729 1.363 . S
C731 C733 1.408 . S
C731 C736 1.342 . S
C732 C733 1.310 . S
C732 C735 1.461 . S
C732 H752 0.932 . S
C733 C731 1.408 . S
C733 C732 1.310 . S
C733 H753 0.930 . S
C734 C735 1.474 . S
C734 C736 1.285 . S
C734 H754 0.929 . S
C735 C732 1.461 . S
C735 C734 1.474 . S
C736 C731 1.342 . S
C736 C734 1.285 . S
C736 H755 0.930 . S
C737 C740 1.424 . S
C737 C742 1.245 . S
C737 C743 1.428 . S
C738 C741 1.260 . S
C738 C742 1.477 . S
C738 H756 0.932 . S
C739 C740 1.384 . S
C739 C741 1.479 . S
C739 H757 0.929 . S
C740 C737 1.424 . S
C740 C739 1.384 . S
C740 H758 0.928 . S
C741 C738 1.260 . S
C741 C739 1.479 . S
C742 C737 1.245 . S
C742 C738 1.477 . S
C742 H759 0.932 . S
C743 U726 2.882 . S
C743 C737 1.428 . S
C743 O746 1.301 . S
C743 O747 1.282 . S
O744 U726 2.441 . S
O744 C730 1.249 . S
O745 U726 2.420 . S
O745 C730 1.202 . S
O746 U726 2.455 . S
O746 C743 1.301 . S
O747 U726 2.449 . S
O747 C743 1.282 . S
H748 C721 0.931 . S
H749 C723 0.929 . S
H750 C724 0.930 . S
H751 C725 0.931 . S
H752 C732 0.932 . S
H753 C733 0.930 . S
H754 C734 0.929 . S
H755 C736 0.930 . S
H756 C738 0.932 . S
H757 C739 0.929 . S
H758 C740 0.928 . S
H759 C742 0.932 . S
C760 C761 1.264 . S
C760 C765 1.479 . S
C760 C770 1.465 . S
C761 C760 1.264 . S
C761 C763 1.339 . S
C761 H788 0.931 . S
C762 C763 1.395 . S
C762 C764 1.320 . S
C763 C761 1.339 . S
C763 C762 1.395 . S
C763 H789 0.929 . S
C764 C762 1.320 . S
C764 C765 1.405 . S
C764 H790 0.920 1_556 S
C765 C760 1.479 . S
C765 C764 1.405 . S
C765 H791 0.931 . S
U766 O767 2.454 . S
U766 O768 2.458 . S
U766 C769 2.984 . S
U766 C770 2.847 . S
U766 C783 2.882 . S
U766 O784 2.441 . S
U766 O785 2.420 . S
U766 O786 2.455 . S
U766 O787 2.449 . S
O767 U766 2.454 . S
O767 C769 1.353 . S
O768 U766 2.458 . S
O768 C769 1.286 . S
C769 U766 2.984 . S
C769 O767 1.353 . S
C769 O768 1.286 . S
C769 C771 1.363 . S
C770 C760 1.465 . S
C770 U766 2.847 . S
C770 O784 1.249 . S
C770 O785 1.202 . S
C771 C769 1.363 . S
C771 C773 1.408 . S
C771 C776 1.342 . S
C772 C773 1.310 . S
C772 C775 1.460 . S
C772 H792 0.932 . S
C773 C771 1.408 . S
C773 C772 1.310 . S
C773 H793 0.930 . S
C774 C775 1.475 1_554 S
C774 C776 1.286 1_554 S
C774 H794 0.930 . S
C775 C772 1.460 . S
C775 C774 1.475 1_556 S
C776 C771 1.342 . S
C776 C774 1.286 1_556 S
C776 H795 0.930 . S
C777 C780 1.424 . S
C777 C782 1.245 . S
C777 C783 1.428 . S
C778 C781 1.260 . S
C778 C782 1.477 . S
C778 H796 0.932 . S
C779 C780 1.384 . S
C779 C781 1.479 . S
C779 H797 0.929 . S
C780 C777 1.424 . S
C780 C779 1.384 . S
C780 H798 0.928 . S
C781 C778 1.260 . S
C781 C779 1.479 . S
C782 C777 1.245 . S
C782 C778 1.477 . S
C782 H799 0.932 . S
C783 U766 2.882 . S
C783 C777 1.428 . S
C783 O786 1.301 . S
C783 O787 1.282 . S
O784 U766 2.441 . S
O784 C770 1.249 . S
O785 U766 2.420 . S
O785 C770 1.202 . S
O786 U766 2.455 . S
O786 C783 1.301 . S
O787 U766 2.449 . S
O787 C783 1.282 . S
H788 C761 0.931 . S
H789 C763 0.929 . S
H790 C764 0.920 1_554 S
H791 C765 0.931 . S
H792 C772 0.932 . S
H793 C773 0.930 . S
H794 C774 0.930 . S
H795 C776 0.930 . S
H796 C778 0.932 . S
H797 C779 0.929 . S
H798 C780 0.928 . S
H799 C782 0.932 . S
C800 C801 1.264 . S
C800 C805 1.479 . S
C800 C810 1.465 . S
C801 C800 1.264 . S
C801 C803 1.339 . S
C801 H828 0.931 . S
C802 C803 1.395 . S
C802 C804 1.320 . S
C803 C801 1.339 . S
C803 C802 1.395 . S
C803 H829 0.929 . S
C804 C802 1.320 . S
C804 C805 1.405 . S
C804 H830 0.930 . S
C805 C800 1.479 . S
C805 C804 1.405 . S
C805 H831 0.931 . S
U806 O807 2.454 . S
U806 O808 2.458 . S
U806 C809 2.984 . S
U806 C810 2.847 . S
U806 C823 2.882 . S
U806 O824 2.441 . S
U806 O825 2.420 . S
U806 O826 2.455 . S
U806 O827 2.449 . S
O807 U806 2.454 . S
O807 C809 1.353 . S
O808 U806 2.458 . S
O808 C809 1.286 . S
C809 U806 2.984 . S
C809 O807 1.353 . S
C809 O808 1.286 . S
C809 C811 1.363 . S
C810 C800 1.465 . S
C810 U806 2.847 . S
C810 O824 1.249 . S
C810 O825 1.202 . S
C811 C809 1.363 . S
C811 C813 1.408 . S
C811 C816 1.342 . S
C812 C813 1.310 . S
C812 C815 1.461 . S
C812 H832 0.932 . S
C813 C811 1.408 . S
C813 C812 1.310 . S
C813 H833 0.930 . S
C814 C815 1.474 . S
C814 C816 1.285 . S
C814 H834 0.929 . S
C815 C812 1.461 . S
C815 C814 1.474 . S
C816 C811 1.342 . S
C816 C814 1.285 . S
C816 H835 0.930 . S
C817 C820 1.424 . S
C817 C822 1.245 . S
C817 C823 1.428 . S
C818 C821 1.260 . S
C818 C822 1.477 . S
C818 H836 0.932 . S
C819 C820 1.384 . S
C819 C821 1.479 . S
C819 H837 0.929 . S
C820 C817 1.424 . S
C820 C819 1.384 . S
C820 H838 0.928 . S
C821 C818 1.260 . S
C821 C819 1.479 . S
C822 C817 1.245 . S
C822 C818 1.477 . S
C822 H839 0.932 . S
C823 U806 2.882 . S
C823 C817 1.428 . S
C823 O826 1.301 . S
C823 O827 1.282 . S
O824 U806 2.441 . S
O824 C810 1.249 . S
O825 U806 2.420 . S
O825 C810 1.202 . S
O826 U806 2.455 . S
O826 C823 1.301 . S
O827 U806 2.449 . S
O827 C823 1.282 . S
H828 C801 0.931 . S
H829 C803 0.929 . S
H830 C804 0.930 . S
H831 C805 0.931 . S
H832 C812 0.932 . S
H833 C813 0.930 . S
H834 C814 0.929 . S
H835 C816 0.930 . S
H836 C818 0.932 . S
H837 C819 0.929 . S
H838 C820 0.928 . S
H839 C822 0.932 . S
C840 C841 1.264 . S
C840 C845 1.479 1_455 S
C840 C850 1.465 . S
C841 C840 1.264 . S
C841 C843 1.339 1_455 S
C841 H868 0.931 . S
C842 C843 1.395 . S
C842 C844 1.320 . S
C843 C841 1.339 1_655 S
C843 C842 1.395 . S
C843 H869 0.929 1_655 S
C844 C842 1.320 . S
C844 C845 1.405 . S
C844 H870 0.930 . S
C845 C840 1.479 1_655 S
C845 C844 1.405 . S
C845 H871 0.931 . S
U846 O847 2.454 1_455 S
U846 O848 2.458 . S
U846 C849 2.988 . S
U846 C850 2.847 . S
U846 C863 2.882 . S
U846 O864 2.441 . S
U846 O865 2.420 . S
U846 O866 2.455 . S
U846 O867 2.449 . S
O847 U846 2.454 1_655 S
O847 C849 1.350 1_655 S
O848 U846 2.458 . S
O848 C849 1.290 . S
C849 U846 2.988 . S
C849 O847 1.350 1_455 S
C849 O848 1.290 . S
C849 C851 1.361 1_455 S
C850 C840 1.465 . S
C850 U846 2.847 . S
C850 O864 1.249 . S
C850 O865 1.202 . S
C851 C849 1.361 1_655 S
C851 C853 1.408 . S
C851 C856 1.342 . S
C852 C853 1.310 . S
C852 C855 1.461 . S
C852 H872 0.932 . S
C853 C851 1.408 . S
C853 C852 1.310 . S
C853 H873 0.930 . S
C854 C855 1.474 . S
C854 C856 1.285 . S
C854 H874 0.929 . S
C855 C852 1.461 . S
C855 C854 1.474 . S
C856 C851 1.342 . S
C856 C854 1.285 . S
C856 H875 0.933 . S
C857 C860 1.424 . S
C857 C862 1.245 . S
C857 C863 1.428 . S
C858 C861 1.260 . S
C858 C862 1.477 . S
C858 H876 0.932 . S
C859 C860 1.384 . S
C859 C861 1.479 . S
C859 H877 0.929 . S
C860 C857 1.424 . S
C860 C859 1.384 . S
C860 H878 0.928 . S
C861 C858 1.260 . S
C861 C859 1.479 . S
C862 C857 1.245 . S
C862 C858 1.477 . S
C862 H879 0.932 . S
C863 U846 2.882 . S
C863 C857 1.428 . S
C863 O866 1.301 . S
C863 O867 1.282 . S
O864 U846 2.441 . S
O864 C850 1.249 . S
O865 U846 2.420 . S
O865 C850 1.202 . S
O866 U846 2.455 . S
O866 C863 1.301 . S
O867 U846 2.449 . S
O867 C863 1.282 . S
H868 C841 0.931 . S
H869 C843 0.929 1_455 S
H870 C844 0.930 . S
H871 C845 0.931 . S
H872 C852 0.932 . S
H873 C853 0.930 . S
H874 C854 0.929 . S
H875 C856 0.933 . S
H876 C858 0.932 . S
H877 C859 0.929 . S
H878 C860 0.928 . S
H879 C862 0.932 . S
C880 C881 1.264 . S
C880 C885 1.479 . S
C880 C890 1.465 . S
C881 C880 1.264 . S
C881 C883 1.339 . S
C881 H908 0.931 . S
C882 C883 1.395 . S
C882 C884 1.320 . S
C883 C881 1.339 . S
C883 C882 1.395 . S
C883 H909 0.929 . S
C884 C882 1.320 . S
C884 C885 1.405 . S
C884 H910 0.930 . S
C885 C880 1.479 . S
C885 C884 1.405 . S
C885 H911 0.931 . S
U886 O887 2.454 . S
U886 O888 2.458 . S
U886 C889 2.984 . S
U886 C890 2.847 . S
U886 C903 2.882 . S
U886 O904 2.441 . S
U886 O905 2.420 . S
U886 O906 2.455 . S
U886 O907 2.449 . S
O887 U886 2.454 . S
O887 C889 1.353 . S
O888 U886 2.458 . S
O888 C889 1.286 . S
C889 U886 2.984 . S
C889 O887 1.353 . S
C889 O888 1.286 . S
C889 C891 1.363 . S
C890 C880 1.465 . S
C890 U886 2.847 . S
C890 O904 1.249 . S
C890 O905 1.202 . S
C891 C889 1.363 . S
C891 C893 1.408 . S
C891 C896 1.342 . S
C892 C893 1.310 . S
C892 C895 1.461 . S
C892 H912 0.932 . S
C893 C891 1.408 . S
C893 C892 1.310 . S
C893 H913 0.930 . S
C894 C895 1.474 . S
C894 C896 1.285 . S
C894 H914 0.929 . S
C895 C892 1.461 . S
C895 C894 1.474 . S
C896 C891 1.342 . S
C896 C894 1.285 . S
C896 H915 0.930 . S
C897 C900 1.424 . S
C897 C902 1.245 . S
C897 C903 1.428 . S
C898 C901 1.260 . S
C898 C902 1.477 . S
C898 H916 0.932 . S
C899 C900 1.384 . S
C899 C901 1.479 . S
C899 H917 0.929 . S
C900 C897 1.424 . S
C900 C899 1.384 . S
C900 H918 0.928 . S
C901 C898 1.260 . S
C901 C899 1.479 . S
C902 C897 1.245 . S
C902 C898 1.477 . S
C902 H919 0.932 . S
C903 U886 2.882 . S
C903 C897 1.428 . S
C903 O906 1.301 . S
C903 O907 1.282 . S
O904 U886 2.441 . S
O904 C890 1.249 . S
O905 U886 2.420 . S
O905 C890 1.202 . S
O906 U886 2.455 . S
O906 C903 1.301 . S
O907 U886 2.449 . S
O907 C903 1.282 . S
H908 C881 0.931 . S
H909 C883 0.929 . S
H910 C884 0.930 . S
H911 C885 0.931 . S
H912 C892 0.932 . S
H913 C893 0.930 . S
H914 C894 0.929 . S
H915 C896 0.930 . S
H916 C898 0.932 . S
H917 C899 0.929 . S
H918 C900 0.928 . S
H919 C902 0.932 . S
C920 C921 1.264 . S
C920 C925 1.479 . S
C920 C930 1.465 . S
C921 C920 1.264 . S
C921 C923 1.339 . S
C921 H948 0.931 . S
C922 C923 1.395 . S
C922 C924 1.320 . S
C923 C921 1.339 . S
C923 C922 1.395 . S
C923 H949 0.929 . S
C924 C922 1.320 . S
C924 C925 1.405 . S
C924 H950 0.920 1_655 S
C925 C920 1.479 . S
C925 C924 1.405 . S
C925 H951 0.931 . S
U926 O927 2.454 . S
U926 O928 2.458 . S
U926 C929 2.984 . S
U926 C930 2.847 . S
U926 C943 2.882 . S
U926 O944 2.441 . S
U926 O945 2.420 . S
U926 O946 2.455 . S
U926 O947 2.449 . S
O927 U926 2.454 . S
O927 C929 1.353 . S
O928 U926 2.458 . S
O928 C929 1.286 . S
C929 U926 2.984 . S
C929 O927 1.353 . S
C929 O928 1.286 . S
C929 C931 1.363 . S
C930 C920 1.465 . S
C930 U926 2.847 . S
C930 O944 1.249 . S
C930 O945 1.202 . S
C931 C929 1.363 . S
C931 C933 1.408 . S
C931 C936 1.342 . S
C932 C933 1.310 . S
C932 C935 1.460 . S
C932 H952 0.932 . S
C933 C931 1.408 . S
C933 C932 1.310 . S
C933 H953 0.930 . S
C934 C935 1.475 1_455 S
C934 C936 1.286 1_455 S
C934 H954 0.930 . S
C935 C932 1.460 . S
C935 C934 1.475 1_655 S
C936 C931 1.342 . S
C936 C934 1.286 1_655 S
C936 H955 0.930 . S
C937 C940 1.424 . S
C937 C942 1.245 . S
C937 C943 1.428 . S
C938 C941 1.260 . S
C938 C942 1.477 . S
C938 H956 0.932 . S
C939 C940 1.384 . S
C939 C941 1.479 . S
C939 H957 0.929 . S
C940 C937 1.424 . S
C940 C939 1.384 . S
C940 H958 0.928 . S
C941 C938 1.260 . S
C941 C939 1.479 . S
C942 C937 1.245 . S
C942 C938 1.477 . S
C942 H959 0.932 . S
C943 U926 2.882 . S
C943 C937 1.428 . S
C943 O946 1.301 . S
C943 O947 1.282 . S
O944 U926 2.441 . S
O944 C930 1.249 . S
O945 U926 2.420 . S
O945 C930 1.202 . S
O946 U926 2.455 . S
O946 C943 1.301 . S
O947 U926 2.449 . S
O947 C943 1.282 . S
H948 C921 0.931 . S
H949 C923 0.929 . S
H950 C924 0.920 1_455 S
H951 C925 0.931 . S
H952 C932 0.932 . S
H953 C933 0.930 . S
H954 C934 0.930 . S
H955 C936 0.930 . S
H956 C938 0.932 . S
H957 C939 0.929 . S
H958 C940 0.928 . S
H959 C942 0.932 . S
H960 C963 0.929 . S
H961 C966 0.929 . S
H962 C968 0.930 . S
C963 H960 0.929 . S
C963 C964 1.398 . S
C963 C965 1.396 . S
C964 C963 1.398 . S
C964 C968 1.407 . S
C965 C963 1.396 . S
C965 C966 1.394 . S
C966 H961 0.929 . S
C966 C965 1.394 . S
C966 C967 1.382 . S
C967 C966 1.382 . S
C967 C968 1.392 . S
C967 N969 1.420 . S
C968 H962 0.930 . S
C968 C964 1.407 . S
C968 C967 1.392 . S
N969 C967 1.420 . S
N969 C970 1.244 . S
C970 N969 1.244 . S
H971 C974 0.929 . S
H972 C977 0.929 . S
H973 C979 0.930 . S
C974 H971 0.929 . S
C974 C975 1.398 1_556 S
C974 C976 1.396 . S
C975 C974 1.398 1_554 S
C975 C979 1.407 . S
C976 C974 1.396 . S
C976 C977 1.394 . S
C977 H972 0.929 . S
C977 C976 1.394 . S
C977 C978 1.382 1_556 S
C978 C977 1.382 1_554 S
C978 C979 1.392 . S
C978 N980 1.420 . S
C979 H973 0.930 . S
C979 C975 1.407 . S
C979 C978 1.392 . S
N980 C978 1.420 . S
N980 C981 1.244 . S
C981 N980 1.244 . S
H982 C985 0.929 . S
H983 C988 0.929 . S
H984 C990 0.930 . S
C985 H982 0.929 . S
C985 C986 1.398 . S
C985 C987 1.396 . S
C986 C985 1.398 . S
C986 C990 1.407 . S
C987 C985 1.396 . S
C987 C988 1.394 1_565 S
C988 H983 0.929 . S
C988 C987 1.394 1_545 S
C988 C989 1.382 . S
C989 C988 1.382 . S
C989 C990 1.392 1_545 S
C989 N991 1.420 . S
C990 H984 0.930 . S
C990 C986 1.407 . S
C990 C989 1.392 1_565 S
N991 C989 1.420 . S
N991 C992 1.244 . S
C992 N991 1.244 . S
H993 C996 0.929 . S
H994 C999 0.929 . S
H995 C1001 0.930 . S
C996 H993 0.929 . S
C996 C997 1.398 1_554 S
C996 C998 1.396 . S
C997 C996 1.398 1_556 S
C997 C1001 1.407 . S
C998 C996 1.396 . S
C998 C999 1.394 . S
C999 H994 0.929 . S
C999 C998 1.394 . S
C999 C1000 1.382 1_554 S
C1000 C999 1.382 1_556 S
C1000 C1001 1.392 . S
C1000 N1002 1.420 . S
C1001 H995 0.930 . S
C1001 C997 1.407 . S
C1001 C1000 1.392 . S
N1002 C1000 1.420 . S
N1002 C1003 1.244 . S
C1003 N1002 1.244 . S
H1004 C1007 0.929 . S
H1005 C1010 0.929 . S
H1006 C1012 0.930 . S
C1007 H1004 0.929 . S
C1007 C1008 1.398 . S
C1007 C1009 1.396 . S
C1008 C1007 1.398 . S
C1008 C1012 1.407 . S
C1009 C1007 1.396 . S
C1009 C1010 1.394 . S
C1010 H1005 0.929 . S
C1010 C1009 1.394 . S
C1010 C1011 1.382 . S
C1011 C1010 1.382 . S
C1011 C1012 1.392 . S
C1011 N1013 1.420 . S
C1012 H1006 0.930 . S
C1012 C1008 1.407 . S
C1012 C1011 1.392 . S
N1013 C1011 1.420 . S
N1013 C1014 1.244 . S
C1014 N1013 1.244 . S
H1015 C1018 0.929 . S
H1016 C1021 0.929 . S
H1017 C1023 0.930 . S
C1018 H1015 0.929 . S
C1018 C1019 1.398 1_455 S
C1018 C1020 1.396 . S
C1019 C1018 1.398 1_655 S
C1019 C1023 1.407 . S
C1020 C1018 1.396 . S
C1020 C1021 1.394 . S
C1021 H1016 0.929 . S
C1021 C1020 1.394 . S
C1021 C1022 1.382 1_455 S
C1022 C1021 1.382 1_655 S
C1022 C1023 1.392 . S
C1022 N1024 1.420 . S
C1023 H1017 0.930 . S
C1023 C1019 1.407 . S
C1023 C1022 1.392 . S
N1024 C1022 1.420 . S
N1024 C1025 1.244 . S
C1025 N1024 1.244 . S
H1026 C1029 0.929 . S
H1027 C1032 0.929 . S
H1028 C1034 0.930 . S
C1029 H1026 0.929 . S
C1029 C1030 1.398 1_655 S
C1029 C1031 1.396 . S
C1030 C1029 1.398 1_455 S
C1030 C1034 1.407 . S
C1031 C1029 1.396 . S
C1031 C1032 1.394 . S
C1032 H1027 0.929 . S
C1032 C1031 1.394 . S
C1032 C1033 1.382 1_655 S
C1033 C1032 1.382 1_455 S
C1033 C1034 1.392 . S
C1033 N1035 1.420 . S
C1034 H1028 0.930 . S
C1034 C1030 1.407 . S
C1034 C1033 1.392 . S
N1035 C1033 1.420 . S
N1035 C1036 1.244 . S
C1036 N1035 1.244 . S
H1037 C1040 0.929 . S
H1038 C1043 0.929 . S
H1039 C1045 0.930 . S
C1040 H1037 0.929 . S
C1040 C1041 1.398 . S
C1040 C1042 1.396 . S
C1041 C1040 1.398 . S
C1041 C1045 1.407 . S
C1042 C1040 1.396 . S
C1042 C1043 1.394 1_556 S
C1043 H1038 0.929 . S
C1043 C1042 1.394 1_554 S
C1043 C1044 1.382 . S
C1044 C1043 1.382 . S
C1044 C1045 1.392 1_554 S
C1044 N1046 1.420 . S
C1045 H1039 0.930 . S
C1045 C1041 1.407 . S
C1045 C1044 1.392 1_556 S
N1046 C1044 1.420 . S
N1046 C1047 1.244 . S
C1047 N1046 1.244 . S
H1048 C1051 0.929 . S
H1049 C1054 0.929 . S
H1050 C1056 0.930 . S
C1051 H1048 0.929 . S
C1051 C1052 1.398 . S
C1051 C1053 1.396 . S
C1052 C1051 1.398 . S
C1052 C1056 1.407 . S
C1053 C1051 1.396 . S
C1053 C1054 1.394 . S
C1054 H1049 0.929 . S
C1054 C1053 1.394 . S
C1054 C1055 1.382 . S
C1055 C1054 1.382 . S
C1055 C1056 1.392 . S
C1055 N1057 1.420 . S
C1056 H1050 0.930 . S
C1056 C1052 1.407 . S
C1056 C1055 1.392 . S
N1057 C1055 1.420 . S
N1057 C1058 1.244 . S
C1058 N1057 1.244 . S
H1059 C1062 0.929 . S
H1060 C1065 0.929 . S
H1061 C1067 0.930 . S
C1062 H1059 0.929 . S
C1062 C1063 1.398 1_545 S
C1062 C1064 1.396 . S
C1063 C1062 1.398 1_565 S
C1063 C1067 1.407 . S
C1064 C1062 1.396 . S
C1064 C1065 1.394 . S
C1065 H1060 0.929 . S
C1065 C1064 1.394 . S
C1065 C1066 1.382 1_545 S
C1066 C1065 1.382 1_565 S
C1066 C1067 1.392 . S
C1066 N1068 1.420 . S
C1067 H1061 0.930 . S
C1067 C1063 1.407 . S
C1067 C1066 1.392 . S
N1068 C1066 1.420 . S
N1068 C1069 1.244 . S
C1069 N1068 1.244 . S
H1070 C1073 0.929 . S
H1071 C1076 0.929 . S
H1072 C1078 0.930 . S
C1073 H1070 0.929 . S
C1073 C1074 1.398 1_565 S
C1073 C1075 1.396 . S
C1074 C1073 1.398 1_545 S
C1074 C1078 1.407 . S
C1075 C1073 1.396 . S
C1075 C1076 1.394 . S
C1076 H1071 0.929 . S
C1076 C1075 1.394 . S
C1076 C1077 1.382 1_565 S
C1077 C1076 1.382 1_545 S
C1077 C1078 1.392 . S
C1077 N1079 1.420 . S
C1078 H1072 0.930 . S
C1078 C1074 1.407 . S
C1078 C1077 1.392 . S
N1079 C1077 1.420 . S
N1079 C1080 1.244 . S
C1080 N1079 1.244 . S
H1081 C1084 0.929 . S
H1082 C1087 0.929 . S
H1083 C1089 0.930 . S
C1084 H1081 0.929 . S
C1084 C1085 1.398 . S
C1084 C1086 1.396 . S
C1085 C1084 1.398 . S
C1085 C1089 1.407 . S
C1086 C1084 1.396 . S
C1086 C1087 1.394 1_655 S
C1087 H1082 0.929 . S
C1087 C1086 1.394 1_455 S
C1087 C1088 1.382 . S
C1088 C1087 1.382 . S
C1088 C1089 1.392 1_455 S
C1088 N1090 1.420 . S
C1089 H1083 0.930 . S
C1089 C1085 1.407 . S
C1089 C1088 1.392 1_655 S
N1090 C1088 1.420 . S
N1090 C1091 1.244 . S
C1091 N1090 1.244 . S
H1092 C1095 0.929 . S
H1093 C1098 0.929 . S
H1094 C1100 0.930 . S
C1095 H1092 0.929 . S
C1095 C1096 1.398 . S
C1095 C1097 1.396 . S
C1096 C1095 1.398 . S
C1096 C1100 1.407 . S
C1097 C1095 1.396 . S
C1097 C1098 1.394 . S
C1098 H1093 0.929 . S
C1098 C1097 1.394 . S
C1098 C1099 1.382 . S
C1099 C1098 1.382 . S
C1099 C1100 1.392 . S
C1099 N1101 1.420 . S
C1100 H1094 0.930 . S
C1100 C1096 1.407 . S
C1100 C1099 1.392 . S
N1101 C1099 1.420 . S
N1101 C1102 1.244 . S
C1102 N1101 1.244 . S
H1103 C1106 0.929 . S
H1104 C1109 0.929 . S
H1105 C1111 0.930 . S
C1106 H1103 0.929 . S
C1106 C1107 1.398 1_554 S
C1106 C1108 1.396 . S
C1107 C1106 1.398 1_556 S
C1107 C1111 1.407 . S
C1108 C1106 1.396 . S
C1108 C1109 1.394 . S
C1109 H1104 0.929 . S
C1109 C1108 1.394 . S
C1109 C1110 1.382 1_554 S
C1110 C1109 1.382 1_556 S
C1110 C1111 1.392 . S
C1110 N1112 1.420 . S
C1111 H1105 0.930 . S
C1111 C1107 1.407 . S
C1111 C1110 1.392 . S
N1112 C1110 1.420 . S
N1112 C1113 1.244 . S
C1113 N1112 1.244 . S
H1114 C1117 0.929 . S
H1115 C1120 0.929 . S
H1116 C1122 0.930 . S
C1117 H1114 0.929 . S
C1117 C1118 1.398 . S
C1117 C1119 1.396 . S
C1118 C1117 1.398 . S
C1118 C1122 1.407 . S
C1119 C1117 1.396 . S
C1119 C1120 1.394 1_545 S
C1120 H1115 0.929 . S
C1120 C1119 1.394 1_565 S
C1120 C1121 1.382 . S
C1121 C1120 1.382 . S
C1121 C1122 1.392 1_565 S
C1121 N1123 1.420 . S
C1122 H1116 0.930 . S
C1122 C1118 1.407 . S
C1122 C1121 1.392 1_545 S
N1123 C1121 1.420 . S
N1123 C1124 1.244 . S
C1124 N1123 1.244 . S
H1125 C1128 0.929 . S
H1126 C1131 0.929 . S
H1127 C1133 0.930 . S
C1128 H1125 0.929 . S
C1128 C1129 1.398 1_556 S
C1128 C1130 1.396 . S
C1129 C1128 1.398 1_554 S
C1129 C1133 1.407 . S
C1130 C1128 1.396 . S
C1130 C1131 1.394 . S
C1131 H1126 0.929 . S
C1131 C1130 1.394 . S
C1131 C1132 1.382 1_556 S
C1132 C1131 1.382 1_554 S
C1132 C1133 1.392 . S
C1132 N1134 1.420 . S
C1133 H1127 0.930 . S
C1133 C1129 1.407 . S
C1133 C1132 1.392 . S
N1134 C1132 1.420 . S
N1134 C1135 1.244 . S
C1135 N1134 1.244 . S
H1136 C1139 0.929 . S
H1137 C1142 0.929 . S
H1138 C1144 0.930 . S
C1139 H1136 0.929 . S
C1139 C1140 1.398 . S
C1139 C1141 1.396 . S
C1140 C1139 1.398 . S
C1140 C1144 1.407 . S
C1141 C1139 1.396 . S
C1141 C1142 1.394 . S
C1142 H1137 0.929 . S
C1142 C1141 1.394 . S
C1142 C1143 1.382 . S
C1143 C1142 1.382 . S
C1143 C1144 1.392 . S
C1143 N1145 1.420 . S
C1144 H1138 0.930 . S
C1144 C1140 1.407 . S
C1144 C1143 1.392 . S
N1145 C1143 1.420 . S
N1145 C1146 1.244 . S
C1146 N1145 1.244 . S
H1147 C1150 0.929 . S
H1148 C1153 0.929 . S
H1149 C1155 0.930 . S
C1150 H1147 0.929 . S
C1150 C1151 1.398 1_655 S
C1150 C1152 1.396 . S
C1151 C1150 1.398 1_455 S
C1151 C1155 1.407 . S
C1152 C1150 1.396 . S
C1152 C1153 1.394 . S
C1153 H1148 0.929 . S
C1153 C1152 1.394 . S
C1153 C1154 1.382 1_655 S
C1154 C1153 1.382 1_455 S
C1154 C1155 1.392 . S
C1154 N1156 1.420 . S
C1155 H1149 0.930 . S
C1155 C1151 1.407 . S
C1155 C1154 1.392 . S
N1156 C1154 1.420 . S
N1156 C1157 1.244 . S
C1157 N1156 1.244 . S
H1158 C1161 0.929 . S
H1159 C1164 0.929 . S
H1160 C1166 0.930 . S
C1161 H1158 0.929 . S
C1161 C1162 1.398 1_455 S
C1161 C1163 1.396 . S
C1162 C1161 1.398 1_655 S
C1162 C1166 1.407 . S
C1163 C1161 1.396 . S
C1163 C1164 1.394 . S
C1164 H1159 0.929 . S
C1164 C1163 1.394 . S
C1164 C1165 1.382 1_455 S
C1165 C1164 1.382 1_655 S
C1165 C1166 1.392 . S
C1165 N1167 1.420 . S
C1166 H1160 0.930 . S
C1166 C1162 1.407 . S
C1166 C1165 1.392 . S
N1167 C1165 1.420 . S
N1167 C1168 1.244 . S
C1168 N1167 1.244 . S
H1169 C1172 0.929 . S
H1170 C1175 0.929 . S
H1171 C1177 0.930 . S
C1172 H1169 0.929 . S
C1172 C1173 1.398 . S
C1172 C1174 1.396 . S
C1173 C1172 1.398 . S
C1173 C1177 1.407 . S
C1174 C1172 1.396 . S
C1174 C1175 1.394 1_554 S
C1175 H1170 0.929 . S
C1175 C1174 1.394 1_556 S
C1175 C1176 1.382 . S
C1176 C1175 1.382 . S
C1176 C1177 1.392 1_556 S
C1176 N1178 1.420 . S
C1177 H1171 0.930 . S
C1177 C1173 1.407 . S
C1177 C1176 1.392 1_554 S
N1178 C1176 1.420 . S
N1178 C1179 1.244 . S
C1179 N1178 1.244 . S
H1180 C1183 0.929 . S
H1181 C1186 0.929 . S
H1182 C1188 0.930 . S
C1183 H1180 0.929 . S
C1183 C1184 1.398 . S
C1183 C1185 1.396 . S
C1184 C1183 1.398 . S
C1184 C1188 1.407 . S
C1185 C1183 1.396 . S
C1185 C1186 1.394 . S
C1186 H1181 0.929 . S
C1186 C1185 1.394 . S
C1186 C1187 1.382 . S
C1187 C1186 1.382 . S
C1187 C1188 1.392 . S
C1187 N1189 1.420 . S
C1188 H1182 0.930 . S
C1188 C1184 1.407 . S
C1188 C1187 1.392 . S
N1189 C1187 1.420 . S
N1189 C1190 1.244 . S
C1190 N1189 1.244 . S
H1191 C1194 0.929 . S
H1192 C1197 0.929 . S
H1193 C1199 0.930 . S
C1194 H1191 0.929 . S
C1194 C1195 1.398 1_565 S
C1194 C1196 1.396 . S
C1195 C1194 1.398 1_545 S
C1195 C1199 1.407 . S
C1196 C1194 1.396 . S
C1196 C1197 1.394 . S
C1197 H1192 0.929 . S
C1197 C1196 1.394 . S
C1197 C1198 1.382 1_565 S
C1198 C1197 1.382 1_545 S
C1198 C1199 1.392 . S
C1198 N1200 1.420 . S
C1199 H1193 0.930 . S
C1199 C1195 1.407 . S
C1199 C1198 1.392 . S
N1200 C1198 1.420 . S
N1200 C1201 1.244 . S
C1201 N1200 1.244 . S
H1202 C1205 0.929 . S
H1203 C1208 0.929 . S
H1204 C1210 0.930 . S
C1205 H1202 0.929 . S
C1205 C1206 1.398 1_545 S
C1205 C1207 1.396 . S
C1206 C1205 1.398 1_565 S
C1206 C1210 1.407 . S
C1207 C1205 1.396 . S
C1207 C1208 1.394 . S
C1208 H1203 0.929 . S
C1208 C1207 1.394 . S
C1208 C1209 1.382 1_545 S
C1209 C1208 1.382 1_565 S
C1209 C1210 1.392 . S
C1209 N1211 1.420 . S
C1210 H1204 0.930 . S
C1210 C1206 1.407 . S
C1210 C1209 1.392 . S
N1211 C1209 1.420 . S
N1211 C1212 1.244 . S
C1212 N1211 1.244 . S
H1213 C1216 0.929 . S
H1214 C1219 0.929 . S
H1215 C1221 0.930 . S
C1216 H1213 0.929 . S
C1216 C1217 1.398 . S
C1216 C1218 1.396 . S
C1217 C1216 1.398 . S
C1217 C1221 1.407 . S
C1218 C1216 1.396 . S
C1218 C1219 1.394 1_455 S
C1219 H1214 0.929 . S
C1219 C1218 1.394 1_655 S
C1219 C1220 1.382 . S
C1220 C1219 1.382 . S
C1220 C1221 1.392 1_655 S
C1220 N1222 1.420 . S
C1221 H1215 0.930 . S
C1221 C1217 1.407 . S
C1221 C1220 1.392 1_455 S
N1222 C1220 1.420 . S
N1222 C1223 1.244 . S
C1223 N1222 1.244 . S
H1224 C1230 0.930 . S
H1225 C1233 0.930 . S
H1226 C1234 0.930 . S
H1227 C1235 0.930 . S
H1228 C1238 0.930 . S
H1229 C1239 0.930 . S
C1230 H1224 0.930 . S
C1230 C1231 1.355 . S
C1230 C1232 1.415 . S
C1231 C1230 1.355 . S
C1231 C1233 1.419 . S
C1232 C1230 1.415 . S
C1232 C1237 1.425 . S
C1232 C1239 1.409 . S
C1233 H1225 0.930 . S
C1233 C1231 1.419 . S
C1233 C1234 1.362 . S
C1234 H1226 0.930 . S
C1234 C1233 1.362 . S
C1234 C1237 1.409 . S
C1235 H1227 0.930 . S
C1235 C1236 1.355 . S
C1235 C1237 1.415 . S
C1236 C1235 1.355 . S
C1236 C1238 1.419 . S
C1237 C1232 1.425 . S
C1237 C1234 1.409 . S
C1237 C1235 1.415 . S
C1238 H1228 0.930 . S
C1238 C1236 1.419 . S
C1238 C1239 1.362 . S
C1239 H1229 0.930 . S
C1239 C1232 1.409 . S
C1239 C1238 1.362 . S
H1240 C1246 0.930 . S
H1241 C1249 0.930 . S
H1242 C1250 0.930 . S
H1243 C1251 0.930 . S
H1244 C1254 0.930 . S
H1245 C1255 0.930 . S
C1246 H1240 0.930 . S
C1246 C1247 1.355 . S
C1246 C1248 1.415 . S
C1247 C1246 1.355 . S
C1247 C1249 1.419 . S
C1248 C1246 1.415 . S
C1248 C1253 1.425 . S
C1248 C1255 1.409 . S
C1249 H1241 0.930 . S
C1249 C1247 1.419 . S
C1249 C1250 1.362 . S
C1250 H1242 0.930 . S
C1250 C1249 1.362 . S
C1250 C1253 1.409 . S
C1251 H1243 0.930 . S
C1251 C1252 1.355 . S
C1251 C1253 1.415 . S
C1252 C1251 1.355 . S
C1252 C1254 1.419 . S
C1253 C1248 1.425 . S
C1253 C1250 1.409 . S
C1253 C1251 1.415 . S
C1254 H1244 0.930 . S
C1254 C1252 1.419 . S
C1254 C1255 1.362 . S
C1255 H1245 0.930 . S
C1255 C1248 1.409 . S
C1255 C1254 1.362 . S
H1256 C1262 0.930 . S
H1257 C1265 0.945 . S
H1258 C1266 0.930 . S
H1259 C1267 0.930 . S
H1260 C1270 0.930 . S
H1261 C1271 0.930 . S
C1262 H1256 0.930 . S
C1262 C1263 1.371 . S
C1262 C1264 1.415 . S
C1263 C1262 1.371 . S
C1263 C1265 1.402 1_565 S
C1264 C1262 1.415 . S
C1264 C1269 1.425 . S
C1264 C1271 1.409 . S
C1265 H1257 0.945 . S
C1265 C1263 1.402 1_545 S
C1265 C1266 1.359 1_545 S
C1266 H1258 0.930 . S
C1266 C1265 1.359 1_565 S
C1266 C1269 1.409 . S
C1267 H1259 0.930 . S
C1267 C1268 1.355 . S
C1267 C1269 1.415 . S
C1268 C1267 1.355 . S
C1268 C1270 1.419 . S
C1269 C1264 1.425 . S
C1269 C1266 1.409 . S
C1269 C1267 1.415 . S
C1270 H1260 0.930 . S
C1270 C1268 1.419 . S
C1270 C1271 1.362 . S
C1271 H1261 0.930 . S
C1271 C1264 1.409 . S
C1271 C1270 1.362 . S
H1272 C1278 0.930 . S
H1273 C1281 0.929 . S
H1274 C1282 0.930 1_565 S
H1275 C1283 0.930 . S
H1276 C1286 0.930 . S
H1277 C1287 0.930 . S
C1278 H1272 0.930 . S
C1278 C1279 1.355 . S
C1278 C1280 1.415 . S
C1279 C1278 1.355 . S
C1279 C1281 1.419 . S
C1280 C1278 1.415 . S
C1280 C1285 1.425 . S
C1280 C1287 1.409 . S
C1281 H1273 0.929 . S
C1281 C1279 1.419 . S
C1281 C1282 1.362 . S
C1282 H1274 0.930 1_545 S
C1282 C1281 1.362 . S
C1282 C1285 1.409 . S
C1283 H1275 0.930 . S
C1283 C1284 1.355 . S
C1283 C1285 1.415 1_455 S
C1284 C1283 1.355 . S
C1284 C1286 1.419 . S
C1285 C1280 1.425 . S
C1285 C1282 1.409 . S
C1285 C1283 1.415 1_655 S
C1286 H1276 0.930 . S
C1286 C1284 1.419 . S
C1286 C1287 1.362 1_455 S
C1287 H1277 0.930 . S
C1287 C1280 1.409 . S
C1287 C1286 1.362 1_655 S
H1288 C1294 0.930 . S
H1289 C1297 0.930 . S
H1290 C1298 0.930 . S
H1291 C1299 0.930 . S
H1292 C1302 0.930 . S
H1293 C1303 0.930 . S
C1294 H1288 0.930 . S
C1294 C1295 1.355 . S
C1294 C1296 1.415 . S
C1295 C1294 1.355 . S
C1295 C1297 1.419 . S
C1296 C1294 1.415 . S
C1296 C1301 1.425 . S
C1296 C1303 1.409 . S
C1297 H1289 0.930 . S
C1297 C1295 1.419 . S
C1297 C1298 1.362 . S
C1298 H1290 0.930 . S
C1298 C1297 1.362 . S
C1298 C1301 1.409 . S
C1299 H1291 0.930 . S
C1299 C1300 1.355 . S
C1299 C1301 1.415 . S
C1300 C1299 1.355 . S
C1300 C1302 1.419 . S
C1301 C1296 1.425 . S
C1301 C1298 1.409 . S
C1301 C1299 1.415 . S
C1302 H1292 0.930 . S
C1302 C1300 1.419 . S
C1302 C1303 1.362 . S
C1303 H1293 0.930 . S
C1303 C1296 1.409 . S
C1303 C1302 1.362 . S
H1304 C1310 0.930 . S
H1305 C1313 0.923 1_556 S
H1306 C1314 0.930 1_556 S
H1307 C1315 0.936 . S
H1308 C1318 0.930 . S
H1309 C1319 0.930 . S
C1310 H1304 0.930 . S
C1310 C1311 1.355 . S
C1310 C1312 1.415 . S
C1311 C1310 1.355 . S
C1311 C1313 1.419 . S
C1312 C1310 1.415 . S
C1312 C1317 1.425 . S
C1312 C1319 1.409 . S
C1313 H1305 0.923 1_554 S
C1313 C1311 1.419 . S
C1313 C1314 1.362 . S
C1314 H1306 0.930 1_554 S
C1314 C1313 1.362 . S
C1314 C1317 1.409 . S
C1315 H1307 0.936 . S
C1315 C1316 1.376 . S
C1315 C1317 1.388 1_545 S
C1316 C1315 1.376 . S
C1316 C1318 1.419 . S
C1317 C1312 1.425 . S
C1317 C1314 1.409 . S
C1317 C1315 1.388 1_565 S
C1318 H1308 0.930 . S
C1318 C1316 1.419 . S
C1318 C1319 1.362 1_545 S
C1319 H1309 0.930 . S
C1319 C1312 1.409 . S
C1319 C1318 1.362 1_565 S
H1320 C1326 0.930 . S
H1321 C1329 0.930 . S
H1322 C1330 0.930 . S
H1323 C1331 0.930 . S
H1324 C1334 0.930 . S
H1325 C1335 0.930 . S
C1326 H1320 0.930 . S
C1326 C1327 1.355 . S
C1326 C1328 1.415 . S
C1327 C1326 1.355 . S
C1327 C1329 1.419 . S
C1328 C1326 1.415 . S
C1328 C1333 1.425 . S
C1328 C1335 1.409 . S
C1329 H1321 0.930 . S
C1329 C1327 1.419 . S
C1329 C1330 1.362 . S
C1330 H1322 0.930 . S
C1330 C1329 1.362 . S
C1330 C1333 1.409 . S
C1331 H1323 0.930 . S
C1331 C1332 1.355 . S
C1331 C1333 1.415 . S
C1332 C1331 1.355 . S
C1332 C1334 1.419 . S
C1333 C1328 1.425 . S
C1333 C1330 1.409 . S
C1333 C1331 1.415 . S
C1334 H1324 0.930 . S
C1334 C1332 1.419 . S
C1334 C1335 1.362 . S
C1335 H1325 0.930 . S
C1335 C1328 1.409 . S
C1335 C1334 1.362 . S
H1336 C1342 0.954 . S
H1337 C1345 0.930 . S
H1338 C1346 0.930 . S
H1339 C1347 0.930 . S
H1340 C1350 0.930 . S
H1341 C1351 0.939 . S
C1342 H1336 0.954 . S
C1342 C1343 1.343 1_554 S
C1342 C1344 1.403 1_554 S
C1343 C1342 1.343 1_556 S
C1343 C1345 1.426 . S
C1344 C1342 1.403 1_556 S
C1344 C1349 1.425 . S
C1344 C1351 1.409 . S
C1345 H1337 0.930 . S
C1345 C1343 1.426 . S
C1345 C1346 1.362 . S
C1346 H1338 0.930 . S
C1346 C1345 1.362 . S
C1346 C1349 1.409 . S
C1347 H1339 0.930 . S
C1347 C1348 1.355 . S
C1347 C1349 1.415 . S
C1348 C1347 1.355 . S
C1348 C1350 1.419 . S
C1349 C1344 1.425 . S
C1349 C1346 1.409 . S
C1349 C1347 1.415 . S
C1350 H1340 0.930 . S
C1350 C1348 1.419 . S
C1350 C1351 1.362 . S
C1351 H1341 0.939 . S
C1351 C1344 1.409 . S
C1351 C1350 1.362 . S
H1352 C1358 0.930 . S
H1353 C1361 0.930 . S
H1354 C1362 0.930 . S
H1355 C1363 0.930 . S
H1356 C1366 0.930 . S
H1357 C1367 0.930 . S
C1358 H1352 0.930 . S
C1358 C1359 1.355 . S
C1358 C1360 1.415 . S
C1359 C1358 1.355 . S
C1359 C1361 1.419 . S
C1360 C1358 1.415 . S
C1360 C1365 1.425 . S
C1360 C1367 1.409 . S
C1361 H1353 0.930 . S
C1361 C1359 1.419 . S
C1361 C1362 1.362 . S
C1362 H1354 0.930 . S
C1362 C1361 1.362 . S
C1362 C1365 1.409 . S
C1363 H1355 0.930 . S
C1363 C1364 1.355 . S
C1363 C1365 1.415 . S
C1364 C1363 1.355 . S
C1364 C1366 1.419 . S
C1365 C1360 1.425 . S
C1365 C1362 1.409 . S
C1365 C1363 1.415 . S
C1366 H1356 0.930 . S
C1366 C1364 1.419 . S
C1366 C1367 1.362 . S
C1367 H1357 0.930 . S
C1367 C1360 1.409 . S
C1367 C1366 1.362 . S
H1368 C1374 0.930 . S
H1369 C1377 0.935 . S
H1370 C1378 0.930 . S
H1371 C1379 0.904 1_655 S
H1372 C1382 0.930 . S
H1373 C1383 0.930 . S
C1374 H1368 0.930 . S
C1374 C1375 1.355 . S
C1374 C1376 1.415 . S
C1375 C1374 1.355 . S
C1375 C1377 1.412 1_455 S
C1376 C1374 1.415 . S
C1376 C1381 1.425 . S
C1376 C1383 1.409 . S
C1377 H1369 0.935 . S
C1377 C1375 1.412 1_655 S
C1377 C1378 1.364 . S
C1378 H1370 0.930 . S
C1378 C1377 1.364 . S
C1378 C1381 1.409 1_655 S
C1379 H1371 0.904 1_455 S
C1379 C1380 1.355 . S
C1379 C1381 1.415 1_554 S
C1380 C1379 1.355 . S
C1380 C1382 1.419 . S
C1381 C1376 1.425 . S
C1381 C1378 1.409 1_455 S
C1381 C1379 1.415 1_556 S
C1382 H1372 0.930 . S
C1382 C1380 1.419 . S
C1382 C1383 1.362 1_554 S
C1383 H1373 0.930 . S
C1383 C1376 1.409 . S
C1383 C1382 1.362 1_556 S
H1384 C1390 0.930 . S
H1385 C1393 0.930 . S
H1386 C1394 0.930 . S
H1387 C1395 0.930 . S
H1388 C1398 0.930 . S
H1389 C1399 0.930 . S
C1390 H1384 0.930 . S
C1390 C1391 1.355 . S
C1390 C1392 1.415 . S
C1391 C1390 1.355 . S
C1391 C1393 1.419 . S
C1392 C1390 1.415 . S
C1392 C1397 1.425 . S
C1392 C1399 1.409 . S
C1393 H1385 0.930 . S
C1393 C1391 1.419 . S
C1393 C1394 1.362 . S
C1394 H1386 0.930 . S
C1394 C1393 1.362 . S
C1394 C1397 1.409 . S
C1395 H1387 0.930 . S
C1395 C1396 1.355 . S
C1395 C1397 1.415 . S
C1396 C1395 1.355 . S
C1396 C1398 1.419 . S
C1397 C1392 1.425 . S
C1397 C1394 1.409 . S
C1397 C1395 1.415 . S
C1398 H1388 0.930 . S
C1398 C1396 1.419 . S
C1398 C1399 1.362 . S
C1399 H1389 0.930 . S
C1399 C1392 1.409 . S
C1399 C1398 1.362 . S
H1400 C1406 0.930 . S
H1401 C1409 0.930 . S
H1402 C1410 0.930 . S
H1403 C1411 0.930 . S
H1404 C1414 0.930 . S
H1405 C1415 0.930 . S
C1406 H1400 0.930 . S
C1406 C1407 1.355 1_455 S
C1406 C1408 1.415 . S
C1407 C1406 1.355 1_655 S
C1407 C1409 1.419 . S
C1408 C1406 1.415 . S
C1408 C1413 1.425 1_455 S
C1408 C1415 1.409 . S
C1409 H1401 0.930 . S
C1409 C1407 1.419 . S
C1409 C1410 1.362 . S
C1410 H1402 0.930 . S
C1410 C1409 1.362 . S
C1410 C1413 1.409 . S
C1411 H1403 0.930 . S
C1411 C1412 1.355 . S
C1411 C1413 1.415 . S
C1412 C1411 1.355 . S
C1412 C1414 1.419 1_655 S
C1413 C1408 1.425 1_655 S
C1413 C1410 1.409 . S
C1413 C1411 1.415 . S
C1414 H1404 0.930 . S
C1414 C1412 1.419 1_455 S
C1414 C1415 1.362 . S
C1415 H1405 0.930 . S
C1415 C1408 1.409 . S
C1415 C1414 1.362 . S
H1416 C1422 0.930 . S
H1417 C1425 0.930 . S
H1418 C1426 0.930 . S
H1419 C1427 0.930 . S
H1420 C1430 0.930 . S
H1421 C1431 0.930 . S
C1422 H1416 0.930 . S
C1422 C1423 1.355 . S
C1422 C1424 1.415 . S
C1423 C1422 1.355 . S
C1423 C1425 1.419 . S
C1424 C1422 1.415 . S
C1424 C1429 1.425 . S
C1424 C1431 1.409 . S
C1425 H1417 0.930 . S
C1425 C1423 1.419 . S
C1425 C1426 1.362 . S
C1426 H1418 0.930 . S
C1426 C1425 1.362 . S
C1426 C1429 1.409 . S
C1427 H1419 0.930 . S
C1427 C1428 1.355 . S
C1427 C1429 1.415 . S
C1428 C1427 1.355 . S
C1428 C1430 1.419 . S
C1429 C1424 1.425 . S
C1429 C1426 1.409 . S
C1429 C1427 1.415 . S
C1430 H1420 0.930 . S
C1430 C1428 1.419 . S
C1430 C1431 1.362 . S
C1431 H1421 0.930 . S
C1431 C1424 1.409 . S
C1431 C1430 1.362 . S
H1432 C1438 0.930 . S
H1433 C1441 0.930 . S
H1434 C1442 0.930 . S
H1435 C1443 0.930 . S
H1436 C1446 0.930 . S
H1437 C1447 0.930 . S
C1438 H1432 0.930 . S
C1438 C1439 1.355 . S
C1438 C1440 1.415 . S
C1439 C1438 1.355 . S
C1439 C1441 1.419 . S
C1440 C1438 1.415 . S
C1440 C1445 1.425 . S
C1440 C1447 1.409 . S
C1441 H1433 0.930 . S
C1441 C1439 1.419 . S
C1441 C1442 1.362 . S
C1442 H1434 0.930 . S
C1442 C1441 1.362 . S
C1442 C1445 1.409 . S
C1443 H1435 0.930 . S
C1443 C1444 1.355 . S
C1443 C1445 1.415 . S
C1444 C1443 1.355 . S
C1444 C1446 1.419 . S
C1445 C1440 1.425 . S
C1445 C1442 1.409 . S
C1445 C1443 1.415 . S
C1446 H1436 0.930 . S
C1446 C1444 1.419 . S
C1446 C1447 1.362 . S
C1447 H1437 0.930 . S
C1447 C1440 1.409 . S
C1447 C1446 1.362 . S
H1448 C1454 0.930 . S
H1449 C1457 0.930 . S
H1450 C1458 0.930 . S
H1451 C1459 0.930 . S
H1452 C1462 0.926 1_565 S
H1453 C1463 0.930 . S
C1454 H1448 0.930 . S
C1454 C1455 1.355 1_565 S
C1454 C1456 1.404 1_565 S
C1455 C1454 1.355 1_545 S
C1455 C1457 1.419 . S
C1456 C1454 1.404 1_545 S
C1456 C1461 1.452 . S
C1456 C1463 1.396 1_545 S
C1457 H1449 0.930 . S
C1457 C1455 1.419 . S
C1457 C1458 1.362 . S
C1458 H1450 0.930 . S
C1458 C1457 1.362 . S
C1458 C1461 1.409 . S
C1459 H1451 0.930 . S
C1459 C1460 1.355 . S
C1459 C1461 1.415 . S
C1460 C1459 1.355 . S
C1460 C1462 1.426 . S
C1461 C1456 1.452 . S
C1461 C1458 1.409 . S
C1461 C1459 1.415 . S
C1462 H1452 0.926 1_545 S
C1462 C1460 1.426 . S
C1462 C1463 1.360 1_545 S
C1463 H1453 0.930 . S
C1463 C1456 1.396 1_565 S
C1463 C1462 1.360 1_565 S
H1464 C1470 0.930 . S
H1465 C1473 0.930 . S
H1466 C1474 0.930 . S
H1467 C1475 0.941 . S
H1468 C1478 0.930 . S
H1469 C1479 0.930 . S
C1470 H1464 0.930 . S
C1470 C1471 1.355 . S
C1470 C1472 1.415 . S
C1471 C1470 1.355 . S
C1471 C1473 1.419 1_565 S
C1472 C1470 1.415 . S
C1472 C1477 1.425 . S
C1472 C1479 1.409 . S
C1473 H1465 0.930 . S
C1473 C1471 1.419 1_545 S
C1473 C1474 1.362 . S
C1474 H1466 0.930 . S
C1474 C1473 1.362 . S
C1474 C1477 1.409 1_545 S
C1475 H1467 0.941 . S
C1475 C1476 1.346 1_545 S
C1475 C1477 1.412 1_645 S
C1476 C1475 1.346 1_565 S
C1476 C1478 1.419 . S
C1477 C1472 1.425 . S
C1477 C1474 1.409 1_565 S
C1477 C1475 1.412 1_465 S
C1478 H1468 0.930 . S
C1478 C1476 1.419 . S
C1478 C1479 1.362 1_655 S
C1479 H1469 0.930 . S
C1479 C1472 1.409 . S
C1479 C1478 1.362 1_455 S
H1480 C1486 0.930 . S
H1481 C1489 0.930 . S
H1482 C1490 0.930 . S
H1483 C1491 0.930 . S
H1484 C1494 0.930 . S
H1485 C1495 0.930 . S
C1486 H1480 0.930 . S
C1486 C1487 1.355 . S
C1486 C1488 1.415 . S
C1487 C1486 1.355 . S
C1487 C1489 1.419 . S
C1488 C1486 1.415 . S
C1488 C1493 1.425 . S
C1488 C1495 1.409 . S
C1489 H1481 0.930 . S
C1489 C1487 1.419 . S
C1489 C1490 1.362 . S
C1490 H1482 0.930 . S
C1490 C1489 1.362 . S
C1490 C1493 1.409 . S
C1491 H1483 0.930 . S
C1491 C1492 1.355 . S
C1491 C1493 1.415 . S
C1492 C1491 1.355 . S
C1492 C1494 1.419 . S
C1493 C1488 1.425 . S
C1493 C1490 1.409 . S
C1493 C1491 1.415 . S
C1494 H1484 0.930 . S
C1494 C1492 1.419 . S
C1494 C1495 1.362 . S
C1495 H1485 0.930 . S
C1495 C1488 1.409 . S
C1495 C1494 1.362 . S
H1496 C1502 0.930 . S
H1497 C1505 0.930 . S
H1498 C1506 0.930 . S
H1499 C1507 0.930 . S
H1500 C1510 0.930 . S
H1501 C1511 0.930 . S
C1502 H1496 0.930 . S
C1502 C1503 1.355 . S
C1502 C1504 1.415 . S
C1503 C1502 1.355 . S
C1503 C1505 1.419 . S
C1504 C1502 1.415 . S
C1504 C1509 1.425 . S
C1504 C1511 1.409 . S
C1505 H1497 0.930 . S
C1505 C1503 1.419 . S
C1505 C1506 1.362 . S
C1506 H1498 0.930 . S
C1506 C1505 1.362 . S
C1506 C1509 1.409 . S
C1507 H1499 0.930 . S
C1507 C1508 1.355 . S
C1507 C1509 1.415 1_565 S
C1508 C1507 1.355 . S
C1508 C1510 1.419 . S
C1509 C1504 1.425 . S
C1509 C1506 1.409 . S
C1509 C1507 1.415 1_545 S
C1510 H1500 0.930 . S
C1510 C1508 1.419 . S
C1510 C1511 1.362 1_565 S
C1511 H1501 0.930 . S
C1511 C1504 1.409 . S
C1511 C1510 1.362 1_545 S
H1512 C1518 0.930 . S
H1513 C1521 0.930 . S
H1514 C1522 0.930 . S
H1515 C1523 0.930 . S
H1516 C1526 0.930 . S
H1517 C1527 0.930 . S
C1518 H1512 0.930 . S
C1518 C1519 1.355 . S
C1518 C1520 1.415 . S
C1519 C1518 1.355 . S
C1519 C1521 1.419 . S
C1520 C1518 1.415 . S
C1520 C1525 1.425 . S
C1520 C1527 1.409 . S
C1521 H1513 0.930 . S
C1521 C1519 1.419 . S
C1521 C1522 1.362 . S
C1522 H1514 0.930 . S
C1522 C1521 1.362 . S
C1522 C1525 1.409 . S
C1523 H1515 0.930 . S
C1523 C1524 1.355 . S
C1523 C1525 1.415 . S
C1524 C1523 1.355 . S
C1524 C1526 1.419 . S
C1525 C1520 1.425 . S
C1525 C1522 1.409 . S
C1525 C1523 1.415 . S
C1526 H1516 0.930 . S
C1526 C1524 1.419 . S
C1526 C1527 1.362 . S
C1527 H1517 0.930 . S
C1527 C1520 1.409 . S
C1527 C1526 1.362 . S
H1528 C1534 0.930 . S
H1529 C1537 0.930 . S
H1530 C1538 0.930 . S
H1531 C1539 0.930 1_556 S
H1532 C1542 0.930 . S
H1533 C1543 0.930 . S
C1534 H1528 0.930 . S
C1534 C1535 1.346 1_554 S
C1534 C1536 1.415 . S
C1535 C1534 1.346 1_556 S
C1535 C1537 1.427 . S
C1536 C1534 1.415 . S
C1536 C1541 1.425 . S
C1536 C1543 1.409 . S
C1537 H1529 0.930 . S
C1537 C1535 1.427 . S
C1537 C1538 1.362 . S
C1538 H1530 0.930 . S
C1538 C1537 1.362 . S
C1538 C1541 1.409 1_556 S
C1539 H1531 0.930 1_554 S
C1539 C1540 1.355 . S
C1539 C1541 1.415 . S
C1540 C1539 1.355 . S
C1540 C1542 1.419 . S
C1541 C1536 1.425 . S
C1541 C1538 1.409 1_554 S
C1541 C1539 1.415 . S
C1542 H1532 0.930 . S
C1542 C1540 1.419 . S
C1542 C1543 1.362 . S
C1543 H1533 0.930 . S
C1543 C1536 1.409 . S
C1543 C1542 1.362 . S
H1544 C1550 0.930 . S
H1545 C1553 0.930 . S
H1546 C1554 0.930 . S
H1547 C1555 0.930 . S
H1548 C1558 0.930 . S
H1549 C1559 0.930 . S
C1550 H1544 0.930 . S
C1550 C1551 1.355 . S
C1550 C1552 1.415 . S
C1551 C1550 1.355 . S
C1551 C1553 1.419 . S
C1552 C1550 1.415 . S
C1552 C1557 1.425 . S
C1552 C1559 1.409 . S
C1553 H1545 0.930 . S
C1553 C1551 1.419 . S
C1553 C1554 1.362 . S
C1554 H1546 0.930 . S
C1554 C1553 1.362 . S
C1554 C1557 1.409 . S
C1555 H1547 0.930 . S
C1555 C1556 1.355 . S
C1555 C1557 1.415 . S
C1556 C1555 1.355 . S
C1556 C1558 1.419 . S
C1557 C1552 1.425 . S
C1557 C1554 1.409 . S
C1557 C1555 1.415 . S
C1558 H1548 0.930 . S
C1558 C1556 1.419 . S
C1558 C1559 1.362 . S
C1559 H1549 0.930 . S
C1559 C1552 1.409 . S
C1559 C1558 1.362 . S
H1560 C1566 0.930 . S
H1561 C1569 0.930 . S
H1562 C1570 0.930 . S
H1563 C1571 0.938 . S
H1564 C1574 0.930 . S
H1565 C1575 0.930 . S
C1566 H1560 0.930 . S
C1566 C1567 1.355 . S
C1566 C1568 1.415 . S
C1567 C1566 1.355 . S
C1567 C1569 1.419 . S
C1568 C1566 1.415 . S
C1568 C1573 1.425 . S
C1568 C1575 1.409 . S
C1569 H1561 0.930 . S
C1569 C1567 1.419 . S
C1569 C1570 1.362 . S
C1570 H1562 0.930 . S
C1570 C1569 1.362 . S
C1570 C1573 1.409 . S
C1571 H1563 0.938 . S
C1571 C1572 1.384 . S
C1571 C1573 1.378 1_556 S
C1572 C1571 1.384 . S
C1572 C1574 1.419 . S
C1573 C1568 1.425 . S
C1573 C1570 1.409 . S
C1573 C1571 1.378 1_554 S
C1574 H1564 0.930 . S
C1574 C1572 1.419 . S
C1574 C1575 1.362 1_556 S
C1575 H1565 0.930 . S
C1575 C1568 1.409 . S
C1575 C1574 1.362 1_554 S
H1576 C1582 0.930 . S
H1577 C1585 0.930 . S
H1578 C1586 0.930 . S
H1579 C1587 0.930 . S
H1580 C1590 0.930 . S
H1581 C1591 0.930 . S
C1582 H1576 0.930 . S
C1582 C1583 1.355 . S
C1582 C1584 1.415 . S
C1583 C1582 1.355 . S
C1583 C1585 1.419 . S
C1584 C1582 1.415 . S
C1584 C1589 1.425 . S
C1584 C1591 1.409 . S
C1585 H1577 0.930 . S
C1585 C1583 1.419 . S
C1585 C1586 1.362 . S
C1586 H1578 0.930 . S
C1586 C1585 1.362 . S
C1586 C1589 1.409 . S
C1587 H1579 0.930 . S
C1587 C1588 1.355 . S
C1587 C1589 1.415 . S
C1588 C1587 1.355 . S
C1588 C1590 1.419 . S
C1589 C1584 1.425 . S
C1589 C1586 1.409 . S
C1589 C1587 1.415 . S
C1590 H1580 0.930 . S
C1590 C1588 1.419 . S
C1590 C1591 1.362 . S
C1591 H1581 0.930 . S
C1591 C1584 1.409 . S
C1591 C1590 1.362 . S
H1592 C1598 0.930 . S
H1593 C1601 0.930 . S
H1594 C1602 0.948 . S
H1595 C1603 0.930 . S
H1596 C1606 0.930 . S
H1597 C1607 0.930 . S
C1598 H1592 0.930 . S
C1598 C1599 1.342 1_455 S
C1598 C1600 1.415 . S
C1599 C1598 1.342 1_655 S
C1599 C1601 1.430 . S
C1600 C1598 1.415 . S
C1600 C1605 1.425 . S
C1600 C1607 1.409 . S
C1601 H1593 0.930 . S
C1601 C1599 1.430 . S
C1601 C1602 1.367 . S
C1602 H1594 0.948 . S
C1602 C1601 1.367 . S
C1602 C1605 1.390 1_655 S
C1603 H1595 0.930 . S
C1603 C1604 1.355 . S
C1603 C1605 1.415 . S
C1604 C1603 1.355 . S
C1604 C1606 1.419 . S
C1605 C1600 1.425 . S
C1605 C1602 1.390 1_455 S
C1605 C1603 1.415 . S
C1606 H1596 0.930 . S
C1606 C1604 1.419 . S
C1606 C1607 1.362 . S
C1607 H1597 0.930 . S
C1607 C1600 1.409 . S
C1607 C1606 1.362 . S
H1608 C1614 0.930 . S
H1609 C1617 0.930 . S
H1610 C1618 0.930 . S
H1611 C1619 0.930 . S
H1612 C1622 0.930 . S
H1613 C1623 0.930 . S
C1614 H1608 0.930 . S
C1614 C1615 1.355 . S
C1614 C1616 1.415 . S
C1615 C1614 1.355 . S
C1615 C1617 1.419 . S
C1616 C1614 1.415 . S
C1616 C1621 1.425 . S
C1616 C1623 1.409 . S
C1617 H1609 0.930 . S
C1617 C1615 1.419 . S
C1617 C1618 1.362 . S
C1618 H1610 0.930 . S
C1618 C1617 1.362 . S
C1618 C1621 1.409 . S
C1619 H1611 0.930 . S
C1619 C1620 1.355 . S
C1619 C1621 1.415 . S
C1620 C1619 1.355 . S
C1620 C1622 1.419 . S
C1621 C1616 1.425 . S
C1621 C1618 1.409 . S
C1621 C1619 1.415 . S
C1622 H1612 0.930 . S
C1622 C1620 1.419 . S
C1622 C1623 1.362 . S
C1623 H1613 0.930 . S
C1623 C1616 1.409 . S
C1623 C1622 1.362 . S
H1624 C1630 0.930 . S
H1625 C1633 0.930 . S
H1626 C1634 0.930 . S
H1627 C1635 0.930 . S
H1628 C1638 0.930 . S
H1629 C1639 0.930 . S
C1630 H1624 0.930 . S
C1630 C1631 1.355 . S
C1630 C1632 1.415 . S
C1631 C1630 1.355 . S
C1631 C1633 1.419 . S
C1632 C1630 1.415 . S
C1632 C1637 1.425 . S
C1632 C1639 1.409 . S
C1633 H1625 0.930 . S
C1633 C1631 1.419 . S
C1633 C1634 1.362 . S
C1634 H1626 0.930 . S
C1634 C1633 1.362 . S
C1634 C1637 1.409 . S
C1635 H1627 0.930 . S
C1635 C1636 1.355 . S
C1635 C1637 1.415 . S
C1636 C1635 1.355 . S
C1636 C1638 1.419 . S
C1637 C1632 1.425 . S
C1637 C1634 1.409 . S
C1637 C1635 1.415 . S
C1638 H1628 0.930 . S
C1638 C1636 1.419 . S
C1638 C1639 1.362 . S
C1639 H1629 0.930 . S
C1639 C1632 1.409 . S
C1639 C1638 1.362 . S
H1640 C1646 0.930 1_545 S
H1641 C1649 0.930 . S
H1642 C1650 0.936 . S
H1643 C1651 0.930 . S
H1644 C1654 0.930 . S
H1645 C1655 0.930 . S
C1646 H1640 0.930 1_565 S
C1646 C1647 1.352 1_565 S
C1646 C1648 1.415 . S
C1647 C1646 1.352 1_545 S
C1647 C1649 1.426 . S
C1648 C1646 1.415 . S
C1648 C1653 1.425 . S
C1648 C1655 1.409 . S
C1649 H1641 0.930 . S
C1649 C1647 1.426 . S
C1649 C1650 1.361 . S
C1650 H1642 0.936 . S
C1650 C1649 1.361 . S
C1650 C1653 1.406 1_545 S
C1651 H1643 0.930 . S
C1651 C1652 1.355 . S
C1651 C1653 1.415 . S
C1652 C1651 1.355 . S
C1652 C1654 1.419 . S
C1653 C1648 1.425 . S
C1653 C1650 1.406 1_565 S
C1653 C1651 1.415 . S
C1654 H1644 0.930 . S
C1654 C1652 1.419 . S
C1654 C1655 1.362 . S
C1655 H1645 0.930 . S
C1655 C1648 1.409 . S
C1655 C1654 1.362 . S
H1656 C1662 0.930 . S
H1657 C1665 0.930 1_545 S
H1658 C1666 0.930 . S
H1659 C1667 0.930 . S
H1660 C1670 0.930 . S
H1661 C1671 0.930 . S
C1662 H1656 0.930 . S
C1662 C1663 1.355 . S
C1662 C1664 1.415 . S
C1663 C1662 1.355 . S
C1663 C1665 1.419 . S
C1664 C1662 1.415 . S
C1664 C1669 1.425 . S
C1664 C1671 1.409 . S
C1665 H1657 0.930 1_565 S
C1665 C1663 1.419 . S
C1665 C1666 1.362 . S
C1666 H1658 0.930 . S
C1666 C1665 1.362 . S
C1666 C1669 1.409 . S
C1667 H1659 0.930 . S
C1667 C1668 1.355 . S
C1667 C1669 1.415 . S
C1668 C1667 1.355 . S
C1668 C1670 1.419 . S
C1669 C1664 1.425 . S
C1669 C1666 1.409 . S
C1669 C1667 1.415 . S
C1670 H1660 0.930 . S
C1670 C1668 1.419 . S
C1670 C1671 1.362 . S
C1671 H1661 0.930 . S
C1671 C1664 1.409 . S
C1671 C1670 1.362 . S
H1672 C1678 0.930 . S
H1673 C1681 0.930 . S
H1674 C1682 0.930 . S
H1675 C1683 0.930 . S
H1676 C1686 0.930 . S
H1677 C1687 0.930 . S
C1678 H1672 0.930 . S
C1678 C1679 1.355 . S
C1678 C1680 1.415 . S
C1679 C1678 1.355 . S
C1679 C1681 1.419 . S
C1680 C1678 1.415 . S
C1680 C1685 1.425 . S
C1680 C1687 1.409 . S
C1681 H1673 0.930 . S
C1681 C1679 1.419 . S
C1681 C1682 1.362 . S
C1682 H1674 0.930 . S
C1682 C1681 1.362 . S
C1682 C1685 1.409 . S
C1683 H1675 0.930 . S
C1683 C1684 1.355 . S
C1683 C1685 1.415 . S
C1684 C1683 1.355 . S
C1684 C1686 1.419 . S
C1685 C1680 1.425 . S
C1685 C1682 1.409 . S
C1685 C1683 1.415 . S
C1686 H1676 0.930 . S
C1686 C1684 1.419 . S
C1686 C1687 1.362 . S
C1687 H1677 0.930 . S
C1687 C1680 1.409 . S
C1687 C1686 1.362 . S
H1688 C1694 0.930 . S
H1689 C1697 0.930 . S
H1690 C1698 0.930 . S
H1691 C1699 0.930 . S
H1692 C1702 0.930 . S
H1693 C1703 0.930 . S
C1694 H1688 0.930 . S
C1694 C1695 1.355 . S
C1694 C1696 1.415 . S
C1695 C1694 1.355 . S
C1695 C1697 1.419 . S
C1696 C1694 1.415 . S
C1696 C1701 1.425 . S
C1696 C1703 1.409 . S
C1697 H1689 0.930 . S
C1697 C1695 1.419 . S
C1697 C1698 1.362 . S
C1698 H1690 0.930 . S
C1698 C1697 1.362 . S
C1698 C1701 1.409 . S
C1699 H1691 0.930 . S
C1699 C1700 1.355 . S
C1699 C1701 1.415 . S
C1700 C1699 1.355 . S
C1700 C1702 1.419 . S
C1701 C1696 1.425 . S
C1701 C1698 1.409 . S
C1701 C1699 1.415 . S
C1702 H1692 0.930 . S
C1702 C1700 1.419 . S
C1702 C1703 1.362 . S
C1703 H1693 0.930 . S
C1703 C1696 1.409 . S
C1703 C1702 1.362 . S
H1704 C1710 0.930 . S
H1705 C1713 0.930 . S
H1706 C1714 0.930 . S
H1707 C1715 0.930 . S
H1708 C1718 0.930 1_455 S
H1709 C1719 0.930 . S
C1710 H1704 0.930 . S
C1710 C1711 1.355 . S
C1710 C1712 1.415 . S
C1711 C1710 1.355 . S
C1711 C1713 1.419 . S
C1712 C1710 1.415 . S
C1712 C1717 1.425 . S
C1712 C1719 1.409 . S
C1713 H1705 0.930 . S
C1713 C1711 1.419 . S
C1713 C1714 1.362 . S
C1714 H1706 0.930 . S
C1714 C1713 1.362 . S
C1714 C1717 1.409 . S
C1715 H1707 0.930 . S
C1715 C1716 1.355 . S
C1715 C1717 1.415 . S
C1716 C1715 1.355 . S
C1716 C1718 1.419 . S
C1717 C1712 1.425 . S
C1717 C1714 1.409 . S
C1717 C1715 1.415 . S
C1718 H1708 0.930 1_655 S
C1718 C1716 1.419 . S
C1718 C1719 1.362 . S
C1719 H1709 0.930 . S
C1719 C1712 1.409 . S
C1719 C1718 1.362 . S
H1720 C1726 0.930 . S
H1721 C1729 0.930 . S
H1722 C1730 0.930 . S
H1723 C1731 0.930 . S
H1724 C1734 0.930 . S
H1725 C1735 0.930 . S
C1726 H1720 0.930 . S
C1726 C1727 1.355 1_556 S
C1726 C1728 1.415 . S
C1727 C1726 1.355 1_554 S
C1727 C1729 1.419 . S
C1728 C1726 1.415 . S
C1728 C1733 1.425 1_556 S
C1728 C1735 1.409 . S
C1729 H1721 0.930 . S
C1729 C1727 1.419 . S
C1729 C1730 1.362 . S
C1730 H1722 0.930 . S
C1730 C1729 1.362 . S
C1730 C1733 1.409 . S
C1731 H1723 0.930 . S
C1731 C1732 1.355 1_554 S
C1731 C1733 1.415 . S
C1732 C1731 1.355 1_556 S
C1732 C1734 1.419 . S
C1733 C1728 1.425 1_554 S
C1733 C1730 1.409 . S
C1733 C1731 1.415 . S
C1734 H1724 0.930 . S
C1734 C1732 1.419 . S
C1734 C1735 1.362 . S
C1735 H1725 0.930 . S
C1735 C1728 1.409 . S
C1735 C1734 1.362 . S
H1736 C1742 0.930 . S
H1737 C1745 0.930 . S
H1738 C1746 0.930 . S
H1739 C1747 0.930 . S
H1740 C1750 0.930 . S
H1741 C1751 0.930 . S
C1742 H1736 0.930 . S
C1742 C1743 1.355 . S
C1742 C1744 1.415 . S
C1743 C1742 1.355 . S
C1743 C1745 1.419 . S
C1744 C1742 1.415 . S
C1744 C1749 1.425 . S
C1744 C1751 1.409 . S
C1745 H1737 0.930 . S
C1745 C1743 1.419 . S
C1745 C1746 1.362 . S
C1746 H1738 0.930 . S
C1746 C1745 1.362 . S
C1746 C1749 1.409 . S
C1747 H1739 0.930 . S
C1747 C1748 1.355 . S
C1747 C1749 1.415 . S
C1748 C1747 1.355 . S
C1748 C1750 1.419 . S
C1749 C1744 1.425 . S
C1749 C1746 1.409 . S
C1749 C1747 1.415 . S
C1750 H1740 0.930 . S
C1750 C1748 1.419 . S
C1750 C1751 1.362 . S
C1751 H1741 0.930 . S
C1751 C1744 1.409 . S
C1751 C1750 1.362 . S
H1752 C1758 0.930 . S
H1753 C1761 0.930 1_455 S
H1754 C1762 0.930 . S
H1755 C1763 0.930 . S
H1756 C1766 0.930 . S
H1757 C1767 0.930 . S
C1758 H1752 0.930 . S
C1758 C1759 1.355 . S
C1758 C1760 1.415 . S
C1759 C1758 1.355 . S
C1759 C1761 1.419 . S
C1760 C1758 1.415 . S
C1760 C1765 1.425 . S
C1760 C1767 1.409 . S
C1761 H1753 0.930 1_655 S
C1761 C1759 1.419 . S
C1761 C1762 1.362 . S
C1762 H1754 0.930 . S
C1762 C1761 1.362 . S
C1762 C1765 1.409 . S
C1763 H1755 0.930 . S
C1763 C1764 1.355 . S
C1763 C1765 1.415 . S
C1764 C1763 1.355 . S
C1764 C1766 1.419 . S
C1765 C1760 1.425 . S
C1765 C1762 1.409 . S
C1765 C1763 1.415 . S
C1766 H1756 0.930 . S
C1766 C1764 1.419 . S
C1766 C1767 1.362 . S
C1767 H1757 0.930 . S
C1767 C1760 1.409 . S
C1767 C1766 1.362 . S
H1768 C1774 0.930 . S
H1769 C1777 0.930 . S
H1770 C1778 0.930 . S
H1771 C1779 0.930 . S
H1772 C1782 0.930 . S
H1773 C1783 0.930 . S
C1774 H1768 0.930 . S
C1774 C1775 1.355 . S
C1774 C1776 1.415 . S
C1775 C1774 1.355 . S
C1775 C1777 1.419 . S
C1776 C1774 1.415 . S
C1776 C1781 1.425 . S
C1776 C1783 1.409 . S
C1777 H1769 0.930 . S
C1777 C1775 1.419 . S
C1777 C1778 1.362 . S
C1778 H1770 0.930 . S
C1778 C1777 1.362 . S
C1778 C1781 1.409 . S
C1779 H1771 0.930 . S
C1779 C1780 1.355 . S
C1779 C1781 1.415 . S
C1780 C1779 1.355 . S
C1780 C1782 1.419 . S
C1781 C1776 1.425 . S
C1781 C1778 1.409 . S
C1781 C1779 1.415 . S
C1782 H1772 0.930 . S
C1782 C1780 1.419 . S
C1782 C1783 1.362 . S
C1783 H1773 0.930 . S
C1783 C1776 1.409 . S
C1783 C1782 1.362 . S
H1784 C1790 0.930 . S
H1785 C1793 0.930 . S
H1786 C1794 0.930 . S
H1787 C1795 0.930 . S
H1788 C1798 0.930 . S
H1789 C1799 0.930 . S
C1790 H1784 0.930 . S
C1790 C1791 1.355 1_455 S
C1790 C1792 1.415 . S
C1791 C1790 1.355 1_655 S
C1791 C1793 1.419 . S
C1792 C1790 1.415 . S
C1792 C1797 1.425 1_455 S
C1792 C1799 1.409 . S
C1793 H1785 0.930 . S
C1793 C1791 1.419 . S
C1793 C1794 1.362 . S
C1794 H1786 0.930 . S
C1794 C1793 1.362 . S
C1794 C1797 1.409 . S
C1795 H1787 0.930 . S
C1795 C1796 1.375 . S
C1795 C1797 1.415 . S
C1796 C1795 1.375 . S
C1796 C1798 1.398 1_655 S
C1797 C1792 1.425 1_655 S
C1797 C1794 1.409 . S
C1797 C1795 1.415 . S
C1798 H1788 0.930 . S
C1798 C1796 1.398 1_455 S
C1798 C1799 1.362 . S
C1799 H1789 0.930 . S
C1799 C1792 1.409 . S
C1799 C1798 1.362 . S
H1800 C1806 0.930 . S
H1801 C1809 0.930 . S
H1802 C1810 0.930 . S
H1803 C1811 0.930 . S
H1804 C1814 0.930 . S
H1805 C1815 0.930 . S
C1806 H1800 0.930 . S
C1806 C1807 1.355 . S
C1806 C1808 1.415 . S
C1807 C1806 1.355 . S
C1807 C1809 1.419 . S
C1808 C1806 1.415 . S
C1808 C1813 1.425 . S
C1808 C1815 1.409 . S
C1809 H1801 0.930 . S
C1809 C1807 1.419 . S
C1809 C1810 1.362 . S
C1810 H1802 0.930 . S
C1810 C1809 1.362 . S
C1810 C1813 1.409 . S
C1811 H1803 0.930 . S
C1811 C1812 1.355 . S
C1811 C1813 1.415 . S
C1812 C1811 1.355 . S
C1812 C1814 1.419 . S
C1813 C1808 1.425 . S
C1813 C1810 1.409 . S
C1813 C1811 1.415 . S
C1814 H1804 0.930 . S
C1814 C1812 1.419 . S
C1814 C1815 1.362 . S
C1815 H1805 0.930 . S
C1815 C1808 1.409 . S
C1815 C1814 1.362 . S
H1816 C1822 0.930 . S
H1817 C1825 0.930 . S
H1818 C1826 0.930 . S
H1819 C1827 0.930 . S
H1820 C1830 0.930 . S
H1821 C1831 0.930 . S
C1822 H1816 0.930 . S
C1822 C1823 1.355 . S
C1822 C1824 1.415 . S
C1823 C1822 1.355 . S
C1823 C1825 1.419 . S
C1824 C1822 1.415 . S
C1824 C1829 1.425 . S
C1824 C1831 1.409 . S
C1825 H1817 0.930 . S
C1825 C1823 1.419 . S
C1825 C1826 1.362 . S
C1826 H1818 0.930 . S
C1826 C1825 1.362 . S
C1826 C1829 1.409 . S
C1827 H1819 0.930 . S
C1827 C1828 1.355 . S
C1827 C1829 1.415 . S
C1828 C1827 1.355 . S
C1828 C1830 1.419 . S
C1829 C1824 1.425 . S
C1829 C1826 1.409 . S
C1829 C1827 1.415 . S
C1830 H1820 0.930 . S
C1830 C1828 1.419 . S
C1830 C1831 1.362 . S
C1831 H1821 0.930 . S
C1831 C1824 1.409 . S
C1831 C1830 1.362 . S
H1832 C1838 0.930 . S
H1833 C1841 0.930 . S
H1834 C1842 0.930 . S
H1835 C1843 0.930 . S
H1836 C1846 0.930 . S
H1837 C1847 0.930 . S
C1838 H1832 0.930 . S
C1838 C1839 1.355 1_565 S
C1838 C1840 1.415 . S
C1839 C1838 1.355 1_545 S
C1839 C1841 1.419 . S
C1840 C1838 1.415 . S
C1840 C1845 1.425 1_565 S
C1840 C1847 1.409 . S
C1841 H1833 0.930 . S
C1841 C1839 1.419 . S
C1841 C1842 1.362 . S
C1842 H1834 0.930 . S
C1842 C1841 1.362 . S
C1842 C1845 1.409 . S
C1843 H1835 0.930 . S
C1843 C1844 1.362 . S
C1843 C1845 1.415 . S
C1844 C1843 1.362 . S
C1844 C1846 1.410 1_545 S
C1845 C1840 1.425 1_545 S
C1845 C1842 1.409 . S
C1845 C1843 1.415 . S
C1846 H1836 0.930 . S
C1846 C1844 1.410 1_565 S
C1846 C1847 1.362 . S
C1847 H1837 0.930 . S
C1847 C1840 1.409 . S
C1847 C1846 1.362 . S
H1848 C1854 0.930 . S
H1849 C1857 0.947 . S
H1850 C1858 0.930 . S
H1851 C1859 0.930 . S
H1852 C1862 0.930 . S
H1853 C1863 0.930 . S
C1854 H1848 0.930 . S
C1854 C1855 1.355 . S
C1854 C1856 1.415 . S
C1855 C1854 1.355 . S
C1855 C1857 1.419 . S
C1856 C1854 1.415 . S
C1856 C1861 1.425 . S
C1856 C1863 1.409 . S
C1857 H1849 0.947 . S
C1857 C1855 1.419 . S
C1857 C1858 1.362 . S
C1858 H1850 0.930 . S
C1858 C1857 1.362 . S
C1858 C1861 1.409 . S
C1859 H1851 0.930 . S
C1859 C1860 1.355 . S
C1859 C1861 1.415 . S
C1860 C1859 1.355 . S
C1860 C1862 1.419 . S
C1861 C1856 1.425 . S
C1861 C1858 1.409 . S
C1861 C1859 1.415 . S
C1862 H1852 0.930 . S
C1862 C1860 1.419 . S
C1862 C1863 1.362 . S
C1863 H1853 0.930 . S
C1863 C1856 1.409 . S
C1863 C1862 1.362 . S
H1864 C1870 0.930 . S
H1865 C1873 0.930 . S
H1866 C1874 0.930 . S
H1867 C1875 0.930 . S
H1868 C1878 0.930 . S
H1869 C1879 0.930 . S
C1870 H1864 0.930 . S
C1870 C1871 1.355 . S
C1870 C1872 1.415 . S
C1871 C1870 1.355 . S
C1871 C1873 1.419 . S
C1872 C1870 1.415 . S
C1872 C1877 1.425 . S
C1872 C1879 1.409 . S
C1873 H1865 0.930 . S
C1873 C1871 1.419 . S
C1873 C1874 1.362 . S
C1874 H1866 0.930 . S
C1874 C1873 1.362 . S
C1874 C1877 1.409 . S
C1875 H1867 0.930 . S
C1875 C1876 1.355 . S
C1875 C1877 1.415 . S
C1876 C1875 1.355 . S
C1876 C1878 1.419 . S
C1877 C1872 1.425 . S
C1877 C1874 1.409 . S
C1877 C1875 1.415 . S
C1878 H1868 0.930 . S
C1878 C1876 1.419 . S
C1878 C1879 1.362 . S
C1879 H1869 0.930 . S
C1879 C1872 1.409 . S
C1879 C1878 1.362 . S
H1880 C1886 0.930 . S
H1881 C1889 0.930 . S
H1882 C1890 0.930 . S
H1883 C1891 0.930 . S
H1884 C1894 0.930 . S
H1885 C1895 0.930 . S
C1886 H1880 0.930 . S
C1886 C1887 1.355 . S
C1886 C1888 1.415 . S
C1887 C1886 1.355 . S
C1887 C1889 1.419 . S
C1888 C1886 1.415 . S
C1888 C1893 1.425 . S
C1888 C1895 1.409 . S
C1889 H1881 0.930 . S
C1889 C1887 1.419 . S
C1889 C1890 1.362 . S
C1890 H1882 0.930 . S
C1890 C1889 1.362 . S
C1890 C1893 1.409 . S
C1891 H1883 0.930 . S
C1891 C1892 1.355 . S
C1891 C1893 1.415 . S
C1892 C1891 1.355 . S
C1892 C1894 1.419 . S
C1893 C1888 1.425 . S
C1893 C1890 1.409 . S
C1893 C1891 1.415 . S
C1894 H1884 0.930 . S
C1894 C1892 1.419 . S
C1894 C1895 1.362 . S
C1895 H1885 0.930 . S
C1895 C1888 1.409 . S
C1895 C1894 1.362 . S
H1896 C1902 0.930 . S
H1897 C1905 0.930 . S
H1898 C1906 0.930 . S
H1899 C1907 0.930 . S
H1900 C1910 0.930 . S
H1901 C1911 0.930 . S
C1902 H1896 0.930 . S
C1902 C1903 1.355 . S
C1902 C1904 1.415 . S
C1903 C1902 1.355 . S
C1903 C1905 1.419 . S
C1904 C1902 1.415 . S
C1904 C1909 1.425 . S
C1904 C1911 1.409 . S
C1905 H1897 0.930 . S
C1905 C1903 1.419 . S
C1905 C1906 1.362 . S
C1906 H1898 0.930 . S
C1906 C1905 1.362 . S
C1906 C1909 1.409 . S
C1907 H1899 0.930 . S
C1907 C1908 1.355 . S
C1907 C1909 1.415 . S
C1908 C1907 1.355 . S
C1908 C1910 1.419 . S
C1909 C1904 1.425 . S
C1909 C1906 1.409 . S
C1909 C1907 1.415 . S
C1910 H1900 0.930 . S
C1910 C1908 1.419 . S
C1910 C1911 1.362 . S
C1911 H1901 0.930 . S
C1911 C1904 1.409 . S
C1911 C1910 1.362 . S
H1912 C1918 0.930 . S
H1913 C1921 0.928 . S
H1914 C1922 0.930 . S
H1915 C1923 0.930 . S
H1916 C1926 0.930 . S
H1917 C1927 0.928 . S
C1918 H1912 0.930 . S
C1918 C1919 1.360 . S
C1918 C1920 1.415 1_556 S
C1919 C1918 1.360 . S
C1919 C1921 1.412 1_556 S
C1920 C1918 1.415 1_554 S
C1920 C1925 1.429 . S
C1920 C1927 1.412 . S
C1921 H1913 0.928 . S
C1921 C1919 1.412 1_554 S
C1921 C1922 1.362 . S
C1922 H1914 0.930 . S
C1922 C1921 1.362 . S
C1922 C1925 1.409 . S
C1923 H1915 0.930 . S
C1923 C1924 1.355 . S
C1923 C1925 1.415 . S
C1924 C1923 1.355 . S
C1924 C1926 1.419 . S
C1925 C1920 1.429 . S
C1925 C1922 1.409 . S
C1925 C1923 1.415 . S
C1926 H1916 0.930 . S
C1926 C1924 1.419 . S
C1926 C1927 1.363 . S
C1927 H1917 0.928 . S
C1927 C1920 1.412 . S
C1927 C1926 1.363 . S
H1928 C1934 0.930 . S
H1929 C1937 0.930 . S
H1930 C1938 0.930 . S
H1931 C1939 0.930 . S
H1932 C1942 0.930 . S
H1933 C1943 0.930 . S
C1934 H1928 0.930 . S
C1934 C1935 1.355 . S
C1934 C1936 1.415 . S
C1935 C1934 1.355 . S
C1935 C1937 1.419 . S
C1936 C1934 1.415 . S
C1936 C1941 1.425 . S
C1936 C1943 1.409 . S
C1937 H1929 0.930 . S
C1937 C1935 1.419 . S
C1937 C1938 1.362 . S
C1938 H1930 0.930 . S
C1938 C1937 1.362 . S
C1938 C1941 1.409 . S
C1939 H1931 0.930 . S
C1939 C1940 1.355 . S
C1939 C1941 1.415 . S
C1940 C1939 1.355 . S
C1940 C1942 1.419 . S
C1941 C1936 1.425 . S
C1941 C1938 1.409 . S
C1941 C1939 1.415 . S
C1942 H1932 0.930 . S
C1942 C1940 1.419 . S
C1942 C1943 1.362 . S
C1943 H1933 0.930 . S
C1943 C1936 1.409 . S
C1943 C1942 1.362 . S
H1944 C1950 0.930 . S
H1945 C1953 0.930 . S
H1946 C1954 0.930 . S
H1947 C1955 0.930 . S
H1948 C1958 0.930 . S
H1949 C1959 0.930 . S
C1950 H1944 0.930 . S
C1950 C1951 1.355 . S
C1950 C1952 1.415 . S
C1951 C1950 1.355 . S
C1951 C1953 1.419 . S
C1952 C1950 1.415 . S
C1952 C1957 1.425 . S
C1952 C1959 1.409 . S
C1953 H1945 0.930 . S
C1953 C1951 1.419 . S
C1953 C1954 1.362 . S
C1954 H1946 0.930 . S
C1954 C1953 1.362 . S
C1954 C1957 1.409 . S
C1955 H1947 0.930 . S
C1955 C1956 1.355 . S
C1955 C1957 1.415 . S
C1956 C1955 1.355 . S
C1956 C1958 1.419 . S
C1957 C1952 1.425 . S
C1957 C1954 1.409 . S
C1957 C1955 1.415 . S
C1958 H1948 0.930 . S
C1958 C1956 1.419 . S
C1958 C1959 1.362 . S
C1959 H1949 0.930 . S
C1959 C1952 1.409 . S
C1959 C1958 1.362 . S
H1960 C1966 0.930 . S
H1961 C1969 0.930 . S
H1962 C1970 0.930 . S
H1963 C1971 0.930 . S
H1964 C1974 0.930 . S
H1965 C1975 0.930 . S
C1966 H1960 0.930 . S
C1966 C1967 1.355 . S
C1966 C1968 1.415 . S
C1967 C1966 1.355 . S
C1967 C1969 1.419 . S
C1968 C1966 1.415 . S
C1968 C1973 1.425 . S
C1968 C1975 1.409 . S
C1969 H1961 0.930 . S
C1969 C1967 1.419 . S
C1969 C1970 1.362 . S
C1970 H1962 0.930 . S
C1970 C1969 1.362 . S
C1970 C1973 1.409 . S
C1971 H1963 0.930 . S
C1971 C1972 1.355 . S
C1971 C1973 1.415 . S
C1972 C1971 1.355 . S
C1972 C1974 1.419 . S
C1973 C1968 1.425 . S
C1973 C1970 1.409 . S
C1973 C1971 1.415 . S
C1974 H1964 0.930 . S
C1974 C1972 1.419 . S
C1974 C1975 1.362 . S
C1975 H1965 0.930 . S
C1975 C1968 1.409 . S
C1975 C1974 1.362 . S
H1976 C1982 0.930 . S
H1977 C1985 0.930 . S
H1978 C1986 0.930 . S
H1979 C1987 0.930 . S
H1980 C1990 0.930 . S
H1981 C1991 0.930 . S
C1982 H1976 0.930 . S
C1982 C1983 1.353 . S
C1982 C1984 1.415 . S
C1983 C1982 1.353 . S
C1983 C1985 1.421 1_655 S
C1984 C1982 1.415 . S
C1984 C1989 1.425 1_655 S
C1984 C1991 1.409 . S
C1985 H1977 0.930 . S
C1985 C1983 1.421 1_455 S
C1985 C1986 1.362 . S
C1986 H1978 0.930 . S
C1986 C1985 1.362 . S
C1986 C1989 1.409 . S
C1987 H1979 0.930 . S
C1987 C1988 1.355 . S
C1987 C1989 1.415 . S
C1988 C1987 1.355 . S
C1988 C1990 1.419 1_455 S
C1989 C1984 1.425 1_455 S
C1989 C1986 1.409 . S
C1989 C1987 1.415 . S
C1990 H1980 0.930 . S
C1990 C1988 1.419 1_655 S
C1990 C1991 1.362 . S
C1991 H1981 0.930 . S
C1991 C1984 1.409 . S
C1991 C1990 1.362 . S
H1992 C1998 0.930 . S
H1993 C2001 0.930 . S
H1994 C2002 0.930 . S
H1995 C2003 0.930 . S
H1996 C2006 0.930 . S
H1997 C2007 0.930 . S
C1998 H1992 0.930 . S
C1998 C1999 1.355 . S
C1998 C2000 1.415 . S
C1999 C1998 1.355 . S
C1999 C2001 1.419 . S
C2000 C1998 1.415 . S
C2000 C2005 1.425 . S
C2000 C2007 1.409 . S
C2001 H1993 0.930 . S
C2001 C1999 1.419 . S
C2001 C2002 1.362 . S
C2002 H1994 0.930 . S
C2002 C2001 1.362 . S
C2002 C2005 1.409 . S
C2003 H1995 0.930 . S
C2003 C2004 1.355 . S
C2003 C2005 1.415 . S
C2004 C2003 1.355 . S
C2004 C2006 1.419 . S
C2005 C2000 1.425 . S
C2005 C2002 1.409 . S
C2005 C2003 1.415 . S
C2006 H1996 0.930 . S
C2006 C2004 1.419 . S
C2006 C2007 1.362 . S
C2007 H1997 0.930 . S
C2007 C2000 1.409 . S
C2007 C2006 1.362 . S
H2008 C2014 0.930 . S
H2009 C2017 0.930 . S
H2010 C2018 0.930 . S
H2011 C2019 0.930 . S
H2012 C2022 0.930 . S
H2013 C2023 0.930 . S
C2014 H2008 0.930 . S
C2014 C2015 1.355 . S
C2014 C2016 1.415 . S
C2015 C2014 1.355 . S
C2015 C2017 1.419 . S
C2016 C2014 1.415 . S
C2016 C2021 1.425 . S
C2016 C2023 1.409 . S
C2017 H2009 0.930 . S
C2017 C2015 1.419 . S
C2017 C2018 1.362 . S
C2018 H2010 0.930 . S
C2018 C2017 1.362 . S
C2018 C2021 1.409 . S
C2019 H2011 0.930 . S
C2019 C2020 1.355 . S
C2019 C2021 1.415 . S
C2020 C2019 1.355 . S
C2020 C2022 1.419 . S
C2021 C2016 1.425 . S
C2021 C2018 1.409 . S
C2021 C2019 1.415 . S
C2022 H2012 0.930 . S
C2022 C2020 1.419 . S
C2022 C2023 1.362 . S
C2023 H2013 0.930 . S
C2023 C2016 1.409 . S
C2023 C2022 1.362 . S
H2024 C2030 0.930 . S
H2025 C2033 0.930 . S
H2026 C2034 0.930 . S
H2027 C2035 0.930 1_545 S
H2028 C2038 0.930 . S
H2029 C2039 0.930 . S
C2030 H2024 0.930 . S
C2030 C2031 1.365 . S
C2030 C2032 1.415 . S
C2031 C2030 1.365 . S
C2031 C2033 1.412 1_565 S
C2032 C2030 1.415 . S
C2032 C2037 1.425 . S
C2032 C2039 1.409 . S
C2033 H2025 0.930 . S
C2033 C2031 1.412 1_545 S
C2033 C2034 1.362 . S
C2034 H2026 0.930 . S
C2034 C2033 1.362 . S
C2034 C2037 1.409 1_545 S
C2035 H2027 0.930 1_565 S
C2035 C2036 1.355 . S
C2035 C2037 1.415 . S
C2036 C2035 1.355 . S
C2036 C2038 1.419 . S
C2037 C2032 1.425 . S
C2037 C2034 1.409 1_565 S
C2037 C2035 1.415 . S
C2038 H2028 0.930 . S
C2038 C2036 1.419 . S
C2038 C2039 1.362 . S
C2039 H2029 0.930 . S
C2039 C2032 1.409 . S
C2039 C2038 1.362 . S
H2040 C2046 0.930 . S
H2041 C2049 0.930 . S
H2042 C2050 0.930 . S
H2043 C2051 0.930 . S
H2044 C2054 0.930 1_565 S
H2045 C2055 0.930 1_565 S
C2046 H2040 0.930 . S
C2046 C2047 1.355 . S
C2046 C2048 1.415 . S
C2047 C2046 1.355 . S
C2047 C2049 1.419 . S
C2048 C2046 1.415 . S
C2048 C2053 1.425 . S
C2048 C2055 1.409 . S
C2049 H2041 0.930 . S
C2049 C2047 1.419 . S
C2049 C2050 1.362 . S
C2050 H2042 0.930 . S
C2050 C2049 1.362 . S
C2050 C2053 1.409 . S
C2051 H2043 0.930 . S
C2051 C2052 1.355 . S
C2051 C2053 1.415 . S
C2052 C2051 1.355 . S
C2052 C2054 1.419 . S
C2053 C2048 1.425 . S
C2053 C2050 1.409 . S
C2053 C2051 1.415 . S
C2054 H2044 0.930 1_545 S
C2054 C2052 1.419 . S
C2054 C2055 1.362 . S
C2055 H2045 0.930 1_545 S
C2055 C2048 1.409 . S
C2055 C2054 1.362 . S
H2056 C2062 0.930 . S
H2057 C2065 0.930 . S
H2058 C2066 0.930 . S
H2059 C2067 0.930 . S
H2060 C2070 0.930 . S
H2061 C2071 0.930 . S
C2062 H2056 0.930 . S
C2062 C2063 1.355 . S
C2062 C2064 1.415 . S
C2063 C2062 1.355 . S
C2063 C2065 1.419 . S
C2064 C2062 1.415 . S
C2064 C2069 1.425 . S
C2064 C2071 1.409 . S
C2065 H2057 0.930 . S
C2065 C2063 1.419 . S
C2065 C2066 1.362 . S
C2066 H2058 0.930 . S
C2066 C2065 1.362 . S
C2066 C2069 1.409 . S
C2067 H2059 0.930 . S
C2067 C2068 1.355 . S
C2067 C2069 1.415 . S
C2068 C2067 1.355 . S
C2068 C2070 1.419 . S
C2069 C2064 1.425 . S
C2069 C2066 1.409 . S
C2069 C2067 1.415 . S
C2070 H2060 0.930 . S
C2070 C2068 1.419 . S
C2070 C2071 1.362 . S
C2071 H2061 0.930 . S
C2071 C2064 1.409 . S
C2071 C2070 1.362 . S
H2072 C2078 0.930 . S
H2073 C2081 0.930 . S
H2074 C2082 0.930 . S
H2075 C2083 0.930 . S
H2076 C2086 0.930 . S
H2077 C2087 0.930 . S
C2078 H2072 0.930 . S
C2078 C2079 1.355 . S
C2078 C2080 1.415 . S
C2079 C2078 1.355 . S
C2079 C2081 1.419 . S
C2080 C2078 1.415 . S
C2080 C2085 1.425 . S
C2080 C2087 1.409 . S
C2081 H2073 0.930 . S
C2081 C2079 1.419 . S
C2081 C2082 1.362 . S
C2082 H2074 0.930 . S
C2082 C2081 1.362 . S
C2082 C2085 1.409 . S
C2083 H2075 0.930 . S
C2083 C2084 1.355 . S
C2083 C2085 1.415 . S
C2084 C2083 1.355 . S
C2084 C2086 1.419 . S
C2085 C2080 1.425 . S
C2085 C2082 1.409 . S
C2085 C2083 1.415 . S
C2086 H2076 0.930 . S
C2086 C2084 1.419 . S
C2086 C2087 1.362 . S
C2087 H2077 0.930 . S
C2087 C2080 1.409 . S
C2087 C2086 1.362 . S
H2088 C2094 0.930 . S
H2089 C2097 0.930 . S
H2090 C2098 0.930 . S
H2091 C2099 0.930 . S
H2092 C2102 0.930 . S
H2093 C2103 0.930 . S
C2094 H2088 0.930 . S
C2094 C2095 1.355 . S
C2094 C2096 1.415 . S
C2095 C2094 1.355 . S
C2095 C2097 1.419 . S
C2096 C2094 1.415 . S
C2096 C2101 1.425 . S
C2096 C2103 1.409 . S
C2097 H2089 0.930 . S
C2097 C2095 1.419 . S
C2097 C2098 1.362 . S
C2098 H2090 0.930 . S
C2098 C2097 1.362 . S
C2098 C2101 1.409 . S
C2099 H2091 0.930 . S
C2099 C2100 1.355 . S
C2099 C2101 1.415 . S
C2100 C2099 1.355 . S
C2100 C2102 1.419 . S
C2101 C2096 1.425 . S
C2101 C2098 1.409 . S
C2101 C2099 1.415 . S
C2102 H2092 0.930 . S
C2102 C2100 1.419 . S
C2102 C2103 1.362 . S
C2103 H2093 0.930 . S
C2103 C2096 1.409 . S
C2103 C2102 1.362 . S
H2104 C2110 0.930 . S
H2105 C2113 0.930 . S
H2106 C2114 0.930 . S
H2107 C2115 0.927 . S
H2108 C2118 0.930 . S
H2109 C2119 0.930 . S
C2110 H2104 0.930 . S
C2110 C2111 1.365 . S
C2110 C2112 1.415 . S
C2111 C2110 1.365 . S
C2111 C2113 1.410 1_556 S
C2112 C2110 1.415 . S
C2112 C2117 1.409 1_556 S
C2112 C2119 1.409 . S
C2113 H2105 0.930 . S
C2113 C2111 1.410 1_554 S
C2113 C2114 1.362 . S
C2114 H2106 0.930 . S
C2114 C2113 1.362 . S
C2114 C2117 1.428 . S
C2115 H2107 0.927 . S
C2115 C2116 1.357 1_554 S
C2115 C2117 1.412 . S
C2116 C2115 1.357 1_556 S
C2116 C2118 1.419 . S
C2117 C2112 1.409 1_554 S
C2117 C2114 1.428 . S
C2117 C2115 1.412 . S
C2118 H2108 0.930 . S
C2118 C2116 1.419 . S
C2118 C2119 1.362 . S
C2119 H2109 0.930 . S
C2119 C2112 1.409 . S
C2119 C2118 1.362 . S
H2120 C2126 0.930 . S
H2121 C2129 0.930 . S
H2122 C2130 0.930 . S
H2123 C2131 0.930 . S
H2124 C2134 0.930 . S
H2125 C2135 0.930 . S
C2126 H2120 0.930 . S
C2126 C2127 1.355 . S
C2126 C2128 1.415 . S
C2127 C2126 1.355 . S
C2127 C2129 1.419 . S
C2128 C2126 1.415 . S
C2128 C2133 1.425 . S
C2128 C2135 1.409 . S
C2129 H2121 0.930 . S
C2129 C2127 1.419 . S
C2129 C2130 1.362 . S
C2130 H2122 0.930 . S
C2130 C2129 1.362 . S
C2130 C2133 1.409 . S
C2131 H2123 0.930 . S
C2131 C2132 1.355 . S
C2131 C2133 1.415 . S
C2132 C2131 1.355 . S
C2132 C2134 1.419 . S
C2133 C2128 1.425 . S
C2133 C2130 1.409 . S
C2133 C2131 1.415 . S
C2134 H2124 0.930 . S
C2134 C2132 1.419 . S
C2134 C2135 1.362 . S
C2135 H2125 0.930 . S
C2135 C2128 1.409 . S
C2135 C2134 1.362 . S
H2136 C2142 0.930 . S
H2137 C2145 0.930 . S
H2138 C2146 0.930 . S
H2139 C2147 0.930 . S
H2140 C2150 0.930 . S
H2141 C2151 0.930 . S
C2142 H2136 0.930 . S
C2142 C2143 1.355 . S
C2142 C2144 1.415 . S
C2143 C2142 1.355 . S
C2143 C2145 1.419 . S
C2144 C2142 1.415 . S
C2144 C2149 1.425 . S
C2144 C2151 1.409 . S
C2145 H2137 0.930 . S
C2145 C2143 1.419 . S
C2145 C2146 1.362 . S
C2146 H2138 0.930 . S
C2146 C2145 1.362 . S
C2146 C2149 1.409 . S
C2147 H2139 0.930 . S
C2147 C2148 1.355 . S
C2147 C2149 1.415 . S
C2148 C2147 1.355 . S
C2148 C2150 1.419 . S
C2149 C2144 1.425 . S
C2149 C2146 1.409 . S
C2149 C2147 1.415 . S
C2150 H2140 0.930 . S
C2150 C2148 1.419 . S
C2150 C2151 1.362 . S
C2151 H2141 0.930 . S
C2151 C2144 1.409 . S
C2151 C2150 1.362 . S
H2152 C2158 0.930 . S
H2153 C2161 0.930 . S
H2154 C2162 0.930 . S
H2155 C2163 0.930 . S
H2156 C2166 0.930 . S
H2157 C2167 0.930 . S
C2158 H2152 0.930 . S
C2158 C2159 1.355 . S
C2158 C2160 1.415 . S
C2159 C2158 1.355 . S
C2159 C2161 1.419 . S
C2160 C2158 1.415 . S
C2160 C2165 1.425 . S
C2160 C2167 1.409 . S
C2161 H2153 0.930 . S
C2161 C2159 1.419 . S
C2161 C2162 1.362 . S
C2162 H2154 0.930 . S
C2162 C2161 1.362 . S
C2162 C2165 1.409 . S
C2163 H2155 0.930 . S
C2163 C2164 1.355 . S
C2163 C2165 1.415 . S
C2164 C2163 1.355 . S
C2164 C2166 1.419 . S
C2165 C2160 1.425 . S
C2165 C2162 1.409 . S
C2165 C2163 1.415 . S
C2166 H2156 0.930 . S
C2166 C2164 1.419 . S
C2166 C2167 1.362 . S
C2167 H2157 0.930 . S
C2167 C2160 1.409 . S
C2167 C2166 1.362 . S
H2168 C2174 0.930 . S
H2169 C2177 0.930 . S
H2170 C2178 0.930 . S
H2171 C2179 0.930 . S
H2172 C2182 0.930 1_455 S
H2173 C2183 0.930 . S
C2174 H2168 0.930 . S
C2174 C2175 1.355 1_455 S
C2174 C2176 1.415 1_455 S
C2175 C2174 1.355 1_655 S
C2175 C2177 1.419 . S
C2176 C2174 1.415 1_655 S
C2176 C2181 1.425 . S
C2176 C2183 1.409 1_655 S
C2177 H2169 0.930 . S
C2177 C2175 1.419 . S
C2177 C2178 1.362 . S
C2178 H2170 0.930 . S
C2178 C2177 1.362 . S
C2178 C2181 1.409 . S
C2179 H2171 0.930 . S
C2179 C2180 1.355 . S
C2179 C2181 1.415 . S
C2180 C2179 1.355 . S
C2180 C2182 1.419 . S
C2181 C2176 1.425 . S
C2181 C2178 1.409 . S
C2181 C2179 1.415 . S
C2182 H2172 0.930 1_655 S
C2182 C2180 1.419 . S
C2182 C2183 1.362 1_655 S
C2183 H2173 0.930 . S
C2183 C2176 1.409 1_455 S
C2183 C2182 1.362 1_455 S
H2184 C2190 0.930 . S
H2185 C2193 0.930 . S
H2186 C2194 0.930 . S
H2187 C2195 0.930 . S
H2188 C2198 0.930 . S
H2189 C2199 0.930 . S
C2190 H2184 0.930 . S
C2190 C2191 1.355 . S
C2190 C2192 1.415 . S
C2191 C2190 1.355 . S
C2191 C2193 1.419 . S
C2192 C2190 1.415 . S
C2192 C2197 1.425 . S
C2192 C2199 1.409 . S
C2193 H2185 0.930 . S
C2193 C2191 1.419 . S
C2193 C2194 1.362 . S
C2194 H2186 0.930 . S
C2194 C2193 1.362 . S
C2194 C2197 1.409 . S
C2195 H2187 0.930 . S
C2195 C2196 1.355 . S
C2195 C2197 1.415 . S
C2196 C2195 1.355 . S
C2196 C2198 1.419 . S
C2197 C2192 1.425 . S
C2197 C2194 1.409 . S
C2197 C2195 1.415 . S
C2198 H2188 0.930 . S
C2198 C2196 1.419 . S
C2198 C2199 1.362 . S
C2199 H2189 0.930 . S
C2199 C2192 1.409 . S
C2199 C2198 1.362 . S
H2200 C2206 0.930 . S
H2201 C2209 0.930 . S
H2202 C2210 0.930 . S
H2203 C2211 0.930 . S
H2204 C2214 0.930 . S
H2205 C2215 0.930 . S
C2206 H2200 0.930 . S
C2206 C2207 1.355 . S
C2206 C2208 1.415 . S
C2207 C2206 1.355 . S
C2207 C2209 1.419 . S
C2208 C2206 1.415 . S
C2208 C2213 1.425 . S
C2208 C2215 1.409 . S
C2209 H2201 0.930 . S
C2209 C2207 1.419 . S
C2209 C2210 1.362 . S
C2210 H2202 0.930 . S
C2210 C2209 1.362 . S
C2210 C2213 1.409 . S
C2211 H2203 0.930 . S
C2211 C2212 1.355 . S
C2211 C2213 1.415 . S
C2212 C2211 1.355 . S
C2212 C2214 1.419 . S
C2213 C2208 1.425 . S
C2213 C2210 1.409 . S
C2213 C2211 1.415 . S
C2214 H2204 0.930 . S
C2214 C2212 1.419 . S
C2214 C2215 1.362 . S
C2215 H2205 0.930 . S
C2215 C2208 1.409 . S
C2215 C2214 1.362 . S
H2216 C2222 0.930 . S
H2217 C2225 0.930 . S
H2218 C2226 0.930 . S
H2219 C2227 0.930 . S
H2220 C2230 0.930 . S
H2221 C2231 0.928 . S
C2222 H2216 0.930 . S
C2222 C2223 1.355 1_565 S
C2222 C2224 1.415 1_565 S
C2223 C2222 1.355 1_545 S
C2223 C2225 1.419 . S
C2224 C2222 1.415 1_545 S
C2224 C2229 1.425 . S
C2224 C2231 1.410 1_545 S
C2225 H2217 0.930 . S
C2225 C2223 1.419 . S
C2225 C2226 1.362 . S
C2226 H2218 0.930 . S
C2226 C2225 1.362 . S
C2226 C2229 1.409 . S
C2227 H2219 0.930 . S
C2227 C2228 1.355 . S
C2227 C2229 1.415 . S
C2228 C2227 1.355 . S
C2228 C2230 1.419 . S
C2229 C2224 1.425 . S
C2229 C2226 1.409 . S
C2229 C2227 1.415 . S
C2230 H2220 0.930 . S
C2230 C2228 1.419 . S
C2230 C2231 1.364 1_545 S
C2231 H2221 0.928 . S
C2231 C2224 1.410 1_565 S
C2231 C2230 1.364 1_565 S
H2232 C2238 0.930 . S
H2233 C2241 0.930 . S
H2234 C2242 0.930 . S
H2235 C2243 0.930 . S
H2236 C2246 0.930 . S
H2237 C2247 0.930 . S
C2238 H2232 0.930 . S
C2238 C2239 1.355 . S
C2238 C2240 1.415 . S
C2239 C2238 1.355 . S
C2239 C2241 1.419 . S
C2240 C2238 1.415 . S
C2240 C2245 1.425 . S
C2240 C2247 1.409 . S
C2241 H2233 0.930 . S
C2241 C2239 1.419 . S
C2241 C2242 1.362 . S
C2242 H2234 0.930 . S
C2242 C2241 1.362 . S
C2242 C2245 1.409 . S
C2243 H2235 0.930 . S
C2243 C2244 1.355 . S
C2243 C2245 1.415 . S
C2244 C2243 1.355 . S
C2244 C2246 1.419 . S
C2245 C2240 1.425 . S
C2245 C2242 1.409 . S
C2245 C2243 1.415 . S
C2246 H2236 0.930 . S
C2246 C2244 1.419 . S
C2246 C2247 1.362 . S
C2247 H2237 0.930 . S
C2247 C2240 1.409 . S
C2247 C2246 1.362 . S
H2248 C2254 0.930 . S
H2249 C2257 0.930 . S
H2250 C2258 0.930 . S
H2251 C2259 0.930 . S
H2252 C2262 0.930 . S
H2253 C2263 0.930 . S
C2254 H2248 0.930 . S
C2254 C2255 1.355 . S
C2254 C2256 1.415 . S
C2255 C2254 1.355 . S
C2255 C2257 1.419 . S
C2256 C2254 1.415 . S
C2256 C2261 1.425 . S
C2256 C2263 1.409 . S
C2257 H2249 0.930 . S
C2257 C2255 1.419 . S
C2257 C2258 1.362 . S
C2258 H2250 0.930 . S
C2258 C2257 1.362 . S
C2258 C2261 1.409 . S
C2259 H2251 0.930 . S
C2259 C2260 1.355 . S
C2259 C2261 1.415 . S
C2260 C2259 1.355 . S
C2260 C2262 1.419 . S
C2261 C2256 1.425 . S
C2261 C2258 1.409 . S
C2261 C2259 1.415 . S
C2262 H2252 0.930 . S
C2262 C2260 1.419 . S
C2262 C2263 1.362 . S
C2263 H2253 0.930 . S
C2263 C2256 1.409 . S
C2263 C2262 1.362 . S
H2264 C2270 0.948 . S
H2265 C2273 0.930 . S
H2266 C2274 0.930 . S
H2267 C2275 0.930 . S
H2268 C2278 0.930 1_554 S
H2269 C2279 0.920 1_554 S
C2270 H2264 0.948 . S
C2270 C2271 1.355 . S
C2270 C2272 1.415 . S
C2271 C2270 1.355 . S
C2271 C2273 1.419 . S
C2272 C2270 1.415 . S
C2272 C2277 1.425 . S
C2272 C2279 1.417 . S
C2273 H2265 0.930 . S
C2273 C2271 1.419 . S
C2273 C2274 1.362 . S
C2274 H2266 0.930 . S
C2274 C2273 1.362 . S
C2274 C2277 1.409 . S
C2275 H2267 0.930 . S
C2275 C2276 1.355 . S
C2275 C2277 1.415 . S
C2276 C2275 1.355 . S
C2276 C2278 1.419 . S
C2277 C2272 1.425 . S
C2277 C2274 1.409 . S
C2277 C2275 1.415 . S
C2278 H2268 0.930 1_556 S
C2278 C2276 1.419 . S
C2278 C2279 1.367 . S
C2279 H2269 0.920 1_556 S
C2279 C2272 1.417 . S
C2279 C2278 1.367 . S
H2280 C2286 0.930 . S
H2281 C2289 0.930 . S
H2282 C2290 0.930 . S
H2283 C2291 0.930 . S
H2284 C2294 0.930 . S
H2285 C2295 0.930 . S
C2286 H2280 0.930 . S
C2286 C2287 1.355 . S
C2286 C2288 1.415 . S
C2287 C2286 1.355 . S
C2287 C2289 1.419 . S
C2288 C2286 1.415 . S
C2288 C2293 1.425 . S
C2288 C2295 1.409 . S
C2289 H2281 0.930 . S
C2289 C2287 1.419 . S
C2289 C2290 1.362 . S
C2290 H2282 0.930 . S
C2290 C2289 1.362 . S
C2290 C2293 1.409 . S
C2291 H2283 0.930 . S
C2291 C2292 1.355 . S
C2291 C2293 1.415 . S
C2292 C2291 1.355 . S
C2292 C2294 1.419 . S
C2293 C2288 1.425 . S
C2293 C2290 1.409 . S
C2293 C2291 1.415 . S
C2294 H2284 0.930 . S
C2294 C2292 1.419 . S
C2294 C2295 1.362 . S
C2295 H2285 0.930 . S
C2295 C2288 1.409 . S
C2295 C2294 1.362 . S
H2296 C2302 0.930 . S
H2297 C2305 0.930 . S
H2298 C2306 0.930 . S
H2299 C2307 0.930 . S
H2300 C2310 0.930 . S
H2301 C2311 0.930 . S
C2302 H2296 0.930 . S
C2302 C2303 1.355 1_556 S
C2302 C2304 1.435 . S
C2303 C2302 1.355 1_554 S
C2303 C2305 1.419 . S
C2304 C2302 1.435 . S
C2304 C2309 1.385 1_556 S
C2304 C2311 1.429 . S
C2305 H2297 0.930 . S
C2305 C2303 1.419 . S
C2305 C2306 1.362 . S
C2306 H2298 0.930 . S
C2306 C2305 1.362 . S
C2306 C2309 1.409 . S
C2307 H2299 0.930 . S
C2307 C2308 1.355 . S
C2307 C2309 1.415 . S
C2308 C2307 1.355 . S
C2308 C2310 1.419 1_554 S
C2309 C2304 1.385 1_554 S
C2309 C2306 1.409 . S
C2309 C2307 1.415 . S
C2310 H2300 0.930 . S
C2310 C2308 1.419 1_556 S
C2310 C2311 1.362 . S
C2311 H2301 0.930 . S
C2311 C2304 1.429 . S
C2311 C2310 1.362 . S
H2312 C2318 0.930 . S
H2313 C2321 0.930 . S
H2314 C2322 0.930 . S
H2315 C2323 0.930 . S
H2316 C2326 0.930 . S
H2317 C2327 0.930 . S
C2318 H2312 0.930 . S
C2318 C2319 1.355 . S
C2318 C2320 1.415 . S
C2319 C2318 1.355 . S
C2319 C2321 1.419 . S
C2320 C2318 1.415 . S
C2320 C2325 1.425 . S
C2320 C2327 1.409 . S
C2321 H2313 0.930 . S
C2321 C2319 1.419 . S
C2321 C2322 1.362 . S
C2322 H2314 0.930 . S
C2322 C2321 1.362 . S
C2322 C2325 1.409 . S
C2323 H2315 0.930 . S
C2323 C2324 1.355 . S
C2323 C2325 1.415 . S
C2324 C2323 1.355 . S
C2324 C2326 1.419 . S
C2325 C2320 1.425 . S
C2325 C2322 1.409 . S
C2325 C2323 1.415 . S
C2326 H2316 0.930 . S
C2326 C2324 1.419 . S
C2326 C2327 1.362 . S
C2327 H2317 0.930 . S
C2327 C2320 1.409 . S
C2327 C2326 1.362 . S
H2328 C2334 0.930 1_455 S
H2329 C2337 0.930 . S
H2330 C2338 0.930 . S
H2331 C2339 0.930 . S
H2332 C2342 0.930 . S
H2333 C2343 0.930 . S
C2334 H2328 0.930 1_655 S
C2334 C2335 1.355 . S
C2334 C2336 1.415 . S
C2335 C2334 1.355 . S
C2335 C2337 1.419 . S
C2336 C2334 1.415 . S
C2336 C2341 1.425 . S
C2336 C2343 1.409 1_655 S
C2337 H2329 0.930 . S
C2337 C2335 1.419 . S
C2337 C2338 1.362 . S
C2338 H2330 0.930 . S
C2338 C2337 1.362 . S
C2338 C2341 1.409 . S
C2339 H2331 0.930 . S
C2339 C2340 1.355 . S
C2339 C2341 1.415 . S
C2340 C2339 1.355 . S
C2340 C2342 1.419 1_655 S
C2341 C2336 1.425 . S
C2341 C2338 1.409 . S
C2341 C2339 1.415 . S
C2342 H2332 0.930 . S
C2342 C2340 1.419 1_455 S
C2342 C2343 1.362 . S
C2343 H2333 0.930 . S
C2343 C2336 1.409 1_455 S
C2343 C2342 1.362 . S
H2344 C2350 0.930 . S
H2345 C2353 0.930 . S
H2346 C2354 0.930 . S
H2347 C2355 0.930 . S
H2348 C2358 0.930 . S
H2349 C2359 0.930 . S
C2350 H2344 0.930 . S
C2350 C2351 1.355 . S
C2350 C2352 1.415 . S
C2351 C2350 1.355 . S
C2351 C2353 1.419 . S
C2352 C2350 1.415 . S
C2352 C2357 1.425 . S
C2352 C2359 1.409 . S
C2353 H2345 0.930 . S
C2353 C2351 1.419 . S
C2353 C2354 1.362 . S
C2354 H2346 0.930 . S
C2354 C2353 1.362 . S
C2354 C2357 1.409 . S
C2355 H2347 0.930 . S
C2355 C2356 1.355 . S
C2355 C2357 1.415 . S
C2356 C2355 1.355 . S
C2356 C2358 1.419 . S
C2357 C2352 1.425 . S
C2357 C2354 1.409 . S
C2357 C2355 1.415 . S
C2358 H2348 0.930 . S
C2358 C2356 1.419 . S
C2358 C2359 1.362 . S
C2359 H2349 0.930 . S
C2359 C2352 1.409 . S
C2359 C2358 1.362 . S
H2360 C2366 0.930 . S
H2361 C2369 0.930 . S
H2362 C2370 0.930 . S
H2363 C2371 0.930 . S
H2364 C2374 0.928 1_655 S
H2365 C2375 0.930 . S
C2366 H2360 0.930 . S
C2366 C2367 1.355 1_655 S
C2366 C2368 1.415 1_655 S
C2367 C2366 1.355 1_455 S
C2367 C2369 1.419 . S
C2368 C2366 1.415 1_455 S
C2368 C2373 1.425 . S
C2368 C2375 1.409 1_455 S
C2369 H2361 0.930 . S
C2369 C2367 1.419 . S
C2369 C2370 1.362 . S
C2370 H2362 0.930 . S
C2370 C2369 1.362 . S
C2370 C2373 1.409 . S
C2371 H2363 0.930 . S
C2371 C2372 1.355 . S
C2371 C2373 1.415 . S
C2372 C2371 1.355 . S
C2372 C2374 1.419 . S
C2373 C2368 1.425 . S
C2373 C2370 1.409 . S
C2373 C2371 1.415 . S
C2374 H2364 0.928 1_455 S
C2374 C2372 1.419 . S
C2374 C2375 1.362 1_455 S
C2375 H2365 0.930 . S
C2375 C2368 1.409 1_655 S
C2375 C2374 1.362 1_655 S
C1236 C1217 1.721 . S
C1231 C15 1.803 . S
C1252 C1184 1.594 . S
C1247 C55 1.551 . S
C1268 C1206 0.817 . S
C1263 C95 0.925 . S
C1284 C1195 1.562 . S
C1279 C135 1.557 . S
C1300 C1118 1.710 . S
C1295 C175 1.792 . S
C1311 C215 1.502 . S
C1316 C1129 1.522 . S
C1332 C1096 1.593 . S
C1327 C255 1.561 . S
C1343 C295 0.960 . S
C1348 C1107 0.937 . S
C1364 C1173 1.752 . S
C1359 C335 1.794 . S
C1375 C375 1.550 . S
C1380 C1151 1.564 . S
C1391 C415 1.560 . S
C1396 C1140 1.599 . S
C1412 C1162 0.796 . S
C1407 C455 0.918 . S
C1428 C1085 1.698 . S
C1423 C495 1.803 . S
C1439 C535 1.557 . S
C1444 C1052 1.591 . S
C1460 C1074 0.795 . S
C1455 C575 0.921 1_545 S
C1471 C615 1.540 . S
C1476 C1063 1.550 . S
C1492 C986 1.721 . S
C1487 C655 1.783 . S
C1508 C997 1.527 . S
C1503 C695 1.568 . S
C1519 C735 1.474 . S
C1524 C964 1.609 . S
C1535 C775 0.966 . S
C1540 C975 0.964 . S
C1551 C815 1.797 . S
C1556 C1041 1.699 . S
C1567 C855 1.503 . S
C1572 C1019 1.508 . S
C1588 C1008 1.589 . S
C1583 C895 1.555 . S
C1599 C935 0.941 . S
C1604 C1030 0.874 . S
C1620 C965 1.631 . S
C1615 C21 1.680 . S
C1636 C976 1.693 . S
C1631 C61 1.806 . S
C1647 C101 0.886 1_545 S
C1652 C987 0.868 . S
C1663 C141 0.983 . S
C1668 C998 0.997 . S
C1684 C1009 1.636 . S
C1679 C181 1.669 . S
C1695 C221 1.003 . S
C1700 C1020 0.927 . S
C1716 C1031 1.690 . S
C1711 C261 1.799 . S
C1732 C1042 0.851 . S
C1727 C301 0.896 1_554 S
C1748 C1053 1.652 . S
C1743 C341 1.676 . S
C1759 C381 0.978 . S
C1764 C1064 1.005 . S
C1775 C421 1.842 . S
C1780 C1075 1.774 . S
C1791 C461 0.837 . S
C1796 C1086 0.905 . S
C1807 C501 1.648 . S
C1812 C1097 1.635 . S
C1823 C541 1.638 . S
C1828 C1108 1.748 . S
C1839 C581 0.893 1_545 S
C1844 C1119 0.898 . S
C1855 C621 1.015 . S
C1860 C1130 1.007 . S
C1871 C661 1.654 . S
C1876 C1141 1.645 . S
C1892 C1152 0.943 . S
C1887 C701 0.928 . S
C1908 C1163 1.714 . S
C1903 C741 1.646 . S
C1924 C1174 0.860 . S
C1919 C781 0.854 . S
C1940 C1185 1.647 . S
C1935 C821 1.654 . S
C1951 C861 1.002 . S
C1956 C1196 0.977 . S
C1967 C901 1.710 . S
C1972 C1207 1.772 . S
C1983 C941 0.856 . S
C1988 C1218 0.867 . S
C1999 C2 1.634 . S
C2004 C1058 1.616 . S
C2020 C1091 1.749 . S
C2015 C42 1.805 . S
C2031 C82 1.563 . S
C2036 C1069 1.522 . S
C2052 C1080 1.608 . S
C2047 C122 1.599 . S
C2063 C162 1.650 . S
C2068 C970 1.646 . S
C2079 C202 1.556 . S
C2084 C981 1.614 . S
C2095 C242 1.784 . S
C2100 C992 1.785 . S
C2111 C282 1.562 . S
C2116 C1003 1.528 . S
C2132 C1014 1.646 . S
C2127 C322 1.649 . S
C2148 C1036 1.615 . S
C2143 C362 1.606 . S
C2159 C402 1.784 . S
C2164 C1047 1.758 . S
C2175 C442 1.517 . S
C2180 C1025 1.457 . S
C2196 C1190 1.625 . S
C2191 C482 1.633 . S
C2212 C1223 1.767 . S
C2207 C522 1.719 . S
C2223 C562 1.570 1_545 S
C2228 C1201 1.477 . S
C2244 C1212 1.629 . S
C2239 C602 1.578 . S
C2255 C642 1.609 . S
C2260 C1102 1.643 . S
C2271 C682 1.596 . S
C2276 C1113 1.621 . S
C2287 C722 1.693 . S
C2292 C1124 1.742 . S
C2308 C1135 1.451 . S
C2303 C762 1.572 1_554 S
C2324 C1146 1.635 . S
C2319 C802 1.620 . S
C2340 C1168 1.605 . S
C2335 C842 1.575 . S
C2351 C882 1.720 . S
C2356 C1179 1.766 . S
C2372 C1157 1.474 . S
C2367 C922 1.570 1_455 S
