# Generated by pormake.
# Topology ssa, (4,4)-cn, num edge types: 1
# Building blocks:
#     Node 0, Type 0, BuildingBlock: KOZSID_clean_sbu_0, # of connection points: 4
#     Node 1, Type 0, BuildingBlock: KOZSID_clean_sbu_0, # of connection points: 4
#     Node 2, Type 0, BuildingBlock: KOZSID_clean_sbu_0, # of connection points: 4
#     Node 3, Type 0, BuildingBlock: KOZSID_clean_sbu_0, # of connection points: 4
#     Node 4, Type 0, BuildingBlock: KOZSID_clean_sbu_0, # of connection points: 4
#     Node 5, Type 0, BuildingBlock: KOZSID_clean_sbu_0, # of connection points: 4
#     Node 6, Type 1, BuildingBlock: MUDLON_clean_linker_0, # of connection points: 4
#     Node 7, Type 1, BuildingBlock: MUDLON_clean_linker_0, # of connection points: 4
#     Node 8, Type 1, BuildingBlock: MUDLON_clean_linker_0, # of connection points: 4
#     Node 9, Type 1, BuildingBlock: MUDLON_clean_linker_0, # of connection points: 4
#     Node 10, Type 1, BuildingBlock: MUDLON_clean_linker_0, # of connection points: 4
#     Node 11, Type 1, BuildingBlock: MUDLON_clean_linker_0, # of connection points: 4
#     Edge 12, Type (0, 1), BuildingBlock: OJICUG_clean_linker_0, # of connection points: 2
#     Edge 13, Type (0, 1), BuildingBlock: OJICUG_clean_linker_0, # of connection points: 2
#     Edge 14, Type (0, 1), BuildingBlock: OJICUG_clean_linker_0, # of connection points: 2
#     Edge 15, Type (0, 1), BuildingBlock: OJICUG_clean_linker_0, # of connection points: 2
#     Edge 16, Type (0, 1), BuildingBlock: OJICUG_clean_linker_0, # of connection points: 2
#     Edge 17, Type (0, 1), BuildingBlock: OJICUG_clean_linker_0, # of connection points: 2
#     Edge 18, Type (0, 1), BuildingBlock: OJICUG_clean_linker_0, # of connection points: 2
#     Edge 19, Type (0, 1), BuildingBlock: OJICUG_clean_linker_0, # of connection points: 2
#     Edge 20, Type (0, 1), BuildingBlock: OJICUG_clean_linker_0, # of connection points: 2
#     Edge 21, Type (0, 1), BuildingBlock: OJICUG_clean_linker_0, # of connection points: 2
#     Edge 22, Type (0, 1), BuildingBlock: OJICUG_clean_linker_0, # of connection points: 2
#     Edge 23, Type (0, 1), BuildingBlock: OJICUG_clean_linker_0, # of connection points: 2
#     Edge 24, Type (0, 1), BuildingBlock: OJICUG_clean_linker_0, # of connection points: 2
#     Edge 25, Type (0, 1), BuildingBlock: OJICUG_clean_linker_0, # of connection points: 2
#     Edge 26, Type (0, 1), BuildingBlock: OJICUG_clean_linker_0, # of connection points: 2
#     Edge 27, Type (0, 1), BuildingBlock: OJICUG_clean_linker_0, # of connection points: 2
#     Edge 28, Type (0, 1), BuildingBlock: OJICUG_clean_linker_0, # of connection points: 2
#     Edge 29, Type (0, 1), BuildingBlock: OJICUG_clean_linker_0, # of connection points: 2
#     Edge 30, Type (0, 1), BuildingBlock: OJICUG_clean_linker_0, # of connection points: 2
#     Edge 31, Type (0, 1), BuildingBlock: OJICUG_clean_linker_0, # of connection points: 2
#     Edge 32, Type (0, 1), BuildingBlock: OJICUG_clean_linker_0, # of connection points: 2
#     Edge 33, Type (0, 1), BuildingBlock: OJICUG_clean_linker_0, # of connection points: 2
#     Edge 34, Type (0, 1), BuildingBlock: OJICUG_clean_linker_0, # of connection points: 2
#     Edge 35, Type (0, 1), BuildingBlock: OJICUG_clean_linker_0, # of connection points: 2
# Relax obj value: 0.008
# Max RMSD: 0.045
# Mean RMSD: 0.026
data_MOF--net-ssa--node1-KOZSID_clean_sbu_0--node2-MUDLON_clean_linker_0--edge1-OJICUG_clean_linker_0
_symmetry_space_group_name_H-M    P1
_symmetry_Int_Tables_number       1
_symmetry_cell_setting            triclinic
loop_
_symmetry_equiv_pos_as_xyz
'x, y, z'
_cell_length_a     60.781615
_cell_length_b     62.236764
_cell_length_c     34.492128
_cell_angle_alpha  87.06036
_cell_angle_beta   89.875886
_cell_angle_gamma 122.33397
loop_
_atom_site_label
_atom_site_type_symbol
_atom_site_fract_x
_atom_site_fract_y
_atom_site_fract_z
_atom_type_partial_charge
C0 C 0.96979 0.51089 0.03658 0.0
C1 C 0.94713 0.50418 0.05712 0.0
C2 C 0.94581 0.48994 0.08949 0.0
C3 C 0.96768 0.48882 0.08687 0.0
N4 N 0.98291 0.50144 0.05475 0.0
Co5 Co 0.0168 0.50519 0.03991 0.0
N6 N 0.01447 0.48364 0.08706 0.0
C7 C 0.99493 0.47204 0.11445 0.0
C8 C 0.99866 0.45841 0.14322 0.0
C9 C 0.02199 0.46144 0.1337 0.0
C10 C 0.03116 0.47682 0.0995 0.0
N11 N 0.05101 0.50945 0.02552 0.0
C12 C 0.06455 0.50075 0.04439 0.0
C13 C 0.08787 0.50853 0.02481 0.0
C14 C 0.08923 0.52284 0.99253 0.0
C15 C 0.06678 0.52297 0.99423 0.0
N16 N 0.01884 0.52619 0.99222 0.0
C17 C 0.03781 0.53686 0.9639 0.0
C18 C 0.03369 0.54983 0.93452 0.0
C19 C 0.01067 0.54728 0.94453 0.0
C20 C 0.00209 0.53288 0.97969 0.0
N21 N 0.03569 0.53637 0.0695 0.0
C22 C 0.06367 0.58046 0.11195 0.0
C23 C 0.06947 0.58092 0.07255 0.0
C24 C 0.05561 0.55887 0.05227 0.0
C25 C 0.04323 0.55749 0.12948 0.0
C26 C 0.02946 0.53601 0.10783 0.0
N27 N 0.99797 0.47401 0.01031 0.0
C28 C 0.99459 0.45177 0.95304 0.0
C29 C 0.97213 0.42958 0.96835 0.0
C30 C 0.96259 0.43022 0.00493 0.0
C31 C 0.97563 0.45249 0.02513 0.0
C32 C 0.00715 0.47341 0.97437 0.0
H33 H 0.96731 0.45177 0.05274 0.0
H34 H 0.02427 0.48941 0.96106 0.0
H35 H 0.06151 0.56056 0.02266 0.0
H36 H 0.01399 0.51927 0.12289 0.0
C37 C 0.97397 0.47536 0.11334 0.0
C38 C 0.97793 0.52613 -0.00011 0.0
C39 C 0.0562 0.48508 0.08073 0.0
C40 C 0.05973 0.53512 0.96646 0.0
H41 H 0.93298 0.50902 0.04939 0.0
H42 H 0.93062 0.48125 0.11208 0.0
H43 H 0.98612 0.44786 0.16843 0.0
H44 H 0.03135 0.4535 0.15037 0.0
H45 H 0.10238 0.50427 0.03301 0.0
H46 H 0.10471 0.53201 0.9704 0.0
H47 H 0.04604 0.56008 0.90902 0.0
H48 H 0.0013 0.55522 0.92788 0.0
H49 H 0.08464 0.59823 0.05709 0.0
H50 H 0.03803 0.55577 0.16001 0.0
H51 H 0.0025 0.45265 0.92442 0.0
H52 H 0.94537 0.41356 0.01832 0.0
C53 C 0.56781 0.02736 0.57418 0.0
C54 C 0.56799 0.01951 0.61258 0.0
C55 C 0.54419 0.99797 0.62091 0.0
C56 C 0.53075 0.99404 0.58751 0.0
N57 N 0.54454 0.01166 0.55815 0.0
Co58 Co 0.53134 0.01443 0.50606 0.0
N59 N 0.49658 0.9822 0.51806 0.0
C60 C 0.48933 0.96674 0.55084 0.0
C61 C 0.46449 0.94578 0.55068 0.0
C62 C 0.45539 0.94771 0.51544 0.0
C63 C 0.47535 0.96981 0.49599 0.0
N64 N 0.51772 0.01794 0.45475 0.0
C65 C 0.49429 0.00254 0.43891 0.0
C66 C 0.49313 0.01213 0.4022 0.0
C67 C 0.51641 0.03447 0.39488 0.0
C68 C 0.53052 0.03723 0.42719 0.0
N69 N 0.56658 0.04585 0.49319 0.0
C70 C 0.57444 0.06024 0.4593 0.0
C71 C 0.60002 0.07989 0.4581 0.0
C72 C 0.60911 0.07801 0.49338 0.0
C73 C 0.58835 0.05739 0.51432 0.0
N74 N 0.54344 0.99367 0.48345 0.0
C75 C 0.55662 0.9618 0.44887 0.0
C76 C 0.55932 0.98298 0.42806 0.0
C77 C 0.55284 0.99859 0.4458 0.0
C78 C 0.54815 0.95737 0.48778 0.0
C79 C 0.54165 0.97341 0.50438 0.0
N80 N 0.51903 0.03515 0.5286 0.0
C81 C 0.5201 0.07457 0.53043 0.0
C82 C 0.50106 0.06407 0.56024 0.0
C83 C 0.49121 0.03904 0.57414 0.0
C84 C 0.50061 0.02515 0.55841 0.0
C85 C 0.5285 0.05976 0.51474 0.0
H86 H 0.49269 0.0064 0.57109 0.0
H87 H 0.54265 0.0687 0.49143 0.0
H88 H 0.55531 0.01436 0.42826 0.0
H89 H 0.53481 0.96879 0.53397 0.0
C90 C 0.50559 0.97345 0.58234 0.0
C91 C 0.59012 0.04997 0.55444 0.0
C92 C 0.47307 0.9783 0.45681 0.0
C93 C 0.5568 0.05594 0.43037 0.0
H94 H 0.58361 0.02844 0.6327 0.0
H95 H 0.53748 0.98654 0.6481 0.0
H96 H 0.4541 0.93107 0.57369 0.0
H97 H 0.43613 0.93443 0.50538 0.0
H98 H 0.47742 0.00366 0.38217 0.0
H99 H 0.52268 0.04673 0.36849 0.0
H100 H 0.61066 0.09416 0.43463 0.0
H101 H 0.62874 0.09063 0.50279 0.0
H102 H 0.56641 0.98751 0.39806 0.0
H103 H 0.54583 0.94121 0.50506 0.0
H104 H 0.5282 0.094 0.51894 0.0
H105 H 0.47666 0.03038 0.59769 0.0
C106 C 0.57818 0.54326 0.94116 0.0
C107 C 0.58455 0.55892 0.90746 0.0
C108 C 0.56354 0.56066 0.8998 0.0
C109 C 0.54561 0.54604 0.92908 0.0
N110 N 0.55384 0.53498 0.95501 0.0
Co111 Co 0.5342 0.51277 0.00258 0.0
N112 N 0.50273 0.51418 0.98991 0.0
C113 C 0.49969 0.52593 0.95816 0.0
C114 C 0.47582 0.52325 0.95707 0.0
C115 C 0.46276 0.50894 0.99013 0.0
C116 C 0.47958 0.50379 0.00956 0.0
N117 N 0.51493 0.49141 0.05098 0.0
C118 C 0.49097 0.48398 0.06553 0.0
C119 C 0.4854 0.47016 0.10098 0.0
C120 C 0.50664 0.46892 0.10923 0.0
C121 C 0.52392 0.48203 0.07856 0.0
N122 N 0.56526 0.51044 0.01434 0.0
C123 C 0.56765 0.49729 0.04477 0.0
C124 C 0.59088 0.49859 0.04451 0.0
C125 C 0.60409 0.5133 0.01179 0.0
C126 C 0.58807 0.52015 0.99397 0.0
N127 N 0.54847 0.54378 0.03246 0.0
C128 C 0.56711 0.58673 0.07714 0.0
C129 C 0.57214 0.56772 0.08707 0.0
C130 C 0.5625 0.54655 0.0649 0.0
C131 C 0.55311 0.58409 0.04367 0.0
C132 C 0.54431 0.56282 0.02174 0.0
N133 N 0.51997 0.48178 0.97283 0.0
C134 C 0.50883 0.43842 0.96826 0.0
C135 C 0.50122 0.43818 0.93007 0.0
C136 C 0.50287 0.46004 0.91376 0.0
C137 C 0.5123 0.48148 0.93542 0.0
C138 C 0.51791 0.46016 0.98899 0.0
H139 H 0.5134 0.49764 0.92119 0.0
H140 H 0.52323 0.459 0.01803 0.0
H141 H 0.5666 0.53265 0.07488 0.0
H142 H 0.53395 0.56211 0.99647 0.0
C143 C 0.52031 0.5409 0.93146 0.0
C144 C 0.59558 0.5362 0.95809 0.0
C145 C 0.47294 0.48969 0.04716 0.0
C146 C 0.54824 0.48498 0.07408 0.0
H147 H 0.60241 0.56788 0.88988 0.0
H148 H 0.56139 0.57092 0.87534 0.0
H149 H 0.46894 0.53124 0.93527 0.0
H150 H 0.44323 0.50326 0.99925 0.0
H151 H 0.46779 0.46186 0.119 0.0
H152 H 0.50915 0.45948 0.13449 0.0
H153 H 0.59752 0.49008 0.06578 0.0
H154 H 0.62341 0.51854 0.00223 0.0
H155 H 0.58351 0.56901 0.11197 0.0
H156 H 0.54842 0.59807 0.03464 0.0
H157 H 0.50756 0.42179 0.98229 0.0
H158 H 0.49741 0.46083 0.88409 0.0
C159 C 0.99979 0.46103 0.55743 0.0
C160 C 0.97596 0.44408 0.5418 0.0
C161 C 0.97401 0.45621 0.50919 0.0
C162 C 0.99656 0.4798 0.50693 0.0
N163 N 0.01298 0.48347 0.53589 0.0
Co164 Co 0.04709 0.51565 0.5451 0.0
N165 N 0.04427 0.53336 0.49686 0.0
C166 C 0.02535 0.52302 0.47056 0.0
C167 C 0.02962 0.539 0.43874 0.0
C168 C 0.05271 0.56087 0.44489 0.0
C169 C 0.06108 0.55711 0.48065 0.0
N170 N 0.0806 0.54814 0.55524 0.0
C171 C 0.09305 0.5711 0.53502 0.0
C172 C 0.11508 0.58905 0.55362 0.0
C173 C 0.11692 0.57689 0.58629 0.0
C174 C 0.09586 0.5524 0.58605 0.0
N175 N 0.05046 0.49759 0.59239 0.0
C176 C 0.07063 0.50704 0.61659 0.0
C177 C 0.06784 0.48996 0.6459 0.0
C178 C 0.04445 0.46826 0.64015 0.0
C179 C 0.03423 0.47347 0.60767 0.0
N180 N 0.06619 0.50436 0.51386 0.0
C181 C 0.09331 0.48904 0.468 0.0
C182 C 0.10433 0.5025 0.50107 0.0
C183 C 0.09047 0.50981 0.52354 0.0
C184 C 0.06853 0.48338 0.45842 0.0
C185 C 0.05547 0.49112 0.48147 0.0
N186 N 0.02794 0.5269 0.57626 0.0
C187 C 0.02011 0.54003 0.63684 0.0
C188 C 0.99935 0.54089 0.62137 0.0
C189 C 0.99344 0.53507 0.58275 0.0
C190 C 0.00781 0.52812 0.56094 0.0
C191 C 0.03412 0.53319 0.61392 0.0
H192 H 0.00206 0.52358 0.53187 0.0
H193 H 0.04978 0.533 0.62738 0.0
H194 H 0.09984 0.5199 0.54851 0.0
H195 H 0.03679 0.48629 0.47218 0.0
C196 C 0.00343 0.49848 0.47704 0.0
C197 C 0.00876 0.45508 0.59314 0.0
C198 C 0.08509 0.57665 0.49788 0.0
C199 C 0.09078 0.53264 0.61298 0.0
H200 H 0.96141 0.42495 0.55286 0.0
H201 H 0.95808 0.44871 0.48942 0.0
H202 H 0.01744 0.53517 0.41394 0.0
H203 H 0.06226 0.57759 0.42501 0.0
H204 H 0.1286 0.60885 0.54437 0.0
H205 H 0.13201 0.58486 0.60741 0.0
H206 H 0.08096 0.4931 0.66919 0.0
H207 H 0.0357 0.45068 0.65815 0.0
H208 H 0.12344 0.50718 0.5098 0.0
H209 H 0.05933 0.47339 0.43269 0.0
H210 H 0.02567 0.54478 0.6665 0.0
H211 H 0.9774 0.5353 0.56957 0.0
C212 C 0.49458 0.9989 0.07446 0.0
C213 C 0.49358 0.00898 0.10893 0.0
C214 C 0.51706 0.03121 0.11149 0.0
C215 C 0.53103 0.03339 0.07867 0.0
N216 N 0.51783 0.01399 0.05508 0.0
Co217 Co 0.53125 0.00894 0.00539 0.0
N218 N 0.56544 0.04221 0.00842 0.0
C219 C 0.57233 0.05932 0.03585 0.0
C220 C 0.59673 0.08073 0.02963 0.0
C221 C 0.60597 0.07723 0.99602 0.0
C222 C 0.58656 0.05377 0.98371 0.0
N223 N 0.54506 0.00337 0.9566 0.0
C224 C 0.56855 0.01809 0.93775 0.0
C225 C 0.5704 0.0068 0.90523 0.0
C226 C 0.54728 0.98412 0.90352 0.0
C227 C 0.53269 0.98284 0.93491 0.0
N228 N 0.49665 0.97627 0.00139 0.0
C229 C 0.48916 0.95998 0.97262 0.0
C230 C 0.46406 0.93947 0.97729 0.0
C231 C 0.45488 0.94284 0.01107 0.0
C232 C 0.47508 0.96525 0.02512 0.0
N233 N 0.51774 0.02719 0.97506 0.0
C234 C 0.49903 0.05352 0.93189 0.0
C235 C 0.49727 0.03195 0.91805 0.0
C236 C 0.5067 0.0192 0.93989 0.0
C237 C 0.5102 0.06159 0.96778 0.0
C238 C 0.51929 0.04824 0.98872 0.0
N239 N 0.54477 0.99069 0.0359 0.0
C240 C 0.54511 0.95254 0.05207 0.0
C241 C 0.56235 0.96428 0.08194 0.0
C242 C 0.57115 0.98972 0.08746 0.0
C243 C 0.56203 0.00231 0.06469 0.0
C244 C 0.53685 0.96605 0.02937 0.0
H245 H 0.56917 0.02142 0.07124 0.0
H246 H 0.52383 0.95601 0.00701 0.0
H247 H 0.50497 0.00302 0.92763 0.0
H248 H 0.5275 0.05536 0.01589 0.0
C249 C 0.55597 0.05406 0.06819 0.0
C250 C 0.47299 0.97491 0.06158 0.0
C251 C 0.5893 0.04317 0.94869 0.0
C252 C 0.50675 0.96356 0.94312 0.0
H253 H 0.4775 0.00109 0.13001 0.0
H254 H 0.52315 0.04434 0.13438 0.0
H255 H 0.60673 0.09683 0.04761 0.0
H256 H 0.62492 0.09038 0.98226 0.0
H257 H 0.58664 0.01435 0.88453 0.0
H258 H 0.54157 0.97044 0.88153 0.0
H259 H 0.45383 0.92372 0.95874 0.0
H260 H 0.43562 0.93009 0.02417 0.0
H261 H 0.48906 0.02514 0.89014 0.0
H262 H 0.51171 0.07801 0.97996 0.0
H263 H 0.5375 0.93283 0.04656 0.0
H264 H 0.58509 1.00008 0.10936 0.0
C265 C 0.53923 0.5641 0.4994 0.0
C266 C 0.53556 0.58104 0.51872 0.0
C267 C 0.52142 0.56832 0.552 0.0
C268 C 0.51749 0.54452 0.55134 0.0
N269 N 0.52837 0.54126 0.51971 0.0
Co270 Co 0.52832 0.50995 0.50809 0.0
N271 N 0.50584 0.49068 0.55563 0.0
C272 C 0.49576 0.49917 0.58134 0.0
C273 C 0.48061 0.48145 0.61058 0.0
C274 C 0.48096 0.46033 0.60314 0.0
C275 C 0.49643 0.46645 0.56967 0.0
N276 N 0.52898 0.47891 0.49716 0.0
C277 C 0.5182 0.45614 0.5176 0.0
C278 C 0.52408 0.44002 0.50046 0.0
C279 C 0.53924 0.4531 0.46809 0.0
C280 C 0.54176 0.47636 0.46736 0.0
N281 N 0.54997 0.52892 0.45976 0.0
C282 C 0.55879 0.51988 0.43294 0.0
C283 C 0.57143 0.53649 0.40142 0.0
C284 C 0.57053 0.55737 0.40826 0.0
C285 C 0.5576 0.55242 0.44404 0.0
N286 N 0.56026 0.52236 0.53844 0.0
C287 C 0.60454 0.53749 0.58298 0.0
C288 C 0.60427 0.53189 0.54426 0.0
C289 C 0.58208 0.52436 0.52272 0.0
C290 C 0.58256 0.53601 0.59873 0.0
C291 C 0.5609 0.5286 0.57612 0.0
N292 N 0.49642 0.49749 0.47786 0.0
C293 C 0.47134 0.47702 0.42207 0.0
C294 C 0.45154 0.48047 0.43411 0.0
C295 C 0.45448 0.49239 0.46862 0.0
C296 C 0.47686 0.50063 0.48993 0.0
C297 C 0.49341 0.48561 0.44416 0.0
H298 H 0.47794 0.50957 0.51598 0.0
H299 H 0.50785 0.4826 0.43315 0.0
H300 H 0.583 0.52 0.49357 0.0
H301 H 0.54488 0.52791 0.58995 0.0
C302 C 0.50217 0.52434 0.57852 0.0
C303 C 0.5527 0.57046 0.46153 0.0
C304 C 0.50227 0.44889 0.55317 0.0
C305 C 0.5549 0.49569 0.43816 0.0
H306 H 0.54213 0.60051 0.50948 0.0
H307 H 0.51442 0.57541 0.57374 0.0
H308 H 0.47085 0.48376 0.63479 0.0
H309 H 0.47122 0.44253 0.62067 0.0
H310 H 0.51793 0.42075 0.51031 0.0
H311 H 0.54726 0.44639 0.44735 0.0
H312 H 0.58001 0.53363 0.37622 0.0
H313 H 0.57831 0.57419 0.38875 0.0
H314 H 0.62085 0.5327 0.53085 0.0
H315 H 0.58206 0.54066 0.62843 0.0
H316 H 0.47016 0.46825 0.39519 0.0
H317 H 0.43953 0.49528 0.47931 0.0
H318 H 0.36246 0.48403 0.24669 0.0
N319 N 0.32269 0.43695 0.22734 0.0
H320 H 0.39017 0.49318 0.302 0.0
H321 H 0.31618 0.40479 0.28671 0.0
H322 H 0.34378 0.41393 0.34311 0.0
H323 H 0.33699 0.40776 0.19735 0.0
H324 H 0.37129 0.42044 0.14792 0.0
H325 H 0.34577 0.48106 0.18078 0.0
H326 H 0.38003 0.49395 0.13079 0.0
H327 H 0.31851 0.47499 0.25799 0.0
H328 H 0.27889 0.40874 0.19045 0.0
H329 H 0.27997 0.47705 0.25992 0.0
H330 H 0.24057 0.4119 0.18952 0.0
H331 H 0.17734 0.4899 0.26888 0.0
H332 H 0.16444 0.50099 0.32778 0.0
H333 H 0.12669 0.42276 0.37343 0.0
H334 H 0.13888 0.4117 0.31341 0.0
H335 H 0.11272 0.41121 0.22967 0.0
H336 H 0.08829 0.42123 0.184 0.0
H337 H 0.15835 0.49412 0.15293 0.0
H338 H 0.18234 0.48418 0.19917 0.0
H339 H 0.21105 0.48432 0.24297 0.0
H340 H 0.25108 0.48537 0.23051 0.0
H341 H 0.20646 0.40303 0.23072 0.0
N342 N 0.16158 0.44169 0.24964 0.0
H343 H 0.16646 0.40258 0.24004 0.0
C344 C 0.33718 0.44358 0.26249 0.0
C345 C 0.35795 0.46863 0.26776 0.0
C346 C 0.37372 0.4739 0.29967 0.0
C347 C 0.36921 0.45426 0.32693 0.0
C348 C 0.34788 0.42941 0.32239 0.0
C349 C 0.33202 0.42417 0.29044 0.0
C350 C 0.33892 0.4434 0.19279 0.0
C351 C 0.34585 0.42633 0.18211 0.0
C352 C 0.36544 0.43364 0.15384 0.0
C353 C 0.37858 0.45831 0.13564 0.0
C354 C 0.37054 0.47495 0.14472 0.0
C355 C 0.35083 0.46755 0.17302 0.0
C356 C 0.30151 0.44116 0.22479 0.0
C357 C 0.30173 0.46103 0.24296 0.0
C358 C 0.27952 0.46241 0.24366 0.0
C359 C 0.25678 0.44441 0.22539 0.0
C360 C 0.25731 0.42564 0.20503 0.0
C361 C 0.27932 0.42394 0.2051 0.0
C362 C 0.15868 0.44981 0.2866 0.0
C363 C 0.16671 0.47522 0.29178 0.0
C364 C 0.15942 0.48158 0.32572 0.0
C365 C 0.14417 0.46268 0.35518 0.0
C366 C 0.13793 0.43767 0.35098 0.0
C367 C 0.14504 0.43133 0.31693 0.0
C368 C 0.1493 0.44678 0.21791 0.0
C369 C 0.12286 0.4291 0.21234 0.0
C370 C 0.10898 0.43487 0.18618 0.0
C371 C 0.12134 0.45857 0.16496 0.0
C372 C 0.14817 0.47585 0.16926 0.0
C373 C 0.16202 0.47006 0.19553 0.0
C374 C 0.18568 0.4433 0.24171 0.0
C375 C 0.20984 0.46658 0.23933 0.0
C376 C 0.23284 0.46708 0.23277 0.0
C377 C 0.23224 0.44429 0.22946 0.0
C378 C 0.20788 0.42107 0.23203 0.0
C379 C 0.18494 0.42068 0.23777 0.0
H380 H 0.70967 0.08677 0.77384 0.0
N381 N 0.73041 0.13396 0.74335 0.0
H382 H 0.67744 0.06573 0.82761 0.0
H383 H 0.71498 0.15738 0.79239 0.0
H384 H 0.68351 0.13679 0.84659 0.0
H385 H 0.69254 0.14414 0.7277 0.0
H386 H 0.66137 0.12653 0.67668 0.0
H387 H 0.7339 0.11192 0.68167 0.0
H388 H 0.70361 0.09542 0.62857 0.0
H389 H 0.77698 0.1426 0.75875 0.0
H390 H 0.73702 0.1811 0.73101 0.0
H391 H 0.81757 0.18359 0.76481 0.0
H392 H 0.77718 0.22219 0.7387 0.0
H393 H 0.93618 0.30741 0.81782 0.0
H394 H 0.95129 0.33371 0.87365 0.0
H395 H 0.88872 0.34713 0.86036 0.0
H396 H 0.87251 0.31878 0.80701 0.0
H397 H 0.88557 0.33414 0.74344 0.0
H398 H 0.91105 0.37037 0.69714 0.0
H399 H 0.96527 0.34664 0.68027 0.0
H400 H 0.93929 0.31001 0.72663 0.0
H401 H 0.87895 0.25696 0.81354 0.0
H402 H 0.83743 0.21709 0.80717 0.0
H403 H 0.81959 0.25201 0.71111 0.0
N404 N 0.89872 0.30041 0.77077 0.0
H405 H 0.86031 0.29188 0.7185 0.0
C406 C 0.71485 0.12358 0.779 0.0
C407 C 0.70439 0.09787 0.79018 0.0
C408 C 0.68604 0.08592 0.82096 0.0
C409 C 0.67776 0.09956 0.84123 0.0
C410 C 0.68917 0.12566 0.83117 0.0
C411 C 0.70746 0.13756 0.80031 0.0
C412 C 0.71539 0.12894 0.7089 0.0
C413 C 0.6954 0.13389 0.70591 0.0
C414 C 0.67757 0.12387 0.67634 0.0
C415 C 0.67957 0.10907 0.64866 0.0
C416 C 0.70094 0.10605 0.64994 0.0
C417 C 0.71852 0.11575 0.67993 0.0
C418 C 0.75402 0.15872 0.74461 0.0
C419 C 0.77703 0.15997 0.75404 0.0
C420 C 0.80012 0.18342 0.75789 0.0
C421 C 0.80065 0.20628 0.75278 0.0
C422 C 0.77758 0.20503 0.74258 0.0
C423 C 0.7545 0.18148 0.73836 0.0
C424 C 0.90375 0.31174 0.80772 0.0
C425 C 0.92537 0.31548 0.82783 0.0
C426 C 0.93415 0.33085 0.85936 0.0
C427 C 0.92185 0.34342 0.87085 0.0
C428 C 0.89886 0.33796 0.85247 0.0
C429 C 0.88969 0.32198 0.82151 0.0
C430 C 0.91052 0.31923 0.73853 0.0
C431 C 0.90268 0.33641 0.72945 0.0
C432 C 0.91738 0.35727 0.70306 0.0
C433 C 0.94038 0.36158 0.68541 0.0
C434 C 0.94755 0.34376 0.69314 0.0
C435 C 0.93275 0.32282 0.71954 0.0
C436 C 0.87309 0.27779 0.76704 0.0
C437 C 0.86592 0.25615 0.79147 0.0
C438 C 0.84226 0.23324 0.78745 0.0
C439 C 0.82519 0.23119 0.75833 0.0
C440 C 0.83208 0.25293 0.73417 0.0
C441 C 0.8557 0.27598 0.73845 0.0
H442 H 0.56286 0.85883 0.29454 0.0
N443 N 0.6143 0.8775 0.27797 0.0
H444 H 0.54629 0.87463 0.34264 0.0
H445 H 0.6404 0.90595 0.33627 0.0
H446 H 0.62405 0.92221 0.38428 0.0
H447 H 0.64237 0.9258 0.25111 0.0
H448 H 0.63092 0.94643 0.19969 0.0
H449 H 0.57514 0.8528 0.22688 0.0
H450 H 0.56388 0.87334 0.17478 0.0
H451 H 0.57797 0.83003 0.31341 0.0
H452 H 0.646 0.87002 0.23626 0.0
H453 H 0.5778 0.79121 0.30953 0.0
H454 H 0.64501 0.83066 0.23042 0.0
H455 H 0.56611 0.67583 0.27914 0.0
H456 H 0.55007 0.64253 0.33097 0.0
H457 H 0.62178 0.68774 0.3911 0.0
H458 H 0.63837 0.72017 0.33721 0.0
H459 H 0.64348 0.69828 0.24925 0.0
H460 H 0.6337 0.66864 0.19833 0.0
H461 H 0.57163 0.67809 0.1605 0.0
H462 H 0.5809 0.70713 0.21186 0.0
H463 H 0.57176 0.7193 0.27269 0.0
H464 H 0.5701 0.7577 0.27158 0.0
H465 H 0.65438 0.80391 0.26603 0.0
N466 N 0.61584 0.71751 0.27009 0.0
H467 H 0.65558 0.76539 0.2649 0.0
C468 C 0.60299 0.88127 0.31181 0.0
C469 C 0.57621 0.87203 0.31481 0.0
C470 C 0.5668 0.88125 0.34213 0.0
C471 C 0.58393 0.89998 0.36685 0.0
C472 C 0.61031 0.90768 0.36585 0.0
C473 C 0.61971 0.8984 0.33849 0.0
C474 C 0.60973 0.88788 0.24276 0.0
C475 C 0.6256 0.91418 0.23389 0.0
C476 C 0.61897 0.9259 0.20477 0.0
C477 C 0.59648 0.91142 0.18358 0.0
C478 C 0.58141 0.88483 0.19065 0.0
C479 C 0.58784 0.87312 0.22031 0.0
C480 C 0.61228 0.85337 0.27524 0.0
C481 C 0.59275 0.8306 0.29518 0.0
C482 C 0.59251 0.8081 0.29268 0.0
C483 C 0.61148 0.80766 0.26983 0.0
C484 C 0.63043 0.83027 0.24906 0.0
C485 C 0.63092 0.8528 0.25207 0.0
C486 C 0.60377 0.70025 0.30394 0.0
C487 C 0.57827 0.67871 0.30366 0.0
C488 C 0.56901 0.65969 0.3337 0.0
C489 C 0.58478 0.66206 0.36515 0.0
C490 C 0.60937 0.68477 0.36686 0.0
C491 C 0.61881 0.70353 0.33638 0.0
C492 C 0.6131 0.70504 0.2346 0.0
C493 C 0.62825 0.69453 0.22929 0.0
C494 C 0.62258 0.67755 0.20043 0.0
C495 C 0.60187 0.67111 0.17578 0.0
C496 C 0.5878 0.68295 0.17909 0.0
C497 C 0.59318 0.69962 0.20852 0.0
C498 C 0.61389 0.7396 0.26833 0.0
C499 C 0.58982 0.73773 0.2706 0.0
C500 C 0.58894 0.75976 0.27041 0.0
C501 C 0.61211 0.78406 0.26863 0.0
C502 C 0.6361 0.78568 0.26651 0.0
C503 C 0.6369 0.76369 0.26613 0.0
H504 H 0.94988 0.6149 0.84151 0.0
N505 N 0.90642 0.58879 0.80327 0.0
H506 H 0.96314 0.5997 0.89785 0.0
H507 H 0.87401 0.54543 0.84969 0.0
H508 H 0.88688 0.53028 0.90641 0.0
H509 H 0.89122 0.53999 0.78779 0.0
H510 H 0.91178 0.52789 0.74035 0.0
H511 H 0.94172 0.61891 0.7481 0.0
H512 H 0.96269 0.60691 0.70049 0.0
H513 H 0.90126 0.62816 0.80804 0.0
H514 H 0.85773 0.54809 0.788 0.0
H515 H 0.86187 0.62918 0.80039 0.0
H516 H 0.81806 0.54855 0.78216 0.0
H517 H 0.72673 0.62098 0.80014 0.0
H518 H 0.69286 0.60735 0.85073 0.0
H519 H 0.69227 0.53816 0.87448 0.0
H520 H 0.72591 0.55186 0.82329 0.0
H521 H 0.71132 0.54445 0.75672 0.0
H522 H 0.67927 0.52964 0.70614 0.0
H523 H 0.71088 0.60757 0.66352 0.0
H524 H 0.74315 0.62225 0.71427 0.0
H525 H 0.7832 0.61835 0.82261 0.0
H526 H 0.82162 0.616 0.83149 0.0
H527 H 0.79706 0.5632 0.74064 0.0
N528 N 0.74513 0.59416 0.77328 0.0
H529 H 0.75842 0.5647 0.73292 0.0
C530 C 0.91111 0.58141 0.84115 0.0
C531 C 0.93582 0.59673 0.85628 0.0
C532 C 0.94331 0.588 0.88857 0.0
C533 C 0.92612 0.56364 0.90646 0.0
C534 C 0.90069 0.54898 0.89292 0.0
C535 C 0.89323 0.55775 0.86054 0.0
C536 C 0.91498 0.5805 0.77151 0.0
C537 C 0.90634 0.55472 0.76835 0.0
C538 C 0.91831 0.54781 0.74141 0.0
C539 C 0.93906 0.56648 0.717 0.0
C540 C 0.94666 0.59207 0.71873 0.0
C541 C 0.93474 0.59897 0.74584 0.0
C542 C 0.88253 0.58817 0.79881 0.0
C543 C 0.88311 0.61076 0.80233 0.0
C544 C 0.86051 0.61121 0.79826 0.0
C545 C 0.83665 0.58889 0.7909 0.0
C546 C 0.83611 0.56617 0.78735 0.0
C547 C 0.85883 0.56583 0.79105 0.0
C548 C 0.72878 0.58751 0.80787 0.0
C549 C 0.7197 0.60318 0.81695 0.0
C550 C 0.70038 0.59534 0.84592 0.0
C551 C 0.68971 0.57156 0.86649 0.0
C552 C 0.69981 0.55641 0.85877 0.0
C553 C 0.71917 0.56429 0.82971 0.0
C554 C 0.72966 0.58458 0.73932 0.0
C555 C 0.71172 0.55834 0.73608 0.0
C556 C 0.69332 0.5499 0.70724 0.0
C557 C 0.69233 0.56746 0.68117 0.0
C558 C 0.71126 0.59356 0.68298 0.0
C559 C 0.7297 0.602 0.71189 0.0
C560 C 0.76733 0.59151 0.77771 0.0
C561 C 0.78592 0.60602 0.80491 0.0
C562 C 0.80806 0.60484 0.80967 0.0
C563 C 0.81254 0.58942 0.78674 0.0
C564 C 0.79404 0.57492 0.75935 0.0
C565 C 0.77171 0.57588 0.75486 0.0
H566 H 0.17779 0.68121 0.3102 0.0
N567 N 0.16578 0.71745 0.29513 0.0
H568 H 0.16188 0.6506 0.36531 0.0
H569 H 0.14472 0.72005 0.36092 0.0
H570 H 0.13067 0.69075 0.41862 0.0
H571 H 0.11927 0.70422 0.2696 0.0
H572 H 0.09475 0.67429 0.22012 0.0
H573 H 0.18493 0.69765 0.24546 0.0
H574 H 0.16023 0.66645 0.19859 0.0
H575 H 0.21436 0.72465 0.28886 0.0
H576 H 0.17312 0.76333 0.28982 0.0
H577 H 0.25559 0.76542 0.27822 0.0
H578 H 0.21426 0.80434 0.28224 0.0
H579 H 0.37378 0.88197 0.28222 0.0
H580 H 0.40533 0.90172 0.33199 0.0
H581 H 0.35944 0.9287 0.38105 0.0
H582 H 0.32894 0.91048 0.32852 0.0
H583 H 0.35206 0.9337 0.23244 0.0
H584 H 0.38353 0.95309 0.17766 0.0
H585 H 0.37868 0.88184 0.16611 0.0
H586 H 0.34762 0.86283 0.22155 0.0
H587 H 0.32666 0.84378 0.30168 0.0
H588 H 0.28642 0.80212 0.30734 0.0
H589 H 0.2479 0.83208 0.2392 0.0
N590 N 0.33296 0.88797 0.26765 0.0
H591 H 0.28785 0.87419 0.23633 0.0
C592 C 0.16166 0.7025 0.33083 0.0
C593 C 0.16759 0.68355 0.33363 0.0
C594 C 0.15871 0.66611 0.36581 0.0
C595 C 0.14437 0.66767 0.39651 0.0
C596 C 0.14075 0.68825 0.39511 0.0
C597 C 0.14906 0.70527 0.36238 0.0
C598 C 0.15378 0.70304 0.26166 0.0
C599 C 0.12846 0.69648 0.25334 0.0
C600 C 0.11437 0.67905 0.22543 0.0
C601 C 0.12519 0.66737 0.20569 0.0
C602 C 0.15116 0.67505 0.21273 0.0
C603 C 0.16538 0.69289 0.24004 0.0
C604 C 0.1906 0.74101 0.28927 0.0
C605 C 0.21416 0.74193 0.28655 0.0
C606 C 0.23783 0.76539 0.28106 0.0
C607 C 0.23845 0.7884 0.27904 0.0
C608 C 0.21471 0.78719 0.28249 0.0
C609 C 0.19113 0.76377 0.28721 0.0
C610 C 0.34924 0.89532 0.30102 0.0
C611 C 0.37042 0.8921 0.30362 0.0
C612 C 0.3884 0.90321 0.33269 0.0
C613 C 0.38533 0.91726 0.36056 0.0
C614 C 0.363 0.91875 0.35953 0.0
C615 C 0.3453 0.90807 0.32984 0.0
C616 C 0.34752 0.89695 0.23106 0.0
C617 C 0.35735 0.92215 0.21742 0.0
C618 C 0.37529 0.93315 0.18607 0.0
C619 C 0.38378 0.91906 0.16767 0.0
C620 C 0.37281 0.8933 0.18003 0.0
C621 C 0.35485 0.88232 0.21146 0.0
C622 C 0.31013 0.86243 0.26931 0.0
C623 C 0.30956 0.84153 0.28824 0.0
C624 C 0.28645 0.81747 0.29104 0.0
C625 C 0.26359 0.8136 0.2742 0.0
C626 C 0.26474 0.83434 0.25365 0.0
C627 C 0.28765 0.85843 0.2516 0.0
H628 H 0.41319 0.09333 0.7158 0.0
N629 N 0.43979 0.13863 0.74506 0.0
H630 H 0.42738 0.0778 0.6642 0.0
H631 H 0.48171 0.16849 0.69493 0.0
H632 H 0.49557 0.15359 0.64145 0.0
H633 H 0.49003 0.1541 0.76135 0.0
H634 H 0.50363 0.13469 0.81099 0.0
H635 H 0.41021 0.10521 0.80275 0.0
H636 H 0.42374 0.08581 0.85324 0.0
H637 H 0.41067 0.15137 0.70533 0.0
H638 H 0.47499 0.18194 0.78276 0.0
H639 H 0.41281 0.19167 0.70294 0.0
H640 H 0.47613 0.22134 0.78243 0.0
H641 H 0.41543 0.31749 0.70997 0.0
H642 H 0.42882 0.35061 0.65781 0.0
H643 H 0.50212 0.35554 0.64413 0.0
H644 H 0.48887 0.32304 0.69676 0.0
H645 H 0.49453 0.33652 0.76432 0.0
H646 H 0.50728 0.36671 0.81462 0.0
H647 H 0.42633 0.33316 0.84828 0.0
H648 H 0.41365 0.30275 0.79762 0.0
H649 H 0.40374 0.25561 0.73907 0.0
H650 H 0.40295 0.21596 0.73962 0.0
H651 H 0.48685 0.25881 0.74733 0.0
N652 N 0.44455 0.30248 0.74349 0.0
H653 H 0.48709 0.29786 0.74943 0.0
C654 C 0.44627 0.13194 0.70922 0.0
C655 C 0.43087 0.10667 0.69901 0.0
C656 C 0.43905 0.09789 0.66927 0.0
C657 C 0.4628 0.11436 0.64854 0.0
C658 C 0.47745 0.1402 0.6572 0.0
C659 C 0.46939 0.14888 0.68747 0.0
C660 C 0.449 0.13111 0.77844 0.0
C661 C 0.4755 0.1396 0.78178 0.0
C662 C 0.48327 0.12851 0.8103 0.0
C663 C 0.46473 0.10857 0.83589 0.0
C664 C 0.43843 0.10092 0.83363 0.0
C665 C 0.43069 0.11213 0.80516 0.0
C666 C 0.44246 0.16322 0.74413 0.0
C667 C 0.42517 0.16669 0.72194 0.0
C668 C 0.42627 0.18972 0.72096 0.0
C669 C 0.4445 0.20986 0.7428 0.0
C670 C 0.46205 0.2065 0.76476 0.0
C671 C 0.46123 0.18359 0.76519 0.0
C672 C 0.451 0.31771 0.70745 0.0
C673 C 0.43408 0.32526 0.69494 0.0
C674 C 0.44179 0.34418 0.66509 0.0
C675 C 0.46669 0.35594 0.64706 0.0
C676 C 0.48299 0.34718 0.65791 0.0
C677 C 0.47529 0.32832 0.6879 0.0
C678 C 0.45301 0.31709 0.77744 0.0
C679 C 0.47951 0.33495 0.78329 0.0
C680 C 0.48681 0.35236 0.81205 0.0
C681 C 0.46779 0.35244 0.83521 0.0
C682 C 0.4414 0.33374 0.83059 0.0
C683 C 0.43414 0.31622 0.802 0.0
C684 C 0.44535 0.27974 0.74379 0.0
C685 C 0.4219 0.25633 0.74099 0.0
C686 C 0.42157 0.23372 0.74093 0.0
C687 C 0.44488 0.23404 0.74314 0.0
C688 C 0.46845 0.25765 0.74604 0.0
C689 C 0.46866 0.28021 0.74676 0.0
C690 C 0.06965 0.45432 0.09828 0.0
C691 C 0.07392 0.47871 0.10003 0.0
H692 H 0.08169 0.4289 0.11685 0.0
C693 C 0.09453 0.49685 0.12134 0.0
H694 H 0.05381 0.44014 0.0818 0.0
C695 C 0.11037 0.4905 0.14154 0.0
C696 C 0.10586 0.46587 0.14071 0.0
H697 H 0.09797 0.51575 0.12302 0.0
H698 H 0.12558 0.50465 0.15887 0.0
C699 C 0.0855 0.44793 0.11844 0.0
C700 C 0.62912 0.05601 0.58887 0.0
C701 C 0.61433 0.06595 0.57579 0.0
H702 H 0.66082 0.06145 0.62279 0.0
C703 C 0.62211 0.09082 0.58416 0.0
H704 H 0.62346 0.03687 0.58253 0.0
C705 C 0.64397 0.10531 0.60629 0.0
C706 C 0.65826 0.09503 0.62105 0.0
H707 H 0.61099 0.09887 0.57408 0.0
H708 H 0.64941 0.12442 0.61229 0.0
C709 C 0.65072 0.07029 0.61154 0.0
C710 C 0.57721 0.60541 0.14254 0.0
C711 C 0.57597 0.60868 0.10207 0.0
H712 H 0.58668 0.62268 0.19712 0.0
C713 C 0.58321 0.63299 0.08601 0.0
H714 H 0.57109 0.58694 0.15636 0.0
C715 C 0.59147 0.65337 0.10984 0.0
C716 C 0.59317 0.64996 0.14998 0.0
H717 H 0.58287 0.63644 0.05501 0.0
H718 H 0.59694 0.67188 0.09689 0.0
C719 C 0.58597 0.62584 0.16608 0.0
C720 C 0.97589 0.5368 0.68381 0.0
C721 C 0.98369 0.54735 0.64555 0.0
H722 H 0.95571 0.53456 0.73623 0.0
C723 C 0.97628 0.56394 0.63058 0.0
H724 H 0.98106 0.52376 0.69603 0.0
C725 C 0.96163 0.57005 0.65358 0.0
C726 C 0.95385 0.55948 0.69186 0.0
H727 H 0.98215 0.5725 0.60127 0.0
H728 H 0.95627 0.58295 0.64137 0.0
C729 C 0.96109 0.54274 0.70666 0.0
C730 C 0.42909 0.96402 0.08516 0.0
C731 C 0.44931 0.9595 0.08692 0.0
H732 H 0.39204 0.95427 0.10881 0.0
C733 C 0.44738 0.94077 0.11356 0.0
H734 H 0.43035 0.9784 0.06455 0.0
C735 C 0.42567 0.92706 0.13895 0.0
C736 C 0.40552 0.93187 0.13806 0.0
H737 H 0.46293 0.93716 0.11521 0.0
H738 H 0.42513 0.91334 0.16019 0.0
C739 C 0.40733 0.95029 0.11051 0.0
C740 C 0.46851 0.40315 0.57074 0.0
C741 C 0.49372 0.42432 0.57464 0.0
H742 H 0.44026 0.3645 0.59003 0.0
C743 C 0.51054 0.42256 0.60037 0.0
H744 H 0.45535 0.4043 0.55087 0.0
C745 C 0.502 0.40002 0.62289 0.0
C746 C 0.47647 0.37883 0.61999 0.0
H747 H 0.53005 0.43886 0.60374 0.0
H748 H 0.51511 0.39957 0.64366 0.0
C749 C 0.45993 0.38053 0.59322 0.0
C750 C 0.55311 0.93682 0.39216 0.0
C751 C 0.56216 0.94435 0.42952 0.0
H752 H 0.55285 0.91697 0.34331 0.0
C753 C 0.57706 0.93574 0.44743 0.0
H754 H 0.54131 0.94288 0.37781 0.0
C755 C 0.5836 0.92068 0.42767 0.0
C756 C 0.57506 0.9137 0.38985 0.0
H757 H 0.58434 0.94131 0.47619 0.0
H758 H 0.59558 0.91475 0.44176 0.0
C759 C 0.55944 0.92167 0.3726 0.0
C760 C 0.64187 0.56971 0.93962 0.0
C761 C 0.62064 0.54463 0.93766 0.0
H762 H 0.68075 0.59783 0.91924 0.0
C763 C 0.62275 0.52791 0.91458 0.0
H764 H 0.64048 0.5828 0.95745 0.0
C765 C 0.64559 0.53641 0.89259 0.0
C766 C 0.66671 0.56182 0.89335 0.0
H767 H 0.60643 0.50849 0.91272 0.0
H768 H 0.64627 0.52336 0.87377 0.0
C769 C 0.66475 0.57825 0.91767 0.0
C770 C 0.09231 0.61756 0.46804 0.0
C771 C 0.1019 0.60186 0.47655 0.0
H772 H 0.09754 0.64998 0.43525 0.0
C773 C 0.12684 0.6094 0.4625 0.0
H774 H 0.07316 0.61214 0.47891 0.0
C775 C 0.14145 0.6317 0.43864 0.0
C776 C 0.13109 0.64656 0.42744 0.0
H777 H 0.1347 0.59763 0.46908 0.0
H778 H 0.16054 0.63682 0.42813 0.0
C779 C 0.10654 0.63946 0.44333 0.0
C780 C 0.50425 0.09447 0.90575 0.0
C781 C 0.4896 0.06768 0.90885 0.0
H782 H 0.50773 0.12842 0.88072 0.0
C783 C 0.46612 0.05453 0.88926 0.0
H784 H 0.52253 0.10517 0.92025 0.0
C785 C 0.45772 0.06785 0.86651 0.0
C786 C 0.47264 0.09462 0.86272 0.0
H787 H 0.45425 0.0339 0.89143 0.0
H788 H 0.43988 0.05712 0.85098 0.0
C789 C 0.49589 0.10779 0.88287 0.0
C790 C 0.41681 0.44939 0.39153 0.0
C791 C 0.42853 0.47247 0.40995 0.0
H792 H 0.3889 0.42555 0.35092 0.0
C793 C 0.41901 0.48849 0.40339 0.0
H794 H 0.42348 0.43647 0.39643 0.0
C795 C 0.39898 0.4821 0.37764 0.0
C796 C 0.38802 0.45953 0.35797 0.0
H797 H 0.42771 0.50647 0.41698 0.0
H798 H 0.39246 0.49511 0.37246 0.0
C799 C 0.39677 0.44298 0.36584 0.0
C800 C 0.9738 0.40038 0.92255 0.0
C801 C 0.95897 0.4062 0.94602 0.0
H802 H 0.97402 0.3769 0.88007 0.0
C803 C 0.93164 0.39001 0.94676 0.0
H804 H 0.99488 0.41198 0.92182 0.0
C805 C 0.91951 0.36905 0.9236 0.0
C806 C 0.93439 0.36391 0.89886 0.0
H807 H 0.91953 0.3939 0.96433 0.0
H808 H 0.89845 0.35712 0.92476 0.0
C809 C 0.96173 0.37977 0.89906 0.0
C810 C 0.96634 0.55858 0.98604 0.0
C811 C 0.96117 0.53406 0.98158 0.0
H812 H 0.95865 0.58707 0.96637 0.0
C813 C 0.94232 0.51829 0.95579 0.0
H814 H 0.98098 0.57098 0.00579 0.0
C815 C 0.92972 0.52744 0.93302 0.0
C816 C 0.93586 0.55256 0.93567 0.0
H817 H 0.93836 0.49939 0.95183 0.0
H818 H 0.91639 0.51533 0.91168 0.0
C819 C 0.95372 0.56776 0.96333 0.0
C820 C 0.4436 0.93789 0.4243 0.0
C821 C 0.44943 0.96183 0.43464 0.0
H822 H 0.41812 0.90441 0.39472 0.0
C823 C 0.43301 0.97024 0.42322 0.0
H824 H 0.45592 0.93095 0.43321 0.0
C825 C 0.41188 0.95555 0.39999 0.0
C826 C 0.40628 0.93174 0.38853 0.0
H827 H 0.43707 0.9886 0.43127 0.0
H828 H 0.40057 0.96337 0.38996 0.0
C829 C 0.42208 0.92285 0.40192 0.0
C830 C 0.50514 0.40252 0.9079 0.0
C831 C 0.49194 0.41543 0.90725 0.0
H832 H 0.50777 0.37236 0.88581 0.0
C833 C 0.4701 0.40675 0.88409 0.0
H834 H 0.52214 0.40888 0.92527 0.0
C835 C 0.46186 0.38584 0.86163 0.0
C836 C 0.47539 0.37327 0.8616 0.0
H837 H 0.4594 0.41616 0.88328 0.0
H838 H 0.44532 0.37998 0.8434 0.0
C839 C 0.49702 0.38173 0.88516 0.0
C840 C 0.09401 0.45737 0.42697 0.0
C841 C 0.10747 0.48133 0.44286 0.0
H842 H 0.09487 0.43287 0.38683 0.0
C843 C 0.13396 0.49833 0.4324 0.0
H844 H 0.07371 0.44369 0.43488 0.0
C845 C 0.14631 0.49196 0.4051 0.0
C846 C 0.13244 0.46843 0.38784 0.0
H847 H 0.14484 0.51696 0.44407 0.0
H848 H 0.16655 0.50568 0.39689 0.0
C849 C 0.1063 0.45103 0.39977 0.0
C850 C 0.61493 0.07795 0.89757 0.0
C851 C 0.61275 0.05852 0.92284 0.0
H852 H 0.63711 0.10602 0.85165 0.0
C853 C 0.63245 0.05324 0.92266 0.0
H854 H 0.59977 0.08214 0.89736 0.0
C855 C 0.65395 0.06697 0.89682 0.0
C856 C 0.65602 0.08618 0.87077 0.0
H857 H 0.63101 0.03829 0.94217 0.0
H858 H 0.66887 0.06246 0.89709 0.0
C859 C 0.63637 0.09166 0.87172 0.0
C860 C 0.5424 0.6002 0.42664 0.0
C861 C 0.56102 0.59516 0.44023 0.0
H862 H 0.53524 0.62577 0.39374 0.0
C863 C 0.58751 0.61318 0.43213 0.0
H864 H 0.52185 0.58658 0.43293 0.0
C865 C 0.59524 0.63524 0.4088 0.0
C866 C 0.57663 0.64006 0.39377 0.0
H867 H 0.60217 0.60967 0.44263 0.0
H868 H 0.61577 0.64791 0.40129 0.0
C869 C 0.55013 0.62253 0.40392 0.0
C870 C 0.46533 0.07045 0.57863 0.0
C871 C 0.49189 0.07914 0.57793 0.0
H872 H 0.43544 0.07557 0.59955 0.0
C873 C 0.50928 0.10104 0.59706 0.0
H874 H 0.45164 0.05369 0.5637 0.0
C875 C 0.5 0.1132 0.61861 0.0
C876 C 0.47316 0.10391 0.6209 0.0
H877 H 0.52985 0.10793 0.59705 0.0
H878 H 0.51377 0.12904 0.63507 0.0
C879 C 0.4561 0.0829 0.59943 0.0
C880 C 0.4257 0.45832 0.06311 0.0
C881 C 0.44824 0.48221 0.06781 0.0
H882 H 0.38562 0.43217 0.08025 0.0
C883 C 0.44751 0.49885 0.09284 0.0
H884 H 0.42601 0.44534 0.04367 0.0
C885 C 0.42458 0.49142 0.11381 0.0
C886 C 0.40199 0.46719 0.11008 0.0
H887 H 0.46484 0.51738 0.0967 0.0
H888 H 0.42484 0.50431 0.13401 0.0
C889 C 0.40272 0.45085 0.08406 0.0
C890 C 0.98658 0.40776 0.6045 0.0
C891 C 0.99112 0.43098 0.61637 0.0
H892 H 0.96659 0.36738 0.61684 0.0
C893 C 0.97893 0.43138 0.65056 0.0
H894 H 0.99591 0.40721 0.5781 0.0
C895 C 0.96231 0.4088 0.67271 0.0
C896 C 0.95759 0.38538 0.66104 0.0
H897 H 0.98236 0.44921 0.66014 0.0
H898 H 0.9535 0.40975 0.69937 0.0
C899 C 0.96995 0.38511 0.6267 0.0
C900 C 0.57538 0.95561 0.14711 0.0
C901 C 0.57075 0.95018 0.10776 0.0
H902 H 0.58732 0.94773 0.20148 0.0
C903 C 0.57424 0.93129 0.09367 0.0
H904 H 0.57218 0.96939 0.15949 0.0
C905 C 0.58232 0.91837 0.11828 0.0
C906 C 0.58751 0.92443 0.15717 0.0
H907 H 0.57117 0.92675 0.06351 0.0
H908 H 0.58501 0.90402 0.10679 0.0
C909 C 0.5839 0.94308 0.17135 0.0
C910 C 0.6235 0.53385 0.6454 0.0
C911 C 0.62731 0.54443 0.60717 0.0
H912 H 0.64098 0.53285 0.69855 0.0
C913 C 0.65285 0.5619 0.59269 0.0
H914 H 0.60408 0.52011 0.65722 0.0
C915 C 0.67411 0.56911 0.61637 0.0
C916 C 0.67022 0.55878 0.65482 0.0
H917 H 0.65635 0.57044 0.56337 0.0
H918 H 0.69356 0.58285 0.60468 0.0
C919 C 0.64469 0.5409 0.66891 0.0
C920 C 0.10579 0.62101 0.1258 0.0
C921 C 0.07911 0.60353 0.13466 0.0
H922 H 0.14085 0.6552 0.13974 0.0
C923 C 0.06751 0.60806 0.16593 0.0
H924 H 0.11566 0.61817 0.10237 0.0
C925 C 0.08231 0.6289 0.18844 0.0
C926 C 0.10906 0.64619 0.1799 0.0
H927 H 0.04695 0.59543 0.17332 0.0
H928 H 0.07276 0.63098 0.21319 0.0
C929 C 0.12046 0.64216 0.14781 0.0
loop_
_geom_bond_atom_site_label_1
_geom_bond_atom_site_label_2
_geom_bond_distance
_geom_bond_site_symmetry_2
_ccdc_geom_bond_type
C0 C1 1.443 . S
C0 N4 1.376 . S
C0 C38 1.389 . S
C1 C0 1.443 . S
C1 C2 1.340 . S
C1 H41 0.951 . S
C2 C1 1.340 . S
C2 C3 1.439 . S
C2 H42 0.950 . S
C3 C2 1.439 . S
C3 N4 1.374 . S
C3 C37 1.395 . S
N4 C0 1.376 . S
N4 C3 1.374 . S
N4 Co5 1.958 1_655 S
Co5 N4 1.958 1_455 S
Co5 N6 2.013 1_455 S
Co5 N11 2.058 . S
Co5 N16 1.980 . S
Co5 N21 2.290 . S
Co5 N27 2.276 1_455 S
N6 Co5 2.013 1_655 S
N6 C7 1.380 . S
N6 C10 1.377 1_655 S
C7 N6 1.380 . S
C7 C8 1.446 . S
C7 C37 1.391 . S
C8 C7 1.446 . S
C8 C9 1.339 1_655 S
C8 H43 0.949 . S
C9 C8 1.339 1_455 S
C9 C10 1.439 . S
C9 H44 0.950 . S
C10 N6 1.377 1_455 S
C10 C9 1.439 . S
C10 C39 1.392 . S
N11 Co5 2.058 . S
N11 C12 1.376 . S
N11 C15 1.374 . S
C12 N11 1.376 . S
C12 C13 1.443 . S
C12 C39 1.389 . S
C13 C12 1.443 . S
C13 C14 1.340 . S
C13 H45 0.951 . S
C14 C13 1.340 . S
C14 C15 1.439 . S
C14 H46 0.950 1_554 S
C15 N11 1.374 . S
C15 C14 1.439 . S
C15 C40 1.395 1_554 S
N16 Co5 1.980 . S
N16 C17 1.376 1_554 S
N16 C20 1.383 1_454 S
C17 N16 1.376 1_556 S
C17 C18 1.446 . S
C17 C40 1.391 . S
C18 C17 1.446 . S
C18 C19 1.339 1_455 S
C18 H47 0.949 . S
C19 C18 1.339 1_655 S
C19 C20 1.439 . S
C19 H48 0.950 . S
C20 N16 1.383 1_656 S
C20 C19 1.439 . S
C20 C38 1.392 1_556 S
N21 Co5 2.290 . S
N21 C24 1.332 . S
N21 C26 1.332 . S
C22 C23 1.386 . S
C22 C25 1.388 . S
C23 C22 1.386 . S
C23 C24 1.382 . S
C23 H49 0.950 . S
C24 N21 1.332 . S
C24 C23 1.382 . S
C24 H35 0.952 . S
C25 C22 1.388 . S
C25 C26 1.382 . S
C25 H50 0.950 . S
C26 N21 1.332 . S
C26 C25 1.382 . S
C26 H36 0.948 . S
N27 Co5 2.276 1_655 S
N27 C31 1.332 . S
N27 C32 1.332 1_554 S
C28 C29 1.388 . S
C28 C32 1.382 . S
C28 H51 0.950 . S
C29 C28 1.388 . S
C29 C30 1.386 1_556 S
C30 C29 1.386 1_554 S
C30 C31 1.382 . S
C30 H52 0.950 . S
C31 N27 1.332 . S
C31 C30 1.382 . S
C31 H33 0.952 . S
C32 N27 1.332 1_556 S
C32 C28 1.382 . S
C32 H34 0.948 . S
H33 C31 0.952 . S
H34 C32 0.948 . S
H35 C24 0.952 . S
H36 C26 0.948 . S
C37 C3 1.395 . S
C37 C7 1.391 . S
C38 C0 1.389 . S
C38 C20 1.392 1_554 S
C39 C10 1.392 . S
C39 C12 1.389 . S
C40 C15 1.395 1_556 S
C40 C17 1.391 . S
H41 C1 0.951 . S
H42 C2 0.950 . S
H43 C8 0.949 . S
H44 C9 0.950 . S
H45 C13 0.951 . S
H46 C14 0.950 1_556 S
H47 C18 0.949 . S
H48 C19 0.950 . S
H49 C23 0.950 . S
H50 C25 0.950 . S
H51 C28 0.950 . S
H52 C30 0.950 . S
C53 C54 1.443 . S
C53 N57 1.376 . S
C53 C91 1.389 . S
C54 C53 1.443 . S
C54 C55 1.340 . S
C54 H94 0.951 . S
C55 C54 1.340 . S
C55 C56 1.439 1_545 S
C55 H95 0.950 1_545 S
C56 C55 1.439 1_565 S
C56 N57 1.374 1_565 S
C56 C90 1.395 . S
N57 C53 1.376 . S
N57 C56 1.374 1_545 S
N57 Co58 2.008 . S
Co58 N57 2.008 . S
Co58 N59 1.995 1_545 S
Co58 N64 2.008 . S
Co58 N69 1.995 . S
Co58 N74 2.282 1_545 S
Co58 N80 2.282 . S
N59 Co58 1.995 1_565 S
N59 C60 1.376 . S
N59 C63 1.383 . S
C60 N59 1.376 . S
C60 C61 1.446 . S
C60 C90 1.391 . S
C61 C60 1.446 . S
C61 C62 1.339 . S
C61 H96 0.949 . S
C62 C61 1.339 . S
C62 C63 1.439 . S
C62 H97 0.950 . S
C63 N59 1.383 . S
C63 C62 1.439 . S
C63 C92 1.392 . S
N64 Co58 2.008 . S
N64 C65 1.376 1_545 S
N64 C68 1.374 . S
C65 N64 1.376 1_565 S
C65 C66 1.443 . S
C65 C92 1.389 . S
C66 C65 1.443 . S
C66 C67 1.340 1_565 S
C66 H98 0.951 . S
C67 C66 1.340 1_545 S
C67 C68 1.439 . S
C67 H99 0.950 . S
C68 N64 1.374 . S
C68 C67 1.439 . S
C68 C93 1.395 . S
N69 Co58 1.995 . S
N69 C70 1.376 . S
N69 C73 1.383 . S
C70 N69 1.376 . S
C70 C71 1.446 . S
C70 C93 1.391 . S
C71 C70 1.446 . S
C71 C72 1.339 . S
C71 H100 0.949 . S
C72 C71 1.339 . S
C72 C73 1.439 . S
C72 H101 0.950 . S
C73 N69 1.383 . S
C73 C72 1.439 . S
C73 C91 1.392 . S
N74 Co58 2.282 1_565 S
N74 C77 1.332 . S
N74 C79 1.332 . S
C75 C76 1.386 . S
C75 C78 1.388 . S
C76 C75 1.386 . S
C76 C77 1.382 . S
C76 H102 0.950 . S
C77 N74 1.332 . S
C77 C76 1.382 . S
C77 H88 0.952 1_565 S
C78 C75 1.388 . S
C78 C79 1.382 . S
C78 H103 0.950 . S
C79 N74 1.332 . S
C79 C78 1.382 . S
C79 H89 0.948 . S
N80 Co58 2.282 . S
N80 C84 1.332 . S
N80 C85 1.332 . S
C81 C82 1.388 . S
C81 C85 1.382 . S
C81 H104 0.950 . S
C82 C81 1.388 . S
C82 C83 1.386 . S
C83 C82 1.386 . S
C83 C84 1.382 . S
C83 H105 0.950 . S
C84 N80 1.332 . S
C84 C83 1.382 . S
C84 H86 0.952 . S
C85 N80 1.332 . S
C85 C81 1.382 . S
C85 H87 0.948 . S
H86 C84 0.952 . S
H87 C85 0.948 . S
H88 C77 0.952 1_545 S
H89 C79 0.948 . S
C90 C56 1.395 . S
C90 C60 1.391 . S
C91 C53 1.389 . S
C91 C73 1.392 . S
C92 C63 1.392 . S
C92 C65 1.389 . S
C93 C68 1.395 . S
C93 C70 1.391 . S
H94 C54 0.951 . S
H95 C55 0.950 1_565 S
H96 C61 0.949 . S
H97 C62 0.950 . S
H98 C66 0.951 . S
H99 C67 0.950 . S
H100 C71 0.949 . S
H101 C72 0.950 . S
H102 C76 0.950 . S
H103 C78 0.950 . S
H104 C81 0.950 . S
H105 C83 0.950 . S
C106 C107 1.443 . S
C106 N110 1.376 . S
C106 C144 1.389 . S
C107 C106 1.443 . S
C107 C108 1.340 . S
C107 H147 0.951 . S
C108 C107 1.340 . S
C108 C109 1.439 . S
C108 H148 0.950 . S
C109 C108 1.439 . S
C109 N110 1.374 . S
C109 C143 1.395 . S
N110 C106 1.376 . S
N110 C109 1.374 . S
N110 Co111 2.008 1_556 S
Co111 N110 2.008 1_554 S
Co111 N112 1.995 1_554 S
Co111 N117 2.008 . S
Co111 N122 1.995 . S
Co111 N127 2.282 . S
Co111 N133 2.282 1_554 S
N112 Co111 1.995 1_556 S
N112 C113 1.376 . S
N112 C116 1.383 1_556 S
C113 N112 1.376 . S
C113 C114 1.446 . S
C113 C143 1.391 . S
C114 C113 1.446 . S
C114 C115 1.339 . S
C114 H149 0.949 . S
C115 C114 1.339 . S
C115 C116 1.439 1_556 S
C115 H150 0.950 . S
C116 N112 1.383 1_554 S
C116 C115 1.439 1_554 S
C116 C145 1.392 . S
N117 Co111 2.008 . S
N117 C118 1.376 . S
N117 C121 1.374 . S
C118 N117 1.376 . S
C118 C119 1.443 . S
C118 C145 1.389 . S
C119 C118 1.443 . S
C119 C120 1.340 . S
C119 H151 0.951 . S
C120 C119 1.340 . S
C120 C121 1.439 . S
C120 H152 0.950 . S
C121 N117 1.374 . S
C121 C120 1.439 . S
C121 C146 1.395 . S
N122 Co111 1.995 . S
N122 C123 1.376 . S
N122 C126 1.395 . S
C123 N122 1.376 . S
C123 C124 1.446 . S
C123 C146 1.391 . S
C124 C123 1.446 . S
C124 C125 1.339 . S
C124 H153 0.949 . S
C125 C124 1.339 . S
C125 C126 1.450 . S
C125 H154 0.950 . S
C126 N122 1.395 . S
C126 C125 1.450 . S
C126 C144 1.372 1_554 S
N127 Co111 2.282 . S
N127 C130 1.332 . S
N127 C132 1.332 . S
C128 C129 1.386 . S
C128 C131 1.388 . S
C129 C128 1.386 . S
C129 C130 1.382 . S
C129 H155 0.950 . S
C130 N127 1.332 . S
C130 C129 1.382 . S
C130 H141 0.952 . S
C131 C128 1.388 . S
C131 C132 1.382 . S
C131 H156 0.950 . S
C132 N127 1.332 . S
C132 C131 1.382 . S
C132 H142 0.948 1_554 S
N133 Co111 2.282 1_556 S
N133 C137 1.332 . S
N133 C138 1.332 . S
C134 C135 1.388 . S
C134 C138 1.382 . S
C134 H157 0.950 . S
C135 C134 1.388 . S
C135 C136 1.386 . S
C136 C135 1.386 . S
C136 C137 1.382 . S
C136 H158 0.950 . S
C137 N133 1.332 . S
C137 C136 1.382 . S
C137 H139 0.952 . S
C138 N133 1.332 . S
C138 C134 1.382 . S
C138 H140 0.948 1_556 S
H139 C137 0.952 . S
H140 C138 0.948 1_554 S
H141 C130 0.952 . S
H142 C132 0.948 1_556 S
C143 C109 1.395 . S
C143 C113 1.391 . S
C144 C106 1.389 . S
C144 C126 1.372 1_556 S
C145 C116 1.392 . S
C145 C118 1.389 . S
C146 C121 1.395 . S
C146 C123 1.391 . S
H147 C107 0.951 . S
H148 C108 0.950 . S
H149 C114 0.949 . S
H150 C115 0.950 . S
H151 C119 0.951 . S
H152 C120 0.950 . S
H153 C124 0.949 . S
H154 C125 0.950 . S
H155 C129 0.950 . S
H156 C131 0.950 . S
H157 C134 0.950 . S
H158 C136 0.950 . S
C159 C160 1.443 1_455 S
C159 N163 1.376 . S
C159 C197 1.389 . S
C160 C159 1.443 1_655 S
C160 C161 1.340 . S
C160 H200 0.951 . S
C161 C160 1.340 . S
C161 C162 1.439 1_655 S
C161 H201 0.950 . S
C162 C161 1.439 1_455 S
C162 N163 1.374 . S
C162 C196 1.395 . S
N163 C159 1.376 . S
N163 C162 1.374 . S
N163 Co164 2.008 . S
Co164 N163 2.008 . S
Co164 N165 1.995 . S
Co164 N170 2.008 . S
Co164 N175 1.995 . S
Co164 N180 2.282 . S
Co164 N186 2.282 . S
N165 Co164 1.995 . S
N165 C166 1.376 . S
N165 C169 1.383 . S
C166 N165 1.376 . S
C166 C167 1.446 . S
C166 C196 1.391 . S
C167 C166 1.446 . S
C167 C168 1.339 . S
C167 H202 0.949 . S
C168 C167 1.339 . S
C168 C169 1.439 . S
C168 H203 0.950 . S
C169 N165 1.383 . S
C169 C168 1.439 . S
C169 C198 1.392 . S
N170 Co164 2.008 . S
N170 C171 1.376 . S
N170 C174 1.374 . S
C171 N170 1.376 . S
C171 C172 1.443 . S
C171 C198 1.389 . S
C172 C171 1.443 . S
C172 C173 1.340 . S
C172 H204 0.951 . S
C173 C172 1.340 . S
C173 C174 1.439 . S
C173 H205 0.950 . S
C174 N170 1.374 . S
C174 C173 1.439 . S
C174 C199 1.395 . S
N175 Co164 1.995 . S
N175 C176 1.376 . S
N175 C179 1.383 . S
C176 N175 1.376 . S
C176 C177 1.446 . S
C176 C199 1.391 . S
C177 C176 1.446 . S
C177 C178 1.339 . S
C177 H206 0.949 . S
C178 C177 1.339 . S
C178 C179 1.439 . S
C178 H207 0.950 . S
C179 N175 1.383 . S
C179 C178 1.439 . S
C179 C197 1.392 . S
N180 Co164 2.282 . S
N180 C183 1.332 . S
N180 C185 1.332 . S
C181 C182 1.386 . S
C181 C184 1.388 . S
C182 C181 1.386 . S
C182 C183 1.382 . S
C182 H208 0.950 . S
C183 N180 1.332 . S
C183 C182 1.382 . S
C183 H194 0.952 . S
C184 C181 1.388 . S
C184 C185 1.382 . S
C184 H209 0.950 . S
C185 N180 1.332 . S
C185 C184 1.382 . S
C185 H195 0.948 . S
N186 Co164 2.282 . S
N186 C190 1.332 . S
N186 C191 1.332 . S
C187 C188 1.388 . S
C187 C191 1.382 . S
C187 H210 0.950 . S
C188 C187 1.388 . S
C188 C189 1.387 . S
C189 C188 1.387 . S
C189 C190 1.422 . S
C189 H211 0.910 1_455 S
C190 N186 1.332 . S
C190 C189 1.422 . S
C190 H192 0.952 . S
C191 N186 1.332 . S
C191 C187 1.382 . S
C191 H193 0.948 . S
H192 C190 0.952 . S
H193 C191 0.948 . S
H194 C183 0.952 . S
H195 C185 0.948 . S
C196 C162 1.395 . S
C196 C166 1.391 . S
C197 C159 1.389 . S
C197 C179 1.392 . S
C198 C169 1.392 . S
C198 C171 1.389 . S
C199 C174 1.395 . S
C199 C176 1.391 . S
H200 C160 0.951 . S
H201 C161 0.950 . S
H202 C167 0.949 . S
H203 C168 0.950 . S
H204 C172 0.951 . S
H205 C173 0.950 . S
H206 C177 0.949 . S
H207 C178 0.950 . S
H208 C182 0.950 . S
H209 C184 0.950 . S
H210 C187 0.950 . S
H211 C189 0.910 1_655 S
C212 C213 1.443 . S
C212 N216 1.376 1_565 S
C212 C250 1.389 . S
C213 C212 1.443 . S
C213 C214 1.340 1_565 S
C213 H253 0.951 . S
C214 C213 1.340 1_545 S
C214 C215 1.439 . S
C214 H254 0.950 . S
C215 C214 1.439 . S
C215 N216 1.374 . S
C215 C249 1.395 . S
N216 C212 1.376 1_545 S
N216 C215 1.374 . S
N216 Co217 2.008 . S
Co217 N216 2.008 . S
Co217 N218 1.995 . S
Co217 N223 2.008 1_554 S
Co217 N228 1.995 1_544 S
Co217 N233 2.282 1_554 S
Co217 N239 2.282 1_545 S
N218 Co217 1.995 . S
N218 C219 1.376 . S
N218 C222 1.383 1_554 S
C219 N218 1.376 . S
C219 C220 1.446 . S
C219 C249 1.391 . S
C220 C219 1.446 . S
C220 C221 1.339 . S
C220 H255 0.949 . S
C221 C220 1.339 . S
C221 C222 1.439 1_554 S
C221 H256 0.950 1_554 S
C222 N218 1.383 1_556 S
C222 C221 1.439 1_556 S
C222 C251 1.392 . S
N223 Co217 2.008 1_556 S
N223 C224 1.376 . S
N223 C227 1.367 1_545 S
C224 N223 1.376 . S
C224 C225 1.443 . S
C224 C251 1.389 . S
C225 C224 1.443 . S
C225 C226 1.340 . S
C225 H257 0.951 . S
C226 C225 1.340 . S
C226 C227 1.438 1_545 S
C226 H258 0.950 . S
C227 N223 1.367 1_565 S
C227 C226 1.438 1_565 S
C227 C252 1.401 . S
N228 Co217 1.995 1_566 S
N228 C229 1.376 . S
N228 C232 1.383 1_556 S
C229 N228 1.376 . S
C229 C230 1.446 . S
C229 C252 1.391 . S
C230 C229 1.446 . S
C230 C231 1.353 . S
C230 H259 0.949 . S
C231 C230 1.353 . S
C231 C232 1.431 1_556 S
C231 H260 0.944 1_556 S
C232 N228 1.383 1_554 S
C232 C231 1.431 1_554 S
C232 C250 1.392 . S
N233 Co217 2.282 1_556 S
N233 C236 1.332 . S
N233 C238 1.332 . S
C234 C235 1.386 . S
C234 C237 1.388 . S
C235 C234 1.386 . S
C235 C236 1.382 . S
C235 H261 0.950 . S
C236 N233 1.332 . S
C236 C235 1.382 . S
C236 H247 0.952 . S
C237 C234 1.388 . S
C237 C238 1.382 . S
C237 H262 0.950 . S
C238 N233 1.332 . S
C238 C237 1.382 . S
C238 H248 0.948 1_556 S
N239 Co217 2.282 1_565 S
N239 C243 1.332 . S
N239 C244 1.332 . S
C240 C241 1.388 . S
C240 C244 1.382 . S
C240 H263 0.950 . S
C241 C240 1.388 . S
C241 C242 1.386 . S
C242 C241 1.386 . S
C242 C243 1.382 . S
C242 H264 0.950 . S
C243 N239 1.332 . S
C243 C242 1.382 . S
C243 H245 0.952 1_565 S
C244 N239 1.332 . S
C244 C240 1.382 . S
C244 H246 0.948 . S
H245 C243 0.952 1_545 S
H246 C244 0.948 . S
H247 C236 0.952 . S
H248 C238 0.948 1_554 S
C249 C215 1.395 . S
C249 C219 1.391 . S
C250 C212 1.389 . S
C250 C232 1.392 . S
C251 C222 1.392 . S
C251 C224 1.389 . S
C252 C227 1.401 . S
C252 C229 1.391 . S
H253 C213 0.951 . S
H254 C214 0.950 . S
H255 C220 0.949 . S
H256 C221 0.950 1_556 S
H257 C225 0.951 . S
H258 C226 0.950 . S
H259 C230 0.949 . S
H260 C231 0.944 1_554 S
H261 C235 0.950 . S
H262 C237 0.950 . S
H263 C240 0.950 . S
H264 C242 0.950 . S
C265 C266 1.443 . S
C265 N269 1.376 . S
C265 C303 1.389 . S
C266 C265 1.443 . S
C266 C267 1.340 . S
C266 H306 0.951 . S
C267 C266 1.340 . S
C267 C268 1.439 . S
C267 H307 0.950 . S
C268 C267 1.439 . S
C268 N269 1.374 . S
C268 C302 1.395 . S
N269 C265 1.376 . S
N269 C268 1.374 . S
N269 Co270 2.008 . S
Co270 N269 2.008 . S
Co270 N271 1.995 . S
Co270 N276 2.008 . S
Co270 N281 1.995 . S
Co270 N286 2.282 . S
Co270 N292 2.282 . S
N271 Co270 1.995 . S
N271 C272 1.376 . S
N271 C275 1.383 . S
C272 N271 1.376 . S
C272 C273 1.446 . S
C272 C302 1.391 . S
C273 C272 1.446 . S
C273 C274 1.339 . S
C273 H308 0.949 . S
C274 C273 1.339 . S
C274 C275 1.439 . S
C274 H309 0.950 . S
C275 N271 1.383 . S
C275 C274 1.439 . S
C275 C304 1.392 . S
N276 Co270 2.008 . S
N276 C277 1.376 . S
N276 C280 1.374 . S
C277 N276 1.376 . S
C277 C278 1.443 . S
C277 C304 1.389 . S
C278 C277 1.443 . S
C278 C279 1.340 . S
C278 H310 0.951 . S
C279 C278 1.340 . S
C279 C280 1.439 . S
C279 H311 0.950 . S
C280 N276 1.374 . S
C280 C279 1.439 . S
C280 C305 1.395 . S
N281 Co270 1.995 . S
N281 C282 1.376 . S
N281 C285 1.383 . S
C282 N281 1.376 . S
C282 C283 1.446 . S
C282 C305 1.391 . S
C283 C282 1.446 . S
C283 C284 1.339 . S
C283 H312 0.949 . S
C284 C283 1.339 . S
C284 C285 1.439 . S
C284 H313 0.950 . S
C285 N281 1.383 . S
C285 C284 1.439 . S
C285 C303 1.392 . S
N286 Co270 2.282 . S
N286 C289 1.332 . S
N286 C291 1.332 . S
C287 C288 1.386 . S
C287 C290 1.388 . S
C288 C287 1.386 . S
C288 C289 1.382 . S
C288 H314 0.950 . S
C289 N286 1.332 . S
C289 C288 1.382 . S
C289 H300 0.952 . S
C290 C287 1.388 . S
C290 C291 1.382 . S
C290 H315 0.950 . S
C291 N286 1.332 . S
C291 C290 1.382 . S
C291 H301 0.948 . S
N292 Co270 2.282 . S
N292 C296 1.332 . S
N292 C297 1.332 . S
C293 C294 1.388 . S
C293 C297 1.382 . S
C293 H316 0.950 . S
C294 C293 1.388 . S
C294 C295 1.386 . S
C295 C294 1.386 . S
C295 C296 1.382 . S
C295 H317 0.950 . S
C296 N292 1.332 . S
C296 C295 1.382 . S
C296 H298 0.952 . S
C297 N292 1.332 . S
C297 C293 1.382 . S
C297 H299 0.948 . S
H298 C296 0.952 . S
H299 C297 0.948 . S
H300 C289 0.952 . S
H301 C291 0.948 . S
C302 C268 1.395 . S
C302 C272 1.391 . S
C303 C265 1.389 . S
C303 C285 1.392 . S
C304 C275 1.392 . S
C304 C277 1.389 . S
C305 C280 1.395 . S
C305 C282 1.391 . S
H306 C266 0.951 . S
H307 C267 0.950 . S
H308 C273 0.949 . S
H309 C274 0.950 . S
H310 C278 0.951 . S
H311 C279 0.950 . S
H312 C283 0.949 . S
H313 C284 0.950 . S
H314 C288 0.950 . S
H315 C290 0.950 . S
H316 C293 0.950 . S
H317 C295 0.950 . S
H318 C345 0.929 . S
N319 C344 1.433 . S
N319 C350 1.435 . S
N319 C356 1.423 . S
H320 C346 0.930 . S
H321 C349 0.931 . S
H322 C348 0.929 . S
H323 C351 0.930 . S
H324 C352 0.932 . S
H325 C355 0.929 . S
H326 C354 0.931 . S
H327 C357 0.929 . S
H328 C361 0.932 . S
H329 C358 0.931 . S
H330 C360 0.929 . S
H331 C363 0.929 . S
H332 C364 0.930 . S
H333 C366 0.929 . S
H334 C367 0.931 . S
H335 C369 0.930 . S
H336 C370 0.932 . S
H337 C372 0.931 . S
H338 C373 0.929 . S
H339 C375 0.929 . S
H340 C376 0.931 . S
H341 C378 0.929 . S
N342 C362 1.433 . S
N342 C368 1.435 . S
N342 C374 1.423 . S
H343 C379 0.932 . S
C344 N319 1.433 . S
C344 C345 1.363 . S
C344 C349 1.370 . S
C345 H318 0.929 . S
C345 C344 1.363 . S
C345 C346 1.385 . S
C346 H320 0.930 . S
C346 C345 1.385 . S
C346 C347 1.357 . S
C347 C346 1.357 . S
C347 C348 1.406 . S
C348 H322 0.929 . S
C348 C347 1.406 . S
C348 C349 1.391 . S
C349 H321 0.931 . S
C349 C344 1.370 . S
C349 C348 1.391 . S
C350 N319 1.435 . S
C350 C351 1.358 . S
C350 C355 1.371 . S
C351 H323 0.930 . S
C351 C350 1.358 . S
C351 C352 1.405 . S
C352 H324 0.932 . S
C352 C351 1.405 . S
C352 C353 1.383 . S
C353 C352 1.383 . S
C353 C354 1.393 . S
C354 H326 0.931 . S
C354 C353 1.393 . S
C354 C355 1.382 . S
C355 H325 0.929 . S
C355 C350 1.371 . S
C355 C354 1.382 . S
C356 N319 1.423 . S
C356 C357 1.362 . S
C356 C361 1.388 . S
C357 H327 0.929 . S
C357 C356 1.362 . S
C357 C358 1.376 . S
C358 H329 0.931 . S
C358 C357 1.376 . S
C358 C359 1.396 . S
C359 C358 1.396 . S
C359 C360 1.348 . S
C359 C377 1.472 . S
C360 H330 0.929 . S
C360 C359 1.348 . S
C360 C361 1.443 . S
C361 H328 0.932 . S
C361 C356 1.388 . S
C361 C360 1.443 . S
C362 N342 1.433 . S
C362 C363 1.363 . S
C362 C367 1.370 . S
C363 H331 0.929 . S
C363 C362 1.363 . S
C363 C364 1.385 . S
C364 H332 0.930 . S
C364 C363 1.385 . S
C364 C365 1.357 . S
C365 C364 1.357 . S
C365 C366 1.406 . S
C366 H333 0.929 . S
C366 C365 1.406 . S
C366 C367 1.391 . S
C367 H334 0.931 . S
C367 C362 1.370 . S
C367 C366 1.391 . S
C368 N342 1.435 . S
C368 C369 1.358 . S
C368 C373 1.371 . S
C369 H335 0.930 . S
C369 C368 1.358 . S
C369 C370 1.405 . S
C370 H336 0.932 . S
C370 C369 1.405 . S
C370 C371 1.383 . S
C371 C370 1.383 . S
C371 C372 1.393 . S
C372 H337 0.931 . S
C372 C371 1.393 . S
C372 C373 1.382 . S
C373 H338 0.929 . S
C373 C368 1.371 . S
C373 C372 1.382 . S
C374 N342 1.423 . S
C374 C375 1.362 . S
C374 C379 1.388 . S
C375 H339 0.929 . S
C375 C374 1.362 . S
C375 C376 1.376 . S
C376 H340 0.931 . S
C376 C375 1.376 . S
C376 C377 1.396 . S
C377 C359 1.472 . S
C377 C376 1.396 . S
C377 C378 1.348 . S
C378 H341 0.929 . S
C378 C377 1.348 . S
C378 C379 1.443 . S
C379 H343 0.932 . S
C379 C374 1.388 . S
C379 C378 1.443 . S
H380 C407 0.929 . S
N381 C406 1.433 . S
N381 C412 1.435 . S
N381 C418 1.423 . S
H382 C408 0.930 . S
H383 C411 0.931 . S
H384 C410 0.929 . S
H385 C413 0.930 . S
H386 C414 0.932 . S
H387 C417 0.929 . S
H388 C416 0.931 . S
H389 C419 0.929 . S
H390 C423 0.932 . S
H391 C420 0.931 . S
H392 C422 0.929 . S
H393 C425 0.929 . S
H394 C426 0.930 . S
H395 C428 0.929 . S
H396 C429 0.931 . S
H397 C431 0.930 . S
H398 C432 0.932 . S
H399 C434 0.931 . S
H400 C435 0.929 . S
H401 C437 0.929 . S
H402 C438 0.931 . S
H403 C440 0.929 . S
N404 C424 1.433 . S
N404 C430 1.435 . S
N404 C436 1.423 . S
H405 C441 0.932 . S
C406 N381 1.433 . S
C406 C407 1.363 . S
C406 C411 1.370 . S
C407 H380 0.929 . S
C407 C406 1.363 . S
C407 C408 1.385 . S
C408 H382 0.930 . S
C408 C407 1.385 . S
C408 C409 1.357 . S
C409 C408 1.357 . S
C409 C410 1.406 . S
C410 H384 0.929 . S
C410 C409 1.406 . S
C410 C411 1.391 . S
C411 H383 0.931 . S
C411 C406 1.370 . S
C411 C410 1.391 . S
C412 N381 1.435 . S
C412 C413 1.358 . S
C412 C417 1.371 . S
C413 H385 0.930 . S
C413 C412 1.358 . S
C413 C414 1.405 . S
C414 H386 0.932 . S
C414 C413 1.405 . S
C414 C415 1.383 . S
C415 C414 1.383 . S
C415 C416 1.393 . S
C416 H388 0.931 . S
C416 C415 1.393 . S
C416 C417 1.382 . S
C417 H387 0.929 . S
C417 C412 1.371 . S
C417 C416 1.382 . S
C418 N381 1.423 . S
C418 C419 1.362 . S
C418 C423 1.388 . S
C419 H389 0.929 . S
C419 C418 1.362 . S
C419 C420 1.376 . S
C420 H391 0.931 . S
C420 C419 1.376 . S
C420 C421 1.396 . S
C421 C420 1.396 . S
C421 C422 1.348 . S
C421 C439 1.472 . S
C422 H392 0.929 . S
C422 C421 1.348 . S
C422 C423 1.443 . S
C423 H390 0.932 . S
C423 C418 1.388 . S
C423 C422 1.443 . S
C424 N404 1.433 . S
C424 C425 1.363 . S
C424 C429 1.370 . S
C425 H393 0.929 . S
C425 C424 1.363 . S
C425 C426 1.385 . S
C426 H394 0.930 . S
C426 C425 1.385 . S
C426 C427 1.357 . S
C427 C426 1.357 . S
C427 C428 1.406 . S
C428 H395 0.929 . S
C428 C427 1.406 . S
C428 C429 1.391 . S
C429 H396 0.931 . S
C429 C424 1.370 . S
C429 C428 1.391 . S
C430 N404 1.435 . S
C430 C431 1.358 . S
C430 C435 1.371 . S
C431 H397 0.930 . S
C431 C430 1.358 . S
C431 C432 1.405 . S
C432 H398 0.932 . S
C432 C431 1.405 . S
C432 C433 1.383 . S
C433 C432 1.383 . S
C433 C434 1.393 . S
C434 H399 0.931 . S
C434 C433 1.393 . S
C434 C435 1.382 . S
C435 H400 0.929 . S
C435 C430 1.371 . S
C435 C434 1.382 . S
C436 N404 1.423 . S
C436 C437 1.362 . S
C436 C441 1.388 . S
C437 H401 0.929 . S
C437 C436 1.362 . S
C437 C438 1.376 . S
C438 H402 0.931 . S
C438 C437 1.376 . S
C438 C439 1.396 . S
C439 C421 1.472 . S
C439 C438 1.396 . S
C439 C440 1.348 . S
C440 H403 0.929 . S
C440 C439 1.348 . S
C440 C441 1.443 . S
C441 H405 0.932 . S
C441 C436 1.388 . S
C441 C440 1.443 . S
H442 C469 0.929 . S
N443 C468 1.433 . S
N443 C474 1.435 . S
N443 C480 1.423 . S
H444 C470 0.930 . S
H445 C473 0.931 . S
H446 C472 0.929 . S
H447 C475 0.930 . S
H448 C476 0.932 . S
H449 C479 0.929 . S
H450 C478 0.931 . S
H451 C481 0.929 . S
H452 C485 0.932 . S
H453 C482 0.931 . S
H454 C484 0.929 . S
H455 C487 0.929 . S
H456 C488 0.930 . S
H457 C490 0.929 . S
H458 C491 0.931 . S
H459 C493 0.930 . S
H460 C494 0.932 . S
H461 C496 0.931 . S
H462 C497 0.929 . S
H463 C499 0.929 . S
H464 C500 0.931 . S
H465 C502 0.929 . S
N466 C486 1.433 . S
N466 C492 1.435 . S
N466 C498 1.423 . S
H467 C503 0.932 . S
C468 N443 1.433 . S
C468 C469 1.363 . S
C468 C473 1.370 . S
C469 H442 0.929 . S
C469 C468 1.363 . S
C469 C470 1.385 . S
C470 H444 0.930 . S
C470 C469 1.385 . S
C470 C471 1.357 . S
C471 C470 1.357 . S
C471 C472 1.406 . S
C472 H446 0.929 . S
C472 C471 1.406 . S
C472 C473 1.391 . S
C473 H445 0.931 . S
C473 C468 1.370 . S
C473 C472 1.391 . S
C474 N443 1.435 . S
C474 C475 1.358 . S
C474 C479 1.371 . S
C475 H447 0.930 . S
C475 C474 1.358 . S
C475 C476 1.405 . S
C476 H448 0.932 . S
C476 C475 1.405 . S
C476 C477 1.383 . S
C477 C476 1.383 . S
C477 C478 1.393 . S
C478 H450 0.931 . S
C478 C477 1.393 . S
C478 C479 1.382 . S
C479 H449 0.929 . S
C479 C474 1.371 . S
C479 C478 1.382 . S
C480 N443 1.423 . S
C480 C481 1.362 . S
C480 C485 1.388 . S
C481 H451 0.929 . S
C481 C480 1.362 . S
C481 C482 1.376 . S
C482 H453 0.931 . S
C482 C481 1.376 . S
C482 C483 1.396 . S
C483 C482 1.396 . S
C483 C484 1.348 . S
C483 C501 1.472 . S
C484 H454 0.929 . S
C484 C483 1.348 . S
C484 C485 1.443 . S
C485 H452 0.932 . S
C485 C480 1.388 . S
C485 C484 1.443 . S
C486 N466 1.433 . S
C486 C487 1.363 . S
C486 C491 1.370 . S
C487 H455 0.929 . S
C487 C486 1.363 . S
C487 C488 1.385 . S
C488 H456 0.930 . S
C488 C487 1.385 . S
C488 C489 1.357 . S
C489 C488 1.357 . S
C489 C490 1.406 . S
C490 H457 0.929 . S
C490 C489 1.406 . S
C490 C491 1.391 . S
C491 H458 0.931 . S
C491 C486 1.370 . S
C491 C490 1.391 . S
C492 N466 1.435 . S
C492 C493 1.358 . S
C492 C497 1.371 . S
C493 H459 0.930 . S
C493 C492 1.358 . S
C493 C494 1.405 . S
C494 H460 0.932 . S
C494 C493 1.405 . S
C494 C495 1.383 . S
C495 C494 1.383 . S
C495 C496 1.393 . S
C496 H461 0.931 . S
C496 C495 1.393 . S
C496 C497 1.382 . S
C497 H462 0.929 . S
C497 C492 1.371 . S
C497 C496 1.382 . S
C498 N466 1.423 . S
C498 C499 1.362 . S
C498 C503 1.388 . S
C499 H463 0.929 . S
C499 C498 1.362 . S
C499 C500 1.376 . S
C500 H464 0.931 . S
C500 C499 1.376 . S
C500 C501 1.396 . S
C501 C483 1.472 . S
C501 C500 1.396 . S
C501 C502 1.348 . S
C502 H465 0.929 . S
C502 C501 1.348 . S
C502 C503 1.443 . S
C503 H467 0.932 . S
C503 C498 1.388 . S
C503 C502 1.443 . S
H504 C531 0.929 . S
N505 C530 1.433 . S
N505 C536 1.435 . S
N505 C542 1.423 . S
H506 C532 0.930 . S
H507 C535 0.931 . S
H508 C534 0.929 . S
H509 C537 0.930 . S
H510 C538 0.932 . S
H511 C541 0.929 . S
H512 C540 0.931 . S
H513 C543 0.929 . S
H514 C547 0.932 . S
H515 C544 0.931 . S
H516 C546 0.929 . S
H517 C549 0.929 . S
H518 C550 0.930 . S
H519 C552 0.929 . S
H520 C553 0.931 . S
H521 C555 0.930 . S
H522 C556 0.932 . S
H523 C558 0.931 . S
H524 C559 0.929 . S
H525 C561 0.929 . S
H526 C562 0.931 . S
H527 C564 0.929 . S
N528 C548 1.433 . S
N528 C554 1.435 . S
N528 C560 1.423 . S
H529 C565 0.932 . S
C530 N505 1.433 . S
C530 C531 1.363 . S
C530 C535 1.370 . S
C531 H504 0.929 . S
C531 C530 1.363 . S
C531 C532 1.385 . S
C532 H506 0.930 . S
C532 C531 1.385 . S
C532 C533 1.357 . S
C533 C532 1.357 . S
C533 C534 1.406 . S
C534 H508 0.929 . S
C534 C533 1.406 . S
C534 C535 1.391 . S
C535 H507 0.931 . S
C535 C530 1.370 . S
C535 C534 1.391 . S
C536 N505 1.435 . S
C536 C537 1.358 . S
C536 C541 1.371 . S
C537 H509 0.930 . S
C537 C536 1.358 . S
C537 C538 1.405 . S
C538 H510 0.932 . S
C538 C537 1.405 . S
C538 C539 1.383 . S
C539 C538 1.383 . S
C539 C540 1.393 . S
C540 H512 0.931 . S
C540 C539 1.393 . S
C540 C541 1.382 . S
C541 H511 0.929 . S
C541 C536 1.371 . S
C541 C540 1.382 . S
C542 N505 1.423 . S
C542 C543 1.362 . S
C542 C547 1.388 . S
C543 H513 0.929 . S
C543 C542 1.362 . S
C543 C544 1.376 . S
C544 H515 0.931 . S
C544 C543 1.376 . S
C544 C545 1.396 . S
C545 C544 1.396 . S
C545 C546 1.348 . S
C545 C563 1.472 . S
C546 H516 0.929 . S
C546 C545 1.348 . S
C546 C547 1.443 . S
C547 H514 0.932 . S
C547 C542 1.388 . S
C547 C546 1.443 . S
C548 N528 1.433 . S
C548 C549 1.363 . S
C548 C553 1.370 . S
C549 H517 0.929 . S
C549 C548 1.363 . S
C549 C550 1.385 . S
C550 H518 0.930 . S
C550 C549 1.385 . S
C550 C551 1.357 . S
C551 C550 1.357 . S
C551 C552 1.406 . S
C552 H519 0.929 . S
C552 C551 1.406 . S
C552 C553 1.391 . S
C553 H520 0.931 . S
C553 C548 1.370 . S
C553 C552 1.391 . S
C554 N528 1.435 . S
C554 C555 1.358 . S
C554 C559 1.371 . S
C555 H521 0.930 . S
C555 C554 1.358 . S
C555 C556 1.405 . S
C556 H522 0.932 . S
C556 C555 1.405 . S
C556 C557 1.383 . S
C557 C556 1.383 . S
C557 C558 1.393 . S
C558 H523 0.931 . S
C558 C557 1.393 . S
C558 C559 1.382 . S
C559 H524 0.929 . S
C559 C554 1.371 . S
C559 C558 1.382 . S
C560 N528 1.423 . S
C560 C561 1.362 . S
C560 C565 1.388 . S
C561 H525 0.929 . S
C561 C560 1.362 . S
C561 C562 1.376 . S
C562 H526 0.931 . S
C562 C561 1.376 . S
C562 C563 1.396 . S
C563 C545 1.472 . S
C563 C562 1.396 . S
C563 C564 1.348 . S
C564 H527 0.929 . S
C564 C563 1.348 . S
C564 C565 1.443 . S
C565 H529 0.932 . S
C565 C560 1.388 . S
C565 C564 1.443 . S
H566 C593 0.929 . S
N567 C592 1.433 . S
N567 C598 1.435 . S
N567 C604 1.423 . S
H568 C594 0.930 . S
H569 C597 0.931 . S
H570 C596 0.929 . S
H571 C599 0.930 . S
H572 C600 0.932 . S
H573 C603 0.929 . S
H574 C602 0.931 . S
H575 C605 0.929 . S
H576 C609 0.932 . S
H577 C606 0.931 . S
H578 C608 0.929 . S
H579 C611 0.929 . S
H580 C612 0.930 . S
H581 C614 0.929 . S
H582 C615 0.931 . S
H583 C617 0.930 . S
H584 C618 0.932 . S
H585 C620 0.931 . S
H586 C621 0.929 . S
H587 C623 0.929 . S
H588 C624 0.931 . S
H589 C626 0.929 . S
N590 C610 1.433 . S
N590 C616 1.435 . S
N590 C622 1.423 . S
H591 C627 0.932 . S
C592 N567 1.433 . S
C592 C593 1.363 . S
C592 C597 1.370 . S
C593 H566 0.929 . S
C593 C592 1.363 . S
C593 C594 1.385 . S
C594 H568 0.930 . S
C594 C593 1.385 . S
C594 C595 1.357 . S
C595 C594 1.357 . S
C595 C596 1.406 . S
C596 H570 0.929 . S
C596 C595 1.406 . S
C596 C597 1.391 . S
C597 H569 0.931 . S
C597 C592 1.370 . S
C597 C596 1.391 . S
C598 N567 1.435 . S
C598 C599 1.358 . S
C598 C603 1.371 . S
C599 H571 0.930 . S
C599 C598 1.358 . S
C599 C600 1.405 . S
C600 H572 0.932 . S
C600 C599 1.405 . S
C600 C601 1.383 . S
C601 C600 1.383 . S
C601 C602 1.393 . S
C602 H574 0.931 . S
C602 C601 1.393 . S
C602 C603 1.382 . S
C603 H573 0.929 . S
C603 C598 1.371 . S
C603 C602 1.382 . S
C604 N567 1.423 . S
C604 C605 1.362 . S
C604 C609 1.388 . S
C605 H575 0.929 . S
C605 C604 1.362 . S
C605 C606 1.376 . S
C606 H577 0.931 . S
C606 C605 1.376 . S
C606 C607 1.396 . S
C607 C606 1.396 . S
C607 C608 1.348 . S
C607 C625 1.472 . S
C608 H578 0.929 . S
C608 C607 1.348 . S
C608 C609 1.443 . S
C609 H576 0.932 . S
C609 C604 1.388 . S
C609 C608 1.443 . S
C610 N590 1.433 . S
C610 C611 1.363 . S
C610 C615 1.370 . S
C611 H579 0.929 . S
C611 C610 1.363 . S
C611 C612 1.385 . S
C612 H580 0.930 . S
C612 C611 1.385 . S
C612 C613 1.357 . S
C613 C612 1.357 . S
C613 C614 1.406 . S
C614 H581 0.929 . S
C614 C613 1.406 . S
C614 C615 1.391 . S
C615 H582 0.931 . S
C615 C610 1.370 . S
C615 C614 1.391 . S
C616 N590 1.435 . S
C616 C617 1.358 . S
C616 C621 1.371 . S
C617 H583 0.930 . S
C617 C616 1.358 . S
C617 C618 1.405 . S
C618 H584 0.932 . S
C618 C617 1.405 . S
C618 C619 1.383 . S
C619 C618 1.383 . S
C619 C620 1.393 . S
C620 H585 0.931 . S
C620 C619 1.393 . S
C620 C621 1.382 . S
C621 H586 0.929 . S
C621 C616 1.371 . S
C621 C620 1.382 . S
C622 N590 1.423 . S
C622 C623 1.362 . S
C622 C627 1.388 . S
C623 H587 0.929 . S
C623 C622 1.362 . S
C623 C624 1.376 . S
C624 H588 0.931 . S
C624 C623 1.376 . S
C624 C625 1.396 . S
C625 C607 1.472 . S
C625 C624 1.396 . S
C625 C626 1.348 . S
C626 H589 0.929 . S
C626 C625 1.348 . S
C626 C627 1.443 . S
C627 H591 0.932 . S
C627 C622 1.388 . S
C627 C626 1.443 . S
H628 C655 0.929 . S
N629 C654 1.433 . S
N629 C660 1.435 . S
N629 C666 1.423 . S
H630 C656 0.930 . S
H631 C659 0.931 . S
H632 C658 0.929 . S
H633 C661 0.930 . S
H634 C662 0.932 . S
H635 C665 0.929 . S
H636 C664 0.931 . S
H637 C667 0.929 . S
H638 C671 0.932 . S
H639 C668 0.931 . S
H640 C670 0.929 . S
H641 C673 0.929 . S
H642 C674 0.930 . S
H643 C676 0.929 . S
H644 C677 0.931 . S
H645 C679 0.930 . S
H646 C680 0.932 . S
H647 C682 0.931 . S
H648 C683 0.929 . S
H649 C685 0.929 . S
H650 C686 0.931 . S
H651 C688 0.929 . S
N652 C672 1.433 . S
N652 C678 1.435 . S
N652 C684 1.423 . S
H653 C689 0.932 . S
C654 N629 1.433 . S
C654 C655 1.363 . S
C654 C659 1.370 . S
C655 H628 0.929 . S
C655 C654 1.363 . S
C655 C656 1.385 . S
C656 H630 0.930 . S
C656 C655 1.385 . S
C656 C657 1.357 . S
C657 C656 1.357 . S
C657 C658 1.406 . S
C658 H632 0.929 . S
C658 C657 1.406 . S
C658 C659 1.391 . S
C659 H631 0.931 . S
C659 C654 1.370 . S
C659 C658 1.391 . S
C660 N629 1.435 . S
C660 C661 1.358 . S
C660 C665 1.371 . S
C661 H633 0.930 . S
C661 C660 1.358 . S
C661 C662 1.405 . S
C662 H634 0.932 . S
C662 C661 1.405 . S
C662 C663 1.383 . S
C663 C662 1.383 . S
C663 C664 1.393 . S
C664 H636 0.931 . S
C664 C663 1.393 . S
C664 C665 1.382 . S
C665 H635 0.929 . S
C665 C660 1.371 . S
C665 C664 1.382 . S
C666 N629 1.423 . S
C666 C667 1.362 . S
C666 C671 1.388 . S
C667 H637 0.929 . S
C667 C666 1.362 . S
C667 C668 1.376 . S
C668 H639 0.931 . S
C668 C667 1.376 . S
C668 C669 1.396 . S
C669 C668 1.396 . S
C669 C670 1.348 . S
C669 C687 1.472 . S
C670 H640 0.929 . S
C670 C669 1.348 . S
C670 C671 1.443 . S
C671 H638 0.932 . S
C671 C666 1.388 . S
C671 C670 1.443 . S
C672 N652 1.433 . S
C672 C673 1.363 . S
C672 C677 1.370 . S
C673 H641 0.929 . S
C673 C672 1.363 . S
C673 C674 1.385 . S
C674 H642 0.930 . S
C674 C673 1.385 . S
C674 C675 1.357 . S
C675 C674 1.357 . S
C675 C676 1.406 . S
C676 H643 0.929 . S
C676 C675 1.406 . S
C676 C677 1.391 . S
C677 H644 0.931 . S
C677 C672 1.370 . S
C677 C676 1.391 . S
C678 N652 1.435 . S
C678 C679 1.358 . S
C678 C683 1.371 . S
C679 H645 0.930 . S
C679 C678 1.358 . S
C679 C680 1.405 . S
C680 H646 0.932 . S
C680 C679 1.405 . S
C680 C681 1.383 . S
C681 C680 1.383 . S
C681 C682 1.393 . S
C682 H647 0.931 . S
C682 C681 1.393 . S
C682 C683 1.382 . S
C683 H648 0.929 . S
C683 C678 1.371 . S
C683 C682 1.382 . S
C684 N652 1.423 . S
C684 C685 1.362 . S
C684 C689 1.388 . S
C685 H649 0.929 . S
C685 C684 1.362 . S
C685 C686 1.376 . S
C686 H650 0.931 . S
C686 C685 1.376 . S
C686 C687 1.396 . S
C687 C669 1.472 . S
C687 C686 1.396 . S
C687 C688 1.348 . S
C688 H651 0.929 . S
C688 C687 1.348 . S
C688 C689 1.443 . S
C689 H653 0.932 . S
C689 C684 1.388 . S
C689 C688 1.443 . S
C690 C691 1.387 . S
C690 H694 0.950 . S
C690 C699 1.390 . S
C691 C690 1.387 . S
C691 C693 1.387 . S
H692 C699 0.950 . S
C693 C691 1.387 . S
C693 C695 1.390 . S
C693 H697 0.950 . S
H694 C690 0.950 . S
C695 C693 1.390 . S
C695 C696 1.387 . S
C695 H698 0.950 . S
C696 C695 1.387 . S
C696 C699 1.387 . S
H697 C693 0.950 . S
H698 C695 0.950 . S
C699 C690 1.390 . S
C699 H692 0.950 . S
C699 C696 1.387 . S
C700 C701 1.387 . S
C700 H704 0.950 . S
C700 C709 1.390 . S
C701 C700 1.387 . S
C701 C703 1.387 . S
H702 C709 0.950 . S
C703 C701 1.387 . S
C703 C705 1.390 . S
C703 H707 0.950 . S
H704 C700 0.950 . S
C705 C703 1.390 . S
C705 C706 1.387 . S
C705 H708 0.950 . S
C706 C705 1.387 . S
C706 C709 1.387 . S
H707 C703 0.950 . S
H708 C705 0.950 . S
C709 C700 1.390 . S
C709 H702 0.950 . S
C709 C706 1.387 . S
C710 C711 1.387 . S
C710 H714 0.950 . S
C710 C719 1.390 . S
C711 C710 1.387 . S
C711 C713 1.387 . S
H712 C719 0.950 . S
C713 C711 1.387 . S
C713 C715 1.390 . S
C713 H717 0.950 . S
H714 C710 0.950 . S
C715 C713 1.390 . S
C715 C716 1.387 . S
C715 H718 0.950 . S
C716 C715 1.387 . S
C716 C719 1.387 . S
H717 C713 0.950 . S
H718 C715 0.950 . S
C719 C710 1.390 . S
C719 H712 0.950 . S
C719 C716 1.387 . S
C720 C721 1.387 . S
C720 H724 0.950 . S
C720 C729 1.390 . S
C721 C720 1.387 . S
C721 C723 1.387 . S
H722 C729 0.950 . S
C723 C721 1.387 . S
C723 C725 1.390 . S
C723 H727 0.950 . S
H724 C720 0.950 . S
C725 C723 1.390 . S
C725 C726 1.387 . S
C725 H728 0.950 . S
C726 C725 1.387 . S
C726 C729 1.387 . S
H727 C723 0.950 . S
H728 C725 0.950 . S
C729 C720 1.390 . S
C729 H722 0.950 . S
C729 C726 1.387 . S
C730 C731 1.387 . S
C730 H734 0.950 . S
C730 C739 1.390 . S
C731 C730 1.387 . S
C731 C733 1.387 . S
H732 C739 0.950 . S
C733 C731 1.387 . S
C733 C735 1.390 . S
C733 H737 0.950 . S
H734 C730 0.950 . S
C735 C733 1.390 . S
C735 C736 1.387 . S
C735 H738 0.950 . S
C736 C735 1.387 . S
C736 C739 1.387 . S
H737 C733 0.950 . S
H738 C735 0.950 . S
C739 C730 1.390 . S
C739 H732 0.950 . S
C739 C736 1.387 . S
C740 C741 1.387 . S
C740 H744 0.950 . S
C740 C749 1.390 . S
C741 C740 1.387 . S
C741 C743 1.387 . S
H742 C749 0.950 . S
C743 C741 1.387 . S
C743 C745 1.390 . S
C743 H747 0.950 . S
H744 C740 0.950 . S
C745 C743 1.390 . S
C745 C746 1.387 . S
C745 H748 0.950 . S
C746 C745 1.387 . S
C746 C749 1.387 . S
H747 C743 0.950 . S
H748 C745 0.950 . S
C749 C740 1.390 . S
C749 H742 0.950 . S
C749 C746 1.387 . S
C750 C751 1.387 . S
C750 H754 0.950 . S
C750 C759 1.390 . S
C751 C750 1.387 . S
C751 C753 1.387 . S
H752 C759 0.950 . S
C753 C751 1.387 . S
C753 C755 1.390 . S
C753 H757 0.950 . S
H754 C750 0.950 . S
C755 C753 1.390 . S
C755 C756 1.387 . S
C755 H758 0.950 . S
C756 C755 1.387 . S
C756 C759 1.387 . S
H757 C753 0.950 . S
H758 C755 0.950 . S
C759 C750 1.390 . S
C759 H752 0.950 . S
C759 C756 1.387 . S
C760 C761 1.387 . S
C760 H764 0.950 . S
C760 C769 1.390 . S
C761 C760 1.387 . S
C761 C763 1.387 . S
H762 C769 0.950 . S
C763 C761 1.387 . S
C763 C765 1.390 . S
C763 H767 0.950 . S
H764 C760 0.950 . S
C765 C763 1.390 . S
C765 C766 1.387 . S
C765 H768 0.950 . S
C766 C765 1.387 . S
C766 C769 1.387 . S
H767 C763 0.950 . S
H768 C765 0.950 . S
C769 C760 1.390 . S
C769 H762 0.950 . S
C769 C766 1.387 . S
C770 C771 1.387 . S
C770 H774 0.950 . S
C770 C779 1.390 . S
C771 C770 1.387 . S
C771 C773 1.387 . S
H772 C779 0.950 . S
C773 C771 1.387 . S
C773 C775 1.390 . S
C773 H777 0.950 . S
H774 C770 0.950 . S
C775 C773 1.390 . S
C775 C776 1.387 . S
C775 H778 0.950 . S
C776 C775 1.387 . S
C776 C779 1.387 . S
H777 C773 0.950 . S
H778 C775 0.950 . S
C779 C770 1.390 . S
C779 H772 0.950 . S
C779 C776 1.387 . S
C780 C781 1.387 . S
C780 H784 0.950 . S
C780 C789 1.390 . S
C781 C780 1.387 . S
C781 C783 1.387 . S
H782 C789 0.950 . S
C783 C781 1.387 . S
C783 C785 1.390 . S
C783 H787 0.950 . S
H784 C780 0.950 . S
C785 C783 1.390 . S
C785 C786 1.387 . S
C785 H788 0.950 . S
C786 C785 1.387 . S
C786 C789 1.387 . S
H787 C783 0.950 . S
H788 C785 0.950 . S
C789 C780 1.390 . S
C789 H782 0.950 . S
C789 C786 1.387 . S
C790 C791 1.387 . S
C790 H794 0.950 . S
C790 C799 1.390 . S
C791 C790 1.387 . S
C791 C793 1.387 . S
H792 C799 0.950 . S
C793 C791 1.387 . S
C793 C795 1.390 . S
C793 H797 0.950 . S
H794 C790 0.950 . S
C795 C793 1.390 . S
C795 C796 1.387 . S
C795 H798 0.950 . S
C796 C795 1.387 . S
C796 C799 1.387 . S
H797 C793 0.950 . S
H798 C795 0.950 . S
C799 C790 1.390 . S
C799 H792 0.950 . S
C799 C796 1.387 . S
C800 C801 1.387 . S
C800 H804 0.950 . S
C800 C809 1.390 . S
C801 C800 1.387 . S
C801 C803 1.387 . S
H802 C809 0.950 . S
C803 C801 1.387 . S
C803 C805 1.390 . S
C803 H807 0.950 . S
H804 C800 0.950 . S
C805 C803 1.390 . S
C805 C806 1.387 . S
C805 H808 0.950 . S
C806 C805 1.387 . S
C806 C809 1.387 . S
H807 C803 0.950 . S
H808 C805 0.950 . S
C809 C800 1.390 . S
C809 H802 0.950 . S
C809 C806 1.387 . S
C810 C811 1.387 1_554 S
C810 H814 0.950 . S
C810 C819 1.390 1_554 S
C811 C810 1.387 1_556 S
C811 C813 1.387 . S
H812 C819 0.950 1_554 S
C813 C811 1.387 . S
C813 C815 1.390 . S
C813 H817 0.950 . S
H814 C810 0.950 . S
C815 C813 1.390 . S
C815 C816 1.387 . S
C815 H818 0.950 . S
C816 C815 1.387 . S
C816 C819 1.387 . S
H817 C813 0.950 . S
H818 C815 0.950 . S
C819 C810 1.390 1_556 S
C819 H812 0.950 1_556 S
C819 C816 1.387 . S
C820 C821 1.387 . S
C820 H824 0.950 . S
C820 C829 1.390 . S
C821 C820 1.387 . S
C821 C823 1.387 . S
H822 C829 0.950 . S
C823 C821 1.387 . S
C823 C825 1.390 . S
C823 H827 0.950 . S
H824 C820 0.950 . S
C825 C823 1.390 . S
C825 C826 1.387 . S
C825 H828 0.950 . S
C826 C825 1.387 . S
C826 C829 1.387 . S
H827 C823 0.950 . S
H828 C825 0.950 . S
C829 C820 1.390 . S
C829 H822 0.950 . S
C829 C826 1.387 . S
C830 C831 1.387 . S
C830 H834 0.950 . S
C830 C839 1.390 . S
C831 C830 1.387 . S
C831 C833 1.387 . S
H832 C839 0.950 . S
C833 C831 1.387 . S
C833 C835 1.390 . S
C833 H837 0.950 . S
H834 C830 0.950 . S
C835 C833 1.390 . S
C835 C836 1.387 . S
C835 H838 0.950 . S
C836 C835 1.387 . S
C836 C839 1.387 . S
H837 C833 0.950 . S
H838 C835 0.950 . S
C839 C830 1.390 . S
C839 H832 0.950 . S
C839 C836 1.387 . S
C840 C841 1.387 . S
C840 H844 0.950 . S
C840 C849 1.390 . S
C841 C840 1.387 . S
C841 C843 1.387 . S
H842 C849 0.950 . S
C843 C841 1.387 . S
C843 C845 1.390 . S
C843 H847 0.950 . S
H844 C840 0.950 . S
C845 C843 1.390 . S
C845 C846 1.387 . S
C845 H848 0.950 . S
C846 C845 1.387 . S
C846 C849 1.387 . S
H847 C843 0.950 . S
H848 C845 0.950 . S
C849 C840 1.390 . S
C849 H842 0.950 . S
C849 C846 1.387 . S
C850 C851 1.387 . S
C850 H854 0.950 . S
C850 C859 1.390 . S
C851 C850 1.387 . S
C851 C853 1.387 . S
H852 C859 0.950 . S
C853 C851 1.387 . S
C853 C855 1.390 . S
C853 H857 0.950 . S
H854 C850 0.950 . S
C855 C853 1.390 . S
C855 C856 1.387 . S
C855 H858 0.950 . S
C856 C855 1.387 . S
C856 C859 1.387 . S
H857 C853 0.950 . S
H858 C855 0.950 . S
C859 C850 1.390 . S
C859 H852 0.950 . S
C859 C856 1.387 . S
C860 C861 1.387 . S
C860 H864 0.950 . S
C860 C869 1.390 . S
C861 C860 1.387 . S
C861 C863 1.387 . S
H862 C869 0.950 . S
C863 C861 1.387 . S
C863 C865 1.390 . S
C863 H867 0.950 . S
H864 C860 0.950 . S
C865 C863 1.390 . S
C865 C866 1.387 . S
C865 H868 0.950 . S
C866 C865 1.387 . S
C866 C869 1.387 . S
H867 C863 0.950 . S
H868 C865 0.950 . S
C869 C860 1.390 . S
C869 H862 0.950 . S
C869 C866 1.387 . S
C870 C871 1.387 . S
C870 H874 0.950 . S
C870 C879 1.390 . S
C871 C870 1.387 . S
C871 C873 1.387 . S
H872 C879 0.950 . S
C873 C871 1.387 . S
C873 C875 1.390 . S
C873 H877 0.950 . S
H874 C870 0.950 . S
C875 C873 1.390 . S
C875 C876 1.387 . S
C875 H878 0.950 . S
C876 C875 1.387 . S
C876 C879 1.387 . S
H877 C873 0.950 . S
H878 C875 0.950 . S
C879 C870 1.390 . S
C879 H872 0.950 . S
C879 C876 1.387 . S
C880 C881 1.387 . S
C880 H884 0.950 . S
C880 C889 1.390 . S
C881 C880 1.387 . S
C881 C883 1.387 . S
H882 C889 0.950 . S
C883 C881 1.387 . S
C883 C885 1.390 . S
C883 H887 0.950 . S
H884 C880 0.950 . S
C885 C883 1.390 . S
C885 C886 1.387 . S
C885 H888 0.950 . S
C886 C885 1.387 . S
C886 C889 1.387 . S
H887 C883 0.950 . S
H888 C885 0.950 . S
C889 C880 1.390 . S
C889 H882 0.950 . S
C889 C886 1.387 . S
C890 C891 1.387 . S
C890 H894 0.950 . S
C890 C899 1.390 . S
C891 C890 1.387 . S
C891 C893 1.387 . S
H892 C899 0.950 . S
C893 C891 1.387 . S
C893 C895 1.390 . S
C893 H897 0.950 1_655 S
H894 C890 0.950 . S
C895 C893 1.390 . S
C895 C896 1.387 . S
C895 H898 0.950 . S
C896 C895 1.387 . S
C896 C899 1.387 . S
H897 C893 0.950 1_455 S
H898 C895 0.950 . S
C899 C890 1.390 . S
C899 H892 0.950 . S
C899 C896 1.387 . S
C900 C901 1.387 . S
C900 H904 0.950 . S
C900 C909 1.390 . S
C901 C900 1.387 . S
C901 C903 1.387 . S
H902 C909 0.950 . S
C903 C901 1.387 . S
C903 C905 1.390 . S
C903 H907 0.950 . S
H904 C900 0.950 . S
C905 C903 1.390 . S
C905 C906 1.387 . S
C905 H908 0.950 . S
C906 C905 1.387 . S
C906 C909 1.387 . S
H907 C903 0.950 . S
H908 C905 0.950 . S
C909 C900 1.390 . S
C909 H902 0.950 . S
C909 C906 1.387 . S
C910 C911 1.387 . S
C910 H914 0.950 . S
C910 C919 1.390 . S
C911 C910 1.387 . S
C911 C913 1.387 . S
H912 C919 0.950 . S
C913 C911 1.387 . S
C913 C915 1.390 . S
C913 H917 0.950 . S
H914 C910 0.950 . S
C915 C913 1.390 . S
C915 C916 1.387 . S
C915 H918 0.950 . S
C916 C915 1.387 . S
C916 C919 1.387 . S
H917 C913 0.950 . S
H918 C915 0.950 . S
C919 C910 1.390 . S
C919 H912 0.950 . S
C919 C916 1.387 . S
C920 C921 1.387 . S
C920 H924 0.950 . S
C920 C929 1.390 . S
C921 C920 1.387 . S
C921 C923 1.387 . S
H922 C929 0.950 . S
C923 C921 1.387 . S
C923 C925 1.390 . S
C923 H927 0.950 . S
H924 C920 0.950 . S
C925 C923 1.390 . S
C925 C926 1.387 . S
C925 H928 0.950 . S
C926 C925 1.387 . S
C926 C929 1.387 . S
H927 C923 0.950 . S
H928 C925 0.950 . S
C929 C920 1.390 . S
C929 H922 0.950 . S
C929 C926 1.387 . S
C691 C39 1.773 . S
C696 C371 1.650 . S
C701 C91 1.792 . S
C706 C415 1.739 . S
C716 C495 1.512 . S
C711 C128 1.567 . S
C726 C539 1.487 . S
C721 C188 1.522 1_655 S
C736 C619 1.666 . S
C731 C250 1.729 . S
C746 C675 1.784 . S
C741 C304 1.982 . S
C751 C75 1.944 . S
C756 C471 1.652 . S
C761 C144 1.798 . S
C766 C551 1.637 . S
C776 C595 1.717 . S
C771 C198 1.900 . S
C786 C663 1.562 . S
C781 C234 1.579 . S
C791 C294 1.537 . S
C796 C347 1.426 . S
C806 C427 1.700 . S
C801 C29 1.727 . S
C816 C533 1.851 . S
C811 C38 1.977 1_556 S
C821 C92 1.744 . S
C826 C613 1.571 . S
C836 C681 1.607 . S
C831 C135 1.615 . S
C841 C181 1.751 . S
C846 C365 1.667 . S
C851 C251 1.607 . S
C856 C409 1.546 . S
C861 C303 2.019 . S
C866 C489 1.736 . S
C871 C82 1.911 . S
C876 C657 1.693 . S
C886 C353 1.703 . S
C881 C145 1.843 . S
C891 C197 1.675 1_655 S
C896 C433 1.603 . S
C901 C241 1.534 . S
C906 C477 1.469 . S
C911 C287 1.654 . S
C916 C557 1.638 . S
C921 C22 1.539 . S
C926 C601 1.471 . S
