# Generated by pormake.
# Topology eea, (3,6)-cn, num edge types: 1
# Building blocks:
#     Node 0, Type 0, BuildingBlock: PAMTOO_clean_linker_0, # of connection points: 3
#     Node 1, Type 0, BuildingBlock: PAMTOO_clean_linker_0, # of connection points: 3
#     Node 2, Type 0, BuildingBlock: PAMTOO_clean_linker_0, # of connection points: 3
#     Node 3, Type 0, BuildingBlock: PAMTOO_clean_linker_0, # of connection points: 3
#     Node 4, Type 0, BuildingBlock: PAMTOO_clean_linker_0, # of connection points: 3
#     Node 5, Type 0, BuildingBlock: PAMTOO_clean_linker_0, # of connection points: 3
#     Node 6, Type 0, BuildingBlock: PAMTOO_clean_linker_0, # of connection points: 3
#     Node 7, Type 0, BuildingBlock: PAMTOO_clean_linker_0, # of connection points: 3
#     Node 8, Type 0, BuildingBlock: PAMTOO_clean_linker_0, # of connection points: 3
#     Node 9, Type 0, BuildingBlock: PAMTOO_clean_linker_0, # of connection points: 3
#     Node 10, Type 0, BuildingBlock: PAMTOO_clean_linker_0, # of connection points: 3
#     Node 11, Type 0, BuildingBlock: PAMTOO_clean_linker_0, # of connection points: 3
#     Node 12, Type 0, BuildingBlock: PAMTOO_clean_linker_0, # of connection points: 3
#     Node 13, Type 0, BuildingBlock: PAMTOO_clean_linker_0, # of connection points: 3
#     Node 14, Type 0, BuildingBlock: PAMTOO_clean_linker_0, # of connection points: 3
#     Node 15, Type 0, BuildingBlock: PAMTOO_clean_linker_0, # of connection points: 3
#     Node 16, Type 0, BuildingBlock: PAMTOO_clean_linker_0, # of connection points: 3
#     Node 17, Type 0, BuildingBlock: PAMTOO_clean_linker_0, # of connection points: 3
#     Node 18, Type 1, BuildingBlock: KUMJIN_clean_sbu_0, # of connection points: 6
#     Node 19, Type 1, BuildingBlock: KUMJIN_clean_sbu_0, # of connection points: 6
#     Node 20, Type 1, BuildingBlock: KUMJIN_clean_sbu_0, # of connection points: 6
#     Node 21, Type 1, BuildingBlock: KUMJIN_clean_sbu_0, # of connection points: 6
#     Node 22, Type 1, BuildingBlock: KUMJIN_clean_sbu_0, # of connection points: 6
#     Node 23, Type 1, BuildingBlock: KUMJIN_clean_sbu_0, # of connection points: 6
#     Node 24, Type 1, BuildingBlock: KUMJIN_clean_sbu_0, # of connection points: 6
#     Node 25, Type 1, BuildingBlock: KUMJIN_clean_sbu_0, # of connection points: 6
#     Node 26, Type 1, BuildingBlock: KUMJIN_clean_sbu_0, # of connection points: 6
#     Edge 27, Type (0, 1), BuildingBlock: XUDNAN_clean_linker_2, # of connection points: 2
#     Edge 28, Type (0, 1), BuildingBlock: XUDNAN_clean_linker_2, # of connection points: 2
#     Edge 29, Type (0, 1), BuildingBlock: XUDNAN_clean_linker_2, # of connection points: 2
#     Edge 30, Type (0, 1), BuildingBlock: XUDNAN_clean_linker_2, # of connection points: 2
#     Edge 31, Type (0, 1), BuildingBlock: XUDNAN_clean_linker_2, # of connection points: 2
#     Edge 32, Type (0, 1), BuildingBlock: XUDNAN_clean_linker_2, # of connection points: 2
#     Edge 33, Type (0, 1), BuildingBlock: XUDNAN_clean_linker_2, # of connection points: 2
#     Edge 34, Type (0, 1), BuildingBlock: XUDNAN_clean_linker_2, # of connection points: 2
#     Edge 35, Type (0, 1), BuildingBlock: XUDNAN_clean_linker_2, # of connection points: 2
#     Edge 36, Type (0, 1), BuildingBlock: XUDNAN_clean_linker_2, # of connection points: 2
#     Edge 37, Type (0, 1), BuildingBlock: XUDNAN_clean_linker_2, # of connection points: 2
#     Edge 38, Type (0, 1), BuildingBlock: XUDNAN_clean_linker_2, # of connection points: 2
#     Edge 39, Type (0, 1), BuildingBlock: XUDNAN_clean_linker_2, # of connection points: 2
#     Edge 40, Type (0, 1), BuildingBlock: XUDNAN_clean_linker_2, # of connection points: 2
#     Edge 41, Type (0, 1), BuildingBlock: XUDNAN_clean_linker_2, # of connection points: 2
#     Edge 42, Type (0, 1), BuildingBlock: XUDNAN_clean_linker_2, # of connection points: 2
#     Edge 43, Type (0, 1), BuildingBlock: XUDNAN_clean_linker_2, # of connection points: 2
#     Edge 44, Type (0, 1), BuildingBlock: XUDNAN_clean_linker_2, # of connection points: 2
#     Edge 45, Type (0, 1), BuildingBlock: XUDNAN_clean_linker_2, # of connection points: 2
#     Edge 46, Type (0, 1), BuildingBlock: XUDNAN_clean_linker_2, # of connection points: 2
#     Edge 47, Type (0, 1), BuildingBlock: XUDNAN_clean_linker_2, # of connection points: 2
#     Edge 48, Type (0, 1), BuildingBlock: XUDNAN_clean_linker_2, # of connection points: 2
#     Edge 49, Type (0, 1), BuildingBlock: XUDNAN_clean_linker_2, # of connection points: 2
#     Edge 50, Type (0, 1), BuildingBlock: XUDNAN_clean_linker_2, # of connection points: 2
#     Edge 51, Type (0, 1), BuildingBlock: XUDNAN_clean_linker_2, # of connection points: 2
#     Edge 52, Type (0, 1), BuildingBlock: XUDNAN_clean_linker_2, # of connection points: 2
#     Edge 53, Type (0, 1), BuildingBlock: XUDNAN_clean_linker_2, # of connection points: 2
#     Edge 54, Type (0, 1), BuildingBlock: XUDNAN_clean_linker_2, # of connection points: 2
#     Edge 55, Type (0, 1), BuildingBlock: XUDNAN_clean_linker_2, # of connection points: 2
#     Edge 56, Type (0, 1), BuildingBlock: XUDNAN_clean_linker_2, # of connection points: 2
#     Edge 57, Type (0, 1), BuildingBlock: XUDNAN_clean_linker_2, # of connection points: 2
#     Edge 58, Type (0, 1), BuildingBlock: XUDNAN_clean_linker_2, # of connection points: 2
#     Edge 59, Type (0, 1), BuildingBlock: XUDNAN_clean_linker_2, # of connection points: 2
#     Edge 60, Type (0, 1), BuildingBlock: XUDNAN_clean_linker_2, # of connection points: 2
#     Edge 61, Type (0, 1), BuildingBlock: XUDNAN_clean_linker_2, # of connection points: 2
#     Edge 62, Type (0, 1), BuildingBlock: XUDNAN_clean_linker_2, # of connection points: 2
#     Edge 63, Type (0, 1), BuildingBlock: XUDNAN_clean_linker_2, # of connection points: 2
#     Edge 64, Type (0, 1), BuildingBlock: XUDNAN_clean_linker_2, # of connection points: 2
#     Edge 65, Type (0, 1), BuildingBlock: XUDNAN_clean_linker_2, # of connection points: 2
#     Edge 66, Type (0, 1), BuildingBlock: XUDNAN_clean_linker_2, # of connection points: 2
#     Edge 67, Type (0, 1), BuildingBlock: XUDNAN_clean_linker_2, # of connection points: 2
#     Edge 68, Type (0, 1), BuildingBlock: XUDNAN_clean_linker_2, # of connection points: 2
#     Edge 69, Type (0, 1), BuildingBlock: XUDNAN_clean_linker_2, # of connection points: 2
#     Edge 70, Type (0, 1), BuildingBlock: XUDNAN_clean_linker_2, # of connection points: 2
#     Edge 71, Type (0, 1), BuildingBlock: XUDNAN_clean_linker_2, # of connection points: 2
#     Edge 72, Type (0, 1), BuildingBlock: XUDNAN_clean_linker_2, # of connection points: 2
#     Edge 73, Type (0, 1), BuildingBlock: XUDNAN_clean_linker_2, # of connection points: 2
#     Edge 74, Type (0, 1), BuildingBlock: XUDNAN_clean_linker_2, # of connection points: 2
#     Edge 75, Type (0, 1), BuildingBlock: XUDNAN_clean_linker_2, # of connection points: 2
#     Edge 76, Type (0, 1), BuildingBlock: XUDNAN_clean_linker_2, # of connection points: 2
#     Edge 77, Type (0, 1), BuildingBlock: XUDNAN_clean_linker_2, # of connection points: 2
#     Edge 78, Type (0, 1), BuildingBlock: XUDNAN_clean_linker_2, # of connection points: 2
#     Edge 79, Type (0, 1), BuildingBlock: XUDNAN_clean_linker_2, # of connection points: 2
#     Edge 80, Type (0, 1), BuildingBlock: XUDNAN_clean_linker_2, # of connection points: 2
# Relax obj value: 0.023
# Max RMSD: 0.165
# Mean RMSD: 0.119
data_MOF--net-eea--node1-KUMJIN_clean_sbu_0--node2-PAMTOO_clean_linker_0--edge1-XUDNAN_clean_linker_2
_symmetry_space_group_name_H-M    P1
_symmetry_Int_Tables_number       1
_symmetry_cell_setting            triclinic
loop_
_symmetry_equiv_pos_as_xyz
'x, y, z'
_cell_length_a     54.102129
_cell_length_b     55.574198
_cell_length_c     66.102925
_cell_angle_alpha  90.360417
_cell_angle_beta   89.83425
_cell_angle_gamma 120.00924
loop_
_atom_site_label
_atom_site_type_symbol
_atom_site_fract_x
_atom_site_fract_y
_atom_site_fract_z
_atom_type_partial_charge
H0 H 0.26049 0.07965 0.43639 0.0
H1 H 0.23503 0.14196 0.43672 0.0
H2 H 0.21276 0.08565 0.38671 0.0
H3 H 0.23234 0.14301 0.37366 0.0
C4 C 0.22933 0.15146 0.38817 0.0
O5 O 0.21247 0.12972 0.40094 0.0
H6 H 0.25082 0.16475 0.39502 0.0
C7 C 0.24953 0.08938 0.42959 0.0
C8 C 0.23589 0.07932 0.41078 0.0
C9 C 0.24952 0.11202 0.43938 0.0
C10 C 0.23577 0.12466 0.42973 0.0
C11 C 0.22309 0.11551 0.4107 0.0
C12 C 0.22257 0.0925 0.40146 0.0
H13 H 0.94729 0.18383 0.43169 0.0
H14 H 0.88367 0.0975 0.42391 0.0
H15 H 0.94413 0.14068 0.37659 0.0
H16 H 0.89094 0.09149 0.35757 0.0
C17 C 0.88031 0.08835 0.37252 0.0
O18 O 0.90001 0.09299 0.38754 0.0
H19 H 0.87272 0.10364 0.37353 0.0
C20 C 0.93736 0.16506 0.42255 0.0
C21 C 0.94833 0.16539 0.40316 0.0
C22 C 0.91431 0.14064 0.43043 0.0
C23 C 0.90182 0.11642 0.41838 0.0
C24 C 0.91247 0.11645 0.39901 0.0
C25 C 0.93606 0.14078 0.39159 0.0
H26 H 0.84746 0.78343 0.43713 0.0
H27 H 0.92686 0.78311 0.43937 0.0
H28 H 0.91293 0.82907 0.39308 0.0
H29 H 0.95675 0.82167 0.37789 0.0
C30 C 0.95508 0.80715 0.39 0.0
O31 O 0.94991 0.81632 0.40824 0.0
H32 H 0.93671 0.7864 0.38587 0.0
C33 C 0.86827 0.78955 0.43081 0.0
C34 C 0.87733 0.80641 0.4135 0.0
C35 C 0.88569 0.78083 0.44034 0.0
C36 C 0.91316 0.78977 0.43244 0.0
C37 C 0.9231 0.80736 0.41551 0.0
C38 C 0.90526 0.81588 0.40628 0.0
H39 H 0.08444 0.23854 0.60641 0.0
H40 H 0.14993 0.21604 0.60896 0.0
H41 H 0.09092 0.19564 0.6583 0.0
H42 H 0.14434 0.19191 0.67421 0.0
C43 C 0.15406 0.20523 0.66074 0.0
O44 O 0.13576 0.19302 0.64444 0.0
H45 H 0.15605 0.22568 0.66463 0.0
C46 C 0.09465 0.22865 0.6141 0.0
C47 C 0.08467 0.21712 0.63335 0.0
C48 C 0.11795 0.22822 0.60492 0.0
C49 C 0.13194 0.21664 0.61564 0.0
C50 C 0.12228 0.2048 0.63477 0.0
C51 C 0.09822 0.20455 0.64345 0.0
H52 H 0.79735 0.85208 0.60181 0.0
H53 H 0.7926 0.92719 0.60311 0.0
H54 H 0.82329 0.90454 0.65492 0.0
H55 H 0.79986 0.93714 0.66877 0.0
C56 C 0.79509 0.94249 0.65364 0.0
O57 O 0.81361 0.94183 0.63957 0.0
H58 H 0.77256 0.92685 0.64987 0.0
C59 C 0.80028 0.8704 0.60978 0.0
C60 C 0.81126 0.87575 0.62959 0.0
C61 C 0.79325 0.88863 0.60004 0.0
C62 C 0.79734 0.91254 0.61039 0.0
C63 C 0.8085 0.91821 0.63002 0.0
C64 C 0.81524 0.89988 0.63957 0.0
H65 H 0.18931 0.94342 0.60838 0.0
H66 H 0.10162 0.877 0.61073 0.0
H67 H 0.13752 0.93394 0.66044 0.0
H68 H 0.09894 0.87768 0.67535 0.0
C69 C 0.08925 0.86798 0.66056 0.0
O70 O 0.0926 0.88849 0.64722 0.0
H71 H 0.10052 0.85716 0.65476 0.0
C72 C 0.16885 0.93255 0.61593 0.0
C73 C 0.16604 0.94192 0.63517 0.0
C74 C 0.14583 0.90924 0.60662 0.0
C75 C 0.11987 0.89497 0.6173 0.0
C76 C 0.11708 0.90363 0.63671 0.0
C77 C 0.13989 0.92744 0.64541 0.0
H78 H 0.92907 0.41729 0.7751 0.0
H79 H 0.92561 0.49319 0.77096 0.0
H80 H 0.88132 0.42881 0.72772 0.0
H81 H 0.89668 0.48013 0.70836 0.0
C82 C 0.90647 0.4933 0.722 0.0
O83 O 0.89336 0.47795 0.73906 0.0
H84 H 0.92965 0.50008 0.72186 0.0
C85 C 0.9217 0.42989 0.76776 0.0
C86 C 0.90334 0.41903 0.75088 0.0
C87 C 0.93043 0.45694 0.77515 0.0
C88 C 0.92028 0.4728 0.76538 0.0
C89 C 0.9027 0.46244 0.74842 0.0
C90 C 0.89446 0.43591 0.7412 0.0
H91 H 0.61755 0.52005 0.7685 0.0
H92 H 0.5602 0.43195 0.76166 0.0
H93 H 0.62735 0.47514 0.71862 0.0
H94 H 0.57632 0.42071 0.69806 0.0
C95 C 0.56458 0.42034 0.71198 0.0
O96 O 0.58283 0.42694 0.72835 0.0
H97 H 0.55794 0.43619 0.70982 0.0
C98 C 0.61093 0.50068 0.76051 0.0
C99 C 0.62573 0.50069 0.74289 0.0
C100 C 0.58717 0.47604 0.76751 0.0
C101 C 0.57834 0.45123 0.7566 0.0
C102 C 0.59264 0.45092 0.73904 0.0
C103 C 0.61663 0.47551 0.7324 0.0
H104 H 0.51641 0.11936 0.76942 0.0
H105 H 0.6018 0.13184 0.76739 0.0
H106 H 0.56751 0.1516 0.71574 0.0
H107 H 0.60694 0.12908 0.70454 0.0
C108 C 0.61787 0.1329 0.7194 0.0
O109 O 0.61267 0.15105 0.73068 0.0
H110 H 0.60891 0.11265 0.72739 0.0
C111 C 0.53628 0.12577 0.76148 0.0
C112 C 0.53914 0.13554 0.74152 0.0
C113 C 0.5587 0.12444 0.77125 0.0
C114 C 0.58435 0.13312 0.76052 0.0
C115 C 0.58763 0.14287 0.74059 0.0
C116 C 0.56507 0.14433 0.73118 0.0
H117 H 0.74809 0.56991 0.93966 0.0
H118 H 0.82466 0.56438 0.94184 0.0
H119 H 0.76279 0.52882 0.98942 0.0
H120 H 0.82104 0.54236 1.00593 0.0
C121 C 0.83119 0.55178 0.99124 0.0
O122 O 0.81228 0.53712 0.97579 0.0
H123 H 0.83589 0.57374 0.9916 0.0
C124 C 0.76139 0.56332 0.94731 0.0
C125 C 0.7522 0.54903 0.96578 0.0
C126 C 0.7874 0.56891 0.93845 0.0
C127 C 0.80464 0.56044 0.94847 0.0
C128 C 0.79574 0.54593 0.96673 0.0
C129 C 0.76945 0.54001 0.97527 0.0
H130 H 0.44848 0.17426 0.9361 0.0
H131 H 0.44538 0.25009 0.93452 0.0
H132 H 0.48727 0.23555 0.98371 0.0
H133 H 0.46377 0.2688 0.99764 0.0
C134 C 0.45794 0.27343 0.98263 0.0
O135 O 0.47442 0.27058 0.96788 0.0
H136 H 0.43486 0.25835 0.98008 0.0
C137 C 0.45346 0.19389 0.94302 0.0
C138 C 0.46902 0.20241 0.96127 0.0
C139 C 0.4447 0.21081 0.93327 0.0
C140 C 0.45211 0.23683 0.9417 0.0
C141 C 0.46761 0.24562 0.95976 0.0
C142 C 0.47594 0.22851 0.96949 0.0
H143 H 0.85116 0.27199 0.93852 0.0
H144 H 0.77021 0.19528 0.93803 0.0
H145 H 0.79192 0.25108 0.98803 0.0
H146 H 0.76101 0.19078 0.99994 0.0
C147 C 0.7497 0.18194 0.98541 0.0
O148 O 0.75346 0.2033 0.9728 0.0
H149 H 0.75899 0.17007 0.97822 0.0
C150 C 0.83101 0.25775 0.94556 0.0
C151 C 0.82384 0.26519 0.96424 0.0
C152 C 0.8121 0.23234 0.93582 0.0
C153 C 0.78583 0.21441 0.94528 0.0
C154 C 0.77892 0.22096 0.96413 0.0
C155 C 0.79779 0.24624 0.97352 0.0
H156 H 0.60654 0.75539 0.10239 0.0
H157 H 0.59066 0.82408 0.10393 0.0
H158 H 0.55465 0.7635 0.05648 0.0
H159 H 0.57702 0.82022 0.04289 0.0
C160 C 0.57438 0.82987 0.05692 0.0
O161 O 0.55961 0.80952 0.07115 0.0
H162 H 0.59609 0.84487 0.06272 0.0
C163 C 0.59595 0.76596 0.09632 0.0
C164 C 0.57985 0.75613 0.07838 0.0
C165 C 0.60025 0.7907 0.10553 0.0
C166 C 0.58741 0.80492 0.0971 0.0
C167 C 0.57093 0.79503 0.07954 0.0
C168 C 0.5671 0.77069 0.07027 0.0
H169 H 0.2895 0.85362 0.1036 0.0
H170 H 0.22316 0.76761 0.10362 0.0
H171 H 0.27169 0.80403 0.04957 0.0
H172 H 0.20824 0.76553 0.04298 0.0
C173 C 0.20388 0.75198 0.05639 0.0
O174 O 0.22942 0.75851 0.06565 0.0
H175 H 0.19039 0.75607 0.06704 0.0
C176 C 0.27753 0.83376 0.09592 0.0
C177 C 0.28357 0.83158 0.0755 0.0
C178 C 0.25589 0.81089 0.10636 0.0
C179 C 0.23997 0.78553 0.09594 0.0
C180 C 0.24552 0.78302 0.0755 0.0
C181 C 0.26759 0.80597 0.06537 0.0
H182 H 0.18237 0.44986 0.10238 0.0
H183 H 0.26828 0.46338 0.10038 0.0
H184 H 0.23299 0.48132 0.0485 0.0
H185 H 0.27328 0.46304 0.03653 0.0
C186 C 0.28408 0.46568 0.05133 0.0
O187 O 0.27876 0.4828 0.06366 0.0
H188 H 0.27516 0.44482 0.05841 0.0
C189 C 0.20225 0.45626 0.09446 0.0
C190 C 0.20491 0.46537 0.07438 0.0
C191 C 0.2249 0.45531 0.10422 0.0
C192 C 0.25058 0.46418 0.09348 0.0
C193 C 0.25362 0.47373 0.07352 0.0
C194 C 0.23072 0.47423 0.06399 0.0
H195 H 0.40984 0.89772 0.27328 0.0
H196 H 0.48979 0.89869 0.27615 0.0
H197 H 0.42973 0.86295 0.32477 0.0
H198 H 0.48625 0.8794 0.34107 0.0
C199 C 0.49741 0.88805 0.32651 0.0
O200 O 0.47945 0.87276 0.31077 0.0
H201 H 0.50227 0.91003 0.32581 0.0
C202 C 0.42429 0.89298 0.28136 0.0
C203 C 0.41642 0.88001 0.30042 0.0
C204 C 0.45067 0.89981 0.27251 0.0
C205 C 0.46946 0.89363 0.28285 0.0
C206 C 0.46171 0.87996 0.3015 0.0
C207 C 0.43524 0.87312 0.3102 0.0
H208 H 0.11727 0.50306 0.26822 0.0
H209 H 0.11028 0.57654 0.26313 0.0
H210 H 0.14546 0.56326 0.3169 0.0
H211 H 0.10462 0.58427 0.32135 0.0
C212 C 0.11307 0.59978 0.30892 0.0
O213 O 0.13355 0.5973 0.2981 0.0
H214 H 0.09502 0.59565 0.29873 0.0
C215 C 0.12006 0.52215 0.27479 0.0
C216 C 0.13239 0.53073 0.29415 0.0
C217 C 0.11171 0.53829 0.26351 0.0
C218 C 0.11665 0.5638 0.27148 0.0
C219 C 0.12891 0.57268 0.29063 0.0
C220 C 0.13657 0.55618 0.30195 0.0
H221 H 0.51035 0.61673 0.26701 0.0
H222 H 0.43544 0.53557 0.26521 0.0
H223 H 0.45613 0.58444 0.31952 0.0
H224 H 0.42901 0.52373 0.32692 0.0
C225 C 0.41613 0.51594 0.31284 0.0
O226 O 0.41852 0.53811 0.30186 0.0
H227 H 0.42448 0.50467 0.30369 0.0
C228 C 0.49195 0.60021 0.27458 0.0
C229 C 0.48606 0.60385 0.29477 0.0
C230 C 0.47407 0.57564 0.26381 0.0
C231 C 0.44982 0.55437 0.27342 0.0
C232 C 0.44331 0.5577 0.29341 0.0
C233 C 0.46146 0.58227 0.30406 0.0
Eu234 Eu 0.49522 0.99844 0.99496 0.0
C235 C 0.56622 0.08323 0.06232 0.0
C236 C 0.61242 0.08655 0.05911 0.0
C237 C 0.60941 0.12674 0.07025 0.0
C238 C 0.58237 0.07108 0.05742 0.0
C239 C 0.57951 0.11102 0.0692 0.0
C240 C 0.62583 0.11453 0.06519 0.0
C241 C 0.53268 0.10519 0.07483 0.0
N242 N 0.53743 0.06761 0.06103 0.0
C243 C 0.52051 0.07777 0.06793 0.0
C244 C 0.56233 0.12203 0.07522 0.0
Eu245 Eu 0.51811 0.02181 0.04802 0.0
N246 N 0.56877 0.04407 0.0513 0.0
C247 C 0.58406 0.03089 0.04792 0.0
C248 C 0.62811 0.07339 0.05484 0.0
C249 C 0.61383 0.04535 0.04946 0.0
H250 H 0.49753 0.06482 0.06745 0.0
H251 H 0.62575 0.03488 0.04632 0.0
H252 H 0.64887 0.12678 0.06634 0.0
H253 H 0.5192 0.11333 0.07978 0.0
H254 H 0.57382 0.00941 0.04348 0.0
H255 H 0.38273 0.96883 0.99034 0.0
H256 H 0.65118 0.08457 0.05591 0.0
H257 H 0.52791 0.9657 0.97577 0.0
H258 H 0.43414 1.00042 0.99608 0.0
H259 H 0.51513 0.91982 0.96119 0.0
H260 H 0.62001 0.1482 0.07529 0.0
H261 H 0.36526 0.92033 0.97933 0.0
H262 H 0.37665 0.88371 0.96802 0.0
H263 H 0.57174 0.14328 0.08057 0.0
H264 H 0.41265 0.87035 0.96008 0.0
N265 N 0.44561 0.96979 0.98937 0.0
C266 C 0.42682 0.97927 0.99141 0.0
C267 C 0.38786 0.93406 0.98196 0.0
C268 C 0.40748 0.92504 0.97858 0.0
C269 C 0.39764 0.96143 0.98813 0.0
C270 C 0.43663 0.94367 0.98242 0.0
H271 H 0.46434 0.88378 0.95724 0.0
N272 N 0.48481 0.95529 0.98055 0.0
C273 C 0.49853 0.92412 0.96587 0.0
C274 C 0.45685 0.9362 0.9778 0.0
C275 C 0.5057 0.95006 0.97407 0.0
C276 C 0.46983 0.9038 0.96372 0.0
C277 C 0.44857 0.90985 0.9694 0.0
O278 O 0.5192 0.01281 0.96666 0.0
O279 O 0.52985 0.02791 0.01551 0.0
O280 O 0.51574 0.05586 0.03103 0.0
O281 O 0.48491 0.03222 1.00418 0.0
O282 O 0.54281 0.01304 0.99178 0.0
O283 O 0.4827 0.0181 0.97163 0.0
O284 O 0.5186 0.99271 0.07018 0.0
O285 O 0.48235 0.99329 0.02762 0.0
O286 O 0.49416 0.9626 0.01177 0.0
O287 O 0.52472 0.98563 0.03889 0.0
O288 O 0.47195 0.01142 0.05091 0.0
O289 O 0.50428 0.02106 0.07915 0.0
C290 C 0.55161 0.02992 1.00698 0.0
C291 C 0.49361 0.01257 0.93769 0.0
C292 C 0.49909 0.02378 0.90144 0.0
C293 C 0.50667 0.03185 0.92188 0.0
C294 C 0.47823 0.99598 0.89733 0.0
C295 C 0.4727 0.98521 0.93306 0.0
C296 C 0.4651 0.97701 0.913 0.0
C297 C 0.49907 0.05446 0.0159 0.0
C298 C 0.50247 0.02091 0.95889 0.0
C299 C 0.41947 0.89077 0.96638 0.0
C300 C 0.39897 0.89838 0.9709 0.0
C301 C 0.46186 0.99427 0.0359 0.0
C302 C 0.4843 0.97873 0.09672 0.0
C303 C 0.48869 0.97478 0.11716 0.0
C304 C 0.46557 0.9564 0.12959 0.0
C305 C 0.43807 0.94218 0.12088 0.0
C306 C 0.45688 0.96352 0.08846 0.0
C307 C 0.43392 0.94555 0.10051 0.0
C308 C 0.51061 0.96363 0.02691 0.0
C309 C 0.5078 1.00056 0.08471 0.0
H310 H 0.52255 0.05307 0.92559 0.0
H311 H 0.47228 0.98859 0.88194 0.0
H312 H 0.46238 0.97014 0.94492 0.0
H313 H 0.44912 0.95574 0.90956 0.0
H314 H 0.5101 0.98625 0.12325 0.0
H315 H 0.41944 0.92882 0.12982 0.0
H316 H 0.45309 0.96605 0.07283 0.0
H317 H 0.41264 0.93466 0.09415 0.0
Eu318 Eu 0.0331 0.50158 0.98961 0.0
C319 C 0.94236 0.47829 0.05532 0.0
C320 C 0.92964 0.51421 0.05331 0.0
C321 C 0.89522 0.46859 0.06606 0.0
C322 C 0.94932 0.50495 0.05006 0.0
C323 C 0.91531 0.45986 0.06357 0.0
C324 C 0.90249 0.49581 0.06116 0.0
C325 C 0.9312 0.42678 0.06879 0.0
N326 N 0.96273 0.47096 0.05361 0.0
C327 C 0.95793 0.44602 0.06102 0.0
C328 C 0.90969 0.43362 0.0699 0.0
Eu329 Eu 1.00789 0.50497 0.04066 0.0
N330 N 0.97616 0.52256 0.04341 0.0
C331 C 0.98516 0.55006 0.04072 0.0
C332 C 0.93824 0.54202 0.0494 0.0
C333 C 0.96626 0.56011 0.04335 0.0
H334 H 0.97446 0.44059 0.06048 0.0
H335 H 0.97336 0.58182 0.04075 0.0
H336 H 0.88711 0.50257 0.06379 0.0
H337 H 0.92732 0.40681 0.07412 0.0
H338 H 1.00687 0.56431 0.03626 0.0
H339 H 0.96877 0.4168 0.9374 0.0
H340 H 0.9237 0.5499 0.05158 0.0
H341 H 0.10111 0.52587 1.00362 0.0
H342 H 0.98095 0.45783 0.9588 0.0
H343 H 0.13811 0.51258 1.0011 0.0
H344 H 0.87433 0.45474 0.07236 0.0
H345 H 1.00062 0.39682 0.93666 0.0
H346 H 0.04633 0.39965 0.94778 0.0
H347 H 0.88914 0.41884 0.07623 0.0
H348 H 0.09248 0.42572 0.96531 0.0
N349 N 0.01846 0.4601 0.97089 0.0
C350 C 0.99473 0.44897 0.95883 0.0
C351 C 1.00586 0.41459 0.94629 0.0
C352 C 0.03091 0.42701 0.9578 0.0
C353 C 0.98784 0.42583 0.94663 0.0
C354 C 0.03693 0.45034 0.96987 0.0
H355 H 0.12716 0.46821 0.98479 0.0
N356 N 0.069 0.48902 0.98931 0.0
C357 C 0.11699 0.49892 0.99513 0.0
C358 C 0.06297 0.4652 0.97948 0.0
C359 C 0.09588 0.50637 0.99652 0.0
C360 C 0.11071 0.47385 0.98592 0.0
C361 C 0.08361 0.45686 0.97761 0.0
O362 O 0.06853 0.52999 0.97027 0.0
O363 O 1.01032 0.51821 0.00859 0.0
O364 O 0.97322 0.46757 0.02348 0.0
O365 O 0.99879 0.45793 0.99929 0.0
O366 O 0.99139 0.49928 0.98128 0.0
O367 O 0.02548 0.51625 0.96086 0.0
O368 O 0.0246 0.49963 0.06943 0.0
O369 O 0.04057 0.50047 0.02257 0.0
O370 O 0.06646 0.54145 1.00519 0.0
O371 O 0.04189 0.54867 0.03126 0.0
O372 O 0.02091 0.47265 0.04588 0.0
O373 O 0.0227 0.53684 0.06436 0.0
C374 C 0.9891 0.51153 0.99712 0.0
C375 C 0.05688 0.51704 0.93581 0.0
C376 C 0.04282 0.5024 0.90079 0.0
C377 C 0.0414 0.516 0.91841 0.0
C378 C 0.05999 0.49008 0.90057 0.0
C379 C 0.07462 0.50525 0.93503 0.0
C380 C 0.07601 0.49177 0.91755 0.0
C381 C 0.97536 0.4508 0.01005 0.0
C382 C 0.05197 0.52751 0.9552 0.0
C383 C 0.07701 0.43258 0.96674 0.0
C384 C 0.05072 0.41773 0.95679 0.0
C385 C 0.0394 0.47993 0.03162 0.0
C386 C 0.01411 0.51899 0.0976 0.0
C387 C 0.02792 0.51684 0.11491 0.0
C388 C 0.01448 0.51168 0.13391 0.0
C389 C 0.9873 0.50892 0.13549 0.0
C390 C 0.98714 0.51668 0.09958 0.0
C391 C 0.97384 0.51163 0.11841 0.0
C392 C 0.06456 0.55735 0.01943 0.0
C393 C 0.02723 0.52217 0.0775 0.0
H394 H 0.02762 0.52495 0.91877 0.0
H395 H 0.06133 0.47954 0.88712 0.0
H396 H 0.08702 0.50585 0.94803 0.0
H397 H 0.0894 0.48241 0.91724 0.0
H398 H 0.04872 0.51855 0.11355 0.0
H399 H 0.97663 0.50494 0.15001 0.0
H400 H 0.97627 0.51863 0.08659 0.0
H401 H 0.95297 0.5097 0.11975 0.0
Eu402 Eu 0.53401 0.51666 0.03879 0.0
C403 C 0.48445 0.56206 0.97429 0.0
C404 C 0.4336 0.53006 0.97622 0.0
C405 C 0.45111 0.57821 0.96709 0.0
C406 C 0.46201 0.53583 0.97831 0.0
C407 C 0.47927 0.58329 0.96787 0.0
C408 C 0.42829 0.55161 0.97128 0.0
C409 C 0.5296 0.61146 0.96056 0.0
N410 N 0.51126 0.56601 0.97471 0.0
C411 C 0.53353 0.58961 0.96685 0.0
C412 C 0.50242 0.6085 0.96146 0.0
Eu413 Eu 0.51693 0.52896 0.98667 0.0
N414 N 0.46796 0.51544 0.9827 0.0
C415 C 0.44646 0.48837 0.98347 0.0
C416 C 0.41144 0.50262 0.97838 0.0
C417 C 0.41795 0.48162 0.98161 0.0
H418 H 0.55457 0.5919 0.96618 0.0
H419 H 0.40102 0.46022 0.98277 0.0
H420 H 0.40662 0.54767 0.96992 0.0
H421 H 0.54751 0.63051 0.95501 0.0
H422 H 0.45094 0.47184 0.98611 0.0
H423 H 0.64991 0.58517 0.04135 0.0
H424 H 0.38933 0.49732 0.97696 0.0
H425 H 0.49508 0.4525 0.05706 0.0
H426 H 0.59993 0.57347 0.0374 0.0
H427 H 0.50208 0.41454 0.06979 0.0
H428 H 0.44671 0.59437 0.96248 0.0
H429 H 0.66131 0.54854 0.0499 0.0
H430 H 0.64381 0.49876 0.05907 0.0
H431 H 0.49936 0.62534 0.95642 0.0
H432 H 0.60358 0.45223 0.06672 0.0
N433 N 0.58282 0.53034 0.04319 0.0
C434 C 0.6044 0.55722 0.04126 0.0
C435 C 0.63923 0.54324 0.04824 0.0
C436 C 0.61697 0.51605 0.05133 0.0
C437 C 0.63288 0.56398 0.04346 0.0
C438 C 0.58861 0.51022 0.0488 0.0
H439 H 0.55067 0.42078 0.07115 0.0
N440 N 0.53915 0.47957 0.05111 0.0
C441 C 0.52025 0.43388 0.06491 0.0
C442 C 0.56606 0.48398 0.05282 0.0
C443 C 0.51635 0.45538 0.05776 0.0
C444 C 0.54771 0.43748 0.06562 0.0
C445 C 0.5711 0.46292 0.05985 0.0
O446 O 0.50924 0.50733 0.06672 0.0
O447 O 0.50356 0.52221 0.01921 0.0
O448 O 0.52997 0.56853 1.00433 0.0
O449 O 0.55135 0.56306 0.03345 0.0
O450 O 0.48589 0.49042 0.04024 0.0
O451 O 0.54955 0.5457 0.06434 0.0
O452 O 0.53975 0.5382 0.95779 0.0
O453 O 0.54689 0.52347 1.00642 0.0
O454 O 0.52393 0.47835 0.02028 0.0
O455 O 0.49862 0.48279 0.99332 0.0
O456 O 0.5655 0.55308 0.98431 0.0
O457 O 0.5016 0.49855 0.96196 0.0
C458 C 0.48026 0.50349 0.02662 0.0
C459 C 0.535 0.52622 0.09692 0.0
C460 C 0.53066 0.53176 0.13327 0.0
C461 C 0.5248 0.53534 0.11309 0.0
C462 C 0.54683 0.51877 0.13693 0.0
C463 C 0.55123 0.51351 0.10092 0.0
C464 C 0.55704 0.50977 0.12085 0.0
C465 C 0.54519 0.5781 0.02113 0.0
C466 C 0.52813 0.52975 0.07603 0.0
C467 C 0.59927 0.46824 0.06157 0.0
C468 C 0.62217 0.49475 0.05726 0.0
C469 C 0.57054 0.54048 0.99864 0.0
C470 C 0.51107 0.51717 0.92902 0.0
C471 C 0.51943 0.50819 0.91165 0.0
C472 C 0.50873 0.50934 0.89246 0.0
C473 C 0.49024 0.52017 0.89087 0.0
C474 C 0.49252 0.52777 0.92701 0.0
C475 C 0.48233 0.52942 0.90803 0.0
C476 C 0.50691 0.46818 1.00433 0.0
C477 C 0.52117 0.51495 0.94923 0.0
H478 H 0.51205 0.54496 0.10992 0.0
H479 H 0.55207 0.51603 0.15223 0.0
H480 H 0.55942 0.50652 0.0887 0.0
H481 H 0.56962 0.49997 0.12384 0.0
H482 H 0.53352 0.49969 0.91311 0.0
H483 H 0.48189 0.52148 0.8763 0.0
H484 H 0.48571 0.53458 0.9401 0.0
H485 H 0.46803 0.53766 0.90665 0.0
Eu486 Eu 0.16423 0.33089 0.32764 0.0
C487 C 0.23173 0.41333 0.39646 0.0
C488 C 0.27927 0.41996 0.39184 0.0
C489 C 0.27345 0.45774 0.405 0.0
C490 C 0.24931 0.403 0.39033 0.0
C491 C 0.24368 0.44053 0.40439 0.0
C492 C 0.29118 0.44751 0.39871 0.0
C493 C 0.19598 0.43096 0.41238 0.0
N494 N 0.20297 0.39637 0.39572 0.0
C495 C 0.18509 0.40419 0.40443 0.0
C496 C 0.22537 0.44938 0.41205 0.0
Eu497 Eu 0.18665 0.35245 0.38056 0.0
N498 N 0.23726 0.37625 0.38359 0.0
C499 C 0.25399 0.36467 0.37986 0.0
C500 C 0.29644 0.40862 0.38677 0.0
C501 C 0.28372 0.38075 0.3811 0.0
H502 H 0.16232 0.39003 0.4046 0.0
H503 H 0.29683 0.37163 0.37755 0.0
H504 H 0.31413 0.46087 0.39968 0.0
H505 H 0.18171 0.43739 0.41873 0.0
H506 H 0.24501 0.3433 0.37535 0.0
H507 H 0.05248 0.30369 0.32301 0.0
H508 H 0.31949 0.42102 0.38762 0.0
H509 H 0.19569 0.29655 0.30927 0.0
H510 H 0.10408 0.3344 0.32883 0.0
H511 H 0.18184 0.25016 0.29513 0.0
H512 H 0.28299 0.47881 0.41079 0.0
H513 H 0.03399 0.25501 0.31201 0.0
H514 H 0.04428 0.21757 0.30091 0.0
H515 H 0.23376 0.47012 0.41826 0.0
H516 H 0.07942 0.20295 0.29342 0.0
N517 N 0.11454 0.30306 0.3222 0.0
C518 C 0.09626 0.31314 0.32419 0.0
C519 C 0.05665 0.26834 0.3147 0.0
C520 C 0.07577 0.25867 0.31144 0.0
C521 C 0.067 0.29582 0.32086 0.0
C522 C 0.105 0.27679 0.31536 0.0
H523 H 0.13076 0.21503 0.29104 0.0
N524 N 0.15288 0.28725 0.31371 0.0
C525 C 0.16559 0.25506 0.29957 0.0
C526 C 0.12477 0.26863 0.31095 0.0
C527 C 0.17336 0.28128 0.30752 0.0
C528 C 0.13672 0.23526 0.29734 0.0
C529 C 0.1159 0.24206 0.30273 0.0
O530 O 0.18752 0.34379 0.29905 0.0
O531 O 0.19905 0.3599 0.34819 0.0
O532 O 0.18182 0.38679 0.36595 0.0
O533 O 0.15576 0.36595 0.33639 0.0
O534 O 0.21169 0.34512 0.32426 0.0
O535 O 0.152 0.35067 0.30426 0.0
O536 O 0.16309 0.31525 0.39932 0.0
O537 O 0.15056 0.32559 0.3601 0.0
O538 O 0.16216 0.29502 0.34497 0.0
O539 O 0.19644 0.31892 0.36975 0.0
O540 O 0.14186 0.34579 0.38307 0.0
O541 O 0.19493 0.35318 0.41308 0.0
C542 C 0.2207 0.36198 0.33947 0.0
C543 C 0.16168 0.3438 0.27035 0.0
C544 C 0.16656 0.35461 0.23411 0.0
C545 C 0.17447 0.36288 0.25445 0.0
C546 C 0.14553 0.32681 0.23017 0.0
C547 C 0.14059 0.31643 0.26595 0.0
C548 C 0.13259 0.30803 0.24597 0.0
C549 C 0.16737 0.38666 0.34973 0.0
C550 C 0.17117 0.35244 0.29137 0.0
C551 C 0.08669 0.22352 0.2996 0.0
C552 C 0.06668 0.23185 0.30386 0.0
C553 C 0.13092 0.32828 0.36825 0.0
C554 C 0.15598 0.32293 0.43362 0.0
C555 C 0.15871 0.3106 0.45143 0.0
C556 C 0.14068 0.30622 0.46822 0.0
C557 C 0.12001 0.31445 0.46677 0.0
C558 C 0.13528 0.33104 0.43274 0.0
C559 C 0.11737 0.3267 0.44918 0.0
C560 C 0.18008 0.29615 0.35901 0.0
C561 C 0.17506 0.32768 0.4162 0.0
H562 H 0.19045 0.38412 0.25802 0.0
H563 H 0.13931 0.31931 0.21483 0.0
H564 H 0.13046 0.30151 0.27791 0.0
H565 H 0.11647 0.28675 0.24269 0.0
H566 H 0.1747 0.30432 0.45215 0.0
H567 H 0.10619 0.31198 0.47943 0.0
H568 H 0.13299 0.34092 0.41947 0.0
H569 H 0.10152 0.33312 0.44836 0.0
Eu570 Eu 0.7002 0.83855 0.3263 0.0
C571 C 0.60641 0.80141 0.39357 0.0
C572 C 0.58683 0.8322 0.39329 0.0
C573 C 0.55731 0.78432 0.40407 0.0
C574 C 0.60951 0.82715 0.38946 0.0
C575 C 0.58038 0.77978 0.40113 0.0
C576 C 0.56057 0.81051 0.40023 0.0
C577 C 0.60241 0.75132 0.40358 0.0
N578 N 0.62918 0.79773 0.39065 0.0
C579 C 0.62788 0.77345 0.39624 0.0
C580 C 0.57847 0.75439 0.40587 0.0
Eu581 Eu 0.67166 0.83642 0.37823 0.0
N582 N 0.63527 0.84776 0.383 0.0
C583 C 0.64036 0.87434 0.38148 0.0
C584 C 0.59153 0.85914 0.39068 0.0
C585 C 0.61852 0.88036 0.38498 0.0
H586 H 0.64625 0.77086 0.39451 0.0
H587 H 0.62256 0.90139 0.38333 0.0
H588 H 0.54282 0.81394 0.40305 0.0
H589 H 0.60129 0.73193 0.40753 0.0
H590 H 0.66126 0.89101 0.37737 0.0
H591 H 0.69855 0.73893 0.33722 0.0
H592 H 0.57469 0.86389 0.39348 0.0
H593 H 0.75535 0.89967 0.31017 0.0
H594 H 0.67811 0.76872 0.33632 0.0
H595 H 0.80704 0.92138 0.30495 0.0
H596 H 0.53707 0.7679 0.40973 0.0
H597 H 0.74991 0.75792 0.33119 0.0
H598 H 0.79774 0.79882 0.32471 0.0
H599 H 0.55882 0.73724 0.41165 0.0
H600 H 0.82739 0.84841 0.3171 0.0
N601 N 0.71705 0.80593 0.3286 0.0
C602 C 0.70038 0.77817 0.33292 0.0
C603 C 0.74102 0.77156 0.33046 0.0
C604 C 0.75827 0.79983 0.32647 0.0
C605 C 0.71202 0.76075 0.33377 0.0
C606 C 0.7456 0.81676 0.32541 0.0
H607 H 0.83114 0.89407 0.3099 0.0
N608 N 0.75019 0.86101 0.32028 0.0
C609 C 0.79494 0.90002 0.30991 0.0
C610 C 0.76256 0.84497 0.32143 0.0
C611 C 0.76562 0.88769 0.31328 0.0
C612 C 0.8084 0.88451 0.31264 0.0
C613 C 0.79218 0.85652 0.31798 0.0
O614 O 0.70633 0.86199 0.29845 0.0
O615 O 0.67403 0.84964 0.34642 0.0
O616 O 0.63734 0.80024 0.36028 0.0
O617 O 0.65986 0.79653 0.33098 0.0
O618 O 0.66113 0.84136 0.31687 0.0
O619 O 0.68992 0.81737 0.2971 0.0
O620 O 0.69001 0.83287 0.40672 0.0
O621 O 0.70672 0.83749 0.35947 0.0
O622 O 0.72623 0.88243 0.34037 0.0
O623 O 0.7003 0.88153 0.36911 0.0
O624 O 0.69236 0.80986 0.38303 0.0
O625 O 0.68374 0.86784 0.40201 0.0
C626 C 0.65502 0.84731 0.33426 0.0
C627 C 0.7131 0.8432 0.26779 0.0
C628 C 0.71356 0.84373 0.23085 0.0
C629 C 0.69918 0.84053 0.24927 0.0
C630 C 0.74199 0.84958 0.23112 0.0
C631 C 0.74121 0.84822 0.26772 0.0
C632 C 0.75562 0.85159 0.24947 0.0
C633 C 0.63792 0.78704 0.34369 0.0
C634 C 0.69758 0.84007 0.28682 0.0
C635 C 0.80468 0.83977 0.31948 0.0
C636 C 0.78778 0.81152 0.32371 0.0
C637 C 0.71122 0.82045 0.36893 0.0
C638 C 0.67987 0.85149 0.43546 0.0
C639 C 0.69814 0.85589 0.4518 0.0
C640 C 0.68789 0.85172 0.47182 0.0
C641 C 0.65897 0.84328 0.47517 0.0
C642 C 0.65116 0.84318 0.43911 0.0
C643 C 0.64082 0.83915 0.45889 0.0
C644 C 0.72193 0.8947 0.35633 0.0
C645 C 0.69106 0.85477 0.41477 0.0
H646 H 0.67731 0.83628 0.24919 0.0
H647 H 0.75348 0.85215 0.21711 0.0
H648 H 0.75204 0.84939 0.28163 0.0
H649 H 0.77739 0.85565 0.24956 0.0
H650 H 0.72039 0.86269 0.44883 0.0
H651 H 0.65023 0.83943 0.49032 0.0
H652 H 0.63675 0.83972 0.42673 0.0
H653 H 0.6186 0.83257 0.46161 0.0
Eu654 Eu 0.20185 0.84544 0.3835 0.0
C655 C 0.14242 0.87576 0.31522 0.0
C656 C 0.09209 0.84133 0.31607 0.0
C657 C 0.10732 0.88785 0.30383 0.0
C658 C 0.1208 0.84925 0.31996 0.0
C659 C 0.13595 0.89525 0.30687 0.0
C660 C 0.08546 0.86089 0.30828 0.0
C661 C 0.18659 0.92694 0.3031 0.0
N662 N 0.16987 0.882 0.31772 0.0
C663 C 0.19192 0.90672 0.31105 0.0
C664 C 0.15848 0.92129 0.30118 0.0
Eu665 Eu 0.17715 0.84687 0.33156 0.0
N666 N 0.12794 0.83064 0.32701 0.0
C667 C 0.1076 0.80337 0.32927 0.0
C668 C 0.07096 0.81375 0.31954 0.0
C669 C 0.0788 0.79463 0.32597 0.0
H670 H 0.21367 0.91108 0.31247 0.0
H671 H 0.06269 0.77313 0.3283 0.0
H672 H 0.0635 0.85523 0.30535 0.0
H673 H 0.20413 0.94678 0.29834 0.0
H674 H 0.11341 0.78832 0.334 0.0
H675 H 0.3171 0.91756 0.3791 0.0
H676 H 0.04865 0.80688 0.31684 0.0
H677 H 0.16724 0.78391 0.40666 0.0
H678 H 0.26637 0.90317 0.37658 0.0
H679 H 0.17765 0.74967 0.4222 0.0
H680 H 0.10191 0.90258 0.29752 0.0
H681 H 0.33166 0.88454 0.39135 0.0
H682 H 0.31743 0.83754 0.4055 0.0
H683 H 0.15438 0.93687 0.2948 0.0
H684 H 0.27954 0.79191 0.41733 0.0
N685 N 0.25161 0.86186 0.38669 0.0
C686 C 0.27208 0.8884 0.38198 0.0
C687 C 0.30919 0.87804 0.39028 0.0
C688 C 0.28823 0.85139 0.39616 0.0
C689 C 0.30106 0.89674 0.3834 0.0
C690 C 0.25926 0.84392 0.39431 0.0
H691 H 0.22742 0.75913 0.42387 0.0
N692 N 0.2106 0.81231 0.39938 0.0
C693 C 0.19485 0.76885 0.4162 0.0
C694 C 0.23807 0.81832 0.40086 0.0
C695 C 0.18905 0.78834 0.40744 0.0
C696 C 0.22295 0.77424 0.41708 0.0
C697 C 0.24504 0.79936 0.40957 0.0
O698 O 0.1836 0.841 0.41385 0.0
O699 O 0.1662 0.84272 0.36448 0.0
O700 O 0.18325 0.88516 0.34861 0.0
O701 O 0.21769 0.88908 0.37142 0.0
O702 O 0.15469 0.81615 0.38884 0.0
O703 O 0.21511 0.88161 0.40299 0.0
O704 O 0.19899 0.85365 0.30249 0.0
O705 O 0.21117 0.8472 0.3506 0.0
O706 O 0.19397 0.80609 0.36776 0.0
O707 O 0.16325 0.80226 0.34149 0.0
O708 O 0.22524 0.87401 0.32657 0.0
O709 O 0.16106 0.81412 0.3085 0.0
C710 C 0.14509 0.82389 0.37397 0.0
C711 C 0.21384 0.87395 0.43823 0.0
C712 C 0.21175 0.88077 0.47457 0.0
C713 C 0.19816 0.87249 0.45564 0.0
C714 C 0.2411 0.89021 0.47597 0.0
C715 C 0.24306 0.88293 0.43998 0.0
C716 C 0.25656 0.89101 0.45878 0.0
C717 C 0.20428 0.89977 0.36146 0.0
C718 C 0.1997 0.86722 0.41832 0.0
C719 C 0.27376 0.80629 0.41085 0.0
C720 C 0.29533 0.83226 0.40413 0.0
C721 C 0.23331 0.86423 0.34116 0.0
C722 C 0.17084 0.82896 0.2743 0.0
C723 C 0.18649 0.82681 0.25802 0.0
C724 C 0.17819 0.82705 0.23781 0.0
C725 C 0.15382 0.82941 0.2343 0.0
C726 C 0.14665 0.83123 0.27037 0.0
C727 C 0.13821 0.83141 0.25046 0.0
C728 C 0.17555 0.7918 0.35319 0.0
C729 C 0.18047 0.82937 0.2952 0.0
H730 H 0.17558 0.86554 0.45441 0.0
H731 H 0.25195 0.89662 0.49042 0.0
H732 H 0.25553 0.88404 0.42681 0.0
H733 H 0.27913 0.89809 0.46001 0.0
H734 H 0.20501 0.82479 0.26117 0.0
H735 H 0.14705 0.83024 0.21905 0.0
H736 H 0.13435 0.83294 0.28263 0.0
H737 H 0.1196 0.83333 0.24754 0.0
Eu738 Eu 0.84135 0.66965 0.66387 0.0
C739 C 0.89424 0.75839 0.73319 0.0
C740 C 0.94455 0.77271 0.73194 0.0
C741 C 0.92996 0.8056 0.7427 0.0
C742 C 0.91564 0.75221 0.72892 0.0
C743 C 0.90123 0.78495 0.74058 0.0
C744 C 0.95156 0.7995 0.73838 0.0
C745 C 0.85089 0.76829 0.74484 0.0
N746 N 0.86657 0.73814 0.73099 0.0
C747 C 0.84495 0.74231 0.73751 0.0
C748 C 0.87913 0.78985 0.74608 0.0
Eu749 Eu 0.85843 0.69582 0.71644 0.0
N750 N 0.9083 0.72611 0.72249 0.0
C751 C 0.92897 0.71888 0.72046 0.0
C752 C 0.96566 0.76563 0.72873 0.0
C753 C 0.95778 0.7385 0.72331 0.0
H754 H 0.82302 0.7258 0.73668 0.0
H755 H 0.97393 0.73267 0.72112 0.0
H756 H 0.97364 0.8155 0.7405 0.0
H757 H 0.83367 0.77167 0.74952 0.0
H758 H 0.92411 0.6984 0.71597 0.0
H759 H 0.72754 0.63295 0.65644 0.0
H760 H 0.98804 0.78081 0.73078 0.0
H761 H 0.87731 0.63895 0.64727 0.0
H762 H 0.77859 0.66771 0.66106 0.0
H763 H 0.86736 0.59246 0.63575 0.0
H764 H 0.9357 0.82619 0.74812 0.0
H765 H 0.71279 0.5835 0.6508 0.0
H766 H 0.7271 0.54749 0.64445 0.0
H767 H 0.88366 0.80997 0.7518 0.0
H768 H 0.76527 0.53635 0.63893 0.0
N769 N 0.79224 0.63796 0.65913 0.0
C770 C 0.7723 0.64614 0.65872 0.0
C771 C 0.73516 0.59862 0.65299 0.0
C772 C 0.75602 0.59078 0.65183 0.0
C773 C 0.74341 0.62652 0.65609 0.0
C774 C 0.7848 0.61123 0.65498 0.0
H775 H 0.81765 0.55318 0.63505 0.0
N776 N 0.83379 0.62568 0.6535 0.0
C777 C 0.85001 0.5956 0.64048 0.0
C778 C 0.80625 0.60487 0.65204 0.0
C779 C 0.85558 0.62183 0.64698 0.0
C780 C 0.82192 0.57346 0.64018 0.0
C781 C 0.79956 0.57805 0.64559 0.0
O782 O 0.86556 0.68134 0.63557 0.0
O783 O 0.87284 0.70218 0.68442 0.0
O784 O 0.8522 0.727 0.69924 0.0
O785 O 0.83058 0.7046 0.66874 0.0
O786 O 0.88985 0.68936 0.66183 0.0
O787 O 0.82645 0.68263 0.63745 0.0
O788 O 0.83901 0.65719 0.73382 0.0
O789 O 0.82469 0.66497 0.69566 0.0
O790 O 0.84754 0.6391 0.68318 0.0
O791 O 0.87748 0.66913 0.70809 0.0
O792 O 0.81267 0.68612 0.71557 0.0
O793 O 0.8597 0.69626 0.74963 0.0
C794 C 0.896 0.70661 0.67667 0.0
C795 C 0.83903 0.67248 0.60533 0.0
C796 C 0.83573 0.67591 0.56855 0.0
C797 C 0.84377 0.68876 0.58781 0.0
C798 C 0.82377 0.64692 0.56709 0.0
C799 C 0.82666 0.64361 0.60328 0.0
C800 C 0.8193 0.63097 0.58431 0.0
C801 C 0.83968 0.72571 0.6818 0.0
C802 C 0.84712 0.68538 0.62569 0.0
C803 C 0.77085 0.55718 0.64362 0.0
C804 C 0.74911 0.56354 0.64672 0.0
C805 C 0.80361 0.66689 0.70192 0.0
C806 C 0.82113 0.65854 0.76626 0.0
C807 C 0.82543 0.65125 0.78575 0.0
C808 C 0.80331 0.64098 0.80028 0.0
C809 C 0.77687 0.63828 0.79485 0.0
C810 C 0.79442 0.65523 0.76124 0.0
C811 C 0.77249 0.64519 0.77546 0.0
C812 C 0.86585 0.64516 0.69828 0.0
C813 C 0.84461 0.66943 0.75137 0.0
H814 H 0.85299 0.71107 0.58921 0.0
H815 H 0.81769 0.6365 0.55253 0.0
H816 H 0.82268 0.63071 0.6163 0.0
H817 H 0.80991 0.60866 0.58297 0.0
H818 H 0.84589 0.65327 0.78943 0.0
H819 H 0.75957 0.63117 0.80565 0.0
H820 H 0.79037 0.66036 0.7464 0.0
H821 H 0.75202 0.64289 0.77147 0.0
Eu822 Eu 0.3721 0.18252 0.66179 0.0
C823 C 0.27328 0.14537 0.72575 0.0
C824 C 0.25829 0.17977 0.72577 0.0
C825 C 0.22532 0.13264 0.73672 0.0
C826 C 0.27901 0.17208 0.72169 0.0
C827 C 0.24636 0.12535 0.73331 0.0
C828 C 0.2314 0.15989 0.73322 0.0
C829 C 0.26404 0.09325 0.73584 0.0
N830 N 0.29453 0.13939 0.72335 0.0
C831 C 0.29064 0.11406 0.72895 0.0
C832 C 0.24173 0.09886 0.73794 0.0
Eu833 Eu 0.33917 0.17593 0.71208 0.0
N834 N 0.30557 0.1911 0.7153 0.0
C835 C 0.31314 0.2184 0.71351 0.0
C836 C 0.26545 0.20743 0.72281 0.0
C837 C 0.29307 0.22686 0.71677 0.0
H838 H 0.30789 0.10967 0.72759 0.0
H839 H 0.29902 0.24842 0.71483 0.0
H840 H 0.2152 0.16542 0.7364 0.0
H841 H 0.26086 0.07301 0.73975 0.0
H842 H 0.33463 0.23372 0.7093 0.0
H843 H 0.41262 0.11007 0.65787 0.0
H844 H 0.25004 0.2141 0.72558 0.0
H845 H 0.40237 0.24752 0.64419 0.0
H846 H 0.37653 0.1242 0.66216 0.0
H847 H 0.44881 0.28374 0.6309 0.0
H848 H 0.20454 0.11757 0.74255 0.0
H849 H 0.46242 0.14515 0.64955 0.0
H850 H 0.49778 0.19439 0.64026 0.0
H851 H 0.22128 0.08286 0.74362 0.0
H852 H 0.50753 0.2416 0.63255 0.0
N853 N 0.40567 0.1672 0.65771 0.0
C854 C 0.39817 0.13985 0.65888 0.0
C855 C 0.44666 0.15154 0.65166 0.0
C856 C 0.45376 0.17919 0.64892 0.0
C857 C 0.41859 0.13169 0.65632 0.0
C858 C 0.43245 0.18643 0.65196 0.0
H859 H 0.4891 0.27472 0.62827 0.0
N860 N 0.41632 0.21844 0.64939 0.0
C861 C 0.44607 0.26392 0.63559 0.0
C862 C 0.43791 0.21287 0.64754 0.0
C863 C 0.41978 0.24334 0.64311 0.0
C864 C 0.46878 0.25878 0.6342 0.0
C865 C 0.46485 0.23297 0.64008 0.0
O866 O 0.36223 0.19 0.6311 0.0
O867 O 0.33654 0.18278 0.67916 0.0
O868 O 0.30854 0.13927 0.69259 0.0
O869 O 0.3418 0.13757 0.67109 0.0
O870 O 0.35465 0.21174 0.65657 0.0
O871 O 0.35089 0.1484 0.64023 0.0
O872 O 0.35078 0.16795 0.74193 0.0
O873 O 0.37471 0.17582 0.69479 0.0
O874 O 0.40363 0.21891 0.68109 0.0
O875 O 0.37219 0.22108 0.70426 0.0
O876 O 0.35713 0.14741 0.71801 0.0
O877 O 0.354 0.20766 0.73584 0.0
C878 C 0.33501 0.20196 0.67016 0.0
C879 C 0.36056 0.15903 0.60554 0.0
C880 C 0.35189 0.15124 0.56923 0.0
C881 C 0.34543 0.15852 0.58813 0.0
C882 C 0.37386 0.14482 0.56786 0.0
C883 C 0.38282 0.15307 0.60382 0.0
C884 C 0.38939 0.14601 0.58505 0.0
C885 C 0.31638 0.12579 0.6799 0.0
C886 C 0.35173 0.1642 0.62544 0.0
C887 C 0.48661 0.22635 0.63806 0.0
C888 C 0.48107 0.19948 0.64246 0.0
C889 C 0.37654 0.15705 0.70424 0.0
C890 C 0.34217 0.19016 0.76925 0.0
C891 C 0.35509 0.18805 0.78706 0.0
C892 C 0.34155 0.18472 0.80587 0.0
C893 C 0.31509 0.18366 0.80674 0.0
C894 C 0.31602 0.18969 0.7705 0.0
C895 C 0.30255 0.18637 0.78914 0.0
C896 C 0.39752 0.23218 0.69522 0.0
C897 C 0.35556 0.19161 0.74951 0.0
H898 H 0.3282 0.1631 0.58934 0.0
H899 H 0.37919 0.13923 0.55343 0.0
H900 H 0.39485 0.15347 0.61697 0.0
H901 H 0.40645 0.14125 0.58386 0.0
H902 H 0.3753 0.18843 0.78626 0.0
H903 H 0.30434 0.18108 0.82109 0.0
H904 H 0.30594 0.19182 0.75713 0.0
H905 H 0.28229 0.18583 0.78993 0.0
Eu906 Eu 0.87072 0.18723 0.70755 0.0
C907 C 0.81809 0.22792 0.64127 0.0
C908 C 0.76729 0.19519 0.64188 0.0
C909 C 0.78452 0.24324 0.63257 0.0
C910 C 0.79572 0.2014 0.64477 0.0
C911 C 0.81279 0.24904 0.63479 0.0
C912 C 0.76181 0.21636 0.63612 0.0
C913 C 0.86376 0.27958 0.63195 0.0
N914 N 0.84513 0.2328 0.64352 0.0
C915 C 0.86793 0.25793 0.63833 0.0
C916 C 0.83608 0.27522 0.63037 0.0
Eu917 Eu 0.85058 0.19563 0.65558 0.0
N918 N 0.80178 0.18145 0.65032 0.0
C919 C 0.78042 0.15444 0.65202 0.0
C920 C 0.74525 0.16779 0.64455 0.0
C921 C 0.75189 0.14728 0.6494 0.0
H922 H 0.8894 0.26151 0.63964 0.0
H923 H 0.73504 0.12595 0.65126 0.0
H924 H 0.7401 0.21204 0.63402 0.0
H925 H 0.8819 0.29962 0.62826 0.0
H926 H 0.78509 0.13837 0.65596 0.0
H927 H 0.98493 0.26142 0.71359 0.0
H928 H 0.72313 0.16219 0.64259 0.0
H929 H 0.83449 0.12237 0.72514 0.0
H930 H 0.93425 0.24637 0.708 0.0
H931 H 0.84402 0.08615 0.73816 0.0
H932 H 0.78001 0.25925 0.62776 0.0
H933 H 0.99928 0.22692 0.72229 0.0
H934 H 0.98462 0.17777 0.73143 0.0
H935 H 0.83291 0.29201 0.62537 0.0
H936 H 0.94625 0.12994 0.73801 0.0
N937 N 0.91997 0.20347 0.7124 0.0
C938 C 0.94013 0.231 0.71159 0.0
C939 C 0.97697 0.22014 0.7197 0.0
C940 C 0.95596 0.19226 0.72202 0.0
C941 C 0.96895 0.23967 0.71483 0.0
C942 C 0.92723 0.1845 0.71835 0.0
H943 H 0.89375 0.09568 0.74086 0.0
N944 N 0.87829 0.15168 0.72014 0.0
C945 C 0.86157 0.10613 0.73365 0.0
C946 C 0.9057 0.15773 0.72231 0.0
C947 C 0.85625 0.12666 0.72634 0.0
C948 C 0.88966 0.11157 0.73509 0.0
C949 C 0.91218 0.1378 0.72977 0.0
O950 O 0.85264 0.17768 0.73824 0.0
O951 O 0.83753 0.18746 0.68798 0.0
O952 O 0.854 0.23058 0.6748 0.0
O953 O 0.88524 0.23283 0.69991 0.0
O954 O 0.82235 0.15969 0.71132 0.0
O955 O 0.8815 0.22027 0.72963 0.0
O956 O 0.87414 0.20367 0.62715 0.0
O957 O 0.88393 0.19414 0.67499 0.0
O958 O 0.86275 0.14931 0.68898 0.0
O959 O 0.83349 0.15043 0.66364 0.0
O960 O 0.89835 0.22486 0.65332 0.0
O961 O 0.83513 0.16458 0.63127 0.0
C962 C 0.81484 0.16952 0.69646 0.0
C963 C 0.88132 0.20929 0.76415 0.0
C964 C 0.88008 0.21482 0.80081 0.0
C965 C 0.86593 0.20679 0.78201 0.0
C966 C 0.9096 0.22504 0.80162 0.0
C967 C 0.91075 0.21904 0.7654 0.0
C968 C 0.92475 0.22687 0.78403 0.0
C969 C 0.87148 0.24341 0.69008 0.0
C970 C 0.86693 0.2035 0.74429 0.0
C971 C 0.94081 0.14501 0.73243 0.0
C972 C 0.96266 0.17224 0.72868 0.0
C973 C 0.90615 0.21396 0.66723 0.0
C974 C 0.84693 0.18204 0.59794 0.0
C975 C 0.85698 0.173 0.58157 0.0
C976 C 0.84957 0.17533 0.56151 0.0
C977 C 0.83184 0.18673 0.55819 0.0
C978 C 0.82924 0.19325 0.59422 0.0
C979 C 0.82175 0.19555 0.57445 0.0
C980 C 0.84411 0.13743 0.67405 0.0
C981 C 0.85551 0.18028 0.61876 0.0
H982 H 0.84319 0.19921 0.78124 0.0
H983 H 0.92083 0.23119 0.81595 0.0
H984 H 0.92306 0.22104 0.75199 0.0
H985 H 0.94748 0.23455 0.78481 0.0
H986 H 0.87088 0.16458 0.58446 0.0
H987 H 0.82539 0.18846 0.54302 0.0
H988 H 0.82126 0.20025 0.60657 0.0
H989 H 0.80804 0.20419 0.5717 0.0
H990 H 0.33362 0.84093 0.05699 0.0
H991 H 0.28324 0.87975 0.07102 0.0
H992 H 0.32149 0.92427 0.05761 0.0
H993 H 0.39832 0.89526 0.07244 0.0
H994 H 0.42048 0.8933 0.05283 0.0
H995 H 0.38774 0.86271 0.0599 0.0
H996 H 0.36971 0.85511 0.0234 0.0
H997 H 0.4022 0.88545 0.01542 0.0
H998 H 0.36805 0.88247 0.01016 0.0
H999 H 0.36667 0.96547 0.04758 0.0
H1000 H 0.41667 1.00141 0.04115 0.0
H1001 H 0.43918 0.9374 0.03241 0.0
C1002 C 0.33043 0.85866 0.05662 0.0
C1003 C 0.30535 0.8569 0.06483 0.0
C1004 C 0.30219 0.88068 0.06468 0.0
C1005 C 0.32377 0.90601 0.05704 0.0
C1006 C 0.34851 0.90736 0.04951 0.0
C1007 C 0.35201 0.88436 0.04908 0.0
C1008 C 0.38184 0.89233 0.04172 0.0
C1009 C 0.39806 0.88553 0.05767 0.0
C1010 C 0.38037 0.878 0.02146 0.0
C1011 C 0.39484 0.92354 0.03903 0.0
C1012 C 0.37496 0.93156 0.04331 0.0
C1013 C 0.38225 0.95942 0.0437 0.0
C1014 C 0.41067 0.9797 0.04003 0.0
C1015 C 0.43151 0.97215 0.03573 0.0
C1016 C 0.42339 0.94365 0.03489 0.0
H1017 H 0.18727 0.50382 0.07586 0.0
H1018 H 0.16622 0.42378 0.05047 0.0
H1019 H 0.12217 0.41937 0.03543 0.0
H1020 H 0.11625 0.48657 0.08877 0.0
H1021 H 0.12088 0.52003 0.08227 0.0
H1022 H 0.15107 0.51721 0.09037 0.0
H1023 H 0.17763 0.54151 0.05774 0.0
H1024 H 0.14744 0.5438 0.04877 0.0
H1025 H 0.16212 0.52698 0.0335 0.0
H1026 H 0.07821 0.42185 0.02597 0.0
H1027 H 0.03983 0.43311 0.02007 0.0
H1028 H 0.09086 0.51284 0.04956 0.0
C1029 C 0.1735 0.48561 0.06688 0.0
C1030 C 0.18003 0.46417 0.06411 0.0
C1031 C 0.16153 0.44045 0.05253 0.0
C1032 C 0.13651 0.43777 0.04401 0.0
C1033 C 0.13043 0.45913 0.04712 0.0
C1034 C 0.14856 0.48275 0.0581 0.0
C1035 C 0.13687 0.50249 0.05941 0.0
C1036 C 0.13091 0.50682 0.08152 0.0
C1037 C 0.15721 0.53034 0.04924 0.0
C1038 C 0.10933 0.48627 0.04756 0.0
C1039 C 0.10583 0.46115 0.0408 0.0
C1040 C 0.08102 0.44171 0.0308 0.0
C1041 C 0.0594 0.44824 0.02747 0.0
C1042 C 0.06309 0.47423 0.03359 0.0
C1043 C 0.08818 0.4933 0.04399 0.0
H1044 H 0.56568 0.70402 0.09254 0.0
H1045 H 0.59077 0.75457 0.0384 0.0
H1046 H 0.58744 0.71532 0.01859 0.0
H1047 H 0.60267 0.66546 0.08073 0.0
H1048 H 0.57451 0.63311 0.09062 0.0
H1049 H 0.58043 0.66563 0.10104 0.0
H1050 H 0.52778 0.65118 0.09371 0.0
H1051 H 0.52175 0.61864 0.08332 0.0
H1052 H 0.514 0.64109 0.06838 0.0
H1053 H 0.58035 0.67089 1.00434 0.0
H1054 H 0.568 0.62286 0.99617 0.0
H1055 H 0.54586 0.59957 0.05887 0.0
C1056 C 0.57075 0.70682 0.07657 0.0
C1057 C 0.57841 0.73232 0.06697 0.0
C1058 C 0.58458 0.73514 0.046 0.0
C1059 C 0.58293 0.71304 0.03464 0.0
C1060 C 0.57504 0.68812 0.04444 0.0
C1061 C 0.56895 0.68475 0.0649 0.0
C1062 C 0.55963 0.65521 0.07136 0.0
C1063 C 0.58057 0.65484 0.08686 0.0
C1064 C 0.52897 0.64068 0.07968 0.0
C1065 C 0.56122 0.64256 0.0513 0.0
C1066 C 0.57038 0.66206 0.03605 0.0
C1067 C 0.57301 0.6554 0.01612 0.0
C1068 C 0.56558 0.62796 0.01155 0.0
C1069 C 0.55539 0.6074 0.02673 0.0
C1070 C 0.55373 0.61495 0.04696 0.0
H1071 H 0.88306 0.2951 0.96631 0.0
H1072 H 0.80757 0.29912 0.98315 0.0
H1073 H 0.83806 0.34553 0.99804 0.0
H1074 H 0.92547 0.33208 0.01088 0.0
H1075 H 0.9584 0.35008 0.99689 0.0
H1076 H 0.93073 0.31628 0.9886 0.0
H1077 H 0.92943 0.33585 0.95304 0.0
H1078 H 0.95833 0.36853 0.96162 0.0
H1079 H 0.92638 0.36668 0.95166 0.0
H1080 H 0.87648 0.39197 0.01049 0.0
H1081 H 0.92015 0.43604 0.01837 0.0
H1082 H 0.97151 0.4036 0.99237 0.0
C1083 C 0.8729 0.30572 0.9731 0.0
C1084 C 0.84274 0.29313 0.97363 0.0
C1085 C 0.83049 0.30786 0.98286 0.0
C1086 C 0.84768 0.33439 0.99129 0.0
C1087 C 0.87722 0.34615 0.99044 0.0
C1088 C 0.88978 0.33233 0.98159 0.0
C1089 C 0.92211 0.35005 0.98227 0.0
C1090 C 0.93493 0.3363 0.99545 0.0
C1091 C 0.93477 0.35563 0.96084 0.0
C1092 C 0.92575 0.37635 0.99225 0.0
C1093 C 0.89951 0.37336 0.99717 0.0
C1094 C 0.89714 0.39454 1.00671 0.0
C1095 C 0.92217 0.41954 0.0112 0.0
C1096 C 0.94938 0.42345 1.00598 0.0
C1097 C 0.95108 0.4014 0.99644 0.0
H1098 H 0.73079 0.58456 0.96925 0.0
H1099 H 0.7102 0.50007 0.98201 0.0
H1100 H 0.66234 0.48926 0.99397 0.0
H1101 H 0.69153 0.5915 0.01256 0.0
H1102 H 0.6803 0.61197 0.9984 0.0
H1103 H 0.71365 0.61361 0.99244 0.0
H1104 H 0.69734 0.60023 0.95521 0.0
H1105 H 0.66399 0.59853 0.96103 0.0
H1106 H 0.66411 0.56889 0.94991 0.0
H1107 H 0.61485 0.48653 1.00126 0.0
H1108 H 0.57304 0.49286 1.005 0.0
H1109 H 0.62494 0.57944 0.98846 0.0
C1110 C 0.7163 0.56382 0.9747 0.0
C1111 C 0.72429 0.54313 0.97465 0.0
C1112 C 0.70473 0.51634 0.98209 0.0
C1113 C 0.67744 0.50999 0.98884 0.0
C1114 C 0.67008 0.53074 0.98831 0.0
C1115 C 0.68911 0.55722 0.98165 0.0
C1116 C 0.67574 0.57558 0.98205 0.0
C1117 C 0.69123 0.59959 0.99727 0.0
C1118 C 0.67527 0.58644 0.96079 0.0
C1119 C 0.64591 0.55507 0.9893 0.0
C1120 C 0.6431 0.52936 0.99298 0.0
C1121 C 0.61705 0.50675 0.99881 0.0
C1122 C 0.59338 0.51057 1.00102 0.0
C1123 C 0.59594 0.53689 0.99773 0.0
C1124 C 0.62255 0.55928 0.99159 0.0
H1125 H 0.44071 0.14485 0.9625 0.0
H1126 H 0.51779 0.21822 0.98363 0.0
H1127 H 0.53185 0.18828 1.00152 0.0
H1128 H 0.42748 0.10214 1.00613 0.0
H1129 H 0.41657 0.07074 0.99175 0.0
H1130 H 0.41128 0.09784 0.98159 0.0
H1131 H 0.43977 0.09977 0.94945 0.0
H1132 H 0.44496 0.07255 0.95946 0.0
H1133 H 0.47534 0.10512 0.95205 0.0
H1134 H 0.53771 0.1506 0.01726 0.0
H1135 H 0.53725 0.10777 0.02715 0.0
H1136 H 0.45865 0.05872 0.99341 0.0
C1137 C 0.46072 0.1548 0.97067 0.0
C1138 C 0.47787 0.18414 0.97175 0.0
C1139 C 0.50373 0.19594 0.98293 0.0
C1140 C 0.51208 0.17907 0.99306 0.0
C1141 C 0.49463 0.15036 0.99168 0.0
C1142 C 0.4697 0.13828 0.98054 0.0
C1143 C 0.45559 0.10684 0.98065 0.0
C1144 C 0.42598 0.09362 0.99063 0.0
C1145 C 0.45382 0.09541 0.95913 0.0
C1146 C 0.47654 0.10318 0.99359 0.0
C1147 C 0.49868 0.12856 1.00001 0.0
C1148 C 0.52052 0.1306 0.01228 0.0
C1149 C 0.51996 0.10608 0.01791 0.0
C1150 C 0.49789 0.07983 0.01107 0.0
C1151 C 0.47584 0.07846 0.99883 0.0
H1152 H 0.71827 0.1246 0.98216 0.0
H1153 H 0.71085 0.19613 0.99934 0.0
H1154 H 0.65981 0.16501 1.00762 0.0
H1155 H 0.64923 0.08496 0.95901 0.0
H1156 H 0.6432 0.052 0.96824 0.0
H1157 H 0.67907 0.07985 0.96386 0.0
H1158 H 0.69224 0.07585 1.00076 0.0
H1159 H 0.6563 0.04833 1.00556 0.0
H1160 H 0.67205 0.07904 0.02128 0.0
H1161 H 0.60937 0.12633 0.0128 0.0
H1162 H 0.56334 0.08297 0.0152 0.0
H1163 H 0.60325 0.03584 0.99582 0.0
C1164 C 0.70582 0.13368 0.98756 0.0
C1165 C 0.71832 0.16283 0.98979 0.0
C1166 C 0.70151 0.17391 0.99723 0.0
C1167 C 0.67259 0.1564 1.00204 0.0
C1168 C 0.66087 0.12779 0.99952 0.0
C1169 C 0.67694 0.11646 0.99251 0.0
C1170 C 0.65909 0.085 0.99118 0.0
C1171 C 0.65756 0.07486 0.96927 0.0
C1172 C 0.67061 0.07124 1.00555 0.0
C1173 C 0.63037 0.08042 0.99826 0.0
C1174 C 0.63194 0.1054 1.00306 0.0
C1175 C 0.60804 0.10665 0.00936 0.0
C1176 C 0.58191 0.08178 0.01085 0.0
C1177 C 0.5798 0.05584 1.00644 0.0
C1178 C 0.60436 0.0553 0.99977 0.0
H1179 H 0.83844 0.50591 0.99135 0.0
H1180 H 0.88582 0.59578 0.98753 0.0
H1181 H 0.93115 0.59516 0.98848 0.0
H1182 H 0.88054 0.49921 0.02527 0.0
H1183 H 0.88237 0.46965 0.01558 0.0
H1184 H 0.8516 0.47317 0.01055 0.0
H1185 H 0.85567 0.47287 0.97229 0.0
H1186 H 0.88403 0.46513 0.97558 0.0
H1187 H 0.88971 0.4942 0.96026 0.0
H1188 H 0.97146 0.58499 0.99085 0.0
H1189 H 1.00384 0.56576 0.99453 0.0
H1190 H 0.93081 0.48266 0.99791 0.0
C1191 C 0.8584 0.52535 0.99023 0.0
C1192 C 0.85863 0.55089 0.98919 0.0
C1193 C 0.88514 0.57599 0.98816 0.0
C1194 C 0.911 0.57584 0.98871 0.0
C1195 C 0.91008 0.55039 0.99015 0.0
C1196 C 0.88449 0.52555 0.99059 0.0
C1197 C 0.88953 0.50117 0.99295 0.0
C1198 C 0.8752 0.48478 0.01224 0.0
C1199 C 0.87912 0.48223 0.97415 0.0
C1200 C 0.92188 0.51626 0.99451 0.0
C1201 C 0.93331 0.54462 0.99248 0.0
C1202 C 0.96274 0.56286 0.99264 0.0
C1203 C 0.98095 0.55184 0.9949 0.0
C1204 C 0.9697 0.52297 0.99741 0.0
C1205 C 0.93982 0.50494 0.99684 0.0
H1206 H 0.49438 0.3182 1.0064 0.0
H1207 H 0.4325 0.29395 0.95794 0.0
H1208 H 0.43872 0.34125 0.95795 0.0
H1209 H 0.47326 0.36093 0.03369 0.0
H1210 H 0.50923 0.38625 0.0408 0.0
H1211 H 0.49997 0.35079 0.03632 0.0
H1212 H 0.54102 0.36803 0.00994 0.0
H1213 H 0.54962 0.40341 0.01432 0.0
H1214 H 0.54163 0.38907 0.98907 0.0
H1215 H 0.45039 0.3903 0.96407 0.0
H1216 H 0.4676 0.4385 0.97492 0.0
H1217 H 0.52263 0.43146 0.0194 0.0
C1218 C 0.48225 0.32298 0.99578 0.0
C1219 C 0.46262 0.30248 0.98235 0.0
C1220 C 0.44734 0.3094 0.96848 0.0
C1221 C 0.45078 0.33615 0.96838 0.0
C1222 C 0.46982 0.35575 0.98213 0.0
C1223 C 0.48547 0.34961 0.99547 0.0
C1224 C 0.50424 0.37442 0.00883 0.0
C1225 C 0.49615 0.36768 0.03123 0.0
C1226 C 0.53601 0.38431 1.00532 0.0
C1227 C 0.49647 0.39539 1.00104 0.0
C1228 C 0.47663 0.38416 0.98562 0.0
C1229 C 0.46598 0.39935 0.97609 0.0
C1230 C 0.47593 0.42678 0.98243 0.0
C1231 C 0.49635 0.43888 0.99819 0.0
C1232 C 0.50675 0.42284 1.00753 0.0
H1233 H 0.15149 0.70944 0.06939 0.0
H1234 H 0.22014 0.72713 0.02743 0.0
H1235 H 0.19259 0.67911 0.01382 0.0
H1236 H 0.13144 0.63706 0.0794 0.0
H1237 H 0.09387 0.62554 0.08072 0.0
H1238 H 0.11973 0.66064 0.08784 0.0
H1239 H 0.09751 0.67929 0.06202 0.0
H1240 H 0.07174 0.64427 0.05472 0.0
H1241 H 0.09438 0.66874 0.03586 0.0
H1242 H 0.15637 0.62975 1.00376 0.0
H1243 H 0.11526 0.58267 0.99859 0.0
H1244 H 0.06985 0.59714 0.04712 0.0
C1245 C 0.16086 0.70305 0.05753 0.0
C1246 C 0.18805 0.72191 0.0495 0.0
C1247 C 0.19946 0.71289 0.03385 0.0
C1248 C 0.18393 0.68571 0.02603 0.0
C1249 C 0.15699 0.66775 0.03405 0.0
C1250 C 0.14562 0.67599 0.04955 0.0
C1251 C 0.11592 0.65288 0.05515 0.0
C1252 C 0.11521 0.64347 0.07708 0.0
C1253 C 0.09358 0.66184 0.05172 0.0
C1254 C 0.11217 0.63048 0.04019 0.0
C1255 C 0.13614 0.63943 0.02821 0.0
C1256 C 0.13756 0.62252 0.01313 0.0
C1257 C 0.11398 0.59575 0.01028 0.0
C1258 C 0.08914 0.58601 0.0224 0.0
C1259 C 0.0884 0.6038 0.03755 0.0
H1260 H 0.31454 0.43827 0.0501 0.0
H1261 H 0.32462 0.52011 0.04272 0.0
H1262 H 0.37587 0.53908 0.03463 0.0
H1263 H 0.38249 0.45973 0.07331 0.0
H1264 H 0.38743 0.43381 0.06035 0.0
H1265 H 0.35195 0.42727 0.06568 0.0
H1266 H 0.33942 0.41742 0.02769 0.0
H1267 H 0.37505 0.42461 0.02194 0.0
H1268 H 0.36061 0.44352 0.00929 0.0
H1269 H 0.42693 0.54896 0.02787 0.0
H1270 H 0.47224 0.54852 0.02307 0.0
H1271 H 0.42766 0.4599 0.03414 0.0
C1272 C 0.32762 0.46026 0.04703 0.0
C1273 C 0.31579 0.47789 0.04758 0.0
C1274 C 0.33342 0.50639 0.04287 0.0
C1275 C 0.3625 0.51728 0.03815 0.0
C1276 C 0.37354 0.49932 0.03793 0.0
C1277 C 0.35655 0.47138 0.04223 0.0
C1278 C 0.37332 0.4563 0.04078 0.0
C1279 C 0.37383 0.44354 0.06125 0.0
C1280 C 0.36139 0.43415 0.02392 0.0
C1281 C 0.40253 0.48011 0.03529 0.0
C1282 C 0.40233 0.50479 0.0336 0.0
C1283 C 0.42718 0.52967 0.02901 0.0
C1284 C 0.45277 0.52923 0.02617 0.0
C1285 C 0.45321 0.50404 0.0277 0.0
C1286 C 0.42777 0.47934 0.03249 0.0
H1287 H 0.58706 0.88259 0.06849 0.0
H1288 H 0.52594 0.81076 0.03407 0.0
H1289 H 0.50123 0.83623 0.02385 0.0
H1290 H 0.53704 0.90471 0.08591 0.0
H1291 H 0.56299 0.94113 0.08365 0.0
H1292 H 0.57447 0.91654 0.08926 0.0
H1293 H 0.60822 0.93372 0.05819 0.0
H1294 H 0.59674 0.95824 0.05247 0.0
H1295 H 0.59378 0.9334 0.03358 0.0
H1296 H 0.48512 0.87075 0.01584 0.0
H1297 H 0.47823 0.91103 0.01117 0.0
H1298 H 0.55019 0.96025 0.05091 0.0
C1299 C 0.56829 0.87217 0.05898 0.0
C1300 C 0.55837 0.8448 0.05194 0.0
C1301 C 0.53378 0.83177 0.03953 0.0
C1302 C 0.51968 0.84606 0.03369 0.0
C1303 C 0.53035 0.87328 0.04054 0.0
C1304 C 0.554 0.88614 0.05302 0.0
C1305 C 0.56175 0.91582 0.05773 0.0
C1306 C 0.55888 0.91977 0.08049 0.0
C1307 C 0.59191 0.93651 0.05003 0.0
C1308 C 0.53909 0.91782 0.04568 0.0
C1309 C 0.5211 0.89306 0.03594 0.0
C1310 C 0.49905 0.8902 0.02346 0.0
C1311 C 0.49542 0.9133 0.0208 0.0
C1312 C 0.51386 0.93901 0.03045 0.0
C1313 C 0.53572 0.94101 0.04325 0.0
H1314 H 0.99995 0.17561 0.3872 0.0
H1315 H 0.95016 0.21507 0.40128 0.0
H1316 H 0.99002 0.26019 0.39005 0.0
H1317 H 0.06572 0.23071 0.40549 0.0
H1318 H 0.08744 0.22711 0.38631 0.0
H1319 H 0.05403 0.19745 0.39359 0.0
H1320 H 0.0381 0.1901 0.35632 0.0
H1321 H 0.0708 0.22045 0.34867 0.0
H1322 H 0.03677 0.21746 0.34284 0.0
H1323 H 0.03625 0.30148 0.38081 0.0
H1324 H 0.08658 0.33676 0.37429 0.0
H1325 H 0.10718 0.27147 0.36528 0.0
C1326 C 0.99734 0.19369 0.3875 0.0
C1327 C 0.97191 0.19187 0.39499 0.0
C1328 C 0.96945 0.21606 0.39562 0.0
C1329 C 0.99193 0.24173 0.38918 0.0
C1330 C 0.01685 0.24298 0.38216 0.0
C1331 C 0.0198 0.21968 0.38131 0.0
C1332 C 0.0497 0.22729 0.37453 0.0
C1333 C 0.06512 0.22023 0.39096 0.0
C1334 C 0.04881 0.21299 0.35438 0.0
C1335 C 0.06314 0.25852 0.372 0.0
C1336 C 0.04368 0.26704 0.37641 0.0
C1337 C 0.05153 0.29505 0.37692 0.0
C1338 C 0.0801 0.31493 0.37321 0.0
C1339 C 0.10044 0.30678 0.36877 0.0
C1340 C 0.09178 0.27818 0.36792 0.0
H1341 H 0.81958 0.77251 0.40723 0.0
H1342 H 0.88888 0.85639 0.39653 0.0
H1343 H 0.85447 0.86846 0.38177 0.0
H1344 H 0.77909 0.7663 0.36229 0.0
H1345 H 0.74471 0.74723 0.37441 0.0
H1346 H 0.77438 0.74405 0.38337 0.0
H1347 H 0.76933 0.75902 0.41938 0.0
H1348 H 0.73885 0.7613 0.41123 0.0
H1349 H 0.76865 0.79086 0.42306 0.0
H1350 H 0.81115 0.87226 0.37078 0.0
H1351 H 0.76373 0.86698 0.36381 0.0
H1352 H 0.72309 0.78065 0.38174 0.0
C1353 C 0.82766 0.79348 0.40182 0.0
C1354 C 0.85712 0.81353 0.40321 0.0
C1355 C 0.86659 0.84054 0.39552 0.0
C1356 C 0.84712 0.84762 0.38718 0.0
C1357 C 0.81819 0.82746 0.38649 0.0
C1358 C 0.80858 0.80089 0.39353 0.0
C1359 C 0.77638 0.7832 0.39171 0.0
C1360 C 0.76813 0.75874 0.37707 0.0
C1361 C 0.76249 0.77301 0.41259 0.0
C1362 C 0.76916 0.80408 0.38296 0.0
C1363 C 0.79356 0.82948 0.37991 0.0
C1364 C 0.79203 0.85232 0.37283 0.0
C1365 C 0.76499 0.84911 0.36882 0.0
C1366 C 0.73978 0.82316 0.37162 0.0
C1367 C 0.74204 0.80052 0.37897 0.0
H1368 H 0.19147 0.03194 0.39374 0.0
H1369 H 0.28265 0.07376 0.40504 0.0
H1370 H 0.28469 0.034 0.39015 0.0
H1371 H 0.17718 0.965 0.40689 0.0
H1372 H 0.15056 0.94672 0.38768 0.0
H1373 H 0.15644 0.9796 0.39717 0.0
H1374 H 0.16562 0.99892 0.36067 0.0
H1375 H 0.15985 0.96604 0.35109 0.0
H1376 H 0.19262 0.99756 0.34545 0.0
H1377 H 0.27675 0.98902 0.37706 0.0
H1378 H 0.25906 0.94039 0.36706 0.0
H1379 H 0.17279 0.92637 0.36355 0.0
C1380 C 0.21191 0.03287 0.39268 0.0
C1381 C 0.23694 0.05593 0.40055 0.0
C1382 C 0.26322 0.05623 0.39926 0.0
C1383 C 0.26461 0.03384 0.39069 0.0
C1384 C 0.23957 0.01126 0.38338 0.0
C1385 C 0.21367 0.01051 0.38421 0.0
C1386 C 0.1897 0.98273 0.37651 0.0
C1387 C 0.16715 0.96763 0.39305 0.0
C1388 C 0.17615 0.98655 0.35729 0.0
C1389 C 0.20612 0.9678 0.3718 0.0
C1390 C 0.23491 0.98489 0.37568 0.0
C1391 C 0.25432 0.97553 0.37376 0.0
C1392 C 0.24404 0.94781 0.36818 0.0
C1393 C 0.21461 0.92966 0.36455 0.0
C1394 C 0.19547 0.93997 0.36591 0.0
H1395 H 0.54478 0.63707 0.29215 0.0
H1396 H 0.47049 0.63203 0.32168 0.0
H1397 H 0.50137 0.67743 0.33801 0.0
H1398 H 0.59537 0.67183 0.33272 0.0
H1399 H 0.6242 0.69348 0.31588 0.0
H1400 H 0.59657 0.65968 0.30758 0.0
H1401 H 0.5865 0.68204 0.27673 0.0
H1402 H 0.61406 0.71589 0.28495 0.0
H1403 H 0.57833 0.70942 0.28079 0.0
H1404 H 0.54014 0.7244 0.35016 0.0
H1405 H 0.58365 0.769 0.35726 0.0
H1406 H 0.63249 0.74459 0.31864 0.0
C1407 C 0.53485 0.64544 0.30199 0.0
C1408 C 0.505 0.63066 0.3056 0.0
C1409 C 0.49324 0.64246 0.31888 0.0
C1410 C 0.51062 0.66843 0.32813 0.0
C1411 C 0.53978 0.68253 0.32393 0.0
C1412 C 0.55182 0.67145 0.31117 0.0
C1413 C 0.58362 0.69125 0.30866 0.0
C1414 C 0.60096 0.67828 0.31669 0.0
C1415 C 0.59105 0.70017 0.28646 0.0
C1416 C 0.58757 0.71529 0.3219 0.0
C1417 C 0.56204 0.70975 0.33067 0.0
C1418 C 0.56026 0.72883 0.34348 0.0
C1419 C 0.58521 0.75411 0.34753 0.0
C1420 C 0.61173 0.76027 0.33883 0.0
C1421 C 0.6127 0.74057 0.32567 0.0
H1422 H 0.39068 0.91223 0.30094 0.0
H1423 H 0.37871 0.83297 0.32125 0.0
H1424 H 0.33214 0.82168 0.336 0.0
H1425 H 0.35658 0.92491 0.34452 0.0
H1426 H 0.34063 0.94041 0.32937 0.0
H1427 H 0.37388 0.94307 0.32162 0.0
H1428 H 0.3516 0.92106 0.28687 0.0
H1429 H 0.31838 0.9184 0.29455 0.0
H1430 H 0.31912 0.88787 0.28609 0.0
H1431 H 0.28509 0.8176 0.34654 0.0
H1432 H 0.24199 0.82124 0.35195 0.0
H1433 H 0.28445 0.90328 0.32528 0.0
C1434 C 0.37831 0.89247 0.30848 0.0
C1435 C 0.38856 0.87352 0.3099 0.0
C1436 C 0.37167 0.84805 0.32014 0.0
C1437 C 0.34507 0.84139 0.32853 0.0
C1438 C 0.33558 0.86045 0.32672 0.0
C1439 C 0.35175 0.88553 0.31701 0.0
C1440 C 0.33632 0.90204 0.31661 0.0
C1441 C 0.35285 0.92922 0.32875 0.0
C1442 C 0.33104 0.90766 0.29473 0.0
C1443 C 0.30861 0.88202 0.3271 0.0
C1444 C 0.30871 0.85825 0.33299 0.0
C1445 C 0.28501 0.83631 0.34224 0.0
C1446 C 0.26059 0.83864 0.34539 0.0
C1447 C 0.26003 0.86287 0.3396 0.0
C1448 C 0.28444 0.88475 0.33028 0.0
H1449 H 0.10649 0.47338 0.29477 0.0
H1450 H 0.17784 0.54795 0.32043 0.0
H1451 H 0.19204 0.51894 0.3396 0.0
H1452 H 0.09051 0.42852 0.33795 0.0
H1453 H 0.08319 0.39856 0.32284 0.0
H1454 H 0.07691 0.425 0.31258 0.0
H1455 H 0.10973 0.43095 0.2821 0.0
H1456 H 0.11596 0.40445 0.29221 0.0
H1457 H 0.14571 0.43837 0.28667 0.0
H1458 H 0.19944 0.48164 0.35532 0.0
H1459 H 0.20142 0.43952 0.36418 0.0
H1460 H 0.12753 0.38994 0.32615 0.0
C1461 C 0.12524 0.48381 0.30427 0.0
C1462 C 0.14083 0.51317 0.30607 0.0
C1463 C 0.16499 0.52559 0.31904 0.0
C1464 C 0.1734 0.50926 0.32994 0.0
C1465 C 0.15765 0.48049 0.32762 0.0
C1466 C 0.13423 0.4679 0.31496 0.0
C1467 C 0.12201 0.43672 0.31411 0.0
C1468 C 0.09133 0.4213 0.32237 0.0
C1469 C 0.12345 0.42706 0.29249 0.0
C1470 C 0.14238 0.43375 0.32813 0.0
C1471 C 0.16254 0.45917 0.33603 0.0
C1472 C 0.18372 0.46163 0.34926 0.0
C1473 C 0.18458 0.43755 0.35428 0.0
C1474 C 0.1646 0.41142 0.34589 0.0
C1475 C 0.14313 0.4096 0.3328 0.0
H1476 H 0.3854 0.45855 0.31025 0.0
H1477 H 0.37785 0.52938 0.32929 0.0
H1478 H 0.32761 0.49773 0.33925 0.0
H1479 H 0.31555 0.41805 0.28935 0.0
H1480 H 0.31047 0.38528 0.29824 0.0
H1481 H 0.34591 0.41343 0.29309 0.0
H1482 H 0.36131 0.41004 0.32957 0.0
H1483 H 0.32583 0.38198 0.3349 0.0
H1484 H 0.34163 0.41258 0.35074 0.0
H1485 H 0.2776 0.45844 0.3457 0.0
H1486 H 0.23195 0.41454 0.34891 0.0
H1487 H 0.272 0.36877 0.32662 0.0
C1488 C 0.37309 0.46737 0.31644 0.0
C1489 C 0.38528 0.49648 0.31859 0.0
C1490 C 0.36871 0.5072 0.32715 0.0
C1491 C 0.34024 0.48937 0.33293 0.0
C1492 C 0.32874 0.4608 0.33033 0.0
C1493 C 0.34468 0.44983 0.32239 0.0
C1494 C 0.32716 0.41835 0.32115 0.0
C1495 C 0.32462 0.40819 0.29915 0.0
C1496 C 0.33974 0.40495 0.33491 0.0
C1497 C 0.2987 0.41337 0.32916 0.0
C1498 C 0.30014 0.43813 0.33451 0.0
C1499 C 0.27637 0.43894 0.34179 0.0
C1500 C 0.25051 0.41382 0.34367 0.0
C1501 C 0.2486 0.38814 0.33859 0.0
C1502 C 0.27301 0.38805 0.33102 0.0
H1503 H 0.5044 0.84181 0.32705 0.0
H1504 H 0.5523 0.93189 0.32657 0.0
H1505 H 0.59725 0.93099 0.33001 0.0
H1506 H 0.54486 0.83201 0.36324 0.0
H1507 H 0.54612 0.80298 0.35197 0.0
H1508 H 0.51625 0.80805 0.34719 0.0
H1509 H 0.52284 0.81007 0.30887 0.0
H1510 H 0.551 0.80213 0.31236 0.0
H1511 H 0.5576 0.83233 0.29811 0.0
H1512 H 0.6371 0.92069 0.33349 0.0
H1513 H 0.66944 0.90131 0.33587 0.0
H1514 H 0.59656 0.81791 0.3348 0.0
C1515 C 0.52444 0.86128 0.32733 0.0
C1516 C 0.52487 0.88695 0.32629 0.0
C1517 C 0.55145 0.91201 0.32709 0.0
C1518 C 0.5771 0.91171 0.32913 0.0
C1519 C 0.57596 0.88615 0.33037 0.0
C1520 C 0.55039 0.86135 0.32926 0.0
C1521 C 0.55531 0.83678 0.33096 0.0
C1522 C 0.53975 0.81889 0.34944 0.0
C1523 C 0.54615 0.8193 0.31141 0.0
C1524 C 0.58755 0.8517 0.3336 0.0
C1525 C 0.599 0.88019 0.33306 0.0
C1526 C 0.62837 0.89844 0.33419 0.0
C1527 C 0.64656 0.88731 0.33569 0.0
C1528 C 0.63535 0.85826 0.33644 0.0
C1529 C 0.60549 0.84024 0.33516 0.0
H1530 H 0.10098 0.64149 0.30031 0.0
H1531 H 0.15437 0.62242 0.33794 0.0
H1532 H 0.17596 0.66932 0.35346 0.0
H1533 H 0.15331 0.71344 0.29134 0.0
H1534 H 0.12776 0.72522 0.29239 0.0
H1535 H 0.1167 0.69032 0.28416 0.0
H1536 H 0.07747 0.6709 0.31178 0.0
H1537 H 0.08845 0.70575 0.32012 0.0
H1538 H 0.08727 0.68068 0.33785 0.0
H1539 H 0.19185 0.71803 0.36454 0.0
H1540 H 0.20123 0.76548 0.37079 0.0
H1541 H 0.13645 0.75289 0.3266 0.0
C1542 C 0.11722 0.64727 0.31182 0.0
C1543 C 0.12609 0.62846 0.31804 0.0
C1544 C 0.14739 0.63665 0.33308 0.0
C1545 C 0.1597 0.66316 0.34193 0.0
C1546 C 0.1504 0.68118 0.33557 0.0
C1547 C 0.12966 0.67364 0.32087 0.0
C1548 C 0.12349 0.69698 0.31685 0.0
C1549 C 0.13076 0.70708 0.29488 0.0
C1550 C 0.09232 0.68803 0.32196 0.0
C1551 C 0.14397 0.71879 0.33162 0.0
C1552 C 0.1593 0.70922 0.34221 0.0
C1553 C 0.17981 0.72566 0.35646 0.0
C1554 C 0.18483 0.75261 0.36 0.0
C1555 C 0.16926 0.76292 0.34947 0.0
C1556 C 0.14857 0.74565 0.33505 0.0
H1557 H 0.86642 0.04259 0.3481 0.0
H1558 H 0.8368 0.06911 0.40001 0.0
H1559 H 0.79289 0.02291 0.40111 0.0
H1560 H 0.79851 1.00277 0.32395 0.0
H1561 H 0.80488 0.97556 0.31519 0.0
H1562 H 0.83441 0.01029 0.31879 0.0
H1563 H 0.85854 0.9916 0.34291 0.0
H1564 H 0.82917 0.95681 0.3392 0.0
H1565 H 0.83898 0.97098 0.36441 0.0
H1566 H 0.75146 0.9748 0.39556 0.0
H1567 H 0.71679 0.92685 0.38573 0.0
H1568 H 0.77355 0.9308 0.33763 0.0
C1569 C 0.85076 0.03851 0.35978 0.0
C1570 C 0.85481 0.05938 0.37396 0.0
C1571 C 0.83395 0.05335 0.38905 0.0
C1572 C 0.80898 0.02725 0.38971 0.0
C1573 C 0.80527 0.00733 0.37524 0.0
C1574 C 0.8257 0.0125 0.36068 0.0
C1575 C 0.81635 0.98741 0.34691 0.0
C1576 C 0.81336 0.99444 0.32491 0.0
C1577 C 0.83699 0.97603 0.34846 0.0
C1578 C 0.78746 0.9674 0.35596 0.0
C1579 C 0.78147 0.9794 0.37221 0.0
C1580 C 0.75601 0.96517 0.38292 0.0
C1581 C 0.73636 0.93782 0.37712 0.0
C1582 C 0.74215 0.92467 0.36075 0.0
C1583 C 0.76809 0.93997 0.35001 0.0
H1584 H 1.01119 0.84928 0.38371 0.0
H1585 H 0.96026 0.76131 0.39668 0.0
H1586 H 1.00287 0.75636 0.39224 0.0
H1587 H 0.05313 0.84507 0.34598 0.0
H1588 H 0.08722 0.87464 0.3528 0.0
H1589 H 0.05456 0.87411 0.35916 0.0
H1590 H 0.06626 0.88101 0.39694 0.0
H1591 H 0.10037 0.8842 0.39125 0.0
H1592 H 0.07712 0.85915 0.40958 0.0
H1593 H 0.04984 0.76015 0.38518 0.0
H1594 H 0.09998 0.77314 0.37913 0.0
H1595 H 0.1221 0.85879 0.36997 0.0
C1596 C 1.00924 0.82913 0.38599 0.0
C1597 C 0.98232 0.80557 0.39043 0.0
C1598 C 0.98057 0.77954 0.39325 0.0
C1599 C 1.00466 0.77654 0.39065 0.0
C1600 C 0.03058 0.79984 0.3855 0.0
C1601 C 0.03329 0.82579 0.38363 0.0
C1602 C 0.06385 0.84736 0.37805 0.0
C1603 C 0.06478 0.86112 0.35777 0.0
C1604 C 0.07772 0.86922 0.39497 0.0
C1605 C 0.07763 0.82929 0.37649 0.0
C1606 C 0.05792 0.80198 0.38102 0.0
C1607 C 0.06542 0.78141 0.38153 0.0
C1608 C 0.09392 0.78895 0.37797 0.0
C1609 C 0.11474 0.81674 0.37356 0.0
C1610 C 0.10643 0.83721 0.37262 0.0
H1611 H 0.24892 0.20652 0.39783 0.0
H1612 H 0.17904 0.1351 0.36833 0.0
H1613 H 0.15772 0.16389 0.35882 0.0
H1614 H 0.20708 0.23708 0.4172 0.0
H1615 H 0.23525 0.27221 0.41274 0.0
H1616 H 0.24386 0.24554 0.41831 0.0
H1617 H 0.27336 0.25708 0.38521 0.0
H1618 H 0.26472 0.28365 0.37951 0.0
H1619 H 0.25664 0.25624 0.36146 0.0
H1620 H 0.14555 0.20099 0.35106 0.0
H1621 H 0.14264 0.24336 0.34603 0.0
H1622 H 0.22091 0.29102 0.3804 0.0
C1623 C 0.22893 0.1969 0.3896 0.0
C1624 C 0.21543 0.16858 0.38386 0.0
C1625 C 0.18949 0.15673 0.37294 0.0
C1626 C 0.17731 0.17291 0.36748 0.0
C1627 C 0.19136 0.20088 0.37312 0.0
C1628 C 0.21652 0.21277 0.38403 0.0
C1629 C 0.22781 0.24352 0.38759 0.0
C1630 C 0.22853 0.24996 0.41031 0.0
C1631 C 0.25738 0.26116 0.37786 0.0
C1632 C 0.2053 0.24718 0.37673 0.0
C1633 C 0.18442 0.22231 0.36856 0.0
C1634 C 0.16175 0.22055 0.35744 0.0
C1635 C 0.16041 0.24484 0.35456 0.0
C1636 C 0.1817 0.27067 0.36264 0.0
C1637 C 0.20428 0.27167 0.37403 0.0
H1638 H 0.67991 0.51333 0.73057 0.0
H1639 H 0.62449 0.54846 0.73691 0.0
H1640 H 0.66288 0.59334 0.72409 0.0
H1641 H 0.74371 0.57454 0.74728 0.0
H1642 H 0.76698 0.57006 0.73004 0.0
H1643 H 0.73463 0.54023 0.73868 0.0
H1644 H 0.71947 0.52617 0.70153 0.0
H1645 H 0.75116 0.5565 0.69253 0.0
H1646 H 0.71634 0.55005 0.68491 0.0
H1647 H 0.70749 0.63494 0.71278 0.0
H1648 H 0.7566 0.67155 0.70449 0.0
H1649 H 0.78413 0.61051 0.70465 0.0
C1650 C 0.67585 0.53043 0.72903 0.0
C1651 C 0.64916 0.5274 0.73475 0.0
C1652 C 0.64478 0.55036 0.73279 0.0
C1653 C 0.66641 0.57588 0.72539 0.0
C1654 C 0.69246 0.57828 0.72002 0.0
C1655 C 0.69743 0.5563 0.72184 0.0
C1656 C 0.72803 0.56513 0.71603 0.0
C1657 C 0.74429 0.56232 0.73409 0.0
C1658 C 0.72881 0.54848 0.69764 0.0
C1659 C 0.73941 0.59545 0.71072 0.0
C1660 C 0.7184 0.60248 0.71311 0.0
C1661 C 0.724 0.62961 0.71054 0.0
C1662 C 0.7519 0.65025 0.7058 0.0
C1663 C 0.77386 0.64371 0.7034 0.0
C1664 C 0.76747 0.61587 0.7057 0.0
H1665 H 0.5316 0.17868 0.72787 0.0
H1666 H 0.48914 0.08906 0.73326 0.0
H1667 H 0.44471 0.08517 0.71993 0.0
H1668 H 0.47326 0.18527 0.74471 0.0
H1669 H 0.47913 0.21298 0.7278 0.0
H1670 H 0.50865 0.20876 0.73542 0.0
H1671 H 0.52039 0.2067 0.698 0.0
H1672 H 0.49013 0.20938 0.68972 0.0
H1673 H 0.4941 0.18042 0.68165 0.0
H1674 H 0.40375 0.09071 0.71064 0.0
H1675 H 0.36815 0.10534 0.70519 0.0
H1676 H 0.43549 0.19154 0.70417 0.0
C1677 C 0.51309 0.15827 0.7257 0.0
C1678 C 0.51385 0.13406 0.73132 0.0
C1679 C 0.48904 0.10776 0.72886 0.0
C1680 C 0.46373 0.10538 0.72127 0.0
C1681 C 0.4634 0.12952 0.71618 0.0
C1682 C 0.48735 0.15552 0.71822 0.0
C1683 C 0.48024 0.1781 0.71308 0.0
C1684 C 0.48564 0.19741 0.73134 0.0
C1685 C 0.49721 0.19464 0.6945 0.0
C1686 C 0.44847 0.16071 0.70834 0.0
C1687 C 0.4394 0.13272 0.71017 0.0
C1688 C 0.41068 0.11249 0.70865 0.0
C1689 C 0.39059 0.12098 0.70554 0.0
C1690 C 0.39913 0.14941 0.70351 0.0
C1691 C 0.42854 0.16959 0.70473 0.0
H1692 H 0.93186 0.3888 0.74957 0.0
H1693 H 0.85084 0.38326 0.73483 0.0
H1694 H 0.83558 0.33915 0.71726 0.0
H1695 H 0.94119 0.35918 0.70523 0.0
H1696 H 0.95399 0.3385 0.7173 0.0
H1697 H 0.95942 0.37002 0.72921 0.0
H1698 H 0.93398 0.34277 0.76159 0.0
H1699 H 0.92885 0.31121 0.74989 0.0
H1700 H 0.89864 0.31291 0.7597 0.0
H1701 H 0.83134 0.29979 0.69757 0.0
H1702 H 0.8331 0.26025 0.68281 0.0
H1703 H 0.91291 0.2852 0.71423 0.0
C1704 C 0.91069 0.3781 0.74302 0.0
C1705 C 0.89306 0.39029 0.74302 0.0
C1706 C 0.86542 0.37526 0.73431 0.0
C1707 C 0.85635 0.34996 0.72441 0.0
C1708 C 0.87465 0.33924 0.72391 0.0
C1709 C 0.9008 0.35217 0.73353 0.0
C1710 C 0.91558 0.33512 0.73116 0.0
C1711 C 0.94425 0.35171 0.72006 0.0
C1712 C 0.91949 0.3249 0.75182 0.0
C1713 C 0.89391 0.31114 0.71823 0.0
C1714 C 0.87075 0.31439 0.71404 0.0
C1715 C 0.84891 0.29648 0.70119 0.0
C1716 C 0.85021 0.27404 0.69282 0.0
C1717 C 0.87279 0.26912 0.69773 0.0
C1718 C 0.89511 0.28812 0.7105 0.0
H1719 H 0.16885 0.98837 0.65293 0.0
H1720 H 0.21981 0.95019 0.6385 0.0
H1721 H 0.2628 0.99175 0.65129 0.0
H1722 H 0.21902 0.0557 0.6375 0.0
H1723 H 0.21201 0.07383 0.65739 0.0
H1724 H 0.18435 0.03998 0.6493 0.0
H1725 H 0.17855 0.02213 0.6861 0.0
H1726 H 0.20623 0.05602 0.69429 0.0
H1727 H 0.20925 0.0258 0.69949 0.0
H1728 H 0.30058 0.03807 0.66238 0.0
H1729 H 0.33166 0.08716 0.67159 0.0
H1730 H 0.2574 0.09677 0.67955 0.0
C1731 C 0.18899 0.98861 0.65292 0.0
C1732 C 0.19106 0.96609 0.64469 0.0
C1733 C 0.21782 0.96729 0.64457 0.0
C1734 C 0.24231 0.99073 0.65192 0.0
C1735 C 0.23974 0.01282 0.65948 0.0
C1736 C 0.21381 0.01203 0.66019 0.0
C1737 C 0.21758 0.03951 0.66792 0.0
C1738 C 0.20766 0.05305 0.65208 0.0
C1739 C 0.20197 0.03562 0.68816 0.0
C1740 C 0.24973 0.05601 0.6708 0.0
C1741 C 0.26191 0.03999 0.66601 0.0
C1742 C 0.2913 0.05077 0.66635 0.0
C1743 C 0.3088 0.07878 0.67145 0.0
C1744 C 0.29698 0.09582 0.67614 0.0
C1745 C 0.26698 0.08413 0.6762 0.0
H1746 H 0.03013 0.17702 0.64598 0.0
H1747 H 0.08727 0.26595 0.64165 0.0
H1748 H 0.0488 0.27418 0.65334 0.0
H1749 H 0.96878 0.17677 0.62733 0.0
H1750 H 0.9436 0.15019 0.64399 0.0
H1751 H 0.97628 0.15098 0.63732 0.0
H1752 H 0.98766 0.15183 0.67503 0.0
H1753 H 0.95607 0.1528 0.68253 0.0
H1754 H 0.99084 0.17963 0.69093 0.0
H1755 H 1.00363 0.27328 0.66064 0.0
H1756 H 0.95421 0.26336 0.66536 0.0
H1757 H 0.92456 0.1751 0.66727 0.0
C1758 C 0.03462 0.19817 0.64804 0.0
C1759 C 0.06186 0.22093 0.64308 0.0
C1760 C 0.0667 0.24829 0.64547 0.0
C1761 C 0.04495 0.25315 0.65211 0.0
C1762 C 0.01823 0.23045 0.65642 0.0
C1763 C 1.01288 0.20346 0.65466 0.0
C1764 C 0.98155 0.18297 0.65924 0.0
C1765 C 0.96668 0.16412 0.64087 0.0
C1766 C 0.97883 0.16576 0.67806 0.0
C1767 C 0.97014 0.20271 0.6633 0.0
C1768 C 0.99187 0.22999 0.66156 0.0
C1769 C 0.98658 0.25206 0.66257 0.0
C1770 C 0.95842 0.24623 0.66523 0.0
C1771 C 0.93571 0.21861 0.66739 0.0
C1772 C 0.94168 0.19649 0.66654 0.0
H1773 H 0.78543 0.8184 0.62584 0.0
H1774 H 0.85566 0.88958 0.65588 0.0
H1775 H 0.86842 0.85837 0.67315 0.0
H1776 H 0.7664 0.76924 0.66601 0.0
H1777 H 0.75997 0.74059 0.64968 0.0
H1778 H 0.75482 0.76814 0.6403 0.0
H1779 H 0.78985 0.77647 0.61084 0.0
H1780 H 0.79501 0.74886 0.62006 0.0
H1781 H 0.82532 0.78308 0.61639 0.0
H1782 H 0.8733 0.82039 0.68767 0.0
H1783 H 0.87324 0.77776 0.69662 0.0
H1784 H 0.80313 0.73056 0.65486 0.0
C1785 C 0.80369 0.82758 0.63586 0.0
C1786 C 0.81918 0.85662 0.63967 0.0
C1787 C 0.84277 0.86746 0.65311 0.0
C1788 C 0.85041 0.8499 0.6629 0.0
C1789 C 0.83465 0.82155 0.65884 0.0
C1790 C 0.81207 0.8104 0.64545 0.0
C1791 C 0.79962 0.77922 0.6432 0.0
C1792 C 0.76834 0.76337 0.65022 0.0
C1793 C 0.80264 0.77146 0.62132 0.0
C1794 C 0.81877 0.77469 0.6575 0.0
C1795 C 0.83852 0.79946 0.66649 0.0
C1796 C 0.8581 0.80089 0.68065 0.0
C1797 C 0.85775 0.77639 0.68568 0.0
C1798 C 0.83819 0.75071 0.6764 0.0
C1799 C 0.81843 0.74988 0.66208 0.0
H1800 H 0.06181 0.81087 0.65712 0.0
H1801 H 0.04682 0.87858 0.67202 0.0
H1802 H 0.99588 0.84465 0.6787 0.0
H1803 H 0.99535 0.7673 0.6318 0.0
H1804 H 0.99143 0.73541 0.64169 0.0
H1805 H 0.0265 0.76505 0.6382 0.0
H1806 H 0.03802 0.76253 0.67584 0.0
H1807 H 1.00281 0.73319 0.67969 0.0
H1808 H 0.01525 0.76384 0.69525 0.0
H1809 H 0.94651 0.8033 0.68301 0.0
H1810 H 0.90243 0.75775 0.68469 0.0
H1811 H 0.94965 0.71678 0.66768 0.0
C1812 C 0.04773 0.81853 0.66165 0.0
C1813 C 0.05803 0.84734 0.66375 0.0
C1814 C 0.03913 0.85659 0.67005 0.0
C1815 C 1.01028 0.83749 0.67394 0.0
C1816 C 1.00078 0.80922 0.67164 0.0
C1817 C 0.01893 0.79975 0.66566 0.0
C1818 C 1.00337 0.7683 0.66438 0.0
C1819 C 1.00421 0.75844 0.64273 0.0
C1820 C 0.01559 0.75626 0.6797 0.0
C1821 C 0.97351 0.76153 0.67024 0.0
C1822 C 0.97251 0.78542 0.67449 0.0
C1823 C 0.94715 0.78448 0.67989 0.0
C1824 C 0.92219 0.75847 0.68095 0.0
C1825 C 0.92277 0.73373 0.67687 0.0
C1826 C 0.94875 0.73537 0.67124 0.0
H1827 H 0.17069 0.16523 0.66198 0.0
H1828 H 0.20399 0.25326 0.65259 0.0
H1829 H 0.25315 0.26124 0.65369 0.0
H1830 H 0.21682 0.16956 0.69584 0.0
H1831 H 0.22558 0.14335 0.68817 0.0
H1832 H 0.19152 0.13969 0.68174 0.0
H1833 H 0.19699 0.13767 0.64386 0.0
H1834 H 0.22926 0.13668 0.64866 0.0
H1835 H 0.22985 0.16229 0.63174 0.0
H1836 H 0.29853 0.26056 0.65837 0.0
H1837 H 0.33784 0.25103 0.66427 0.0
H1838 H 0.27656 0.1635 0.67189 0.0
C1839 C 0.18837 0.18601 0.65949 0.0
C1840 C 0.18349 0.20867 0.65721 0.0
C1841 C 0.20717 0.23563 0.65431 0.0
C1842 C 0.23521 0.24035 0.65496 0.0
C1843 C 0.23937 0.21784 0.65814 0.0
C1844 C 0.21667 0.19105 0.6598 0.0
C1845 C 0.22734 0.1708 0.6639 0.0
C1846 C 0.21463 0.15488 0.68361 0.0
C1847 C 0.22045 0.15067 0.64597 0.0
C1848 C 0.25943 0.19065 0.66558 0.0
C1849 C 0.26578 0.21757 0.66166 0.0
C1850 C 0.29381 0.23959 0.66146 0.0
C1851 C 0.31602 0.234 0.66492 0.0
C1852 C 0.31032 0.20674 0.66905 0.0
C1853 C 0.28153 0.1847 0.6694 0.0
H1854 H 0.83337 0.98791 0.67604 0.0
H1855 H 0.76553 0.96137 0.63179 0.0
H1856 H 0.7711 0.00835 0.6323 0.0
H1857 H 0.8158 0.03234 0.70556 0.0
H1858 H 0.85265 0.05794 0.71011 0.0
H1859 H 0.84266 0.02217 0.70609 0.0
H1860 H 0.8799 0.03792 0.67695 0.0
H1861 H 0.88897 0.07353 0.68084 0.0
H1862 H 0.87746 0.05761 0.65625 0.0
H1863 H 0.78324 0.05709 0.63785 0.0
H1864 H 0.80157 0.10572 0.64738 0.0
H1865 H 0.86258 0.10205 0.68811 0.0
C1866 C 0.81968 0.99211 0.66656 0.0
C1867 C 0.79859 0.97105 0.65418 0.0
C1868 C 0.7814 0.97721 0.64162 0.0
C1869 C 0.78448 1.00377 0.64179 0.0
C1870 C 0.80509 0.02396 0.65443 0.0
C1871 C 0.82253 0.01859 0.66652 0.0
C1872 C 0.84306 0.0442 0.6786 0.0
C1873 C 0.83821 0.03883 0.70144 0.0
C1874 C 0.87419 0.05388 0.67281 0.0
C1875 C 0.83417 0.06469 0.67156 0.0
C1876 C 0.81229 0.05247 0.65758 0.0
C1877 C 0.80036 0.06693 0.64878 0.0
C1878 C 0.81101 0.09466 0.65437 0.0
C1879 C 0.83343 0.10786 0.66872 0.0
C1880 C 0.8452 0.09257 0.67735 0.0
H1881 H 0.55103 0.37086 0.69292 0.0
H1882 H 0.51833 0.40671 0.73635 0.0
H1883 H 0.47271 0.36198 0.73792 0.0
H1884 H 0.48707 0.33265 0.66524 0.0
H1885 H 0.4926 0.30375 0.66051 0.0
H1886 H 0.52274 0.3378 0.66444 0.0
H1887 H 0.53949 0.31772 0.69337 0.0
H1888 H 0.50869 0.28384 0.68943 0.0
H1889 H 0.51562 0.29993 0.7141 0.0
H1890 H 0.42943 0.31432 0.73269 0.0
H1891 H 0.39254 0.26717 0.7223 0.0
H1892 H 0.45347 0.26224 0.68202 0.0
C1893 C 0.53443 0.36907 0.70304 0.0
C1894 C 0.53813 0.39217 0.71457 0.0
C1895 C 0.51589 0.38918 0.7275 0.0
C1896 C 0.48992 0.3639 0.72843 0.0
C1897 C 0.48662 0.34172 0.71642 0.0
C1898 C 0.50839 0.34398 0.70413 0.0
C1899 C 0.49895 0.31753 0.69201 0.0
C1900 C 0.50041 0.32332 0.6692 0.0
C1901 C 0.51675 0.30395 0.69757 0.0
C1902 C 0.46832 0.30011 0.69915 0.0
C1903 C 0.46168 0.31442 0.7133 0.0
C1904 C 0.43449 0.30288 0.72174 0.0
C1905 C 0.41361 0.27601 0.71568 0.0
C1906 C 0.41988 0.26082 0.70124 0.0
C1907 C 0.44776 0.27319 0.69297 0.0
H1908 H 0.64839 0.10528 0.72073 0.0
H1909 H 0.65849 0.18617 0.70822 0.0
H1910 H 0.70946 0.20406 0.69985 0.0
H1911 H 0.71714 0.12917 0.74374 0.0
H1912 H 0.72192 0.10206 0.73263 0.0
H1913 H 0.6865 0.09595 0.73765 0.0
H1914 H 0.67303 0.08226 0.70007 0.0
H1915 H 0.70853 0.08867 0.69485 0.0
H1916 H 0.69412 0.1063 0.68049 0.0
H1917 H 0.75993 0.21318 0.69338 0.0
H1918 H 0.80513 0.2128 0.6898 0.0
H1919 H 0.76211 0.12577 0.70571 0.0
C1920 C 0.66143 0.12687 0.71648 0.0
C1921 C 0.64961 0.14456 0.71566 0.0
C1922 C 0.66723 0.17245 0.70944 0.0
C1923 C 0.69615 0.18271 0.70454 0.0
C1924 C 0.70715 0.16474 0.70565 0.0
C1925 C 0.6903 0.13739 0.71147 0.0
C1926 C 0.70723 0.12231 0.71135 0.0
C1927 C 0.70826 0.11176 0.73261 0.0
C1928 C 0.69499 0.09847 0.69576 0.0
C1929 C 0.73638 0.14552 0.70487 0.0
C1930 C 0.73585 0.16979 0.70151 0.0
C1931 C 0.76039 0.19417 0.69579 0.0
C1932 C 0.78604 0.19374 0.69359 0.0
C1933 C 0.78711 0.16912 0.69681 0.0
C1934 C 0.76186 0.14478 0.70269 0.0
H1935 H 0.86996 0.50268 0.69857 0.0
H1936 H 0.93519 0.54021 0.74486 0.0
H1937 H 0.93091 0.58252 0.74423 0.0
H1938 H 0.89182 0.56463 0.66962 0.0
H1939 H 0.85572 0.55544 0.66345 0.0
H1940 H 0.86417 0.52862 0.66833 0.0
H1941 H 0.82438 0.50915 0.69585 0.0
H1942 H 0.81708 0.53691 0.69116 0.0
H1943 H 0.82606 0.53151 0.71632 0.0
H1944 H 0.92041 0.62041 0.73821 0.0
H1945 H 0.9048 0.65268 0.72739 0.0
H1946 H 0.84602 0.59123 0.68446 0.0
C1947 C 0.88323 0.51985 0.70857 0.0
C1948 C 0.90317 0.51855 0.72162 0.0
C1949 C 0.92005 0.54114 0.73466 0.0
C1950 C 0.91769 0.56511 0.73442 0.0
C1951 C 0.89819 0.56597 0.72114 0.0
C1952 C 0.88114 0.54397 0.70851 0.0
C1953 C 0.86237 0.55063 0.69542 0.0
C1954 C 0.86896 0.54981 0.67287 0.0
C1955 C 0.83059 0.53087 0.69997 0.0
C1956 C 0.8718 0.57999 0.70251 0.0
C1957 C 0.89236 0.58823 0.71742 0.0
C1958 C 0.90443 0.61429 0.72647 0.0
C1959 C 0.89543 0.63257 0.72007 0.0
C1960 C 0.87463 0.62494 0.7046 0.0
C1961 C 0.86245 0.59806 0.6959 0.0
H1962 H 0.42269 0.87872 0.23671 0.0
H1963 H 0.4962 0.95035 0.26283 0.0
H1964 H 0.50877 0.97276 0.22911 0.0
H1965 H 0.45782 0.87847 0.1899 0.0
H1966 H 0.42627 0.86726 0.17471 0.0
H1967 H 0.42297 0.8574 0.20091 0.0
H1968 H 0.39075 0.87889 0.20737 0.0
H1969 H 0.39402 0.88886 0.1812 0.0
H1970 H 0.40364 0.91468 0.20084 0.0
H1971 H 0.51135 0.98821 0.19261 0.0
H1972 H 0.50597 0.99429 0.15636 0.0
H1973 H 0.43389 0.90993 0.15353 0.0
C1974 C 0.44138 0.89915 0.23526 0.0
C1975 C 0.4584 0.91301 0.2523 0.0
C1976 C 0.48293 0.93951 0.2499 0.0
C1977 C 0.49017 0.95236 0.23084 0.0
C1978 C 0.47292 0.93816 0.2143 0.0
C1979 C 0.44925 0.91197 0.21629 0.0
C1980 C 0.43474 0.90082 0.19607 0.0
C1981 C 0.43551 0.87443 0.19004 0.0
C1982 C 0.40397 0.89551 0.1964 0.0
C1983 C 0.45366 0.92496 0.18242 0.0
C1984 C 0.4754 0.94639 0.19321 0.0
C1985 C 0.49467 0.97133 0.18395 0.0
C1986 C 0.49156 0.97447 0.16317 0.0
C1987 C 0.46958 0.95262 0.15162 0.0
C1988 C 0.45071 0.92742 0.16161 0.0
H1989 H 0.12004 0.56741 0.22817 0.0
H1990 H 0.0687 0.48579 0.25472 0.0
H1991 H 0.04102 0.46895 0.22306 0.0
H1992 H 0.06422 0.5694 0.20285 0.0
H1993 H 0.08474 0.58693 0.18071 0.0
H1994 H 0.10234 0.59189 0.2047 0.0
H1995 H 0.13587 0.57613 0.18891 0.0
H1996 H 0.11834 0.5711 0.16483 0.0
H1997 H 0.12072 0.54294 0.17621 0.0
H1998 H 0.01561 0.46235 0.19022 0.0
H1999 H 0.99534 0.4661 0.15765 0.0
H2000 H 0.06382 0.5513 0.15173 0.0
C2001 C 0.10315 0.54592 0.22724 0.0
C2002 C 0.09661 0.52787 0.24389 0.0
C2003 C 0.07438 0.49988 0.24206 0.0
C2004 C 0.05848 0.49014 0.22417 0.0
C2005 C 0.06522 0.50856 0.20815 0.0
C2006 C 0.08718 0.53579 0.20941 0.0
C2007 C 0.08921 0.55161 0.19029 0.0
C2008 C 0.08486 0.57641 0.19492 0.0
C2009 C 0.11773 0.56099 0.17942 0.0
C2010 C 0.06443 0.52923 0.17833 0.0
C2011 C 0.05095 0.50451 0.18889 0.0
C2012 C 0.02627 0.48141 0.18164 0.0
C2013 C 0.0149 0.4837 0.1632 0.0
C2014 C 0.02834 0.50881 0.1522 0.0
C2015 C 0.05361 0.53171 0.15971 0.0
H2016 H 0.47487 0.53136 0.24567 0.0
H2017 H 0.48825 0.61367 0.23358 0.0
H2018 H 0.50185 0.61043 0.1984 0.0
H2019 H 0.53386 0.53873 0.21745 0.0
H2020 H 0.5162 0.50351 0.20804 0.0
H2021 H 0.50546 0.51134 0.23183 0.0
H2022 H 0.45338 0.48925 0.21893 0.0
H2023 H 0.46394 0.48122 0.1951 0.0
H2024 H 0.44618 0.50134 0.19565 0.0
H2025 H 0.51603 0.59917 0.16501 0.0
H2026 H 0.53074 0.58106 0.13598 0.0
H2027 H 0.5081 0.50596 0.16961 0.0
C2028 C 0.48021 0.54848 0.23549 0.0
C2029 C 0.48052 0.57278 0.24234 0.0
C2030 C 0.48811 0.59496 0.22869 0.0
C2031 C 0.49571 0.59325 0.20866 0.0
C2032 C 0.49561 0.5692 0.20246 0.0
C2033 C 0.48804 0.54719 0.21545 0.0
C2034 C 0.491 0.52426 0.20522 0.0
C2035 C 0.51294 0.51918 0.2163 0.0
C2036 C 0.46189 0.49743 0.20363 0.0
C2037 C 0.50182 0.53701 0.18459 0.0
C2038 C 0.50407 0.56282 0.18324 0.0
C2039 C 0.51414 0.57887 0.16582 0.0
C2040 C 0.52231 0.56834 0.14936 0.0
C2041 C 0.52053 0.54205 0.15045 0.0
C2042 C 0.50993 0.5262 0.16832 0.0
H2043 H 0.93458 0.42955 0.8089 0.0
H2044 H 0.97137 0.51156 0.78193 0.0
H2045 H 1.0012 0.532 0.81207 0.0
H2046 H 0.93471 0.4493 0.86051 0.0
H2047 H 0.94562 0.42595 0.87051 0.0
H2048 H 0.92559 0.41746 0.84727 0.0
H2049 H 0.9652 0.41265 0.82877 0.0
H2050 H 0.9852 0.42082 0.852 0.0
H2051 H 1.0015 0.44106 0.82964 0.0
H2052 H 0.02629 0.5441 0.84556 0.0
H2053 H 0.04955 0.54598 0.87824 0.0
H2054 H 1.00065 0.45616 0.8819 0.0
C2055 C 0.94908 0.45177 0.80911 0.0
C2056 C 0.9499 0.46887 0.793 0.0
C2057 C 0.96933 0.49792 0.79422 0.0
C2058 C 0.98663 0.50981 0.81128 0.0
C2059 C 0.98486 0.49243 0.82693 0.0
C2060 C 0.96703 0.46398 0.82586 0.0
C2061 C 0.97046 0.44987 0.84433 0.0
C2062 C 0.94242 0.43476 0.85636 0.0
C2063 C 0.98124 0.42993 0.83832 0.0
C2064 C 0.993 0.47486 0.8559 0.0
C2065 C 1.00064 0.49925 0.84575 0.0
C2066 C 0.02064 0.52513 0.8536 0.0
C2067 C 0.03361 0.52605 0.87216 0.0
C2068 C 0.02683 0.50125 0.8824 0.0
C2069 C 1.00616 0.47538 0.87424 0.0
H2070 H 0.60759 0.50446 0.80375 0.0
H2071 H 0.52912 0.44868 0.77193 0.0
H2072 H 0.50119 0.44888 0.80133 0.0
H2073 H 0.58339 0.47554 0.85404 0.0
H2074 H 0.60145 0.50886 0.8666 0.0
H2075 H 0.6157 0.50349 0.84343 0.0
H2076 H 0.61479 0.54536 0.82724 0.0
H2077 H 0.60069 0.55095 0.85038 0.0
H2078 H 0.58188 0.54613 0.82689 0.0
H2079 H 0.48147 0.45658 0.83315 0.0
H2080 H 0.47108 0.47194 0.86558 0.0
H2081 H 0.56179 0.5228 0.87746 0.0
C2082 C 0.58454 0.4923 0.80297 0.0
C2083 C 0.57061 0.47632 0.78552 0.0
C2084 C 0.54037 0.46063 0.7852 0.0
C2085 C 0.52427 0.4607 0.80182 0.0
C2086 C 0.53863 0.47655 0.81874 0.0
C2087 C 0.56805 0.49209 0.81949 0.0
C2088 C 0.578 0.50792 0.83939 0.0
C2089 C 0.59568 0.49837 0.85158 0.0
C2090 C 0.59483 0.53946 0.83575 0.0
C2091 C 0.54953 0.49913 0.84954 0.0
C2092 C 0.52715 0.48093 0.83732 0.0
C2093 C 0.4988 0.47067 0.8429 0.0
C2094 C 0.49311 0.47954 0.86132 0.0
C2095 C 0.51561 0.49843 0.87402 0.0
C2096 C 0.5442 0.50802 0.86816 0.0
H2097 H 0.51022 0.08215 0.78927 0.0
H2098 H 0.5991 0.14222 0.80162 0.0
H2099 H 0.59355 0.1239 0.83625 0.0
H2100 H 0.48365 0.08683 0.83889 0.0
H2101 H 0.45728 0.05038 0.83945 0.0
H2102 H 0.46838 0.06823 0.81561 0.0
H2103 H 0.48184 0.03211 0.80281 0.0
H2104 H 0.47088 0.01421 0.82661 0.0
H2105 H 0.50645 0.02613 0.81727 0.0
H2106 H 0.57841 0.09777 0.86964 0.0
H2107 H 0.55502 0.06657 0.89854 0.0
H2108 H 0.47521 0.02625 0.86507 0.0
C2109 C 0.5285 0.09184 0.79926 0.0
C2110 C 0.55518 0.1137 0.79246 0.0
C2111 C 0.57855 0.12518 0.80615 0.0
C2112 C 0.57555 0.11505 0.82599 0.0
C2113 C 0.54898 0.09352 0.83211 0.0
C2114 C 0.52583 0.08218 0.81916 0.0
C2115 C 0.49958 0.05915 0.82941 0.0
C2116 C 0.47582 0.0666 0.83093 0.0
C2117 C 0.48908 0.03125 0.81837 0.0
C2118 C 0.51164 0.0591 0.85008 0.0
C2119 C 0.54016 0.07905 0.85137 0.0
C2120 C 0.55599 0.08227 0.86883 0.0
C2121 C 0.54239 0.06452 0.8853 0.0
C2122 C 0.51311 0.04376 0.88433 0.0
C2123 C 0.49766 0.04148 0.86643 0.0
H2124 H 0.08467 0.22432 0.57225 0.0
H2125 H 0.17306 0.25929 0.59069 0.0
H2126 H 0.1887 0.28016 0.55682 0.0
H2127 H 0.09365 0.20943 0.51995 0.0
H2128 H 0.06854 0.21897 0.51047 0.0
H2129 H 0.06445 0.20521 0.53564 0.0
H2130 H 0.06485 0.24876 0.5503 0.0
H2131 H 0.06887 0.26261 0.5252 0.0
H2132 H 0.09435 0.28278 0.54461 0.0
H2133 H 0.19459 0.29957 0.52114 0.0
H2134 H 0.19007 0.31645 0.48757 0.0
H2135 H 0.09782 0.26864 0.49285 0.0
C2136 C 0.10735 0.23638 0.56924 0.0
C2137 C 0.1276 0.24008 0.58425 0.0
C2138 C 0.15707 0.25577 0.57944 0.0
C2139 C 0.16618 0.26782 0.56024 0.0
C2140 C 0.1456 0.26396 0.54591 0.0
C2141 C 0.11679 0.24856 0.55021 0.0
C2142 C 0.09893 0.24835 0.53253 0.0
C2143 C 0.0803 0.21873 0.52415 0.0
C2144 C 0.08069 0.26141 0.53853 0.0
C2145 C 0.12216 0.26646 0.5177 0.0
C2146 C 0.14896 0.2751 0.52558 0.0
C2147 C 0.17368 0.29271 0.51479 0.0
C2148 C 0.17091 0.30207 0.49565 0.0
C2149 C 0.14361 0.29395 0.48749 0.0
C2150 C 0.11902 0.2755 0.49866 0.0
H2151 H 0.75 0.89505 0.58405 0.0
H2152 H 0.81103 0.86885 0.56842 0.0
H2153 H 0.79075 0.85662 0.53405 0.0
H2154 H 0.69119 0.84274 0.55647 0.0
H2155 H 0.67821 0.86529 0.54825 0.0
H2156 H 0.69774 0.87245 0.57163 0.0
H2157 H 0.734 0.92193 0.55911 0.0
H2158 H 0.71445 0.915 0.53575 0.0
H2159 H 0.75196 0.92606 0.53528 0.0
H2160 H 0.76276 0.84556 0.50187 0.0
H2161 H 0.73021 0.8382 0.47351 0.0
H2162 H 0.68924 0.8742 0.50937 0.0
C2163 C 0.75937 0.8871 0.57333 0.0
C2164 C 0.78197 0.88269 0.57902 0.0
C2165 C 0.79336 0.87191 0.56456 0.0
C2166 C 0.78212 0.86506 0.54495 0.0
C2167 C 0.75963 0.86933 0.53995 0.0
C2168 C 0.74852 0.8803 0.55364 0.0
C2169 C 0.72427 0.88272 0.54439 0.0
C2170 C 0.69619 0.86472 0.55587 0.0
C2171 C 0.73162 0.91324 0.54358 0.0
C2172 C 0.72338 0.87119 0.52342 0.0
C2173 C 0.74391 0.86355 0.52119 0.0
C2174 C 0.74681 0.85178 0.50333 0.0
C2175 C 0.72831 0.84785 0.48726 0.0
C2176 C 0.70726 0.85584 0.48907 0.0
C2177 C 0.70489 0.86765 0.50748 0.0
H2178 H 0.18031 0.94076 0.57495 0.0
H2179 H 0.12003 0.85543 0.59164 0.0
H2180 H 0.12714 0.83953 0.55847 0.0
H2181 H 0.16482 0.93547 0.52138 0.0
H2182 H 0.20175 0.95699 0.51437 0.0
H2183 H 0.18933 0.96216 0.53844 0.0
H2184 H 0.22791 0.95575 0.55679 0.0
H2185 H 0.2405 0.95067 0.5328 0.0
H2186 H 0.22981 0.9247 0.55222 0.0
H2187 H 0.14203 0.83257 0.52353 0.0
H2188 H 0.16664 0.83507 0.49122 0.0
H2189 H 0.22079 0.92395 0.49931 0.0
C2190 C 0.16861 0.91866 0.57186 0.0
C2191 C 0.14936 0.89951 0.58617 0.0
C2192 C 0.13433 0.87082 0.58098 0.0
C2193 C 0.13838 0.86147 0.56214 0.0
C2194 C 0.15781 0.88093 0.54863 0.0
C2195 C 0.1729 0.9089 0.55337 0.0
C2196 C 0.1942 0.92535 0.53693 0.0
C2197 C 0.18709 0.94622 0.52721 0.0
C2198 C 0.22492 0.93997 0.54518 0.0
C2199 C 0.18901 0.9022 0.52231 0.0
C2200 C 0.16753 0.87678 0.52912 0.0
C2201 C 0.15889 0.85236 0.51808 0.0
C2202 C 0.17288 0.85395 0.49977 0.0
C2203 C 0.19554 0.87965 0.49295 0.0
C2204 C 0.20354 0.90405 0.50431 0.0
H2205 H 0.59966 0.76681 0.14208 0.0
H2206 H 0.64566 0.84302 0.10782 0.0
H2207 H 0.67908 0.86503 0.13636 0.0
H2208 H 0.60573 0.80033 0.19049 0.0
H2209 H 0.61003 0.77511 0.20474 0.0
H2210 H 0.58993 0.76499 0.1815 0.0
H2211 H 0.62251 0.74705 0.16735 0.0
H2212 H 0.64263 0.75701 0.19058 0.0
H2213 H 0.66061 0.77009 0.16677 0.0
H2214 H 0.70845 0.87826 0.16786 0.0
H2215 H 0.73086 0.8826 0.20128 0.0
H2216 H 0.66455 0.79903 0.21626 0.0
C2217 C 0.61687 0.78808 0.14064 0.0
C2218 C 0.62018 0.80328 0.1228 0.0
C2219 C 0.64273 0.83114 0.12145 0.0
C2220 C 0.66182 0.84377 0.13753 0.0
C2221 C 0.6579 0.82836 0.15498 0.0
C2222 C 0.63591 0.8012 0.15674 0.0
C2223 C 0.63627 0.78957 0.17738 0.0
C2224 C 0.60886 0.78206 0.18923 0.0
C2225 C 0.64078 0.76444 0.17539 0.0
C2226 C 0.66205 0.81434 0.18682 0.0
C2227 C 0.67428 0.83641 0.17355 0.0
C2228 C 0.69894 0.86122 0.17846 0.0
C2229 C 0.71152 0.86351 0.19741 0.0
C2230 C 0.69923 0.84127 0.21129 0.0
C2231 C 0.67406 0.81646 0.20598 0.0
H2232 H 0.20339 0.79094 0.12471 0.0
H2233 H 0.29437 0.83809 0.13687 0.0
H2234 H 0.28446 0.84585 0.17206 0.0
H2235 H 0.18442 0.83311 0.15351 0.0
H2236 H 0.15134 0.80474 0.16279 0.0
H2237 H 0.16545 0.80155 0.13886 0.0
H2238 H 0.16427 0.75684 0.1512 0.0
H2239 H 0.14999 0.75979 0.17515 0.0
H2240 H 0.18218 0.75772 0.17439 0.0
H2241 H 0.26467 0.85042 0.20556 0.0
H2242 H 0.23658 0.85132 0.23471 0.0
H2243 H 0.15837 0.79985 0.20118 0.0
C2244 C 0.22123 0.80248 0.13486 0.0
C2245 C 0.2497 0.81394 0.12795 0.0
C2246 C 0.2724 0.82937 0.14169 0.0
C2247 C 0.26698 0.83375 0.16177 0.0
C2248 C 0.23872 0.82251 0.16799 0.0
C2249 C 0.2162 0.80708 0.15497 0.0
C2250 C 0.18783 0.79806 0.16529 0.0
C2251 C 0.1713 0.81009 0.15447 0.0
C2252 C 0.17002 0.76621 0.16659 0.0
C2253 C 0.19791 0.8111 0.18604 0.0
C2254 C 0.22733 0.825 0.18731 0.0
C2255 C 0.2416 0.83933 0.20479 0.0
C2256 C 0.2254 0.83957 0.22136 0.0
C2257 C 0.19515 0.82557 0.22042 0.0
C2258 C 0.1814 0.811 0.20246 0.0
H2259 H 0.17665 0.41302 0.12229 0.0
H2260 H 0.26549 0.47347 0.13448 0.0
H2261 H 0.26025 0.45504 0.16904 0.0
H2262 H 0.15038 0.41759 0.17212 0.0
H2263 H 0.12407 0.38112 0.17263 0.0
H2264 H 0.13497 0.3991 0.14883 0.0
H2265 H 0.1484 0.36309 0.13571 0.0
H2266 H 0.13769 0.34508 0.15948 0.0
H2267 H 0.1732 0.35713 0.14995 0.0
H2268 H 0.24556 0.42856 0.20217 0.0
H2269 H 0.2225 0.39716 0.231 0.0
H2270 H 0.14231 0.35699 0.19795 0.0
C2271 C 0.19497 0.42279 0.13224 0.0
C2272 C 0.22156 0.44473 0.12542 0.0
C2273 C 0.24501 0.45634 0.13904 0.0
C2274 C 0.24219 0.44616 0.15882 0.0
C2275 C 0.21571 0.42451 0.16495 0.0
C2276 C 0.19246 0.41313 0.15209 0.0
C2277 C 0.16633 0.39003 0.16235 0.0
C2278 C 0.14253 0.39741 0.16408 0.0
C2279 C 0.1558 0.36219 0.15121 0.0
C2280 C 0.17857 0.38993 0.18291 0.0
C2281 C 0.20709 0.40993 0.18414 0.0
C2282 C 0.22313 0.41306 0.20144 0.0
C2283 C 0.20972 0.3952 0.21786 0.0
C2284 C 0.18042 0.37447 0.21698 0.0
C2285 C 0.16477 0.37222 0.19922 0.0
H2286 H 0.75442 0.55773 0.90447 0.0
H2287 H 0.84003 0.61167 0.92731 0.0
H2288 H 0.85415 0.63531 0.89416 0.0
H2289 H 0.77518 0.55018 0.85388 0.0
H2290 H 0.74512 0.55012 0.84214 0.0
H2291 H 0.7421 0.5374 0.86755 0.0
H2292 H 0.72661 0.57214 0.88013 0.0
H2293 H 0.72958 0.58497 0.85478 0.0
H2294 H 0.74912 0.60868 0.87509 0.0
H2295 H 0.85808 0.65432 0.85869 0.0
H2296 H 0.85189 0.66634 0.8239 0.0
H2297 H 0.76424 0.59816 0.82408 0.0
C2298 C 0.77612 0.57461 0.90254 0.0
C2299 C 0.79612 0.58297 0.9185 0.0
C2300 C 0.82442 0.60484 0.91525 0.0
C2301 C 0.83259 0.61843 0.8965 0.0
C2302 C 0.81227 0.60973 0.88111 0.0
C2303 C 0.78466 0.5882 0.88392 0.0
C2304 C 0.76688 0.58275 0.865 0.0
C2305 C 0.75674 0.55337 0.85665 0.0
C2306 C 0.74156 0.58742 0.86899 0.0
C2307 C 0.78868 0.60478 0.85115 0.0
C2308 C 0.81473 0.62017 0.86068 0.0
C2309 C 0.83784 0.6422 0.85102 0.0
C2310 C 0.83416 0.64875 0.83115 0.0
C2311 C 0.80758 0.63325 0.82106 0.0
C2312 C 0.78475 0.61078 0.8313 0.0
H2313 H 0.4517 0.23928 0.89789 0.0
H2314 H 0.39759 0.15999 0.92683 0.0
H2315 H 0.36673 0.14369 0.89652 0.0
H2316 H 0.39653 0.24521 0.8738 0.0
H2317 H 0.41641 0.26045 0.85095 0.0
H2318 H 0.43496 0.26539 0.87453 0.0
H2319 H 0.46459 0.24524 0.8585 0.0
H2320 H 0.44607 0.24019 0.83486 0.0
H2321 H 0.44644 0.21131 0.84681 0.0
H2322 H 0.33969 0.13743 0.86435 0.0
H2323 H 0.31959 0.14086 0.83158 0.0
H2324 H 0.39232 0.22319 0.82272 0.0
C2325 C 0.43341 0.21846 0.89777 0.0
C2326 C 0.42701 0.20085 0.91467 0.0
C2327 C 0.40301 0.17368 0.91396 0.0
C2328 C 0.38534 0.16429 0.89685 0.0
C2329 C 0.39213 0.1822 0.88049 0.0
C2330 C 0.41573 0.20862 0.88071 0.0
C2331 C 0.41801 0.22384 0.86122 0.0
C2332 C 0.41637 0.25028 0.86538 0.0
C2333 C 0.44541 0.23053 0.84967 0.0
C2334 C 0.39169 0.20206 0.85019 0.0
C2335 C 0.37704 0.17821 0.86159 0.0
C2336 C 0.35118 0.15581 0.85514 0.0
C2337 C 0.33992 0.15793 0.83659 0.0
C2338 C 0.35467 0.1821 0.82467 0.0
C2339 C 0.381 0.20429 0.83145 0.0
H2340 H 0.8452 0.26676 0.90439 0.0
H2341 H 0.79603 0.17974 0.92151 0.0
H2342 H 0.80488 0.16621 0.88806 0.0
H2343 H 0.82633 0.25931 0.85196 0.0
H2344 H 0.86168 0.28427 0.84344 0.0
H2345 H 0.84999 0.28755 0.86834 0.0
H2346 H 0.89355 0.28732 0.88429 0.0
H2347 H 0.90554 0.28437 0.85944 0.0
H2348 H 0.89994 0.25913 0.87855 0.0
H2349 H 0.818 0.16164 0.85229 0.0
H2350 H 0.84026 0.16694 0.81855 0.0
H2351 H 0.88531 0.25643 0.82602 0.0
C2352 C 0.83647 0.24484 0.90135 0.0
C2353 C 0.81922 0.22443 0.91577 0.0
C2354 C 0.80834 0.19597 0.91072 0.0
C2355 C 0.81344 0.18797 0.89172 0.0
C2356 C 0.83006 0.20857 0.87788 0.0
C2357 C 0.84193 0.23643 0.88259 0.0
C2358 C 0.86056 0.25442 0.86541 0.0
C2359 C 0.84893 0.27245 0.85678 0.0
C2360 C 0.89175 0.27236 0.87234 0.0
C2361 C 0.85725 0.23228 0.85035 0.0
C2362 C 0.83913 0.20596 0.85771 0.0
C2363 C 0.83235 0.18214 0.84641 0.0
C2364 C 0.8449 0.1853 0.82726 0.0
C2365 C 0.86433 0.21201 0.8198 0.0
C2366 C 0.87042 0.23578 0.83144 0.0
H2367 H 0.25765 0.08312 0.47036 0.0
H2368 H 0.27684 0.16624 0.45345 0.0
H2369 H 0.30167 0.18431 0.48581 0.0
H2370 H 0.2492 0.08829 0.52399 0.0
H2371 H 0.26727 0.06962 0.53063 0.0
H2372 H 0.24841 0.06245 0.50695 0.0
H2373 H 0.29435 0.07269 0.48761 0.0
H2374 H 0.31331 0.07975 0.51122 0.0
H2375 H 0.32662 0.10549 0.49151 0.0
H2376 H 0.32499 0.19374 0.52016 0.0
H2377 H 0.34887 0.19421 0.55225 0.0
H2378 H 0.31934 0.10642 0.54489 0.0
C2379 C 0.26717 0.10518 0.47323 0.0
C2380 C 0.26464 0.123 0.45917 0.0
C2381 C 0.2774 0.15173 0.46401 0.0
C2382 C 0.29187 0.16235 0.48237 0.0
C2383 C 0.29396 0.14419 0.49573 0.0
C2384 C 0.2823 0.11629 0.49127 0.0
C2385 C 0.28925 0.10154 0.50759 0.0
C2386 C 0.2619 0.07915 0.5179 0.0
C2387 C 0.30694 0.08915 0.49896 0.0
C2388 C 0.3068 0.12557 0.52186 0.0
C2389 C 0.30884 0.14992 0.51492 0.0
C2390 C 0.32364 0.17483 0.52569 0.0
C2391 C 0.33703 0.17492 0.54388 0.0
C2392 C 0.33594 0.15041 0.55086 0.0
C2393 C 0.32053 0.12544 0.53975 0.0
H2394 H 0.90589 0.18065 0.44868 0.0
H2395 H 0.89869 0.10045 0.45947 0.0
H2396 H 0.88229 0.10083 0.49436 0.0
H2397 H 0.93224 0.20962 0.49819 0.0
H2398 H 0.91263 0.22795 0.4993 0.0
H2399 H 0.92371 0.22124 0.47522 0.0
H2400 H 0.87135 0.1967 0.4626 0.0
H2401 H 0.86011 0.20337 0.48663 0.0
H2402 H 0.84406 0.16833 0.47698 0.0
H2403 H 0.86726 0.1105 0.52849 0.0
H2404 H 0.85242 0.12745 0.55824 0.0
H2405 H 0.86993 0.20143 0.52503 0.0
C2406 C 0.90105 0.16323 0.4584 0.0
C2407 C 0.90363 0.14051 0.45129 0.0
C2408 C 0.8966 0.11794 0.46446 0.0
C2409 C 0.88746 0.11807 0.48437 0.0
C2410 C 0.88536 0.14088 0.49091 0.0
C2411 C 0.89183 0.16298 0.47827 0.0
C2412 C 0.88743 0.18481 0.48886 0.0
C2413 C 0.91569 0.21255 0.49049 0.0
C2414 C 0.86436 0.1885 0.47813 0.0
C2415 C 0.87737 0.17153 0.50942 0.0
C2416 C 0.87649 0.14629 0.51038 0.0
C2417 C 0.86789 0.13025 0.5279 0.0
C2418 C 0.85966 0.14013 0.54477 0.0
C2419 C 0.85992 0.16574 0.544 0.0
C2420 C 0.86915 0.18163 0.52606 0.0
H2421 H 0.91321 0.78205 0.4763 0.0
H2422 H 0.83212 0.73635 0.44481 0.0
H2423 H 0.81072 0.70752 0.4749 0.0
H2424 H 0.90734 0.72161 0.50248 0.0
H2425 H 0.92395 0.74058 0.52537 0.0
H2426 H 0.93321 0.75818 0.50139 0.0
H2427 H 0.91991 0.79384 0.51539 0.0
H2428 H 0.91023 0.77611 0.53933 0.0
H2429 H 0.88476 0.78172 0.52569 0.0
H2430 H 0.7972 0.68436 0.50802 0.0
H2431 H 0.79349 0.6641 0.54167 0.0
H2432 H 0.88316 0.72243 0.55261 0.0
C2433 C 0.89105 0.76578 0.47568 0.0
C2434 C 0.87425 0.7619 0.45819 0.0
C2435 C 0.84531 0.74031 0.4581 0.0
C2436 C 0.83292 0.72371 0.47513 0.0
C2437 C 0.84972 0.72858 0.49224 0.0
C2438 C 0.87824 0.74873 0.49266 0.0
C2439 C 0.8914 0.74883 0.51304 0.0
C2440 C 0.9154 0.74188 0.51041 0.0
C2441 C 0.90221 0.7768 0.52401 0.0
C2442 C 0.86576 0.72559 0.52389 0.0
C2443 C 0.84196 0.71449 0.51154 0.0
C2444 C 0.8157 0.69276 0.51781 0.0
C2445 C 0.8138 0.68141 0.53697 0.0
C2446 C 0.838 0.69158 0.54975 0.0
C2447 C 0.86424 0.71441 0.54326 0.0
loop_
_geom_bond_atom_site_label_1
_geom_bond_atom_site_label_2
_geom_bond_distance
_geom_bond_site_symmetry_2
_ccdc_geom_bond_type
H0 C7 0.929 . S
H1 C10 0.930 . S
H2 C12 0.929 . S
H3 C4 0.969 . S
C4 H3 0.969 . S
C4 O5 1.550 . S
C4 H6 0.973 . S
O5 C4 1.550 . S
O5 C11 1.412 . S
H6 C4 0.973 . S
C7 H0 0.929 . S
C7 C8 1.400 . S
C7 C9 1.364 . S
C8 C7 1.400 . S
C8 C12 1.377 . S
C9 C7 1.364 . S
C9 C10 1.374 . S
C10 H1 0.930 . S
C10 C9 1.374 . S
C10 C11 1.383 . S
C11 O5 1.412 . S
C11 C10 1.383 . S
C11 C12 1.394 . S
C12 H2 0.929 . S
C12 C8 1.377 . S
C12 C11 1.394 . S
H13 C20 0.929 . S
H14 C23 0.930 . S
H15 C25 0.929 . S
H16 C17 0.969 . S
C17 H16 0.969 . S
C17 O18 1.550 . S
C17 H19 0.973 . S
O18 C17 1.550 . S
O18 C24 1.412 . S
H19 C17 0.973 . S
C20 H13 0.929 . S
C20 C21 1.400 . S
C20 C22 1.364 . S
C21 C20 1.400 . S
C21 C25 1.377 . S
C22 C20 1.364 . S
C22 C23 1.374 . S
C23 H14 0.930 . S
C23 C22 1.374 . S
C23 C24 1.383 . S
C24 O18 1.412 . S
C24 C23 1.383 . S
C24 C25 1.394 . S
C25 H15 0.929 . S
C25 C21 1.377 . S
C25 C24 1.394 . S
H26 C33 0.929 . S
H27 C36 0.930 . S
H28 C38 0.929 . S
H29 C30 0.969 . S
C30 H29 0.969 . S
C30 O31 1.550 . S
C30 H32 0.973 . S
O31 C30 1.550 . S
O31 C37 1.412 . S
H32 C30 0.973 . S
C33 H26 0.929 . S
C33 C34 1.400 . S
C33 C35 1.364 . S
C34 C33 1.400 . S
C34 C38 1.377 . S
C35 C33 1.364 . S
C35 C36 1.374 . S
C36 H27 0.930 . S
C36 C35 1.374 . S
C36 C37 1.383 . S
C37 O31 1.412 . S
C37 C36 1.383 . S
C37 C38 1.394 . S
C38 H28 0.929 . S
C38 C34 1.377 . S
C38 C37 1.394 . S
H39 C46 0.929 . S
H40 C49 0.930 . S
H41 C51 0.929 . S
H42 C43 0.969 . S
C43 H42 0.969 . S
C43 O44 1.550 . S
C43 H45 0.973 . S
O44 C43 1.550 . S
O44 C50 1.412 . S
H45 C43 0.973 . S
C46 H39 0.929 . S
C46 C47 1.400 . S
C46 C48 1.364 . S
C47 C46 1.400 . S
C47 C51 1.377 . S
C48 C46 1.364 . S
C48 C49 1.374 . S
C49 H40 0.930 . S
C49 C48 1.374 . S
C49 C50 1.383 . S
C50 O44 1.412 . S
C50 C49 1.383 . S
C50 C51 1.394 . S
C51 H41 0.929 . S
C51 C47 1.377 . S
C51 C50 1.394 . S
H52 C59 0.929 . S
H53 C62 0.930 . S
H54 C64 0.929 . S
H55 C56 0.969 . S
C56 H55 0.969 . S
C56 O57 1.550 . S
C56 H58 0.973 . S
O57 C56 1.550 . S
O57 C63 1.412 . S
H58 C56 0.973 . S
C59 H52 0.929 . S
C59 C60 1.400 . S
C59 C61 1.364 . S
C60 C59 1.400 . S
C60 C64 1.377 . S
C61 C59 1.364 . S
C61 C62 1.374 . S
C62 H53 0.930 . S
C62 C61 1.374 . S
C62 C63 1.383 . S
C63 O57 1.412 . S
C63 C62 1.383 . S
C63 C64 1.394 . S
C64 H54 0.929 . S
C64 C60 1.377 . S
C64 C63 1.394 . S
H65 C72 0.929 . S
H66 C75 0.930 . S
H67 C77 0.929 . S
H68 C69 0.969 . S
C69 H68 0.969 . S
C69 O70 1.550 . S
C69 H71 0.973 . S
O70 C69 1.550 . S
O70 C76 1.412 . S
H71 C69 0.973 . S
C72 H65 0.929 . S
C72 C73 1.400 . S
C72 C74 1.364 . S
C73 C72 1.400 . S
C73 C77 1.377 . S
C74 C72 1.364 . S
C74 C75 1.374 . S
C75 H66 0.930 . S
C75 C74 1.374 . S
C75 C76 1.383 . S
C76 O70 1.412 . S
C76 C75 1.383 . S
C76 C77 1.394 . S
C77 H67 0.929 . S
C77 C73 1.377 . S
C77 C76 1.394 . S
H78 C85 0.929 . S
H79 C88 0.930 . S
H80 C90 0.929 . S
H81 C82 0.969 . S
C82 H81 0.969 . S
C82 O83 1.550 . S
C82 H84 0.973 . S
O83 C82 1.550 . S
O83 C89 1.412 . S
H84 C82 0.973 . S
C85 H78 0.929 . S
C85 C86 1.400 . S
C85 C87 1.364 . S
C86 C85 1.400 . S
C86 C90 1.377 . S
C87 C85 1.364 . S
C87 C88 1.374 . S
C88 H79 0.930 . S
C88 C87 1.374 . S
C88 C89 1.383 . S
C89 O83 1.412 . S
C89 C88 1.383 . S
C89 C90 1.394 . S
C90 H80 0.929 . S
C90 C86 1.377 . S
C90 C89 1.394 . S
H91 C98 0.929 . S
H92 C101 0.930 . S
H93 C103 0.929 . S
H94 C95 0.969 . S
C95 H94 0.969 . S
C95 O96 1.550 . S
C95 H97 0.973 . S
O96 C95 1.550 . S
O96 C102 1.412 . S
H97 C95 0.973 . S
C98 H91 0.929 . S
C98 C99 1.400 . S
C98 C100 1.364 . S
C99 C98 1.400 . S
C99 C103 1.377 . S
C100 C98 1.364 . S
C100 C101 1.374 . S
C101 H92 0.930 . S
C101 C100 1.374 . S
C101 C102 1.383 . S
C102 O96 1.412 . S
C102 C101 1.383 . S
C102 C103 1.394 . S
C103 H93 0.929 . S
C103 C99 1.377 . S
C103 C102 1.394 . S
H104 C111 0.929 . S
H105 C114 0.930 . S
H106 C116 0.929 . S
H107 C108 0.969 . S
C108 H107 0.969 . S
C108 O109 1.550 . S
C108 H110 0.973 . S
O109 C108 1.550 . S
O109 C115 1.412 . S
H110 C108 0.973 . S
C111 H104 0.929 . S
C111 C112 1.400 . S
C111 C113 1.364 . S
C112 C111 1.400 . S
C112 C116 1.377 . S
C113 C111 1.364 . S
C113 C114 1.374 . S
C114 H105 0.930 . S
C114 C113 1.374 . S
C114 C115 1.383 . S
C115 O109 1.412 . S
C115 C114 1.383 . S
C115 C116 1.394 . S
C116 H106 0.929 . S
C116 C112 1.377 . S
C116 C115 1.394 . S
H117 C124 0.929 . S
H118 C127 0.930 . S
H119 C129 0.929 . S
H120 C121 0.969 . S
C121 H120 0.969 . S
C121 O122 1.550 . S
C121 H123 0.973 . S
O122 C121 1.550 . S
O122 C128 1.412 . S
H123 C121 0.973 . S
C124 H117 0.929 . S
C124 C125 1.400 . S
C124 C126 1.364 . S
C125 C124 1.400 . S
C125 C129 1.377 . S
C126 C124 1.364 . S
C126 C127 1.374 . S
C127 H118 0.930 . S
C127 C126 1.374 . S
C127 C128 1.383 . S
C128 O122 1.412 . S
C128 C127 1.383 . S
C128 C129 1.394 . S
C129 H119 0.929 . S
C129 C125 1.377 . S
C129 C128 1.394 . S
H130 C137 0.929 . S
H131 C140 0.930 . S
H132 C142 0.929 . S
H133 C134 0.969 . S
C134 H133 0.969 . S
C134 O135 1.550 . S
C134 H136 0.973 . S
O135 C134 1.550 . S
O135 C141 1.412 . S
H136 C134 0.973 . S
C137 H130 0.929 . S
C137 C138 1.400 . S
C137 C139 1.364 . S
C138 C137 1.400 . S
C138 C142 1.377 . S
C139 C137 1.364 . S
C139 C140 1.374 . S
C140 H131 0.930 . S
C140 C139 1.374 . S
C140 C141 1.383 . S
C141 O135 1.412 . S
C141 C140 1.383 . S
C141 C142 1.394 . S
C142 H132 0.929 . S
C142 C138 1.377 . S
C142 C141 1.394 . S
H143 C150 0.929 . S
H144 C153 0.930 . S
H145 C155 0.929 . S
H146 C147 0.969 . S
C147 H146 0.969 . S
C147 O148 1.550 . S
C147 H149 0.973 . S
O148 C147 1.550 . S
O148 C154 1.412 . S
H149 C147 0.973 . S
C150 H143 0.929 . S
C150 C151 1.400 . S
C150 C152 1.364 . S
C151 C150 1.400 . S
C151 C155 1.377 . S
C152 C150 1.364 . S
C152 C153 1.374 . S
C153 H144 0.930 . S
C153 C152 1.374 . S
C153 C154 1.383 . S
C154 O148 1.412 . S
C154 C153 1.383 . S
C154 C155 1.394 . S
C155 H145 0.929 . S
C155 C151 1.377 . S
C155 C154 1.394 . S
H156 C163 0.929 . S
H157 C166 0.930 . S
H158 C168 0.929 . S
H159 C160 0.969 . S
C160 H159 0.969 . S
C160 O161 1.550 . S
C160 H162 0.973 . S
O161 C160 1.550 . S
O161 C167 1.412 . S
H162 C160 0.973 . S
C163 H156 0.929 . S
C163 C164 1.400 . S
C163 C165 1.364 . S
C164 C163 1.400 . S
C164 C168 1.377 . S
C165 C163 1.364 . S
C165 C166 1.374 . S
C166 H157 0.930 . S
C166 C165 1.374 . S
C166 C167 1.383 . S
C167 O161 1.412 . S
C167 C166 1.383 . S
C167 C168 1.394 . S
C168 H158 0.929 . S
C168 C164 1.377 . S
C168 C167 1.394 . S
H169 C176 0.929 . S
H170 C179 0.930 . S
H171 C181 0.929 . S
H172 C173 0.969 . S
C173 H172 0.969 . S
C173 O174 1.550 . S
C173 H175 0.973 . S
O174 C173 1.550 . S
O174 C180 1.412 . S
H175 C173 0.973 . S
C176 H169 0.929 . S
C176 C177 1.400 . S
C176 C178 1.364 . S
C177 C176 1.400 . S
C177 C181 1.377 . S
C178 C176 1.364 . S
C178 C179 1.374 . S
C179 H170 0.930 . S
C179 C178 1.374 . S
C179 C180 1.383 . S
C180 O174 1.412 . S
C180 C179 1.383 . S
C180 C181 1.394 . S
C181 H171 0.929 . S
C181 C177 1.377 . S
C181 C180 1.394 . S
H182 C189 0.929 . S
H183 C192 0.930 . S
H184 C194 0.929 . S
H185 C186 0.969 . S
C186 H185 0.969 . S
C186 O187 1.550 . S
C186 H188 0.973 . S
O187 C186 1.550 . S
O187 C193 1.412 . S
H188 C186 0.973 . S
C189 H182 0.929 . S
C189 C190 1.400 . S
C189 C191 1.364 . S
C190 C189 1.400 . S
C190 C194 1.377 . S
C191 C189 1.364 . S
C191 C192 1.374 . S
C192 H183 0.930 . S
C192 C191 1.374 . S
C192 C193 1.383 . S
C193 O187 1.412 . S
C193 C192 1.383 . S
C193 C194 1.394 . S
C194 H184 0.929 . S
C194 C190 1.377 . S
C194 C193 1.394 . S
H195 C202 0.929 . S
H196 C205 0.930 . S
H197 C207 0.929 . S
H198 C199 0.969 . S
C199 H198 0.969 . S
C199 O200 1.550 . S
C199 H201 0.973 . S
O200 C199 1.550 . S
O200 C206 1.412 . S
H201 C199 0.973 . S
C202 H195 0.929 . S
C202 C203 1.400 . S
C202 C204 1.364 . S
C203 C202 1.400 . S
C203 C207 1.377 . S
C204 C202 1.364 . S
C204 C205 1.374 . S
C205 H196 0.930 . S
C205 C204 1.374 . S
C205 C206 1.383 . S
C206 O200 1.412 . S
C206 C205 1.383 . S
C206 C207 1.394 . S
C207 H197 0.929 . S
C207 C203 1.377 . S
C207 C206 1.394 . S
H208 C215 0.929 . S
H209 C218 0.930 . S
H210 C220 0.929 . S
H211 C212 0.969 . S
C212 H211 0.969 . S
C212 O213 1.550 . S
C212 H214 0.973 . S
O213 C212 1.550 . S
O213 C219 1.412 . S
H214 C212 0.973 . S
C215 H208 0.929 . S
C215 C216 1.400 . S
C215 C217 1.364 . S
C216 C215 1.400 . S
C216 C220 1.377 . S
C217 C215 1.364 . S
C217 C218 1.374 . S
C218 H209 0.930 . S
C218 C217 1.374 . S
C218 C219 1.383 . S
C219 O213 1.412 . S
C219 C218 1.383 . S
C219 C220 1.394 . S
C220 H210 0.929 . S
C220 C216 1.377 . S
C220 C219 1.394 . S
H221 C228 0.929 . S
H222 C231 0.930 . S
H223 C233 0.929 . S
H224 C225 0.969 . S
C225 H224 0.969 . S
C225 O226 1.550 . S
C225 H227 0.973 . S
O226 C225 1.550 . S
O226 C232 1.412 . S
H227 C225 0.973 . S
C228 H221 0.929 . S
C228 C229 1.400 . S
C228 C230 1.364 . S
C229 C228 1.400 . S
C229 C233 1.377 . S
C230 C228 1.364 . S
C230 C231 1.374 . S
C231 H222 0.930 . S
C231 C230 1.374 . S
C231 C232 1.383 . S
C232 O226 1.412 . S
C232 C231 1.383 . S
C232 C233 1.394 . S
C233 H223 0.929 . S
C233 C229 1.377 . S
C233 C232 1.394 . S
Eu234 N265 2.657 . S
Eu234 N272 2.609 . S
Eu234 O278 2.558 . S
Eu234 O279 2.612 1_566 S
Eu234 O281 2.339 1_565 S
Eu234 O282 2.563 1_565 S
Eu234 O283 2.419 1_565 S
Eu234 O285 2.380 1_556 S
Eu234 O286 2.432 . S
Eu234 C298 2.845 1_565 S
C235 C238 1.429 . S
C235 C239 1.411 . S
C235 N242 1.377 . S
C236 C238 1.420 . S
C236 C240 1.423 . S
C236 C248 1.392 . S
C237 C239 1.420 . S
C237 C240 1.351 . S
C237 H260 0.931 . S
C238 C235 1.429 . S
C238 C236 1.420 . S
C238 N246 1.362 . S
C239 C235 1.411 . S
C239 C237 1.420 . S
C239 C244 1.395 . S
C240 C236 1.423 . S
C240 C237 1.351 . S
C240 H252 0.930 . S
C241 C243 1.400 . S
C241 C244 1.386 . S
C241 H253 0.930 . S
N242 C235 1.377 . S
N242 C243 1.321 . S
N242 Eu245 2.609 . S
C243 C241 1.400 . S
C243 N242 1.321 . S
C243 H250 0.930 . S
C244 C239 1.395 . S
C244 C241 1.386 . S
C244 H263 0.930 . S
Eu245 N242 2.609 . S
Eu245 N246 2.657 . S
Eu245 O279 2.380 . S
Eu245 O280 2.432 . S
Eu245 O284 2.558 . S
Eu245 O285 2.612 1_545 S
Eu245 O287 2.339 1_545 S
Eu245 O288 2.563 1_545 S
Eu245 O289 2.419 1_545 S
Eu245 C309 2.848 . S
N246 C238 1.362 . S
N246 Eu245 2.657 . S
N246 C247 1.334 . S
C247 N246 1.334 . S
C247 C249 1.413 . S
C247 H254 0.929 . S
C248 C236 1.392 . S
C248 C249 1.367 . S
C248 H256 0.930 . S
C249 C247 1.413 . S
C249 C248 1.367 . S
C249 H251 0.930 . S
H250 C243 0.930 . S
H251 C249 0.930 . S
H252 C240 0.930 . S
H253 C241 0.930 . S
H254 C247 0.929 . S
H255 C269 0.930 . S
H256 C248 0.930 . S
H257 C275 0.930 . S
H258 C266 0.961 . S
H259 C273 0.930 . S
H260 C237 0.931 . S
H261 C267 0.930 . S
H262 C300 0.930 . S
H263 C244 0.930 . S
H264 C299 0.931 . S
N265 Eu234 2.657 . S
N265 C266 1.334 . S
N265 C270 1.362 . S
C266 H258 0.961 . S
C266 N265 1.334 . S
C266 C269 1.413 . S
C267 H261 0.930 . S
C267 C268 1.392 . S
C267 C269 1.367 . S
C268 C267 1.392 . S
C268 C270 1.420 . S
C268 C300 1.423 . S
C269 H255 0.930 . S
C269 C266 1.413 . S
C269 C267 1.367 . S
C270 N265 1.362 . S
C270 C268 1.420 . S
C270 C274 1.429 . S
H271 C276 0.930 . S
N272 Eu234 2.609 . S
N272 C274 1.377 . S
N272 C275 1.321 . S
C273 H259 0.930 . S
C273 C275 1.400 . S
C273 C276 1.386 . S
C274 C270 1.429 . S
C274 N272 1.377 . S
C274 C277 1.411 . S
C275 H257 0.930 . S
C275 N272 1.321 . S
C275 C273 1.400 . S
C276 H271 0.930 . S
C276 C273 1.386 . S
C276 C277 1.395 . S
C277 C274 1.411 . S
C277 C276 1.395 . S
C277 C299 1.420 . S
O278 Eu234 2.558 . S
O278 C298 1.226 1_565 S
O279 Eu234 2.612 1_544 S
O279 Eu245 2.380 . S
O279 C290 1.276 1_554 S
O280 Eu245 2.432 . S
O280 C297 1.264 . S
O281 Eu234 2.339 1_545 S
O281 C297 1.254 1_556 S
O282 Eu234 2.563 1_545 S
O282 C290 1.235 . S
O283 Eu234 2.419 1_545 S
O283 C298 1.275 . S
O284 Eu245 2.558 . S
O284 C309 1.257 . S
O285 Eu234 2.380 1_554 S
O285 Eu245 2.612 1_565 S
O285 C301 1.276 . S
O286 Eu234 2.432 . S
O286 C308 1.265 1_556 S
O287 Eu245 2.339 1_565 S
O287 C308 1.254 . S
O288 Eu245 2.563 1_565 S
O288 C301 1.235 . S
O289 Eu245 2.419 1_565 S
O289 C309 1.249 1_565 S
C290 O279 1.276 1_556 S
C290 O282 1.235 . S
C291 C293 1.393 . S
C291 C295 1.395 1_545 S
C291 C298 1.497 . S
C292 C293 1.392 . S
C292 C294 1.386 . S
C293 C291 1.393 . S
C293 C292 1.392 . S
C293 H310 0.930 . S
C294 C292 1.386 . S
C294 C296 1.395 1_545 S
C294 H311 0.930 . S
C295 C291 1.395 1_565 S
C295 C296 1.379 . S
C295 H312 0.930 . S
C296 C294 1.395 1_565 S
C296 C295 1.379 . S
C296 H313 0.930 . S
C297 O280 1.264 . S
C297 O281 1.254 1_554 S
C298 Eu234 2.845 1_545 S
C298 O278 1.226 1_545 S
C298 O283 1.275 . S
C298 C291 1.497 . S
C299 H264 0.931 . S
C299 C277 1.420 . S
C299 C300 1.351 . S
C300 H262 0.930 . S
C300 C268 1.423 . S
C300 C299 1.351 . S
C301 O285 1.276 . S
C301 O288 1.235 . S
C302 C303 1.393 1_545 S
C302 C306 1.395 . S
C302 C309 1.492 . S
C303 C302 1.393 1_565 S
C303 C304 1.392 . S
C303 H314 0.930 . S
C304 C303 1.392 . S
C304 C305 1.386 . S
C305 C304 1.386 . S
C305 C307 1.395 1_565 S
C305 H315 0.930 . S
C306 C302 1.395 . S
C306 C307 1.379 . S
C306 H316 0.930 . S
C307 C305 1.395 1_545 S
C307 C306 1.379 . S
C307 H317 0.930 . S
C308 O286 1.265 1_554 S
C308 O287 1.254 . S
C309 Eu245 2.848 . S
C309 O284 1.257 . S
C309 O289 1.249 1_545 S
C309 C302 1.492 . S
H310 C293 0.930 . S
H311 C294 0.930 . S
H312 C295 0.930 . S
H313 C296 0.930 . S
H314 C303 0.930 . S
H315 C305 0.930 . S
H316 C306 0.930 . S
H317 C307 0.930 . S
Eu318 N349 2.657 . S
Eu318 N356 2.609 . S
Eu318 O362 2.558 . S
Eu318 O363 2.612 1_456 S
Eu318 O365 2.339 1_455 S
Eu318 O366 2.563 1_455 S
Eu318 O367 2.418 1_455 S
Eu318 O369 2.380 1_556 S
Eu318 O370 2.406 1_556 S
Eu318 C382 2.848 . S
C319 C322 1.429 . S
C319 C323 1.411 . S
C319 N326 1.377 . S
C320 C322 1.420 . S
C320 C324 1.423 . S
C320 C332 1.392 . S
C321 C323 1.420 . S
C321 C324 1.351 . S
C321 H344 0.931 . S
C322 C319 1.429 . S
C322 C320 1.420 . S
C322 N330 1.362 . S
C323 C319 1.411 . S
C323 C321 1.420 . S
C323 C328 1.395 . S
C324 C320 1.423 . S
C324 C321 1.351 . S
C324 H336 0.930 . S
C325 C327 1.400 . S
C325 C328 1.386 . S
C325 H337 0.930 . S
N326 C319 1.377 . S
N326 C327 1.321 . S
N326 Eu329 2.609 . S
C327 C325 1.400 . S
C327 N326 1.321 . S
C327 H334 0.930 . S
C328 C323 1.395 . S
C328 C325 1.386 . S
C328 H347 0.930 . S
Eu329 N326 2.609 . S
Eu329 N330 2.657 . S
Eu329 O363 2.380 . S
Eu329 O364 2.432 . S
Eu329 O368 2.558 . S
Eu329 O369 2.612 1_655 S
Eu329 O371 2.339 1_655 S
Eu329 O372 2.563 1_655 S
Eu329 O373 2.419 1_655 S
Eu329 C393 2.848 . S
N330 C322 1.362 . S
N330 Eu329 2.657 . S
N330 C331 1.334 . S
C331 N330 1.334 . S
C331 C333 1.413 . S
C331 H338 0.929 . S
C332 C320 1.392 . S
C332 C333 1.367 . S
C332 H340 0.930 . S
C333 C331 1.413 . S
C333 C332 1.367 . S
C333 H335 0.930 . S
H334 C327 0.930 . S
H335 C333 0.930 . S
H336 C324 0.930 . S
H337 C325 0.930 . S
H338 C331 0.929 . S
H339 C353 0.930 . S
H340 C332 0.930 . S
H341 C359 0.930 . S
H342 C350 0.929 . S
H343 C357 0.930 . S
H344 C321 0.931 . S
H345 C351 0.930 . S
H346 C384 0.930 . S
H347 C328 0.930 . S
H348 C383 0.931 . S
N349 Eu318 2.657 . S
N349 C350 1.334 . S
N349 C354 1.362 . S
C350 H342 0.929 . S
C350 N349 1.334 . S
C350 C353 1.413 . S
C351 H345 0.930 . S
C351 C352 1.392 . S
C351 C353 1.367 . S
C352 C351 1.392 . S
C352 C354 1.420 . S
C352 C384 1.423 . S
C353 H339 0.930 . S
C353 C350 1.413 . S
C353 C351 1.367 . S
C354 N349 1.362 . S
C354 C352 1.420 . S
C354 C358 1.429 . S
H355 C360 0.930 . S
N356 Eu318 2.609 . S
N356 C358 1.377 . S
N356 C359 1.321 . S
C357 H343 0.930 . S
C357 C359 1.400 . S
C357 C360 1.386 . S
C358 C354 1.429 . S
C358 N356 1.377 . S
C358 C361 1.411 . S
C359 H341 0.930 . S
C359 N356 1.321 . S
C359 C357 1.400 . S
C360 H355 0.930 . S
C360 C357 1.386 . S
C360 C361 1.395 . S
C361 C358 1.411 . S
C361 C360 1.395 . S
C361 C383 1.420 . S
O362 Eu318 2.558 . S
O362 C382 1.257 . S
O363 Eu318 2.612 1_654 S
O363 Eu329 2.380 . S
O363 C374 1.276 1_554 S
O364 Eu329 2.432 . S
O364 C381 1.264 . S
O365 Eu318 2.339 1_655 S
O365 C381 1.254 1_556 S
O366 Eu318 2.563 1_655 S
O366 C374 1.235 . S
O367 Eu318 2.418 1_655 S
O367 C382 1.249 1_655 S
O368 Eu329 2.558 . S
O368 C393 1.257 . S
O369 Eu318 2.380 1_554 S
O369 Eu329 2.612 1_455 S
O369 C385 1.276 . S
O370 Eu318 2.406 1_554 S
O370 C392 1.318 . S
O371 Eu329 2.339 1_455 S
O371 C392 1.254 . S
O372 Eu329 2.563 1_455 S
O372 C385 1.235 . S
O373 Eu329 2.419 1_455 S
O373 C393 1.249 1_455 S
C374 O363 1.276 1_556 S
C374 O366 1.235 . S
C375 C377 1.393 1_455 S
C375 C379 1.395 . S
C375 C382 1.492 . S
C376 C377 1.392 . S
C376 C378 1.386 . S
C377 C375 1.393 1_655 S
C377 C376 1.392 . S
C377 H394 0.930 . S
C378 C376 1.386 . S
C378 C380 1.395 1_655 S
C378 H395 0.930 . S
C379 C375 1.395 . S
C379 C380 1.379 . S
C379 H396 0.930 . S
C380 C378 1.395 1_455 S
C380 C379 1.379 . S
C380 H397 0.930 . S
C381 O364 1.264 . S
C381 O365 1.254 1_554 S
C382 Eu318 2.848 . S
C382 O362 1.257 . S
C382 O367 1.249 1_455 S
C382 C375 1.492 . S
C383 H348 0.931 . S
C383 C361 1.420 . S
C383 C384 1.351 . S
C384 H346 0.930 . S
C384 C352 1.423 . S
C384 C383 1.351 . S
C385 O369 1.276 . S
C385 O372 1.235 . S
C386 C387 1.393 . S
C386 C390 1.395 1_455 S
C386 C393 1.492 1_455 S
C387 C386 1.393 . S
C387 C388 1.392 . S
C387 H398 0.930 . S
C388 C387 1.392 . S
C388 C389 1.386 . S
C389 C388 1.386 . S
C389 C391 1.395 1_455 S
C389 H399 0.930 . S
C390 C386 1.395 1_655 S
C390 C391 1.379 . S
C390 H400 0.930 . S
C391 C389 1.395 1_655 S
C391 C390 1.379 . S
C391 H401 0.930 . S
C392 O370 1.318 . S
C392 O371 1.254 . S
C393 Eu329 2.848 . S
C393 O368 1.257 . S
C393 O373 1.249 1_655 S
C393 C386 1.492 1_655 S
H394 C377 0.930 . S
H395 C378 0.930 . S
H396 C379 0.930 . S
H397 C380 0.930 . S
H398 C387 0.930 . S
H399 C389 0.930 . S
H400 C390 0.930 . S
H401 C391 0.930 . S
Eu402 N433 2.657 . S
Eu402 N440 2.609 . S
Eu402 O446 2.558 . S
Eu402 O447 2.612 . S
Eu402 O449 2.339 . S
Eu402 O450 2.563 . S
Eu402 O451 2.419 . S
Eu402 O453 2.380 . S
Eu402 O454 2.432 . S
Eu402 C466 2.848 . S
C403 C406 1.429 . S
C403 C407 1.411 . S
C403 N410 1.377 . S
C404 C406 1.420 . S
C404 C408 1.423 . S
C404 C416 1.392 . S
C405 C407 1.420 . S
C405 C408 1.351 . S
C405 H428 0.931 . S
C406 C403 1.429 . S
C406 C404 1.420 . S
C406 N414 1.362 . S
C407 C403 1.411 . S
C407 C405 1.420 . S
C407 C412 1.395 . S
C408 C404 1.423 . S
C408 C405 1.351 . S
C408 H420 0.930 . S
C409 C411 1.400 . S
C409 C412 1.386 . S
C409 H421 0.930 . S
N410 C403 1.377 . S
N410 C411 1.321 . S
N410 Eu413 2.609 . S
C411 C409 1.400 . S
C411 N410 1.321 . S
C411 H418 0.930 . S
C412 C407 1.395 . S
C412 C409 1.386 . S
C412 H431 0.930 . S
Eu413 N410 2.609 . S
Eu413 N414 2.657 . S
Eu413 O447 2.380 1_556 S
Eu413 O448 2.432 1_556 S
Eu413 O452 2.558 . S
Eu413 O453 2.612 1_556 S
Eu413 O455 2.339 . S
Eu413 O456 2.563 . S
Eu413 O457 2.419 . S
Eu413 C477 2.848 . S
N414 C406 1.362 . S
N414 Eu413 2.657 . S
N414 C415 1.334 . S
C415 N414 1.334 . S
C415 C417 1.413 . S
C415 H422 0.929 . S
C416 C404 1.392 . S
C416 C417 1.367 . S
C416 H424 0.930 . S
C417 C415 1.413 . S
C417 C416 1.367 . S
C417 H419 0.930 . S
H418 C411 0.930 . S
H419 C417 0.930 . S
H420 C408 0.930 . S
H421 C409 0.930 . S
H422 C415 0.929 . S
H423 C437 0.930 . S
H424 C416 0.930 . S
H425 C443 0.930 . S
H426 C434 0.929 . S
H427 C441 0.930 . S
H428 C405 0.931 . S
H429 C435 0.930 . S
H430 C468 0.930 . S
H431 C412 0.930 . S
H432 C467 0.931 . S
N433 Eu402 2.657 . S
N433 C434 1.334 . S
N433 C438 1.362 . S
C434 H426 0.929 . S
C434 N433 1.334 . S
C434 C437 1.413 . S
C435 H429 0.930 . S
C435 C436 1.392 . S
C435 C437 1.367 . S
C436 C435 1.392 . S
C436 C438 1.420 . S
C436 C468 1.423 . S
C437 H423 0.930 . S
C437 C434 1.413 . S
C437 C435 1.367 . S
C438 N433 1.362 . S
C438 C436 1.420 . S
C438 C442 1.429 . S
H439 C444 0.930 . S
N440 Eu402 2.609 . S
N440 C442 1.377 . S
N440 C443 1.321 . S
C441 H427 0.930 . S
C441 C443 1.400 . S
C441 C444 1.386 . S
C442 C438 1.429 . S
C442 N440 1.377 . S
C442 C445 1.411 . S
C443 H425 0.930 . S
C443 N440 1.321 . S
C443 C441 1.400 . S
C444 H439 0.930 . S
C444 C441 1.386 . S
C444 C445 1.395 . S
C445 C442 1.411 . S
C445 C444 1.395 . S
C445 C467 1.420 . S
O446 Eu402 2.558 . S
O446 C466 1.257 . S
O447 Eu402 2.612 . S
O447 Eu413 2.380 1_554 S
O447 C458 1.276 . S
O448 Eu413 2.432 1_554 S
O448 C465 1.264 . S
O449 Eu402 2.339 . S
O449 C465 1.254 . S
O450 Eu402 2.563 . S
O450 C458 1.235 . S
O451 Eu402 2.419 . S
O451 C466 1.249 . S
O452 Eu413 2.558 . S
O452 C477 1.257 . S
O453 Eu402 2.380 . S
O453 Eu413 2.612 1_554 S
O453 C469 1.276 1_554 S
O454 Eu402 2.432 . S
O454 C476 1.264 . S
O455 Eu413 2.339 . S
O455 C476 1.254 1_556 S
O456 Eu413 2.563 . S
O456 C469 1.235 . S
O457 Eu413 2.419 . S
O457 C477 1.249 . S
C458 O447 1.276 . S
C458 O450 1.235 . S
C459 C461 1.393 . S
C459 C463 1.395 . S
C459 C466 1.492 . S
C460 C461 1.392 . S
C460 C462 1.386 . S
C461 C459 1.393 . S
C461 C460 1.392 . S
C461 H478 0.930 . S
C462 C460 1.386 . S
C462 C464 1.395 . S
C462 H479 0.930 . S
C463 C459 1.395 . S
C463 C464 1.379 . S
C463 H480 0.930 . S
C464 C462 1.395 . S
C464 C463 1.379 . S
C464 H481 0.930 . S
C465 O448 1.264 . S
C465 O449 1.254 . S
C466 Eu402 2.848 . S
C466 O446 1.257 . S
C466 O451 1.249 . S
C466 C459 1.492 . S
C467 H432 0.931 . S
C467 C445 1.420 . S
C467 C468 1.351 . S
C468 H430 0.930 . S
C468 C436 1.423 . S
C468 C467 1.351 . S
C469 O453 1.276 1_556 S
C469 O456 1.235 . S
C470 C471 1.393 . S
C470 C474 1.395 . S
C470 C477 1.492 . S
C471 C470 1.393 . S
C471 C472 1.392 . S
C471 H482 0.930 . S
C472 C471 1.392 . S
C472 C473 1.386 . S
C473 C472 1.386 . S
C473 C475 1.395 . S
C473 H483 0.930 . S
C474 C470 1.395 . S
C474 C475 1.379 . S
C474 H484 0.930 . S
C475 C473 1.395 . S
C475 C474 1.379 . S
C475 H485 0.930 . S
C476 O454 1.264 . S
C476 O455 1.254 1_554 S
C477 Eu413 2.848 . S
C477 O452 1.257 . S
C477 O457 1.249 . S
C477 C470 1.492 . S
H478 C461 0.930 . S
H479 C462 0.930 . S
H480 C463 0.930 . S
H481 C464 0.930 . S
H482 C471 0.930 . S
H483 C473 0.930 . S
H484 C474 0.930 . S
H485 C475 0.930 . S
Eu486 N517 2.657 . S
Eu486 N524 2.609 . S
Eu486 O530 2.558 . S
Eu486 O531 2.612 . S
Eu486 O533 2.339 . S
Eu486 O534 2.563 . S
Eu486 O535 2.419 . S
Eu486 O537 2.380 . S
Eu486 O538 2.432 . S
Eu486 C550 2.848 . S
C487 C490 1.429 . S
C487 C491 1.411 . S
C487 N494 1.377 . S
C488 C490 1.420 . S
C488 C492 1.423 . S
C488 C500 1.392 . S
C489 C491 1.420 . S
C489 C492 1.351 . S
C489 H512 0.931 . S
C490 C487 1.429 . S
C490 C488 1.420 . S
C490 N498 1.362 . S
C491 C487 1.411 . S
C491 C489 1.420 . S
C491 C496 1.395 . S
C492 C488 1.423 . S
C492 C489 1.351 . S
C492 H504 0.930 . S
C493 C495 1.400 . S
C493 C496 1.386 . S
C493 H505 0.930 . S
N494 C487 1.377 . S
N494 C495 1.321 . S
N494 Eu497 2.609 . S
C495 C493 1.400 . S
C495 N494 1.321 . S
C495 H502 0.930 . S
C496 C491 1.395 . S
C496 C493 1.386 . S
C496 H515 0.930 . S
Eu497 N494 2.609 . S
Eu497 N498 2.657 . S
Eu497 O531 2.380 . S
Eu497 O532 2.432 . S
Eu497 O536 2.558 . S
Eu497 O537 2.612 . S
Eu497 O539 2.339 . S
Eu497 O540 2.563 . S
Eu497 O541 2.419 . S
Eu497 C561 2.848 . S
N498 C490 1.362 . S
N498 Eu497 2.657 . S
N498 C499 1.334 . S
C499 N498 1.334 . S
C499 C501 1.413 . S
C499 H506 0.929 . S
C500 C488 1.392 . S
C500 C501 1.367 . S
C500 H508 0.930 . S
C501 C499 1.413 . S
C501 C500 1.367 . S
C501 H503 0.930 . S
H502 C495 0.930 . S
H503 C501 0.930 . S
H504 C492 0.930 . S
H505 C493 0.930 . S
H506 C499 0.929 . S
H507 C521 0.930 . S
H508 C500 0.930 . S
H509 C527 0.930 . S
H510 C518 0.929 . S
H511 C525 0.930 . S
H512 C489 0.931 . S
H513 C519 0.944 . S
H514 C552 0.930 . S
H515 C496 0.930 . S
H516 C551 0.931 . S
N517 Eu486 2.657 . S
N517 C518 1.334 . S
N517 C522 1.362 . S
C518 H510 0.929 . S
C518 N517 1.334 . S
C518 C521 1.413 . S
C519 H513 0.944 . S
C519 C520 1.392 . S
C519 C521 1.367 . S
C520 C519 1.392 . S
C520 C522 1.420 . S
C520 C552 1.423 . S
C521 H507 0.930 . S
C521 C518 1.413 . S
C521 C519 1.367 . S
C522 N517 1.362 . S
C522 C520 1.420 . S
C522 C526 1.429 . S
H523 C528 0.930 . S
N524 Eu486 2.609 . S
N524 C526 1.377 . S
N524 C527 1.321 . S
C525 H511 0.930 . S
C525 C527 1.400 . S
C525 C528 1.386 . S
C526 C522 1.429 . S
C526 N524 1.377 . S
C526 C529 1.411 . S
C527 H509 0.930 . S
C527 N524 1.321 . S
C527 C525 1.400 . S
C528 H523 0.930 . S
C528 C525 1.386 . S
C528 C529 1.395 . S
C529 C526 1.411 . S
C529 C528 1.395 . S
C529 C551 1.420 . S
O530 Eu486 2.558 . S
O530 C550 1.257 . S
O531 Eu486 2.612 . S
O531 Eu497 2.380 . S
O531 C542 1.276 . S
O532 Eu497 2.432 . S
O532 C549 1.264 . S
O533 Eu486 2.339 . S
O533 C549 1.254 . S
O534 Eu486 2.563 . S
O534 C542 1.235 . S
O535 Eu486 2.419 . S
O535 C550 1.249 . S
O536 Eu497 2.558 . S
O536 C561 1.257 . S
O537 Eu486 2.380 . S
O537 Eu497 2.612 . S
O537 C553 1.276 . S
O538 Eu486 2.432 . S
O538 C560 1.264 . S
O539 Eu497 2.339 . S
O539 C560 1.254 . S
O540 Eu497 2.563 . S
O540 C553 1.235 . S
O541 Eu497 2.419 . S
O541 C561 1.249 . S
C542 O531 1.276 . S
C542 O534 1.235 . S
C543 C545 1.393 . S
C543 C547 1.395 . S
C543 C550 1.492 . S
C544 C545 1.392 . S
C544 C546 1.386 . S
C545 C543 1.393 . S
C545 C544 1.392 . S
C545 H562 0.930 . S
C546 C544 1.386 . S
C546 C548 1.395 . S
C546 H563 0.930 . S
C547 C543 1.395 . S
C547 C548 1.379 . S
C547 H564 0.930 . S
C548 C546 1.395 . S
C548 C547 1.379 . S
C548 H565 0.930 . S
C549 O532 1.264 . S
C549 O533 1.254 . S
C550 Eu486 2.848 . S
C550 O530 1.257 . S
C550 O535 1.249 . S
C550 C543 1.492 . S
C551 H516 0.931 . S
C551 C529 1.420 . S
C551 C552 1.351 . S
C552 H514 0.930 . S
C552 C520 1.423 . S
C552 C551 1.351 . S
C553 O537 1.276 . S
C553 O540 1.235 . S
C554 C555 1.393 . S
C554 C558 1.395 . S
C554 C561 1.492 . S
C555 C554 1.393 . S
C555 C556 1.392 . S
C555 H566 0.930 . S
C556 C555 1.392 . S
C556 C557 1.386 . S
C557 C556 1.386 . S
C557 C559 1.395 . S
C557 H567 0.930 . S
C558 C554 1.395 . S
C558 C559 1.379 . S
C558 H568 0.930 . S
C559 C557 1.395 . S
C559 C558 1.379 . S
C559 H569 0.930 . S
C560 O538 1.264 . S
C560 O539 1.254 . S
C561 Eu497 2.848 . S
C561 O536 1.257 . S
C561 O541 1.249 . S
C561 C554 1.492 . S
H562 C545 0.930 . S
H563 C546 0.930 . S
H564 C547 0.930 . S
H565 C548 0.930 . S
H566 C555 0.930 . S
H567 C557 0.930 . S
H568 C558 0.930 . S
H569 C559 0.930 . S
Eu570 N601 2.657 . S
Eu570 N608 2.609 . S
Eu570 O614 2.558 . S
Eu570 O615 2.612 . S
Eu570 O617 2.339 . S
Eu570 O618 2.563 . S
Eu570 O619 2.419 . S
Eu570 O621 2.380 . S
Eu570 O622 2.432 . S
Eu570 C634 2.848 . S
C571 C574 1.429 . S
C571 C575 1.411 . S
C571 N578 1.377 . S
C572 C574 1.420 . S
C572 C576 1.423 . S
C572 C584 1.392 . S
C573 C575 1.420 . S
C573 C576 1.351 . S
C573 H596 0.931 . S
C574 C571 1.429 . S
C574 C572 1.420 . S
C574 N582 1.362 . S
C575 C571 1.411 . S
C575 C573 1.420 . S
C575 C580 1.395 . S
C576 C572 1.423 . S
C576 C573 1.351 . S
C576 H588 0.930 . S
C577 C579 1.400 . S
C577 C580 1.386 . S
C577 H589 0.930 . S
N578 C571 1.377 . S
N578 C579 1.321 . S
N578 Eu581 2.609 . S
C579 C577 1.400 . S
C579 N578 1.321 . S
C579 H586 0.930 . S
C580 C575 1.395 . S
C580 C577 1.386 . S
C580 H599 0.930 . S
Eu581 N578 2.609 . S
Eu581 N582 2.657 . S
Eu581 O615 2.380 . S
Eu581 O616 2.432 . S
Eu581 O620 2.558 . S
Eu581 O621 2.612 . S
Eu581 O623 2.339 . S
Eu581 O624 2.563 . S
Eu581 O625 2.419 . S
Eu581 C645 2.848 . S
N582 C574 1.362 . S
N582 Eu581 2.657 . S
N582 C583 1.334 . S
C583 N582 1.334 . S
C583 C585 1.413 . S
C583 H590 0.929 . S
C584 C572 1.392 . S
C584 C585 1.367 . S
C584 H592 0.930 . S
C585 C583 1.413 . S
C585 C584 1.367 . S
C585 H587 0.930 . S
H586 C579 0.930 . S
H587 C585 0.930 . S
H588 C576 0.930 . S
H589 C577 0.930 . S
H590 C583 0.929 . S
H591 C605 0.930 . S
H592 C584 0.930 . S
H593 C611 0.930 . S
H594 C602 0.929 . S
H595 C609 0.930 . S
H596 C573 0.931 . S
H597 C603 0.930 . S
H598 C636 0.930 . S
H599 C580 0.930 . S
H600 C635 0.931 . S
N601 Eu570 2.657 . S
N601 C602 1.334 . S
N601 C606 1.362 . S
C602 H594 0.929 . S
C602 N601 1.334 . S
C602 C605 1.413 . S
C603 H597 0.930 . S
C603 C604 1.392 . S
C603 C605 1.367 . S
C604 C603 1.392 . S
C604 C606 1.420 . S
C604 C636 1.423 . S
C605 H591 0.930 . S
C605 C602 1.413 . S
C605 C603 1.367 . S
C606 N601 1.362 . S
C606 C604 1.420 . S
C606 C610 1.429 . S
H607 C612 0.930 . S
N608 Eu570 2.609 . S
N608 C610 1.377 . S
N608 C611 1.321 . S
C609 H595 0.930 . S
C609 C611 1.400 . S
C609 C612 1.386 . S
C610 C606 1.429 . S
C610 N608 1.377 . S
C610 C613 1.411 . S
C611 H593 0.930 . S
C611 N608 1.321 . S
C611 C609 1.400 . S
C612 H607 0.930 . S
C612 C609 1.386 . S
C612 C613 1.395 . S
C613 C610 1.411 . S
C613 C612 1.395 . S
C613 C635 1.420 . S
O614 Eu570 2.558 . S
O614 C634 1.257 . S
O615 Eu570 2.612 . S
O615 Eu581 2.380 . S
O615 C626 1.276 . S
O616 Eu581 2.432 . S
O616 C633 1.264 . S
O617 Eu570 2.339 . S
O617 C633 1.254 . S
O618 Eu570 2.563 . S
O618 C626 1.235 . S
O619 Eu570 2.419 . S
O619 C634 1.249 . S
O620 Eu581 2.558 . S
O620 C645 1.257 . S
O621 Eu570 2.380 . S
O621 Eu581 2.612 . S
O621 C637 1.276 . S
O622 Eu570 2.432 . S
O622 C644 1.264 . S
O623 Eu581 2.339 . S
O623 C644 1.254 . S
O624 Eu581 2.563 . S
O624 C637 1.235 . S
O625 Eu581 2.419 . S
O625 C645 1.249 . S
C626 O615 1.276 . S
C626 O618 1.235 . S
C627 C629 1.393 . S
C627 C631 1.395 . S
C627 C634 1.492 . S
C628 C629 1.392 . S
C628 C630 1.386 . S
C629 C627 1.393 . S
C629 C628 1.392 . S
C629 H646 0.930 . S
C630 C628 1.386 . S
C630 C632 1.395 . S
C630 H647 0.930 . S
C631 C627 1.395 . S
C631 C632 1.379 . S
C631 H648 0.930 . S
C632 C630 1.395 . S
C632 C631 1.379 . S
C632 H649 0.930 . S
C633 O616 1.264 . S
C633 O617 1.254 . S
C634 Eu570 2.848 . S
C634 O614 1.257 . S
C634 O619 1.249 . S
C634 C627 1.492 . S
C635 H600 0.931 . S
C635 C613 1.420 . S
C635 C636 1.351 . S
C636 H598 0.930 . S
C636 C604 1.423 . S
C636 C635 1.351 . S
C637 O621 1.276 . S
C637 O624 1.235 . S
C638 C639 1.393 . S
C638 C642 1.395 . S
C638 C645 1.492 . S
C639 C638 1.393 . S
C639 C640 1.392 . S
C639 H650 0.930 . S
C640 C639 1.392 . S
C640 C641 1.386 . S
C641 C640 1.386 . S
C641 C643 1.395 . S
C641 H651 0.930 . S
C642 C638 1.395 . S
C642 C643 1.379 . S
C642 H652 0.930 . S
C643 C641 1.395 . S
C643 C642 1.379 . S
C643 H653 0.930 . S
C644 O622 1.264 . S
C644 O623 1.254 . S
C645 Eu581 2.848 . S
C645 O620 1.257 . S
C645 O625 1.249 . S
C645 C638 1.492 . S
H646 C629 0.930 . S
H647 C630 0.930 . S
H648 C631 0.930 . S
H649 C632 0.930 . S
H650 C639 0.930 . S
H651 C641 0.930 . S
H652 C642 0.930 . S
H653 C643 0.930 . S
Eu654 N685 2.657 . S
Eu654 N692 2.609 . S
Eu654 O698 2.558 . S
Eu654 O699 2.612 . S
Eu654 O701 2.339 . S
Eu654 O702 2.563 . S
Eu654 O703 2.419 . S
Eu654 O705 2.380 . S
Eu654 O706 2.432 . S
Eu654 C718 2.848 . S
C655 C658 1.429 . S
C655 C659 1.411 . S
C655 N662 1.377 . S
C656 C658 1.420 . S
C656 C660 1.423 . S
C656 C668 1.392 . S
C657 C659 1.420 . S
C657 C660 1.351 . S
C657 H680 0.931 . S
C658 C655 1.429 . S
C658 C656 1.420 . S
C658 N666 1.362 . S
C659 C655 1.411 . S
C659 C657 1.420 . S
C659 C664 1.395 . S
C660 C656 1.423 . S
C660 C657 1.351 . S
C660 H672 0.930 . S
C661 C663 1.400 . S
C661 C664 1.386 . S
C661 H673 0.930 . S
N662 C655 1.377 . S
N662 C663 1.321 . S
N662 Eu665 2.609 . S
C663 C661 1.400 . S
C663 N662 1.321 . S
C663 H670 0.930 . S
C664 C659 1.395 . S
C664 C661 1.386 . S
C664 H683 0.930 . S
Eu665 N662 2.609 . S
Eu665 N666 2.657 . S
Eu665 O699 2.380 . S
Eu665 O700 2.432 . S
Eu665 O704 2.558 . S
Eu665 O705 2.612 . S
Eu665 O707 2.339 . S
Eu665 O708 2.563 . S
Eu665 O709 2.419 . S
Eu665 C729 2.848 . S
N666 C658 1.362 . S
N666 Eu665 2.657 . S
N666 C667 1.334 . S
C667 N666 1.334 . S
C667 C669 1.413 . S
C667 H674 0.929 . S
C668 C656 1.392 . S
C668 C669 1.367 . S
C668 H676 0.930 . S
C669 C667 1.413 . S
C669 C668 1.367 . S
C669 H671 0.930 . S
H670 C663 0.930 . S
H671 C669 0.930 . S
H672 C660 0.930 . S
H673 C661 0.930 . S
H674 C667 0.929 . S
H675 C689 0.930 . S
H676 C668 0.930 . S
H677 C695 0.930 . S
H678 C686 0.929 . S
H679 C693 0.930 . S
H680 C657 0.931 . S
H681 C687 0.930 . S
H682 C720 0.930 . S
H683 C664 0.930 . S
H684 C719 0.931 . S
N685 Eu654 2.657 . S
N685 C686 1.334 . S
N685 C690 1.362 . S
C686 H678 0.929 . S
C686 N685 1.334 . S
C686 C689 1.413 . S
C687 H681 0.930 . S
C687 C688 1.392 . S
C687 C689 1.367 . S
C688 C687 1.392 . S
C688 C690 1.420 . S
C688 C720 1.423 . S
C689 H675 0.930 . S
C689 C686 1.413 . S
C689 C687 1.367 . S
C690 N685 1.362 . S
C690 C688 1.420 . S
C690 C694 1.429 . S
H691 C696 0.930 . S
N692 Eu654 2.609 . S
N692 C694 1.377 . S
N692 C695 1.321 . S
C693 H679 0.930 . S
C693 C695 1.400 . S
C693 C696 1.386 . S
C694 C690 1.429 . S
C694 N692 1.377 . S
C694 C697 1.411 . S
C695 H677 0.930 . S
C695 N692 1.321 . S
C695 C693 1.400 . S
C696 H691 0.930 . S
C696 C693 1.386 . S
C696 C697 1.395 . S
C697 C694 1.411 . S
C697 C696 1.395 . S
C697 C719 1.420 . S
O698 Eu654 2.558 . S
O698 C718 1.257 . S
O699 Eu654 2.612 . S
O699 Eu665 2.380 . S
O699 C710 1.276 . S
O700 Eu665 2.432 . S
O700 C717 1.264 . S
O701 Eu654 2.339 . S
O701 C717 1.254 . S
O702 Eu654 2.563 . S
O702 C710 1.235 . S
O703 Eu654 2.419 . S
O703 C718 1.249 . S
O704 Eu665 2.558 . S
O704 C729 1.257 . S
O705 Eu654 2.380 . S
O705 Eu665 2.612 . S
O705 C721 1.276 . S
O706 Eu654 2.432 . S
O706 C728 1.264 . S
O707 Eu665 2.339 . S
O707 C728 1.254 . S
O708 Eu665 2.563 . S
O708 C721 1.235 . S
O709 Eu665 2.419 . S
O709 C729 1.249 . S
C710 O699 1.276 . S
C710 O702 1.235 . S
C711 C713 1.393 . S
C711 C715 1.395 . S
C711 C718 1.492 . S
C712 C713 1.392 . S
C712 C714 1.386 . S
C713 C711 1.393 . S
C713 C712 1.392 . S
C713 H730 0.930 . S
C714 C712 1.386 . S
C714 C716 1.395 . S
C714 H731 0.930 . S
C715 C711 1.395 . S
C715 C716 1.379 . S
C715 H732 0.930 . S
C716 C714 1.395 . S
C716 C715 1.379 . S
C716 H733 0.930 . S
C717 O700 1.264 . S
C717 O701 1.254 . S
C718 Eu654 2.848 . S
C718 O698 1.257 . S
C718 O703 1.249 . S
C718 C711 1.492 . S
C719 H684 0.931 . S
C719 C697 1.420 . S
C719 C720 1.351 . S
C720 H682 0.930 . S
C720 C688 1.423 . S
C720 C719 1.351 . S
C721 O705 1.276 . S
C721 O708 1.235 . S
C722 C723 1.393 . S
C722 C726 1.395 . S
C722 C729 1.492 . S
C723 C722 1.393 . S
C723 C724 1.392 . S
C723 H734 0.930 . S
C724 C723 1.392 . S
C724 C725 1.386 . S
C725 C724 1.386 . S
C725 C727 1.395 . S
C725 H735 0.930 . S
C726 C722 1.395 . S
C726 C727 1.379 . S
C726 H736 0.930 . S
C727 C725 1.395 . S
C727 C726 1.379 . S
C727 H737 0.930 . S
C728 O706 1.264 . S
C728 O707 1.254 . S
C729 Eu665 2.848 . S
C729 O704 1.257 . S
C729 O709 1.249 . S
C729 C722 1.492 . S
H730 C713 0.930 . S
H731 C714 0.930 . S
H732 C715 0.930 . S
H733 C716 0.930 . S
H734 C723 0.930 . S
H735 C725 0.930 . S
H736 C726 0.930 . S
H737 C727 0.930 . S
Eu738 N769 2.657 . S
Eu738 N776 2.609 . S
Eu738 O782 2.558 . S
Eu738 O783 2.612 . S
Eu738 O785 2.339 . S
Eu738 O786 2.563 . S
Eu738 O787 2.419 . S
Eu738 O789 2.380 . S
Eu738 O790 2.432 . S
Eu738 C802 2.848 . S
C739 C742 1.429 . S
C739 C743 1.411 . S
C739 N746 1.377 . S
C740 C742 1.420 . S
C740 C744 1.423 . S
C740 C752 1.392 . S
C741 C743 1.420 . S
C741 C744 1.351 . S
C741 H764 0.931 . S
C742 C739 1.429 . S
C742 C740 1.420 . S
C742 N750 1.362 . S
C743 C739 1.411 . S
C743 C741 1.420 . S
C743 C748 1.395 . S
C744 C740 1.423 . S
C744 C741 1.351 . S
C744 H756 0.930 . S
C745 C747 1.400 . S
C745 C748 1.386 . S
C745 H757 0.930 . S
N746 C739 1.377 . S
N746 C747 1.321 . S
N746 Eu749 2.609 . S
C747 C745 1.400 . S
C747 N746 1.321 . S
C747 H754 0.930 . S
C748 C743 1.395 . S
C748 C745 1.386 . S
C748 H767 0.930 . S
Eu749 N746 2.609 . S
Eu749 N750 2.657 . S
Eu749 O783 2.380 . S
Eu749 O784 2.432 . S
Eu749 O788 2.558 . S
Eu749 O789 2.612 . S
Eu749 O791 2.339 . S
Eu749 O792 2.563 . S
Eu749 O793 2.419 . S
Eu749 C813 2.848 . S
N750 C742 1.362 . S
N750 Eu749 2.657 . S
N750 C751 1.334 . S
C751 N750 1.334 . S
C751 C753 1.413 . S
C751 H758 0.929 . S
C752 C740 1.392 . S
C752 C753 1.367 . S
C752 H760 0.930 . S
C753 C751 1.413 . S
C753 C752 1.367 . S
C753 H755 0.930 . S
H754 C747 0.930 . S
H755 C753 0.930 . S
H756 C744 0.930 . S
H757 C745 0.930 . S
H758 C751 0.929 . S
H759 C773 0.930 . S
H760 C752 0.930 . S
H761 C779 0.930 . S
H762 C770 0.929 . S
H763 C777 0.930 . S
H764 C741 0.931 . S
H765 C771 0.930 . S
H766 C804 0.930 . S
H767 C748 0.930 . S
H768 C803 0.931 . S
N769 Eu738 2.657 . S
N769 C770 1.334 . S
N769 C774 1.362 . S
C770 H762 0.929 . S
C770 N769 1.334 . S
C770 C773 1.413 . S
C771 H765 0.930 . S
C771 C772 1.392 . S
C771 C773 1.367 . S
C772 C771 1.392 . S
C772 C774 1.420 . S
C772 C804 1.423 . S
C773 H759 0.930 . S
C773 C770 1.413 . S
C773 C771 1.367 . S
C774 N769 1.362 . S
C774 C772 1.420 . S
C774 C778 1.429 . S
H775 C780 0.930 . S
N776 Eu738 2.609 . S
N776 C778 1.377 . S
N776 C779 1.321 . S
C777 H763 0.930 . S
C777 C779 1.400 . S
C777 C780 1.386 . S
C778 C774 1.429 . S
C778 N776 1.377 . S
C778 C781 1.411 . S
C779 H761 0.930 . S
C779 N776 1.321 . S
C779 C777 1.400 . S
C780 H775 0.930 . S
C780 C777 1.386 . S
C780 C781 1.395 . S
C781 C778 1.411 . S
C781 C780 1.395 . S
C781 C803 1.420 . S
O782 Eu738 2.558 . S
O782 C802 1.257 . S
O783 Eu738 2.612 . S
O783 Eu749 2.380 . S
O783 C794 1.276 . S
O784 Eu749 2.432 . S
O784 C801 1.264 . S
O785 Eu738 2.339 . S
O785 C801 1.254 . S
O786 Eu738 2.563 . S
O786 C794 1.235 . S
O787 Eu738 2.419 . S
O787 C802 1.249 . S
O788 Eu749 2.558 . S
O788 C813 1.257 . S
O789 Eu738 2.380 . S
O789 Eu749 2.612 . S
O789 C805 1.276 . S
O790 Eu738 2.432 . S
O790 C812 1.264 . S
O791 Eu749 2.339 . S
O791 C812 1.254 . S
O792 Eu749 2.563 . S
O792 C805 1.235 . S
O793 Eu749 2.419 . S
O793 C813 1.249 . S
C794 O783 1.276 . S
C794 O786 1.235 . S
C795 C797 1.393 . S
C795 C799 1.395 . S
C795 C802 1.492 . S
C796 C797 1.392 . S
C796 C798 1.386 . S
C797 C795 1.393 . S
C797 C796 1.392 . S
C797 H814 0.930 . S
C798 C796 1.386 . S
C798 C800 1.395 . S
C798 H815 0.930 . S
C799 C795 1.395 . S
C799 C800 1.379 . S
C799 H816 0.930 . S
C800 C798 1.395 . S
C800 C799 1.379 . S
C800 H817 0.930 . S
C801 O784 1.264 . S
C801 O785 1.254 . S
C802 Eu738 2.848 . S
C802 O782 1.257 . S
C802 O787 1.249 . S
C802 C795 1.492 . S
C803 H768 0.931 . S
C803 C781 1.420 . S
C803 C804 1.351 . S
C804 H766 0.930 . S
C804 C772 1.423 . S
C804 C803 1.351 . S
C805 O789 1.276 . S
C805 O792 1.235 . S
C806 C807 1.393 . S
C806 C810 1.395 . S
C806 C813 1.492 . S
C807 C806 1.393 . S
C807 C808 1.392 . S
C807 H818 0.930 . S
C808 C807 1.392 . S
C808 C809 1.386 . S
C809 C808 1.386 . S
C809 C811 1.395 . S
C809 H819 0.930 . S
C810 C806 1.395 . S
C810 C811 1.379 . S
C810 H820 0.930 . S
C811 C809 1.395 . S
C811 C810 1.379 . S
C811 H821 0.930 . S
C812 O790 1.264 . S
C812 O791 1.254 . S
C813 Eu749 2.848 . S
C813 O788 1.257 . S
C813 O793 1.249 . S
C813 C806 1.492 . S
H814 C797 0.930 . S
H815 C798 0.930 . S
H816 C799 0.930 . S
H817 C800 0.930 . S
H818 C807 0.930 . S
H819 C809 0.930 . S
H820 C810 0.930 . S
H821 C811 0.930 . S
Eu822 N853 2.657 . S
Eu822 N860 2.609 . S
Eu822 O866 2.558 . S
Eu822 O867 2.612 . S
Eu822 O869 2.339 . S
Eu822 O870 2.563 . S
Eu822 O871 2.419 . S
Eu822 O873 2.380 . S
Eu822 O874 2.432 . S
Eu822 C886 2.848 . S
C823 C826 1.429 . S
C823 C827 1.411 . S
C823 N830 1.377 . S
C824 C826 1.420 . S
C824 C828 1.423 . S
C824 C836 1.392 . S
C825 C827 1.420 . S
C825 C828 1.351 . S
C825 H848 0.931 . S
C826 C823 1.429 . S
C826 C824 1.420 . S
C826 N834 1.362 . S
C827 C823 1.411 . S
C827 C825 1.420 . S
C827 C832 1.395 . S
C828 C824 1.423 . S
C828 C825 1.351 . S
C828 H840 0.930 . S
C829 C831 1.400 . S
C829 C832 1.386 . S
C829 H841 0.930 . S
N830 C823 1.377 . S
N830 C831 1.321 . S
N830 Eu833 2.609 . S
C831 C829 1.400 . S
C831 N830 1.321 . S
C831 H838 0.930 . S
C832 C827 1.395 . S
C832 C829 1.386 . S
C832 H851 0.930 . S
Eu833 N830 2.609 . S
Eu833 N834 2.657 . S
Eu833 O867 2.380 . S
Eu833 O868 2.432 . S
Eu833 O872 2.558 . S
Eu833 O873 2.612 . S
Eu833 O875 2.339 . S
Eu833 O876 2.563 . S
Eu833 O877 2.419 . S
Eu833 C897 2.848 . S
N834 C826 1.362 . S
N834 Eu833 2.657 . S
N834 C835 1.334 . S
C835 N834 1.334 . S
C835 C837 1.413 . S
C835 H842 0.929 . S
C836 C824 1.392 . S
C836 C837 1.367 . S
C836 H844 0.930 . S
C837 C835 1.413 . S
C837 C836 1.367 . S
C837 H839 0.930 . S
H838 C831 0.930 . S
H839 C837 0.930 . S
H840 C828 0.930 . S
H841 C829 0.930 . S
H842 C835 0.929 . S
H843 C857 0.930 . S
H844 C836 0.930 . S
H845 C863 0.930 . S
H846 C854 0.929 . S
H847 C861 0.930 . S
H848 C825 0.931 . S
H849 C855 0.930 . S
H850 C888 0.930 . S
H851 C832 0.930 . S
H852 C887 0.931 . S
N853 Eu822 2.657 . S
N853 C854 1.334 . S
N853 C858 1.362 . S
C854 H846 0.929 . S
C854 N853 1.334 . S
C854 C857 1.413 . S
C855 H849 0.930 . S
C855 C856 1.392 . S
C855 C857 1.367 . S
C856 C855 1.392 . S
C856 C858 1.420 . S
C856 C888 1.423 . S
C857 H843 0.930 . S
C857 C854 1.413 . S
C857 C855 1.367 . S
C858 N853 1.362 . S
C858 C856 1.420 . S
C858 C862 1.429 . S
H859 C864 0.930 . S
N860 Eu822 2.609 . S
N860 C862 1.377 . S
N860 C863 1.321 . S
C861 H847 0.930 . S
C861 C863 1.400 . S
C861 C864 1.386 . S
C862 C858 1.429 . S
C862 N860 1.377 . S
C862 C865 1.411 . S
C863 H845 0.930 . S
C863 N860 1.321 . S
C863 C861 1.400 . S
C864 H859 0.930 . S
C864 C861 1.386 . S
C864 C865 1.395 . S
C865 C862 1.411 . S
C865 C864 1.395 . S
C865 C887 1.420 . S
O866 Eu822 2.558 . S
O866 C886 1.257 . S
O867 Eu822 2.612 . S
O867 Eu833 2.380 . S
O867 C878 1.276 . S
O868 Eu833 2.432 . S
O868 C885 1.264 . S
O869 Eu822 2.339 . S
O869 C885 1.254 . S
O870 Eu822 2.563 . S
O870 C878 1.235 . S
O871 Eu822 2.419 . S
O871 C886 1.249 . S
O872 Eu833 2.558 . S
O872 C897 1.257 . S
O873 Eu822 2.380 . S
O873 Eu833 2.612 . S
O873 C889 1.276 . S
O874 Eu822 2.432 . S
O874 C896 1.264 . S
O875 Eu833 2.339 . S
O875 C896 1.254 . S
O876 Eu833 2.563 . S
O876 C889 1.235 . S
O877 Eu833 2.419 . S
O877 C897 1.249 . S
C878 O867 1.276 . S
C878 O870 1.235 . S
C879 C881 1.393 . S
C879 C883 1.395 . S
C879 C886 1.492 . S
C880 C881 1.392 . S
C880 C882 1.386 . S
C881 C879 1.393 . S
C881 C880 1.392 . S
C881 H898 0.930 . S
C882 C880 1.386 . S
C882 C884 1.395 . S
C882 H899 0.930 . S
C883 C879 1.395 . S
C883 C884 1.379 . S
C883 H900 0.930 . S
C884 C882 1.395 . S
C884 C883 1.379 . S
C884 H901 0.930 . S
C885 O868 1.264 . S
C885 O869 1.254 . S
C886 Eu822 2.848 . S
C886 O866 1.257 . S
C886 O871 1.249 . S
C886 C879 1.492 . S
C887 H852 0.931 . S
C887 C865 1.420 . S
C887 C888 1.351 . S
C888 H850 0.930 . S
C888 C856 1.423 . S
C888 C887 1.351 . S
C889 O873 1.276 . S
C889 O876 1.235 . S
C890 C891 1.393 . S
C890 C894 1.395 . S
C890 C897 1.492 . S
C891 C890 1.393 . S
C891 C892 1.392 . S
C891 H902 0.930 . S
C892 C891 1.392 . S
C892 C893 1.386 . S
C893 C892 1.386 . S
C893 C895 1.395 . S
C893 H903 0.930 . S
C894 C890 1.395 . S
C894 C895 1.379 . S
C894 H904 0.930 . S
C895 C893 1.395 . S
C895 C894 1.379 . S
C895 H905 0.930 . S
C896 O874 1.264 . S
C896 O875 1.254 . S
C897 Eu833 2.848 . S
C897 O872 1.257 . S
C897 O877 1.249 . S
C897 C890 1.492 . S
H898 C881 0.930 . S
H899 C882 0.930 . S
H900 C883 0.930 . S
H901 C884 0.930 . S
H902 C891 0.930 . S
H903 C893 0.930 . S
H904 C894 0.930 . S
H905 C895 0.930 . S
Eu906 N937 2.657 . S
Eu906 N944 2.609 . S
Eu906 O950 2.558 . S
Eu906 O951 2.612 . S
Eu906 O953 2.339 . S
Eu906 O954 2.563 . S
Eu906 O955 2.419 . S
Eu906 O957 2.380 . S
Eu906 O958 2.432 . S
Eu906 C970 2.848 . S
C907 C910 1.429 . S
C907 C911 1.411 . S
C907 N914 1.377 . S
C908 C910 1.420 . S
C908 C912 1.423 . S
C908 C920 1.392 . S
C909 C911 1.420 . S
C909 C912 1.351 . S
C909 H932 0.931 . S
C910 C907 1.429 . S
C910 C908 1.420 . S
C910 N918 1.362 . S
C911 C907 1.411 . S
C911 C909 1.420 . S
C911 C916 1.395 . S
C912 C908 1.423 . S
C912 C909 1.351 . S
C912 H924 0.930 . S
C913 C915 1.400 . S
C913 C916 1.386 . S
C913 H925 0.930 . S
N914 C907 1.377 . S
N914 C915 1.321 . S
N914 Eu917 2.609 . S
C915 C913 1.400 . S
C915 N914 1.321 . S
C915 H922 0.930 . S
C916 C911 1.395 . S
C916 C913 1.386 . S
C916 H935 0.930 . S
Eu917 N914 2.609 . S
Eu917 N918 2.657 . S
Eu917 O951 2.380 . S
Eu917 O952 2.432 . S
Eu917 O956 2.558 . S
Eu917 O957 2.612 . S
Eu917 O959 2.339 . S
Eu917 O960 2.563 . S
Eu917 O961 2.419 . S
Eu917 C981 2.848 . S
N918 C910 1.362 . S
N918 Eu917 2.657 . S
N918 C919 1.334 . S
C919 N918 1.334 . S
C919 C921 1.413 . S
C919 H926 0.929 . S
C920 C908 1.392 . S
C920 C921 1.367 . S
C920 H928 0.930 . S
C921 C919 1.413 . S
C921 C920 1.367 . S
C921 H923 0.930 . S
H922 C915 0.930 . S
H923 C921 0.930 . S
H924 C912 0.930 . S
H925 C913 0.930 . S
H926 C919 0.929 . S
H927 C941 0.930 . S
H928 C920 0.930 . S
H929 C947 0.930 . S
H930 C938 0.929 . S
H931 C945 0.930 . S
H932 C909 0.931 . S
H933 C939 0.930 1_455 S
H934 C972 0.930 1_455 S
H935 C916 0.930 . S
H936 C971 0.931 . S
N937 Eu906 2.657 . S
N937 C938 1.334 . S
N937 C942 1.362 . S
C938 H930 0.929 . S
C938 N937 1.334 . S
C938 C941 1.413 . S
C939 H933 0.930 1_655 S
C939 C940 1.392 . S
C939 C941 1.367 . S
C940 C939 1.392 . S
C940 C942 1.420 . S
C940 C972 1.423 . S
C941 H927 0.930 . S
C941 C938 1.413 . S
C941 C939 1.367 . S
C942 N937 1.362 . S
C942 C940 1.420 . S
C942 C946 1.429 . S
H943 C948 0.930 . S
N944 Eu906 2.609 . S
N944 C946 1.377 . S
N944 C947 1.321 . S
C945 H931 0.930 . S
C945 C947 1.400 . S
C945 C948 1.386 . S
C946 C942 1.429 . S
C946 N944 1.377 . S
C946 C949 1.411 . S
C947 H929 0.930 . S
C947 N944 1.321 . S
C947 C945 1.400 . S
C948 H943 0.930 . S
C948 C945 1.386 . S
C948 C949 1.395 . S
C949 C946 1.411 . S
C949 C948 1.395 . S
C949 C971 1.420 . S
O950 Eu906 2.558 . S
O950 C970 1.257 . S
O951 Eu906 2.612 . S
O951 Eu917 2.380 . S
O951 C962 1.276 . S
O952 Eu917 2.432 . S
O952 C969 1.264 . S
O953 Eu906 2.339 . S
O953 C969 1.254 . S
O954 Eu906 2.563 . S
O954 C962 1.235 . S
O955 Eu906 2.419 . S
O955 C970 1.249 . S
O956 Eu917 2.558 . S
O956 C981 1.257 . S
O957 Eu906 2.380 . S
O957 Eu917 2.612 . S
O957 C973 1.276 . S
O958 Eu906 2.432 . S
O958 C980 1.264 . S
O959 Eu917 2.339 . S
O959 C980 1.254 . S
O960 Eu917 2.563 . S
O960 C973 1.235 . S
O961 Eu917 2.419 . S
O961 C981 1.249 . S
C962 O951 1.276 . S
C962 O954 1.235 . S
C963 C965 1.393 . S
C963 C967 1.395 . S
C963 C970 1.492 . S
C964 C965 1.392 . S
C964 C966 1.386 . S
C965 C963 1.393 . S
C965 C964 1.392 . S
C965 H982 0.930 . S
C966 C964 1.386 . S
C966 C968 1.395 . S
C966 H983 0.930 . S
C967 C963 1.395 . S
C967 C968 1.379 . S
C967 H984 0.930 . S
C968 C966 1.395 . S
C968 C967 1.379 . S
C968 H985 0.930 . S
C969 O952 1.264 . S
C969 O953 1.254 . S
C970 Eu906 2.848 . S
C970 O950 1.257 . S
C970 O955 1.249 . S
C970 C963 1.492 . S
C971 H936 0.931 . S
C971 C949 1.420 . S
C971 C972 1.351 . S
C972 H934 0.930 1_655 S
C972 C940 1.423 . S
C972 C971 1.351 . S
C973 O957 1.276 . S
C973 O960 1.235 . S
C974 C975 1.393 . S
C974 C978 1.395 . S
C974 C981 1.492 . S
C975 C974 1.393 . S
C975 C976 1.392 . S
C975 H986 0.930 . S
C976 C975 1.392 . S
C976 C977 1.386 . S
C977 C976 1.386 . S
C977 C979 1.395 . S
C977 H987 0.930 . S
C978 C974 1.395 . S
C978 C979 1.379 . S
C978 H988 0.930 . S
C979 C977 1.395 . S
C979 C978 1.379 . S
C979 H989 0.930 . S
C980 O958 1.264 . S
C980 O959 1.254 . S
C981 Eu917 2.848 . S
C981 O956 1.257 . S
C981 O961 1.249 . S
C981 C974 1.492 . S
H982 C965 0.930 . S
H983 C966 0.930 . S
H984 C967 0.930 . S
H985 C968 0.930 . S
H986 C975 0.930 . S
H987 C977 0.930 . S
H988 C978 0.930 . S
H989 C979 0.930 . S
H990 C1002 0.930 . S
H991 C1004 0.930 . S
H992 C1005 0.930 . S
H993 C1009 0.959 . S
H994 C1009 0.959 . S
H995 C1009 0.961 . S
H996 C1010 0.960 . S
H997 C1010 0.961 . S
H998 C1010 0.959 . S
H999 C1013 0.929 . S
H1000 C1014 0.931 . S
H1001 C1016 0.930 . S
C1002 H990 0.930 . S
C1002 C1003 1.399 . S
C1002 C1007 1.399 . S
C1003 C1002 1.399 . S
C1003 C1004 1.376 . S
C1004 H991 0.930 . S
C1004 C1003 1.376 . S
C1004 C1005 1.388 . S
C1005 H992 0.930 . S
C1005 C1004 1.388 . S
C1005 C1006 1.390 . S
C1006 C1005 1.390 . S
C1006 C1007 1.394 . S
C1006 C1012 1.465 . S
C1007 C1002 1.399 . S
C1007 C1006 1.394 . S
C1007 C1008 1.516 . S
C1008 C1007 1.516 . S
C1008 C1009 1.502 . S
C1008 C1010 1.561 . S
C1008 C1011 1.526 . S
C1009 H993 0.959 . S
C1009 H994 0.959 . S
C1009 H995 0.961 . S
C1009 C1008 1.502 . S
C1010 H996 0.960 . S
C1010 H997 0.961 . S
C1010 H998 0.959 . S
C1010 C1008 1.561 . S
C1011 C1008 1.526 . S
C1011 C1012 1.396 . S
C1011 C1016 1.390 . S
C1012 C1006 1.465 . S
C1012 C1011 1.396 . S
C1012 C1013 1.399 . S
C1013 H999 0.929 . S
C1013 C1012 1.399 . S
C1013 C1014 1.385 . S
C1014 H1000 0.931 . S
C1014 C1013 1.385 . S
C1014 C1015 1.389 . S
C1015 C1014 1.389 . S
C1015 C1016 1.387 . S
C1016 H1001 0.930 . S
C1016 C1011 1.390 . S
C1016 C1015 1.387 . S
H1017 C1029 0.930 . S
H1018 C1031 0.930 . S
H1019 C1032 0.930 . S
H1020 C1036 0.959 . S
H1021 C1036 0.959 . S
H1022 C1036 0.961 . S
H1023 C1037 0.960 . S
H1024 C1037 0.961 . S
H1025 C1037 0.959 . S
H1026 C1040 0.929 . S
H1027 C1041 0.931 . S
H1028 C1043 0.930 . S
C1029 H1017 0.930 . S
C1029 C1030 1.399 . S
C1029 C1034 1.399 . S
C1030 C1029 1.399 . S
C1030 C1031 1.376 . S
C1031 H1018 0.930 . S
C1031 C1030 1.376 . S
C1031 C1032 1.388 . S
C1032 H1019 0.930 . S
C1032 C1031 1.388 . S
C1032 C1033 1.390 . S
C1033 C1032 1.390 . S
C1033 C1034 1.394 . S
C1033 C1039 1.465 . S
C1034 C1029 1.399 . S
C1034 C1033 1.394 . S
C1034 C1035 1.516 . S
C1035 C1034 1.516 . S
C1035 C1036 1.502 . S
C1035 C1037 1.561 . S
C1035 C1038 1.526 . S
C1036 H1020 0.959 . S
C1036 H1021 0.959 . S
C1036 H1022 0.961 . S
C1036 C1035 1.502 . S
C1037 H1023 0.960 . S
C1037 H1024 0.961 . S
C1037 H1025 0.959 . S
C1037 C1035 1.561 . S
C1038 C1035 1.526 . S
C1038 C1039 1.396 . S
C1038 C1043 1.390 . S
C1039 C1033 1.465 . S
C1039 C1038 1.396 . S
C1039 C1040 1.399 . S
C1040 H1026 0.929 . S
C1040 C1039 1.399 . S
C1040 C1041 1.385 . S
C1041 H1027 0.931 . S
C1041 C1040 1.385 . S
C1041 C1042 1.389 . S
C1042 C1041 1.389 . S
C1042 C1043 1.387 . S
C1043 H1028 0.930 . S
C1043 C1038 1.390 . S
C1043 C1042 1.387 . S
H1044 C1056 0.930 . S
H1045 C1058 0.930 . S
H1046 C1059 0.930 . S
H1047 C1063 0.959 . S
H1048 C1063 0.959 . S
H1049 C1063 0.961 . S
H1050 C1064 0.960 . S
H1051 C1064 0.961 . S
H1052 C1064 0.959 . S
H1053 C1067 0.929 1_556 S
H1054 C1068 0.931 1_556 S
H1055 C1070 0.930 . S
C1056 H1044 0.930 . S
C1056 C1057 1.399 . S
C1056 C1061 1.399 . S
C1057 C1056 1.399 . S
C1057 C1058 1.376 . S
C1058 H1045 0.930 . S
C1058 C1057 1.376 . S
C1058 C1059 1.388 . S
C1059 H1046 0.930 . S
C1059 C1058 1.388 . S
C1059 C1060 1.390 . S
C1060 C1059 1.390 . S
C1060 C1061 1.394 . S
C1060 C1066 1.465 . S
C1061 C1056 1.399 . S
C1061 C1060 1.394 . S
C1061 C1062 1.516 . S
C1062 C1061 1.516 . S
C1062 C1063 1.502 . S
C1062 C1064 1.561 . S
C1062 C1065 1.526 . S
C1063 H1047 0.959 . S
C1063 H1048 0.959 . S
C1063 H1049 0.961 . S
C1063 C1062 1.502 . S
C1064 H1050 0.960 . S
C1064 H1051 0.961 . S
C1064 H1052 0.959 . S
C1064 C1062 1.561 . S
C1065 C1062 1.526 . S
C1065 C1066 1.396 . S
C1065 C1070 1.390 . S
C1066 C1060 1.465 . S
C1066 C1065 1.396 . S
C1066 C1067 1.399 . S
C1067 H1053 0.929 1_554 S
C1067 C1066 1.399 . S
C1067 C1068 1.385 . S
C1068 H1054 0.931 1_554 S
C1068 C1067 1.385 . S
C1068 C1069 1.389 . S
C1069 C1068 1.389 . S
C1069 C1070 1.387 . S
C1070 H1055 0.930 . S
C1070 C1065 1.390 . S
C1070 C1069 1.387 . S
H1071 C1083 0.930 . S
H1072 C1085 0.930 . S
H1073 C1086 0.930 . S
H1074 C1090 0.959 . S
H1075 C1090 0.959 . S
H1076 C1090 0.961 . S
H1077 C1091 0.960 . S
H1078 C1091 0.961 . S
H1079 C1091 0.937 1_556 S
H1080 C1094 0.929 . S
H1081 C1095 0.931 . S
H1082 C1097 0.930 . S
C1083 H1071 0.930 . S
C1083 C1084 1.399 . S
C1083 C1088 1.399 . S
C1084 C1083 1.399 . S
C1084 C1085 1.376 . S
C1085 H1072 0.930 . S
C1085 C1084 1.376 . S
C1085 C1086 1.388 . S
C1086 H1073 0.930 . S
C1086 C1085 1.388 . S
C1086 C1087 1.390 . S
C1087 C1086 1.390 . S
C1087 C1088 1.394 . S
C1087 C1093 1.465 . S
C1088 C1083 1.399 . S
C1088 C1087 1.394 . S
C1088 C1089 1.516 1_556 S
C1089 C1088 1.516 1_554 S
C1089 C1090 1.502 . S
C1089 C1091 1.561 . S
C1089 C1092 1.526 1_554 S
C1090 H1074 0.959 . S
C1090 H1075 0.959 . S
C1090 H1076 0.961 . S
C1090 C1089 1.502 . S
C1091 H1077 0.960 . S
C1091 H1078 0.961 . S
C1091 H1079 0.937 1_554 S
C1091 C1089 1.561 . S
C1092 C1089 1.526 1_556 S
C1092 C1093 1.396 . S
C1092 C1097 1.390 1_556 S
C1093 C1087 1.465 . S
C1093 C1092 1.396 . S
C1093 C1094 1.399 . S
C1094 H1080 0.929 . S
C1094 C1093 1.399 . S
C1094 C1095 1.385 . S
C1095 H1081 0.931 . S
C1095 C1094 1.385 . S
C1095 C1096 1.389 . S
C1096 C1095 1.389 . S
C1096 C1097 1.387 1_556 S
C1097 H1082 0.930 . S
C1097 C1092 1.390 1_554 S
C1097 C1096 1.387 1_554 S
H1098 C1110 0.930 . S
H1099 C1112 0.930 . S
H1100 C1113 0.930 . S
H1101 C1117 0.959 1_554 S
H1102 C1117 0.959 . S
H1103 C1117 0.961 . S
H1104 C1118 0.960 . S
H1105 C1118 0.961 . S
H1106 C1118 0.959 . S
H1107 C1121 0.929 . S
H1108 C1122 0.931 . S
H1109 C1124 0.930 . S
C1110 H1098 0.930 . S
C1110 C1111 1.399 . S
C1110 C1115 1.399 . S
C1111 C1110 1.399 . S
C1111 C1112 1.376 . S
C1112 H1099 0.930 . S
C1112 C1111 1.376 . S
C1112 C1113 1.388 . S
C1113 H1100 0.930 . S
C1113 C1112 1.388 . S
C1113 C1114 1.390 . S
C1114 C1113 1.390 . S
C1114 C1115 1.394 . S
C1114 C1120 1.465 . S
C1115 C1110 1.399 . S
C1115 C1114 1.394 . S
C1115 C1116 1.516 . S
C1116 C1115 1.516 . S
C1116 C1117 1.502 . S
C1116 C1118 1.561 . S
C1116 C1119 1.526 . S
C1117 H1101 0.959 1_556 S
C1117 H1102 0.959 . S
C1117 H1103 0.961 . S
C1117 C1116 1.502 . S
C1118 H1104 0.960 . S
C1118 H1105 0.961 . S
C1118 H1106 0.959 . S
C1118 C1116 1.561 . S
C1119 C1116 1.526 . S
C1119 C1120 1.396 . S
C1119 C1124 1.390 . S
C1120 C1114 1.465 . S
C1120 C1119 1.396 . S
C1120 C1121 1.399 . S
C1121 H1107 0.929 . S
C1121 C1120 1.399 . S
C1121 C1122 1.385 . S
C1122 H1108 0.931 . S
C1122 C1121 1.385 . S
C1122 C1123 1.389 . S
C1123 C1122 1.389 . S
C1123 C1124 1.387 . S
C1124 H1109 0.930 . S
C1124 C1119 1.390 . S
C1124 C1123 1.387 . S
H1125 C1137 0.930 . S
H1126 C1139 0.930 . S
H1127 C1140 0.930 1_554 S
H1128 C1144 0.959 . S
H1129 C1144 0.959 . S
H1130 C1144 0.961 . S
H1131 C1145 0.960 . S
H1132 C1145 0.961 . S
H1133 C1145 0.959 . S
H1134 C1148 0.929 . S
H1135 C1149 0.931 . S
H1136 C1151 0.930 . S
C1137 H1125 0.930 . S
C1137 C1138 1.399 . S
C1137 C1142 1.399 . S
C1138 C1137 1.399 . S
C1138 C1139 1.376 . S
C1139 H1126 0.930 . S
C1139 C1138 1.376 . S
C1139 C1140 1.388 . S
C1140 H1127 0.930 1_556 S
C1140 C1139 1.388 . S
C1140 C1141 1.390 . S
C1141 C1140 1.390 . S
C1141 C1142 1.394 . S
C1141 C1147 1.465 . S
C1142 C1137 1.399 . S
C1142 C1141 1.394 . S
C1142 C1143 1.516 . S
C1143 C1142 1.516 . S
C1143 C1144 1.502 . S
C1143 C1145 1.561 . S
C1143 C1146 1.526 . S
C1144 H1128 0.959 . S
C1144 H1129 0.959 . S
C1144 H1130 0.961 . S
C1144 C1143 1.502 . S
C1145 H1131 0.960 . S
C1145 H1132 0.961 . S
C1145 H1133 0.959 . S
C1145 C1143 1.561 . S
C1146 C1143 1.526 . S
C1146 C1147 1.396 . S
C1146 C1151 1.390 . S
C1147 C1141 1.465 . S
C1147 C1146 1.396 . S
C1147 C1148 1.399 1_556 S
C1148 H1134 0.929 . S
C1148 C1147 1.399 1_554 S
C1148 C1149 1.385 . S
C1149 H1135 0.931 . S
C1149 C1148 1.385 . S
C1149 C1150 1.389 1_554 S
C1150 C1149 1.389 1_556 S
C1150 C1151 1.387 . S
C1151 H1136 0.930 . S
C1151 C1146 1.390 . S
C1151 C1150 1.387 . S
H1152 C1164 0.930 . S
H1153 C1166 0.930 . S
H1154 C1167 0.930 . S
H1155 C1171 0.959 . S
H1156 C1171 0.959 . S
H1157 C1171 0.961 . S
H1158 C1172 0.960 . S
H1159 C1172 0.961 . S
H1160 C1172 0.959 . S
H1161 C1175 0.929 . S
H1162 C1176 0.931 . S
H1163 C1178 0.930 . S
C1164 H1152 0.930 . S
C1164 C1165 1.399 . S
C1164 C1169 1.399 . S
C1165 C1164 1.399 . S
C1165 C1166 1.376 . S
C1166 H1153 0.930 . S
C1166 C1165 1.376 . S
C1166 C1167 1.388 . S
C1167 H1154 0.930 . S
C1167 C1166 1.388 . S
C1167 C1168 1.390 . S
C1168 C1167 1.390 . S
C1168 C1169 1.394 . S
C1168 C1174 1.465 . S
C1169 C1164 1.399 . S
C1169 C1168 1.394 . S
C1169 C1170 1.516 1_556 S
C1170 C1169 1.516 1_554 S
C1170 C1171 1.502 . S
C1170 C1172 1.561 . S
C1170 C1173 1.526 1_554 S
C1171 H1155 0.959 . S
C1171 H1156 0.959 . S
C1171 H1157 0.961 . S
C1171 C1170 1.502 . S
C1172 H1158 0.960 . S
C1172 H1159 0.961 . S
C1172 H1160 0.959 . S
C1172 C1170 1.561 . S
C1173 C1170 1.526 1_556 S
C1173 C1174 1.396 . S
C1173 C1178 1.390 1_556 S
C1174 C1168 1.465 . S
C1174 C1173 1.396 . S
C1174 C1175 1.399 . S
C1175 H1161 0.929 . S
C1175 C1174 1.399 . S
C1175 C1176 1.385 . S
C1176 H1162 0.931 . S
C1176 C1175 1.385 . S
C1176 C1177 1.389 . S
C1177 C1176 1.389 . S
C1177 C1178 1.387 1_556 S
C1178 H1163 0.930 . S
C1178 C1173 1.390 1_554 S
C1178 C1177 1.387 1_554 S
H1179 C1191 0.930 . S
H1180 C1193 0.930 . S
H1181 C1194 0.930 . S
H1182 C1198 0.959 . S
H1183 C1198 0.959 . S
H1184 C1198 0.961 . S
H1185 C1199 0.960 . S
H1186 C1199 0.961 1_554 S
H1187 C1199 0.959 . S
H1188 C1202 0.929 . S
H1189 C1203 0.931 . S
H1190 C1205 0.929 . S
C1191 H1179 0.930 . S
C1191 C1192 1.399 . S
C1191 C1196 1.399 . S
C1192 C1191 1.399 . S
C1192 C1193 1.376 . S
C1193 H1180 0.930 . S
C1193 C1192 1.376 . S
C1193 C1194 1.388 . S
C1194 H1181 0.930 . S
C1194 C1193 1.388 . S
C1194 C1195 1.390 . S
C1195 C1194 1.390 . S
C1195 C1196 1.394 . S
C1195 C1201 1.465 . S
C1196 C1191 1.399 . S
C1196 C1195 1.394 . S
C1196 C1197 1.516 . S
C1197 C1196 1.516 . S
C1197 C1198 1.502 1_556 S
C1197 C1199 1.561 . S
C1197 C1200 1.526 . S
C1198 H1182 0.959 . S
C1198 H1183 0.959 . S
C1198 H1184 0.961 . S
C1198 C1197 1.502 1_554 S
C1199 H1185 0.960 . S
C1199 H1186 0.961 1_556 S
C1199 H1187 0.959 . S
C1199 C1197 1.561 . S
C1200 C1197 1.526 . S
C1200 C1201 1.396 . S
C1200 C1205 1.390 1_556 S
C1201 C1195 1.465 . S
C1201 C1200 1.396 . S
C1201 C1202 1.399 . S
C1202 H1188 0.929 . S
C1202 C1201 1.399 . S
C1202 C1203 1.385 . S
C1203 H1189 0.931 . S
C1203 C1202 1.385 . S
C1203 C1204 1.389 . S
C1204 C1203 1.389 . S
C1204 C1205 1.387 1_556 S
C1205 H1190 0.929 . S
C1205 C1200 1.390 1_554 S
C1205 C1204 1.387 1_554 S
H1206 C1218 0.930 1_554 S
H1207 C1220 0.930 . S
H1208 C1221 0.930 . S
H1209 C1225 0.959 . S
H1210 C1225 0.959 . S
H1211 C1225 0.961 . S
H1212 C1226 0.960 . S
H1213 C1226 0.961 . S
H1214 C1226 0.959 . S
H1215 C1229 0.929 . S
H1216 C1230 0.931 . S
H1217 C1232 0.930 . S
C1218 H1206 0.930 1_556 S
C1218 C1219 1.399 . S
C1218 C1223 1.399 . S
C1219 C1218 1.399 . S
C1219 C1220 1.376 . S
C1220 H1207 0.930 . S
C1220 C1219 1.376 . S
C1220 C1221 1.388 . S
C1221 H1208 0.930 . S
C1221 C1220 1.388 . S
C1221 C1222 1.390 . S
C1222 C1221 1.390 . S
C1222 C1223 1.394 . S
C1222 C1228 1.465 . S
C1223 C1218 1.399 . S
C1223 C1222 1.394 . S
C1223 C1224 1.516 1_556 S
C1224 C1223 1.516 1_554 S
C1224 C1225 1.502 . S
C1224 C1226 1.561 . S
C1224 C1227 1.526 1_554 S
C1225 H1209 0.959 . S
C1225 H1210 0.959 . S
C1225 H1211 0.961 . S
C1225 C1224 1.502 . S
C1226 H1212 0.960 . S
C1226 H1213 0.961 . S
C1226 H1214 0.959 . S
C1226 C1224 1.561 . S
C1227 C1224 1.526 1_556 S
C1227 C1228 1.396 . S
C1227 C1232 1.390 1_556 S
C1228 C1222 1.465 . S
C1228 C1227 1.396 . S
C1228 C1229 1.399 . S
C1229 H1215 0.929 . S
C1229 C1228 1.399 . S
C1229 C1230 1.385 . S
C1230 H1216 0.931 . S
C1230 C1229 1.385 . S
C1230 C1231 1.389 . S
C1231 C1230 1.389 . S
C1231 C1232 1.387 1_556 S
C1232 H1217 0.930 . S
C1232 C1227 1.390 1_554 S
C1232 C1231 1.387 1_554 S
H1233 C1245 0.930 . S
H1234 C1247 0.930 . S
H1235 C1248 0.930 . S
H1236 C1252 0.959 . S
H1237 C1252 0.959 . S
H1238 C1252 0.961 . S
H1239 C1253 0.960 . S
H1240 C1253 0.961 . S
H1241 C1253 0.959 . S
H1242 C1256 0.929 1_556 S
H1243 C1257 0.931 1_556 S
H1244 C1259 0.930 . S
C1245 H1233 0.930 . S
C1245 C1246 1.399 . S
C1245 C1250 1.399 . S
C1246 C1245 1.399 . S
C1246 C1247 1.376 . S
C1247 H1234 0.930 . S
C1247 C1246 1.376 . S
C1247 C1248 1.388 . S
C1248 H1235 0.930 . S
C1248 C1247 1.388 . S
C1248 C1249 1.390 . S
C1249 C1248 1.390 . S
C1249 C1250 1.394 . S
C1249 C1255 1.465 . S
C1250 C1245 1.399 . S
C1250 C1249 1.394 . S
C1250 C1251 1.516 . S
C1251 C1250 1.516 . S
C1251 C1252 1.502 . S
C1251 C1253 1.561 . S
C1251 C1254 1.526 . S
C1252 H1236 0.959 . S
C1252 H1237 0.959 . S
C1252 H1238 0.961 . S
C1252 C1251 1.502 . S
C1253 H1239 0.960 . S
C1253 H1240 0.961 . S
C1253 H1241 0.959 . S
C1253 C1251 1.561 . S
C1254 C1251 1.526 . S
C1254 C1255 1.396 . S
C1254 C1259 1.390 . S
C1255 C1249 1.465 . S
C1255 C1254 1.396 . S
C1255 C1256 1.399 . S
C1256 H1242 0.929 1_554 S
C1256 C1255 1.399 . S
C1256 C1257 1.385 . S
C1257 H1243 0.931 1_554 S
C1257 C1256 1.385 . S
C1257 C1258 1.389 . S
C1258 C1257 1.389 . S
C1258 C1259 1.387 . S
C1259 H1244 0.930 . S
C1259 C1254 1.390 . S
C1259 C1258 1.387 . S
H1260 C1272 0.930 . S
H1261 C1274 0.930 . S
H1262 C1275 0.930 . S
H1263 C1279 0.959 . S
H1264 C1279 0.959 1_556 S
H1265 C1279 0.961 . S
H1266 C1280 0.960 . S
H1267 C1280 0.961 1_556 S
H1268 C1280 0.959 . S
H1269 C1283 0.929 . S
H1270 C1284 0.931 . S
H1271 C1286 0.930 . S
C1272 H1260 0.930 . S
C1272 C1273 1.399 . S
C1272 C1277 1.399 . S
C1273 C1272 1.399 . S
C1273 C1274 1.376 . S
C1274 H1261 0.930 . S
C1274 C1273 1.376 . S
C1274 C1275 1.388 . S
C1275 H1262 0.930 . S
C1275 C1274 1.388 . S
C1275 C1276 1.390 . S
C1276 C1275 1.390 . S
C1276 C1277 1.394 . S
C1276 C1282 1.465 . S
C1277 C1272 1.399 . S
C1277 C1276 1.394 . S
C1277 C1278 1.516 . S
C1278 C1277 1.516 . S
C1278 C1279 1.502 . S
C1278 C1280 1.561 . S
C1278 C1281 1.526 . S
C1279 H1263 0.959 . S
C1279 H1264 0.959 1_554 S
C1279 H1265 0.961 . S
C1279 C1278 1.502 . S
C1280 H1266 0.960 . S
C1280 H1267 0.961 1_554 S
C1280 H1268 0.959 . S
C1280 C1278 1.561 . S
C1281 C1278 1.526 . S
C1281 C1282 1.396 . S
C1281 C1286 1.390 . S
C1282 C1276 1.465 . S
C1282 C1281 1.396 . S
C1282 C1283 1.399 . S
C1283 H1269 0.929 . S
C1283 C1282 1.399 . S
C1283 C1284 1.385 . S
C1284 H1270 0.931 . S
C1284 C1283 1.385 . S
C1284 C1285 1.389 . S
C1285 C1284 1.389 . S
C1285 C1286 1.387 . S
C1286 H1271 0.930 . S
C1286 C1281 1.390 . S
C1286 C1285 1.387 . S
H1287 C1299 0.930 . S
H1288 C1301 0.930 . S
H1289 C1302 0.930 . S
H1290 C1306 0.959 . S
H1291 C1306 0.959 . S
H1292 C1306 0.961 . S
H1293 C1307 0.960 . S
H1294 C1307 0.961 . S
H1295 C1307 0.959 . S
H1296 C1310 0.929 1_556 S
H1297 C1311 0.931 1_556 S
H1298 C1313 0.930 . S
C1299 H1287 0.930 . S
C1299 C1300 1.399 . S
C1299 C1304 1.399 . S
C1300 C1299 1.399 . S
C1300 C1301 1.376 . S
C1301 H1288 0.930 . S
C1301 C1300 1.376 . S
C1301 C1302 1.388 . S
C1302 H1289 0.930 . S
C1302 C1301 1.388 . S
C1302 C1303 1.390 . S
C1303 C1302 1.390 . S
C1303 C1304 1.394 . S
C1303 C1309 1.465 . S
C1304 C1299 1.399 . S
C1304 C1303 1.394 . S
C1304 C1305 1.516 . S
C1305 C1304 1.516 . S
C1305 C1306 1.502 . S
C1305 C1307 1.561 . S
C1305 C1308 1.526 . S
C1306 H1290 0.959 . S
C1306 H1291 0.959 . S
C1306 H1292 0.961 . S
C1306 C1305 1.502 . S
C1307 H1293 0.960 . S
C1307 H1294 0.961 . S
C1307 H1295 0.959 . S
C1307 C1305 1.561 . S
C1308 C1305 1.526 . S
C1308 C1309 1.396 . S
C1308 C1313 1.390 . S
C1309 C1303 1.465 . S
C1309 C1308 1.396 . S
C1309 C1310 1.399 . S
C1310 H1296 0.929 1_554 S
C1310 C1309 1.399 . S
C1310 C1311 1.385 . S
C1311 H1297 0.931 1_554 S
C1311 C1310 1.385 . S
C1311 C1312 1.389 . S
C1312 C1311 1.389 . S
C1312 C1313 1.387 . S
C1313 H1298 0.930 . S
C1313 C1308 1.390 . S
C1313 C1312 1.387 . S
H1314 C1326 0.930 . S
H1315 C1328 0.930 . S
H1316 C1329 0.930 . S
H1317 C1333 0.959 . S
H1318 C1333 0.959 . S
H1319 C1333 0.961 1_655 S
H1320 C1334 0.960 . S
H1321 C1334 0.961 . S
H1322 C1334 0.959 . S
H1323 C1337 0.929 . S
H1324 C1338 0.931 . S
H1325 C1340 0.930 . S
C1326 H1314 0.930 . S
C1326 C1327 1.399 . S
C1326 C1331 1.399 . S
C1327 C1326 1.399 . S
C1327 C1328 1.376 . S
C1328 H1315 0.930 . S
C1328 C1327 1.376 . S
C1328 C1329 1.388 . S
C1329 H1316 0.930 . S
C1329 C1328 1.388 . S
C1329 C1330 1.390 . S
C1330 C1329 1.390 . S
C1330 C1331 1.394 . S
C1330 C1336 1.465 1_655 S
C1331 C1326 1.399 . S
C1331 C1330 1.394 . S
C1331 C1332 1.498 1_655 S
C1332 C1331 1.498 1_455 S
C1332 C1333 1.534 . S
C1332 C1334 1.529 1_455 S
C1332 C1335 1.542 . S
C1333 H1317 0.959 . S
C1333 H1318 0.959 . S
C1333 H1319 0.961 1_455 S
C1333 C1332 1.534 . S
C1334 H1320 0.960 . S
C1334 H1321 0.961 . S
C1334 H1322 0.959 . S
C1334 C1332 1.529 1_655 S
C1335 C1332 1.542 . S
C1335 C1336 1.396 . S
C1335 C1340 1.390 . S
C1336 C1330 1.465 1_455 S
C1336 C1335 1.396 . S
C1336 C1337 1.399 . S
C1337 H1323 0.929 . S
C1337 C1336 1.399 . S
C1337 C1338 1.385 . S
C1338 H1324 0.931 . S
C1338 C1337 1.385 . S
C1338 C1339 1.389 . S
C1339 C1338 1.389 . S
C1339 C1340 1.387 . S
C1340 H1325 0.930 . S
C1340 C1335 1.390 . S
C1340 C1339 1.387 . S
H1341 C1353 0.930 . S
H1342 C1355 0.930 . S
H1343 C1356 0.930 . S
H1344 C1360 0.959 . S
H1345 C1360 0.959 . S
H1346 C1360 0.961 . S
H1347 C1361 0.960 . S
H1348 C1361 0.961 . S
H1349 C1361 0.959 . S
H1350 C1364 0.929 . S
H1351 C1365 0.931 . S
H1352 C1367 0.930 . S
C1353 H1341 0.930 . S
C1353 C1354 1.399 . S
C1353 C1358 1.399 . S
C1354 C1353 1.399 . S
C1354 C1355 1.376 . S
C1355 H1342 0.930 . S
C1355 C1354 1.376 . S
C1355 C1356 1.388 . S
C1356 H1343 0.930 . S
C1356 C1355 1.388 . S
C1356 C1357 1.390 . S
C1357 C1356 1.390 . S
C1357 C1358 1.394 . S
C1357 C1363 1.465 . S
C1358 C1353 1.399 . S
C1358 C1357 1.394 . S
C1358 C1359 1.516 . S
C1359 C1358 1.516 . S
C1359 C1360 1.502 . S
C1359 C1361 1.561 . S
C1359 C1362 1.526 . S
C1360 H1344 0.959 . S
C1360 H1345 0.959 . S
C1360 H1346 0.961 . S
C1360 C1359 1.502 . S
C1361 H1347 0.960 . S
C1361 H1348 0.961 . S
C1361 H1349 0.959 . S
C1361 C1359 1.561 . S
C1362 C1359 1.526 . S
C1362 C1363 1.396 . S
C1362 C1367 1.390 . S
C1363 C1357 1.465 . S
C1363 C1362 1.396 . S
C1363 C1364 1.399 . S
C1364 H1350 0.929 . S
C1364 C1363 1.399 . S
C1364 C1365 1.385 . S
C1365 H1351 0.931 . S
C1365 C1364 1.385 . S
C1365 C1366 1.389 . S
C1366 C1365 1.389 . S
C1366 C1367 1.387 . S
C1367 H1352 0.930 . S
C1367 C1362 1.390 . S
C1367 C1366 1.387 . S
H1368 C1380 0.930 . S
H1369 C1382 0.930 . S
H1370 C1383 0.930 . S
H1371 C1387 0.959 . S
H1372 C1387 0.959 . S
H1373 C1387 0.961 1_545 S
H1374 C1388 0.960 . S
H1375 C1388 0.961 . S
H1376 C1388 0.959 . S
H1377 C1391 0.929 . S
H1378 C1392 0.931 . S
H1379 C1394 0.930 . S
C1380 H1368 0.930 . S
C1380 C1381 1.399 . S
C1380 C1385 1.399 . S
C1381 C1380 1.399 . S
C1381 C1382 1.376 . S
C1382 H1369 0.930 . S
C1382 C1381 1.376 . S
C1382 C1383 1.388 . S
C1383 H1370 0.930 . S
C1383 C1382 1.388 . S
C1383 C1384 1.390 . S
C1384 C1383 1.390 . S
C1384 C1385 1.394 . S
C1384 C1390 1.465 1_545 S
C1385 C1380 1.399 . S
C1385 C1384 1.394 . S
C1385 C1386 1.516 . S
C1386 C1385 1.516 . S
C1386 C1387 1.502 1_545 S
C1386 C1388 1.561 . S
C1386 C1389 1.526 1_545 S
C1387 H1371 0.959 . S
C1387 H1372 0.959 . S
C1387 H1373 0.961 1_565 S
C1387 C1386 1.502 1_565 S
C1388 H1374 0.960 . S
C1388 H1375 0.961 . S
C1388 H1376 0.959 . S
C1388 C1386 1.561 . S
C1389 C1386 1.526 1_565 S
C1389 C1390 1.396 . S
C1389 C1394 1.390 . S
C1390 C1384 1.465 1_565 S
C1390 C1389 1.396 . S
C1390 C1391 1.399 . S
C1391 H1377 0.929 . S
C1391 C1390 1.399 . S
C1391 C1392 1.385 . S
C1392 H1378 0.931 . S
C1392 C1391 1.385 . S
C1392 C1393 1.389 . S
C1393 C1392 1.389 . S
C1393 C1394 1.387 . S
C1394 H1379 0.930 . S
C1394 C1389 1.390 . S
C1394 C1393 1.387 . S
H1395 C1407 0.930 . S
H1396 C1409 0.930 . S
H1397 C1410 0.930 . S
H1398 C1414 0.959 . S
H1399 C1414 0.959 . S
H1400 C1414 0.961 . S
H1401 C1415 0.960 . S
H1402 C1415 0.961 . S
H1403 C1415 0.959 . S
H1404 C1418 0.929 . S
H1405 C1419 0.931 . S
H1406 C1421 0.930 . S
C1407 H1395 0.930 . S
C1407 C1408 1.399 . S
C1407 C1412 1.399 . S
C1408 C1407 1.399 . S
C1408 C1409 1.376 . S
C1409 H1396 0.930 . S
C1409 C1408 1.376 . S
C1409 C1410 1.388 . S
C1410 H1397 0.930 . S
C1410 C1409 1.388 . S
C1410 C1411 1.390 . S
C1411 C1410 1.390 . S
C1411 C1412 1.394 . S
C1411 C1417 1.465 . S
C1412 C1407 1.399 . S
C1412 C1411 1.394 . S
C1412 C1413 1.516 . S
C1413 C1412 1.516 . S
C1413 C1414 1.502 . S
C1413 C1415 1.561 . S
C1413 C1416 1.526 . S
C1414 H1398 0.959 . S
C1414 H1399 0.959 . S
C1414 H1400 0.961 . S
C1414 C1413 1.502 . S
C1415 H1401 0.960 . S
C1415 H1402 0.961 . S
C1415 H1403 0.959 . S
C1415 C1413 1.561 . S
C1416 C1413 1.526 . S
C1416 C1417 1.396 . S
C1416 C1421 1.390 . S
C1417 C1411 1.465 . S
C1417 C1416 1.396 . S
C1417 C1418 1.399 . S
C1418 H1404 0.929 . S
C1418 C1417 1.399 . S
C1418 C1419 1.385 . S
C1419 H1405 0.931 . S
C1419 C1418 1.385 . S
C1419 C1420 1.389 . S
C1420 C1419 1.389 . S
C1420 C1421 1.387 . S
C1421 H1406 0.930 . S
C1421 C1416 1.390 . S
C1421 C1420 1.387 . S
H1422 C1434 0.930 . S
H1423 C1436 0.930 . S
H1424 C1437 0.930 . S
H1425 C1441 0.959 . S
H1426 C1441 0.959 . S
H1427 C1441 0.961 . S
H1428 C1442 0.960 . S
H1429 C1442 0.961 . S
H1430 C1442 0.959 . S
H1431 C1445 0.929 . S
H1432 C1446 0.931 . S
H1433 C1448 0.930 . S
C1434 H1422 0.930 . S
C1434 C1435 1.399 . S
C1434 C1439 1.399 . S
C1435 C1434 1.399 . S
C1435 C1436 1.376 . S
C1436 H1423 0.930 . S
C1436 C1435 1.376 . S
C1436 C1437 1.388 . S
C1437 H1424 0.930 . S
C1437 C1436 1.388 . S
C1437 C1438 1.390 . S
C1438 C1437 1.390 . S
C1438 C1439 1.394 . S
C1438 C1444 1.465 . S
C1439 C1434 1.399 . S
C1439 C1438 1.394 . S
C1439 C1440 1.516 . S
C1440 C1439 1.516 . S
C1440 C1441 1.502 . S
C1440 C1442 1.561 . S
C1440 C1443 1.526 . S
C1441 H1425 0.959 . S
C1441 H1426 0.959 . S
C1441 H1427 0.961 . S
C1441 C1440 1.502 . S
C1442 H1428 0.960 . S
C1442 H1429 0.961 . S
C1442 H1430 0.959 . S
C1442 C1440 1.561 . S
C1443 C1440 1.526 . S
C1443 C1444 1.396 . S
C1443 C1448 1.390 . S
C1444 C1438 1.465 . S
C1444 C1443 1.396 . S
C1444 C1445 1.399 . S
C1445 H1431 0.929 . S
C1445 C1444 1.399 . S
C1445 C1446 1.385 . S
C1446 H1432 0.931 . S
C1446 C1445 1.385 . S
C1446 C1447 1.389 . S
C1447 C1446 1.389 . S
C1447 C1448 1.387 . S
C1448 H1433 0.930 . S
C1448 C1443 1.390 . S
C1448 C1447 1.387 . S
H1449 C1461 0.930 . S
H1450 C1463 0.930 . S
H1451 C1464 0.930 . S
H1452 C1468 0.959 . S
H1453 C1468 0.959 . S
H1454 C1468 0.961 . S
H1455 C1469 0.960 . S
H1456 C1469 0.961 . S
H1457 C1469 0.959 . S
H1458 C1472 0.929 . S
H1459 C1473 0.931 . S
H1460 C1475 0.930 . S
C1461 H1449 0.930 . S
C1461 C1462 1.399 . S
C1461 C1466 1.399 . S
C1462 C1461 1.399 . S
C1462 C1463 1.376 . S
C1463 H1450 0.930 . S
C1463 C1462 1.376 . S
C1463 C1464 1.388 . S
C1464 H1451 0.930 . S
C1464 C1463 1.388 . S
C1464 C1465 1.390 . S
C1465 C1464 1.390 . S
C1465 C1466 1.394 . S
C1465 C1471 1.465 . S
C1466 C1461 1.399 . S
C1466 C1465 1.394 . S
C1466 C1467 1.516 . S
C1467 C1466 1.516 . S
C1467 C1468 1.502 . S
C1467 C1469 1.561 . S
C1467 C1470 1.526 . S
C1468 H1452 0.959 . S
C1468 H1453 0.959 . S
C1468 H1454 0.961 . S
C1468 C1467 1.502 . S
C1469 H1455 0.960 . S
C1469 H1456 0.961 . S
C1469 H1457 0.959 . S
C1469 C1467 1.561 . S
C1470 C1467 1.526 . S
C1470 C1471 1.396 . S
C1470 C1475 1.390 . S
C1471 C1465 1.465 . S
C1471 C1470 1.396 . S
C1471 C1472 1.399 . S
C1472 H1458 0.929 . S
C1472 C1471 1.399 . S
C1472 C1473 1.385 . S
C1473 H1459 0.931 . S
C1473 C1472 1.385 . S
C1473 C1474 1.389 . S
C1474 C1473 1.389 . S
C1474 C1475 1.387 . S
C1475 H1460 0.930 . S
C1475 C1470 1.390 . S
C1475 C1474 1.387 . S
H1476 C1488 0.930 . S
H1477 C1490 0.930 . S
H1478 C1491 0.930 . S
H1479 C1495 0.959 . S
H1480 C1495 0.959 . S
H1481 C1495 0.961 . S
H1482 C1496 0.960 . S
H1483 C1496 0.961 . S
H1484 C1496 0.959 . S
H1485 C1499 0.929 . S
H1486 C1500 0.931 . S
H1487 C1502 0.930 . S
C1488 H1476 0.930 . S
C1488 C1489 1.399 . S
C1488 C1493 1.399 . S
C1489 C1488 1.399 . S
C1489 C1490 1.376 . S
C1490 H1477 0.930 . S
C1490 C1489 1.376 . S
C1490 C1491 1.388 . S
C1491 H1478 0.930 . S
C1491 C1490 1.388 . S
C1491 C1492 1.390 . S
C1492 C1491 1.390 . S
C1492 C1493 1.394 . S
C1492 C1498 1.465 . S
C1493 C1488 1.399 . S
C1493 C1492 1.394 . S
C1493 C1494 1.516 . S
C1494 C1493 1.516 . S
C1494 C1495 1.502 . S
C1494 C1496 1.561 . S
C1494 C1497 1.526 . S
C1495 H1479 0.959 . S
C1495 H1480 0.959 . S
C1495 H1481 0.961 . S
C1495 C1494 1.502 . S
C1496 H1482 0.960 . S
C1496 H1483 0.961 . S
C1496 H1484 0.959 . S
C1496 C1494 1.561 . S
C1497 C1494 1.526 . S
C1497 C1498 1.396 . S
C1497 C1502 1.390 . S
C1498 C1492 1.465 . S
C1498 C1497 1.396 . S
C1498 C1499 1.399 . S
C1499 H1485 0.929 . S
C1499 C1498 1.399 . S
C1499 C1500 1.385 . S
C1500 H1486 0.931 . S
C1500 C1499 1.385 . S
C1500 C1501 1.389 . S
C1501 C1500 1.389 . S
C1501 C1502 1.387 . S
C1502 H1487 0.930 . S
C1502 C1497 1.390 . S
C1502 C1501 1.387 . S
H1503 C1515 0.930 . S
H1504 C1517 0.930 . S
H1505 C1518 0.930 . S
H1506 C1522 0.959 . S
H1507 C1522 0.959 . S
H1508 C1522 0.961 . S
H1509 C1523 0.960 . S
H1510 C1523 0.961 . S
H1511 C1523 0.959 . S
H1512 C1526 0.929 . S
H1513 C1527 0.931 . S
H1514 C1529 0.930 . S
C1515 H1503 0.930 . S
C1515 C1516 1.399 . S
C1515 C1520 1.399 . S
C1516 C1515 1.399 . S
C1516 C1517 1.376 . S
C1517 H1504 0.930 . S
C1517 C1516 1.376 . S
C1517 C1518 1.388 . S
C1518 H1505 0.930 . S
C1518 C1517 1.388 . S
C1518 C1519 1.390 . S
C1519 C1518 1.390 . S
C1519 C1520 1.394 . S
C1519 C1525 1.465 . S
C1520 C1515 1.399 . S
C1520 C1519 1.394 . S
C1520 C1521 1.516 . S
C1521 C1520 1.516 . S
C1521 C1522 1.502 . S
C1521 C1523 1.561 . S
C1521 C1524 1.526 . S
C1522 H1506 0.959 . S
C1522 H1507 0.959 . S
C1522 H1508 0.961 . S
C1522 C1521 1.502 . S
C1523 H1509 0.960 . S
C1523 H1510 0.961 . S
C1523 H1511 0.959 . S
C1523 C1521 1.561 . S
C1524 C1521 1.526 . S
C1524 C1525 1.396 . S
C1524 C1529 1.390 . S
C1525 C1519 1.465 . S
C1525 C1524 1.396 . S
C1525 C1526 1.399 . S
C1526 H1512 0.929 . S
C1526 C1525 1.399 . S
C1526 C1527 1.385 . S
C1527 H1513 0.931 . S
C1527 C1526 1.385 . S
C1527 C1528 1.389 . S
C1528 C1527 1.389 . S
C1528 C1529 1.387 . S
C1529 H1514 0.930 . S
C1529 C1524 1.390 . S
C1529 C1528 1.387 . S
H1530 C1542 0.930 . S
H1531 C1544 0.930 . S
H1532 C1545 0.930 . S
H1533 C1549 0.959 . S
H1534 C1549 0.959 . S
H1535 C1549 0.961 . S
H1536 C1550 0.960 . S
H1537 C1550 0.961 . S
H1538 C1550 0.959 . S
H1539 C1553 0.929 . S
H1540 C1554 0.931 . S
H1541 C1556 0.930 . S
C1542 H1530 0.930 . S
C1542 C1543 1.399 . S
C1542 C1547 1.399 . S
C1543 C1542 1.399 . S
C1543 C1544 1.376 . S
C1544 H1531 0.930 . S
C1544 C1543 1.376 . S
C1544 C1545 1.388 . S
C1545 H1532 0.930 . S
C1545 C1544 1.388 . S
C1545 C1546 1.390 . S
C1546 C1545 1.390 . S
C1546 C1547 1.394 . S
C1546 C1552 1.465 . S
C1547 C1542 1.399 . S
C1547 C1546 1.394 . S
C1547 C1548 1.516 . S
C1548 C1547 1.516 . S
C1548 C1549 1.502 . S
C1548 C1550 1.561 . S
C1548 C1551 1.526 . S
C1549 H1533 0.959 . S
C1549 H1534 0.959 . S
C1549 H1535 0.961 . S
C1549 C1548 1.502 . S
C1550 H1536 0.960 . S
C1550 H1537 0.961 . S
C1550 H1538 0.959 . S
C1550 C1548 1.561 . S
C1551 C1548 1.526 . S
C1551 C1552 1.396 . S
C1551 C1556 1.390 . S
C1552 C1546 1.465 . S
C1552 C1551 1.396 . S
C1552 C1553 1.399 . S
C1553 H1539 0.929 . S
C1553 C1552 1.399 . S
C1553 C1554 1.385 . S
C1554 H1540 0.931 . S
C1554 C1553 1.385 . S
C1554 C1555 1.389 . S
C1555 C1554 1.389 . S
C1555 C1556 1.387 . S
C1556 H1541 0.930 . S
C1556 C1551 1.390 . S
C1556 C1555 1.387 . S
H1557 C1569 0.930 . S
H1558 C1571 0.930 . S
H1559 C1572 0.930 . S
H1560 C1576 0.959 . S
H1561 C1576 0.959 . S
H1562 C1576 0.961 . S
H1563 C1577 0.960 . S
H1564 C1577 0.961 . S
H1565 C1577 0.959 . S
H1566 C1580 0.929 . S
H1567 C1581 0.931 . S
H1568 C1583 0.930 . S
C1569 H1557 0.930 . S
C1569 C1570 1.399 . S
C1569 C1574 1.399 1_545 S
C1570 C1569 1.399 . S
C1570 C1571 1.376 . S
C1571 H1558 0.930 . S
C1571 C1570 1.376 . S
C1571 C1572 1.388 1_545 S
C1572 H1559 0.930 . S
C1572 C1571 1.388 1_565 S
C1572 C1573 1.390 . S
C1573 C1572 1.390 . S
C1573 C1574 1.394 . S
C1573 C1579 1.465 . S
C1574 C1569 1.399 1_565 S
C1574 C1573 1.394 . S
C1574 C1575 1.516 . S
C1575 C1574 1.516 . S
C1575 C1576 1.502 . S
C1575 C1577 1.561 . S
C1575 C1578 1.526 . S
C1576 H1560 0.959 . S
C1576 H1561 0.959 . S
C1576 H1562 0.961 . S
C1576 C1575 1.502 . S
C1577 H1563 0.960 . S
C1577 H1564 0.961 . S
C1577 H1565 0.959 . S
C1577 C1575 1.561 . S
C1578 C1575 1.526 . S
C1578 C1579 1.396 . S
C1578 C1583 1.390 . S
C1579 C1573 1.465 . S
C1579 C1578 1.396 . S
C1579 C1580 1.399 . S
C1580 H1566 0.929 . S
C1580 C1579 1.399 . S
C1580 C1581 1.385 . S
C1581 H1567 0.931 . S
C1581 C1580 1.385 . S
C1581 C1582 1.389 . S
C1582 C1581 1.389 . S
C1582 C1583 1.387 . S
C1583 H1568 0.930 . S
C1583 C1578 1.390 . S
C1583 C1582 1.387 . S
H1584 C1596 0.930 . S
H1585 C1598 0.930 . S
H1586 C1599 0.930 . S
H1587 C1603 0.959 . S
H1588 C1603 0.959 . S
H1589 C1603 0.961 . S
H1590 C1604 0.960 . S
H1591 C1604 0.961 . S
H1592 C1604 0.959 . S
H1593 C1607 0.929 . S
H1594 C1608 0.931 . S
H1595 C1610 0.930 . S
C1596 H1584 0.930 . S
C1596 C1597 1.399 1_455 S
C1596 C1601 1.399 . S
C1597 C1596 1.399 1_655 S
C1597 C1598 1.376 . S
C1598 H1585 0.930 . S
C1598 C1597 1.376 . S
C1598 C1599 1.388 1_655 S
C1599 H1586 0.930 . S
C1599 C1598 1.388 1_455 S
C1599 C1600 1.390 . S
C1600 C1599 1.390 . S
C1600 C1601 1.394 . S
C1600 C1606 1.465 . S
C1601 C1596 1.399 . S
C1601 C1600 1.394 . S
C1601 C1602 1.516 . S
C1602 C1601 1.516 . S
C1602 C1603 1.502 . S
C1602 C1604 1.561 . S
C1602 C1605 1.526 . S
C1603 H1587 0.959 . S
C1603 H1588 0.959 . S
C1603 H1589 0.961 . S
C1603 C1602 1.502 . S
C1604 H1590 0.960 . S
C1604 H1591 0.961 . S
C1604 H1592 0.959 . S
C1604 C1602 1.561 . S
C1605 C1602 1.526 . S
C1605 C1606 1.396 . S
C1605 C1610 1.390 . S
C1606 C1600 1.465 . S
C1606 C1605 1.396 . S
C1606 C1607 1.399 . S
C1607 H1593 0.929 . S
C1607 C1606 1.399 . S
C1607 C1608 1.385 . S
C1608 H1594 0.931 . S
C1608 C1607 1.385 . S
C1608 C1609 1.389 . S
C1609 C1608 1.389 . S
C1609 C1610 1.387 . S
C1610 H1595 0.930 . S
C1610 C1605 1.390 . S
C1610 C1609 1.387 . S
H1611 C1623 0.930 . S
H1612 C1625 0.930 . S
H1613 C1626 0.930 . S
H1614 C1630 0.959 . S
H1615 C1630 0.959 . S
H1616 C1630 0.961 . S
H1617 C1631 0.960 . S
H1618 C1631 0.961 . S
H1619 C1631 0.959 . S
H1620 C1634 0.929 . S
H1621 C1635 0.931 . S
H1622 C1637 0.930 . S
C1623 H1611 0.930 . S
C1623 C1624 1.399 . S
C1623 C1628 1.399 . S
C1624 C1623 1.399 . S
C1624 C1625 1.376 . S
C1625 H1612 0.930 . S
C1625 C1624 1.376 . S
C1625 C1626 1.388 . S
C1626 H1613 0.930 . S
C1626 C1625 1.388 . S
C1626 C1627 1.390 . S
C1627 C1626 1.390 . S
C1627 C1628 1.394 . S
C1627 C1633 1.465 . S
C1628 C1623 1.399 . S
C1628 C1627 1.394 . S
C1628 C1629 1.516 . S
C1629 C1628 1.516 . S
C1629 C1630 1.502 . S
C1629 C1631 1.561 . S
C1629 C1632 1.526 . S
C1630 H1614 0.959 . S
C1630 H1615 0.959 . S
C1630 H1616 0.961 . S
C1630 C1629 1.502 . S
C1631 H1617 0.960 . S
C1631 H1618 0.961 . S
C1631 H1619 0.959 . S
C1631 C1629 1.561 . S
C1632 C1629 1.526 . S
C1632 C1633 1.396 . S
C1632 C1637 1.390 . S
C1633 C1627 1.465 . S
C1633 C1632 1.396 . S
C1633 C1634 1.399 . S
C1634 H1620 0.929 . S
C1634 C1633 1.399 . S
C1634 C1635 1.385 . S
C1635 H1621 0.931 . S
C1635 C1634 1.385 . S
C1635 C1636 1.389 . S
C1636 C1635 1.389 . S
C1636 C1637 1.387 . S
C1637 H1622 0.930 . S
C1637 C1632 1.390 . S
C1637 C1636 1.387 . S
H1638 C1650 0.930 . S
H1639 C1652 0.930 . S
H1640 C1653 0.930 . S
H1641 C1657 0.959 . S
H1642 C1657 0.959 . S
H1643 C1657 0.961 . S
H1644 C1658 0.960 . S
H1645 C1658 0.961 . S
H1646 C1658 0.959 . S
H1647 C1661 0.929 . S
H1648 C1662 0.931 . S
H1649 C1664 0.930 . S
C1650 H1638 0.930 . S
C1650 C1651 1.399 . S
C1650 C1655 1.399 . S
C1651 C1650 1.399 . S
C1651 C1652 1.376 . S
C1652 H1639 0.930 . S
C1652 C1651 1.376 . S
C1652 C1653 1.388 . S
C1653 H1640 0.930 . S
C1653 C1652 1.388 . S
C1653 C1654 1.390 . S
C1654 C1653 1.390 . S
C1654 C1655 1.394 . S
C1654 C1660 1.465 . S
C1655 C1650 1.399 . S
C1655 C1654 1.394 . S
C1655 C1656 1.516 . S
C1656 C1655 1.516 . S
C1656 C1657 1.502 . S
C1656 C1658 1.561 . S
C1656 C1659 1.526 . S
C1657 H1641 0.959 . S
C1657 H1642 0.959 . S
C1657 H1643 0.961 . S
C1657 C1656 1.502 . S
C1658 H1644 0.960 . S
C1658 H1645 0.961 . S
C1658 H1646 0.959 . S
C1658 C1656 1.561 . S
C1659 C1656 1.526 . S
C1659 C1660 1.396 . S
C1659 C1664 1.390 . S
C1660 C1654 1.465 . S
C1660 C1659 1.396 . S
C1660 C1661 1.399 . S
C1661 H1647 0.929 . S
C1661 C1660 1.399 . S
C1661 C1662 1.385 . S
C1662 H1648 0.931 . S
C1662 C1661 1.385 . S
C1662 C1663 1.389 . S
C1663 C1662 1.389 . S
C1663 C1664 1.387 . S
C1664 H1649 0.930 . S
C1664 C1659 1.390 . S
C1664 C1663 1.387 . S
H1665 C1677 0.930 . S
H1666 C1679 0.930 . S
H1667 C1680 0.930 . S
H1668 C1684 0.959 . S
H1669 C1684 0.959 . S
H1670 C1684 0.961 . S
H1671 C1685 0.960 . S
H1672 C1685 0.961 . S
H1673 C1685 0.959 . S
H1674 C1688 0.929 . S
H1675 C1689 0.931 . S
H1676 C1691 0.930 . S
C1677 H1665 0.930 . S
C1677 C1678 1.399 . S
C1677 C1682 1.399 . S
C1678 C1677 1.399 . S
C1678 C1679 1.376 . S
C1679 H1666 0.930 . S
C1679 C1678 1.376 . S
C1679 C1680 1.388 . S
C1680 H1667 0.930 . S
C1680 C1679 1.388 . S
C1680 C1681 1.390 . S
C1681 C1680 1.390 . S
C1681 C1682 1.394 . S
C1681 C1687 1.465 . S
C1682 C1677 1.399 . S
C1682 C1681 1.394 . S
C1682 C1683 1.516 . S
C1683 C1682 1.516 . S
C1683 C1684 1.502 . S
C1683 C1685 1.561 . S
C1683 C1686 1.526 . S
C1684 H1668 0.959 . S
C1684 H1669 0.959 . S
C1684 H1670 0.961 . S
C1684 C1683 1.502 . S
C1685 H1671 0.960 . S
C1685 H1672 0.961 . S
C1685 H1673 0.959 . S
C1685 C1683 1.561 . S
C1686 C1683 1.526 . S
C1686 C1687 1.396 . S
C1686 C1691 1.390 . S
C1687 C1681 1.465 . S
C1687 C1686 1.396 . S
C1687 C1688 1.399 . S
C1688 H1674 0.929 . S
C1688 C1687 1.399 . S
C1688 C1689 1.385 . S
C1689 H1675 0.931 . S
C1689 C1688 1.385 . S
C1689 C1690 1.389 . S
C1690 C1689 1.389 . S
C1690 C1691 1.387 . S
C1691 H1676 0.930 . S
C1691 C1686 1.390 . S
C1691 C1690 1.387 . S
H1692 C1704 0.930 . S
H1693 C1706 0.930 . S
H1694 C1707 0.930 . S
H1695 C1711 0.959 . S
H1696 C1711 0.959 . S
H1697 C1711 0.961 . S
H1698 C1712 0.960 . S
H1699 C1712 0.961 . S
H1700 C1712 0.959 . S
H1701 C1715 0.929 . S
H1702 C1716 0.931 . S
H1703 C1718 0.930 . S
C1704 H1692 0.930 . S
C1704 C1705 1.399 . S
C1704 C1709 1.399 . S
C1705 C1704 1.399 . S
C1705 C1706 1.376 . S
C1706 H1693 0.930 . S
C1706 C1705 1.376 . S
C1706 C1707 1.388 . S
C1707 H1694 0.930 . S
C1707 C1706 1.388 . S
C1707 C1708 1.390 . S
C1708 C1707 1.390 . S
C1708 C1709 1.394 . S
C1708 C1714 1.465 . S
C1709 C1704 1.399 . S
C1709 C1708 1.394 . S
C1709 C1710 1.516 . S
C1710 C1709 1.516 . S
C1710 C1711 1.502 . S
C1710 C1712 1.561 . S
C1710 C1713 1.526 . S
C1711 H1695 0.959 . S
C1711 H1696 0.959 . S
C1711 H1697 0.961 . S
C1711 C1710 1.502 . S
C1712 H1698 0.960 . S
C1712 H1699 0.961 . S
C1712 H1700 0.959 . S
C1712 C1710 1.561 . S
C1713 C1710 1.526 . S
C1713 C1714 1.396 . S
C1713 C1718 1.390 . S
C1714 C1708 1.465 . S
C1714 C1713 1.396 . S
C1714 C1715 1.399 . S
C1715 H1701 0.929 . S
C1715 C1714 1.399 . S
C1715 C1716 1.385 . S
C1716 H1702 0.931 . S
C1716 C1715 1.385 . S
C1716 C1717 1.389 . S
C1717 C1716 1.389 . S
C1717 C1718 1.387 . S
C1718 H1703 0.930 . S
C1718 C1713 1.390 . S
C1718 C1717 1.387 . S
H1719 C1731 0.930 . S
H1720 C1733 0.930 . S
H1721 C1734 0.930 . S
H1722 C1738 0.959 . S
H1723 C1738 0.959 . S
H1724 C1738 0.961 1_565 S
H1725 C1739 0.960 . S
H1726 C1739 0.961 . S
H1727 C1739 0.959 . S
H1728 C1742 0.929 . S
H1729 C1743 0.931 . S
H1730 C1745 0.930 . S
C1731 H1719 0.930 . S
C1731 C1732 1.399 . S
C1731 C1736 1.399 . S
C1732 C1731 1.399 . S
C1732 C1733 1.376 . S
C1733 H1720 0.930 . S
C1733 C1732 1.376 . S
C1733 C1734 1.388 . S
C1734 H1721 0.930 . S
C1734 C1733 1.388 . S
C1734 C1735 1.390 . S
C1735 C1734 1.390 . S
C1735 C1736 1.394 . S
C1735 C1741 1.465 1_565 S
C1736 C1731 1.399 . S
C1736 C1735 1.394 . S
C1736 C1737 1.516 1_565 S
C1737 C1736 1.516 1_545 S
C1737 C1738 1.502 . S
C1737 C1739 1.561 1_545 S
C1737 C1740 1.526 . S
C1738 H1722 0.959 . S
C1738 H1723 0.959 . S
C1738 H1724 0.961 1_545 S
C1738 C1737 1.502 . S
C1739 H1725 0.960 . S
C1739 H1726 0.961 . S
C1739 H1727 0.959 . S
C1739 C1737 1.561 1_565 S
C1740 C1737 1.526 . S
C1740 C1741 1.396 . S
C1740 C1745 1.390 . S
C1741 C1735 1.465 1_545 S
C1741 C1740 1.396 . S
C1741 C1742 1.399 . S
C1742 H1728 0.929 . S
C1742 C1741 1.399 . S
C1742 C1743 1.385 . S
C1743 H1729 0.931 . S
C1743 C1742 1.385 . S
C1743 C1744 1.389 . S
C1744 C1743 1.389 . S
C1744 C1745 1.387 . S
C1745 H1730 0.930 . S
C1745 C1740 1.390 . S
C1745 C1744 1.387 . S
H1746 C1758 0.930 . S
H1747 C1760 0.930 . S
H1748 C1761 0.930 . S
H1749 C1765 0.959 . S
H1750 C1765 0.959 . S
H1751 C1765 0.961 . S
H1752 C1766 0.960 . S
H1753 C1766 0.961 . S
H1754 C1766 0.959 . S
H1755 C1769 0.929 1_455 S
H1756 C1770 0.931 . S
H1757 C1772 0.930 . S
C1758 H1746 0.930 . S
C1758 C1759 1.399 . S
C1758 C1763 1.399 . S
C1759 C1758 1.399 . S
C1759 C1760 1.376 . S
C1760 H1747 0.930 . S
C1760 C1759 1.376 . S
C1760 C1761 1.388 . S
C1761 H1748 0.930 . S
C1761 C1760 1.388 . S
C1761 C1762 1.390 . S
C1762 C1761 1.390 . S
C1762 C1763 1.394 . S
C1762 C1768 1.465 1_455 S
C1763 C1758 1.399 . S
C1763 C1762 1.394 . S
C1763 C1764 1.516 1_455 S
C1764 C1763 1.516 1_655 S
C1764 C1765 1.502 . S
C1764 C1766 1.561 . S
C1764 C1767 1.526 . S
C1765 H1749 0.959 . S
C1765 H1750 0.959 . S
C1765 H1751 0.961 . S
C1765 C1764 1.502 . S
C1766 H1752 0.960 . S
C1766 H1753 0.961 . S
C1766 H1754 0.959 . S
C1766 C1764 1.561 . S
C1767 C1764 1.526 . S
C1767 C1768 1.396 . S
C1767 C1772 1.390 . S
C1768 C1762 1.465 1_655 S
C1768 C1767 1.396 . S
C1768 C1769 1.399 . S
C1769 H1755 0.929 1_655 S
C1769 C1768 1.399 . S
C1769 C1770 1.385 . S
C1770 H1756 0.931 . S
C1770 C1769 1.385 . S
C1770 C1771 1.389 . S
C1771 C1770 1.389 . S
C1771 C1772 1.387 . S
C1772 H1757 0.930 . S
C1772 C1767 1.390 . S
C1772 C1771 1.387 . S
H1773 C1785 0.930 . S
H1774 C1787 0.930 . S
H1775 C1788 0.930 . S
H1776 C1792 0.959 . S
H1777 C1792 0.959 . S
H1778 C1792 0.961 . S
H1779 C1793 0.960 . S
H1780 C1793 0.961 . S
H1781 C1793 0.959 . S
H1782 C1796 0.929 . S
H1783 C1797 0.931 . S
H1784 C1799 0.930 . S
C1785 H1773 0.930 . S
C1785 C1786 1.399 . S
C1785 C1790 1.399 . S
C1786 C1785 1.399 . S
C1786 C1787 1.376 . S
C1787 H1774 0.930 . S
C1787 C1786 1.376 . S
C1787 C1788 1.388 . S
C1788 H1775 0.930 . S
C1788 C1787 1.388 . S
C1788 C1789 1.390 . S
C1789 C1788 1.390 . S
C1789 C1790 1.394 . S
C1789 C1795 1.465 . S
C1790 C1785 1.399 . S
C1790 C1789 1.394 . S
C1790 C1791 1.516 . S
C1791 C1790 1.516 . S
C1791 C1792 1.502 . S
C1791 C1793 1.561 . S
C1791 C1794 1.526 . S
C1792 H1776 0.959 . S
C1792 H1777 0.959 . S
C1792 H1778 0.961 . S
C1792 C1791 1.502 . S
C1793 H1779 0.960 . S
C1793 H1780 0.961 . S
C1793 H1781 0.959 . S
C1793 C1791 1.561 . S
C1794 C1791 1.526 . S
C1794 C1795 1.396 . S
C1794 C1799 1.390 . S
C1795 C1789 1.465 . S
C1795 C1794 1.396 . S
C1795 C1796 1.399 . S
C1796 H1782 0.929 . S
C1796 C1795 1.399 . S
C1796 C1797 1.385 . S
C1797 H1783 0.931 . S
C1797 C1796 1.385 . S
C1797 C1798 1.389 . S
C1798 C1797 1.389 . S
C1798 C1799 1.387 . S
C1799 H1784 0.930 . S
C1799 C1794 1.390 . S
C1799 C1798 1.387 . S
H1800 C1812 0.930 . S
H1801 C1814 0.930 1_455 S
H1802 C1815 0.930 . S
H1803 C1819 0.959 . S
H1804 C1819 0.959 . S
H1805 C1819 0.961 . S
H1806 C1820 0.960 . S
H1807 C1820 0.961 . S
H1808 C1820 0.959 . S
H1809 C1823 0.929 . S
H1810 C1824 0.931 . S
H1811 C1826 0.930 . S
C1812 H1800 0.930 . S
C1812 C1813 1.399 . S
C1812 C1817 1.399 1_455 S
C1813 C1812 1.399 . S
C1813 C1814 1.376 1_455 S
C1814 H1801 0.930 1_655 S
C1814 C1813 1.376 1_655 S
C1814 C1815 1.388 . S
C1815 H1802 0.930 . S
C1815 C1814 1.388 . S
C1815 C1816 1.390 . S
C1816 C1815 1.390 . S
C1816 C1817 1.394 . S
C1816 C1822 1.465 . S
C1817 C1812 1.399 1_655 S
C1817 C1816 1.394 . S
C1817 C1818 1.516 . S
C1818 C1817 1.516 . S
C1818 C1819 1.502 . S
C1818 C1820 1.561 . S
C1818 C1821 1.526 . S
C1819 H1803 0.959 . S
C1819 H1804 0.959 . S
C1819 H1805 0.961 . S
C1819 C1818 1.502 . S
C1820 H1806 0.960 . S
C1820 H1807 0.961 . S
C1820 H1808 0.959 . S
C1820 C1818 1.561 . S
C1821 C1818 1.526 . S
C1821 C1822 1.396 . S
C1821 C1826 1.390 . S
C1822 C1816 1.465 . S
C1822 C1821 1.396 . S
C1822 C1823 1.399 . S
C1823 H1809 0.929 . S
C1823 C1822 1.399 . S
C1823 C1824 1.385 . S
C1824 H1810 0.931 . S
C1824 C1823 1.385 . S
C1824 C1825 1.389 . S
C1825 C1824 1.389 . S
C1825 C1826 1.387 . S
C1826 H1811 0.930 . S
C1826 C1821 1.390 . S
C1826 C1825 1.387 . S
H1827 C1839 0.930 . S
H1828 C1841 0.930 . S
H1829 C1842 0.930 . S
H1830 C1846 0.959 . S
H1831 C1846 0.959 . S
H1832 C1846 0.961 . S
H1833 C1847 0.960 . S
H1834 C1847 0.961 . S
H1835 C1847 0.959 . S
H1836 C1850 0.929 . S
H1837 C1851 0.931 . S
H1838 C1853 0.930 . S
C1839 H1827 0.930 . S
C1839 C1840 1.399 . S
C1839 C1844 1.399 . S
C1840 C1839 1.399 . S
C1840 C1841 1.376 . S
C1841 H1828 0.930 . S
C1841 C1840 1.376 . S
C1841 C1842 1.388 . S
C1842 H1829 0.930 . S
C1842 C1841 1.388 . S
C1842 C1843 1.390 . S
C1843 C1842 1.390 . S
C1843 C1844 1.394 . S
C1843 C1849 1.465 . S
C1844 C1839 1.399 . S
C1844 C1843 1.394 . S
C1844 C1845 1.516 . S
C1845 C1844 1.516 . S
C1845 C1846 1.502 . S
C1845 C1847 1.561 . S
C1845 C1848 1.526 . S
C1846 H1830 0.959 . S
C1846 H1831 0.959 . S
C1846 H1832 0.961 . S
C1846 C1845 1.502 . S
C1847 H1833 0.960 . S
C1847 H1834 0.961 . S
C1847 H1835 0.959 . S
C1847 C1845 1.561 . S
C1848 C1845 1.526 . S
C1848 C1849 1.396 . S
C1848 C1853 1.390 . S
C1849 C1843 1.465 . S
C1849 C1848 1.396 . S
C1849 C1850 1.399 . S
C1850 H1836 0.929 . S
C1850 C1849 1.399 . S
C1850 C1851 1.385 . S
C1851 H1837 0.931 . S
C1851 C1850 1.385 . S
C1851 C1852 1.389 . S
C1852 C1851 1.389 . S
C1852 C1853 1.387 . S
C1853 H1838 0.930 . S
C1853 C1848 1.390 . S
C1853 C1852 1.387 . S
H1854 C1866 0.913 1_565 S
H1855 C1868 0.930 1_565 S
H1856 C1869 0.930 . S
H1857 C1873 0.959 . S
H1858 C1873 0.959 . S
H1859 C1873 0.961 . S
H1860 C1874 0.960 . S
H1861 C1874 0.961 . S
H1862 C1874 0.959 . S
H1863 C1877 0.929 . S
H1864 C1878 0.931 . S
H1865 C1880 0.930 . S
C1866 H1854 0.913 1_545 S
C1866 C1867 1.374 1_545 S
C1866 C1871 1.443 . S
C1867 C1866 1.374 1_565 S
C1867 C1868 1.376 1_565 S
C1868 H1855 0.930 1_545 S
C1868 C1867 1.376 1_545 S
C1868 C1869 1.388 . S
C1869 H1856 0.930 . S
C1869 C1868 1.388 . S
C1869 C1870 1.390 . S
C1870 C1869 1.390 . S
C1870 C1871 1.394 . S
C1870 C1876 1.465 . S
C1871 C1866 1.443 . S
C1871 C1870 1.394 . S
C1871 C1872 1.516 . S
C1872 C1871 1.516 . S
C1872 C1873 1.502 . S
C1872 C1874 1.561 . S
C1872 C1875 1.526 . S
C1873 H1857 0.959 . S
C1873 H1858 0.959 . S
C1873 H1859 0.961 . S
C1873 C1872 1.502 . S
C1874 H1860 0.960 . S
C1874 H1861 0.961 . S
C1874 H1862 0.959 . S
C1874 C1872 1.561 . S
C1875 C1872 1.526 . S
C1875 C1876 1.396 . S
C1875 C1880 1.390 . S
C1876 C1870 1.465 . S
C1876 C1875 1.396 . S
C1876 C1877 1.399 . S
C1877 H1863 0.929 . S
C1877 C1876 1.399 . S
C1877 C1878 1.385 . S
C1878 H1864 0.931 . S
C1878 C1877 1.385 . S
C1878 C1879 1.389 . S
C1879 C1878 1.389 . S
C1879 C1880 1.387 . S
C1880 H1865 0.930 . S
C1880 C1875 1.390 . S
C1880 C1879 1.387 . S
H1881 C1893 0.930 . S
H1882 C1895 0.930 . S
H1883 C1896 0.930 . S
H1884 C1900 0.959 . S
H1885 C1900 0.959 . S
H1886 C1900 0.961 . S
H1887 C1901 0.960 . S
H1888 C1901 0.961 . S
H1889 C1901 0.959 . S
H1890 C1904 0.929 . S
H1891 C1905 0.931 . S
H1892 C1907 0.930 . S
C1893 H1881 0.930 . S
C1893 C1894 1.399 . S
C1893 C1898 1.399 . S
C1894 C1893 1.399 . S
C1894 C1895 1.376 . S
C1895 H1882 0.930 . S
C1895 C1894 1.376 . S
C1895 C1896 1.388 . S
C1896 H1883 0.930 . S
C1896 C1895 1.388 . S
C1896 C1897 1.390 . S
C1897 C1896 1.390 . S
C1897 C1898 1.394 . S
C1897 C1903 1.465 . S
C1898 C1893 1.399 . S
C1898 C1897 1.394 . S
C1898 C1899 1.516 . S
C1899 C1898 1.516 . S
C1899 C1900 1.502 . S
C1899 C1901 1.561 . S
C1899 C1902 1.526 . S
C1900 H1884 0.959 . S
C1900 H1885 0.959 . S
C1900 H1886 0.961 . S
C1900 C1899 1.502 . S
C1901 H1887 0.960 . S
C1901 H1888 0.961 . S
C1901 H1889 0.959 . S
C1901 C1899 1.561 . S
C1902 C1899 1.526 . S
C1902 C1903 1.396 . S
C1902 C1907 1.390 . S
C1903 C1897 1.465 . S
C1903 C1902 1.396 . S
C1903 C1904 1.399 . S
C1904 H1890 0.929 . S
C1904 C1903 1.399 . S
C1904 C1905 1.385 . S
C1905 H1891 0.931 . S
C1905 C1904 1.385 . S
C1905 C1906 1.389 . S
C1906 C1905 1.389 . S
C1906 C1907 1.387 . S
C1907 H1892 0.930 . S
C1907 C1902 1.390 . S
C1907 C1906 1.387 . S
H1908 C1920 0.930 . S
H1909 C1922 0.930 . S
H1910 C1923 0.930 . S
H1911 C1927 0.959 . S
H1912 C1927 0.959 . S
H1913 C1927 0.961 . S
H1914 C1928 0.960 . S
H1915 C1928 0.961 . S
H1916 C1928 0.959 . S
H1917 C1931 0.929 . S
H1918 C1932 0.931 . S
H1919 C1934 0.930 . S
C1920 H1908 0.930 . S
C1920 C1921 1.399 . S
C1920 C1925 1.399 . S
C1921 C1920 1.399 . S
C1921 C1922 1.376 . S
C1922 H1909 0.930 . S
C1922 C1921 1.376 . S
C1922 C1923 1.388 . S
C1923 H1910 0.930 . S
C1923 C1922 1.388 . S
C1923 C1924 1.390 . S
C1924 C1923 1.390 . S
C1924 C1925 1.394 . S
C1924 C1930 1.465 . S
C1925 C1920 1.399 . S
C1925 C1924 1.394 . S
C1925 C1926 1.516 . S
C1926 C1925 1.516 . S
C1926 C1927 1.502 . S
C1926 C1928 1.561 . S
C1926 C1929 1.526 . S
C1927 H1911 0.959 . S
C1927 H1912 0.959 . S
C1927 H1913 0.961 . S
C1927 C1926 1.502 . S
C1928 H1914 0.960 . S
C1928 H1915 0.961 . S
C1928 H1916 0.959 . S
C1928 C1926 1.561 . S
C1929 C1926 1.526 . S
C1929 C1930 1.396 . S
C1929 C1934 1.390 . S
C1930 C1924 1.465 . S
C1930 C1929 1.396 . S
C1930 C1931 1.399 . S
C1931 H1917 0.929 . S
C1931 C1930 1.399 . S
C1931 C1932 1.385 . S
C1932 H1918 0.931 . S
C1932 C1931 1.385 . S
C1932 C1933 1.389 . S
C1933 C1932 1.389 . S
C1933 C1934 1.387 . S
C1934 H1919 0.930 . S
C1934 C1929 1.390 . S
C1934 C1933 1.387 . S
H1935 C1947 0.930 . S
H1936 C1949 0.930 . S
H1937 C1950 0.930 . S
H1938 C1954 0.959 . S
H1939 C1954 0.959 . S
H1940 C1954 0.961 . S
H1941 C1955 0.960 . S
H1942 C1955 0.961 . S
H1943 C1955 0.959 . S
H1944 C1958 0.929 . S
H1945 C1959 0.931 . S
H1946 C1961 0.930 . S
C1947 H1935 0.930 . S
C1947 C1948 1.399 . S
C1947 C1952 1.399 . S
C1948 C1947 1.399 . S
C1948 C1949 1.376 . S
C1949 H1936 0.930 . S
C1949 C1948 1.376 . S
C1949 C1950 1.388 . S
C1950 H1937 0.930 . S
C1950 C1949 1.388 . S
C1950 C1951 1.390 . S
C1951 C1950 1.390 . S
C1951 C1952 1.394 . S
C1951 C1957 1.465 . S
C1952 C1947 1.399 . S
C1952 C1951 1.394 . S
C1952 C1953 1.516 . S
C1953 C1952 1.516 . S
C1953 C1954 1.502 . S
C1953 C1955 1.561 . S
C1953 C1956 1.526 . S
C1954 H1938 0.959 . S
C1954 H1939 0.959 . S
C1954 H1940 0.961 . S
C1954 C1953 1.502 . S
C1955 H1941 0.960 . S
C1955 H1942 0.961 . S
C1955 H1943 0.959 . S
C1955 C1953 1.561 . S
C1956 C1953 1.526 . S
C1956 C1957 1.396 . S
C1956 C1961 1.390 . S
C1957 C1951 1.465 . S
C1957 C1956 1.396 . S
C1957 C1958 1.399 . S
C1958 H1944 0.929 . S
C1958 C1957 1.399 . S
C1958 C1959 1.385 . S
C1959 H1945 0.931 . S
C1959 C1958 1.385 . S
C1959 C1960 1.389 . S
C1960 C1959 1.389 . S
C1960 C1961 1.387 . S
C1961 H1946 0.930 . S
C1961 C1956 1.390 . S
C1961 C1960 1.387 . S
H1962 C1974 0.930 . S
H1963 C1976 0.930 . S
H1964 C1977 0.930 . S
H1965 C1981 0.959 . S
H1966 C1981 0.959 . S
H1967 C1981 0.961 . S
H1968 C1982 0.960 . S
H1969 C1982 0.961 . S
H1970 C1982 0.959 . S
H1971 C1985 0.929 . S
H1972 C1986 0.931 . S
H1973 C1988 0.930 . S
C1974 H1962 0.930 . S
C1974 C1975 1.399 . S
C1974 C1979 1.399 . S
C1975 C1974 1.399 . S
C1975 C1976 1.376 . S
C1976 H1963 0.930 . S
C1976 C1975 1.376 . S
C1976 C1977 1.388 . S
C1977 H1964 0.930 . S
C1977 C1976 1.388 . S
C1977 C1978 1.390 . S
C1978 C1977 1.390 . S
C1978 C1979 1.394 . S
C1978 C1984 1.465 . S
C1979 C1974 1.399 . S
C1979 C1978 1.394 . S
C1979 C1980 1.516 . S
C1980 C1979 1.516 . S
C1980 C1981 1.502 . S
C1980 C1982 1.561 . S
C1980 C1983 1.526 . S
C1981 H1965 0.959 . S
C1981 H1966 0.959 . S
C1981 H1967 0.961 . S
C1981 C1980 1.502 . S
C1982 H1968 0.960 . S
C1982 H1969 0.961 . S
C1982 H1970 0.959 . S
C1982 C1980 1.561 . S
C1983 C1980 1.526 . S
C1983 C1984 1.396 . S
C1983 C1988 1.390 . S
C1984 C1978 1.465 . S
C1984 C1983 1.396 . S
C1984 C1985 1.399 . S
C1985 H1971 0.929 . S
C1985 C1984 1.399 . S
C1985 C1986 1.385 . S
C1986 H1972 0.931 . S
C1986 C1985 1.385 . S
C1986 C1987 1.389 . S
C1987 C1986 1.389 . S
C1987 C1988 1.387 . S
C1988 H1973 0.930 . S
C1988 C1983 1.390 . S
C1988 C1987 1.387 . S
H1989 C2001 0.930 . S
H1990 C2003 0.930 . S
H1991 C2004 0.930 . S
H1992 C2008 0.959 . S
H1993 C2008 0.959 . S
H1994 C2008 0.961 . S
H1995 C2009 0.960 . S
H1996 C2009 0.961 . S
H1997 C2009 0.959 . S
H1998 C2012 0.929 . S
H1999 C2013 0.931 . S
H2000 C2015 0.930 . S
C2001 H1989 0.930 . S
C2001 C2002 1.399 . S
C2001 C2006 1.399 . S
C2002 C2001 1.399 . S
C2002 C2003 1.376 . S
C2003 H1990 0.930 . S
C2003 C2002 1.376 . S
C2003 C2004 1.388 . S
C2004 H1991 0.930 . S
C2004 C2003 1.388 . S
C2004 C2005 1.390 . S
C2005 C2004 1.390 . S
C2005 C2006 1.394 . S
C2005 C2011 1.465 . S
C2006 C2001 1.399 . S
C2006 C2005 1.394 . S
C2006 C2007 1.516 . S
C2007 C2006 1.516 . S
C2007 C2008 1.502 . S
C2007 C2009 1.561 . S
C2007 C2010 1.526 . S
C2008 H1992 0.959 . S
C2008 H1993 0.959 . S
C2008 H1994 0.961 . S
C2008 C2007 1.502 . S
C2009 H1995 0.960 . S
C2009 H1996 0.961 . S
C2009 H1997 0.959 . S
C2009 C2007 1.561 . S
C2010 C2007 1.526 . S
C2010 C2011 1.396 . S
C2010 C2015 1.390 . S
C2011 C2005 1.465 . S
C2011 C2010 1.396 . S
C2011 C2012 1.399 . S
C2012 H1998 0.929 . S
C2012 C2011 1.399 . S
C2012 C2013 1.385 . S
C2013 H1999 0.931 . S
C2013 C2012 1.385 . S
C2013 C2014 1.389 . S
C2014 C2013 1.389 . S
C2014 C2015 1.387 . S
C2015 H2000 0.930 . S
C2015 C2010 1.390 . S
C2015 C2014 1.387 . S
H2016 C2028 0.930 . S
H2017 C2030 0.930 . S
H2018 C2031 0.930 . S
H2019 C2035 0.959 . S
H2020 C2035 0.959 . S
H2021 C2035 0.961 . S
H2022 C2036 0.960 . S
H2023 C2036 0.961 . S
H2024 C2036 0.959 . S
H2025 C2039 0.929 . S
H2026 C2040 0.931 . S
H2027 C2042 0.930 . S
C2028 H2016 0.930 . S
C2028 C2029 1.399 . S
C2028 C2033 1.399 . S
C2029 C2028 1.399 . S
C2029 C2030 1.376 . S
C2030 H2017 0.930 . S
C2030 C2029 1.376 . S
C2030 C2031 1.388 . S
C2031 H2018 0.930 . S
C2031 C2030 1.388 . S
C2031 C2032 1.390 . S
C2032 C2031 1.390 . S
C2032 C2033 1.394 . S
C2032 C2038 1.465 . S
C2033 C2028 1.399 . S
C2033 C2032 1.394 . S
C2033 C2034 1.516 . S
C2034 C2033 1.516 . S
C2034 C2035 1.502 . S
C2034 C2036 1.561 . S
C2034 C2037 1.526 . S
C2035 H2019 0.959 . S
C2035 H2020 0.959 . S
C2035 H2021 0.961 . S
C2035 C2034 1.502 . S
C2036 H2022 0.960 . S
C2036 H2023 0.961 . S
C2036 H2024 0.959 . S
C2036 C2034 1.561 . S
C2037 C2034 1.526 . S
C2037 C2038 1.396 . S
C2037 C2042 1.390 . S
C2038 C2032 1.465 . S
C2038 C2037 1.396 . S
C2038 C2039 1.399 . S
C2039 H2025 0.929 . S
C2039 C2038 1.399 . S
C2039 C2040 1.385 . S
C2040 H2026 0.931 . S
C2040 C2039 1.385 . S
C2040 C2041 1.389 . S
C2041 C2040 1.389 . S
C2041 C2042 1.387 . S
C2042 H2027 0.930 . S
C2042 C2037 1.390 . S
C2042 C2041 1.387 . S
H2043 C2055 0.930 . S
H2044 C2057 0.930 . S
H2045 C2058 0.930 . S
H2046 C2062 0.959 . S
H2047 C2062 0.959 . S
H2048 C2062 0.961 . S
H2049 C2063 0.960 . S
H2050 C2063 0.961 . S
H2051 C2063 0.959 . S
H2052 C2066 0.929 . S
H2053 C2067 0.931 . S
H2054 C2069 0.930 . S
C2055 H2043 0.930 . S
C2055 C2056 1.399 . S
C2055 C2060 1.399 . S
C2056 C2055 1.399 . S
C2056 C2057 1.376 . S
C2057 H2044 0.930 . S
C2057 C2056 1.376 . S
C2057 C2058 1.388 . S
C2058 H2045 0.930 . S
C2058 C2057 1.388 . S
C2058 C2059 1.390 . S
C2059 C2058 1.390 . S
C2059 C2060 1.394 . S
C2059 C2065 1.465 . S
C2060 C2055 1.399 . S
C2060 C2059 1.394 . S
C2060 C2061 1.516 . S
C2061 C2060 1.516 . S
C2061 C2062 1.502 . S
C2061 C2063 1.561 . S
C2061 C2064 1.526 . S
C2062 H2046 0.959 . S
C2062 H2047 0.959 . S
C2062 H2048 0.961 . S
C2062 C2061 1.502 . S
C2063 H2049 0.960 . S
C2063 H2050 0.961 . S
C2063 H2051 0.959 . S
C2063 C2061 1.561 . S
C2064 C2061 1.526 . S
C2064 C2065 1.396 . S
C2064 C2069 1.390 . S
C2065 C2059 1.465 . S
C2065 C2064 1.396 . S
C2065 C2066 1.399 . S
C2066 H2052 0.929 . S
C2066 C2065 1.399 . S
C2066 C2067 1.385 . S
C2067 H2053 0.931 . S
C2067 C2066 1.385 . S
C2067 C2068 1.389 . S
C2068 C2067 1.389 . S
C2068 C2069 1.387 . S
C2069 H2054 0.930 . S
C2069 C2064 1.390 . S
C2069 C2068 1.387 . S
H2070 C2082 0.930 . S
H2071 C2084 0.930 . S
H2072 C2085 0.930 . S
H2073 C2089 0.959 . S
H2074 C2089 0.959 . S
H2075 C2089 0.961 . S
H2076 C2090 0.960 . S
H2077 C2090 0.961 . S
H2078 C2090 0.959 . S
H2079 C2093 0.929 . S
H2080 C2094 0.931 . S
H2081 C2096 0.930 . S
C2082 H2070 0.930 . S
C2082 C2083 1.399 . S
C2082 C2087 1.399 . S
C2083 C2082 1.399 . S
C2083 C2084 1.376 . S
C2084 H2071 0.930 . S
C2084 C2083 1.376 . S
C2084 C2085 1.388 . S
C2085 H2072 0.930 . S
C2085 C2084 1.388 . S
C2085 C2086 1.390 . S
C2086 C2085 1.390 . S
C2086 C2087 1.394 . S
C2086 C2092 1.465 . S
C2087 C2082 1.399 . S
C2087 C2086 1.394 . S
C2087 C2088 1.516 . S
C2088 C2087 1.516 . S
C2088 C2089 1.502 . S
C2088 C2090 1.561 . S
C2088 C2091 1.526 . S
C2089 H2073 0.959 . S
C2089 H2074 0.959 . S
C2089 H2075 0.961 . S
C2089 C2088 1.502 . S
C2090 H2076 0.960 . S
C2090 H2077 0.961 . S
C2090 H2078 0.959 . S
C2090 C2088 1.561 . S
C2091 C2088 1.526 . S
C2091 C2092 1.396 . S
C2091 C2096 1.390 . S
C2092 C2086 1.465 . S
C2092 C2091 1.396 . S
C2092 C2093 1.399 . S
C2093 H2079 0.929 . S
C2093 C2092 1.399 . S
C2093 C2094 1.385 . S
C2094 H2080 0.931 . S
C2094 C2093 1.385 . S
C2094 C2095 1.389 . S
C2095 C2094 1.389 . S
C2095 C2096 1.387 . S
C2096 H2081 0.930 . S
C2096 C2091 1.390 . S
C2096 C2095 1.387 . S
H2097 C2109 0.930 . S
H2098 C2111 0.930 . S
H2099 C2112 0.930 . S
H2100 C2116 0.959 . S
H2101 C2116 0.959 . S
H2102 C2116 0.961 . S
H2103 C2117 0.960 . S
H2104 C2117 0.961 . S
H2105 C2117 0.959 . S
H2106 C2120 0.929 . S
H2107 C2121 0.931 . S
H2108 C2123 0.930 . S
C2109 H2097 0.930 . S
C2109 C2110 1.399 . S
C2109 C2114 1.399 . S
C2110 C2109 1.399 . S
C2110 C2111 1.376 . S
C2111 H2098 0.930 . S
C2111 C2110 1.376 . S
C2111 C2112 1.388 . S
C2112 H2099 0.930 . S
C2112 C2111 1.388 . S
C2112 C2113 1.390 . S
C2113 C2112 1.390 . S
C2113 C2114 1.394 . S
C2113 C2119 1.465 . S
C2114 C2109 1.399 . S
C2114 C2113 1.394 . S
C2114 C2115 1.516 . S
C2115 C2114 1.516 . S
C2115 C2116 1.502 . S
C2115 C2117 1.561 . S
C2115 C2118 1.526 . S
C2116 H2100 0.959 . S
C2116 H2101 0.959 . S
C2116 H2102 0.961 . S
C2116 C2115 1.502 . S
C2117 H2103 0.960 . S
C2117 H2104 0.961 . S
C2117 H2105 0.959 . S
C2117 C2115 1.561 . S
C2118 C2115 1.526 . S
C2118 C2119 1.396 . S
C2118 C2123 1.390 . S
C2119 C2113 1.465 . S
C2119 C2118 1.396 . S
C2119 C2120 1.399 . S
C2120 H2106 0.929 . S
C2120 C2119 1.399 . S
C2120 C2121 1.385 . S
C2121 H2107 0.931 . S
C2121 C2120 1.385 . S
C2121 C2122 1.389 . S
C2122 C2121 1.389 . S
C2122 C2123 1.387 . S
C2123 H2108 0.930 . S
C2123 C2118 1.390 . S
C2123 C2122 1.387 . S
H2124 C2136 0.930 . S
H2125 C2138 0.930 . S
H2126 C2139 0.930 . S
H2127 C2143 0.959 . S
H2128 C2143 0.959 . S
H2129 C2143 0.961 . S
H2130 C2144 0.960 . S
H2131 C2144 0.961 . S
H2132 C2144 0.959 . S
H2133 C2147 0.929 . S
H2134 C2148 0.931 . S
H2135 C2150 0.930 . S
C2136 H2124 0.930 . S
C2136 C2137 1.399 . S
C2136 C2141 1.399 . S
C2137 C2136 1.399 . S
C2137 C2138 1.376 . S
C2138 H2125 0.930 . S
C2138 C2137 1.376 . S
C2138 C2139 1.388 . S
C2139 H2126 0.930 . S
C2139 C2138 1.388 . S
C2139 C2140 1.390 . S
C2140 C2139 1.390 . S
C2140 C2141 1.394 . S
C2140 C2146 1.465 . S
C2141 C2136 1.399 . S
C2141 C2140 1.394 . S
C2141 C2142 1.516 . S
C2142 C2141 1.516 . S
C2142 C2143 1.502 . S
C2142 C2144 1.561 . S
C2142 C2145 1.526 . S
C2143 H2127 0.959 . S
C2143 H2128 0.959 . S
C2143 H2129 0.961 . S
C2143 C2142 1.502 . S
C2144 H2130 0.960 . S
C2144 H2131 0.961 . S
C2144 H2132 0.959 . S
C2144 C2142 1.561 . S
C2145 C2142 1.526 . S
C2145 C2146 1.396 . S
C2145 C2150 1.390 . S
C2146 C2140 1.465 . S
C2146 C2145 1.396 . S
C2146 C2147 1.399 . S
C2147 H2133 0.929 . S
C2147 C2146 1.399 . S
C2147 C2148 1.385 . S
C2148 H2134 0.931 . S
C2148 C2147 1.385 . S
C2148 C2149 1.389 . S
C2149 C2148 1.389 . S
C2149 C2150 1.387 . S
C2150 H2135 0.930 . S
C2150 C2145 1.390 . S
C2150 C2149 1.387 . S
H2151 C2163 0.930 . S
H2152 C2165 0.930 . S
H2153 C2166 0.930 . S
H2154 C2170 0.959 . S
H2155 C2170 0.959 . S
H2156 C2170 0.961 . S
H2157 C2171 0.960 . S
H2158 C2171 0.961 . S
H2159 C2171 0.959 . S
H2160 C2174 0.929 . S
H2161 C2175 0.931 . S
H2162 C2177 0.930 . S
C2163 H2151 0.930 . S
C2163 C2164 1.399 . S
C2163 C2168 1.399 . S
C2164 C2163 1.399 . S
C2164 C2165 1.376 . S
C2165 H2152 0.930 . S
C2165 C2164 1.376 . S
C2165 C2166 1.388 . S
C2166 H2153 0.930 . S
C2166 C2165 1.388 . S
C2166 C2167 1.390 . S
C2167 C2166 1.390 . S
C2167 C2168 1.394 . S
C2167 C2173 1.465 . S
C2168 C2163 1.399 . S
C2168 C2167 1.394 . S
C2168 C2169 1.516 . S
C2169 C2168 1.516 . S
C2169 C2170 1.502 . S
C2169 C2171 1.561 . S
C2169 C2172 1.526 . S
C2170 H2154 0.959 . S
C2170 H2155 0.959 . S
C2170 H2156 0.961 . S
C2170 C2169 1.502 . S
C2171 H2157 0.960 . S
C2171 H2158 0.961 . S
C2171 H2159 0.959 . S
C2171 C2169 1.561 . S
C2172 C2169 1.526 . S
C2172 C2173 1.396 . S
C2172 C2177 1.390 . S
C2173 C2167 1.465 . S
C2173 C2172 1.396 . S
C2173 C2174 1.399 . S
C2174 H2160 0.929 . S
C2174 C2173 1.399 . S
C2174 C2175 1.385 . S
C2175 H2161 0.931 . S
C2175 C2174 1.385 . S
C2175 C2176 1.389 . S
C2176 C2175 1.389 . S
C2176 C2177 1.387 . S
C2177 H2162 0.930 . S
C2177 C2172 1.390 . S
C2177 C2176 1.387 . S
H2178 C2190 0.930 . S
H2179 C2192 0.930 . S
H2180 C2193 0.930 . S
H2181 C2197 0.959 . S
H2182 C2197 0.959 . S
H2183 C2197 0.961 . S
H2184 C2198 0.960 . S
H2185 C2198 0.961 . S
H2186 C2198 0.959 . S
H2187 C2201 0.929 . S
H2188 C2202 0.931 . S
H2189 C2204 0.930 . S
C2190 H2178 0.930 . S
C2190 C2191 1.399 . S
C2190 C2195 1.399 . S
C2191 C2190 1.399 . S
C2191 C2192 1.376 . S
C2192 H2179 0.930 . S
C2192 C2191 1.376 . S
C2192 C2193 1.388 . S
C2193 H2180 0.930 . S
C2193 C2192 1.388 . S
C2193 C2194 1.390 . S
C2194 C2193 1.390 . S
C2194 C2195 1.394 . S
C2194 C2200 1.465 . S
C2195 C2190 1.399 . S
C2195 C2194 1.394 . S
C2195 C2196 1.516 . S
C2196 C2195 1.516 . S
C2196 C2197 1.502 . S
C2196 C2198 1.561 . S
C2196 C2199 1.526 . S
C2197 H2181 0.959 . S
C2197 H2182 0.959 . S
C2197 H2183 0.961 . S
C2197 C2196 1.502 . S
C2198 H2184 0.960 . S
C2198 H2185 0.961 . S
C2198 H2186 0.959 . S
C2198 C2196 1.561 . S
C2199 C2196 1.526 . S
C2199 C2200 1.396 . S
C2199 C2204 1.390 . S
C2200 C2194 1.465 . S
C2200 C2199 1.396 . S
C2200 C2201 1.399 . S
C2201 H2187 0.929 . S
C2201 C2200 1.399 . S
C2201 C2202 1.385 . S
C2202 H2188 0.931 . S
C2202 C2201 1.385 . S
C2202 C2203 1.389 . S
C2203 C2202 1.389 . S
C2203 C2204 1.387 . S
C2204 H2189 0.930 . S
C2204 C2199 1.390 . S
C2204 C2203 1.387 . S
H2205 C2217 0.930 . S
H2206 C2219 0.930 . S
H2207 C2220 0.930 . S
H2208 C2224 0.959 . S
H2209 C2224 0.959 . S
H2210 C2224 0.961 . S
H2211 C2225 0.960 . S
H2212 C2225 0.961 . S
H2213 C2225 0.959 . S
H2214 C2228 0.929 . S
H2215 C2229 0.931 . S
H2216 C2231 0.930 . S
C2217 H2205 0.930 . S
C2217 C2218 1.399 . S
C2217 C2222 1.399 . S
C2218 C2217 1.399 . S
C2218 C2219 1.376 . S
C2219 H2206 0.930 . S
C2219 C2218 1.376 . S
C2219 C2220 1.388 . S
C2220 H2207 0.930 . S
C2220 C2219 1.388 . S
C2220 C2221 1.390 . S
C2221 C2220 1.390 . S
C2221 C2222 1.394 . S
C2221 C2227 1.465 . S
C2222 C2217 1.399 . S
C2222 C2221 1.394 . S
C2222 C2223 1.516 . S
C2223 C2222 1.516 . S
C2223 C2224 1.502 . S
C2223 C2225 1.561 . S
C2223 C2226 1.526 . S
C2224 H2208 0.959 . S
C2224 H2209 0.959 . S
C2224 H2210 0.961 . S
C2224 C2223 1.502 . S
C2225 H2211 0.960 . S
C2225 H2212 0.961 . S
C2225 H2213 0.959 . S
C2225 C2223 1.561 . S
C2226 C2223 1.526 . S
C2226 C2227 1.396 . S
C2226 C2231 1.390 . S
C2227 C2221 1.465 . S
C2227 C2226 1.396 . S
C2227 C2228 1.399 . S
C2228 H2214 0.929 . S
C2228 C2227 1.399 . S
C2228 C2229 1.385 . S
C2229 H2215 0.931 . S
C2229 C2228 1.385 . S
C2229 C2230 1.389 . S
C2230 C2229 1.389 . S
C2230 C2231 1.387 . S
C2231 H2216 0.930 . S
C2231 C2226 1.390 . S
C2231 C2230 1.387 . S
H2232 C2244 0.930 . S
H2233 C2246 0.930 . S
H2234 C2247 0.930 . S
H2235 C2251 0.959 . S
H2236 C2251 0.959 . S
H2237 C2251 0.961 . S
H2238 C2252 0.960 . S
H2239 C2252 0.961 . S
H2240 C2252 0.959 . S
H2241 C2255 0.929 . S
H2242 C2256 0.931 . S
H2243 C2258 0.930 . S
C2244 H2232 0.930 . S
C2244 C2245 1.399 . S
C2244 C2249 1.399 . S
C2245 C2244 1.399 . S
C2245 C2246 1.376 . S
C2246 H2233 0.930 . S
C2246 C2245 1.376 . S
C2246 C2247 1.388 . S
C2247 H2234 0.930 . S
C2247 C2246 1.388 . S
C2247 C2248 1.390 . S
C2248 C2247 1.390 . S
C2248 C2249 1.394 . S
C2248 C2254 1.465 . S
C2249 C2244 1.399 . S
C2249 C2248 1.394 . S
C2249 C2250 1.516 . S
C2250 C2249 1.516 . S
C2250 C2251 1.502 . S
C2250 C2252 1.561 . S
C2250 C2253 1.526 . S
C2251 H2235 0.959 . S
C2251 H2236 0.959 . S
C2251 H2237 0.961 . S
C2251 C2250 1.502 . S
C2252 H2238 0.960 . S
C2252 H2239 0.961 . S
C2252 H2240 0.959 . S
C2252 C2250 1.561 . S
C2253 C2250 1.526 . S
C2253 C2254 1.396 . S
C2253 C2258 1.390 . S
C2254 C2248 1.465 . S
C2254 C2253 1.396 . S
C2254 C2255 1.399 . S
C2255 H2241 0.929 . S
C2255 C2254 1.399 . S
C2255 C2256 1.385 . S
C2256 H2242 0.931 . S
C2256 C2255 1.385 . S
C2256 C2257 1.389 . S
C2257 C2256 1.389 . S
C2257 C2258 1.387 . S
C2258 H2243 0.930 . S
C2258 C2253 1.390 . S
C2258 C2257 1.387 . S
H2259 C2271 0.930 . S
H2260 C2273 0.930 . S
H2261 C2274 0.930 . S
H2262 C2278 0.959 . S
H2263 C2278 0.959 . S
H2264 C2278 0.961 . S
H2265 C2279 0.960 . S
H2266 C2279 0.961 . S
H2267 C2279 0.959 . S
H2268 C2282 0.929 . S
H2269 C2283 0.931 . S
H2270 C2285 0.930 . S
C2271 H2259 0.930 . S
C2271 C2272 1.399 . S
C2271 C2276 1.399 . S
C2272 C2271 1.399 . S
C2272 C2273 1.376 . S
C2273 H2260 0.930 . S
C2273 C2272 1.376 . S
C2273 C2274 1.388 . S
C2274 H2261 0.930 . S
C2274 C2273 1.388 . S
C2274 C2275 1.390 . S
C2275 C2274 1.390 . S
C2275 C2276 1.394 . S
C2275 C2281 1.465 . S
C2276 C2271 1.399 . S
C2276 C2275 1.394 . S
C2276 C2277 1.516 . S
C2277 C2276 1.516 . S
C2277 C2278 1.502 . S
C2277 C2279 1.561 . S
C2277 C2280 1.526 . S
C2278 H2262 0.959 . S
C2278 H2263 0.959 . S
C2278 H2264 0.961 . S
C2278 C2277 1.502 . S
C2279 H2265 0.960 . S
C2279 H2266 0.961 . S
C2279 H2267 0.959 . S
C2279 C2277 1.561 . S
C2280 C2277 1.526 . S
C2280 C2281 1.396 . S
C2280 C2285 1.390 . S
C2281 C2275 1.465 . S
C2281 C2280 1.396 . S
C2281 C2282 1.399 . S
C2282 H2268 0.929 . S
C2282 C2281 1.399 . S
C2282 C2283 1.385 . S
C2283 H2269 0.931 . S
C2283 C2282 1.385 . S
C2283 C2284 1.389 . S
C2284 C2283 1.389 . S
C2284 C2285 1.387 . S
C2285 H2270 0.930 . S
C2285 C2280 1.390 . S
C2285 C2284 1.387 . S
H2286 C2298 0.930 . S
H2287 C2300 0.930 . S
H2288 C2301 0.930 . S
H2289 C2305 0.959 . S
H2290 C2305 0.959 . S
H2291 C2305 0.961 . S
H2292 C2306 0.960 . S
H2293 C2306 0.961 . S
H2294 C2306 0.959 . S
H2295 C2309 0.929 . S
H2296 C2310 0.931 . S
H2297 C2312 0.930 . S
C2298 H2286 0.930 . S
C2298 C2299 1.399 . S
C2298 C2303 1.399 . S
C2299 C2298 1.399 . S
C2299 C2300 1.376 . S
C2300 H2287 0.930 . S
C2300 C2299 1.376 . S
C2300 C2301 1.388 . S
C2301 H2288 0.930 . S
C2301 C2300 1.388 . S
C2301 C2302 1.390 . S
C2302 C2301 1.390 . S
C2302 C2303 1.394 . S
C2302 C2308 1.465 . S
C2303 C2298 1.399 . S
C2303 C2302 1.394 . S
C2303 C2304 1.516 . S
C2304 C2303 1.516 . S
C2304 C2305 1.502 . S
C2304 C2306 1.561 . S
C2304 C2307 1.526 . S
C2305 H2289 0.959 . S
C2305 H2290 0.959 . S
C2305 H2291 0.961 . S
C2305 C2304 1.502 . S
C2306 H2292 0.960 . S
C2306 H2293 0.961 . S
C2306 H2294 0.959 . S
C2306 C2304 1.561 . S
C2307 C2304 1.526 . S
C2307 C2308 1.396 . S
C2307 C2312 1.390 . S
C2308 C2302 1.465 . S
C2308 C2307 1.396 . S
C2308 C2309 1.399 . S
C2309 H2295 0.929 . S
C2309 C2308 1.399 . S
C2309 C2310 1.385 . S
C2310 H2296 0.931 . S
C2310 C2309 1.385 . S
C2310 C2311 1.389 . S
C2311 C2310 1.389 . S
C2311 C2312 1.387 . S
C2312 H2297 0.930 . S
C2312 C2307 1.390 . S
C2312 C2311 1.387 . S
H2313 C2325 0.930 . S
H2314 C2327 0.930 . S
H2315 C2328 0.930 . S
H2316 C2332 0.959 . S
H2317 C2332 0.959 . S
H2318 C2332 0.961 . S
H2319 C2333 0.960 . S
H2320 C2333 0.961 . S
H2321 C2333 0.959 . S
H2322 C2336 0.929 . S
H2323 C2337 0.931 . S
H2324 C2339 0.930 . S
C2325 H2313 0.930 . S
C2325 C2326 1.399 . S
C2325 C2330 1.399 . S
C2326 C2325 1.399 . S
C2326 C2327 1.376 . S
C2327 H2314 0.930 . S
C2327 C2326 1.376 . S
C2327 C2328 1.388 . S
C2328 H2315 0.930 . S
C2328 C2327 1.388 . S
C2328 C2329 1.390 . S
C2329 C2328 1.390 . S
C2329 C2330 1.394 . S
C2329 C2335 1.465 . S
C2330 C2325 1.399 . S
C2330 C2329 1.394 . S
C2330 C2331 1.516 . S
C2331 C2330 1.516 . S
C2331 C2332 1.502 . S
C2331 C2333 1.561 . S
C2331 C2334 1.526 . S
C2332 H2316 0.959 . S
C2332 H2317 0.959 . S
C2332 H2318 0.961 . S
C2332 C2331 1.502 . S
C2333 H2319 0.960 . S
C2333 H2320 0.961 . S
C2333 H2321 0.959 . S
C2333 C2331 1.561 . S
C2334 C2331 1.526 . S
C2334 C2335 1.396 . S
C2334 C2339 1.390 . S
C2335 C2329 1.465 . S
C2335 C2334 1.396 . S
C2335 C2336 1.399 . S
C2336 H2322 0.929 . S
C2336 C2335 1.399 . S
C2336 C2337 1.385 . S
C2337 H2323 0.931 . S
C2337 C2336 1.385 . S
C2337 C2338 1.389 . S
C2338 C2337 1.389 . S
C2338 C2339 1.387 . S
C2339 H2324 0.930 . S
C2339 C2334 1.390 . S
C2339 C2338 1.387 . S
H2340 C2352 0.930 . S
H2341 C2354 0.930 . S
H2342 C2355 0.930 . S
H2343 C2359 0.959 . S
H2344 C2359 0.959 . S
H2345 C2359 0.961 . S
H2346 C2360 0.960 . S
H2347 C2360 0.961 . S
H2348 C2360 0.959 . S
H2349 C2363 0.929 . S
H2350 C2364 0.931 . S
H2351 C2366 0.930 . S
C2352 H2340 0.930 . S
C2352 C2353 1.399 . S
C2352 C2357 1.399 . S
C2353 C2352 1.399 . S
C2353 C2354 1.376 . S
C2354 H2341 0.930 . S
C2354 C2353 1.376 . S
C2354 C2355 1.388 . S
C2355 H2342 0.930 . S
C2355 C2354 1.388 . S
C2355 C2356 1.390 . S
C2356 C2355 1.390 . S
C2356 C2357 1.394 . S
C2356 C2362 1.465 . S
C2357 C2352 1.399 . S
C2357 C2356 1.394 . S
C2357 C2358 1.516 . S
C2358 C2357 1.516 . S
C2358 C2359 1.502 . S
C2358 C2360 1.561 . S
C2358 C2361 1.526 . S
C2359 H2343 0.959 . S
C2359 H2344 0.959 . S
C2359 H2345 0.961 . S
C2359 C2358 1.502 . S
C2360 H2346 0.960 . S
C2360 H2347 0.961 . S
C2360 H2348 0.959 . S
C2360 C2358 1.561 . S
C2361 C2358 1.526 . S
C2361 C2362 1.396 . S
C2361 C2366 1.390 . S
C2362 C2356 1.465 . S
C2362 C2361 1.396 . S
C2362 C2363 1.399 . S
C2363 H2349 0.929 . S
C2363 C2362 1.399 . S
C2363 C2364 1.385 . S
C2364 H2350 0.931 . S
C2364 C2363 1.385 . S
C2364 C2365 1.389 . S
C2365 C2364 1.389 . S
C2365 C2366 1.387 . S
C2366 H2351 0.930 . S
C2366 C2361 1.390 . S
C2366 C2365 1.387 . S
H2367 C2379 0.930 . S
H2368 C2381 0.930 . S
H2369 C2382 0.930 . S
H2370 C2386 0.959 . S
H2371 C2386 0.959 . S
H2372 C2386 0.961 . S
H2373 C2387 0.960 . S
H2374 C2387 0.961 . S
H2375 C2387 0.959 . S
H2376 C2390 0.929 . S
H2377 C2391 0.931 . S
H2378 C2393 0.930 . S
C2379 H2367 0.930 . S
C2379 C2380 1.399 . S
C2379 C2384 1.399 . S
C2380 C2379 1.399 . S
C2380 C2381 1.376 . S
C2381 H2368 0.930 . S
C2381 C2380 1.376 . S
C2381 C2382 1.388 . S
C2382 H2369 0.930 . S
C2382 C2381 1.388 . S
C2382 C2383 1.390 . S
C2383 C2382 1.390 . S
C2383 C2384 1.394 . S
C2383 C2389 1.465 . S
C2384 C2379 1.399 . S
C2384 C2383 1.394 . S
C2384 C2385 1.516 . S
C2385 C2384 1.516 . S
C2385 C2386 1.502 . S
C2385 C2387 1.561 . S
C2385 C2388 1.526 . S
C2386 H2370 0.959 . S
C2386 H2371 0.959 . S
C2386 H2372 0.961 . S
C2386 C2385 1.502 . S
C2387 H2373 0.960 . S
C2387 H2374 0.961 . S
C2387 H2375 0.959 . S
C2387 C2385 1.561 . S
C2388 C2385 1.526 . S
C2388 C2389 1.396 . S
C2388 C2393 1.390 . S
C2389 C2383 1.465 . S
C2389 C2388 1.396 . S
C2389 C2390 1.399 . S
C2390 H2376 0.929 . S
C2390 C2389 1.399 . S
C2390 C2391 1.385 . S
C2391 H2377 0.931 . S
C2391 C2390 1.385 . S
C2391 C2392 1.389 . S
C2392 C2391 1.389 . S
C2392 C2393 1.387 . S
C2393 H2378 0.930 . S
C2393 C2388 1.390 . S
C2393 C2392 1.387 . S
H2394 C2406 0.930 . S
H2395 C2408 0.930 . S
H2396 C2409 0.930 . S
H2397 C2413 0.959 . S
H2398 C2413 0.959 . S
H2399 C2413 0.961 . S
H2400 C2414 0.960 . S
H2401 C2414 0.961 . S
H2402 C2414 0.959 . S
H2403 C2417 0.929 . S
H2404 C2418 0.931 . S
H2405 C2420 0.930 . S
C2406 H2394 0.930 . S
C2406 C2407 1.399 . S
C2406 C2411 1.399 . S
C2407 C2406 1.399 . S
C2407 C2408 1.376 . S
C2408 H2395 0.930 . S
C2408 C2407 1.376 . S
C2408 C2409 1.388 . S
C2409 H2396 0.930 . S
C2409 C2408 1.388 . S
C2409 C2410 1.390 . S
C2410 C2409 1.390 . S
C2410 C2411 1.394 . S
C2410 C2416 1.465 . S
C2411 C2406 1.399 . S
C2411 C2410 1.394 . S
C2411 C2412 1.516 . S
C2412 C2411 1.516 . S
C2412 C2413 1.502 . S
C2412 C2414 1.561 . S
C2412 C2415 1.526 . S
C2413 H2397 0.959 . S
C2413 H2398 0.959 . S
C2413 H2399 0.961 . S
C2413 C2412 1.502 . S
C2414 H2400 0.960 . S
C2414 H2401 0.961 . S
C2414 H2402 0.959 . S
C2414 C2412 1.561 . S
C2415 C2412 1.526 . S
C2415 C2416 1.396 . S
C2415 C2420 1.390 . S
C2416 C2410 1.465 . S
C2416 C2415 1.396 . S
C2416 C2417 1.399 . S
C2417 H2403 0.929 . S
C2417 C2416 1.399 . S
C2417 C2418 1.385 . S
C2418 H2404 0.931 . S
C2418 C2417 1.385 . S
C2418 C2419 1.389 . S
C2419 C2418 1.389 . S
C2419 C2420 1.387 . S
C2420 H2405 0.930 . S
C2420 C2415 1.390 . S
C2420 C2419 1.387 . S
H2421 C2433 0.930 . S
H2422 C2435 0.930 . S
H2423 C2436 0.930 . S
H2424 C2440 0.959 . S
H2425 C2440 0.959 . S
H2426 C2440 0.961 . S
H2427 C2441 0.960 . S
H2428 C2441 0.961 . S
H2429 C2441 0.959 . S
H2430 C2444 0.929 . S
H2431 C2445 0.931 . S
H2432 C2447 0.930 . S
C2433 H2421 0.930 . S
C2433 C2434 1.399 . S
C2433 C2438 1.399 . S
C2434 C2433 1.399 . S
C2434 C2435 1.376 . S
C2435 H2422 0.930 . S
C2435 C2434 1.376 . S
C2435 C2436 1.388 . S
C2436 H2423 0.930 . S
C2436 C2435 1.388 . S
C2436 C2437 1.390 . S
C2437 C2436 1.390 . S
C2437 C2438 1.394 . S
C2437 C2443 1.465 . S
C2438 C2433 1.399 . S
C2438 C2437 1.394 . S
C2438 C2439 1.516 . S
C2439 C2438 1.516 . S
C2439 C2440 1.502 . S
C2439 C2441 1.561 . S
C2439 C2442 1.526 . S
C2440 H2424 0.959 . S
C2440 H2425 0.959 . S
C2440 H2426 0.961 . S
C2440 C2439 1.502 . S
C2441 H2427 0.960 . S
C2441 H2428 0.961 . S
C2441 H2429 0.959 . S
C2441 C2439 1.561 . S
C2442 C2439 1.526 . S
C2442 C2443 1.396 . S
C2442 C2447 1.390 . S
C2443 C2437 1.465 . S
C2443 C2442 1.396 . S
C2443 C2444 1.399 . S
C2444 H2430 0.929 . S
C2444 C2443 1.399 . S
C2444 C2445 1.385 . S
C2445 H2431 0.931 . S
C2445 C2444 1.385 . S
C2445 C2446 1.389 . S
C2446 C2445 1.389 . S
C2446 C2447 1.387 . S
C2447 H2432 0.930 . S
C2447 C2442 1.390 . S
C2447 C2446 1.387 . S
C1003 C177 1.452 . S
C1015 C301 1.402 . S
C1030 C190 1.478 . S
C1042 C385 1.441 . S
C1057 C164 1.458 . S
C1069 C465 1.432 . S
C1084 C151 1.410 . S
C1096 C381 1.428 1_556 S
C1123 C469 1.378 . S
C1111 C125 1.435 . S
C1138 C138 1.413 . S
C1150 C297 1.401 1_556 S
C1177 C290 1.408 . S
C1165 C147 1.426 . S
C1204 C374 1.424 . S
C1192 C121 1.426 . S
C1219 C134 1.458 . S
C1231 C476 1.505 1_556 S
C1246 C173 1.433 . S
C1258 C392 1.419 . S
C1273 C186 1.408 . S
C1285 C458 1.385 . S
C1312 C308 1.406 . S
C1300 C160 1.431 . S
C1339 C553 1.352 . S
C1327 C21 1.436 . S
C1354 C34 1.470 . S
C1366 C637 1.407 . S
C1381 C8 1.433 . S
C1393 C717 1.431 . S
C1408 C229 1.426 . S
C1420 C633 1.437 . S
C1435 C203 1.432 . S
C1447 C721 1.371 . S
C1462 C216 1.412 . S
C1474 C549 1.403 . S
C1489 C225 1.428 . S
C1501 C542 1.409 . S
C1516 C199 1.426 . S
C1528 C626 1.424 . S
C1555 C728 1.444 . S
C1543 C212 1.460 . S
C1570 C17 1.452 . S
C1582 C644 1.486 . S
C1609 C710 1.410 . S
C1597 C30 1.395 . S
C1624 C4 1.426 . S
C1636 C560 1.403 . S
C1663 C805 1.428 . S
C1651 C99 1.459 . S
C1678 C112 1.468 . S
C1690 C889 1.411 . S
C1717 C969 1.457 . S
C1705 C86 1.437 . S
C1744 C885 1.419 . S
C1732 C73 1.411 . S
C1771 C973 1.401 . S
C1759 C47 1.437 . S
C1786 C60 1.412 . S
C1798 C801 1.403 . S
C1813 C69 1.426 . S
C1825 C794 1.408 . S
C1840 C43 1.419 . S
C1852 C878 1.428 . S
C1879 C980 1.504 . S
C1867 C56 1.455 . S
C1894 C95 1.407 . S
C1906 C896 1.461 . S
C1921 C108 1.413 . S
C1933 C962 1.390 . S
C1948 C82 1.400 . S
C1960 C812 1.448 . S
C1975 C204 1.536 . S
C1987 C304 1.381 . S
C2014 C388 1.458 . S
C2002 C217 1.593 . S
C2029 C230 1.563 . S
C2041 C460 1.443 . S
C2056 C87 1.591 . S
C2068 C376 1.327 . S
C2083 C100 1.588 . S
C2095 C472 1.439 . S
C2122 C292 1.393 . S
C2110 C113 1.540 . S
C2137 C48 1.559 . S
C2149 C556 1.407 . S
C2164 C61 1.594 . S
C2176 C640 1.469 . S
C2191 C74 1.563 . S
C2203 C712 1.313 . S
C2218 C165 1.584 . S
C2230 C628 1.324 . S
C2257 C724 1.445 . S
C2245 C178 1.558 . S
C2272 C191 1.536 . S
C2284 C544 1.407 . S
C2299 C126 1.541 . S
C2311 C808 1.379 . S
C2326 C139 1.593 . S
C2338 C892 1.455 . S
C2365 C964 1.313 . S
C2353 C152 1.560 . S
C2380 C9 1.587 . S
C2392 C880 1.324 . S
C2407 C22 1.590 . S
C2419 C976 1.458 . S
C2434 C35 1.505 . S
C2446 C796 1.328 . S
