# Generated by pormake.
# Topology pyr, (3,6)-cn, num edge types: 1
# Building blocks:
#     Node 0, Type 0, BuildingBlock: BELTOD_clean_linker_0, # of connection points: 3
#     Node 1, Type 0, BuildingBlock: BELTOD_clean_linker_0, # of connection points: 3
#     Node 2, Type 0, BuildingBlock: BELTOD_clean_linker_0, # of connection points: 3
#     Node 3, Type 0, BuildingBlock: BELTOD_clean_linker_0, # of connection points: 3
#     Node 4, Type 0, BuildingBlock: BELTOD_clean_linker_0, # of connection points: 3
#     Node 5, Type 0, BuildingBlock: BELTOD_clean_linker_0, # of connection points: 3
#     Node 6, Type 0, BuildingBlock: BELTOD_clean_linker_0, # of connection points: 3
#     Node 7, Type 0, BuildingBlock: BELTOD_clean_linker_0, # of connection points: 3
#     Node 8, Type 1, BuildingBlock: JUFBIX_clean_sbu_0, # of connection points: 6
#     Node 9, Type 1, BuildingBlock: JUFBIX_clean_sbu_0, # of connection points: 6
#     Node 10, Type 1, BuildingBlock: JUFBIX_clean_sbu_0, # of connection points: 6
#     Node 11, Type 1, BuildingBlock: JUFBIX_clean_sbu_0, # of connection points: 6
#     Edge 12, Type (0, 1), BuildingBlock: TEMPAE_clean_linker_10, # of connection points: 2
#     Edge 13, Type (0, 1), BuildingBlock: TEMPAE_clean_linker_10, # of connection points: 2
#     Edge 14, Type (0, 1), BuildingBlock: TEMPAE_clean_linker_10, # of connection points: 2
#     Edge 15, Type (0, 1), BuildingBlock: TEMPAE_clean_linker_10, # of connection points: 2
#     Edge 16, Type (0, 1), BuildingBlock: TEMPAE_clean_linker_10, # of connection points: 2
#     Edge 17, Type (0, 1), BuildingBlock: TEMPAE_clean_linker_10, # of connection points: 2
#     Edge 18, Type (0, 1), BuildingBlock: TEMPAE_clean_linker_10, # of connection points: 2
#     Edge 19, Type (0, 1), BuildingBlock: TEMPAE_clean_linker_10, # of connection points: 2
#     Edge 20, Type (0, 1), BuildingBlock: TEMPAE_clean_linker_10, # of connection points: 2
#     Edge 21, Type (0, 1), BuildingBlock: TEMPAE_clean_linker_10, # of connection points: 2
#     Edge 22, Type (0, 1), BuildingBlock: TEMPAE_clean_linker_10, # of connection points: 2
#     Edge 23, Type (0, 1), BuildingBlock: TEMPAE_clean_linker_10, # of connection points: 2
#     Edge 24, Type (0, 1), BuildingBlock: TEMPAE_clean_linker_10, # of connection points: 2
#     Edge 25, Type (0, 1), BuildingBlock: TEMPAE_clean_linker_10, # of connection points: 2
#     Edge 26, Type (0, 1), BuildingBlock: TEMPAE_clean_linker_10, # of connection points: 2
#     Edge 27, Type (0, 1), BuildingBlock: TEMPAE_clean_linker_10, # of connection points: 2
#     Edge 28, Type (0, 1), BuildingBlock: TEMPAE_clean_linker_10, # of connection points: 2
#     Edge 29, Type (0, 1), BuildingBlock: TEMPAE_clean_linker_10, # of connection points: 2
#     Edge 30, Type (0, 1), BuildingBlock: TEMPAE_clean_linker_10, # of connection points: 2
#     Edge 31, Type (0, 1), BuildingBlock: TEMPAE_clean_linker_10, # of connection points: 2
#     Edge 32, Type (0, 1), BuildingBlock: TEMPAE_clean_linker_10, # of connection points: 2
#     Edge 33, Type (0, 1), BuildingBlock: TEMPAE_clean_linker_10, # of connection points: 2
#     Edge 34, Type (0, 1), BuildingBlock: TEMPAE_clean_linker_10, # of connection points: 2
#     Edge 35, Type (0, 1), BuildingBlock: TEMPAE_clean_linker_10, # of connection points: 2
# Relax obj value: 0.052
# Max RMSD: 0.092
# Mean RMSD: 0.040
data_MOF--net-pry--node1-JUFBIX_clean_sbu_0--node2-BELTOD_clean_linker_0--edge1-TEMPAE_clean_linker_10
_symmetry_space_group_name_H-M    P1
_symmetry_Int_Tables_number       1
_symmetry_cell_setting            triclinic
loop_
_symmetry_equiv_pos_as_xyz
'x, y, z'
_cell_length_a     43.49782
_cell_length_b     41.375033
_cell_length_c     43.006731
_cell_angle_alpha  85.74911
_cell_angle_beta   90.564315
_cell_angle_gamma 91.868473
loop_
_atom_site_label
_atom_site_type_symbol
_atom_site_fract_x
_atom_site_fract_y
_atom_site_fract_z
_atom_type_partial_charge
P0 P 0.20406 0.18752 0.1964 0.0
H1 H 0.25499 0.21135 0.15705 0.0
H2 H 0.29491 0.18525 0.12985 0.0
H3 H 0.25042 0.09182 0.15377 0.0
H4 H 0.21124 0.11848 0.18258 0.0
H5 H 0.16261 0.23533 0.21639 0.0
H6 H 0.13175 0.27666 0.1885 0.0
H7 H 0.15537 0.23941 0.10102 0.0
H8 H 0.18659 0.19804 0.12922 0.0
H9 H 0.22042 0.17093 0.26166 0.0
H10 H 0.14618 0.14714 0.19941 0.0
O11 O 0.22686 0.21335 0.21473 0.0
H12 H 0.19325 0.14206 0.3052 0.0
H13 H 0.11891 0.11737 0.24326 0.0
C14 C 0.23009 0.16699 0.17206 0.0
C15 C 0.25363 0.18524 0.15625 0.0
C16 C 0.27651 0.17012 0.14039 0.0
C17 C 0.27637 0.13612 0.13935 0.0
C18 C 0.25194 0.11793 0.15437 0.0
C19 C 0.22915 0.13318 0.17063 0.0
C20 C 0.17695 0.21347 0.17501 0.0
C21 C 0.16082 0.23568 0.19123 0.0
C22 C 0.14336 0.25953 0.17521 0.0
C23 C 0.1413 0.26168 0.14245 0.0
C24 C 0.15638 0.23844 0.12624 0.0
C25 C 0.17424 0.21471 0.14236 0.0
C26 C 0.18523 0.16169 0.22717 0.0
C27 C 0.19834 0.15928 0.25721 0.0
C28 C 0.18269 0.1428 0.28225 0.0
C29 C 0.15369 0.12773 0.27789 0.0
C30 C 0.1412 0.12874 0.24745 0.0
C31 C 0.15676 0.14574 0.22235 0.0
P32 P 0.4475 0.92274 0.58173 0.0
H33 H 0.49101 0.96663 0.6122 0.0
H34 H 0.49857 0.9782 0.66685 0.0
H35 H 0.42487 0.90928 0.69337 0.0
H36 H 0.41837 0.89709 0.63918 0.0
H37 H 0.42585 0.87903 0.53528 0.0
H38 H 0.43066 0.82089 0.53126 0.0
H39 H 0.49105 0.81656 0.61186 0.0
H40 H 0.48504 0.87439 0.61644 0.0
H41 H 0.41741 0.98183 0.55791 0.0
H42 H 0.39043 0.88372 0.58946 0.0
O43 O 0.47058 0.94602 0.55807 0.0
H44 H 0.36318 0.99552 0.55225 0.0
H45 H 0.33653 0.89678 0.58283 0.0
C46 C 0.45402 0.93113 0.6217 0.0
C47 C 0.47665 0.95393 0.62986 0.0
C48 C 0.48082 0.96063 0.66107 0.0
C49 C 0.46235 0.94464 0.68452 0.0
C50 C 0.43986 0.92166 0.67605 0.0
C51 C 0.43586 0.91489 0.64499 0.0
C52 C 0.45424 0.88077 0.57674 0.0
C53 C 0.44005 0.8655 0.55212 0.0
C54 C 0.44301 0.83228 0.54974 0.0
C55 C 0.46086 0.81389 0.57156 0.0
C56 C 0.47639 0.82977 0.59522 0.0
C57 C 0.47313 0.86293 0.59775 0.0
C58 C 0.40795 0.9316 0.57334 0.0
C59 C 0.39984 0.96306 0.56286 0.0
C60 C 0.36886 0.97081 0.55961 0.0
C61 C 0.34554 0.94721 0.56709 0.0
C62 C 0.35389 0.9156 0.57718 0.0
C63 C 0.38478 0.90798 0.58058 0.0
P64 P 0.70432 0.32611 0.82374 0.0
H65 H 0.76169 0.30391 0.8514 0.0
H66 H 0.80135 0.32929 0.88256 0.0
H67 H 0.74642 0.41432 0.88497 0.0
H68 H 0.70716 0.38891 0.85253 0.0
H69 H 0.66903 0.27007 0.80493 0.0
H70 H 0.63602 0.22916 0.83313 0.0
H71 H 0.64761 0.27996 0.91686 0.0
H72 H 0.68074 0.32105 0.88831 0.0
H73 H 0.72027 0.35923 0.76381 0.0
H74 H 0.64458 0.35747 0.82795 0.0
O75 O 0.72449 0.30405 0.8007 0.0
H76 H 0.69159 0.39383 0.72609 0.0
H77 H 0.61565 0.39239 0.79014 0.0
C78 C 0.73177 0.34474 0.84917 0.0
C79 C 0.75815 0.32802 0.85863 0.0
C80 C 0.78075 0.34252 0.87677 0.0
C81 C 0.77729 0.37401 0.88633 0.0
C82 C 0.75019 0.39031 0.87761 0.0
C83 C 0.7276 0.37576 0.85921 0.0
C84 C 0.67783 0.29818 0.84468 0.0
C85 C 0.66443 0.27248 0.82934 0.0
C86 C 0.64564 0.24905 0.84551 0.0
C87 C 0.63956 0.25105 0.87734 0.0
C88 C 0.65188 0.27774 0.89235 0.0
C89 C 0.67093 0.30114 0.87612 0.0
C90 C 0.6843 0.35524 0.79839 0.0
C91 C 0.69753 0.36648 0.76987 0.0
C92 C 0.68108 0.38618 0.74828 0.0
C93 C 0.65119 0.39542 0.75496 0.0
C94 C 0.63862 0.38562 0.78434 0.0
C95 C 0.65507 0.3656 0.80589 0.0
P96 P 0.90204 0.6666 0.41917 0.0
H97 H 0.95083 0.70909 0.39389 0.0
H98 H 0.98881 0.74342 0.41826 0.0
H99 H 0.96491 0.69714 0.50866 0.0
H100 H 0.92615 0.66321 0.48386 0.0
H101 H 0.86752 0.66154 0.36155 0.0
H102 H 0.87913 0.63886 0.31238 0.0
H103 H 0.96861 0.61221 0.34853 0.0
H104 H 0.95646 0.63442 0.39807 0.0
H105 H 0.86409 0.67268 0.47332 0.0
H106 H 0.8923 0.59567 0.41866 0.0
O107 O 0.8788 0.69738 0.41067 0.0
H108 H 0.82461 0.63666 0.49804 0.0
H109 H 0.85285 0.55936 0.44345 0.0
C110 C 0.93566 0.6837 0.43703 0.0
C111 C 0.95446 0.70555 0.41885 0.0
C112 C 0.97639 0.72508 0.4329 0.0
C113 C 0.97985 0.72325 0.46554 0.0
C114 C 0.96255 0.69945 0.48351 0.0
C115 C 0.94044 0.67993 0.46935 0.0
C116 C 0.91144 0.65032 0.38304 0.0
C117 C 0.88974 0.65107 0.35878 0.0
C118 C 0.89645 0.63821 0.33067 0.0
C119 C 0.92495 0.62414 0.32644 0.0
C120 C 0.94646 0.62287 0.35112 0.0
C121 C 0.93966 0.63575 0.37931 0.0
C122 C 0.88066 0.63707 0.44377 0.0
C123 C 0.86247 0.64767 0.46743 0.0
C124 C 0.84 0.62694 0.48169 0.0
C125 C 0.83534 0.59525 0.47238 0.0
C126 C 0.85566 0.58378 0.45078 0.0
C127 C 0.87823 0.60456 0.4366 0.0
P128 P 0.8466 0.86939 0.87516 0.0
H129 H 0.8228 0.9278 0.89855 0.0
H130 H 0.7723 0.94357 0.91437 0.0
H131 H 0.73298 0.85285 0.88642 0.0
H132 H 0.78439 0.83687 0.87108 0.0
H133 H 0.89723 0.83068 0.85649 0.0
H134 H 0.91703 0.77865 0.87682 0.0
H135 H 0.83895 0.76405 0.93791 0.0
H136 H 0.81942 0.81654 0.9178 0.0
H137 H 0.87343 0.93099 0.84898 0.0
H138 H 0.84376 0.84007 0.8141 0.0
O139 O 0.86977 0.8895 0.89874 0.0
H140 H 0.89325 0.94967 0.79786 0.0
H141 H 0.86273 0.85904 0.76208 0.0
C142 C 0.80773 0.88077 0.88426 0.0
C143 C 0.80341 0.91115 0.89578 0.0
C144 C 0.77424 0.92034 0.90462 0.0
C145 C 0.7482 0.89956 0.90188 0.0
C146 C 0.75243 0.86936 0.88941 0.0
C147 C 0.78184 0.86019 0.88047 0.0
C148 C 0.8561 0.82726 0.8846 0.0
C149 C 0.88375 0.81592 0.87353 0.0
C150 C 0.89534 0.78627 0.88553 0.0
C151 C 0.87964 0.7671 0.90907 0.0
C152 C 0.85145 0.77797 0.91953 0.0
C153 C 0.84007 0.80796 0.90778 0.0
C154 C 0.85751 0.88387 0.83567 0.0
C155 C 0.87085 0.91509 0.83017 0.0
C156 C 0.88204 0.92591 0.80063 0.0
C157 C 0.87989 0.90595 0.77547 0.0
C158 C 0.86542 0.87498 0.78084 0.0
C159 C 0.85427 0.86414 0.81058 0.0
P160 P 0.63612 0.17967 0.39022 0.0
H161 H 0.65915 0.23439 0.42275 0.0
H162 H 0.63367 0.27662 0.44866 0.0
H163 H 0.54548 0.22954 0.4324 0.0
H164 H 0.57118 0.18698 0.40678 0.0
H165 H 0.66438 0.12027 0.37557 0.0
H166 H 0.70198 0.08607 0.403 0.0
H167 H 0.69715 0.1433 0.4827 0.0
H168 H 0.65893 0.17719 0.45535 0.0
H169 H 0.61133 0.19735 0.32862 0.0
H170 H 0.6013 0.11744 0.39841 0.0
O171 O 0.66088 0.20124 0.36694 0.0
H172 H 0.58119 0.16703 0.29191 0.0
H173 H 0.57083 0.08673 0.36165 0.0
C174 C 0.61705 0.20776 0.4127 0.0
C175 C 0.63437 0.23285 0.42523 0.0
C176 C 0.61982 0.25686 0.44014 0.0
C177 C 0.58762 0.25631 0.44245 0.0
C178 C 0.57033 0.23056 0.43072 0.0
C179 C 0.585 0.20626 0.41613 0.0
C180 C 0.6585 0.15104 0.41349 0.0
C181 C 0.67056 0.12483 0.39934 0.0
C182 C 0.69204 0.10525 0.41507 0.0
C183 C 0.70236 0.11199 0.44502 0.0
C184 C 0.68952 0.13761 0.45962 0.0
C185 C 0.66766 0.15698 0.44397 0.0
C186 C 0.60939 0.15913 0.36573 0.0
C187 C 0.60222 0.1734 0.33616 0.0
C188 C 0.58467 0.15615 0.31531 0.0
C189 C 0.57385 0.12434 0.32381 0.0
C190 C 0.57922 0.11102 0.35435 0.0
C191 C 0.59666 0.12847 0.37529 0.0
P192 P 0.34938 0.63934 0.16564 0.0
H193 H 0.31067 0.66357 0.11382 0.0
H194 H 0.25749 0.65136 0.09894 0.0
H195 H 0.24536 0.59117 0.18462 0.0
H196 H 0.29868 0.60341 0.19932 0.0
H197 H 0.41227 0.66265 0.15613 0.0
H198 H 0.43568 0.71555 0.14017 0.0
H199 H 0.34579 0.75739 0.13785 0.0
H200 H 0.32288 0.70462 0.15569 0.0
H201 H 0.39518 0.59424 0.1908 0.0
H202 H 0.3292 0.65689 0.22718 0.0
O203 O 0.36556 0.61499 0.1417 0.0
H204 H 0.41219 0.57778 0.24344 0.0
H205 H 0.34565 0.63977 0.28054 0.0
C206 C 0.30848 0.63542 0.15823 0.0
C207 C 0.2963 0.64864 0.12993 0.0
C208 C 0.26585 0.64152 0.12137 0.0
C209 C 0.24706 0.62038 0.14064 0.0
C210 C 0.25921 0.60748 0.16921 0.0
C211 C 0.28966 0.6148 0.17783 0.0
C212 C 0.36576 0.67947 0.15623 0.0
C213 C 0.39764 0.68329 0.15236 0.0
C214 C 0.41097 0.71358 0.14296 0.0
C215 C 0.39264 0.74081 0.13698 0.0
C216 C 0.36072 0.7371 0.14222 0.0
C217 C 0.34746 0.70676 0.15208 0.0
C218 C 0.36048 0.62634 0.20506 0.0
C219 C 0.38397 0.60412 0.21018 0.0
C220 C 0.39363 0.59457 0.24044 0.0
C221 C 0.38007 0.60709 0.26639 0.0
C222 C 0.35669 0.62971 0.26114 0.0
C223 C 0.34709 0.63936 0.2307 0.0
P224 P 0.10831 0.36111 0.62076 0.0
H225 H 0.11897 0.31944 0.57121 0.0
H226 H 0.08571 0.28094 0.54579 0.0
H227 H 0.00677 0.31661 0.59131 0.0
H228 H 0.0405 0.35526 0.61689 0.0
H229 H 0.14835 0.41104 0.64411 0.0
H230 H 0.1866 0.4482 0.61925 0.0
H231 H 0.15793 0.41841 0.529 0.0
H232 H 0.11883 0.3816 0.5541 0.0
H233 H 0.0867 0.32629 0.67788 0.0
H234 H 0.08655 0.42449 0.63666 0.0
O235 O 0.13385 0.3342 0.63432 0.0
H236 H 0.0672 0.34437 0.72651 0.0
H237 H 0.06887 0.44317 0.68566 0.0
C238 C 0.08227 0.33995 0.59609 0.0
C239 C 0.09439 0.31972 0.57495 0.0
C240 C 0.07524 0.29779 0.56028 0.0
C241 C 0.04355 0.29557 0.56665 0.0
C242 C 0.03113 0.31757 0.58617 0.0
C243 C 0.05039 0.3397 0.60076 0.0
C244 C 0.13043 0.39379 0.60102 0.0
C245 C 0.14933 0.41341 0.61888 0.0
C246 C 0.17121 0.43476 0.6046 0.0
C247 C 0.17515 0.43634 0.57214 0.0
C248 C 0.15527 0.41773 0.55406 0.0
C249 C 0.13296 0.39663 0.56842 0.0
C250 C 0.08909 0.37424 0.65417 0.0
C251 C 0.08239 0.35177 0.67933 0.0
C252 C 0.07143 0.36219 0.70715 0.0
C253 C 0.06721 0.39535 0.71031 0.0
C254 C 0.07183 0.41745 0.68414 0.0
C255 C 0.08233 0.40688 0.65615 0.0
Co256 Co 0.9921 0.00766 0.50897 0.0
C257 C 0.02174 0.94867 0.51045 0.0
Co258 Co 0.03619 0.00672 0.53433 0.0
C259 C 0.92824 0.01791 0.4954 0.0
C260 C 0.95048 0.99512 0.45898 0.0
N261 N 0.9555 0.00663 0.48717 0.0
N262 N 0.90645 0.01415 0.47334 0.0
C263 C 0.92034 0.99983 0.45035 0.0
H264 H 0.92474 0.02957 0.51675 0.0
H265 H 0.96775 0.98438 0.44542 0.0
C266 C 0.00672 0.06583 0.53267 0.0
N267 N 0.07288 0.00786 0.55606 0.0
C268 C 0.10033 0.99754 0.54728 0.0
C269 C 0.07826 0.02048 0.58368 0.0
N270 N 0.12273 1.00337 0.56824 0.0
C271 C 0.10892 0.0178 0.59122 0.0
C272 C 0.04236 0.02718 0.47099 0.0
O273 O 0.98581 0.05119 0.51783 0.0
O274 O 0.03045 0.05062 0.54181 0.0
O275 O 0.0574 0.02069 0.49612 0.0
O276 O 0.01323 0.02324 0.47143 0.0
O277 O 0.04181 0.96276 0.52678 0.0
H278 H 0.06104 0.03122 0.59729 0.0
H279 H 0.1039 0.98664 0.52553 0.0
O280 O 0.99863 0.96424 0.50013 0.0
O281 O 0.97105 0.99218 0.54667 0.0
O282 O 0.01476 0.9928 0.57226 0.0
C283 C 0.98577 0.98739 0.57225 0.0
H284 H 0.90952 0.99336 0.4288 0.0
H285 H 0.12011 0.02565 0.61208 0.0
Co286 Co 0.49169 1.00351 0.99535 0.0
C287 C 0.48501 0.95331 0.0421 0.0
Co288 Co 0.51895 0.01112 0.03767 0.0
C289 C 0.47855 0.99811 0.93047 0.0
C290 C 0.43908 0.98577 0.95876 0.0
N291 N 0.46868 0.99624 0.96019 0.0
N292 N 0.4564 0.98891 0.91046 0.0
C293 C 0.43145 0.98124 0.92823 0.0
H294 H 0.50174 0.00572 0.92381 0.0
H295 H 0.4243 0.98082 0.97875 0.0
C296 C 0.52577 0.06134 0.99098 0.0
N297 N 0.54245 0.01843 0.07268 0.0
C298 C 0.53298 0.02251 0.10188 0.0
C299 C 0.57323 0.02342 0.07357 0.0
N300 N 0.55659 0.03021 0.12085 0.0
C301 C 0.58198 0.03054 0.1031 0.0
C302 C 0.55113 0.97919 0.99334 0.0
O303 O 0.50634 0.0443 0.97646 0.0
O304 O 0.53425 0.0512 0.01825 0.0
O305 O 0.55265 0.98933 0.02052 0.0
O306 O 0.52615 0.98267 0.97798 0.0
O307 O 0.50365 0.97089 0.05702 0.0
H308 H 0.58832 0.02297 0.05378 0.0
H309 H 0.50907 0.02133 0.10873 0.0
O310 O 0.47721 0.96292 0.01446 0.0
O311 O 0.45742 0.0242 0.0128 0.0
O312 O 0.48487 0.03296 0.05441 0.0
C313 C 0.45949 0.03541 0.03955 0.0
H314 H 0.4096 0.97179 0.92003 0.0
H315 H 0.60521 0.03618 0.11068 0.0
Co316 Co 0.52592 0.53309 0.51716 0.0
C317 C 0.47636 0.53912 0.47538 0.0
Co318 Co 0.48181 0.51361 0.53647 0.0
C319 C 0.5913 0.54219 0.50666 0.0
C320 C 0.56481 0.57791 0.48087 0.0
N321 N 0.56214 0.55121 0.50072 0.0
N322 N 0.61209 0.56238 0.49145 0.0
C323 C 0.59538 0.58474 0.47504 0.0
H324 H 0.59712 0.52176 0.52255 0.0
H325 H 0.54576 0.59185 0.47158 0.0
C326 C 0.53136 0.50713 0.57812 0.0
N327 N 0.44563 0.49543 0.55276 0.0
C328 C 0.41658 0.50503 0.54742 0.0
C329 C 0.44279 0.46761 0.57102 0.0
N330 N 0.39566 0.48417 0.56156 0.0
C331 C 0.41217 0.46065 0.57648 0.0
C332 C 0.51625 0.46889 0.5075 0.0
O333 O 0.54639 0.52117 0.55551 0.0
O334 O 0.50257 0.50201 0.57488 0.0
O335 O 0.49146 0.47289 0.5219 0.0
O336 O 0.53508 0.49276 0.50241 0.0
O337 O 0.46133 0.52514 0.498 0.0
H338 H 0.46173 0.45276 0.579 0.0
H339 H 0.41092 0.52664 0.53305 0.0
O340 O 0.50504 0.54473 0.47883 0.0
O341 O 0.51673 0.57332 0.53204 0.0
O342 O 0.47239 0.55456 0.55085 0.0
C343 C 0.4919 0.57793 0.54609 0.0
H344 H 0.60449 0.60472 0.45985 0.0
H345 H 0.4028 0.43916 0.58936 0.0
Co346 Co 0.01649 0.50734 0.99903 0.0
C347 C 0.9583 0.47774 0.99615 0.0
Co348 Co 0.9907 0.50797 0.0426 0.0
C349 C 0.03662 0.48574 0.94094 0.0
C350 C 0.05348 0.53381 0.94804 0.0
N351 N 0.03734 0.50845 0.96186 0.0
N352 N 0.05124 0.49606 0.9143 0.0
C353 C 0.06207 0.52628 0.91883 0.0
H354 H 0.02483 0.4624 0.94497 0.0
H355 H 0.05752 0.55684 0.958 0.0
C356 C 0.04899 0.53754 0.04537 0.0
N357 N 0.96959 0.50681 0.07962 0.0
C358 C 0.97008 0.52923 0.10082 0.0
C359 C 0.95155 0.48217 0.09211 0.0
N360 N 0.95317 0.51951 0.12614 0.0
C361 C 0.94135 0.48995 0.12068 0.0
C362 C 0.02793 0.45363 0.0396 0.0
O363 O 0.04987 0.53047 0.01715 0.0
O364 O 0.02491 0.5299 0.06111 0.0
O365 O 0.00829 0.46696 0.05585 0.0
O366 O 0.03519 0.4673 0.01306 0.0
O367 O 0.95666 0.48618 0.02387 0.0
H368 H 0.94676 0.45965 0.08146 0.0
H369 H 0.98282 0.55215 0.09782 0.0
O370 O 0.98298 0.48406 0.98108 0.0
O371 O 0.99771 0.54735 0.98515 0.0
O372 O 0.97325 0.54899 0.0292 0.0
C373 C 0.97931 0.56166 1.00196 0.0
H374 H 0.07398 0.5425 0.90173 0.0
H375 H 0.92723 0.47456 0.13665 0.0
C376 C 0.13372 0.12856 0.3326 0.0
C377 C 0.13641 0.11211 0.30537 0.0
C378 C 0.1181 0.11432 0.35899 0.0
C379 C 0.10518 0.08244 0.35862 0.0
C380 C 0.10785 0.06565 0.3312 0.0
C381 C 0.1231 0.08078 0.30485 0.0
C382 C 0.11533 0.13353 0.38728 0.0
C383 C 0.09496 0.03148 0.32984 0.0
C384 C 0.0902 0.03719 0.4384 0.0
C385 C 0.05835 0.04016 0.44181 0.0
C386 C 0.10553 0.04999 0.41119 0.0
C387 C 0.08885 0.06689 0.38692 0.0
C388 C 0.05669 0.06992 0.39026 0.0
C389 C 0.04184 0.05627 0.4174 0.0
C390 C 0.13968 0.04557 0.40852 0.0
C391 C 0.03799 0.08825 0.36545 0.0
H392 H 0.14359 0.15292 0.33313 0.0
H393 H 0.12523 0.06778 0.28405 0.0
H394 H 0.09073 0.13557 0.39322 0.0
H395 H 0.12668 0.12077 0.40766 0.0
H396 H 0.12587 0.15832 0.38362 0.0
H397 H 0.09923 0.02152 0.30704 0.0
H398 H 0.10545 0.01544 0.34858 0.0
H399 H 0.06981 0.03082 0.33395 0.0
H400 H 0.10319 0.02468 0.45698 0.0
H401 H 0.01729 0.05892 0.41979 0.0
H402 H 0.15197 0.06954 0.40737 0.0
H403 H 0.14469 0.03418 0.38664 0.0
H404 H 0.14904 0.0303 0.42852 0.0
H405 H 0.04674 0.11377 0.36232 0.0
H406 H 0.01317 0.08818 0.37133 0.0
H407 H 0.04043 0.07749 0.34278 0.0
C408 C 0.47013 0.98446 0.72541 0.0
C409 C 0.46575 0.95228 0.71763 0.0
C410 C 0.4709 0.99213 0.75668 0.0
C411 C 0.46688 0.96706 0.78065 0.0
C412 C 0.46338 0.93446 0.77299 0.0
C413 C 0.46306 0.92746 0.74161 0.0
C414 C 0.47503 0.02714 0.76401 0.0
C415 C 0.45899 0.90704 0.79792 0.0
C416 C 0.48823 0.98007 0.8647 0.0
C417 C 0.45941 0.9854 0.87752 0.0
C418 C 0.49118 0.97496 0.83299 0.0
C419 C 0.46466 0.9749 0.81369 0.0
C420 C 0.43563 0.98087 0.82629 0.0
C421 C 0.43339 0.98618 0.858 0.0
C422 C 0.52256 0.96884 0.82034 0.0
C423 C 0.40679 0.9809 0.80644 0.0
H424 H 0.47196 1.00382 0.70706 0.0
H425 H 0.46032 0.90248 0.73581 0.0
H426 H 0.4537 0.03526 0.77456 0.0
H427 H 0.49386 0.02979 0.78131 0.0
H428 H 0.48035 0.04341 0.7429 0.0
H429 H 0.45776 0.88293 0.78812 0.0
H430 H 0.47816 0.90738 0.81509 0.0
H431 H 0.43742 0.91019 0.81077 0.0
H432 H 0.50843 0.97896 0.87958 0.0
H433 H 0.41116 0.99082 0.86754 0.0
H434 H 0.52761 0.98582 0.7997 0.0
H435 H 0.52296 0.9439 0.81253 0.0
H436 H 0.54113 0.97165 0.83796 0.0
H437 H 0.40949 0.99874 0.78601 0.0
H438 H 0.38612 0.98687 0.8196 0.0
H439 H 0.4028 0.95669 0.79735 0.0
C440 C 0.63146 0.40353 0.7002 0.0
C441 C 0.6328 0.4137 0.73059 0.0
C442 C 0.61429 0.42018 0.6767 0.0
C443 C 0.59827 0.44802 0.68357 0.0
C444 C 0.59956 0.4585 0.71421 0.0
C445 C 0.61661 0.44105 0.73745 0.0
C446 C 0.61316 0.40782 0.64451 0.0
C447 C 0.58314 0.48828 0.72235 0.0
C448 C 0.57827 0.50397 0.61249 0.0
C449 C 0.54752 0.49464 0.60689 0.0
C450 C 0.59465 0.49006 0.63819 0.0
C451 C 0.58013 0.46584 0.65853 0.0
C452 C 0.54884 0.45699 0.65348 0.0
C453 C 0.53287 0.47165 0.62789 0.0
C454 C 0.62782 0.50055 0.64298 0.0
C455 C 0.5326 0.43098 0.67431 0.0
H456 H 0.64355 0.38213 0.69489 0.0
H457 H 0.61773 0.44909 0.76086 0.0
H458 H 0.58896 0.40242 0.63773 0.0
H459 H 0.62248 0.42674 0.62719 0.0
H460 H 0.62651 0.38555 0.64311 0.0
H461 H 0.58664 0.49344 0.74715 0.0
H462 H 0.5915 0.50966 0.70732 0.0
H463 H 0.55811 0.48516 0.71782 0.0
H464 H 0.58973 0.52181 0.59648 0.0
H465 H 0.50917 0.46417 0.6237 0.0
H466 H 0.64296 0.48019 0.63909 0.0
H467 H 0.63165 0.50699 0.66734 0.0
H468 H 0.63489 0.52167 0.62688 0.0
H469 H 0.54349 0.40739 0.67205 0.0
H470 H 0.50777 0.42828 0.66842 0.0
H471 H 0.53486 0.43654 0.69907 0.0
C472 C 0.94549 0.58021 0.29623 0.0
C473 C 0.9318 0.61039 0.29649 0.0
C474 C 0.95044 0.56613 0.26811 0.0
C475 C 0.94138 0.58262 0.23964 0.0
C476 C 0.92825 0.61345 0.23969 0.0
C477 C 0.92366 0.62699 0.26813 0.0
C478 C 0.96455 0.53321 0.26891 0.0
C479 C 0.9184 0.63179 0.20976 0.0
C480 C 0.97388 0.55643 0.16425 0.0
C481 C 0.94993 0.53618 0.15406 0.0
C482 C 0.97142 0.57185 0.19204 0.0
C483 C 0.94432 0.56695 0.20993 0.0
C484 C 0.91994 0.54684 0.19959 0.0
C485 C 0.92308 0.53165 0.17179 0.0
C486 C 0.99794 0.59301 0.20245 0.0
C487 C 0.89057 0.54125 0.21795 0.0
H488 H 0.95154 0.56714 0.3181 0.0
H489 H 0.91353 0.65058 0.2682 0.0
H490 H 0.94764 0.51531 0.26016 0.0
H491 H 0.98479 0.53407 0.25334 0.0
H492 H 0.97192 0.52445 0.29279 0.0
H493 H 0.9097 0.65608 0.21374 0.0
H494 H 0.93798 0.63491 0.19337 0.0
H495 H 0.89997 0.61771 0.19825 0.0
H496 H 0.99486 0.55963 0.15086 0.0
H497 H 0.9044 0.51636 0.16377 0.0
H498 H 0.00669 0.5832 0.22545 0.0
H499 H 0.99006 0.61782 0.20542 0.0
H500 H 0.01724 0.59469 0.18561 0.0
H501 H 0.89577 0.53016 0.24162 0.0
H502 H 0.8737 0.52515 0.2065 0.0
H503 H 0.87975 0.56474 0.22086 0.0
C504 C 0.3172 0.13576 0.09747 0.0
C505 C 0.30211 0.12006 0.12351 0.0
C506 C 0.3426 0.12217 0.08368 0.0
C507 C 0.3531 0.09156 0.09551 0.0
C508 C 0.33754 0.07508 0.12116 0.0
C509 C 0.31258 0.08956 0.13495 0.0
C510 C 0.35849 0.14087 0.05661 0.0
C511 C 0.34749 0.04219 0.1343 0.0
C512 C 0.40254 0.04486 0.04181 0.0
C513 C 0.43238 0.05015 0.05362 0.0
C514 C 0.37664 0.05772 0.05541 0.0
C515 C 0.38048 0.07701 0.08119 0.0
C516 C 0.41059 0.08269 0.09303 0.0
C517 C 0.43603 0.06897 0.07938 0.0
C518 C 0.34506 0.05037 0.04233 0.0
C519 C 0.41601 0.10353 0.12004 0.0
H520 H 0.3092 0.15887 0.08767 0.0
H521 H 0.30172 0.07713 0.15521 0.0
H522 H 0.38312 0.14526 0.06241 0.0
H523 H 0.35761 0.12649 0.03584 0.0
H524 H 0.34793 0.16459 0.0504 0.0
H525 H 0.3321 0.0317 0.15316 0.0
H526 H 0.34781 0.02518 0.11554 0.0
H527 H 0.37123 0.04413 0.14378 0.0
H528 H 0.39932 0.03013 0.02214 0.0
H529 H 0.45891 0.0733 0.08873 0.0
H530 H 0.33409 0.07323 0.03385 0.0
H531 H 0.33018 0.0385 0.06094 0.0
H532 H 0.34579 0.03432 0.02278 0.0
H533 H 0.40707 0.12806 0.11414 0.0
H534 H 0.44077 0.10602 0.1263 0.0
H535 H 0.40329 0.09297 0.1408 0.0
C536 C 0.29269 0.94387 0.58971 0.0
C537 C 0.31264 0.95574 0.56577 0.0
C538 C 0.26159 0.9517 0.5891 0.0
C539 C 0.25018 0.97212 0.56407 0.0
C540 C 0.27014 0.98425 0.53983 0.0
C541 C 0.30117 0.97587 0.54094 0.0
C542 C 0.24101 0.9383 0.6154 0.0
C543 C 0.25872 0.00614 0.5128 0.0
C544 C 0.1638 0.96931 0.55087 0.0
C545 C 0.15477 0.99612 0.56628 0.0
C546 C 0.19488 0.96152 0.54946 0.0
C547 C 0.21741 0.98112 0.56369 0.0
C548 C 0.2085 0.00855 0.57878 0.0
C549 C 0.17726 0.01567 0.57995 0.0
C550 C 0.20351 0.93192 0.53337 0.0
C551 C 0.23193 0.03015 0.59403 0.0
H552 H 0.30151 0.9288 0.60926 0.0
H553 H 0.3164 0.98484 0.52223 0.0
H554 H 0.23164 0.9585 0.62758 0.0
H555 H 0.22116 0.92451 0.60598 0.0
H556 H 0.25332 0.92208 0.63272 0.0
H557 H 0.27717 0.01342 0.49578 0.0
H558 H 0.23973 0.9937 0.5005 0.0
H559 H 0.24929 0.02834 0.52152 0.0
H560 H 0.14648 0.95394 0.54057 0.0
H561 H 0.17044 0.03671 0.59141 0.0
H562 H 0.21399 0.91406 0.5505 0.0
H563 H 0.22097 0.93864 0.51519 0.0
H564 H 0.18336 0.92004 0.52231 0.0
H565 H 0.24388 0.01604 0.6132 0.0
H566 H 0.22132 0.05126 0.60374 0.0
H567 H 0.24966 0.03923 0.57689 0.0
C568 C 0.81021 0.4229 0.89835 0.0
C569 C 0.80236 0.38984 0.90445 0.0
C570 C 0.83496 0.43757 0.91392 0.0
C571 C 0.85261 0.41873 0.93592 0.0
C572 C 0.84456 0.38552 0.94255 0.0
C573 C 0.81947 0.37158 0.92696 0.0
C574 C 0.84258 0.47313 0.90641 0.0
C575 C 0.86279 0.36454 0.96577 0.0
C576 C 0.93462 0.44824 0.9525 0.0
C577 C 0.93145 0.46186 0.98119 0.0
C578 C 0.90923 0.43394 0.93766 0.0
C579 C 0.87982 0.43358 0.9516 0.0
C580 C 0.87648 0.44731 0.98054 0.0
C581 C 0.90234 0.46107 0.99507 0.0
C582 C 0.91391 0.4192 0.90703 0.0
C583 C 0.8455 0.44779 0.996 0.0
H584 H 0.79751 0.43721 0.88078 0.0
H585 H 0.81332 0.34622 0.93237 0.0
H586 H 0.8431 0.48611 0.92809 0.0
H587 H 0.86581 0.47616 0.89596 0.0
H588 H 0.82574 0.48479 0.88992 0.0
H589 H 0.85344 0.33919 0.96849 0.0
H590 H 0.88708 0.36417 0.95817 0.0
H591 H 0.86285 0.37479 0.98888 0.0
H592 H 0.95703 0.44866 0.94162 0.0
H593 H 0.89962 0.47171 0.01713 0.0
H594 H 0.89949 0.43146 0.8886 0.0
H595 H 0.9065 0.39322 0.9091 0.0
H596 H 0.93829 0.42113 0.89945 0.0
H597 H 0.82907 0.46101 0.98022 0.0
H598 H 0.84672 0.45953 0.0184 0.0
H599 H 0.83603 0.42269 1.00053 0.0
C600 C 0.79392 0.57732 0.51066 0.0
C601 C 0.80621 0.57712 0.48065 0.0
C602 C 0.76301 0.56817 0.51635 0.0
C603 C 0.74403 0.55904 0.49133 0.0
C604 C 0.75718 0.55554 0.46185 0.0
C605 C 0.78816 0.56456 0.45689 0.0
C606 C 0.75003 0.57131 0.54836 0.0
C607 C 0.7378 0.54584 0.43453 0.0
C608 C 0.65996 0.53215 0.50102 0.0
C609 C 0.64519 0.56138 0.49323 0.0
C610 C 0.69224 0.531 0.50168 0.0
C611 C 0.71003 0.55966 0.49398 0.0
C612 C 0.69525 0.58931 0.48687 0.0
C613 C 0.66312 0.58981 0.48681 0.0
C614 C 0.7072 0.49903 0.50975 0.0
C615 C 0.71336 0.62053 0.47856 0.0
H616 H 0.80796 0.5865 0.52924 0.0
H617 H 0.79737 0.56449 0.43357 0.0
H618 H 0.73736 0.59416 0.54829 0.0
H619 H 0.73354 0.55097 0.55487 0.0
H620 H 0.76845 0.5719 0.56641 0.0
H621 H 0.75214 0.53923 0.41487 0.0
H622 H 0.72204 0.52505 0.44154 0.0
H623 H 0.72344 0.56644 0.42609 0.0
H624 H 0.64635 0.51001 0.50589 0.0
H625 H 0.65204 0.61265 0.48163 0.0
H626 H 0.72629 0.50199 0.52672 0.0
H627 H 0.71722 0.49022 0.48845 0.0
H628 H 0.69053 0.48023 0.5197 0.0
H629 H 0.7296 0.62578 0.49772 0.0
H630 H 0.69831 0.64159 0.47409 0.0
H631 H 0.72719 0.61805 0.45737 0.0
C632 C 0.10381 0.2833 0.10112 0.0
C633 C 0.12454 0.28892 0.12553 0.0
C634 C 0.08737 0.30884 0.08585 0.0
C635 C 0.0921 0.34102 0.09472 0.0
C636 C 0.11347 0.34686 0.11894 0.0
C637 C 0.12916 0.32084 0.13411 0.0
C638 C 0.06455 0.30133 0.06053 0.0
C639 C 0.11977 0.38069 0.1289 0.0
C640 C 0.07037 0.41348 0.03899 0.0
C641 C 0.04321 0.4235 0.05229 0.0
C642 C 0.08622 0.38649 0.05219 0.0
C643 C 0.0745 0.36858 0.07916 0.0
C644 C 0.0466 0.37801 0.09211 0.0
C645 C 0.0315 0.40539 0.07874 0.0
C646 C 0.11605 0.37774 0.0378 0.0
C647 C 0.03292 0.35949 0.1205 0.0
H648 H 0.09992 0.25874 0.09442 0.0
H649 H 0.14544 0.32557 0.15261 0.0
H650 H 0.04126 0.30848 0.06712 0.0
H651 H 0.07065 0.31562 0.03849 0.0
H652 H 0.06359 0.27518 0.05616 0.0
H653 H 0.13776 0.3814 0.14738 0.0
H654 H 0.12728 0.39703 0.10858 0.0
H655 H 0.09839 0.39046 0.13782 0.0
H656 H 0.07977 0.4273 0.01868 0.0
H657 H 0.01051 0.41274 0.08919 0.0
H658 H 0.11492 0.35204 0.03203 0.0
H659 H 0.13516 0.38034 0.05481 0.0
H660 H 0.12158 0.39327 0.01627 0.0
H661 H 0.03027 0.33335 0.1165 0.0
H662 H 0.01012 0.36853 0.12655 0.0
H663 H 0.04863 0.36156 0.14077 0.0
C664 C 0.62779 0.1921 0.89105 0.0
C665 C 0.62145 0.2246 0.89485 0.0
C666 C 0.61112 0.16664 0.90721 0.0
C667 C 0.58727 0.17374 0.92757 0.0
C668 C 0.58066 0.20651 0.93148 0.0
C669 C 0.59797 0.23157 0.91523 0.0
C670 C 0.61925 0.13209 0.90268 0.0
C671 C 0.55522 0.21507 0.95272 0.0
C672 C 0.52902 0.10454 0.94677 0.0
C673 C 0.5398 0.09166 0.9758 0.0
C674 C 0.54355 0.13198 0.93132 0.0
C675 C 0.56971 0.1467 0.94503 0.0
C676 C 0.58024 0.13425 0.97466 0.0
C677 C 0.5651 0.10703 0.98973 0.0
C678 C 0.53138 0.14472 0.89993 0.0
C679 C 0.6082 0.14898 0.98999 0.0
H680 H 0.64621 0.18656 0.8757 0.0
H681 H 0.59283 0.25663 0.91807 0.0
H682 H 0.62591 0.11963 0.92536 0.0
H683 H 0.59892 0.1186 0.89382 0.0
H684 H 0.63846 0.13067 0.88606 0.0
H685 H 0.55264 0.24168 0.95286 0.0
H686 H 0.53306 0.20393 0.94525 0.0
H687 H 0.55988 0.20509 0.9769 0.0
H688 H 0.50944 0.09293 0.93587 0.0
H689 H 0.57368 0.09726 0.01212 0.0
H690 H 0.54864 0.14146 0.88169 0.0
H691 H 0.52745 0.17108 0.89988 0.0
H692 H 0.50952 0.13214 0.89353 0.0
H693 H 0.62879 0.14619 0.97551 0.0
H694 H 0.61254 0.1375 0.01373 0.0
H695 H 0.6054 0.17534 0.99168 0.0
C696 C 0.0236 0.7643 0.4664 0.0
C697 C 0.99703 0.74978 0.48037 0.0
C698 C 0.0345 0.79499 0.47418 0.0
C699 C 0.0186 0.81121 0.49663 0.0
C700 C 0.99427 0.79489 0.51357 0.0
C701 C 0.98366 0.7644 0.50513 0.0
C702 C 0.06091 0.81133 0.45601 0.0
C703 C 0.97709 0.81109 0.53816 0.0
C704 C 0.04363 0.89386 0.52285 0.0
C705 C 0.02403 0.91408 0.50475 0.0
C706 C 0.04321 0.86026 0.51972 0.0
C707 C 0.02282 0.84685 0.49791 0.0
C708 C 1.00419 0.86747 0.47851 0.0
C709 C 1.00496 0.90077 0.48226 0.0
C710 C 0.06341 0.83909 0.54078 0.0
C711 C 0.9824 0.85422 0.45461 0.0
H712 H 0.03458 0.75274 0.44782 0.0
H713 H 0.96313 0.75354 0.51612 0.0
H714 H 0.0517 0.82881 0.4377 0.0
H715 H 0.07628 0.82514 0.47134 0.0
H716 H 0.07468 0.79355 0.44448 0.0
H717 H 0.96257 0.79343 0.55273 0.0
H718 H 0.9933 0.82374 0.5536 0.0
H719 H 0.96193 0.82955 0.52669 0.0
H720 H 0.05846 0.90405 0.54028 0.0
H721 H 0.99003 0.91633 0.46795 0.0
H722 H 0.0742 0.82041 0.52764 0.0
H723 H 0.04914 0.82621 0.55933 0.0
H724 H 0.0818 0.85347 0.55208 0.0
H725 H 0.99492 0.83906 0.43904 0.0
H726 H 0.97104 0.87374 0.44004 0.0
H727 H 0.9643 0.83852 0.46657 0.0
C728 C 0.46314 0.75749 0.59715 0.0
C729 C 0.46311 0.77829 0.56982 0.0
C730 C 0.46608 0.72395 0.59591 0.0
C731 C 0.46867 0.71085 0.56663 0.0
C732 C 0.46783 0.73155 0.53893 0.0
C733 C 0.46528 0.76503 0.54086 0.0
C734 C 0.46713 0.70263 0.62594 0.0
C735 C 0.47037 0.71842 0.50723 0.0
C736 C 0.51014 0.63302 0.5586 0.0
C737 C 0.4856 0.61075 0.55508 0.0
C738 C 0.50487 0.66537 0.56373 0.0
C739 C 0.47429 0.67584 0.56485 0.0
C740 C 0.44937 0.65324 0.56237 0.0
C741 C 0.45535 0.62078 0.55776 0.0
C742 C 0.53207 0.6886 0.56684 0.0
C743 C 0.41646 0.66364 0.56312 0.0
H744 H 0.46085 0.76743 0.6196 0.0
H745 H 0.46565 0.78089 0.51965 0.0
H746 H 0.44931 0.68286 0.6256 0.0
H747 H 0.48977 0.69106 0.62834 0.0
H748 H 0.4635 0.71641 0.64674 0.0
H749 H 0.46713 0.7374 0.48793 0.0
H750 H 0.49335 0.70804 0.50482 0.0
H751 H 0.45296 0.69857 0.50469 0.0
H752 H 0.53359 0.62524 0.55682 0.0
H753 H 0.43634 0.60362 0.55486 0.0
H754 H 0.52991 0.70184 0.58819 0.0
H755 H 0.53259 0.70691 0.54665 0.0
H756 H 0.55429 0.67606 0.5679 0.0
H757 H 0.41256 0.67717 0.58398 0.0
H758 H 0.39979 0.64271 0.56332 0.0
H759 H 0.41171 0.68028 0.54232 0.0
C760 C 0.89275 0.95008 0.73306 0.0
C761 C 0.89345 0.91727 0.74425 0.0
C762 C 0.90703 0.96148 0.70487 0.0
C763 C 0.92228 0.93963 0.68688 0.0
C764 C 0.92247 0.90636 0.69755 0.0
C765 C 0.90824 0.89565 0.72602 0.0
C766 C 0.90618 0.99713 0.69456 0.0
C767 C 0.9382 0.88209 0.67913 0.0
C768 C 0.93825 0.96536 0.60089 0.0
C769 C 0.96945 0.9753 0.60155 0.0
C770 C 0.92274 0.95351 0.62829 0.0
C771 C 0.93858 0.95173 0.65732 0.0
C772 C 0.97003 0.96188 0.65815 0.0
C773 C 0.98506 0.97335 0.63037 0.0
C774 C 0.88934 0.94276 0.62612 0.0
C775 C 0.98785 0.96078 0.68849 0.0
H776 H 0.88096 0.96706 0.74638 0.0
H777 H 0.90943 0.87036 0.73435 0.0
H778 H 0.92997 0.00759 0.69275 0.0
H779 H 0.89548 1.00047 0.67108 0.0
H780 H 0.89314 0.01098 0.71092 0.0
H781 H 0.93511 0.85689 0.68971 0.0
H782 H 0.92903 0.88311 0.65492 0.0
H783 H 0.96319 0.88824 0.67768 0.0
H784 H 0.92591 0.96662 0.57884 0.0
H785 H 0.0091 0.98098 0.63129 0.0
H786 H 0.87518 0.95726 0.64088 0.0
H787 H 0.88643 0.91702 0.63512 0.0
H788 H 0.88033 0.94532 0.60183 0.0
H789 H 0.97664 0.97587 0.70511 0.0
H790 H 0.01208 0.96962 0.68531 0.0
H791 H 0.98777 0.93559 0.69929 0.0
C792 C 0.54093 0.11744 0.27653 0.0
C793 C 0.5609 0.10412 0.29948 0.0
C794 C 0.53482 0.10181 0.2492 0.0
C795 C 0.54908 0.07223 0.24484 0.0
C796 C 0.56661 0.05705 0.26933 0.0
C797 C 0.57235 0.07323 0.2964 0.0
C798 C 0.51564 0.11859 0.22381 0.0
C799 C 0.582 0.02538 0.26571 0.0
C800 C 0.53079 0.02808 0.17202 0.0
C801 C 0.55475 0.03991 0.15225 0.0
C802 C 0.52851 0.03819 0.20238 0.0
C803 C 0.55069 0.06066 0.21305 0.0
C804 C 0.57493 0.07258 0.19321 0.0
C805 C 0.57661 0.06209 0.16312 0.0
C806 C 0.50244 0.02495 0.22297 0.0
C807 C 0.59904 0.0967 0.20364 0.0
H808 H 0.53156 0.14105 0.27912 0.0
H809 H 0.58789 0.0628 0.31399 0.0
H810 H 0.53102 0.12979 0.20529 0.0
H811 H 0.4999 0.101 0.2129 0.0
H812 H 0.50182 0.13797 0.23277 0.0
H813 H 0.58978 0.01394 0.2885 0.0
H814 H 0.56624 0.00808 0.25443 0.0
H815 H 0.60239 0.02989 0.25051 0.0
H816 H 0.51397 0.01072 0.16383 0.0
H817 H 0.59479 0.07189 0.14784 0.0
H818 H 0.48852 0.04512 0.23007 0.0
H819 H 0.51175 0.01248 0.24461 0.0
H820 H 0.48711 0.0076 0.21117 0.0
H821 H 0.58794 0.11912 0.20977 0.0
H822 H 0.61649 0.10338 0.18539 0.0
H823 H 0.61104 0.08649 0.22485 0.0
C824 C 0.39491 0.61948 0.32117 0.0
C825 C 0.39094 0.59685 0.29858 0.0
C826 C 0.40712 0.61042 0.35085 0.0
C827 C 0.41576 0.57799 0.35812 0.0
C828 C 0.41106 0.55486 0.33573 0.0
C829 C 0.39861 0.56452 0.30637 0.0
C830 C 0.41159 0.63577 0.37413 0.0
C831 C 0.41993 0.52004 0.34249 0.0
C832 C 0.47793 0.56159 0.41965 0.0
C833 C 0.46071 0.54911 0.4455 0.0
C834 C 0.46356 0.57119 0.39121 0.0
C835 C 0.4311 0.56851 0.3885 0.0
C836 C 0.41354 0.5562 0.41458 0.0
C837 C 0.42855 0.54653 0.44271 0.0
C838 C 0.48317 0.58395 0.36393 0.0
C839 C 0.3789 0.55318 0.41275 0.0
H840 H 0.38935 0.64456 0.31537 0.0
H841 H 0.39508 0.54668 0.28936 0.0
H842 H 0.40064 0.62731 0.3966 0.0
H843 H 0.43649 0.63973 0.37884 0.0
H844 H 0.40179 0.65933 0.36573 0.0
H845 H 0.41377 0.50478 0.32303 0.0
H846 H 0.4451 0.519 0.34671 0.0
H847 H 0.40841 0.50947 0.36396 0.0
H848 H 0.50277 0.56369 0.42154 0.0
H849 H 0.41502 0.53709 0.46259 0.0
H850 H 0.47629 0.60874 0.35574 0.0
H851 H 0.47953 0.56839 0.3442 0.0
H852 H 0.50808 0.58476 0.36991 0.0
H853 H 0.36925 0.57715 0.40574 0.0
H854 H 0.36854 0.54384 0.4353 0.0
H855 H 0.37191 0.53658 0.39466 0.0
C856 C 0.04183 0.43361 0.74407 0.0
C857 C 0.06076 0.40716 0.74134 0.0
C858 C 0.0385 0.44714 0.77277 0.0
C859 C 0.05415 0.43362 0.79941 0.0
C860 C 0.07216 0.40607 0.79714 0.0
C861 C 0.07546 0.39335 0.76811 0.0
C862 C 0.0192 0.47665 0.77432 0.0
C863 C 0.08894 0.39077 0.82513 0.0
C864 C 0.07538 0.48808 0.86388 0.0
C865 C 0.05234 0.47971 0.88588 0.0
C866 C 0.07605 0.47343 0.83556 0.0
C867 C 0.05334 0.44949 0.82921 0.0
C868 C 0.03023 0.44056 0.85139 0.0
C869 C 0.02989 0.45592 0.87938 0.0
C870 C 0.10103 0.48366 0.81238 0.0
C871 C 1.0058 0.4149 0.84551 0.0
H872 H 0.03 0.44411 0.72365 0.0
H873 H 0.09057 0.37329 0.76624 0.0
H874 H 1.0018 0.47244 0.79299 0.0
H875 H 0.03407 0.49765 0.78028 0.0
H876 H 0.00718 0.48313 0.75192 0.0
H877 H 0.09973 0.36779 0.82006 0.0
H878 H 0.10721 0.40784 0.83277 0.0
H879 H 0.07289 0.38571 0.84492 0.0
H880 H 0.09304 0.50605 0.86883 0.0
H881 H 0.01164 0.44962 0.89587 0.0
H882 H 0.09061 0.49246 0.78979 0.0
H883 H 0.11502 0.46256 0.80794 0.0
H884 H 0.11657 0.50314 0.82061 0.0
H885 H 0.99218 0.42247 0.82443 0.0
H886 H 0.98985 0.41022 0.86547 0.0
H887 H 0.01673 0.39186 0.84097 0.0
C888 C 0.70847 0.94195 0.90844 0.0
C889 C 0.71721 0.90945 0.91265 0.0
C890 C 0.68068 0.95225 0.92049 0.0
C891 C 0.66064 0.9296 0.93713 0.0
C892 C 0.66879 0.89658 0.94067 0.0
C893 C 0.69685 0.88695 0.92848 0.0
C894 C 0.6731 0.98765 0.91597 0.0
C895 C 0.64819 0.8715 0.95807 0.0
C896 C 0.60654 0.96291 0.99596 0.0
C897 C 0.57859 0.96494 0.97936 0.0
C898 C 0.6331 0.95109 0.9827 0.0
C899 C 0.63197 0.94082 0.95195 0.0
C900 C 0.6037 0.94233 0.9352 0.0
C901 C 0.57747 0.95437 0.94902 0.0
C902 C 0.6626 0.95016 1.00148 0.0
C903 C 0.60124 0.93163 0.90245 0.0
H904 H 0.7235 0.95957 0.89575 0.0
H905 H 0.70325 0.86187 0.93225 0.0
H906 H 0.65024 0.99034 0.90457 0.0
H907 H 0.67181 0.99801 0.93897 0.0
H908 H 0.69047 1.00205 0.90157 0.0
H909 H 0.6567 0.84657 0.95718 0.0
H910 H 0.64668 0.87705 0.98284 0.0
H911 H 0.62455 0.87221 0.94818 0.0
H912 H 0.60786 0.97101 0.01935 0.0
H913 H 0.55612 0.95581 0.93586 0.0
H914 H 0.68046 0.96607 0.98939 0.0
H915 H 0.67134 0.9252 1.00346 0.0
H916 H 0.65959 0.95819 0.02531 0.0
H917 H 0.61704 0.94678 0.88691 0.0
H918 H 0.57751 0.93343 0.89282 0.0
H919 H 0.60841 0.90617 0.90207 0.0
C920 C 0.75481 0.11305 0.46871 0.0
C921 C 0.72922 0.09497 0.45881 0.0
C922 C 0.78284 0.09825 0.4756 0.0
C923 C 0.78513 0.06454 0.47276 0.0
C924 C 0.75867 0.04576 0.46529 0.0
C925 C 0.73101 0.06127 0.45815 0.0
C926 C 0.81057 0.11917 0.48331 0.0
C927 C 0.76008 0.00966 0.46263 0.0
C928 C 0.86191 0.03742 0.44533 0.0
C929 C 0.87554 0.02544 0.47328 0.0
C930 C 0.83237 0.04989 0.44492 0.0
C931 C 0.8159 0.05002 0.47315 0.0
C932 C 0.82925 0.03732 0.50141 0.0
C933 C 0.85909 0.02537 0.50117 0.0
C934 C 0.81907 0.06359 0.41431 0.0
C935 C 0.81215 0.03661 0.53183 0.0
H936 H 0.75356 0.13916 0.46896 0.0
H937 H 0.71111 0.04725 0.45078 0.0
H938 H 0.82324 0.10804 0.50366 0.0
H939 H 0.82654 0.12117 0.46324 0.0
H940 H 0.80417 0.14399 0.48844 0.0
H941 H 0.73678 0.99794 0.46162 0.0
H942 H 0.77252 0.00504 0.44109 0.0
H943 H 0.77292 0.99805 0.48264 0.0
H944 H 0.87475 0.0379 0.42384 0.0
H945 H 0.86953 0.01576 0.52274 0.0
H946 H 0.81418 0.08959 0.41579 0.0
H947 H 0.79696 0.0508 0.40933 0.0
H948 H 0.83482 0.06143 0.39445 0.0
H949 H 0.80764 0.06172 0.53756 0.0
H950 H 0.82517 0.02443 0.55147 0.0
H951 H 0.7895 0.02382 0.52968 0.0
C952 C 0.20629 0.57727 0.1329 0.0
C953 C 0.21579 0.61009 0.12983 0.0
C954 C 0.17801 0.56667 0.12052 0.0
C955 C 0.15857 0.58943 0.10476 0.0
C956 C 0.16756 0.62274 0.10245 0.0
C957 C 0.19609 0.63264 0.11488 0.0
C958 C 0.16945 0.53092 0.12333 0.0
C959 C 0.14739 0.64783 0.08614 0.0
C960 C 0.1041 0.55719 0.04369 0.0
C961 C 0.07634 0.55283 0.06008 0.0
C962 C 0.1308 0.56954 0.05782 0.0
C963 C 0.12981 0.57804 0.0891 0.0
C964 C 0.10168 0.57452 0.10554 0.0
C965 C 0.07533 0.56184 0.09089 0.0
C966 C 0.16031 0.57276 0.03946 0.0
C967 C 0.09956 0.58356 0.13879 0.0
H968 H 0.22152 0.5596 0.14402 0.0
H969 H 0.2031 0.65809 0.1127 0.0
H970 H 0.14636 0.52684 0.1339 0.0
H971 H 0.16825 0.52161 0.09979 0.0
H972 H 0.18627 0.51657 0.13769 0.0
H973 H 0.15662 0.67293 0.08822 0.0
H974 H 0.14535 0.64352 0.06103 0.0
H975 H 0.12385 0.64574 0.09595 0.0
H976 H 0.10518 0.5503 0.0199 0.0
H977 H 0.05399 0.55866 0.10373 0.0
H978 H 0.17786 0.55703 0.05104 0.0
H979 H 0.16961 0.59808 0.03884 0.0
H980 H 0.15707 0.56593 0.01512 0.0
H981 H 0.11437 0.56773 0.15406 0.0
H982 H 0.07564 0.58118 0.14772 0.0
H983 H 0.10814 0.6089 0.14061 0.0
C984 C 0.22295 0.43545 0.54103 0.0
C985 C 0.20319 0.45286 0.55862 0.0
C986 C 0.25353 0.44615 0.53602 0.0
C987 C 0.26438 0.47503 0.54874 0.0
C988 C 0.24348 0.49467 0.56312 0.0
C989 C 0.21309 0.48321 0.56811 0.0
C990 C 0.27499 0.42453 0.52039 0.0
C991 C 0.25393 0.52612 0.57612 0.0
C992 C 0.34454 0.46913 0.58295 0.0
C993 C 0.36261 0.48494 0.55933 0.0
C994 C 0.31252 0.46662 0.58002 0.0
C995 C 0.29801 0.48071 0.5529 0.0
C996 C 0.31589 0.49816 0.52959 0.0
C997 C 0.34807 0.49991 0.53299 0.0
C998 C 0.29432 0.44786 0.60556 0.0
C999 C 0.30123 0.5139 0.50059 0.0
H1000 H 0.21546 0.41192 0.53371 0.0
H1001 H 0.19766 0.49695 0.5813 0.0
H1002 H 0.29048 0.43901 0.50402 0.0
H1003 H 0.2896 0.41178 0.53838 0.0
H1004 H 0.26225 0.40603 0.50741 0.0
H1005 H 0.23421 0.5416 0.5803 0.0
H1006 H 0.26605 0.5208 0.59866 0.0
H1007 H 0.27029 0.5399 0.5601 0.0
H1008 H 0.35552 0.45822 0.60367 0.0
H1009 H 0.36183 0.51203 0.51451 0.0
H1010 H 0.28218 0.42669 0.59607 0.0
H1011 H 0.2766 0.46335 0.61459 0.0
H1012 H 0.30911 0.43895 0.62538 0.0
H1013 H 0.29368 0.49493 0.485 0.0
H1014 H 0.31745 0.53108 0.48752 0.0
H1015 H 0.28054 0.52709 0.50654 0.0
C1016 C 0.87599 0.70789 0.92861 0.0
C1017 C 0.89355 0.73687 0.92368 0.0
C1018 C 0.88921 0.67926 0.94182 0.0
C1019 C 0.92066 0.67961 0.95098 0.0
C1020 C 0.93829 0.70901 0.94661 0.0
C1021 C 0.92465 0.73707 0.93284 0.0
C1022 C 0.86963 0.64845 0.94547 0.0
C1023 C 0.97167 0.71083 0.95646 0.0
C1024 C 0.9492 0.61187 0.00886 0.0
C1025 C 0.96441 0.592 0.98926 0.0
C1026 C 0.93499 0.64041 0.99682 0.0
C1027 C 0.9354 0.64914 0.96428 0.0
C1028 C 0.95045 0.62895 0.94439 0.0
C1029 C 0.96493 0.60093 0.95709 0.0
C1030 C 0.91975 0.66142 0.019 0.0
C1031 C 0.95116 0.63687 0.90956 0.0
H1032 H 0.85202 0.70743 0.92148 0.0
H1033 H 0.93831 0.75943 0.92959 0.0
H1034 H 0.87966 0.62964 0.93188 0.0
H1035 H 0.86935 0.63889 0.97026 0.0
H1036 H 0.84556 0.65215 0.93747 0.0
H1037 H 0.98189 0.73576 0.9527 0.0
H1038 H 0.97398 0.70266 0.98151 0.0
H1039 H 0.98516 0.69433 0.94312 0.0
H1040 H 0.94867 0.6053 0.03373 0.0
H1041 H 0.97637 0.58572 0.94163 0.0
H1042 H 0.89506 0.66373 0.01282 0.0
H1043 H 0.93046 0.68619 0.01693 0.0
H1044 H 0.92159 0.65152 0.04365 0.0
H1045 H 0.92735 0.63894 0.90027 0.0
H1046 H 0.96292 0.61822 0.89715 0.0
H1047 H 0.96321 0.66064 0.90419 0.0
C1048 C 0.39601 0.80205 0.13343 0.0
C1049 C 0.40674 0.77251 0.12438 0.0
C1050 C 0.40867 0.83191 0.12097 0.0
C1051 C 0.43292 0.83235 0.09918 0.0
C1052 C 0.44416 0.8027 0.09029 0.0
C1053 C 0.43081 0.77326 0.10274 0.0
C1054 C 0.39586 0.86301 0.13086 0.0
C1055 C 0.47011 0.80207 0.06727 0.0
C1056 C 0.44693 0.90654 0.04278 0.0
C1057 C 0.47182 0.9224 0.05686 0.0
C1058 C 0.43379 0.87755 0.05655 0.0
C1059 C 0.44603 0.86377 0.08496 0.0
C1060 C 0.4712 0.87961 0.0993 0.0
C1061 C 0.48366 0.90884 0.08519 0.0
C1062 C 0.40677 0.86165 0.04066 0.0
C1063 C 0.48516 0.8655 0.12938 0.0
H1064 H 0.37777 0.80189 0.15042 0.0
H1065 H 0.43895 0.75074 0.095 0.0
H1066 H 0.41439 0.87793 0.14121 0.0
H1067 H 0.38681 0.87744 0.1102 0.0
H1068 H 0.37709 0.85856 0.14813 0.0
H1069 H 0.47719 0.77702 0.06389 0.0
H1070 H 0.46296 0.81365 0.04437 0.0
H1071 H 0.49038 0.8162 0.07537 0.0
H1072 H 0.43745 0.91695 0.02102 0.0
H1073 H 0.5029 0.9209 0.09623 0.0
H1074 H 0.38699 0.85853 0.05682 0.0
H1075 H 0.41286 0.83714 0.03439 0.0
H1076 H 0.39939 0.87595 0.01915 0.0
H1077 H 0.4674 0.86252 0.14779 0.0
H1078 H 0.50448 0.88093 0.13771 0.0
H1079 H 0.49381 0.84106 0.12607 0.0
C1080 C 0.02998 0.25518 0.52778 0.0
C1081 C 0.02515 0.26713 0.55695 0.0
C1082 C 0.02018 0.22361 0.52179 0.0
C1083 C 1.00499 0.20375 0.54549 0.0
C1084 C 0.9967 0.21709 0.57346 0.0
C1085 C 0.00701 0.24865 0.57894 0.0
C1086 C 0.02917 0.21045 0.49148 0.0
C1087 C 0.97998 0.19693 0.59907 0.0
C1088 C 0.9792 0.1184 0.52714 0.0
C1089 C 1.00469 0.10064 0.53777 0.0
C1090 C 0.97841 0.15198 0.53013 0.0
C1091 C 1.00383 0.16802 0.54375 0.0
C1092 C 0.02925 0.15002 0.55514 0.0
C1093 C 0.02928 0.11661 0.55213 0.0
C1094 C 0.9508 0.17035 0.51809 0.0
C1095 C 0.05686 0.16616 0.56989 0.0
H1096 H 0.04339 0.26967 0.51043 0.0
H1097 H 1.00312 0.25764 0.60157 0.0
H1098 H 0.04902 0.19447 0.4957 0.0
H1099 H 0.01004 0.19564 0.48205 0.0
H1100 H 0.03588 0.23014 0.47363 0.0
H1101 H 0.96964 0.21232 0.61605 0.0
H1102 H 0.96157 0.18138 0.58933 0.0
H1103 H 0.99645 0.18075 0.61183 0.0
H1104 H 0.96006 0.10619 0.51608 0.0
H1105 H 0.04904 0.10309 0.56049 0.0
H1106 H 0.95734 0.18635 0.49721 0.0
H1107 H 0.94264 0.18612 0.53587 0.0
H1108 H 0.9315 0.15385 0.5116 0.0
H1109 H 0.06763 0.18449 0.55286 0.0
H1110 H 0.07454 0.14856 0.5779 0.0
H1111 H 0.04961 0.17904 0.59018 0.0
C1112 C 0.54889 0.29957 0.4375 0.0
C1113 C 0.57232 0.28401 0.45482 0.0
C1114 C 0.53712 0.32855 0.44657 0.0
C1115 C 0.54892 0.34201 0.47372 0.0
C1116 C 0.57143 0.32547 0.49217 0.0
C1117 C 0.583 0.29671 0.48238 0.0
C1118 C 0.51327 0.34563 0.42621 0.0
C1119 C 0.58425 0.33888 0.52151 0.0
C1120 C 0.54873 0.43307 0.47825 0.0
C1121 C 0.52364 0.43656 0.49779 0.0
C1122 C 0.55682 0.40243 0.46983 0.0
C1123 C 0.5396 0.3746 0.4815 0.0
C1124 C 0.51406 0.37796 0.50099 0.0
C1125 C 0.50628 0.40897 0.50879 0.0
C1126 C 0.58406 0.3998 0.44873 0.0
C1127 C 0.49536 0.34877 0.51405 0.0
H1128 H 0.54086 0.28994 0.416 0.0
H1129 H 0.60093 0.28449 0.49591 0.0
H1130 H 0.49351 0.35199 0.44041 0.0
H1131 H 0.52344 0.36862 0.4153 0.0
H1132 H 0.5046 0.33061 0.40742 0.0
H1133 H 0.59951 0.32162 0.53467 0.0
H1134 H 0.59766 0.3617 0.51542 0.0
H1135 H 0.56529 0.34481 0.53697 0.0
H1136 H 0.56216 0.45431 0.46957 0.0
H1137 H 0.48693 0.41151 0.52403 0.0
H1138 H 0.57697 0.387 0.42792 0.0
H1139 H 0.60202 0.3853 0.46115 0.0
H1140 H 0.59436 0.4239 0.44081 0.0
H1141 H 0.48633 0.33462 0.49483 0.0
H1142 H 0.47571 0.3556 0.52822 0.0
H1143 H 0.51023 0.33257 0.52888 0.0
loop_
_geom_bond_atom_site_label_1
_geom_bond_atom_site_label_2
_geom_bond_distance
_geom_bond_site_symmetry_2
_ccdc_geom_bond_type
P0 O11 1.490 . S
P0 C14 1.812 . S
P0 C20 1.803 . S
P0 C26 1.819 . S
H1 C15 0.941 . S
H2 C16 0.939 . S
H3 C18 0.940 . S
H4 C19 0.940 . S
H5 C21 0.939 . S
H6 C22 0.942 . S
H7 C24 0.940 . S
H8 C25 0.939 . S
H9 C27 0.941 . S
H10 C31 0.939 . S
O11 P0 1.490 . S
H12 C28 0.939 . S
H13 C30 0.940 . S
C14 P0 1.812 . S
C14 C15 1.389 . S
C14 C19 1.391 . S
C15 H1 0.941 . S
C15 C14 1.389 . S
C15 C16 1.397 . S
C16 H2 0.939 . S
C16 C15 1.397 . S
C16 C17 1.378 . S
C17 C16 1.378 . S
C17 C18 1.378 . S
C18 H3 0.940 . S
C18 C17 1.378 . S
C18 C19 1.396 . S
C19 H4 0.940 . S
C19 C14 1.391 . S
C19 C18 1.396 . S
C20 P0 1.803 . S
C20 C21 1.378 . S
C20 C25 1.400 . S
C21 H5 0.939 . S
C21 C20 1.378 . S
C21 C22 1.361 . S
C22 H6 0.942 . S
C22 C21 1.361 . S
C22 C23 1.369 . S
C23 C22 1.369 . S
C23 C24 1.404 . S
C24 H7 0.940 . S
C24 C23 1.404 . S
C24 C25 1.389 . S
C25 H8 0.939 . S
C25 C20 1.400 . S
C25 C24 1.389 . S
C26 P0 1.819 . S
C26 C27 1.391 . S
C26 C31 1.391 . S
C27 H9 0.941 . S
C27 C26 1.391 . S
C27 C28 1.396 . S
C28 H12 0.939 . S
C28 C27 1.396 . S
C28 C29 1.397 . S
C29 C28 1.397 . S
C29 C30 1.385 . S
C30 H13 0.940 . S
C30 C29 1.385 . S
C30 C31 1.388 . S
C31 H10 0.939 . S
C31 C26 1.391 . S
C31 C30 1.388 . S
P32 O43 1.490 . S
P32 C46 1.812 . S
P32 C52 1.803 . S
P32 C58 1.819 . S
H33 C47 0.941 . S
H34 C48 0.939 . S
H35 C50 0.940 . S
H36 C51 0.940 . S
H37 C53 0.939 . S
H38 C54 0.942 . S
H39 C56 0.940 . S
H40 C57 0.939 . S
H41 C59 0.941 . S
H42 C63 0.939 . S
O43 P32 1.490 . S
H44 C60 0.939 . S
H45 C62 0.940 . S
C46 P32 1.812 . S
C46 C47 1.389 . S
C46 C51 1.391 . S
C47 H33 0.941 . S
C47 C46 1.389 . S
C47 C48 1.397 . S
C48 H34 0.939 . S
C48 C47 1.397 . S
C48 C49 1.378 . S
C49 C48 1.378 . S
C49 C50 1.378 . S
C50 H35 0.940 . S
C50 C49 1.378 . S
C50 C51 1.396 . S
C51 H36 0.940 . S
C51 C46 1.391 . S
C51 C50 1.396 . S
C52 P32 1.803 . S
C52 C53 1.378 . S
C52 C57 1.400 . S
C53 H37 0.939 . S
C53 C52 1.378 . S
C53 C54 1.361 . S
C54 H38 0.942 . S
C54 C53 1.361 . S
C54 C55 1.369 . S
C55 C54 1.369 . S
C55 C56 1.404 . S
C56 H39 0.940 . S
C56 C55 1.404 . S
C56 C57 1.389 . S
C57 H40 0.939 . S
C57 C52 1.400 . S
C57 C56 1.389 . S
C58 P32 1.819 . S
C58 C59 1.391 . S
C58 C63 1.391 . S
C59 H41 0.941 . S
C59 C58 1.391 . S
C59 C60 1.396 . S
C60 H44 0.939 . S
C60 C59 1.396 . S
C60 C61 1.397 . S
C61 C60 1.397 . S
C61 C62 1.385 . S
C62 H45 0.940 . S
C62 C61 1.385 . S
C62 C63 1.388 . S
C63 H42 0.939 . S
C63 C58 1.391 . S
C63 C62 1.388 . S
P64 O75 1.490 . S
P64 C78 1.812 . S
P64 C84 1.803 . S
P64 C90 1.819 . S
H65 C79 0.941 . S
H66 C80 0.939 . S
H67 C82 0.940 . S
H68 C83 0.940 . S
H69 C85 0.939 . S
H70 C86 0.942 . S
H71 C88 0.940 . S
H72 C89 0.939 . S
H73 C91 0.941 . S
H74 C95 0.939 . S
O75 P64 1.490 . S
H76 C92 0.939 . S
H77 C94 0.940 . S
C78 P64 1.812 . S
C78 C79 1.389 . S
C78 C83 1.391 . S
C79 H65 0.941 . S
C79 C78 1.389 . S
C79 C80 1.397 . S
C80 H66 0.939 . S
C80 C79 1.397 . S
C80 C81 1.378 . S
C81 C80 1.378 . S
C81 C82 1.378 . S
C82 H67 0.940 . S
C82 C81 1.378 . S
C82 C83 1.396 . S
C83 H68 0.940 . S
C83 C78 1.391 . S
C83 C82 1.396 . S
C84 P64 1.803 . S
C84 C85 1.378 . S
C84 C89 1.400 . S
C85 H69 0.939 . S
C85 C84 1.378 . S
C85 C86 1.361 . S
C86 H70 0.942 . S
C86 C85 1.361 . S
C86 C87 1.369 . S
C87 C86 1.369 . S
C87 C88 1.404 . S
C88 H71 0.940 . S
C88 C87 1.404 . S
C88 C89 1.389 . S
C89 H72 0.939 . S
C89 C84 1.400 . S
C89 C88 1.389 . S
C90 P64 1.819 . S
C90 C91 1.391 . S
C90 C95 1.391 . S
C91 H73 0.941 . S
C91 C90 1.391 . S
C91 C92 1.396 . S
C92 H76 0.939 . S
C92 C91 1.396 . S
C92 C93 1.397 . S
C93 C92 1.397 . S
C93 C94 1.385 . S
C94 H77 0.940 . S
C94 C93 1.385 . S
C94 C95 1.388 . S
C95 H74 0.939 . S
C95 C90 1.391 . S
C95 C94 1.388 . S
P96 O107 1.490 . S
P96 C110 1.812 . S
P96 C116 1.803 . S
P96 C122 1.819 . S
H97 C111 0.941 . S
H98 C112 0.939 . S
H99 C114 0.940 . S
H100 C115 0.940 . S
H101 C117 0.939 . S
H102 C118 0.942 . S
H103 C120 0.940 . S
H104 C121 0.939 . S
H105 C123 0.941 . S
H106 C127 0.939 . S
O107 P96 1.490 . S
H108 C124 0.939 . S
H109 C126 0.940 . S
C110 P96 1.812 . S
C110 C111 1.389 . S
C110 C115 1.391 . S
C111 H97 0.941 . S
C111 C110 1.389 . S
C111 C112 1.397 . S
C112 H98 0.939 . S
C112 C111 1.397 . S
C112 C113 1.378 . S
C113 C112 1.378 . S
C113 C114 1.378 . S
C114 H99 0.940 . S
C114 C113 1.378 . S
C114 C115 1.396 . S
C115 H100 0.940 . S
C115 C110 1.391 . S
C115 C114 1.396 . S
C116 P96 1.803 . S
C116 C117 1.378 . S
C116 C121 1.400 . S
C117 H101 0.939 . S
C117 C116 1.378 . S
C117 C118 1.361 . S
C118 H102 0.942 . S
C118 C117 1.361 . S
C118 C119 1.369 . S
C119 C118 1.369 . S
C119 C120 1.404 . S
C120 H103 0.940 . S
C120 C119 1.404 . S
C120 C121 1.389 . S
C121 H104 0.939 . S
C121 C116 1.400 . S
C121 C120 1.389 . S
C122 P96 1.819 . S
C122 C123 1.391 . S
C122 C127 1.391 . S
C123 H105 0.941 . S
C123 C122 1.391 . S
C123 C124 1.396 . S
C124 H108 0.939 . S
C124 C123 1.396 . S
C124 C125 1.397 . S
C125 C124 1.397 . S
C125 C126 1.385 . S
C126 H109 0.940 . S
C126 C125 1.385 . S
C126 C127 1.388 . S
C127 H106 0.939 . S
C127 C122 1.391 . S
C127 C126 1.388 . S
P128 O139 1.490 . S
P128 C142 1.812 . S
P128 C148 1.803 . S
P128 C154 1.819 . S
H129 C143 0.941 . S
H130 C144 0.939 . S
H131 C146 0.940 . S
H132 C147 0.940 . S
H133 C149 0.939 . S
H134 C150 0.942 . S
H135 C152 0.940 . S
H136 C153 0.939 . S
H137 C155 0.941 . S
H138 C159 0.939 . S
O139 P128 1.490 . S
H140 C156 0.939 . S
H141 C158 0.940 . S
C142 P128 1.812 . S
C142 C143 1.389 . S
C142 C147 1.391 . S
C143 H129 0.941 . S
C143 C142 1.389 . S
C143 C144 1.397 . S
C144 H130 0.939 . S
C144 C143 1.397 . S
C144 C145 1.378 . S
C145 C144 1.378 . S
C145 C146 1.378 . S
C146 H131 0.940 . S
C146 C145 1.378 . S
C146 C147 1.396 . S
C147 H132 0.940 . S
C147 C142 1.391 . S
C147 C146 1.396 . S
C148 P128 1.803 . S
C148 C149 1.378 . S
C148 C153 1.400 . S
C149 H133 0.939 . S
C149 C148 1.378 . S
C149 C150 1.361 . S
C150 H134 0.942 . S
C150 C149 1.361 . S
C150 C151 1.369 . S
C151 C150 1.369 . S
C151 C152 1.404 . S
C152 H135 0.940 . S
C152 C151 1.404 . S
C152 C153 1.389 . S
C153 H136 0.939 . S
C153 C148 1.400 . S
C153 C152 1.389 . S
C154 P128 1.819 . S
C154 C155 1.391 . S
C154 C159 1.391 . S
C155 H137 0.941 . S
C155 C154 1.391 . S
C155 C156 1.396 . S
C156 H140 0.939 . S
C156 C155 1.396 . S
C156 C157 1.397 . S
C157 C156 1.397 . S
C157 C158 1.385 . S
C158 H141 0.940 . S
C158 C157 1.385 . S
C158 C159 1.388 . S
C159 H138 0.939 . S
C159 C154 1.391 . S
C159 C158 1.388 . S
P160 O171 1.490 . S
P160 C174 1.812 . S
P160 C180 1.803 . S
P160 C186 1.819 . S
H161 C175 0.941 . S
H162 C176 0.939 . S
H163 C178 0.940 . S
H164 C179 0.940 . S
H165 C181 0.939 . S
H166 C182 0.942 . S
H167 C184 0.940 . S
H168 C185 0.939 . S
H169 C187 0.941 . S
H170 C191 0.939 . S
O171 P160 1.490 . S
H172 C188 0.939 . S
H173 C190 0.940 . S
C174 P160 1.812 . S
C174 C175 1.389 . S
C174 C179 1.391 . S
C175 H161 0.941 . S
C175 C174 1.389 . S
C175 C176 1.397 . S
C176 H162 0.939 . S
C176 C175 1.397 . S
C176 C177 1.378 . S
C177 C176 1.378 . S
C177 C178 1.378 . S
C178 H163 0.940 . S
C178 C177 1.378 . S
C178 C179 1.396 . S
C179 H164 0.940 . S
C179 C174 1.391 . S
C179 C178 1.396 . S
C180 P160 1.803 . S
C180 C181 1.378 . S
C180 C185 1.400 . S
C181 H165 0.939 . S
C181 C180 1.378 . S
C181 C182 1.361 . S
C182 H166 0.942 . S
C182 C181 1.361 . S
C182 C183 1.369 . S
C183 C182 1.369 . S
C183 C184 1.404 . S
C184 H167 0.940 . S
C184 C183 1.404 . S
C184 C185 1.389 . S
C185 H168 0.939 . S
C185 C180 1.400 . S
C185 C184 1.389 . S
C186 P160 1.819 . S
C186 C187 1.391 . S
C186 C191 1.391 . S
C187 H169 0.941 . S
C187 C186 1.391 . S
C187 C188 1.396 . S
C188 H172 0.939 . S
C188 C187 1.396 . S
C188 C189 1.397 . S
C189 C188 1.397 . S
C189 C190 1.385 . S
C190 H173 0.940 . S
C190 C189 1.385 . S
C190 C191 1.388 . S
C191 H170 0.939 . S
C191 C186 1.391 . S
C191 C190 1.388 . S
P192 O203 1.490 . S
P192 C206 1.812 . S
P192 C212 1.803 . S
P192 C218 1.819 . S
H193 C207 0.941 . S
H194 C208 0.939 . S
H195 C210 0.940 . S
H196 C211 0.940 . S
H197 C213 0.939 . S
H198 C214 0.942 . S
H199 C216 0.940 . S
H200 C217 0.939 . S
H201 C219 0.941 . S
H202 C223 0.939 . S
O203 P192 1.490 . S
H204 C220 0.939 . S
H205 C222 0.940 . S
C206 P192 1.812 . S
C206 C207 1.389 . S
C206 C211 1.391 . S
C207 H193 0.941 . S
C207 C206 1.389 . S
C207 C208 1.397 . S
C208 H194 0.939 . S
C208 C207 1.397 . S
C208 C209 1.378 . S
C209 C208 1.378 . S
C209 C210 1.378 . S
C210 H195 0.940 . S
C210 C209 1.378 . S
C210 C211 1.396 . S
C211 H196 0.940 . S
C211 C206 1.391 . S
C211 C210 1.396 . S
C212 P192 1.803 . S
C212 C213 1.378 . S
C212 C217 1.400 . S
C213 H197 0.939 . S
C213 C212 1.378 . S
C213 C214 1.361 . S
C214 H198 0.942 . S
C214 C213 1.361 . S
C214 C215 1.369 . S
C215 C214 1.369 . S
C215 C216 1.404 . S
C216 H199 0.940 . S
C216 C215 1.404 . S
C216 C217 1.389 . S
C217 H200 0.939 . S
C217 C212 1.400 . S
C217 C216 1.389 . S
C218 P192 1.819 . S
C218 C219 1.391 . S
C218 C223 1.391 . S
C219 H201 0.941 . S
C219 C218 1.391 . S
C219 C220 1.396 . S
C220 H204 0.939 . S
C220 C219 1.396 . S
C220 C221 1.397 . S
C221 C220 1.397 . S
C221 C222 1.385 . S
C222 H205 0.940 . S
C222 C221 1.385 . S
C222 C223 1.388 . S
C223 H202 0.939 . S
C223 C218 1.391 . S
C223 C222 1.388 . S
P224 O235 1.490 . S
P224 C238 1.812 . S
P224 C244 1.803 . S
P224 C250 1.819 . S
H225 C239 0.941 . S
H226 C240 0.939 . S
H227 C242 0.940 . S
H228 C243 0.940 . S
H229 C245 0.939 . S
H230 C246 0.942 . S
H231 C248 0.940 . S
H232 C249 0.939 . S
H233 C251 0.941 . S
H234 C255 0.939 . S
O235 P224 1.490 . S
H236 C252 0.939 . S
H237 C254 0.940 . S
C238 P224 1.812 . S
C238 C239 1.389 . S
C238 C243 1.391 . S
C239 H225 0.941 . S
C239 C238 1.389 . S
C239 C240 1.397 . S
C240 H226 0.939 . S
C240 C239 1.397 . S
C240 C241 1.378 . S
C241 C240 1.378 . S
C241 C242 1.378 . S
C242 H227 0.940 . S
C242 C241 1.378 . S
C242 C243 1.396 . S
C243 H228 0.940 . S
C243 C238 1.391 . S
C243 C242 1.396 . S
C244 P224 1.803 . S
C244 C245 1.378 . S
C244 C249 1.400 . S
C245 H229 0.939 . S
C245 C244 1.378 . S
C245 C246 1.361 . S
C246 H230 0.942 . S
C246 C245 1.361 . S
C246 C247 1.369 . S
C247 C246 1.369 . S
C247 C248 1.404 . S
C248 H231 0.940 . S
C248 C247 1.404 . S
C248 C249 1.389 . S
C249 H232 0.939 . S
C249 C244 1.400 . S
C249 C248 1.389 . S
C250 P224 1.819 . S
C250 C251 1.391 . S
C250 C255 1.391 . S
C251 H233 0.941 . S
C251 C250 1.391 . S
C251 C252 1.396 . S
C252 H236 0.939 . S
C252 C251 1.396 . S
C252 C253 1.397 . S
C253 C252 1.397 . S
C253 C254 1.385 . S
C254 H237 0.940 . S
C254 C253 1.385 . S
C254 C255 1.388 . S
C255 H234 0.939 . S
C255 C250 1.391 . S
C255 C254 1.388 . S
Co256 N261 2.057 . S
Co256 O273 2.021 . S
Co256 O276 2.062 . S
Co256 O280 2.117 1_545 S
Co256 O281 2.020 . S
C257 O277 1.259 1_655 S
C257 O280 1.258 . S
Co258 N267 2.057 . S
Co258 O274 2.117 1_565 S
Co258 O275 2.020 1_565 S
Co258 O277 2.021 . S
Co258 O282 2.062 . S
C259 N261 1.316 . S
C259 N262 1.347 . S
C259 H264 0.931 . S
C260 N261 1.396 . S
C260 C263 1.364 . S
C260 H265 0.899 1_545 S
N261 Co256 2.057 . S
N261 C259 1.316 . S
N261 C260 1.396 . S
N262 C259 1.347 . S
N262 C263 1.373 . S
C263 C260 1.364 . S
C263 N262 1.373 . S
C263 H284 0.931 . S
H264 C259 0.931 . S
H265 C260 0.899 1_565 S
C266 O273 1.259 1_455 S
C266 O274 1.258 . S
N267 Co258 2.057 . S
N267 C268 1.316 . S
N267 C269 1.375 1_565 S
C268 N267 1.316 . S
C268 N270 1.347 . S
C268 H279 0.931 . S
C269 N267 1.375 1_545 S
C269 C271 1.350 1_545 S
C269 H278 0.930 . S
N270 C268 1.347 . S
N270 C271 1.373 . S
C271 C269 1.350 1_565 S
C271 N270 1.373 . S
C271 H285 0.931 1_565 S
C272 O275 1.256 . S
C272 O276 1.255 1_455 S
O273 Co256 2.021 . S
O273 C266 1.259 1_655 S
O274 Co258 2.117 1_545 S
O274 C266 1.258 . S
O275 Co258 2.020 1_545 S
O275 C272 1.256 . S
O276 Co256 2.062 . S
O276 C272 1.255 1_655 S
O277 C257 1.259 1_455 S
O277 Co258 2.021 . S
H278 C269 0.930 . S
H279 C268 0.931 . S
O280 Co256 2.117 1_565 S
O280 C257 1.258 . S
O281 Co256 2.020 . S
O281 C283 1.256 1_545 S
O282 Co258 2.062 . S
O282 C283 1.255 1_455 S
C283 O281 1.256 1_565 S
C283 O282 1.255 1_655 S
H284 C263 0.931 . S
H285 C271 0.931 1_545 S
Co286 N291 2.057 1_545 S
Co286 O303 2.021 . S
Co286 O306 2.062 1_545 S
Co286 O310 2.117 1_546 S
Co286 O311 2.020 1_556 S
C287 O307 1.259 . S
C287 O310 1.258 . S
Co288 N297 2.057 . S
Co288 O304 2.117 . S
Co288 O305 2.020 1_545 S
Co288 O307 2.021 1_545 S
Co288 O312 2.062 . S
C289 N291 1.316 . S
C289 N292 1.347 . S
C289 H294 0.931 1_565 S
C290 N291 1.375 . S
C290 C293 1.350 . S
C290 H295 0.930 . S
N291 Co286 2.057 1_565 S
N291 C289 1.316 . S
N291 C290 1.375 . S
N292 C289 1.347 . S
N292 C293 1.373 . S
C293 C290 1.350 . S
C293 N292 1.373 . S
C293 H314 0.931 . S
H294 C289 0.931 1_545 S
H295 C290 0.930 . S
C296 O303 1.259 . S
C296 O304 1.258 1_556 S
N297 Co288 2.057 . S
N297 C298 1.316 . S
N297 C299 1.375 . S
C298 N297 1.316 . S
C298 N300 1.347 . S
C298 H309 0.931 . S
C299 N297 1.375 . S
C299 C301 1.350 . S
C299 H308 0.930 . S
N300 C298 1.347 . S
N300 C301 1.373 . S
C301 C299 1.350 . S
C301 N300 1.373 . S
C301 H315 0.931 . S
C302 O305 1.256 1_556 S
C302 O306 1.255 . S
O303 Co286 2.021 . S
O303 C296 1.259 . S
O304 Co288 2.117 . S
O304 C296 1.258 1_554 S
O305 Co288 2.020 1_565 S
O305 C302 1.256 1_554 S
O306 Co286 2.062 1_565 S
O306 C302 1.255 . S
O307 C287 1.259 . S
O307 Co288 2.021 1_565 S
H308 C299 0.930 . S
H309 C298 0.931 . S
O310 Co286 2.117 1_564 S
O310 C287 1.258 . S
O311 Co286 2.020 1_554 S
O311 C313 1.256 . S
O312 Co288 2.062 . S
O312 C313 1.255 . S
C313 O311 1.256 . S
C313 O312 1.255 . S
H314 C293 0.931 . S
H315 C301 0.931 . S
Co316 N321 2.057 . S
Co316 O333 2.021 . S
Co316 O336 2.062 . S
Co316 O340 2.117 . S
Co316 O341 2.020 . S
C317 O337 1.259 . S
C317 O340 1.258 . S
Co318 N327 2.057 . S
Co318 O334 2.117 . S
Co318 O335 2.020 . S
Co318 O337 2.021 . S
Co318 O342 2.062 . S
C319 N321 1.316 . S
C319 N322 1.347 . S
C319 H324 0.931 . S
C320 N321 1.375 . S
C320 C323 1.350 . S
C320 H325 0.930 . S
N321 Co316 2.057 . S
N321 C319 1.316 . S
N321 C320 1.375 . S
N322 C319 1.347 . S
N322 C323 1.373 . S
C323 C320 1.350 . S
C323 N322 1.373 . S
C323 H344 0.931 . S
H324 C319 0.931 . S
H325 C320 0.930 . S
C326 O333 1.259 . S
C326 O334 1.258 . S
N327 Co318 2.057 . S
N327 C328 1.316 . S
N327 C329 1.375 . S
C328 N327 1.316 . S
C328 N330 1.347 . S
C328 H339 0.931 . S
C329 N327 1.375 . S
C329 C331 1.350 . S
C329 H338 0.930 . S
N330 C328 1.347 . S
N330 C331 1.373 . S
C331 C329 1.350 . S
C331 N330 1.373 . S
C331 H345 0.931 . S
C332 O335 1.256 . S
C332 O336 1.255 . S
O333 Co316 2.021 . S
O333 C326 1.259 . S
O334 Co318 2.117 . S
O334 C326 1.258 . S
O335 Co318 2.020 . S
O335 C332 1.256 . S
O336 Co316 2.062 . S
O336 C332 1.255 . S
O337 C317 1.259 . S
O337 Co318 2.021 . S
H338 C329 0.930 . S
H339 C328 0.931 . S
O340 Co316 2.117 . S
O340 C317 1.258 . S
O341 Co316 2.020 . S
O341 C343 1.256 . S
O342 Co318 2.062 . S
O342 C343 1.255 . S
C343 O341 1.256 . S
C343 O342 1.255 . S
H344 C323 0.931 . S
H345 C331 0.931 . S
Co346 N351 2.057 . S
Co346 O363 2.021 . S
Co346 O366 2.050 1_556 S
Co346 O370 2.117 1_455 S
Co346 O371 2.020 1_455 S
C347 O367 1.280 . S
C347 O370 1.245 1_554 S
Co348 N357 2.057 . S
Co348 O364 2.117 1_655 S
Co348 O365 2.020 1_655 S
Co348 O367 2.021 . S
Co348 O372 2.062 . S
C349 N351 1.316 . S
C349 N352 1.347 . S
C349 H354 0.931 . S
C350 N351 1.375 1_655 S
C350 C353 1.350 1_655 S
C350 H355 0.930 . S
N351 Co346 2.057 . S
N351 C349 1.316 . S
N351 C350 1.375 1_455 S
N352 C349 1.347 . S
N352 C353 1.373 . S
C353 C350 1.350 1_455 S
C353 N352 1.373 . S
C353 H374 0.931 1_455 S
H354 C349 0.931 . S
H355 C350 0.930 . S
C356 O363 1.259 1_554 S
C356 O364 1.258 . S
N357 Co348 2.057 . S
N357 C358 1.316 . S
N357 C359 1.375 1_655 S
C358 N357 1.316 . S
C358 N360 1.347 . S
C358 H369 0.931 . S
C359 N357 1.375 1_455 S
C359 C361 1.350 1_455 S
C359 H368 0.930 . S
N360 C358 1.347 . S
N360 C361 1.373 . S
C361 C359 1.350 1_655 S
C361 N360 1.373 . S
C361 H375 0.931 1_655 S
C362 O365 1.256 . S
C362 O366 1.283 . S
O363 Co346 2.021 . S
O363 C356 1.259 1_556 S
O364 Co348 2.117 1_455 S
O364 C356 1.258 . S
O365 Co348 2.020 1_455 S
O365 C362 1.256 . S
O366 Co346 2.050 1_554 S
O366 C362 1.283 . S
O367 C347 1.280 . S
O367 Co348 2.021 . S
H368 C359 0.930 . S
H369 C358 0.931 . S
O370 Co346 2.117 1_655 S
O370 C347 1.245 1_556 S
O371 Co346 2.020 1_655 S
O371 C373 1.256 . S
O372 Co348 2.062 . S
O372 C373 1.255 1_554 S
C373 O371 1.256 . S
C373 O372 1.255 1_556 S
H374 C353 0.931 1_655 S
H375 C361 0.931 1_455 S
C376 C377 1.391 . S
C376 C378 1.394 . S
C376 H392 0.931 . S
C377 C376 1.391 . S
C377 C381 1.376 . S
C378 C376 1.394 . S
C378 C379 1.369 . S
C378 C382 1.531 . S
C379 C378 1.369 . S
C379 C380 1.410 . S
C379 C387 1.503 . S
C380 C379 1.410 . S
C380 C381 1.392 . S
C380 C383 1.511 . S
C381 C377 1.376 . S
C381 C380 1.392 . S
C381 H393 0.929 . S
C382 C378 1.531 . S
C382 H394 0.960 . S
C382 H395 0.962 . S
C382 H396 0.960 . S
C383 C380 1.511 . S
C383 H397 0.966 . S
C383 H398 0.961 . S
C383 H399 0.961 1_455 S
C384 C385 1.370 . S
C384 C386 1.363 . S
C384 H400 0.944 . S
C385 C384 1.370 . S
C385 C389 1.408 . S
C386 C384 1.363 . S
C386 C387 1.370 . S
C386 C390 1.524 . S
C387 C379 1.503 . S
C387 C386 1.370 . S
C387 C388 1.403 . S
C388 C387 1.403 . S
C388 C389 1.404 . S
C388 C391 1.539 . S
C389 C385 1.408 . S
C389 C388 1.404 . S
C389 H401 0.930 . S
C390 C386 1.524 . S
C390 H402 0.956 . S
C390 H403 0.960 . S
C390 H404 0.961 1_545 S
C391 C388 1.539 . S
C391 H405 0.958 . S
C391 H406 0.961 1_455 S
C391 H407 0.960 . S
H392 C376 0.931 . S
H393 C381 0.929 . S
H394 C382 0.960 . S
H395 C382 0.962 . S
H396 C382 0.960 . S
H397 C383 0.966 . S
H398 C383 0.961 . S
H399 C383 0.961 1_655 S
H400 C384 0.944 . S
H401 C389 0.930 . S
H402 C390 0.956 . S
H403 C390 0.960 . S
H404 C390 0.961 1_565 S
H405 C391 0.958 . S
H406 C391 0.961 1_655 S
H407 C391 0.960 . S
C408 C409 1.391 . S
C408 C410 1.394 . S
C408 H424 0.931 . S
C409 C408 1.391 . S
C409 C413 1.376 . S
C410 C408 1.394 . S
C410 C411 1.369 . S
C410 C414 1.531 . S
C411 C410 1.369 . S
C411 C412 1.410 . S
C411 C419 1.503 . S
C412 C411 1.410 . S
C412 C413 1.392 . S
C412 C415 1.511 . S
C413 C409 1.376 . S
C413 C412 1.392 . S
C413 H425 0.929 . S
C414 C410 1.531 . S
C414 H426 0.960 . S
C414 H427 0.962 . S
C414 H428 0.960 . S
C415 C412 1.511 . S
C415 H429 0.961 . S
C415 H430 0.961 . S
C415 H431 0.961 . S
C416 C417 1.370 . S
C416 C418 1.363 . S
C416 H432 0.931 . S
C417 C416 1.370 . S
C417 C421 1.408 . S
C418 C416 1.363 . S
C418 C419 1.370 . S
C418 C422 1.524 . S
C419 C411 1.503 . S
C419 C418 1.370 . S
C419 C420 1.403 . S
C420 C419 1.403 . S
C420 C421 1.404 . S
C420 C423 1.539 . S
C421 C417 1.408 . S
C421 C420 1.404 . S
C421 H433 0.930 1_565 S
C422 C418 1.524 . S
C422 H434 0.956 . S
C422 H435 0.961 . S
C422 H436 0.961 . S
C423 C420 1.539 . S
C423 H437 0.958 1_565 S
C423 H438 0.961 1_565 S
C423 H439 0.960 . S
H424 C408 0.931 . S
H425 C413 0.929 . S
H426 C414 0.960 . S
H427 C414 0.962 . S
H428 C414 0.960 . S
H429 C415 0.961 . S
H430 C415 0.961 . S
H431 C415 0.961 . S
H432 C416 0.931 . S
H433 C421 0.930 1_545 S
H434 C422 0.956 . S
H435 C422 0.961 . S
H436 C422 0.961 . S
H437 C423 0.958 1_545 S
H438 C423 0.961 1_545 S
H439 C423 0.960 . S
C440 C441 1.391 . S
C440 C442 1.394 . S
C440 H456 0.931 . S
C441 C440 1.391 . S
C441 C445 1.376 . S
C442 C440 1.394 . S
C442 C443 1.369 . S
C442 C446 1.531 . S
C443 C442 1.369 . S
C443 C444 1.410 . S
C443 C451 1.503 . S
C444 C443 1.410 . S
C444 C445 1.392 . S
C444 C447 1.511 . S
C445 C441 1.376 . S
C445 C444 1.392 . S
C445 H457 0.929 . S
C446 C442 1.531 . S
C446 H458 0.960 . S
C446 H459 0.962 . S
C446 H460 0.960 . S
C447 C444 1.511 . S
C447 H461 0.961 . S
C447 H462 0.961 . S
C447 H463 0.961 . S
C448 C449 1.370 . S
C448 C450 1.363 . S
C448 H464 0.931 . S
C449 C448 1.370 . S
C449 C453 1.408 . S
C450 C448 1.363 . S
C450 C451 1.370 . S
C450 C454 1.524 . S
C451 C443 1.503 . S
C451 C450 1.370 . S
C451 C452 1.403 . S
C452 C451 1.403 . S
C452 C453 1.404 . S
C452 C455 1.539 . S
C453 C449 1.408 . S
C453 C452 1.404 . S
C453 H465 0.930 . S
C454 C450 1.524 . S
C454 H466 0.956 . S
C454 H467 0.961 . S
C454 H468 0.961 . S
C455 C452 1.539 . S
C455 H469 0.958 . S
C455 H470 0.961 . S
C455 H471 0.960 . S
H456 C440 0.931 . S
H457 C445 0.929 . S
H458 C446 0.960 . S
H459 C446 0.962 . S
H460 C446 0.960 . S
H461 C447 0.961 . S
H462 C447 0.961 . S
H463 C447 0.961 . S
H464 C448 0.931 . S
H465 C453 0.930 . S
H466 C454 0.956 . S
H467 C454 0.961 . S
H468 C454 0.961 . S
H469 C455 0.958 . S
H470 C455 0.961 . S
H471 C455 0.960 . S
C472 C473 1.391 . S
C472 C474 1.394 . S
C472 H488 0.931 . S
C473 C472 1.391 . S
C473 C477 1.376 . S
C474 C472 1.394 . S
C474 C475 1.369 . S
C474 C478 1.531 . S
C475 C474 1.369 . S
C475 C476 1.410 . S
C475 C483 1.503 . S
C476 C475 1.410 . S
C476 C477 1.392 . S
C476 C479 1.511 . S
C477 C473 1.376 . S
C477 C476 1.392 . S
C477 H489 0.929 . S
C478 C474 1.531 . S
C478 H490 0.960 . S
C478 H491 0.962 . S
C478 H492 0.960 . S
C479 C476 1.511 . S
C479 H493 0.961 . S
C479 H494 0.961 . S
C479 H495 0.961 . S
C480 C481 1.370 . S
C480 C482 1.363 . S
C480 H496 0.931 . S
C481 C480 1.370 . S
C481 C485 1.408 . S
C482 C480 1.363 . S
C482 C483 1.370 . S
C482 C486 1.524 . S
C483 C475 1.503 . S
C483 C482 1.370 . S
C483 C484 1.403 . S
C484 C483 1.403 . S
C484 C485 1.404 . S
C484 C487 1.539 . S
C485 C481 1.408 . S
C485 C484 1.404 . S
C485 H497 0.930 . S
C486 C482 1.524 . S
C486 H498 0.956 1_655 S
C486 H499 0.961 . S
C486 H500 0.961 1_655 S
C487 C484 1.539 . S
C487 H501 0.958 . S
C487 H502 0.961 . S
C487 H503 0.960 . S
H488 C472 0.931 . S
H489 C477 0.929 . S
H490 C478 0.960 . S
H491 C478 0.962 . S
H492 C478 0.960 . S
H493 C479 0.961 . S
H494 C479 0.961 . S
H495 C479 0.961 . S
H496 C480 0.931 . S
H497 C485 0.930 . S
H498 C486 0.956 1_455 S
H499 C486 0.961 . S
H500 C486 0.961 1_455 S
H501 C487 0.958 . S
H502 C487 0.961 . S
H503 C487 0.960 . S
C504 C505 1.391 . S
C504 C506 1.394 . S
C504 H520 0.931 . S
C505 C504 1.391 . S
C505 C509 1.376 . S
C506 C504 1.394 . S
C506 C507 1.369 . S
C506 C510 1.531 . S
C507 C506 1.369 . S
C507 C508 1.410 . S
C507 C515 1.503 . S
C508 C507 1.410 . S
C508 C509 1.392 . S
C508 C511 1.511 . S
C509 C505 1.376 . S
C509 C508 1.392 . S
C509 H521 0.929 . S
C510 C506 1.531 . S
C510 H522 0.960 . S
C510 H523 0.962 . S
C510 H524 0.960 . S
C511 C508 1.511 . S
C511 H525 0.961 . S
C511 H526 0.961 . S
C511 H527 0.961 . S
C512 C513 1.370 . S
C512 C514 1.363 . S
C512 H528 0.944 . S
C513 C512 1.370 . S
C513 C517 1.408 . S
C514 C512 1.363 . S
C514 C515 1.370 . S
C514 C518 1.524 . S
C515 C507 1.503 . S
C515 C514 1.370 . S
C515 C516 1.403 . S
C516 C515 1.403 . S
C516 C517 1.404 . S
C516 C519 1.539 . S
C517 C513 1.408 . S
C517 C516 1.404 . S
C517 H529 0.930 . S
C518 C514 1.524 . S
C518 H530 0.956 . S
C518 H531 0.961 . S
C518 H532 0.961 1_545 S
C519 C516 1.539 . S
C519 H533 0.958 . S
C519 H534 0.961 . S
C519 H535 0.960 . S
H520 C504 0.931 . S
H521 C509 0.929 . S
H522 C510 0.960 . S
H523 C510 0.962 . S
H524 C510 0.960 . S
H525 C511 0.961 . S
H526 C511 0.961 . S
H527 C511 0.961 . S
H528 C512 0.944 . S
H529 C517 0.930 . S
H530 C518 0.956 . S
H531 C518 0.961 . S
H532 C518 0.961 1_565 S
H533 C519 0.958 . S
H534 C519 0.961 . S
H535 C519 0.960 . S
C536 C537 1.391 . S
C536 C538 1.394 . S
C536 H552 0.931 . S
C537 C536 1.391 . S
C537 C541 1.376 . S
C538 C536 1.394 . S
C538 C539 1.369 . S
C538 C542 1.531 . S
C539 C538 1.369 . S
C539 C540 1.410 . S
C539 C547 1.503 . S
C540 C539 1.410 . S
C540 C541 1.392 . S
C540 C543 1.511 . S
C541 C537 1.376 . S
C541 C540 1.392 . S
C541 H553 0.929 . S
C542 C538 1.531 . S
C542 H554 0.960 . S
C542 H555 0.962 . S
C542 H556 0.960 . S
C543 C540 1.511 . S
C543 H557 0.961 . S
C543 H558 0.961 . S
C543 H559 0.961 . S
C544 C545 1.370 . S
C544 C546 1.363 . S
C544 H560 0.931 . S
C545 C544 1.370 . S
C545 C549 1.408 . S
C546 C544 1.363 . S
C546 C547 1.370 . S
C546 C550 1.524 . S
C547 C539 1.503 . S
C547 C546 1.370 . S
C547 C548 1.403 . S
C548 C547 1.403 . S
C548 C549 1.404 . S
C548 C551 1.539 . S
C549 C545 1.408 . S
C549 C548 1.404 . S
C549 H561 0.930 . S
C550 C546 1.524 . S
C550 H562 0.956 . S
C550 H563 0.961 . S
C550 H564 0.961 . S
C551 C548 1.539 . S
C551 H565 0.958 . S
C551 H566 0.961 . S
C551 H567 0.960 . S
H552 C536 0.931 . S
H553 C541 0.929 . S
H554 C542 0.960 . S
H555 C542 0.962 . S
H556 C542 0.960 . S
H557 C543 0.961 . S
H558 C543 0.961 . S
H559 C543 0.961 . S
H560 C544 0.931 . S
H561 C549 0.930 . S
H562 C550 0.956 . S
H563 C550 0.961 . S
H564 C550 0.961 . S
H565 C551 0.958 . S
H566 C551 0.961 . S
H567 C551 0.960 . S
C568 C569 1.391 . S
C568 C570 1.394 . S
C568 H584 0.931 . S
C569 C568 1.391 . S
C569 C573 1.376 . S
C570 C568 1.394 . S
C570 C571 1.369 . S
C570 C574 1.531 . S
C571 C570 1.369 . S
C571 C572 1.410 . S
C571 C579 1.503 . S
C572 C571 1.410 . S
C572 C573 1.392 . S
C572 C575 1.511 1_556 S
C573 C569 1.376 . S
C573 C572 1.392 . S
C573 H585 0.929 . S
C574 C570 1.531 . S
C574 H586 0.960 . S
C574 H587 0.962 . S
C574 H588 0.960 . S
C575 C572 1.511 1_554 S
C575 H589 0.961 . S
C575 H590 0.961 . S
C575 H591 0.961 . S
C576 C577 1.370 . S
C576 C578 1.363 . S
C576 H592 0.931 . S
C577 C576 1.370 . S
C577 C581 1.416 . S
C578 C576 1.363 . S
C578 C579 1.370 . S
C578 C582 1.524 . S
C579 C571 1.503 . S
C579 C578 1.370 . S
C579 C580 1.403 . S
C580 C579 1.403 . S
C580 C581 1.409 . S
C580 C583 1.539 1_556 S
C581 C577 1.416 . S
C581 C580 1.409 . S
C581 H593 0.918 1_556 S
C582 C578 1.524 . S
C582 H594 0.956 . S
C582 H595 0.961 . S
C582 H596 0.961 . S
C583 C580 1.539 1_554 S
C583 H597 0.958 1_554 S
C583 H598 0.961 . S
C583 H599 0.960 . S
H584 C568 0.931 . S
H585 C573 0.929 . S
H586 C574 0.960 . S
H587 C574 0.962 . S
H588 C574 0.960 . S
H589 C575 0.961 . S
H590 C575 0.961 . S
H591 C575 0.961 . S
H592 C576 0.931 . S
H593 C581 0.918 1_554 S
H594 C582 0.956 . S
H595 C582 0.961 . S
H596 C582 0.961 . S
H597 C583 0.958 1_556 S
H598 C583 0.961 . S
H599 C583 0.960 . S
C600 C601 1.391 . S
C600 C602 1.394 . S
C600 H616 0.931 . S
C601 C600 1.391 . S
C601 C605 1.376 . S
C602 C600 1.394 . S
C602 C603 1.369 . S
C602 C606 1.531 . S
C603 C602 1.369 . S
C603 C604 1.410 . S
C603 C611 1.503 . S
C604 C603 1.410 . S
C604 C605 1.392 . S
C604 C607 1.511 . S
C605 C601 1.376 . S
C605 C604 1.392 . S
C605 H617 0.929 . S
C606 C602 1.531 . S
C606 H618 0.960 . S
C606 H619 0.962 . S
C606 H620 0.960 . S
C607 C604 1.511 . S
C607 H621 0.961 . S
C607 H622 0.961 . S
C607 H623 0.961 . S
C608 C609 1.370 . S
C608 C610 1.363 . S
C608 H624 0.931 . S
C609 C608 1.370 . S
C609 C613 1.408 . S
C610 C608 1.363 . S
C610 C611 1.370 . S
C610 C614 1.524 . S
C611 C603 1.503 . S
C611 C610 1.370 . S
C611 C612 1.403 . S
C612 C611 1.403 . S
C612 C613 1.404 . S
C612 C615 1.539 . S
C613 C609 1.408 . S
C613 C612 1.404 . S
C613 H625 0.930 . S
C614 C610 1.524 . S
C614 H626 0.956 . S
C614 H627 0.961 . S
C614 H628 0.961 . S
C615 C612 1.539 . S
C615 H629 0.958 . S
C615 H630 0.961 . S
C615 H631 0.960 . S
H616 C600 0.931 . S
H617 C605 0.929 . S
H618 C606 0.960 . S
H619 C606 0.962 . S
H620 C606 0.960 . S
H621 C607 0.961 . S
H622 C607 0.961 . S
H623 C607 0.961 . S
H624 C608 0.931 . S
H625 C613 0.930 . S
H626 C614 0.956 . S
H627 C614 0.961 . S
H628 C614 0.961 . S
H629 C615 0.958 . S
H630 C615 0.961 . S
H631 C615 0.960 . S
C632 C633 1.391 . S
C632 C634 1.394 . S
C632 H648 0.931 . S
C633 C632 1.391 . S
C633 C637 1.376 . S
C634 C632 1.394 . S
C634 C635 1.369 . S
C634 C638 1.531 . S
C635 C634 1.369 . S
C635 C636 1.410 . S
C635 C643 1.503 . S
C636 C635 1.410 . S
C636 C637 1.392 . S
C636 C639 1.511 . S
C637 C633 1.376 . S
C637 C636 1.392 . S
C637 H649 0.929 . S
C638 C634 1.531 . S
C638 H650 0.976 . S
C638 H651 0.962 . S
C638 H652 0.960 1_455 S
C639 C636 1.511 . S
C639 H653 0.961 . S
C639 H654 0.961 . S
C639 H655 0.961 . S
C640 C641 1.370 . S
C640 C642 1.363 . S
C640 H656 0.931 . S
C641 C640 1.370 . S
C641 C645 1.408 . S
C642 C640 1.363 . S
C642 C643 1.370 . S
C642 C646 1.524 . S
C643 C635 1.503 . S
C643 C642 1.370 . S
C643 C644 1.403 . S
C644 C643 1.403 . S
C644 C645 1.404 . S
C644 C647 1.539 . S
C645 C641 1.408 . S
C645 C644 1.404 . S
C645 H657 0.930 1_455 S
C646 C642 1.524 . S
C646 H658 0.956 . S
C646 H659 0.961 . S
C646 H660 0.961 . S
C647 C644 1.539 . S
C647 H661 0.958 1_455 S
C647 H662 0.961 1_455 S
C647 H663 0.960 . S
H648 C632 0.931 . S
H649 C637 0.929 . S
H650 C638 0.976 . S
H651 C638 0.962 . S
H652 C638 0.960 1_655 S
H653 C639 0.961 . S
H654 C639 0.961 . S
H655 C639 0.961 . S
H656 C640 0.931 . S
H657 C645 0.930 1_655 S
H658 C646 0.956 . S
H659 C646 0.961 . S
H660 C646 0.961 . S
H661 C647 0.958 1_655 S
H662 C647 0.961 1_655 S
H663 C647 0.960 . S
C664 C665 1.391 . S
C664 C666 1.394 . S
C664 H680 0.931 . S
C665 C664 1.391 . S
C665 C669 1.376 . S
C666 C664 1.394 . S
C666 C667 1.369 . S
C666 C670 1.531 . S
C667 C666 1.369 . S
C667 C668 1.410 . S
C667 C675 1.503 . S
C668 C667 1.410 . S
C668 C669 1.392 . S
C668 C671 1.511 . S
C669 C665 1.376 . S
C669 C668 1.392 . S
C669 H681 0.929 . S
C670 C666 1.531 . S
C670 H682 0.960 . S
C670 H683 0.962 . S
C670 H684 0.960 . S
C671 C668 1.511 . S
C671 H685 0.961 . S
C671 H686 0.961 . S
C671 H687 0.961 . S
C672 C673 1.370 . S
C672 C674 1.363 . S
C672 H688 0.931 . S
C673 C672 1.370 . S
C673 C677 1.408 1_556 S
C674 C672 1.363 . S
C674 C675 1.370 . S
C674 C678 1.524 . S
C675 C667 1.503 . S
C675 C674 1.370 . S
C675 C676 1.403 . S
C676 C675 1.403 . S
C676 C677 1.404 1_556 S
C676 C679 1.539 1_556 S
C677 C673 1.408 1_554 S
C677 C676 1.404 1_554 S
C677 H689 0.930 . S
C678 C674 1.524 . S
C678 H690 0.956 . S
C678 H691 0.961 . S
C678 H692 0.961 . S
C679 C676 1.539 1_554 S
C679 H693 0.958 . S
C679 H694 0.961 . S
C679 H695 0.960 . S
H680 C664 0.931 . S
H681 C669 0.929 . S
H682 C670 0.960 . S
H683 C670 0.962 . S
H684 C670 0.960 . S
H685 C671 0.961 . S
H686 C671 0.961 . S
H687 C671 0.961 . S
H688 C672 0.931 . S
H689 C677 0.930 . S
H690 C678 0.956 . S
H691 C678 0.961 . S
H692 C678 0.961 . S
H693 C679 0.958 . S
H694 C679 0.961 . S
H695 C679 0.960 . S
C696 C697 1.391 . S
C696 C698 1.394 . S
C696 H712 0.931 . S
C697 C696 1.391 . S
C697 C701 1.376 . S
C698 C696 1.394 . S
C698 C699 1.369 . S
C698 C702 1.531 1_655 S
C699 C698 1.369 . S
C699 C700 1.410 . S
C699 C707 1.503 . S
C700 C699 1.410 . S
C700 C701 1.392 . S
C700 C703 1.511 . S
C701 C697 1.376 . S
C701 C700 1.392 . S
C701 H713 0.929 . S
C702 C698 1.531 1_455 S
C702 H714 0.960 . S
C702 H715 0.962 . S
C702 H716 0.960 . S
C703 C700 1.511 . S
C703 H717 0.961 . S
C703 H718 0.961 . S
C703 H719 0.961 . S
C704 C705 1.370 . S
C704 C706 1.363 . S
C704 H720 0.931 1_655 S
C705 C704 1.370 . S
C705 C709 1.408 . S
C706 C704 1.363 . S
C706 C707 1.370 . S
C706 C710 1.524 . S
C707 C699 1.503 . S
C707 C706 1.370 . S
C707 C708 1.403 . S
C708 C707 1.403 . S
C708 C709 1.404 . S
C708 C711 1.539 . S
C709 C705 1.408 . S
C709 C708 1.404 . S
C709 H721 0.930 . S
C710 C706 1.524 . S
C710 H722 0.956 1_655 S
C710 H723 0.961 . S
C710 H724 0.961 1_655 S
C711 C708 1.539 . S
C711 H725 0.958 . S
C711 H726 0.961 . S
C711 H727 0.960 . S
H712 C696 0.931 . S
H713 C701 0.929 . S
H714 C702 0.960 . S
H715 C702 0.962 . S
H716 C702 0.960 . S
H717 C703 0.961 . S
H718 C703 0.961 . S
H719 C703 0.961 . S
H720 C704 0.931 1_455 S
H721 C709 0.930 . S
H722 C710 0.956 1_455 S
H723 C710 0.961 . S
H724 C710 0.961 1_455 S
H725 C711 0.958 . S
H726 C711 0.961 . S
H727 C711 0.960 . S
C728 C729 1.391 . S
C728 C730 1.394 . S
C728 H744 0.931 . S
C729 C728 1.391 . S
C729 C733 1.376 . S
C730 C728 1.394 . S
C730 C731 1.369 . S
C730 C734 1.531 . S
C731 C730 1.369 . S
C731 C732 1.410 . S
C731 C739 1.503 . S
C732 C731 1.410 . S
C732 C733 1.392 . S
C732 C735 1.511 . S
C733 C729 1.376 . S
C733 C732 1.392 . S
C733 H745 0.929 . S
C734 C730 1.531 . S
C734 H746 0.960 . S
C734 H747 0.962 . S
C734 H748 0.960 . S
C735 C732 1.511 . S
C735 H749 0.961 . S
C735 H750 0.961 . S
C735 H751 0.961 . S
C736 C737 1.370 . S
C736 C738 1.363 . S
C736 H752 0.931 . S
C737 C736 1.370 . S
C737 C741 1.408 . S
C738 C736 1.363 . S
C738 C739 1.370 . S
C738 C742 1.524 . S
C739 C731 1.503 . S
C739 C738 1.370 . S
C739 C740 1.403 . S
C740 C739 1.403 . S
C740 C741 1.404 . S
C740 C743 1.539 . S
C741 C737 1.408 . S
C741 C740 1.404 . S
C741 H753 0.930 . S
C742 C738 1.524 . S
C742 H754 0.956 . S
C742 H755 0.961 . S
C742 H756 0.961 . S
C743 C740 1.539 . S
C743 H757 0.958 . S
C743 H758 0.961 . S
C743 H759 0.960 . S
H744 C728 0.931 . S
H745 C733 0.929 . S
H746 C734 0.960 . S
H747 C734 0.962 . S
H748 C734 0.960 . S
H749 C735 0.961 . S
H750 C735 0.961 . S
H751 C735 0.961 . S
H752 C736 0.931 . S
H753 C741 0.930 . S
H754 C742 0.956 . S
H755 C742 0.961 . S
H756 C742 0.961 . S
H757 C743 0.958 . S
H758 C743 0.961 . S
H759 C743 0.960 . S
C760 C761 1.391 . S
C760 C762 1.394 . S
C760 H776 0.931 . S
C761 C760 1.391 . S
C761 C765 1.376 . S
C762 C760 1.394 . S
C762 C763 1.369 . S
C762 C766 1.531 . S
C763 C762 1.369 . S
C763 C764 1.410 . S
C763 C771 1.503 . S
C764 C763 1.410 . S
C764 C765 1.392 . S
C764 C767 1.511 . S
C765 C761 1.376 . S
C765 C764 1.392 . S
C765 H777 0.929 . S
C766 C762 1.531 . S
C766 H778 0.960 1_565 S
C766 H779 0.962 . S
C766 H780 0.960 1_565 S
C767 C764 1.511 . S
C767 H781 0.961 1_655 S
C767 H782 0.961 . S
C767 H783 0.961 1_655 S
C768 C769 1.370 . S
C768 C770 1.363 . S
C768 H784 0.931 . S
C769 C768 1.370 . S
C769 C773 1.428 . S
C770 C768 1.363 . S
C770 C771 1.370 . S
C770 C774 1.524 . S
C771 C763 1.503 . S
C771 C770 1.370 . S
C771 C772 1.403 . S
C772 C771 1.403 . S
C772 C773 1.406 . S
C772 C775 1.539 1_565 S
C773 C769 1.428 . S
C773 C772 1.406 . S
C773 H785 0.909 1_565 S
C774 C770 1.524 . S
C774 H786 0.956 . S
C774 H787 0.961 . S
C774 H788 0.961 . S
C775 C772 1.539 1_545 S
C775 H789 0.958 . S
C775 H790 0.961 1_655 S
C775 H791 0.960 . S
H776 C760 0.931 . S
H777 C765 0.929 . S
H778 C766 0.960 1_545 S
H779 C766 0.962 . S
H780 C766 0.960 1_545 S
H781 C767 0.961 1_455 S
H782 C767 0.961 . S
H783 C767 0.961 1_455 S
H784 C768 0.931 . S
H785 C773 0.909 1_545 S
H786 C774 0.956 . S
H787 C774 0.961 . S
H788 C774 0.961 . S
H789 C775 0.958 . S
H790 C775 0.961 1_455 S
H791 C775 0.960 . S
C792 C793 1.391 . S
C792 C794 1.394 . S
C792 H808 0.931 . S
C793 C792 1.391 . S
C793 C797 1.376 . S
C794 C792 1.394 . S
C794 C795 1.369 . S
C794 C798 1.531 . S
C795 C794 1.369 . S
C795 C796 1.410 . S
C795 C803 1.503 . S
C796 C795 1.410 . S
C796 C797 1.392 . S
C796 C799 1.511 . S
C797 C793 1.376 . S
C797 C796 1.392 . S
C797 H809 0.929 . S
C798 C794 1.531 . S
C798 H810 0.960 . S
C798 H811 0.962 . S
C798 H812 0.960 . S
C799 C796 1.511 . S
C799 H813 0.961 . S
C799 H814 0.961 . S
C799 H815 0.961 . S
C800 C801 1.370 . S
C800 C802 1.363 . S
C800 H816 0.931 . S
C801 C800 1.370 . S
C801 C805 1.408 . S
C802 C800 1.363 . S
C802 C803 1.370 . S
C802 C806 1.524 . S
C803 C795 1.503 . S
C803 C802 1.370 . S
C803 C804 1.403 . S
C804 C803 1.403 . S
C804 C805 1.404 . S
C804 C807 1.539 . S
C805 C801 1.408 . S
C805 C804 1.404 . S
C805 H817 0.930 . S
C806 C802 1.524 . S
C806 H818 0.956 . S
C806 H819 0.961 . S
C806 H820 0.961 . S
C807 C804 1.539 . S
C807 H821 0.958 . S
C807 H822 0.961 . S
C807 H823 0.960 . S
H808 C792 0.931 . S
H809 C797 0.929 . S
H810 C798 0.960 . S
H811 C798 0.962 . S
H812 C798 0.960 . S
H813 C799 0.961 . S
H814 C799 0.961 . S
H815 C799 0.961 . S
H816 C800 0.931 . S
H817 C805 0.930 . S
H818 C806 0.956 . S
H819 C806 0.961 . S
H820 C806 0.961 . S
H821 C807 0.958 . S
H822 C807 0.961 . S
H823 C807 0.960 . S
C824 C825 1.391 . S
C824 C826 1.394 . S
C824 H840 0.931 . S
C825 C824 1.391 . S
C825 C829 1.376 . S
C826 C824 1.394 . S
C826 C827 1.369 . S
C826 C830 1.531 . S
C827 C826 1.369 . S
C827 C828 1.410 . S
C827 C835 1.503 . S
C828 C827 1.410 . S
C828 C829 1.392 . S
C828 C831 1.511 . S
C829 C825 1.376 . S
C829 C828 1.392 . S
C829 H841 0.929 . S
C830 C826 1.531 . S
C830 H842 0.960 . S
C830 H843 0.962 . S
C830 H844 0.960 . S
C831 C828 1.511 . S
C831 H845 0.961 . S
C831 H846 0.961 . S
C831 H847 0.961 . S
C832 C833 1.370 . S
C832 C834 1.363 . S
C832 H848 0.931 . S
C833 C832 1.370 . S
C833 C837 1.408 . S
C834 C832 1.363 . S
C834 C835 1.370 . S
C834 C838 1.524 . S
C835 C827 1.503 . S
C835 C834 1.370 . S
C835 C836 1.403 . S
C836 C835 1.403 . S
C836 C837 1.404 . S
C836 C839 1.539 . S
C837 C833 1.408 . S
C837 C836 1.404 . S
C837 H849 0.930 . S
C838 C834 1.524 . S
C838 H850 0.956 . S
C838 H851 0.961 . S
C838 H852 0.961 . S
C839 C836 1.539 . S
C839 H853 0.958 . S
C839 H854 0.961 . S
C839 H855 0.960 . S
H840 C824 0.931 . S
H841 C829 0.929 . S
H842 C830 0.960 . S
H843 C830 0.962 . S
H844 C830 0.960 . S
H845 C831 0.961 . S
H846 C831 0.961 . S
H847 C831 0.961 . S
H848 C832 0.931 . S
H849 C837 0.930 . S
H850 C838 0.956 . S
H851 C838 0.961 . S
H852 C838 0.961 . S
H853 C839 0.958 . S
H854 C839 0.961 . S
H855 C839 0.960 . S
C856 C857 1.391 . S
C856 C858 1.394 . S
C856 H872 0.931 . S
C857 C856 1.391 . S
C857 C861 1.376 . S
C858 C856 1.394 . S
C858 C859 1.369 . S
C858 C862 1.531 . S
C859 C858 1.369 . S
C859 C860 1.410 . S
C859 C867 1.503 . S
C860 C859 1.410 . S
C860 C861 1.392 . S
C860 C863 1.511 . S
C861 C857 1.376 . S
C861 C860 1.392 . S
C861 H873 0.929 . S
C862 C858 1.531 . S
C862 H874 0.960 . S
C862 H875 0.962 . S
C862 H876 0.960 1_455 S
C863 C860 1.511 . S
C863 H877 0.961 . S
C863 H878 0.961 . S
C863 H879 0.961 . S
C864 C865 1.370 . S
C864 C866 1.363 . S
C864 H880 0.931 . S
C865 C864 1.370 . S
C865 C869 1.408 . S
C866 C864 1.363 . S
C866 C867 1.370 . S
C866 C870 1.524 . S
C867 C859 1.503 . S
C867 C866 1.370 . S
C867 C868 1.403 . S
C868 C867 1.403 . S
C868 C869 1.404 . S
C868 C871 1.539 . S
C869 C865 1.408 . S
C869 C868 1.404 . S
C869 H881 0.930 . S
C870 C866 1.524 . S
C870 H882 0.956 . S
C870 H883 0.961 . S
C870 H884 0.961 . S
C871 C868 1.539 . S
C871 H885 0.958 1_455 S
C871 H886 0.961 . S
C871 H887 0.960 . S
H872 C856 0.931 . S
H873 C861 0.929 . S
H874 C862 0.960 . S
H875 C862 0.962 . S
H876 C862 0.960 1_655 S
H877 C863 0.961 . S
H878 C863 0.961 . S
H879 C863 0.961 . S
H880 C864 0.931 . S
H881 C869 0.930 . S
H882 C870 0.956 . S
H883 C870 0.961 . S
H884 C870 0.961 . S
H885 C871 0.958 1_655 S
H886 C871 0.961 . S
H887 C871 0.960 . S
C888 C889 1.391 . S
C888 C890 1.394 . S
C888 H904 0.931 . S
C889 C888 1.391 . S
C889 C893 1.376 . S
C890 C888 1.394 . S
C890 C891 1.369 . S
C890 C894 1.531 1_565 S
C891 C890 1.369 . S
C891 C892 1.410 . S
C891 C899 1.503 . S
C892 C891 1.410 . S
C892 C893 1.392 . S
C892 C895 1.511 . S
C893 C889 1.376 . S
C893 C892 1.392 . S
C893 H905 0.929 . S
C894 C890 1.531 1_545 S
C894 H906 0.960 . S
C894 H907 0.962 1_546 S
C894 H908 0.960 . S
C895 C892 1.511 . S
C895 H909 0.961 . S
C895 H910 0.961 . S
C895 H911 0.961 . S
C896 C897 1.370 . S
C896 C898 1.363 . S
C896 H912 0.931 1_556 S
C897 C896 1.370 . S
C897 C901 1.408 . S
C898 C896 1.363 . S
C898 C899 1.370 . S
C898 C902 1.524 1_556 S
C899 C891 1.503 . S
C899 C898 1.370 . S
C899 C900 1.403 . S
C900 C899 1.403 . S
C900 C901 1.404 . S
C900 C903 1.539 1_565 S
C901 C897 1.408 . S
C901 C900 1.404 . S
C901 H913 0.930 1_565 S
C902 C898 1.524 1_554 S
C902 H914 0.956 . S
C902 H915 0.961 1_554 S
C902 H916 0.961 . S
C903 C900 1.539 1_545 S
C903 H917 0.958 . S
C903 H918 0.961 . S
C903 H919 0.960 1_545 S
H904 C888 0.931 . S
H905 C893 0.929 . S
H906 C894 0.960 . S
H907 C894 0.962 1_564 S
H908 C894 0.960 . S
H909 C895 0.961 . S
H910 C895 0.961 . S
H911 C895 0.961 . S
H912 C896 0.931 1_554 S
H913 C901 0.930 1_545 S
H914 C902 0.956 . S
H915 C902 0.961 1_556 S
H916 C902 0.961 . S
H917 C903 0.958 . S
H918 C903 0.961 . S
H919 C903 0.960 1_565 S
C920 C921 1.391 . S
C920 C922 1.394 . S
C920 H936 0.931 . S
C921 C920 1.391 . S
C921 C925 1.376 . S
C922 C920 1.394 . S
C922 C923 1.369 . S
C922 C926 1.531 . S
C923 C922 1.369 . S
C923 C924 1.410 . S
C923 C931 1.503 . S
C924 C923 1.410 . S
C924 C925 1.392 . S
C924 C927 1.511 . S
C925 C921 1.376 . S
C925 C924 1.392 . S
C925 H937 0.929 . S
C926 C922 1.531 . S
C926 H938 0.960 . S
C926 H939 0.962 . S
C926 H940 0.960 . S
C927 C924 1.511 . S
C927 H941 0.961 . S
C927 H942 0.961 . S
C927 H943 0.961 . S
C928 C929 1.370 . S
C928 C930 1.363 . S
C928 H944 0.931 . S
C929 C928 1.370 . S
C929 C933 1.408 . S
C930 C928 1.363 . S
C930 C931 1.370 . S
C930 C934 1.524 . S
C931 C923 1.503 . S
C931 C930 1.370 . S
C931 C932 1.403 . S
C932 C931 1.403 . S
C932 C933 1.404 . S
C932 C935 1.539 . S
C933 C929 1.408 . S
C933 C932 1.404 . S
C933 H945 0.930 . S
C934 C930 1.524 . S
C934 H946 0.956 . S
C934 H947 0.961 . S
C934 H948 0.961 . S
C935 C932 1.539 . S
C935 H949 0.958 . S
C935 H950 0.961 . S
C935 H951 0.960 . S
H936 C920 0.931 . S
H937 C925 0.929 . S
H938 C926 0.960 . S
H939 C926 0.962 . S
H940 C926 0.960 . S
H941 C927 0.961 . S
H942 C927 0.961 . S
H943 C927 0.961 . S
H944 C928 0.931 . S
H945 C933 0.930 . S
H946 C934 0.956 . S
H947 C934 0.961 . S
H948 C934 0.961 . S
H949 C935 0.958 . S
H950 C935 0.961 . S
H951 C935 0.960 . S
C952 C953 1.391 . S
C952 C954 1.394 . S
C952 H968 0.931 . S
C953 C952 1.391 . S
C953 C957 1.376 . S
C954 C952 1.394 . S
C954 C955 1.369 . S
C954 C958 1.531 . S
C955 C954 1.369 . S
C955 C956 1.410 . S
C955 C963 1.503 . S
C956 C955 1.410 . S
C956 C957 1.392 . S
C956 C959 1.511 . S
C957 C953 1.376 . S
C957 C956 1.392 . S
C957 H969 0.929 . S
C958 C954 1.531 . S
C958 H970 0.960 . S
C958 H971 0.962 . S
C958 H972 0.960 . S
C959 C956 1.511 . S
C959 H973 0.961 . S
C959 H974 0.961 . S
C959 H975 0.961 . S
C960 C961 1.370 . S
C960 C962 1.363 . S
C960 H976 0.931 . S
C961 C960 1.370 . S
C961 C965 1.408 . S
C962 C960 1.363 . S
C962 C963 1.370 . S
C962 C966 1.524 . S
C963 C955 1.503 . S
C963 C962 1.370 . S
C963 C964 1.403 . S
C964 C963 1.403 . S
C964 C965 1.404 . S
C964 C967 1.539 . S
C965 C961 1.408 . S
C965 C964 1.404 . S
C965 H977 0.930 . S
C966 C962 1.524 . S
C966 H978 0.956 . S
C966 H979 0.961 . S
C966 H980 0.961 . S
C967 C964 1.539 . S
C967 H981 0.958 . S
C967 H982 0.961 . S
C967 H983 0.960 . S
H968 C952 0.931 . S
H969 C957 0.929 . S
H970 C958 0.960 . S
H971 C958 0.962 . S
H972 C958 0.960 . S
H973 C959 0.961 . S
H974 C959 0.961 . S
H975 C959 0.961 . S
H976 C960 0.931 . S
H977 C965 0.930 . S
H978 C966 0.956 . S
H979 C966 0.961 . S
H980 C966 0.961 . S
H981 C967 0.958 . S
H982 C967 0.961 . S
H983 C967 0.960 . S
C984 C985 1.391 . S
C984 C986 1.394 . S
C984 H1000 0.931 . S
C985 C984 1.391 . S
C985 C989 1.376 . S
C986 C984 1.394 . S
C986 C987 1.369 . S
C986 C990 1.531 . S
C987 C986 1.369 . S
C987 C988 1.410 . S
C987 C995 1.503 . S
C988 C987 1.410 . S
C988 C989 1.392 . S
C988 C991 1.511 . S
C989 C985 1.376 . S
C989 C988 1.392 . S
C989 H1001 0.929 . S
C990 C986 1.531 . S
C990 H1002 0.960 . S
C990 H1003 0.962 . S
C990 H1004 0.960 . S
C991 C988 1.511 . S
C991 H1005 0.961 . S
C991 H1006 0.961 . S
C991 H1007 0.961 . S
C992 C993 1.370 . S
C992 C994 1.363 . S
C992 H1008 0.931 . S
C993 C992 1.370 . S
C993 C997 1.408 . S
C994 C992 1.363 . S
C994 C995 1.370 . S
C994 C998 1.524 . S
C995 C987 1.503 . S
C995 C994 1.370 . S
C995 C996 1.403 . S
C996 C995 1.403 . S
C996 C997 1.404 . S
C996 C999 1.539 . S
C997 C993 1.408 . S
C997 C996 1.404 . S
C997 H1009 0.930 . S
C998 C994 1.524 . S
C998 H1010 0.956 . S
C998 H1011 0.961 . S
C998 H1012 0.961 . S
C999 C996 1.539 . S
C999 H1013 0.958 . S
C999 H1014 0.961 . S
C999 H1015 0.960 . S
H1000 C984 0.931 . S
H1001 C989 0.929 . S
H1002 C990 0.960 . S
H1003 C990 0.962 . S
H1004 C990 0.960 . S
H1005 C991 0.961 . S
H1006 C991 0.961 . S
H1007 C991 0.961 . S
H1008 C992 0.931 . S
H1009 C997 0.930 . S
H1010 C998 0.956 . S
H1011 C998 0.961 . S
H1012 C998 0.961 . S
H1013 C999 0.958 . S
H1014 C999 0.961 . S
H1015 C999 0.960 . S
C1016 C1017 1.391 . S
C1016 C1018 1.394 . S
C1016 H1032 0.931 . S
C1017 C1016 1.391 . S
C1017 C1021 1.376 . S
C1018 C1016 1.394 . S
C1018 C1019 1.369 . S
C1018 C1022 1.531 . S
C1019 C1018 1.369 . S
C1019 C1020 1.410 . S
C1019 C1027 1.503 . S
C1020 C1019 1.410 . S
C1020 C1021 1.392 . S
C1020 C1023 1.511 . S
C1021 C1017 1.376 . S
C1021 C1020 1.392 . S
C1021 H1033 0.929 . S
C1022 C1018 1.531 . S
C1022 H1034 0.960 . S
C1022 H1035 0.962 . S
C1022 H1036 0.960 . S
C1023 C1020 1.511 . S
C1023 H1037 0.972 1_655 S
C1023 H1038 0.961 . S
C1023 H1039 0.961 1_655 S
C1024 C1025 1.358 1_554 S
C1024 C1026 1.359 1_554 S
C1024 H1040 0.949 . S
C1025 C1024 1.358 1_556 S
C1025 C1029 1.408 . S
C1026 C1024 1.359 1_556 S
C1026 C1027 1.370 . S
C1026 C1030 1.524 1_556 S
C1027 C1019 1.503 . S
C1027 C1026 1.370 . S
C1027 C1028 1.403 . S
C1028 C1027 1.403 . S
C1028 C1029 1.404 . S
C1028 C1031 1.539 . S
C1029 C1025 1.408 . S
C1029 C1028 1.404 . S
C1029 H1041 0.929 . S
C1030 C1026 1.524 1_554 S
C1030 H1042 0.956 . S
C1030 H1043 0.961 . S
C1030 H1044 0.961 . S
C1031 C1028 1.539 . S
C1031 H1045 0.958 . S
C1031 H1046 0.961 1_655 S
C1031 H1047 0.960 . S
H1032 C1016 0.931 . S
H1033 C1021 0.929 . S
H1034 C1022 0.960 . S
H1035 C1022 0.962 . S
H1036 C1022 0.960 . S
H1037 C1023 0.972 1_455 S
H1038 C1023 0.961 . S
H1039 C1023 0.961 1_455 S
H1040 C1024 0.949 . S
H1041 C1029 0.929 . S
H1042 C1030 0.956 . S
H1043 C1030 0.961 . S
H1044 C1030 0.961 . S
H1045 C1031 0.958 . S
H1046 C1031 0.961 1_455 S
H1047 C1031 0.960 . S
C1048 C1049 1.391 . S
C1048 C1050 1.394 . S
C1048 H1064 0.931 . S
C1049 C1048 1.391 . S
C1049 C1053 1.376 . S
C1050 C1048 1.394 . S
C1050 C1051 1.369 . S
C1050 C1054 1.531 . S
C1051 C1050 1.369 . S
C1051 C1052 1.410 . S
C1051 C1059 1.503 . S
C1052 C1051 1.410 . S
C1052 C1053 1.392 . S
C1052 C1055 1.511 . S
C1053 C1049 1.376 . S
C1053 C1052 1.392 . S
C1053 H1065 0.929 . S
C1054 C1050 1.531 . S
C1054 H1066 0.960 . S
C1054 H1067 0.962 . S
C1054 H1068 0.960 . S
C1055 C1052 1.511 . S
C1055 H1069 0.961 . S
C1055 H1070 0.961 . S
C1055 H1071 0.961 . S
C1056 C1057 1.370 . S
C1056 C1058 1.363 . S
C1056 H1072 0.931 . S
C1057 C1056 1.370 . S
C1057 C1061 1.408 . S
C1058 C1056 1.363 . S
C1058 C1059 1.370 . S
C1058 C1062 1.524 . S
C1059 C1051 1.503 . S
C1059 C1058 1.370 . S
C1059 C1060 1.403 . S
C1060 C1059 1.403 . S
C1060 C1061 1.404 . S
C1060 C1063 1.539 . S
C1061 C1057 1.408 . S
C1061 C1060 1.404 . S
C1061 H1073 0.930 . S
C1062 C1058 1.524 . S
C1062 H1074 0.956 . S
C1062 H1075 0.961 . S
C1062 H1076 0.961 . S
C1063 C1060 1.539 . S
C1063 H1077 0.958 . S
C1063 H1078 0.961 . S
C1063 H1079 0.960 . S
H1064 C1048 0.931 . S
H1065 C1053 0.929 . S
H1066 C1054 0.960 . S
H1067 C1054 0.962 . S
H1068 C1054 0.960 . S
H1069 C1055 0.961 . S
H1070 C1055 0.961 . S
H1071 C1055 0.961 . S
H1072 C1056 0.931 . S
H1073 C1061 0.930 . S
H1074 C1062 0.956 . S
H1075 C1062 0.961 . S
H1076 C1062 0.961 . S
H1077 C1063 0.958 . S
H1078 C1063 0.961 . S
H1079 C1063 0.960 . S
C1080 C1081 1.391 . S
C1080 C1082 1.394 . S
C1080 H1096 0.931 . S
C1081 C1080 1.391 . S
C1081 C1085 1.376 . S
C1082 C1080 1.394 . S
C1082 C1083 1.369 . S
C1082 C1086 1.531 1_455 S
C1083 C1082 1.369 . S
C1083 C1084 1.410 . S
C1083 C1091 1.503 . S
C1084 C1083 1.410 . S
C1084 C1085 1.392 . S
C1084 C1087 1.511 . S
C1085 C1081 1.376 . S
C1085 C1084 1.392 . S
C1085 H1097 0.929 . S
C1086 C1082 1.531 1_655 S
C1086 H1098 0.952 1_655 S
C1086 H1099 0.962 . S
C1086 H1100 0.960 . S
C1087 C1084 1.511 . S
C1087 H1101 0.961 . S
C1087 H1102 0.961 . S
C1087 H1103 0.961 . S
C1088 C1089 1.370 . S
C1088 C1090 1.363 . S
C1088 H1104 0.931 . S
C1089 C1088 1.370 . S
C1089 C1093 1.408 . S
C1090 C1088 1.363 . S
C1090 C1091 1.370 . S
C1090 C1094 1.524 . S
C1091 C1083 1.503 . S
C1091 C1090 1.370 . S
C1091 C1092 1.403 . S
C1092 C1091 1.403 . S
C1092 C1093 1.404 . S
C1092 C1095 1.539 . S
C1093 C1089 1.408 . S
C1093 C1092 1.404 . S
C1093 H1105 0.930 . S
C1094 C1090 1.524 . S
C1094 H1106 0.956 1_455 S
C1094 H1107 0.961 . S
C1094 H1108 0.948 1_455 S
C1095 C1092 1.539 . S
C1095 H1109 0.958 . S
C1095 H1110 0.961 . S
C1095 H1111 0.960 . S
H1096 C1080 0.931 . S
H1097 C1085 0.929 . S
H1098 C1086 0.952 1_455 S
H1099 C1086 0.962 . S
H1100 C1086 0.960 . S
H1101 C1087 0.961 . S
H1102 C1087 0.961 . S
H1103 C1087 0.961 . S
H1104 C1088 0.931 . S
H1105 C1093 0.930 . S
H1106 C1094 0.956 1_655 S
H1107 C1094 0.961 . S
H1108 C1094 0.948 1_655 S
H1109 C1095 0.958 . S
H1110 C1095 0.961 . S
H1111 C1095 0.960 . S
C1112 C1113 1.391 . S
C1112 C1114 1.394 . S
C1112 H1128 0.931 . S
C1113 C1112 1.391 . S
C1113 C1117 1.376 . S
C1114 C1112 1.394 . S
C1114 C1115 1.369 . S
C1114 C1118 1.531 . S
C1115 C1114 1.369 . S
C1115 C1116 1.410 . S
C1115 C1123 1.503 . S
C1116 C1115 1.410 . S
C1116 C1117 1.392 . S
C1116 C1119 1.511 . S
C1117 C1113 1.376 . S
C1117 C1116 1.392 . S
C1117 H1129 0.929 . S
C1118 C1114 1.531 . S
C1118 H1130 0.960 . S
C1118 H1131 0.962 . S
C1118 H1132 0.960 . S
C1119 C1116 1.511 . S
C1119 H1133 0.961 . S
C1119 H1134 0.961 . S
C1119 H1135 0.961 . S
C1120 C1121 1.370 . S
C1120 C1122 1.363 . S
C1120 H1136 0.931 . S
C1121 C1120 1.370 . S
C1121 C1125 1.408 . S
C1122 C1120 1.363 . S
C1122 C1123 1.370 . S
C1122 C1126 1.524 . S
C1123 C1115 1.503 . S
C1123 C1122 1.370 . S
C1123 C1124 1.403 . S
C1124 C1123 1.403 . S
C1124 C1125 1.404 . S
C1124 C1127 1.539 . S
C1125 C1121 1.408 . S
C1125 C1124 1.404 . S
C1125 H1137 0.930 . S
C1126 C1122 1.524 . S
C1126 H1138 0.956 . S
C1126 H1139 0.961 . S
C1126 H1140 0.961 . S
C1127 C1124 1.539 . S
C1127 H1141 0.958 . S
C1127 H1142 0.961 . S
C1127 H1143 0.960 . S
H1128 C1112 0.931 . S
H1129 C1117 0.929 . S
H1130 C1118 0.960 . S
H1131 C1118 0.962 . S
H1132 C1118 0.960 . S
H1133 C1119 0.961 . S
H1134 C1119 0.961 . S
H1135 C1119 0.961 . S
H1136 C1120 0.931 . S
H1137 C1125 0.930 . S
H1138 C1126 0.956 . S
H1139 C1126 0.961 . S
H1140 C1126 0.961 . S
H1141 C1127 0.958 . S
H1142 C1127 0.961 . S
H1143 C1127 0.960 . S
C377 C29 2.071 . S
C385 C272 2.205 . S
C409 C49 1.079 . S
C417 N292 1.065 . S
C449 C326 2.017 . S
C441 C93 1.896 . S
C473 C119 1.188 . S
C481 N360 1.217 . S
C513 C313 2.306 . S
C505 C17 2.181 . S
C545 N270 1.182 . S
C537 C61 1.234 . S
C577 C347 1.971 1_556 S
C569 C81 1.914 . S
C609 N322 1.039 . S
C601 C125 0.947 . S
C633 C23 1.706 . S
C641 C362 1.797 . S
C673 C296 1.680 . S
C665 C87 1.607 . S
C697 C113 1.343 . S
C705 C257 1.481 . S
C729 C55 1.432 . S
C737 C343 1.426 . S
C769 C283 2.136 . S
C761 C157 2.117 . S
C793 C189 1.025 . S
C801 N300 1.096 . S
C825 C221 1.980 . S
C833 C317 1.981 . S
C857 C253 1.240 . S
C865 N352 1.254 . S
C889 C145 2.348 . S
C897 C302 2.349 . S
C929 N262 1.099 . S
C921 C183 1.141 . S
C961 C356 2.010 . S
C953 C209 1.993 . S
C993 N330 1.008 . S
C985 C247 0.984 . S
C1017 C151 1.807 . S
C1025 C373 1.814 . S
C1057 C287 1.684 . S
C1049 C215 1.682 . S
C1089 C266 1.471 . S
C1081 C241 1.374 . S
C1113 C177 1.396 . S
C1121 C332 1.462 . S
