# Generated by pormake.
# Topology ptr, (4,4)-cn, num edge types: 1
# Building blocks:
#     Node 0, Type 0, BuildingBlock: TATPOV_clean_sbu_0, # of connection points: 4
#     Node 1, Type 0, BuildingBlock: TATPOV_clean_sbu_0, # of connection points: 4
#     Node 2, Type 0, BuildingBlock: TATPOV_clean_sbu_0, # of connection points: 4
#     Node 3, Type 0, BuildingBlock: TATPOV_clean_sbu_0, # of connection points: 4
#     Node 4, Type 0, BuildingBlock: TATPOV_clean_sbu_0, # of connection points: 4
#     Node 5, Type 0, BuildingBlock: TATPOV_clean_sbu_0, # of connection points: 4
#     Node 6, Type 0, BuildingBlock: TATPOV_clean_sbu_0, # of connection points: 4
#     Node 7, Type 0, BuildingBlock: TATPOV_clean_sbu_0, # of connection points: 4
#     Node 8, Type 0, BuildingBlock: TATPOV_clean_sbu_0, # of connection points: 4
#     Node 9, Type 0, BuildingBlock: TATPOV_clean_sbu_0, # of connection points: 4
#     Node 10, Type 0, BuildingBlock: TATPOV_clean_sbu_0, # of connection points: 4
#     Node 11, Type 0, BuildingBlock: TATPOV_clean_sbu_0, # of connection points: 4
#     Node 12, Type 0, BuildingBlock: TATPOV_clean_sbu_0, # of connection points: 4
#     Node 13, Type 0, BuildingBlock: TATPOV_clean_sbu_0, # of connection points: 4
#     Node 14, Type 0, BuildingBlock: TATPOV_clean_sbu_0, # of connection points: 4
#     Node 15, Type 0, BuildingBlock: TATPOV_clean_sbu_0, # of connection points: 4
#     Node 16, Type 0, BuildingBlock: TATPOV_clean_sbu_0, # of connection points: 4
#     Node 17, Type 0, BuildingBlock: TATPOV_clean_sbu_0, # of connection points: 4
#     Node 18, Type 1, BuildingBlock: NAHDIM_clean_linker_0, # of connection points: 4
#     Node 19, Type 1, BuildingBlock: NAHDIM_clean_linker_0, # of connection points: 4
#     Node 20, Type 1, BuildingBlock: NAHDIM_clean_linker_0, # of connection points: 4
#     Node 21, Type 1, BuildingBlock: NAHDIM_clean_linker_0, # of connection points: 4
#     Node 22, Type 1, BuildingBlock: NAHDIM_clean_linker_0, # of connection points: 4
#     Node 23, Type 1, BuildingBlock: NAHDIM_clean_linker_0, # of connection points: 4
#     Node 24, Type 1, BuildingBlock: NAHDIM_clean_linker_0, # of connection points: 4
#     Node 25, Type 1, BuildingBlock: NAHDIM_clean_linker_0, # of connection points: 4
#     Node 26, Type 1, BuildingBlock: NAHDIM_clean_linker_0, # of connection points: 4
#     Node 27, Type 1, BuildingBlock: NAHDIM_clean_linker_0, # of connection points: 4
#     Node 28, Type 1, BuildingBlock: NAHDIM_clean_linker_0, # of connection points: 4
#     Node 29, Type 1, BuildingBlock: NAHDIM_clean_linker_0, # of connection points: 4
#     Node 30, Type 1, BuildingBlock: NAHDIM_clean_linker_0, # of connection points: 4
#     Node 31, Type 1, BuildingBlock: NAHDIM_clean_linker_0, # of connection points: 4
#     Node 32, Type 1, BuildingBlock: NAHDIM_clean_linker_0, # of connection points: 4
#     Node 33, Type 1, BuildingBlock: NAHDIM_clean_linker_0, # of connection points: 4
#     Node 34, Type 1, BuildingBlock: NAHDIM_clean_linker_0, # of connection points: 4
#     Node 35, Type 1, BuildingBlock: NAHDIM_clean_linker_0, # of connection points: 4
#     Edge 36, Type (0, 1), BuildingBlock: XUDNAN_clean_linker_2, # of connection points: 2
#     Edge 37, Type (0, 1), BuildingBlock: XUDNAN_clean_linker_2, # of connection points: 2
#     Edge 38, Type (0, 1), BuildingBlock: XUDNAN_clean_linker_2, # of connection points: 2
#     Edge 39, Type (0, 1), BuildingBlock: XUDNAN_clean_linker_2, # of connection points: 2
#     Edge 40, Type (0, 1), BuildingBlock: XUDNAN_clean_linker_2, # of connection points: 2
#     Edge 41, Type (0, 1), BuildingBlock: XUDNAN_clean_linker_2, # of connection points: 2
#     Edge 42, Type (0, 1), BuildingBlock: XUDNAN_clean_linker_2, # of connection points: 2
#     Edge 43, Type (0, 1), BuildingBlock: XUDNAN_clean_linker_2, # of connection points: 2
#     Edge 44, Type (0, 1), BuildingBlock: XUDNAN_clean_linker_2, # of connection points: 2
#     Edge 45, Type (0, 1), BuildingBlock: XUDNAN_clean_linker_2, # of connection points: 2
#     Edge 46, Type (0, 1), BuildingBlock: XUDNAN_clean_linker_2, # of connection points: 2
#     Edge 47, Type (0, 1), BuildingBlock: XUDNAN_clean_linker_2, # of connection points: 2
#     Edge 48, Type (0, 1), BuildingBlock: XUDNAN_clean_linker_2, # of connection points: 2
#     Edge 49, Type (0, 1), BuildingBlock: XUDNAN_clean_linker_2, # of connection points: 2
#     Edge 50, Type (0, 1), BuildingBlock: XUDNAN_clean_linker_2, # of connection points: 2
#     Edge 51, Type (0, 1), BuildingBlock: XUDNAN_clean_linker_2, # of connection points: 2
#     Edge 52, Type (0, 1), BuildingBlock: XUDNAN_clean_linker_2, # of connection points: 2
#     Edge 53, Type (0, 1), BuildingBlock: XUDNAN_clean_linker_2, # of connection points: 2
#     Edge 54, Type (0, 1), BuildingBlock: XUDNAN_clean_linker_2, # of connection points: 2
#     Edge 55, Type (0, 1), BuildingBlock: XUDNAN_clean_linker_2, # of connection points: 2
#     Edge 56, Type (0, 1), BuildingBlock: XUDNAN_clean_linker_2, # of connection points: 2
#     Edge 57, Type (0, 1), BuildingBlock: XUDNAN_clean_linker_2, # of connection points: 2
#     Edge 58, Type (0, 1), BuildingBlock: XUDNAN_clean_linker_2, # of connection points: 2
#     Edge 59, Type (0, 1), BuildingBlock: XUDNAN_clean_linker_2, # of connection points: 2
#     Edge 60, Type (0, 1), BuildingBlock: XUDNAN_clean_linker_2, # of connection points: 2
#     Edge 61, Type (0, 1), BuildingBlock: XUDNAN_clean_linker_2, # of connection points: 2
#     Edge 62, Type (0, 1), BuildingBlock: XUDNAN_clean_linker_2, # of connection points: 2
#     Edge 63, Type (0, 1), BuildingBlock: XUDNAN_clean_linker_2, # of connection points: 2
#     Edge 64, Type (0, 1), BuildingBlock: XUDNAN_clean_linker_2, # of connection points: 2
#     Edge 65, Type (0, 1), BuildingBlock: XUDNAN_clean_linker_2, # of connection points: 2
#     Edge 66, Type (0, 1), BuildingBlock: XUDNAN_clean_linker_2, # of connection points: 2
#     Edge 67, Type (0, 1), BuildingBlock: XUDNAN_clean_linker_2, # of connection points: 2
#     Edge 68, Type (0, 1), BuildingBlock: XUDNAN_clean_linker_2, # of connection points: 2
#     Edge 69, Type (0, 1), BuildingBlock: XUDNAN_clean_linker_2, # of connection points: 2
#     Edge 70, Type (0, 1), BuildingBlock: XUDNAN_clean_linker_2, # of connection points: 2
#     Edge 71, Type (0, 1), BuildingBlock: XUDNAN_clean_linker_2, # of connection points: 2
#     Edge 72, Type (0, 1), BuildingBlock: XUDNAN_clean_linker_2, # of connection points: 2
#     Edge 73, Type (0, 1), BuildingBlock: XUDNAN_clean_linker_2, # of connection points: 2
#     Edge 74, Type (0, 1), BuildingBlock: XUDNAN_clean_linker_2, # of connection points: 2
#     Edge 75, Type (0, 1), BuildingBlock: XUDNAN_clean_linker_2, # of connection points: 2
#     Edge 76, Type (0, 1), BuildingBlock: XUDNAN_clean_linker_2, # of connection points: 2
#     Edge 77, Type (0, 1), BuildingBlock: XUDNAN_clean_linker_2, # of connection points: 2
#     Edge 78, Type (0, 1), BuildingBlock: XUDNAN_clean_linker_2, # of connection points: 2
#     Edge 79, Type (0, 1), BuildingBlock: XUDNAN_clean_linker_2, # of connection points: 2
#     Edge 80, Type (0, 1), BuildingBlock: XUDNAN_clean_linker_2, # of connection points: 2
#     Edge 81, Type (0, 1), BuildingBlock: XUDNAN_clean_linker_2, # of connection points: 2
#     Edge 82, Type (0, 1), BuildingBlock: XUDNAN_clean_linker_2, # of connection points: 2
#     Edge 83, Type (0, 1), BuildingBlock: XUDNAN_clean_linker_2, # of connection points: 2
#     Edge 84, Type (0, 1), BuildingBlock: XUDNAN_clean_linker_2, # of connection points: 2
#     Edge 85, Type (0, 1), BuildingBlock: XUDNAN_clean_linker_2, # of connection points: 2
#     Edge 86, Type (0, 1), BuildingBlock: XUDNAN_clean_linker_2, # of connection points: 2
#     Edge 87, Type (0, 1), BuildingBlock: XUDNAN_clean_linker_2, # of connection points: 2
#     Edge 88, Type (0, 1), BuildingBlock: XUDNAN_clean_linker_2, # of connection points: 2
#     Edge 89, Type (0, 1), BuildingBlock: XUDNAN_clean_linker_2, # of connection points: 2
#     Edge 90, Type (0, 1), BuildingBlock: XUDNAN_clean_linker_2, # of connection points: 2
#     Edge 91, Type (0, 1), BuildingBlock: XUDNAN_clean_linker_2, # of connection points: 2
#     Edge 92, Type (0, 1), BuildingBlock: XUDNAN_clean_linker_2, # of connection points: 2
#     Edge 93, Type (0, 1), BuildingBlock: XUDNAN_clean_linker_2, # of connection points: 2
#     Edge 94, Type (0, 1), BuildingBlock: XUDNAN_clean_linker_2, # of connection points: 2
#     Edge 95, Type (0, 1), BuildingBlock: XUDNAN_clean_linker_2, # of connection points: 2
#     Edge 96, Type (0, 1), BuildingBlock: XUDNAN_clean_linker_2, # of connection points: 2
#     Edge 97, Type (0, 1), BuildingBlock: XUDNAN_clean_linker_2, # of connection points: 2
#     Edge 98, Type (0, 1), BuildingBlock: XUDNAN_clean_linker_2, # of connection points: 2
#     Edge 99, Type (0, 1), BuildingBlock: XUDNAN_clean_linker_2, # of connection points: 2
#     Edge 100, Type (0, 1), BuildingBlock: XUDNAN_clean_linker_2, # of connection points: 2
#     Edge 101, Type (0, 1), BuildingBlock: XUDNAN_clean_linker_2, # of connection points: 2
#     Edge 102, Type (0, 1), BuildingBlock: XUDNAN_clean_linker_2, # of connection points: 2
#     Edge 103, Type (0, 1), BuildingBlock: XUDNAN_clean_linker_2, # of connection points: 2
#     Edge 104, Type (0, 1), BuildingBlock: XUDNAN_clean_linker_2, # of connection points: 2
#     Edge 105, Type (0, 1), BuildingBlock: XUDNAN_clean_linker_2, # of connection points: 2
#     Edge 106, Type (0, 1), BuildingBlock: XUDNAN_clean_linker_2, # of connection points: 2
#     Edge 107, Type (0, 1), BuildingBlock: XUDNAN_clean_linker_2, # of connection points: 2
# Relax obj value: 0.077
# Max RMSD: 0.285
# Mean RMSD: 0.115
data_MOF--net-ptr--node1-TATPOV_clean_sbu_0--node2-NAHDIM_clean_linker_0--edge1-XUDNAN_clean_linker_2
_symmetry_space_group_name_H-M    P1
_symmetry_Int_Tables_number       1
_symmetry_cell_setting            triclinic
loop_
_symmetry_equiv_pos_as_xyz
'x, y, z'
_cell_length_a     93.881633
_cell_length_b     95.027378
_cell_length_c     79.241233
_cell_angle_alpha  90.632299
_cell_angle_beta   90.852235
_cell_angle_gamma 121.72411
loop_
_atom_site_label
_atom_site_type_symbol
_atom_site_fract_x
_atom_site_fract_y
_atom_site_fract_z
_atom_type_partial_charge
Zn0 Zn 0.9706 0.35043 0.00623 0.0
Zn1 Zn 0.00174 0.3574 0.01642 0.0
O2 O 0.98782 0.33266 0.01031 0.0
O3 O 0.9626 0.3262 0.00204 0.0
O4 O 0.02316 0.35969 0.02534 0.0
O5 O 0.9683 0.35855 0.02936 0.0
O6 O 0.9939 0.36514 0.03648 0.0
C7 C 0.97313 0.32196 0.00488 0.0
C8 C 0.99872 0.3748 0.98594 0.0
O9 O 0.00789 0.37246 0.99612 0.0
O10 O 0.98296 0.36704 0.98767 0.0
C11 C 0.02865 0.35139 0.01838 0.0
O12 O 0.02129 0.34291 0.0044 0.0
C13 C 0.98045 0.36468 0.03995 0.0
Zn14 Zn 0.64477 0.61767 0.99912 0.0
Zn15 Zn 0.65045 0.64691 0.01212 0.0
O16 O 0.67305 0.65349 0.00166 0.0
O17 O 0.66872 0.62991 0.9913 0.0
O18 O 0.65425 0.66746 0.0243 0.0
O19 O 0.63899 0.6074 0.02229 0.0
O20 O 0.64341 0.63118 0.03196 0.0
C21 C 0.67832 0.64537 0.99382 0.0
C22 C 0.62348 0.62846 0.98451 0.0
O23 O 0.63151 0.64079 0.99471 0.0
O24 O 0.62679 0.61713 0.98406 0.0
C25 C 0.66745 0.68179 0.02406 0.0
O26 O 0.67973 0.6844 0.01425 0.0
C27 C 0.63931 0.61631 0.03447 0.0
Zn28 Zn 0.35826 0.97695 0.00917 0.0
Zn29 Zn 0.35352 0.00206 0.00334 0.0
O30 O 0.33135 0.98314 0.01309 0.0
O31 O 0.33504 0.96253 0.01789 0.0
O32 O 0.34757 0.01926 0.99832 0.0
O33 O 0.36323 0.97621 0.98459 0.0
O34 O 0.36145 0.99816 0.98048 0.0
C35 C 0.32589 0.96863 0.0185 0.0
C36 C 0.38027 0.00717 0.02898 0.0
O37 O 0.37252 0.01296 0.02121 0.0
O38 O 0.37662 0.9925 0.02588 0.0
C39 C 0.3388 0.02146 0.00888 0.0
O40 O 0.33475 0.01319 0.02297 0.0
C41 C 0.36448 0.98735 0.97498 0.0
Zn42 Zn 0.03419 0.66505 0.02829 0.0
Zn43 Zn 0.00334 0.65835 0.01748 0.0
O44 O 0.01704 0.68266 0.02502 0.0
O45 O 0.04247 0.68936 0.0327 0.0
O46 O 0.9829 0.65754 0.00804 0.0
O47 O 0.03697 0.6572 0.00519 0.0
O48 O 0.01173 0.65124 0.99743 0.0
C49 C 0.03171 0.69339 0.03045 0.0
C50 C 0.00499 0.63975 0.0472 0.0
O51 O 0.99609 0.64218 0.03675 0.0
O52 O 0.02086 0.64794 0.04628 0.0
C53 C 0.97596 0.66334 0.017 0.0
O54 O 0.98069 0.66721 0.03293 0.0
C55 C 0.02512 0.65151 0.99426 0.0
Zn56 Zn 0.35111 0.37937 0.01683 0.0
Zn57 Zn 0.35184 0.35633 0.99725 0.0
O58 O 0.32889 0.34441 0.00831 0.0
O59 O 0.32839 0.36237 0.02563 0.0
O60 O 0.3493 0.33739 0.98305 0.0
O61 O 0.35314 0.392 0.99568 0.0
O62 O 0.3557 0.37411 0.98016 0.0
C63 C 0.3214 0.34788 0.0193 0.0
C64 C 0.37824 0.37423 0.0254 0.0
O65 O 0.37177 0.36316 0.01368 0.0
O66 O 0.37197 0.38291 0.02875 0.0
C67 C 0.34803 0.32508 0.99065 0.0
O68 O 0.3504 0.32609 0.00711 0.0
C69 C 0.35548 0.38739 0.98148 0.0
Zn70 Zn 0.67181 0.03998 0.00101 0.0
Zn71 Zn 0.66326 0.00973 0.01304 0.0
O72 O 0.68809 0.02133 0.00703 0.0
O73 O 0.69591 0.04622 0.99829 0.0
O74 O 0.65866 0.98838 0.02328 0.0
O75 O 0.66395 0.04482 0.02288 0.0
O76 O 0.65675 0.02013 0.0318 0.0
C77 C 0.69936 0.03531 0.00152 0.0
C78 C 0.64549 0.01132 0.98149 0.0
O79 O 0.64733 0.0028 0.99262 0.0
O80 O 0.6545 0.027 0.98215 0.0
C81 C 0.6664 0.98141 0.01855 0.0
O82 O 0.67694 0.98773 0.00614 0.0
C83 C 0.65757 0.03384 0.03403 0.0
Zn84 Zn 0.64629 0.69867 0.33324 0.0
Zn85 Zn 0.66941 0.69198 0.34454 0.0
O86 O 0.65141 0.67083 0.33182 0.0
O87 O 0.63296 0.67624 0.32155 0.0
O88 O 0.68528 0.6851 0.35275 0.0
O89 O 0.64168 0.7015 0.35747 0.0
O90 O 0.66156 0.69746 0.36642 0.0
C91 C 0.63799 0.66632 0.32335 0.0
C92 C 0.67995 0.72164 0.32207 0.0
O93 O 0.68374 0.71246 0.3301 0.0
O94 O 0.66507 0.71849 0.32167 0.0
C95 C 0.68978 0.67803 0.34228 0.0
O96 O 0.68477 0.67642 0.32642 0.0
C97 C 0.65032 0.70078 0.36948 0.0
Zn98 Zn 0.29314 0.94669 0.33997 0.0
Zn99 Zn 0.30738 0.97835 0.34998 0.0
O100 O 0.3267 0.97734 0.33899 0.0
O101 O 0.31551 0.95085 0.33297 0.0
O102 O 0.31862 0.00214 0.35812 0.0
O103 O 0.28507 0.93925 0.36352 0.0
O104 O 0.29866 0.96537 0.37198 0.0
C105 C 0.32806 0.96551 0.33325 0.0
C106 C 0.27933 0.96363 0.32298 0.0
O107 O 0.28905 0.97554 0.33307 0.0
O108 O 0.27914 0.95021 0.32312 0.0
C109 C 0.33188 0.00811 0.36726 0.0
O110 O 0.33771 0.9986 0.37102 0.0
C111 C 0.28975 0.95003 0.37528 0.0
Zn112 Zn 0.01631 0.29761 0.35102 0.0
Zn113 Zn 0.02057 0.32768 0.34891 0.0
O114 O 0.99673 0.31303 0.35842 0.0
O115 O 0.99279 0.28806 0.35892 0.0
O116 O 0.02257 0.34967 0.34541 0.0
O117 O 0.02049 0.2971 0.32633 0.0
O118 O 0.02463 0.32207 0.32486 0.0
C119 C 0.98744 0.29764 0.36142 0.0
C120 C 0.04404 0.32304 0.3718 0.0
O121 O 0.03963 0.33261 0.36575 0.0
O122 O 0.03599 0.30782 0.36761 0.0
C123 C 0.01184 0.34975 0.33548 0.0
O124 O 1.00001 0.33568 0.32855 0.0
C125 C 0.02417 0.30971 0.31782 0.0
Zn126 Zn 0.69892 0.97246 0.36613 0.0
Zn127 Zn 0.67266 0.96698 0.34576 0.0
O128 O 0.6829 0.99077 0.35487 0.0
O129 O 0.70427 0.99577 0.37124 0.0
O130 O 0.65275 0.96327 0.3318 0.0
O131 O 0.70842 0.96768 0.34539 0.0
O132 O 0.68733 0.96382 0.32917 0.0
C133 C 0.69516 0.00052 0.36465 0.0
C134 C 0.667 0.94552 0.37683 0.0
O135 O 0.6617 0.94908 0.36365 0.0
O136 O 0.68245 0.95377 0.38088 0.0
C137 C 0.65295 0.97499 0.32397 0.0
O138 O 0.66676 0.98968 0.32418 0.0
C139 C 0.70116 0.96442 0.33099 0.0
Zn140 Zn 0.03458 0.73891 0.35373 0.0
Zn141 Zn 0.02771 0.70844 0.34361 0.0
O142 O 0.00566 0.70361 0.35369 0.0
O143 O 0.01089 0.72794 0.36263 0.0
O144 O 0.02218 0.68577 0.33577 0.0
O145 O 0.03883 0.74623 0.32952 0.0
O146 O 0.03447 0.72192 0.32175 0.0
C147 C 0.00088 0.71244 0.36087 0.0
C148 C 0.05572 0.72901 0.36987 0.0
O149 O 0.04647 0.71559 0.36147 0.0
O150 O 0.05367 0.7411 0.36841 0.0
C151 C 0.01577 0.67393 0.34606 0.0
O152 O 0.01334 0.6769 0.36166 0.0
C153 C 0.03825 0.73651 0.31808 0.0
Zn154 Zn 0.30798 0.36514 0.31374 0.0
Zn155 Zn 0.30984 0.34175 0.33171 0.0
O156 O 0.3323 0.35536 0.31983 0.0
O157 O 0.33085 0.37345 0.30393 0.0
O158 O 0.31338 0.32492 0.34316 0.0
O159 O 0.30551 0.37379 0.33661 0.0
O160 O 0.30594 0.35408 0.3506 0.0
C161 C 0.33884 0.36695 0.30922 0.0
C162 C 0.28206 0.33144 0.3047 0.0
O163 O 0.28918 0.3278 0.31616 0.0
O164 O 0.28766 0.34643 0.30123 0.0
C165 C 0.31637 0.31617 0.33331 0.0
O166 O 0.31583 0.31799 0.31694 0.0
C167 C 0.30467 0.36679 0.35043 0.0
Zn168 Zn 0.30634 0.02427 0.65769 0.0
Zn169 Zn 0.33509 0.02763 0.67142 0.0
O170 O 0.32172 0.00398 0.66198 0.0
O171 O 0.29775 0.99996 0.65223 0.0
O172 O 0.35501 0.02877 0.68274 0.0
O173 O 0.30179 0.03088 0.68072 0.0
O174 O 0.32471 0.03287 0.69095 0.0
C175 C 0.30732 0.99454 0.65514 0.0
C176 C 0.3378 0.04941 0.64237 0.0
O177 O 0.3447 0.04523 0.65352 0.0
O178 O 0.32196 0.04225 0.64137 0.0
C179 C 0.35201 0.01683 0.69218 0.0
O180 O 0.33643 0.00463 0.69384 0.0
C181 C 0.31185 0.03385 0.69302 0.0
Zn182 Zn 0.98591 0.28825 0.66976 0.0
Zn183 Zn 0.98278 0.31401 0.67949 0.0
O184 O 0.00635 0.32468 0.66966 0.0
O185 O 0.0094 0.30415 0.6618 0.0
O186 O 0.98173 0.33377 0.68737 0.0
O187 O 0.98214 0.28045 0.6938 0.0
O188 O 0.9786 0.3008 0.70118 0.0
C189 C 0.01522 0.31954 0.66327 0.0
C190 C 0.95824 0.28875 0.65324 0.0
O191 O 0.96357 0.30204 0.66194 0.0
O192 O 0.96557 0.28076 0.65435 0.0
C193 C 0.99469 0.34624 0.69408 0.0
O194 O 0.00846 0.34594 0.69589 0.0
C195 C 0.97883 0.28791 0.70494 0.0
Zn196 Zn 0.68746 0.64293 0.70048 0.0
Zn197 Zn 0.68732 0.66725 0.6836 0.0
O198 O 0.66485 0.65564 0.69617 0.0
O199 O 0.66563 0.63659 0.71105 0.0
O200 O 0.68698 0.68577 0.67166 0.0
O201 O 0.68809 0.63284 0.67816 0.0
O202 O 0.68964 0.65365 0.66448 0.0
C203 C 0.65831 0.64407 0.70685 0.0
C204 C 0.71484 0.67522 0.71032 0.0
O205 O 0.70805 0.67988 0.69951 0.0
O206 O 0.70866 0.65996 0.71279 0.0
C207 C 0.67359 0.68386 0.66514 0.0
O208 O 0.65969 0.66928 0.66563 0.0
C209 C 0.68942 0.64012 0.66444 0.0
Zn210 Zn 0.37418 0.32758 0.69736 0.0
Zn211 Zn 0.34264 0.31909 0.68756 0.0
O212 O 0.35507 0.34323 0.69585 0.0
O213 O 0.38089 0.35115 0.7034 0.0
O214 O 0.32127 0.31713 0.67926 0.0
O215 O 0.37772 0.32201 0.67362 0.0
O216 O 0.3517 0.31393 0.66644 0.0
C217 C 0.36948 0.35436 0.70153 0.0
C218 C 0.34641 0.30025 0.71593 0.0
O219 O 0.33671 0.30248 0.70644 0.0
O220 O 0.36218 0.30915 0.71437 0.0
C221 C 0.31357 0.32111 0.68945 0.0
O222 O 0.31839 0.32384 0.70543 0.0
C223 C 0.36583 0.31598 0.66274 0.0
Zn224 Zn 0.69716 0.06234 0.7036 0.0
Zn225 Zn 0.69081 0.03525 0.68526 0.0
O226 O 0.66894 0.02827 0.69766 0.0
O227 O 0.67431 0.04953 0.71395 0.0
O228 O 0.68458 0.01381 0.67316 0.0
O229 O 0.70064 0.07394 0.68127 0.0
O230 O 0.69661 0.05224 0.66662 0.0
C231 C 0.66435 0.03481 0.70873 0.0
C232 C 0.71943 0.05114 0.71215 0.0
O233 O 0.71085 0.0401 0.7008 0.0
O234 O 0.71621 0.06222 0.71556 0.0
C235 C 0.68008 0.00151 0.68264 0.0
O236 O 0.68051 0.00382 0.69906 0.0
C237 C 0.70002 0.06713 0.6672 0.0
Zn238 Zn 0.98768 0.70673 0.65545 0.0
Zn239 Zn 0.97689 0.67599 0.66714 0.0
O240 O 0.0013 0.68564 0.66026 0.0
O241 O 0.01095 0.71106 0.65196 0.0
O242 O 0.97173 0.65416 0.67644 0.0
O243 O 0.98203 0.71264 0.678 0.0
O244 O 0.97305 0.68755 0.68709 0.0
C245 C 0.01321 0.69927 0.65478 0.0
C246 C 0.95964 0.6795 0.63612 0.0
O247 O 0.96054 0.6703 0.64712 0.0
O248 O 0.96976 0.69505 0.63688 0.0
C249 C 0.97312 0.64423 0.66673 0.0
O250 O 0.97634 0.64793 0.65075 0.0
C251 C 0.97575 0.70205 0.68952 0.0
C252 C 0.21521 0.26221 0.0866 0.0
C253 C 0.21527 0.27598 0.07671 0.0
C254 C 0.20283 0.28824 0.09429 0.0
C255 C 0.20666 0.30271 0.103 0.0
C256 C 0.19408 0.30444 0.11011 0.0
C257 C 0.17721 0.29124 0.10855 0.0
C258 C 0.17319 0.27647 0.09983 0.0
C259 C 0.18606 0.27508 0.0928 0.0
C260 C 0.19883 0.32035 0.11936 0.0
C261 C 0.15531 0.26214 0.09814 0.0
C262 C 0.0927 0.32993 0.05726 0.0
C263 C 0.09997 0.31993 0.06225 0.0
C264 C 0.12137 0.32174 0.08176 0.0
C265 C 0.11472 0.30458 0.08205 0.0
C266 C 0.12209 0.29803 0.0923 0.0
C267 C 0.13646 0.30885 0.10233 0.0
C268 C 0.14336 0.32613 0.10184 0.0
C269 C 0.13566 0.33233 0.09159 0.0
C270 C 0.11445 0.27954 0.09253 0.0
C271 C 0.1588 0.33802 0.11221 0.0
C272 C 0.09257 0.29902 0.20374 0.0
C273 C 0.08721 0.28376 0.19552 0.0
C274 C 0.09885 0.2802 0.1891 0.0
C275 C 0.11616 0.29222 0.19062 0.0
C276 C 0.12161 0.3075 0.19899 0.0
C277 C 0.10971 0.31067 0.20548 0.0
C278 C 0.09264 0.26371 0.18035 0.0
C279 C 0.13999 0.32062 0.20075 0.0
C280 C 0.1979 0.24281 0.21522 0.0
C281 C 0.1968 0.25792 0.21969 0.0
C282 C 0.1723 0.25988 0.21428 0.0
C283 C 0.15561 0.24962 0.20894 0.0
C284 C 0.14734 0.25595 0.19982 0.0
C285 C 0.1559 0.27306 0.19641 0.0
C286 C 0.17244 0.28369 0.20282 0.0
C287 C 0.18052 0.27696 0.21158 0.0
C288 C 0.12964 0.24428 0.19336 0.0
C289 C 0.18173 0.30209 0.20005 0.0
C290 C 0.16388 0.29287 0.11635 0.0
C291 C 0.15605 0.29915 0.10656 0.0
C292 C 0.14419 0.30205 0.11346 0.0
C293 C 0.14005 0.29872 0.13064 0.0
C294 C 0.12838 0.30175 0.13806 0.0
C295 C 0.12461 0.29869 0.15504 0.0
C296 C 0.13224 0.29233 0.16524 0.0
C297 C 0.12849 0.28919 0.18252 0.0
C298 C 0.13639 0.28299 0.19235 0.0
C299 C 0.14793 0.27967 0.18533 0.0
C300 C 0.15174 0.2826 0.16802 0.0
C301 C 0.16313 0.27923 0.16048 0.0
C302 C 0.1671 0.28254 0.14356 0.0
C303 C 0.15968 0.28917 0.13347 0.0
C304 C 0.14785 0.29226 0.14067 0.0
C305 C 0.14393 0.28905 0.15799 0.0
C306 C 0.0569 0.29466 0.19339 0.0
C307 C 0.06446 0.29347 0.21019 0.0
O308 O 0.21579 0.28758 0.08785 0.0
O309 O 0.18017 0.25292 0.22179 0.0
O310 O 0.08179 0.30316 0.20999 0.0
O311 O 0.11434 0.32853 0.07236 0.0
H312 H 0.20386 0.27058 0.06841 0.0
H313 H 0.21456 0.25268 0.07781 0.0
H314 H 0.20414 0.2561 0.09479 0.0
H315 H 0.22672 0.26734 0.0947 0.0
H316 H 0.21964 0.31273 0.10416 0.0
H317 H 0.18292 0.26367 0.08639 0.0
H318 H 0.19189 0.32575 0.11373 0.0
H319 H 0.21247 0.32965 0.11895 0.0
H320 H 0.1952 0.31775 0.13276 0.0
H321 H 0.15421 0.25145 0.09105 0.0
H322 H 0.14758 0.26617 0.09153 0.0
H323 H 0.15007 0.25804 0.11087 0.0
H324 H 0.10104 0.31251 0.0519 0.0
H325 H 0.09373 0.3307 0.04311 0.0
H326 H 0.10279 0.34331 0.05963 0.0
H327 H 0.06921 0.31836 0.06959 0.0
H328 H 0.10374 0.29621 0.07441 0.0
H329 H 0.14073 0.34553 0.09126 0.0
H330 H 0.12374 0.2765 0.08822 0.0
H331 H 0.10301 0.27274 0.08432 0.0
H332 H 0.11117 0.27512 0.10564 0.0
H333 H 0.16306 0.35115 0.10985 0.0
H334 H 0.16915 0.336 0.10931 0.0
H335 H 0.15617 0.33565 0.12584 0.0
H336 H 0.06036 0.2803 0.21212 0.0
H337 H 0.07402 0.27461 0.19383 0.0
H338 H 0.11376 0.32239 0.21182 0.0
H339 H 0.09544 0.26563 0.16671 0.0
H340 H 0.07893 0.25508 0.18163 0.0
H341 H 0.09926 0.25784 0.18561 0.0
H342 H 0.14219 0.33191 0.20754 0.0
H343 H 0.14551 0.32411 0.18805 0.0
H344 H 0.14667 0.31561 0.20771 0.0
H345 H 0.202 0.26621 0.20868 0.0
H346 H 0.2112 0.24649 0.21398 0.0
H347 H 0.19126 0.2373 0.20296 0.0
H348 H 0.19199 0.2332 0.22496 0.0
H349 H 0.1493 0.2365 0.21134 0.0
H350 H 0.19326 0.28504 0.21626 0.0
H351 H 0.12898 0.2452 0.17945 0.0
H352 H 0.12118 0.24785 0.19896 0.0
H353 H 0.12498 0.2312 0.19649 0.0
H354 H 0.19342 0.30889 0.2079 0.0
H355 H 0.17363 0.30704 0.203 0.0
H356 H 0.1851 0.30454 0.18657 0.0
H357 H 0.15938 0.30201 0.09345 0.0
H358 H 0.12209 0.30661 0.13085 0.0
H359 H 0.11564 0.30141 0.16006 0.0
H360 H 0.13348 0.28068 0.20561 0.0
H361 H 0.16921 0.27408 0.16758 0.0
H362 H 0.17605 0.27981 0.1385 0.0
H363 H 0.06115 0.30772 0.19066 0.0
H364 H 0.043 0.2873 0.19377 0.0
H365 H 0.0608 0.28967 0.1829 0.0
C366 C 0.67429 0.88125 0.05342 0.0
C367 C 0.67399 0.89106 0.06874 0.0
C368 C 0.6933 0.8916 0.09001 0.0
C369 C 0.68215 0.8829 0.10295 0.0
C370 C 0.68605 0.87477 0.11515 0.0
C371 C 0.70155 0.87564 0.11457 0.0
C372 C 0.71324 0.88525 0.10217 0.0
C373 C 0.70898 0.89322 0.09009 0.0
C374 C 0.6734 0.86488 0.12839 0.0
C375 C 0.73 0.88669 0.10143 0.0
C376 C 0.68522 0.75901 0.07833 0.0
C377 C 0.69413 0.77567 0.08655 0.0
C378 C 0.68863 0.793 0.10506 0.0
C379 C 0.70551 0.80578 0.10717 0.0
C380 C 0.7099 0.82046 0.116 0.0
C381 C 0.6972 0.82235 0.12296 0.0
C382 C 0.68026 0.80928 0.12139 0.0
C383 C 0.67621 0.79475 0.11245 0.0
C384 C 0.7281 0.83416 0.11751 0.0
C385 C 0.66643 0.81083 0.1288 0.0
C386 C 0.71873 0.82283 0.23662 0.0
C387 C 0.73145 0.82856 0.22475 0.0
C388 C 0.73314 0.83992 0.2125 0.0
C389 C 0.72137 0.84498 0.21169 0.0
C390 C 0.7084 0.83893 0.22355 0.0
C391 C 0.70753 0.82825 0.23608 0.0
C392 C 0.74762 0.84667 0.20064 0.0
C393 C 0.69551 0.84386 0.2232 0.0
C394 C 0.75285 0.97547 0.21519 0.0
C395 C 0.74242 0.95725 0.21986 0.0
C396 C 0.74564 0.93401 0.21183 0.0
C397 C 0.75698 0.93008 0.20558 0.0
C398 C 0.75163 0.914 0.19977 0.0
C399 C 0.73446 0.90153 0.20036 0.0
C400 C 0.72295 0.90528 0.20716 0.0
C401 C 0.72865 0.92148 0.21289 0.0
C402 C 0.76426 0.9104 0.19274 0.0
C403 C 0.70459 0.8922 0.20818 0.0
C404 C 0.70481 0.86534 0.12604 0.0
C405 C 0.70048 0.84967 0.12008 0.0
C406 C 0.70152 0.83851 0.13057 0.0
C407 C 0.70668 0.84292 0.14766 0.0
C408 C 0.70669 0.83159 0.1589 0.0
C409 C 0.71164 0.83603 0.17575 0.0
C410 C 0.71735 0.85216 0.18185 0.0
C411 C 0.72274 0.85693 0.19888 0.0
C412 C 0.72847 0.87314 0.20438 0.0
C413 C 0.72852 0.88465 0.19353 0.0
C414 C 0.72283 0.88001 0.17659 0.0
C415 C 0.72232 0.89117 0.16543 0.0
C416 C 0.71637 0.88639 0.14888 0.0
C417 C 0.71102 0.87038 0.14277 0.0
C418 C 0.71176 0.85904 0.15368 0.0
C419 C 0.71741 0.86377 0.1707 0.0
C420 C 0.71707 0.79116 0.26437 0.0
C421 C 0.72113 0.80047 0.24847 0.0
O422 O 0.68931 0.89855 0.07736 0.0
O423 O 0.75164 0.94997 0.21668 0.0
O424 O 0.71722 0.81263 0.24921 0.0
O425 O 0.68377 0.77896 0.09586 0.0
H426 H 0.6637 0.88198 0.07675 0.0
H427 H 0.67578 0.871 0.05774 0.0
H428 H 0.68491 0.88924 0.04515 0.0
H429 H 0.66236 0.8758 0.04597 0.0
H430 H 0.67038 0.88239 0.10357 0.0
H431 H 0.71766 0.90028 0.08027 0.0
H432 H 0.66981 0.85174 0.12744 0.0
H433 H 0.66189 0.86541 0.1271 0.0
H434 H 0.67906 0.86964 0.14116 0.0
H435 H 0.73831 0.89587 0.09208 0.0
H436 H 0.72809 0.87446 0.09793 0.0
H437 H 0.73635 0.89034 0.11405 0.0
H438 H 0.70278 0.78599 0.07827 0.0
H439 H 0.68651 0.76143 0.06437 0.0
H440 H 0.67145 0.75449 0.07828 0.0
H441 H 0.69538 0.7463 0.09083 0.0
H442 H 0.71529 0.80449 0.10177 0.0
H443 H 0.66325 0.78478 0.1109 0.0
H444 H 0.72989 0.84542 0.11137 0.0
H445 H 0.73652 0.8307 0.1116 0.0
H446 H 0.73183 0.83737 0.13103 0.0
H447 H 0.65411 0.799 0.12792 0.0
H448 H 0.66541 0.82042 0.12197 0.0
H449 H 0.66942 0.8149 0.14226 0.0
H450 H 0.71673 0.79284 0.23657 0.0
H451 H 0.74035 0.8246 0.22535 0.0
H452 H 0.69786 0.82384 0.24544 0.0
H453 H 0.74297 0.84097 0.18789 0.0
H454 H 0.75726 0.84398 0.20491 0.0
H455 H 0.75362 0.86026 0.1995 0.0
H456 H 0.6845 0.8356 0.23091 0.0
H457 H 0.6911 0.84367 0.21007 0.0
H458 H 0.7013 0.85666 0.2284 0.0
H459 H 0.73095 0.95147 0.21158 0.0
H460 H 0.74566 0.98159 0.21732 0.0
H461 H 0.75603 0.9765 0.20163 0.0
H462 H 0.76468 0.98205 0.22286 0.0
H463 H 0.77009 0.93977 0.205 0.0
H464 H 0.7198 0.92424 0.21817 0.0
H465 H 0.76082 0.90597 0.17941 0.0
H466 H 0.76408 0.90037 0.19997 0.0
H467 H 0.77718 0.92144 0.19324 0.0
H468 H 0.69728 0.89698 0.21415 0.0
H469 H 0.70303 0.88164 0.21556 0.0
H470 H 0.6993 0.88739 0.1953 0.0
H471 H 0.69601 0.846 0.10711 0.0
H472 H 0.70264 0.81909 0.15483 0.0
H473 H 0.71108 0.82669 0.18389 0.0
H474 H 0.73262 0.87675 0.21743 0.0
H475 H 0.72636 0.90368 0.16942 0.0
H476 H 0.71613 0.89543 0.14088 0.0
H477 H 0.74086 0.79701 0.27442 0.0
H478 H 0.70684 0.77819 0.2606 0.0
H479 H 0.7084 0.79379 0.27155 0.0
C480 C 0.23834 0.92659 0.0618 0.0
C481 C 0.22277 0.92377 0.06954 0.0
C482 C 0.19986 0.90229 0.08622 0.0
C483 C 0.191 0.91034 0.08833 0.0
C484 C 0.17625 0.90302 0.09771 0.0
C485 C 0.17048 0.88756 0.10527 0.0
C486 C 0.17984 0.87985 0.10372 0.0
C487 C 0.19432 0.88727 0.09409 0.0
C488 C 0.16656 0.91155 0.09918 0.0
C489 C 0.17428 0.8635 0.11184 0.0
C490 C 0.07668 0.81941 0.02772 0.0
C491 C 0.08047 0.81332 0.04397 0.0
C492 C 0.08748 0.82761 0.07139 0.0
C493 C 0.09829 0.82266 0.07742 0.0
C494 C 0.10983 0.83148 0.09067 0.0
C495 C 0.11061 0.84556 0.09793 0.0
C496 C 0.0991 0.85 0.09247 0.0
C497 C 0.0875 0.84078 0.07939 0.0
C498 C 0.12158 0.82608 0.09645 0.0
C499 C 0.09954 0.86491 0.09991 0.0
C500 C 0.07333 0.81706 0.20423 0.0
C501 C 0.08618 0.81446 0.19967 0.0
C502 C 0.10078 0.82709 0.19226 0.0
C503 C 0.10251 0.84259 0.18932 0.0
C504 C 0.08981 0.84538 0.19441 0.0
C505 C 0.07544 0.8326 0.20197 0.0
C506 C 0.11434 0.82387 0.18753 0.0
C507 C 0.09132 0.86179 0.19165 0.0
C508 C 0.20774 0.95812 0.21703 0.0
C509 C 0.19991 0.94565 0.23122 0.0
C510 C 0.18413 0.91854 0.21609 0.0
C511 C 0.18401 0.90404 0.21259 0.0
C512 C 0.17144 0.89137 0.20227 0.0
C513 C 0.15873 0.89336 0.19516 0.0
C514 C 0.15864 0.90793 0.19877 0.0
C515 C 0.17131 0.92038 0.20925 0.0
C516 C 0.17183 0.87593 0.19882 0.0
C517 C 0.14519 0.91038 0.19142 0.0
C518 C 0.15388 0.87847 0.1133 0.0
C519 C 0.14012 0.8675 0.10304 0.0
C520 C 0.12453 0.85659 0.10988 0.0
C521 C 0.12259 0.85635 0.12755 0.0
C522 C 0.10744 0.84475 0.135 0.0
C523 C 0.10577 0.8445 0.15245 0.0
C524 C 0.1191 0.85601 0.16307 0.0
C525 C 0.11759 0.8558 0.18083 0.0
C526 C 0.13072 0.86806 0.19091 0.0
C527 C 0.14562 0.8803 0.18379 0.0
C528 C 0.14779 0.88007 0.16618 0.0
C529 C 0.16303 0.8915 0.15873 0.0
C530 C 0.16514 0.89089 0.14143 0.0
C531 C 0.15189 0.87925 0.13086 0.0
C532 C 0.13625 0.86794 0.13804 0.0
C533 C 0.13437 0.86803 0.15578 0.0
C534 C 0.03268 0.78125 0.20294 0.0
C535 C 0.05103 0.7881 0.20782 0.0
O536 O 0.21349 0.90819 0.0764 0.0
O537 O 0.19692 0.93033 0.22595 0.0
O538 O 0.05884 0.80499 0.21098 0.0
O539 O 0.07715 0.8202 0.05772 0.0
H540 H 0.21528 0.9274 0.06175 0.0
H541 H 0.23664 0.91404 0.05957 0.0
H542 H 0.25799 0.94524 0.07762 0.0
H543 H 0.23687 0.92849 0.04801 0.0
H544 H 0.19526 0.92205 0.08237 0.0
H545 H 0.20133 0.88125 0.09248 0.0
H546 H 0.15412 0.90384 0.09276 0.0
H547 H 0.17318 0.92398 0.09349 0.0
H548 H 0.16434 0.91286 0.11267 0.0
H549 H 0.18354 0.85968 0.11037 0.0
H550 H 0.16215 0.85374 0.10605 0.0
H551 H 0.17229 0.8643 0.12551 0.0
H552 H 0.09406 0.81772 0.04371 0.0
H553 H 0.07909 0.8139 0.01651 0.0
H554 H 0.08491 0.83309 0.0272 0.0
H555 H 0.06344 0.81612 0.02716 0.0
H556 H 0.09787 0.81205 0.07169 0.0
H557 H 0.07889 0.8443 0.07482 0.0
H558 H 0.12293 0.82682 0.11043 0.0
H559 H 0.13414 0.8345 0.09122 0.0
H560 H 0.11722 0.81325 0.0921 0.0
H561 H 0.09001 0.86696 0.09394 0.0
H562 H 0.11213 0.87615 0.09833 0.0
H563 H 0.09725 0.8633 0.11365 0.0
H564 H 0.05667 0.78556 0.19682 0.0
H565 H 0.08493 0.80266 0.20204 0.0
H566 H 0.06557 0.83456 0.2058 0.0
H567 H 0.11544 0.82409 0.1736 0.0
H568 H 0.11176 0.81171 0.19198 0.0
H569 H 0.12661 0.83377 0.19297 0.0
H570 H 0.07989 0.86166 0.19537 0.0
H571 H 0.09369 0.8651 0.17815 0.0
H572 H 0.10217 0.87161 0.19917 0.0
H573 H 0.18798 0.94449 0.23499 0.0
H574 H 0.21028 0.97042 0.22132 0.0
H575 H 0.19912 0.95403 0.20585 0.0
H576 H 0.21969 0.9594 0.21312 0.0
H577 H 0.19392 0.90271 0.21797 0.0
H578 H 0.17116 0.93149 0.21189 0.0
H579 H 0.17327 0.87471 0.18509 0.0
H580 H 0.1598 0.86486 0.20246 0.0
H581 H 0.18225 0.87604 0.20578 0.0
H582 H 0.14694 0.92248 0.19528 0.0
H583 H 0.13272 0.90033 0.19556 0.0
H584 H 0.14518 0.90964 0.17742 0.0
H585 H 0.14169 0.86715 0.08953 0.0
H586 H 0.09678 0.83563 0.12742 0.0
H587 H 0.09386 0.83522 0.1575 0.0
H588 H 0.12935 0.86804 0.20448 0.0
H589 H 0.1736 0.90087 0.16622 0.0
H590 H 0.17721 0.89981 0.13638 0.0
H591 H 0.02612 0.76774 0.20012 0.0
H592 H 0.03191 0.78747 0.19147 0.0
H593 H 0.02619 0.78346 0.21331 0.0
C594 C 0.32373 0.11795 0.97585 0.0
C595 C 0.31 0.10141 0.96794 0.0
C596 C 0.3063 0.1091 0.93999 0.0
C597 C 0.28943 0.10441 0.93926 0.0
C598 C 0.28411 0.11276 0.92888 0.0
C599 C 0.29598 0.1262 0.91925 0.0
C600 C 0.31297 0.13069 0.91974 0.0
C601 C 0.31783 0.12183 0.92989 0.0
C602 C 0.26585 0.10735 0.92839 0.0
C603 C 0.3261 0.14514 0.90995 0.0
C604 C 0.26687 0.20389 0.97923 0.0
C605 C 0.28011 0.20677 0.9664 0.0
C606 C 0.27557 0.18977 0.94121 0.0
C607 C 0.29205 0.19365 0.93901 0.0
C608 C 0.29534 0.1837 0.92856 0.0
C609 C 0.28183 0.16942 0.92046 0.0
C610 C 0.26521 0.16554 0.9227 0.0
C611 C 0.26237 0.17602 0.93275 0.0
C612 C 0.31324 0.18844 0.92619 0.0
C613 C 0.2504 0.15019 0.91473 0.0
C614 C 0.27875 0.19389 0.81071 0.0
C615 C 0.29382 0.1976 0.81869 0.0
C616 C 0.295 0.18549 0.82744 0.0
C617 C 0.28067 0.16937 0.82862 0.0
C618 C 0.26553 0.16547 0.82027 0.0
C619 C 0.26487 0.17775 0.8112 0.0
C620 C 0.31163 0.18999 0.83543 0.0
C621 C 0.25003 0.14839 0.82103 0.0
C622 C 0.26894 0.05603 0.80685 0.0
C623 C 0.27721 0.06946 0.79356 0.0
C624 C 0.28786 0.09577 0.80941 0.0
C625 C 0.30242 0.11031 0.81492 0.0
C626 C 0.30166 0.12266 0.82397 0.0
C627 C 0.28587 0.12023 0.82784 0.0
C628 C 0.27105 0.10561 0.82219 0.0
C629 C 0.27217 0.09356 0.81293 0.0
C630 C 0.31772 0.13823 0.82956 0.0
C631 C 0.25401 0.10265 0.82613 0.0
C632 C 0.29089 0.13619 0.90946 0.0
C633 C 0.28866 0.14765 0.91838 0.0
C634 C 0.28499 0.15828 0.91002 0.0
C635 C 0.28398 0.15789 0.89217 0.0
C636 C 0.28126 0.16903 0.88329 0.0
C637 C 0.28029 0.16853 0.86573 0.0
C638 C 0.2821 0.15693 0.85636 0.0
C639 C 0.28162 0.15664 0.83848 0.0
C640 C 0.28289 0.14455 0.82961 0.0
C641 C 0.28482 0.13281 0.83808 0.0
C642 C 0.28589 0.13326 0.85592 0.0
C643 C 0.2883 0.12191 0.86484 0.0
C644 C 0.2899 0.12281 0.88237 0.0
C645 C 0.28888 0.13491 0.89168 0.0
C646 C 0.28577 0.14604 0.88299 0.0
C647 C 0.28455 0.14539 0.86508 0.0
C648 C 0.27139 0.22588 0.81086 0.0
C649 C 0.2849 0.22206 0.80658 0.0
O650 O 0.31173 0.10167 0.95058 0.0
O651 O 0.28964 0.08426 0.80098 0.0
O652 O 0.27724 0.20541 0.80217 0.0
O653 O 0.27197 0.19907 0.95127 0.0
H654 H 0.29765 0.09966 0.97104 0.0
H655 H 0.32254 0.12818 0.97091 0.0
H656 H 0.33634 0.12039 0.97279 0.0
H657 H 0.32255 0.11784 0.98979 0.0
H658 H 0.28045 0.09423 0.9468 0.0
H659 H 0.33081 0.12524 0.93051 0.0
H660 H 0.2643 0.11681 0.935 0.0
H661 H 0.25788 0.0953 0.93459 0.0
H662 H 0.26133 0.10629 0.91513 0.0
H663 H 0.33898 0.14814 0.91316 0.0
H664 H 0.3254 0.15628 0.91248 0.0
H665 H 0.32375 0.14221 0.89622 0.0
H666 H 0.28697 0.20102 0.97148 0.0
H667 H 0.2728 0.20925 0.99179 0.0
H668 H 0.25796 0.1904 0.98063 0.0
H669 H 0.25973 0.20959 0.97497 0.0
H670 H 0.30233 0.20455 0.94527 0.0
H671 H 0.24972 0.17324 0.93448 0.0
H672 H 0.31544 0.17945 0.93272 0.0
H673 H 0.32235 0.20103 0.93137 0.0
H674 H 0.31564 0.18795 0.91258 0.0
H675 H 0.23832 0.14764 0.91981 0.0
H676 H 0.25149 0.13925 0.91686 0.0
H677 H 0.25014 0.15176 0.9009 0.0
H678 H 0.29259 0.22505 0.81842 0.0
H679 H 0.30481 0.20985 0.81794 0.0
H680 H 0.25335 0.1749 0.80477 0.0
H681 H 0.31113 0.19125 0.84931 0.0
H682 H 0.32212 0.20188 0.83074 0.0
H683 H 0.31435 0.18013 0.8329 0.0
H684 H 0.23876 0.14795 0.81577 0.0
H685 H 0.24766 0.14418 0.83427 0.0
H686 H 0.25197 0.13955 0.81367 0.0
H687 H 0.26752 0.07118 0.78738 0.0
H688 H 0.25927 0.0441 0.80076 0.0
H689 H 0.26273 0.05947 0.81642 0.0
H690 H 0.2784 0.05429 0.81347 0.0
H691 H 0.31446 0.11195 0.81211 0.0
H692 H 0.26075 0.08244 0.80872 0.0
H693 H 0.31886 0.13876 0.84355 0.0
H694 H 0.31753 0.14929 0.82555 0.0
H695 H 0.32894 0.13884 0.82433 0.0
H696 H 0.24366 0.09033 0.82146 0.0
H697 H 0.2525 0.11235 0.82025 0.0
H698 H 0.25292 0.10355 0.83998 0.0
H699 H 0.28984 0.14831 0.93206 0.0
H700 H 0.27995 0.17834 0.88982 0.0
H701 H 0.27813 0.17739 0.85959 0.0
H702 H 0.28252 0.14437 0.81591 0.0
H703 H 0.28918 0.11232 0.85835 0.0
H704 H 0.2919 0.11387 0.88855 0.0
H705 H 0.26161 0.22133 0.80068 0.0
H706 H 0.27704 0.2394 0.81294 0.0
H707 H 0.26515 0.21952 0.82263 0.0
C708 C 0.8266 0.07422 0.986 0.0
C709 C 0.81654 0.07702 0.97252 0.0
C710 C 0.82542 0.08271 0.94353 0.0
C711 C 0.81963 0.09318 0.93935 0.0
C712 C 0.82741 0.10504 0.92684 0.0
C713 C 0.84138 0.10656 0.91853 0.0
C714 C 0.84657 0.09531 0.92202 0.0
C715 C 0.83827 0.08329 0.93431 0.0
C716 C 0.82122 0.11649 0.92311 0.0
C717 C 0.86151 0.09663 0.91357 0.0
C718 C 0.91808 0.19503 0.97954 0.0
C719 C 0.9268 0.20689 0.96503 0.0
C720 C 0.90606 0.19228 0.9419 0.0
C721 C 0.91007 0.18021 0.93851 0.0
C722 C 0.9001 0.16687 0.92733 0.0
C723 C 0.88569 0.1654 0.91959 0.0
C724 C 0.88172 0.17761 0.92282 0.0
C725 C 0.89212 0.19102 0.93376 0.0
C726 C 0.90483 0.15418 0.92402 0.0
C727 C 0.86629 0.17629 0.91502 0.0
C728 C 0.91109 0.19455 0.81298 0.0
C729 C 0.91533 0.18293 0.81764 0.0
C730 C 0.90356 0.16804 0.82513 0.0
C731 C 0.88726 0.1647 0.8281 0.0
C732 C 0.88281 0.17614 0.82302 0.0
C733 C 0.8948 0.19091 0.81551 0.0
C734 C 0.90865 0.15602 0.8303 0.0
C735 C 0.86551 0.17293 0.82596 0.0
C736 C 0.78886 0.03376 0.80612 0.0
C737 C 0.79344 0.05117 0.80119 0.0
C738 C 0.82072 0.0759 0.8081 0.0
C739 C 0.83709 0.08042 0.81244 0.0
C740 C 0.84779 0.09507 0.8217 0.0
C741 C 0.842 0.10559 0.82645 0.0
C742 C 0.82571 0.10147 0.82142 0.0
C743 C 0.81523 0.08667 0.81227 0.0
C744 C 0.86518 0.09921 0.82663 0.0
C745 C 0.81933 0.11265 0.82587 0.0
C746 C 0.8521 0.1214 0.90838 0.0
C747 C 0.86309 0.13606 0.91731 0.0
C748 C 0.87423 0.15053 0.90901 0.0
C749 C 0.87453 0.15049 0.89119 0.0
C750 C 0.88583 0.16474 0.88244 0.0
C751 C 0.88603 0.16459 0.8649 0.0
C752 C 0.87502 0.15013 0.85543 0.0
C753 C 0.87528 0.14984 0.83759 0.0
C754 C 0.86429 0.13524 0.82854 0.0
C755 C 0.85296 0.12078 0.83685 0.0
C756 C 0.85244 0.12084 0.8547 0.0
C757 C 0.84118 0.10654 0.8635 0.0
C758 C 0.84091 0.10672 0.88108 0.0
C759 C 0.85198 0.12114 0.89052 0.0
C760 C 0.86331 0.13575 0.88191 0.0
C761 C 0.86355 0.13558 0.864 0.0
C762 C 0.94947 0.22277 0.81968 0.0
C763 C 0.93903 0.21588 0.80325 0.0
O764 O 0.81932 0.07245 0.95681 0.0
O765 O 0.81067 0.06115 0.79989 0.0
O766 O 0.92222 0.20944 0.80627 0.0
O767 O 0.91507 0.20517 0.95299 0.0
H768 H 0.82138 0.09055 0.97313 0.0
H769 H 0.8402 0.08231 0.98363 0.0
H770 H 0.82337 0.06118 0.98575 0.0
H771 H 0.82416 0.07737 0.99875 0.0
H772 H 0.80928 0.09232 0.94615 0.0
H773 H 0.84246 0.07496 0.93751 0.0
H774 H 0.83 0.12884 0.92898 0.0
H775 H 0.80855 0.11182 0.92817 0.0
H776 H 0.82083 0.11811 0.90928 0.0
H777 H 0.86416 0.08716 0.91799 0.0
H778 H 0.87278 0.10909 0.91611 0.0
H779 H 0.85929 0.09511 0.89969 0.0
H780 H 0.93583 0.20421 0.95916 0.0
H781 H 0.9089 0.19747 0.98547 0.0
H782 H 0.91132 0.182 0.97483 0.0
H783 H 0.92744 0.19653 0.98929 0.0
H784 H 0.92087 0.18099 0.94454 0.0
H785 H 0.88914 0.20039 0.93639 0.0
H786 H 0.90454 0.15177 0.91023 0.0
H787 H 0.89555 0.14234 0.92988 0.0
H788 H 0.91747 0.15816 0.92925 0.0
H789 H 0.86446 0.18633 0.91955 0.0
H790 H 0.85502 0.16417 0.91801 0.0
H791 H 0.8673 0.17689 0.90108 0.0
H792 H 0.94078 0.20601 0.79795 0.0
H793 H 0.92782 0.18541 0.81574 0.0
H794 H 0.89159 0.19987 0.81182 0.0
H795 H 0.90821 0.15493 0.84425 0.0
H796 H 0.92148 0.15994 0.82626 0.0
H797 H 0.89969 0.14356 0.82477 0.0
H798 H 0.86381 0.18275 0.82071 0.0
H799 H 0.86322 0.17218 0.83972 0.0
H800 H 0.85595 0.16084 0.82008 0.0
H801 H 0.7889 0.05559 0.81169 0.0
H802 H 0.77503 0.02532 0.80636 0.0
H803 H 0.79408 0.03424 0.81894 0.0
H804 H 0.7941 0.02863 0.79723 0.0
H805 H 0.84131 0.07217 0.80892 0.0
H806 H 0.80282 0.08362 0.80834 0.0
H807 H 0.8669 0.10061 0.84057 0.0
H808 H 0.87459 0.11121 0.82115 0.0
H809 H 0.86767 0.08957 0.82225 0.0
H810 H 0.80664 0.10808 0.82037 0.0
H811 H 0.82809 0.1253 0.82127 0.0
H812 H 0.81885 0.11358 0.8398 0.0
H813 H 0.86312 0.13616 0.93102 0.0
H814 H 0.89465 0.1762 0.88906 0.0
H815 H 0.89499 0.17597 0.85887 0.0
H816 H 0.86466 0.1351 0.81486 0.0
H817 H 0.83246 0.09505 0.8569 0.0
H818 H 0.83197 0.09539 0.88721 0.0
H819 H 0.94761 0.23232 0.8256 0.0
H820 H 0.96299 0.22836 0.81711 0.0
H821 H 0.94579 0.21274 0.82884 0.0
C822 C 0.80466 0.731 0.97648 0.0
C823 C 0.7965 0.71844 0.96172 0.0
C824 C 0.81758 0.71433 0.94828 0.0
C825 C 0.82778 0.73024 0.94182 0.0
C826 C 0.84088 0.73367 0.93094 0.0
C827 C 0.84347 0.7208 0.92608 0.0
C828 C 0.83296 0.70471 0.93234 0.0
C829 C 0.82034 0.70179 0.94358 0.0
C830 C 0.85218 0.75109 0.92494 0.0
C831 C 0.83518 0.6906 0.92738 0.0
C832 C 0.96992 0.73977 0.93947 0.0
C833 C 0.95125 0.7273 0.94174 0.0
C834 C 0.92906 0.73339 0.93844 0.0
C835 C 0.91623 0.71776 0.93242 0.0
C836 C 0.90167 0.71571 0.9247 0.0
C837 C 0.90004 0.7296 0.92287 0.0
C838 C 0.91271 0.74524 0.92945 0.0
C839 C 0.92699 0.74687 0.93734 0.0
C840 C 0.88813 0.69875 0.91832 0.0
C841 C 0.91133 0.76029 0.92783 0.0
C842 C 0.916 0.72357 0.81076 0.0
C843 C 0.90376 0.70966 0.81937 0.0
C844 C 0.89218 0.71063 0.82953 0.0
C845 C 0.89307 0.72591 0.83148 0.0
C846 C 0.90543 0.73995 0.82295 0.0
C847 C 0.91665 0.73855 0.81261 0.0
C848 C 0.87892 0.69527 0.83814 0.0
C849 C 0.90682 0.75645 0.8248 0.0
C850 C 0.7945 0.74449 0.81173 0.0
C851 C 0.80133 0.73753 0.79882 0.0
C852 C 0.81497 0.72566 0.81526 0.0
C853 C 0.81372 0.71081 0.81942 0.0
C854 C 0.82637 0.71067 0.82891 0.0
C855 C 0.8406 0.72583 0.83445 0.0
C856 C 0.84187 0.74094 0.83052 0.0
C857 C 0.82904 0.74072 0.82097 0.0
C858 C 0.82463 0.69435 0.83288 0.0
C859 C 0.8569 0.75731 0.83631 0.0
C860 C 0.85765 0.7242 0.91519 0.0
C861 C 0.87194 0.72594 0.92306 0.0
C862 C 0.88532 0.72792 0.91366 0.0
C863 C 0.88453 0.72819 0.89584 0.0
C864 C 0.89768 0.72993 0.88598 0.0
C865 C 0.89655 0.7296 0.86844 0.0
C866 C 0.88236 0.72783 0.8601 0.0
C867 C 0.88089 0.72704 0.84228 0.0
C868 C 0.86715 0.72639 0.83439 0.0
C869 C 0.85447 0.72595 0.84381 0.0
C870 C 0.85515 0.72561 0.86163 0.0
C871 C 0.84204 0.72399 0.87147 0.0
C872 C 0.84271 0.72331 0.889 0.0
C873 C 0.85675 0.72477 0.89738 0.0
C874 C 0.87021 0.72665 0.88769 0.0
C875 C 0.86926 0.72676 0.8698 0.0
C876 C 0.93991 0.70902 0.8123 0.0
C877 C 0.92972 0.71015 0.79768 0.0
O878 O 0.80537 0.71064 0.95953 0.0
O879 O 0.80229 0.72474 0.80582 0.0
O880 O 0.92737 0.72321 0.80059 0.0
O881 O 0.94353 0.73597 0.94549 0.0
H882 H 0.79684 0.72509 0.95012 0.0
H883 H 0.81842 0.73879 0.97494 0.0
H884 H 0.80228 0.72454 0.98867 0.0
H885 H 0.79982 0.73943 0.97684 0.0
H886 H 0.8259 0.74012 0.94558 0.0
H887 H 0.81244 0.68958 0.9487 0.0
H888 H 0.86549 0.75525 0.92764 0.0
H889 H 0.84944 0.75997 0.93103 0.0
H890 H 0.8506 0.75139 0.91107 0.0
H891 H 0.82456 0.67845 0.93137 0.0
H892 H 0.84688 0.69259 0.93339 0.0
H893 H 0.8364 0.69018 0.91349 0.0
H894 H 0.94628 0.72032 0.92952 0.0
H895 H 0.97649 0.73332 0.93591 0.0
H896 H 0.97574 0.7471 0.95132 0.0
H897 H 0.97161 0.74839 0.92925 0.0
H898 H 0.91751 0.70715 0.93382 0.0
H899 H 0.93687 0.75882 0.94227 0.0
H900 H 0.88736 0.69866 0.90433 0.0
H901 H 0.87579 0.69571 0.9231 0.0
H902 H 0.89053 0.68896 0.92221 0.0
H903 H 0.92257 0.77169 0.93306 0.0
H904 H 0.90015 0.75829 0.93459 0.0
H905 H 0.90958 0.76219 0.91433 0.0
H906 H 0.9174 0.69835 0.79638 0.0
H907 H 0.90306 0.69797 0.81825 0.0
H908 H 0.92612 0.74922 0.80595 0.0
H909 H 0.88145 0.69671 0.85197 0.0
H910 H 0.87859 0.68397 0.8337 0.0
H911 H 0.86637 0.69349 0.83586 0.0
H912 H 0.91812 0.76653 0.81868 0.0
H913 H 0.90728 0.75974 0.83838 0.0
H914 H 0.89556 0.75561 0.81898 0.0
H915 H 0.81393 0.74753 0.79484 0.0
H916 H 0.7938 0.75483 0.80625 0.0
H917 H 0.80286 0.74932 0.82312 0.0
H918 H 0.7818 0.73469 0.81565 0.0
H919 H 0.80279 0.69926 0.81504 0.0
H920 H 0.83011 0.75234 0.81808 0.0
H921 H 0.82545 0.69328 0.84675 0.0
H922 H 0.83509 0.69381 0.82725 0.0
H923 H 0.81258 0.68362 0.82799 0.0
H924 H 0.85589 0.76798 0.8325 0.0
H925 H 0.86842 0.75874 0.83091 0.0
H926 H 0.85831 0.75761 0.85027 0.0
H927 H 0.87256 0.7255 0.93672 0.0
H928 H 0.90892 0.73135 0.89169 0.0
H929 H 0.90697 0.73081 0.8615 0.0
H930 H 0.86623 0.72604 0.8207 0.0
H931 H 0.831 0.72298 0.8657 0.0
H932 H 0.83213 0.72177 0.89591 0.0
H933 H 0.94182 0.69857 0.81003 0.0
H934 H 0.95233 0.7207 0.81369 0.0
H935 H 0.93319 0.70684 0.82431 0.0
C936 C 0.88972 0.62642 0.41651 0.0
C937 C 0.89004 0.64215 0.41146 0.0
C938 C 0.87341 0.64683 0.43202 0.0
C939 C 0.87444 0.65848 0.44367 0.0
C940 C 0.86002 0.65677 0.45074 0.0
C941 C 0.84414 0.64266 0.44647 0.0
C942 C 0.84299 0.63073 0.43474 0.0
C943 C 0.85762 0.63301 0.4275 0.0
C944 C 0.86181 0.67005 0.4628 0.0
C945 C 0.82631 0.61548 0.42998 0.0
C946 C 0.74588 0.64668 0.38044 0.0
C947 C 0.75433 0.64077 0.39171 0.0
C948 C 0.77276 0.64903 0.41659 0.0
C949 C 0.77038 0.63329 0.41903 0.0
C950 C 0.78027 0.63104 0.43081 0.0
C951 C 0.79288 0.64479 0.44031 0.0
C952 C 0.79508 0.66058 0.43819 0.0
C953 C 0.78486 0.66245 0.42644 0.0
C954 C 0.77741 0.61398 0.43293 0.0
C955 C 0.8084 0.67548 0.44814 0.0
C956 C 0.74971 0.62545 0.54646 0.0
C957 C 0.74675 0.61219 0.53577 0.0
C958 C 0.75999 0.61241 0.52748 0.0
C959 C 0.77642 0.6264 0.5294 0.0
C960 C 0.77938 0.63992 0.53979 0.0
C961 C 0.76598 0.6392 0.54827 0.0
C962 C 0.7564 0.59764 0.51671 0.0
C963 C 0.7967 0.65512 0.54199 0.0
C964 C 0.8733 0.59557 0.54917 0.0
C965 C 0.8715 0.61061 0.55099 0.0
C966 C 0.84549 0.6101 0.55036 0.0
C967 C 0.82908 0.59783 0.5458 0.0
C968 C 0.81853 0.6018 0.53714 0.0
C969 C 0.82445 0.61854 0.53352 0.0
C970 C 0.84067 0.63112 0.53928 0.0
C971 C 0.85111 0.62672 0.54741 0.0
C972 C 0.80129 0.58805 0.53135 0.0
C973 C 0.84717 0.64918 0.53646 0.0
C974 C 0.82884 0.64042 0.45441 0.0
C975 C 0.8184 0.6438 0.44484 0.0
C976 C 0.80423 0.64266 0.45179 0.0
C977 C 0.80071 0.63876 0.46899 0.0
C978 C 0.78712 0.63842 0.47665 0.0
C979 C 0.78389 0.63472 0.49365 0.0
C980 C 0.79386 0.63077 0.50352 0.0
C981 C 0.79056 0.62678 0.52076 0.0
C982 C 0.80076 0.62294 0.53018 0.0
C983 C 0.81414 0.6228 0.52284 0.0
C984 C 0.81756 0.62668 0.5056 0.0
C985 C 0.83075 0.6264 0.49772 0.0
C986 C 0.83442 0.63083 0.48096 0.0
C987 C 0.82491 0.63546 0.47133 0.0
C988 C 0.81105 0.63504 0.47876 0.0
C989 C 0.80748 0.63083 0.49598 0.0
C990 C 0.71064 0.61474 0.54158 0.0
C991 C 0.72068 0.6131 0.556 0.0
O992 O 0.88796 0.64932 0.4258 0.0
O993 O 0.85583 0.60561 0.55716 0.0
O994 O 0.73741 0.62559 0.55526 0.0
O995 O 0.76384 0.65173 0.40477 0.0
H996 H 0.87972 0.63872 0.40208 0.0
H997 H 0.87854 0.61839 0.42409 0.0
H998 H 0.90104 0.62961 0.42425 0.0
H999 H 0.88896 0.61912 0.40511 0.0
H1000 H 0.88666 0.66909 0.44708 0.0
H1001 H 0.85662 0.62381 0.41859 0.0
H1002 H 0.85237 0.67337 0.45971 0.0
H1003 H 0.8745 0.68142 0.46252 0.0
H1004 H 0.85961 0.66535 0.47585 0.0
H1005 H 0.82773 0.60635 0.42249 0.0
H1006 H 0.81879 0.61911 0.42234 0.0
H1007 H 0.8192 0.60942 0.44148 0.0
H1008 H 0.7609 0.63542 0.3851 0.0
H1009 H 0.75174 0.6481 0.36778 0.0
H1010 H 0.75219 0.66042 0.38296 0.0
H1011 H 0.71986 0.62969 0.38439 0.0
H1012 H 0.76087 0.62271 0.41173 0.0
H1013 H 0.78655 0.67452 0.42458 0.0
H1014 H 0.78872 0.61397 0.42906 0.0
H1015 H 0.76648 0.60439 0.42531 0.0
H1016 H 0.77535 0.61057 0.44643 0.0
H1017 H 0.80842 0.68688 0.44516 0.0
H1018 H 0.82091 0.67753 0.44538 0.0
H1019 H 0.80641 0.67321 0.46186 0.0
H1020 H 0.71934 0.6008 0.55481 0.0
H1021 H 0.73424 0.60159 0.53377 0.0
H1022 H 0.76817 0.64942 0.55641 0.0
H1023 H 0.75838 0.60114 0.50325 0.0
H1024 H 0.74335 0.58703 0.51798 0.0
H1025 H 0.76516 0.59357 0.52023 0.0
H1026 H 0.79665 0.66519 0.54922 0.0
H1027 H 0.80219 0.65982 0.52947 0.0
H1028 H 0.80494 0.65184 0.5488 0.0
H1029 H 0.87262 0.6154 0.53797 0.0
H1030 H 0.88601 0.59942 0.54475 0.0
H1031 H 0.86393 0.58666 0.53972 0.0
H1032 H 0.87114 0.58912 0.56133 0.0
H1033 H 0.82483 0.58504 0.54835 0.0
H1034 H 0.86368 0.63624 0.55141 0.0
H1035 H 0.79962 0.58879 0.51755 0.0
H1036 H 0.79168 0.58947 0.53777 0.0
H1037 H 0.79904 0.57561 0.53412 0.0
H1038 H 0.85837 0.65739 0.54457 0.0
H1039 H 0.83732 0.652 0.53904 0.0
H1040 H 0.85072 0.65207 0.52308 0.0
H1041 H 0.82126 0.64723 0.43175 0.0
H1042 H 0.77897 0.64122 0.46963 0.0
H1043 H 0.77342 0.63489 0.49892 0.0
H1044 H 0.7982 0.61995 0.54339 0.0
H1045 H 0.83849 0.62289 0.50443 0.0
H1046 H 0.84481 0.63053 0.47563 0.0
H1047 H 0.69719 0.60488 0.54228 0.0
H1048 H 0.71188 0.62702 0.54218 0.0
H1049 H 0.71531 0.61341 0.52924 0.0
C1050 C 0.38021 0.27961 0.40844 0.0
C1051 C 0.36826 0.2652 0.39644 0.0
C1052 C 0.35848 0.24008 0.41305 0.0
C1053 C 0.34453 0.22688 0.42053 0.0
C1054 C 0.34563 0.21452 0.42887 0.0
C1055 C 0.36121 0.21555 0.42997 0.0
C1056 C 0.37537 0.22875 0.42229 0.0
C1057 C 0.37386 0.24082 0.41382 0.0
C1058 C 0.3302 0.20049 0.43673 0.0
C1059 C 0.39218 0.23024 0.42326 0.0
C1060 C 0.38013 0.13364 0.37835 0.0
C1061 C 0.37597 0.12559 0.39569 0.0
C1062 C 0.36349 0.139 0.41117 0.0
C1063 C 0.37846 0.15441 0.41385 0.0
C1064 C 0.37862 0.16721 0.42303 0.0
C1065 C 0.36352 0.16468 0.42955 0.0
C1066 C 0.3484 0.14933 0.42667 0.0
C1067 C 0.34862 0.13668 0.41755 0.0
C1068 C 0.39496 0.18346 0.42586 0.0
C1069 C 0.33207 0.14625 0.43337 0.0
C1070 C 0.37399 0.14591 0.53982 0.0
C1071 C 0.38865 0.15934 0.53327 0.0
C1072 C 0.38798 0.17147 0.52393 0.0
C1073 C 0.37238 0.17005 0.52095 0.0
C1074 C 0.35764 0.15657 0.52753 0.0
C1075 C 0.35868 0.14471 0.53692 0.0
C1076 C 0.40394 0.18579 0.51718 0.0
C1077 C 0.3408 0.15467 0.52455 0.0
C1078 C 0.35647 0.27016 0.53915 0.0
C1079 C 0.35965 0.26182 0.5539 0.0
C1080 C 0.37142 0.2466 0.54059 0.0
C1081 C 0.3863 0.24713 0.53749 0.0
C1082 C 0.38637 0.23474 0.52776 0.0
C1083 C 0.37106 0.22129 0.52121 0.0
C1084 C 0.35588 0.22051 0.52447 0.0
C1085 C 0.35622 0.23329 0.5339 0.0
C1086 C 0.40281 0.23605 0.52447 0.0
C1087 C 0.33925 0.20615 0.51802 0.0
C1088 C 0.36286 0.20324 0.4398 0.0
C1089 C 0.36213 0.18998 0.43109 0.0
C1090 C 0.36366 0.17803 0.43966 0.0
C1091 C 0.36571 0.17912 0.45745 0.0
C1092 C 0.36706 0.1672 0.46649 0.0
C1093 C 0.36892 0.16831 0.484 0.0
C1094 C 0.36965 0.18146 0.49314 0.0
C1095 C 0.37143 0.18264 0.51094 0.0
C1096 C 0.37197 0.19578 0.51964 0.0
C1097 C 0.3709 0.20797 0.51105 0.0
C1098 C 0.36932 0.20712 0.49322 0.0
C1099 C 0.36855 0.21934 0.48414 0.0
C1100 C 0.36651 0.21814 0.46666 0.0
C1101 C 0.36525 0.20472 0.45755 0.0
C1102 C 0.36648 0.19251 0.46641 0.0
C1103 C 0.36851 0.19371 0.48426 0.0
C1104 C 0.3912 0.12443 0.53797 0.0
C1105 C 0.38727 0.13203 0.55299 0.0
O1106 O 0.35653 0.25179 0.4055 0.0
O1107 O 0.37242 0.25914 0.55006 0.0
O1108 O 0.3739 0.13381 0.54891 0.0
O1109 O 0.36275 0.12612 0.40256 0.0
H1110 H 0.37592 0.2617 0.38897 0.0
H1111 H 0.38827 0.27645 0.41579 0.0
H1112 H 0.37317 0.28245 0.41759 0.0
H1113 H 0.38852 0.29086 0.40115 0.0
H1114 H 0.3327 0.22633 0.41986 0.0
H1115 H 0.38484 0.25085 0.4081 0.0
H1116 H 0.32845 0.18844 0.43269 0.0
H1117 H 0.31871 0.20053 0.43329 0.0
H1118 H 0.33182 0.20151 0.45068 0.0
H1119 H 0.40221 0.2417 0.4174 0.0
H1120 H 0.39131 0.21941 0.41671 0.0
H1121 H 0.39581 0.23016 0.43665 0.0
H1122 H 0.38725 0.13237 0.40415 0.0
H1123 H 0.38412 0.14687 0.37956 0.0
H1124 H 0.36902 0.12734 0.36965 0.0
H1125 H 0.39054 0.13297 0.37274 0.0
H1126 H 0.39011 0.15663 0.40888 0.0
H1127 H 0.33711 0.12483 0.4154 0.0
H1128 H 0.39406 0.19358 0.42014 0.0
H1129 H 0.40572 0.18338 0.42033 0.0
H1130 H 0.39748 0.18628 0.43961 0.0
H1131 H 0.32127 0.13389 0.42944 0.0
H1132 H 0.32975 0.15591 0.42884 0.0
H1133 H 0.33283 0.14712 0.44737 0.0
H1134 H 0.39849 0.14429 0.55648 0.0
H1135 H 0.40062 0.16047 0.53531 0.0
H1136 H 0.34746 0.13432 0.54201 0.0
H1137 H 0.40314 0.18553 0.50318 0.0
H1138 H 0.41518 0.18548 0.52112 0.0
H1139 H 0.40554 0.19766 0.52167 0.0
H1140 H 0.33044 0.1432 0.53009 0.0
H1141 H 0.33826 0.15442 0.51078 0.0
H1142 H 0.3409 0.16548 0.53018 0.0
H1143 H 0.34798 0.24986 0.55649 0.0
H1144 H 0.34623 0.27231 0.54212 0.0
H1145 H 0.35269 0.26214 0.52761 0.0
H1146 H 0.368 0.28221 0.53647 0.0
H1147 H 0.39796 0.25743 0.54266 0.0
H1148 H 0.34456 0.23266 0.53598 0.0
H1149 H 0.40404 0.23461 0.51073 0.0
H1150 H 0.40312 0.2259 0.53093 0.0
H1151 H 0.41373 0.24805 0.52906 0.0
H1152 H 0.32848 0.20628 0.52347 0.0
H1153 H 0.33815 0.19424 0.52106 0.0
H1154 H 0.33844 0.20669 0.50408 0.0
H1155 H 0.36048 0.18902 0.41746 0.0
H1156 H 0.36659 0.15682 0.46015 0.0
H1157 H 0.36977 0.15871 0.49028 0.0
H1158 H 0.37311 0.19647 0.53332 0.0
H1159 H 0.36943 0.22994 0.49046 0.0
H1160 H 0.36591 0.22788 0.46038 0.0
H1161 H 0.40187 0.12294 0.54123 0.0
H1162 H 0.39469 0.13258 0.52691 0.0
H1163 H 0.3801 0.11214 0.53436 0.0
C1164 C 0.89231 0.28404 0.43834 0.0
C1165 C 0.88963 0.26789 0.43075 0.0
C1166 C 0.86026 0.2452 0.43059 0.0
C1167 C 0.8445 0.24335 0.42943 0.0
C1168 C 0.83048 0.22982 0.43664 0.0
C1169 C 0.83226 0.21765 0.44483 0.0
C1170 C 0.84802 0.21902 0.44528 0.0
C1171 C 0.86189 0.23283 0.4382 0.0
C1172 C 0.81385 0.2287 0.43582 0.0
C1173 C 0.85023 0.20596 0.45338 0.0
C1174 C 0.71922 0.10837 0.42472 0.0
C1175 C 0.73062 0.11163 0.40969 0.0
C1176 C 0.75798 0.13222 0.4228 0.0
C1177 C 0.77242 0.13403 0.43031 0.0
C1178 C 0.78401 0.14858 0.4392 0.0
C1179 C 0.78107 0.1617 0.44051 0.0
C1180 C 0.76683 0.16025 0.43238 0.0
C1181 C 0.75542 0.14553 0.42356 0.0
C1182 C 0.79916 0.14977 0.44757 0.0
C1183 C 0.76349 0.17412 0.4334 0.0
C1184 C 0.73771 0.13999 0.5434 0.0
C1185 C 0.75209 0.13891 0.54401 0.0
C1186 C 0.76721 0.15143 0.53723 0.0
C1187 C 0.768 0.16536 0.52996 0.0
C1188 C 0.75375 0.16679 0.53004 0.0
C1189 C 0.73881 0.15407 0.53677 0.0
C1190 C 0.78227 0.14968 0.53755 0.0
C1191 C 0.75421 0.18162 0.52273 0.0
C1192 C 0.86618 0.28148 0.57223 0.0
C1193 C 0.86325 0.2646 0.57715 0.0
C1194 C 0.85006 0.2436 0.55446 0.0
C1195 C 0.852 0.2314 0.54692 0.0
C1196 C 0.83877 0.21809 0.53782 0.0
C1197 C 0.82347 0.2175 0.53544 0.0
C1198 C 0.82141 0.22983 0.5431 0.0
C1199 C 0.83468 0.24266 0.55275 0.0
C1200 C 0.84132 0.20483 0.53055 0.0
C1201 C 0.80537 0.22972 0.54074 0.0
C1202 C 0.81778 0.20383 0.45346 0.0
C1203 C 0.80623 0.1899 0.44381 0.0
C1204 C 0.7924 0.17648 0.45124 0.0
C1205 C 0.78989 0.17692 0.46875 0.0
C1206 C 0.77595 0.16376 0.47657 0.0
C1207 C 0.77372 0.16421 0.49384 0.0
C1208 C 0.78547 0.17771 0.50403 0.0
C1209 C 0.78345 0.17818 0.52165 0.0
C1210 C 0.7959 0.19132 0.53155 0.0
C1211 C 0.81007 0.20446 0.52421 0.0
C1212 C 0.81171 0.20473 0.50647 0.0
C1213 C 0.82516 0.21827 0.49853 0.0
C1214 C 0.82705 0.21812 0.48116 0.0
C1215 C 0.81562 0.20437 0.47105 0.0
C1216 C 0.80168 0.19082 0.47872 0.0
C1217 C 0.7996 0.1911 0.49642 0.0
C1218 C 0.69966 0.10066 0.54449 0.0
C1219 C 0.71716 0.11163 0.55248 0.0
O1220 O 0.87349 0.25885 0.42388 0.0
O1221 O 0.86351 0.25639 0.56271 0.0
O1222 O 0.7226 0.12799 0.54913 0.0
O1223 O 0.74689 0.11739 0.41524 0.0
H1224 H 0.89133 0.26132 0.44137 0.0
H1225 H 0.8823 0.28119 0.44745 0.0
H1226 H 0.89178 0.29185 0.42831 0.0
H1227 H 0.9045 0.29101 0.44536 0.0
H1228 H 0.84332 0.25281 0.42325 0.0
H1229 H 0.8739 0.23379 0.43848 0.0
H1230 H 0.8045 0.21721 0.42883 0.0
H1231 H 0.81466 0.23946 0.42948 0.0
H1232 H 0.80918 0.22798 0.44877 0.0
H1233 H 0.86281 0.20794 0.45117 0.0
H1234 H 0.84054 0.1935 0.44837 0.0
H1235 H 0.84854 0.20613 0.4672 0.0
H1236 H 0.73048 0.1209 0.40135 0.0
H1237 H 0.7061 0.10326 0.42021 0.0
H1238 H 0.72326 0.11998 0.43195 0.0
H1239 H 0.71955 0.09942 0.43339 0.0
H1240 H 0.77437 0.12377 0.42951 0.0
H1241 H 0.74449 0.14447 0.4175 0.0
H1242 H 0.79854 0.15088 0.46147 0.0
H1243 H 0.81073 0.16106 0.44341 0.0
H1244 H 0.80007 0.13881 0.44465 0.0
H1245 H 0.75218 0.17135 0.42589 0.0
H1246 H 0.77445 0.1857 0.42879 0.0
H1247 H 0.76174 0.17639 0.44677 0.0
H1248 H 0.72531 0.10784 0.5465 0.0
H1249 H 0.75166 0.12843 0.54978 0.0
H1250 H 0.72774 0.15493 0.53662 0.0
H1251 H 0.78638 0.14979 0.52446 0.0
H1252 H 0.77965 0.13808 0.54359 0.0
H1253 H 0.79281 0.16038 0.54453 0.0
H1254 H 0.74244 0.18142 0.52484 0.0
H1255 H 0.75624 0.18192 0.50894 0.0
H1256 H 0.76486 0.19319 0.52846 0.0
H1257 H 0.85084 0.25749 0.58322 0.0
H1258 H 0.86466 0.28779 0.58332 0.0
H1259 H 0.85687 0.27986 0.56239 0.0
H1260 H 0.87889 0.28942 0.56706 0.0
H1261 H 0.86392 0.23224 0.54838 0.0
H1262 H 0.83318 0.25219 0.55845 0.0
H1263 H 0.84385 0.20692 0.51688 0.0
H1264 H 0.82993 0.19237 0.53194 0.0
H1265 H 0.85211 0.205 0.53674 0.0
H1266 H 0.80639 0.24111 0.54602 0.0
H1267 H 0.79507 0.21887 0.54713 0.0
H1268 H 0.80188 0.22852 0.52711 0.0
H1269 H 0.80809 0.18944 0.43039 0.0
H1270 H 0.76657 0.15296 0.46942 0.0
H1271 H 0.76276 0.15371 0.49914 0.0
H1272 H 0.79453 0.19133 0.54512 0.0
H1273 H 0.83441 0.22916 0.50565 0.0
H1274 H 0.83769 0.22888 0.4758 0.0
H1275 H 0.69073 0.10364 0.55004 0.0
H1276 H 0.695 0.08737 0.54646 0.0
H1277 H 0.70011 0.1027 0.53068 0.0
C1278 C 0.98839 0.44352 0.31302 0.0
C1279 C 0.99497 0.43856 0.29791 0.0
C1280 C 0.00553 0.46264 0.27949 0.0
C1281 C 0.98973 0.45949 0.27414 0.0
C1282 C 0.98831 0.47034 0.26338 0.0
C1283 C 0.00295 0.48468 0.25784 0.0
C1284 C 0.01887 0.48788 0.26309 0.0
C1285 C 0.01993 0.47677 0.27382 0.0
C1286 C 0.97112 0.46651 0.25795 0.0
C1287 C 0.03471 0.50303 0.25736 0.0
C1288 C 0.96606 0.56873 0.27225 0.0
C1289 C 0.97809 0.56852 0.28544 0.0
C1290 C 0.99259 0.55716 0.27 0.0
C1291 C 0.00792 0.56091 0.26349 0.0
C1292 C 0.00971 0.54874 0.25533 0.0
C1293 C 0.99571 0.53241 0.25352 0.0
C1294 C 0.98013 0.52848 0.26007 0.0
C1295 C 0.97873 0.54085 0.26829 0.0
C1296 C 0.02652 0.55335 0.24854 0.0
C1297 C 0.96493 0.51119 0.2583 0.0
C1298 C 0.97374 0.53841 0.14596 0.0
C1299 C 0.99082 0.54426 0.14852 0.0
C1300 C 0.99593 0.53466 0.15695 0.0
C1301 C 0.98369 0.51893 0.16288 0.0
C1302 C 0.96651 0.51267 0.1595 0.0
C1303 C 0.96177 0.52246 0.1509 0.0
C1304 C 0.01437 0.54148 0.1599 0.0
C1305 C 0.95314 0.49583 0.16542 0.0
C1306 C 0.00613 0.41743 0.15996 0.0
C1307 C 0.99538 0.42194 0.14935 0.0
C1308 C 0.00161 0.45039 0.15235 0.0
C1309 C 0.01529 0.46645 0.15517 0.0
C1310 C 0.01323 0.47884 0.16227 0.0
C1311 C 0.99702 0.47504 0.16656 0.0
C1312 C 0.983 0.45904 0.16295 0.0
C1313 C 0.98541 0.4469 0.15571 0.0
C1314 C 0.02841 0.4959 0.16555 0.0
C1315 C 0.96551 0.4547 0.16698 0.0
C1316 C 0.00147 0.49633 0.24666 0.0
C1317 C 0.00029 0.50903 0.25424 0.0
C1318 C 0.99728 0.51947 0.24458 0.0
C1319 C 0.99527 0.51716 0.22684 0.0
C1320 C 0.99151 0.52696 0.21681 0.0
C1321 C 0.98931 0.52443 0.1994 0.0
C1322 C 0.99101 0.51216 0.19129 0.0
C1323 C 0.98875 0.50948 0.1736 0.0
C1324 C 0.99085 0.49739 0.1659 0.0
C1325 C 0.99484 0.4876 0.17548 0.0
C1326 C 0.99666 0.48977 0.19325 0.0
C1327 C 1.00009 0.47975 0.20334 0.0
C1328 C 0.00167 0.48186 0.22082 0.0
C1329 C 1.00009 0.49422 0.22889 0.0
C1330 C 0.99685 0.50459 0.21897 0.0
C1331 C 0.9949 0.50221 0.20115 0.0
C1332 C 0.96319 0.56556 0.15532 0.0
C1333 C 0.97462 0.5643 0.14263 0.0
O1334 O 0.0075 0.45255 0.29011 0.0
O1335 O 0.00456 0.43875 0.14622 0.0
O1336 O 0.96844 0.54778 0.13869 0.0
O1337 O 0.99177 0.56964 0.27764 0.0
H1338 H 0.98445 0.43107 0.28874 0.0
H1339 H 0.98278 0.4507 0.30883 0.0
H1340 H 0.99871 0.45129 0.32226 0.0
H1341 H 0.97855 0.43231 0.3194 0.0
H1342 H 0.97838 0.44868 0.27831 0.0
H1343 H 0.03208 0.47914 0.27794 0.0
H1344 H 0.96945 0.47674 0.26211 0.0
H1345 H 0.96093 0.45477 0.26322 0.0
H1346 H 0.96988 0.46559 0.24396 0.0
H1347 H 0.04615 0.50373 0.26247 0.0
H1348 H 0.03488 0.51433 0.26146 0.0
H1349 H 0.03502 0.50297 0.24336 0.0
H1350 H 0.97124 0.55677 0.29243 0.0
H1351 H 0.95541 0.5684 0.27859 0.0
H1352 H 0.96088 0.55778 0.26361 0.0
H1353 H 0.9726 0.58001 0.26452 0.0
H1354 H 0.01856 0.57348 0.26482 0.0
H1355 H 0.96671 0.5376 0.27317 0.0
H1356 H 0.02551 0.55162 0.2346 0.0
H1357 H 0.03043 0.54505 0.25374 0.0
H1358 H 0.03639 0.56638 0.25171 0.0
H1359 H 0.95346 0.51032 0.26317 0.0
H1360 H 0.96722 0.50252 0.26536 0.0
H1361 H 0.96267 0.5071 0.24483 0.0
H1362 H 0.98723 0.57023 0.14886 0.0
H1363 H 1.00016 0.55629 0.14394 0.0
H1364 H 0.94863 0.51794 0.14854 0.0
H1365 H 0.0174 0.54372 0.17363 0.0
H1366 H 0.02233 0.55328 0.15327 0.0
H1367 H 0.01753 0.53232 0.15555 0.0
H1368 H 0.94033 0.49272 0.1617 0.0
H1369 H 0.95396 0.49542 0.17939 0.0
H1370 H 0.95522 0.48624 0.16005 0.0
H1371 H 0.9843 0.41854 0.15712 0.0
H1372 H 0.99932 0.40385 0.16184 0.0
H1373 H 0.0089 0.4237 0.17255 0.0
H1374 H 0.01823 0.42145 0.15389 0.0
H1375 H 0.02769 0.46913 0.15217 0.0
H1376 H 0.97461 0.4348 0.15264 0.0
H1377 H 0.03035 0.49849 0.17936 0.0
H1378 H 0.02635 0.50536 0.1599 0.0
H1379 H 0.03996 0.49723 0.16032 0.0
H1380 H 0.95593 0.44159 0.16375 0.0
H1381 H 0.96244 0.46281 0.15987 0.0
H1382 H 0.9648 0.45695 0.18064 0.0
H1383 H 0.00136 0.51058 0.26788 0.0
H1384 H 0.9901 0.53662 0.22231 0.0
H1385 H 0.98631 0.53229 0.19238 0.0
H1386 H 0.98924 0.49551 0.15231 0.0
H1387 H 0.00145 0.47005 0.19785 0.0
H1388 H 0.00421 0.47372 0.22793 0.0
H1389 H 0.95008 0.55929 0.15033 0.0
H1390 H 0.96772 0.57875 0.15825 0.0
H1391 H 0.96326 0.55956 0.16724 0.0
C1392 C 0.45155 0.3752 0.29207 0.0
C1393 C 0.45191 0.39043 0.28528 0.0
C1394 C 0.46981 0.40835 0.26309 0.0
C1395 C 0.46813 0.42204 0.26543 0.0
C1396 C 0.47927 0.4372 0.25794 0.0
C1397 C 0.49281 0.43887 0.24855 0.0
C1398 C 0.49483 0.42514 0.24677 0.0
C1399 C 0.48294 0.40992 0.25358 0.0
C1400 C 0.47642 0.45134 0.26004 0.0
C1401 C 0.50952 0.42641 0.23777 0.0
C1402 C 0.58396 0.54007 0.31117 0.0
C1403 C 0.5817 0.54716 0.29474 0.0
C1404 C 0.55651 0.52498 0.27952 0.0
C1405 C 0.56303 0.51526 0.27453 0.0
C1406 C 0.55378 0.5015 0.26356 0.0
C1407 C 0.53782 0.49752 0.2574 0.0
C1408 C 0.53121 0.5072 0.26257 0.0
C1409 C 0.54061 0.52072 0.27367 0.0
C1410 C 0.56106 0.49127 0.25844 0.0
C1411 C 0.51426 0.50336 0.25624 0.0
C1412 C 0.576 0.53421 0.15182 0.0
C1413 C 0.57763 0.52073 0.15585 0.0
C1414 C 0.56451 0.50665 0.16338 0.0
C1415 C 0.54945 0.50599 0.16692 0.0
C1416 C 0.54778 0.51952 0.16296 0.0
C1417 C 0.56114 0.5335 0.15554 0.0
C1418 C 0.56671 0.49243 0.16754 0.0
C1419 C 0.53186 0.51918 0.16654 0.0
C1420 C 0.48919 0.42399 0.09553 0.0
C1421 C 0.4735 0.41175 0.10521 0.0
C1422 C 0.47904 0.42916 0.1308 0.0
C1423 C 0.49244 0.42822 0.13754 0.0
C1424 C 0.50256 0.43893 0.15082 0.0
C1425 C 0.49906 0.45062 0.15757 0.0
C1426 C 0.48505 0.45096 0.15138 0.0
C1427 C 0.47517 0.44015 0.13811 0.0
C1428 C 0.51726 0.43808 0.15735 0.0
C1429 C 0.48084 0.46314 0.15841 0.0
C1430 C 0.50498 0.45495 0.24085 0.0
C1431 C 0.51597 0.46817 0.25163 0.0
C1432 C 0.52806 0.48346 0.24527 0.0
C1433 C 0.52994 0.48548 0.22764 0.0
C1434 C 0.54258 0.50042 0.22083 0.0
C1435 C 0.5445 0.50221 0.20347 0.0
C1436 C 0.53356 0.4893 0.19224 0.0
C1437 C 0.53541 0.491 0.17458 0.0
C1438 C 0.52403 0.47813 0.16375 0.0
C1439 C 0.51082 0.46341 0.17005 0.0
C1440 C 0.50898 0.46128 0.18768 0.0
C1441 C 0.49597 0.44658 0.19447 0.0
C1442 C 0.49448 0.44454 0.21187 0.0
C1443 C 0.50599 0.4571 0.22314 0.0
C1444 C 0.51881 0.47227 0.21654 0.0
C1445 C 0.52044 0.47429 0.19881 0.0
C1446 C 0.61674 0.55679 0.15174 0.0
C1447 C 0.60309 0.55065 0.13785 0.0
O1448 O 0.45867 0.39332 0.26934 0.0
O1449 O 0.46967 0.41998 0.11716 0.0
O1450 O 0.58834 0.54811 0.14448 0.0
O1451 O 0.56484 0.53835 0.29013 0.0
H1452 H 0.46019 0.40107 0.29397 0.0
H1453 H 0.46422 0.37702 0.29134 0.0
H1454 H 0.44262 0.36397 0.28447 0.0
H1455 H 0.4479 0.37319 0.30549 0.0
H1456 H 0.45786 0.42078 0.2727 0.0
H1457 H 0.4841 0.39924 0.25188 0.0
H1458 H 0.4854 0.46024 0.26972 0.0
H1459 H 0.46354 0.44703 0.26423 0.0
H1460 H 0.47855 0.45802 0.24803 0.0
H1461 H 0.51179 0.41654 0.24164 0.0
H1462 H 0.52114 0.43861 0.24028 0.0
H1463 H 0.50687 0.42498 0.22396 0.0
H1464 H 0.58924 0.54609 0.28469 0.0
H1465 H 0.59742 0.54526 0.31422 0.0
H1466 H 0.57791 0.52644 0.30984 0.0
H1467 H 0.57813 0.54277 0.32182 0.0
H1468 H 0.57519 0.51822 0.27925 0.0
H1469 H 0.53565 0.52822 0.2777 0.0
H1470 H 0.55216 0.47807 0.26133 0.0
H1471 H 0.57325 0.49546 0.26496 0.0
H1472 H 0.56293 0.49201 0.2446 0.0
H1473 H 0.51111 0.51239 0.2611 0.0
H1474 H 0.50446 0.49079 0.26019 0.0
H1475 H 0.51394 0.50339 0.24223 0.0
H1476 H 0.60097 0.53888 0.13229 0.0
H1477 H 0.58908 0.52107 0.15328 0.0
H1478 H 0.55999 0.54395 0.15246 0.0
H1479 H 0.56473 0.48979 0.18121 0.0
H1480 H 0.57934 0.49499 0.16438 0.0
H1481 H 0.55716 0.48112 0.16046 0.0
H1482 H 0.53248 0.53067 0.16258 0.0
H1483 H 0.52939 0.5176 0.18026 0.0
H1484 H 0.52112 0.50843 0.15982 0.0
H1485 H 0.47561 0.4026 0.11159 0.0
H1486 H 0.49161 0.41737 0.08542 0.0
H1487 H 0.50042 0.43018 0.10403 0.0
H1488 H 0.48754 0.43365 0.08972 0.0
H1489 H 0.49523 0.41939 0.13234 0.0
H1490 H 0.46465 0.44059 0.13299 0.0
H1491 H 0.51663 0.43671 0.17126 0.0
H1492 H 0.52909 0.44982 0.15463 0.0
H1493 H 0.51771 0.42764 0.15153 0.0
H1494 H 0.46901 0.46123 0.15285 0.0
H1495 H 0.49117 0.47594 0.15582 0.0
H1496 H 0.47966 0.46199 0.17232 0.0
H1497 H 0.51496 0.46661 0.26519 0.0
H1498 H 0.55131 0.51082 0.22886 0.0
H1499 H 0.5546 0.51391 0.19896 0.0
H1500 H 0.52547 0.4796 0.1502 0.0
H1501 H 0.48686 0.43645 0.18639 0.0
H1502 H 0.48419 0.43297 0.21637 0.0
H1503 H 0.61894 0.56837 0.15786 0.0
H1504 H 0.62864 0.55917 0.14633 0.0
H1505 H 0.61299 0.54735 0.1616 0.0
C1506 C 0.45169 0.00838 0.30196 0.0
C1507 C 0.44011 0.00685 0.28722 0.0
C1508 C 0.45492 0.0029 0.26386 0.0
C1509 C 0.46903 0.01909 0.26395 0.0
C1510 C 0.48312 0.02288 0.25448 0.0
C1511 C 0.48298 0.01031 0.24461 0.0
C1512 C 0.46848 0.99422 0.24389 0.0
C1513 C 0.45463 0.99076 0.25351 0.0
C1514 C 0.4983 0.04022 0.25529 0.0
C1515 C 0.46779 0.98057 0.23329 0.0
C1516 C 0.55164 0.98626 0.30403 0.0
C1517 C 0.55666 0.98224 0.28721 0.0
C1518 C 0.55361 0.99965 0.26689 0.0
C1519 C 0.54015 0.98765 0.25681 0.0
C1520 C 0.53047 0.99187 0.24692 0.0
C1521 C 0.5344 0.00843 0.24708 0.0
C1522 C 0.54826 0.02064 0.25685 0.0
C1523 C 0.55783 0.0161 0.26649 0.0
C1524 C 0.51601 0.97862 0.23633 0.0
C1525 C 0.55284 0.03842 0.25719 0.0
C1526 C 0.57856 0.03745 0.14281 0.0
C1527 C 0.56379 0.02187 0.14437 0.0
C1528 C 0.55002 0.02026 0.15287 0.0
C1529 C 0.5511 0.03445 0.16018 0.0
C1530 C 0.566 0.0501 0.15882 0.0
C1531 C 0.57954 0.05138 0.15012 0.0
C1532 C 0.53429 0.00338 0.15403 0.0
C1533 C 0.56759 0.06545 0.16657 0.0
C1534 C 0.45167 0.0518 0.14084 0.0
C1535 C 0.46069 0.05085 0.12531 0.0
C1536 C 0.47548 0.0377 0.13678 0.0
C1537 C 0.47486 0.02272 0.13746 0.0
C1538 C 0.48631 0.02109 0.1475 0.0
C1539 C 0.4988 0.03489 0.15702 0.0
C1540 C 0.49968 0.0502 0.15625 0.0
C1541 C 0.48797 0.05146 0.14616 0.0
C1542 C 0.48501 0.00458 0.14798 0.0
C1543 C 0.51295 0.06517 0.16616 0.0
C1544 C 0.49831 0.01365 0.23588 0.0
C1545 C 0.50947 0.01075 0.24475 0.0
C1546 C 0.5238 0.01286 0.2372 0.0
C1547 C 0.52732 0.01825 0.22039 0.0
C1548 C 0.54168 0.02058 0.21245 0.0
C1549 C 0.54488 0.02558 0.19579 0.0
C1550 C 0.53375 0.02829 0.18637 0.0
C1551 C 0.53663 0.03287 0.16927 0.0
C1552 C 0.52525 0.03533 0.16022 0.0
C1553 C 0.5109 0.03322 0.16776 0.0
C1554 C 0.50782 0.0287 0.18487 0.0
C1555 C 0.49348 0.02641 0.19284 0.0
C1556 C 0.4904 0.02164 0.20959 0.0
C1557 C 0.5015 0.01888 0.21898 0.0
C1558 C 0.51609 0.0212 0.21123 0.0
C1559 C 0.51928 0.02617 0.19418 0.0
C1560 C 0.60631 0.03397 0.1127 0.0
C1561 C 0.59267 0.02739 0.12512 0.0
O1562 O 0.44144 0.9983 0.27363 0.0
O1563 O 0.46373 0.03813 0.12695 0.0
O1564 O 0.59198 0.03957 0.13423 0.0
O1565 O 0.56295 0.99584 0.27685 0.0
H1566 H 0.44344 0.01939 0.28321 0.0
H1567 H 0.46503 0.01591 0.29848 0.0
H1568 H 0.44893 0.99596 0.30568 0.0
H1569 H 0.44996 0.01457 0.31303 0.0
H1570 H 0.46924 0.02874 0.27151 0.0
H1571 H 0.44361 0.97838 0.25335 0.0
H1572 H 0.50912 0.04001 0.26083 0.0
H1573 H 0.49621 0.04879 0.26298 0.0
H1574 H 0.50168 0.04509 0.24234 0.0
H1575 H 0.45525 0.96899 0.23333 0.0
H1576 H 0.47722 0.97787 0.2382 0.0
H1577 H 0.47098 0.9846 0.22007 0.0
H1578 H 0.54532 0.97138 0.28134 0.0
H1579 H 0.5467 0.97553 0.31252 0.0
H1580 H 0.54167 0.98904 0.30183 0.0
H1581 H 0.56256 0.9972 0.31037 0.0
H1582 H 0.53729 0.97504 0.2564 0.0
H1583 H 0.56842 0.02531 0.27411 0.0
H1584 H 0.51733 0.98245 0.22298 0.0
H1585 H 0.50411 0.97699 0.24085 0.0
H1586 H 0.51515 0.96652 0.23686 0.0
H1587 H 0.56387 0.0464 0.26561 0.0
H1588 H 0.54205 0.03913 0.26157 0.0
H1589 H 0.55566 0.04337 0.24424 0.0
H1590 H 0.59137 0.01721 0.1331 0.0
H1591 H 0.56289 0.01092 0.13893 0.0
H1592 H 0.59097 0.06334 0.14889 0.0
H1593 H 0.53188 0.99983 0.16746 0.0
H1594 H 0.53513 0.99369 0.14696 0.0
H1595 H 0.52338 0.00372 0.14898 0.0
H1596 H 0.58022 0.07662 0.16492 0.0
H1597 H 0.56502 0.06368 0.18027 0.0
H1598 H 0.55811 0.0676 0.16068 0.0
H1599 H 0.47272 0.06281 0.12387 0.0
H1600 H 0.44912 0.06192 0.13953 0.0
H1601 H 0.45952 0.05441 0.15243 0.0
H1602 H 0.43961 0.03991 0.1424 0.0
H1603 H 0.46522 0.0122 0.13015 0.0
H1604 H 0.48869 0.06319 0.14572 0.0
H1605 H 0.48373 0.00042 0.16122 0.0
H1606 H 0.49666 0.00587 0.14311 0.0
H1607 H 0.47418 0.99488 0.14033 0.0
H1608 H 0.5123 0.07633 0.16385 0.0
H1609 H 0.52556 0.06786 0.16275 0.0
H1610 H 0.51149 0.06257 0.17986 0.0
H1611 H 0.50678 0.00648 0.25762 0.0
H1612 H 0.5506 0.01853 0.21903 0.0
H1613 H 0.55613 0.02718 0.19035 0.0
H1614 H 0.52741 0.03859 0.14703 0.0
H1615 H 0.48444 0.02824 0.18619 0.0
H1616 H 0.47916 0.02004 0.21507 0.0
H1617 H 0.6148 0.02965 0.11719 0.0
H1618 H 0.6154 0.04734 0.11641 0.0
H1619 H 0.59335 0.02659 0.08879 0.0
C1620 C 0.54312 0.9405 0.73124 0.0
C1621 C 0.54667 0.95729 0.73783 0.0
C1622 C 0.5328 0.96236 0.76092 0.0
C1623 C 0.53773 0.97877 0.75765 0.0
C1624 C 0.52991 0.98615 0.76561 0.0
C1625 C 0.51646 0.9767 0.77656 0.0
C1626 C 0.51116 0.95995 0.77942 0.0
C1627 C 0.5198 0.95321 0.77198 0.0
C1628 C 0.5361 0.00406 0.7623 0.0
C1629 C 0.49632 0.949 0.79019 0.0
C1630 C 0.4187 0.00119 0.73116 0.0
C1631 C 0.4264 0.99284 0.73959 0.0
C1632 C 0.45399 0.99868 0.74858 0.0
C1633 C 0.44796 0.9844 0.75824 0.0
C1634 C 0.45886 0.98219 0.76856 0.0
C1635 C 0.47607 0.99467 0.76953 0.0
C1636 C 0.48222 0.00896 0.75966 0.0
C1637 C 0.47108 0.01069 0.74918 0.0
C1638 C 0.45194 0.96657 0.77857 0.0
C1639 C 0.50049 0.02249 0.7604 0.0
C1640 C 0.45564 0.01732 0.87143 0.0
C1641 C 0.44978 0.00057 0.8681 0.0
C1642 C 0.46063 0.99567 0.86231 0.0
C1643 C 0.47769 0.00779 0.85982 0.0
C1644 C 0.4838 0.02456 0.86404 0.0
C1645 C 0.47269 0.02908 0.86996 0.0
C1646 C 0.45379 0.9776 0.85847 0.0
C1647 C 0.50195 0.03775 0.86178 0.0
C1648 C 0.56262 0.96725 0.87446 0.0
C1649 C 0.56415 0.98023 0.88722 0.0
C1650 C 0.53882 0.98124 0.88462 0.0
C1651 C 0.52186 0.96967 0.88144 0.0
C1652 C 0.51176 0.97401 0.87249 0.0
C1653 C 0.51882 0.99042 0.8669 0.0
C1654 C 0.5357 0.00245 0.87112 0.0
C1655 C 0.54554 0.99774 0.87999 0.0
C1656 C 0.49373 0.96093 0.86842 0.0
C1657 C 0.54345 0.02015 0.86576 0.0
C1658 C 0.5076 0.98413 0.78458 0.0
C1659 C 0.49701 0.98678 0.77433 0.0
C1660 C 0.48756 0.99285 0.78108 0.0
C1661 C 0.48843 0.99622 0.79862 0.0
C1662 C 0.479 0.00223 0.80583 0.0
C1663 C 0.47926 0.00467 0.8232 0.0
C1664 C 0.48904 0.00128 0.83404 0.0
C1665 C 0.48883 0.00303 0.85179 0.0
C1666 C 0.4988 0.99964 0.86219 0.0
C1667 C 0.50904 0.99454 0.8553 0.0
C1668 C 0.50942 0.99274 0.83759 0.0
C1669 C 0.51967 0.98774 0.83024 0.0
C1670 C 0.51948 0.98539 0.81286 0.0
C1671 C 0.50878 0.98761 0.80215 0.0
C1672 C 0.49889 0.99334 0.80922 0.0
C1673 C 0.4992 0.9959 0.82695 0.0
C1674 C 0.42685 0.02903 0.86201 0.0
C1675 C 0.42875 0.0157 0.87056 0.0
O1676 O 0.5406 0.9551 0.75405 0.0
O1677 O 0.54833 0.9761 0.89218 0.0
O1678 O 0.44525 0.02256 0.87605 0.0
O1679 O 0.44371 0.0014 0.73875 0.0
H1680 H 0.53973 0.96108 0.72939 0.0
H1681 H 0.52959 0.93103 0.73239 0.0
H1682 H 0.55047 0.93651 0.73867 0.0
H1683 H 0.54623 0.94102 0.71771 0.0
H1684 H 0.54793 0.98594 0.7492 0.0
H1685 H 0.51612 0.94054 0.77442 0.0
H1686 H 0.52703 0.00474 0.75373 0.0
H1687 H 0.54852 0.01047 0.75627 0.0
H1688 H 0.53705 0.01078 0.77424 0.0
H1689 H 0.49119 0.93567 0.78739 0.0
H1690 H 0.48615 0.95154 0.78825 0.0
H1691 H 0.50028 0.95141 0.8037 0.0
H1692 H 0.42022 0.97934 0.73663 0.0
H1693 H 0.41071 0.99245 0.72055 0.0
H1694 H 0.42841 0.01058 0.72252 0.0
H1695 H 0.40849 0.00789 0.75143 0.0
H1696 H 0.43478 0.9749 0.75778 0.0
H1697 H 0.47561 0.02164 0.74165 0.0
H1698 H 0.4524 0.96961 0.79221 0.0
H1699 H 0.4597 0.96102 0.77684 0.0
H1700 H 0.43877 0.95722 0.77485 0.0
H1701 H 0.5031 0.03328 0.75274 0.0
H1702 H 0.50814 0.01757 0.75568 0.0
H1703 H 0.50455 0.02675 0.77369 0.0
H1704 H 0.42533 0.00604 0.86056 0.0
H1705 H 0.43674 0.99128 0.86996 0.0
H1706 H 0.47717 0.04194 0.87288 0.0
H1707 H 0.45406 0.97571 0.84465 0.0
H1708 H 0.44071 0.96956 0.86266 0.0
H1709 H 0.46177 0.97368 0.86472 0.0
H1710 H 0.50479 0.05023 0.86576 0.0
H1711 H 0.50519 0.03807 0.84831 0.0
H1712 H 0.51007 0.03474 0.86926 0.0
H1713 H 0.5706 0.99227 0.88071 0.0
H1714 H 0.57524 0.97009 0.87085 0.0
H1715 H 0.55585 0.96735 0.86288 0.0
H1716 H 0.55553 0.95464 0.87972 0.0
H1717 H 0.51672 0.95705 0.88541 0.0
H1718 H 0.55845 0.00696 0.88324 0.0
H1719 H 0.49186 0.9589 0.85453 0.0
H1720 H 0.4854 0.96518 0.8728 0.0
H1721 H 0.48991 0.94894 0.87437 0.0
H1722 H 0.55629 0.02831 0.8712 0.0
H1723 H 0.53551 0.02501 0.8697 0.0
H1724 H 0.54409 0.02065 0.85178 0.0
H1725 H 0.49587 0.98379 0.76092 0.0
H1726 H 0.47113 0.00493 0.79815 0.0
H1727 H 0.47157 0.00912 0.82802 0.0
H1728 H 0.49843 0.00079 0.87579 0.0
H1729 H 0.52792 0.98548 0.83785 0.0
H1730 H 0.52765 0.98156 0.80795 0.0
H1731 H 0.41353 0.02404 0.85838 0.0
H1732 H 0.43435 0.03304 0.85039 0.0
H1733 H 0.43141 0.04007 0.87042 0.0
C1734 C 0.01676 0.59203 0.74454 0.0
C1735 C 0.00289 0.57745 0.73395 0.0
C1736 C 0.9907 0.55382 0.75304 0.0
C1737 C 0.97636 0.54273 0.76178 0.0
C1738 C 0.97564 0.52986 0.77105 0.0
C1739 C 0.98974 0.52819 0.77174 0.0
C1740 C 0.00435 0.53939 0.76303 0.0
C1741 C 0.00467 0.55203 0.75373 0.0
C1742 C 0.95985 0.51807 0.78015 0.0
C1743 C 0.01966 0.53802 0.76359 0.0
C1744 C 0.95734 0.42999 0.70828 0.0
C1745 C 0.97149 0.43378 0.72094 0.0
C1746 C 0.971 0.44508 0.74858 0.0
C1747 C 0.98785 0.45799 0.75009 0.0
C1748 C 0.99275 0.47152 0.76112 0.0
C1749 C 0.98056 0.47209 0.77088 0.0
C1750 C 0.96373 0.45867 0.77003 0.0
C1751 C 0.95921 0.44523 0.75899 0.0
C1752 C 0.01088 0.4854 0.76206 0.0
C1753 C 0.95045 0.45878 0.78043 0.0
C1754 C 0.01119 0.45992 0.87763 0.0
C1755 C 0.02401 0.47181 0.86756 0.0
C1756 C 0.02186 0.48326 0.85861 0.0
C1757 C 0.00653 0.4827 0.85954 0.0
C1758 C 0.99357 0.47068 0.86953 0.0
C1759 C 0.99611 0.45949 0.87849 0.0
C1760 C 0.03603 0.49604 0.84821 0.0
C1761 C 0.97705 0.4697 0.87074 0.0
C1762 C 0.00576 0.59153 0.87676 0.0
C1763 C 0.00759 0.58341 0.89256 0.0
C1764 C 0.01486 0.56398 0.88054 0.0
C1765 C 0.02832 0.56237 0.8762 0.0
C1766 C 0.02586 0.54872 0.86661 0.0
C1767 C 0.00941 0.53612 0.86162 0.0
C1768 C 0.99564 0.53738 0.86642 0.0
C1769 C 0.99852 0.55141 0.87557 0.0
C1770 C 0.04086 0.54787 0.86168 0.0
C1771 C 0.97785 0.52392 0.86187 0.0
C1772 C 0.98931 0.51472 0.78153 0.0
C1773 C 0.98496 0.50003 0.77291 0.0
C1774 C 0.98519 0.48718 0.78108 0.0
C1775 C 0.9899 0.48896 0.79837 0.0
C1776 C 0.99062 0.47645 0.80691 0.0
C1777 C 0.99536 0.47838 0.82393 0.0
C1778 C 0.99943 0.49285 0.83308 0.0
C1779 C 0.00428 0.49496 0.85036 0.0
C1780 C 0.00749 0.50917 0.85925 0.0
C1781 C 0.00654 0.52169 0.85123 0.0
C1782 C 0.00255 0.52018 0.83376 0.0
C1783 C 0.0024 0.53293 0.82507 0.0
C1784 C 0.99814 0.53121 0.80796 0.0
C1785 C 0.99379 0.51664 0.79889 0.0
C1786 C 0.99408 0.5037 0.80733 0.0
C1787 C 0.99867 0.50557 0.82474 0.0
C1788 C 0.02585 0.43653 0.8719 0.0
C1789 C 0.0262 0.44648 0.88742 0.0
O1790 O 0.99051 0.566 0.74428 0.0
O1791 O 0.01829 0.57777 0.8895 0.0
O1792 O 0.01271 0.44866 0.88669 0.0
O1793 O 0.96573 0.43237 0.73722 0.0
H1794 H 0.00869 0.57157 0.72697 0.0
H1795 H 0.02353 0.58786 0.75263 0.0
H1796 H 0.01148 0.59751 0.75293 0.0
H1797 H 0.02601 0.60174 0.73616 0.0
H1798 H 0.96564 0.54415 0.76124 0.0
H1799 H 0.01595 0.56043 0.74715 0.0
H1800 H 0.95525 0.50515 0.77595 0.0
H1801 H 0.94976 0.52068 0.7779 0.0
H1802 H 0.9626 0.51897 0.79393 0.0
H1803 H 0.03035 0.54821 0.75686 0.0
H1804 H 0.01656 0.52605 0.75771 0.0
H1805 H 0.02361 0.53817 0.7769 0.0
H1806 H 0.98161 0.44673 0.71838 0.0
H1807 H 0.96124 0.4297 0.69517 0.0
H1808 H 0.95433 0.43982 0.70926 0.0
H1809 H 0.94576 0.418 0.7109 0.0
H1810 H 0.99719 0.45755 0.74264 0.0
H1811 H 0.94629 0.43504 0.75797 0.0
H1812 H 0.01208 0.49676 0.75686 0.0
H1813 H 0.01907 0.48242 0.75487 0.0
H1814 H 0.01539 0.48817 0.77543 0.0
H1815 H 0.93798 0.44727 0.77856 0.0
H1816 H 0.94942 0.46952 0.777 0.0
H1817 H 0.9541 0.46024 0.79403 0.0
H1818 H 0.03813 0.45872 0.8879 0.0
H1819 H 0.03574 0.47231 0.8666 0.0
H1820 H 0.98627 0.45029 0.88624 0.0
H1821 H 0.03203 0.4942 0.8347 0.0
H1822 H 0.04747 0.49539 0.84944 0.0
H1823 H 0.0392 0.50864 0.85214 0.0
H1824 H 0.96785 0.45899 0.8782 0.0
H1825 H 0.97164 0.46867 0.8579 0.0
H1826 H 0.97909 0.48123 0.8768 0.0
H1827 H 0.99508 0.57294 0.89609 0.0
H1828 H 0.99719 0.59607 0.8791 0.0
H1829 H 0.00042 0.58242 0.86607 0.0
H1830 H 0.01816 0.6021 0.87309 0.0
H1831 H 0.04087 0.57206 0.88013 0.0
H1832 H 0.98788 0.55231 0.87877 0.0
H1833 H 0.04036 0.54532 0.84791 0.0
H1834 H 0.04065 0.53754 0.86833 0.0
H1835 H 0.05287 0.55951 0.86493 0.0
H1836 H 0.96855 0.52534 0.86899 0.0
H1837 H 0.97584 0.51154 0.86441 0.0
H1838 H 0.97544 0.52435 0.84819 0.0
H1839 H 0.98153 0.49866 0.75959 0.0
H1840 H 0.98758 0.46504 0.8005 0.0
H1841 H 0.9957 0.46835 0.82985 0.0
H1842 H 0.01082 0.51052 0.87259 0.0
H1843 H 0.00561 0.54442 0.8314 0.0
H1844 H 0.99822 0.54143 0.80196 0.0
H1845 H 0.03662 0.43471 0.87248 0.0
H1846 H 0.02676 0.4432 0.86017 0.0
H1847 H 0.01401 0.42423 0.87123 0.0
C1848 C 0.53716 0.61742 0.72872 0.0
C1849 C 0.54474 0.61115 0.74167 0.0
C1850 C 0.5242 0.58291 0.75045 0.0
C1851 C 0.51321 0.5863 0.75884 0.0
C1852 C 0.49999 0.57406 0.76822 0.0
C1853 C 0.49798 0.55827 0.76957 0.0
C1854 C 0.5093 0.555 0.76146 0.0
C1855 C 0.5221 0.5673 0.75179 0.0
C1856 C 0.48786 0.57785 0.77626 0.0
C1857 C 0.50768 0.53838 0.76265 0.0
C1858 C 0.40595 0.47728 0.69375 0.0
C1859 C 0.41143 0.47305 0.71022 0.0
C1860 C 0.41879 0.48867 0.73695 0.0
C1861 C 0.4309 0.48526 0.74261 0.0
C1862 C 0.44247 0.49493 0.75553 0.0
C1863 C 0.44187 0.50822 0.76294 0.0
C1864 C 0.42911 0.51109 0.75789 0.0
C1865 C 0.41761 0.50114 0.74504 0.0
C1866 C 0.45564 0.49126 0.76096 0.0
C1867 C 0.42799 0.52504 0.76567 0.0
C1868 C 0.40551 0.47531 0.86763 0.0
C1869 C 0.41939 0.47357 0.86581 0.0
C1870 C 0.4343 0.4863 0.85892 0.0
C1871 C 0.43543 0.50114 0.85408 0.0
C1872 C 0.42175 0.5032 0.85662 0.0
C1873 C 0.40699 0.49024 0.86339 0.0
C1874 C 0.44881 0.48387 0.85668 0.0
C1875 C 0.42266 0.519 0.85196 0.0
C1876 C 0.5455 0.6127 0.8817 0.0
C1877 C 0.53673 0.6017 0.89678 0.0
C1878 C 0.51834 0.57449 0.88262 0.0
C1879 C 0.51681 0.55938 0.87868 0.0
C1880 C 0.50392 0.54767 0.86787 0.0
C1881 C 0.49213 0.55113 0.86097 0.0
C1882 C 0.49336 0.56625 0.86517 0.0
C1883 C 0.50649 0.57783 0.87589 0.0
C1884 C 0.50298 0.53167 0.86368 0.0
C1885 C 0.48082 0.57021 0.85824 0.0
C1886 C 0.48323 0.54472 0.77814 0.0
C1887 C 0.46978 0.53314 0.76791 0.0
C1888 C 0.45542 0.51996 0.77484 0.0
C1889 C 0.45424 0.51829 0.79254 0.0
C1890 C 0.43992 0.50523 0.79992 0.0
C1891 C 0.43878 0.50384 0.81738 0.0
C1892 C 0.45191 0.51546 0.82812 0.0
C1893 C 0.45072 0.51433 0.84588 0.0
C1894 C 0.46401 0.52607 0.85619 0.0
C1895 C 0.47861 0.53899 0.84924 0.0
C1896 C 0.48006 0.54031 0.8315 0.0
C1897 C 0.49463 0.55303 0.82406 0.0
C1898 C 0.49578 0.55442 0.80659 0.0
C1899 C 0.48239 0.54319 0.79589 0.0
C1900 C 0.46774 0.53002 0.80311 0.0
C1901 C 0.46658 0.52858 0.82092 0.0
C1902 C 0.36842 0.43785 0.86213 0.0
C1903 C 0.38395 0.4463 0.87379 0.0
O1904 O 0.53655 0.59406 0.74047 0.0
O1905 O 0.53144 0.58537 0.89285 0.0
O1906 O 0.39065 0.46326 0.87378 0.0
O1907 O 0.40823 0.4804 0.72364 0.0
H1908 H 0.54322 0.61518 0.75442 0.0
H1909 H 0.5241 0.61328 0.73203 0.0
H1910 H 0.53682 0.61243 0.71588 0.0
H1911 H 0.54448 0.63117 0.72864 0.0
H1912 H 0.51454 0.59826 0.75767 0.0
H1913 H 0.5306 0.56479 0.74523 0.0
H1914 H 0.47482 0.56839 0.77224 0.0
H1915 H 0.49037 0.59027 0.77294 0.0
H1916 H 0.48875 0.57736 0.7902 0.0
H1917 H 0.51904 0.53874 0.7582 0.0
H1918 H 0.4968 0.52916 0.75474 0.0
H1919 H 0.5054 0.53408 0.77587 0.0
H1920 H 0.42515 0.47831 0.70924 0.0
H1921 H 0.40826 0.47137 0.68281 0.0
H1922 H 0.41327 0.49089 0.69211 0.0
H1923 H 0.39243 0.47303 0.69383 0.0
H1924 H 0.43145 0.47517 0.73688 0.0
H1925 H 0.40803 0.50347 0.74078 0.0
H1926 H 0.45581 0.4903 0.77491 0.0
H1927 H 0.46816 0.50159 0.75734 0.0
H1928 H 0.4535 0.4796 0.7551 0.0
H1929 H 0.41701 0.52531 0.76074 0.0
H1930 H 0.43955 0.53705 0.76304 0.0
H1931 H 0.42712 0.52378 0.77959 0.0
H1932 H 0.39282 0.44299 0.86877 0.0
H1933 H 0.41886 0.46249 0.86989 0.0
H1934 H 0.39635 0.49162 0.86517 0.0
H1935 H 0.45234 0.48537 0.84321 0.0
H1936 H 0.44586 0.47148 0.86074 0.0
H1937 H 0.45985 0.49349 0.86414 0.0
H1938 H 0.41137 0.51909 0.85579 0.0
H1939 H 0.42392 0.52056 0.83809 0.0
H1940 H 0.43391 0.52978 0.85804 0.0
H1941 H 0.52579 0.60261 0.9002 0.0
H1942 H 0.54988 0.6258 0.88488 0.0
H1943 H 0.53676 0.60882 0.87064 0.0
H1944 H 0.55643 0.61186 0.8781 0.0
H1945 H 0.52595 0.55688 0.88397 0.0
H1946 H 0.50737 0.58939 0.87888 0.0
H1947 H 0.50301 0.53008 0.84978 0.0
H1948 H 0.49105 0.52111 0.86829 0.0
H1949 H 0.51357 0.53119 0.86945 0.0
H1950 H 0.48277 0.58195 0.86365 0.0
H1951 H 0.4679 0.56 0.86094 0.0
H1952 H 0.48187 0.57128 0.84432 0.0
H1953 H 0.47051 0.53439 0.7543 0.0
H1954 H 0.42941 0.49597 0.79227 0.0
H1955 H 0.42742 0.49355 0.82234 0.0
H1956 H 0.46294 0.5252 0.86981 0.0
H1957 H 0.5053 0.5621 0.83167 0.0
H1958 H 0.50727 0.56447 0.80156 0.0
H1959 H 0.3628 0.42422 0.86186 0.0
H1960 H 0.37196 0.44239 0.84908 0.0
H1961 H 0.35891 0.44061 0.86643 0.0
C1962 C 0.64451 0.77276 0.64423 0.0
C1963 C 0.64739 0.76632 0.62759 0.0
C1964 C 0.65358 0.78869 0.6079 0.0
C1965 C 0.63712 0.78537 0.6064 0.0
C1966 C 0.63346 0.79523 0.5964 0.0
C1967 C 0.64647 0.80871 0.58776 0.0
C1968 C 0.66304 0.81218 0.58934 0.0
C1969 C 0.66635 0.80207 0.59935 0.0
C1970 C 0.61562 0.79117 0.59495 0.0
C1971 C 0.67721 0.82647 0.5803 0.0
C1972 C 0.61586 0.89841 0.605 0.0
C1973 C 0.62838 0.8969 0.61631 0.0
C1974 C 0.63923 0.88305 0.59893 0.0
C1975 C 0.65343 0.8852 0.59104 0.0
C1976 C 0.6533 0.87189 0.58296 0.0
C1977 C 0.63851 0.85601 0.58275 0.0
C1978 C 0.62402 0.85371 0.59059 0.0
C1979 C 0.62449 0.86724 0.59854 0.0
C1980 C 0.66894 0.87479 0.57462 0.0
C1981 C 0.60802 0.83694 0.5905 0.0
C1982 C 0.6006 0.85046 0.47749 0.0
C1983 C 0.61797 0.85727 0.479 0.0
C1984 C 0.62441 0.8488 0.48744 0.0
C1985 C 0.61326 0.83334 0.49469 0.0
C1986 C 0.59575 0.82618 0.49258 0.0
C1987 C 0.58967 0.83477 0.48378 0.0
C1988 C 0.64313 0.85652 0.48891 0.0
C1989 C 0.58347 0.80964 0.49995 0.0
C1990 C 0.61427 0.72468 0.48849 0.0
C1991 C 0.61964 0.73585 0.47307 0.0
C1992 C 0.62975 0.76401 0.48413 0.0
C1993 C 0.64388 0.77993 0.48604 0.0
C1994 C 0.64278 0.79296 0.493 0.0
C1995 C 0.62713 0.78987 0.49847 0.0
C1996 C 0.6127 0.77383 0.49641 0.0
C1997 C 0.61412 0.76108 0.48917 0.0
C1998 C 0.65839 0.80996 0.49476 0.0
C1999 C 0.59582 0.77011 0.50214 0.0
C2000 C 0.64257 0.81882 0.57666 0.0
C2001 C 0.64256 0.83231 0.58386 0.0
C2002 C 0.63818 0.84181 0.57427 0.0
C2003 C 0.63353 0.83769 0.55702 0.0
C2004 C 0.62846 0.84657 0.54715 0.0
C2005 C 0.62378 0.84233 0.53023 0.0
C2006 C 0.62435 0.82928 0.5224 0.0
C2007 C 0.6198 0.82498 0.50514 0.0
C2008 C 0.62089 0.81217 0.4977 0.0
C2009 C 0.62604 0.8032 0.50713 0.0
C2010 C 0.6301 0.80696 0.52452 0.0
C2011 C 0.63467 0.79775 0.53452 0.0
C2012 C 0.63868 0.80155 0.5516 0.0
C2013 C 0.63845 0.81482 0.55932 0.0
C2014 C 0.63385 0.82426 0.54949 0.0
C2015 C 0.62947 0.82019 0.53211 0.0
C2016 C 0.58789 0.87975 0.47454 0.0
C2017 C 0.60122 0.8757 0.4704 0.0
O2018 O 0.65776 0.77946 0.6174 0.0
O2019 O 0.63191 0.75194 0.47766 0.0
O2020 O 0.59397 0.85868 0.47018 0.0
O2021 O 0.64035 0.89653 0.6066 0.0
H2022 H 0.63515 0.75807 0.62094 0.0
H2023 H 0.63834 0.77981 0.64182 0.0
H2024 H 0.65662 0.78105 0.65104 0.0
H2025 H 0.63627 0.76225 0.65244 0.0
H2026 H 0.62703 0.77513 0.61292 0.0
H2027 H 0.67901 0.80459 0.60056 0.0
H2028 H 0.61499 0.80194 0.59941 0.0
H2029 H 0.60688 0.78022 0.60239 0.0
H2030 H 0.61135 0.7887 0.58151 0.0
H2031 H 0.68952 0.82795 0.58336 0.0
H2032 H 0.6778 0.83813 0.58376 0.0
H2033 H 0.67485 0.82451 0.56645 0.0
H2034 H 0.62126 0.88523 0.62341 0.0
H2035 H 0.60685 0.89964 0.61285 0.0
H2036 H 0.60864 0.88719 0.59679 0.0
H2037 H 0.62239 0.90927 0.59672 0.0
H2038 H 0.66472 0.8974 0.59128 0.0
H2039 H 0.61323 0.86526 0.6043 0.0
H2040 H 0.66625 0.87137 0.56099 0.0
H2041 H 0.67293 0.86674 0.58031 0.0
H2042 H 0.67944 0.88788 0.5759 0.0
H2043 H 0.5978 0.83713 0.59718 0.0
H2044 H 0.61035 0.82785 0.59662 0.0
H2045 H 0.60378 0.83255 0.57728 0.0
H2046 H 0.61088 0.88152 0.48077 0.0
H2047 H 0.6265 0.86918 0.47361 0.0
H2048 H 0.5763 0.82952 0.4823 0.0
H2049 H 0.64732 0.86032 0.50225 0.0
H2050 H 0.65002 0.86757 0.48092 0.0
H2051 H 0.6465 0.84735 0.4852 0.0
H2052 H 0.57027 0.80623 0.49805 0.0
H2053 H 0.58609 0.80982 0.51369 0.0
H2054 H 0.58496 0.79991 0.49393 0.0
H2055 H 0.60843 0.73552 0.46775 0.0
H2056 H 0.60516 0.71163 0.48456 0.0
H2057 H 0.60812 0.72851 0.49774 0.0
H2058 H 0.62522 0.72541 0.49494 0.0
H2059 H 0.65588 0.78212 0.48209 0.0
H2060 H 0.603 0.74887 0.48779 0.0
H2061 H 0.66177 0.81314 0.50835 0.0
H2062 H 0.65606 0.81935 0.48944 0.0
H2063 H 0.6692 0.81073 0.48832 0.0
H2064 H 0.58597 0.7568 0.50055 0.0
H2065 H 0.59198 0.77747 0.49475 0.0
H2066 H 0.59664 0.77378 0.51564 0.0
H2067 H 0.64585 0.83537 0.59714 0.0
H2068 H 0.62793 0.85684 0.55243 0.0
H2069 H 0.61983 0.84952 0.52334 0.0
H2070 H 0.61756 0.80906 0.48443 0.0
H2071 H 0.63512 0.78743 0.5293 0.0
H2072 H 0.64205 0.79399 0.55865 0.0
H2073 H 0.59341 0.89336 0.47461 0.0
H2074 H 0.58291 0.87514 0.48726 0.0
H2075 H 0.57729 0.8738 0.46521 0.0
C2076 C 0.13846 0.7296 0.652 0.0
C2077 C 0.13136 0.73554 0.63823 0.0
C2078 C 0.14293 0.7446 0.61046 0.0
C2079 C 0.137 0.75511 0.60707 0.0
C2080 C 0.14513 0.76796 0.59557 0.0
C2081 C 0.15962 0.77047 0.58751 0.0
C2082 C 0.16519 0.75941 0.59039 0.0
C2083 C 0.15651 0.74638 0.60161 0.0
C2084 C 0.13859 0.77924 0.59253 0.0
C2085 C 0.18076 0.76184 0.5823 0.0
C2086 C 0.245 0.86603 0.64561 0.0
C2087 C 0.25026 0.87495 0.62878 0.0
C2088 C 0.22563 0.85782 0.61006 0.0
C2089 C 0.22883 0.84515 0.60686 0.0
C2090 C 0.21777 0.83128 0.59677 0.0
C2091 C 0.20297 0.82979 0.59007 0.0
C2092 C 0.19946 0.84227 0.59364 0.0
C2093 C 0.21098 0.85624 0.60338 0.0
C2094 C 0.22195 0.81821 0.59322 0.0
C2095 C 0.18355 0.84086 0.58715 0.0
C2096 C 0.22701 0.86339 0.48554 0.0
C2097 C 0.23255 0.85298 0.49106 0.0
C2098 C 0.22127 0.83737 0.49757 0.0
C2099 C 0.20417 0.83212 0.49885 0.0
C2100 C 0.19845 0.84227 0.49276 0.0
C2101 C 0.20995 0.85774 0.48608 0.0
C2102 C 0.22776 0.82671 0.50363 0.0
C2103 C 0.18027 0.83701 0.49383 0.0
C2104 C 0.12129 0.70217 0.45662 0.0
C2105 C 0.1232 0.719 0.45999 0.0
C2106 C 0.14698 0.74362 0.47399 0.0
C2107 C 0.16363 0.75031 0.47918 0.0
C2108 C 0.17178 0.7642 0.49006 0.0
C2109 C 0.16314 0.77186 0.49555 0.0
C2110 C 0.1463 0.76528 0.49018 0.0
C2111 C 0.13832 0.7511 0.47956 0.0
C2112 C 0.18973 0.7708 0.49552 0.0
C2113 C 0.13686 0.77339 0.49546 0.0
C2114 C 0.17006 0.78575 0.57785 0.0
C2115 C 0.18057 0.80031 0.58719 0.0
C2116 C 0.19129 0.81518 0.57927 0.0
C2117 C 0.19143 0.81572 0.56145 0.0
C2118 C 0.20206 0.83049 0.55308 0.0
C2119 C 0.2022 0.83091 0.53557 0.0
C2120 C 0.19204 0.81648 0.52571 0.0
C2121 C 0.19261 0.81672 0.50789 0.0
C2122 C 0.18263 0.80211 0.49846 0.0
C2123 C 0.17204 0.78711 0.50636 0.0
C2124 C 0.1711 0.78668 0.52419 0.0
C2125 C 0.16049 0.77188 0.53259 0.0
C2126 C 0.15986 0.77158 0.55016 0.0
C2127 C 0.17011 0.78599 0.56 0.0
C2128 C 0.18084 0.80106 0.55179 0.0
C2129 C 0.18124 0.80142 0.53388 0.0
C2130 C 0.26154 0.89421 0.49834 0.0
C2131 C 0.25495 0.88779 0.48026 0.0
O2132 O 0.13615 0.73302 0.62258 0.0
O2133 O 0.14008 0.7304 0.4631 0.0
O2134 O 0.23757 0.87898 0.47995 0.0
O2135 O 0.23619 0.8717 0.61943 0.0
H2136 H 0.13704 0.74905 0.64084 0.0
H2137 H 0.15236 0.73703 0.65187 0.0
H2138 H 0.13429 0.71638 0.64992 0.0
H2139 H 0.13442 0.73117 0.66463 0.0
H2140 H 0.12616 0.75343 0.61357 0.0
H2141 H 0.16086 0.73806 0.60422 0.0
H2142 H 0.14709 0.79139 0.5989 0.0
H2143 H 0.1258 0.77408 0.59747 0.0
H2144 H 0.13834 0.78142 0.57881 0.0
H2145 H 0.18392 0.75269 0.5866 0.0
H2146 H 0.19156 0.77448 0.58529 0.0
H2147 H 0.17894 0.76063 0.56838 0.0
H2148 H 0.25747 0.87071 0.62163 0.0
H2149 H 0.25619 0.86852 0.65315 0.0
H2150 H 0.23692 0.85246 0.64336 0.0
H2151 H 0.23788 0.87023 0.653 0.0
H2152 H 0.23992 0.84591 0.61206 0.0
H2153 H 0.20852 0.86598 0.60599 0.0
H2154 H 0.21276 0.80658 0.59945 0.0
H2155 H 0.23472 0.82199 0.59788 0.0
H2156 H 0.22103 0.81551 0.57944 0.0
H2157 H 0.18175 0.8506 0.59267 0.0
H2158 H 0.17255 0.82853 0.59008 0.0
H2159 H 0.18396 0.842 0.57322 0.0
H2160 H 0.25958 0.87967 0.47627 0.0
H2161 H 0.24564 0.85697 0.49064 0.0
H2162 H 0.20574 0.86574 0.48167 0.0
H2163 H 0.22751 0.82632 0.51762 0.0
H2164 H 0.24081 0.83146 0.49968 0.0
H2165 H 0.2196 0.81382 0.4987 0.0
H2166 H 0.17778 0.84625 0.48839 0.0
H2167 H 0.17651 0.83515 0.50723 0.0
H2168 H 0.17231 0.82499 0.48699 0.0
H2169 H 0.1159 0.71776 0.47143 0.0
H2170 H 0.10791 0.69207 0.45593 0.0
H2171 H 0.12737 0.69937 0.46709 0.0
H2172 H 0.12735 0.70228 0.44464 0.0
H2173 H 0.17024 0.74452 0.47469 0.0
H2174 H 0.12551 0.74621 0.4753 0.0
H2175 H 0.19121 0.77273 0.50944 0.0
H2176 H 0.19798 0.78297 0.48968 0.0
H2177 H 0.19401 0.76235 0.49174 0.0
H2178 H 0.12411 0.76725 0.48955 0.0
H2179 H 0.14393 0.78661 0.49194 0.0
H2180 H 0.13569 0.77298 0.50939 0.0
H2181 H 0.18065 0.79998 0.60088 0.0
H2182 H 0.21037 0.84194 0.55996 0.0
H2183 H 0.21056 0.84271 0.52988 0.0
H2184 H 0.18342 0.80234 0.48481 0.0
H2185 H 0.15253 0.76036 0.52567 0.0
H2186 H 0.1514 0.75987 0.55595 0.0
H2187 H 0.27541 0.90062 0.49899 0.0
H2188 H 0.25653 0.88376 0.50717 0.0
H2189 H 0.25754 0.90275 0.50267 0.0
C2190 C 0.14298 0.38406 0.64313 0.0
C2191 C 0.13247 0.38084 0.62693 0.0
C2192 C 0.14615 0.37182 0.60688 0.0
C2193 C 0.16063 0.3875 0.60466 0.0
C2194 C 0.17374 0.3893 0.59473 0.0
C2195 C 0.17239 0.37518 0.58692 0.0
C2196 C 0.15784 0.35942 0.58907 0.0
C2197 C 0.14487 0.35799 0.59895 0.0
C2198 C 0.18907 0.4063 0.59261 0.0
C2199 C 0.15603 0.34409 0.58098 0.0
C2200 C 0.28671 0.39311 0.62135 0.0
C2201 C 0.26979 0.37935 0.62788 0.0
C2202 C 0.24868 0.37253 0.60531 0.0
C2203 C 0.23692 0.35977 0.59462 0.0
C2204 C 0.22525 0.36149 0.58504 0.0
C2205 C 0.22568 0.3766 0.58585 0.0
C2206 C 0.23779 0.38974 0.59637 0.0
C2207 C 0.24907 0.38754 0.60609 0.0
C2208 C 0.2123 0.34703 0.57428 0.0
C2209 C 0.23873 0.40608 0.59742 0.0
C2210 C 0.2564 0.39409 0.47533 0.0
C2211 C 0.24359 0.37792 0.47919 0.0
C2212 C 0.23011 0.37516 0.48912 0.0
C2213 C 0.22935 0.38881 0.49519 0.0
C2214 C 0.24208 0.40506 0.49111 0.0
C2215 C 0.25537 0.40745 0.48113 0.0
C2216 C 0.21652 0.35766 0.49295 0.0
C2217 C 0.24159 0.41988 0.49724 0.0
C2218 C 0.11171 0.36011 0.44312 0.0
C2219 C 0.1243 0.37126 0.45613 0.0
C2220 C 0.14198 0.36778 0.47687 0.0
C2221 C 0.14394 0.3558 0.48465 0.0
C2222 C 0.15861 0.36011 0.4938 0.0
C2223 C 0.17149 0.37698 0.49559 0.0
C2224 C 0.16953 0.38926 0.48789 0.0
C2225 C 0.15478 0.38453 0.47851 0.0
C2226 C 0.16032 0.34657 0.50146 0.0
C2227 C 0.18298 0.40734 0.48967 0.0
C2228 C 0.18633 0.37692 0.57668 0.0
C2229 C 0.19933 0.37651 0.58502 0.0
C2230 C 0.21301 0.37837 0.57625 0.0
C2231 C 0.21399 0.38106 0.55867 0.0
C2232 C 0.22795 0.38381 0.54955 0.0
C2233 C 0.22848 0.38581 0.53214 0.0
C2234 C 0.21497 0.38489 0.52316 0.0
C2235 C 0.21499 0.38611 0.50537 0.0
C2236 C 0.20095 0.38423 0.49679 0.0
C2237 C 0.18693 0.38155 0.50553 0.0
C2238 C 0.18709 0.38131 0.52337 0.0
C2239 C 0.1736 0.37958 0.53259 0.0
C2240 C 0.17348 0.37851 0.55008 0.0
C2241 C 0.18669 0.37879 0.55899 0.0
C2242 C 0.20059 0.38088 0.54997 0.0
C2243 C 0.20095 0.38251 0.53216 0.0
C2244 C 0.29297 0.39628 0.47513 0.0
C2245 C 0.27723 0.38841 0.46376 0.0
O2246 O 0.13322 0.36939 0.61657 0.0
O2247 O 0.1276 0.3625 0.46781 0.0
O2248 O 0.2695 0.3974 0.46546 0.0
O2249 O 0.25931 0.36979 0.61453 0.0
H2250 H 0.13725 0.39263 0.62014 0.0
H2251 H 0.15633 0.38927 0.64015 0.0
H2252 H 0.13841 0.37237 0.65002 0.0
H2253 H 0.14225 0.39311 0.65151 0.0
H2254 H 0.16189 0.39839 0.61062 0.0
H2255 H 0.13367 0.34596 0.60069 0.0
H2256 H 0.20024 0.40664 0.59799 0.0
H2257 H 0.18794 0.41615 0.59892 0.0
H2258 H 0.19124 0.40904 0.57898 0.0
H2259 H 0.14415 0.33267 0.58433 0.0
H2260 H 0.16671 0.34287 0.58499 0.0
H2261 H 0.15637 0.3452 0.56704 0.0
H2262 H 0.264 0.38519 0.63498 0.0
H2263 H 0.29525 0.40043 0.63211 0.0
H2264 H 0.28504 0.40164 0.61331 0.0
H2265 H 0.29269 0.38786 0.61366 0.0
H2266 H 0.23671 0.34826 0.59404 0.0
H2267 H 0.25815 0.39765 0.61417 0.0
H2268 H 0.21472 0.35009 0.56074 0.0
H2269 H 0.19957 0.34452 0.57686 0.0
H2270 H 0.21245 0.3356 0.57652 0.0
H2271 H 0.25017 0.41574 0.60437 0.0
H2272 H 0.2276 0.40439 0.60402 0.0
H2273 H 0.23855 0.41051 0.58455 0.0
H2274 H 0.26898 0.37544 0.46771 0.0
H2275 H 0.24369 0.36736 0.47416 0.0
H2276 H 0.26514 0.41986 0.47787 0.0
H2277 H 0.21539 0.35609 0.50683 0.0
H2278 H 0.21899 0.34836 0.48747 0.0
H2279 H 0.2043 0.35516 0.48785 0.0
H2280 H 0.25267 0.43175 0.49332 0.0
H2281 H 0.24104 0.4199 0.51123 0.0
H2282 H 0.23008 0.41909 0.4922 0.0
H2283 H 0.12232 0.3808 0.46194 0.0
H2284 H 0.10069 0.3616 0.44503 0.0
H2285 H 0.10513 0.34719 0.44822 0.0
H2286 H 0.12531 0.36647 0.42019 0.0
H2287 H 0.13397 0.34292 0.48326 0.0
H2288 H 0.15323 0.39389 0.47262 0.0
H2289 H 0.15976 0.34719 0.51541 0.0
H2290 H 0.17261 0.34824 0.49837 0.0
H2291 H 0.15022 0.33405 0.49698 0.0
H2292 H 0.17906 0.41546 0.48398 0.0
H2293 H 0.19447 0.40958 0.4834 0.0
H2294 H 0.18624 0.41084 0.50323 0.0
H2295 H 0.1987 0.37458 0.59853 0.0
H2296 H 0.23859 0.3844 0.55579 0.0
H2297 H 0.23949 0.38779 0.52576 0.0
H2298 H 0.20075 0.38441 0.4831 0.0
H2299 H 0.16296 0.37902 0.52635 0.0
H2300 H 0.16273 0.37714 0.55651 0.0
H2301 H 0.3018 0.40934 0.47165 0.0
H2302 H 0.29937 0.38926 0.47401 0.0
H2303 H 0.28949 0.39608 0.4885 0.0
H2304 H 0.00605 0.38602 0.06164 0.0
H2305 H 0.95196 0.35929 0.05498 0.0
H2306 H 0.94985 0.3712 0.08203 0.0
H2307 H 0.00737 0.38206 0.1065 0.0
H2308 H 0.02537 0.40261 0.10995 0.0
H2309 H 0.02256 0.3918 0.0902 0.0
H2310 H 0.02438 0.41625 0.07407 0.0
H2311 H 0.02717 0.42713 0.09377 0.0
H2312 H 0.01041 0.42321 0.0793 0.0
H2313 H 0.95366 0.38562 0.11012 0.0
H2314 H 0.96317 0.40198 0.13687 0.0
H2315 H 0.01481 0.4204 0.12426 0.0
C2316 C 0.99375 0.3826 0.0659 0.0
C2317 C 0.97915 0.37165 0.05624 0.0
C2318 C 0.96331 0.36765 0.06217 0.0
C2319 C 0.96199 0.37434 0.07752 0.0
C2320 C 0.97663 0.38514 0.08669 0.0
C2321 C 0.99222 0.38932 0.08106 0.0
C2322 C 0.00604 0.40145 0.09313 0.0
C2323 C 0.01591 0.39403 0.10037 0.0
C2324 C 0.01768 0.41799 0.08455 0.0
C2325 C 0.99578 0.4033 0.10653 0.0
C2326 C 0.97884 0.39375 0.10262 0.0
C2327 C 0.96689 0.39316 0.1133 0.0
C2328 C 0.9724 0.40247 0.12846 0.0
C2329 C 0.98969 0.41225 0.13278 0.0
C2330 C 0.0015 0.41285 0.12146 0.0
H2331 H 0.63249 0.58601 0.04522 0.0
H2332 H 0.63523 0.63095 0.06241 0.0
H2333 H 0.62643 0.61919 0.09066 0.0
H2334 H 0.59618 0.55768 0.06795 0.0
H2335 H 0.60357 0.54409 0.07289 0.0
H2336 H 0.61035 0.55613 0.05406 0.0
H2337 H 0.64135 0.56879 0.06358 0.0
H2338 H 0.63466 0.55675 0.08242 0.0
H2339 H 0.64834 0.57892 0.08402 0.0
H2340 H 0.61651 0.60222 0.11683 0.0
H2341 H 0.60713 0.58153 0.13933 0.0
H2342 H 0.61152 0.54803 0.10526 0.0
C2343 C 0.63129 0.59341 0.05492 0.0
C2344 C 0.63453 0.6094 0.05156 0.0
C2345 C 0.63285 0.61868 0.06465 0.0
C2346 C 0.62783 0.6121 0.08075 0.0
C2347 C 0.62463 0.59627 0.08359 0.0
C2348 C 0.62638 0.58708 0.07108 0.0
C2349 C 0.6222 0.57038 0.07744 0.0
C2350 C 0.60718 0.55624 0.06749 0.0
C2351 C 0.63756 0.56862 0.07683 0.0
C2352 C 0.6177 0.57158 0.09544 0.0
C2353 C 0.61915 0.58659 0.09874 0.0
C2354 C 0.61541 0.59045 0.11442 0.0
C2355 C 0.61009 0.57865 0.1271 0.0
C2356 C 0.6086 0.56321 0.12402 0.0
C2357 C 0.61253 0.55972 0.10797 0.0
H2358 H 0.39197 0.99591 0.05373 0.0
H2359 H 0.39749 0.04096 0.03416 0.0
H2360 H 0.41904 0.0573 0.05642 0.0
H2361 H 0.39561 0.00764 0.09741 0.0
H2362 H 0.40673 0.99763 0.10327 0.0
H2363 H 0.39222 0.98979 0.08553 0.0
H2364 H 0.41562 0.99249 0.06632 0.0
H2365 H 0.43022 0.00038 0.084 0.0
H2366 H 0.43497 0.01219 0.06502 0.0
H2367 H 0.44045 0.06859 0.08088 0.0
H2368 H 0.45878 0.07366 0.10597 0.0
H2369 H 0.43757 0.0208 0.10979 0.0
C2370 C 0.39777 0.00923 0.05402 0.0
C2371 C 0.39317 0.0172 0.04212 0.0
C2372 C 0.40086 0.03462 0.04314 0.0
C2373 C 0.41312 0.04398 0.05571 0.0
C2374 C 0.41736 0.03569 0.06723 0.0
C2375 C 0.40978 0.01868 0.06655 0.0
C2376 C 0.41608 0.0126 0.08064 0.0
C2377 C 0.40181 0.00125 0.09241 0.0
C2378 C 0.42474 0.00391 0.07357 0.0
C2379 C 0.42853 0.02886 0.08934 0.0
C2380 C 0.42921 0.04207 0.0814 0.0
C2381 C 0.44002 0.05832 0.08715 0.0
C2382 C 0.45039 0.06109 0.10135 0.0
C2383 C 0.44988 0.04769 0.10962 0.0
C2384 C 0.43857 0.03137 0.1036 0.0
H2385 H 0.38557 0.01522 0.95756 0.0
H2386 H 0.35806 0.96162 0.9541 0.0
H2387 H 0.37071 0.96304 0.92653 0.0
H2388 H 0.38471 0.0232 0.91247 0.0
H2389 H 0.40587 0.04082 0.91308 0.0
H2390 H 0.39327 0.03556 0.93158 0.0
H2391 H 0.41621 0.03428 0.94884 0.0
H2392 H 0.42881 0.03939 0.93036 0.0
H2393 H 0.42317 0.02086 0.94165 0.0
H2394 H 0.38705 0.97028 0.89989 0.0
H2395 H 0.40639 0.98281 0.87623 0.0
H2396 H 0.4251 0.03164 0.89832 0.0
C2397 C 0.38193 0.00381 0.95077 0.0
C2398 C 0.37065 0.9883 0.95775 0.0
C2399 C 0.36658 0.97361 0.94883 0.0
C2400 C 0.37369 0.9743 0.9332 0.0
C2401 C 0.38505 0.98978 0.9268 0.0
C2402 C 0.38922 0.00428 0.93532 0.0
C2403 C 0.40271 0.01927 0.92629 0.0
C2404 C 0.39625 0.03036 0.92051 0.0
C2405 C 0.41867 0.02902 0.93745 0.0
C2406 C 0.40548 0.01093 0.91139 0.0
C2407 C 0.39504 0.99393 0.91182 0.0
C2408 C 0.39525 0.98358 0.89938 0.0
C2409 C 0.4063 0.99081 0.88602 0.0
C2410 C 0.41708 0.00821 0.88526 0.0
C2411 C 0.41681 0.01833 0.89833 0.0
H2412 H 0.98248 0.38017 0.96017 0.0
H2413 H 0.03218 0.39629 0.98027 0.0
H2414 H 0.04467 0.41644 0.95736 0.0
H2415 H 0.99282 0.383 0.91625 0.0
H2416 H 0.97917 0.39017 0.9101 0.0
H2417 H 0.97427 0.37705 0.92805 0.0
H2418 H 0.97317 0.39896 0.94681 0.0
H2419 H 0.97814 0.41218 0.92894 0.0
H2420 H 0.991 0.41986 0.94793 0.0
H2421 H 0.05164 0.43511 0.93235 0.0
H2422 H 0.05253 0.45043 0.90692 0.0
H2423 H 0.99826 0.42154 0.90316 0.0
C2424 C 0.996 0.38791 0.9598 0.0
C2425 C 0.00635 0.38667 0.97207 0.0
C2426 C 0.02399 0.397 0.97102 0.0
C2427 C 0.0312 0.4085 0.95806 0.0
C2428 C 0.0206 0.40944 0.94624 0.0
C2429 C 0.00338 0.39935 0.94695 0.0
C2430 C 0.99475 0.40271 0.93267 0.0
C2431 C 0.98466 0.38732 0.92108 0.0
C2432 C 0.98361 0.40879 0.9395 0.0
C2433 C 0.00979 0.41635 0.92385 0.0
C2434 C 0.02459 0.42008 0.93186 0.0
C2435 C 0.04012 0.43232 0.92602 0.0
C2436 C 0.04051 0.44098 0.91163 0.0
C2437 C 0.02547 0.43744 0.90331 0.0
C2438 C 0.00995 0.42478 0.90944 0.0
H2439 H 0.60901 0.60775 0.95703 0.0
H2440 H 0.60809 0.64633 0.98592 0.0
H2441 H 0.58556 0.64355 0.96688 0.0
H2442 H 0.60261 0.6201 0.91628 0.0
H2443 H 0.58985 0.59915 0.90821 0.0
H2444 H 0.60572 0.60418 0.92424 0.0
H2445 H 0.58336 0.58161 0.9433 0.0
H2446 H 0.5674 0.57656 0.92737 0.0
H2447 H 0.56503 0.58217 0.94848 0.0
H2448 H 0.56265 0.63602 0.94475 0.0
H2449 H 0.54213 0.62516 0.92079 0.0
H2450 H 0.55915 0.59237 0.90616 0.0
C2451 C 0.60407 0.61562 0.95942 0.0
C2452 C 0.61025 0.62721 0.97303 0.0
C2453 C 0.60355 0.63737 0.97557 0.0
C2454 C 0.59073 0.63585 0.96484 0.0
C2455 C 0.58489 0.62422 0.95158 0.0
C2456 C 0.59145 0.61438 0.94878 0.0
C2457 C 0.58327 0.60305 0.93351 0.0
C2458 C 0.59613 0.60686 0.91975 0.0
C2459 C 0.57423 0.58477 0.93847 0.0
C2460 C 0.57094 0.60792 0.92819 0.0
C2461 C 0.57199 0.6201 0.93879 0.0
C2462 C 0.56171 0.62646 0.93641 0.0
C2463 C 0.55007 0.62019 0.92283 0.0
C2464 C 0.54877 0.60768 0.91186 0.0
C2465 C 0.55956 0.60167 0.91452 0.0
H2466 H 0.99965 0.63087 0.97222 0.0
H2467 H 0.05345 0.65526 0.98024 0.0
H2468 H 0.05518 0.64152 0.95435 0.0
H2469 H 0.99313 0.59242 0.9589 0.0
H2470 H 0.97695 0.58811 0.94347 0.0
H2471 H 0.98014 0.601 0.9617 0.0
H2472 H 0.98401 0.62451 0.94232 0.0
H2473 H 0.98073 0.61165 0.92401 0.0
H2474 H 0.9995 0.63186 0.92615 0.0
H2475 H 0.05083 0.62448 0.92785 0.0
H2476 H 0.04061 0.60466 0.90364 0.0
H2477 H 0.98957 0.59054 0.91401 0.0
C2478 C 0.01185 0.63356 0.9684 0.0
C2479 C 0.02644 0.64424 0.97818 0.0
C2480 C 0.04211 0.64716 0.97291 0.0
C2481 C 0.04322 0.63944 0.95821 0.0
C2482 C 0.02855 0.62879 0.949 0.0
C2483 C 0.01316 0.62583 0.95391 0.0
C2484 C 0.99914 0.61314 0.94239 0.0
C2485 C 0.98661 0.59776 0.9522 0.0
C2486 C 0.99033 0.62075 0.93317 0.0
C2487 C 0.00902 0.60925 0.93033 0.0
C2488 C 0.02598 0.61853 0.93421 0.0
C2489 C 0.03757 0.61707 0.92477 0.0
C2490 C 0.03164 0.60572 0.9111 0.0
C2491 C 0.01423 0.59572 0.90725 0.0
C2492 C 0.00289 0.59778 0.91689 0.0
H2493 H 0.36722 0.38538 0.95044 0.0
H2494 H 0.35021 0.41295 0.97888 0.0
H2495 H 0.35562 0.4309 0.95458 0.0
H2496 H 0.40076 0.42034 0.93009 0.0
H2497 H 0.39791 0.4095 0.91031 0.0
H2498 H 0.39216 0.39832 0.92973 0.0
H2499 H 0.36207 0.37857 0.91772 0.0
H2500 H 0.36775 0.38963 0.89823 0.0
H2501 H 0.35015 0.38709 0.90973 0.0
H2502 H 0.36265 0.44578 0.92729 0.0
H2503 H 0.37144 0.457 0.89881 0.0
H2504 H 0.3848 0.42053 0.88826 0.0
C2505 C 0.36451 0.39511 0.95151 0.0
C2506 C 0.35825 0.39772 0.96657 0.0
C2507 C 0.35503 0.4107 0.9675 0.0
C2508 C 0.35804 0.42097 0.95375 0.0
C2509 C 0.36435 0.41817 0.93917 0.0
C2510 C 0.36758 0.40559 0.93793 0.0
C2511 C 0.37467 0.40549 0.9209 0.0
C2512 C 0.39243 0.4086 0.92289 0.0
C2513 C 0.36295 0.38923 0.91106 0.0
C2514 C 0.37494 0.42 0.9128 0.0
C2515 C 0.36886 0.42708 0.92355 0.0
C2516 C 0.36759 0.44046 0.91882 0.0
C2517 C 0.3727 0.4468 0.90266 0.0
C2518 C 0.37924 0.43992 0.89151 0.0
C2519 C 0.3802 0.42625 0.89667 0.0
H2520 H 0.64144 0.02505 0.95303 0.0
H2521 H 0.61952 0.97891 0.97993 0.0
H2522 H 0.59639 0.96571 0.95864 0.0
H2523 H 0.60353 0.02238 0.94148 0.0
H2524 H 0.61037 0.03104 0.92092 0.0
H2525 H 0.62547 0.03666 0.93792 0.0
H2526 H 0.64183 0.02719 0.91981 0.0
H2527 H 0.62684 0.02165 0.9027 0.0
H2528 H 0.63103 0.0065 0.91083 0.0
H2529 H 0.57474 0.95812 0.93529 0.0
H2530 H 0.55734 0.95621 0.91055 0.0
H2531 H 0.59416 0.00704 0.89861 0.0
C2532 C 0.63185 0.01213 0.95441 0.0
C2533 C 0.63227 0.00302 0.96817 0.0
C2534 C 0.61949 0.98612 0.96946 0.0
C2535 C 0.60628 0.97853 0.95747 0.0
C2536 C 0.60614 0.98797 0.94419 0.0
C2537 C 0.6187 0.00435 0.94251 0.0
C2538 C 0.61564 0.01179 0.92713 0.0
C2539 C 0.61363 0.02632 0.93217 0.0
C2540 C 0.62967 0.01709 0.91436 0.0
C2541 C 0.59929 0.9971 0.92053 0.0
C2542 C 0.59396 0.98349 0.93056 0.0
C2543 C 0.57889 0.96864 0.92723 0.0
C2544 C 0.56911 0.96766 0.91318 0.0
C2545 C 0.57453 0.9814 0.90255 0.0
C2546 C 0.58978 0.99629 0.9064 0.0
H2547 H 0.63822 0.01095 0.05724 0.0
H2548 H 0.65769 0.06176 0.04329 0.0
H2549 H 0.64034 0.06422 0.06471 0.0
H2550 H 0.59761 0.9986 0.06068 0.0
H2551 H 0.59339 0.98494 0.07805 0.0
H2552 H 0.60985 0.98922 0.06379 0.0
H2553 H 0.63152 0.99949 0.08841 0.0
H2554 H 0.61513 0.99477 0.10303 0.0
H2555 H 0.63358 0.01528 0.10285 0.0
H2556 H 0.61507 0.0628 0.08317 0.0
H2557 H 0.58564 0.05078 0.10379 0.0
H2558 H 0.58273 0.99498 0.10642 0.0
C2559 C 0.63906 0.02268 0.05905 0.0
C2560 C 0.64928 0.03616 0.04864 0.0
C2561 C 0.64999 0.05128 0.05115 0.0
C2562 C 0.64018 0.0528 0.06329 0.0
C2563 C 0.62973 0.03916 0.07296 0.0
C2564 C 0.62905 0.02405 0.0711 0.0
C2565 C 0.61597 0.00955 0.08166 0.0
C2566 C 0.60348 0.99472 0.07037 0.0
C2567 C 0.62456 0.00447 0.09477 0.0
C2568 C 0.60729 0.01697 0.09023 0.0
C2569 C 0.61725 0.03762 0.08442 0.0
C2570 C 0.60904 0.05056 0.08837 0.0
C2571 C 0.59022 0.04288 0.10015 0.0
C2572 C 0.58295 0.02249 0.11022 0.0
C2573 C 0.58847 0.0075 0.10199 0.0
H2574 H 0.0199 0.63572 0.0751 0.0
H2575 H 0.97186 0.61506 0.04882 0.0
H2576 H 0.9588 0.5932 0.07009 0.0
H2577 H 0.01548 0.59751 0.08688 0.0
H2578 H 0.02559 0.60516 0.10729 0.0
H2579 H 0.0311 0.61916 0.09005 0.0
H2580 H 0.02408 0.63764 0.10797 0.0
H2581 H 0.01865 0.62375 0.1253 0.0
H2582 H 0.00372 0.62858 0.11717 0.0
H2583 H 0.95128 0.57298 0.0938 0.0
H2584 H 0.94954 0.55721 0.11917 0.0
H2585 H 0.00232 0.59191 0.13021 0.0
C2586 C 0.00662 0.62662 0.0738 0.0
C2587 C 0.99691 0.62705 0.06026 0.0
C2588 C 0.97955 0.61499 0.05911 0.0
C2589 C 0.97203 0.60249 0.07109 0.0
C2590 C 0.98203 0.60235 0.08419 0.0
C2591 C 0.99891 0.6142 0.08569 0.0
C2592 C 0.00685 0.6115 0.10108 0.0
C2593 C 0.02056 0.60813 0.09601 0.0
C2594 C 0.01373 0.62624 0.11362 0.0
C2595 C 0.99182 0.5962 0.10797 0.0
C2596 C 0.97763 0.59104 0.09802 0.0
C2597 C 0.96229 0.57699 0.10176 0.0
C2598 C 0.96141 0.56813 0.11616 0.0
C2599 C 0.97576 0.57343 0.12671 0.0
C2600 C 0.99114 0.5876 0.12243 0.0
H2601 H 0.39836 0.40053 0.04636 0.0
H2602 H 0.39118 0.35412 0.0275 0.0
H2603 H 0.41478 0.3584 0.04592 0.0
H2604 H 0.44354 0.42285 0.04895 0.0
H2605 H 0.44465 0.43416 0.06783 0.0
H2606 H 0.42749 0.42738 0.05291 0.0
H2607 H 0.40644 0.41216 0.07673 0.0
H2608 H 0.42353 0.41876 0.09169 0.0
H2609 H 0.40798 0.39706 0.08888 0.0
H2610 H 0.43882 0.36768 0.06744 0.0
H2611 H 0.46179 0.38166 0.08899 0.0
H2612 H 0.45299 0.42203 0.09266 0.0
C2613 C 0.40174 0.39125 0.04602 0.0
C2614 C 0.39288 0.37695 0.03554 0.0
C2615 C 0.39782 0.3652 0.03541 0.0
C2616 C 0.41116 0.3675 0.04586 0.0
C2617 C 0.41948 0.38168 0.05621 0.0
C2618 C 0.41501 0.39341 0.0562 0.0
C2619 C 0.42586 0.40762 0.06836 0.0
C2620 C 0.43599 0.42396 0.05895 0.0
C2621 C 0.41532 0.40897 0.08224 0.0
C2622 C 0.43706 0.40201 0.07541 0.0
C2623 C 0.43322 0.38702 0.06832 0.0
C2624 C 0.4419 0.3794 0.07307 0.0
C2625 C 0.45484 0.38736 0.08535 0.0
C2626 C 0.45889 0.40271 0.09277 0.0
C2627 C 0.44995 0.41013 0.08751 0.0
H2628 H 0.62611 0.70635 0.38023 0.0
H2629 H 0.66872 0.70398 0.39819 0.0
H2630 H 0.66519 0.71203 0.4269 0.0
H2631 H 0.63503 0.74172 0.40447 0.0
H2632 H 0.6134 0.73444 0.40842 0.0
H2633 H 0.61887 0.72782 0.38954 0.0
H2634 H 0.59885 0.69715 0.39731 0.0
H2635 H 0.59324 0.70367 0.41619 0.0
H2636 H 0.60123 0.69011 0.4176 0.0
H2637 H 0.65804 0.72219 0.45322 0.0
H2638 H 0.64682 0.73201 0.47539 0.0
H2639 H 0.60838 0.72664 0.44014 0.0
C2640 C 0.63465 0.70737 0.39019 0.0
C2641 C 0.64771 0.70454 0.38694 0.0
C2642 C 0.65859 0.70605 0.40038 0.0
C2643 C 0.65671 0.71065 0.41672 0.0
C2644 C 0.64382 0.71357 0.4194 0.0
C2645 C 0.63291 0.71186 0.40652 0.0
C2646 C 0.62027 0.71596 0.41257 0.0
C2647 C 0.62201 0.73087 0.40319 0.0
C2648 C 0.60234 0.70082 0.41082 0.0
C2649 C 0.62579 0.72032 0.43088 0.0
C2650 C 0.63944 0.71895 0.43458 0.0
C2651 C 0.64718 0.72304 0.45053 0.0
C2652 C 0.6407 0.72855 0.46305 0.0
C2653 C 0.62648 0.7297 0.45961 0.0
C2654 C 0.61905 0.72559 0.44325 0.0
H2655 H 0.26659 0.91902 0.38577 0.0
H2656 H 0.30295 0.96861 0.40453 0.0
H2657 H 0.29684 0.95874 0.43383 0.0
H2658 H 0.23666 0.90848 0.41998 0.0
H2659 H 0.23121 0.88725 0.42013 0.0
H2660 H 0.23749 0.89859 0.4008 0.0
H2661 H 0.26079 0.89192 0.39757 0.0
H2662 H 0.25463 0.88064 0.41687 0.0
H2663 H 0.27598 0.89741 0.41451 0.0
H2664 H 0.28819 0.94283 0.46092 0.0
H2665 H 0.27764 0.9227 0.48356 0.0
H2666 H 0.24685 0.88338 0.44689 0.0
C2667 C 0.27315 0.92788 0.39602 0.0
C2668 C 0.28527 0.9446 0.39286 0.0
C2669 C 0.29355 0.95577 0.40665 0.0
C2670 C 0.29017 0.95027 0.42333 0.0
C2671 C 0.27833 0.93363 0.42597 0.0
C2672 C 0.26984 0.92264 0.41268 0.0
C2673 C 0.25814 0.9053 0.41882 0.0
C2674 C 0.23979 0.89957 0.41469 0.0
C2675 C 0.26267 0.89311 0.41151 0.0
C2676 C 0.26183 0.90809 0.4376 0.0
C2677 C 0.27332 0.92453 0.44152 0.0
C2678 C 0.27904 0.92995 0.45802 0.0
C2679 C 0.27291 0.91827 0.47086 0.0
C2680 C 0.26118 0.90123 0.46712 0.0
C2681 C 0.25562 0.89628 0.45021 0.0
H2682 H 0.06371 0.35455 0.38548 0.0
H2683 H 0.05796 0.30616 0.3839 0.0
H2684 H 0.08302 0.31659 0.40212 0.0
H2685 H 0.10794 0.37928 0.38407 0.0
H2686 H 0.10941 0.39521 0.39791 0.0
H2687 H 0.09085 0.38275 0.38493 0.0
H2688 H 0.07259 0.37432 0.41127 0.0
H2689 H 0.09096 0.38667 0.42454 0.0
H2690 H 0.07704 0.365 0.42862 0.0
H2691 H 0.11226 0.33014 0.42057 0.0
H2692 H 0.14061 0.35233 0.44235 0.0
H2693 H 0.12558 0.39676 0.43196 0.0
C2694 C 0.0678 0.34625 0.38908 0.0
C2695 C 0.0589 0.32957 0.38327 0.0
C2696 C 0.06452 0.31897 0.38818 0.0
C2697 C 0.07877 0.32478 0.39851 0.0
C2698 C 0.08736 0.34119 0.40398 0.0
C2699 C 0.08213 0.35213 0.39957 0.0
C2700 C 0.09299 0.37003 0.4068 0.0
C2701 C 0.10075 0.38255 0.39258 0.0
C2702 C 0.08279 0.37425 0.4185 0.0
C2703 C 0.10637 0.36941 0.41672 0.0
C2704 C 0.10214 0.34931 0.41456 0.0
C2705 C 0.11524 0.34262 0.42309 0.0
C2706 C 0.13332 0.35652 0.43588 0.0
C2707 C 0.13444 0.37617 0.44196 0.0
C2708 C 0.12393 0.38481 0.42915 0.0
H2709 H 0.0209 0.28425 0.29834 0.0
H2710 H 0.03888 0.33667 0.29726 0.0
H2711 H 0.04985 0.33808 0.26872 0.0
H2712 H 0.05517 0.28651 0.27928 0.0
H2713 H 0.04318 0.26734 0.26737 0.0
H2714 H 0.03536 0.27016 0.2869 0.0
H2715 H 0.00786 0.26357 0.27158 0.0
H2716 H 0.01553 0.26058 0.25199 0.0
H2717 H 0.00887 0.27522 0.25334 0.0
H2718 H 0.06129 0.33414 0.24146 0.0
H2719 H 0.07082 0.32484 0.21715 0.0
H2720 H 0.04461 0.27496 0.23621 0.0
C2721 C 0.0269 0.29599 0.29203 0.0
C2722 C 0.02905 0.31036 0.30004 0.0
C2723 C 0.03702 0.32549 0.29133 0.0
C2724 C 0.04331 0.32641 0.27514 0.0
C2725 C 0.04134 0.31206 0.2678 0.0
C2726 C 0.03314 0.2971 0.2759 0.0
C2727 C 0.03321 0.28362 0.26567 0.0
C2728 C 0.04227 0.2765 0.27539 0.0
C2729 C 0.0153 0.26994 0.26033 0.0
C2730 C 0.04309 0.29338 0.25069 0.0
C2731 C 0.04764 0.30975 0.25208 0.0
C2732 C 0.05757 0.32129 0.24012 0.0
C2733 C 0.06293 0.31592 0.22639 0.0
C2734 C 0.05832 0.29916 0.22474 0.0
C2735 C 0.0482 0.2878 0.23705 0.0
H2736 H 0.69764 0.72604 0.29346 0.0
H2737 H 0.69067 0.75201 0.33454 0.0
H2738 H 0.7097 0.77875 0.32131 0.0
H2739 H 0.74197 0.7572 0.28448 0.0
H2740 H 0.73829 0.75231 0.26218 0.0
H2741 H 0.72631 0.73657 0.27732 0.0
H2742 H 0.69923 0.73121 0.26283 0.0
H2743 H 0.71068 0.74738 0.24801 0.0
H2744 H 0.69535 0.74779 0.2611 0.0
H2745 H 0.72784 0.80708 0.30365 0.0
H2746 H 0.74115 0.82871 0.27512 0.0
H2747 H 0.73534 0.7791 0.24111 0.0
C2748 C 0.70064 0.73752 0.29969 0.0
C2749 C 0.69308 0.73726 0.31502 0.0
C2750 C 0.69664 0.75218 0.32287 0.0
C2751 C 0.7074 0.76736 0.31548 0.0
C2752 C 0.71443 0.76743 0.30015 0.0
C2753 C 0.71128 0.75275 0.29201 0.0
C2754 C 0.71891 0.75475 0.27436 0.0
C2755 C 0.73215 0.74992 0.2746 0.0
C2756 C 0.70523 0.7447 0.26079 0.0
C2757 C 0.72699 0.77295 0.27153 0.0
C2758 C 0.72387 0.78143 0.28966 0.0
C2759 C 0.73003 0.80262 0.29195 0.0
C2760 C 0.7389 0.81632 0.27455 0.0
C2761 C 0.73736 0.80554 0.25409 0.0
C2762 C 0.73567 0.78498 0.253 0.0
H2763 H 0.27118 0.95052 0.29132 0.0
H2764 H 0.26275 0.98017 0.32698 0.0
H2765 H 0.2422 0.98012 0.30681 0.0
H2766 H 0.26803 0.97075 0.25329 0.0
H2767 H 0.25821 0.9517 0.24104 0.0
H2768 H 0.27282 0.95513 0.25794 0.0
H2769 H 0.25033 0.92781 0.27155 0.0
H2770 H 0.23561 0.92437 0.25482 0.0
H2771 H 0.23027 0.9249 0.27648 0.0
H2772 H 0.22047 0.9742 0.28343 0.0
H2773 H 0.20119 0.96472 0.2584 0.0
H2774 H 0.2258 0.94062 0.23795 0.0
C2775 C 0.26514 0.95716 0.29481 0.0
C2776 C 0.26839 0.96525 0.31068 0.0
C2777 C 0.26041 0.97395 0.31481 0.0
C2778 C 0.24873 0.97394 0.30346 0.0
C2779 C 0.24556 0.96552 0.28798 0.0
C2780 C 0.25381 0.95756 0.28357 0.0
C2781 C 0.24819 0.94926 0.26635 0.0
C2782 C 0.26267 0.95719 0.25392 0.0
C2783 C 0.24065 0.93048 0.26738 0.0
C2784 C 0.23497 0.95319 0.26195 0.0
C2785 C 0.2336 0.9626 0.2745 0.0
C2786 C 0.22157 0.96697 0.27347 0.0
C2787 C 0.21064 0.96149 0.25929 0.0
C2788 C 0.21179 0.95167 0.24642 0.0
C2789 C 0.22441 0.94787 0.24769 0.0
H2790 H 0.69037 0.95924 0.29775 0.0
H2791 H 0.72991 0.96366 0.33082 0.0
H2792 H 0.74377 0.96037 0.30622 0.0
H2793 H 0.68907 0.92863 0.26827 0.0
H2794 H 0.68546 0.93769 0.25011 0.0
H2795 H 0.67802 0.93933 0.27044 0.0
H2796 H 0.69427 0.97125 0.26815 0.0
H2797 H 0.70172 0.96972 0.24783 0.0
H2798 H 0.71645 0.98238 0.26442 0.0
H2799 H 0.75438 0.95856 0.27794 0.0
H2800 H 0.76085 0.95817 0.24789 0.0
H2801 H 0.71429 0.95449 0.23323 0.0
C2802 C 0.70184 0.95933 0.29987 0.0
C2803 C 0.70902 0.96169 0.31625 0.0
C2804 C 0.72414 0.96187 0.31841 0.0
C2805 C 0.7321 0.95996 0.30452 0.0
C2806 C 0.72477 0.95782 0.28854 0.0
C2807 C 0.70996 0.95745 0.28614 0.0
C2808 C 0.70509 0.95568 0.26757 0.0
C2809 C 0.68842 0.93936 0.26388 0.0
C2810 C 0.70435 0.97065 0.26165 0.0
C2811 C 0.71963 0.9554 0.2599 0.0
C2812 C 0.73079 0.95655 0.27222 0.0
C2813 C 0.7456 0.95736 0.26819 0.0
C2814 C 0.74914 0.95708 0.2511 0.0
C2815 C 0.73784 0.95584 0.23826 0.0
C2816 C 0.72291 0.95499 0.2428 0.0
H2817 H 0.04109 0.76449 0.30524 0.0
H2818 H 0.04309 0.72133 0.29095 0.0
H2819 H 0.04853 0.73084 0.2615 0.0
H2820 H 0.01934 0.7646 0.26837 0.0
H2821 H 0.03032 0.78684 0.26738 0.0
H2822 H 0.02766 0.77711 0.28741 0.0
H2823 H 0.05979 0.79438 0.29285 0.0
H2824 H 0.06256 0.80411 0.27277 0.0
H2825 H 0.07343 0.7936 0.27759 0.0
H2826 H 0.05281 0.7447 0.23338 0.0
H2827 H 0.05433 0.76111 0.20866 0.0
H2828 H 0.04889 0.79472 0.24148 0.0
C2829 C 0.04283 0.75708 0.29598 0.0
C2830 C 0.04176 0.74219 0.30044 0.0
C2831 C 0.04388 0.73278 0.28785 0.0
C2832 C 0.04704 0.73812 0.27111 0.0
C2833 C 0.04798 0.75285 0.26716 0.0
C2834 C 0.04586 0.76215 0.27924 0.0
C2835 C 0.04663 0.77707 0.27163 0.0
C2836 C 0.02999 0.77635 0.27383 0.0
C2837 C 0.06149 0.79325 0.27916 0.0
C2838 C 0.04936 0.77467 0.25332 0.0
C2839 C 0.05028 0.76072 0.25101 0.0
C2840 C 0.05228 0.75573 0.23508 0.0
C2841 C 0.05319 0.76514 0.22114 0.0
C2842 C 0.0521 0.77936 0.22321 0.0
C2843 C 0.05018 0.78414 0.23956 0.0
H2844 H 0.27217 0.33294 0.27259 0.0
H2845 H 0.25929 0.30001 0.31481 0.0
H2846 H 0.23492 0.27796 0.29832 0.0
H2847 H 0.23007 0.31907 0.2577 0.0
H2848 H 0.23535 0.32063 0.23574 0.0
H2849 H 0.251 0.33408 0.25129 0.0
H2850 H 0.27052 0.32413 0.24135 0.0
H2851 H 0.25498 0.31071 0.22574 0.0
H2852 H 0.26289 0.30231 0.24089 0.0
H2853 H 0.2117 0.25968 0.27708 0.0
H2854 H 0.19341 0.2457 0.25192 0.0
H2855 H 0.22313 0.29012 0.22316 0.0
C2856 C 0.26411 0.32115 0.27844 0.0
C2857 C 0.26746 0.3182 0.29503 0.0
C2858 C 0.25688 0.3025 0.30212 0.0
C2859 C 0.24299 0.28996 0.29289 0.0
C2860 C 0.24004 0.29328 0.27653 0.0
C2861 C 0.25044 0.30843 0.26931 0.0
C2862 C 0.24526 0.30855 0.25117 0.0
C2863 C 0.24011 0.32134 0.24885 0.0
C2864 C 0.25924 0.3116 0.23908 0.0
C2865 C 0.23033 0.29108 0.24925 0.0
C2866 C 0.22733 0.28253 0.26408 0.0
C2867 C 0.21403 0.26622 0.26536 0.0
C2868 C 0.20375 0.25837 0.25102 0.0
C2869 C 0.20706 0.26673 0.23552 0.0
C2870 C 0.22039 0.28337 0.23479 0.0
H2871 H 0.29567 0.35166 0.38114 0.0
H2872 H 0.30708 0.39651 0.3556 0.0
H2873 H 0.30166 0.40707 0.38176 0.0
H2874 H 0.26178 0.34774 0.40492 0.0
H2875 H 0.26671 0.34017 0.42349 0.0
H2876 H 0.27217 0.33637 0.40297 0.0
H2877 H 0.30316 0.35011 0.41302 0.0
H2878 H 0.29778 0.35389 0.43359 0.0
H2879 H 0.31392 0.37082 0.42193 0.0
H2880 H 0.29516 0.41286 0.41073 0.0
H2881 H 0.28706 0.41301 0.44022 0.0
H2882 H 0.27884 0.364 0.44659 0.0
C2883 C 0.29716 0.36376 0.38107 0.0
C2884 C 0.30187 0.37328 0.36631 0.0
C2885 C 0.30349 0.38898 0.36673 0.0
C2886 C 0.30046 0.3951 0.38154 0.0
C2887 C 0.29573 0.38536 0.39582 0.0
C2888 C 0.29404 0.37001 0.3957 0.0
C2889 C 0.28835 0.36183 0.41263 0.0
C2890 C 0.27124 0.34557 0.41089 0.0
C2891 C 0.3016 0.359 0.42077 0.0
C2892 C 0.28705 0.37495 0.42224 0.0
C2893 C 0.29147 0.38848 0.41235 0.0
C2894 C 0.29151 0.40227 0.41855 0.0
C2895 C 0.28681 0.40221 0.43528 0.0
C2896 C 0.28185 0.38831 0.44554 0.0
C2897 C 0.2822 0.37463 0.43892 0.0
H2898 H 0.67177 0.94115 0.41001 0.0
H2899 H 0.63511 0.92004 0.36871 0.0
H2900 H 0.61484 0.89848 0.38765 0.0
H2901 H 0.6605 0.90252 0.43048 0.0
H2902 H 0.66358 0.91142 0.45141 0.0
H2903 H 0.67564 0.92421 0.43424 0.0
H2904 H 0.66537 0.94423 0.44062 0.0
H2905 H 0.65332 0.93152 0.4578 0.0
H2906 H 0.64319 0.93619 0.44121 0.0
H2907 H 0.59833 0.87972 0.41146 0.0
H2908 H 0.5863 0.86648 0.43864 0.0
H2909 H 0.63341 0.90091 0.46438 0.0
C2910 C 0.65957 0.93184 0.40486 0.0
C2911 C 0.65506 0.93216 0.38784 0.0
C2912 C 0.63884 0.91998 0.3817 0.0
C2913 C 0.62728 0.90766 0.39233 0.0
C2914 C 0.63211 0.90779 0.40909 0.0
C2915 C 0.64784 0.91963 0.41533 0.0
C2916 C 0.64955 0.91779 0.43407 0.0
C2917 C 0.66312 0.91374 0.43776 0.0
C2918 C 0.65306 0.93335 0.444 0.0
C2919 C 0.63226 0.90317 0.43747 0.0
C2920 C 0.62245 0.8974 0.42287 0.0
C2921 C 0.60591 0.88411 0.42295 0.0
C2922 C 0.59919 0.87669 0.43841 0.0
C2923 C 0.60893 0.88272 0.45357 0.0
C2924 C 0.62571 0.89602 0.45298 0.0
H2925 H 0.05269 0.70608 0.3923 0.0
H2926 H 0.08756 0.75534 0.37451 0.0
H2927 H 0.10914 0.75805 0.39496 0.0
H2928 H 0.06448 0.71656 0.43599 0.0
H2929 H 0.06162 0.69678 0.44099 0.0
H2930 H 0.04948 0.69825 0.42407 0.0
H2931 H 0.06004 0.68455 0.40339 0.0
H2932 H 0.07223 0.68306 0.42026 0.0
H2933 H 0.08225 0.6935 0.40118 0.0
H2934 H 0.12705 0.75488 0.41686 0.0
H2935 H 0.13917 0.74745 0.44026 0.0
H2936 H 0.09126 0.70169 0.44619 0.0
C2937 C 0.06496 0.71733 0.39261 0.0
C2938 C 0.06866 0.73042 0.38173 0.0
C2939 C 0.08462 0.74516 0.38272 0.0
C2940 C 0.09692 0.74678 0.39425 0.0
C2941 C 0.09287 0.73367 0.4049 0.0
C2942 C 0.07719 0.71934 0.40437 0.0
C2943 C 0.07565 0.7076 0.418 0.0
C2944 C 0.062 0.70463 0.4305 0.0
C2945 C 0.07235 0.69121 0.41024 0.0
C2946 C 0.09296 0.7175 0.42617 0.0
C2947 C 0.10279 0.73237 0.41828 0.0
C2948 C 0.11942 0.74332 0.42324 0.0
C2949 C 0.12619 0.73895 0.43663 0.0
C2950 C 0.11624 0.72385 0.44516 0.0
C2951 C 0.09933 0.71319 0.43987 0.0
H2952 H 0.28606 0.03794 0.70227 0.0
H2953 H 0.3312 0.04112 0.72175 0.0
H2954 H 0.32703 0.05016 0.74951 0.0
H2955 H 0.29191 0.07369 0.72422 0.0
H2956 H 0.27 0.0648 0.72832 0.0
H2957 H 0.27621 0.05811 0.71001 0.0
H2958 H 0.25859 0.02772 0.71961 0.0
H2959 H 0.25229 0.03431 0.73793 0.0
H2960 H 0.2622 0.02254 0.74042 0.0
H2961 H 0.31844 0.05943 0.77495 0.0
H2962 H 0.30568 0.06811 0.79655 0.0
H2963 H 0.26608 0.05875 0.76073 0.0
C2964 C 0.29503 0.04045 0.71238 0.0
C2965 C 0.30896 0.03881 0.70979 0.0
C2966 C 0.32042 0.04227 0.72339 0.0
C2967 C 0.31817 0.04742 0.73923 0.0
C2968 C 0.30438 0.04901 0.74131 0.0
C2969 C 0.29297 0.04559 0.7283 0.0
C2970 C 0.27932 0.04847 0.73387 0.0
C2971 C 0.27937 0.06208 0.72349 0.0
C2972 C 0.26208 0.0323 0.7329 0.0
C2973 C 0.28493 0.05416 0.752 0.0
C2974 C 0.2994 0.05436 0.75603 0.0
C2975 C 0.30709 0.05932 0.77196 0.0
C2976 C 0.29979 0.06424 0.78412 0.0
C2977 C 0.28499 0.06422 0.78025 0.0
C2978 C 0.27744 0.05899 0.764 0.0
H2979 H 0.97975 0.26165 0.7174 0.0
H2980 H 0.96668 0.29784 0.73082 0.0
H2981 H 0.95606 0.28407 0.75804 0.0
H2982 H 0.94435 0.22717 0.73377 0.0
H2983 H 0.95526 0.21747 0.74139 0.0
H2984 H 0.96309 0.23095 0.72365 0.0
H2985 H 0.99184 0.24903 0.73912 0.0
H2986 H 0.98416 0.23551 0.75687 0.0
H2987 H 0.99274 0.25738 0.75992 0.0
H2988 H 0.94485 0.26494 0.78283 0.0
H2989 H 0.93519 0.24274 0.80376 0.0
H2990 H 0.95607 0.21956 0.77403 0.0
C2991 C 0.97489 0.26687 0.72614 0.0
C2992 C 0.97406 0.28084 0.72196 0.0
C2993 C 0.96752 0.28719 0.73376 0.0
C2994 C 0.96143 0.27944 0.74924 0.0
C2995 C 0.9621 0.26546 0.75277 0.0
C2996 C 0.96883 0.25935 0.74161 0.0
C2997 C 0.96762 0.24384 0.7481 0.0
C2998 C 0.95694 0.22899 0.73601 0.0
C2999 C 0.98513 0.24661 0.75119 0.0
C3000 C 0.95885 0.24197 0.76452 0.0
C3001 C 0.9558 0.25457 0.76703 0.0
C3002 C 0.94731 0.25511 0.78107 0.0
C3003 C 0.94184 0.24245 0.79284 0.0
C3004 C 0.94487 0.22944 0.79048 0.0
C3005 C 0.95358 0.22934 0.77616 0.0
H3006 H 0.72566 0.66979 0.74018 0.0
H3007 H 0.73644 0.7084 0.70462 0.0
H3008 H 0.76015 0.72871 0.72311 0.0
H3009 H 0.73366 0.69463 0.77729 0.0
H3010 H 0.74251 0.6848 0.78907 0.0
H3011 H 0.72702 0.6734 0.77263 0.0
H3012 H 0.74743 0.66683 0.75792 0.0
H3013 H 0.76298 0.6782 0.77433 0.0
H3014 H 0.768 0.68357 0.75256 0.0
H3015 H 0.78285 0.74468 0.74588 0.0
H3016 H 0.80183 0.75496 0.77113 0.0
H3017 H 0.77452 0.70576 0.79187 0.0
C3018 C 0.73309 0.68247 0.73614 0.0
C3019 C 0.72933 0.68749 0.72087 0.0
C3020 C 0.73917 0.70429 0.71625 0.0
C3021 C 0.75264 0.71588 0.72666 0.0
C3022 C 0.75593 0.71048 0.74169 0.0
C3023 C 0.74633 0.69418 0.74644 0.0
C3024 C 0.75193 0.69152 0.76345 0.0
C3025 C 0.73795 0.68575 0.77637 0.0
C3026 C 0.75795 0.67931 0.76196 0.0
C3027 C 0.76631 0.70886 0.76754 0.0
C3028 C 0.76854 0.71965 0.75484 0.0
C3029 C 0.78123 0.73631 0.75587 0.0
C3030 C 0.79194 0.74203 0.7702 0.0
C3031 C 0.78989 0.73111 0.78329 0.0
C3032 C 0.77668 0.71438 0.78197 0.0
H3033 H 0.70359 0.65591 0.63482 0.0
H3034 H 0.67946 0.60794 0.65838 0.0
H3035 H 0.68385 0.59578 0.63286 0.0
H3036 H 0.68812 0.64074 0.59154 0.0
H3037 H 0.70755 0.65589 0.5822 0.0
H3038 H 0.70134 0.66067 0.6018 0.0
H3039 H 0.72949 0.66766 0.61585 0.0
H3040 H 0.73573 0.66281 0.59634 0.0
H3041 H 0.73542 0.65244 0.61537 0.0
H3042 H 0.6916 0.58889 0.6055 0.0
H3043 H 0.7028 0.5878 0.57787 0.0
H3044 H 0.7229 0.6403 0.57208 0.0
C3045 C 0.69899 0.6428 0.63447 0.0
C3046 C 0.6911 0.63284 0.64855 0.0
C3047 C 0.68554 0.6158 0.64775 0.0
C3048 C 0.68793 0.60876 0.63329 0.0
C3049 C 0.696 0.61893 0.61975 0.0
C3050 C 0.70147 0.63557 0.62017 0.0
C3051 C 0.71058 0.64386 0.60418 0.0
C3052 C 0.70134 0.65069 0.59435 0.0
C3053 C 0.72889 0.6575 0.60818 0.0
C3054 C 0.70949 0.62929 0.59484 0.0
C3055 C 0.70089 0.61502 0.60402 0.0
C3056 C 0.69835 0.59998 0.59817 0.0
C3057 C 0.7048 0.59949 0.5825 0.0
C3058 C 0.71385 0.61398 0.57292 0.0
C3059 C 0.71611 0.62905 0.57919 0.0
H3060 H 0.32759 0.05799 0.61375 0.0
H3061 H 0.37181 0.07095 0.64427 0.0
H3062 H 0.38929 0.09343 0.62479 0.0
H3063 H 0.34743 0.06528 0.57346 0.0
H3064 H 0.33568 0.07349 0.56427 0.0
H3065 H 0.3267 0.05847 0.58067 0.0
H3066 H 0.32185 0.07862 0.59838 0.0
H3067 H 0.33087 0.09372 0.58207 0.0
H3068 H 0.33929 0.09917 0.60335 0.0
H3069 H 0.40187 0.11485 0.6022 0.0
H3070 H 0.40862 0.13316 0.57775 0.0
H3071 H 0.35628 0.10547 0.56172 0.0
C3072 C 0.34095 0.06555 0.61637 0.0
C3073 C 0.34832 0.06274 0.63058 0.0
C3074 C 0.36587 0.07285 0.63346 0.0
C3075 C 0.37591 0.08567 0.62248 0.0
C3076 C 0.36822 0.08812 0.60862 0.0
C3077 C 0.35115 0.07828 0.60548 0.0
C3078 C 0.346 0.08338 0.58962 0.0
C3079 C 0.33852 0.06932 0.57622 0.0
C3080 C 0.33378 0.08906 0.5936 0.0
C3081 C 0.36281 0.09771 0.5844 0.0
C3082 C 0.37547 0.10029 0.59554 0.0
C3083 C 0.39205 0.11296 0.59341 0.0
C3084 C 0.39576 0.12332 0.57956 0.0
C3085 C 0.38294 0.12097 0.56807 0.0
C3086 C 0.36631 0.1078 0.57045 0.0
H3087 H 0.94391 0.30546 0.64052 0.0
H3088 H 0.93835 0.25712 0.6411 0.0
H3089 H 0.91287 0.24571 0.62308 0.0
H3090 H 0.89967 0.29117 0.64088 0.0
H3091 H 0.90159 0.30664 0.62652 0.0
H3092 H 0.91902 0.31095 0.64018 0.0
H3093 H 0.9379 0.31796 0.61421 0.0
H3094 H 0.92056 0.31372 0.6005 0.0
H3095 H 0.93142 0.30297 0.59713 0.0
H3096 H 0.88795 0.23941 0.60535 0.0
H3097 H 0.86651 0.23912 0.58675 0.0
H3098 H 0.88901 0.29186 0.59663 0.0
C3099 C 0.93727 0.29246 0.63693 0.0
C3100 C 0.94308 0.28216 0.64227 0.0
C3101 C 0.93416 0.26526 0.63713 0.0
C3102 C 0.91962 0.25863 0.62697 0.0
C3103 C 0.91422 0.26909 0.62193 0.0
C3104 C 0.92282 0.28566 0.62658 0.0
C3105 C 0.91473 0.29433 0.61872 0.0
C3106 C 0.90837 0.30117 0.63239 0.0
C3107 C 0.92688 0.30805 0.60694 0.0
C3108 C 0.90031 0.28004 0.60887 0.0
C3109 C 0.90015 0.26557 0.61109 0.0
C3110 C 0.88802 0.2507 0.60338 0.0
C3111 C 0.87593 0.25068 0.59282 0.0
C3112 C 0.87616 0.26547 0.5897 0.0
C3113 C 0.8884 0.28029 0.59825 0.0
H3114 H 0.34177 0.29447 0.63977 0.0
H3115 H 0.3956 0.32579 0.64776 0.0
H3116 H 0.39995 0.31639 0.62022 0.0
H3117 H 0.34221 0.26054 0.62163 0.0
H3118 H 0.32534 0.25499 0.60664 0.0
H3119 H 0.32637 0.26519 0.6263 0.0
H3120 H 0.32572 0.28838 0.61003 0.0
H3121 H 0.32461 0.2782 0.5903 0.0
H3122 H 0.34102 0.29946 0.59415 0.0
H3123 H 0.39847 0.30325 0.59205 0.0
H3124 H 0.39127 0.28616 0.56595 0.0
H3125 H 0.33848 0.26238 0.577 0.0
C3126 C 0.35446 0.29953 0.63562 0.0
C3127 C 0.36835 0.31094 0.64586 0.0
C3128 C 0.38477 0.31704 0.64011 0.0
C3129 C 0.38738 0.31183 0.62447 0.0
C3130 C 0.37343 0.30042 0.61477 0.0
C3131 C 0.3573 0.2943 0.62013 0.0
C3132 C 0.3445 0.28145 0.60774 0.0
C3133 C 0.33399 0.26455 0.61608 0.0
C3134 C 0.33331 0.28722 0.6001 0.0
C3135 C 0.35597 0.28117 0.59469 0.0
C3136 C 0.3726 0.29235 0.59887 0.0
C3137 C 0.3855 0.29436 0.5887 0.0
C3138 C 0.38129 0.28453 0.57395 0.0
C3139 C 0.36432 0.2726 0.56972 0.0
C3140 C 0.35155 0.27117 0.58013 0.0
H3141 H 0.70474 0.05888 0.63514 0.0
H3142 H 0.70264 0.09697 0.66378 0.0
H3143 H 0.70791 0.11299 0.63793 0.0
H3144 H 0.73812 0.08681 0.60775 0.0
H3145 H 0.72934 0.07327 0.58944 0.0
H3146 H 0.72553 0.06471 0.61023 0.0
H3147 H 0.69352 0.04931 0.60423 0.0
H3148 H 0.69724 0.05777 0.58341 0.0
H3149 H 0.68424 0.06087 0.59758 0.0
H3150 H 0.71196 0.12426 0.60889 0.0
H3151 H 0.71532 0.13041 0.57859 0.0
H3152 H 0.71626 0.08588 0.56876 0.0
C3153 C 0.7054 0.07059 0.63599 0.0
C3154 C 0.70325 0.07663 0.65153 0.0
C3155 C 0.70428 0.09207 0.65206 0.0
C3156 C 0.70727 0.10128 0.63744 0.0
C3157 C 0.70936 0.095 0.62236 0.0
C3158 C 0.70854 0.08006 0.62151 0.0
C3159 C 0.71115 0.07612 0.60365 0.0
C3160 C 0.72698 0.07518 0.60272 0.0
C3161 C 0.69561 0.06007 0.59682 0.0
C3162 C 0.71342 0.09112 0.59461 0.0
C3163 C 0.71229 0.10182 0.60564 0.0
C3164 C 0.71315 0.11612 0.60016 0.0
C3165 C 0.71514 0.11955 0.5829 0.0
C3166 C 0.71653 0.10885 0.57133 0.0
C3167 C 0.71567 0.09448 0.57737 0.0
H3168 H 0.93172 0.648 0.63338 0.0
H3169 H 0.95932 0.69435 0.60696 0.0
H3170 H 0.93922 0.6821 0.58295 0.0
H3171 H 0.92135 0.62115 0.59762 0.0
H3172 H 0.90059 0.60607 0.60438 0.0
H3173 H 0.91686 0.61856 0.61981 0.0
H3174 H 0.89838 0.62862 0.63254 0.0
H3175 H 0.88203 0.61613 0.61716 0.0
H3176 H 0.89018 0.63801 0.61906 0.0
H3177 H 0.91737 0.66449 0.56113 0.0
H3178 H 0.89426 0.64284 0.54328 0.0
H3179 H 0.87958 0.60838 0.58435 0.0
C3180 C 0.93349 0.65558 0.62258 0.0
C3181 C 0.94713 0.67214 0.62205 0.0
C3182 C 0.94895 0.68167 0.6077 0.0
C3183 C 0.93761 0.67482 0.59398 0.0
C3184 C 0.92437 0.65848 0.59486 0.0
C3185 C 0.92213 0.64901 0.60883 0.0
C3186 C 0.90683 0.63173 0.60647 0.0
C3187 C 0.91171 0.61861 0.60711 0.0
C3188 C 0.89357 0.62843 0.61959 0.0
C3189 C 0.90104 0.63291 0.58888 0.0
C3190 C 0.91138 0.64844 0.58241 0.0
C3191 C 0.90908 0.65232 0.5661 0.0
C3192 C 0.89595 0.63995 0.55606 0.0
C3193 C 0.88518 0.62392 0.56238 0.0
C3194 C 0.88764 0.62049 0.57914 0.0
H3195 H 0.95472 0.68126 0.71366 0.0
H3196 H 0.98681 0.73319 0.70186 0.0
H3197 H 0.97909 0.74098 0.72845 0.0
H3198 H 0.92182 0.68477 0.73094 0.0
H3199 H 0.91699 0.66984 0.74714 0.0
H3200 H 0.9257 0.66829 0.72763 0.0
H3201 H 0.95001 0.66887 0.74422 0.0
H3202 H 0.94134 0.67037 0.7638 0.0
H3203 H 0.96268 0.6857 0.75895 0.0
H3204 H 0.96802 0.74318 0.75634 0.0
H3205 H 0.95325 0.73955 0.78299 0.0
H3206 H 0.92738 0.68624 0.77601 0.0
C3207 C 0.96025 0.69427 0.71675 0.0
C3208 C 0.97143 0.70662 0.70572 0.0
C3209 C 0.9782 0.72351 0.71011 0.0
C3210 C 0.97394 0.72807 0.7252 0.0
C3211 C 0.96278 0.7156 0.73572 0.0
C3212 C 0.95597 0.69904 0.73167 0.0
C3213 C 0.94378 0.68809 0.74488 0.0
C3214 C 0.92602 0.6771 0.73718 0.0
C3215 C 0.94982 0.67764 0.75347 0.0
C3216 C 0.94478 0.70107 0.75693 0.0
C3217 C 0.95592 0.71686 0.75149 0.0
C3218 C 0.95913 0.73088 0.76065 0.0
C3219 C 0.95063 0.7287 0.77572 0.0
C3220 C 0.93879 0.71261 0.7813 0.0
C3221 C 0.93607 0.69867 0.77184 0.0
H3222 H 0.3136 0.28097 0.72593 0.0
H3223 H 0.36368 0.29068 0.73582 0.0
H3224 H 0.35291 0.27055 0.75863 0.0
H3225 H 0.30205 0.27758 0.76873 0.0
H3226 H 0.28058 0.26116 0.76501 0.0
H3227 H 0.29187 0.27554 0.74859 0.0
H3228 H 0.28537 0.2512 0.7283 0.0
H3229 H 0.27402 0.23673 0.74466 0.0
H3230 H 0.29101 0.23654 0.73459 0.0
H3231 H 0.33754 0.25135 0.78174 0.0
H3232 H 0.31822 0.2336 0.80345 0.0
H3233 H 0.27754 0.23464 0.77784 0.0
C3234 C 0.32226 0.27871 0.73275 0.0
C3235 C 0.33951 0.28746 0.72905 0.0
C3236 C 0.35043 0.28421 0.73841 0.0
C3237 C 0.34444 0.27275 0.75138 0.0
C3238 C 0.32746 0.26452 0.75485 0.0
C3239 C 0.31647 0.26724 0.74578 0.0
C3240 C 0.29893 0.25717 0.75261 0.0
C3241 C 0.29301 0.26854 0.75912 0.0
C3242 C 0.28661 0.24466 0.73924 0.0
C3243 C 0.30187 0.24855 0.76703 0.0
C3244 C 0.31843 0.25302 0.76808 0.0
C3245 C 0.32448 0.24757 0.78095 0.0
C3246 C 0.31336 0.23742 0.79322 0.0
C3247 C 0.29631 0.23269 0.7926 0.0
C3248 C 0.29046 0.23805 0.77897 0.0
H3249 H 0.73185 0.0651 0.74327 0.0
H3250 H 0.73625 0.03557 0.70394 0.0
H3251 H 0.75744 0.03407 0.72155 0.0
H3252 H 0.77552 0.08798 0.75796 0.0
H3253 H 0.77007 0.08724 0.77978 0.0
H3254 H 0.75661 0.08733 0.76338 0.0
H3255 H 0.73154 0.06027 0.77482 0.0
H3256 H 0.74489 0.0601 0.79124 0.0
H3257 H 0.73334 0.04241 0.77718 0.0
H3258 H 0.77809 0.03577 0.74391 0.0
H3259 H 0.79405 0.03795 0.76995 0.0
H3260 H 0.77396 0.06436 0.79512 0.0
C3261 C 0.73746 0.05854 0.7382 0.0
C3262 C 0.73258 0.05062 0.72214 0.0
C3263 C 0.7399 0.04181 0.71618 0.0
C3264 C 0.75198 0.04095 0.72606 0.0
C3265 C 0.75643 0.04884 0.74191 0.0
C3266 C 0.74926 0.05734 0.74798 0.0
C3267 C 0.75513 0.06366 0.76589 0.0
C3268 C 0.76492 0.08268 0.7668 0.0
C3269 C 0.74035 0.05615 0.77799 0.0
C3270 C 0.76655 0.05718 0.76911 0.0
C3271 C 0.76743 0.04896 0.75504 0.0
C3272 C 0.77735 0.04204 0.75504 0.0
C3273 C 0.7863 0.04326 0.76991 0.0
C3274 C 0.78487 0.05092 0.78472 0.0
C3275 C 0.77512 0.05823 0.7841 0.0
H3276 H 0.03507 0.32697 0.01284 0.0
H3277 H 0.04985 0.37015 0.04455 0.0
H3278 H 0.06827 0.36423 0.06156 0.0
H3279 H 0.03021 0.30031 0.04384 0.0
H3280 H 0.03729 0.28918 0.03151 0.0
H3281 H 0.02796 0.29925 0.02116 0.0
H3282 H 0.05411 0.31598 0.0031 0.0
H3283 H 0.06357 0.30576 0.013 0.0
H3284 H 0.07448 0.32804 0.01327 0.0
H3285 H 0.08369 0.35291 0.08273 0.0
H3286 H 0.0954 0.33266 0.09721 0.0
H3287 H 0.06718 0.29244 0.04605 0.0
C3288 C 0.04251 0.33533 0.02316 0.0
C3289 C 0.04119 0.34908 0.02734 0.0
C3290 C 0.05077 0.3596 0.04109 0.0
C3291 C 0.06126 0.35634 0.05081 0.0
C3292 C 0.06202 0.34246 0.04673 0.0
C3293 C 0.05272 0.3318 0.03302 0.0
C3294 C 0.05365 0.31615 0.03071 0.0
C3295 C 0.03625 0.3003 0.03188 0.0
C3296 C 0.06194 0.31651 0.01404 0.0
C3297 C 0.06455 0.31759 0.04536 0.0
C3298 C 0.07064 0.3361 0.05609 0.0
C3299 C 0.0814 0.34185 0.07615 0.0
C3300 C 0.08777 0.32888 0.08575 0.0
C3301 C 0.08526 0.31184 0.07143 0.0
C3302 C 0.06991 0.30336 0.05324 0.0
H3303 H 0.69423 0.71357 0.02756 0.0
H3304 H 0.64564 0.6792 0.0481 0.0
H3305 H 0.65019 0.69986 0.06996 0.0
H3306 H 0.71681 0.7302 0.06499 0.0
H3307 H 0.72992 0.75073 0.05696 0.0
H3308 H 0.72111 0.73304 0.04279 0.0
H3309 H 0.70747 0.74525 0.02443 0.0
H3310 H 0.71636 0.76321 0.0383 0.0
H3311 H 0.69408 0.75122 0.03403 0.0
H3312 H 0.65897 0.7225 0.09643 0.0
H3313 H 0.67671 0.75266 0.11706 0.0
H3314 H 0.72429 0.775 0.07397 0.0
C3315 C 0.68453 0.71057 0.03659 0.0
C3316 C 0.66961 0.69481 0.03616 0.0
C3317 C 0.65716 0.6912 0.04814 0.0
C3318 C 0.65964 0.70284 0.06063 0.0
C3319 C 0.67455 0.71814 0.06102 0.0
C3320 C 0.68708 0.72231 0.04908 0.0
C3321 C 0.70316 0.7396 0.05127 0.0
C3322 C 0.71866 0.7383 0.05417 0.0
C3323 C 0.7054 0.75046 0.03611 0.0
C3324 C 0.69971 0.74629 0.06679 0.0
C3325 C 0.67977 0.73132 0.07328 0.0
C3326 C 0.67099 0.7327 0.09265 0.0
C3327 C 0.68228 0.75092 0.10601 0.0
C3328 C 0.7012 0.76844 0.096 0.0
C3329 C 0.71251 0.76513 0.07867 0.0
H3330 H 0.30187 0.97677 0.02108 0.0
H3331 H 0.314 0.94058 0.03664 0.0
H3332 H 0.28978 0.92794 0.05513 0.0
H3333 H 0.29005 0.98455 0.05919 0.0
H3334 H 0.27352 0.98683 0.05055 0.0
H3335 H 0.29107 0.99126 0.03782 0.0
H3336 H 0.27128 0.97036 0.01488 0.0
H3337 H 0.25348 0.96596 0.02723 0.0
H3338 H 0.25622 0.94936 0.02048 0.0
H3339 H 0.26657 0.91915 0.07974 0.0
H3340 H 0.23906 0.91569 0.09932 0.0
H3341 H 0.24051 0.96111 0.06259 0.0
C3342 C 0.29915 0.966 0.0282 0.0
C3343 C 0.30984 0.95971 0.02749 0.0
C3344 C 0.306 0.94562 0.03692 0.0
C3345 C 0.2923 0.93837 0.04753 0.0
C3346 C 0.28228 0.94508 0.04846 0.0
C3347 C 0.28522 0.95863 0.03872 0.0
C3348 C 0.27307 0.96481 0.04128 0.0
C3349 C 0.28249 0.98293 0.04758 0.0
C3350 C 0.26291 0.96248 0.025 0.0
C3351 C 0.26183 0.95364 0.05467 0.0
C3352 C 0.2685 0.94012 0.05946 0.0
C3353 C 0.26105 0.92637 0.07679 0.0
C3354 C 0.24471 0.92485 0.08962 0.0
C3355 C 0.23457 0.93582 0.08087 0.0
C3356 C 0.24555 0.95361 0.06623 0.0
H3357 H 0.34769 0.04358 0.98305 0.0
H3358 H 0.31521 0.02392 0.02607 0.0
H3359 H 0.30373 0.04141 0.01959 0.0
H3360 H 0.35714 0.08538 0.98819 0.0
H3361 H 0.35728 0.0888 0.96584 0.0
H3362 H 0.36275 0.07447 0.97363 0.0
H3363 H 0.33981 0.05137 0.95405 0.0
H3364 H 0.3342 0.06562 0.94628 0.0
H3365 H 0.3185 0.04641 0.95532 0.0
H3366 H 0.29577 0.06096 0.00867 0.0
H3367 H 0.29267 0.08229 0.99455 0.0
H3368 H 0.33057 0.08979 0.95893 0.0
C3369 C 0.33815 0.04295 0.99109 0.0
C3370 C 0.33235 0.03236 0.00507 0.0
C3371 C 0.31991 0.03197 0.01533 0.0
C3372 C 0.31325 0.04181 0.01173 0.0
C3373 C 0.3192 0.05205 0.99785 0.0
C3374 C 0.33144 0.0528 0.98775 0.0
C3375 C 0.33588 0.06519 0.97384 0.0
C3376 C 0.35436 0.07929 0.97548 0.0
C3377 C 0.33185 0.05663 0.95634 0.0
C3378 C 0.32423 0.07128 0.97773 0.0
C3379 C 0.31465 0.06345 0.99158 0.0
C3380 C 0.30311 0.0671 0.99775 0.0
C3381 C 0.30138 0.07916 0.98962 0.0
C3382 C 0.31108 0.0874 0.97543 0.0
C3383 C 0.32271 0.08342 0.9695 0.0
H3384 H 0.94301 0.29571 0.99286 0.0
H3385 H 0.99344 0.30943 0.00811 0.0
H3386 H 0.98692 0.28151 1.00001 0.0
H3387 H 0.92223 0.25318 0.00733 0.0
H3388 H 0.90738 0.24515 0.98984 0.0
H3389 H 0.91582 0.26606 0.99749 0.0
H3390 H 0.92584 0.27685 0.96743 0.0
H3391 H 0.91756 0.25601 0.95972 0.0
H3392 H 0.93929 0.27153 0.95681 0.0
H3393 H 0.97543 0.25257 0.98904 0.0
H3394 H 0.95926 0.22414 0.97688 0.0
H3395 H 0.91619 0.22903 0.96944 0.0
C3396 C 0.95265 0.29281 0.99466 0.0
C3397 C 0.96876 0.30481 0.0011 0.0
C3398 C 0.98101 0.30049 0.0032 0.0
C3399 C 0.97744 0.28465 0.99863 0.0
C3400 C 0.96153 0.27321 0.99208 0.0
C3401 C 0.94928 0.27703 0.99023 0.0
C3402 C 0.93326 0.26252 0.98267 0.0
C3403 C 0.91882 0.25636 0.99508 0.0
C3404 C 0.92873 0.267 0.96565 0.0
C3405 C 0.93851 0.25006 0.98034 0.0
C3406 C 0.95486 0.25647 0.98584 0.0
C3407 C 0.96261 0.2474 0.98469 0.0
C3408 C 0.95338 0.23133 0.97771 0.0
C3409 C 0.93663 0.22452 0.97188 0.0
C3410 C 0.92907 0.23399 0.97347 0.0
H3411 H 0.70385 0.67787 0.99923 0.0
H3412 H 0.69173 0.63219 0.97337 0.0
H3413 H 0.72009 0.64614 0.96189 0.0
H3414 H 0.72945 0.7056 0.96654 0.0
H3415 H 0.7444 0.72127 0.98118 0.0
H3416 H 0.72296 0.70784 0.98718 0.0
H3417 H 0.73288 0.69903 0.01347 0.0
H3418 H 0.75434 0.71243 0.00757 0.0
H3419 H 0.74616 0.69076 0.01082 0.0
H3420 H 0.74939 0.6649 0.95284 0.0
H3421 H 0.7786 0.68684 0.94821 0.0
H3422 H 0.77208 0.72038 0.98035 0.0
C3423 C 0.70714 0.67081 0.99113 0.0
C3424 C 0.69551 0.65391 0.9872 0.0
C3425 C 0.70038 0.64512 0.9766 0.0
C3426 C 0.71646 0.65295 0.96996 0.0
C3427 C 0.72758 0.66958 0.97405 0.0
C3428 C 0.7232 0.67842 0.98443 0.0
C3429 C 0.73774 0.69609 0.9871 0.0
C3430 C 0.73337 0.70843 0.98008 0.0
C3431 C 0.74309 0.69979 0.00585 0.0
C3432 C 0.75096 0.69571 0.97669 0.0
C3433 C 0.74476 0.68033 0.96919 0.0
C3434 C 0.75449 0.67695 0.95885 0.0
C3435 C 0.77114 0.68952 0.95639 0.0
C3436 C 0.77816 0.70526 0.96454 0.0
C3437 C 0.7676 0.70844 0.97439 0.0
H3438 H 0.96848 0.66226 0.98325 0.0
H3439 H 0.96151 0.67875 0.03201 0.0
H3440 H 0.9501 0.69382 0.01782 0.0
H3441 H 0.98383 0.69869 0.96373 0.0
H3442 H 0.97392 0.69045 0.94335 0.0
H3443 H 0.97813 0.67812 0.95713 0.0
H3444 H 0.9468 0.65474 0.9557 0.0
H3445 H 0.94248 0.66696 0.9417 0.0
H3446 H 0.93104 0.65936 0.96091 0.0
H3447 H 0.94496 0.71141 0.99856 0.0
H3448 H 0.94473 0.72869 0.97568 0.0
H3449 H 0.95412 0.70024 0.93931 0.0
C3450 C 0.96397 0.66852 0.99098 0.0
C3451 C 0.96585 0.66927 0.00876 0.0
C3452 C 0.96012 0.6779 0.01838 0.0
C3453 C 0.9536 0.6865 0.01043 0.0
C3454 C 0.95266 0.68616 0.99284 0.0
C3455 C 0.95743 0.67716 0.98323 0.0
C3456 C 0.95688 0.68023 0.96458 0.0
C3457 C 0.97422 0.6873 0.95676 0.0
C3458 C 0.9435 0.66438 0.95517 0.0
C3459 C 0.95187 0.69298 0.96526 0.0
C3460 C 0.94928 0.69609 0.98166 0.0
C3461 C 0.9464 0.70871 0.98562 0.0
C3462 C 0.94629 0.71847 0.97252 0.0
C3463 C 0.94891 0.71547 0.95562 0.0
C3464 C 0.95152 0.70242 0.95203 0.0
H3465 H 0.34497 0.29684 0.0029 0.0
H3466 H 0.33453 0.31657 0.95849 0.0
H3467 H 0.3185 0.28848 0.94566 0.0
H3468 H 0.34796 0.26368 0.98023 0.0
H3469 H 0.33801 0.24947 0.99717 0.0
H3470 H 0.35074 0.2714 0.00167 0.0
H3471 H 0.32583 0.27017 0.0168 0.0
H3472 H 0.31301 0.24834 0.01223 0.0
H3473 H 0.30609 0.2619 0.00555 0.0
H3474 H 0.29969 0.25785 0.93992 0.0
H3475 H 0.28149 0.22743 0.94081 0.0
H3476 H 0.30533 0.22776 0.98823 0.0
C3477 C 0.33973 0.29534 0.99028 0.0
C3478 C 0.34103 0.30892 0.9817 0.0
C3479 C 0.33381 0.30639 0.96527 0.0
C3480 C 0.32466 0.29046 0.95787 0.0
C3481 C 0.32309 0.27725 0.96694 0.0
C3482 C 0.33068 0.27957 0.98267 0.0
C3483 C 0.3261 0.26323 0.99034 0.0
C3484 C 0.34163 0.26187 0.99247 0.0
C3485 C 0.31723 0.26077 0.00722 0.0
C3486 C 0.31422 0.25132 0.97679 0.0
C3487 C 0.3127 0.25961 0.96334 0.0
C3488 C 0.30114 0.2512 0.95014 0.0
C3489 C 0.29084 0.2339 0.95076 0.0
C3490 C 0.2923 0.22518 0.96441 0.0
C3491 C 0.3043 0.23408 0.97743 0.0
H3492 H 0.7281 0.06507 0.99552 0.0
H3493 H 0.70867 0.01248 0.9993 0.0
H3494 H 0.7362 0.01725 0.99161 0.0
H3495 H 0.75427 0.07254 0.96019 0.0
H3496 H 0.771 0.09244 0.96802 0.0
H3497 H 0.74973 0.08496 0.9738 0.0
H3498 H 0.75842 0.08852 0.0055 0.0
H3499 H 0.77974 0.09615 0.99982 0.0
H3500 H 0.7691 0.07872 0.0135 0.0
H3501 H 0.76548 0.02756 0.98213 0.0
H3502 H 0.79532 0.04315 0.97444 0.0
H3503 H 0.79603 0.08908 0.97839 0.0
C3504 C 0.72964 0.05456 0.99478 0.0
C3505 C 0.71619 0.03838 0.99795 0.0
C3506 C 0.71877 0.02498 0.99697 0.0
C3507 C 0.73435 0.02755 0.99253 0.0
C3508 C 0.74728 0.04362 0.98928 0.0
C3509 C 0.74517 0.05692 0.99057 0.0
C3510 C 0.76121 0.07299 0.98684 0.0
C3511 C 0.75891 0.08121 0.97128 0.0
C3512 C 0.76749 0.08479 0.00234 0.0
C3513 C 0.77265 0.06663 0.98319 0.0
C3514 C 0.76433 0.04963 0.98449 0.0
C3515 C 0.77219 0.0409 0.98129 0.0
C3516 C 0.78912 0.04984 0.97695 0.0
C3517 C 0.79804 0.06732 0.97615 0.0
C3518 C 0.78957 0.07574 0.97911 0.0
H3519 H 0.68685 0.96896 0.01749 0.0
H3520 H 0.64165 0.96145 0.04026 0.0
H3521 H 0.63883 0.93775 0.05586 0.0
H3522 H 0.67375 0.92619 0.01255 0.0
H3523 H 0.69412 0.92967 0.01783 0.0
H3524 H 0.69236 0.94582 0.00828 0.0
H3525 H 0.70967 0.96577 0.03321 0.0
H3526 H 0.71144 0.94966 0.04286 0.0
H3527 H 0.70286 0.9598 0.05451 0.0
H3528 H 0.64073 0.9146 0.06857 0.0
H3529 H 0.64747 0.89395 0.07785 0.0
H3530 H 0.69218 0.91756 0.04783 0.0
C3531 C 0.67629 0.96227 0.02566 0.0
C3532 C 0.66439 0.96697 0.02758 0.0
C3533 C 0.65088 0.95804 0.03859 0.0
C3534 C 0.64918 0.94457 0.04749 0.0
C3535 C 0.66118 0.94032 0.04537 0.0
C3536 C 0.67452 0.94896 0.03479 0.0
C3537 C 0.68587 0.94209 0.03499 0.0
C3538 C 0.68656 0.93555 0.01737 0.0
C3539 C 0.7035 0.95511 0.0418 0.0
C3540 C 0.67675 0.92812 0.0472 0.0
C3541 C 0.66252 0.92728 0.05302 0.0
C3542 C 0.65187 0.91516 0.06414 0.0
C3543 C 0.65579 0.90351 0.06933 0.0
C3544 C 0.67026 0.90408 0.06345 0.0
C3545 C 0.68097 0.91673 0.05243 0.0
H3546 H 0.06298 0.7216 0.03368 0.0
H3547 H 0.00992 0.70377 0.03536 0.0
H3548 H 0.01668 0.73224 0.041 0.0
H3549 H 0.07716 0.75403 0.06628 0.0
H3550 H 0.09585 0.76834 0.05528 0.0
H3551 H 0.08694 0.74638 0.05266 0.0
H3552 H 0.08528 0.74886 0.02024 0.0
H3553 H 0.09423 0.7708 0.02276 0.0
H3554 H 0.0744 0.75825 0.01171 0.0
H3555 H 0.02908 0.76266 0.04579 0.0
H3556 H 0.04636 0.79325 0.04743 0.0
H3557 H 0.0912 0.79142 0.04138 0.0
C3558 C 0.0528 0.72367 0.03544 0.0
C3559 C 0.03593 0.71046 0.03419 0.0
C3560 C 0.02295 0.71371 0.03627 0.0
C3561 C 0.02665 0.72982 0.03956 0.0
C3562 C 0.0434 0.74258 0.04063 0.0
C3563 C 0.05627 0.73973 0.03852 0.0
C3564 C 0.07316 0.75577 0.03923 0.0
C3565 C 0.08391 0.75615 0.05426 0.0
C3566 C 0.0823 0.75858 0.02249 0.0
C3567 C 0.06774 0.76808 0.04185 0.0
C3568 C 0.05054 0.7602 0.04287 0.0
C3569 C 0.04257 0.76898 0.04504 0.0
C3570 C 0.05245 0.7863 0.04596 0.0
C3571 C 0.07007 0.79464 0.04451 0.0
C3572 C 0.07776 0.78535 0.04259 0.0
H3573 H 0.3064 0.34752 0.0487 0.0
H3574 H 0.29888 0.31877 0.00287 0.0
H3575 H 0.27099 0.29701 0.01256 0.0
H3576 H 0.28705 0.31265 0.07626 0.0
H3577 H 0.27807 0.32146 0.08943 0.0
H3578 H 0.29724 0.3348 0.07866 0.0
H3579 H 0.28376 0.34975 0.0647 0.0
H3580 H 0.26456 0.33646 0.07543 0.0
H3581 H 0.26437 0.3378 0.05276 0.0
H3582 H 0.24342 0.27882 0.02707 0.0
H3583 H 0.21899 0.26525 0.04574 0.0
H3584 H 0.24585 0.30534 0.08262 0.0
C3585 C 0.29885 0.33669 0.04066 0.0
C3586 C 0.30471 0.33488 0.02497 0.0
C3587 C 0.29459 0.3204 0.01493 0.0
C3588 C 0.27874 0.308 0.02032 0.0
C3589 C 0.27335 0.31018 0.03587 0.0
C3590 C 0.28318 0.3241 0.04596 0.0
C3591 C 0.27472 0.32332 0.0623 0.0
C3592 C 0.28487 0.32304 0.07756 0.0
C3593 C 0.27167 0.33768 0.06388 0.0
C3594 C 0.25846 0.30691 0.05974 0.0
C3595 C 0.25783 0.29952 0.04441 0.0
C3596 C 0.2438 0.28448 0.03913 0.0
C3597 C 0.23001 0.27688 0.04977 0.0
C3598 C 0.23037 0.28432 0.06549 0.0
C3599 C 0.24498 0.29939 0.0706 0.0
H3600 H 0.70294 0.67972 0.37391 0.0
H3601 H 0.69735 0.65859 0.32369 0.0
H3602 H 0.71077 0.64375 0.33355 0.0
H3603 H 0.74343 0.68559 0.38521 0.0
H3604 H 0.7379 0.68111 0.40703 0.0
H3605 H 0.7289 0.69028 0.39438 0.0
H3606 H 0.69927 0.6665 0.40174 0.0
H3607 H 0.70797 0.65697 0.41423 0.0
H3608 H 0.69321 0.6454 0.39723 0.0
H3609 H 0.72074 0.62381 0.34742 0.0
H3610 H 0.73327 0.60942 0.37099 0.0
H3611 H 0.73337 0.64836 0.41718 0.0
C3612 C 0.70478 0.67209 0.36504 0.0
C3613 C 0.69913 0.67029 0.34806 0.0
C3614 C 0.70163 0.66022 0.33674 0.0
C3615 C 0.70923 0.65172 0.34222 0.0
C3616 C 0.71445 0.65347 0.35902 0.0
C3617 C 0.71247 0.66363 0.37061 0.0
C3618 C 0.71838 0.66393 0.389 0.0
C3619 C 0.73302 0.68125 0.39421 0.0
C3620 C 0.70385 0.65784 0.40126 0.0
C3621 C 0.72417 0.65198 0.38813 0.0
C3622 C 0.7215 0.64501 0.3672 0.0
C3623 C 0.72373 0.62828 0.36037 0.0
C3624 C 0.7304 0.61852 0.37512 0.0
C3625 C 0.73778 0.6296 0.39605 0.0
C3626 C 0.7308 0.64352 0.40435 0.0
H3627 H 0.32198 0.0306 0.3641 0.0
H3628 H 0.3619 0.02504 0.38452 0.0
H3629 H 0.37699 0.05409 0.39471 0.0
H3630 H 0.3481 0.07195 0.34981 0.0
H3631 H 0.33379 0.07836 0.35544 0.0
H3632 H 0.3259 0.057 0.35003 0.0
H3633 H 0.31096 0.04818 0.37866 0.0
H3634 H 0.31884 0.06953 0.38417 0.0
H3635 H 0.32295 0.05707 0.398 0.0
H3636 H 0.38825 0.08391 0.40185 0.0
H3637 H 0.39474 0.11254 0.40576 0.0
H3638 H 0.34733 0.09872 0.38134 0.0
C3639 C 0.33388 0.03547 0.37075 0.0
C3640 C 0.34075 0.02552 0.3735 0.0
C3641 C 0.35635 0.03239 0.38228 0.0
C3642 C 0.36503 0.04888 0.38813 0.0
C3643 C 0.35792 0.05835 0.38519 0.0
C3644 C 0.34269 0.05191 0.37675 0.0
C3645 C 0.33791 0.0648 0.37515 0.0
C3646 C 0.33634 0.06823 0.3565 0.0
C3647 C 0.3217 0.05958 0.38456 0.0
C3648 C 0.35293 0.07953 0.38384 0.0
C3649 C 0.36431 0.07552 0.38955 0.0
C3650 C 0.37937 0.08717 0.39757 0.0
C3651 C 0.38293 0.10338 0.39976 0.0
C3652 C 0.37144 0.10779 0.39406 0.0
C3653 C 0.35623 0.09564 0.38602 0.0
H3654 H 0.97571 0.314 0.37985 0.0
H3655 H 0.96132 0.26567 0.35923 0.0
H3656 H 0.934 0.25341 0.37292 0.0
H3657 H 0.95841 0.29988 0.41964 0.0
H3658 H 0.95151 0.3142 0.4225 0.0
H3659 H 0.96916 0.31962 0.40949 0.0
H3660 H 0.95459 0.32481 0.38441 0.0
H3661 H 0.9369 0.31948 0.39738 0.0
H3662 H 0.93384 0.3087 0.37751 0.0
H3663 H 0.90925 0.24598 0.39053 0.0
H3664 H 0.88871 0.24385 0.41098 0.0
H3665 H 0.91951 0.29697 0.42061 0.0
C3666 C 0.96665 0.30091 0.37792 0.0
C3667 C 0.97057 0.2908 0.36838 0.0
C3668 C 0.95856 0.27365 0.36647 0.0
C3669 C 0.94298 0.26657 0.37416 0.0
C3670 C 0.93963 0.27679 0.38378 0.0
C3671 C 0.95109 0.29359 0.38569 0.0
C3672 C 0.94483 0.30154 0.39775 0.0
C3673 C 0.95668 0.30926 0.41326 0.0
C3674 C 0.94239 0.31439 0.38871 0.0
C3675 C 0.92818 0.28655 0.40244 0.0
C3676 C 0.92537 0.27244 0.39413 0.0
C3677 C 0.9112 0.25699 0.39694 0.0
C3678 C 0.8996 0.25591 0.4086 0.0
C3679 C 0.90212 0.27017 0.41735 0.0
C3680 C 0.91674 0.28572 0.41413 0.0
H3681 H 0.98926 0.35337 0.31684 0.0
H3682 H 0.03654 0.3815 0.34475 0.0
H3683 H 0.03811 0.40749 0.3373 0.0
H3684 H 0.99954 0.38181 0.28293 0.0
H3685 H 0.9788 0.37847 0.28132 0.0
H3686 H 0.98163 0.36218 0.2886 0.0
H3687 H 0.96595 0.36022 0.31598 0.0
H3688 H 0.96299 0.37642 0.30874 0.0
H3689 H 0.97308 0.37854 0.32895 0.0
H3690 H 0.03424 0.43048 0.32684 0.0
H3691 H 0.02465 0.44831 0.31521 0.0
H3692 H 0.97986 0.40482 0.29463 0.0
C3693 C 0.99998 0.36497 0.32138 0.0
C3694 C 0.0128 0.36539 0.33136 0.0
C3695 C 0.02656 0.38087 0.3371 0.0
C3696 C 0.02759 0.3957 0.33289 0.0
C3697 C 0.01474 0.39482 0.32297 0.0
C3698 C 0.00117 0.37983 0.31736 0.0
C3699 C 0.98881 0.38217 0.30722 0.0
C3700 C 0.9871 0.37578 0.28893 0.0
C3701 C 0.9717 0.37385 0.31573 0.0
C3702 C 0.99748 0.40082 0.30803 0.0
C3703 C 0.01248 0.40794 0.31707 0.0
C3704 C 0.02256 0.42503 0.31967 0.0
C3705 C 0.01707 0.43506 0.31299 0.0
C3706 C 0.00165 0.42796 0.30381 0.0
C3707 C 0.99181 0.41061 0.30135 0.0
H3708 H 0.6452 0.64174 0.32421 0.0
H3709 H 0.60768 0.65215 0.30663 0.0
H3710 H 0.58983 0.62327 0.29643 0.0
H3711 H 0.63924 0.61325 0.28942 0.0
H3712 H 0.64233 0.59987 0.30289 0.0
H3713 H 0.65262 0.62164 0.30802 0.0
H3714 H 0.63947 0.61471 0.33757 0.0
H3715 H 0.62904 0.59293 0.33251 0.0
H3716 H 0.61704 0.60174 0.3392 0.0
H3717 H 0.57534 0.59307 0.28969 0.0
H3718 H 0.56528 0.56361 0.2861 0.0
H3719 H 0.61256 0.57271 0.30712 0.0
C3720 C 0.63331 0.63801 0.31805 0.0
C3721 C 0.62785 0.64925 0.31624 0.0
C3722 C 0.61217 0.64381 0.30816 0.0
C3723 C 0.60192 0.62742 0.30231 0.0
C3724 C 0.60757 0.61662 0.30452 0.0
C3725 C 0.62294 0.62168 0.31206 0.0
C3726 C 0.62581 0.60744 0.31322 0.0
C3727 C 0.6409 0.61075 0.30276 0.0
C3728 C 0.62796 0.60401 0.33172 0.0
C3729 C 0.60951 0.59353 0.30543 0.0
C3730 C 0.5992 0.59912 0.3005 0.0
C3731 C 0.5833 0.58852 0.29349 0.0
C3732 C 0.57767 0.5717 0.2916 0.0
C3733 C 0.58788 0.5655 0.29681 0.0
C3734 C 0.6042 0.57679 0.30343 0.0
H3735 H 0.35674 0.99564 0.32736 0.0
H3736 H 0.33563 0.94258 0.32364 0.0
H3737 H 0.36175 0.94745 0.31141 0.0
H3738 H 0.37844 0.00549 0.28828 0.0
H3739 H 0.39644 0.02454 0.29615 0.0
H3740 H 0.37623 0.01707 0.30512 0.0
H3741 H 0.38845 0.01788 0.3349 0.0
H3742 H 0.40873 0.02545 0.32604 0.0
H3743 H 0.39916 0.00699 0.33838 0.0
H3744 H 0.38991 0.95777 0.29976 0.0
H3745 H 0.41865 0.97311 0.28907 0.0
H3746 H 0.42162 0.01952 0.29951 0.0
C3747 C 0.35765 0.98505 0.32407 0.0
C3748 C 0.34411 0.96872 0.32649 0.0
C3749 C 0.34579 0.95521 0.32191 0.0
C3750 C 0.36059 0.95783 0.31495 0.0
C3751 C 0.37361 0.97404 0.31259 0.0
C3752 C 0.37235 0.98744 0.317 0.0
C3753 C 0.38822 0.00358 0.3129 0.0
C3754 C 0.38461 0.01323 0.29983 0.0
C3755 C 0.39664 0.01409 0.32902 0.0
C3756 C 0.39854 0.99711 0.30547 0.0
C3757 C 0.38986 0.98002 0.30547 0.0
C3758 C 0.3968 0.97114 0.29953 0.0
C3759 C 0.41308 0.97996 0.2934 0.0
C3760 C 0.42219 0.99749 0.29303 0.0
C3761 C 0.41481 0.00613 0.2993 0.0
H3762 H 0.6469 0.9988 0.31361 0.0
H3763 H 0.62364 0.9456 0.31711 0.0
H3764 H 0.59697 0.94162 0.3061 0.0
H3765 H 0.61252 0.00025 0.32802 0.0
H3766 H 0.61546 0.01651 0.31427 0.0
H3767 H 0.63314 0.01513 0.32074 0.0
H3768 H 0.64014 0.01408 0.28941 0.0
H3769 H 0.62249 0.01551 0.28283 0.0
H3770 H 0.62431 0.99857 0.27525 0.0
H3771 H 0.57241 0.94352 0.29662 0.0
H3772 H 0.55166 0.95118 0.2895 0.0
H3773 H 0.59082 0.00313 0.29281 0.0
C3774 C 0.6363 0.98629 0.31175 0.0
C3775 C 0.63738 0.9725 0.3161 0.0
C3776 C 0.62311 0.95635 0.31381 0.0
C3777 C 0.60793 0.95396 0.30753 0.0
C3778 C 0.60722 0.96785 0.30364 0.0
C3779 C 0.62102 0.9837 0.30565 0.0
C3780 C 0.61667 0.99656 0.30158 0.0
C3781 C 0.61962 0.00777 0.31707 0.0
C3782 C 0.62649 0.00678 0.28636 0.0
C3783 C 0.5982 0.98548 0.29721 0.0
C3784 C 0.59302 0.96896 0.29832 0.0
C3785 C 0.57636 0.95641 0.29548 0.0
C3786 C 0.56468 0.96086 0.29143 0.0
C3787 C 0.5697 0.97771 0.29023 0.0
C3788 C 0.5867 0.99014 0.29323 0.0
H3789 H 0.01921 0.66341 0.31473 0.0
H3790 H 0.99981 0.64578 0.36455 0.0
H3791 H 0.98946 0.61715 0.3549 0.0
H3792 H 0.98554 0.63033 0.29147 0.0
H3793 H 0.99841 0.6294 0.27539 0.0
H3794 H 0.00518 0.64865 0.28642 0.0
H3795 H 0.03299 0.65086 0.29521 0.0
H3796 H 0.02631 0.6316 0.28417 0.0
H3797 H 0.03238 0.63404 0.3062 0.0
H3798 H 0.97961 0.59032 0.33943 0.0
H3799 H 0.97141 0.56713 0.31928 0.0
H3800 H 0.99789 0.60212 0.27973 0.0
C3801 C 0.01293 0.65356 0.32367 0.0
C3802 C 0.01034 0.65687 0.34042 0.0
C3803 C 0.00199 0.64359 0.35167 0.0
C3804 C 0.99607 0.62727 0.34632 0.0
C3805 C 0.99869 0.62442 0.3297 0.0
C3806 C 0.007 0.63719 0.31855 0.0
C3807 C 0.00773 0.6307 0.30123 0.0
C3808 C 0.99867 0.63502 0.28784 0.0
C3809 C 0.02594 0.63719 0.29643 0.0
C3810 C 0.99829 0.61227 0.30432 0.0
C3811 C 0.99322 0.60893 0.32083 0.0
C3812 C 0.98367 0.59278 0.32652 0.0
C3813 C 0.97907 0.5797 0.31498 0.0
C3814 C 0.98408 0.58282 0.29797 0.0
C3815 C 0.99398 0.59937 0.29268 0.0
H3816 H 0.36542 0.36899 0.32615 0.0
H3817 H 0.34958 0.37668 0.27724 0.0
H3818 H 0.37676 0.3836 0.26546 0.0
H3819 H 0.40871 0.40341 0.32344 0.0
H3820 H 0.41701 0.39269 0.33453 0.0
H3821 H 0.39629 0.38827 0.33891 0.0
H3822 H 0.38417 0.35717 0.33222 0.0
H3823 H 0.40483 0.36152 0.32768 0.0
H3824 H 0.38814 0.35104 0.31208 0.0
H3825 H 0.40478 0.38727 0.25864 0.0
H3826 H 0.43275 0.39091 0.25797 0.0
H3827 H 0.43152 0.38421 0.3122 0.0
C3828 C 0.36775 0.37222 0.31299 0.0
C3829 C 0.35545 0.37223 0.30254 0.0
C3830 C 0.35892 0.37668 0.28543 0.0
C3831 C 0.37426 0.38054 0.27863 0.0
C3832 C 0.38609 0.38026 0.28924 0.0
C3833 C 0.38314 0.37656 0.30613 0.0
C3834 C 0.39812 0.37766 0.31495 0.0
C3835 C 0.40547 0.39133 0.32877 0.0
C3836 C 0.39353 0.36085 0.32215 0.0
C3837 C 0.40983 0.38225 0.30031 0.0
C3838 C 0.4026 0.38347 0.28554 0.0
C3839 C 0.41068 0.38661 0.27019 0.0
C3840 C 0.42661 0.38864 0.26995 0.0
C3841 C 0.43447 0.38785 0.28507 0.0
C3842 C 0.4259 0.38478 0.30041 0.0
H3843 H 0.32078 0.31071 0.36655 0.0
H3844 H 0.32525 0.29752 0.31508 0.0
H3845 H 0.33729 0.28165 0.32576 0.0
H3846 H 0.35883 0.31691 0.38215 0.0
H3847 H 0.3512 0.30818 0.40253 0.0
H3848 H 0.34151 0.31735 0.39107 0.0
H3849 H 0.31263 0.29008 0.39277 0.0
H3850 H 0.32222 0.28085 0.40437 0.0
H3851 H 0.31025 0.27096 0.38524 0.0
H3852 H 0.35115 0.26935 0.34168 0.0
H3853 H 0.36503 0.26059 0.36202 0.0
H3854 H 0.35053 0.28059 0.40324 0.0
C3855 C 0.32402 0.30425 0.35753 0.0
C3856 C 0.32205 0.30537 0.33997 0.0
C3857 C 0.32659 0.29684 0.3286 0.0
C3858 C 0.33345 0.28777 0.33453 0.0
C3859 C 0.33554 0.28718 0.35188 0.0
C3860 C 0.33081 0.29504 0.36325 0.0
C3861 C 0.33505 0.29297 0.38123 0.0
C3862 C 0.34738 0.30986 0.38974 0.0
C3863 C 0.31908 0.28312 0.3915 0.0
C3864 C 0.34326 0.2831 0.37813 0.0
C3865 C 0.34338 0.27987 0.36111 0.0
C3866 C 0.35103 0.27169 0.35506 0.0
C3867 C 0.35893 0.26682 0.36669 0.0
C3868 C 0.35921 0.2702 0.3842 0.0
C3869 C 0.35085 0.27808 0.38995 0.0
H3870 H 0.71611 0.02226 0.38941 0.0
H3871 H 0.68204 0.01682 0.34864 0.0
H3872 H 0.68789 0.04489 0.35516 0.0
H3873 H 0.70453 0.04374 0.41811 0.0
H3874 H 0.72546 0.05691 0.42673 0.0
H3875 H 0.71893 0.03661 0.41847 0.0
H3876 H 0.74402 0.04951 0.39831 0.0
H3877 H 0.7506 0.06986 0.40647 0.0
H3878 H 0.74673 0.0654 0.38413 0.0
H3879 H 0.69744 0.07364 0.36633 0.0
H3880 H 0.70937 0.10043 0.38184 0.0
H3881 H 0.7364 0.08643 0.41563 0.0
C3882 C 0.70994 0.02698 0.38177 0.0
C3883 C 0.69869 0.01736 0.36845 0.0
C3884 C 0.69073 0.02396 0.3589 0.0
C3885 C 0.69399 0.0399 0.36248 0.0
C3886 C 0.70516 0.04904 0.37571 0.0
C3887 C 0.71293 0.04277 0.38526 0.0
C3888 C 0.72402 0.05488 0.39911 0.0
C3889 C 0.71786 0.0476 0.41664 0.0
C3890 C 0.74243 0.06023 0.39686 0.0
C3891 C 0.72134 0.06898 0.39581 0.0
C3892 C 0.71048 0.06543 0.38224 0.0
C3893 C 0.70604 0.07659 0.37692 0.0
C3894 C 0.71289 0.09177 0.38574 0.0
C3895 C 0.7241 0.09566 0.39966 0.0
C3896 C 0.72818 0.08397 0.4048 0.0
H3897 H 0.97877 0.67942 0.36621 0.0
H3898 H 0.98438 0.72768 0.37088 0.0
H3899 H 0.95622 0.7147 0.38294 0.0
H3900 H 0.93409 0.65585 0.35551 0.0
H3901 H 0.93016 0.63834 0.36776 0.0
H3902 H 0.95031 0.65128 0.35848 0.0
H3903 H 0.96476 0.6562 0.38791 0.0
H3904 H 0.94467 0.64332 0.39728 0.0
H3905 H 0.95848 0.66424 0.40506 0.0
H3906 H 0.92771 0.69659 0.3949 0.0
H3907 H 0.90147 0.67488 0.40737 0.0
H3908 H 0.91494 0.63858 0.39553 0.0
C3909 C 0.974 0.68725 0.36958 0.0
C3910 C 0.98375 0.70457 0.36752 0.0
C3911 C 0.97715 0.71439 0.37233 0.0
C3912 C 0.96114 0.70712 0.37914 0.0
C3913 C 0.95193 0.69004 0.38112 0.0
C3914 C 0.95812 0.68023 0.37653 0.0
C3915 C 0.946 0.66229 0.38075 0.0
C3916 C 0.93977 0.65129 0.36466 0.0
C3917 C 0.95396 0.65616 0.39351 0.0
C3918 C 0.9321 0.6636 0.3886 0.0
C3919 C 0.93571 0.67968 0.38854 0.0
C3920 C 0.92482 0.68397 0.39515 0.0
C3921 C 0.90998 0.67154 0.40229 0.0
C3922 C 0.90622 0.65501 0.40315 0.0
C3923 C 0.91736 0.65103 0.3957 0.0
H3924 H 0.35035 0.99083 0.70805 0.0
H3925 H 0.38439 0.04258 0.69734 0.0
H3926 H 0.4068 0.04246 0.71394 0.0
H3927 H 0.36227 0.99079 0.74997 0.0
H3928 H 0.35908 0.97039 0.74819 0.0
H3929 H 0.3471 0.97589 0.73491 0.0
H3930 H 0.35719 0.96807 0.70833 0.0
H3931 H 0.36922 0.9624 0.72133 0.0
H3932 H 0.37931 0.97746 0.7051 0.0
H3933 H 0.42965 0.04098 0.73584 0.0
H3934 H 0.4457 0.02806 0.75683 0.0
H3935 H 0.39076 0.97083 0.75136 0.0
C3936 C 0.36257 0.00208 0.70924 0.0
C3937 C 0.36569 0.01672 0.70153 0.0
C3938 C 0.38177 0.03122 0.70314 0.0
C3939 C 0.39455 0.03128 0.71257 0.0
C3940 C 0.39114 0.01672 0.72017 0.0
C3941 C 0.37531 0.002 0.71855 0.0
C3942 C 0.3732 0.98674 0.72757 0.0
C3943 C 0.35961 0.9806 0.74094 0.0
C3944 C 0.36951 0.97285 0.71483 0.0
C3945 C 0.39001 0.99349 0.73581 0.0
C3946 C 0.40234 0.01424 0.73049 0.0
C3947 C 0.42302 0.02802 0.73893 0.0
C3948 C 0.43273 0.02036 0.7527 0.0
C3949 C 0.42086 0.9972 0.75386 0.0
C3950 C 0.39785 0.98402 0.7493 0.0
H3951 H 0.96732 0.34893 0.69931 0.0
H3952 H 0.0217 0.3772 0.70083 0.0
H3953 H 0.02167 0.40234 0.70891 0.0
H3954 H 0.96163 0.38001 0.68206 0.0
H3955 H 0.94384 0.37517 0.69464 0.0
H3956 H 0.9481 0.35927 0.68941 0.0
H3957 H 0.94867 0.35335 0.72118 0.0
H3958 H 0.94438 0.36922 0.72651 0.0
H3959 H 0.96253 0.37003 0.73555 0.0
H3960 H 0.01576 0.42469 0.71526 0.0
H3961 H 0.00433 0.44255 0.72027 0.0
H3962 H 0.95386 0.39942 0.71646 0.0
C3963 C 0.97922 0.3604 0.7014 0.0
C3964 C 0.99452 0.36113 0.69939 0.0
C3965 C 0.00983 0.37634 0.70234 0.0
C3966 C 0.00994 0.39069 0.70692 0.0
C3967 C 0.99465 0.38958 0.70873 0.0
C3968 C 0.97957 0.37481 0.70622 0.0
C3969 C 0.96491 0.377 0.70898 0.0
C3970 C 0.95398 0.3726 0.69281 0.0
C3971 C 0.95451 0.36679 0.72395 0.0
C3972 C 0.97411 0.39538 0.71306 0.0
C3973 C 0.99125 0.4024 0.71283 0.0
C3974 C 0.00235 0.41932 0.71555 0.0
C3975 C 0.99575 0.42936 0.71836 0.0
C3976 C 0.97821 0.42249 0.7184 0.0
C3977 C 0.96731 0.40517 0.71617 0.0
H3978 H 0.63191 0.64582 0.69391 0.0
H3979 H 0.64928 0.63248 0.73848 0.0
H3980 H 0.62309 0.62489 0.75274 0.0
H3981 H 0.60916 0.66205 0.71547 0.0
H3982 H 0.5921 0.65321 0.70016 0.0
H3983 H 0.61283 0.65902 0.69384 0.0
H3984 H 0.60132 0.62928 0.68214 0.0
H3985 H 0.58057 0.62341 0.68835 0.0
H3986 H 0.58971 0.61196 0.69578 0.0
H3987 H 0.59503 0.61813 0.76199 0.0
H3988 H 0.56565 0.61039 0.76487 0.0
H3989 H 0.56571 0.62642 0.71369 0.0
C3990 C 0.63023 0.64148 0.70674 0.0
C3991 C 0.64262 0.63982 0.71516 0.0
C3992 C 0.6399 0.63381 0.73181 0.0
C3993 C 0.62513 0.62956 0.74005 0.0
C3994 C 0.6131 0.63122 0.73141 0.0
C3995 C 0.61536 0.63685 0.71507 0.0
C3996 C 0.59986 0.63623 0.70825 0.0
C3997 C 0.60372 0.65367 0.70419 0.0
C3998 C 0.59243 0.62452 0.69272 0.0
C3999 C 0.58855 0.62927 0.72328 0.0
C4000 C 0.59656 0.62674 0.73657 0.0
C4001 C 0.58864 0.62016 0.75171 0.0
C4002 C 0.572 0.61586 0.75325 0.0
C4003 C 0.56333 0.61802 0.73973 0.0
C4004 C 0.57183 0.62483 0.7245 0.0
H4005 H 0.6464 0.68477 0.65358 0.0
H4006 H 0.70037 0.71538 0.66099 0.0
H4007 H 0.69985 0.73954 0.65068 0.0
H4008 H 0.64361 0.70445 0.61543 0.0
H4009 H 0.62433 0.70275 0.62146 0.0
H4010 H 0.62911 0.68767 0.62842 0.0
H4011 H 0.62547 0.69373 0.65951 0.0
H4012 H 0.62069 0.70882 0.65265 0.0
H4013 H 0.63752 0.71467 0.66778 0.0
H4014 H 0.69319 0.76077 0.6413 0.0
H4015 H 0.68088 0.77728 0.63315 0.0
H4016 H 0.63139 0.73275 0.63169 0.0
C4017 C 0.65815 0.6965 0.65284 0.0
C4018 C 0.67344 0.69815 0.65805 0.0
C4019 C 0.68851 0.71378 0.65704 0.0
C4020 C 0.68834 0.72758 0.65119 0.0
C4021 C 0.67303 0.72555 0.64635 0.0
C4022 C 0.65822 0.71039 0.64706 0.0
C4023 C 0.64336 0.71164 0.64177 0.0
C4024 C 0.63459 0.701 0.62582 0.0
C4025 C 0.63104 0.70694 0.65629 0.0
C4026 C 0.6521 0.72992 0.63813 0.0
C4027 C 0.66922 0.73773 0.64078 0.0
C4028 C 0.67983 0.75474 0.63892 0.0
C4029 C 0.67275 0.76401 0.63424 0.0
C4030 C 0.65524 0.75621 0.63132 0.0
C4031 C 0.64485 0.73895 0.63339 0.0
H4032 H 0.27546 0.96877 0.64687 0.0
H4033 H 0.32677 0.98105 0.65382 0.0
H4034 H 0.31781 0.9521 0.64711 0.0
H4035 H 0.25642 0.92908 0.666 0.0
H4036 H 0.23858 0.91941 0.65162 0.0
H4037 H 0.24909 0.94127 0.65628 0.0
H4038 H 0.25355 0.94732 0.62436 0.0
H4039 H 0.24307 0.92547 0.6196 0.0
H4040 H 0.26395 0.93929 0.61225 0.0
H4041 H 0.30341 0.92194 0.63997 0.0
H4042 H 0.28422 0.89212 0.63351 0.0
H4043 H 0.24213 0.89914 0.63218 0.0
C4044 C 0.28482 0.9654 0.64685 0.0
C4045 C 0.30183 0.9772 0.65078 0.0
C4046 C 0.31367 0.97224 0.65084 0.0
C4047 C 0.30872 0.95583 0.64701 0.0
C4048 C 0.29187 0.9445 0.64326 0.0
C4049 C 0.28007 0.94902 0.64323 0.0
C4050 C 0.26267 0.93426 0.63932 0.0
C4051 C 0.25101 0.9308 0.65419 0.0
C4052 C 0.25539 0.93674 0.6229 0.0
C4053 C 0.26656 0.92077 0.63715 0.0
C4054 C 0.28349 0.92698 0.63938 0.0
C4055 C 0.29013 0.91693 0.63809 0.0
C4056 C 0.27917 0.90005 0.63439 0.0
C4057 C 0.26177 0.89338 0.63198 0.0
C4058 C 0.2554 0.90391 0.63359 0.0
H4059 H 0.03916 0.31306 0.65351 0.0
H4060 H 0.03021 0.35315 0.6605 0.0
H4061 H 0.0589 0.37308 0.65123 0.0
H4062 H 0.08165 0.33547 0.66898 0.0
H4063 H 0.08856 0.32596 0.65408 0.0
H4064 H 0.06718 0.31486 0.66078 0.0
H4065 H 0.05684 0.31077 0.62957 0.0
H4066 H 0.0782 0.32191 0.62277 0.0
H4067 H 0.06418 0.32857 0.61647 0.0
H4068 H 0.08871 0.38866 0.64137 0.0
H4069 H 0.11762 0.39875 0.63239 0.0
H4070 H 0.1071 0.34851 0.63264 0.0
C4071 C 0.04317 0.32602 0.65302 0.0
C4072 C 0.03239 0.33153 0.65766 0.0
C4073 C 0.03823 0.34863 0.65699 0.0
C4074 C 0.05449 0.36004 0.65171 0.0
C4075 C 0.06478 0.35417 0.64723 0.0
C4076 C 0.05937 0.33757 0.64791 0.0
C4077 C 0.07302 0.3345 0.64287 0.0
C4078 C 0.07789 0.32728 0.65755 0.0
C4079 C 0.06774 0.32327 0.62697 0.0
C4080 C 0.08696 0.35197 0.63921 0.0
C4081 C 0.08195 0.36313 0.64172 0.0
C4082 C 0.09274 0.38002 0.63926 0.0
C4083 C 0.10908 0.38562 0.63412 0.0
C4084 C 0.11447 0.37439 0.63143 0.0
C4085 C 0.10324 0.35736 0.6342 0.0
H4086 H 0.30661 0.32417 0.65639 0.0
H4087 H 0.29507 0.33009 0.70785 0.0
H4088 H 0.27993 0.34311 0.69733 0.0
H4089 H 0.31585 0.36217 0.64288 0.0
H4090 H 0.30686 0.35559 0.6219 0.0
H4091 H 0.31436 0.34424 0.633 0.0
H4092 H 0.28528 0.31726 0.62923 0.0
H4093 H 0.27771 0.32849 0.61789 0.0
H4094 H 0.26685 0.31684 0.63614 0.0
H4095 H 0.26976 0.35907 0.68174 0.0
H4096 H 0.26399 0.37551 0.66198 0.0
H4097 H 0.28157 0.3588 0.62058 0.0
C4098 C 0.30044 0.32771 0.66542 0.0
C4099 C 0.30196 0.32603 0.68296 0.0
C4100 C 0.29401 0.33117 0.69436 0.0
C4101 C 0.28536 0.33858 0.6885 0.0
C4102 C 0.28466 0.34064 0.67119 0.0
C4103 C 0.29179 0.33515 0.65978 0.0
C4104 C 0.29047 0.34011 0.64198 0.0
C4105 C 0.30792 0.35118 0.63451 0.0
C4106 C 0.27941 0.32476 0.63064 0.0
C4107 C 0.28201 0.34971 0.64525 0.0
C4108 C 0.27864 0.34976 0.66216 0.0
C4109 C 0.27203 0.35885 0.66842 0.0
C4110 C 0.26884 0.36819 0.65712 0.0
C4111 C 0.27227 0.36838 0.63975 0.0
C4112 C 0.27871 0.35879 0.63377 0.0
H4113 H 0.67658 0.99169 0.64909 0.0
H4114 H 0.66824 0.97301 0.70007 0.0
H4115 H 0.65552 0.94461 0.68863 0.0
H4116 H 0.63852 0.95912 0.63097 0.0
H4117 H 0.64732 0.9583 0.61119 0.0
H4118 H 0.65676 0.97741 0.62325 0.0
H4119 H 0.68526 0.9792 0.62344 0.0
H4120 H 0.67592 0.9601 0.61131 0.0
H4121 H 0.68651 0.96209 0.63117 0.0
H4122 H 0.64206 0.91815 0.67194 0.0
H4123 H 0.62923 0.89523 0.65086 0.0
H4124 H 0.64707 0.93074 0.61056 0.0
C4125 C 0.67226 0.98165 0.65785 0.0
C4126 C 0.67343 0.98463 0.6755 0.0
C4127 C 0.66752 0.9711 0.68651 0.0
C4128 C 0.66028 0.95489 0.68014 0.0
C4129 C 0.65912 0.95236 0.66271 0.0
C4130 C 0.66504 0.96534 0.65169 0.0
C4131 C 0.66181 0.95908 0.6335 0.0
C4132 C 0.65042 0.96376 0.62418 0.0
C4133 C 0.67836 0.9655 0.62432 0.0
C4134 C 0.65288 0.94057 0.63606 0.0
C4135 C 0.6515 0.93699 0.65302 0.0
C4136 C 0.64316 0.92078 0.65861 0.0
C4137 C 0.63589 0.90785 0.64654 0.0
C4138 C 0.63696 0.91116 0.62906 0.0
C4139 C 0.64588 0.92779 0.62382 0.0
H4140 H 0.04362 0.72821 0.65308 0.0
H4141 H 0.01988 0.67485 0.6492 0.0
H4142 H 0.04729 0.67824 0.64324 0.0
H4143 H 0.07393 0.73878 0.62053 0.0
H4144 H 0.09036 0.75663 0.63196 0.0
H4145 H 0.06878 0.75004 0.63513 0.0
H4146 H 0.07276 0.7481 0.6673 0.0
H4147 H 0.09436 0.75478 0.66423 0.0
H4148 H 0.08075 0.73562 0.67466 0.0
H4149 H 0.07731 0.6876 0.63704 0.0
H4150 H 0.10804 0.7021 0.63395 0.0
H4151 H 0.11215 0.74909 0.64387 0.0
C4152 C 0.04417 0.71724 0.65087 0.0
C4153 C 0.02962 0.70127 0.65147 0.0
C4154 C 0.03089 0.68721 0.64879 0.0
C4155 C 0.04637 0.68901 0.64532 0.0
C4156 C 0.06047 0.70494 0.64477 0.0
C4157 C 0.05954 0.71881 0.64767 0.0
C4158 C 0.07665 0.7345 0.64722 0.0
C4159 C 0.07747 0.74564 0.63285 0.0
C4160 C 0.08141 0.74379 0.66437 0.0
C4161 C 0.08738 0.72731 0.64365 0.0
C4162 C 0.0778 0.71027 0.64203 0.0
C4163 C 0.08495 0.70093 0.63844 0.0
C4164 C 0.10238 0.70925 0.63673 0.0
C4165 C 0.11247 0.72667 0.63894 0.0
C4166 C 0.10477 0.73576 0.64226 0.0
H4167 H 0.97155 0.63566 0.69999 0.0
H4168 H 0.97654 0.62124 0.64929 0.0
H4169 H 0.98149 0.60022 0.66103 0.0
H4170 H 0.00381 0.63363 0.71842 0.0
H4171 H 0.99388 0.62541 0.73823 0.0
H4172 H 0.98818 0.63758 0.72594 0.0
H4173 H 0.95705 0.6137 0.72568 0.0
H4174 H 0.96264 0.60147 0.73813 0.0
H4175 H 0.95141 0.59336 0.71827 0.0
H4176 H 0.98976 0.58366 0.67818 0.0
H4177 H 0.99989 0.57206 0.69958 0.0
H4178 H 0.9885 0.59626 0.73925 0.0
C4179 C 0.97322 0.62777 0.69133 0.0
C4180 C 0.97361 0.63008 0.6737 0.0
C4181 C 0.97613 0.61969 0.66282 0.0
C4182 C 0.97892 0.60767 0.66938 0.0
C4183 C 0.97898 0.60607 0.68682 0.0
C4184 C 0.97599 0.61568 0.69766 0.0
C4185 C 0.97802 0.61236 0.71594 0.0
C4186 C 0.99179 0.62819 0.72516 0.0
C4187 C 0.96128 0.60477 0.72504 0.0
C4188 C 0.98326 0.59987 0.71366 0.0
C4189 C 0.98359 0.5963 0.69677 0.0
C4190 C 0.9893 0.58614 0.69145 0.0
C4191 C 0.99508 0.57966 0.7037 0.0
C4192 C 0.99519 0.5834 0.72108 0.0
C4193 C 0.9887 0.59325 0.72607 0.0
H4194 H 0.39988 0.3836 0.70351 0.0
H4195 H 0.34647 0.36281 0.70828 0.0
H4196 H 0.35168 0.3908 0.71361 0.0
H4197 H 0.41421 0.41735 0.73514 0.0
H4198 H 0.43172 0.43178 0.72278 0.0
H4199 H 0.42401 0.40997 0.72121 0.0
H4200 H 0.42005 0.41051 0.68883 0.0
H4201 H 0.42773 0.43229 0.6903 0.0
H4202 H 0.40748 0.41824 0.68064 0.0
H4203 H 0.36247 0.42105 0.71701 0.0
H4204 H 0.378 0.45163 0.71644 0.0
H4205 H 0.42415 0.45278 0.70813 0.0
C4206 C 0.38932 0.38492 0.706 0.0
C4207 C 0.37279 0.37104 0.70563 0.0
C4208 C 0.35925 0.37329 0.70854 0.0
C4209 C 0.36208 0.38912 0.71166 0.0
C4210 C 0.37851 0.40258 0.71173 0.0
C4211 C 0.3919 0.40067 0.7089 0.0
C4212 C 0.40817 0.41727 0.70827 0.0
C4213 C 0.42024 0.4192 0.72271 0.0
C4214 C 0.41633 0.41971 0.69098 0.0
C4215 C 0.40179 0.4288 0.71088 0.0
C4216 C 0.38469 0.42008 0.71314 0.0
C4217 C 0.37588 0.42802 0.71535 0.0
C4218 C 0.38477 0.44535 0.715 0.0
C4219 C 0.40224 0.45451 0.71226 0.0
C4220 C 0.41082 0.44608 0.71036 0.0
H4221 H 0.63488 0.01173 0.69288 0.0
H4222 H 0.65637 0.03578 0.7414 0.0
H4223 H 0.62877 0.0185 0.75445 0.0
H4224 H 0.59557 0.00993 0.69824 0.0
H4225 H 0.58329 0.99027 0.68723 0.0
H4226 H 0.60484 0.00419 0.68189 0.0
H4227 H 0.61108 0.98108 0.68734 0.0
H4228 H 0.58958 0.96712 0.69278 0.0
H4229 H 0.6062 0.97112 0.70748 0.0
H4230 H 0.59924 0.99722 0.76246 0.0
H4231 H 0.56928 0.9759 0.76435 0.0
H4232 H 0.5663 0.9682 0.70994 0.0
C4233 C 0.63372 0.01333 0.70624 0.0
C4234 C 0.64769 0.02496 0.71621 0.0
C4235 C 0.64574 0.02693 0.73359 0.0
C4236 C 0.63017 0.01714 0.74111 0.0
C4237 C 0.61661 0.00572 0.73097 0.0
C4238 C 0.61816 0.004 0.71385 0.0
C4239 C 0.60147 0.99135 0.70566 0.0
C4240 C 0.59597 0.99942 0.69248 0.0
C4241 C 0.60213 0.97681 0.69786 0.0
C4242 C 0.59038 0.98604 0.72089 0.0
C4243 C 0.59938 0.99429 0.7354 0.0
C4244 C 0.59199 0.99083 0.75114 0.0
C4245 C 0.57491 0.97866 0.75207 0.0
C4246 C 0.5653 0.97029 0.73726 0.0
C4247 C 0.57325 0.97426 0.7215 0.0
loop_
_geom_bond_atom_site_label_1
_geom_bond_atom_site_label_2
_geom_bond_distance
_geom_bond_site_symmetry_2
_ccdc_geom_bond_type
Zn0 O3 2.031 1_554 S
Zn0 O5 2.049 . S
Zn0 O10 2.067 1_554 S
Zn1 O2 1.962 1_455 S
Zn1 O4 1.986 . S
Zn1 O6 1.996 1_455 S
Zn1 O9 1.943 1_554 S
O2 Zn1 1.962 1_655 S
O2 C7 1.254 1_554 S
O3 Zn0 2.031 1_556 S
O3 C7 1.269 . S
O4 Zn1 1.986 . S
O4 C11 1.262 . S
O5 Zn0 2.049 . S
O5 C13 1.260 . S
O6 Zn1 1.996 1_655 S
O6 C13 1.257 . S
C7 O2 1.254 1_556 S
C7 O3 1.269 . S
C8 O9 1.249 . S
C8 O10 1.270 1_455 S
O9 Zn1 1.943 1_556 S
O9 C8 1.249 . S
O10 Zn0 2.067 1_556 S
O10 C8 1.270 1_655 S
C11 O4 1.262 . S
C11 O12 1.232 . S
O12 C11 1.232 . S
C13 O5 1.260 . S
C13 O6 1.257 . S
Zn14 O17 2.031 1_554 S
Zn14 O19 2.049 . S
Zn14 O24 2.077 . S
Zn15 O16 1.962 . S
Zn15 O18 1.986 . S
Zn15 O20 1.996 . S
Zn15 O23 1.943 . S
O16 Zn15 1.962 . S
O16 C21 1.254 . S
O17 Zn14 2.031 1_556 S
O17 C21 1.269 1_556 S
O18 Zn15 1.986 . S
O18 C25 1.262 . S
O19 Zn14 2.049 . S
O19 C27 1.260 . S
O20 Zn15 1.996 . S
O20 C27 1.257 . S
C21 O16 1.254 . S
C21 O17 1.269 1_554 S
C22 O23 1.249 1_556 S
C22 O24 1.267 1_556 S
O23 Zn15 1.943 . S
O23 C22 1.249 1_554 S
O24 Zn14 2.077 . S
O24 C22 1.267 1_554 S
C25 O18 1.262 . S
C25 O26 1.232 . S
O26 C25 1.232 . S
C27 O19 1.260 . S
C27 O20 1.257 . S
Zn28 O31 2.031 . S
Zn28 O33 2.049 1_554 S
Zn28 O38 2.067 1_565 S
Zn29 O30 1.962 1_545 S
Zn29 O32 1.986 1_554 S
Zn29 O34 1.996 1_544 S
Zn29 O37 1.943 . S
O30 Zn29 1.962 1_565 S
O30 C35 1.254 . S
O31 Zn28 2.031 . S
O31 C35 1.269 . S
O32 Zn29 1.986 1_556 S
O32 C39 1.262 . S
O33 Zn28 2.049 1_556 S
O33 C41 1.260 . S
O34 Zn29 1.996 1_566 S
O34 C41 1.257 . S
C35 O30 1.254 . S
C35 O31 1.269 . S
C36 O37 1.249 . S
C36 O38 1.270 . S
O37 Zn29 1.943 . S
O37 C36 1.249 . S
O38 Zn28 2.067 1_545 S
O38 C36 1.270 . S
C39 O32 1.262 . S
C39 O40 1.232 1_556 S
O40 C39 1.232 1_554 S
C41 O33 1.260 . S
C41 O34 1.257 . S
Zn42 O45 2.031 . S
Zn42 O47 2.049 1_554 S
Zn42 O52 2.067 . S
Zn43 O44 1.962 1_655 S
Zn43 O46 1.986 1_554 S
Zn43 O48 1.996 1_654 S
Zn43 O51 1.943 . S
O44 Zn43 1.962 1_455 S
O44 C49 1.254 . S
O45 Zn42 2.031 . S
O45 C49 1.269 . S
O46 Zn43 1.986 1_556 S
O46 C53 1.262 . S
O47 Zn42 2.049 1_556 S
O47 C55 1.260 . S
O48 Zn43 1.996 1_456 S
O48 C55 1.257 . S
C49 O44 1.254 . S
C49 O45 1.269 . S
C50 O51 1.249 . S
C50 O52 1.270 1_655 S
O51 Zn43 1.943 . S
O51 C50 1.249 . S
O52 Zn42 2.067 . S
O52 C50 1.270 1_455 S
C53 O46 1.262 . S
C53 O54 1.232 1_556 S
O54 C53 1.232 1_554 S
C55 O47 1.260 . S
C55 O48 1.257 . S
Zn56 O59 2.031 . S
Zn56 O61 2.049 1_554 S
Zn56 O66 2.067 . S
Zn57 O58 1.952 1_556 S
Zn57 O60 2.006 . S
Zn57 O62 2.009 . S
Zn57 O65 1.926 1_556 S
O58 Zn57 1.952 1_554 S
O58 C63 1.254 . S
O59 Zn56 2.031 . S
O59 C63 1.269 . S
O60 Zn57 2.006 . S
O60 C67 1.262 . S
O61 Zn56 2.049 1_556 S
O61 C69 1.260 . S
O62 Zn57 2.009 . S
O62 C69 1.257 . S
C63 O58 1.254 . S
C63 O59 1.269 . S
C64 O65 1.249 . S
C64 O66 1.270 . S
O65 Zn57 1.926 1_554 S
O65 C64 1.249 . S
O66 Zn56 2.067 . S
O66 C64 1.270 . S
C67 O60 1.262 . S
C67 O68 1.232 1_556 S
O68 C67 1.232 1_554 S
C69 O61 1.260 . S
C69 O62 1.257 . S
Zn70 O73 2.031 1_554 S
Zn70 O75 2.049 . S
Zn70 O80 2.067 1_554 S
Zn71 O72 1.962 1_565 S
Zn71 O74 1.986 . S
Zn71 O76 1.996 1_565 S
Zn71 O79 1.943 . S
O72 Zn71 1.962 1_545 S
O72 C77 1.254 . S
O73 Zn70 2.031 1_556 S
O73 C77 1.269 1_556 S
O74 Zn71 1.986 . S
O74 C81 1.262 . S
O75 Zn70 2.049 . S
O75 C83 1.260 . S
O76 Zn71 1.996 1_545 S
O76 C83 1.257 . S
C77 O72 1.254 . S
C77 O73 1.269 1_554 S
C78 O79 1.249 1_556 S
C78 O80 1.270 1_565 S
O79 Zn71 1.943 . S
O79 C78 1.249 1_554 S
O80 Zn70 2.067 1_556 S
O80 C78 1.270 1_545 S
C81 O74 1.262 . S
C81 O82 1.232 . S
O82 C81 1.232 . S
C83 O75 1.260 . S
C83 O76 1.257 . S
Zn84 O87 2.031 . S
Zn84 O89 2.049 . S
Zn84 O94 2.067 . S
Zn85 O86 1.962 . S
Zn85 O88 1.986 . S
Zn85 O90 1.996 . S
Zn85 O93 1.943 . S
O86 Zn85 1.962 . S
O86 C91 1.254 . S
O87 Zn84 2.031 . S
O87 C91 1.269 . S
O88 Zn85 1.986 . S
O88 C95 1.262 . S
O89 Zn84 2.049 . S
O89 C97 1.260 . S
O90 Zn85 1.996 . S
O90 C97 1.257 . S
C91 O86 1.254 . S
C91 O87 1.269 . S
C92 O93 1.249 . S
C92 O94 1.270 . S
O93 Zn85 1.943 . S
O93 C92 1.249 . S
O94 Zn84 2.067 . S
O94 C92 1.270 . S
C95 O88 1.262 . S
C95 O96 1.232 . S
O96 C95 1.232 . S
C97 O89 1.260 . S
C97 O90 1.257 . S
Zn98 O101 2.031 . S
Zn98 O103 2.049 . S
Zn98 O108 2.067 . S
Zn99 O100 1.962 . S
Zn99 O102 1.986 1_565 S
Zn99 O104 1.996 . S
Zn99 O107 1.943 . S
O100 Zn99 1.962 . S
O100 C105 1.254 . S
O101 Zn98 2.031 . S
O101 C105 1.269 . S
O102 Zn99 1.986 1_545 S
O102 C109 1.262 . S
O103 Zn98 2.049 . S
O103 C111 1.260 . S
O104 Zn99 1.996 . S
O104 C111 1.257 . S
C105 O100 1.254 . S
C105 O101 1.269 . S
C106 O107 1.249 . S
C106 O108 1.270 . S
O107 Zn99 1.943 . S
O107 C106 1.249 . S
O108 Zn98 2.067 . S
O108 C106 1.270 . S
C109 O102 1.262 . S
C109 O110 1.232 . S
O110 C109 1.232 . S
C111 O103 1.260 . S
C111 O104 1.257 . S
Zn112 O115 2.031 . S
Zn112 O117 2.049 . S
Zn112 O122 2.067 . S
Zn113 O114 1.962 1_455 S
Zn113 O116 1.986 . S
Zn113 O118 1.996 . S
Zn113 O121 1.943 . S
O114 Zn113 1.962 1_655 S
O114 C119 1.254 . S
O115 Zn112 2.031 . S
O115 C119 1.269 1_455 S
O116 Zn113 1.986 . S
O116 C123 1.262 . S
O117 Zn112 2.049 . S
O117 C125 1.260 . S
O118 Zn113 1.996 . S
O118 C125 1.257 . S
C119 O114 1.254 . S
C119 O115 1.269 1_655 S
C120 O121 1.249 . S
C120 O122 1.270 . S
O121 Zn113 1.943 . S
O121 C120 1.249 . S
O122 Zn112 2.067 . S
O122 C120 1.270 . S
C123 O116 1.262 . S
C123 O124 1.232 . S
O124 C123 1.232 . S
C125 O117 1.260 . S
C125 O118 1.257 . S
Zn126 O129 2.031 . S
Zn126 O131 2.049 . S
Zn126 O136 2.067 . S
Zn127 O128 1.962 1_565 S
Zn127 O130 1.986 . S
Zn127 O132 1.996 . S
Zn127 O135 1.943 . S
O128 Zn127 1.962 1_545 S
O128 C133 1.254 . S
O129 Zn126 2.031 . S
O129 C133 1.269 1_565 S
O130 Zn127 1.986 . S
O130 C137 1.262 . S
O131 Zn126 2.049 . S
O131 C139 1.260 . S
O132 Zn127 1.996 . S
O132 C139 1.257 . S
C133 O128 1.254 . S
C133 O129 1.269 1_545 S
C134 O135 1.249 . S
C134 O136 1.270 . S
O135 Zn127 1.943 . S
O135 C134 1.249 . S
O136 Zn126 2.067 . S
O136 C134 1.270 . S
C137 O130 1.262 . S
C137 O138 1.232 . S
O138 C137 1.232 . S
C139 O131 1.260 . S
C139 O132 1.257 . S
Zn140 O143 2.031 . S
Zn140 O145 2.049 . S
Zn140 O150 2.067 . S
Zn141 O142 1.962 1_455 S
Zn141 O144 1.986 . S
Zn141 O146 1.996 . S
Zn141 O149 1.943 . S
O142 Zn141 1.962 1_655 S
O142 C147 1.254 . S
O143 Zn140 2.031 . S
O143 C147 1.269 1_455 S
O144 Zn141 1.986 . S
O144 C151 1.262 . S
O145 Zn140 2.049 . S
O145 C153 1.260 . S
O146 Zn141 1.996 . S
O146 C153 1.257 . S
C147 O142 1.254 . S
C147 O143 1.269 1_655 S
C148 O149 1.249 . S
C148 O150 1.270 . S
O149 Zn141 1.943 . S
O149 C148 1.249 . S
O150 Zn140 2.067 . S
O150 C148 1.270 . S
C151 O144 1.262 . S
C151 O152 1.232 . S
O152 C151 1.232 . S
C153 O145 1.260 . S
C153 O146 1.257 . S
Zn154 O157 2.031 . S
Zn154 O159 2.049 . S
Zn154 O164 2.067 . S
Zn155 O156 1.962 . S
Zn155 O158 1.986 . S
Zn155 O160 1.996 . S
Zn155 O163 1.943 . S
O156 Zn155 1.962 . S
O156 C161 1.254 . S
O157 Zn154 2.031 . S
O157 C161 1.269 . S
O158 Zn155 1.986 . S
O158 C165 1.262 . S
O159 Zn154 2.049 . S
O159 C167 1.260 . S
O160 Zn155 1.996 . S
O160 C167 1.257 . S
C161 O156 1.254 . S
C161 O157 1.269 . S
C162 O163 1.249 . S
C162 O164 1.270 . S
O163 Zn155 1.943 . S
O163 C162 1.249 . S
O164 Zn154 2.067 . S
O164 C162 1.270 . S
C165 O158 1.262 . S
C165 O166 1.232 . S
O166 C165 1.232 . S
C167 O159 1.260 . S
C167 O160 1.257 . S
Zn168 O171 2.031 . S
Zn168 O173 2.049 . S
Zn168 O178 2.067 . S
Zn169 O170 1.962 1_545 S
Zn169 O172 1.986 . S
Zn169 O174 1.996 . S
Zn169 O177 1.943 . S
O170 Zn169 1.962 1_565 S
O170 C175 1.254 . S
O171 Zn168 2.031 . S
O171 C175 1.269 1_545 S
O172 Zn169 1.986 . S
O172 C179 1.262 . S
O173 Zn168 2.049 . S
O173 C181 1.260 . S
O174 Zn169 1.996 . S
O174 C181 1.257 . S
C175 O170 1.254 . S
C175 O171 1.269 1_565 S
C176 O177 1.249 . S
C176 O178 1.270 . S
O177 Zn169 1.943 . S
O177 C176 1.249 . S
O178 Zn168 2.067 . S
O178 C176 1.270 . S
C179 O172 1.262 . S
C179 O180 1.232 . S
O180 C179 1.232 . S
C181 O173 1.260 . S
C181 O174 1.257 . S
Zn182 O185 2.031 . S
Zn182 O187 2.049 . S
Zn182 O192 2.067 . S
Zn183 O184 1.962 1_655 S
Zn183 O186 1.986 . S
Zn183 O188 1.996 . S
Zn183 O191 1.943 . S
O184 Zn183 1.962 1_455 S
O184 C189 1.254 . S
O185 Zn182 2.031 . S
O185 C189 1.269 1_655 S
O186 Zn183 1.986 . S
O186 C193 1.262 . S
O187 Zn182 2.049 . S
O187 C195 1.260 . S
O188 Zn183 1.996 . S
O188 C195 1.257 . S
C189 O184 1.254 . S
C189 O185 1.269 1_455 S
C190 O191 1.249 . S
C190 O192 1.270 . S
O191 Zn183 1.943 . S
O191 C190 1.249 . S
O192 Zn182 2.067 . S
O192 C190 1.270 . S
C193 O186 1.262 . S
C193 O194 1.232 . S
O194 C193 1.232 . S
C195 O187 1.260 . S
C195 O188 1.257 . S
Zn196 O199 2.031 . S
Zn196 O201 2.049 . S
Zn196 O206 2.067 . S
Zn197 O198 1.962 . S
Zn197 O200 1.986 . S
Zn197 O202 1.996 . S
Zn197 O205 1.943 . S
O198 Zn197 1.962 . S
O198 C203 1.254 . S
O199 Zn196 2.031 . S
O199 C203 1.269 . S
O200 Zn197 1.986 . S
O200 C207 1.262 . S
O201 Zn196 2.049 . S
O201 C209 1.260 . S
O202 Zn197 1.996 . S
O202 C209 1.257 . S
C203 O198 1.254 . S
C203 O199 1.269 . S
C204 O205 1.249 . S
C204 O206 1.270 . S
O205 Zn197 1.943 . S
O205 C204 1.249 . S
O206 Zn196 2.067 . S
O206 C204 1.270 . S
C207 O200 1.262 . S
C207 O208 1.232 . S
O208 C207 1.232 . S
C209 O201 1.260 . S
C209 O202 1.257 . S
Zn210 O213 2.031 . S
Zn210 O215 2.049 . S
Zn210 O220 2.067 . S
Zn211 O212 1.962 . S
Zn211 O214 1.986 . S
Zn211 O216 1.996 . S
Zn211 O219 1.943 . S
O212 Zn211 1.962 . S
O212 C217 1.254 . S
O213 Zn210 2.031 . S
O213 C217 1.269 . S
O214 Zn211 1.986 . S
O214 C221 1.262 . S
O215 Zn210 2.049 . S
O215 C223 1.260 . S
O216 Zn211 1.996 . S
O216 C223 1.257 . S
C217 O212 1.254 . S
C217 O213 1.269 . S
C218 O219 1.249 . S
C218 O220 1.270 . S
O219 Zn211 1.943 . S
O219 C218 1.249 . S
O220 Zn210 2.067 . S
O220 C218 1.270 . S
C221 O214 1.262 . S
C221 O222 1.232 . S
O222 C221 1.232 . S
C223 O215 1.260 . S
C223 O216 1.257 . S
Zn224 O227 2.031 . S
Zn224 O229 2.049 . S
Zn224 O234 2.067 . S
Zn225 O226 1.962 . S
Zn225 O228 1.950 1_545 S
Zn225 O230 1.996 . S
Zn225 O233 1.943 . S
O226 Zn225 1.962 . S
O226 C231 1.254 . S
O227 Zn224 2.031 . S
O227 C231 1.269 . S
O228 Zn225 1.950 1_565 S
O228 C235 1.306 . S
O229 Zn224 2.049 . S
O229 C237 1.260 . S
O230 Zn225 1.996 . S
O230 C237 1.257 . S
C231 O226 1.254 . S
C231 O227 1.269 . S
C232 O233 1.249 . S
C232 O234 1.270 . S
O233 Zn225 1.943 . S
O233 C232 1.249 . S
O234 Zn224 2.067 . S
O234 C232 1.270 . S
C235 O228 1.306 . S
C235 O236 1.232 . S
O236 C235 1.232 . S
C237 O229 1.260 . S
C237 O230 1.257 . S
Zn238 O241 2.031 . S
Zn238 O243 2.049 . S
Zn238 O248 2.067 . S
Zn239 O240 1.962 1_655 S
Zn239 O242 1.986 . S
Zn239 O244 1.996 . S
Zn239 O247 1.943 . S
O240 Zn239 1.962 1_455 S
O240 C245 1.254 . S
O241 Zn238 2.031 . S
O241 C245 1.269 1_655 S
O242 Zn239 1.986 . S
O242 C249 1.262 . S
O243 Zn238 2.049 . S
O243 C251 1.260 . S
O244 Zn239 1.996 . S
O244 C251 1.257 . S
C245 O240 1.254 . S
C245 O241 1.269 1_455 S
C246 O247 1.249 . S
C246 O248 1.270 . S
O247 Zn239 1.943 . S
O247 C246 1.249 . S
O248 Zn238 2.067 . S
O248 C246 1.270 . S
C249 O242 1.262 . S
C249 O250 1.232 . S
O250 C249 1.232 . S
C251 O243 1.260 . S
C251 O244 1.257 . S
C252 C253 1.560 . S
C252 H313 0.959 . S
C252 H314 0.959 . S
C252 H315 0.960 . S
C253 C252 1.560 . S
C253 O308 1.426 . S
C253 H312 0.980 . S
C254 C255 1.407 . S
C254 C259 1.418 . S
C254 O308 1.334 . S
C255 C254 1.407 . S
C255 C256 1.360 . S
C255 H316 0.929 . S
C256 C255 1.360 . S
C256 C257 1.401 . S
C256 C260 1.527 . S
C257 C256 1.401 . S
C257 C258 1.405 . S
C257 C290 1.587 . S
C258 C257 1.405 . S
C258 C259 1.332 . S
C258 C261 1.496 . S
C259 C254 1.418 . S
C259 C258 1.332 . S
C259 H317 0.929 . S
C260 C256 1.527 . S
C260 H318 0.959 . S
C260 H319 0.961 . S
C260 H320 0.961 . S
C261 C258 1.496 . S
C261 H321 0.960 . S
C261 H322 0.960 . S
C261 H323 0.961 . S
C262 C263 1.517 . S
C262 H325 0.961 . S
C262 H326 0.960 . S
C262 H327 0.959 . S
C263 C262 1.517 . S
C263 O311 1.468 . S
C263 H324 0.980 . S
C264 C265 1.349 . S
C264 C269 1.367 . S
C264 O311 1.408 . S
C265 C264 1.349 . S
C265 C266 1.407 . S
C265 H328 0.930 . S
C266 C265 1.407 . S
C266 C267 1.449 . S
C266 C270 1.535 . S
C267 C266 1.449 . S
C267 C268 1.384 . S
C267 C292 1.553 . S
C268 C267 1.384 . S
C268 C269 1.364 . S
C268 C271 1.450 . S
C269 C264 1.367 . S
C269 C268 1.364 . S
C269 H329 0.931 . S
C270 C266 1.535 . S
C270 H330 0.959 . S
C270 H331 0.961 . S
C270 H332 0.959 . S
C271 C268 1.450 . S
C271 H333 0.960 . S
C271 H334 0.960 . S
C271 H335 0.960 . S
C272 C273 1.309 . S
C272 C277 1.304 . S
C272 O310 1.435 . S
C273 C272 1.309 . S
C273 C274 1.476 . S
C273 H337 0.930 . S
C274 C273 1.476 . S
C274 C275 1.400 . S
C274 C278 1.567 . S
C275 C274 1.400 . S
C275 C276 1.373 . S
C275 C297 1.432 . S
C276 C275 1.373 . S
C276 C277 1.339 . S
C276 C279 1.530 . S
C277 C272 1.304 . S
C277 C276 1.339 . S
C277 H338 0.930 . S
C278 C274 1.567 . S
C278 H339 0.961 . S
C278 H340 0.960 . S
C278 H341 0.958 . S
C279 C276 1.530 . S
C279 H342 0.961 . S
C279 H343 0.960 . S
C279 H344 0.960 . S
C280 C281 1.530 . S
C280 H346 0.961 . S
C280 H347 0.961 . S
C280 H348 0.959 . S
C281 C280 1.530 . S
C281 O309 1.412 . S
C281 H345 0.980 . S
C282 C283 1.288 . S
C282 C287 1.377 . S
C282 O309 1.393 . S
C283 C282 1.288 . S
C283 C284 1.369 . S
C283 H349 0.932 . S
C284 C283 1.369 . S
C284 C285 1.398 . S
C284 C288 1.527 . S
C285 C284 1.398 . S
C285 C286 1.380 . S
C285 C299 1.497 . S
C286 C285 1.380 . S
C286 C287 1.383 . S
C286 C289 1.603 . S
C287 C282 1.377 . S
C287 C286 1.383 . S
C287 H350 0.929 . S
C288 C284 1.527 . S
C288 H351 0.961 . S
C288 H352 0.959 . S
C288 H353 0.959 . S
C289 C286 1.603 . S
C289 H354 0.960 . S
C289 H355 0.962 . S
C289 H356 0.961 . S
C290 C257 1.587 . S
C290 C291 1.360 . S
C290 C303 1.412 . S
C291 C290 1.360 . S
C291 C292 1.365 . S
C291 H357 0.929 . S
C292 C267 1.553 . S
C292 C291 1.365 . S
C292 C293 1.404 . S
C293 C292 1.404 . S
C293 C294 1.395 . S
C293 C304 1.451 . S
C294 C293 1.395 . S
C294 C295 1.322 . S
C294 H358 0.930 . S
C295 C294 1.322 . S
C295 C296 1.459 . S
C295 H359 0.929 . S
C296 C295 1.459 . S
C296 C297 1.445 . S
C296 C305 1.395 . S
C297 C275 1.432 . S
C297 C296 1.445 . S
C297 C298 1.370 . S
C298 C297 1.370 . S
C298 C299 1.438 . S
C298 H360 0.930 . S
C299 C285 1.497 . S
C299 C298 1.438 . S
C299 C300 1.360 . S
C300 C299 1.360 . S
C300 C301 1.401 . S
C300 C305 1.446 . S
C301 C300 1.401 . S
C301 C302 1.347 . S
C301 H361 0.929 . S
C302 C301 1.347 . S
C302 C303 1.455 . S
C302 H362 0.930 . S
C303 C290 1.412 . S
C303 C302 1.455 . S
C303 C304 1.331 . S
C304 C293 1.451 . S
C304 C303 1.331 . S
C304 C305 1.497 . S
C305 C296 1.395 . S
C305 C300 1.446 . S
C305 C304 1.497 . S
C306 C307 1.582 . S
C306 H363 0.962 . S
C306 H364 0.959 . S
C306 H365 0.958 . S
C307 C306 1.582 . S
C307 O310 1.458 . S
C307 H336 0.980 . S
O308 C253 1.426 . S
O308 C254 1.334 . S
O309 C281 1.412 . S
O309 C282 1.393 . S
O310 C272 1.435 . S
O310 C307 1.458 . S
O311 C263 1.468 . S
O311 C264 1.408 . S
H312 C253 0.980 . S
H313 C252 0.959 . S
H314 C252 0.959 . S
H315 C252 0.960 . S
H316 C255 0.929 . S
H317 C259 0.929 . S
H318 C260 0.959 . S
H319 C260 0.961 . S
H320 C260 0.961 . S
H321 C261 0.960 . S
H322 C261 0.960 . S
H323 C261 0.961 . S
H324 C263 0.980 . S
H325 C262 0.961 . S
H326 C262 0.960 . S
H327 C262 0.959 . S
H328 C265 0.930 . S
H329 C269 0.931 . S
H330 C270 0.959 . S
H331 C270 0.961 . S
H332 C270 0.959 . S
H333 C271 0.960 . S
H334 C271 0.960 . S
H335 C271 0.960 . S
H336 C307 0.980 . S
H337 C273 0.930 . S
H338 C277 0.930 . S
H339 C278 0.961 . S
H340 C278 0.960 . S
H341 C278 0.958 . S
H342 C279 0.961 . S
H343 C279 0.960 . S
H344 C279 0.960 . S
H345 C281 0.980 . S
H346 C280 0.961 . S
H347 C280 0.961 . S
H348 C280 0.959 . S
H349 C283 0.932 . S
H350 C287 0.929 . S
H351 C288 0.961 . S
H352 C288 0.959 . S
H353 C288 0.959 . S
H354 C289 0.960 . S
H355 C289 0.962 . S
H356 C289 0.961 . S
H357 C291 0.929 . S
H358 C294 0.930 . S
H359 C295 0.929 . S
H360 C298 0.930 . S
H361 C301 0.929 . S
H362 C302 0.930 . S
H363 C306 0.962 . S
H364 C306 0.959 . S
H365 C306 0.958 . S
C366 C367 1.560 . S
C366 H427 0.959 . S
C366 H428 0.959 . S
C366 H429 0.960 . S
C367 C366 1.560 . S
C367 O422 1.426 . S
C367 H426 0.980 . S
C368 C369 1.407 . S
C368 C373 1.418 . S
C368 O422 1.334 . S
C369 C368 1.407 . S
C369 C370 1.360 . S
C369 H430 0.929 . S
C370 C369 1.360 . S
C370 C371 1.401 . S
C370 C374 1.527 . S
C371 C370 1.401 . S
C371 C372 1.405 . S
C371 C404 1.587 . S
C372 C371 1.405 . S
C372 C373 1.332 . S
C372 C375 1.496 . S
C373 C368 1.418 . S
C373 C372 1.332 . S
C373 H431 0.929 . S
C374 C370 1.527 . S
C374 H432 0.959 . S
C374 H433 0.961 . S
C374 H434 0.961 . S
C375 C372 1.496 . S
C375 H435 0.960 . S
C375 H436 0.960 . S
C375 H437 0.961 . S
C376 C377 1.517 . S
C376 H439 0.961 . S
C376 H440 0.960 . S
C376 H441 0.959 . S
C377 C376 1.517 . S
C377 O425 1.468 . S
C377 H438 0.980 . S
C378 C379 1.349 . S
C378 C383 1.367 . S
C378 O425 1.408 . S
C379 C378 1.349 . S
C379 C380 1.407 . S
C379 H442 0.930 . S
C380 C379 1.407 . S
C380 C381 1.449 . S
C380 C384 1.535 . S
C381 C380 1.449 . S
C381 C382 1.384 . S
C381 C406 1.553 . S
C382 C381 1.384 . S
C382 C383 1.364 . S
C382 C385 1.450 . S
C383 C378 1.367 . S
C383 C382 1.364 . S
C383 H443 0.931 . S
C384 C380 1.535 . S
C384 H444 0.959 . S
C384 H445 0.961 . S
C384 H446 0.959 . S
C385 C382 1.450 . S
C385 H447 0.960 . S
C385 H448 0.960 . S
C385 H449 0.960 . S
C386 C387 1.309 . S
C386 C391 1.304 . S
C386 O424 1.435 . S
C387 C386 1.309 . S
C387 C388 1.476 . S
C387 H451 0.930 . S
C388 C387 1.476 . S
C388 C389 1.400 . S
C388 C392 1.567 . S
C389 C388 1.400 . S
C389 C390 1.373 . S
C389 C411 1.432 . S
C390 C389 1.373 . S
C390 C391 1.339 . S
C390 C393 1.530 . S
C391 C386 1.304 . S
C391 C390 1.339 . S
C391 H452 0.930 . S
C392 C388 1.567 . S
C392 H453 0.961 . S
C392 H454 0.960 . S
C392 H455 0.958 . S
C393 C390 1.530 . S
C393 H456 0.961 . S
C393 H457 0.960 . S
C393 H458 0.960 . S
C394 C395 1.530 . S
C394 H460 0.961 . S
C394 H461 0.961 . S
C394 H462 0.959 . S
C395 C394 1.530 . S
C395 O423 1.412 . S
C395 H459 0.980 . S
C396 C397 1.288 . S
C396 C401 1.377 . S
C396 O423 1.393 . S
C397 C396 1.288 . S
C397 C398 1.369 . S
C397 H463 0.932 . S
C398 C397 1.369 . S
C398 C399 1.398 . S
C398 C402 1.527 . S
C399 C398 1.398 . S
C399 C400 1.380 . S
C399 C413 1.497 . S
C400 C399 1.380 . S
C400 C401 1.383 . S
C400 C403 1.603 . S
C401 C396 1.377 . S
C401 C400 1.383 . S
C401 H464 0.929 . S
C402 C398 1.527 . S
C402 H465 0.961 . S
C402 H466 0.959 . S
C402 H467 0.959 . S
C403 C400 1.603 . S
C403 H468 0.960 . S
C403 H469 0.962 . S
C403 H470 0.961 . S
C404 C371 1.587 . S
C404 C405 1.360 . S
C404 C417 1.412 . S
C405 C404 1.360 . S
C405 C406 1.365 . S
C405 H471 0.929 . S
C406 C381 1.553 . S
C406 C405 1.365 . S
C406 C407 1.404 . S
C407 C406 1.404 . S
C407 C408 1.395 . S
C407 C418 1.451 . S
C408 C407 1.395 . S
C408 C409 1.322 . S
C408 H472 0.930 . S
C409 C408 1.322 . S
C409 C410 1.459 . S
C409 H473 0.929 . S
C410 C409 1.459 . S
C410 C411 1.445 . S
C410 C419 1.395 . S
C411 C389 1.432 . S
C411 C410 1.445 . S
C411 C412 1.370 . S
C412 C411 1.370 . S
C412 C413 1.438 . S
C412 H474 0.930 . S
C413 C399 1.497 . S
C413 C412 1.438 . S
C413 C414 1.360 . S
C414 C413 1.360 . S
C414 C415 1.401 . S
C414 C419 1.446 . S
C415 C414 1.401 . S
C415 C416 1.347 . S
C415 H475 0.929 . S
C416 C415 1.347 . S
C416 C417 1.455 . S
C416 H476 0.930 . S
C417 C404 1.412 . S
C417 C416 1.455 . S
C417 C418 1.331 . S
C418 C407 1.451 . S
C418 C417 1.331 . S
C418 C419 1.497 . S
C419 C410 1.395 . S
C419 C414 1.446 . S
C419 C418 1.497 . S
C420 C421 1.582 . S
C420 H477 0.962 . S
C420 H478 0.959 . S
C420 H479 0.958 . S
C421 C420 1.582 . S
C421 O424 1.458 . S
C421 H450 0.980 . S
O422 C367 1.426 . S
O422 C368 1.334 . S
O423 C395 1.412 . S
O423 C396 1.393 . S
O424 C386 1.435 . S
O424 C421 1.458 . S
O425 C377 1.468 . S
O425 C378 1.408 . S
H426 C367 0.980 . S
H427 C366 0.959 . S
H428 C366 0.959 . S
H429 C366 0.960 . S
H430 C369 0.929 . S
H431 C373 0.929 . S
H432 C374 0.959 . S
H433 C374 0.961 . S
H434 C374 0.961 . S
H435 C375 0.960 . S
H436 C375 0.960 . S
H437 C375 0.961 . S
H438 C377 0.980 . S
H439 C376 0.961 . S
H440 C376 0.960 . S
H441 C376 0.959 . S
H442 C379 0.930 . S
H443 C383 0.931 . S
H444 C384 0.959 . S
H445 C384 0.961 . S
H446 C384 0.959 . S
H447 C385 0.960 . S
H448 C385 0.960 . S
H449 C385 0.960 . S
H450 C421 0.980 . S
H451 C387 0.930 . S
H452 C391 0.930 . S
H453 C392 0.961 . S
H454 C392 0.960 . S
H455 C392 0.958 . S
H456 C393 0.961 . S
H457 C393 0.960 . S
H458 C393 0.960 . S
H459 C395 0.980 . S
H460 C394 0.961 . S
H461 C394 0.961 . S
H462 C394 0.959 . S
H463 C397 0.932 . S
H464 C401 0.929 . S
H465 C402 0.961 . S
H466 C402 0.959 . S
H467 C402 0.959 . S
H468 C403 0.960 . S
H469 C403 0.962 . S
H470 C403 0.961 . S
H471 C405 0.929 . S
H472 C408 0.930 . S
H473 C409 0.929 . S
H474 C412 0.930 . S
H475 C415 0.929 . S
H476 C416 0.930 . S
H477 C420 0.962 . S
H478 C420 0.959 . S
H479 C420 0.958 . S
C480 C481 1.560 . S
C480 H541 0.959 . S
C480 H542 0.959 . S
C480 H543 0.960 . S
C481 C480 1.560 . S
C481 O536 1.426 . S
C481 H540 0.980 . S
C482 C483 1.407 . S
C482 C487 1.418 . S
C482 O536 1.334 . S
C483 C482 1.407 . S
C483 C484 1.360 . S
C483 H544 0.929 . S
C484 C483 1.360 . S
C484 C485 1.401 . S
C484 C488 1.527 . S
C485 C484 1.401 . S
C485 C486 1.405 . S
C485 C518 1.587 . S
C486 C485 1.405 . S
C486 C487 1.332 . S
C486 C489 1.496 . S
C487 C482 1.418 . S
C487 C486 1.332 . S
C487 H545 0.929 . S
C488 C484 1.527 . S
C488 H546 0.959 . S
C488 H547 0.961 . S
C488 H548 0.961 . S
C489 C486 1.496 . S
C489 H549 0.960 . S
C489 H550 0.960 . S
C489 H551 0.961 . S
C490 C491 1.517 . S
C490 H553 0.961 . S
C490 H554 0.960 . S
C490 H555 0.959 . S
C491 C490 1.517 . S
C491 O539 1.468 . S
C491 H552 0.980 . S
C492 C493 1.349 . S
C492 C497 1.367 . S
C492 O539 1.408 . S
C493 C492 1.349 . S
C493 C494 1.407 . S
C493 H556 0.930 . S
C494 C493 1.407 . S
C494 C495 1.449 . S
C494 C498 1.535 . S
C495 C494 1.449 . S
C495 C496 1.384 . S
C495 C520 1.553 . S
C496 C495 1.384 . S
C496 C497 1.364 . S
C496 C499 1.450 . S
C497 C492 1.367 . S
C497 C496 1.364 . S
C497 H557 0.931 . S
C498 C494 1.535 . S
C498 H558 0.959 . S
C498 H559 0.961 . S
C498 H560 0.959 . S
C499 C496 1.450 . S
C499 H561 0.960 . S
C499 H562 0.960 . S
C499 H563 0.960 . S
C500 C501 1.309 . S
C500 C505 1.304 . S
C500 O538 1.435 . S
C501 C500 1.309 . S
C501 C502 1.476 . S
C501 H565 0.930 . S
C502 C501 1.476 . S
C502 C503 1.400 . S
C502 C506 1.567 . S
C503 C502 1.400 . S
C503 C504 1.373 . S
C503 C525 1.432 . S
C504 C503 1.373 . S
C504 C505 1.339 . S
C504 C507 1.530 . S
C505 C500 1.304 . S
C505 C504 1.339 . S
C505 H566 0.930 . S
C506 C502 1.567 . S
C506 H567 0.961 . S
C506 H568 0.960 . S
C506 H569 0.958 . S
C507 C504 1.530 . S
C507 H570 0.961 . S
C507 H571 0.960 . S
C507 H572 0.960 . S
C508 C509 1.530 . S
C508 H574 0.961 . S
C508 H575 0.961 . S
C508 H576 0.959 . S
C509 C508 1.530 . S
C509 O537 1.412 . S
C509 H573 0.980 . S
C510 C511 1.288 . S
C510 C515 1.377 . S
C510 O537 1.393 . S
C511 C510 1.288 . S
C511 C512 1.369 . S
C511 H577 0.932 . S
C512 C511 1.369 . S
C512 C513 1.398 . S
C512 C516 1.527 . S
C513 C512 1.398 . S
C513 C514 1.380 . S
C513 C527 1.497 . S
C514 C513 1.380 . S
C514 C515 1.383 . S
C514 C517 1.603 . S
C515 C510 1.377 . S
C515 C514 1.383 . S
C515 H578 0.929 . S
C516 C512 1.527 . S
C516 H579 0.961 . S
C516 H580 0.959 . S
C516 H581 0.959 . S
C517 C514 1.603 . S
C517 H582 0.960 . S
C517 H583 0.962 . S
C517 H584 0.961 . S
C518 C485 1.587 . S
C518 C519 1.360 . S
C518 C531 1.412 . S
C519 C518 1.360 . S
C519 C520 1.365 . S
C519 H585 0.929 . S
C520 C495 1.553 . S
C520 C519 1.365 . S
C520 C521 1.404 . S
C521 C520 1.404 . S
C521 C522 1.395 . S
C521 C532 1.451 . S
C522 C521 1.395 . S
C522 C523 1.322 . S
C522 H586 0.930 . S
C523 C522 1.322 . S
C523 C524 1.459 . S
C523 H587 0.929 . S
C524 C523 1.459 . S
C524 C525 1.445 . S
C524 C533 1.395 . S
C525 C503 1.432 . S
C525 C524 1.445 . S
C525 C526 1.370 . S
C526 C525 1.370 . S
C526 C527 1.438 . S
C526 H588 0.930 . S
C527 C513 1.497 . S
C527 C526 1.438 . S
C527 C528 1.360 . S
C528 C527 1.360 . S
C528 C529 1.401 . S
C528 C533 1.446 . S
C529 C528 1.401 . S
C529 C530 1.347 . S
C529 H589 0.929 . S
C530 C529 1.347 . S
C530 C531 1.455 . S
C530 H590 0.930 . S
C531 C518 1.412 . S
C531 C530 1.455 . S
C531 C532 1.331 . S
C532 C521 1.451 . S
C532 C531 1.331 . S
C532 C533 1.497 . S
C533 C524 1.395 . S
C533 C528 1.446 . S
C533 C532 1.497 . S
C534 C535 1.582 . S
C534 H591 0.962 . S
C534 H592 0.959 . S
C534 H593 0.958 . S
C535 C534 1.582 . S
C535 O538 1.458 . S
C535 H564 0.980 . S
O536 C481 1.426 . S
O536 C482 1.334 . S
O537 C509 1.412 . S
O537 C510 1.393 . S
O538 C500 1.435 . S
O538 C535 1.458 . S
O539 C491 1.468 . S
O539 C492 1.408 . S
H540 C481 0.980 . S
H541 C480 0.959 . S
H542 C480 0.959 . S
H543 C480 0.960 . S
H544 C483 0.929 . S
H545 C487 0.929 . S
H546 C488 0.959 . S
H547 C488 0.961 . S
H548 C488 0.961 . S
H549 C489 0.960 . S
H550 C489 0.960 . S
H551 C489 0.961 . S
H552 C491 0.980 . S
H553 C490 0.961 . S
H554 C490 0.960 . S
H555 C490 0.959 . S
H556 C493 0.930 . S
H557 C497 0.931 . S
H558 C498 0.959 . S
H559 C498 0.961 . S
H560 C498 0.959 . S
H561 C499 0.960 . S
H562 C499 0.960 . S
H563 C499 0.960 . S
H564 C535 0.980 . S
H565 C501 0.930 . S
H566 C505 0.930 . S
H567 C506 0.961 . S
H568 C506 0.960 . S
H569 C506 0.958 . S
H570 C507 0.961 . S
H571 C507 0.960 . S
H572 C507 0.960 . S
H573 C509 0.980 . S
H574 C508 0.961 . S
H575 C508 0.961 . S
H576 C508 0.959 . S
H577 C511 0.932 . S
H578 C515 0.929 . S
H579 C516 0.961 . S
H580 C516 0.959 . S
H581 C516 0.959 . S
H582 C517 0.960 . S
H583 C517 0.962 . S
H584 C517 0.961 . S
H585 C519 0.929 . S
H586 C522 0.930 . S
H587 C523 0.929 . S
H588 C526 0.930 . S
H589 C529 0.929 . S
H590 C530 0.930 . S
H591 C534 0.962 . S
H592 C534 0.959 . S
H593 C534 0.958 . S
C594 C595 1.560 . S
C594 H655 0.959 . S
C594 H656 0.959 . S
C594 H657 0.960 . S
C595 C594 1.560 . S
C595 O650 1.426 . S
C595 H654 0.980 . S
C596 C597 1.407 . S
C596 C601 1.418 . S
C596 O650 1.334 . S
C597 C596 1.407 . S
C597 C598 1.360 . S
C597 H658 0.929 . S
C598 C597 1.360 . S
C598 C599 1.401 . S
C598 C602 1.527 . S
C599 C598 1.401 . S
C599 C600 1.405 . S
C599 C632 1.587 . S
C600 C599 1.405 . S
C600 C601 1.332 . S
C600 C603 1.496 . S
C601 C596 1.418 . S
C601 C600 1.332 . S
C601 H659 0.929 . S
C602 C598 1.527 . S
C602 H660 0.959 . S
C602 H661 0.961 . S
C602 H662 0.961 . S
C603 C600 1.496 . S
C603 H663 0.960 . S
C603 H664 0.960 . S
C603 H665 0.961 . S
C604 C605 1.517 . S
C604 H667 0.961 . S
C604 H668 0.960 . S
C604 H669 0.959 . S
C605 C604 1.517 . S
C605 O653 1.468 . S
C605 H666 0.980 . S
C606 C607 1.349 . S
C606 C611 1.367 . S
C606 O653 1.408 . S
C607 C606 1.349 . S
C607 C608 1.407 . S
C607 H670 0.930 . S
C608 C607 1.407 . S
C608 C609 1.449 . S
C608 C612 1.535 . S
C609 C608 1.449 . S
C609 C610 1.384 . S
C609 C634 1.553 . S
C610 C609 1.384 . S
C610 C611 1.364 . S
C610 C613 1.450 . S
C611 C606 1.367 . S
C611 C610 1.364 . S
C611 H671 0.931 . S
C612 C608 1.535 . S
C612 H672 0.959 . S
C612 H673 0.961 . S
C612 H674 0.959 . S
C613 C610 1.450 . S
C613 H675 0.960 . S
C613 H676 0.960 . S
C613 H677 0.960 . S
C614 C615 1.309 . S
C614 C619 1.304 . S
C614 O652 1.435 . S
C615 C614 1.309 . S
C615 C616 1.476 . S
C615 H679 0.930 . S
C616 C615 1.476 . S
C616 C617 1.400 . S
C616 C620 1.567 . S
C617 C616 1.400 . S
C617 C618 1.373 . S
C617 C639 1.432 . S
C618 C617 1.373 . S
C618 C619 1.339 . S
C618 C621 1.530 . S
C619 C614 1.304 . S
C619 C618 1.339 . S
C619 H680 0.930 . S
C620 C616 1.567 . S
C620 H681 0.961 . S
C620 H682 0.960 . S
C620 H683 0.958 . S
C621 C618 1.530 . S
C621 H684 0.961 . S
C621 H685 0.960 . S
C621 H686 0.960 . S
C622 C623 1.530 . S
C622 H688 0.961 . S
C622 H689 0.961 . S
C622 H690 0.959 . S
C623 C622 1.530 . S
C623 O651 1.412 . S
C623 H687 0.980 . S
C624 C625 1.288 . S
C624 C629 1.377 . S
C624 O651 1.393 . S
C625 C624 1.288 . S
C625 C626 1.369 . S
C625 H691 0.932 . S
C626 C625 1.369 . S
C626 C627 1.398 . S
C626 C630 1.527 . S
C627 C626 1.398 . S
C627 C628 1.380 . S
C627 C641 1.497 . S
C628 C627 1.380 . S
C628 C629 1.383 . S
C628 C631 1.603 . S
C629 C624 1.377 . S
C629 C628 1.383 . S
C629 H692 0.929 . S
C630 C626 1.527 . S
C630 H693 0.961 . S
C630 H694 0.959 . S
C630 H695 0.959 . S
C631 C628 1.603 . S
C631 H696 0.960 . S
C631 H697 0.962 . S
C631 H698 0.961 . S
C632 C599 1.587 . S
C632 C633 1.360 . S
C632 C645 1.412 . S
C633 C632 1.360 . S
C633 C634 1.365 . S
C633 H699 0.929 . S
C634 C609 1.553 . S
C634 C633 1.365 . S
C634 C635 1.404 . S
C635 C634 1.404 . S
C635 C636 1.395 . S
C635 C646 1.451 . S
C636 C635 1.395 . S
C636 C637 1.322 . S
C636 H700 0.930 . S
C637 C636 1.322 . S
C637 C638 1.459 . S
C637 H701 0.929 . S
C638 C637 1.459 . S
C638 C639 1.445 . S
C638 C647 1.395 . S
C639 C617 1.432 . S
C639 C638 1.445 . S
C639 C640 1.370 . S
C640 C639 1.370 . S
C640 C641 1.438 . S
C640 H702 0.930 . S
C641 C627 1.497 . S
C641 C640 1.438 . S
C641 C642 1.360 . S
C642 C641 1.360 . S
C642 C643 1.401 . S
C642 C647 1.446 . S
C643 C642 1.401 . S
C643 C644 1.347 . S
C643 H703 0.929 . S
C644 C643 1.347 . S
C644 C645 1.455 . S
C644 H704 0.930 . S
C645 C632 1.412 . S
C645 C644 1.455 . S
C645 C646 1.331 . S
C646 C635 1.451 . S
C646 C645 1.331 . S
C646 C647 1.497 . S
C647 C638 1.395 . S
C647 C642 1.446 . S
C647 C646 1.497 . S
C648 C649 1.582 . S
C648 H705 0.962 . S
C648 H706 0.959 . S
C648 H707 0.958 . S
C649 C648 1.582 . S
C649 O652 1.458 . S
C649 H678 0.980 . S
O650 C595 1.426 . S
O650 C596 1.334 . S
O651 C623 1.412 . S
O651 C624 1.393 . S
O652 C614 1.435 . S
O652 C649 1.458 . S
O653 C605 1.468 . S
O653 C606 1.408 . S
H654 C595 0.980 . S
H655 C594 0.959 . S
H656 C594 0.959 . S
H657 C594 0.960 . S
H658 C597 0.929 . S
H659 C601 0.929 . S
H660 C602 0.959 . S
H661 C602 0.961 . S
H662 C602 0.961 . S
H663 C603 0.960 . S
H664 C603 0.960 . S
H665 C603 0.961 . S
H666 C605 0.980 . S
H667 C604 0.961 . S
H668 C604 0.960 . S
H669 C604 0.959 . S
H670 C607 0.930 . S
H671 C611 0.931 . S
H672 C612 0.959 . S
H673 C612 0.961 . S
H674 C612 0.959 . S
H675 C613 0.960 . S
H676 C613 0.960 . S
H677 C613 0.960 . S
H678 C649 0.980 . S
H679 C615 0.930 . S
H680 C619 0.930 . S
H681 C620 0.961 . S
H682 C620 0.960 . S
H683 C620 0.958 . S
H684 C621 0.961 . S
H685 C621 0.960 . S
H686 C621 0.960 . S
H687 C623 0.980 . S
H688 C622 0.961 . S
H689 C622 0.961 . S
H690 C622 0.959 . S
H691 C625 0.932 . S
H692 C629 0.929 . S
H693 C630 0.961 . S
H694 C630 0.959 . S
H695 C630 0.959 . S
H696 C631 0.960 . S
H697 C631 0.962 . S
H698 C631 0.961 . S
H699 C633 0.929 . S
H700 C636 0.930 . S
H701 C637 0.929 . S
H702 C640 0.930 . S
H703 C643 0.929 . S
H704 C644 0.930 . S
H705 C648 0.962 . S
H706 C648 0.959 . S
H707 C648 0.958 . S
C708 C709 1.560 . S
C708 H769 0.959 . S
C708 H770 0.959 . S
C708 H771 0.960 . S
C709 C708 1.560 . S
C709 O764 1.426 . S
C709 H768 0.980 . S
C710 C711 1.407 . S
C710 C715 1.418 . S
C710 O764 1.334 . S
C711 C710 1.407 . S
C711 C712 1.360 . S
C711 H772 0.929 . S
C712 C711 1.360 . S
C712 C713 1.401 . S
C712 C716 1.527 . S
C713 C712 1.401 . S
C713 C714 1.405 . S
C713 C746 1.587 . S
C714 C713 1.405 . S
C714 C715 1.332 . S
C714 C717 1.496 . S
C715 C710 1.418 . S
C715 C714 1.332 . S
C715 H773 0.929 . S
C716 C712 1.527 . S
C716 H774 0.959 . S
C716 H775 0.961 . S
C716 H776 0.961 . S
C717 C714 1.496 . S
C717 H777 0.960 . S
C717 H778 0.960 . S
C717 H779 0.961 . S
C718 C719 1.517 . S
C718 H781 0.961 . S
C718 H782 0.960 . S
C718 H783 0.959 . S
C719 C718 1.517 . S
C719 O767 1.468 . S
C719 H780 0.980 . S
C720 C721 1.349 . S
C720 C725 1.367 . S
C720 O767 1.408 . S
C721 C720 1.349 . S
C721 C722 1.407 . S
C721 H784 0.930 . S
C722 C721 1.407 . S
C722 C723 1.449 . S
C722 C726 1.535 . S
C723 C722 1.449 . S
C723 C724 1.384 . S
C723 C748 1.553 . S
C724 C723 1.384 . S
C724 C725 1.364 . S
C724 C727 1.450 . S
C725 C720 1.367 . S
C725 C724 1.364 . S
C725 H785 0.931 . S
C726 C722 1.535 . S
C726 H786 0.959 . S
C726 H787 0.961 . S
C726 H788 0.959 . S
C727 C724 1.450 . S
C727 H789 0.960 . S
C727 H790 0.960 . S
C727 H791 0.960 . S
C728 C729 1.309 . S
C728 C733 1.304 . S
C728 O766 1.435 . S
C729 C728 1.309 . S
C729 C730 1.476 . S
C729 H793 0.930 . S
C730 C729 1.476 . S
C730 C731 1.400 . S
C730 C734 1.567 . S
C731 C730 1.400 . S
C731 C732 1.373 . S
C731 C753 1.432 . S
C732 C731 1.373 . S
C732 C733 1.339 . S
C732 C735 1.530 . S
C733 C728 1.304 . S
C733 C732 1.339 . S
C733 H794 0.930 . S
C734 C730 1.567 . S
C734 H795 0.961 . S
C734 H796 0.960 . S
C734 H797 0.958 . S
C735 C732 1.530 . S
C735 H798 0.961 . S
C735 H799 0.960 . S
C735 H800 0.960 . S
C736 C737 1.530 . S
C736 H802 0.961 . S
C736 H803 0.961 . S
C736 H804 0.959 . S
C737 C736 1.530 . S
C737 O765 1.412 . S
C737 H801 0.980 . S
C738 C739 1.288 . S
C738 C743 1.377 . S
C738 O765 1.393 . S
C739 C738 1.288 . S
C739 C740 1.369 . S
C739 H805 0.932 . S
C740 C739 1.369 . S
C740 C741 1.398 . S
C740 C744 1.527 . S
C741 C740 1.398 . S
C741 C742 1.380 . S
C741 C755 1.497 . S
C742 C741 1.380 . S
C742 C743 1.383 . S
C742 C745 1.603 . S
C743 C738 1.377 . S
C743 C742 1.383 . S
C743 H806 0.929 . S
C744 C740 1.527 . S
C744 H807 0.961 . S
C744 H808 0.959 . S
C744 H809 0.959 . S
C745 C742 1.603 . S
C745 H810 0.960 . S
C745 H811 0.962 . S
C745 H812 0.961 . S
C746 C713 1.587 . S
C746 C747 1.360 . S
C746 C759 1.412 . S
C747 C746 1.360 . S
C747 C748 1.365 . S
C747 H813 0.929 . S
C748 C723 1.553 . S
C748 C747 1.365 . S
C748 C749 1.404 . S
C749 C748 1.404 . S
C749 C750 1.395 . S
C749 C760 1.451 . S
C750 C749 1.395 . S
C750 C751 1.322 . S
C750 H814 0.930 . S
C751 C750 1.322 . S
C751 C752 1.459 . S
C751 H815 0.929 . S
C752 C751 1.459 . S
C752 C753 1.445 . S
C752 C761 1.395 . S
C753 C731 1.432 . S
C753 C752 1.445 . S
C753 C754 1.370 . S
C754 C753 1.370 . S
C754 C755 1.438 . S
C754 H816 0.930 . S
C755 C741 1.497 . S
C755 C754 1.438 . S
C755 C756 1.360 . S
C756 C755 1.360 . S
C756 C757 1.401 . S
C756 C761 1.446 . S
C757 C756 1.401 . S
C757 C758 1.347 . S
C757 H817 0.929 . S
C758 C757 1.347 . S
C758 C759 1.455 . S
C758 H818 0.930 . S
C759 C746 1.412 . S
C759 C758 1.455 . S
C759 C760 1.331 . S
C760 C749 1.451 . S
C760 C759 1.331 . S
C760 C761 1.497 . S
C761 C752 1.395 . S
C761 C756 1.446 . S
C761 C760 1.497 . S
C762 C763 1.582 . S
C762 H819 0.962 . S
C762 H820 0.959 . S
C762 H821 0.958 . S
C763 C762 1.582 . S
C763 O766 1.458 . S
C763 H792 0.980 . S
O764 C709 1.426 . S
O764 C710 1.334 . S
O765 C737 1.412 . S
O765 C738 1.393 . S
O766 C728 1.435 . S
O766 C763 1.458 . S
O767 C719 1.468 . S
O767 C720 1.408 . S
H768 C709 0.980 . S
H769 C708 0.959 . S
H770 C708 0.959 . S
H771 C708 0.960 . S
H772 C711 0.929 . S
H773 C715 0.929 . S
H774 C716 0.959 . S
H775 C716 0.961 . S
H776 C716 0.961 . S
H777 C717 0.960 . S
H778 C717 0.960 . S
H779 C717 0.961 . S
H780 C719 0.980 . S
H781 C718 0.961 . S
H782 C718 0.960 . S
H783 C718 0.959 . S
H784 C721 0.930 . S
H785 C725 0.931 . S
H786 C726 0.959 . S
H787 C726 0.961 . S
H788 C726 0.959 . S
H789 C727 0.960 . S
H790 C727 0.960 . S
H791 C727 0.960 . S
H792 C763 0.980 . S
H793 C729 0.930 . S
H794 C733 0.930 . S
H795 C734 0.961 . S
H796 C734 0.960 . S
H797 C734 0.958 . S
H798 C735 0.961 . S
H799 C735 0.960 . S
H800 C735 0.960 . S
H801 C737 0.980 . S
H802 C736 0.961 . S
H803 C736 0.961 . S
H804 C736 0.959 . S
H805 C739 0.932 . S
H806 C743 0.929 . S
H807 C744 0.961 . S
H808 C744 0.959 . S
H809 C744 0.959 . S
H810 C745 0.960 . S
H811 C745 0.962 . S
H812 C745 0.961 . S
H813 C747 0.929 . S
H814 C750 0.930 . S
H815 C751 0.929 . S
H816 C754 0.930 . S
H817 C757 0.929 . S
H818 C758 0.930 . S
H819 C762 0.962 . S
H820 C762 0.959 . S
H821 C762 0.958 . S
C822 C823 1.560 . S
C822 H883 0.959 . S
C822 H884 0.959 . S
C822 H885 0.960 . S
C823 C822 1.560 . S
C823 O878 1.426 . S
C823 H882 0.980 . S
C824 C825 1.407 . S
C824 C829 1.418 . S
C824 O878 1.334 . S
C825 C824 1.407 . S
C825 C826 1.360 . S
C825 H886 0.929 . S
C826 C825 1.360 . S
C826 C827 1.401 . S
C826 C830 1.527 . S
C827 C826 1.401 . S
C827 C828 1.405 . S
C827 C860 1.587 . S
C828 C827 1.405 . S
C828 C829 1.332 . S
C828 C831 1.496 . S
C829 C824 1.418 . S
C829 C828 1.332 . S
C829 H887 0.929 . S
C830 C826 1.527 . S
C830 H888 0.959 . S
C830 H889 0.961 . S
C830 H890 0.961 . S
C831 C828 1.496 . S
C831 H891 0.960 . S
C831 H892 0.960 . S
C831 H893 0.961 . S
C832 C833 1.517 . S
C832 H895 0.961 . S
C832 H896 0.960 . S
C832 H897 0.959 . S
C833 C832 1.517 . S
C833 O881 1.468 . S
C833 H894 0.980 . S
C834 C835 1.349 . S
C834 C839 1.367 . S
C834 O881 1.408 . S
C835 C834 1.349 . S
C835 C836 1.407 . S
C835 H898 0.930 . S
C836 C835 1.407 . S
C836 C837 1.449 . S
C836 C840 1.535 . S
C837 C836 1.449 . S
C837 C838 1.384 . S
C837 C862 1.553 . S
C838 C837 1.384 . S
C838 C839 1.364 . S
C838 C841 1.450 . S
C839 C834 1.367 . S
C839 C838 1.364 . S
C839 H899 0.931 . S
C840 C836 1.535 . S
C840 H900 0.959 . S
C840 H901 0.961 . S
C840 H902 0.959 . S
C841 C838 1.450 . S
C841 H903 0.960 . S
C841 H904 0.960 . S
C841 H905 0.960 . S
C842 C843 1.309 . S
C842 C847 1.304 . S
C842 O880 1.435 . S
C843 C842 1.309 . S
C843 C844 1.476 . S
C843 H907 0.930 . S
C844 C843 1.476 . S
C844 C845 1.400 . S
C844 C848 1.567 . S
C845 C844 1.400 . S
C845 C846 1.373 . S
C845 C867 1.432 . S
C846 C845 1.373 . S
C846 C847 1.339 . S
C846 C849 1.530 . S
C847 C842 1.304 . S
C847 C846 1.339 . S
C847 H908 0.930 . S
C848 C844 1.567 . S
C848 H909 0.961 . S
C848 H910 0.960 . S
C848 H911 0.958 . S
C849 C846 1.530 . S
C849 H912 0.961 . S
C849 H913 0.960 . S
C849 H914 0.960 . S
C850 C851 1.530 . S
C850 H916 0.961 . S
C850 H917 0.961 . S
C850 H918 0.959 . S
C851 C850 1.530 . S
C851 O879 1.412 . S
C851 H915 0.980 . S
C852 C853 1.288 . S
C852 C857 1.377 . S
C852 O879 1.393 . S
C853 C852 1.288 . S
C853 C854 1.369 . S
C853 H919 0.932 . S
C854 C853 1.369 . S
C854 C855 1.398 . S
C854 C858 1.527 . S
C855 C854 1.398 . S
C855 C856 1.380 . S
C855 C869 1.497 . S
C856 C855 1.380 . S
C856 C857 1.383 . S
C856 C859 1.603 . S
C857 C852 1.377 . S
C857 C856 1.383 . S
C857 H920 0.929 . S
C858 C854 1.527 . S
C858 H921 0.961 . S
C858 H922 0.959 . S
C858 H923 0.959 . S
C859 C856 1.603 . S
C859 H924 0.960 . S
C859 H925 0.962 . S
C859 H926 0.961 . S
C860 C827 1.587 . S
C860 C861 1.360 . S
C860 C873 1.412 . S
C861 C860 1.360 . S
C861 C862 1.365 . S
C861 H927 0.929 . S
C862 C837 1.553 . S
C862 C861 1.365 . S
C862 C863 1.404 . S
C863 C862 1.404 . S
C863 C864 1.395 . S
C863 C874 1.451 . S
C864 C863 1.395 . S
C864 C865 1.322 . S
C864 H928 0.930 . S
C865 C864 1.322 . S
C865 C866 1.459 . S
C865 H929 0.929 . S
C866 C865 1.459 . S
C866 C867 1.445 . S
C866 C875 1.395 . S
C867 C845 1.432 . S
C867 C866 1.445 . S
C867 C868 1.370 . S
C868 C867 1.370 . S
C868 C869 1.438 . S
C868 H930 0.930 . S
C869 C855 1.497 . S
C869 C868 1.438 . S
C869 C870 1.360 . S
C870 C869 1.360 . S
C870 C871 1.401 . S
C870 C875 1.446 . S
C871 C870 1.401 . S
C871 C872 1.347 . S
C871 H931 0.929 . S
C872 C871 1.347 . S
C872 C873 1.455 . S
C872 H932 0.930 . S
C873 C860 1.412 . S
C873 C872 1.455 . S
C873 C874 1.331 . S
C874 C863 1.451 . S
C874 C873 1.331 . S
C874 C875 1.497 . S
C875 C866 1.395 . S
C875 C870 1.446 . S
C875 C874 1.497 . S
C876 C877 1.582 . S
C876 H933 0.962 . S
C876 H934 0.959 . S
C876 H935 0.958 . S
C877 C876 1.582 . S
C877 O880 1.458 . S
C877 H906 0.980 . S
O878 C823 1.426 . S
O878 C824 1.334 . S
O879 C851 1.412 . S
O879 C852 1.393 . S
O880 C842 1.435 . S
O880 C877 1.458 . S
O881 C833 1.468 . S
O881 C834 1.408 . S
H882 C823 0.980 . S
H883 C822 0.959 . S
H884 C822 0.959 . S
H885 C822 0.960 . S
H886 C825 0.929 . S
H887 C829 0.929 . S
H888 C830 0.959 . S
H889 C830 0.961 . S
H890 C830 0.961 . S
H891 C831 0.960 . S
H892 C831 0.960 . S
H893 C831 0.961 . S
H894 C833 0.980 . S
H895 C832 0.961 . S
H896 C832 0.960 . S
H897 C832 0.959 . S
H898 C835 0.930 . S
H899 C839 0.931 . S
H900 C840 0.959 . S
H901 C840 0.961 . S
H902 C840 0.959 . S
H903 C841 0.960 . S
H904 C841 0.960 . S
H905 C841 0.960 . S
H906 C877 0.980 . S
H907 C843 0.930 . S
H908 C847 0.930 . S
H909 C848 0.961 . S
H910 C848 0.960 . S
H911 C848 0.958 . S
H912 C849 0.961 . S
H913 C849 0.960 . S
H914 C849 0.960 . S
H915 C851 0.980 . S
H916 C850 0.961 . S
H917 C850 0.961 . S
H918 C850 0.959 . S
H919 C853 0.932 . S
H920 C857 0.929 . S
H921 C858 0.961 . S
H922 C858 0.959 . S
H923 C858 0.959 . S
H924 C859 0.960 . S
H925 C859 0.962 . S
H926 C859 0.961 . S
H927 C861 0.929 . S
H928 C864 0.930 . S
H929 C865 0.929 . S
H930 C868 0.930 . S
H931 C871 0.929 . S
H932 C872 0.930 . S
H933 C876 0.962 . S
H934 C876 0.959 . S
H935 C876 0.958 . S
C936 C937 1.560 . S
C936 H997 0.959 . S
C936 H998 0.959 . S
C936 H999 0.960 . S
C937 C936 1.560 . S
C937 O992 1.426 . S
C937 H996 0.980 . S
C938 C939 1.407 . S
C938 C943 1.418 . S
C938 O992 1.334 . S
C939 C938 1.407 . S
C939 C940 1.360 . S
C939 H1000 0.929 . S
C940 C939 1.360 . S
C940 C941 1.401 . S
C940 C944 1.527 . S
C941 C940 1.401 . S
C941 C942 1.405 . S
C941 C974 1.587 . S
C942 C941 1.405 . S
C942 C943 1.332 . S
C942 C945 1.496 . S
C943 C938 1.418 . S
C943 C942 1.332 . S
C943 H1001 0.929 . S
C944 C940 1.527 . S
C944 H1002 0.959 . S
C944 H1003 0.961 . S
C944 H1004 0.961 . S
C945 C942 1.496 . S
C945 H1005 0.960 . S
C945 H1006 0.960 . S
C945 H1007 0.961 . S
C946 C947 1.517 . S
C946 H1009 0.961 . S
C946 H1010 0.960 . S
C946 H1011 0.959 . S
C947 C946 1.517 . S
C947 O995 1.468 . S
C947 H1008 0.980 . S
C948 C949 1.349 . S
C948 C953 1.367 . S
C948 O995 1.408 . S
C949 C948 1.349 . S
C949 C950 1.407 . S
C949 H1012 0.930 . S
C950 C949 1.407 . S
C950 C951 1.449 . S
C950 C954 1.535 . S
C951 C950 1.449 . S
C951 C952 1.384 . S
C951 C976 1.553 . S
C952 C951 1.384 . S
C952 C953 1.364 . S
C952 C955 1.450 . S
C953 C948 1.367 . S
C953 C952 1.364 . S
C953 H1013 0.931 . S
C954 C950 1.535 . S
C954 H1014 0.959 . S
C954 H1015 0.961 . S
C954 H1016 0.959 . S
C955 C952 1.450 . S
C955 H1017 0.960 . S
C955 H1018 0.960 . S
C955 H1019 0.960 . S
C956 C957 1.309 . S
C956 C961 1.304 . S
C956 O994 1.435 . S
C957 C956 1.309 . S
C957 C958 1.476 . S
C957 H1021 0.930 . S
C958 C957 1.476 . S
C958 C959 1.400 . S
C958 C962 1.567 . S
C959 C958 1.400 . S
C959 C960 1.373 . S
C959 C981 1.432 . S
C960 C959 1.373 . S
C960 C961 1.339 . S
C960 C963 1.530 . S
C961 C956 1.304 . S
C961 C960 1.339 . S
C961 H1022 0.930 . S
C962 C958 1.567 . S
C962 H1023 0.961 . S
C962 H1024 0.960 . S
C962 H1025 0.958 . S
C963 C960 1.530 . S
C963 H1026 0.961 . S
C963 H1027 0.960 . S
C963 H1028 0.960 . S
C964 C965 1.530 . S
C964 H1030 0.961 . S
C964 H1031 0.961 . S
C964 H1032 0.959 . S
C965 C964 1.530 . S
C965 O993 1.412 . S
C965 H1029 0.980 . S
C966 C967 1.288 . S
C966 C971 1.377 . S
C966 O993 1.393 . S
C967 C966 1.288 . S
C967 C968 1.369 . S
C967 H1033 0.932 . S
C968 C967 1.369 . S
C968 C969 1.398 . S
C968 C972 1.527 . S
C969 C968 1.398 . S
C969 C970 1.380 . S
C969 C983 1.497 . S
C970 C969 1.380 . S
C970 C971 1.383 . S
C970 C973 1.603 . S
C971 C966 1.377 . S
C971 C970 1.383 . S
C971 H1034 0.929 . S
C972 C968 1.527 . S
C972 H1035 0.961 . S
C972 H1036 0.959 . S
C972 H1037 0.959 . S
C973 C970 1.603 . S
C973 H1038 0.960 . S
C973 H1039 0.962 . S
C973 H1040 0.961 . S
C974 C941 1.587 . S
C974 C975 1.360 . S
C974 C987 1.412 . S
C975 C974 1.360 . S
C975 C976 1.365 . S
C975 H1041 0.929 . S
C976 C951 1.553 . S
C976 C975 1.365 . S
C976 C977 1.404 . S
C977 C976 1.404 . S
C977 C978 1.395 . S
C977 C988 1.451 . S
C978 C977 1.395 . S
C978 C979 1.322 . S
C978 H1042 0.930 . S
C979 C978 1.322 . S
C979 C980 1.459 . S
C979 H1043 0.929 . S
C980 C979 1.459 . S
C980 C981 1.445 . S
C980 C989 1.395 . S
C981 C959 1.432 . S
C981 C980 1.445 . S
C981 C982 1.370 . S
C982 C981 1.370 . S
C982 C983 1.438 . S
C982 H1044 0.930 . S
C983 C969 1.497 . S
C983 C982 1.438 . S
C983 C984 1.360 . S
C984 C983 1.360 . S
C984 C985 1.401 . S
C984 C989 1.446 . S
C985 C984 1.401 . S
C985 C986 1.347 . S
C985 H1045 0.929 . S
C986 C985 1.347 . S
C986 C987 1.455 . S
C986 H1046 0.930 . S
C987 C974 1.412 . S
C987 C986 1.455 . S
C987 C988 1.331 . S
C988 C977 1.451 . S
C988 C987 1.331 . S
C988 C989 1.497 . S
C989 C980 1.395 . S
C989 C984 1.446 . S
C989 C988 1.497 . S
C990 C991 1.582 . S
C990 H1047 0.962 . S
C990 H1048 0.959 . S
C990 H1049 0.958 . S
C991 C990 1.582 . S
C991 O994 1.458 . S
C991 H1020 0.980 . S
O992 C937 1.426 . S
O992 C938 1.334 . S
O993 C965 1.412 . S
O993 C966 1.393 . S
O994 C956 1.435 . S
O994 C991 1.458 . S
O995 C947 1.468 . S
O995 C948 1.408 . S
H996 C937 0.980 . S
H997 C936 0.959 . S
H998 C936 0.959 . S
H999 C936 0.960 . S
H1000 C939 0.929 . S
H1001 C943 0.929 . S
H1002 C944 0.959 . S
H1003 C944 0.961 . S
H1004 C944 0.961 . S
H1005 C945 0.960 . S
H1006 C945 0.960 . S
H1007 C945 0.961 . S
H1008 C947 0.980 . S
H1009 C946 0.961 . S
H1010 C946 0.960 . S
H1011 C946 0.959 . S
H1012 C949 0.930 . S
H1013 C953 0.931 . S
H1014 C954 0.959 . S
H1015 C954 0.961 . S
H1016 C954 0.959 . S
H1017 C955 0.960 . S
H1018 C955 0.960 . S
H1019 C955 0.960 . S
H1020 C991 0.980 . S
H1021 C957 0.930 . S
H1022 C961 0.930 . S
H1023 C962 0.961 . S
H1024 C962 0.960 . S
H1025 C962 0.958 . S
H1026 C963 0.961 . S
H1027 C963 0.960 . S
H1028 C963 0.960 . S
H1029 C965 0.980 . S
H1030 C964 0.961 . S
H1031 C964 0.961 . S
H1032 C964 0.959 . S
H1033 C967 0.932 . S
H1034 C971 0.929 . S
H1035 C972 0.961 . S
H1036 C972 0.959 . S
H1037 C972 0.959 . S
H1038 C973 0.960 . S
H1039 C973 0.962 . S
H1040 C973 0.961 . S
H1041 C975 0.929 . S
H1042 C978 0.930 . S
H1043 C979 0.929 . S
H1044 C982 0.930 . S
H1045 C985 0.929 . S
H1046 C986 0.930 . S
H1047 C990 0.962 . S
H1048 C990 0.959 . S
H1049 C990 0.958 . S
C1050 C1051 1.560 . S
C1050 H1111 0.959 . S
C1050 H1112 0.959 . S
C1050 H1113 0.960 . S
C1051 C1050 1.560 . S
C1051 O1106 1.426 . S
C1051 H1110 0.980 . S
C1052 C1053 1.407 . S
C1052 C1057 1.418 . S
C1052 O1106 1.334 . S
C1053 C1052 1.407 . S
C1053 C1054 1.360 . S
C1053 H1114 0.929 . S
C1054 C1053 1.360 . S
C1054 C1055 1.401 . S
C1054 C1058 1.527 . S
C1055 C1054 1.401 . S
C1055 C1056 1.405 . S
C1055 C1088 1.587 . S
C1056 C1055 1.405 . S
C1056 C1057 1.332 . S
C1056 C1059 1.496 . S
C1057 C1052 1.418 . S
C1057 C1056 1.332 . S
C1057 H1115 0.929 . S
C1058 C1054 1.527 . S
C1058 H1116 0.959 . S
C1058 H1117 0.961 . S
C1058 H1118 0.961 . S
C1059 C1056 1.496 . S
C1059 H1119 0.960 . S
C1059 H1120 0.960 . S
C1059 H1121 0.961 . S
C1060 C1061 1.517 . S
C1060 H1123 0.961 . S
C1060 H1124 0.960 . S
C1060 H1125 0.959 . S
C1061 C1060 1.517 . S
C1061 O1109 1.468 . S
C1061 H1122 0.980 . S
C1062 C1063 1.349 . S
C1062 C1067 1.367 . S
C1062 O1109 1.408 . S
C1063 C1062 1.349 . S
C1063 C1064 1.407 . S
C1063 H1126 0.930 . S
C1064 C1063 1.407 . S
C1064 C1065 1.449 . S
C1064 C1068 1.535 . S
C1065 C1064 1.449 . S
C1065 C1066 1.384 . S
C1065 C1090 1.553 . S
C1066 C1065 1.384 . S
C1066 C1067 1.364 . S
C1066 C1069 1.450 . S
C1067 C1062 1.367 . S
C1067 C1066 1.364 . S
C1067 H1127 0.931 . S
C1068 C1064 1.535 . S
C1068 H1128 0.959 . S
C1068 H1129 0.961 . S
C1068 H1130 0.959 . S
C1069 C1066 1.450 . S
C1069 H1131 0.960 . S
C1069 H1132 0.960 . S
C1069 H1133 0.960 . S
C1070 C1071 1.309 . S
C1070 C1075 1.304 . S
C1070 O1108 1.435 . S
C1071 C1070 1.309 . S
C1071 C1072 1.476 . S
C1071 H1135 0.930 . S
C1072 C1071 1.476 . S
C1072 C1073 1.400 . S
C1072 C1076 1.567 . S
C1073 C1072 1.400 . S
C1073 C1074 1.373 . S
C1073 C1095 1.432 . S
C1074 C1073 1.373 . S
C1074 C1075 1.339 . S
C1074 C1077 1.530 . S
C1075 C1070 1.304 . S
C1075 C1074 1.339 . S
C1075 H1136 0.930 . S
C1076 C1072 1.567 . S
C1076 H1137 0.961 . S
C1076 H1138 0.960 . S
C1076 H1139 0.958 . S
C1077 C1074 1.530 . S
C1077 H1140 0.961 . S
C1077 H1141 0.960 . S
C1077 H1142 0.960 . S
C1078 C1079 1.530 . S
C1078 H1144 0.961 . S
C1078 H1145 0.961 . S
C1078 H1146 0.959 . S
C1079 C1078 1.530 . S
C1079 O1107 1.412 . S
C1079 H1143 0.980 . S
C1080 C1081 1.288 . S
C1080 C1085 1.377 . S
C1080 O1107 1.393 . S
C1081 C1080 1.288 . S
C1081 C1082 1.369 . S
C1081 H1147 0.932 . S
C1082 C1081 1.369 . S
C1082 C1083 1.398 . S
C1082 C1086 1.527 . S
C1083 C1082 1.398 . S
C1083 C1084 1.380 . S
C1083 C1097 1.497 . S
C1084 C1083 1.380 . S
C1084 C1085 1.383 . S
C1084 C1087 1.603 . S
C1085 C1080 1.377 . S
C1085 C1084 1.383 . S
C1085 H1148 0.929 . S
C1086 C1082 1.527 . S
C1086 H1149 0.961 . S
C1086 H1150 0.959 . S
C1086 H1151 0.959 . S
C1087 C1084 1.603 . S
C1087 H1152 0.960 . S
C1087 H1153 0.962 . S
C1087 H1154 0.961 . S
C1088 C1055 1.587 . S
C1088 C1089 1.360 . S
C1088 C1101 1.412 . S
C1089 C1088 1.360 . S
C1089 C1090 1.365 . S
C1089 H1155 0.929 . S
C1090 C1065 1.553 . S
C1090 C1089 1.365 . S
C1090 C1091 1.404 . S
C1091 C1090 1.404 . S
C1091 C1092 1.395 . S
C1091 C1102 1.451 . S
C1092 C1091 1.395 . S
C1092 C1093 1.322 . S
C1092 H1156 0.930 . S
C1093 C1092 1.322 . S
C1093 C1094 1.459 . S
C1093 H1157 0.929 . S
C1094 C1093 1.459 . S
C1094 C1095 1.445 . S
C1094 C1103 1.395 . S
C1095 C1073 1.432 . S
C1095 C1094 1.445 . S
C1095 C1096 1.370 . S
C1096 C1095 1.370 . S
C1096 C1097 1.438 . S
C1096 H1158 0.930 . S
C1097 C1083 1.497 . S
C1097 C1096 1.438 . S
C1097 C1098 1.360 . S
C1098 C1097 1.360 . S
C1098 C1099 1.401 . S
C1098 C1103 1.446 . S
C1099 C1098 1.401 . S
C1099 C1100 1.347 . S
C1099 H1159 0.929 . S
C1100 C1099 1.347 . S
C1100 C1101 1.455 . S
C1100 H1160 0.930 . S
C1101 C1088 1.412 . S
C1101 C1100 1.455 . S
C1101 C1102 1.331 . S
C1102 C1091 1.451 . S
C1102 C1101 1.331 . S
C1102 C1103 1.497 . S
C1103 C1094 1.395 . S
C1103 C1098 1.446 . S
C1103 C1102 1.497 . S
C1104 C1105 1.582 . S
C1104 H1161 0.962 . S
C1104 H1162 0.959 . S
C1104 H1163 0.958 . S
C1105 C1104 1.582 . S
C1105 O1108 1.458 . S
C1105 H1134 0.980 . S
O1106 C1051 1.426 . S
O1106 C1052 1.334 . S
O1107 C1079 1.412 . S
O1107 C1080 1.393 . S
O1108 C1070 1.435 . S
O1108 C1105 1.458 . S
O1109 C1061 1.468 . S
O1109 C1062 1.408 . S
H1110 C1051 0.980 . S
H1111 C1050 0.959 . S
H1112 C1050 0.959 . S
H1113 C1050 0.960 . S
H1114 C1053 0.929 . S
H1115 C1057 0.929 . S
H1116 C1058 0.959 . S
H1117 C1058 0.961 . S
H1118 C1058 0.961 . S
H1119 C1059 0.960 . S
H1120 C1059 0.960 . S
H1121 C1059 0.961 . S
H1122 C1061 0.980 . S
H1123 C1060 0.961 . S
H1124 C1060 0.960 . S
H1125 C1060 0.959 . S
H1126 C1063 0.930 . S
H1127 C1067 0.931 . S
H1128 C1068 0.959 . S
H1129 C1068 0.961 . S
H1130 C1068 0.959 . S
H1131 C1069 0.960 . S
H1132 C1069 0.960 . S
H1133 C1069 0.960 . S
H1134 C1105 0.980 . S
H1135 C1071 0.930 . S
H1136 C1075 0.930 . S
H1137 C1076 0.961 . S
H1138 C1076 0.960 . S
H1139 C1076 0.958 . S
H1140 C1077 0.961 . S
H1141 C1077 0.960 . S
H1142 C1077 0.960 . S
H1143 C1079 0.980 . S
H1144 C1078 0.961 . S
H1145 C1078 0.961 . S
H1146 C1078 0.959 . S
H1147 C1081 0.932 . S
H1148 C1085 0.929 . S
H1149 C1086 0.961 . S
H1150 C1086 0.959 . S
H1151 C1086 0.959 . S
H1152 C1087 0.960 . S
H1153 C1087 0.962 . S
H1154 C1087 0.961 . S
H1155 C1089 0.929 . S
H1156 C1092 0.930 . S
H1157 C1093 0.929 . S
H1158 C1096 0.930 . S
H1159 C1099 0.929 . S
H1160 C1100 0.930 . S
H1161 C1104 0.962 . S
H1162 C1104 0.959 . S
H1163 C1104 0.958 . S
C1164 C1165 1.560 . S
C1164 H1225 0.959 . S
C1164 H1226 0.959 . S
C1164 H1227 0.960 . S
C1165 C1164 1.560 . S
C1165 O1220 1.426 . S
C1165 H1224 0.980 . S
C1166 C1167 1.407 . S
C1166 C1171 1.418 . S
C1166 O1220 1.334 . S
C1167 C1166 1.407 . S
C1167 C1168 1.360 . S
C1167 H1228 0.929 . S
C1168 C1167 1.360 . S
C1168 C1169 1.401 . S
C1168 C1172 1.527 . S
C1169 C1168 1.401 . S
C1169 C1170 1.405 . S
C1169 C1202 1.587 . S
C1170 C1169 1.405 . S
C1170 C1171 1.332 . S
C1170 C1173 1.496 . S
C1171 C1166 1.418 . S
C1171 C1170 1.332 . S
C1171 H1229 0.929 . S
C1172 C1168 1.527 . S
C1172 H1230 0.959 . S
C1172 H1231 0.961 . S
C1172 H1232 0.961 . S
C1173 C1170 1.496 . S
C1173 H1233 0.960 . S
C1173 H1234 0.960 . S
C1173 H1235 0.961 . S
C1174 C1175 1.517 . S
C1174 H1237 0.961 . S
C1174 H1238 0.960 . S
C1174 H1239 0.959 . S
C1175 C1174 1.517 . S
C1175 O1223 1.468 . S
C1175 H1236 0.980 . S
C1176 C1177 1.349 . S
C1176 C1181 1.367 . S
C1176 O1223 1.408 . S
C1177 C1176 1.349 . S
C1177 C1178 1.407 . S
C1177 H1240 0.930 . S
C1178 C1177 1.407 . S
C1178 C1179 1.449 . S
C1178 C1182 1.535 . S
C1179 C1178 1.449 . S
C1179 C1180 1.384 . S
C1179 C1204 1.553 . S
C1180 C1179 1.384 . S
C1180 C1181 1.364 . S
C1180 C1183 1.450 . S
C1181 C1176 1.367 . S
C1181 C1180 1.364 . S
C1181 H1241 0.931 . S
C1182 C1178 1.535 . S
C1182 H1242 0.959 . S
C1182 H1243 0.961 . S
C1182 H1244 0.959 . S
C1183 C1180 1.450 . S
C1183 H1245 0.960 . S
C1183 H1246 0.960 . S
C1183 H1247 0.960 . S
C1184 C1185 1.309 . S
C1184 C1189 1.304 . S
C1184 O1222 1.435 . S
C1185 C1184 1.309 . S
C1185 C1186 1.476 . S
C1185 H1249 0.930 . S
C1186 C1185 1.476 . S
C1186 C1187 1.400 . S
C1186 C1190 1.567 . S
C1187 C1186 1.400 . S
C1187 C1188 1.373 . S
C1187 C1209 1.432 . S
C1188 C1187 1.373 . S
C1188 C1189 1.339 . S
C1188 C1191 1.530 . S
C1189 C1184 1.304 . S
C1189 C1188 1.339 . S
C1189 H1250 0.930 . S
C1190 C1186 1.567 . S
C1190 H1251 0.961 . S
C1190 H1252 0.960 . S
C1190 H1253 0.958 . S
C1191 C1188 1.530 . S
C1191 H1254 0.961 . S
C1191 H1255 0.960 . S
C1191 H1256 0.960 . S
C1192 C1193 1.530 . S
C1192 H1258 0.961 . S
C1192 H1259 0.961 . S
C1192 H1260 0.959 . S
C1193 C1192 1.530 . S
C1193 O1221 1.412 . S
C1193 H1257 0.980 . S
C1194 C1195 1.288 . S
C1194 C1199 1.377 . S
C1194 O1221 1.393 . S
C1195 C1194 1.288 . S
C1195 C1196 1.369 . S
C1195 H1261 0.932 . S
C1196 C1195 1.369 . S
C1196 C1197 1.398 . S
C1196 C1200 1.527 . S
C1197 C1196 1.398 . S
C1197 C1198 1.380 . S
C1197 C1211 1.497 . S
C1198 C1197 1.380 . S
C1198 C1199 1.383 . S
C1198 C1201 1.603 . S
C1199 C1194 1.377 . S
C1199 C1198 1.383 . S
C1199 H1262 0.929 . S
C1200 C1196 1.527 . S
C1200 H1263 0.961 . S
C1200 H1264 0.959 . S
C1200 H1265 0.959 . S
C1201 C1198 1.603 . S
C1201 H1266 0.960 . S
C1201 H1267 0.962 . S
C1201 H1268 0.961 . S
C1202 C1169 1.587 . S
C1202 C1203 1.360 . S
C1202 C1215 1.412 . S
C1203 C1202 1.360 . S
C1203 C1204 1.365 . S
C1203 H1269 0.929 . S
C1204 C1179 1.553 . S
C1204 C1203 1.365 . S
C1204 C1205 1.404 . S
C1205 C1204 1.404 . S
C1205 C1206 1.395 . S
C1205 C1216 1.451 . S
C1206 C1205 1.395 . S
C1206 C1207 1.322 . S
C1206 H1270 0.930 . S
C1207 C1206 1.322 . S
C1207 C1208 1.459 . S
C1207 H1271 0.929 . S
C1208 C1207 1.459 . S
C1208 C1209 1.445 . S
C1208 C1217 1.395 . S
C1209 C1187 1.432 . S
C1209 C1208 1.445 . S
C1209 C1210 1.370 . S
C1210 C1209 1.370 . S
C1210 C1211 1.438 . S
C1210 H1272 0.930 . S
C1211 C1197 1.497 . S
C1211 C1210 1.438 . S
C1211 C1212 1.360 . S
C1212 C1211 1.360 . S
C1212 C1213 1.401 . S
C1212 C1217 1.446 . S
C1213 C1212 1.401 . S
C1213 C1214 1.347 . S
C1213 H1273 0.929 . S
C1214 C1213 1.347 . S
C1214 C1215 1.455 . S
C1214 H1274 0.930 . S
C1215 C1202 1.412 . S
C1215 C1214 1.455 . S
C1215 C1216 1.331 . S
C1216 C1205 1.451 . S
C1216 C1215 1.331 . S
C1216 C1217 1.497 . S
C1217 C1208 1.395 . S
C1217 C1212 1.446 . S
C1217 C1216 1.497 . S
C1218 C1219 1.582 . S
C1218 H1275 0.962 . S
C1218 H1276 0.959 . S
C1218 H1277 0.958 . S
C1219 C1218 1.582 . S
C1219 O1222 1.458 . S
C1219 H1248 0.980 . S
O1220 C1165 1.426 . S
O1220 C1166 1.334 . S
O1221 C1193 1.412 . S
O1221 C1194 1.393 . S
O1222 C1184 1.435 . S
O1222 C1219 1.458 . S
O1223 C1175 1.468 . S
O1223 C1176 1.408 . S
H1224 C1165 0.980 . S
H1225 C1164 0.959 . S
H1226 C1164 0.959 . S
H1227 C1164 0.960 . S
H1228 C1167 0.929 . S
H1229 C1171 0.929 . S
H1230 C1172 0.959 . S
H1231 C1172 0.961 . S
H1232 C1172 0.961 . S
H1233 C1173 0.960 . S
H1234 C1173 0.960 . S
H1235 C1173 0.961 . S
H1236 C1175 0.980 . S
H1237 C1174 0.961 . S
H1238 C1174 0.960 . S
H1239 C1174 0.959 . S
H1240 C1177 0.930 . S
H1241 C1181 0.931 . S
H1242 C1182 0.959 . S
H1243 C1182 0.961 . S
H1244 C1182 0.959 . S
H1245 C1183 0.960 . S
H1246 C1183 0.960 . S
H1247 C1183 0.960 . S
H1248 C1219 0.980 . S
H1249 C1185 0.930 . S
H1250 C1189 0.930 . S
H1251 C1190 0.961 . S
H1252 C1190 0.960 . S
H1253 C1190 0.958 . S
H1254 C1191 0.961 . S
H1255 C1191 0.960 . S
H1256 C1191 0.960 . S
H1257 C1193 0.980 . S
H1258 C1192 0.961 . S
H1259 C1192 0.961 . S
H1260 C1192 0.959 . S
H1261 C1195 0.932 . S
H1262 C1199 0.929 . S
H1263 C1200 0.961 . S
H1264 C1200 0.959 . S
H1265 C1200 0.959 . S
H1266 C1201 0.960 . S
H1267 C1201 0.962 . S
H1268 C1201 0.961 . S
H1269 C1203 0.929 . S
H1270 C1206 0.930 . S
H1271 C1207 0.929 . S
H1272 C1210 0.930 . S
H1273 C1213 0.929 . S
H1274 C1214 0.930 . S
H1275 C1218 0.962 . S
H1276 C1218 0.959 . S
H1277 C1218 0.958 . S
C1278 C1279 1.560 . S
C1278 H1339 0.959 . S
C1278 H1340 0.959 . S
C1278 H1341 0.960 . S
C1279 C1278 1.560 . S
C1279 O1334 1.426 . S
C1279 H1338 0.980 . S
C1280 C1281 1.407 1_455 S
C1280 C1285 1.418 . S
C1280 O1334 1.334 . S
C1281 C1280 1.407 1_655 S
C1281 C1282 1.360 . S
C1281 H1342 0.929 . S
C1282 C1281 1.360 . S
C1282 C1283 1.401 1_655 S
C1282 C1286 1.527 . S
C1283 C1282 1.401 1_455 S
C1283 C1284 1.405 . S
C1283 C1316 1.587 1_455 S
C1284 C1283 1.405 . S
C1284 C1285 1.332 . S
C1284 C1287 1.496 . S
C1285 C1280 1.418 . S
C1285 C1284 1.332 . S
C1285 H1343 0.929 . S
C1286 C1282 1.527 . S
C1286 H1344 0.959 . S
C1286 H1345 0.961 . S
C1286 H1346 0.961 . S
C1287 C1284 1.496 . S
C1287 H1347 0.960 . S
C1287 H1348 0.960 . S
C1287 H1349 0.961 . S
C1288 C1289 1.517 . S
C1288 H1351 0.961 . S
C1288 H1352 0.960 . S
C1288 H1353 0.959 . S
C1289 C1288 1.517 . S
C1289 O1337 1.468 . S
C1289 H1350 0.980 1_655 S
C1290 C1291 1.349 . S
C1290 C1295 1.367 . S
C1290 O1337 1.408 . S
C1291 C1290 1.349 . S
C1291 C1292 1.372 1_655 S
C1291 H1354 0.930 1_655 S
C1292 C1291 1.372 1_455 S
C1292 C1293 1.421 1_455 S
C1292 C1296 1.594 . S
C1293 C1292 1.421 1_655 S
C1293 C1294 1.384 . S
C1293 C1318 1.553 . S
C1294 C1293 1.384 . S
C1294 C1295 1.364 . S
C1294 C1297 1.450 . S
C1295 C1290 1.367 . S
C1295 C1294 1.364 . S
C1295 H1355 0.931 . S
C1296 C1292 1.594 . S
C1296 H1356 0.959 . S
C1296 H1357 0.961 . S
C1296 H1358 0.959 . S
C1297 C1294 1.450 . S
C1297 H1359 0.960 . S
C1297 H1360 0.960 . S
C1297 H1361 0.960 . S
C1298 C1299 1.309 . S
C1298 C1303 1.304 . S
C1298 O1336 1.435 . S
C1299 C1298 1.309 . S
C1299 C1300 1.477 1_655 S
C1299 H1363 0.930 1_655 S
C1300 C1299 1.477 1_455 S
C1300 C1301 1.401 1_455 S
C1300 C1304 1.564 . S
C1301 C1300 1.401 1_655 S
C1301 C1302 1.373 . S
C1301 C1323 1.432 . S
C1302 C1301 1.373 . S
C1302 C1303 1.339 . S
C1302 C1305 1.530 . S
C1303 C1298 1.304 . S
C1303 C1302 1.339 . S
C1303 H1364 0.930 . S
C1304 C1300 1.564 . S
C1304 H1365 0.961 . S
C1304 H1366 0.960 . S
C1304 H1367 0.958 . S
C1305 C1302 1.530 . S
C1305 H1368 0.961 . S
C1305 H1369 0.960 . S
C1305 H1370 0.960 . S
C1306 C1307 1.538 . S
C1306 H1372 0.961 . S
C1306 H1373 0.961 . S
C1306 H1374 0.959 . S
C1307 C1306 1.538 . S
C1307 O1335 1.413 . S
C1307 H1371 0.978 1_455 S
C1308 C1309 1.288 . S
C1308 C1313 1.377 1_455 S
C1308 O1335 1.393 . S
C1309 C1308 1.288 . S
C1309 C1310 1.369 . S
C1309 H1375 0.932 . S
C1310 C1309 1.369 . S
C1310 C1311 1.398 1_455 S
C1310 C1314 1.527 . S
C1311 C1310 1.398 1_655 S
C1311 C1312 1.380 . S
C1311 C1325 1.497 . S
C1312 C1311 1.380 . S
C1312 C1313 1.383 . S
C1312 C1315 1.603 . S
C1313 C1308 1.377 1_655 S
C1313 C1312 1.383 . S
C1313 H1376 0.929 . S
C1314 C1310 1.527 . S
C1314 H1377 0.961 . S
C1314 H1378 0.959 . S
C1314 H1379 0.959 . S
C1315 C1312 1.603 . S
C1315 H1380 0.960 . S
C1315 H1381 0.962 . S
C1315 H1382 0.961 . S
C1316 C1283 1.587 1_655 S
C1316 C1317 1.360 . S
C1316 C1329 1.412 . S
C1317 C1316 1.360 . S
C1317 C1318 1.365 . S
C1317 H1383 0.929 . S
C1318 C1293 1.553 . S
C1318 C1317 1.365 . S
C1318 C1319 1.404 . S
C1319 C1318 1.404 . S
C1319 C1320 1.395 . S
C1319 C1330 1.451 . S
C1320 C1319 1.395 . S
C1320 C1321 1.322 . S
C1320 H1384 0.930 . S
C1321 C1320 1.322 . S
C1321 C1322 1.459 . S
C1321 H1385 0.929 . S
C1322 C1321 1.459 . S
C1322 C1323 1.445 . S
C1322 C1331 1.395 . S
C1323 C1301 1.432 . S
C1323 C1322 1.445 . S
C1323 C1324 1.370 . S
C1324 C1323 1.370 . S
C1324 C1325 1.438 . S
C1324 H1386 0.930 . S
C1325 C1311 1.497 . S
C1325 C1324 1.438 . S
C1325 C1326 1.360 . S
C1326 C1325 1.360 . S
C1326 C1327 1.401 . S
C1326 C1331 1.446 . S
C1327 C1326 1.401 . S
C1327 C1328 1.347 . S
C1327 H1387 0.929 . S
C1328 C1327 1.347 . S
C1328 C1329 1.455 . S
C1328 H1388 0.930 . S
C1329 C1316 1.412 . S
C1329 C1328 1.455 . S
C1329 C1330 1.331 . S
C1330 C1319 1.451 . S
C1330 C1329 1.331 . S
C1330 C1331 1.497 . S
C1331 C1322 1.395 . S
C1331 C1326 1.446 . S
C1331 C1330 1.497 . S
C1332 C1333 1.582 . S
C1332 H1389 0.962 . S
C1332 H1390 0.959 . S
C1332 H1391 0.958 . S
C1333 C1332 1.582 . S
C1333 O1336 1.458 . S
C1333 H1362 0.980 . S
O1334 C1279 1.426 . S
O1334 C1280 1.334 . S
O1335 C1307 1.413 . S
O1335 C1308 1.393 . S
O1336 C1298 1.435 . S
O1336 C1333 1.458 . S
O1337 C1289 1.468 . S
O1337 C1290 1.408 . S
H1338 C1279 0.980 . S
H1339 C1278 0.959 . S
H1340 C1278 0.959 . S
H1341 C1278 0.960 . S
H1342 C1281 0.929 . S
H1343 C1285 0.929 . S
H1344 C1286 0.959 . S
H1345 C1286 0.961 . S
H1346 C1286 0.961 . S
H1347 C1287 0.960 . S
H1348 C1287 0.960 . S
H1349 C1287 0.961 . S
H1350 C1289 0.980 1_455 S
H1351 C1288 0.961 . S
H1352 C1288 0.960 . S
H1353 C1288 0.959 . S
H1354 C1291 0.930 1_455 S
H1355 C1295 0.931 . S
H1356 C1296 0.959 . S
H1357 C1296 0.961 . S
H1358 C1296 0.959 . S
H1359 C1297 0.960 . S
H1360 C1297 0.960 . S
H1361 C1297 0.960 . S
H1362 C1333 0.980 . S
H1363 C1299 0.930 1_455 S
H1364 C1303 0.930 . S
H1365 C1304 0.961 . S
H1366 C1304 0.960 . S
H1367 C1304 0.958 . S
H1368 C1305 0.961 . S
H1369 C1305 0.960 . S
H1370 C1305 0.960 . S
H1371 C1307 0.978 1_655 S
H1372 C1306 0.961 . S
H1373 C1306 0.961 . S
H1374 C1306 0.959 . S
H1375 C1309 0.932 . S
H1376 C1313 0.929 . S
H1377 C1314 0.961 . S
H1378 C1314 0.959 . S
H1379 C1314 0.959 . S
H1380 C1315 0.960 . S
H1381 C1315 0.962 . S
H1382 C1315 0.961 . S
H1383 C1317 0.929 . S
H1384 C1320 0.930 . S
H1385 C1321 0.929 . S
H1386 C1324 0.930 . S
H1387 C1327 0.929 . S
H1388 C1328 0.930 . S
H1389 C1332 0.962 . S
H1390 C1332 0.959 . S
H1391 C1332 0.958 . S
C1392 C1393 1.560 . S
C1392 H1453 0.959 . S
C1392 H1454 0.959 . S
C1392 H1455 0.960 . S
C1393 C1392 1.560 . S
C1393 O1448 1.426 . S
C1393 H1452 0.980 . S
C1394 C1395 1.407 . S
C1394 C1399 1.418 . S
C1394 O1448 1.334 . S
C1395 C1394 1.407 . S
C1395 C1396 1.360 . S
C1395 H1456 0.929 . S
C1396 C1395 1.360 . S
C1396 C1397 1.401 . S
C1396 C1400 1.527 . S
C1397 C1396 1.401 . S
C1397 C1398 1.405 . S
C1397 C1430 1.587 . S
C1398 C1397 1.405 . S
C1398 C1399 1.332 . S
C1398 C1401 1.496 . S
C1399 C1394 1.418 . S
C1399 C1398 1.332 . S
C1399 H1457 0.929 . S
C1400 C1396 1.527 . S
C1400 H1458 0.959 . S
C1400 H1459 0.961 . S
C1400 H1460 0.961 . S
C1401 C1398 1.496 . S
C1401 H1461 0.960 . S
C1401 H1462 0.960 . S
C1401 H1463 0.961 . S
C1402 C1403 1.517 . S
C1402 H1465 0.961 . S
C1402 H1466 0.960 . S
C1402 H1467 0.959 . S
C1403 C1402 1.517 . S
C1403 O1451 1.468 . S
C1403 H1464 0.980 . S
C1404 C1405 1.349 . S
C1404 C1409 1.367 . S
C1404 O1451 1.408 . S
C1405 C1404 1.349 . S
C1405 C1406 1.407 . S
C1405 H1468 0.930 . S
C1406 C1405 1.407 . S
C1406 C1407 1.449 . S
C1406 C1410 1.535 . S
C1407 C1406 1.449 . S
C1407 C1408 1.384 . S
C1407 C1432 1.553 . S
C1408 C1407 1.384 . S
C1408 C1409 1.364 . S
C1408 C1411 1.450 . S
C1409 C1404 1.367 . S
C1409 C1408 1.364 . S
C1409 H1469 0.931 . S
C1410 C1406 1.535 . S
C1410 H1470 0.959 . S
C1410 H1471 0.961 . S
C1410 H1472 0.959 . S
C1411 C1408 1.450 . S
C1411 H1473 0.960 . S
C1411 H1474 0.960 . S
C1411 H1475 0.960 . S
C1412 C1413 1.309 . S
C1412 C1417 1.304 . S
C1412 O1450 1.435 . S
C1413 C1412 1.309 . S
C1413 C1414 1.476 . S
C1413 H1477 0.930 . S
C1414 C1413 1.476 . S
C1414 C1415 1.400 . S
C1414 C1418 1.567 . S
C1415 C1414 1.400 . S
C1415 C1416 1.373 . S
C1415 C1437 1.432 . S
C1416 C1415 1.373 . S
C1416 C1417 1.339 . S
C1416 C1419 1.530 . S
C1417 C1412 1.304 . S
C1417 C1416 1.339 . S
C1417 H1478 0.930 . S
C1418 C1414 1.567 . S
C1418 H1479 0.961 . S
C1418 H1480 0.960 . S
C1418 H1481 0.958 . S
C1419 C1416 1.530 . S
C1419 H1482 0.961 . S
C1419 H1483 0.960 . S
C1419 H1484 0.960 . S
C1420 C1421 1.530 . S
C1420 H1486 0.961 . S
C1420 H1487 0.961 . S
C1420 H1488 0.959 . S
C1421 C1420 1.530 . S
C1421 O1449 1.412 . S
C1421 H1485 0.980 . S
C1422 C1423 1.288 . S
C1422 C1427 1.377 . S
C1422 O1449 1.393 . S
C1423 C1422 1.288 . S
C1423 C1424 1.369 . S
C1423 H1489 0.932 . S
C1424 C1423 1.369 . S
C1424 C1425 1.398 . S
C1424 C1428 1.527 . S
C1425 C1424 1.398 . S
C1425 C1426 1.380 . S
C1425 C1439 1.497 . S
C1426 C1425 1.380 . S
C1426 C1427 1.383 . S
C1426 C1429 1.603 . S
C1427 C1422 1.377 . S
C1427 C1426 1.383 . S
C1427 H1490 0.929 . S
C1428 C1424 1.527 . S
C1428 H1491 0.961 . S
C1428 H1492 0.959 . S
C1428 H1493 0.959 . S
C1429 C1426 1.603 . S
C1429 H1494 0.960 . S
C1429 H1495 0.962 . S
C1429 H1496 0.961 . S
C1430 C1397 1.587 . S
C1430 C1431 1.360 . S
C1430 C1443 1.412 . S
C1431 C1430 1.360 . S
C1431 C1432 1.365 . S
C1431 H1497 0.929 . S
C1432 C1407 1.553 . S
C1432 C1431 1.365 . S
C1432 C1433 1.404 . S
C1433 C1432 1.404 . S
C1433 C1434 1.395 . S
C1433 C1444 1.451 . S
C1434 C1433 1.395 . S
C1434 C1435 1.322 . S
C1434 H1498 0.930 . S
C1435 C1434 1.322 . S
C1435 C1436 1.459 . S
C1435 H1499 0.929 . S
C1436 C1435 1.459 . S
C1436 C1437 1.445 . S
C1436 C1445 1.395 . S
C1437 C1415 1.432 . S
C1437 C1436 1.445 . S
C1437 C1438 1.370 . S
C1438 C1437 1.370 . S
C1438 C1439 1.438 . S
C1438 H1500 0.930 . S
C1439 C1425 1.497 . S
C1439 C1438 1.438 . S
C1439 C1440 1.360 . S
C1440 C1439 1.360 . S
C1440 C1441 1.401 . S
C1440 C1445 1.446 . S
C1441 C1440 1.401 . S
C1441 C1442 1.347 . S
C1441 H1501 0.929 . S
C1442 C1441 1.347 . S
C1442 C1443 1.455 . S
C1442 H1502 0.930 . S
C1443 C1430 1.412 . S
C1443 C1442 1.455 . S
C1443 C1444 1.331 . S
C1444 C1433 1.451 . S
C1444 C1443 1.331 . S
C1444 C1445 1.497 . S
C1445 C1436 1.395 . S
C1445 C1440 1.446 . S
C1445 C1444 1.497 . S
C1446 C1447 1.582 . S
C1446 H1503 0.962 . S
C1446 H1504 0.959 . S
C1446 H1505 0.958 . S
C1447 C1446 1.582 . S
C1447 O1450 1.458 . S
C1447 H1476 0.980 . S
O1448 C1393 1.426 . S
O1448 C1394 1.334 . S
O1449 C1421 1.412 . S
O1449 C1422 1.393 . S
O1450 C1412 1.435 . S
O1450 C1447 1.458 . S
O1451 C1403 1.468 . S
O1451 C1404 1.408 . S
H1452 C1393 0.980 . S
H1453 C1392 0.959 . S
H1454 C1392 0.959 . S
H1455 C1392 0.960 . S
H1456 C1395 0.929 . S
H1457 C1399 0.929 . S
H1458 C1400 0.959 . S
H1459 C1400 0.961 . S
H1460 C1400 0.961 . S
H1461 C1401 0.960 . S
H1462 C1401 0.960 . S
H1463 C1401 0.961 . S
H1464 C1403 0.980 . S
H1465 C1402 0.961 . S
H1466 C1402 0.960 . S
H1467 C1402 0.959 . S
H1468 C1405 0.930 . S
H1469 C1409 0.931 . S
H1470 C1410 0.959 . S
H1471 C1410 0.961 . S
H1472 C1410 0.959 . S
H1473 C1411 0.960 . S
H1474 C1411 0.960 . S
H1475 C1411 0.960 . S
H1476 C1447 0.980 . S
H1477 C1413 0.930 . S
H1478 C1417 0.930 . S
H1479 C1418 0.961 . S
H1480 C1418 0.960 . S
H1481 C1418 0.958 . S
H1482 C1419 0.961 . S
H1483 C1419 0.960 . S
H1484 C1419 0.960 . S
H1485 C1421 0.980 . S
H1486 C1420 0.961 . S
H1487 C1420 0.961 . S
H1488 C1420 0.959 . S
H1489 C1423 0.932 . S
H1490 C1427 0.929 . S
H1491 C1428 0.961 . S
H1492 C1428 0.959 . S
H1493 C1428 0.959 . S
H1494 C1429 0.960 . S
H1495 C1429 0.962 . S
H1496 C1429 0.961 . S
H1497 C1431 0.929 . S
H1498 C1434 0.930 . S
H1499 C1435 0.929 . S
H1500 C1438 0.930 . S
H1501 C1441 0.929 . S
H1502 C1442 0.930 . S
H1503 C1446 0.962 . S
H1504 C1446 0.959 . S
H1505 C1446 0.958 . S
C1506 C1507 1.560 . S
C1506 H1567 0.959 . S
C1506 H1568 0.959 . S
C1506 H1569 0.960 . S
C1507 C1506 1.560 . S
C1507 O1562 1.426 . S
C1507 H1566 0.980 . S
C1508 C1509 1.407 1_565 S
C1508 C1513 1.418 . S
C1508 O1562 1.334 . S
C1509 C1508 1.407 1_545 S
C1509 C1510 1.360 . S
C1509 H1570 0.929 . S
C1510 C1509 1.360 . S
C1510 C1511 1.328 1_545 S
C1510 C1514 1.527 . S
C1511 C1510 1.328 1_565 S
C1511 C1512 1.472 . S
C1511 C1544 1.601 1_565 S
C1512 C1511 1.472 . S
C1512 C1513 1.332 . S
C1512 C1515 1.496 . S
C1513 C1508 1.418 . S
C1513 C1512 1.332 . S
C1513 H1571 0.929 . S
C1514 C1510 1.527 . S
C1514 H1572 0.959 . S
C1514 H1573 0.961 . S
C1514 H1574 0.961 . S
C1515 C1512 1.496 . S
C1515 H1575 0.960 . S
C1515 H1576 0.960 . S
C1515 H1577 0.961 . S
C1516 C1517 1.517 . S
C1516 H1579 0.961 1_545 S
C1516 H1580 0.960 . S
C1516 H1581 0.959 . S
C1517 C1516 1.517 . S
C1517 O1565 1.468 . S
C1517 H1578 0.980 1_545 S
C1518 C1519 1.351 1_545 S
C1518 C1523 1.367 . S
C1518 O1565 1.408 . S
C1519 C1518 1.351 1_565 S
C1519 C1520 1.409 . S
C1519 H1582 0.927 . S
C1520 C1519 1.409 . S
C1520 C1521 1.449 1_565 S
C1520 C1524 1.535 . S
C1521 C1520 1.449 1_545 S
C1521 C1522 1.384 . S
C1521 C1546 1.553 . S
C1522 C1521 1.384 . S
C1522 C1523 1.364 . S
C1522 C1525 1.450 . S
C1523 C1518 1.367 . S
C1523 C1522 1.364 . S
C1523 H1583 0.931 . S
C1524 C1520 1.535 . S
C1524 H1584 0.959 . S
C1524 H1585 0.961 . S
C1524 H1586 0.959 . S
C1525 C1522 1.450 . S
C1525 H1587 0.960 . S
C1525 H1588 0.960 . S
C1525 H1589 0.960 . S
C1526 C1527 1.309 . S
C1526 C1531 1.304 . S
C1526 O1564 1.435 . S
C1527 C1526 1.309 . S
C1527 C1528 1.476 1_545 S
C1527 H1591 0.930 1_545 S
C1528 C1527 1.476 1_565 S
C1528 C1529 1.400 1_565 S
C1528 C1532 1.567 . S
C1529 C1528 1.400 1_545 S
C1529 C1530 1.373 . S
C1529 C1551 1.432 . S
C1530 C1529 1.373 . S
C1530 C1531 1.339 . S
C1530 C1533 1.530 . S
C1531 C1526 1.304 . S
C1531 C1530 1.339 . S
C1531 H1592 0.930 . S
C1532 C1528 1.567 . S
C1532 H1593 0.961 . S
C1532 H1594 0.960 . S
C1532 H1595 0.958 . S
C1533 C1530 1.530 . S
C1533 H1596 0.961 . S
C1533 H1597 0.960 . S
C1533 H1598 0.960 . S
C1534 C1535 1.530 1_565 S
C1534 H1600 0.961 . S
C1534 H1601 0.961 . S
C1534 H1602 0.959 . S
C1535 C1534 1.530 1_545 S
C1535 O1563 1.412 1_545 S
C1535 H1599 0.980 . S
C1536 C1537 1.288 . S
C1536 C1541 1.377 1_565 S
C1536 O1563 1.393 . S
C1537 C1536 1.288 . S
C1537 C1538 1.369 . S
C1537 H1603 0.932 . S
C1538 C1537 1.369 . S
C1538 C1539 1.398 1_565 S
C1538 C1542 1.527 . S
C1539 C1538 1.398 1_545 S
C1539 C1540 1.380 . S
C1539 C1553 1.497 . S
C1540 C1539 1.380 . S
C1540 C1541 1.383 . S
C1540 C1543 1.603 . S
C1541 C1536 1.377 1_545 S
C1541 C1540 1.383 . S
C1541 H1604 0.929 . S
C1542 C1538 1.527 . S
C1542 H1605 0.961 . S
C1542 H1606 0.959 . S
C1542 H1607 0.959 . S
C1543 C1540 1.603 . S
C1543 H1608 0.960 . S
C1543 H1609 0.962 . S
C1543 H1610 0.961 . S
C1544 C1511 1.601 1_545 S
C1544 C1545 1.360 . S
C1544 C1557 1.412 . S
C1545 C1544 1.360 . S
C1545 C1546 1.365 . S
C1545 H1611 0.929 . S
C1546 C1521 1.553 . S
C1546 C1545 1.365 . S
C1546 C1547 1.404 . S
C1547 C1546 1.404 . S
C1547 C1548 1.395 . S
C1547 C1558 1.451 . S
C1548 C1547 1.395 . S
C1548 C1549 1.322 . S
C1548 H1612 0.930 . S
C1549 C1548 1.322 . S
C1549 C1550 1.459 . S
C1549 H1613 0.929 . S
C1550 C1549 1.459 . S
C1550 C1551 1.445 . S
C1550 C1559 1.395 . S
C1551 C1529 1.432 . S
C1551 C1550 1.445 . S
C1551 C1552 1.370 . S
C1552 C1551 1.370 . S
C1552 C1553 1.438 . S
C1552 H1614 0.930 . S
C1553 C1539 1.497 . S
C1553 C1552 1.438 . S
C1553 C1554 1.360 . S
C1554 C1553 1.360 . S
C1554 C1555 1.401 . S
C1554 C1559 1.446 . S
C1555 C1554 1.401 . S
C1555 C1556 1.347 . S
C1555 H1615 0.929 . S
C1556 C1555 1.347 . S
C1556 C1557 1.455 . S
C1556 H1616 0.930 . S
C1557 C1544 1.412 . S
C1557 C1556 1.455 . S
C1557 C1558 1.331 . S
C1558 C1547 1.451 . S
C1558 C1557 1.331 . S
C1558 C1559 1.497 . S
C1559 C1550 1.395 . S
C1559 C1554 1.446 . S
C1559 C1558 1.497 . S
C1560 C1561 1.582 . S
C1560 H1617 0.962 . S
C1560 H1618 0.959 . S
C1560 H1619 0.958 . S
C1561 C1560 1.582 . S
C1561 O1564 1.458 . S
C1561 H1590 0.980 . S
O1562 C1507 1.426 . S
O1562 C1508 1.334 . S
O1563 C1535 1.412 1_565 S
O1563 C1536 1.393 . S
O1564 C1526 1.435 . S
O1564 C1561 1.458 . S
O1565 C1517 1.468 . S
O1565 C1518 1.408 . S
H1566 C1507 0.980 . S
H1567 C1506 0.959 . S
H1568 C1506 0.959 . S
H1569 C1506 0.960 . S
H1570 C1509 0.929 . S
H1571 C1513 0.929 . S
H1572 C1514 0.959 . S
H1573 C1514 0.961 . S
H1574 C1514 0.961 . S
H1575 C1515 0.960 . S
H1576 C1515 0.960 . S
H1577 C1515 0.961 . S
H1578 C1517 0.980 1_565 S
H1579 C1516 0.961 1_565 S
H1580 C1516 0.960 . S
H1581 C1516 0.959 . S
H1582 C1519 0.927 . S
H1583 C1523 0.931 . S
H1584 C1524 0.959 . S
H1585 C1524 0.961 . S
H1586 C1524 0.959 . S
H1587 C1525 0.960 . S
H1588 C1525 0.960 . S
H1589 C1525 0.960 . S
H1590 C1561 0.980 . S
H1591 C1527 0.930 1_565 S
H1592 C1531 0.930 . S
H1593 C1532 0.961 . S
H1594 C1532 0.960 . S
H1595 C1532 0.958 . S
H1596 C1533 0.961 . S
H1597 C1533 0.960 . S
H1598 C1533 0.960 . S
H1599 C1535 0.980 . S
H1600 C1534 0.961 . S
H1601 C1534 0.961 . S
H1602 C1534 0.959 . S
H1603 C1537 0.932 . S
H1604 C1541 0.929 . S
H1605 C1542 0.961 . S
H1606 C1542 0.959 . S
H1607 C1542 0.959 . S
H1608 C1543 0.960 . S
H1609 C1543 0.962 . S
H1610 C1543 0.961 . S
H1611 C1545 0.929 . S
H1612 C1548 0.930 . S
H1613 C1549 0.929 . S
H1614 C1552 0.930 . S
H1615 C1555 0.929 . S
H1616 C1556 0.930 . S
H1617 C1560 0.962 . S
H1618 C1560 0.959 . S
H1619 C1560 0.958 . S
C1620 C1621 1.560 . S
C1620 H1681 0.959 . S
C1620 H1682 0.959 . S
C1620 H1683 0.960 . S
C1621 C1620 1.560 . S
C1621 O1676 1.426 . S
C1621 H1680 0.980 1_565 S
C1622 C1623 1.407 1_565 S
C1622 C1627 1.418 . S
C1622 O1676 1.334 . S
C1623 C1622 1.407 1_545 S
C1623 C1624 1.360 . S
C1623 H1684 0.929 . S
C1624 C1623 1.360 . S
C1624 C1625 1.401 . S
C1624 C1628 1.527 . S
C1625 C1624 1.401 . S
C1625 C1626 1.405 1_545 S
C1625 C1658 1.587 . S
C1626 C1625 1.405 1_565 S
C1626 C1627 1.332 . S
C1626 C1629 1.496 . S
C1627 C1622 1.418 . S
C1627 C1626 1.332 . S
C1627 H1685 0.929 . S
C1628 C1624 1.527 . S
C1628 H1686 0.959 . S
C1628 H1687 0.961 . S
C1628 H1688 0.961 . S
C1629 C1626 1.496 . S
C1629 H1689 0.960 . S
C1629 H1690 0.960 . S
C1629 H1691 0.961 . S
C1630 C1631 1.517 . S
C1630 H1693 0.961 . S
C1630 H1694 0.960 . S
C1630 H1695 0.959 . S
C1631 C1630 1.517 . S
C1631 O1679 1.468 . S
C1631 H1692 0.980 . S
C1632 C1633 1.349 . S
C1632 C1637 1.367 . S
C1632 O1679 1.408 . S
C1633 C1632 1.349 . S
C1633 C1634 1.407 . S
C1633 H1696 0.940 . S
C1634 C1633 1.407 . S
C1634 C1635 1.449 . S
C1634 C1638 1.535 1_545 S
C1635 C1634 1.449 . S
C1635 C1636 1.384 . S
C1635 C1660 1.553 . S
C1636 C1635 1.384 . S
C1636 C1637 1.364 . S
C1636 C1639 1.450 . S
C1637 C1632 1.367 . S
C1637 C1636 1.364 . S
C1637 H1697 0.931 . S
C1638 C1634 1.535 1_565 S
C1638 H1698 0.959 . S
C1638 H1699 0.961 . S
C1638 H1700 0.959 . S
C1639 C1636 1.450 . S
C1639 H1701 0.960 . S
C1639 H1702 0.960 . S
C1639 H1703 0.960 . S
C1640 C1641 1.309 1_545 S
C1640 C1645 1.304 . S
C1640 O1678 1.435 . S
C1641 C1640 1.309 1_565 S
C1641 C1642 1.476 . S
C1641 H1705 0.930 . S
C1642 C1641 1.476 . S
C1642 C1643 1.400 1_565 S
C1642 C1646 1.567 . S
C1643 C1642 1.400 1_545 S
C1643 C1644 1.373 . S
C1643 C1665 1.432 . S
C1644 C1643 1.373 . S
C1644 C1645 1.339 . S
C1644 C1647 1.530 . S
C1645 C1640 1.304 . S
C1645 C1644 1.339 . S
C1645 H1706 0.930 . S
C1646 C1642 1.567 . S
C1646 H1707 0.961 . S
C1646 H1708 0.960 . S
C1646 H1709 0.958 . S
C1647 C1644 1.530 . S
C1647 H1710 0.961 . S
C1647 H1711 0.960 . S
C1647 H1712 0.960 . S
C1648 C1649 1.530 . S
C1648 H1714 0.961 . S
C1648 H1715 0.961 . S
C1648 H1716 0.959 . S
C1649 C1648 1.530 . S
C1649 O1677 1.412 . S
C1649 H1713 0.980 . S
C1650 C1651 1.288 . S
C1650 C1655 1.377 1_565 S
C1650 O1677 1.393 . S
C1651 C1650 1.288 . S
C1651 C1652 1.369 . S
C1651 H1717 0.932 . S
C1652 C1651 1.369 . S
C1652 C1653 1.398 . S
C1652 C1656 1.527 . S
C1653 C1652 1.398 . S
C1653 C1654 1.380 1_565 S
C1653 C1667 1.497 1_565 S
C1654 C1653 1.380 1_545 S
C1654 C1655 1.383 . S
C1654 C1657 1.603 . S
C1655 C1650 1.377 1_545 S
C1655 C1654 1.383 . S
C1655 H1718 0.929 . S
C1656 C1652 1.527 . S
C1656 H1719 0.961 . S
C1656 H1720 0.959 . S
C1656 H1721 0.959 . S
C1657 C1654 1.603 . S
C1657 H1722 0.960 . S
C1657 H1723 0.962 . S
C1657 H1724 0.961 . S
C1658 C1625 1.587 . S
C1658 C1659 1.360 . S
C1658 C1671 1.412 . S
C1659 C1658 1.360 . S
C1659 C1660 1.365 . S
C1659 H1725 0.929 . S
C1660 C1635 1.553 . S
C1660 C1659 1.365 . S
C1660 C1661 1.404 . S
C1661 C1660 1.404 . S
C1661 C1662 1.395 . S
C1661 C1672 1.451 . S
C1662 C1661 1.395 . S
C1662 C1663 1.322 . S
C1662 H1726 0.930 . S
C1663 C1662 1.322 . S
C1663 C1664 1.459 . S
C1663 H1727 0.929 . S
C1664 C1663 1.459 . S
C1664 C1665 1.445 . S
C1664 C1673 1.395 . S
C1665 C1643 1.432 . S
C1665 C1664 1.445 . S
C1665 C1666 1.370 . S
C1666 C1665 1.370 . S
C1666 C1667 1.438 . S
C1666 H1728 0.930 . S
C1667 C1653 1.497 1_545 S
C1667 C1666 1.438 . S
C1667 C1668 1.360 . S
C1668 C1667 1.360 . S
C1668 C1669 1.401 . S
C1668 C1673 1.446 . S
C1669 C1668 1.401 . S
C1669 C1670 1.347 . S
C1669 H1729 0.933 . S
C1670 C1669 1.347 . S
C1670 C1671 1.455 . S
C1670 H1730 0.930 . S
C1671 C1658 1.412 . S
C1671 C1670 1.455 . S
C1671 C1672 1.331 . S
C1672 C1661 1.451 . S
C1672 C1671 1.331 . S
C1672 C1673 1.497 . S
C1673 C1664 1.395 . S
C1673 C1668 1.446 . S
C1673 C1672 1.497 . S
C1674 C1675 1.582 . S
C1674 H1731 0.962 . S
C1674 H1732 0.959 . S
C1674 H1733 0.958 . S
C1675 C1674 1.582 . S
C1675 O1678 1.458 . S
C1675 H1704 0.980 1_545 S
O1676 C1621 1.426 . S
O1676 C1622 1.334 . S
O1677 C1649 1.412 . S
O1677 C1650 1.393 . S
O1678 C1640 1.435 . S
O1678 C1675 1.458 . S
O1679 C1631 1.468 . S
O1679 C1632 1.408 . S
H1680 C1621 0.980 1_545 S
H1681 C1620 0.959 . S
H1682 C1620 0.959 . S
H1683 C1620 0.960 . S
H1684 C1623 0.929 . S
H1685 C1627 0.929 . S
H1686 C1628 0.959 . S
H1687 C1628 0.961 . S
H1688 C1628 0.961 . S
H1689 C1629 0.960 . S
H1690 C1629 0.960 . S
H1691 C1629 0.961 . S
H1692 C1631 0.980 . S
H1693 C1630 0.961 . S
H1694 C1630 0.960 . S
H1695 C1630 0.959 . S
H1696 C1633 0.940 . S
H1697 C1637 0.931 . S
H1698 C1638 0.959 . S
H1699 C1638 0.961 . S
H1700 C1638 0.959 . S
H1701 C1639 0.960 . S
H1702 C1639 0.960 . S
H1703 C1639 0.960 . S
H1704 C1675 0.980 1_565 S
H1705 C1641 0.930 . S
H1706 C1645 0.930 . S
H1707 C1646 0.961 . S
H1708 C1646 0.960 . S
H1709 C1646 0.958 . S
H1710 C1647 0.961 . S
H1711 C1647 0.960 . S
H1712 C1647 0.960 . S
H1713 C1649 0.980 . S
H1714 C1648 0.961 . S
H1715 C1648 0.961 . S
H1716 C1648 0.959 . S
H1717 C1651 0.932 . S
H1718 C1655 0.929 . S
H1719 C1656 0.961 . S
H1720 C1656 0.959 . S
H1721 C1656 0.959 . S
H1722 C1657 0.960 . S
H1723 C1657 0.962 . S
H1724 C1657 0.961 . S
H1725 C1659 0.929 . S
H1726 C1662 0.930 . S
H1727 C1663 0.929 . S
H1728 C1666 0.930 . S
H1729 C1669 0.933 . S
H1730 C1670 0.930 . S
H1731 C1674 0.962 . S
H1732 C1674 0.959 . S
H1733 C1674 0.958 . S
C1734 C1735 1.560 . S
C1734 H1795 0.959 . S
C1734 H1796 0.959 . S
C1734 H1797 0.960 . S
C1735 C1734 1.560 . S
C1735 O1790 1.426 . S
C1735 H1794 0.980 1_455 S
C1736 C1737 1.407 1_455 S
C1736 C1741 1.418 . S
C1736 O1790 1.334 . S
C1737 C1736 1.407 1_655 S
C1737 C1738 1.360 . S
C1737 H1798 0.929 . S
C1738 C1737 1.360 . S
C1738 C1739 1.401 . S
C1738 C1742 1.527 . S
C1739 C1738 1.401 . S
C1739 C1740 1.405 1_655 S
C1739 C1772 1.587 . S
C1740 C1739 1.405 1_455 S
C1740 C1741 1.332 . S
C1740 C1743 1.496 . S
C1741 C1736 1.418 . S
C1741 C1740 1.332 . S
C1741 H1799 0.929 . S
C1742 C1738 1.527 . S
C1742 H1800 0.959 . S
C1742 H1801 0.961 . S
C1742 H1802 0.961 . S
C1743 C1740 1.496 . S
C1743 H1803 0.960 . S
C1743 H1804 0.960 . S
C1743 H1805 0.961 . S
C1744 C1745 1.517 . S
C1744 H1807 0.961 . S
C1744 H1808 0.960 . S
C1744 H1809 0.959 . S
C1745 C1744 1.517 . S
C1745 O1793 1.468 . S
C1745 H1806 0.980 . S
C1746 C1747 1.349 . S
C1746 C1751 1.367 . S
C1746 O1793 1.408 . S
C1747 C1746 1.349 . S
C1747 C1748 1.407 . S
C1747 H1810 0.915 1_655 S
C1748 C1747 1.407 . S
C1748 C1749 1.449 . S
C1748 C1752 1.535 1_655 S
C1749 C1748 1.449 . S
C1749 C1750 1.384 . S
C1749 C1774 1.553 . S
C1750 C1749 1.384 . S
C1750 C1751 1.364 . S
C1750 C1753 1.450 . S
C1751 C1746 1.367 . S
C1751 C1750 1.364 . S
C1751 H1811 0.931 . S
C1752 C1748 1.535 1_455 S
C1752 H1812 0.959 . S
C1752 H1813 0.961 . S
C1752 H1814 0.959 . S
C1753 C1750 1.450 . S
C1753 H1815 0.960 . S
C1753 H1816 0.960 . S
C1753 H1817 0.960 . S
C1754 C1755 1.309 1_655 S
C1754 C1759 1.304 . S
C1754 O1792 1.435 . S
C1755 C1754 1.309 1_455 S
C1755 C1756 1.476 . S
C1755 H1819 0.930 . S
C1756 C1755 1.476 . S
C1756 C1757 1.400 1_455 S
C1756 C1760 1.567 . S
C1757 C1756 1.400 1_655 S
C1757 C1758 1.373 . S
C1757 C1779 1.432 . S
C1758 C1757 1.373 . S
C1758 C1759 1.339 . S
C1758 C1761 1.530 . S
C1759 C1754 1.304 . S
C1759 C1758 1.339 . S
C1759 H1820 0.930 . S
C1760 C1756 1.567 . S
C1760 H1821 0.961 . S
C1760 H1822 0.960 . S
C1760 H1823 0.958 . S
C1761 C1758 1.530 . S
C1761 H1824 0.961 . S
C1761 H1825 0.960 . S
C1761 H1826 0.960 . S
C1762 C1763 1.530 . S
C1762 H1828 0.961 . S
C1762 H1829 0.961 . S
C1762 H1830 0.959 . S
C1763 C1762 1.530 . S
C1763 O1791 1.412 . S
C1763 H1827 0.981 1_455 S
C1764 C1765 1.288 . S
C1764 C1769 1.377 1_455 S
C1764 O1791 1.393 . S
C1765 C1764 1.288 . S
C1765 C1766 1.369 . S
C1765 H1831 0.932 . S
C1766 C1765 1.369 . S
C1766 C1767 1.398 . S
C1766 C1770 1.527 . S
C1767 C1766 1.398 . S
C1767 C1768 1.380 1_455 S
C1767 C1781 1.497 1_455 S
C1768 C1767 1.380 1_655 S
C1768 C1769 1.383 . S
C1768 C1771 1.603 . S
C1769 C1764 1.377 1_655 S
C1769 C1768 1.383 . S
C1769 H1832 0.929 . S
C1770 C1766 1.527 . S
C1770 H1833 0.961 . S
C1770 H1834 0.959 . S
C1770 H1835 0.959 . S
C1771 C1768 1.603 . S
C1771 H1836 0.960 . S
C1771 H1837 0.962 . S
C1771 H1838 0.961 . S
C1772 C1739 1.587 . S
C1772 C1773 1.360 . S
C1772 C1785 1.412 . S
C1773 C1772 1.360 . S
C1773 C1774 1.365 . S
C1773 H1839 0.929 . S
C1774 C1749 1.553 . S
C1774 C1773 1.365 . S
C1774 C1775 1.404 . S
C1775 C1774 1.404 . S
C1775 C1776 1.395 . S
C1775 C1786 1.451 . S
C1776 C1775 1.395 . S
C1776 C1777 1.322 . S
C1776 H1840 0.930 . S
C1777 C1776 1.322 . S
C1777 C1778 1.459 . S
C1777 H1841 0.929 . S
C1778 C1777 1.459 . S
C1778 C1779 1.445 . S
C1778 C1787 1.395 . S
C1779 C1757 1.432 . S
C1779 C1778 1.445 . S
C1779 C1780 1.370 . S
C1780 C1779 1.370 . S
C1780 C1781 1.438 . S
C1780 H1842 0.930 . S
C1781 C1767 1.497 1_655 S
C1781 C1780 1.438 . S
C1781 C1782 1.360 . S
C1782 C1781 1.360 . S
C1782 C1783 1.401 . S
C1782 C1787 1.446 . S
C1783 C1782 1.401 . S
C1783 C1784 1.347 . S
C1783 H1843 0.929 . S
C1784 C1783 1.347 . S
C1784 C1785 1.455 . S
C1784 H1844 0.930 . S
C1785 C1772 1.412 . S
C1785 C1784 1.455 . S
C1785 C1786 1.331 . S
C1786 C1775 1.451 . S
C1786 C1785 1.331 . S
C1786 C1787 1.497 . S
C1787 C1778 1.395 . S
C1787 C1782 1.446 . S
C1787 C1786 1.497 . S
C1788 C1789 1.582 1_655 S
C1788 H1845 0.919 1_655 S
C1788 H1846 0.959 . S
C1788 H1847 0.958 . S
C1789 C1788 1.582 1_455 S
C1789 O1792 1.458 1_455 S
C1789 H1818 0.980 . S
O1790 C1735 1.426 . S
O1790 C1736 1.334 . S
O1791 C1763 1.412 . S
O1791 C1764 1.393 . S
O1792 C1754 1.435 . S
O1792 C1789 1.458 1_655 S
O1793 C1745 1.468 . S
O1793 C1746 1.408 . S
H1794 C1735 0.980 1_655 S
H1795 C1734 0.959 . S
H1796 C1734 0.959 . S
H1797 C1734 0.960 . S
H1798 C1737 0.929 . S
H1799 C1741 0.929 . S
H1800 C1742 0.959 . S
H1801 C1742 0.961 . S
H1802 C1742 0.961 . S
H1803 C1743 0.960 . S
H1804 C1743 0.960 . S
H1805 C1743 0.961 . S
H1806 C1745 0.980 . S
H1807 C1744 0.961 . S
H1808 C1744 0.960 . S
H1809 C1744 0.959 . S
H1810 C1747 0.915 1_455 S
H1811 C1751 0.931 . S
H1812 C1752 0.959 . S
H1813 C1752 0.961 . S
H1814 C1752 0.959 . S
H1815 C1753 0.960 . S
H1816 C1753 0.960 . S
H1817 C1753 0.960 . S
H1818 C1789 0.980 . S
H1819 C1755 0.930 . S
H1820 C1759 0.930 . S
H1821 C1760 0.961 . S
H1822 C1760 0.960 . S
H1823 C1760 0.958 . S
H1824 C1761 0.961 . S
H1825 C1761 0.960 . S
H1826 C1761 0.960 . S
H1827 C1763 0.981 1_655 S
H1828 C1762 0.961 . S
H1829 C1762 0.961 . S
H1830 C1762 0.959 . S
H1831 C1765 0.932 . S
H1832 C1769 0.929 . S
H1833 C1770 0.961 . S
H1834 C1770 0.959 . S
H1835 C1770 0.959 . S
H1836 C1771 0.960 . S
H1837 C1771 0.962 . S
H1838 C1771 0.961 . S
H1839 C1773 0.929 . S
H1840 C1776 0.930 . S
H1841 C1777 0.929 . S
H1842 C1780 0.930 . S
H1843 C1783 0.929 . S
H1844 C1784 0.930 . S
H1845 C1788 0.919 1_455 S
H1846 C1788 0.959 . S
H1847 C1788 0.958 . S
C1848 C1849 1.560 . S
C1848 H1909 0.959 . S
C1848 H1910 0.959 . S
C1848 H1911 0.960 . S
C1849 C1848 1.560 . S
C1849 O1904 1.426 . S
C1849 H1908 0.980 . S
C1850 C1851 1.407 . S
C1850 C1855 1.418 . S
C1850 O1904 1.334 . S
C1851 C1850 1.407 . S
C1851 C1852 1.360 . S
C1851 H1912 0.929 . S
C1852 C1851 1.360 . S
C1852 C1853 1.401 . S
C1852 C1856 1.527 . S
C1853 C1852 1.401 . S
C1853 C1854 1.405 . S
C1853 C1886 1.587 . S
C1854 C1853 1.405 . S
C1854 C1855 1.332 . S
C1854 C1857 1.496 . S
C1855 C1850 1.418 . S
C1855 C1854 1.332 . S
C1855 H1913 0.929 . S
C1856 C1852 1.527 . S
C1856 H1914 0.959 . S
C1856 H1915 0.961 . S
C1856 H1916 0.961 . S
C1857 C1854 1.496 . S
C1857 H1917 0.960 . S
C1857 H1918 0.960 . S
C1857 H1919 0.961 . S
C1858 C1859 1.517 . S
C1858 H1921 0.961 . S
C1858 H1922 0.960 . S
C1858 H1923 0.959 . S
C1859 C1858 1.517 . S
C1859 O1907 1.468 . S
C1859 H1920 0.980 . S
C1860 C1861 1.349 . S
C1860 C1865 1.367 . S
C1860 O1907 1.408 . S
C1861 C1860 1.349 . S
C1861 C1862 1.407 . S
C1861 H1924 0.930 . S
C1862 C1861 1.407 . S
C1862 C1863 1.449 . S
C1862 C1866 1.535 . S
C1863 C1862 1.449 . S
C1863 C1864 1.384 . S
C1863 C1888 1.553 . S
C1864 C1863 1.384 . S
C1864 C1865 1.364 . S
C1864 C1867 1.450 . S
C1865 C1860 1.367 . S
C1865 C1864 1.364 . S
C1865 H1925 0.931 . S
C1866 C1862 1.535 . S
C1866 H1926 0.959 . S
C1866 H1927 0.961 . S
C1866 H1928 0.959 . S
C1867 C1864 1.450 . S
C1867 H1929 0.960 . S
C1867 H1930 0.960 . S
C1867 H1931 0.960 . S
C1868 C1869 1.309 . S
C1868 C1873 1.304 . S
C1868 O1906 1.435 . S
C1869 C1868 1.309 . S
C1869 C1870 1.476 . S
C1869 H1933 0.930 . S
C1870 C1869 1.476 . S
C1870 C1871 1.400 . S
C1870 C1874 1.567 . S
C1871 C1870 1.400 . S
C1871 C1872 1.373 . S
C1871 C1893 1.432 . S
C1872 C1871 1.373 . S
C1872 C1873 1.339 . S
C1872 C1875 1.530 . S
C1873 C1868 1.304 . S
C1873 C1872 1.339 . S
C1873 H1934 0.930 . S
C1874 C1870 1.567 . S
C1874 H1935 0.961 . S
C1874 H1936 0.960 . S
C1874 H1937 0.958 . S
C1875 C1872 1.530 . S
C1875 H1938 0.961 . S
C1875 H1939 0.960 . S
C1875 H1940 0.960 . S
C1876 C1877 1.530 . S
C1876 H1942 0.961 . S
C1876 H1943 0.961 . S
C1876 H1944 0.959 . S
C1877 C1876 1.530 . S
C1877 O1905 1.412 . S
C1877 H1941 0.980 . S
C1878 C1879 1.288 . S
C1878 C1883 1.377 . S
C1878 O1905 1.393 . S
C1879 C1878 1.288 . S
C1879 C1880 1.369 . S
C1879 H1945 0.932 . S
C1880 C1879 1.369 . S
C1880 C1881 1.398 . S
C1880 C1884 1.527 . S
C1881 C1880 1.398 . S
C1881 C1882 1.380 . S
C1881 C1895 1.497 . S
C1882 C1881 1.380 . S
C1882 C1883 1.383 . S
C1882 C1885 1.603 . S
C1883 C1878 1.377 . S
C1883 C1882 1.383 . S
C1883 H1946 0.929 . S
C1884 C1880 1.527 . S
C1884 H1947 0.961 . S
C1884 H1948 0.959 . S
C1884 H1949 0.959 . S
C1885 C1882 1.603 . S
C1885 H1950 0.960 . S
C1885 H1951 0.962 . S
C1885 H1952 0.961 . S
C1886 C1853 1.587 . S
C1886 C1887 1.360 . S
C1886 C1899 1.412 . S
C1887 C1886 1.360 . S
C1887 C1888 1.365 . S
C1887 H1953 0.929 . S
C1888 C1863 1.553 . S
C1888 C1887 1.365 . S
C1888 C1889 1.404 . S
C1889 C1888 1.404 . S
C1889 C1890 1.395 . S
C1889 C1900 1.451 . S
C1890 C1889 1.395 . S
C1890 C1891 1.322 . S
C1890 H1954 0.930 . S
C1891 C1890 1.322 . S
C1891 C1892 1.459 . S
C1891 H1955 0.929 . S
C1892 C1891 1.459 . S
C1892 C1893 1.445 . S
C1892 C1901 1.395 . S
C1893 C1871 1.432 . S
C1893 C1892 1.445 . S
C1893 C1894 1.370 . S
C1894 C1893 1.370 . S
C1894 C1895 1.438 . S
C1894 H1956 0.930 . S
C1895 C1881 1.497 . S
C1895 C1894 1.438 . S
C1895 C1896 1.360 . S
C1896 C1895 1.360 . S
C1896 C1897 1.401 . S
C1896 C1901 1.446 . S
C1897 C1896 1.401 . S
C1897 C1898 1.347 . S
C1897 H1957 0.929 . S
C1898 C1897 1.347 . S
C1898 C1899 1.455 . S
C1898 H1958 0.930 . S
C1899 C1886 1.412 . S
C1899 C1898 1.455 . S
C1899 C1900 1.331 . S
C1900 C1889 1.451 . S
C1900 C1899 1.331 . S
C1900 C1901 1.497 . S
C1901 C1892 1.395 . S
C1901 C1896 1.446 . S
C1901 C1900 1.497 . S
C1902 C1903 1.582 . S
C1902 H1959 0.962 . S
C1902 H1960 0.959 . S
C1902 H1961 0.958 . S
C1903 C1902 1.582 . S
C1903 O1906 1.458 . S
C1903 H1932 0.980 . S
O1904 C1849 1.426 . S
O1904 C1850 1.334 . S
O1905 C1877 1.412 . S
O1905 C1878 1.393 . S
O1906 C1868 1.435 . S
O1906 C1903 1.458 . S
O1907 C1859 1.468 . S
O1907 C1860 1.408 . S
H1908 C1849 0.980 . S
H1909 C1848 0.959 . S
H1910 C1848 0.959 . S
H1911 C1848 0.960 . S
H1912 C1851 0.929 . S
H1913 C1855 0.929 . S
H1914 C1856 0.959 . S
H1915 C1856 0.961 . S
H1916 C1856 0.961 . S
H1917 C1857 0.960 . S
H1918 C1857 0.960 . S
H1919 C1857 0.961 . S
H1920 C1859 0.980 . S
H1921 C1858 0.961 . S
H1922 C1858 0.960 . S
H1923 C1858 0.959 . S
H1924 C1861 0.930 . S
H1925 C1865 0.931 . S
H1926 C1866 0.959 . S
H1927 C1866 0.961 . S
H1928 C1866 0.959 . S
H1929 C1867 0.960 . S
H1930 C1867 0.960 . S
H1931 C1867 0.960 . S
H1932 C1903 0.980 . S
H1933 C1869 0.930 . S
H1934 C1873 0.930 . S
H1935 C1874 0.961 . S
H1936 C1874 0.960 . S
H1937 C1874 0.958 . S
H1938 C1875 0.961 . S
H1939 C1875 0.960 . S
H1940 C1875 0.960 . S
H1941 C1877 0.980 . S
H1942 C1876 0.961 . S
H1943 C1876 0.961 . S
H1944 C1876 0.959 . S
H1945 C1879 0.932 . S
H1946 C1883 0.929 . S
H1947 C1884 0.961 . S
H1948 C1884 0.959 . S
H1949 C1884 0.959 . S
H1950 C1885 0.960 . S
H1951 C1885 0.962 . S
H1952 C1885 0.961 . S
H1953 C1887 0.929 . S
H1954 C1890 0.930 . S
H1955 C1891 0.929 . S
H1956 C1894 0.930 . S
H1957 C1897 0.929 . S
H1958 C1898 0.930 . S
H1959 C1902 0.962 . S
H1960 C1902 0.959 . S
H1961 C1902 0.958 . S
C1962 C1963 1.560 . S
C1962 H2023 0.959 . S
C1962 H2024 0.959 . S
C1962 H2025 0.960 . S
C1963 C1962 1.560 . S
C1963 O2018 1.426 . S
C1963 H2022 0.980 . S
C1964 C1965 1.407 . S
C1964 C1969 1.418 . S
C1964 O2018 1.334 . S
C1965 C1964 1.407 . S
C1965 C1966 1.360 . S
C1965 H2026 0.929 . S
C1966 C1965 1.360 . S
C1966 C1967 1.401 . S
C1966 C1970 1.527 . S
C1967 C1966 1.401 . S
C1967 C1968 1.405 . S
C1967 C2000 1.587 . S
C1968 C1967 1.405 . S
C1968 C1969 1.332 . S
C1968 C1971 1.496 . S
C1969 C1964 1.418 . S
C1969 C1968 1.332 . S
C1969 H2027 0.929 . S
C1970 C1966 1.527 . S
C1970 H2028 0.959 . S
C1970 H2029 0.961 . S
C1970 H2030 0.961 . S
C1971 C1968 1.496 . S
C1971 H2031 0.960 . S
C1971 H2032 0.960 . S
C1971 H2033 0.961 . S
C1972 C1973 1.517 . S
C1972 H2035 0.961 . S
C1972 H2036 0.960 . S
C1972 H2037 0.959 . S
C1973 C1972 1.517 . S
C1973 O2021 1.468 . S
C1973 H2034 0.980 . S
C1974 C1975 1.349 . S
C1974 C1979 1.367 . S
C1974 O2021 1.408 . S
C1975 C1974 1.349 . S
C1975 C1976 1.407 . S
C1975 H2038 0.930 . S
C1976 C1975 1.407 . S
C1976 C1977 1.449 . S
C1976 C1980 1.535 . S
C1977 C1976 1.449 . S
C1977 C1978 1.384 . S
C1977 C2002 1.553 . S
C1978 C1977 1.384 . S
C1978 C1979 1.364 . S
C1978 C1981 1.450 . S
C1979 C1974 1.367 . S
C1979 C1978 1.364 . S
C1979 H2039 0.931 . S
C1980 C1976 1.535 . S
C1980 H2040 0.959 . S
C1980 H2041 0.961 . S
C1980 H2042 0.959 . S
C1981 C1978 1.450 . S
C1981 H2043 0.960 . S
C1981 H2044 0.960 . S
C1981 H2045 0.960 . S
C1982 C1983 1.309 . S
C1982 C1987 1.304 . S
C1982 O2020 1.435 . S
C1983 C1982 1.309 . S
C1983 C1984 1.476 . S
C1983 H2047 0.930 . S
C1984 C1983 1.476 . S
C1984 C1985 1.400 . S
C1984 C1988 1.567 . S
C1985 C1984 1.400 . S
C1985 C1986 1.373 . S
C1985 C2007 1.432 . S
C1986 C1985 1.373 . S
C1986 C1987 1.339 . S
C1986 C1989 1.530 . S
C1987 C1982 1.304 . S
C1987 C1986 1.339 . S
C1987 H2048 0.930 . S
C1988 C1984 1.567 . S
C1988 H2049 0.961 . S
C1988 H2050 0.960 . S
C1988 H2051 0.958 . S
C1989 C1986 1.530 . S
C1989 H2052 0.961 . S
C1989 H2053 0.960 . S
C1989 H2054 0.960 . S
C1990 C1991 1.530 . S
C1990 H2056 0.961 . S
C1990 H2057 0.961 . S
C1990 H2058 0.959 . S
C1991 C1990 1.530 . S
C1991 O2019 1.412 . S
C1991 H2055 0.980 . S
C1992 C1993 1.288 . S
C1992 C1997 1.377 . S
C1992 O2019 1.393 . S
C1993 C1992 1.288 . S
C1993 C1994 1.369 . S
C1993 H2059 0.932 . S
C1994 C1993 1.369 . S
C1994 C1995 1.398 . S
C1994 C1998 1.527 . S
C1995 C1994 1.398 . S
C1995 C1996 1.380 . S
C1995 C2009 1.497 . S
C1996 C1995 1.380 . S
C1996 C1997 1.383 . S
C1996 C1999 1.603 . S
C1997 C1992 1.377 . S
C1997 C1996 1.383 . S
C1997 H2060 0.929 . S
C1998 C1994 1.527 . S
C1998 H2061 0.961 . S
C1998 H2062 0.959 . S
C1998 H2063 0.959 . S
C1999 C1996 1.603 . S
C1999 H2064 0.960 . S
C1999 H2065 0.962 . S
C1999 H2066 0.961 . S
C2000 C1967 1.587 . S
C2000 C2001 1.360 . S
C2000 C2013 1.412 . S
C2001 C2000 1.360 . S
C2001 C2002 1.365 . S
C2001 H2067 0.929 . S
C2002 C1977 1.553 . S
C2002 C2001 1.365 . S
C2002 C2003 1.404 . S
C2003 C2002 1.404 . S
C2003 C2004 1.395 . S
C2003 C2014 1.451 . S
C2004 C2003 1.395 . S
C2004 C2005 1.322 . S
C2004 H2068 0.930 . S
C2005 C2004 1.322 . S
C2005 C2006 1.459 . S
C2005 H2069 0.929 . S
C2006 C2005 1.459 . S
C2006 C2007 1.445 . S
C2006 C2015 1.395 . S
C2007 C1985 1.432 . S
C2007 C2006 1.445 . S
C2007 C2008 1.370 . S
C2008 C2007 1.370 . S
C2008 C2009 1.438 . S
C2008 H2070 0.930 . S
C2009 C1995 1.497 . S
C2009 C2008 1.438 . S
C2009 C2010 1.360 . S
C2010 C2009 1.360 . S
C2010 C2011 1.401 . S
C2010 C2015 1.446 . S
C2011 C2010 1.401 . S
C2011 C2012 1.347 . S
C2011 H2071 0.929 . S
C2012 C2011 1.347 . S
C2012 C2013 1.455 . S
C2012 H2072 0.930 . S
C2013 C2000 1.412 . S
C2013 C2012 1.455 . S
C2013 C2014 1.331 . S
C2014 C2003 1.451 . S
C2014 C2013 1.331 . S
C2014 C2015 1.497 . S
C2015 C2006 1.395 . S
C2015 C2010 1.446 . S
C2015 C2014 1.497 . S
C2016 C2017 1.582 . S
C2016 H2073 0.962 . S
C2016 H2074 0.959 . S
C2016 H2075 0.958 . S
C2017 C2016 1.582 . S
C2017 O2020 1.458 . S
C2017 H2046 0.980 . S
O2018 C1963 1.426 . S
O2018 C1964 1.334 . S
O2019 C1991 1.412 . S
O2019 C1992 1.393 . S
O2020 C1982 1.435 . S
O2020 C2017 1.458 . S
O2021 C1973 1.468 . S
O2021 C1974 1.408 . S
H2022 C1963 0.980 . S
H2023 C1962 0.959 . S
H2024 C1962 0.959 . S
H2025 C1962 0.960 . S
H2026 C1965 0.929 . S
H2027 C1969 0.929 . S
H2028 C1970 0.959 . S
H2029 C1970 0.961 . S
H2030 C1970 0.961 . S
H2031 C1971 0.960 . S
H2032 C1971 0.960 . S
H2033 C1971 0.961 . S
H2034 C1973 0.980 . S
H2035 C1972 0.961 . S
H2036 C1972 0.960 . S
H2037 C1972 0.959 . S
H2038 C1975 0.930 . S
H2039 C1979 0.931 . S
H2040 C1980 0.959 . S
H2041 C1980 0.961 . S
H2042 C1980 0.959 . S
H2043 C1981 0.960 . S
H2044 C1981 0.960 . S
H2045 C1981 0.960 . S
H2046 C2017 0.980 . S
H2047 C1983 0.930 . S
H2048 C1987 0.930 . S
H2049 C1988 0.961 . S
H2050 C1988 0.960 . S
H2051 C1988 0.958 . S
H2052 C1989 0.961 . S
H2053 C1989 0.960 . S
H2054 C1989 0.960 . S
H2055 C1991 0.980 . S
H2056 C1990 0.961 . S
H2057 C1990 0.961 . S
H2058 C1990 0.959 . S
H2059 C1993 0.932 . S
H2060 C1997 0.929 . S
H2061 C1998 0.961 . S
H2062 C1998 0.959 . S
H2063 C1998 0.959 . S
H2064 C1999 0.960 . S
H2065 C1999 0.962 . S
H2066 C1999 0.961 . S
H2067 C2001 0.929 . S
H2068 C2004 0.930 . S
H2069 C2005 0.929 . S
H2070 C2008 0.930 . S
H2071 C2011 0.929 . S
H2072 C2012 0.930 . S
H2073 C2016 0.962 . S
H2074 C2016 0.959 . S
H2075 C2016 0.958 . S
C2076 C2077 1.560 . S
C2076 H2137 0.959 . S
C2076 H2138 0.959 . S
C2076 H2139 0.960 . S
C2077 C2076 1.560 . S
C2077 O2132 1.426 . S
C2077 H2136 0.980 . S
C2078 C2079 1.407 . S
C2078 C2083 1.418 . S
C2078 O2132 1.334 . S
C2079 C2078 1.407 . S
C2079 C2080 1.360 . S
C2079 H2140 0.929 . S
C2080 C2079 1.360 . S
C2080 C2081 1.401 . S
C2080 C2084 1.527 . S
C2081 C2080 1.401 . S
C2081 C2082 1.405 . S
C2081 C2114 1.587 . S
C2082 C2081 1.405 . S
C2082 C2083 1.332 . S
C2082 C2085 1.496 . S
C2083 C2078 1.418 . S
C2083 C2082 1.332 . S
C2083 H2141 0.929 . S
C2084 C2080 1.527 . S
C2084 H2142 0.959 . S
C2084 H2143 0.961 . S
C2084 H2144 0.961 . S
C2085 C2082 1.496 . S
C2085 H2145 0.960 . S
C2085 H2146 0.960 . S
C2085 H2147 0.961 . S
C2086 C2087 1.517 . S
C2086 H2149 0.961 . S
C2086 H2150 0.960 . S
C2086 H2151 0.959 . S
C2087 C2086 1.517 . S
C2087 O2135 1.468 . S
C2087 H2148 0.980 . S
C2088 C2089 1.349 . S
C2088 C2093 1.367 . S
C2088 O2135 1.408 . S
C2089 C2088 1.349 . S
C2089 C2090 1.407 . S
C2089 H2152 0.930 . S
C2090 C2089 1.407 . S
C2090 C2091 1.449 . S
C2090 C2094 1.535 . S
C2091 C2090 1.449 . S
C2091 C2092 1.384 . S
C2091 C2116 1.553 . S
C2092 C2091 1.384 . S
C2092 C2093 1.364 . S
C2092 C2095 1.450 . S
C2093 C2088 1.367 . S
C2093 C2092 1.364 . S
C2093 H2153 0.931 . S
C2094 C2090 1.535 . S
C2094 H2154 0.959 . S
C2094 H2155 0.961 . S
C2094 H2156 0.959 . S
C2095 C2092 1.450 . S
C2095 H2157 0.960 . S
C2095 H2158 0.960 . S
C2095 H2159 0.960 . S
C2096 C2097 1.309 . S
C2096 C2101 1.304 . S
C2096 O2134 1.435 . S
C2097 C2096 1.309 . S
C2097 C2098 1.476 . S
C2097 H2161 0.930 . S
C2098 C2097 1.476 . S
C2098 C2099 1.400 . S
C2098 C2102 1.567 . S
C2099 C2098 1.400 . S
C2099 C2100 1.373 . S
C2099 C2121 1.432 . S
C2100 C2099 1.373 . S
C2100 C2101 1.339 . S
C2100 C2103 1.530 . S
C2101 C2096 1.304 . S
C2101 C2100 1.339 . S
C2101 H2162 0.930 . S
C2102 C2098 1.567 . S
C2102 H2163 0.961 . S
C2102 H2164 0.960 . S
C2102 H2165 0.958 . S
C2103 C2100 1.530 . S
C2103 H2166 0.961 . S
C2103 H2167 0.960 . S
C2103 H2168 0.960 . S
C2104 C2105 1.530 . S
C2104 H2170 0.961 . S
C2104 H2171 0.961 . S
C2104 H2172 0.959 . S
C2105 C2104 1.530 . S
C2105 O2133 1.412 . S
C2105 H2169 0.980 . S
C2106 C2107 1.288 . S
C2106 C2111 1.377 . S
C2106 O2133 1.393 . S
C2107 C2106 1.288 . S
C2107 C2108 1.369 . S
C2107 H2173 0.932 . S
C2108 C2107 1.369 . S
C2108 C2109 1.398 . S
C2108 C2112 1.527 . S
C2109 C2108 1.398 . S
C2109 C2110 1.380 . S
C2109 C2123 1.497 . S
C2110 C2109 1.380 . S
C2110 C2111 1.383 . S
C2110 C2113 1.603 . S
C2111 C2106 1.377 . S
C2111 C2110 1.383 . S
C2111 H2174 0.929 . S
C2112 C2108 1.527 . S
C2112 H2175 0.961 . S
C2112 H2176 0.959 . S
C2112 H2177 0.959 . S
C2113 C2110 1.603 . S
C2113 H2178 0.960 . S
C2113 H2179 0.962 . S
C2113 H2180 0.961 . S
C2114 C2081 1.587 . S
C2114 C2115 1.360 . S
C2114 C2127 1.412 . S
C2115 C2114 1.360 . S
C2115 C2116 1.365 . S
C2115 H2181 0.929 . S
C2116 C2091 1.553 . S
C2116 C2115 1.365 . S
C2116 C2117 1.404 . S
C2117 C2116 1.404 . S
C2117 C2118 1.395 . S
C2117 C2128 1.451 . S
C2118 C2117 1.395 . S
C2118 C2119 1.322 . S
C2118 H2182 0.930 . S
C2119 C2118 1.322 . S
C2119 C2120 1.459 . S
C2119 H2183 0.929 . S
C2120 C2119 1.459 . S
C2120 C2121 1.445 . S
C2120 C2129 1.395 . S
C2121 C2099 1.432 . S
C2121 C2120 1.445 . S
C2121 C2122 1.370 . S
C2122 C2121 1.370 . S
C2122 C2123 1.438 . S
C2122 H2184 0.930 . S
C2123 C2109 1.497 . S
C2123 C2122 1.438 . S
C2123 C2124 1.360 . S
C2124 C2123 1.360 . S
C2124 C2125 1.401 . S
C2124 C2129 1.446 . S
C2125 C2124 1.401 . S
C2125 C2126 1.347 . S
C2125 H2185 0.929 . S
C2126 C2125 1.347 . S
C2126 C2127 1.455 . S
C2126 H2186 0.930 . S
C2127 C2114 1.412 . S
C2127 C2126 1.455 . S
C2127 C2128 1.331 . S
C2128 C2117 1.451 . S
C2128 C2127 1.331 . S
C2128 C2129 1.497 . S
C2129 C2120 1.395 . S
C2129 C2124 1.446 . S
C2129 C2128 1.497 . S
C2130 C2131 1.582 . S
C2130 H2187 0.962 . S
C2130 H2188 0.959 . S
C2130 H2189 0.958 . S
C2131 C2130 1.582 . S
C2131 O2134 1.458 . S
C2131 H2160 0.980 . S
O2132 C2077 1.426 . S
O2132 C2078 1.334 . S
O2133 C2105 1.412 . S
O2133 C2106 1.393 . S
O2134 C2096 1.435 . S
O2134 C2131 1.458 . S
O2135 C2087 1.468 . S
O2135 C2088 1.408 . S
H2136 C2077 0.980 . S
H2137 C2076 0.959 . S
H2138 C2076 0.959 . S
H2139 C2076 0.960 . S
H2140 C2079 0.929 . S
H2141 C2083 0.929 . S
H2142 C2084 0.959 . S
H2143 C2084 0.961 . S
H2144 C2084 0.961 . S
H2145 C2085 0.960 . S
H2146 C2085 0.960 . S
H2147 C2085 0.961 . S
H2148 C2087 0.980 . S
H2149 C2086 0.961 . S
H2150 C2086 0.960 . S
H2151 C2086 0.959 . S
H2152 C2089 0.930 . S
H2153 C2093 0.931 . S
H2154 C2094 0.959 . S
H2155 C2094 0.961 . S
H2156 C2094 0.959 . S
H2157 C2095 0.960 . S
H2158 C2095 0.960 . S
H2159 C2095 0.960 . S
H2160 C2131 0.980 . S
H2161 C2097 0.930 . S
H2162 C2101 0.930 . S
H2163 C2102 0.961 . S
H2164 C2102 0.960 . S
H2165 C2102 0.958 . S
H2166 C2103 0.961 . S
H2167 C2103 0.960 . S
H2168 C2103 0.960 . S
H2169 C2105 0.980 . S
H2170 C2104 0.961 . S
H2171 C2104 0.961 . S
H2172 C2104 0.959 . S
H2173 C2107 0.932 . S
H2174 C2111 0.929 . S
H2175 C2112 0.961 . S
H2176 C2112 0.959 . S
H2177 C2112 0.959 . S
H2178 C2113 0.960 . S
H2179 C2113 0.962 . S
H2180 C2113 0.961 . S
H2181 C2115 0.929 . S
H2182 C2118 0.930 . S
H2183 C2119 0.929 . S
H2184 C2122 0.930 . S
H2185 C2125 0.929 . S
H2186 C2126 0.930 . S
H2187 C2130 0.962 . S
H2188 C2130 0.959 . S
H2189 C2130 0.958 . S
C2190 C2191 1.560 . S
C2190 H2251 0.959 . S
C2190 H2252 0.959 . S
C2190 H2253 0.960 . S
C2191 C2190 1.560 . S
C2191 O2246 1.426 . S
C2191 H2250 0.980 . S
C2192 C2193 1.407 . S
C2192 C2197 1.418 . S
C2192 O2246 1.334 . S
C2193 C2192 1.407 . S
C2193 C2194 1.360 . S
C2193 H2254 0.929 . S
C2194 C2193 1.360 . S
C2194 C2195 1.401 . S
C2194 C2198 1.527 . S
C2195 C2194 1.401 . S
C2195 C2196 1.405 . S
C2195 C2228 1.587 . S
C2196 C2195 1.405 . S
C2196 C2197 1.332 . S
C2196 C2199 1.496 . S
C2197 C2192 1.418 . S
C2197 C2196 1.332 . S
C2197 H2255 0.929 . S
C2198 C2194 1.527 . S
C2198 H2256 0.959 . S
C2198 H2257 0.961 . S
C2198 H2258 0.961 . S
C2199 C2196 1.496 . S
C2199 H2259 0.960 . S
C2199 H2260 0.960 . S
C2199 H2261 0.961 . S
C2200 C2201 1.517 . S
C2200 H2263 0.961 . S
C2200 H2264 0.960 . S
C2200 H2265 0.959 . S
C2201 C2200 1.517 . S
C2201 O2249 1.468 . S
C2201 H2262 0.980 . S
C2202 C2203 1.349 . S
C2202 C2207 1.367 . S
C2202 O2249 1.408 . S
C2203 C2202 1.349 . S
C2203 C2204 1.407 . S
C2203 H2266 0.930 . S
C2204 C2203 1.407 . S
C2204 C2205 1.449 . S
C2204 C2208 1.535 . S
C2205 C2204 1.449 . S
C2205 C2206 1.384 . S
C2205 C2230 1.553 . S
C2206 C2205 1.384 . S
C2206 C2207 1.364 . S
C2206 C2209 1.450 . S
C2207 C2202 1.367 . S
C2207 C2206 1.364 . S
C2207 H2267 0.931 . S
C2208 C2204 1.535 . S
C2208 H2268 0.959 . S
C2208 H2269 0.961 . S
C2208 H2270 0.959 . S
C2209 C2206 1.450 . S
C2209 H2271 0.960 . S
C2209 H2272 0.960 . S
C2209 H2273 0.960 . S
C2210 C2211 1.309 . S
C2210 C2215 1.304 . S
C2210 O2248 1.435 . S
C2211 C2210 1.309 . S
C2211 C2212 1.476 . S
C2211 H2275 0.930 . S
C2212 C2211 1.476 . S
C2212 C2213 1.400 . S
C2212 C2216 1.567 . S
C2213 C2212 1.400 . S
C2213 C2214 1.373 . S
C2213 C2235 1.432 . S
C2214 C2213 1.373 . S
C2214 C2215 1.339 . S
C2214 C2217 1.530 . S
C2215 C2210 1.304 . S
C2215 C2214 1.339 . S
C2215 H2276 0.930 . S
C2216 C2212 1.567 . S
C2216 H2277 0.961 . S
C2216 H2278 0.960 . S
C2216 H2279 0.958 . S
C2217 C2214 1.530 . S
C2217 H2280 0.961 . S
C2217 H2281 0.960 . S
C2217 H2282 0.960 . S
C2218 C2219 1.530 . S
C2218 H2284 0.961 . S
C2218 H2285 0.961 . S
C2218 H2286 0.959 . S
C2219 C2218 1.530 . S
C2219 O2247 1.412 . S
C2219 H2283 0.980 . S
C2220 C2221 1.288 . S
C2220 C2225 1.377 . S
C2220 O2247 1.393 . S
C2221 C2220 1.288 . S
C2221 C2222 1.369 . S
C2221 H2287 0.932 . S
C2222 C2221 1.369 . S
C2222 C2223 1.398 . S
C2222 C2226 1.527 . S
C2223 C2222 1.398 . S
C2223 C2224 1.380 . S
C2223 C2237 1.497 . S
C2224 C2223 1.380 . S
C2224 C2225 1.383 . S
C2224 C2227 1.603 . S
C2225 C2220 1.377 . S
C2225 C2224 1.383 . S
C2225 H2288 0.929 . S
C2226 C2222 1.527 . S
C2226 H2289 0.961 . S
C2226 H2290 0.959 . S
C2226 H2291 0.959 . S
C2227 C2224 1.603 . S
C2227 H2292 0.960 . S
C2227 H2293 0.962 . S
C2227 H2294 0.961 . S
C2228 C2195 1.587 . S
C2228 C2229 1.360 . S
C2228 C2241 1.412 . S
C2229 C2228 1.360 . S
C2229 C2230 1.365 . S
C2229 H2295 0.929 . S
C2230 C2205 1.553 . S
C2230 C2229 1.365 . S
C2230 C2231 1.404 . S
C2231 C2230 1.404 . S
C2231 C2232 1.395 . S
C2231 C2242 1.451 . S
C2232 C2231 1.395 . S
C2232 C2233 1.322 . S
C2232 H2296 0.930 . S
C2233 C2232 1.322 . S
C2233 C2234 1.459 . S
C2233 H2297 0.929 . S
C2234 C2233 1.459 . S
C2234 C2235 1.445 . S
C2234 C2243 1.395 . S
C2235 C2213 1.432 . S
C2235 C2234 1.445 . S
C2235 C2236 1.370 . S
C2236 C2235 1.370 . S
C2236 C2237 1.438 . S
C2236 H2298 0.930 . S
C2237 C2223 1.497 . S
C2237 C2236 1.438 . S
C2237 C2238 1.360 . S
C2238 C2237 1.360 . S
C2238 C2239 1.401 . S
C2238 C2243 1.446 . S
C2239 C2238 1.401 . S
C2239 C2240 1.347 . S
C2239 H2299 0.929 . S
C2240 C2239 1.347 . S
C2240 C2241 1.455 . S
C2240 H2300 0.930 . S
C2241 C2228 1.412 . S
C2241 C2240 1.455 . S
C2241 C2242 1.331 . S
C2242 C2231 1.451 . S
C2242 C2241 1.331 . S
C2242 C2243 1.497 . S
C2243 C2234 1.395 . S
C2243 C2238 1.446 . S
C2243 C2242 1.497 . S
C2244 C2245 1.582 . S
C2244 H2301 0.962 . S
C2244 H2302 0.959 . S
C2244 H2303 0.958 . S
C2245 C2244 1.582 . S
C2245 O2248 1.458 . S
C2245 H2274 0.980 . S
O2246 C2191 1.426 . S
O2246 C2192 1.334 . S
O2247 C2219 1.412 . S
O2247 C2220 1.393 . S
O2248 C2210 1.435 . S
O2248 C2245 1.458 . S
O2249 C2201 1.468 . S
O2249 C2202 1.408 . S
H2250 C2191 0.980 . S
H2251 C2190 0.959 . S
H2252 C2190 0.959 . S
H2253 C2190 0.960 . S
H2254 C2193 0.929 . S
H2255 C2197 0.929 . S
H2256 C2198 0.959 . S
H2257 C2198 0.961 . S
H2258 C2198 0.961 . S
H2259 C2199 0.960 . S
H2260 C2199 0.960 . S
H2261 C2199 0.961 . S
H2262 C2201 0.980 . S
H2263 C2200 0.961 . S
H2264 C2200 0.960 . S
H2265 C2200 0.959 . S
H2266 C2203 0.930 . S
H2267 C2207 0.931 . S
H2268 C2208 0.959 . S
H2269 C2208 0.961 . S
H2270 C2208 0.959 . S
H2271 C2209 0.960 . S
H2272 C2209 0.960 . S
H2273 C2209 0.960 . S
H2274 C2245 0.980 . S
H2275 C2211 0.930 . S
H2276 C2215 0.930 . S
H2277 C2216 0.961 . S
H2278 C2216 0.960 . S
H2279 C2216 0.958 . S
H2280 C2217 0.961 . S
H2281 C2217 0.960 . S
H2282 C2217 0.960 . S
H2283 C2219 0.980 . S
H2284 C2218 0.961 . S
H2285 C2218 0.961 . S
H2286 C2218 0.959 . S
H2287 C2221 0.932 . S
H2288 C2225 0.929 . S
H2289 C2226 0.961 . S
H2290 C2226 0.959 . S
H2291 C2226 0.959 . S
H2292 C2227 0.960 . S
H2293 C2227 0.962 . S
H2294 C2227 0.961 . S
H2295 C2229 0.929 . S
H2296 C2232 0.930 . S
H2297 C2233 0.929 . S
H2298 C2236 0.930 . S
H2299 C2239 0.929 . S
H2300 C2240 0.930 . S
H2301 C2244 0.962 . S
H2302 C2244 0.959 . S
H2303 C2244 0.958 . S
H2304 C2316 0.930 . S
H2305 C2318 0.930 . S
H2306 C2319 0.930 . S
H2307 C2323 0.959 . S
H2308 C2323 0.959 . S
H2309 C2323 0.961 . S
H2310 C2324 0.935 . S
H2311 C2324 0.948 1_655 S
H2312 C2324 0.959 . S
H2313 C2327 0.929 . S
H2314 C2328 0.921 . S
H2315 C2330 0.930 . S
C2316 H2304 0.930 . S
C2316 C2317 1.399 . S
C2316 C2321 1.399 . S
C2317 C2316 1.399 . S
C2317 C2318 1.376 1_655 S
C2318 H2305 0.930 . S
C2318 C2317 1.376 1_455 S
C2318 C2319 1.388 . S
C2319 H2306 0.930 . S
C2319 C2318 1.388 . S
C2319 C2320 1.390 1_455 S
C2320 C2319 1.390 1_655 S
C2320 C2321 1.394 . S
C2320 C2326 1.465 . S
C2321 C2316 1.399 . S
C2321 C2320 1.394 . S
C2321 C2322 1.516 . S
C2322 C2321 1.516 . S
C2322 C2323 1.502 . S
C2322 C2324 1.561 1_655 S
C2322 C2325 1.526 . S
C2323 H2307 0.959 . S
C2323 H2308 0.959 . S
C2323 H2309 0.961 . S
C2323 C2322 1.502 . S
C2324 H2310 0.935 . S
C2324 H2311 0.948 1_455 S
C2324 H2312 0.959 . S
C2324 C2322 1.561 1_455 S
C2325 C2322 1.526 . S
C2325 C2326 1.396 . S
C2325 C2330 1.390 . S
C2326 C2320 1.465 . S
C2326 C2325 1.396 . S
C2326 C2327 1.399 1_655 S
C2327 H2313 0.929 . S
C2327 C2326 1.399 1_455 S
C2327 C2328 1.402 . S
C2328 H2314 0.921 . S
C2328 C2327 1.402 . S
C2328 C2329 1.384 1_455 S
C2329 C2328 1.384 1_655 S
C2329 C2330 1.387 . S
C2330 H2315 0.930 . S
C2330 C2325 1.390 . S
C2330 C2329 1.387 . S
H2331 C2343 0.930 . S
H2332 C2345 0.930 . S
H2333 C2346 0.930 . S
H2334 C2350 0.959 . S
H2335 C2350 0.959 . S
H2336 C2350 0.961 . S
H2337 C2351 0.960 . S
H2338 C2351 0.961 . S
H2339 C2351 0.959 . S
H2340 C2354 0.929 . S
H2341 C2355 0.931 . S
H2342 C2357 0.930 . S
C2343 H2331 0.930 . S
C2343 C2344 1.399 . S
C2343 C2348 1.399 . S
C2344 C2343 1.399 . S
C2344 C2345 1.376 . S
C2345 H2332 0.930 . S
C2345 C2344 1.376 . S
C2345 C2346 1.388 . S
C2346 H2333 0.930 . S
C2346 C2345 1.388 . S
C2346 C2347 1.390 . S
C2347 C2346 1.390 . S
C2347 C2348 1.394 . S
C2347 C2353 1.465 . S
C2348 C2343 1.399 . S
C2348 C2347 1.394 . S
C2348 C2349 1.516 . S
C2349 C2348 1.516 . S
C2349 C2350 1.502 . S
C2349 C2351 1.561 . S
C2349 C2352 1.526 . S
C2350 H2334 0.959 . S
C2350 H2335 0.959 . S
C2350 H2336 0.961 . S
C2350 C2349 1.502 . S
C2351 H2337 0.960 . S
C2351 H2338 0.961 . S
C2351 H2339 0.959 . S
C2351 C2349 1.561 . S
C2352 C2349 1.526 . S
C2352 C2353 1.396 . S
C2352 C2357 1.390 . S
C2353 C2347 1.465 . S
C2353 C2352 1.396 . S
C2353 C2354 1.399 . S
C2354 H2340 0.929 . S
C2354 C2353 1.399 . S
C2354 C2355 1.385 . S
C2355 H2341 0.931 . S
C2355 C2354 1.385 . S
C2355 C2356 1.389 . S
C2356 C2355 1.389 . S
C2356 C2357 1.387 . S
C2357 H2342 0.930 . S
C2357 C2352 1.390 . S
C2357 C2356 1.387 . S
H2358 C2370 0.930 1_565 S
H2359 C2372 0.930 . S
H2360 C2373 0.930 . S
H2361 C2377 0.959 . S
H2362 C2377 0.959 . S
H2363 C2377 0.961 . S
H2364 C2378 0.960 . S
H2365 C2378 0.961 . S
H2366 C2378 0.959 . S
H2367 C2381 0.929 . S
H2368 C2382 0.931 . S
H2369 C2384 0.922 1_565 S
C2370 H2358 0.930 1_545 S
C2370 C2371 1.399 . S
C2370 C2375 1.399 . S
C2371 C2370 1.399 . S
C2371 C2372 1.376 . S
C2372 H2359 0.930 . S
C2372 C2371 1.376 . S
C2372 C2373 1.388 . S
C2373 H2360 0.930 . S
C2373 C2372 1.388 . S
C2373 C2374 1.390 . S
C2374 C2373 1.390 . S
C2374 C2375 1.394 . S
C2374 C2380 1.465 . S
C2375 C2370 1.399 . S
C2375 C2374 1.394 . S
C2375 C2376 1.516 1_545 S
C2376 C2375 1.516 1_565 S
C2376 C2377 1.502 . S
C2376 C2378 1.561 . S
C2376 C2379 1.526 1_565 S
C2377 H2361 0.959 . S
C2377 H2362 0.959 . S
C2377 H2363 0.961 . S
C2377 C2376 1.502 . S
C2378 H2364 0.960 . S
C2378 H2365 0.961 . S
C2378 H2366 0.959 . S
C2378 C2376 1.561 . S
C2379 C2376 1.526 1_545 S
C2379 C2380 1.396 . S
C2379 C2384 1.395 . S
C2380 C2374 1.465 . S
C2380 C2379 1.396 . S
C2380 C2381 1.399 . S
C2381 H2367 0.929 . S
C2381 C2380 1.399 . S
C2381 C2382 1.385 . S
C2382 H2368 0.931 . S
C2382 C2381 1.385 . S
C2382 C2383 1.389 . S
C2383 C2382 1.389 . S
C2383 C2384 1.389 . S
C2384 H2369 0.922 1_545 S
C2384 C2379 1.395 . S
C2384 C2383 1.389 . S
H2385 C2397 0.930 . S
H2386 C2399 0.930 . S
H2387 C2400 0.930 . S
H2388 C2404 0.959 . S
H2389 C2404 0.959 . S
H2390 C2404 0.961 . S
H2391 C2405 0.960 . S
H2392 C2405 0.961 . S
H2393 C2405 0.959 . S
H2394 C2408 0.929 . S
H2395 C2409 0.931 . S
H2396 C2411 0.930 . S
C2397 H2385 0.930 . S
C2397 C2398 1.399 1_545 S
C2397 C2402 1.399 . S
C2398 C2397 1.399 1_565 S
C2398 C2399 1.376 . S
C2399 H2386 0.930 . S
C2399 C2398 1.376 . S
C2399 C2400 1.388 . S
C2400 H2387 0.930 . S
C2400 C2399 1.388 . S
C2400 C2401 1.390 . S
C2401 C2400 1.390 . S
C2401 C2402 1.394 1_565 S
C2401 C2407 1.465 . S
C2402 C2397 1.399 . S
C2402 C2401 1.394 1_545 S
C2402 C2403 1.516 . S
C2403 C2402 1.516 . S
C2403 C2404 1.502 . S
C2403 C2405 1.561 . S
C2403 C2406 1.526 . S
C2404 H2388 0.959 . S
C2404 H2389 0.959 . S
C2404 H2390 0.961 . S
C2404 C2403 1.502 . S
C2405 H2391 0.960 . S
C2405 H2392 0.961 . S
C2405 H2393 0.959 . S
C2405 C2403 1.561 . S
C2406 C2403 1.526 . S
C2406 C2407 1.396 1_545 S
C2406 C2411 1.390 . S
C2407 C2401 1.465 . S
C2407 C2406 1.396 1_565 S
C2407 C2408 1.399 . S
C2408 H2394 0.929 . S
C2408 C2407 1.399 . S
C2408 C2409 1.385 . S
C2409 H2395 0.931 . S
C2409 C2408 1.385 . S
C2409 C2410 1.389 . S
C2410 C2409 1.389 . S
C2410 C2411 1.387 1_565 S
C2411 H2396 0.930 . S
C2411 C2406 1.390 . S
C2411 C2410 1.387 1_545 S
H2412 C2424 0.930 . S
H2413 C2426 0.930 . S
H2414 C2427 0.930 . S
H2415 C2431 0.959 . S
H2416 C2431 0.959 . S
H2417 C2431 0.961 . S
H2418 C2432 0.960 . S
H2419 C2432 0.961 . S
H2420 C2432 0.959 . S
H2421 C2435 0.929 . S
H2422 C2436 0.931 . S
H2423 C2438 0.872 1_655 S
C2424 H2412 0.930 . S
C2424 C2425 1.399 . S
C2424 C2429 1.399 . S
C2425 C2424 1.399 . S
C2425 C2426 1.376 . S
C2426 H2413 0.930 . S
C2426 C2425 1.376 . S
C2426 C2427 1.388 . S
C2427 H2414 0.930 . S
C2427 C2426 1.388 . S
C2427 C2428 1.390 . S
C2428 C2427 1.390 . S
C2428 C2429 1.394 . S
C2428 C2434 1.465 . S
C2429 C2424 1.399 . S
C2429 C2428 1.394 . S
C2429 C2430 1.516 . S
C2430 C2429 1.516 . S
C2430 C2431 1.502 1_455 S
C2430 C2432 1.561 . S
C2430 C2433 1.526 . S
C2431 H2415 0.959 . S
C2431 H2416 0.959 . S
C2431 H2417 0.961 . S
C2431 C2430 1.502 1_655 S
C2432 H2418 0.960 . S
C2432 H2419 0.961 . S
C2432 H2420 0.959 . S
C2432 C2430 1.561 . S
C2433 C2430 1.526 . S
C2433 C2434 1.396 . S
C2433 C2438 1.390 . S
C2434 C2428 1.465 . S
C2434 C2433 1.396 . S
C2434 C2435 1.399 . S
C2435 H2421 0.929 . S
C2435 C2434 1.399 . S
C2435 C2436 1.385 . S
C2436 H2422 0.931 . S
C2436 C2435 1.385 . S
C2436 C2437 1.389 . S
C2437 C2436 1.389 . S
C2437 C2438 1.387 . S
C2438 H2423 0.872 1_455 S
C2438 C2433 1.390 . S
C2438 C2437 1.387 . S
H2439 C2451 0.930 . S
H2440 C2453 0.930 . S
H2441 C2454 0.930 . S
H2442 C2458 0.959 . S
H2443 C2458 0.959 . S
H2444 C2458 0.961 . S
H2445 C2459 0.960 . S
H2446 C2459 0.961 . S
H2447 C2459 0.959 . S
H2448 C2462 0.929 . S
H2449 C2463 0.931 . S
H2450 C2465 0.930 . S
C2451 H2439 0.930 . S
C2451 C2452 1.399 . S
C2451 C2456 1.399 . S
C2452 C2451 1.399 . S
C2452 C2453 1.376 . S
C2453 H2440 0.930 . S
C2453 C2452 1.376 . S
C2453 C2454 1.388 . S
C2454 H2441 0.930 . S
C2454 C2453 1.388 . S
C2454 C2455 1.390 . S
C2455 C2454 1.390 . S
C2455 C2456 1.394 . S
C2455 C2461 1.465 . S
C2456 C2451 1.399 . S
C2456 C2455 1.394 . S
C2456 C2457 1.516 . S
C2457 C2456 1.516 . S
C2457 C2458 1.502 . S
C2457 C2459 1.561 . S
C2457 C2460 1.526 . S
C2458 H2442 0.959 . S
C2458 H2443 0.959 . S
C2458 H2444 0.961 . S
C2458 C2457 1.502 . S
C2459 H2445 0.960 . S
C2459 H2446 0.961 . S
C2459 H2447 0.959 . S
C2459 C2457 1.561 . S
C2460 C2457 1.526 . S
C2460 C2461 1.396 . S
C2460 C2465 1.390 . S
C2461 C2455 1.465 . S
C2461 C2460 1.396 . S
C2461 C2462 1.399 . S
C2462 H2448 0.929 . S
C2462 C2461 1.399 . S
C2462 C2463 1.385 . S
C2463 H2449 0.931 . S
C2463 C2462 1.385 . S
C2463 C2464 1.389 . S
C2464 C2463 1.389 . S
C2464 C2465 1.387 . S
C2465 H2450 0.930 . S
C2465 C2460 1.390 . S
C2465 C2464 1.387 . S
H2466 C2478 0.930 1_655 S
H2467 C2480 0.930 . S
H2468 C2481 0.930 . S
H2469 C2485 0.959 . S
H2470 C2485 0.959 . S
H2471 C2485 0.961 . S
H2472 C2486 0.960 . S
H2473 C2486 0.955 1_655 S
H2474 C2486 0.959 . S
H2475 C2489 0.929 . S
H2476 C2490 0.931 . S
H2477 C2492 0.930 . S
C2478 H2466 0.930 1_455 S
C2478 C2479 1.399 . S
C2478 C2483 1.399 . S
C2479 C2478 1.399 . S
C2479 C2480 1.376 . S
C2480 H2467 0.930 . S
C2480 C2479 1.376 . S
C2480 C2481 1.388 . S
C2481 H2468 0.930 . S
C2481 C2480 1.388 . S
C2481 C2482 1.390 . S
C2482 C2481 1.390 . S
C2482 C2483 1.394 . S
C2482 C2488 1.465 . S
C2483 C2478 1.399 . S
C2483 C2482 1.394 . S
C2483 C2484 1.516 1_455 S
C2484 C2483 1.516 1_655 S
C2484 C2485 1.502 . S
C2484 C2486 1.561 1_655 S
C2484 C2487 1.526 1_655 S
C2485 H2469 0.959 . S
C2485 H2470 0.959 . S
C2485 H2471 0.961 . S
C2485 C2484 1.502 . S
C2486 H2472 0.960 . S
C2486 H2473 0.955 1_455 S
C2486 H2474 0.959 . S
C2486 C2484 1.561 1_455 S
C2487 C2484 1.526 1_455 S
C2487 C2488 1.396 . S
C2487 C2492 1.390 1_455 S
C2488 C2482 1.465 . S
C2488 C2487 1.396 . S
C2488 C2489 1.399 . S
C2489 H2475 0.929 . S
C2489 C2488 1.399 . S
C2489 C2490 1.385 . S
C2490 H2476 0.931 . S
C2490 C2489 1.385 . S
C2490 C2491 1.389 . S
C2491 C2490 1.389 . S
C2491 C2492 1.387 1_455 S
C2492 H2477 0.930 . S
C2492 C2487 1.390 1_655 S
C2492 C2491 1.387 1_655 S
H2493 C2505 0.930 . S
H2494 C2507 0.930 . S
H2495 C2508 0.930 . S
H2496 C2512 0.959 . S
H2497 C2512 0.959 . S
H2498 C2512 0.961 . S
H2499 C2513 0.960 . S
H2500 C2513 0.961 . S
H2501 C2513 0.959 . S
H2502 C2516 0.929 . S
H2503 C2517 0.931 . S
H2504 C2519 0.930 . S
C2505 H2493 0.930 . S
C2505 C2506 1.399 . S
C2505 C2510 1.399 . S
C2506 C2505 1.399 . S
C2506 C2507 1.376 . S
C2507 H2494 0.930 . S
C2507 C2506 1.376 . S
C2507 C2508 1.388 . S
C2508 H2495 0.930 . S
C2508 C2507 1.388 . S
C2508 C2509 1.390 . S
C2509 C2508 1.390 . S
C2509 C2510 1.394 . S
C2509 C2515 1.465 . S
C2510 C2505 1.399 . S
C2510 C2509 1.394 . S
C2510 C2511 1.516 . S
C2511 C2510 1.516 . S
C2511 C2512 1.502 . S
C2511 C2513 1.561 . S
C2511 C2514 1.526 . S
C2512 H2496 0.959 . S
C2512 H2497 0.959 . S
C2512 H2498 0.961 . S
C2512 C2511 1.502 . S
C2513 H2499 0.960 . S
C2513 H2500 0.961 . S
C2513 H2501 0.959 . S
C2513 C2511 1.561 . S
C2514 C2511 1.526 . S
C2514 C2515 1.396 . S
C2514 C2519 1.390 . S
C2515 C2509 1.465 . S
C2515 C2514 1.396 . S
C2515 C2516 1.399 . S
C2516 H2502 0.929 . S
C2516 C2515 1.399 . S
C2516 C2517 1.385 . S
C2517 H2503 0.931 . S
C2517 C2516 1.385 . S
C2517 C2518 1.389 . S
C2518 C2517 1.389 . S
C2518 C2519 1.387 . S
C2519 H2504 0.930 . S
C2519 C2514 1.390 . S
C2519 C2518 1.387 . S
H2520 C2532 0.930 . S
H2521 C2534 0.930 . S
H2522 C2535 0.930 . S
H2523 C2539 0.959 . S
H2524 C2539 0.959 . S
H2525 C2539 0.961 . S
H2526 C2540 0.960 . S
H2527 C2540 0.961 . S
H2528 C2540 0.959 . S
H2529 C2543 0.929 . S
H2530 C2544 0.931 . S
H2531 C2546 0.930 . S
C2532 H2520 0.930 . S
C2532 C2533 1.399 1_545 S
C2532 C2537 1.392 . S
C2533 C2532 1.399 1_565 S
C2533 C2534 1.376 . S
C2534 H2521 0.930 . S
C2534 C2533 1.376 . S
C2534 C2535 1.388 . S
C2535 H2522 0.930 . S
C2535 C2534 1.388 . S
C2535 C2536 1.390 . S
C2536 C2535 1.390 . S
C2536 C2537 1.375 1_565 S
C2536 C2542 1.465 . S
C2537 C2532 1.392 . S
C2537 C2536 1.375 1_545 S
C2537 C2538 1.541 . S
C2538 C2537 1.541 . S
C2538 C2539 1.502 . S
C2538 C2540 1.561 . S
C2538 C2541 1.526 . S
C2539 H2523 0.959 . S
C2539 H2524 0.959 . S
C2539 H2525 0.961 . S
C2539 C2538 1.502 . S
C2540 H2526 0.960 . S
C2540 H2527 0.961 . S
C2540 H2528 0.959 . S
C2540 C2538 1.561 . S
C2541 C2538 1.526 . S
C2541 C2542 1.396 1_545 S
C2541 C2546 1.390 . S
C2542 C2536 1.465 . S
C2542 C2541 1.396 1_565 S
C2542 C2543 1.399 . S
C2543 H2529 0.929 . S
C2543 C2542 1.399 . S
C2543 C2544 1.385 . S
C2544 H2530 0.931 . S
C2544 C2543 1.385 . S
C2544 C2545 1.389 . S
C2545 C2544 1.389 . S
C2545 C2546 1.387 1_565 S
C2546 H2531 0.930 . S
C2546 C2541 1.390 . S
C2546 C2545 1.387 1_545 S
H2547 C2559 0.980 . S
H2548 C2561 0.930 . S
H2549 C2562 0.930 . S
H2550 C2566 0.959 . S
H2551 C2566 0.959 . S
H2552 C2566 0.961 . S
H2553 C2567 0.960 . S
H2554 C2567 0.961 . S
H2555 C2567 0.959 . S
H2556 C2570 0.929 . S
H2557 C2571 0.931 . S
H2558 C2573 0.930 . S
C2559 H2547 0.980 . S
C2559 C2560 1.378 1_565 S
C2559 C2564 1.375 1_565 S
C2560 C2559 1.378 1_545 S
C2560 C2561 1.376 . S
C2561 H2548 0.930 . S
C2561 C2560 1.376 . S
C2561 C2562 1.388 . S
C2562 H2549 0.930 . S
C2562 C2561 1.388 . S
C2562 C2563 1.390 . S
C2563 C2562 1.390 . S
C2563 C2564 1.391 . S
C2563 C2569 1.465 . S
C2564 C2559 1.375 1_545 S
C2564 C2563 1.391 . S
C2564 C2565 1.517 1_545 S
C2565 C2564 1.517 1_565 S
C2565 C2566 1.502 . S
C2565 C2567 1.561 . S
C2565 C2568 1.526 . S
C2566 H2550 0.959 . S
C2566 H2551 0.959 . S
C2566 H2552 0.961 . S
C2566 C2565 1.502 . S
C2567 H2553 0.960 . S
C2567 H2554 0.961 . S
C2567 H2555 0.959 . S
C2567 C2565 1.561 . S
C2568 C2565 1.526 . S
C2568 C2569 1.396 1_565 S
C2568 C2573 1.390 . S
C2569 C2563 1.465 . S
C2569 C2568 1.396 1_545 S
C2569 C2570 1.399 . S
C2570 H2556 0.929 . S
C2570 C2569 1.399 . S
C2570 C2571 1.385 . S
C2571 H2557 0.931 . S
C2571 C2570 1.385 . S
C2571 C2572 1.389 . S
C2572 C2571 1.389 . S
C2572 C2573 1.387 1_545 S
C2573 H2558 0.930 . S
C2573 C2568 1.390 . S
C2573 C2572 1.387 1_565 S
H2574 C2586 0.961 . S
H2575 C2588 0.930 . S
H2576 C2589 0.930 . S
H2577 C2593 0.959 . S
H2578 C2593 1.018 . S
H2579 C2593 0.961 . S
H2580 C2594 0.960 . S
H2581 C2594 0.961 . S
H2582 C2594 0.959 . S
H2583 C2597 0.929 . S
H2584 C2598 0.931 . S
H2585 C2600 0.988 . S
C2586 H2574 0.961 . S
C2586 C2587 1.399 . S
C2586 C2591 1.399 . S
C2587 C2586 1.399 . S
C2587 C2588 1.376 . S
C2588 H2575 0.930 . S
C2588 C2587 1.376 . S
C2588 C2589 1.388 . S
C2589 H2576 0.930 . S
C2589 C2588 1.388 . S
C2589 C2590 1.390 . S
C2590 C2589 1.390 . S
C2590 C2591 1.394 . S
C2590 C2596 1.465 . S
C2591 C2586 1.399 . S
C2591 C2590 1.394 . S
C2591 C2592 1.516 1_655 S
C2592 C2591 1.516 1_455 S
C2592 C2593 1.502 1_455 S
C2592 C2594 1.561 . S
C2592 C2595 1.521 1_455 S
C2593 H2577 0.959 . S
C2593 H2578 1.018 . S
C2593 H2579 0.961 . S
C2593 C2592 1.502 1_655 S
C2594 H2580 0.960 . S
C2594 H2581 0.961 . S
C2594 H2582 0.959 . S
C2594 C2592 1.561 . S
C2595 C2592 1.521 1_655 S
C2595 C2596 1.447 . S
C2595 C2600 1.319 1_655 S
C2596 C2590 1.465 . S
C2596 C2595 1.447 . S
C2596 C2597 1.399 . S
C2597 H2583 0.929 . S
C2597 C2596 1.399 . S
C2597 C2598 1.385 . S
C2598 H2584 0.931 . S
C2598 C2597 1.385 . S
C2598 C2599 1.389 . S
C2599 C2598 1.389 . S
C2599 C2600 1.372 1_655 S
C2600 H2585 0.988 . S
C2600 C2595 1.319 1_455 S
C2600 C2599 1.372 1_455 S
H2601 C2613 0.930 . S
H2602 C2615 0.930 . S
H2603 C2616 0.930 . S
H2604 C2620 0.959 . S
H2605 C2620 0.959 . S
H2606 C2620 0.961 . S
H2607 C2621 0.960 . S
H2608 C2621 0.961 . S
H2609 C2621 0.959 . S
H2610 C2624 0.929 . S
H2611 C2625 0.931 . S
H2612 C2627 0.930 . S
C2613 H2601 0.930 . S
C2613 C2614 1.399 . S
C2613 C2618 1.399 . S
C2614 C2613 1.399 . S
C2614 C2615 1.376 . S
C2615 H2602 0.930 . S
C2615 C2614 1.376 . S
C2615 C2616 1.388 . S
C2616 H2603 0.930 . S
C2616 C2615 1.388 . S
C2616 C2617 1.390 . S
C2617 C2616 1.390 . S
C2617 C2618 1.394 . S
C2617 C2623 1.465 . S
C2618 C2613 1.399 . S
C2618 C2617 1.394 . S
C2618 C2619 1.516 . S
C2619 C2618 1.516 . S
C2619 C2620 1.502 . S
C2619 C2621 1.561 . S
C2619 C2622 1.526 . S
C2620 H2604 0.959 . S
C2620 H2605 0.959 . S
C2620 H2606 0.961 . S
C2620 C2619 1.502 . S
C2621 H2607 0.960 . S
C2621 H2608 0.961 . S
C2621 H2609 0.959 . S
C2621 C2619 1.561 . S
C2622 C2619 1.526 . S
C2622 C2623 1.396 . S
C2622 C2627 1.390 . S
C2623 C2617 1.465 . S
C2623 C2622 1.396 . S
C2623 C2624 1.399 . S
C2624 H2610 0.929 . S
C2624 C2623 1.399 . S
C2624 C2625 1.385 . S
C2625 H2611 0.931 . S
C2625 C2624 1.385 . S
C2625 C2626 1.389 . S
C2626 C2625 1.389 . S
C2626 C2627 1.387 . S
C2627 H2612 0.930 . S
C2627 C2622 1.390 . S
C2627 C2626 1.387 . S
H2628 C2640 0.930 . S
H2629 C2642 0.930 . S
H2630 C2643 0.930 . S
H2631 C2647 0.959 . S
H2632 C2647 0.959 . S
H2633 C2647 0.961 . S
H2634 C2648 0.960 . S
H2635 C2648 0.961 . S
H2636 C2648 0.959 . S
H2637 C2651 0.929 . S
H2638 C2652 0.931 . S
H2639 C2654 0.930 . S
C2640 H2628 0.930 . S
C2640 C2641 1.399 . S
C2640 C2645 1.399 . S
C2641 C2640 1.399 . S
C2641 C2642 1.376 . S
C2642 H2629 0.930 . S
C2642 C2641 1.376 . S
C2642 C2643 1.388 . S
C2643 H2630 0.930 . S
C2643 C2642 1.388 . S
C2643 C2644 1.390 . S
C2644 C2643 1.390 . S
C2644 C2645 1.394 . S
C2644 C2650 1.465 . S
C2645 C2640 1.399 . S
C2645 C2644 1.394 . S
C2645 C2646 1.516 . S
C2646 C2645 1.516 . S
C2646 C2647 1.502 . S
C2646 C2648 1.561 . S
C2646 C2649 1.526 . S
C2647 H2631 0.959 . S
C2647 H2632 0.959 . S
C2647 H2633 0.961 . S
C2647 C2646 1.502 . S
C2648 H2634 0.960 . S
C2648 H2635 0.961 . S
C2648 H2636 0.959 . S
C2648 C2646 1.561 . S
C2649 C2646 1.526 . S
C2649 C2650 1.396 . S
C2649 C2654 1.390 . S
C2650 C2644 1.465 . S
C2650 C2649 1.396 . S
C2650 C2651 1.399 . S
C2651 H2637 0.929 . S
C2651 C2650 1.399 . S
C2651 C2652 1.385 . S
C2652 H2638 0.931 . S
C2652 C2651 1.385 . S
C2652 C2653 1.389 . S
C2653 C2652 1.389 . S
C2653 C2654 1.387 . S
C2654 H2639 0.930 . S
C2654 C2649 1.390 . S
C2654 C2653 1.387 . S
H2655 C2667 0.930 . S
H2656 C2669 0.930 . S
H2657 C2670 0.930 . S
H2658 C2674 0.959 . S
H2659 C2674 0.959 . S
H2660 C2674 0.961 . S
H2661 C2675 0.960 . S
H2662 C2675 0.961 . S
H2663 C2675 0.959 . S
H2664 C2678 0.929 . S
H2665 C2679 0.931 . S
H2666 C2681 0.930 . S
C2667 H2655 0.930 . S
C2667 C2668 1.399 . S
C2667 C2672 1.399 . S
C2668 C2667 1.399 . S
C2668 C2669 1.376 . S
C2669 H2656 0.930 . S
C2669 C2668 1.376 . S
C2669 C2670 1.388 . S
C2670 H2657 0.930 . S
C2670 C2669 1.388 . S
C2670 C2671 1.390 . S
C2671 C2670 1.390 . S
C2671 C2672 1.394 . S
C2671 C2677 1.465 . S
C2672 C2667 1.399 . S
C2672 C2671 1.394 . S
C2672 C2673 1.516 . S
C2673 C2672 1.516 . S
C2673 C2674 1.502 . S
C2673 C2675 1.561 . S
C2673 C2676 1.526 . S
C2674 H2658 0.959 . S
C2674 H2659 0.959 . S
C2674 H2660 0.961 . S
C2674 C2673 1.502 . S
C2675 H2661 0.960 . S
C2675 H2662 0.961 . S
C2675 H2663 0.959 . S
C2675 C2673 1.561 . S
C2676 C2673 1.526 . S
C2676 C2677 1.396 . S
C2676 C2681 1.390 . S
C2677 C2671 1.465 . S
C2677 C2676 1.396 . S
C2677 C2678 1.399 . S
C2678 H2664 0.929 . S
C2678 C2677 1.399 . S
C2678 C2679 1.385 . S
C2679 H2665 0.931 . S
C2679 C2678 1.385 . S
C2679 C2680 1.389 . S
C2680 C2679 1.389 . S
C2680 C2681 1.387 . S
C2681 H2666 0.930 . S
C2681 C2676 1.390 . S
C2681 C2680 1.387 . S
H2682 C2694 0.930 . S
H2683 C2696 0.930 . S
H2684 C2697 0.930 . S
H2685 C2701 0.959 . S
H2686 C2701 0.959 . S
H2687 C2701 0.961 . S
H2688 C2702 0.960 . S
H2689 C2702 0.961 . S
H2690 C2702 0.959 . S
H2691 C2705 0.929 . S
H2692 C2706 0.931 . S
H2693 C2708 0.930 . S
C2694 H2682 0.930 . S
C2694 C2695 1.399 . S
C2694 C2699 1.399 . S
C2695 C2694 1.399 . S
C2695 C2696 1.376 . S
C2696 H2683 0.930 . S
C2696 C2695 1.376 . S
C2696 C2697 1.388 . S
C2697 H2684 0.930 . S
C2697 C2696 1.388 . S
C2697 C2698 1.390 . S
C2698 C2697 1.390 . S
C2698 C2699 1.394 . S
C2698 C2704 1.465 . S
C2699 C2694 1.399 . S
C2699 C2698 1.394 . S
C2699 C2700 1.516 . S
C2700 C2699 1.516 . S
C2700 C2701 1.502 . S
C2700 C2702 1.561 . S
C2700 C2703 1.526 . S
C2701 H2685 0.959 . S
C2701 H2686 0.959 . S
C2701 H2687 0.961 . S
C2701 C2700 1.502 . S
C2702 H2688 0.960 . S
C2702 H2689 0.961 . S
C2702 H2690 0.959 . S
C2702 C2700 1.561 . S
C2703 C2700 1.526 . S
C2703 C2704 1.396 . S
C2703 C2708 1.390 . S
C2704 C2698 1.465 . S
C2704 C2703 1.396 . S
C2704 C2705 1.399 . S
C2705 H2691 0.929 . S
C2705 C2704 1.399 . S
C2705 C2706 1.385 . S
C2706 H2692 0.931 . S
C2706 C2705 1.385 . S
C2706 C2707 1.389 . S
C2707 C2706 1.389 . S
C2707 C2708 1.387 . S
C2708 H2693 0.930 . S
C2708 C2703 1.390 . S
C2708 C2707 1.387 . S
H2709 C2721 0.930 . S
H2710 C2723 0.930 . S
H2711 C2724 0.930 . S
H2712 C2728 0.959 . S
H2713 C2728 0.959 . S
H2714 C2728 0.961 . S
H2715 C2729 0.960 . S
H2716 C2729 0.961 . S
H2717 C2729 0.959 . S
H2718 C2732 0.929 . S
H2719 C2733 0.931 . S
H2720 C2735 0.930 . S
C2721 H2709 0.930 . S
C2721 C2722 1.399 . S
C2721 C2726 1.399 . S
C2722 C2721 1.399 . S
C2722 C2723 1.376 . S
C2723 H2710 0.930 . S
C2723 C2722 1.376 . S
C2723 C2724 1.388 . S
C2724 H2711 0.930 . S
C2724 C2723 1.388 . S
C2724 C2725 1.390 . S
C2725 C2724 1.390 . S
C2725 C2726 1.394 . S
C2725 C2731 1.465 . S
C2726 C2721 1.399 . S
C2726 C2725 1.394 . S
C2726 C2727 1.516 . S
C2727 C2726 1.516 . S
C2727 C2728 1.502 . S
C2727 C2729 1.561 . S
C2727 C2730 1.526 . S
C2728 H2712 0.959 . S
C2728 H2713 0.959 . S
C2728 H2714 0.961 . S
C2728 C2727 1.502 . S
C2729 H2715 0.960 . S
C2729 H2716 0.961 . S
C2729 H2717 0.959 . S
C2729 C2727 1.561 . S
C2730 C2727 1.526 . S
C2730 C2731 1.396 . S
C2730 C2735 1.390 . S
C2731 C2725 1.465 . S
C2731 C2730 1.396 . S
C2731 C2732 1.399 . S
C2732 H2718 0.929 . S
C2732 C2731 1.399 . S
C2732 C2733 1.385 . S
C2733 H2719 0.931 . S
C2733 C2732 1.385 . S
C2733 C2734 1.389 . S
C2734 C2733 1.389 . S
C2734 C2735 1.387 . S
C2735 H2720 0.930 . S
C2735 C2730 1.390 . S
C2735 C2734 1.387 . S
H2736 C2748 0.930 . S
H2737 C2750 0.930 . S
H2738 C2751 0.930 . S
H2739 C2755 0.959 . S
H2740 C2755 0.959 . S
H2741 C2755 0.961 . S
H2742 C2756 0.960 . S
H2743 C2756 0.961 . S
H2744 C2756 0.959 . S
H2745 C2759 0.929 . S
H2746 C2760 0.931 . S
H2747 C2762 0.930 . S
C2748 H2736 0.930 . S
C2748 C2749 1.399 . S
C2748 C2753 1.399 . S
C2749 C2748 1.399 . S
C2749 C2750 1.376 . S
C2750 H2737 0.930 . S
C2750 C2749 1.376 . S
C2750 C2751 1.388 . S
C2751 H2738 0.930 . S
C2751 C2750 1.388 . S
C2751 C2752 1.390 . S
C2752 C2751 1.390 . S
C2752 C2753 1.394 . S
C2752 C2758 1.465 . S
C2753 C2748 1.399 . S
C2753 C2752 1.394 . S
C2753 C2754 1.516 . S
C2754 C2753 1.516 . S
C2754 C2755 1.502 . S
C2754 C2756 1.561 . S
C2754 C2757 1.526 . S
C2755 H2739 0.959 . S
C2755 H2740 0.959 . S
C2755 H2741 0.961 . S
C2755 C2754 1.502 . S
C2756 H2742 0.960 . S
C2756 H2743 0.961 . S
C2756 H2744 0.959 . S
C2756 C2754 1.561 . S
C2757 C2754 1.526 . S
C2757 C2758 1.396 . S
C2757 C2762 1.390 . S
C2758 C2752 1.465 . S
C2758 C2757 1.396 . S
C2758 C2759 1.399 . S
C2759 H2745 0.929 . S
C2759 C2758 1.399 . S
C2759 C2760 1.385 . S
C2760 H2746 0.931 . S
C2760 C2759 1.385 . S
C2760 C2761 1.389 . S
C2761 C2760 1.389 . S
C2761 C2762 1.387 . S
C2762 H2747 0.930 . S
C2762 C2757 1.390 . S
C2762 C2761 1.387 . S
H2763 C2775 0.930 . S
H2764 C2777 0.930 . S
H2765 C2778 0.930 . S
H2766 C2782 0.959 . S
H2767 C2782 0.959 . S
H2768 C2782 0.961 . S
H2769 C2783 0.960 . S
H2770 C2783 0.961 . S
H2771 C2783 0.959 . S
H2772 C2786 0.929 . S
H2773 C2787 0.931 . S
H2774 C2789 0.930 . S
C2775 H2763 0.930 . S
C2775 C2776 1.399 . S
C2775 C2780 1.399 . S
C2776 C2775 1.399 . S
C2776 C2777 1.376 . S
C2777 H2764 0.930 . S
C2777 C2776 1.376 . S
C2777 C2778 1.388 . S
C2778 H2765 0.930 . S
C2778 C2777 1.388 . S
C2778 C2779 1.390 . S
C2779 C2778 1.390 . S
C2779 C2780 1.394 . S
C2779 C2785 1.465 . S
C2780 C2775 1.399 . S
C2780 C2779 1.394 . S
C2780 C2781 1.516 . S
C2781 C2780 1.516 . S
C2781 C2782 1.502 . S
C2781 C2783 1.561 . S
C2781 C2784 1.526 . S
C2782 H2766 0.959 . S
C2782 H2767 0.959 . S
C2782 H2768 0.961 . S
C2782 C2781 1.502 . S
C2783 H2769 0.960 . S
C2783 H2770 0.961 . S
C2783 H2771 0.959 . S
C2783 C2781 1.561 . S
C2784 C2781 1.526 . S
C2784 C2785 1.396 . S
C2784 C2789 1.390 . S
C2785 C2779 1.465 . S
C2785 C2784 1.396 . S
C2785 C2786 1.399 . S
C2786 H2772 0.929 . S
C2786 C2785 1.399 . S
C2786 C2787 1.385 . S
C2787 H2773 0.931 . S
C2787 C2786 1.385 . S
C2787 C2788 1.389 . S
C2788 C2787 1.389 . S
C2788 C2789 1.387 . S
C2789 H2774 0.930 . S
C2789 C2784 1.390 . S
C2789 C2788 1.387 . S
H2790 C2802 0.930 . S
H2791 C2804 0.930 . S
H2792 C2805 0.930 . S
H2793 C2809 0.959 . S
H2794 C2809 0.959 . S
H2795 C2809 0.961 . S
H2796 C2810 0.960 . S
H2797 C2810 0.961 . S
H2798 C2810 0.959 . S
H2799 C2813 0.929 . S
H2800 C2814 0.931 . S
H2801 C2816 0.930 . S
C2802 H2790 0.930 . S
C2802 C2803 1.399 . S
C2802 C2807 1.399 . S
C2803 C2802 1.399 . S
C2803 C2804 1.376 . S
C2804 H2791 0.930 . S
C2804 C2803 1.376 . S
C2804 C2805 1.388 . S
C2805 H2792 0.930 . S
C2805 C2804 1.388 . S
C2805 C2806 1.390 . S
C2806 C2805 1.390 . S
C2806 C2807 1.394 . S
C2806 C2812 1.465 . S
C2807 C2802 1.399 . S
C2807 C2806 1.394 . S
C2807 C2808 1.516 . S
C2808 C2807 1.516 . S
C2808 C2809 1.502 . S
C2808 C2810 1.561 . S
C2808 C2811 1.526 . S
C2809 H2793 0.959 . S
C2809 H2794 0.959 . S
C2809 H2795 0.961 . S
C2809 C2808 1.502 . S
C2810 H2796 0.960 . S
C2810 H2797 0.961 . S
C2810 H2798 0.959 . S
C2810 C2808 1.561 . S
C2811 C2808 1.526 . S
C2811 C2812 1.396 . S
C2811 C2816 1.390 . S
C2812 C2806 1.465 . S
C2812 C2811 1.396 . S
C2812 C2813 1.399 . S
C2813 H2799 0.929 . S
C2813 C2812 1.399 . S
C2813 C2814 1.385 . S
C2814 H2800 0.931 . S
C2814 C2813 1.385 . S
C2814 C2815 1.389 . S
C2815 C2814 1.389 . S
C2815 C2816 1.387 . S
C2816 H2801 0.930 . S
C2816 C2811 1.390 . S
C2816 C2815 1.387 . S
H2817 C2829 0.930 . S
H2818 C2831 0.930 . S
H2819 C2832 0.930 . S
H2820 C2836 0.959 . S
H2821 C2836 0.959 . S
H2822 C2836 0.961 . S
H2823 C2837 0.960 . S
H2824 C2837 0.961 . S
H2825 C2837 0.959 . S
H2826 C2840 0.929 . S
H2827 C2841 0.931 . S
H2828 C2843 0.930 . S
C2829 H2817 0.930 . S
C2829 C2830 1.399 . S
C2829 C2834 1.399 . S
C2830 C2829 1.399 . S
C2830 C2831 1.376 . S
C2831 H2818 0.930 . S
C2831 C2830 1.376 . S
C2831 C2832 1.388 . S
C2832 H2819 0.930 . S
C2832 C2831 1.388 . S
C2832 C2833 1.390 . S
C2833 C2832 1.390 . S
C2833 C2834 1.394 . S
C2833 C2839 1.465 . S
C2834 C2829 1.399 . S
C2834 C2833 1.394 . S
C2834 C2835 1.516 . S
C2835 C2834 1.516 . S
C2835 C2836 1.502 . S
C2835 C2837 1.561 . S
C2835 C2838 1.526 . S
C2836 H2820 0.959 . S
C2836 H2821 0.959 . S
C2836 H2822 0.961 . S
C2836 C2835 1.502 . S
C2837 H2823 0.960 . S
C2837 H2824 0.961 . S
C2837 H2825 0.959 . S
C2837 C2835 1.561 . S
C2838 C2835 1.526 . S
C2838 C2839 1.396 . S
C2838 C2843 1.390 . S
C2839 C2833 1.465 . S
C2839 C2838 1.396 . S
C2839 C2840 1.399 . S
C2840 H2826 0.929 . S
C2840 C2839 1.399 . S
C2840 C2841 1.385 . S
C2841 H2827 0.931 . S
C2841 C2840 1.385 . S
C2841 C2842 1.389 . S
C2842 C2841 1.389 . S
C2842 C2843 1.387 . S
C2843 H2828 0.930 . S
C2843 C2838 1.390 . S
C2843 C2842 1.387 . S
H2844 C2856 0.930 . S
H2845 C2858 0.930 . S
H2846 C2859 0.930 . S
H2847 C2863 0.959 . S
H2848 C2863 0.959 . S
H2849 C2863 0.961 . S
H2850 C2864 0.960 . S
H2851 C2864 0.961 . S
H2852 C2864 0.959 . S
H2853 C2867 0.929 . S
H2854 C2868 0.931 . S
H2855 C2870 0.930 . S
C2856 H2844 0.930 . S
C2856 C2857 1.399 . S
C2856 C2861 1.399 . S
C2857 C2856 1.399 . S
C2857 C2858 1.376 . S
C2858 H2845 0.930 . S
C2858 C2857 1.376 . S
C2858 C2859 1.388 . S
C2859 H2846 0.930 . S
C2859 C2858 1.388 . S
C2859 C2860 1.390 . S
C2860 C2859 1.390 . S
C2860 C2861 1.394 . S
C2860 C2866 1.465 . S
C2861 C2856 1.399 . S
C2861 C2860 1.394 . S
C2861 C2862 1.516 . S
C2862 C2861 1.516 . S
C2862 C2863 1.502 . S
C2862 C2864 1.561 . S
C2862 C2865 1.526 . S
C2863 H2847 0.959 . S
C2863 H2848 0.959 . S
C2863 H2849 0.961 . S
C2863 C2862 1.502 . S
C2864 H2850 0.960 . S
C2864 H2851 0.961 . S
C2864 H2852 0.959 . S
C2864 C2862 1.561 . S
C2865 C2862 1.526 . S
C2865 C2866 1.396 . S
C2865 C2870 1.390 . S
C2866 C2860 1.465 . S
C2866 C2865 1.396 . S
C2866 C2867 1.399 . S
C2867 H2853 0.929 . S
C2867 C2866 1.399 . S
C2867 C2868 1.385 . S
C2868 H2854 0.931 . S
C2868 C2867 1.385 . S
C2868 C2869 1.389 . S
C2869 C2868 1.389 . S
C2869 C2870 1.387 . S
C2870 H2855 0.930 . S
C2870 C2865 1.390 . S
C2870 C2869 1.387 . S
H2871 C2883 0.930 . S
H2872 C2885 0.930 . S
H2873 C2886 0.930 . S
H2874 C2890 0.959 . S
H2875 C2890 0.959 . S
H2876 C2890 0.961 . S
H2877 C2891 0.960 . S
H2878 C2891 0.961 . S
H2879 C2891 0.959 . S
H2880 C2894 0.929 . S
H2881 C2895 0.931 . S
H2882 C2897 0.930 . S
C2883 H2871 0.930 . S
C2883 C2884 1.399 . S
C2883 C2888 1.399 . S
C2884 C2883 1.399 . S
C2884 C2885 1.376 . S
C2885 H2872 0.930 . S
C2885 C2884 1.376 . S
C2885 C2886 1.388 . S
C2886 H2873 0.930 . S
C2886 C2885 1.388 . S
C2886 C2887 1.390 . S
C2887 C2886 1.390 . S
C2887 C2888 1.394 . S
C2887 C2893 1.465 . S
C2888 C2883 1.399 . S
C2888 C2887 1.394 . S
C2888 C2889 1.516 . S
C2889 C2888 1.516 . S
C2889 C2890 1.502 . S
C2889 C2891 1.561 . S
C2889 C2892 1.526 . S
C2890 H2874 0.959 . S
C2890 H2875 0.959 . S
C2890 H2876 0.961 . S
C2890 C2889 1.502 . S
C2891 H2877 0.960 . S
C2891 H2878 0.961 . S
C2891 H2879 0.959 . S
C2891 C2889 1.561 . S
C2892 C2889 1.526 . S
C2892 C2893 1.396 . S
C2892 C2897 1.390 . S
C2893 C2887 1.465 . S
C2893 C2892 1.396 . S
C2893 C2894 1.399 . S
C2894 H2880 0.929 . S
C2894 C2893 1.399 . S
C2894 C2895 1.385 . S
C2895 H2881 0.931 . S
C2895 C2894 1.385 . S
C2895 C2896 1.389 . S
C2896 C2895 1.389 . S
C2896 C2897 1.387 . S
C2897 H2882 0.930 . S
C2897 C2892 1.390 . S
C2897 C2896 1.387 . S
H2898 C2910 0.930 . S
H2899 C2912 0.930 . S
H2900 C2913 0.930 . S
H2901 C2917 0.959 . S
H2902 C2917 0.959 . S
H2903 C2917 0.961 . S
H2904 C2918 0.960 . S
H2905 C2918 0.961 . S
H2906 C2918 0.959 . S
H2907 C2921 0.929 . S
H2908 C2922 0.931 . S
H2909 C2924 0.930 . S
C2910 H2898 0.930 . S
C2910 C2911 1.399 . S
C2910 C2915 1.399 . S
C2911 C2910 1.399 . S
C2911 C2912 1.376 . S
C2912 H2899 0.930 . S
C2912 C2911 1.376 . S
C2912 C2913 1.388 . S
C2913 H2900 0.930 . S
C2913 C2912 1.388 . S
C2913 C2914 1.390 . S
C2914 C2913 1.390 . S
C2914 C2915 1.394 . S
C2914 C2920 1.465 . S
C2915 C2910 1.399 . S
C2915 C2914 1.394 . S
C2915 C2916 1.516 . S
C2916 C2915 1.516 . S
C2916 C2917 1.502 . S
C2916 C2918 1.561 . S
C2916 C2919 1.526 . S
C2917 H2901 0.959 . S
C2917 H2902 0.959 . S
C2917 H2903 0.961 . S
C2917 C2916 1.502 . S
C2918 H2904 0.960 . S
C2918 H2905 0.961 . S
C2918 H2906 0.959 . S
C2918 C2916 1.561 . S
C2919 C2916 1.526 . S
C2919 C2920 1.396 . S
C2919 C2924 1.390 . S
C2920 C2914 1.465 . S
C2920 C2919 1.396 . S
C2920 C2921 1.399 . S
C2921 H2907 0.929 . S
C2921 C2920 1.399 . S
C2921 C2922 1.385 . S
C2922 H2908 0.931 . S
C2922 C2921 1.385 . S
C2922 C2923 1.389 . S
C2923 C2922 1.389 . S
C2923 C2924 1.387 . S
C2924 H2909 0.930 . S
C2924 C2919 1.390 . S
C2924 C2923 1.387 . S
H2925 C2937 0.930 . S
H2926 C2939 0.930 . S
H2927 C2940 0.930 . S
H2928 C2944 0.959 . S
H2929 C2944 0.959 . S
H2930 C2944 0.961 . S
H2931 C2945 0.960 . S
H2932 C2945 0.961 . S
H2933 C2945 0.959 . S
H2934 C2948 0.929 . S
H2935 C2949 0.931 . S
H2936 C2951 0.930 . S
C2937 H2925 0.930 . S
C2937 C2938 1.399 . S
C2937 C2942 1.399 . S
C2938 C2937 1.399 . S
C2938 C2939 1.376 . S
C2939 H2926 0.930 . S
C2939 C2938 1.376 . S
C2939 C2940 1.388 . S
C2940 H2927 0.930 . S
C2940 C2939 1.388 . S
C2940 C2941 1.390 . S
C2941 C2940 1.390 . S
C2941 C2942 1.394 . S
C2941 C2947 1.465 . S
C2942 C2937 1.399 . S
C2942 C2941 1.394 . S
C2942 C2943 1.516 . S
C2943 C2942 1.516 . S
C2943 C2944 1.502 . S
C2943 C2945 1.561 . S
C2943 C2946 1.526 . S
C2944 H2928 0.959 . S
C2944 H2929 0.959 . S
C2944 H2930 0.961 . S
C2944 C2943 1.502 . S
C2945 H2931 0.960 . S
C2945 H2932 0.961 . S
C2945 H2933 0.959 . S
C2945 C2943 1.561 . S
C2946 C2943 1.526 . S
C2946 C2947 1.396 . S
C2946 C2951 1.390 . S
C2947 C2941 1.465 . S
C2947 C2946 1.396 . S
C2947 C2948 1.399 . S
C2948 H2934 0.929 . S
C2948 C2947 1.399 . S
C2948 C2949 1.385 . S
C2949 H2935 0.931 . S
C2949 C2948 1.385 . S
C2949 C2950 1.389 . S
C2950 C2949 1.389 . S
C2950 C2951 1.387 . S
C2951 H2936 0.930 . S
C2951 C2946 1.390 . S
C2951 C2950 1.387 . S
H2952 C2964 0.930 . S
H2953 C2966 0.930 . S
H2954 C2967 0.930 . S
H2955 C2971 0.959 . S
H2956 C2971 0.959 . S
H2957 C2971 0.961 . S
H2958 C2972 0.960 . S
H2959 C2972 0.961 . S
H2960 C2972 0.959 . S
H2961 C2975 0.929 . S
H2962 C2976 0.931 . S
H2963 C2978 0.930 . S
C2964 H2952 0.930 . S
C2964 C2965 1.399 . S
C2964 C2969 1.399 . S
C2965 C2964 1.399 . S
C2965 C2966 1.376 . S
C2966 H2953 0.930 . S
C2966 C2965 1.376 . S
C2966 C2967 1.388 . S
C2967 H2954 0.930 . S
C2967 C2966 1.388 . S
C2967 C2968 1.390 . S
C2968 C2967 1.390 . S
C2968 C2969 1.394 . S
C2968 C2974 1.465 . S
C2969 C2964 1.399 . S
C2969 C2968 1.394 . S
C2969 C2970 1.516 . S
C2970 C2969 1.516 . S
C2970 C2971 1.502 . S
C2970 C2972 1.561 . S
C2970 C2973 1.526 . S
C2971 H2955 0.959 . S
C2971 H2956 0.959 . S
C2971 H2957 0.961 . S
C2971 C2970 1.502 . S
C2972 H2958 0.960 . S
C2972 H2959 0.961 . S
C2972 H2960 0.959 . S
C2972 C2970 1.561 . S
C2973 C2970 1.526 . S
C2973 C2974 1.396 . S
C2973 C2978 1.390 . S
C2974 C2968 1.465 . S
C2974 C2973 1.396 . S
C2974 C2975 1.399 . S
C2975 H2961 0.929 . S
C2975 C2974 1.399 . S
C2975 C2976 1.385 . S
C2976 H2962 0.931 . S
C2976 C2975 1.385 . S
C2976 C2977 1.389 . S
C2977 C2976 1.389 . S
C2977 C2978 1.387 . S
C2978 H2963 0.930 . S
C2978 C2973 1.390 . S
C2978 C2977 1.387 . S
H2979 C2991 0.930 . S
H2980 C2993 0.930 . S
H2981 C2994 0.930 . S
H2982 C2998 0.959 . S
H2983 C2998 0.959 . S
H2984 C2998 0.961 . S
H2985 C2999 0.960 . S
H2986 C2999 0.961 . S
H2987 C2999 0.959 . S
H2988 C3002 0.929 . S
H2989 C3003 0.931 . S
H2990 C3005 0.930 . S
C2991 H2979 0.930 . S
C2991 C2992 1.399 . S
C2991 C2996 1.399 . S
C2992 C2991 1.399 . S
C2992 C2993 1.376 . S
C2993 H2980 0.930 . S
C2993 C2992 1.376 . S
C2993 C2994 1.388 . S
C2994 H2981 0.930 . S
C2994 C2993 1.388 . S
C2994 C2995 1.390 . S
C2995 C2994 1.390 . S
C2995 C2996 1.394 . S
C2995 C3001 1.465 . S
C2996 C2991 1.399 . S
C2996 C2995 1.394 . S
C2996 C2997 1.516 . S
C2997 C2996 1.516 . S
C2997 C2998 1.502 . S
C2997 C2999 1.561 . S
C2997 C3000 1.526 . S
C2998 H2982 0.959 . S
C2998 H2983 0.959 . S
C2998 H2984 0.961 . S
C2998 C2997 1.502 . S
C2999 H2985 0.960 . S
C2999 H2986 0.961 . S
C2999 H2987 0.959 . S
C2999 C2997 1.561 . S
C3000 C2997 1.526 . S
C3000 C3001 1.396 . S
C3000 C3005 1.390 . S
C3001 C2995 1.465 . S
C3001 C3000 1.396 . S
C3001 C3002 1.399 . S
C3002 H2988 0.929 . S
C3002 C3001 1.399 . S
C3002 C3003 1.385 . S
C3003 H2989 0.931 . S
C3003 C3002 1.385 . S
C3003 C3004 1.389 . S
C3004 C3003 1.389 . S
C3004 C3005 1.387 . S
C3005 H2990 0.930 . S
C3005 C3000 1.390 . S
C3005 C3004 1.387 . S
H3006 C3018 0.930 . S
H3007 C3020 0.930 . S
H3008 C3021 0.930 . S
H3009 C3025 0.959 . S
H3010 C3025 0.959 . S
H3011 C3025 0.961 . S
H3012 C3026 0.960 . S
H3013 C3026 0.961 . S
H3014 C3026 0.959 . S
H3015 C3029 0.929 . S
H3016 C3030 0.931 . S
H3017 C3032 0.930 . S
C3018 H3006 0.930 . S
C3018 C3019 1.399 . S
C3018 C3023 1.399 . S
C3019 C3018 1.399 . S
C3019 C3020 1.376 . S
C3020 H3007 0.930 . S
C3020 C3019 1.376 . S
C3020 C3021 1.388 . S
C3021 H3008 0.930 . S
C3021 C3020 1.388 . S
C3021 C3022 1.390 . S
C3022 C3021 1.390 . S
C3022 C3023 1.394 . S
C3022 C3028 1.465 . S
C3023 C3018 1.399 . S
C3023 C3022 1.394 . S
C3023 C3024 1.516 . S
C3024 C3023 1.516 . S
C3024 C3025 1.502 . S
C3024 C3026 1.561 . S
C3024 C3027 1.526 . S
C3025 H3009 0.959 . S
C3025 H3010 0.959 . S
C3025 H3011 0.961 . S
C3025 C3024 1.502 . S
C3026 H3012 0.960 . S
C3026 H3013 0.961 . S
C3026 H3014 0.959 . S
C3026 C3024 1.561 . S
C3027 C3024 1.526 . S
C3027 C3028 1.396 . S
C3027 C3032 1.390 . S
C3028 C3022 1.465 . S
C3028 C3027 1.396 . S
C3028 C3029 1.399 . S
C3029 H3015 0.929 . S
C3029 C3028 1.399 . S
C3029 C3030 1.385 . S
C3030 H3016 0.931 . S
C3030 C3029 1.385 . S
C3030 C3031 1.389 . S
C3031 C3030 1.389 . S
C3031 C3032 1.387 . S
C3032 H3017 0.930 . S
C3032 C3027 1.390 . S
C3032 C3031 1.387 . S
H3033 C3045 0.930 . S
H3034 C3047 0.930 . S
H3035 C3048 0.930 . S
H3036 C3052 0.959 . S
H3037 C3052 0.959 . S
H3038 C3052 0.961 . S
H3039 C3053 0.960 . S
H3040 C3053 0.961 . S
H3041 C3053 0.959 . S
H3042 C3056 0.929 . S
H3043 C3057 0.931 . S
H3044 C3059 0.930 . S
C3045 H3033 0.930 . S
C3045 C3046 1.399 . S
C3045 C3050 1.399 . S
C3046 C3045 1.399 . S
C3046 C3047 1.376 . S
C3047 H3034 0.930 . S
C3047 C3046 1.376 . S
C3047 C3048 1.388 . S
C3048 H3035 0.930 . S
C3048 C3047 1.388 . S
C3048 C3049 1.390 . S
C3049 C3048 1.390 . S
C3049 C3050 1.394 . S
C3049 C3055 1.465 . S
C3050 C3045 1.399 . S
C3050 C3049 1.394 . S
C3050 C3051 1.516 . S
C3051 C3050 1.516 . S
C3051 C3052 1.502 . S
C3051 C3053 1.561 . S
C3051 C3054 1.526 . S
C3052 H3036 0.959 . S
C3052 H3037 0.959 . S
C3052 H3038 0.961 . S
C3052 C3051 1.502 . S
C3053 H3039 0.960 . S
C3053 H3040 0.961 . S
C3053 H3041 0.959 . S
C3053 C3051 1.561 . S
C3054 C3051 1.526 . S
C3054 C3055 1.396 . S
C3054 C3059 1.390 . S
C3055 C3049 1.465 . S
C3055 C3054 1.396 . S
C3055 C3056 1.399 . S
C3056 H3042 0.929 . S
C3056 C3055 1.399 . S
C3056 C3057 1.385 . S
C3057 H3043 0.931 . S
C3057 C3056 1.385 . S
C3057 C3058 1.389 . S
C3058 C3057 1.389 . S
C3058 C3059 1.387 . S
C3059 H3044 0.930 . S
C3059 C3054 1.390 . S
C3059 C3058 1.387 . S
H3060 C3072 0.930 . S
H3061 C3074 0.930 . S
H3062 C3075 0.930 . S
H3063 C3079 0.959 . S
H3064 C3079 0.959 . S
H3065 C3079 0.961 . S
H3066 C3080 0.960 . S
H3067 C3080 0.961 . S
H3068 C3080 0.959 . S
H3069 C3083 0.929 . S
H3070 C3084 0.931 . S
H3071 C3086 0.930 . S
C3072 H3060 0.930 . S
C3072 C3073 1.399 . S
C3072 C3077 1.399 . S
C3073 C3072 1.399 . S
C3073 C3074 1.376 . S
C3074 H3061 0.930 . S
C3074 C3073 1.376 . S
C3074 C3075 1.388 . S
C3075 H3062 0.930 . S
C3075 C3074 1.388 . S
C3075 C3076 1.390 . S
C3076 C3075 1.390 . S
C3076 C3077 1.394 . S
C3076 C3082 1.465 . S
C3077 C3072 1.399 . S
C3077 C3076 1.394 . S
C3077 C3078 1.516 . S
C3078 C3077 1.516 . S
C3078 C3079 1.502 . S
C3078 C3080 1.561 . S
C3078 C3081 1.526 . S
C3079 H3063 0.959 . S
C3079 H3064 0.959 . S
C3079 H3065 0.961 . S
C3079 C3078 1.502 . S
C3080 H3066 0.960 . S
C3080 H3067 0.961 . S
C3080 H3068 0.959 . S
C3080 C3078 1.561 . S
C3081 C3078 1.526 . S
C3081 C3082 1.396 . S
C3081 C3086 1.390 . S
C3082 C3076 1.465 . S
C3082 C3081 1.396 . S
C3082 C3083 1.399 . S
C3083 H3069 0.929 . S
C3083 C3082 1.399 . S
C3083 C3084 1.385 . S
C3084 H3070 0.931 . S
C3084 C3083 1.385 . S
C3084 C3085 1.389 . S
C3085 C3084 1.389 . S
C3085 C3086 1.387 . S
C3086 H3071 0.930 . S
C3086 C3081 1.390 . S
C3086 C3085 1.387 . S
H3087 C3099 0.930 . S
H3088 C3101 0.930 . S
H3089 C3102 0.930 . S
H3090 C3106 0.959 . S
H3091 C3106 0.959 . S
H3092 C3106 0.961 . S
H3093 C3107 0.960 . S
H3094 C3107 0.961 . S
H3095 C3107 0.959 . S
H3096 C3110 0.929 . S
H3097 C3111 0.931 . S
H3098 C3113 0.930 . S
C3099 H3087 0.930 . S
C3099 C3100 1.399 . S
C3099 C3104 1.399 . S
C3100 C3099 1.399 . S
C3100 C3101 1.376 . S
C3101 H3088 0.930 . S
C3101 C3100 1.376 . S
C3101 C3102 1.388 . S
C3102 H3089 0.930 . S
C3102 C3101 1.388 . S
C3102 C3103 1.390 . S
C3103 C3102 1.390 . S
C3103 C3104 1.394 . S
C3103 C3109 1.465 . S
C3104 C3099 1.399 . S
C3104 C3103 1.394 . S
C3104 C3105 1.516 . S
C3105 C3104 1.516 . S
C3105 C3106 1.502 . S
C3105 C3107 1.561 . S
C3105 C3108 1.526 . S
C3106 H3090 0.959 . S
C3106 H3091 0.959 . S
C3106 H3092 0.961 . S
C3106 C3105 1.502 . S
C3107 H3093 0.960 . S
C3107 H3094 0.961 . S
C3107 H3095 0.959 . S
C3107 C3105 1.561 . S
C3108 C3105 1.526 . S
C3108 C3109 1.396 . S
C3108 C3113 1.390 . S
C3109 C3103 1.465 . S
C3109 C3108 1.396 . S
C3109 C3110 1.399 . S
C3110 H3096 0.929 . S
C3110 C3109 1.399 . S
C3110 C3111 1.385 . S
C3111 H3097 0.931 . S
C3111 C3110 1.385 . S
C3111 C3112 1.389 . S
C3112 C3111 1.389 . S
C3112 C3113 1.387 . S
C3113 H3098 0.930 . S
C3113 C3108 1.390 . S
C3113 C3112 1.387 . S
H3114 C3126 0.930 . S
H3115 C3128 0.930 . S
H3116 C3129 0.930 . S
H3117 C3133 0.959 . S
H3118 C3133 0.959 . S
H3119 C3133 0.961 . S
H3120 C3134 0.960 . S
H3121 C3134 0.961 . S
H3122 C3134 0.959 . S
H3123 C3137 0.929 . S
H3124 C3138 0.931 . S
H3125 C3140 0.930 . S
C3126 H3114 0.930 . S
C3126 C3127 1.399 . S
C3126 C3131 1.399 . S
C3127 C3126 1.399 . S
C3127 C3128 1.376 . S
C3128 H3115 0.930 . S
C3128 C3127 1.376 . S
C3128 C3129 1.388 . S
C3129 H3116 0.930 . S
C3129 C3128 1.388 . S
C3129 C3130 1.390 . S
C3130 C3129 1.390 . S
C3130 C3131 1.394 . S
C3130 C3136 1.465 . S
C3131 C3126 1.399 . S
C3131 C3130 1.394 . S
C3131 C3132 1.516 . S
C3132 C3131 1.516 . S
C3132 C3133 1.502 . S
C3132 C3134 1.561 . S
C3132 C3135 1.526 . S
C3133 H3117 0.959 . S
C3133 H3118 0.959 . S
C3133 H3119 0.961 . S
C3133 C3132 1.502 . S
C3134 H3120 0.960 . S
C3134 H3121 0.961 . S
C3134 H3122 0.959 . S
C3134 C3132 1.561 . S
C3135 C3132 1.526 . S
C3135 C3136 1.396 . S
C3135 C3140 1.390 . S
C3136 C3130 1.465 . S
C3136 C3135 1.396 . S
C3136 C3137 1.399 . S
C3137 H3123 0.929 . S
C3137 C3136 1.399 . S
C3137 C3138 1.385 . S
C3138 H3124 0.931 . S
C3138 C3137 1.385 . S
C3138 C3139 1.389 . S
C3139 C3138 1.389 . S
C3139 C3140 1.387 . S
C3140 H3125 0.930 . S
C3140 C3135 1.390 . S
C3140 C3139 1.387 . S
H3141 C3153 0.930 . S
H3142 C3155 0.930 . S
H3143 C3156 0.930 . S
H3144 C3160 0.959 . S
H3145 C3160 0.959 . S
H3146 C3160 0.961 . S
H3147 C3161 0.960 . S
H3148 C3161 0.961 . S
H3149 C3161 0.959 . S
H3150 C3164 0.929 . S
H3151 C3165 0.931 . S
H3152 C3167 0.930 . S
C3153 H3141 0.930 . S
C3153 C3154 1.399 . S
C3153 C3158 1.399 . S
C3154 C3153 1.399 . S
C3154 C3155 1.376 . S
C3155 H3142 0.930 . S
C3155 C3154 1.376 . S
C3155 C3156 1.388 . S
C3156 H3143 0.930 . S
C3156 C3155 1.388 . S
C3156 C3157 1.390 . S
C3157 C3156 1.390 . S
C3157 C3158 1.394 . S
C3157 C3163 1.465 . S
C3158 C3153 1.399 . S
C3158 C3157 1.394 . S
C3158 C3159 1.516 . S
C3159 C3158 1.516 . S
C3159 C3160 1.502 . S
C3159 C3161 1.561 . S
C3159 C3162 1.526 . S
C3160 H3144 0.959 . S
C3160 H3145 0.959 . S
C3160 H3146 0.961 . S
C3160 C3159 1.502 . S
C3161 H3147 0.960 . S
C3161 H3148 0.961 . S
C3161 H3149 0.959 . S
C3161 C3159 1.561 . S
C3162 C3159 1.526 . S
C3162 C3163 1.396 . S
C3162 C3167 1.390 . S
C3163 C3157 1.465 . S
C3163 C3162 1.396 . S
C3163 C3164 1.399 . S
C3164 H3150 0.929 . S
C3164 C3163 1.399 . S
C3164 C3165 1.385 . S
C3165 H3151 0.931 . S
C3165 C3164 1.385 . S
C3165 C3166 1.389 . S
C3166 C3165 1.389 . S
C3166 C3167 1.387 . S
C3167 H3152 0.930 . S
C3167 C3162 1.390 . S
C3167 C3166 1.387 . S
H3168 C3180 0.930 . S
H3169 C3182 0.930 . S
H3170 C3183 0.930 . S
H3171 C3187 0.959 . S
H3172 C3187 0.959 . S
H3173 C3187 0.961 . S
H3174 C3188 0.960 . S
H3175 C3188 0.961 . S
H3176 C3188 0.959 . S
H3177 C3191 0.929 . S
H3178 C3192 0.931 . S
H3179 C3194 0.930 . S
C3180 H3168 0.930 . S
C3180 C3181 1.399 . S
C3180 C3185 1.399 . S
C3181 C3180 1.399 . S
C3181 C3182 1.376 . S
C3182 H3169 0.930 . S
C3182 C3181 1.376 . S
C3182 C3183 1.388 . S
C3183 H3170 0.930 . S
C3183 C3182 1.388 . S
C3183 C3184 1.390 . S
C3184 C3183 1.390 . S
C3184 C3185 1.394 . S
C3184 C3190 1.465 . S
C3185 C3180 1.399 . S
C3185 C3184 1.394 . S
C3185 C3186 1.516 . S
C3186 C3185 1.516 . S
C3186 C3187 1.502 . S
C3186 C3188 1.561 . S
C3186 C3189 1.526 . S
C3187 H3171 0.959 . S
C3187 H3172 0.959 . S
C3187 H3173 0.961 . S
C3187 C3186 1.502 . S
C3188 H3174 0.960 . S
C3188 H3175 0.961 . S
C3188 H3176 0.959 . S
C3188 C3186 1.561 . S
C3189 C3186 1.526 . S
C3189 C3190 1.396 . S
C3189 C3194 1.390 . S
C3190 C3184 1.465 . S
C3190 C3189 1.396 . S
C3190 C3191 1.399 . S
C3191 H3177 0.929 . S
C3191 C3190 1.399 . S
C3191 C3192 1.385 . S
C3192 H3178 0.931 . S
C3192 C3191 1.385 . S
C3192 C3193 1.389 . S
C3193 C3192 1.389 . S
C3193 C3194 1.387 . S
C3194 H3179 0.930 . S
C3194 C3189 1.390 . S
C3194 C3193 1.387 . S
H3195 C3207 0.930 . S
H3196 C3209 0.930 . S
H3197 C3210 0.930 . S
H3198 C3214 0.959 . S
H3199 C3214 0.959 . S
H3200 C3214 0.961 . S
H3201 C3215 0.960 . S
H3202 C3215 0.961 . S
H3203 C3215 0.959 . S
H3204 C3218 0.929 . S
H3205 C3219 0.931 . S
H3206 C3221 0.930 . S
C3207 H3195 0.930 . S
C3207 C3208 1.399 . S
C3207 C3212 1.399 . S
C3208 C3207 1.399 . S
C3208 C3209 1.376 . S
C3209 H3196 0.930 . S
C3209 C3208 1.376 . S
C3209 C3210 1.388 . S
C3210 H3197 0.930 . S
C3210 C3209 1.388 . S
C3210 C3211 1.390 . S
C3211 C3210 1.390 . S
C3211 C3212 1.394 . S
C3211 C3217 1.465 . S
C3212 C3207 1.399 . S
C3212 C3211 1.394 . S
C3212 C3213 1.516 . S
C3213 C3212 1.516 . S
C3213 C3214 1.502 . S
C3213 C3215 1.561 . S
C3213 C3216 1.526 . S
C3214 H3198 0.959 . S
C3214 H3199 0.959 . S
C3214 H3200 0.961 . S
C3214 C3213 1.502 . S
C3215 H3201 0.960 . S
C3215 H3202 0.961 . S
C3215 H3203 0.959 . S
C3215 C3213 1.561 . S
C3216 C3213 1.526 . S
C3216 C3217 1.396 . S
C3216 C3221 1.390 . S
C3217 C3211 1.465 . S
C3217 C3216 1.396 . S
C3217 C3218 1.399 . S
C3218 H3204 0.929 . S
C3218 C3217 1.399 . S
C3218 C3219 1.385 . S
C3219 H3205 0.931 . S
C3219 C3218 1.385 . S
C3219 C3220 1.389 . S
C3220 C3219 1.389 . S
C3220 C3221 1.387 . S
C3221 H3206 0.930 . S
C3221 C3216 1.390 . S
C3221 C3220 1.387 . S
H3222 C3234 0.930 . S
H3223 C3236 0.930 . S
H3224 C3237 0.930 . S
H3225 C3241 0.959 . S
H3226 C3241 0.959 . S
H3227 C3241 0.961 . S
H3228 C3242 0.960 . S
H3229 C3242 0.961 . S
H3230 C3242 0.959 . S
H3231 C3245 0.929 . S
H3232 C3246 0.931 . S
H3233 C3248 0.930 . S
C3234 H3222 0.930 . S
C3234 C3235 1.399 . S
C3234 C3239 1.399 . S
C3235 C3234 1.399 . S
C3235 C3236 1.376 . S
C3236 H3223 0.930 . S
C3236 C3235 1.376 . S
C3236 C3237 1.388 . S
C3237 H3224 0.930 . S
C3237 C3236 1.388 . S
C3237 C3238 1.390 . S
C3238 C3237 1.390 . S
C3238 C3239 1.394 . S
C3238 C3244 1.465 . S
C3239 C3234 1.399 . S
C3239 C3238 1.394 . S
C3239 C3240 1.516 . S
C3240 C3239 1.516 . S
C3240 C3241 1.502 . S
C3240 C3242 1.561 . S
C3240 C3243 1.526 . S
C3241 H3225 0.959 . S
C3241 H3226 0.959 . S
C3241 H3227 0.961 . S
C3241 C3240 1.502 . S
C3242 H3228 0.960 . S
C3242 H3229 0.961 . S
C3242 H3230 0.959 . S
C3242 C3240 1.561 . S
C3243 C3240 1.526 . S
C3243 C3244 1.396 . S
C3243 C3248 1.390 . S
C3244 C3238 1.465 . S
C3244 C3243 1.396 . S
C3244 C3245 1.399 . S
C3245 H3231 0.929 . S
C3245 C3244 1.399 . S
C3245 C3246 1.385 . S
C3246 H3232 0.931 . S
C3246 C3245 1.385 . S
C3246 C3247 1.389 . S
C3247 C3246 1.389 . S
C3247 C3248 1.387 . S
C3248 H3233 0.930 . S
C3248 C3243 1.390 . S
C3248 C3247 1.387 . S
H3249 C3261 0.930 . S
H3250 C3263 0.930 . S
H3251 C3264 0.930 . S
H3252 C3268 0.959 . S
H3253 C3268 0.959 . S
H3254 C3268 0.961 . S
H3255 C3269 0.960 . S
H3256 C3269 0.961 . S
H3257 C3269 0.959 . S
H3258 C3272 0.929 . S
H3259 C3273 0.931 . S
H3260 C3275 0.930 . S
C3261 H3249 0.930 . S
C3261 C3262 1.399 . S
C3261 C3266 1.399 . S
C3262 C3261 1.399 . S
C3262 C3263 1.376 . S
C3263 H3250 0.930 . S
C3263 C3262 1.376 . S
C3263 C3264 1.388 . S
C3264 H3251 0.930 . S
C3264 C3263 1.388 . S
C3264 C3265 1.390 . S
C3265 C3264 1.390 . S
C3265 C3266 1.394 . S
C3265 C3271 1.465 . S
C3266 C3261 1.399 . S
C3266 C3265 1.394 . S
C3266 C3267 1.516 . S
C3267 C3266 1.516 . S
C3267 C3268 1.502 . S
C3267 C3269 1.561 . S
C3267 C3270 1.526 . S
C3268 H3252 0.959 . S
C3268 H3253 0.959 . S
C3268 H3254 0.961 . S
C3268 C3267 1.502 . S
C3269 H3255 0.960 . S
C3269 H3256 0.961 . S
C3269 H3257 0.959 . S
C3269 C3267 1.561 . S
C3270 C3267 1.526 . S
C3270 C3271 1.396 . S
C3270 C3275 1.390 . S
C3271 C3265 1.465 . S
C3271 C3270 1.396 . S
C3271 C3272 1.399 . S
C3272 H3258 0.929 . S
C3272 C3271 1.399 . S
C3272 C3273 1.385 . S
C3273 H3259 0.931 . S
C3273 C3272 1.385 . S
C3273 C3274 1.389 . S
C3274 C3273 1.389 . S
C3274 C3275 1.387 . S
C3275 H3260 0.930 . S
C3275 C3270 1.390 . S
C3275 C3274 1.387 . S
H3276 C3288 0.930 . S
H3277 C3290 0.930 . S
H3278 C3291 0.930 . S
H3279 C3295 0.959 . S
H3280 C3295 0.959 . S
H3281 C3295 0.961 . S
H3282 C3296 0.960 . S
H3283 C3296 0.961 . S
H3284 C3296 0.959 . S
H3285 C3299 0.929 . S
H3286 C3300 0.931 . S
H3287 C3302 0.930 . S
C3288 H3276 0.930 . S
C3288 C3289 1.399 . S
C3288 C3293 1.399 . S
C3289 C3288 1.399 . S
C3289 C3290 1.376 . S
C3290 H3277 0.930 . S
C3290 C3289 1.376 . S
C3290 C3291 1.388 . S
C3291 H3278 0.930 . S
C3291 C3290 1.388 . S
C3291 C3292 1.390 . S
C3292 C3291 1.390 . S
C3292 C3293 1.394 . S
C3292 C3298 1.465 . S
C3293 C3288 1.399 . S
C3293 C3292 1.394 . S
C3293 C3294 1.516 . S
C3294 C3293 1.516 . S
C3294 C3295 1.502 . S
C3294 C3296 1.561 . S
C3294 C3297 1.526 . S
C3295 H3279 0.959 . S
C3295 H3280 0.959 . S
C3295 H3281 0.961 . S
C3295 C3294 1.502 . S
C3296 H3282 0.960 . S
C3296 H3283 0.961 . S
C3296 H3284 0.959 . S
C3296 C3294 1.561 . S
C3297 C3294 1.526 . S
C3297 C3298 1.396 . S
C3297 C3302 1.390 . S
C3298 C3292 1.465 . S
C3298 C3297 1.396 . S
C3298 C3299 1.399 . S
C3299 H3285 0.929 . S
C3299 C3298 1.399 . S
C3299 C3300 1.385 . S
C3300 H3286 0.931 . S
C3300 C3299 1.385 . S
C3300 C3301 1.389 . S
C3301 C3300 1.389 . S
C3301 C3302 1.387 . S
C3302 H3287 0.930 . S
C3302 C3297 1.390 . S
C3302 C3301 1.387 . S
H3303 C3315 0.930 . S
H3304 C3317 0.930 . S
H3305 C3318 0.930 . S
H3306 C3322 0.959 . S
H3307 C3322 0.959 . S
H3308 C3322 0.961 . S
H3309 C3323 0.960 . S
H3310 C3323 0.961 . S
H3311 C3323 0.959 . S
H3312 C3326 0.929 . S
H3313 C3327 0.931 . S
H3314 C3329 0.930 . S
C3315 H3303 0.930 . S
C3315 C3316 1.399 . S
C3315 C3320 1.399 . S
C3316 C3315 1.399 . S
C3316 C3317 1.376 . S
C3317 H3304 0.930 . S
C3317 C3316 1.376 . S
C3317 C3318 1.388 . S
C3318 H3305 0.930 . S
C3318 C3317 1.388 . S
C3318 C3319 1.390 . S
C3319 C3318 1.390 . S
C3319 C3320 1.394 . S
C3319 C3325 1.465 . S
C3320 C3315 1.399 . S
C3320 C3319 1.394 . S
C3320 C3321 1.516 . S
C3321 C3320 1.516 . S
C3321 C3322 1.502 . S
C3321 C3323 1.561 . S
C3321 C3324 1.526 . S
C3322 H3306 0.959 . S
C3322 H3307 0.959 . S
C3322 H3308 0.961 . S
C3322 C3321 1.502 . S
C3323 H3309 0.960 . S
C3323 H3310 0.961 . S
C3323 H3311 0.959 . S
C3323 C3321 1.561 . S
C3324 C3321 1.526 . S
C3324 C3325 1.396 . S
C3324 C3329 1.390 . S
C3325 C3319 1.465 . S
C3325 C3324 1.396 . S
C3325 C3326 1.399 . S
C3326 H3312 0.929 . S
C3326 C3325 1.399 . S
C3326 C3327 1.385 . S
C3327 H3313 0.931 . S
C3327 C3326 1.385 . S
C3327 C3328 1.389 . S
C3328 C3327 1.389 . S
C3328 C3329 1.387 . S
C3329 H3314 0.930 . S
C3329 C3324 1.390 . S
C3329 C3328 1.387 . S
H3330 C3342 0.930 . S
H3331 C3344 0.930 . S
H3332 C3345 0.930 . S
H3333 C3349 0.959 . S
H3334 C3349 0.959 . S
H3335 C3349 0.963 . S
H3336 C3350 0.960 . S
H3337 C3350 0.961 . S
H3338 C3350 0.959 . S
H3339 C3353 0.929 . S
H3340 C3354 0.931 . S
H3341 C3356 0.930 . S
C3342 H3330 0.930 . S
C3342 C3343 1.399 . S
C3342 C3347 1.399 . S
C3343 C3342 1.399 . S
C3343 C3344 1.376 . S
C3344 H3331 0.930 . S
C3344 C3343 1.376 . S
C3344 C3345 1.388 . S
C3345 H3332 0.930 . S
C3345 C3344 1.388 . S
C3345 C3346 1.390 . S
C3346 C3345 1.390 . S
C3346 C3347 1.394 . S
C3346 C3352 1.465 . S
C3347 C3342 1.399 . S
C3347 C3346 1.394 . S
C3347 C3348 1.516 . S
C3348 C3347 1.516 . S
C3348 C3349 1.502 . S
C3348 C3350 1.561 . S
C3348 C3351 1.526 . S
C3349 H3333 0.959 . S
C3349 H3334 0.959 . S
C3349 H3335 0.963 . S
C3349 C3348 1.502 . S
C3350 H3336 0.960 . S
C3350 H3337 0.961 . S
C3350 H3338 0.959 . S
C3350 C3348 1.561 . S
C3351 C3348 1.526 . S
C3351 C3352 1.396 . S
C3351 C3356 1.390 . S
C3352 C3346 1.465 . S
C3352 C3351 1.396 . S
C3352 C3353 1.399 . S
C3353 H3339 0.929 . S
C3353 C3352 1.399 . S
C3353 C3354 1.385 . S
C3354 H3340 0.931 . S
C3354 C3353 1.385 . S
C3354 C3355 1.389 . S
C3355 C3354 1.389 . S
C3355 C3356 1.387 . S
C3356 H3341 0.930 . S
C3356 C3351 1.390 . S
C3356 C3355 1.387 . S
H3357 C3369 0.930 . S
H3358 C3371 0.874 1_554 S
H3359 C3372 0.930 1_554 S
H3360 C3376 0.959 . S
H3361 C3376 0.959 . S
H3362 C3376 0.961 . S
H3363 C3377 0.960 . S
H3364 C3377 0.961 . S
H3365 C3377 0.959 . S
H3366 C3380 0.929 . S
H3367 C3381 0.931 . S
H3368 C3383 0.930 . S
C3369 H3357 0.930 . S
C3369 C3370 1.399 . S
C3369 C3374 1.399 . S
C3370 C3369 1.399 . S
C3370 C3371 1.415 . S
C3371 H3358 0.874 1_556 S
C3371 C3370 1.415 . S
C3371 C3372 1.407 . S
C3372 H3359 0.930 1_556 S
C3372 C3371 1.407 . S
C3372 C3373 1.390 . S
C3373 C3372 1.390 . S
C3373 C3374 1.394 . S
C3373 C3379 1.465 . S
C3374 C3369 1.399 . S
C3374 C3373 1.394 . S
C3374 C3375 1.516 . S
C3375 C3374 1.516 . S
C3375 C3376 1.502 . S
C3375 C3377 1.561 . S
C3375 C3378 1.526 . S
C3376 H3360 0.959 . S
C3376 H3361 0.959 . S
C3376 H3362 0.961 . S
C3376 C3375 1.502 . S
C3377 H3363 0.960 . S
C3377 H3364 0.961 . S
C3377 H3365 0.959 . S
C3377 C3375 1.561 . S
C3378 C3375 1.526 . S
C3378 C3379 1.396 . S
C3378 C3383 1.390 . S
C3379 C3373 1.465 . S
C3379 C3378 1.396 . S
C3379 C3380 1.399 . S
C3380 H3366 0.929 . S
C3380 C3379 1.399 . S
C3380 C3381 1.385 . S
C3381 H3367 0.931 . S
C3381 C3380 1.385 . S
C3381 C3382 1.389 . S
C3382 C3381 1.389 . S
C3382 C3383 1.387 . S
C3383 H3368 0.930 . S
C3383 C3378 1.390 . S
C3383 C3382 1.387 . S
H3384 C3396 0.930 . S
H3385 C3398 0.930 1_554 S
H3386 C3399 0.930 . S
H3387 C3403 0.959 . S
H3388 C3403 0.959 . S
H3389 C3403 0.961 . S
H3390 C3404 0.960 . S
H3391 C3404 0.961 . S
H3392 C3404 0.959 . S
H3393 C3407 0.929 . S
H3394 C3408 0.931 . S
H3395 C3410 0.930 . S
C3396 H3384 0.930 . S
C3396 C3397 1.399 . S
C3396 C3401 1.399 . S
C3397 C3396 1.399 . S
C3397 C3398 1.376 . S
C3398 H3385 0.930 1_556 S
C3398 C3397 1.376 . S
C3398 C3399 1.388 . S
C3399 H3386 0.930 . S
C3399 C3398 1.388 . S
C3399 C3400 1.390 . S
C3400 C3399 1.390 . S
C3400 C3401 1.394 . S
C3400 C3406 1.465 . S
C3401 C3396 1.399 . S
C3401 C3400 1.394 . S
C3401 C3402 1.516 . S
C3402 C3401 1.516 . S
C3402 C3403 1.502 . S
C3402 C3404 1.561 . S
C3402 C3405 1.526 . S
C3403 H3387 0.959 . S
C3403 H3388 0.959 . S
C3403 H3389 0.961 . S
C3403 C3402 1.502 . S
C3404 H3390 0.960 . S
C3404 H3391 0.961 . S
C3404 H3392 0.959 . S
C3404 C3402 1.561 . S
C3405 C3402 1.526 . S
C3405 C3406 1.396 . S
C3405 C3410 1.390 . S
C3406 C3400 1.465 . S
C3406 C3405 1.396 . S
C3406 C3407 1.399 . S
C3407 H3393 0.929 . S
C3407 C3406 1.399 . S
C3407 C3408 1.385 . S
C3408 H3394 0.931 . S
C3408 C3407 1.385 . S
C3408 C3409 1.389 . S
C3409 C3408 1.389 . S
C3409 C3410 1.387 . S
C3410 H3395 0.930 . S
C3410 C3405 1.390 . S
C3410 C3409 1.387 . S
H3411 C3423 0.944 . S
H3412 C3425 0.930 . S
H3413 C3426 0.930 . S
H3414 C3430 0.959 . S
H3415 C3430 0.959 . S
H3416 C3430 0.961 . S
H3417 C3431 0.960 1_554 S
H3418 C3431 0.961 . S
H3419 C3431 0.953 1_554 S
H3420 C3434 0.929 . S
H3421 C3435 0.931 . S
H3422 C3437 0.930 . S
C3423 H3411 0.944 . S
C3423 C3424 1.399 . S
C3423 C3428 1.399 . S
C3424 C3423 1.399 . S
C3424 C3425 1.376 . S
C3425 H3412 0.930 . S
C3425 C3424 1.376 . S
C3425 C3426 1.388 . S
C3426 H3413 0.930 . S
C3426 C3425 1.388 . S
C3426 C3427 1.390 . S
C3427 C3426 1.390 . S
C3427 C3428 1.394 . S
C3427 C3433 1.465 . S
C3428 C3423 1.399 . S
C3428 C3427 1.394 . S
C3428 C3429 1.516 . S
C3429 C3428 1.516 . S
C3429 C3430 1.502 . S
C3429 C3431 1.561 . S
C3429 C3432 1.526 . S
C3430 H3414 0.959 . S
C3430 H3415 0.959 . S
C3430 H3416 0.961 . S
C3430 C3429 1.502 . S
C3431 H3417 0.960 1_556 S
C3431 H3418 0.961 . S
C3431 H3419 0.953 1_556 S
C3431 C3429 1.561 . S
C3432 C3429 1.526 . S
C3432 C3433 1.396 . S
C3432 C3437 1.390 . S
C3433 C3427 1.465 . S
C3433 C3432 1.396 . S
C3433 C3434 1.399 . S
C3434 H3420 0.929 . S
C3434 C3433 1.399 . S
C3434 C3435 1.385 . S
C3435 H3421 0.931 . S
C3435 C3434 1.385 . S
C3435 C3436 1.389 . S
C3436 C3435 1.389 . S
C3436 C3437 1.387 . S
C3437 H3422 0.930 . S
C3437 C3432 1.390 . S
C3437 C3436 1.387 . S
H3438 C3450 0.930 . S
H3439 C3452 0.930 1_554 S
H3440 C3453 0.930 . S
H3441 C3457 0.959 . S
H3442 C3457 0.959 . S
H3443 C3457 0.961 . S
H3444 C3458 0.960 . S
H3445 C3458 0.961 . S
H3446 C3458 0.959 . S
H3447 C3461 0.929 . S
H3448 C3462 0.931 . S
H3449 C3464 0.930 . S
C3450 H3438 0.930 . S
C3450 C3451 1.399 . S
C3450 C3455 1.399 . S
C3451 C3450 1.399 . S
C3451 C3452 1.376 . S
C3452 H3439 0.930 1_556 S
C3452 C3451 1.376 . S
C3452 C3453 1.388 . S
C3453 H3440 0.930 . S
C3453 C3452 1.388 . S
C3453 C3454 1.390 . S
C3454 C3453 1.390 . S
C3454 C3455 1.394 . S
C3454 C3460 1.465 . S
C3455 C3450 1.399 . S
C3455 C3454 1.394 . S
C3455 C3456 1.516 . S
C3456 C3455 1.516 . S
C3456 C3457 1.502 . S
C3456 C3458 1.561 . S
C3456 C3459 1.526 . S
C3457 H3441 0.959 . S
C3457 H3442 0.959 . S
C3457 H3443 0.961 . S
C3457 C3456 1.502 . S
C3458 H3444 0.960 . S
C3458 H3445 0.961 . S
C3458 H3446 0.959 . S
C3458 C3456 1.561 . S
C3459 C3456 1.526 . S
C3459 C3460 1.396 . S
C3459 C3464 1.390 . S
C3460 C3454 1.465 . S
C3460 C3459 1.396 . S
C3460 C3461 1.399 . S
C3461 H3447 0.929 . S
C3461 C3460 1.399 . S
C3461 C3462 1.385 . S
C3462 H3448 0.931 . S
C3462 C3461 1.385 . S
C3462 C3463 1.389 . S
C3463 C3462 1.389 . S
C3463 C3464 1.387 . S
C3464 H3449 0.930 . S
C3464 C3459 1.390 . S
C3464 C3463 1.387 . S
H3465 C3477 0.930 . S
H3466 C3479 0.930 . S
H3467 C3480 0.930 . S
H3468 C3484 0.959 . S
H3469 C3484 0.959 . S
H3470 C3484 0.961 . S
H3471 C3485 0.960 . S
H3472 C3485 0.961 . S
H3473 C3485 0.959 . S
H3474 C3488 0.929 . S
H3475 C3489 0.931 . S
H3476 C3491 0.930 . S
C3477 H3465 0.930 . S
C3477 C3478 1.399 . S
C3477 C3482 1.399 . S
C3478 C3477 1.399 . S
C3478 C3479 1.376 . S
C3479 H3466 0.930 . S
C3479 C3478 1.376 . S
C3479 C3480 1.388 . S
C3480 H3467 0.930 . S
C3480 C3479 1.388 . S
C3480 C3481 1.390 . S
C3481 C3480 1.390 . S
C3481 C3482 1.394 . S
C3481 C3487 1.465 . S
C3482 C3477 1.399 . S
C3482 C3481 1.394 . S
C3482 C3483 1.516 . S
C3483 C3482 1.516 . S
C3483 C3484 1.502 . S
C3483 C3485 1.561 . S
C3483 C3486 1.526 . S
C3484 H3468 0.959 . S
C3484 H3469 0.959 . S
C3484 H3470 0.961 . S
C3484 C3483 1.502 . S
C3485 H3471 0.960 . S
C3485 H3472 0.961 . S
C3485 H3473 0.959 . S
C3485 C3483 1.561 . S
C3486 C3483 1.526 . S
C3486 C3487 1.396 . S
C3486 C3491 1.390 . S
C3487 C3481 1.465 . S
C3487 C3486 1.396 . S
C3487 C3488 1.399 . S
C3488 H3474 0.929 . S
C3488 C3487 1.399 . S
C3488 C3489 1.385 . S
C3489 H3475 0.931 . S
C3489 C3488 1.385 . S
C3489 C3490 1.389 . S
C3490 C3489 1.389 . S
C3490 C3491 1.387 . S
C3491 H3476 0.930 . S
C3491 C3486 1.390 . S
C3491 C3490 1.387 . S
H3492 C3504 0.930 1_554 S
H3493 C3506 0.930 . S
H3494 C3507 0.930 . S
H3495 C3511 0.959 . S
H3496 C3511 0.959 . S
H3497 C3511 0.961 1_554 S
H3498 C3512 0.960 1_554 S
H3499 C3512 0.961 . S
H3500 C3512 0.959 . S
H3501 C3515 0.929 . S
H3502 C3516 0.931 . S
H3503 C3518 0.930 . S
C3504 H3492 0.930 1_556 S
C3504 C3505 1.399 . S
C3504 C3509 1.399 . S
C3505 C3504 1.399 . S
C3505 C3506 1.376 . S
C3506 H3493 0.930 . S
C3506 C3505 1.376 . S
C3506 C3507 1.388 . S
C3507 H3494 0.930 . S
C3507 C3506 1.388 . S
C3507 C3508 1.390 . S
C3508 C3507 1.390 . S
C3508 C3509 1.394 . S
C3508 C3514 1.465 . S
C3509 C3504 1.399 . S
C3509 C3508 1.394 . S
C3509 C3510 1.516 . S
C3510 C3509 1.516 . S
C3510 C3511 1.502 . S
C3510 C3512 1.561 . S
C3510 C3513 1.526 . S
C3511 H3495 0.959 . S
C3511 H3496 0.959 . S
C3511 H3497 0.961 1_556 S
C3511 C3510 1.502 . S
C3512 H3498 0.960 1_556 S
C3512 H3499 0.961 . S
C3512 H3500 0.959 . S
C3512 C3510 1.561 . S
C3513 C3510 1.526 . S
C3513 C3514 1.396 . S
C3513 C3518 1.390 . S
C3514 C3508 1.465 . S
C3514 C3513 1.396 . S
C3514 C3515 1.399 . S
C3515 H3501 0.929 . S
C3515 C3514 1.399 . S
C3515 C3516 1.385 . S
C3516 H3502 0.931 . S
C3516 C3515 1.385 . S
C3516 C3517 1.389 . S
C3517 C3516 1.389 . S
C3517 C3518 1.387 . S
C3518 H3503 0.930 . S
C3518 C3513 1.390 . S
C3518 C3517 1.387 . S
H3519 C3531 0.930 . S
H3520 C3533 0.930 . S
H3521 C3534 0.930 . S
H3522 C3538 0.959 . S
H3523 C3538 0.959 . S
H3524 C3538 0.961 . S
H3525 C3539 0.960 . S
H3526 C3539 0.961 . S
H3527 C3539 0.959 . S
H3528 C3542 0.929 . S
H3529 C3543 0.931 . S
H3530 C3545 0.930 . S
C3531 H3519 0.930 . S
C3531 C3532 1.399 . S
C3531 C3536 1.399 . S
C3532 C3531 1.399 . S
C3532 C3533 1.376 . S
C3533 H3520 0.930 . S
C3533 C3532 1.376 . S
C3533 C3534 1.388 . S
C3534 H3521 0.930 . S
C3534 C3533 1.388 . S
C3534 C3535 1.390 . S
C3535 C3534 1.390 . S
C3535 C3536 1.394 . S
C3535 C3541 1.465 . S
C3536 C3531 1.399 . S
C3536 C3535 1.394 . S
C3536 C3537 1.516 . S
C3537 C3536 1.516 . S
C3537 C3538 1.502 . S
C3537 C3539 1.561 . S
C3537 C3540 1.526 . S
C3538 H3522 0.959 . S
C3538 H3523 0.959 . S
C3538 H3524 0.961 . S
C3538 C3537 1.502 . S
C3539 H3525 0.960 . S
C3539 H3526 0.961 . S
C3539 H3527 0.959 . S
C3539 C3537 1.561 . S
C3540 C3537 1.526 . S
C3540 C3541 1.396 . S
C3540 C3545 1.390 . S
C3541 C3535 1.465 . S
C3541 C3540 1.396 . S
C3541 C3542 1.399 . S
C3542 H3528 0.929 . S
C3542 C3541 1.399 . S
C3542 C3543 1.385 . S
C3543 H3529 0.931 . S
C3543 C3542 1.385 . S
C3543 C3544 1.389 . S
C3544 C3543 1.389 . S
C3544 C3545 1.387 . S
C3545 H3530 0.930 . S
C3545 C3540 1.390 . S
C3545 C3544 1.387 . S
H3546 C3558 0.930 . S
H3547 C3560 0.930 . S
H3548 C3561 0.930 . S
H3549 C3565 0.959 . S
H3550 C3565 0.959 . S
H3551 C3565 0.961 . S
H3552 C3566 0.960 . S
H3553 C3566 0.961 . S
H3554 C3566 0.959 . S
H3555 C3569 0.929 . S
H3556 C3570 0.931 . S
H3557 C3572 0.930 . S
C3558 H3546 0.930 . S
C3558 C3559 1.399 . S
C3558 C3563 1.399 . S
C3559 C3558 1.399 . S
C3559 C3560 1.376 . S
C3560 H3547 0.930 . S
C3560 C3559 1.376 . S
C3560 C3561 1.388 . S
C3561 H3548 0.930 . S
C3561 C3560 1.388 . S
C3561 C3562 1.390 . S
C3562 C3561 1.390 . S
C3562 C3563 1.394 . S
C3562 C3568 1.465 . S
C3563 C3558 1.399 . S
C3563 C3562 1.394 . S
C3563 C3564 1.516 . S
C3564 C3563 1.516 . S
C3564 C3565 1.502 . S
C3564 C3566 1.561 . S
C3564 C3567 1.526 . S
C3565 H3549 0.959 . S
C3565 H3550 0.959 . S
C3565 H3551 0.961 . S
C3565 C3564 1.502 . S
C3566 H3552 0.960 . S
C3566 H3553 0.961 . S
C3566 H3554 0.959 . S
C3566 C3564 1.561 . S
C3567 C3564 1.526 . S
C3567 C3568 1.396 . S
C3567 C3572 1.390 . S
C3568 C3562 1.465 . S
C3568 C3567 1.396 . S
C3568 C3569 1.399 . S
C3569 H3555 0.929 . S
C3569 C3568 1.399 . S
C3569 C3570 1.385 . S
C3570 H3556 0.931 . S
C3570 C3569 1.385 . S
C3570 C3571 1.389 . S
C3571 C3570 1.389 . S
C3571 C3572 1.387 . S
C3572 H3557 0.930 . S
C3572 C3567 1.390 . S
C3572 C3571 1.387 . S
H3573 C3585 0.930 . S
H3574 C3587 0.930 . S
H3575 C3588 0.930 . S
H3576 C3592 0.959 . S
H3577 C3592 0.959 . S
H3578 C3592 0.961 . S
H3579 C3593 0.960 . S
H3580 C3593 0.961 . S
H3581 C3593 0.959 . S
H3582 C3596 0.929 . S
H3583 C3597 0.931 . S
H3584 C3599 0.930 . S
C3585 H3573 0.930 . S
C3585 C3586 1.399 . S
C3585 C3590 1.399 . S
C3586 C3585 1.399 . S
C3586 C3587 1.376 . S
C3587 H3574 0.930 . S
C3587 C3586 1.376 . S
C3587 C3588 1.388 . S
C3588 H3575 0.930 . S
C3588 C3587 1.388 . S
C3588 C3589 1.390 . S
C3589 C3588 1.390 . S
C3589 C3590 1.394 . S
C3589 C3595 1.465 . S
C3590 C3585 1.399 . S
C3590 C3589 1.394 . S
C3590 C3591 1.516 . S
C3591 C3590 1.516 . S
C3591 C3592 1.502 . S
C3591 C3593 1.561 . S
C3591 C3594 1.526 . S
C3592 H3576 0.959 . S
C3592 H3577 0.959 . S
C3592 H3578 0.961 . S
C3592 C3591 1.502 . S
C3593 H3579 0.960 . S
C3593 H3580 0.961 . S
C3593 H3581 0.959 . S
C3593 C3591 1.561 . S
C3594 C3591 1.526 . S
C3594 C3595 1.396 . S
C3594 C3599 1.390 . S
C3595 C3589 1.465 . S
C3595 C3594 1.396 . S
C3595 C3596 1.399 . S
C3596 H3582 0.929 . S
C3596 C3595 1.399 . S
C3596 C3597 1.385 . S
C3597 H3583 0.931 . S
C3597 C3596 1.385 . S
C3597 C3598 1.389 . S
C3598 C3597 1.389 . S
C3598 C3599 1.387 . S
C3599 H3584 0.930 . S
C3599 C3594 1.390 . S
C3599 C3598 1.387 . S
H3600 C3612 0.930 . S
H3601 C3614 0.930 . S
H3602 C3615 0.930 . S
H3603 C3619 0.959 . S
H3604 C3619 0.959 . S
H3605 C3619 0.961 . S
H3606 C3620 0.960 . S
H3607 C3620 0.961 . S
H3608 C3620 0.959 . S
H3609 C3623 0.929 . S
H3610 C3624 0.931 . S
H3611 C3626 0.930 . S
C3612 H3600 0.930 . S
C3612 C3613 1.399 . S
C3612 C3617 1.399 . S
C3613 C3612 1.399 . S
C3613 C3614 1.376 . S
C3614 H3601 0.930 . S
C3614 C3613 1.376 . S
C3614 C3615 1.388 . S
C3615 H3602 0.930 . S
C3615 C3614 1.388 . S
C3615 C3616 1.390 . S
C3616 C3615 1.390 . S
C3616 C3617 1.394 . S
C3616 C3622 1.465 . S
C3617 C3612 1.399 . S
C3617 C3616 1.394 . S
C3617 C3618 1.516 . S
C3618 C3617 1.516 . S
C3618 C3619 1.502 . S
C3618 C3620 1.561 . S
C3618 C3621 1.526 . S
C3619 H3603 0.959 . S
C3619 H3604 0.959 . S
C3619 H3605 0.961 . S
C3619 C3618 1.502 . S
C3620 H3606 0.960 . S
C3620 H3607 0.961 . S
C3620 H3608 0.959 . S
C3620 C3618 1.561 . S
C3621 C3618 1.526 . S
C3621 C3622 1.396 . S
C3621 C3626 1.390 . S
C3622 C3616 1.465 . S
C3622 C3621 1.396 . S
C3622 C3623 1.399 . S
C3623 H3609 0.929 . S
C3623 C3622 1.399 . S
C3623 C3624 1.385 . S
C3624 H3610 0.931 . S
C3624 C3623 1.385 . S
C3624 C3625 1.389 . S
C3625 C3624 1.389 . S
C3625 C3626 1.387 . S
C3626 H3611 0.930 . S
C3626 C3621 1.390 . S
C3626 C3625 1.387 . S
H3627 C3639 0.930 . S
H3628 C3641 0.930 . S
H3629 C3642 0.930 . S
H3630 C3646 0.959 . S
H3631 C3646 0.959 . S
H3632 C3646 0.961 . S
H3633 C3647 0.960 . S
H3634 C3647 0.961 . S
H3635 C3647 0.959 . S
H3636 C3650 0.929 . S
H3637 C3651 0.931 . S
H3638 C3653 0.930 . S
C3639 H3627 0.930 . S
C3639 C3640 1.399 . S
C3639 C3644 1.399 . S
C3640 C3639 1.399 . S
C3640 C3641 1.376 . S
C3641 H3628 0.930 . S
C3641 C3640 1.376 . S
C3641 C3642 1.388 . S
C3642 H3629 0.930 . S
C3642 C3641 1.388 . S
C3642 C3643 1.390 . S
C3643 C3642 1.390 . S
C3643 C3644 1.394 . S
C3643 C3649 1.465 . S
C3644 C3639 1.399 . S
C3644 C3643 1.394 . S
C3644 C3645 1.516 . S
C3645 C3644 1.516 . S
C3645 C3646 1.502 . S
C3645 C3647 1.561 . S
C3645 C3648 1.526 . S
C3646 H3630 0.959 . S
C3646 H3631 0.959 . S
C3646 H3632 0.961 . S
C3646 C3645 1.502 . S
C3647 H3633 0.960 . S
C3647 H3634 0.961 . S
C3647 H3635 0.959 . S
C3647 C3645 1.561 . S
C3648 C3645 1.526 . S
C3648 C3649 1.396 . S
C3648 C3653 1.390 . S
C3649 C3643 1.465 . S
C3649 C3648 1.396 . S
C3649 C3650 1.399 . S
C3650 H3636 0.929 . S
C3650 C3649 1.399 . S
C3650 C3651 1.385 . S
C3651 H3637 0.931 . S
C3651 C3650 1.385 . S
C3651 C3652 1.389 . S
C3652 C3651 1.389 . S
C3652 C3653 1.387 . S
C3653 H3638 0.930 . S
C3653 C3648 1.390 . S
C3653 C3652 1.387 . S
H3654 C3666 0.930 . S
H3655 C3668 0.930 . S
H3656 C3669 0.930 . S
H3657 C3673 0.959 . S
H3658 C3673 0.959 . S
H3659 C3673 0.961 . S
H3660 C3674 0.960 . S
H3661 C3674 0.961 . S
H3662 C3674 0.959 . S
H3663 C3677 0.929 . S
H3664 C3678 0.931 . S
H3665 C3680 0.930 . S
C3666 H3654 0.930 . S
C3666 C3667 1.399 . S
C3666 C3671 1.399 . S
C3667 C3666 1.399 . S
C3667 C3668 1.376 . S
C3668 H3655 0.930 . S
C3668 C3667 1.376 . S
C3668 C3669 1.388 . S
C3669 H3656 0.930 . S
C3669 C3668 1.388 . S
C3669 C3670 1.390 . S
C3670 C3669 1.390 . S
C3670 C3671 1.394 . S
C3670 C3676 1.465 . S
C3671 C3666 1.399 . S
C3671 C3670 1.394 . S
C3671 C3672 1.516 . S
C3672 C3671 1.516 . S
C3672 C3673 1.502 . S
C3672 C3674 1.561 . S
C3672 C3675 1.526 . S
C3673 H3657 0.959 . S
C3673 H3658 0.959 . S
C3673 H3659 0.961 . S
C3673 C3672 1.502 . S
C3674 H3660 0.960 . S
C3674 H3661 0.961 . S
C3674 H3662 0.959 . S
C3674 C3672 1.561 . S
C3675 C3672 1.526 . S
C3675 C3676 1.396 . S
C3675 C3680 1.390 . S
C3676 C3670 1.465 . S
C3676 C3675 1.396 . S
C3676 C3677 1.399 . S
C3677 H3663 0.929 . S
C3677 C3676 1.399 . S
C3677 C3678 1.385 . S
C3678 H3664 0.931 . S
C3678 C3677 1.385 . S
C3678 C3679 1.389 . S
C3679 C3678 1.389 . S
C3679 C3680 1.387 . S
C3680 H3665 0.930 . S
C3680 C3675 1.390 . S
C3680 C3679 1.387 . S
H3681 C3693 0.930 1_655 S
H3682 C3695 0.930 . S
H3683 C3696 0.930 . S
H3684 C3700 0.959 . S
H3685 C3700 0.959 . S
H3686 C3700 0.961 . S
H3687 C3701 0.960 . S
H3688 C3701 0.961 . S
H3689 C3701 0.959 . S
H3690 C3704 0.929 . S
H3691 C3705 0.931 . S
H3692 C3707 0.932 . S
C3693 H3681 0.930 1_455 S
C3693 C3694 1.399 . S
C3693 C3698 1.399 . S
C3694 C3693 1.399 . S
C3694 C3695 1.376 . S
C3695 H3682 0.930 . S
C3695 C3694 1.376 . S
C3695 C3696 1.388 . S
C3696 H3683 0.930 . S
C3696 C3695 1.388 . S
C3696 C3697 1.390 . S
C3697 C3696 1.390 . S
C3697 C3698 1.394 . S
C3697 C3703 1.465 . S
C3698 C3693 1.399 . S
C3698 C3697 1.394 . S
C3698 C3699 1.516 1_455 S
C3699 C3698 1.516 1_655 S
C3699 C3700 1.502 . S
C3699 C3701 1.561 . S
C3699 C3702 1.526 1_655 S
C3700 H3684 0.959 . S
C3700 H3685 0.959 . S
C3700 H3686 0.961 . S
C3700 C3699 1.502 . S
C3701 H3687 0.960 . S
C3701 H3688 0.961 . S
C3701 H3689 0.959 . S
C3701 C3699 1.561 . S
C3702 C3699 1.526 1_455 S
C3702 C3703 1.396 . S
C3702 C3707 1.388 1_455 S
C3703 C3697 1.465 . S
C3703 C3702 1.396 . S
C3703 C3704 1.399 . S
C3704 H3690 0.929 . S
C3704 C3703 1.399 . S
C3704 C3705 1.385 . S
C3705 H3691 0.931 . S
C3705 C3704 1.385 . S
C3705 C3706 1.389 . S
C3706 C3705 1.389 . S
C3706 C3707 1.386 1_455 S
C3707 H3692 0.932 . S
C3707 C3702 1.388 1_655 S
C3707 C3706 1.386 1_655 S
H3708 C3720 0.930 . S
H3709 C3722 0.930 . S
H3710 C3723 0.930 . S
H3711 C3727 0.959 . S
H3712 C3727 0.959 . S
H3713 C3727 0.961 . S
H3714 C3728 0.960 . S
H3715 C3728 0.961 . S
H3716 C3728 0.959 . S
H3717 C3731 0.929 . S
H3718 C3732 0.931 . S
H3719 C3734 0.930 . S
C3720 H3708 0.930 . S
C3720 C3721 1.399 . S
C3720 C3725 1.399 . S
C3721 C3720 1.399 . S
C3721 C3722 1.376 . S
C3722 H3709 0.930 . S
C3722 C3721 1.376 . S
C3722 C3723 1.388 . S
C3723 H3710 0.930 . S
C3723 C3722 1.388 . S
C3723 C3724 1.390 . S
C3724 C3723 1.390 . S
C3724 C3725 1.394 . S
C3724 C3730 1.465 . S
C3725 C3720 1.399 . S
C3725 C3724 1.394 . S
C3725 C3726 1.516 . S
C3726 C3725 1.516 . S
C3726 C3727 1.502 . S
C3726 C3728 1.561 . S
C3726 C3729 1.526 . S
C3727 H3711 0.959 . S
C3727 H3712 0.959 . S
C3727 H3713 0.961 . S
C3727 C3726 1.502 . S
C3728 H3714 0.960 . S
C3728 H3715 0.961 . S
C3728 H3716 0.959 . S
C3728 C3726 1.561 . S
C3729 C3726 1.526 . S
C3729 C3730 1.396 . S
C3729 C3734 1.390 . S
C3730 C3724 1.465 . S
C3730 C3729 1.396 . S
C3730 C3731 1.399 . S
C3731 H3717 0.929 . S
C3731 C3730 1.399 . S
C3731 C3732 1.385 . S
C3732 H3718 0.931 . S
C3732 C3731 1.385 . S
C3732 C3733 1.389 . S
C3733 C3732 1.389 . S
C3733 C3734 1.387 . S
C3734 H3719 0.930 . S
C3734 C3729 1.390 . S
C3734 C3733 1.387 . S
H3735 C3747 0.986 . S
H3736 C3749 0.930 . S
H3737 C3750 0.930 . S
H3738 C3754 0.959 . S
H3739 C3754 0.959 . S
H3740 C3754 0.961 . S
H3741 C3755 0.960 . S
H3742 C3755 0.961 . S
H3743 C3755 0.959 . S
H3744 C3758 0.929 . S
H3745 C3759 0.931 . S
H3746 C3761 0.930 . S
C3747 H3735 0.986 . S
C3747 C3748 1.374 1_545 S
C3747 C3752 1.369 1_545 S
C3748 C3747 1.374 1_565 S
C3748 C3749 1.376 . S
C3749 H3736 0.930 . S
C3749 C3748 1.376 . S
C3749 C3750 1.388 . S
C3750 H3737 0.930 . S
C3750 C3749 1.388 . S
C3750 C3751 1.390 . S
C3751 C3750 1.390 . S
C3751 C3752 1.394 . S
C3751 C3757 1.465 . S
C3752 C3747 1.369 1_565 S
C3752 C3751 1.394 . S
C3752 C3753 1.516 1_565 S
C3753 C3752 1.516 1_545 S
C3753 C3754 1.502 . S
C3753 C3755 1.561 . S
C3753 C3756 1.505 1_545 S
C3754 H3738 0.959 . S
C3754 H3739 0.959 . S
C3754 H3740 0.961 . S
C3754 C3753 1.502 . S
C3755 H3741 0.960 . S
C3755 H3742 0.961 . S
C3755 H3743 0.959 . S
C3755 C3753 1.561 . S
C3756 C3753 1.505 1_565 S
C3756 C3757 1.415 . S
C3756 C3761 1.394 1_565 S
C3757 C3751 1.465 . S
C3757 C3756 1.415 . S
C3757 C3758 1.399 . S
C3758 H3744 0.929 . S
C3758 C3757 1.399 . S
C3758 C3759 1.385 . S
C3759 H3745 0.931 . S
C3759 C3758 1.385 . S
C3759 C3760 1.389 . S
C3760 C3759 1.389 . S
C3760 C3761 1.387 1_565 S
C3761 H3746 0.930 . S
C3761 C3756 1.394 1_545 S
C3761 C3760 1.387 1_545 S
H3762 C3774 0.930 1_545 S
H3763 C3776 0.930 . S
H3764 C3777 0.930 . S
H3765 C3781 0.959 . S
H3766 C3781 0.959 . S
H3767 C3781 0.961 . S
H3768 C3782 0.960 . S
H3769 C3782 0.961 . S
H3770 C3782 0.959 . S
H3771 C3785 0.929 . S
H3772 C3786 0.931 . S
H3773 C3788 0.930 . S
C3774 H3762 0.930 1_565 S
C3774 C3775 1.399 . S
C3774 C3779 1.399 . S
C3775 C3774 1.399 . S
C3775 C3776 1.376 . S
C3776 H3763 0.930 . S
C3776 C3775 1.376 . S
C3776 C3777 1.388 . S
C3777 H3764 0.930 . S
C3777 C3776 1.388 . S
C3777 C3778 1.390 . S
C3778 C3777 1.390 . S
C3778 C3779 1.394 . S
C3778 C3784 1.465 . S
C3779 C3774 1.399 . S
C3779 C3778 1.394 . S
C3779 C3780 1.516 1_565 S
C3780 C3779 1.516 1_545 S
C3780 C3781 1.502 . S
C3780 C3782 1.561 . S
C3780 C3783 1.534 . S
C3781 H3765 0.959 . S
C3781 H3766 0.959 . S
C3781 H3767 0.961 . S
C3781 C3780 1.502 . S
C3782 H3768 0.960 . S
C3782 H3769 0.961 . S
C3782 H3770 0.959 . S
C3782 C3780 1.561 . S
C3783 C3780 1.534 . S
C3783 C3784 1.343 1_545 S
C3783 C3788 1.428 . S
C3784 C3778 1.465 . S
C3784 C3783 1.343 1_565 S
C3784 C3785 1.399 . S
C3785 H3771 0.929 . S
C3785 C3784 1.399 . S
C3785 C3786 1.385 . S
C3786 H3772 0.931 . S
C3786 C3785 1.385 . S
C3786 C3787 1.389 . S
C3787 C3786 1.389 . S
C3787 C3788 1.387 1_565 S
C3788 H3773 0.930 . S
C3788 C3783 1.428 . S
C3788 C3787 1.387 1_545 S
H3789 C3801 0.930 . S
H3790 C3803 0.930 . S
H3791 C3804 0.930 . S
H3792 C3808 0.959 . S
H3793 C3808 0.959 . S
H3794 C3808 0.961 . S
H3795 C3809 0.960 . S
H3796 C3809 0.961 . S
H3797 C3809 0.959 . S
H3798 C3812 0.929 . S
H3799 C3813 0.931 . S
H3800 C3815 0.930 . S
C3801 H3789 0.930 . S
C3801 C3802 1.399 . S
C3801 C3806 1.399 . S
C3802 C3801 1.399 . S
C3802 C3803 1.376 . S
C3803 H3790 0.930 . S
C3803 C3802 1.376 . S
C3803 C3804 1.388 . S
C3804 H3791 0.930 . S
C3804 C3803 1.388 . S
C3804 C3805 1.390 . S
C3805 C3804 1.390 . S
C3805 C3806 1.394 . S
C3805 C3811 1.465 . S
C3806 C3801 1.399 . S
C3806 C3805 1.394 . S
C3806 C3807 1.516 . S
C3807 C3806 1.516 . S
C3807 C3808 1.502 1_455 S
C3807 C3809 1.561 . S
C3807 C3810 1.526 . S
C3808 H3792 0.959 . S
C3808 H3793 0.959 . S
C3808 H3794 0.961 . S
C3808 C3807 1.502 1_655 S
C3809 H3795 0.960 . S
C3809 H3796 0.961 . S
C3809 H3797 0.959 . S
C3809 C3807 1.561 . S
C3810 C3807 1.526 . S
C3810 C3811 1.396 . S
C3810 C3815 1.390 1_455 S
C3811 C3805 1.465 . S
C3811 C3810 1.396 . S
C3811 C3812 1.399 . S
C3812 H3798 0.929 . S
C3812 C3811 1.399 . S
C3812 C3813 1.385 . S
C3813 H3799 0.931 . S
C3813 C3812 1.385 . S
C3813 C3814 1.389 . S
C3814 C3813 1.389 . S
C3814 C3815 1.387 1_455 S
C3815 H3800 0.930 . S
C3815 C3810 1.390 1_655 S
C3815 C3814 1.387 1_655 S
H3816 C3828 0.930 . S
H3817 C3830 0.930 . S
H3818 C3831 0.930 . S
H3819 C3835 0.959 . S
H3820 C3835 0.959 . S
H3821 C3835 0.961 . S
H3822 C3836 0.960 . S
H3823 C3836 0.961 . S
H3824 C3836 0.959 . S
H3825 C3839 0.929 . S
H3826 C3840 0.931 . S
H3827 C3842 0.930 . S
C3828 H3816 0.930 . S
C3828 C3829 1.399 . S
C3828 C3833 1.399 . S
C3829 C3828 1.399 . S
C3829 C3830 1.376 . S
C3830 H3817 0.930 . S
C3830 C3829 1.376 . S
C3830 C3831 1.388 . S
C3831 H3818 0.930 . S
C3831 C3830 1.388 . S
C3831 C3832 1.390 . S
C3832 C3831 1.390 . S
C3832 C3833 1.394 . S
C3832 C3838 1.465 . S
C3833 C3828 1.399 . S
C3833 C3832 1.394 . S
C3833 C3834 1.516 . S
C3834 C3833 1.516 . S
C3834 C3835 1.502 . S
C3834 C3836 1.561 . S
C3834 C3837 1.526 . S
C3835 H3819 0.959 . S
C3835 H3820 0.959 . S
C3835 H3821 0.961 . S
C3835 C3834 1.502 . S
C3836 H3822 0.960 . S
C3836 H3823 0.961 . S
C3836 H3824 0.959 . S
C3836 C3834 1.561 . S
C3837 C3834 1.526 . S
C3837 C3838 1.396 . S
C3837 C3842 1.390 . S
C3838 C3832 1.465 . S
C3838 C3837 1.396 . S
C3838 C3839 1.399 . S
C3839 H3825 0.929 . S
C3839 C3838 1.399 . S
C3839 C3840 1.385 . S
C3840 H3826 0.931 . S
C3840 C3839 1.385 . S
C3840 C3841 1.389 . S
C3841 C3840 1.389 . S
C3841 C3842 1.387 . S
C3842 H3827 0.930 . S
C3842 C3837 1.390 . S
C3842 C3841 1.387 . S
H3843 C3855 0.930 . S
H3844 C3857 0.930 . S
H3845 C3858 0.930 . S
H3846 C3862 0.959 . S
H3847 C3862 0.959 . S
H3848 C3862 0.961 . S
H3849 C3863 0.960 . S
H3850 C3863 0.961 . S
H3851 C3863 0.959 . S
H3852 C3866 0.929 . S
H3853 C3867 0.931 . S
H3854 C3869 0.930 . S
C3855 H3843 0.930 . S
C3855 C3856 1.399 . S
C3855 C3860 1.399 . S
C3856 C3855 1.399 . S
C3856 C3857 1.376 . S
C3857 H3844 0.930 . S
C3857 C3856 1.376 . S
C3857 C3858 1.388 . S
C3858 H3845 0.930 . S
C3858 C3857 1.388 . S
C3858 C3859 1.390 . S
C3859 C3858 1.390 . S
C3859 C3860 1.394 . S
C3859 C3865 1.465 . S
C3860 C3855 1.399 . S
C3860 C3859 1.394 . S
C3860 C3861 1.516 . S
C3861 C3860 1.516 . S
C3861 C3862 1.502 . S
C3861 C3863 1.561 . S
C3861 C3864 1.526 . S
C3862 H3846 0.959 . S
C3862 H3847 0.959 . S
C3862 H3848 0.961 . S
C3862 C3861 1.502 . S
C3863 H3849 0.960 . S
C3863 H3850 0.961 . S
C3863 H3851 0.959 . S
C3863 C3861 1.561 . S
C3864 C3861 1.526 . S
C3864 C3865 1.396 . S
C3864 C3869 1.390 . S
C3865 C3859 1.465 . S
C3865 C3864 1.396 . S
C3865 C3866 1.399 . S
C3866 H3852 0.929 . S
C3866 C3865 1.399 . S
C3866 C3867 1.385 . S
C3867 H3853 0.931 . S
C3867 C3866 1.385 . S
C3867 C3868 1.389 . S
C3868 C3867 1.389 . S
C3868 C3869 1.387 . S
C3869 H3854 0.930 . S
C3869 C3864 1.390 . S
C3869 C3868 1.387 . S
H3870 C3882 0.930 . S
H3871 C3884 0.930 . S
H3872 C3885 0.930 . S
H3873 C3889 0.959 . S
H3874 C3889 0.959 . S
H3875 C3889 0.961 . S
H3876 C3890 0.960 . S
H3877 C3890 0.961 . S
H3878 C3890 0.959 . S
H3879 C3893 0.929 . S
H3880 C3894 0.931 . S
H3881 C3896 0.930 . S
C3882 H3870 0.930 . S
C3882 C3883 1.399 . S
C3882 C3887 1.399 . S
C3883 C3882 1.399 . S
C3883 C3884 1.376 . S
C3884 H3871 0.930 . S
C3884 C3883 1.376 . S
C3884 C3885 1.388 . S
C3885 H3872 0.930 . S
C3885 C3884 1.388 . S
C3885 C3886 1.390 . S
C3886 C3885 1.390 . S
C3886 C3887 1.394 . S
C3886 C3892 1.465 . S
C3887 C3882 1.399 . S
C3887 C3886 1.394 . S
C3887 C3888 1.516 . S
C3888 C3887 1.516 . S
C3888 C3889 1.502 . S
C3888 C3890 1.561 . S
C3888 C3891 1.526 . S
C3889 H3873 0.959 . S
C3889 H3874 0.959 . S
C3889 H3875 0.961 . S
C3889 C3888 1.502 . S
C3890 H3876 0.960 . S
C3890 H3877 0.961 . S
C3890 H3878 0.959 . S
C3890 C3888 1.561 . S
C3891 C3888 1.526 . S
C3891 C3892 1.396 . S
C3891 C3896 1.390 . S
C3892 C3886 1.465 . S
C3892 C3891 1.396 . S
C3892 C3893 1.399 . S
C3893 H3879 0.929 . S
C3893 C3892 1.399 . S
C3893 C3894 1.385 . S
C3894 H3880 0.931 . S
C3894 C3893 1.385 . S
C3894 C3895 1.389 . S
C3895 C3894 1.389 . S
C3895 C3896 1.387 . S
C3896 H3881 0.930 . S
C3896 C3891 1.390 . S
C3896 C3895 1.387 . S
H3897 C3909 0.930 . S
H3898 C3911 0.930 . S
H3899 C3912 0.930 . S
H3900 C3916 0.959 . S
H3901 C3916 0.959 . S
H3902 C3916 0.961 . S
H3903 C3917 0.960 . S
H3904 C3917 0.961 . S
H3905 C3917 0.959 . S
H3906 C3920 0.929 . S
H3907 C3921 0.931 . S
H3908 C3923 0.930 . S
C3909 H3897 0.930 . S
C3909 C3910 1.399 . S
C3909 C3914 1.399 . S
C3910 C3909 1.399 . S
C3910 C3911 1.376 . S
C3911 H3898 0.930 . S
C3911 C3910 1.376 . S
C3911 C3912 1.388 . S
C3912 H3899 0.930 . S
C3912 C3911 1.388 . S
C3912 C3913 1.390 . S
C3913 C3912 1.390 . S
C3913 C3914 1.394 . S
C3913 C3919 1.465 . S
C3914 C3909 1.399 . S
C3914 C3913 1.394 . S
C3914 C3915 1.516 . S
C3915 C3914 1.516 . S
C3915 C3916 1.502 . S
C3915 C3917 1.561 . S
C3915 C3918 1.526 . S
C3916 H3900 0.959 . S
C3916 H3901 0.959 . S
C3916 H3902 0.961 . S
C3916 C3915 1.502 . S
C3917 H3903 0.960 . S
C3917 H3904 0.961 . S
C3917 H3905 0.959 . S
C3917 C3915 1.561 . S
C3918 C3915 1.526 . S
C3918 C3919 1.396 . S
C3918 C3923 1.390 . S
C3919 C3913 1.465 . S
C3919 C3918 1.396 . S
C3919 C3920 1.399 . S
C3920 H3906 0.929 . S
C3920 C3919 1.399 . S
C3920 C3921 1.385 . S
C3921 H3907 0.931 . S
C3921 C3920 1.385 . S
C3921 C3922 1.389 . S
C3922 C3921 1.389 . S
C3922 C3923 1.387 . S
C3923 H3908 0.930 . S
C3923 C3918 1.390 . S
C3923 C3922 1.387 . S
H3924 C3936 0.930 1_565 S
H3925 C3938 0.930 . S
H3926 C3939 0.930 . S
H3927 C3943 0.959 . S
H3928 C3943 0.959 . S
H3929 C3943 0.961 . S
H3930 C3944 0.960 . S
H3931 C3944 0.961 . S
H3932 C3944 0.959 . S
H3933 C3947 0.929 . S
H3934 C3948 0.931 . S
H3935 C3950 1.005 . S
C3936 H3924 0.930 1_545 S
C3936 C3937 1.399 . S
C3936 C3941 1.399 . S
C3937 C3936 1.399 . S
C3937 C3938 1.376 . S
C3938 H3925 0.930 . S
C3938 C3937 1.376 . S
C3938 C3939 1.388 . S
C3939 H3926 0.930 . S
C3939 C3938 1.388 . S
C3939 C3940 1.390 . S
C3940 C3939 1.390 . S
C3940 C3941 1.394 . S
C3940 C3946 1.465 . S
C3941 C3936 1.399 . S
C3941 C3940 1.394 . S
C3941 C3942 1.516 1_545 S
C3942 C3941 1.516 1_565 S
C3942 C3943 1.502 . S
C3942 C3944 1.561 . S
C3942 C3945 1.526 1_565 S
C3943 H3927 0.959 . S
C3943 H3928 0.959 . S
C3943 H3929 0.961 . S
C3943 C3942 1.502 . S
C3944 H3930 0.960 . S
C3944 H3931 0.961 . S
C3944 H3932 0.959 . S
C3944 C3942 1.561 . S
C3945 C3942 1.526 1_545 S
C3945 C3946 1.396 . S
C3945 C3950 1.336 1_545 S
C3946 C3940 1.465 . S
C3946 C3945 1.396 . S
C3946 C3947 1.399 . S
C3947 H3933 0.929 . S
C3947 C3946 1.399 . S
C3947 C3948 1.385 . S
C3948 H3934 0.931 . S
C3948 C3947 1.385 . S
C3948 C3949 1.389 . S
C3949 C3948 1.389 . S
C3949 C3950 1.369 1_545 S
C3950 H3935 1.005 . S
C3950 C3945 1.336 1_565 S
C3950 C3949 1.369 1_565 S
H3951 C3963 0.930 . S
H3952 C3965 0.930 . S
H3953 C3966 0.930 . S
H3954 C3970 0.959 . S
H3955 C3970 0.959 . S
H3956 C3970 0.961 . S
H3957 C3971 0.960 . S
H3958 C3971 0.961 . S
H3959 C3971 0.959 . S
H3960 C3974 0.929 . S
H3961 C3975 0.931 . S
H3962 C3977 0.930 . S
C3963 H3951 0.930 . S
C3963 C3964 1.399 . S
C3963 C3968 1.399 . S
C3964 C3963 1.399 . S
C3964 C3965 1.376 1_655 S
C3965 H3952 0.930 . S
C3965 C3964 1.376 1_455 S
C3965 C3966 1.388 . S
C3966 H3953 0.930 . S
C3966 C3965 1.388 . S
C3966 C3967 1.390 1_455 S
C3967 C3966 1.390 1_655 S
C3967 C3968 1.394 . S
C3967 C3973 1.465 . S
C3968 C3963 1.399 . S
C3968 C3967 1.394 . S
C3968 C3969 1.516 . S
C3969 C3968 1.516 . S
C3969 C3970 1.502 . S
C3969 C3971 1.561 . S
C3969 C3972 1.526 . S
C3970 H3954 0.959 . S
C3970 H3955 0.959 . S
C3970 H3956 0.961 . S
C3970 C3969 1.502 . S
C3971 H3957 0.960 . S
C3971 H3958 0.961 . S
C3971 H3959 0.959 . S
C3971 C3969 1.561 . S
C3972 C3969 1.526 . S
C3972 C3973 1.396 . S
C3972 C3977 1.390 . S
C3973 C3967 1.465 . S
C3973 C3972 1.396 . S
C3973 C3974 1.399 1_655 S
C3974 H3960 0.929 . S
C3974 C3973 1.399 1_455 S
C3974 C3975 1.385 . S
C3975 H3961 0.931 . S
C3975 C3974 1.385 . S
C3975 C3976 1.389 1_455 S
C3976 C3975 1.389 1_655 S
C3976 C3977 1.387 . S
C3977 H3962 0.930 . S
C3977 C3972 1.390 . S
C3977 C3976 1.387 . S
H3978 C3990 0.930 . S
H3979 C3992 0.930 . S
H3980 C3993 0.930 . S
H3981 C3997 0.959 . S
H3982 C3997 0.959 . S
H3983 C3997 0.961 . S
H3984 C3998 0.960 . S
H3985 C3998 0.961 . S
H3986 C3998 0.959 . S
H3987 C4001 0.929 . S
H3988 C4002 0.931 . S
H3989 C4004 0.930 . S
C3990 H3978 0.930 . S
C3990 C3991 1.399 . S
C3990 C3995 1.399 . S
C3991 C3990 1.399 . S
C3991 C3992 1.376 . S
C3992 H3979 0.930 . S
C3992 C3991 1.376 . S
C3992 C3993 1.388 . S
C3993 H3980 0.930 . S
C3993 C3992 1.388 . S
C3993 C3994 1.390 . S
C3994 C3993 1.390 . S
C3994 C3995 1.394 . S
C3994 C4000 1.465 . S
C3995 C3990 1.399 . S
C3995 C3994 1.394 . S
C3995 C3996 1.516 . S
C3996 C3995 1.516 . S
C3996 C3997 1.502 . S
C3996 C3998 1.561 . S
C3996 C3999 1.526 . S
C3997 H3981 0.959 . S
C3997 H3982 0.959 . S
C3997 H3983 0.961 . S
C3997 C3996 1.502 . S
C3998 H3984 0.960 . S
C3998 H3985 0.961 . S
C3998 H3986 0.959 . S
C3998 C3996 1.561 . S
C3999 C3996 1.526 . S
C3999 C4000 1.396 . S
C3999 C4004 1.390 . S
C4000 C3994 1.465 . S
C4000 C3999 1.396 . S
C4000 C4001 1.399 . S
C4001 H3987 0.929 . S
C4001 C4000 1.399 . S
C4001 C4002 1.385 . S
C4002 H3988 0.931 . S
C4002 C4001 1.385 . S
C4002 C4003 1.389 . S
C4003 C4002 1.389 . S
C4003 C4004 1.387 . S
C4004 H3989 0.930 . S
C4004 C3999 1.390 . S
C4004 C4003 1.387 . S
H4005 C4017 0.930 . S
H4006 C4019 0.930 . S
H4007 C4020 0.930 . S
H4008 C4024 0.959 . S
H4009 C4024 0.959 . S
H4010 C4024 0.961 . S
H4011 C4025 0.960 . S
H4012 C4025 0.961 . S
H4013 C4025 0.959 . S
H4014 C4028 0.929 . S
H4015 C4029 0.931 . S
H4016 C4031 0.930 . S
C4017 H4005 0.930 . S
C4017 C4018 1.399 . S
C4017 C4022 1.399 . S
C4018 C4017 1.399 . S
C4018 C4019 1.376 . S
C4019 H4006 0.930 . S
C4019 C4018 1.376 . S
C4019 C4020 1.388 . S
C4020 H4007 0.930 . S
C4020 C4019 1.388 . S
C4020 C4021 1.390 . S
C4021 C4020 1.390 . S
C4021 C4022 1.394 . S
C4021 C4027 1.465 . S
C4022 C4017 1.399 . S
C4022 C4021 1.394 . S
C4022 C4023 1.516 . S
C4023 C4022 1.516 . S
C4023 C4024 1.502 . S
C4023 C4025 1.561 . S
C4023 C4026 1.526 . S
C4024 H4008 0.959 . S
C4024 H4009 0.959 . S
C4024 H4010 0.961 . S
C4024 C4023 1.502 . S
C4025 H4011 0.960 . S
C4025 H4012 0.961 . S
C4025 H4013 0.959 . S
C4025 C4023 1.561 . S
C4026 C4023 1.526 . S
C4026 C4027 1.396 . S
C4026 C4031 1.390 . S
C4027 C4021 1.465 . S
C4027 C4026 1.396 . S
C4027 C4028 1.399 . S
C4028 H4014 0.929 . S
C4028 C4027 1.399 . S
C4028 C4029 1.385 . S
C4029 H4015 0.931 . S
C4029 C4028 1.385 . S
C4029 C4030 1.389 . S
C4030 C4029 1.389 . S
C4030 C4031 1.387 . S
C4031 H4016 0.930 . S
C4031 C4026 1.390 . S
C4031 C4030 1.387 . S
H4032 C4044 0.930 . S
H4033 C4046 0.930 . S
H4034 C4047 0.930 . S
H4035 C4051 0.959 . S
H4036 C4051 0.959 . S
H4037 C4051 0.961 . S
H4038 C4052 0.960 . S
H4039 C4052 0.961 . S
H4040 C4052 0.959 . S
H4041 C4055 0.929 . S
H4042 C4056 0.931 . S
H4043 C4058 0.930 . S
C4044 H4032 0.930 . S
C4044 C4045 1.399 . S
C4044 C4049 1.399 . S
C4045 C4044 1.399 . S
C4045 C4046 1.376 . S
C4046 H4033 0.930 . S
C4046 C4045 1.376 . S
C4046 C4047 1.388 . S
C4047 H4034 0.930 . S
C4047 C4046 1.388 . S
C4047 C4048 1.390 . S
C4048 C4047 1.390 . S
C4048 C4049 1.394 . S
C4048 C4054 1.465 . S
C4049 C4044 1.399 . S
C4049 C4048 1.394 . S
C4049 C4050 1.516 . S
C4050 C4049 1.516 . S
C4050 C4051 1.502 . S
C4050 C4052 1.561 . S
C4050 C4053 1.526 . S
C4051 H4035 0.959 . S
C4051 H4036 0.959 . S
C4051 H4037 0.961 . S
C4051 C4050 1.502 . S
C4052 H4038 0.960 . S
C4052 H4039 0.961 . S
C4052 H4040 0.959 . S
C4052 C4050 1.561 . S
C4053 C4050 1.526 . S
C4053 C4054 1.396 . S
C4053 C4058 1.390 . S
C4054 C4048 1.465 . S
C4054 C4053 1.396 . S
C4054 C4055 1.399 . S
C4055 H4041 0.929 . S
C4055 C4054 1.399 . S
C4055 C4056 1.385 . S
C4056 H4042 0.931 . S
C4056 C4055 1.385 . S
C4056 C4057 1.389 . S
C4057 C4056 1.389 . S
C4057 C4058 1.387 . S
C4058 H4043 0.930 . S
C4058 C4053 1.390 . S
C4058 C4057 1.387 . S
H4059 C4071 0.930 . S
H4060 C4073 0.930 . S
H4061 C4074 0.930 . S
H4062 C4078 0.959 . S
H4063 C4078 0.959 . S
H4064 C4078 0.961 . S
H4065 C4079 0.960 . S
H4066 C4079 0.961 . S
H4067 C4079 0.959 . S
H4068 C4082 0.929 . S
H4069 C4083 0.931 . S
H4070 C4085 0.930 . S
C4071 H4059 0.930 . S
C4071 C4072 1.399 . S
C4071 C4076 1.399 . S
C4072 C4071 1.399 . S
C4072 C4073 1.376 . S
C4073 H4060 0.930 . S
C4073 C4072 1.376 . S
C4073 C4074 1.388 . S
C4074 H4061 0.930 . S
C4074 C4073 1.388 . S
C4074 C4075 1.390 . S
C4075 C4074 1.390 . S
C4075 C4076 1.394 . S
C4075 C4081 1.465 . S
C4076 C4071 1.399 . S
C4076 C4075 1.394 . S
C4076 C4077 1.516 . S
C4077 C4076 1.516 . S
C4077 C4078 1.502 . S
C4077 C4079 1.561 . S
C4077 C4080 1.526 . S
C4078 H4062 0.959 . S
C4078 H4063 0.959 . S
C4078 H4064 0.961 . S
C4078 C4077 1.502 . S
C4079 H4065 0.960 . S
C4079 H4066 0.961 . S
C4079 H4067 0.959 . S
C4079 C4077 1.561 . S
C4080 C4077 1.526 . S
C4080 C4081 1.396 . S
C4080 C4085 1.390 . S
C4081 C4075 1.465 . S
C4081 C4080 1.396 . S
C4081 C4082 1.399 . S
C4082 H4068 0.929 . S
C4082 C4081 1.399 . S
C4082 C4083 1.385 . S
C4083 H4069 0.931 . S
C4083 C4082 1.385 . S
C4083 C4084 1.389 . S
C4084 C4083 1.389 . S
C4084 C4085 1.387 . S
C4085 H4070 0.930 . S
C4085 C4080 1.390 . S
C4085 C4084 1.387 . S
H4086 C4098 0.930 . S
H4087 C4100 0.930 . S
H4088 C4101 0.930 . S
H4089 C4105 0.959 . S
H4090 C4105 0.959 . S
H4091 C4105 0.961 . S
H4092 C4106 0.960 . S
H4093 C4106 0.961 . S
H4094 C4106 0.959 . S
H4095 C4109 0.929 . S
H4096 C4110 0.931 . S
H4097 C4112 0.930 . S
C4098 H4086 0.930 . S
C4098 C4099 1.399 . S
C4098 C4103 1.399 . S
C4099 C4098 1.399 . S
C4099 C4100 1.376 . S
C4100 H4087 0.930 . S
C4100 C4099 1.376 . S
C4100 C4101 1.388 . S
C4101 H4088 0.930 . S
C4101 C4100 1.388 . S
C4101 C4102 1.390 . S
C4102 C4101 1.390 . S
C4102 C4103 1.394 . S
C4102 C4108 1.465 . S
C4103 C4098 1.399 . S
C4103 C4102 1.394 . S
C4103 C4104 1.516 . S
C4104 C4103 1.516 . S
C4104 C4105 1.502 . S
C4104 C4106 1.561 . S
C4104 C4107 1.526 . S
C4105 H4089 0.959 . S
C4105 H4090 0.959 . S
C4105 H4091 0.961 . S
C4105 C4104 1.502 . S
C4106 H4092 0.960 . S
C4106 H4093 0.961 . S
C4106 H4094 0.959 . S
C4106 C4104 1.561 . S
C4107 C4104 1.526 . S
C4107 C4108 1.396 . S
C4107 C4112 1.390 . S
C4108 C4102 1.465 . S
C4108 C4107 1.396 . S
C4108 C4109 1.399 . S
C4109 H4095 0.929 . S
C4109 C4108 1.399 . S
C4109 C4110 1.385 . S
C4110 H4096 0.931 . S
C4110 C4109 1.385 . S
C4110 C4111 1.389 . S
C4111 C4110 1.389 . S
C4111 C4112 1.387 . S
C4112 H4097 0.930 . S
C4112 C4107 1.390 . S
C4112 C4111 1.387 . S
H4113 C4125 0.930 . S
H4114 C4127 0.930 . S
H4115 C4128 0.930 . S
H4116 C4132 0.959 . S
H4117 C4132 0.959 . S
H4118 C4132 0.961 . S
H4119 C4133 0.960 . S
H4120 C4133 0.961 . S
H4121 C4133 0.959 . S
H4122 C4136 0.929 . S
H4123 C4137 0.931 . S
H4124 C4139 0.930 . S
C4125 H4113 0.930 . S
C4125 C4126 1.399 . S
C4125 C4130 1.399 . S
C4126 C4125 1.399 . S
C4126 C4127 1.376 . S
C4127 H4114 0.930 . S
C4127 C4126 1.376 . S
C4127 C4128 1.388 . S
C4128 H4115 0.930 . S
C4128 C4127 1.388 . S
C4128 C4129 1.390 . S
C4129 C4128 1.390 . S
C4129 C4130 1.394 . S
C4129 C4135 1.465 . S
C4130 C4125 1.399 . S
C4130 C4129 1.394 . S
C4130 C4131 1.516 . S
C4131 C4130 1.516 . S
C4131 C4132 1.502 . S
C4131 C4133 1.561 . S
C4131 C4134 1.526 . S
C4132 H4116 0.959 . S
C4132 H4117 0.959 . S
C4132 H4118 0.961 . S
C4132 C4131 1.502 . S
C4133 H4119 0.960 . S
C4133 H4120 0.961 . S
C4133 H4121 0.959 . S
C4133 C4131 1.561 . S
C4134 C4131 1.526 . S
C4134 C4135 1.396 . S
C4134 C4139 1.390 . S
C4135 C4129 1.465 . S
C4135 C4134 1.396 . S
C4135 C4136 1.399 . S
C4136 H4122 0.929 . S
C4136 C4135 1.399 . S
C4136 C4137 1.385 . S
C4137 H4123 0.931 . S
C4137 C4136 1.385 . S
C4137 C4138 1.389 . S
C4138 C4137 1.389 . S
C4138 C4139 1.387 . S
C4139 H4124 0.930 . S
C4139 C4134 1.390 . S
C4139 C4138 1.387 . S
H4140 C4152 0.930 . S
H4141 C4154 0.930 . S
H4142 C4155 0.930 . S
H4143 C4159 0.959 . S
H4144 C4159 0.959 . S
H4145 C4159 0.961 . S
H4146 C4160 0.960 . S
H4147 C4160 0.961 . S
H4148 C4160 0.959 . S
H4149 C4163 0.929 . S
H4150 C4164 0.931 . S
H4151 C4166 0.930 . S
C4152 H4140 0.930 . S
C4152 C4153 1.399 . S
C4152 C4157 1.399 . S
C4153 C4152 1.399 . S
C4153 C4154 1.376 . S
C4154 H4141 0.930 . S
C4154 C4153 1.376 . S
C4154 C4155 1.388 . S
C4155 H4142 0.930 . S
C4155 C4154 1.388 . S
C4155 C4156 1.390 . S
C4156 C4155 1.390 . S
C4156 C4157 1.394 . S
C4156 C4162 1.465 . S
C4157 C4152 1.399 . S
C4157 C4156 1.394 . S
C4157 C4158 1.516 . S
C4158 C4157 1.516 . S
C4158 C4159 1.502 . S
C4158 C4160 1.561 . S
C4158 C4161 1.526 . S
C4159 H4143 0.959 . S
C4159 H4144 0.959 . S
C4159 H4145 0.961 . S
C4159 C4158 1.502 . S
C4160 H4146 0.960 . S
C4160 H4147 0.961 . S
C4160 H4148 0.959 . S
C4160 C4158 1.561 . S
C4161 C4158 1.526 . S
C4161 C4162 1.396 . S
C4161 C4166 1.390 . S
C4162 C4156 1.465 . S
C4162 C4161 1.396 . S
C4162 C4163 1.399 . S
C4163 H4149 0.929 . S
C4163 C4162 1.399 . S
C4163 C4164 1.385 . S
C4164 H4150 0.931 . S
C4164 C4163 1.385 . S
C4164 C4165 1.389 . S
C4165 C4164 1.389 . S
C4165 C4166 1.387 . S
C4166 H4151 0.930 . S
C4166 C4161 1.390 . S
C4166 C4165 1.387 . S
H4167 C4179 0.930 . S
H4168 C4181 0.930 . S
H4169 C4182 0.930 . S
H4170 C4186 0.959 . S
H4171 C4186 0.959 . S
H4172 C4186 0.961 . S
H4173 C4187 0.960 . S
H4174 C4187 0.961 . S
H4175 C4187 0.959 . S
H4176 C4190 0.949 . S
H4177 C4191 0.931 . S
H4178 C4193 0.930 . S
C4179 H4167 0.930 . S
C4179 C4180 1.399 . S
C4179 C4184 1.399 . S
C4180 C4179 1.399 . S
C4180 C4181 1.376 . S
C4181 H4168 0.930 . S
C4181 C4180 1.376 . S
C4181 C4182 1.388 . S
C4182 H4169 0.930 . S
C4182 C4181 1.388 . S
C4182 C4183 1.390 . S
C4183 C4182 1.390 . S
C4183 C4184 1.394 . S
C4183 C4189 1.465 . S
C4184 C4179 1.399 . S
C4184 C4183 1.394 . S
C4184 C4185 1.516 . S
C4185 C4184 1.516 . S
C4185 C4186 1.502 . S
C4185 C4187 1.561 . S
C4185 C4188 1.526 . S
C4186 H4170 0.959 . S
C4186 H4171 0.959 . S
C4186 H4172 0.961 . S
C4186 C4185 1.502 . S
C4187 H4173 0.960 . S
C4187 H4174 0.961 . S
C4187 H4175 0.959 . S
C4187 C4185 1.561 . S
C4188 C4185 1.526 . S
C4188 C4189 1.396 . S
C4188 C4193 1.390 . S
C4189 C4183 1.465 . S
C4189 C4188 1.396 . S
C4189 C4190 1.358 1_655 S
C4190 H4176 0.949 . S
C4190 C4189 1.358 1_455 S
C4190 C4191 1.408 . S
C4191 H4177 0.931 . S
C4191 C4190 1.408 . S
C4191 C4192 1.389 1_455 S
C4192 C4191 1.389 1_655 S
C4192 C4193 1.387 . S
C4193 H4178 0.930 . S
C4193 C4188 1.390 . S
C4193 C4192 1.387 . S
H4194 C4206 0.930 . S
H4195 C4208 0.930 . S
H4196 C4209 0.930 . S
H4197 C4213 0.959 . S
H4198 C4213 0.959 . S
H4199 C4213 0.961 . S
H4200 C4214 0.960 . S
H4201 C4214 0.961 . S
H4202 C4214 0.959 . S
H4203 C4217 0.929 . S
H4204 C4218 0.931 . S
H4205 C4220 0.930 . S
C4206 H4194 0.930 . S
C4206 C4207 1.399 . S
C4206 C4211 1.399 . S
C4207 C4206 1.399 . S
C4207 C4208 1.376 . S
C4208 H4195 0.930 . S
C4208 C4207 1.376 . S
C4208 C4209 1.388 . S
C4209 H4196 0.930 . S
C4209 C4208 1.388 . S
C4209 C4210 1.390 . S
C4210 C4209 1.390 . S
C4210 C4211 1.394 . S
C4210 C4216 1.465 . S
C4211 C4206 1.399 . S
C4211 C4210 1.394 . S
C4211 C4212 1.516 . S
C4212 C4211 1.516 . S
C4212 C4213 1.502 . S
C4212 C4214 1.561 . S
C4212 C4215 1.526 . S
C4213 H4197 0.959 . S
C4213 H4198 0.959 . S
C4213 H4199 0.961 . S
C4213 C4212 1.502 . S
C4214 H4200 0.960 . S
C4214 H4201 0.961 . S
C4214 H4202 0.959 . S
C4214 C4212 1.561 . S
C4215 C4212 1.526 . S
C4215 C4216 1.396 . S
C4215 C4220 1.390 . S
C4216 C4210 1.465 . S
C4216 C4215 1.396 . S
C4216 C4217 1.399 . S
C4217 H4203 0.929 . S
C4217 C4216 1.399 . S
C4217 C4218 1.385 . S
C4218 H4204 0.931 . S
C4218 C4217 1.385 . S
C4218 C4219 1.389 . S
C4219 C4218 1.389 . S
C4219 C4220 1.387 . S
C4220 H4205 0.930 . S
C4220 C4215 1.390 . S
C4220 C4219 1.387 . S
H4221 C4233 0.930 . S
H4222 C4235 0.930 . S
H4223 C4236 0.930 . S
H4224 C4240 0.905 1_545 S
H4225 C4240 0.963 . S
H4226 C4240 0.981 . S
H4227 C4241 0.960 . S
H4228 C4241 0.961 . S
H4229 C4241 0.959 . S
H4230 C4244 0.929 . S
H4231 C4245 0.931 . S
H4232 C4247 0.930 . S
C4233 H4221 0.930 . S
C4233 C4234 1.399 . S
C4233 C4238 1.399 . S
C4234 C4233 1.399 . S
C4234 C4235 1.376 . S
C4235 H4222 0.930 . S
C4235 C4234 1.376 . S
C4235 C4236 1.388 . S
C4236 H4223 0.930 . S
C4236 C4235 1.388 . S
C4236 C4237 1.390 . S
C4237 C4236 1.390 . S
C4237 C4238 1.394 . S
C4237 C4243 1.465 . S
C4238 C4233 1.399 . S
C4238 C4237 1.394 . S
C4238 C4239 1.516 1_545 S
C4239 C4238 1.516 1_565 S
C4239 C4240 1.534 . S
C4239 C4241 1.561 . S
C4239 C4242 1.527 . S
C4240 H4224 0.905 1_565 S
C4240 H4225 0.963 . S
C4240 H4226 0.981 . S
C4240 C4239 1.534 . S
C4241 H4227 0.960 . S
C4241 H4228 0.961 . S
C4241 H4229 0.959 . S
C4241 C4239 1.561 . S
C4242 C4239 1.527 . S
C4242 C4243 1.396 1_565 S
C4242 C4247 1.389 . S
C4243 C4237 1.465 . S
C4243 C4242 1.396 1_545 S
C4243 C4244 1.399 . S
C4244 H4230 0.929 . S
C4244 C4243 1.399 . S
C4244 C4245 1.385 . S
C4245 H4231 0.931 . S
C4245 C4244 1.385 . S
C4245 C4246 1.389 . S
C4246 C4245 1.389 . S
C4246 C4247 1.387 1_545 S
C4247 H4232 0.930 . S
C4247 C4242 1.389 . S
C4247 C4246 1.387 1_565 S
C2317 C13 1.261 . S
C2329 C1307 1.107 1_655 S
C2344 C27 1.394 . S
C2356 C1447 0.960 . S
C2383 C1535 1.184 . S
C2371 C36 1.223 . S
C2398 C41 1.328 . S
C2410 C1675 1.156 1_565 S
C2425 C8 1.402 . S
C2437 C1789 1.100 . S
C2452 C22 1.563 . S
C2464 C1877 1.222 . S
C2479 C55 1.243 . S
C2491 C1763 1.069 . S
C2518 C1903 1.113 . S
C2506 C69 1.288 . S
C2545 C1649 1.014 . S
C2533 C78 1.300 . S
C2560 C83 1.395 . S
C2572 C1561 0.912 . S
C2599 C1333 1.014 . S
C2587 C50 1.398 . S
C2614 C64 1.471 . S
C2626 C1421 1.265 . S
C2641 C97 1.607 . S
C2653 C1991 1.323 . S
C2668 C111 1.444 . S
C2680 C2131 1.138 . S
C2707 C2219 1.152 . S
C2695 C120 1.642 . S
C2722 C125 1.629 . S
C2734 C307 1.028 . S
C2749 C92 1.840 . S
C2761 C421 1.264 . S
C2776 C106 1.629 . S
C2788 C509 1.213 . S
C2803 C139 1.390 . S
C2815 C395 1.431 . S
C2830 C153 1.454 . S
C2842 C535 1.282 . S
C2869 C281 1.504 . S
C2857 C162 1.521 . S
C2896 C2245 1.527 . S
C2884 C167 1.608 . S
C2923 C2017 1.468 . S
C2911 C134 1.745 . S
C2950 C2105 1.515 . S
C2938 C148 1.545 . S
C2965 C181 1.531 . S
C2977 C623 1.147 . S
C2992 C195 1.490 . S
C3004 C763 0.963 . S
C3019 C204 1.633 . S
C3031 C851 1.345 . S
C3046 C209 1.687 . S
C3058 C991 1.285 . S
C3085 C1105 1.255 . S
C3073 C176 1.870 . S
C3112 C1193 1.280 . S
C3100 C190 1.657 . S
C3139 C1079 1.466 . S
C3127 C223 1.540 . S
C3166 C1219 1.326 . S
C3154 C237 1.377 . S
C3181 C246 1.482 . S
C3193 C965 1.441 . S
C3220 C877 1.297 . S
C3208 C251 1.503 . S
C3235 C218 1.726 . S
C3247 C649 1.609 . S
C3274 C737 1.405 . S
C3262 C232 1.557 . S
C3301 C263 0.880 . S
C3289 C11 1.739 . S
C3316 C25 1.512 . S
C3328 C377 0.805 . S
C3355 C481 1.084 . S
C3343 C35 1.669 . S
C3382 C595 1.094 . S
C3370 C39 1.558 . S
C3409 C719 0.959 . S
C3397 C7 1.781 . S
C3436 C823 1.071 . S
C3424 C21 1.622 1_556 S
C3451 C53 1.802 . S
C3463 C833 1.365 . S
C3478 C67 1.548 . S
C3490 C605 1.308 . S
C3505 C77 1.740 1_556 S
C3517 C709 1.586 . S
C3532 C81 1.725 . S
C3544 C367 1.626 . S
C3571 C491 1.531 . S
C3559 C49 1.888 . S
C3586 C63 1.722 . S
C3598 C253 1.443 . S
C3625 C947 0.945 . S
C3613 C95 1.589 . S
C3640 C109 1.572 . S
C3652 C1061 0.866 . S
C3667 C119 1.674 . S
C3679 C1165 1.144 . S
C3706 C1279 0.831 . S
C3694 C123 1.124 . S
C3721 C91 1.647 . S
C3733 C1403 0.944 . S
C3748 C105 1.167 . S
C3760 C1507 0.870 . S
C3775 C137 1.350 . S
C3787 C1517 0.985 1_565 S
C3802 C151 1.114 . S
C3814 C1289 0.737 1_455 S
C3841 C1393 1.442 . S
C3829 C161 1.624 . S
C3856 C165 1.670 . S
C3868 C1051 1.503 . S
C3883 C133 1.888 . S
C3895 C1175 1.431 . S
C3922 C937 1.595 . S
C3910 C147 1.843 . S
C3949 C1631 0.753 . S
C3937 C179 1.365 . S
C3964 C193 1.058 . S
C3976 C1745 0.776 . S
C3991 C203 1.516 . S
C4003 C1849 1.033 . S
C4030 C1963 1.191 . S
C4018 C207 1.512 . S
C4057 C2087 1.040 . S
C4045 C175 1.785 . S
C4072 C189 1.722 . S
C4084 C2191 1.210 . S
C4099 C221 1.733 . S
C4111 C2201 1.284 . S
C4126 C235 1.719 . S
C4138 C1973 1.291 . S
C4165 C2077 1.571 . S
C4153 C245 1.755 . S
C4192 C1735 0.850 1_655 S
C4180 C249 1.104 . S
C4219 C1859 1.374 . S
C4207 C217 1.745 . S
C4234 C231 1.223 . S
C4246 C1621 1.114 1_545 S
