# Generated by pormake.
# Topology wbl, (4,4)-cn, num edge types: 1
# Building blocks:
#     Node 0, Type 0, BuildingBlock: MUDLON_clean_linker_0, # of connection points: 4
#     Node 1, Type 0, BuildingBlock: MUDLON_clean_linker_0, # of connection points: 4
#     Node 2, Type 0, BuildingBlock: MUDLON_clean_linker_0, # of connection points: 4
#     Node 3, Type 0, BuildingBlock: MUDLON_clean_linker_0, # of connection points: 4
#     Node 4, Type 0, BuildingBlock: MUDLON_clean_linker_0, # of connection points: 4
#     Node 5, Type 0, BuildingBlock: MUDLON_clean_linker_0, # of connection points: 4
#     Node 6, Type 0, BuildingBlock: MUDLON_clean_linker_0, # of connection points: 4
#     Node 7, Type 0, BuildingBlock: MUDLON_clean_linker_0, # of connection points: 4
#     Node 8, Type 1, BuildingBlock: NAHDIM_clean_sbu_0, # of connection points: 4
#     Node 9, Type 1, BuildingBlock: NAHDIM_clean_sbu_0, # of connection points: 4
#     Node 10, Type 1, BuildingBlock: NAHDIM_clean_sbu_0, # of connection points: 4
#     Node 11, Type 1, BuildingBlock: NAHDIM_clean_sbu_0, # of connection points: 4
#     Node 12, Type 1, BuildingBlock: NAHDIM_clean_sbu_0, # of connection points: 4
#     Node 13, Type 1, BuildingBlock: NAHDIM_clean_sbu_0, # of connection points: 4
#     Node 14, Type 1, BuildingBlock: NAHDIM_clean_sbu_0, # of connection points: 4
#     Node 15, Type 1, BuildingBlock: NAHDIM_clean_sbu_0, # of connection points: 4
#     Edge 16, Type (0, 1), BuildingBlock: KIFKEQ_clean_linker_1, # of connection points: 2
#     Edge 17, Type (0, 1), BuildingBlock: KIFKEQ_clean_linker_1, # of connection points: 2
#     Edge 18, Type (0, 1), BuildingBlock: KIFKEQ_clean_linker_1, # of connection points: 2
#     Edge 19, Type (0, 1), BuildingBlock: KIFKEQ_clean_linker_1, # of connection points: 2
#     Edge 20, Type (0, 1), BuildingBlock: KIFKEQ_clean_linker_1, # of connection points: 2
#     Edge 21, Type (0, 1), BuildingBlock: KIFKEQ_clean_linker_1, # of connection points: 2
#     Edge 22, Type (0, 1), BuildingBlock: KIFKEQ_clean_linker_1, # of connection points: 2
#     Edge 23, Type (0, 1), BuildingBlock: KIFKEQ_clean_linker_1, # of connection points: 2
#     Edge 24, Type (0, 1), BuildingBlock: KIFKEQ_clean_linker_1, # of connection points: 2
#     Edge 25, Type (0, 1), BuildingBlock: KIFKEQ_clean_linker_1, # of connection points: 2
#     Edge 26, Type (0, 1), BuildingBlock: KIFKEQ_clean_linker_1, # of connection points: 2
#     Edge 27, Type (0, 1), BuildingBlock: KIFKEQ_clean_linker_1, # of connection points: 2
#     Edge 28, Type (0, 1), BuildingBlock: KIFKEQ_clean_linker_1, # of connection points: 2
#     Edge 29, Type (0, 1), BuildingBlock: KIFKEQ_clean_linker_1, # of connection points: 2
#     Edge 30, Type (0, 1), BuildingBlock: KIFKEQ_clean_linker_1, # of connection points: 2
#     Edge 31, Type (0, 1), BuildingBlock: KIFKEQ_clean_linker_1, # of connection points: 2
#     Edge 32, Type (0, 1), BuildingBlock: KIFKEQ_clean_linker_1, # of connection points: 2
#     Edge 33, Type (0, 1), BuildingBlock: KIFKEQ_clean_linker_1, # of connection points: 2
#     Edge 34, Type (0, 1), BuildingBlock: KIFKEQ_clean_linker_1, # of connection points: 2
#     Edge 35, Type (0, 1), BuildingBlock: KIFKEQ_clean_linker_1, # of connection points: 2
#     Edge 36, Type (0, 1), BuildingBlock: KIFKEQ_clean_linker_1, # of connection points: 2
#     Edge 37, Type (0, 1), BuildingBlock: KIFKEQ_clean_linker_1, # of connection points: 2
#     Edge 38, Type (0, 1), BuildingBlock: KIFKEQ_clean_linker_1, # of connection points: 2
#     Edge 39, Type (0, 1), BuildingBlock: KIFKEQ_clean_linker_1, # of connection points: 2
#     Edge 40, Type (0, 1), BuildingBlock: KIFKEQ_clean_linker_1, # of connection points: 2
#     Edge 41, Type (0, 1), BuildingBlock: KIFKEQ_clean_linker_1, # of connection points: 2
#     Edge 42, Type (0, 1), BuildingBlock: KIFKEQ_clean_linker_1, # of connection points: 2
#     Edge 43, Type (0, 1), BuildingBlock: KIFKEQ_clean_linker_1, # of connection points: 2
#     Edge 44, Type (0, 1), BuildingBlock: KIFKEQ_clean_linker_1, # of connection points: 2
#     Edge 45, Type (0, 1), BuildingBlock: KIFKEQ_clean_linker_1, # of connection points: 2
#     Edge 46, Type (0, 1), BuildingBlock: KIFKEQ_clean_linker_1, # of connection points: 2
#     Edge 47, Type (0, 1), BuildingBlock: KIFKEQ_clean_linker_1, # of connection points: 2
# Relax obj value: 0.108
# Max RMSD: 0.121
# Mean RMSD: 0.110
data_MOF--net-wbl--node1-NAHDIM_clean_sbu_0--node2-MUDLON_clean_linker_0--edge1-KIFKEQ_clean_linker_1
_symmetry_space_group_name_H-M    P1
_symmetry_Int_Tables_number       1
_symmetry_cell_setting            triclinic
loop_
_symmetry_equiv_pos_as_xyz
'x, y, z'
_cell_length_a     55.548103
_cell_length_b     53.936902
_cell_length_c     75.470519
_cell_angle_alpha  89.974783
_cell_angle_beta   89.968054
_cell_angle_gamma 89.998766
loop_
_atom_site_label
_atom_site_type_symbol
_atom_site_fract_x
_atom_site_fract_y
_atom_site_fract_z
_atom_type_partial_charge
H0 H 0.10042 0.94521 0.32597 0.0
N1 N 0.06003 0.93578 0.30621 0.0
H2 H 0.10806 0.93176 0.35617 0.0
H3 H 0.03012 0.9114 0.32763 0.0
H4 H 0.03724 0.89858 0.35834 0.0
H5 H 0.07253 0.89102 0.29494 0.0
H6 H 0.11031 0.8789 0.28086 0.0
H7 H 0.09342 0.96796 0.29105 0.0
H8 H 0.13044 0.95605 0.27658 0.0
H9 H 0.07543 0.98102 0.31842 0.0
H10 H 0.01802 0.94423 0.29045 0.0
H11 H 0.05353 0.01988 0.31707 0.0
H12 H 0.99507 0.98297 0.28994 0.0
H13 H 0.96478 0.13512 0.32825 0.0
H14 H 0.94875 0.14366 0.35795 0.0
H15 H 0.92562 0.06743 0.36225 0.0
H16 H 0.94171 0.05903 0.33277 0.0
H17 H 0.92543 0.06092 0.30386 0.0
H18 H 0.88822 0.07163 0.28852 0.0
H19 H 0.91832 0.14285 0.27449 0.0
H20 H 0.95539 0.13215 0.29032 0.0
H21 H 0.99674 0.07523 0.33318 0.0
H22 H 0.02073 0.03809 0.33081 0.0
H23 H 0.99113 0.0241 0.27884 0.0
N24 N 0.96311 0.09249 0.31041 0.0
H25 H 0.96609 0.06074 0.28151 0.0
C26 C 0.06468 0.92905 0.32443 0.0
C27 C 0.08649 0.93507 0.3329 0.0
C28 C 0.09076 0.92752 0.3503 0.0
C29 C 0.07327 0.91405 0.35975 0.0
C30 C 0.05126 0.90857 0.35138 0.0
C31 C 0.04707 0.91599 0.33389 0.0
C32 C 0.07994 0.93029 0.29442 0.0
C33 C 0.08487 0.90534 0.2906 0.0
C34 C 0.1065 0.89845 0.28251 0.0
C35 C 0.12365 0.91649 0.27787 0.0
C36 C 0.11791 0.94163 0.28042 0.0
C37 C 0.09642 0.94849 0.28868 0.0
C38 C 0.04842 0.95961 0.30437 0.0
C39 C 0.05811 0.98129 0.31189 0.0
C40 C 0.04537 0.00356 0.31127 0.0
C41 C 0.02231 0.00462 0.30359 0.0
C42 C 0.01287 0.98301 0.29576 0.0
C43 C 0.02588 0.9608 0.29611 0.0
C44 C 0.9546 0.09652 0.32832 0.0
C45 C 0.9564 0.12027 0.3357 0.0
C46 C 0.94712 0.12512 0.35256 0.0
C47 C 0.93598 0.10618 0.3624 0.0
C48 C 0.93435 0.08231 0.35506 0.0
C49 C 0.94341 0.07754 0.33816 0.0
C50 C 0.94322 0.09586 0.29829 0.0
C51 C 0.92422 0.07864 0.29722 0.0
C52 C 0.90297 0.08475 0.28833 0.0
C53 C 0.90022 0.10821 0.28044 0.0
C54 C 0.91977 0.12478 0.28065 0.0
C55 C 0.94102 0.11862 0.28951 0.0
C56 C 0.97781 0.07024 0.30825 0.0
C57 C 0.99476 0.06396 0.3214 0.0
C58 C 0.00899 0.0428 0.31987 0.0
C59 C 0.00767 0.02773 0.30473 0.0
C60 C 0.99202 0.03477 0.29097 0.0
C61 C 0.97749 0.05587 0.29259 0.0
H62 H 0.94879 0.39914 0.57999 0.0
N63 N 0.93815 0.43993 0.55967 0.0
H64 H 0.93684 0.39197 0.61042 0.0
H65 H 0.91607 0.47162 0.58134 0.0
H66 H 0.90469 0.46494 0.61238 0.0
H67 H 0.89374 0.43395 0.54759 0.0
H68 H 0.87614 0.39585 0.53568 0.0
H69 H 0.96393 0.39966 0.547 0.0
H70 H 0.9465 0.36189 0.53521 0.0
H71 H 0.9826 0.42206 0.56943 0.0
H72 H 0.94661 0.48205 0.54255 0.0
H73 H 0.02096 0.44275 0.56559 0.0
H74 H 0.98504 0.50386 0.53957 0.0
H75 H 0.13506 0.53039 0.57229 0.0
H76 H 0.14566 0.5453 0.60199 0.0
H77 H 0.07327 0.57316 0.60864 0.0
H78 H 0.06275 0.55775 0.57932 0.0
H79 H 0.06043 0.57238 0.55025 0.0
H80 H 0.06878 0.61157 0.53543 0.0
H81 H 0.13883 0.58428 0.51996 0.0
H82 H 0.13047 0.54512 0.53526 0.0
H83 H 0.0771 0.50038 0.57931 0.0
H84 H 0.04057 0.47631 0.57837 0.0
H85 H 0.02432 0.5061 0.5266 0.0
N86 N 0.09284 0.53471 0.55573 0.0
H87 H 0.06056 0.53121 0.5278 0.0
C88 C 0.93311 0.43596 0.57824 0.0
C89 C 0.93933 0.41374 0.58689 0.0
C90 C 0.93262 0.40971 0.60446 0.0
C91 C 0.91976 0.42786 0.61392 0.0
C92 C 0.91426 0.4504 0.60543 0.0
C93 C 0.92087 0.45435 0.58775 0.0
C94 C 0.93006 0.41984 0.54846 0.0
C95 C 0.90547 0.41857 0.54433 0.0
C96 C 0.89545 0.39678 0.53756 0.0
C97 C 0.90991 0.37577 0.53482 0.0
C98 C 0.93487 0.37769 0.5375 0.0
C99 C 0.9449 0.3995 0.5442 0.0
C100 C 0.96157 0.45043 0.55612 0.0
C101 C 0.9829 0.43957 0.5625 0.0
C102 C 0.00494 0.45168 0.56049 0.0
C103 C 0.00617 0.47521 0.55248 0.0
C104 C 0.9849 0.48566 0.54562 0.0
C105 C 0.96288 0.47331 0.54739 0.0
C106 C 0.09822 0.5429 0.57356 0.0
C107 C 0.12151 0.53957 0.58025 0.0
C108 C 0.12754 0.54823 0.59714 0.0
C109 C 0.11028 0.5604 0.60766 0.0
C110 C 0.08688 0.56359 0.60097 0.0
C111 C 0.08091 0.55501 0.58411 0.0
C112 C 0.09492 0.55572 0.54389 0.0
C113 C 0.0774 0.57459 0.5434 0.0
C114 C 0.08216 0.59699 0.5348 0.0
C115 C 0.10457 0.60113 0.52662 0.0
C116 C 0.12152 0.58177 0.52631 0.0
C117 C 0.11669 0.55932 0.53486 0.0
C118 C 0.07104 0.51965 0.55439 0.0
C119 C 0.06552 0.50244 0.56787 0.0
C120 C 0.04468 0.48811 0.56716 0.0
C121 C 0.02913 0.48953 0.55254 0.0
C122 C 0.03543 0.50519 0.53837 0.0
C123 C 0.05627 0.51978 0.53915 0.0
H124 H 0.64102 0.48179 0.83199 0.0
N125 N 0.60177 0.48267 0.812 0.0
H126 H 0.64631 0.4614 0.86077 0.0
H127 H 0.56649 0.45949 0.83143 0.0
H128 H 0.57158 0.4393 0.8601 0.0
H129 H 0.5869 0.43504 0.80571 0.0
H130 H 0.60726 0.40549 0.7861 0.0
H131 H 0.6327 0.49365 0.78642 0.0
H132 H 0.65242 0.46444 0.76627 0.0
H133 H 0.60568 0.53142 0.81352 0.0
H134 H 0.55518 0.47288 0.80261 0.0
H135 H 0.57372 0.56216 0.81044 0.0
H136 H 0.52251 0.50327 0.80071 0.0
H137 H 0.46085 0.64956 0.82666 0.0
H138 H 0.44418 0.65654 0.85632 0.0
H139 H 0.43883 0.57735 0.86407 0.0
H140 H 0.45577 0.57058 0.83456 0.0
H141 H 0.43373 0.57 0.80705 0.0
H142 H 0.39521 0.57424 0.79181 0.0
H143 H 0.41714 0.64594 0.77206 0.0
H144 H 0.45571 0.6416 0.78753 0.0
H145 H 0.50898 0.60585 0.8285 0.0
H146 H 0.54126 0.57571 0.82729 0.0
H147 H 0.50428 0.5369 0.78525 0.0
N148 N 0.46785 0.60641 0.81041 0.0
H149 H 0.47147 0.56641 0.78696 0.0
C150 C 0.60342 0.47244 0.82961 0.0
C151 C 0.62575 0.47281 0.8382 0.0
C152 C 0.62875 0.46103 0.85453 0.0
C153 C 0.60935 0.44872 0.86263 0.0
C154 C 0.58678 0.44888 0.85425 0.0
C155 C 0.58385 0.46048 0.83782 0.0
C156 C 0.60877 0.46646 0.79777 0.0
C157 C 0.60082 0.44172 0.7969 0.0
C158 C 0.61239 0.42486 0.78567 0.0
C159 C 0.63147 0.43271 0.7748 0.0
C160 C 0.63765 0.45795 0.77443 0.0
C161 C 0.62647 0.47463 0.78592 0.0
C162 C 0.58268 0.50001 0.80865 0.0
C163 C 0.58758 0.52529 0.81049 0.0
C164 C 0.56921 0.54275 0.8089 0.0
C165 C 0.54534 0.53522 0.80574 0.0
C166 C 0.54064 0.5098 0.80312 0.0
C167 C 0.55922 0.49234 0.8044 0.0
C168 C 0.45958 0.60968 0.82842 0.0
C169 C 0.45627 0.63378 0.83487 0.0
C170 C 0.44662 0.63768 0.85172 0.0
C171 C 0.4401 0.61748 0.86248 0.0
C172 C 0.44387 0.59327 0.85615 0.0
C173 C 0.45343 0.58938 0.83925 0.0
C174 C 0.44767 0.60555 0.79837 0.0
C175 C 0.43054 0.58633 0.79907 0.0
C176 C 0.40853 0.58874 0.79029 0.0
C177 C 0.4031 0.61053 0.78087 0.0
C178 C 0.42077 0.62905 0.77936 0.0
C179 C 0.44286 0.62652 0.78802 0.0
C180 C 0.487 0.58822 0.80848 0.0
C181 C 0.5076 0.59072 0.81912 0.0
C182 C 0.52629 0.57357 0.81824 0.0
C183 C 0.52542 0.55371 0.8062 0.0
C184 C 0.50531 0.55161 0.79498 0.0
C185 C 0.48635 0.56869 0.79602 0.0
H186 H 0.45376 0.90213 0.08054 0.0
N187 N 0.4399 0.94309 0.06148 0.0
H188 H 0.44346 0.89282 0.11106 0.0
H189 H 0.41561 0.97162 0.08404 0.0
H190 H 0.40522 0.96236 0.11498 0.0
H191 H 0.39552 0.93911 0.04902 0.0
H192 H 0.37699 0.90214 0.03612 0.0
H193 H 0.46478 0.90295 0.04782 0.0
H194 H 0.44641 0.86619 0.03509 0.0
H195 H 0.48525 0.92506 0.06889 0.0
H196 H 0.44673 0.98711 0.04666 0.0
H197 H 0.52285 0.94732 0.06581 0.0
H198 H 0.48448 0.01028 0.04438 0.0
H199 H 0.63302 0.04091 0.07872 0.0
H200 H 0.64187 0.05644 0.10854 0.0
H201 H 0.56742 0.07817 0.11455 0.0
H202 H 0.55887 0.06295 0.0848 0.0
H203 H 0.55938 0.08114 0.05657 0.0
H204 H 0.56754 0.11989 0.04109 0.0
H205 H 0.63674 0.09147 0.02457 0.0
H206 H 0.62859 0.05279 0.04056 0.0
H207 H 0.57693 0.00581 0.08308 0.0
H208 H 0.54129 0.98029 0.08086 0.0
H209 H 0.52355 0.01486 0.03091 0.0
N210 N 0.59123 0.04286 0.06142 0.0
H211 H 0.55884 0.04107 0.03333 0.0
C212 C 0.43548 0.93775 0.07994 0.0
C213 C 0.4435 0.91565 0.08793 0.0
C214 C 0.43764 0.91033 0.10548 0.0
C215 C 0.42357 0.92688 0.11546 0.0
C216 C 0.41593 0.94916 0.10758 0.0
C217 C 0.42193 0.95454 0.08999 0.0
C218 C 0.43144 0.92393 0.04966 0.0
C219 C 0.40686 0.92357 0.04541 0.0
C220 C 0.39631 0.90243 0.03807 0.0
C221 C 0.41022 0.88115 0.03491 0.0
C222 C 0.43521 0.88222 0.0377 0.0
C223 C 0.44577 0.90342 0.04494 0.0
C224 C 0.46295 0.95435 0.05785 0.0
C225 C 0.48479 0.94333 0.06306 0.0
C226 C 0.50643 0.9563 0.06151 0.0
C227 C 0.50674 0.98078 0.05508 0.0
C228 C 0.48501 0.99139 0.04922 0.0
C229 C 0.46339 0.97824 0.05057 0.0
C230 C 0.59541 0.05076 0.07949 0.0
C231 C 0.61864 0.04887 0.08657 0.0
C232 C 0.6236 0.05767 0.1036 0.0
C233 C 0.60535 0.06862 0.11389 0.0
C234 C 0.58196 0.0702 0.10687 0.0
C235 C 0.57703 0.06145 0.08985 0.0
C236 C 0.59349 0.06401 0.04975 0.0
C237 C 0.57616 0.08307 0.04943 0.0
C238 C 0.58078 0.10519 0.04043 0.0
C239 C 0.60287 0.10883 0.03169 0.0
C240 C 0.61968 0.08933 0.03136 0.0
C241 C 0.61499 0.06717 0.04032 0.0
C242 C 0.57004 0.02714 0.05921 0.0
C243 C 0.56522 0.00845 0.07178 0.0
C244 C 0.54492 0.9934 0.07032 0.0
C245 C 0.52922 0.99578 0.05584 0.0
C246 C 0.53482 0.01311 0.04255 0.0
C247 C 0.55511 0.02836 0.04406 0.0
H248 H 0.09487 0.49947 0.91372 0.0
N249 N 0.07861 0.5218 0.94278 0.0
H250 H 0.108 0.51917 0.88608 0.0
H251 H 0.07227 0.57067 0.93367 0.0
H252 H 0.08431 0.59016 0.90611 0.0
H253 H 0.06961 0.56128 0.96471 0.0
H254 H 0.10026 0.5837 0.98166 0.0
H255 H 0.1216 0.5049 0.95167 0.0
H256 H 0.15208 0.5266 0.96911 0.0
H257 H 0.06482 0.47875 0.95629 0.0
H258 H 0.0373 0.54994 0.94006 0.0
H259 H 0.02378 0.46441 0.96189 0.0
H260 H 0.99652 0.53543 0.94434 0.0
H261 H 0.91084 0.41529 0.94061 0.0
H262 H 0.90156 0.39559 0.91256 0.0
H263 H 0.8881 0.46744 0.88918 0.0
H264 H 0.89674 0.48713 0.91777 0.0
H265 H 0.86501 0.4785 0.95799 0.0
H266 H 0.83857 0.45718 0.97886 0.0
H267 H 0.89633 0.4068 0.99208 0.0
H268 H 0.92264 0.42825 0.97107 0.0
H269 H 0.94964 0.43694 0.94375 0.0
H270 H 0.99078 0.45161 0.9454 0.0
H271 H 0.96527 0.52334 0.96292 0.0
N272 N 0.90879 0.46512 0.94808 0.0
H273 H 0.92377 0.50877 0.95999 0.0
C274 C 0.08248 0.53339 0.92577 0.0
C275 C 0.09214 0.5192 0.91195 0.0
C276 C 0.09958 0.5305 0.89617 0.0
C277 C 0.09743 0.55631 0.89395 0.0
C278 C 0.08665 0.57032 0.9075 0.0
C279 C 0.07943 0.55906 0.92327 0.0
C280 C 0.09358 0.53164 0.95666 0.0
C281 C 0.08741 0.55332 0.96597 0.0
C282 C 0.10492 0.56607 0.97571 0.0
C283 C 0.12872 0.55719 0.97635 0.0
C284 C 0.13404 0.5342 0.96851 0.0
C285 C 0.11664 0.52164 0.95871 0.0
C286 C 0.05427 0.51514 0.94739 0.0
C287 C 0.04992 0.49127 0.95395 0.0
C288 C 0.02642 0.48307 0.95698 0.0
C289 C 0.00665 0.49856 0.95328 0.0
C290 C 0.01116 0.52296 0.94751 0.0
C291 C 0.0347 0.53126 0.94479 0.0
C292 C 0.90428 0.45285 0.93139 0.0
C293 C 0.90584 0.42692 0.92956 0.0
C294 C 0.90074 0.41562 0.91337 0.0
C295 C 0.8941 0.42991 0.89858 0.0
C296 C 0.89286 0.45585 0.90036 0.0
C297 C 0.89791 0.46716 0.91662 0.0
C298 C 0.89564 0.45496 0.96286 0.0
C299 C 0.87212 0.46329 0.96576 0.0
C300 C 0.85709 0.45111 0.97775 0.0
C301 C 0.86533 0.43018 0.98707 0.0
C302 C 0.88942 0.42271 0.98496 0.0
C303 C 0.90452 0.43506 0.97301 0.0
C304 C 0.93348 0.47202 0.95133 0.0
C305 C 0.95277 0.45581 0.94795 0.0
C306 C 0.97649 0.46421 0.94914 0.0
C307 C 0.98153 0.48884 0.9541 0.0
C308 C 0.96216 0.50448 0.95859 0.0
C309 C 0.93842 0.49615 0.9571 0.0
H310 H 0.55345 0.40062 0.17932 0.0
N311 N 0.56554 0.44213 0.1984 0.0
H312 H 0.56553 0.39104 0.14919 0.0
H313 H 0.58962 0.47125 0.176 0.0
H314 H 0.60222 0.46147 0.14558 0.0
H315 H 0.60974 0.43593 0.21078 0.0
H316 H 0.62653 0.39817 0.22373 0.0
H317 H 0.53882 0.40339 0.21232 0.0
H318 H 0.5554 0.36594 0.22534 0.0
H319 H 0.52083 0.42483 0.18857 0.0
H320 H 0.55761 0.48505 0.2146 0.0
H321 H 0.48294 0.44681 0.19121 0.0
H322 H 0.51953 0.50782 0.21672 0.0
H323 H 0.37095 0.53307 0.18155 0.0
H324 H 0.36051 0.54899 0.15212 0.0
H325 H 0.43133 0.58177 0.14782 0.0
H326 H 0.44184 0.56484 0.17668 0.0
H327 H 0.44439 0.57663 0.20628 0.0
H328 H 0.43529 0.6155 0.22132 0.0
H329 H 0.36412 0.58836 0.23382 0.0
H330 H 0.37329 0.54947 0.21844 0.0
H331 H 0.42945 0.50631 0.17519 0.0
H332 H 0.46569 0.48177 0.17695 0.0
H333 H 0.47914 0.5097 0.22962 0.0
N334 N 0.4121 0.53932 0.19918 0.0
H335 H 0.44298 0.53493 0.22782 0.0
C336 C 0.57075 0.43675 0.18003 0.0
C337 C 0.56381 0.41424 0.1721 0.0
C338 C 0.5709 0.40865 0.15484 0.0
C339 C 0.58506 0.42537 0.14509 0.0
C340 C 0.59122 0.44827 0.15275 0.0
C341 C 0.58413 0.45385 0.17009 0.0
C342 C 0.57312 0.42264 0.21032 0.0
C343 C 0.59767 0.42104 0.2145 0.0
C344 C 0.60723 0.39942 0.22189 0.0
C345 C 0.59233 0.3789 0.22525 0.0
C346 C 0.56739 0.38129 0.22255 0.0
C347 C 0.55785 0.40293 0.21518 0.0
C348 C 0.54228 0.4533 0.20144 0.0
C349 C 0.52083 0.44268 0.19504 0.0
C350 C 0.49906 0.45544 0.19641 0.0
C351 C 0.4982 0.47926 0.20396 0.0
C352 C 0.51948 0.48944 0.21097 0.0
C353 C 0.54127 0.47652 0.20971 0.0
C354 C 0.40702 0.54782 0.18137 0.0
C355 C 0.38422 0.54347 0.17411 0.0
C356 C 0.37827 0.55277 0.15738 0.0
C357 C 0.39504 0.56679 0.14761 0.0
C358 C 0.41805 0.57081 0.15483 0.0
C359 C 0.42401 0.56139 0.17148 0.0
C360 C 0.40942 0.56003 0.2112 0.0
C361 C 0.427 0.57877 0.21255 0.0
C362 C 0.42182 0.60099 0.22126 0.0
C363 C 0.39891 0.60507 0.22862 0.0
C364 C 0.38184 0.58584 0.2281 0.0
C365 C 0.38711 0.56356 0.21949 0.0
C366 C 0.43403 0.52451 0.20069 0.0
C367 C 0.44035 0.50789 0.18702 0.0
C368 C 0.461 0.49333 0.18816 0.0
C369 C 0.47561 0.49405 0.20332 0.0
C370 C 0.46868 0.50931 0.21752 0.0
C371 C 0.44794 0.524 0.21637 0.0
H372 H 0.39771 0.94341 0.43729 0.0
N373 N 0.43855 0.92868 0.4547 0.0
H374 H 0.3844 0.92969 0.40819 0.0
H375 H 0.4627 0.90035 0.43185 0.0
H376 H 0.44912 0.88591 0.40269 0.0
H377 H 0.42373 0.88415 0.46466 0.0
H378 H 0.38598 0.87377 0.47905 0.0
H379 H 0.40989 0.9619 0.47349 0.0
H380 H 0.3731 0.95165 0.48898 0.0
H381 H 0.42489 0.97538 0.444 0.0
H382 H 0.48223 0.93395 0.46861 0.0
H383 H 0.44958 0.01252 0.44435 0.0
H384 H 0.50748 0.97127 0.46869 0.0
H385 H 0.53285 0.12507 0.43443 0.0
H386 H 0.54696 0.13875 0.40528 0.0
H387 H 0.58065 0.06734 0.39727 0.0
H388 H 0.5655 0.05358 0.42593 0.0
H389 H 0.57789 0.0484 0.45535 0.0
H390 H 0.61643 0.05721 0.46951 0.0
H391 H 0.59038 0.12959 0.48479 0.0
H392 H 0.5519 0.12075 0.47025 0.0
H393 H 0.50919 0.06356 0.42617 0.0
H394 H 0.48435 0.027 0.42859 0.0
H395 H 0.51211 0.01331 0.48109 0.0
N396 N 0.54118 0.08176 0.45026 0.0
H397 H 0.53758 0.04979 0.47867 0.0
C398 C 0.43133 0.92287 0.43678 0.0
C399 C 0.40932 0.93128 0.42972 0.0
C400 C 0.40158 0.92319 0.41313 0.0
C401 C 0.41557 0.90649 0.40322 0.0
C402 C 0.438 0.89891 0.40995 0.0
C403 C 0.44576 0.90705 0.4266 0.0
C404 C 0.4197 0.92372 0.46751 0.0
C405 C 0.41301 0.89895 0.47031 0.0
C406 C 0.39132 0.89305 0.47866 0.0
C407 C 0.37595 0.91188 0.48489 0.0
C408 C 0.38392 0.93664 0.48377 0.0
C409 C 0.40534 0.94256 0.47498 0.0
C410 C 0.45175 0.95167 0.45626 0.0
C411 C 0.44277 0.97421 0.44954 0.0
C412 C 0.45702 0.99551 0.44967 0.0
C413 C 0.48064 0.99482 0.45634 0.0
C414 C 0.48931 0.9725 0.46356 0.0
C415 C 0.47497 0.95116 0.4635 0.0
C416 C 0.54819 0.08847 0.43241 0.0
C417 C 0.543 0.11235 0.42623 0.0
C418 C 0.55129 0.12016 0.40965 0.0
C419 C 0.56514 0.10422 0.39896 0.0
C420 C 0.56985 0.08004 0.40504 0.0
C421 C 0.56143 0.07221 0.42155 0.0
C422 C 0.56195 0.08403 0.4617 0.0
C423 C 0.58027 0.06597 0.46203 0.0
C424 C 0.60228 0.07099 0.47023 0.0
C425 C 0.60653 0.09421 0.47812 0.0
C426 C 0.58774 0.11166 0.47862 0.0
C427 C 0.5657 0.10657 0.4705 0.0
C428 C 0.5271 0.05897 0.45163 0.0
C429 C 0.51075 0.05249 0.43808 0.0
C430 C 0.49603 0.03166 0.43959 0.0
C431 C 0.49644 0.01701 0.45495 0.0
C432 C 0.51186 0.02383 0.46887 0.0
C433 C 0.52666 0.04475 0.46737 0.0
H434 H 0.99061 0.88612 0.66022 0.0
N435 N 0.01233 0.89746 0.69054 0.0
H436 H 0.0084 0.88553 0.63049 0.0
H437 H 0.05731 0.9138 0.68158 0.0
H438 H 0.07545 0.91257 0.65218 0.0
H439 H 0.00514 0.84922 0.69345 0.0
H440 H 0.03057 0.81911 0.70881 0.0
H441 H 0.0487 0.90895 0.71352 0.0
H442 H 0.07472 0.87882 0.72878 0.0
H443 H 0.9722 0.89708 0.70959 0.0
H444 H 0.02624 0.94636 0.68861 0.0
H445 H 0.94783 0.93264 0.71843 0.0
H446 H 0.0013 0.98184 0.69597 0.0
H447 H 0.86425 0.04151 0.68847 0.0
H448 H 0.85576 0.0548 0.65814 0.0
H449 H 0.93125 0.0717 0.65074 0.0
H450 H 0.93959 0.05688 0.68065 0.0
H451 H 0.93752 0.08164 0.70618 0.0
H452 H 0.93078 0.12053 0.72159 0.0
H453 H 0.86665 0.09019 0.74563 0.0
H454 H 0.8736 0.05094 0.73004 0.0
H455 H 0.89567 0.99469 0.70287 0.0
H456 H 0.92316 0.95967 0.70321 0.0
H457 H 0.98218 0.0093 0.71512 0.0
N458 N 0.90625 0.04219 0.70518 0.0
H459 H 0.95465 0.04431 0.71372 0.0
C460 C 0.02261 0.89978 0.67308 0.0
C461 C 0.00901 0.89227 0.65843 0.0
C462 C 0.01926 0.8918 0.64152 0.0
C463 C 0.04343 0.89879 0.63898 0.0
C464 C 0.05675 0.90728 0.65362 0.0
C465 C 0.04645 0.90779 0.6705 0.0
C466 C 0.02514 0.88114 0.70228 0.0
C467 C 0.01998 0.85579 0.70149 0.0
C468 C 0.03464 0.83867 0.71011 0.0
C469 C 0.05489 0.84661 0.71972 0.0
C470 C 0.05924 0.8722 0.72147 0.0
C471 C 0.04446 0.8894 0.71276 0.0
C472 C 0.0007 0.91891 0.69805 0.0
C473 C 0.97887 0.91561 0.70702 0.0
C474 C 0.96485 0.936 0.71185 0.0
C475 C 0.97214 0.96024 0.70744 0.0
C476 C 0.99497 0.96357 0.69963 0.0
C477 C 0.00925 0.94313 0.69519 0.0
C478 C 0.90239 0.04849 0.68686 0.0
C479 C 0.87893 0.0478 0.68015 0.0
C480 C 0.87414 0.05565 0.66289 0.0
C481 C 0.89276 0.06473 0.65201 0.0
C482 C 0.91646 0.06468 0.65863 0.0
C483 C 0.92126 0.05647 0.67584 0.0
C484 C 0.90608 0.06314 0.71704 0.0
C485 C 0.9225 0.08285 0.71523 0.0
C486 C 0.9186 0.10523 0.72407 0.0
C487 C 0.89808 0.10849 0.73472 0.0
C488 C 0.88251 0.08828 0.73738 0.0
C489 C 0.88655 0.06582 0.72863 0.0
C490 C 0.92288 0.02213 0.70827 0.0
C491 C 0.91449 0.99791 0.70584 0.0
C492 C 0.93031 0.97786 0.70618 0.0
C493 C 0.95507 0.98148 0.70923 0.0
C494 C 0.96334 0.00576 0.71245 0.0
C495 C 0.94747 0.02592 0.71181 0.0
C496 C 0.27379 0.65496 0.01307 0.0
O497 O 0.28279 0.65294 0.0291 0.0
O498 O 0.33433 0.64944 0.02507 0.0
Zn499 Zn 0.32283 0.66815 0.00349 0.0
O500 O 0.33939 0.65552 0.98151 0.0
C501 C 0.32736 0.71657 0.01993 0.0
O502 O 0.31816 0.70528 0.03379 0.0
O503 O 0.28732 0.66213 0.00047 0.0
C504 C 0.36198 0.65198 0.98058 0.0
O505 O 0.37535 0.65599 0.99463 0.0
C506 C 0.35277 0.65536 0.03408 0.0
O507 O 0.36576 0.67456 0.02924 0.0
O508 O 0.33027 0.70452 0.00563 0.0
C509 C 0.29344 0.86 0.25376 0.0
O510 O 0.31057 0.87634 0.25092 0.0
O511 O 0.34799 0.84504 0.2324 0.0
Zn512 Zn 0.33449 0.82923 0.25445 0.0
O513 O 0.35078 0.84304 0.27608 0.0
C514 C 0.36136 0.78446 0.25278 0.0
O515 O 0.37908 0.80061 0.25273 0.0
O516 O 0.29918 0.83736 0.25579 0.0
C517 C 0.34663 0.83327 0.29108 0.0
O518 O 0.33184 0.8143 0.29204 0.0
C519 C 0.36717 0.85788 0.23232 0.0
O520 O 0.37929 0.86077 0.24712 0.0
O521 O 0.33982 0.79234 0.25348 0.0
C522 C 0.20276 0.85842 0.49627 0.0
O523 O 0.18673 0.87093 0.48713 0.0
O524 O 0.14371 0.84116 0.5248 0.0
Zn525 Zn 0.16114 0.82868 0.50323 0.0
O526 O 0.14633 0.84301 0.48104 0.0
C527 C 0.13771 0.7822 0.50755 0.0
O528 O 0.1206 0.79732 0.51278 0.0
O529 O 0.19617 0.83908 0.50462 0.0
C530 C 0.12387 0.8451 0.47818 0.0
O531 O 0.1085 0.83741 0.49021 0.0
C532 C 0.13639 0.86326 0.52699 0.0
O533 O 0.14059 0.87991 0.51466 0.0
O534 O 0.15779 0.79127 0.50266 0.0
C535 C 0.22634 0.63449 0.7569 0.0
O536 O 0.21203 0.61509 0.75716 0.0
O537 O 0.17223 0.63904 0.73092 0.0
Zn538 Zn 0.18109 0.65769 0.75294 0.0
O539 O 0.16518 0.64109 0.77383 0.0
C540 C 0.15637 0.70413 0.76135 0.0
O541 O 0.15071 0.69287 0.77622 0.0
O542 O 0.21714 0.65596 0.75533 0.0
C543 C 0.17484 0.64146 0.78909 0.0
O544 O 0.19532 0.65324 0.79127 0.0
C545 C 0.15073 0.63904 0.72521 0.0
O546 O 0.13414 0.65124 0.73404 0.0
O547 O 0.16953 0.69298 0.75009 0.0
C548 C 0.78098 0.13369 0.50146 0.0
O549 O 0.79685 0.11567 0.50047 0.0
O550 O 0.83598 0.14165 0.52666 0.0
Zn551 Zn 0.82428 0.16059 0.50522 0.0
O552 O 0.83953 0.14806 0.48267 0.0
C553 C 0.83087 0.20864 0.52189 0.0
O554 O 0.82243 0.19727 0.53598 0.0
O555 O 0.78842 0.15579 0.50353 0.0
C556 C 0.86141 0.1413 0.48167 0.0
O557 O 0.87474 0.14135 0.49602 0.0
C558 C 0.85525 0.14657 0.53504 0.0
O559 O 0.86913 0.16472 0.52952 0.0
O560 O 0.83263 0.19678 0.50741 0.0
C561 C 0.78196 0.35024 0.73802 0.0
O562 O 0.79539 0.35993 0.72549 0.0
O563 O 0.845 0.34633 0.73062 0.0
Zn564 Zn 0.82781 0.33183 0.75175 0.0
O565 O 0.83969 0.34929 0.77367 0.0
C566 C 0.85708 0.28833 0.75106 0.0
O567 O 0.87377 0.30507 0.74801 0.0
O568 O 0.79177 0.33714 0.75004 0.0
C569 C 0.84376 0.33804 0.78816 0.0
O570 O 0.84024 0.31399 0.78905 0.0
C571 C 0.84866 0.36952 0.72923 0.0
O572 O 0.84072 0.38441 0.74171 0.0
O573 O 0.83543 0.29534 0.75319 0.0
C574 C 0.71499 0.3436 0.01951 0.0
O575 O 0.7027 0.34647 0.03424 0.0
O576 O 0.65111 0.34646 0.02396 0.0
Zn577 Zn 0.66839 0.33145 0.00316 0.0
O578 O 0.65849 0.34874 0.98073 0.0
C579 C 0.63975 0.28747 0.00591 0.0
O580 O 0.62333 0.30388 0.01033 0.0
O581 O 0.70417 0.33669 0.00551 0.0
C582 C 0.63702 0.35414 0.97639 0.0
O583 O 0.61918 0.34774 0.98687 0.0
C584 C 0.65151 0.36955 0.02729 0.0
O585 O 0.66353 0.38448 0.01674 0.0
O586 O 0.6608 0.29492 0.00196 0.0
C587 C 0.72916 0.15275 0.2495 0.0
O588 O 0.7199 0.14875 0.23374 0.0
O589 O 0.6691 0.14612 0.23679 0.0
Zn590 Zn 0.67982 0.165 0.25841 0.0
O591 O 0.66194 0.15201 0.27981 0.0
C592 C 0.67051 0.21152 0.24027 0.0
O593 O 0.67531 0.19841 0.22604 0.0
O594 O 0.71552 0.16011 0.26198 0.0
C595 C 0.6441 0.16378 0.28621 0.0
O596 O 0.63718 0.18453 0.27865 0.0
C597 C 0.64728 0.14584 0.23175 0.0
O598 O 0.63108 0.15791 0.24106 0.0
O599 O 0.67217 0.20133 0.2554 0.0
H600 H 0.13655 0.87835 0.25554 0.0
H601 H 0.16647 0.93742 0.28735 0.0
H602 H 0.17726 0.86457 0.24806 0.0
H603 H 0.20683 0.92391 0.27969 0.0
H604 H 0.27595 0.90706 0.25078 0.0
H605 H 0.23456 0.92098 0.25447 0.0
H606 H 0.21201 0.84545 0.26379 0.0
H607 H 0.25348 0.83139 0.25986 0.0
C608 C 0.15175 0.88846 0.26087 0.0
C609 C 0.14819 0.90908 0.27198 0.0
C610 C 0.17505 0.88055 0.25659 0.0
C611 C 0.19524 0.89319 0.26325 0.0
C612 C 0.19165 0.91404 0.27408 0.0
C613 C 0.16846 0.92184 0.27842 0.0
C614 C 0.26218 0.89336 0.25351 0.0
C615 C 0.26805 0.86812 0.25516 0.0
C616 C 0.23846 0.90137 0.25568 0.0
C617 C 0.22005 0.88434 0.25953 0.0
C618 C 0.22578 0.859 0.26068 0.0
C619 C 0.24956 0.85097 0.25855 0.0
H620 H 0.07652 0.63331 0.50753 0.0
H621 H 0.14693 0.62602 0.53123 0.0
H622 H 0.08528 0.6765 0.50031 0.0
H623 H 0.15564 0.66911 0.5241 0.0
H624 H 0.16955 0.74485 0.49947 0.0
H625 H 0.16237 0.70014 0.50099 0.0
H626 H 0.08927 0.71383 0.51796 0.0
H627 H 0.09624 0.75817 0.51616 0.0
C628 C 0.09393 0.64087 0.51107 0.0
C629 C 0.11095 0.62627 0.52005 0.0
C630 C 0.09895 0.66561 0.50696 0.0
C631 C 0.12108 0.67634 0.51179 0.0
C632 C 0.13853 0.66139 0.52001 0.0
C633 C 0.13352 0.63664 0.5241 0.0
C634 C 0.15191 0.73827 0.5034 0.0
C635 C 0.13351 0.75508 0.50776 0.0
C636 C 0.14782 0.71267 0.50432 0.0
C637 C 0.12523 0.7034 0.50955 0.0
C638 C 0.10676 0.72028 0.51359 0.0
C639 C 0.11085 0.74577 0.51271 0.0
H640 H 0.37618 0.65225 0.78503 0.0
H641 H 0.37375 0.57866 0.76264 0.0
H642 H 0.33399 0.65828 0.77771 0.0
H643 H 0.3315 0.58484 0.75483 0.0
H644 H 0.25063 0.59238 0.76583 0.0
H645 H 0.29378 0.58714 0.76964 0.0
H646 H 0.30494 0.66381 0.75503 0.0
H647 H 0.26158 0.66925 0.75187 0.0
C648 C 0.36675 0.63758 0.77813 0.0
C649 C 0.37826 0.61498 0.7744 0.0
C650 C 0.34252 0.64103 0.77391 0.0
C651 C 0.32923 0.62201 0.76574 0.0
C652 C 0.34103 0.59971 0.76143 0.0
C653 C 0.36526 0.59619 0.7658 0.0
C654 C 0.26229 0.60811 0.76338 0.0
C655 C 0.25267 0.63127 0.75865 0.0
C656 C 0.2871 0.60505 0.76542 0.0
C657 C 0.30293 0.62503 0.76262 0.0
C658 C 0.29329 0.64811 0.75756 0.0
C659 C 0.26843 0.65122 0.75568 0.0
H660 H 0.41856 0.83686 0.05085 0.0
H661 H 0.37454 0.87147 0.01068 0.0
H662 H 0.39696 0.79799 0.04668 0.0
H663 H 0.35273 0.83232 0.00656 0.0
H664 H 0.34208 0.74724 0.99316 0.0
H665 H 0.36153 0.78772 0.99593 0.0
H666 H 0.35405 0.78382 0.0528 0.0
H667 H 0.33455 0.74346 0.05011 0.0
C668 C 0.4045 0.83605 0.04093 0.0
C669 C 0.39834 0.85716 0.031 0.0
C670 C 0.39193 0.81388 0.03872 0.0
C671 C 0.37305 0.81225 0.02643 0.0
C672 C 0.36725 0.83312 0.01612 0.0
C673 C 0.37966 0.85547 0.0185 0.0
C674 C 0.34436 0.75514 0.00625 0.0
C675 C 0.33691 0.74209 0.02143 0.0
C676 C 0.35541 0.77834 0.0078 0.0
C677 C 0.35947 0.78875 0.02458 0.0
C678 C 0.35139 0.77604 0.03972 0.0
C679 C 0.34009 0.75301 0.03816 0.0
H680 H 0.13012 0.58552 0.00673 0.0
H681 H 0.17191 0.56532 0.96065 0.0
H682 H 0.16291 0.61284 0.01653 0.0
H683 H 0.20448 0.59183 0.97053 0.0
H684 H 0.24958 0.65754 0.98169 0.0
H685 H 0.21241 0.63639 0.97379 0.0
H686 H 0.20573 0.60911 0.02737 0.0
H687 H 0.24284 0.63064 0.03543 0.0
C688 C 0.14629 0.58686 0.99876 0.0
C689 C 0.14854 0.57308 0.98303 0.0
C690 C 0.16504 0.60238 0.00438 0.0
C691 C 0.18616 0.60463 0.99421 0.0
C692 C 0.1883 0.59083 0.97852 0.0
C693 C 0.16975 0.5753 0.973 0.0
C694 C 0.24003 0.64737 0.99188 0.0
C695 C 0.24938 0.64545 0.00912 0.0
C696 C 0.21877 0.63516 0.98733 0.0
C697 C 0.2064 0.62072 -0.00011 0.0
C698 C 0.21486 0.62012 0.01742 0.0
C699 C 0.23617 0.63239 0.022 0.0
H700 H 0.3576 0.63058 0.22183 0.0
H701 H 0.42518 0.63629 0.24977 0.0
H702 H 0.34815 0.67323 0.22955 0.0
H703 H 0.41556 0.67902 0.25784 0.0
H704 H 0.40479 0.76225 0.24695 0.0
H705 H 0.41308 0.71829 0.24325 0.0
H706 H 0.338 0.70172 0.25256 0.0
H707 H 0.32958 0.74588 0.2557 0.0
C708 C 0.37019 0.64078 0.23 0.0
C709 C 0.39216 0.63007 0.23518 0.0
C710 C 0.36477 0.66528 0.23445 0.0
C711 C 0.38113 0.67966 0.24426 0.0
C712 C 0.40274 0.66864 0.24999 0.0
C713 C 0.40823 0.64414 0.24544 0.0
C714 C 0.39005 0.74924 0.2483 0.0
C715 C 0.36649 0.75759 0.25149 0.0
C716 C 0.39485 0.72396 0.24631 0.0
C717 C 0.37621 0.7064 0.2476 0.0
C718 C 0.35272 0.71474 0.25122 0.0
C719 C 0.3479 0.74006 0.2531 0.0
H720 H 0.35905 0.8699 0.50191 0.0
H721 H 0.33524 0.94009 0.48036 0.0
H722 H 0.31738 0.85735 0.50571 0.0
H723 H 0.29394 0.92854 0.48585 0.0
H724 H 0.22447 0.88944 0.47289 0.0
H725 H 0.26602 0.90297 0.47241 0.0
H726 H 0.28005 0.8607 0.52003 0.0
H727 H 0.2384 0.84606 0.51987 0.0
C728 C 0.34504 0.88285 0.49822 0.0
C729 C 0.35079 0.90589 0.4905 0.0
C730 C 0.32102 0.87576 0.50067 0.0
C731 C 0.30211 0.8917 0.49577 0.0
C732 C 0.30792 0.9154 0.48928 0.0
C733 C 0.33184 0.92228 0.48648 0.0
C734 C 0.23639 0.88306 0.48329 0.0
C735 C 0.22815 0.86669 0.49642 0.0
C736 C 0.26027 0.89102 0.48314 0.0
C737 C 0.27652 0.88325 0.49632 0.0
C738 C 0.2682 0.86691 0.50955 0.0
C739 C 0.2443 0.85858 0.50952 0.0
H740 H 0.07262 0.80658 0.7023 0.0
H741 H 0.07648 0.84478 0.75249 0.0
H742 H 0.09964 0.77476 0.71339 0.0
H743 H 0.1042 0.8129 0.76361 0.0
H744 H 0.1241 0.73115 0.78088 0.0
H745 H 0.10198 0.76801 0.77154 0.0
H746 H 0.14156 0.76874 0.72228 0.0
H747 H 0.16339 0.73174 0.73143 0.0
C748 C 0.07929 0.80816 0.71574 0.0
C749 C 0.07221 0.82801 0.72661 0.0
C750 C 0.09504 0.79009 0.72203 0.0
C751 C 0.10416 0.79135 0.73936 0.0
C752 C 0.09736 0.81138 0.75021 0.0
C753 C 0.08164 0.82967 0.74384 0.0
C754 C 0.12832 0.73936 0.76816 0.0
C755 C 0.14528 0.72828 0.7568 0.0
C756 C 0.11572 0.76057 0.76286 0.0
C757 C 0.11982 0.7711 0.74609 0.0
C758 C 0.13769 0.76078 0.73515 0.0
C759 C 0.15027 0.73963 0.74044 0.0
H760 H 0.64631 0.43137 0.74022 0.0
H761 H 0.65369 0.39381 0.79037 0.0
H762 H 0.67891 0.40627 0.72797 0.0
H763 H 0.68709 0.36991 0.77877 0.0
H764 H 0.74607 0.32597 0.75578 0.0
H765 H 0.70519 0.34056 0.7612 0.0
H766 H 0.72018 0.40635 0.73023 0.0
H767 H 0.7602 0.39086 0.72394 0.0
C768 C 0.65472 0.41743 0.7485 0.0
C769 C 0.64756 0.41448 0.76621 0.0
C770 C 0.67359 0.40322 0.7416 0.0
C771 C 0.68614 0.38628 0.75242 0.0
C772 C 0.67785 0.3824 0.76985 0.0
C773 C 0.65866 0.39619 0.77659 0.0
C774 C 0.74036 0.34331 0.74988 0.0
C775 C 0.75638 0.35739 0.73959 0.0
C776 C 0.71697 0.35181 0.75308 0.0
C777 C 0.70927 0.37491 0.74643 0.0
C778 C 0.72508 0.38833 0.73541 0.0
C779 C 0.74823 0.37955 0.7319 0.0
H780 H 0.57416 0.14031 0.0125 0.0
H781 H 0.64552 0.13356 0.0347 0.0
H782 H 0.58316 0.18283 0.00352 0.0
H783 H 0.65445 0.17593 0.02586 0.0
H784 H 0.66958 0.24844 0.99828 0.0
H785 H 0.66089 0.2043 0.00144 0.0
H786 H 0.58875 0.22185 0.01881 0.0
H787 H 0.59721 0.2658 0.01528 0.0
C788 C 0.5918 0.14786 0.01536 0.0
C789 C 0.60909 0.13359 0.02436 0.0
C790 C 0.59695 0.17221 0.01025 0.0
C791 C 0.61948 0.18285 0.01407 0.0
C792 C 0.63705 0.16824 0.02247 0.0
C793 C 0.63192 0.1439 0.02754 0.0
C794 C 0.65179 0.24285 0.00261 0.0
C795 C 0.63414 0.26065 0.00664 0.0
C796 C 0.64685 0.21756 0.00449 0.0
C797 C 0.62415 0.20952 0.01045 0.0
C798 C 0.60631 0.22734 0.01397 0.0
C799 C 0.61124 0.25259 0.01207 0.0
H800 H 0.86826 0.08152 0.26032 0.0
H801 H 0.87802 0.15277 0.28545 0.0
H802 H 0.82737 0.09339 0.2519 0.0
H803 H 0.83751 0.16483 0.27663 0.0
H804 H 0.75466 0.16199 0.27974 0.0
H805 H 0.7967 0.15221 0.28571 0.0
H806 H 0.80422 0.12246 0.23287 0.0
H807 H 0.76203 0.13202 0.22691 0.0
C808 C 0.86177 0.09979 0.26388 0.0
C809 C 0.87638 0.11617 0.27357 0.0
C810 C 0.83843 0.10666 0.25894 0.0
C811 C 0.82918 0.13 0.2637 0.0
C812 C 0.84404 0.14662 0.27295 0.0
C813 C 0.86736 0.1398 0.27781 0.0
C814 C 0.76528 0.15346 0.26936 0.0
C815 C 0.75496 0.14775 0.25286 0.0
C816 C 0.78942 0.148 0.27275 0.0
C817 C 0.80379 0.13659 0.25975 0.0
C818 C 0.79354 0.13105 0.2432 0.0
C819 C 0.76941 0.13666 0.23977 0.0
H820 H 0.91979 0.33215 0.55128 0.0
H821 H 0.87424 0.3643 0.51099 0.0
H822 H 0.89953 0.29243 0.54762 0.0
H823 H 0.85372 0.32434 0.50743 0.0
H824 H 0.84457 0.23931 0.49482 0.0
H825 H 0.86329 0.28019 0.49715 0.0
H826 H 0.85771 0.27646 0.55414 0.0
H827 H 0.83898 0.23566 0.55189 0.0
C828 C 0.90567 0.33063 0.54145 0.0
C829 C 0.8987 0.3513 0.53133 0.0
C830 C 0.89387 0.30797 0.53953 0.0
C831 C 0.87493 0.30538 0.52736 0.0
C832 C 0.8683 0.32584 0.51689 0.0
C833 C 0.87997 0.34867 0.51896 0.0
C834 C 0.84716 0.2473 0.50784 0.0
C835 C 0.8404 0.23419 0.52318 0.0
C836 C 0.85778 0.27074 0.50915 0.0
C837 C 0.86211 0.28137 0.52582 0.0
C838 C 0.85485 0.26853 0.54113 0.0
C839 C 0.84399 0.24525 0.53982 0.0
H840 H 0.63063 0.13742 0.47212 0.0
H841 H 0.63809 0.06609 0.49754 0.0
H842 H 0.67218 0.14724 0.47938 0.0
H843 H 0.67972 0.07606 0.50512 0.0
H844 H 0.75998 0.08928 0.4937 0.0
H845 H 0.71739 0.08036 0.48997 0.0
H846 H 0.70028 0.15655 0.50247 0.0
H847 H 0.74307 0.16565 0.50569 0.0
C848 C 0.641 0.12405 0.47963 0.0
C849 C 0.63107 0.10096 0.48425 0.0
C850 C 0.66487 0.12969 0.48381 0.0
C851 C 0.67939 0.11242 0.49278 0.0
C852 C 0.66919 0.08962 0.49791 0.0
C853 C 0.64533 0.08392 0.49364 0.0
C854 C 0.74715 0.10413 0.49572 0.0
C855 C 0.75495 0.12822 0.49989 0.0
C856 C 0.72266 0.09896 0.49372 0.0
C857 C 0.70534 0.11772 0.49593 0.0
C858 C 0.71313 0.14173 0.50042 0.0
C859 C 0.73767 0.14694 0.50234 0.0
H860 H 0.92728 0.14316 0.75034 0.0
H861 H 0.85422 0.13085 0.73295 0.0
H862 H 0.91742 0.18627 0.7571 0.0
H863 H 0.84446 0.17384 0.73926 0.0
H864 H 0.82864 0.24943 0.76128 0.0
H865 H 0.83858 0.20541 0.76075 0.0
H866 H 0.90943 0.223 0.74061 0.0
H867 H 0.89977 0.26693 0.74176 0.0
C868 C 0.90907 0.14963 0.74811 0.0
C869 C 0.89154 0.13362 0.74112 0.0
C870 C 0.90343 0.17435 0.75189 0.0
C871 C 0.88018 0.18366 0.74858 0.0
C872 C 0.86244 0.16731 0.74224 0.0
C873 C 0.86804 0.14259 0.73861 0.0
C874 C 0.84639 0.24388 0.75686 0.0
C875 C 0.86336 0.26167 0.75146 0.0
C876 C 0.85207 0.21863 0.75649 0.0
C877 C 0.87479 0.21057 0.75056 0.0
C878 C 0.8919 0.22846 0.74553 0.0
C879 C 0.88629 0.2537 0.74604 0.0
H880 H 0.82962 0.44567 0.00956 0.0
H881 H 0.86125 0.37975 0.98688 0.0
H882 H 0.79606 0.42105 0.02072 0.0
H883 H 0.8281 0.35502 0.99853 0.0
H884 H 0.74647 0.33565 0.99239 0.0
H885 H 0.78618 0.35374 0.98851 0.0
H886 H 0.78111 0.38763 0.04024 0.0
H887 H 0.74103 0.36966 0.04408 0.0
C888 C 0.82968 0.42583 0.00732 0.0
C889 C 0.84792 0.41473 0.99714 0.0
C890 C 0.81057 0.41168 0.01386 0.0
C891 C 0.80928 0.38612 0.01032 0.0
C892 C 0.82843 0.37473 0.00126 0.0
C893 C 0.84756 0.38888 0.99475 0.0
C894 C 0.75394 0.34662 0.00308 0.0
C895 C 0.74047 0.35145 0.01845 0.0
C896 C 0.77683 0.35684 0.00091 0.0
C897 C 0.78677 0.37222 0.01405 0.0
C898 C 0.77381 0.37605 0.02982 0.0
C899 C 0.75092 0.36566 0.03204 0.0
H900 H 0.62896 0.36802 0.24847 0.0
H901 H 0.58045 0.33437 0.21076 0.0
H902 H 0.64911 0.328 0.25253 0.0
H903 H 0.60017 0.29455 0.21508 0.0
H904 H 0.65901 0.2365 0.20996 0.0
H905 H 0.64031 0.27721 0.20737 0.0
H906 H 0.64127 0.28499 0.26431 0.0
H907 H 0.66014 0.24423 0.26696 0.0
C908 C 0.62247 0.35205 0.2412 0.0
C909 C 0.60306 0.35434 0.22935 0.0
C910 C 0.63392 0.32916 0.24358 0.0
C911 C 0.62635 0.30822 0.23399 0.0
C912 C 0.60662 0.31043 0.22246 0.0
C913 C 0.5951 0.33319 0.22019 0.0
C914 C 0.65544 0.24694 0.22194 0.0
C915 C 0.66097 0.23706 0.23867 0.0
C916 C 0.64457 0.27019 0.22045 0.0
C917 C 0.63911 0.28416 0.23565 0.0
C918 C 0.64535 0.27467 0.25236 0.0
C919 C 0.65608 0.2513 0.25387 0.0
H920 H 0.06084 0.86949 0.37472 0.0
H921 H 0.09746 0.93837 0.38623 0.0
H922 H 0.07156 0.85392 0.40402 0.0
H923 H 0.10868 0.92241 0.4153 0.0
H924 H 0.1502 0.87052 0.45365 0.0
H925 H 0.13631 0.88818 0.42573 0.0
H926 H 0.06425 0.86238 0.43673 0.0
H927 H 0.07811 0.84467 0.46478 0.0
C928 C 0.07086 0.88147 0.38356 0.0
C929 C 0.0784 0.90515 0.37803 0.0
C930 C 0.07705 0.87249 0.40032 0.0
C931 C 0.09109 0.8869 0.41187 0.0
C932 C 0.09816 0.91076 0.40655 0.0
C933 C 0.09178 0.91984 0.38987 0.0
C934 C 0.13138 0.86864 0.45016 0.0
C935 C 0.11526 0.85615 0.46141 0.0
C936 C 0.12341 0.8789 0.43422 0.0
C937 C 0.0992 0.87668 0.4291 0.0
C938 C 0.08304 0.86422 0.44033 0.0
C939 C 0.09096 0.85419 0.45639 0.0
H940 H 0.15124 0.58511 0.61718 0.0
H941 H 0.08377 0.55815 0.63817 0.0
H942 H 0.16101 0.60298 0.64595 0.0
H943 H 0.09356 0.57599 0.66698 0.0
H944 H 0.1071 0.63695 0.70851 0.0
H945 H 0.09762 0.61689 0.68043 0.0
H946 H 0.17115 0.59141 0.67623 0.0
H947 H 0.18076 0.61184 0.70412 0.0
C948 C 0.13865 0.58271 0.62801 0.0
C949 C 0.11671 0.57027 0.62539 0.0
C950 C 0.14424 0.59295 0.64449 0.0
C951 C 0.12803 0.59096 0.65874 0.0
C952 C 0.10625 0.5782 0.65619 0.0
C953 C 0.10065 0.56797 0.6397 0.0
C954 C 0.12123 0.62701 0.70163 0.0
C955 C 0.1447 0.62608 0.70852 0.0
C956 C 0.11576 0.61539 0.68558 0.0
C957 C 0.13365 0.60259 0.67608 0.0
C958 C 0.15705 0.60141 0.6831 0.0
C959 C 0.16251 0.61302 0.69914 0.0
H960 H 0.44965 0.59373 0.89377 0.0
H961 H 0.40473 0.65059 0.87071 0.0
H962 H 0.43036 0.60043 0.9225 0.0
H963 H 0.38592 0.65771 0.89945 0.0
H964 H 0.33993 0.64566 0.94853 0.0
H965 H 0.35877 0.63612 0.92017 0.0
H966 H 0.42833 0.63304 0.94562 0.0
H967 H 0.4095 0.64231 0.97407 0.0
C968 C 0.43565 0.60762 0.89485 0.0
C969 C 0.42873 0.62167 0.88001 0.0
C970 C 0.42475 0.6116 0.91131 0.0
C971 C 0.4066 0.62956 0.91322 0.0
C972 C 0.39967 0.64354 0.89836 0.0
C973 C 0.41063 0.63967 0.88195 0.0
C974 C 0.35923 0.6428 0.94812 0.0
C975 C 0.37323 0.64486 0.96356 0.0
C976 C 0.37003 0.63748 0.93185 0.0
C977 C 0.39504 0.63399 0.93066 0.0
C978 C 0.40898 0.63545 0.94615 0.0
C979 C 0.3982 0.64088 0.96243 0.0
H980 H 0.37894 0.93204 0.13023 0.0
H981 H 0.45082 0.90605 0.14171 0.0
H982 H 0.36544 0.91749 0.15919 0.0
H983 H 0.43716 0.89082 0.17045 0.0
H984 H 0.40827 0.88489 0.22704 0.0
H985 H 0.42201 0.90418 0.19957 0.0
H986 H 0.35889 0.87657 0.17261 0.0
H987 H 0.34498 0.85761 0.20004 0.0
C988 C 0.39192 0.92351 0.13903 0.0
C989 C 0.41592 0.9201 0.13366 0.0
C990 C 0.38413 0.91492 0.15553 0.0
C991 C 0.40019 0.90282 0.16704 0.0
C992 C 0.42439 0.9002 0.16193 0.0
C993 C 0.43216 0.90871 0.14541 0.0
C994 C 0.3973 0.88299 0.21526 0.0
C995 C 0.37556 0.86967 0.21572 0.0
C996 C 0.40522 0.89397 0.19952 0.0
C997 C 0.39151 0.89195 0.18394 0.0
C998 C 0.36969 0.87878 0.18445 0.0
C999 C 0.36182 0.86774 0.20015 0.0
H1000 H 0.09647 0.54105 0.85921 0.0
H1001 H 0.12234 0.59991 0.89304 0.0
H1002 H 0.11529 0.56115 0.8337 0.0
H1003 H 0.14006 0.62048 0.86755 0.0
H1004 H 0.19227 0.63597 0.82266 0.0
H1005 H 0.17331 0.61496 0.84756 0.0
H1006 H 0.11184 0.59751 0.81478 0.0
H1007 H 0.13111 0.61805 0.7897 0.0
C1008 C 0.10607 0.5583 0.86119 0.0
C1009 C 0.10783 0.56888 0.87817 0.0
C1010 C 0.11664 0.56995 0.84655 0.0
C1011 C 0.12924 0.5924 0.84859 0.0
C1012 C 0.13078 0.60305 0.86554 0.0
C1013 C 0.12028 0.59141 0.88013 0.0
C1014 C 0.17472 0.62766 0.82075 0.0
C1015 C 0.16319 0.62874 0.80421 0.0
C1016 C 0.16378 0.61572 0.83506 0.0
C1017 C 0.14099 0.60464 0.8332 0.0
C1018 C 0.12951 0.6056 0.81662 0.0
C1019 C 0.1405 0.61751 0.80227 0.0
H1020 H 0.42312 0.57122 0.11786 0.0
H1021 H 0.352 0.58766 0.13799 0.0
H1022 H 0.41302 0.5918 0.09005 0.0
H1023 H 0.34182 0.60764 0.11001 0.0
H1024 H 0.3259 0.61998 0.05086 0.0
H1025 H 0.33603 0.59716 0.07777 0.0
H1026 H 0.40407 0.63567 0.08059 0.0
H1027 H 0.39402 0.65852 0.05365 0.0
C1028 C 0.40536 0.57923 0.11639 0.0
C1029 C 0.38842 0.57786 0.13023 0.0
C1030 C 0.39958 0.59095 0.10044 0.0
C1031 C 0.37667 0.60136 0.0979 0.0
C1032 C 0.35954 0.59952 0.11153 0.0
C1033 C 0.36537 0.58799 0.12755 0.0
C1034 C 0.34307 0.62352 0.05717 0.0
C1035 C 0.35916 0.64109 0.05014 0.0
C1036 C 0.34879 0.61053 0.07262 0.0
C1037 C 0.37082 0.61465 0.08126 0.0
C1038 C 0.38705 0.63196 0.0741 0.0
C1039 C 0.38123 0.64513 0.05875 0.0
H1040 H 0.36996 0.89034 0.3966 0.0
H1041 H 0.43974 0.89858 0.37199 0.0
H1042 H 0.35407 0.87279 0.36932 0.0
H1043 H 0.42396 0.88018 0.34474 0.0
H1044 H 0.37813 0.87213 0.29371 0.0
H1045 H 0.3954 0.88976 0.32064 0.0
H1046 H 0.35805 0.83484 0.35197 0.0
H1047 H 0.34049 0.81746 0.32515 0.0
C1048 C 0.38189 0.88852 0.38532 0.0
C1049 C 0.40608 0.89599 0.38643 0.0
C1050 C 0.37285 0.87815 0.36976 0.0
C1051 C 0.38778 0.87497 0.3549 0.0
C1052 C 0.41197 0.88255 0.35593 0.0
C1053 C 0.42105 0.89288 0.37157 0.0
C1054 C 0.37365 0.86378 0.30635 0.0
C1055 C 0.35783 0.84347 0.3073 0.0
C1056 C 0.38366 0.87381 0.32176 0.0
C1057 C 0.37801 0.86377 0.33844 0.0
C1058 C 0.36247 0.84323 0.33934 0.0
C1059 C 0.3525 0.83319 0.32395 0.0
H1060 H 0.0756 0.92981 0.62245 0.0
H1061 H 0.03826 0.86011 0.616 0.0
H1062 H 0.09778 0.92211 0.59502 0.0
H1063 H 0.05964 0.85294 0.58836 0.0
H1064 H 0.12418 0.83265 0.55429 0.0
H1065 H 0.10091 0.84261 0.58059 0.0
H1066 H 0.09345 0.91825 0.56255 0.0
H1067 H 0.11723 0.90837 0.53619 0.0
C1068 C 0.07198 0.91297 0.61511 0.0
C1069 C 0.05523 0.89553 0.62146 0.0
C1070 C 0.08451 0.90868 0.59932 0.0
C1071 C 0.08061 0.88682 0.5896 0.0
C1072 C 0.06332 0.86979 0.59568 0.0
C1073 C 0.05082 0.87407 0.61142 0.0
C1074 C 0.11764 0.85144 0.55589 0.0
C1075 C 0.12254 0.86971 0.54311 0.0
C1076 C 0.10413 0.8571 0.57093 0.0
C1077 C 0.09514 0.88116 0.57358 0.0
C1078 C 0.10025 0.89956 0.56092 0.0
C1079 C 0.11378 0.89388 0.5458 0.0
H1080 H 0.64579 0.41695 0.87074 0.0
H1081 H 0.58085 0.44906 0.89223 0.0
H1082 H 0.65179 0.39379 0.89806 0.0
H1083 H 0.58712 0.42635 0.91986 0.0
H1084 H 0.5937 0.36314 0.96027 0.0
H1085 H 0.58656 0.3857 0.93272 0.0
H1086 H 0.66289 0.39992 0.92804 0.0
H1087 H 0.67004 0.37673 0.95511 0.0
C1088 C 0.63295 0.41927 0.88142 0.0
C1089 C 0.61294 0.43492 0.87941 0.0
C1090 C 0.6364 0.40603 0.89711 0.0
C1091 C 0.62003 0.40829 0.91125 0.0
C1092 C 0.59991 0.4239 0.90918 0.0
C1093 C 0.59636 0.43699 0.89339 0.0
C1094 C 0.60893 0.37107 0.95332 0.0
C1095 C 0.63244 0.36802 0.95982 0.0
C1096 C 0.60483 0.38413 0.93758 0.0
C1097 C 0.62415 0.39458 0.92809 0.0
C1098 C 0.64762 0.39172 0.93477 0.0
C1099 C 0.65171 0.37852 0.95038 0.0
H1100 H 0.58929 0.11214 0.12819 0.0
H1101 H 0.63378 0.0485 0.13985 0.0
H1102 H 0.59874 0.12958 0.15711 0.0
H1103 H 0.64328 0.066 0.16884 0.0
H1104 H 0.67665 0.12013 0.20924 0.0
H1105 H 0.66593 0.1007 0.18121 0.0
H1106 H 0.59187 0.12285 0.18869 0.0
H1107 H 0.60265 0.14271 0.21661 0.0
C1108 C 0.60085 0.10172 0.13702 0.0
C1109 C 0.61077 0.07891 0.13171 0.0
C1110 C 0.60626 0.11172 0.15361 0.0
C1111 C 0.62174 0.09917 0.16529 0.0
C1112 C 0.63155 0.07628 0.16005 0.0
C1113 C 0.62612 0.06626 0.14344 0.0
C1114 C 0.65805 0.12078 0.20496 0.0
C1115 C 0.64051 0.13306 0.21514 0.0
C1116 C 0.65188 0.1095 0.18893 0.0
C1117 C 0.62805 0.11026 0.1827 0.0
C1118 C 0.61045 0.12223 0.19301 0.0
C1119 C 0.61661 0.13349 0.20906 0.0
H1120 H 0.90796 0.14544 0.37217 0.0
H1121 H 0.94044 0.07849 0.39252 0.0
H1122 H 0.89002 0.15346 0.40116 0.0
H1123 H 0.92214 0.08627 0.42144 0.0
H1124 H 0.90712 0.12503 0.47498 0.0
H1125 H 0.92542 0.11655 0.44622 0.0
H1126 H 0.85838 0.13475 0.42035 0.0
H1127 H 0.84007 0.14344 0.44906 0.0
C1128 C 0.91136 0.13253 0.38288 0.0
C1129 C 0.9256 0.11135 0.38011 0.0
C1130 C 0.9009 0.13697 0.39941 0.0
C1131 C 0.90461 0.12043 0.41354 0.0
C1132 C 0.91909 0.09941 0.41083 0.0
C1133 C 0.9294 0.09486 0.39425 0.0
C1134 C 0.89624 0.12712 0.46317 0.0
C1135 C 0.87215 0.13495 0.46431 0.0
C1136 C 0.90671 0.12217 0.44671 0.0
C1137 C 0.89335 0.12509 0.43104 0.0
C1138 C 0.8692 0.13266 0.43219 0.0
C1139 C 0.85868 0.13747 0.44865 0.0
H1140 H 0.94331 0.40283 0.6404 0.0
H1141 H 0.87649 0.44065 0.62887 0.0
H1142 H 0.92726 0.39004 0.66907 0.0
H1143 H 0.86085 0.42844 0.65779 0.0
H1144 H 0.84966 0.4177 0.71796 0.0
H1145 H 0.86832 0.43404 0.691 0.0
H1146 H 0.8934 0.3606 0.67769 0.0
H1147 H 0.87471 0.34421 0.70451 0.0
C1148 C 0.92526 0.40852 0.64398 0.0
C1149 C 0.91112 0.42257 0.63221 0.0
C1150 C 0.91613 0.40125 0.66042 0.0
C1151 C 0.89278 0.40812 0.66557 0.0
C1152 C 0.879 0.42306 0.6542 0.0
C1153 C 0.88803 0.43013 0.63766 0.0
C1154 C 0.85928 0.40508 0.70932 0.0
C1155 C 0.86068 0.37966 0.71332 0.0
C1156 C 0.86985 0.41442 0.69388 0.0
C1157 C 0.88233 0.39858 0.68231 0.0
C1158 C 0.88411 0.37327 0.68648 0.0
C1159 C 0.87327 0.36387 0.70177 0.0
H1160 H 0.56979 0.07842 0.36778 0.0
H1161 H 0.58399 0.14994 0.39143 0.0
H1162 H 0.58837 0.09247 0.34023 0.0
H1163 H 0.60198 0.16403 0.36377 0.0
H1164 H 0.6099 0.18774 0.30572 0.0
H1165 H 0.58981 0.17317 0.33251 0.0
H1166 H 0.62981 0.10462 0.3298 0.0
H1167 H 0.64993 0.11912 0.30293 0.0
C1168 C 0.5769 0.0971 0.36714 0.0
C1169 C 0.57538 0.11303 0.38186 0.0
C1170 C 0.5875 0.10513 0.35134 0.0
C1171 C 0.59661 0.12933 0.34986 0.0
C1172 C 0.59481 0.14538 0.36446 0.0
C1173 C 0.58441 0.1373 0.38029 0.0
C1174 C 0.61437 0.16952 0.31079 0.0
C1175 C 0.63156 0.15461 0.30222 0.0
C1176 C 0.60294 0.16125 0.32618 0.0
C1177 C 0.60828 0.13779 0.33325 0.0
C1178 C 0.62519 0.1227 0.32455 0.0
C1179 C 0.6368 0.13107 0.30923 0.0
H1180 H 0.85329 0.09177 0.64197 0.0
H1181 H 0.91992 0.06163 0.62154 0.0
H1182 H 0.84454 0.10949 0.61305 0.0
H1183 H 0.91142 0.08035 0.59273 0.0
H1184 H 0.89799 0.14645 0.55301 0.0
H1185 H 0.90733 0.12499 0.58072 0.0
H1186 H 0.83564 0.09412 0.58167 0.0
H1187 H 0.82628 0.11536 0.55395 0.0
C1188 C 0.86596 0.08861 0.6313 0.0
C1189 C 0.88729 0.0751 0.63415 0.0
C1190 C 0.86096 0.0989 0.61474 0.0
C1191 C 0.87729 0.09626 0.60068 0.0
C1192 C 0.89862 0.08283 0.60342 0.0
C1193 C 0.9035 0.07221 0.61995 0.0
C1194 C 0.88428 0.13497 0.55907 0.0
C1195 C 0.86137 0.13269 0.55133 0.0
C1196 C 0.88968 0.12259 0.57487 0.0
C1197 C 0.87217 0.10799 0.58333 0.0
C1198 C 0.8494 0.10543 0.57548 0.0
C1199 C 0.8441 0.11752 0.55958 0.0
H1200 H 0.85775 0.4416 0.87549 0.0
H1201 H 0.91663 0.3903 0.88306 0.0
H1202 H 0.84652 0.41998 0.84834 0.0
H1203 H 0.90513 0.36851 0.85607 0.0
H1204 H 0.85787 0.31933 0.82016 0.0
H1205 H 0.87089 0.3423 0.84627 0.0
H1206 H 0.8616 0.4112 0.81791 0.0
H1207 H 0.84839 0.38828 0.79179 0.0
C1208 C 0.8685 0.42593 0.87126 0.0
C1209 C 0.88803 0.41762 0.88152 0.0
C1210 C 0.86202 0.41351 0.85572 0.0
C1211 C 0.87486 0.39246 0.85014 0.0
C1212 C 0.89465 0.38443 0.8602 0.0
C1213 C 0.90121 0.39691 0.87567 0.0
C1214 C 0.85863 0.33937 0.81946 0.0
C1215 C 0.85206 0.35196 0.8039 0.0
C1216 C 0.86623 0.35252 0.8344 0.0
C1217 C 0.86729 0.37855 0.83413 0.0
C1218 C 0.86075 0.39116 0.81856 0.0
C1219 C 0.85331 0.378 0.80358 0.0
H1220 H 0.60446 0.38111 0.13542 0.0
H1221 H 0.58683 0.45357 0.11482 0.0
H1222 H 0.61935 0.3687 0.10649 0.0
H1223 H 0.60158 0.44103 0.08559 0.0
H1224 H 0.65523 0.41597 0.04175 0.0
H1225 H 0.63853 0.43034 0.06987 0.0
H1226 H 0.60443 0.3591 0.07743 0.0
H1227 H 0.62158 0.34458 0.04967 0.0
C1228 C 0.6035 0.3943 0.12462 0.0
C1229 C 0.59426 0.41824 0.12735 0.0
C1230 C 0.61201 0.38718 0.10801 0.0
C1231 C 0.61142 0.40378 0.09365 0.0
C1232 C 0.60244 0.42786 0.09641 0.0
C1233 C 0.59398 0.43504 0.11311 0.0
C1234 C 0.64404 0.40345 0.04938 0.0
C1235 C 0.63993 0.37906 0.04357 0.0
C1236 C 0.63438 0.41173 0.06545 0.0
C1237 C 0.62034 0.39579 0.07599 0.0
C1238 C 0.61559 0.37168 0.06983 0.0
C1239 C 0.62532 0.3634 0.05385 0.0
loop_
_geom_bond_atom_site_label_1
_geom_bond_atom_site_label_2
_geom_bond_distance
_geom_bond_site_symmetry_2
_ccdc_geom_bond_type
H0 C27 0.929 . S
N1 C26 1.433 . S
N1 C32 1.435 . S
N1 C38 1.423 . S
H2 C28 0.930 . S
H3 C31 0.931 . S
H4 C30 0.929 . S
H5 C33 0.930 . S
H6 C34 0.932 . S
H7 C37 0.929 . S
H8 C36 0.931 . S
H9 C39 0.929 . S
H10 C43 0.932 . S
H11 C40 0.931 . S
H12 C42 0.929 . S
H13 C45 0.929 . S
H14 C46 0.930 . S
H15 C48 0.929 . S
H16 C49 0.931 . S
H17 C51 0.930 . S
H18 C52 0.932 . S
H19 C54 0.931 . S
H20 C55 0.929 . S
H21 C57 0.929 . S
H22 C58 0.931 1_455 S
H23 C60 0.929 . S
N24 C44 1.433 . S
N24 C50 1.435 . S
N24 C56 1.423 . S
H25 C61 0.932 . S
C26 N1 1.433 . S
C26 C27 1.363 . S
C26 C31 1.370 . S
C27 H0 0.929 . S
C27 C26 1.363 . S
C27 C28 1.385 . S
C28 H2 0.930 . S
C28 C27 1.385 . S
C28 C29 1.357 . S
C29 C28 1.357 . S
C29 C30 1.406 . S
C30 H4 0.929 . S
C30 C29 1.406 . S
C30 C31 1.391 . S
C31 H3 0.931 . S
C31 C26 1.370 . S
C31 C30 1.391 . S
C32 N1 1.435 . S
C32 C33 1.358 . S
C32 C37 1.371 . S
C33 H5 0.930 . S
C33 C32 1.358 . S
C33 C34 1.405 . S
C34 H6 0.932 . S
C34 C33 1.405 . S
C34 C35 1.383 . S
C35 C34 1.383 . S
C35 C36 1.393 . S
C36 H8 0.931 . S
C36 C35 1.393 . S
C36 C37 1.382 . S
C37 H7 0.929 . S
C37 C32 1.371 . S
C37 C36 1.382 . S
C38 N1 1.423 . S
C38 C39 1.362 . S
C38 C43 1.388 . S
C39 H9 0.929 . S
C39 C38 1.362 . S
C39 C40 1.376 1_565 S
C40 H11 0.931 . S
C40 C39 1.376 1_545 S
C40 C41 1.396 . S
C41 C40 1.396 . S
C41 C42 1.348 1_545 S
C41 C59 1.473 1_455 S
C42 H12 0.929 . S
C42 C41 1.348 1_565 S
C42 C43 1.443 . S
C43 H10 0.932 . S
C43 C38 1.388 . S
C43 C42 1.443 . S
C44 N24 1.433 . S
C44 C45 1.363 . S
C44 C49 1.370 . S
C45 H13 0.929 . S
C45 C44 1.363 . S
C45 C46 1.385 . S
C46 H14 0.930 . S
C46 C45 1.385 . S
C46 C47 1.357 . S
C47 C46 1.357 . S
C47 C48 1.406 . S
C48 H15 0.929 . S
C48 C47 1.406 . S
C48 C49 1.391 . S
C49 H16 0.931 . S
C49 C44 1.370 . S
C49 C48 1.391 . S
C50 N24 1.435 . S
C50 C51 1.358 . S
C50 C55 1.371 . S
C51 H17 0.930 . S
C51 C50 1.358 . S
C51 C52 1.405 . S
C52 H18 0.932 . S
C52 C51 1.405 . S
C52 C53 1.383 . S
C53 C52 1.383 . S
C53 C54 1.393 . S
C54 H19 0.931 . S
C54 C53 1.393 . S
C54 C55 1.382 . S
C55 H20 0.929 . S
C55 C50 1.371 . S
C55 C54 1.382 . S
C56 N24 1.423 . S
C56 C57 1.362 . S
C56 C61 1.388 . S
C57 H21 0.929 . S
C57 C56 1.362 . S
C57 C58 1.376 . S
C58 H22 0.931 1_655 S
C58 C57 1.376 . S
C58 C59 1.396 . S
C59 C41 1.473 1_655 S
C59 C58 1.396 . S
C59 C60 1.347 . S
C60 H23 0.929 . S
C60 C59 1.347 . S
C60 C61 1.443 . S
C61 H25 0.932 . S
C61 C56 1.388 . S
C61 C60 1.443 . S
H62 C89 0.929 . S
N63 C88 1.433 . S
N63 C94 1.435 . S
N63 C100 1.423 . S
H64 C90 0.930 . S
H65 C93 0.931 . S
H66 C92 0.929 . S
H67 C95 0.930 . S
H68 C96 0.932 . S
H69 C99 0.929 . S
H70 C98 0.931 . S
H71 C101 0.929 . S
H72 C105 0.932 . S
H73 C102 0.931 . S
H74 C104 0.929 . S
H75 C107 0.929 . S
H76 C108 0.930 . S
H77 C110 0.929 . S
H78 C111 0.931 . S
H79 C113 0.930 . S
H80 C114 0.932 . S
H81 C116 0.931 . S
H82 C117 0.929 . S
H83 C119 0.929 . S
H84 C120 0.931 . S
H85 C122 0.929 . S
N86 C106 1.433 . S
N86 C112 1.435 . S
N86 C118 1.423 . S
H87 C123 0.932 . S
C88 N63 1.433 . S
C88 C89 1.363 . S
C88 C93 1.370 . S
C89 H62 0.929 . S
C89 C88 1.363 . S
C89 C90 1.385 . S
C90 H64 0.930 . S
C90 C89 1.385 . S
C90 C91 1.357 . S
C91 C90 1.357 . S
C91 C92 1.406 . S
C92 H66 0.929 . S
C92 C91 1.406 . S
C92 C93 1.391 . S
C93 H65 0.931 . S
C93 C88 1.370 . S
C93 C92 1.391 . S
C94 N63 1.435 . S
C94 C95 1.358 . S
C94 C99 1.371 . S
C95 H67 0.930 . S
C95 C94 1.358 . S
C95 C96 1.405 . S
C96 H68 0.932 . S
C96 C95 1.405 . S
C96 C97 1.383 . S
C97 C96 1.383 . S
C97 C98 1.393 . S
C98 H70 0.931 . S
C98 C97 1.393 . S
C98 C99 1.382 . S
C99 H69 0.929 . S
C99 C94 1.371 . S
C99 C98 1.382 . S
C100 N63 1.423 . S
C100 C101 1.362 . S
C100 C105 1.388 . S
C101 H71 0.929 . S
C101 C100 1.362 . S
C101 C102 1.376 1_655 S
C102 H73 0.931 . S
C102 C101 1.376 1_455 S
C102 C103 1.396 . S
C103 C102 1.396 . S
C103 C104 1.348 1_455 S
C103 C121 1.472 . S
C104 H74 0.929 . S
C104 C103 1.348 1_655 S
C104 C105 1.443 . S
C105 H72 0.932 . S
C105 C100 1.388 . S
C105 C104 1.443 . S
C106 N86 1.433 . S
C106 C107 1.363 . S
C106 C111 1.370 . S
C107 H75 0.929 . S
C107 C106 1.363 . S
C107 C108 1.385 . S
C108 H76 0.930 . S
C108 C107 1.385 . S
C108 C109 1.357 . S
C109 C108 1.357 . S
C109 C110 1.406 . S
C110 H77 0.929 . S
C110 C109 1.406 . S
C110 C111 1.391 . S
C111 H78 0.931 . S
C111 C106 1.370 . S
C111 C110 1.391 . S
C112 N86 1.435 . S
C112 C113 1.358 . S
C112 C117 1.371 . S
C113 H79 0.930 . S
C113 C112 1.358 . S
C113 C114 1.405 . S
C114 H80 0.932 . S
C114 C113 1.405 . S
C114 C115 1.383 . S
C115 C114 1.383 . S
C115 C116 1.393 . S
C116 H81 0.931 . S
C116 C115 1.393 . S
C116 C117 1.382 . S
C117 H82 0.929 . S
C117 C112 1.371 . S
C117 C116 1.382 . S
C118 N86 1.423 . S
C118 C119 1.362 . S
C118 C123 1.388 . S
C119 H83 0.929 . S
C119 C118 1.362 . S
C119 C120 1.376 . S
C120 H84 0.931 . S
C120 C119 1.376 . S
C120 C121 1.396 . S
C121 C103 1.472 . S
C121 C120 1.396 . S
C121 C122 1.348 . S
C122 H85 0.929 . S
C122 C121 1.348 . S
C122 C123 1.443 . S
C123 H87 0.932 . S
C123 C118 1.388 . S
C123 C122 1.443 . S
H124 C151 0.929 . S
N125 C150 1.433 . S
N125 C156 1.435 . S
N125 C162 1.423 . S
H126 C152 0.930 . S
H127 C155 0.931 . S
H128 C154 0.929 . S
H129 C157 0.930 . S
H130 C158 0.932 . S
H131 C161 0.929 . S
H132 C160 0.931 . S
H133 C163 0.929 . S
H134 C167 0.932 . S
H135 C164 0.931 . S
H136 C166 0.929 . S
H137 C169 0.929 . S
H138 C170 0.930 . S
H139 C172 0.929 . S
H140 C173 0.931 . S
H141 C175 0.930 . S
H142 C176 0.932 . S
H143 C178 0.931 . S
H144 C179 0.929 . S
H145 C181 0.929 . S
H146 C182 0.931 . S
H147 C184 0.929 . S
N148 C168 1.433 . S
N148 C174 1.435 . S
N148 C180 1.423 . S
H149 C185 0.932 . S
C150 N125 1.433 . S
C150 C151 1.363 . S
C150 C155 1.370 . S
C151 H124 0.929 . S
C151 C150 1.363 . S
C151 C152 1.385 . S
C152 H126 0.930 . S
C152 C151 1.385 . S
C152 C153 1.357 . S
C153 C152 1.357 . S
C153 C154 1.406 . S
C154 H128 0.929 . S
C154 C153 1.406 . S
C154 C155 1.391 . S
C155 H127 0.931 . S
C155 C150 1.370 . S
C155 C154 1.391 . S
C156 N125 1.435 . S
C156 C157 1.358 . S
C156 C161 1.371 . S
C157 H129 0.930 . S
C157 C156 1.358 . S
C157 C158 1.405 . S
C158 H130 0.932 . S
C158 C157 1.405 . S
C158 C159 1.383 . S
C159 C158 1.383 . S
C159 C160 1.393 . S
C160 H132 0.931 . S
C160 C159 1.393 . S
C160 C161 1.382 . S
C161 H131 0.929 . S
C161 C156 1.371 . S
C161 C160 1.382 . S
C162 N125 1.423 . S
C162 C163 1.362 . S
C162 C167 1.388 . S
C163 H133 0.929 . S
C163 C162 1.362 . S
C163 C164 1.376 . S
C164 H135 0.931 . S
C164 C163 1.376 . S
C164 C165 1.396 . S
C165 C164 1.396 . S
C165 C166 1.348 . S
C165 C183 1.472 . S
C166 H136 0.929 . S
C166 C165 1.348 . S
C166 C167 1.443 . S
C167 H134 0.932 . S
C167 C162 1.388 . S
C167 C166 1.443 . S
C168 N148 1.433 . S
C168 C169 1.363 . S
C168 C173 1.370 . S
C169 H137 0.929 . S
C169 C168 1.363 . S
C169 C170 1.385 . S
C170 H138 0.930 . S
C170 C169 1.385 . S
C170 C171 1.357 . S
C171 C170 1.357 . S
C171 C172 1.406 . S
C172 H139 0.929 . S
C172 C171 1.406 . S
C172 C173 1.391 . S
C173 H140 0.931 . S
C173 C168 1.370 . S
C173 C172 1.391 . S
C174 N148 1.435 . S
C174 C175 1.358 . S
C174 C179 1.371 . S
C175 H141 0.930 . S
C175 C174 1.358 . S
C175 C176 1.405 . S
C176 H142 0.932 . S
C176 C175 1.405 . S
C176 C177 1.383 . S
C177 C176 1.383 . S
C177 C178 1.393 . S
C178 H143 0.931 . S
C178 C177 1.393 . S
C178 C179 1.382 . S
C179 H144 0.929 . S
C179 C174 1.371 . S
C179 C178 1.382 . S
C180 N148 1.423 . S
C180 C181 1.362 . S
C180 C185 1.388 . S
C181 H145 0.929 . S
C181 C180 1.362 . S
C181 C182 1.376 . S
C182 H146 0.931 . S
C182 C181 1.376 . S
C182 C183 1.396 . S
C183 C165 1.472 . S
C183 C182 1.396 . S
C183 C184 1.348 . S
C184 H147 0.929 . S
C184 C183 1.348 . S
C184 C185 1.443 . S
C185 H149 0.932 . S
C185 C180 1.388 . S
C185 C184 1.443 . S
H186 C213 0.929 . S
N187 C212 1.433 . S
N187 C218 1.435 . S
N187 C224 1.423 . S
H188 C214 0.930 . S
H189 C217 0.931 . S
H190 C216 0.929 . S
H191 C219 0.930 . S
H192 C220 0.932 . S
H193 C223 0.929 . S
H194 C222 0.931 . S
H195 C225 0.929 . S
H196 C229 0.932 . S
H197 C226 0.931 . S
H198 C228 0.929 . S
H199 C231 0.929 . S
H200 C232 0.930 . S
H201 C234 0.929 . S
H202 C235 0.931 . S
H203 C237 0.930 . S
H204 C238 0.932 . S
H205 C240 0.931 . S
H206 C241 0.929 . S
H207 C243 0.929 . S
H208 C244 0.931 1_565 S
H209 C246 0.929 . S
N210 C230 1.433 . S
N210 C236 1.435 . S
N210 C242 1.423 . S
H211 C247 0.932 . S
C212 N187 1.433 . S
C212 C213 1.363 . S
C212 C217 1.370 . S
C213 H186 0.929 . S
C213 C212 1.363 . S
C213 C214 1.385 . S
C214 H188 0.930 . S
C214 C213 1.385 . S
C214 C215 1.357 . S
C215 C214 1.357 . S
C215 C216 1.406 . S
C216 H190 0.929 . S
C216 C215 1.406 . S
C216 C217 1.391 . S
C217 H189 0.931 . S
C217 C212 1.370 . S
C217 C216 1.391 . S
C218 N187 1.435 . S
C218 C219 1.358 . S
C218 C223 1.371 . S
C219 H191 0.930 . S
C219 C218 1.358 . S
C219 C220 1.405 . S
C220 H192 0.932 . S
C220 C219 1.405 . S
C220 C221 1.383 . S
C221 C220 1.383 . S
C221 C222 1.393 . S
C222 H194 0.931 . S
C222 C221 1.393 . S
C222 C223 1.382 . S
C223 H193 0.929 . S
C223 C218 1.371 . S
C223 C222 1.382 . S
C224 N187 1.423 . S
C224 C225 1.362 . S
C224 C229 1.388 . S
C225 H195 0.929 . S
C225 C224 1.362 . S
C225 C226 1.376 . S
C226 H197 0.931 . S
C226 C225 1.376 . S
C226 C227 1.396 . S
C227 C226 1.396 . S
C227 C228 1.348 . S
C227 C245 1.489 . S
C228 H198 0.929 . S
C228 C227 1.348 . S
C228 C229 1.443 . S
C229 H196 0.932 . S
C229 C224 1.388 . S
C229 C228 1.443 . S
C230 N210 1.433 . S
C230 C231 1.363 . S
C230 C235 1.370 . S
C231 H199 0.929 . S
C231 C230 1.363 . S
C231 C232 1.385 . S
C232 H200 0.930 . S
C232 C231 1.385 . S
C232 C233 1.357 . S
C233 C232 1.357 . S
C233 C234 1.406 . S
C234 H201 0.929 . S
C234 C233 1.406 . S
C234 C235 1.391 . S
C235 H202 0.931 . S
C235 C230 1.370 . S
C235 C234 1.391 . S
C236 N210 1.435 . S
C236 C237 1.358 . S
C236 C241 1.371 . S
C237 H203 0.930 . S
C237 C236 1.358 . S
C237 C238 1.405 . S
C238 H204 0.932 . S
C238 C237 1.405 . S
C238 C239 1.383 . S
C239 C238 1.383 . S
C239 C240 1.393 . S
C240 H205 0.931 . S
C240 C239 1.393 . S
C240 C241 1.382 . S
C241 H206 0.929 . S
C241 C236 1.371 . S
C241 C240 1.382 . S
C242 N210 1.423 . S
C242 C243 1.362 . S
C242 C247 1.388 . S
C243 H207 0.929 . S
C243 C242 1.362 . S
C243 C244 1.376 . S
C244 H208 0.931 1_545 S
C244 C243 1.376 . S
C244 C245 1.394 1_545 S
C245 C227 1.489 . S
C245 C244 1.394 1_565 S
C245 C246 1.332 1_565 S
C246 H209 0.929 . S
C246 C245 1.332 1_545 S
C246 C247 1.443 . S
C247 H211 0.932 . S
C247 C242 1.388 . S
C247 C246 1.443 . S
H248 C275 0.929 . S
N249 C274 1.433 . S
N249 C280 1.435 . S
N249 C286 1.423 . S
H250 C276 0.930 . S
H251 C279 0.931 . S
H252 C278 0.929 . S
H253 C281 0.930 . S
H254 C282 0.932 . S
H255 C285 0.929 . S
H256 C284 0.931 . S
H257 C287 0.929 . S
H258 C291 0.932 . S
H259 C288 0.931 . S
H260 C290 0.929 . S
H261 C293 0.929 . S
H262 C294 0.930 . S
H263 C296 0.929 . S
H264 C297 0.931 . S
H265 C299 0.930 . S
H266 C300 0.932 . S
H267 C302 0.931 . S
H268 C303 0.929 . S
H269 C305 0.929 . S
H270 C306 0.931 1_455 S
H271 C308 0.929 . S
N272 C292 1.433 . S
N272 C298 1.435 . S
N272 C304 1.423 . S
H273 C309 0.932 . S
C274 N249 1.433 . S
C274 C275 1.363 . S
C274 C279 1.370 . S
C275 H248 0.929 . S
C275 C274 1.363 . S
C275 C276 1.385 . S
C276 H250 0.930 . S
C276 C275 1.385 . S
C276 C277 1.357 . S
C277 C276 1.357 . S
C277 C278 1.406 . S
C278 H252 0.929 . S
C278 C277 1.406 . S
C278 C279 1.391 . S
C279 H251 0.931 . S
C279 C274 1.370 . S
C279 C278 1.391 . S
C280 N249 1.435 . S
C280 C281 1.358 . S
C280 C285 1.371 . S
C281 H253 0.930 . S
C281 C280 1.358 . S
C281 C282 1.405 . S
C282 H254 0.932 . S
C282 C281 1.405 . S
C282 C283 1.383 . S
C283 C282 1.383 . S
C283 C284 1.393 . S
C284 H256 0.931 . S
C284 C283 1.393 . S
C284 C285 1.382 . S
C285 H255 0.929 . S
C285 C280 1.371 . S
C285 C284 1.382 . S
C286 N249 1.423 . S
C286 C287 1.362 . S
C286 C291 1.388 . S
C287 H257 0.929 . S
C287 C286 1.362 . S
C287 C288 1.376 . S
C288 H259 0.931 . S
C288 C287 1.376 . S
C288 C289 1.396 . S
C289 C288 1.396 . S
C289 C290 1.348 . S
C289 C307 1.473 1_455 S
C290 H260 0.929 . S
C290 C289 1.348 . S
C290 C291 1.443 . S
C291 H258 0.932 . S
C291 C286 1.388 . S
C291 C290 1.443 . S
C292 N272 1.433 . S
C292 C293 1.363 . S
C292 C297 1.370 . S
C293 H261 0.929 . S
C293 C292 1.363 . S
C293 C294 1.385 . S
C294 H262 0.930 . S
C294 C293 1.385 . S
C294 C295 1.357 . S
C295 C294 1.357 . S
C295 C296 1.406 . S
C296 H263 0.929 . S
C296 C295 1.406 . S
C296 C297 1.391 . S
C297 H264 0.931 . S
C297 C292 1.370 . S
C297 C296 1.391 . S
C298 N272 1.435 . S
C298 C299 1.358 . S
C298 C303 1.371 . S
C299 H265 0.930 . S
C299 C298 1.358 . S
C299 C300 1.405 . S
C300 H266 0.932 . S
C300 C299 1.405 . S
C300 C301 1.383 . S
C301 C300 1.383 . S
C301 C302 1.393 . S
C302 H267 0.931 . S
C302 C301 1.393 . S
C302 C303 1.382 . S
C303 H268 0.929 . S
C303 C298 1.371 . S
C303 C302 1.382 . S
C304 N272 1.423 . S
C304 C305 1.362 . S
C304 C309 1.388 . S
C305 H269 0.929 . S
C305 C304 1.362 . S
C305 C306 1.376 . S
C306 H270 0.931 1_655 S
C306 C305 1.376 . S
C306 C307 1.396 . S
C307 C289 1.473 1_655 S
C307 C306 1.396 . S
C307 C308 1.347 . S
C308 H271 0.929 . S
C308 C307 1.347 . S
C308 C309 1.443 . S
C309 H273 0.932 . S
C309 C304 1.388 . S
C309 C308 1.443 . S
H310 C337 0.929 . S
N311 C336 1.433 . S
N311 C342 1.435 . S
N311 C348 1.423 . S
H312 C338 0.930 . S
H313 C341 0.931 . S
H314 C340 0.929 . S
H315 C343 0.930 . S
H316 C344 0.932 . S
H317 C347 0.929 . S
H318 C346 0.931 . S
H319 C349 0.929 . S
H320 C353 0.932 . S
H321 C350 0.931 . S
H322 C352 0.929 . S
H323 C355 0.929 . S
H324 C356 0.930 . S
H325 C358 0.929 . S
H326 C359 0.931 . S
H327 C361 0.930 . S
H328 C362 0.932 . S
H329 C364 0.931 . S
H330 C365 0.929 . S
H331 C367 0.929 . S
H332 C368 0.931 . S
H333 C370 0.929 . S
N334 C354 1.433 . S
N334 C360 1.435 . S
N334 C366 1.423 . S
H335 C371 0.932 . S
C336 N311 1.433 . S
C336 C337 1.363 . S
C336 C341 1.370 . S
C337 H310 0.929 . S
C337 C336 1.363 . S
C337 C338 1.385 . S
C338 H312 0.930 . S
C338 C337 1.385 . S
C338 C339 1.357 . S
C339 C338 1.357 . S
C339 C340 1.406 . S
C340 H314 0.929 . S
C340 C339 1.406 . S
C340 C341 1.391 . S
C341 H313 0.931 . S
C341 C336 1.370 . S
C341 C340 1.391 . S
C342 N311 1.435 . S
C342 C343 1.358 . S
C342 C347 1.371 . S
C343 H315 0.930 . S
C343 C342 1.358 . S
C343 C344 1.405 . S
C344 H316 0.932 . S
C344 C343 1.405 . S
C344 C345 1.383 . S
C345 C344 1.383 . S
C345 C346 1.393 . S
C346 H318 0.931 . S
C346 C345 1.393 . S
C346 C347 1.382 . S
C347 H317 0.929 . S
C347 C342 1.371 . S
C347 C346 1.382 . S
C348 N311 1.423 . S
C348 C349 1.362 . S
C348 C353 1.388 . S
C349 H319 0.929 . S
C349 C348 1.362 . S
C349 C350 1.376 . S
C350 H321 0.931 . S
C350 C349 1.376 . S
C350 C351 1.396 . S
C351 C350 1.396 . S
C351 C352 1.348 . S
C351 C369 1.472 . S
C352 H322 0.929 . S
C352 C351 1.348 . S
C352 C353 1.443 . S
C353 H320 0.932 . S
C353 C348 1.388 . S
C353 C352 1.443 . S
C354 N334 1.433 . S
C354 C355 1.363 . S
C354 C359 1.370 . S
C355 H323 0.929 . S
C355 C354 1.363 . S
C355 C356 1.385 . S
C356 H324 0.930 . S
C356 C355 1.385 . S
C356 C357 1.357 . S
C357 C356 1.357 . S
C357 C358 1.406 . S
C358 H325 0.929 . S
C358 C357 1.406 . S
C358 C359 1.391 . S
C359 H326 0.931 . S
C359 C354 1.370 . S
C359 C358 1.391 . S
C360 N334 1.435 . S
C360 C361 1.358 . S
C360 C365 1.371 . S
C361 H327 0.930 . S
C361 C360 1.358 . S
C361 C362 1.405 . S
C362 H328 0.932 . S
C362 C361 1.405 . S
C362 C363 1.383 . S
C363 C362 1.383 . S
C363 C364 1.393 . S
C364 H329 0.931 . S
C364 C363 1.393 . S
C364 C365 1.382 . S
C365 H330 0.929 . S
C365 C360 1.371 . S
C365 C364 1.382 . S
C366 N334 1.423 . S
C366 C367 1.362 . S
C366 C371 1.388 . S
C367 H331 0.929 . S
C367 C366 1.362 . S
C367 C368 1.376 . S
C368 H332 0.931 . S
C368 C367 1.376 . S
C368 C369 1.396 . S
C369 C351 1.472 . S
C369 C368 1.396 . S
C369 C370 1.348 . S
C370 H333 0.929 . S
C370 C369 1.348 . S
C370 C371 1.443 . S
C371 H335 0.932 . S
C371 C366 1.388 . S
C371 C370 1.443 . S
H372 C399 0.929 . S
N373 C398 1.433 . S
N373 C404 1.435 . S
N373 C410 1.423 . S
H374 C400 0.930 . S
H375 C403 0.931 . S
H376 C402 0.929 . S
H377 C405 0.930 . S
H378 C406 0.932 . S
H379 C409 0.929 . S
H380 C408 0.931 . S
H381 C411 0.929 . S
H382 C415 0.932 . S
H383 C412 0.931 . S
H384 C414 0.929 . S
H385 C417 0.929 . S
H386 C418 0.930 . S
H387 C420 0.929 . S
H388 C421 0.931 . S
H389 C423 0.930 . S
H390 C424 0.932 . S
H391 C426 0.931 . S
H392 C427 0.929 . S
H393 C429 0.929 . S
H394 C430 0.931 . S
H395 C432 0.929 . S
N396 C416 1.433 . S
N396 C422 1.435 . S
N396 C428 1.423 . S
H397 C433 0.932 . S
C398 N373 1.433 . S
C398 C399 1.363 . S
C398 C403 1.370 . S
C399 H372 0.929 . S
C399 C398 1.363 . S
C399 C400 1.385 . S
C400 H374 0.930 . S
C400 C399 1.385 . S
C400 C401 1.357 . S
C401 C400 1.357 . S
C401 C402 1.406 . S
C402 H376 0.929 . S
C402 C401 1.406 . S
C402 C403 1.391 . S
C403 H375 0.931 . S
C403 C398 1.370 . S
C403 C402 1.391 . S
C404 N373 1.435 . S
C404 C405 1.358 . S
C404 C409 1.371 . S
C405 H377 0.930 . S
C405 C404 1.358 . S
C405 C406 1.405 . S
C406 H378 0.932 . S
C406 C405 1.405 . S
C406 C407 1.383 . S
C407 C406 1.383 . S
C407 C408 1.393 . S
C408 H380 0.931 . S
C408 C407 1.393 . S
C408 C409 1.382 . S
C409 H379 0.929 . S
C409 C404 1.371 . S
C409 C408 1.382 . S
C410 N373 1.423 . S
C410 C411 1.362 . S
C410 C415 1.388 . S
C411 H381 0.929 . S
C411 C410 1.362 . S
C411 C412 1.376 1_565 S
C412 H383 0.931 . S
C412 C411 1.376 1_545 S
C412 C413 1.396 . S
C413 C412 1.396 . S
C413 C414 1.348 1_545 S
C413 C431 1.472 . S
C414 H384 0.929 . S
C414 C413 1.348 1_565 S
C414 C415 1.443 . S
C415 H382 0.932 . S
C415 C410 1.388 . S
C415 C414 1.443 . S
C416 N396 1.433 . S
C416 C417 1.363 . S
C416 C421 1.370 . S
C417 H385 0.929 . S
C417 C416 1.363 . S
C417 C418 1.385 . S
C418 H386 0.930 . S
C418 C417 1.385 . S
C418 C419 1.357 . S
C419 C418 1.357 . S
C419 C420 1.406 . S
C420 H387 0.929 . S
C420 C419 1.406 . S
C420 C421 1.391 . S
C421 H388 0.931 . S
C421 C416 1.370 . S
C421 C420 1.391 . S
C422 N396 1.435 . S
C422 C423 1.358 . S
C422 C427 1.371 . S
C423 H389 0.930 . S
C423 C422 1.358 . S
C423 C424 1.405 . S
C424 H390 0.932 . S
C424 C423 1.405 . S
C424 C425 1.383 . S
C425 C424 1.383 . S
C425 C426 1.393 . S
C426 H391 0.931 . S
C426 C425 1.393 . S
C426 C427 1.382 . S
C427 H392 0.929 . S
C427 C422 1.371 . S
C427 C426 1.382 . S
C428 N396 1.423 . S
C428 C429 1.362 . S
C428 C433 1.388 . S
C429 H393 0.929 . S
C429 C428 1.362 . S
C429 C430 1.376 . S
C430 H394 0.931 . S
C430 C429 1.376 . S
C430 C431 1.396 . S
C431 C413 1.472 . S
C431 C430 1.396 . S
C431 C432 1.348 . S
C432 H395 0.929 . S
C432 C431 1.348 . S
C432 C433 1.443 . S
C433 H397 0.932 . S
C433 C428 1.388 . S
C433 C432 1.443 . S
H434 C461 0.929 . S
N435 C460 1.433 . S
N435 C466 1.435 . S
N435 C472 1.423 . S
H436 C462 0.930 . S
H437 C465 0.931 . S
H438 C464 0.929 . S
H439 C467 0.930 . S
H440 C468 0.932 . S
H441 C471 0.929 . S
H442 C470 0.931 . S
H443 C473 0.929 . S
H444 C477 0.932 . S
H445 C474 0.931 . S
H446 C476 0.929 . S
H447 C479 0.929 . S
H448 C480 0.930 . S
H449 C482 0.929 . S
H450 C483 0.931 . S
H451 C485 0.930 . S
H452 C486 0.932 . S
H453 C488 0.931 . S
H454 C489 0.929 . S
H455 C491 0.929 . S
H456 C492 0.931 1_565 S
H457 C494 0.929 . S
N458 C478 1.433 . S
N458 C484 1.435 . S
N458 C490 1.423 . S
H459 C495 0.932 . S
C460 N435 1.433 . S
C460 C461 1.363 . S
C460 C465 1.370 . S
C461 H434 0.929 . S
C461 C460 1.363 . S
C461 C462 1.385 . S
C462 H436 0.930 . S
C462 C461 1.385 . S
C462 C463 1.357 . S
C463 C462 1.357 . S
C463 C464 1.406 . S
C464 H438 0.929 . S
C464 C463 1.406 . S
C464 C465 1.391 . S
C465 H437 0.931 . S
C465 C460 1.370 . S
C465 C464 1.391 . S
C466 N435 1.435 . S
C466 C467 1.358 . S
C466 C471 1.371 . S
C467 H439 0.930 . S
C467 C466 1.358 . S
C467 C468 1.405 . S
C468 H440 0.932 . S
C468 C467 1.405 . S
C468 C469 1.383 . S
C469 C468 1.383 . S
C469 C470 1.393 . S
C470 H442 0.931 . S
C470 C469 1.393 . S
C470 C471 1.382 . S
C471 H441 0.929 . S
C471 C466 1.371 . S
C471 C470 1.382 . S
C472 N435 1.423 . S
C472 C473 1.362 . S
C472 C477 1.388 . S
C473 H443 0.929 . S
C473 C472 1.362 . S
C473 C474 1.376 1_455 S
C474 H445 0.931 . S
C474 C473 1.376 1_655 S
C474 C475 1.396 . S
C475 C474 1.396 . S
C475 C476 1.348 1_655 S
C475 C493 1.489 . S
C476 H446 0.929 . S
C476 C475 1.348 1_455 S
C476 C477 1.443 . S
C477 H444 0.932 . S
C477 C472 1.388 . S
C477 C476 1.443 . S
C478 N458 1.433 . S
C478 C479 1.363 . S
C478 C483 1.370 . S
C479 H447 0.929 . S
C479 C478 1.363 . S
C479 C480 1.385 . S
C480 H448 0.930 . S
C480 C479 1.385 . S
C480 C481 1.357 . S
C481 C480 1.357 . S
C481 C482 1.406 . S
C482 H449 0.929 . S
C482 C481 1.406 . S
C482 C483 1.391 . S
C483 H450 0.931 . S
C483 C478 1.370 . S
C483 C482 1.391 . S
C484 N458 1.435 . S
C484 C485 1.358 . S
C484 C489 1.371 . S
C485 H451 0.930 . S
C485 C484 1.358 . S
C485 C486 1.405 . S
C486 H452 0.932 . S
C486 C485 1.405 . S
C486 C487 1.383 . S
C487 C486 1.383 . S
C487 C488 1.393 . S
C488 H453 0.931 . S
C488 C487 1.393 . S
C488 C489 1.382 . S
C489 H454 0.929 . S
C489 C484 1.371 . S
C489 C488 1.382 . S
C490 N458 1.423 . S
C490 C491 1.362 . S
C490 C495 1.388 . S
C491 H455 0.929 . S
C491 C490 1.362 . S
C491 C492 1.376 . S
C492 H456 0.931 1_545 S
C492 C491 1.376 . S
C492 C493 1.394 1_545 S
C493 C475 1.489 . S
C493 C492 1.394 1_565 S
C493 C494 1.332 1_565 S
C494 H457 0.929 . S
C494 C493 1.332 1_545 S
C494 C495 1.443 . S
C495 H459 0.932 . S
C495 C490 1.388 . S
C495 C494 1.443 . S
C496 O497 1.160 . S
C496 O503 1.185 . S
O497 C496 1.160 . S
O498 Zn499 1.899 . S
O498 C506 1.284 . S
Zn499 O498 1.899 . S
Zn499 O500 2.032 1_554 S
Zn499 O503 2.086 . S
Zn499 O508 1.977 . S
O500 Zn499 2.032 1_556 S
O500 C504 1.278 . S
C501 O502 1.203 . S
C501 O508 1.267 . S
O502 C501 1.203 . S
O503 C496 1.185 . S
O503 Zn499 2.086 . S
C504 O500 1.278 . S
C504 O505 1.211 . S
O505 C504 1.211 . S
C506 O498 1.284 . S
C506 O507 1.273 . S
O507 C506 1.273 . S
O508 Zn499 1.977 . S
O508 C501 1.267 . S
C509 O510 1.160 . S
C509 O516 1.185 . S
O510 C509 1.160 . S
O511 Zn512 1.899 . S
O511 C519 1.284 . S
Zn512 O511 1.899 . S
Zn512 O513 2.032 . S
Zn512 O516 2.086 . S
Zn512 O521 1.977 . S
O513 Zn512 2.032 . S
O513 C517 1.278 . S
C514 O515 1.203 . S
C514 O521 1.267 . S
O515 C514 1.203 . S
O516 C509 1.185 . S
O516 Zn512 2.086 . S
C517 O513 1.278 . S
C517 O518 1.211 . S
O518 C517 1.211 . S
C519 O511 1.284 . S
C519 O520 1.273 . S
O520 C519 1.273 . S
O521 Zn512 1.977 . S
O521 C514 1.267 . S
C522 O523 1.160 . S
C522 O529 1.185 . S
O523 C522 1.160 . S
O524 Zn525 1.899 . S
O524 C532 1.284 . S
Zn525 O524 1.899 . S
Zn525 O526 2.032 . S
Zn525 O529 2.086 . S
Zn525 O534 1.977 . S
O526 Zn525 2.032 . S
O526 C530 1.278 . S
C527 O528 1.203 . S
C527 O534 1.267 . S
O528 C527 1.203 . S
O529 C522 1.185 . S
O529 Zn525 2.086 . S
C530 O526 1.278 . S
C530 O531 1.211 . S
O531 C530 1.211 . S
C532 O524 1.284 . S
C532 O533 1.273 . S
O533 C532 1.273 . S
O534 Zn525 1.977 . S
O534 C527 1.267 . S
C535 O536 1.160 . S
C535 O542 1.185 . S
O536 C535 1.160 . S
O537 Zn538 1.899 . S
O537 C545 1.284 . S
Zn538 O537 1.899 . S
Zn538 O539 2.032 . S
Zn538 O542 2.086 . S
Zn538 O547 1.977 . S
O539 Zn538 2.032 . S
O539 C543 1.278 . S
C540 O541 1.203 . S
C540 O547 1.267 . S
O541 C540 1.203 . S
O542 C535 1.185 . S
O542 Zn538 2.086 . S
C543 O539 1.278 . S
C543 O544 1.211 . S
O544 C543 1.211 . S
C545 O537 1.284 . S
C545 O546 1.273 . S
O546 C545 1.273 . S
O547 Zn538 1.977 . S
O547 C540 1.267 . S
C548 O549 1.160 . S
C548 O555 1.185 . S
O549 C548 1.160 . S
O550 Zn551 1.899 . S
O550 C558 1.284 . S
Zn551 O550 1.899 . S
Zn551 O552 2.032 . S
Zn551 O555 2.086 . S
Zn551 O560 1.977 . S
O552 Zn551 2.032 . S
O552 C556 1.278 . S
C553 O554 1.203 . S
C553 O560 1.267 . S
O554 C553 1.203 . S
O555 C548 1.185 . S
O555 Zn551 2.086 . S
C556 O552 1.278 . S
C556 O557 1.211 . S
O557 C556 1.211 . S
C558 O550 1.284 . S
C558 O559 1.273 . S
O559 C558 1.273 . S
O560 Zn551 1.977 . S
O560 C553 1.267 . S
C561 O562 1.160 . S
C561 O568 1.185 . S
O562 C561 1.160 . S
O563 Zn564 1.899 . S
O563 C571 1.284 . S
Zn564 O563 1.899 . S
Zn564 O565 2.032 . S
Zn564 O568 2.086 . S
Zn564 O573 1.977 . S
O565 Zn564 2.032 . S
O565 C569 1.278 . S
C566 O567 1.203 . S
C566 O573 1.267 . S
O567 C566 1.203 . S
O568 C561 1.185 . S
O568 Zn564 2.086 . S
C569 O565 1.278 . S
C569 O570 1.211 . S
O570 C569 1.211 . S
C571 O563 1.284 . S
C571 O572 1.273 . S
O572 C571 1.273 . S
O573 Zn564 1.977 . S
O573 C566 1.267 . S
C574 O575 1.160 . S
C574 O581 1.185 . S
O575 C574 1.160 . S
O576 Zn577 1.899 . S
O576 C584 1.284 . S
Zn577 O576 1.899 . S
Zn577 O578 2.032 1_554 S
Zn577 O581 2.086 . S
Zn577 O586 1.977 . S
O578 Zn577 2.032 1_556 S
O578 C582 1.278 . S
C579 O580 1.203 . S
C579 O586 1.267 . S
O580 C579 1.203 . S
O581 C574 1.185 . S
O581 Zn577 2.086 . S
C582 O578 1.278 . S
C582 O583 1.211 . S
O583 C582 1.211 . S
C584 O576 1.284 . S
C584 O585 1.273 . S
O585 C584 1.273 . S
O586 Zn577 1.977 . S
O586 C579 1.267 . S
C587 O588 1.160 . S
C587 O594 1.185 . S
O588 C587 1.160 . S
O589 Zn590 1.899 . S
O589 C597 1.284 . S
Zn590 O589 1.899 . S
Zn590 O591 2.032 . S
Zn590 O594 2.086 . S
Zn590 O599 1.977 . S
O591 Zn590 2.032 . S
O591 C595 1.278 . S
C592 O593 1.203 . S
C592 O599 1.267 . S
O593 C592 1.203 . S
O594 C587 1.185 . S
O594 Zn590 2.086 . S
C595 O591 1.278 . S
C595 O596 1.211 . S
O596 C595 1.211 . S
C597 O589 1.284 . S
C597 O598 1.273 . S
O598 C597 1.273 . S
O599 Zn590 1.977 . S
O599 C592 1.267 . S
H600 C608 0.950 . S
H601 C613 0.950 . S
H602 C610 0.950 . S
H603 C612 0.950 . S
H604 C614 0.950 . S
H605 C616 0.950 . S
H606 C618 0.950 . S
H607 C619 0.950 . S
C608 H600 0.950 . S
C608 C609 1.386 . S
C608 C610 1.391 . S
C609 C608 1.386 . S
C609 C613 1.393 . S
C610 H602 0.950 . S
C610 C608 1.391 . S
C610 C611 1.400 . S
C611 C610 1.400 . S
C611 C612 1.398 . S
C611 C617 1.491 . S
C612 H603 0.950 . S
C612 C611 1.398 . S
C612 C613 1.391 . S
C613 H601 0.950 . S
C613 C609 1.393 . S
C613 C612 1.391 . S
C614 H604 0.950 . S
C614 C615 1.386 . S
C614 C616 1.391 . S
C615 C614 1.386 . S
C615 C619 1.393 . S
C616 H605 0.950 . S
C616 C614 1.391 . S
C616 C617 1.400 . S
C617 C611 1.491 . S
C617 C616 1.400 . S
C617 C618 1.398 . S
C618 H606 0.950 . S
C618 C617 1.398 . S
C618 C619 1.391 . S
C619 H607 0.950 . S
C619 C615 1.393 . S
C619 C618 1.391 . S
H620 C628 0.950 . S
H621 C633 0.950 . S
H622 C630 0.950 . S
H623 C632 0.950 . S
H624 C634 0.950 . S
H625 C636 0.950 . S
H626 C638 0.950 . S
H627 C639 0.950 . S
C628 H620 0.950 . S
C628 C629 1.386 . S
C628 C630 1.391 . S
C629 C628 1.386 . S
C629 C633 1.393 . S
C630 H622 0.950 . S
C630 C628 1.391 . S
C630 C631 1.400 . S
C631 C630 1.400 . S
C631 C632 1.398 . S
C631 C637 1.491 . S
C632 H623 0.950 . S
C632 C631 1.398 . S
C632 C633 1.391 . S
C633 H621 0.950 . S
C633 C629 1.393 . S
C633 C632 1.391 . S
C634 H624 0.950 . S
C634 C635 1.386 . S
C634 C636 1.391 . S
C635 C634 1.386 . S
C635 C639 1.393 . S
C636 H625 0.950 . S
C636 C634 1.391 . S
C636 C637 1.400 . S
C637 C631 1.491 . S
C637 C636 1.400 . S
C637 C638 1.398 . S
C638 H626 0.950 . S
C638 C637 1.398 . S
C638 C639 1.391 . S
C639 H627 0.950 . S
C639 C635 1.393 . S
C639 C638 1.391 . S
H640 C648 0.950 . S
H641 C653 0.950 . S
H642 C650 0.950 . S
H643 C652 0.950 . S
H644 C654 0.950 . S
H645 C656 0.950 . S
H646 C658 0.950 . S
H647 C659 0.950 . S
C648 H640 0.950 . S
C648 C649 1.386 . S
C648 C650 1.391 . S
C649 C648 1.386 . S
C649 C653 1.393 . S
C650 H642 0.950 . S
C650 C648 1.391 . S
C650 C651 1.400 . S
C651 C650 1.400 . S
C651 C652 1.398 . S
C651 C657 1.491 . S
C652 H643 0.950 . S
C652 C651 1.398 . S
C652 C653 1.391 . S
C653 H641 0.950 . S
C653 C649 1.393 . S
C653 C652 1.391 . S
C654 H644 0.950 . S
C654 C655 1.386 . S
C654 C656 1.391 . S
C655 C654 1.386 . S
C655 C659 1.393 . S
C656 H645 0.950 . S
C656 C654 1.391 . S
C656 C657 1.400 . S
C657 C651 1.491 . S
C657 C656 1.400 . S
C657 C658 1.398 . S
C658 H646 0.950 . S
C658 C657 1.398 . S
C658 C659 1.391 . S
C659 H647 0.950 . S
C659 C655 1.393 . S
C659 C658 1.391 . S
H660 C668 0.950 . S
H661 C673 0.950 . S
H662 C670 0.950 . S
H663 C672 0.950 . S
H664 C674 0.950 . S
H665 C676 0.950 . S
H666 C678 0.950 . S
H667 C679 0.950 . S
C668 H660 0.950 . S
C668 C669 1.386 . S
C668 C670 1.391 . S
C669 C668 1.386 . S
C669 C673 1.393 . S
C670 H662 0.950 . S
C670 C668 1.391 . S
C670 C671 1.400 . S
C671 C670 1.400 . S
C671 C672 1.398 . S
C671 C677 1.491 . S
C672 H663 0.950 . S
C672 C671 1.398 . S
C672 C673 1.391 . S
C673 H661 0.950 . S
C673 C669 1.393 . S
C673 C672 1.391 . S
C674 H664 0.950 . S
C674 C675 1.386 . S
C674 C676 1.391 . S
C675 C674 1.386 . S
C675 C679 1.393 . S
C676 H665 0.950 . S
C676 C674 1.391 . S
C676 C677 1.400 . S
C677 C671 1.491 . S
C677 C676 1.400 . S
C677 C678 1.398 . S
C678 H666 0.950 . S
C678 C677 1.398 . S
C678 C679 1.391 . S
C679 H667 0.950 . S
C679 C675 1.393 . S
C679 C678 1.391 . S
H680 C688 0.950 . S
H681 C693 0.950 . S
H682 C690 0.950 . S
H683 C692 0.950 . S
H684 C694 0.950 . S
H685 C696 0.950 . S
H686 C698 0.950 . S
H687 C699 0.950 . S
C688 H680 0.950 . S
C688 C689 1.386 1_554 S
C688 C690 1.391 . S
C689 C688 1.386 1_556 S
C689 C693 1.393 . S
C690 H682 0.950 . S
C690 C688 1.391 . S
C690 C691 1.400 1_554 S
C691 C690 1.400 1_556 S
C691 C692 1.398 . S
C691 C697 1.491 . S
C692 H683 0.950 . S
C692 C691 1.398 . S
C692 C693 1.391 . S
C693 H681 0.950 . S
C693 C689 1.393 . S
C693 C692 1.391 . S
C694 H684 0.950 . S
C694 C695 1.431 . S
C694 C696 1.391 . S
C695 C694 1.431 . S
C695 C699 1.351 1_556 S
C696 H685 0.950 . S
C696 C694 1.391 . S
C696 C697 1.400 . S
C697 C691 1.491 . S
C697 C696 1.400 . S
C697 C698 1.398 1_556 S
C698 H686 0.950 . S
C698 C697 1.398 1_554 S
C698 C699 1.391 . S
C699 H687 0.950 . S
C699 C695 1.351 1_554 S
C699 C698 1.391 . S
H700 C708 0.950 . S
H701 C713 0.950 . S
H702 C710 0.950 . S
H703 C712 0.950 . S
H704 C714 0.950 . S
H705 C716 0.950 . S
H706 C718 0.950 . S
H707 C719 0.950 . S
C708 H700 0.950 . S
C708 C709 1.386 . S
C708 C710 1.391 . S
C709 C708 1.386 . S
C709 C713 1.393 . S
C710 H702 0.950 . S
C710 C708 1.391 . S
C710 C711 1.400 . S
C711 C710 1.400 . S
C711 C712 1.398 . S
C711 C717 1.491 . S
C712 H703 0.950 . S
C712 C711 1.398 . S
C712 C713 1.391 . S
C713 H701 0.950 . S
C713 C709 1.393 . S
C713 C712 1.391 . S
C714 H704 0.950 . S
C714 C715 1.386 . S
C714 C716 1.391 . S
C715 C714 1.386 . S
C715 C719 1.393 . S
C716 H705 0.950 . S
C716 C714 1.391 . S
C716 C717 1.400 . S
C717 C711 1.491 . S
C717 C716 1.400 . S
C717 C718 1.398 . S
C718 H706 0.950 . S
C718 C717 1.398 . S
C718 C719 1.391 . S
C719 H707 0.950 . S
C719 C715 1.393 . S
C719 C718 1.391 . S
H720 C728 0.950 . S
H721 C733 0.950 . S
H722 C730 0.950 . S
H723 C732 0.950 . S
H724 C734 0.950 . S
H725 C736 0.950 . S
H726 C738 0.950 . S
H727 C739 0.950 . S
C728 H720 0.950 . S
C728 C729 1.386 . S
C728 C730 1.391 . S
C729 C728 1.386 . S
C729 C733 1.393 . S
C730 H722 0.950 . S
C730 C728 1.391 . S
C730 C731 1.400 . S
C731 C730 1.400 . S
C731 C732 1.398 . S
C731 C737 1.491 . S
C732 H723 0.950 . S
C732 C731 1.398 . S
C732 C733 1.391 . S
C733 H721 0.950 . S
C733 C729 1.393 . S
C733 C732 1.391 . S
C734 H724 0.950 . S
C734 C735 1.386 . S
C734 C736 1.391 . S
C735 C734 1.386 . S
C735 C739 1.393 . S
C736 H725 0.950 . S
C736 C734 1.391 . S
C736 C737 1.400 . S
C737 C731 1.491 . S
C737 C736 1.400 . S
C737 C738 1.398 . S
C738 H726 0.950 . S
C738 C737 1.398 . S
C738 C739 1.391 . S
C739 H727 0.950 . S
C739 C735 1.393 . S
C739 C738 1.391 . S
H740 C748 0.950 . S
H741 C753 0.950 . S
H742 C750 0.950 . S
H743 C752 0.950 . S
H744 C754 0.950 . S
H745 C756 0.950 . S
H746 C758 0.950 . S
H747 C759 0.950 . S
C748 H740 0.950 . S
C748 C749 1.386 . S
C748 C750 1.391 . S
C749 C748 1.386 . S
C749 C753 1.393 . S
C750 H742 0.950 . S
C750 C748 1.391 . S
C750 C751 1.400 . S
C751 C750 1.400 . S
C751 C752 1.398 . S
C751 C757 1.491 . S
C752 H743 0.950 . S
C752 C751 1.398 . S
C752 C753 1.391 . S
C753 H741 0.950 . S
C753 C749 1.393 . S
C753 C752 1.391 . S
C754 H744 0.950 . S
C754 C755 1.386 . S
C754 C756 1.391 . S
C755 C754 1.386 . S
C755 C759 1.393 . S
C756 H745 0.950 . S
C756 C754 1.391 . S
C756 C757 1.400 . S
C757 C751 1.491 . S
C757 C756 1.400 . S
C757 C758 1.398 . S
C758 H746 0.950 . S
C758 C757 1.398 . S
C758 C759 1.391 . S
C759 H747 0.950 . S
C759 C755 1.393 . S
C759 C758 1.391 . S
H760 C768 0.950 . S
H761 C773 0.950 . S
H762 C770 0.950 . S
H763 C772 0.950 . S
H764 C774 0.950 . S
H765 C776 0.950 . S
H766 C778 0.950 . S
H767 C779 0.950 . S
C768 H760 0.950 . S
C768 C769 1.386 . S
C768 C770 1.391 . S
C769 C768 1.386 . S
C769 C773 1.393 . S
C770 H762 0.950 . S
C770 C768 1.391 . S
C770 C771 1.400 . S
C771 C770 1.400 . S
C771 C772 1.398 . S
C771 C777 1.491 . S
C772 H763 0.950 . S
C772 C771 1.398 . S
C772 C773 1.391 . S
C773 H761 0.950 . S
C773 C769 1.393 . S
C773 C772 1.391 . S
C774 H764 0.950 . S
C774 C775 1.386 . S
C774 C776 1.391 . S
C775 C774 1.386 . S
C775 C779 1.393 . S
C776 H765 0.950 . S
C776 C774 1.391 . S
C776 C777 1.400 . S
C777 C771 1.491 . S
C777 C776 1.400 . S
C777 C778 1.398 . S
C778 H766 0.950 . S
C778 C777 1.398 . S
C778 C779 1.391 . S
C779 H767 0.950 . S
C779 C775 1.393 . S
C779 C778 1.391 . S
H780 C788 0.950 . S
H781 C793 0.950 . S
H782 C790 0.950 . S
H783 C792 0.950 . S
H784 C794 0.950 . S
H785 C796 0.950 . S
H786 C798 0.950 . S
H787 C799 0.950 . S
C788 H780 0.950 . S
C788 C789 1.386 . S
C788 C790 1.391 . S
C789 C788 1.386 . S
C789 C793 1.393 . S
C790 H782 0.950 . S
C790 C788 1.391 . S
C790 C791 1.400 . S
C791 C790 1.400 . S
C791 C792 1.398 . S
C791 C797 1.491 . S
C792 H783 0.950 . S
C792 C791 1.398 . S
C792 C793 1.391 . S
C793 H781 0.950 . S
C793 C789 1.393 . S
C793 C792 1.391 . S
C794 H784 0.950 . S
C794 C795 1.386 . S
C794 C796 1.391 . S
C795 C794 1.386 . S
C795 C799 1.393 . S
C796 H785 0.950 . S
C796 C794 1.391 . S
C796 C797 1.400 . S
C797 C791 1.491 . S
C797 C796 1.400 . S
C797 C798 1.398 . S
C798 H786 0.950 . S
C798 C797 1.398 . S
C798 C799 1.391 . S
C799 H787 0.950 . S
C799 C795 1.393 . S
C799 C798 1.391 . S
H800 C808 0.950 . S
H801 C813 0.950 . S
H802 C810 0.950 . S
H803 C812 0.950 . S
H804 C814 0.950 . S
H805 C816 0.950 . S
H806 C818 0.950 . S
H807 C819 0.950 . S
C808 H800 0.950 . S
C808 C809 1.386 . S
C808 C810 1.391 . S
C809 C808 1.386 . S
C809 C813 1.393 . S
C810 H802 0.950 . S
C810 C808 1.391 . S
C810 C811 1.400 . S
C811 C810 1.400 . S
C811 C812 1.398 . S
C811 C817 1.491 . S
C812 H803 0.950 . S
C812 C811 1.398 . S
C812 C813 1.391 . S
C813 H801 0.950 . S
C813 C809 1.393 . S
C813 C812 1.391 . S
C814 H804 0.950 . S
C814 C815 1.386 . S
C814 C816 1.391 . S
C815 C814 1.386 . S
C815 C819 1.393 . S
C816 H805 0.950 . S
C816 C814 1.391 . S
C816 C817 1.400 . S
C817 C811 1.491 . S
C817 C816 1.400 . S
C817 C818 1.398 . S
C818 H806 0.950 . S
C818 C817 1.398 . S
C818 C819 1.391 . S
C819 H807 0.950 . S
C819 C815 1.393 . S
C819 C818 1.391 . S
H820 C828 0.950 . S
H821 C833 0.950 . S
H822 C830 0.950 . S
H823 C832 0.950 . S
H824 C834 0.950 . S
H825 C836 0.950 . S
H826 C838 0.950 . S
H827 C839 0.950 . S
C828 H820 0.950 . S
C828 C829 1.386 . S
C828 C830 1.391 . S
C829 C828 1.386 . S
C829 C833 1.393 . S
C830 H822 0.950 . S
C830 C828 1.391 . S
C830 C831 1.400 . S
C831 C830 1.400 . S
C831 C832 1.398 . S
C831 C837 1.491 . S
C832 H823 0.950 . S
C832 C831 1.398 . S
C832 C833 1.391 . S
C833 H821 0.950 . S
C833 C829 1.393 . S
C833 C832 1.391 . S
C834 H824 0.950 . S
C834 C835 1.386 . S
C834 C836 1.391 . S
C835 C834 1.386 . S
C835 C839 1.393 . S
C836 H825 0.950 . S
C836 C834 1.391 . S
C836 C837 1.400 . S
C837 C831 1.491 . S
C837 C836 1.400 . S
C837 C838 1.398 . S
C838 H826 0.950 . S
C838 C837 1.398 . S
C838 C839 1.391 . S
C839 H827 0.950 . S
C839 C835 1.393 . S
C839 C838 1.391 . S
H840 C848 0.950 . S
H841 C853 0.950 . S
H842 C850 0.950 . S
H843 C852 0.950 . S
H844 C854 0.950 . S
H845 C856 0.950 . S
H846 C858 0.950 . S
H847 C859 0.950 . S
C848 H840 0.950 . S
C848 C849 1.386 . S
C848 C850 1.391 . S
C849 C848 1.386 . S
C849 C853 1.393 . S
C850 H842 0.950 . S
C850 C848 1.391 . S
C850 C851 1.400 . S
C851 C850 1.400 . S
C851 C852 1.398 . S
C851 C857 1.491 . S
C852 H843 0.950 . S
C852 C851 1.398 . S
C852 C853 1.391 . S
C853 H841 0.950 . S
C853 C849 1.393 . S
C853 C852 1.391 . S
C854 H844 0.950 . S
C854 C855 1.386 . S
C854 C856 1.391 . S
C855 C854 1.386 . S
C855 C859 1.393 . S
C856 H845 0.950 . S
C856 C854 1.391 . S
C856 C857 1.400 . S
C857 C851 1.491 . S
C857 C856 1.400 . S
C857 C858 1.398 . S
C858 H846 0.950 . S
C858 C857 1.398 . S
C858 C859 1.391 . S
C859 H847 0.950 . S
C859 C855 1.393 . S
C859 C858 1.391 . S
H860 C868 0.950 . S
H861 C873 0.950 . S
H862 C870 0.950 . S
H863 C872 0.950 . S
H864 C874 0.950 . S
H865 C876 0.950 . S
H866 C878 0.950 . S
H867 C879 0.950 . S
C868 H860 0.950 . S
C868 C869 1.386 . S
C868 C870 1.391 . S
C869 C868 1.386 . S
C869 C873 1.393 . S
C870 H862 0.950 . S
C870 C868 1.391 . S
C870 C871 1.400 . S
C871 C870 1.400 . S
C871 C872 1.398 . S
C871 C877 1.491 . S
C872 H863 0.950 . S
C872 C871 1.398 . S
C872 C873 1.391 . S
C873 H861 0.950 . S
C873 C869 1.393 . S
C873 C872 1.391 . S
C874 H864 0.950 . S
C874 C875 1.386 . S
C874 C876 1.391 . S
C875 C874 1.386 . S
C875 C879 1.393 . S
C876 H865 0.950 . S
C876 C874 1.391 . S
C876 C877 1.400 . S
C877 C871 1.491 . S
C877 C876 1.400 . S
C877 C878 1.398 . S
C878 H866 0.950 . S
C878 C877 1.398 . S
C878 C879 1.391 . S
C879 H867 0.950 . S
C879 C875 1.393 . S
C879 C878 1.391 . S
H880 C888 0.950 . S
H881 C893 0.950 . S
H882 C890 0.950 . S
H883 C892 0.950 . S
H884 C894 0.950 . S
H885 C896 0.950 . S
H886 C898 0.950 . S
H887 C899 0.950 . S
C888 H880 0.950 . S
C888 C889 1.386 1_554 S
C888 C890 1.391 . S
C889 C888 1.386 1_556 S
C889 C893 1.393 . S
C890 H882 0.950 . S
C890 C888 1.391 . S
C890 C891 1.400 1_554 S
C891 C890 1.400 1_556 S
C891 C892 1.398 . S
C891 C897 1.491 . S
C892 H883 0.950 . S
C892 C891 1.398 . S
C892 C893 1.391 . S
C893 H881 0.950 . S
C893 C889 1.393 . S
C893 C892 1.391 . S
C894 H884 0.950 . S
C894 C895 1.411 . S
C894 C896 1.391 . S
C895 C894 1.411 . S
C895 C899 1.369 1_556 S
C896 H885 0.950 . S
C896 C894 1.391 . S
C896 C897 1.400 . S
C897 C891 1.491 . S
C897 C896 1.400 . S
C897 C898 1.398 1_556 S
C898 H886 0.950 . S
C898 C897 1.398 1_554 S
C898 C899 1.391 . S
C899 H887 0.950 . S
C899 C895 1.369 1_554 S
C899 C898 1.391 . S
H900 C908 0.950 . S
H901 C913 0.950 . S
H902 C910 0.950 . S
H903 C912 0.950 . S
H904 C914 0.950 . S
H905 C916 0.950 . S
H906 C918 0.950 . S
H907 C919 0.950 . S
C908 H900 0.950 . S
C908 C909 1.386 . S
C908 C910 1.391 . S
C909 C908 1.386 . S
C909 C913 1.393 . S
C910 H902 0.950 . S
C910 C908 1.391 . S
C910 C911 1.400 . S
C911 C910 1.400 . S
C911 C912 1.398 . S
C911 C917 1.491 . S
C912 H903 0.950 . S
C912 C911 1.398 . S
C912 C913 1.391 . S
C913 H901 0.950 . S
C913 C909 1.393 . S
C913 C912 1.391 . S
C914 H904 0.950 . S
C914 C915 1.386 . S
C914 C916 1.391 . S
C915 C914 1.386 . S
C915 C919 1.393 . S
C916 H905 0.950 . S
C916 C914 1.391 . S
C916 C917 1.400 . S
C917 C911 1.491 . S
C917 C916 1.400 . S
C917 C918 1.398 . S
C918 H906 0.950 . S
C918 C917 1.398 . S
C918 C919 1.391 . S
C919 H907 0.950 . S
C919 C915 1.393 . S
C919 C918 1.391 . S
H920 C928 0.950 . S
H921 C933 0.950 . S
H922 C930 0.950 . S
H923 C932 0.950 . S
H924 C934 0.950 . S
H925 C936 0.950 . S
H926 C938 0.950 . S
H927 C939 0.950 . S
C928 H920 0.950 . S
C928 C929 1.386 . S
C928 C930 1.391 . S
C929 C928 1.386 . S
C929 C933 1.393 . S
C930 H922 0.950 . S
C930 C928 1.391 . S
C930 C931 1.400 . S
C931 C930 1.400 . S
C931 C932 1.398 . S
C931 C937 1.491 . S
C932 H923 0.950 . S
C932 C931 1.398 . S
C932 C933 1.391 . S
C933 H921 0.950 . S
C933 C929 1.393 . S
C933 C932 1.391 . S
C934 H924 0.950 . S
C934 C935 1.386 . S
C934 C936 1.391 . S
C935 C934 1.386 . S
C935 C939 1.393 . S
C936 H925 0.950 . S
C936 C934 1.391 . S
C936 C937 1.400 . S
C937 C931 1.491 . S
C937 C936 1.400 . S
C937 C938 1.398 . S
C938 H926 0.950 . S
C938 C937 1.398 . S
C938 C939 1.391 . S
C939 H927 0.950 . S
C939 C935 1.393 . S
C939 C938 1.391 . S
H940 C948 0.950 . S
H941 C953 0.950 . S
H942 C950 0.950 . S
H943 C952 0.950 . S
H944 C954 0.950 . S
H945 C956 0.950 . S
H946 C958 0.950 . S
H947 C959 0.950 . S
C948 H940 0.950 . S
C948 C949 1.386 . S
C948 C950 1.391 . S
C949 C948 1.386 . S
C949 C953 1.393 . S
C950 H942 0.950 . S
C950 C948 1.391 . S
C950 C951 1.400 . S
C951 C950 1.400 . S
C951 C952 1.398 . S
C951 C957 1.491 . S
C952 H943 0.950 . S
C952 C951 1.398 . S
C952 C953 1.391 . S
C953 H941 0.950 . S
C953 C949 1.393 . S
C953 C952 1.391 . S
C954 H944 0.950 . S
C954 C955 1.386 . S
C954 C956 1.391 . S
C955 C954 1.386 . S
C955 C959 1.393 . S
C956 H945 0.950 . S
C956 C954 1.391 . S
C956 C957 1.400 . S
C957 C951 1.491 . S
C957 C956 1.400 . S
C957 C958 1.398 . S
C958 H946 0.950 . S
C958 C957 1.398 . S
C958 C959 1.391 . S
C959 H947 0.950 . S
C959 C955 1.393 . S
C959 C958 1.391 . S
H960 C968 0.950 . S
H961 C973 0.950 . S
H962 C970 0.950 . S
H963 C972 0.950 . S
H964 C974 0.950 . S
H965 C976 0.950 . S
H966 C978 0.950 . S
H967 C979 0.950 . S
C968 H960 0.950 . S
C968 C969 1.386 . S
C968 C970 1.391 . S
C969 C968 1.386 . S
C969 C973 1.393 . S
C970 H962 0.950 . S
C970 C968 1.391 . S
C970 C971 1.400 . S
C971 C970 1.400 . S
C971 C972 1.398 . S
C971 C977 1.491 . S
C972 H963 0.950 . S
C972 C971 1.398 . S
C972 C973 1.391 . S
C973 H961 0.950 . S
C973 C969 1.393 . S
C973 C972 1.391 . S
C974 H964 0.950 . S
C974 C975 1.386 . S
C974 C976 1.391 . S
C975 C974 1.386 . S
C975 C979 1.393 . S
C976 H965 0.950 . S
C976 C974 1.391 . S
C976 C977 1.400 . S
C977 C971 1.491 . S
C977 C976 1.400 . S
C977 C978 1.398 . S
C978 H966 0.950 . S
C978 C977 1.398 . S
C978 C979 1.391 . S
C979 H967 0.950 . S
C979 C975 1.393 . S
C979 C978 1.391 . S
H980 C988 0.950 . S
H981 C993 0.950 . S
H982 C990 0.950 . S
H983 C992 0.950 . S
H984 C994 0.950 . S
H985 C996 0.950 . S
H986 C998 0.950 . S
H987 C999 0.950 . S
C988 H980 0.950 . S
C988 C989 1.386 . S
C988 C990 1.391 . S
C989 C988 1.386 . S
C989 C993 1.393 . S
C990 H982 0.950 . S
C990 C988 1.391 . S
C990 C991 1.400 . S
C991 C990 1.400 . S
C991 C992 1.398 . S
C991 C997 1.491 . S
C992 H983 0.950 . S
C992 C991 1.398 . S
C992 C993 1.391 . S
C993 H981 0.950 . S
C993 C989 1.393 . S
C993 C992 1.391 . S
C994 H984 0.950 . S
C994 C995 1.386 . S
C994 C996 1.391 . S
C995 C994 1.386 . S
C995 C999 1.393 . S
C996 H985 0.950 . S
C996 C994 1.391 . S
C996 C997 1.400 . S
C997 C991 1.491 . S
C997 C996 1.400 . S
C997 C998 1.398 . S
C998 H986 0.950 . S
C998 C997 1.398 . S
C998 C999 1.391 . S
C999 H987 0.950 . S
C999 C995 1.393 . S
C999 C998 1.391 . S
H1000 C1008 0.950 . S
H1001 C1013 0.950 . S
H1002 C1010 0.950 . S
H1003 C1012 0.950 . S
H1004 C1014 0.950 . S
H1005 C1016 0.950 . S
H1006 C1018 0.950 . S
H1007 C1019 0.950 . S
C1008 H1000 0.950 . S
C1008 C1009 1.386 . S
C1008 C1010 1.391 . S
C1009 C1008 1.386 . S
C1009 C1013 1.393 . S
C1010 H1002 0.950 . S
C1010 C1008 1.391 . S
C1010 C1011 1.400 . S
C1011 C1010 1.400 . S
C1011 C1012 1.398 . S
C1011 C1017 1.491 . S
C1012 H1003 0.950 . S
C1012 C1011 1.398 . S
C1012 C1013 1.391 . S
C1013 H1001 0.950 . S
C1013 C1009 1.393 . S
C1013 C1012 1.391 . S
C1014 H1004 0.950 . S
C1014 C1015 1.386 . S
C1014 C1016 1.391 . S
C1015 C1014 1.386 . S
C1015 C1019 1.393 . S
C1016 H1005 0.950 . S
C1016 C1014 1.391 . S
C1016 C1017 1.400 . S
C1017 C1011 1.491 . S
C1017 C1016 1.400 . S
C1017 C1018 1.398 . S
C1018 H1006 0.950 . S
C1018 C1017 1.398 . S
C1018 C1019 1.391 . S
C1019 H1007 0.950 . S
C1019 C1015 1.393 . S
C1019 C1018 1.391 . S
H1020 C1028 0.950 . S
H1021 C1033 0.950 . S
H1022 C1030 0.950 . S
H1023 C1032 0.950 . S
H1024 C1034 0.950 . S
H1025 C1036 0.950 . S
H1026 C1038 0.950 . S
H1027 C1039 0.950 . S
C1028 H1020 0.950 . S
C1028 C1029 1.386 . S
C1028 C1030 1.391 . S
C1029 C1028 1.386 . S
C1029 C1033 1.393 . S
C1030 H1022 0.950 . S
C1030 C1028 1.391 . S
C1030 C1031 1.400 . S
C1031 C1030 1.400 . S
C1031 C1032 1.398 . S
C1031 C1037 1.491 . S
C1032 H1023 0.950 . S
C1032 C1031 1.398 . S
C1032 C1033 1.391 . S
C1033 H1021 0.950 . S
C1033 C1029 1.393 . S
C1033 C1032 1.391 . S
C1034 H1024 0.950 . S
C1034 C1035 1.386 . S
C1034 C1036 1.391 . S
C1035 C1034 1.386 . S
C1035 C1039 1.393 . S
C1036 H1025 0.950 . S
C1036 C1034 1.391 . S
C1036 C1037 1.400 . S
C1037 C1031 1.491 . S
C1037 C1036 1.400 . S
C1037 C1038 1.398 . S
C1038 H1026 0.950 . S
C1038 C1037 1.398 . S
C1038 C1039 1.391 . S
C1039 H1027 0.950 . S
C1039 C1035 1.393 . S
C1039 C1038 1.391 . S
H1040 C1048 0.950 . S
H1041 C1053 0.950 . S
H1042 C1050 0.950 . S
H1043 C1052 0.950 . S
H1044 C1054 0.950 . S
H1045 C1056 0.950 . S
H1046 C1058 0.950 . S
H1047 C1059 0.950 . S
C1048 H1040 0.950 . S
C1048 C1049 1.386 . S
C1048 C1050 1.391 . S
C1049 C1048 1.386 . S
C1049 C1053 1.393 . S
C1050 H1042 0.950 . S
C1050 C1048 1.391 . S
C1050 C1051 1.400 . S
C1051 C1050 1.400 . S
C1051 C1052 1.398 . S
C1051 C1057 1.491 . S
C1052 H1043 0.950 . S
C1052 C1051 1.398 . S
C1052 C1053 1.391 . S
C1053 H1041 0.950 . S
C1053 C1049 1.393 . S
C1053 C1052 1.391 . S
C1054 H1044 0.950 . S
C1054 C1055 1.386 . S
C1054 C1056 1.391 . S
C1055 C1054 1.386 . S
C1055 C1059 1.393 . S
C1056 H1045 0.950 . S
C1056 C1054 1.391 . S
C1056 C1057 1.400 . S
C1057 C1051 1.491 . S
C1057 C1056 1.400 . S
C1057 C1058 1.398 . S
C1058 H1046 0.950 . S
C1058 C1057 1.398 . S
C1058 C1059 1.391 . S
C1059 H1047 0.950 . S
C1059 C1055 1.393 . S
C1059 C1058 1.391 . S
H1060 C1068 0.950 . S
H1061 C1073 0.950 . S
H1062 C1070 0.950 . S
H1063 C1072 0.950 . S
H1064 C1074 0.950 . S
H1065 C1076 0.950 . S
H1066 C1078 0.950 . S
H1067 C1079 0.950 . S
C1068 H1060 0.950 . S
C1068 C1069 1.386 . S
C1068 C1070 1.391 . S
C1069 C1068 1.386 . S
C1069 C1073 1.393 . S
C1070 H1062 0.950 . S
C1070 C1068 1.391 . S
C1070 C1071 1.400 . S
C1071 C1070 1.400 . S
C1071 C1072 1.398 . S
C1071 C1077 1.491 . S
C1072 H1063 0.950 . S
C1072 C1071 1.398 . S
C1072 C1073 1.391 . S
C1073 H1061 0.950 . S
C1073 C1069 1.393 . S
C1073 C1072 1.391 . S
C1074 H1064 0.950 . S
C1074 C1075 1.386 . S
C1074 C1076 1.391 . S
C1075 C1074 1.386 . S
C1075 C1079 1.393 . S
C1076 H1065 0.950 . S
C1076 C1074 1.391 . S
C1076 C1077 1.400 . S
C1077 C1071 1.491 . S
C1077 C1076 1.400 . S
C1077 C1078 1.398 . S
C1078 H1066 0.950 . S
C1078 C1077 1.398 . S
C1078 C1079 1.391 . S
C1079 H1067 0.950 . S
C1079 C1075 1.393 . S
C1079 C1078 1.391 . S
H1080 C1088 0.950 . S
H1081 C1093 0.950 . S
H1082 C1090 0.950 . S
H1083 C1092 0.950 . S
H1084 C1094 0.950 . S
H1085 C1096 0.950 . S
H1086 C1098 0.950 . S
H1087 C1099 0.950 . S
C1088 H1080 0.950 . S
C1088 C1089 1.386 . S
C1088 C1090 1.391 . S
C1089 C1088 1.386 . S
C1089 C1093 1.393 . S
C1090 H1082 0.950 . S
C1090 C1088 1.391 . S
C1090 C1091 1.400 . S
C1091 C1090 1.400 . S
C1091 C1092 1.398 . S
C1091 C1097 1.491 . S
C1092 H1083 0.950 . S
C1092 C1091 1.398 . S
C1092 C1093 1.391 . S
C1093 H1081 0.950 . S
C1093 C1089 1.393 . S
C1093 C1092 1.391 . S
C1094 H1084 0.950 . S
C1094 C1095 1.386 . S
C1094 C1096 1.391 . S
C1095 C1094 1.386 . S
C1095 C1099 1.393 . S
C1096 H1085 0.950 . S
C1096 C1094 1.391 . S
C1096 C1097 1.400 . S
C1097 C1091 1.491 . S
C1097 C1096 1.400 . S
C1097 C1098 1.398 . S
C1098 H1086 0.950 . S
C1098 C1097 1.398 . S
C1098 C1099 1.391 . S
C1099 H1087 0.950 . S
C1099 C1095 1.393 . S
C1099 C1098 1.391 . S
H1100 C1108 0.950 . S
H1101 C1113 0.950 . S
H1102 C1110 0.950 . S
H1103 C1112 0.950 . S
H1104 C1114 0.950 . S
H1105 C1116 0.950 . S
H1106 C1118 0.950 . S
H1107 C1119 0.950 . S
C1108 H1100 0.950 . S
C1108 C1109 1.386 . S
C1108 C1110 1.391 . S
C1109 C1108 1.386 . S
C1109 C1113 1.393 . S
C1110 H1102 0.950 . S
C1110 C1108 1.391 . S
C1110 C1111 1.400 . S
C1111 C1110 1.400 . S
C1111 C1112 1.398 . S
C1111 C1117 1.491 . S
C1112 H1103 0.950 . S
C1112 C1111 1.398 . S
C1112 C1113 1.391 . S
C1113 H1101 0.950 . S
C1113 C1109 1.393 . S
C1113 C1112 1.391 . S
C1114 H1104 0.950 . S
C1114 C1115 1.386 . S
C1114 C1116 1.391 . S
C1115 C1114 1.386 . S
C1115 C1119 1.393 . S
C1116 H1105 0.950 . S
C1116 C1114 1.391 . S
C1116 C1117 1.400 . S
C1117 C1111 1.491 . S
C1117 C1116 1.400 . S
C1117 C1118 1.398 . S
C1118 H1106 0.950 . S
C1118 C1117 1.398 . S
C1118 C1119 1.391 . S
C1119 H1107 0.950 . S
C1119 C1115 1.393 . S
C1119 C1118 1.391 . S
H1120 C1128 0.950 . S
H1121 C1133 0.950 . S
H1122 C1130 0.950 . S
H1123 C1132 0.950 . S
H1124 C1134 0.950 . S
H1125 C1136 0.950 . S
H1126 C1138 0.950 . S
H1127 C1139 0.950 . S
C1128 H1120 0.950 . S
C1128 C1129 1.386 . S
C1128 C1130 1.391 . S
C1129 C1128 1.386 . S
C1129 C1133 1.393 . S
C1130 H1122 0.950 . S
C1130 C1128 1.391 . S
C1130 C1131 1.400 . S
C1131 C1130 1.400 . S
C1131 C1132 1.398 . S
C1131 C1137 1.491 . S
C1132 H1123 0.950 . S
C1132 C1131 1.398 . S
C1132 C1133 1.391 . S
C1133 H1121 0.950 . S
C1133 C1129 1.393 . S
C1133 C1132 1.391 . S
C1134 H1124 0.950 . S
C1134 C1135 1.386 . S
C1134 C1136 1.391 . S
C1135 C1134 1.386 . S
C1135 C1139 1.393 . S
C1136 H1125 0.950 . S
C1136 C1134 1.391 . S
C1136 C1137 1.400 . S
C1137 C1131 1.491 . S
C1137 C1136 1.400 . S
C1137 C1138 1.398 . S
C1138 H1126 0.950 . S
C1138 C1137 1.398 . S
C1138 C1139 1.391 . S
C1139 H1127 0.950 . S
C1139 C1135 1.393 . S
C1139 C1138 1.391 . S
H1140 C1148 0.950 . S
H1141 C1153 0.950 . S
H1142 C1150 0.950 . S
H1143 C1152 0.950 . S
H1144 C1154 0.950 . S
H1145 C1156 0.950 . S
H1146 C1158 0.950 . S
H1147 C1159 0.950 . S
C1148 H1140 0.950 . S
C1148 C1149 1.386 . S
C1148 C1150 1.391 . S
C1149 C1148 1.386 . S
C1149 C1153 1.393 . S
C1150 H1142 0.950 . S
C1150 C1148 1.391 . S
C1150 C1151 1.400 . S
C1151 C1150 1.400 . S
C1151 C1152 1.398 . S
C1151 C1157 1.491 . S
C1152 H1143 0.950 . S
C1152 C1151 1.398 . S
C1152 C1153 1.391 . S
C1153 H1141 0.950 . S
C1153 C1149 1.393 . S
C1153 C1152 1.391 . S
C1154 H1144 0.950 . S
C1154 C1155 1.386 . S
C1154 C1156 1.391 . S
C1155 C1154 1.386 . S
C1155 C1159 1.393 . S
C1156 H1145 0.950 . S
C1156 C1154 1.391 . S
C1156 C1157 1.400 . S
C1157 C1151 1.491 . S
C1157 C1156 1.400 . S
C1157 C1158 1.398 . S
C1158 H1146 0.950 . S
C1158 C1157 1.398 . S
C1158 C1159 1.391 . S
C1159 H1147 0.950 . S
C1159 C1155 1.393 . S
C1159 C1158 1.391 . S
H1160 C1168 0.950 . S
H1161 C1173 0.950 . S
H1162 C1170 0.950 . S
H1163 C1172 0.950 . S
H1164 C1174 0.950 . S
H1165 C1176 0.950 . S
H1166 C1178 0.950 . S
H1167 C1179 0.950 . S
C1168 H1160 0.950 . S
C1168 C1169 1.386 . S
C1168 C1170 1.391 . S
C1169 C1168 1.386 . S
C1169 C1173 1.393 . S
C1170 H1162 0.950 . S
C1170 C1168 1.391 . S
C1170 C1171 1.400 . S
C1171 C1170 1.400 . S
C1171 C1172 1.398 . S
C1171 C1177 1.491 . S
C1172 H1163 0.950 . S
C1172 C1171 1.398 . S
C1172 C1173 1.391 . S
C1173 H1161 0.950 . S
C1173 C1169 1.393 . S
C1173 C1172 1.391 . S
C1174 H1164 0.950 . S
C1174 C1175 1.386 . S
C1174 C1176 1.391 . S
C1175 C1174 1.386 . S
C1175 C1179 1.393 . S
C1176 H1165 0.950 . S
C1176 C1174 1.391 . S
C1176 C1177 1.400 . S
C1177 C1171 1.491 . S
C1177 C1176 1.400 . S
C1177 C1178 1.398 . S
C1178 H1166 0.950 . S
C1178 C1177 1.398 . S
C1178 C1179 1.391 . S
C1179 H1167 0.950 . S
C1179 C1175 1.393 . S
C1179 C1178 1.391 . S
H1180 C1188 0.950 . S
H1181 C1193 0.950 . S
H1182 C1190 0.950 . S
H1183 C1192 0.950 . S
H1184 C1194 0.950 . S
H1185 C1196 0.950 . S
H1186 C1198 0.950 . S
H1187 C1199 0.950 . S
C1188 H1180 0.950 . S
C1188 C1189 1.386 . S
C1188 C1190 1.391 . S
C1189 C1188 1.386 . S
C1189 C1193 1.393 . S
C1190 H1182 0.950 . S
C1190 C1188 1.391 . S
C1190 C1191 1.400 . S
C1191 C1190 1.400 . S
C1191 C1192 1.398 . S
C1191 C1197 1.491 . S
C1192 H1183 0.950 . S
C1192 C1191 1.398 . S
C1192 C1193 1.391 . S
C1193 H1181 0.950 . S
C1193 C1189 1.393 . S
C1193 C1192 1.391 . S
C1194 H1184 0.950 . S
C1194 C1195 1.386 . S
C1194 C1196 1.391 . S
C1195 C1194 1.386 . S
C1195 C1199 1.393 . S
C1196 H1185 0.950 . S
C1196 C1194 1.391 . S
C1196 C1197 1.400 . S
C1197 C1191 1.491 . S
C1197 C1196 1.400 . S
C1197 C1198 1.398 . S
C1198 H1186 0.950 . S
C1198 C1197 1.398 . S
C1198 C1199 1.391 . S
C1199 H1187 0.950 . S
C1199 C1195 1.393 . S
C1199 C1198 1.391 . S
H1200 C1208 0.950 . S
H1201 C1213 0.950 . S
H1202 C1210 0.950 . S
H1203 C1212 0.950 . S
H1204 C1214 0.950 . S
H1205 C1216 0.950 . S
H1206 C1218 0.950 . S
H1207 C1219 0.950 . S
C1208 H1200 0.950 . S
C1208 C1209 1.386 . S
C1208 C1210 1.391 . S
C1209 C1208 1.386 . S
C1209 C1213 1.393 . S
C1210 H1202 0.950 . S
C1210 C1208 1.391 . S
C1210 C1211 1.400 . S
C1211 C1210 1.400 . S
C1211 C1212 1.398 . S
C1211 C1217 1.491 . S
C1212 H1203 0.950 . S
C1212 C1211 1.398 . S
C1212 C1213 1.391 . S
C1213 H1201 0.950 . S
C1213 C1209 1.393 . S
C1213 C1212 1.391 . S
C1214 H1204 0.950 . S
C1214 C1215 1.386 . S
C1214 C1216 1.391 . S
C1215 C1214 1.386 . S
C1215 C1219 1.393 . S
C1216 H1205 0.950 . S
C1216 C1214 1.391 . S
C1216 C1217 1.400 . S
C1217 C1211 1.491 . S
C1217 C1216 1.400 . S
C1217 C1218 1.398 . S
C1218 H1206 0.950 . S
C1218 C1217 1.398 . S
C1218 C1219 1.391 . S
C1219 H1207 0.950 . S
C1219 C1215 1.393 . S
C1219 C1218 1.391 . S
H1220 C1228 0.950 . S
H1221 C1233 0.950 . S
H1222 C1230 0.950 . S
H1223 C1232 0.950 . S
H1224 C1234 0.950 . S
H1225 C1236 0.950 . S
H1226 C1238 0.950 . S
H1227 C1239 0.950 . S
C1228 H1220 0.950 . S
C1228 C1229 1.386 . S
C1228 C1230 1.391 . S
C1229 C1228 1.386 . S
C1229 C1233 1.393 . S
C1230 H1222 0.950 . S
C1230 C1228 1.391 . S
C1230 C1231 1.400 . S
C1231 C1230 1.400 . S
C1231 C1232 1.398 . S
C1231 C1237 1.491 . S
C1232 H1223 0.950 . S
C1232 C1231 1.398 . S
C1232 C1233 1.391 . S
C1233 H1221 0.950 . S
C1233 C1229 1.393 . S
C1233 C1232 1.391 . S
C1234 H1224 0.950 . S
C1234 C1235 1.386 . S
C1234 C1236 1.391 . S
C1235 C1234 1.386 . S
C1235 C1239 1.393 . S
C1236 H1225 0.950 . S
C1236 C1234 1.391 . S
C1236 C1237 1.400 . S
C1237 C1231 1.491 . S
C1237 C1236 1.400 . S
C1237 C1238 1.398 . S
C1238 H1226 0.950 . S
C1238 C1237 1.398 . S
C1238 C1239 1.391 . S
C1239 H1227 0.950 . S
C1239 C1235 1.393 . S
C1239 C1238 1.391 . S
C615 C509 1.422 . S
C609 C35 1.364 . S
C635 C527 1.446 . S
C629 C115 1.339 . S
C655 C535 1.434 . S
C649 C177 1.364 . S
C669 C221 1.332 . S
C675 C501 1.453 . S
C689 C283 1.345 . S
C695 C496 1.414 1_556 S
C709 C363 1.381 . S
C715 C514 1.445 . S
C735 C522 1.435 . S
C729 C407 1.361 . S
C755 C540 1.454 . S
C749 C469 1.371 . S
C769 C159 1.331 . S
C775 C561 1.424 . S
C795 C579 1.446 . S
C789 C239 1.337 . S
C809 C53 1.333 . S
C815 C587 1.418 . S
C835 C553 1.443 . S
C829 C97 1.341 . S
C849 C425 1.371 . S
C855 C548 1.433 . S
C869 C487 1.340 . S
C875 C566 1.445 . S
C895 C574 1.420 1_556 S
C889 C301 1.351 . S
C909 C345 1.369 . S
C915 C592 1.455 . S
C935 C530 1.671 . S
C929 C29 1.640 . S
C955 C545 1.644 . S
C949 C109 1.622 . S
C969 C171 1.602 . S
C975 C504 1.672 . S
C989 C215 1.645 . S
C995 C519 1.642 . S
C1009 C277 1.651 . S
C1015 C543 1.671 . S
C1035 C506 1.630 . S
C1029 C357 1.606 . S
C1055 C517 1.666 . S
C1049 C401 1.646 . S
C1075 C532 1.632 . S
C1069 C463 1.647 . S
C1095 C582 1.666 . S
C1089 C153 1.647 . S
C1115 C597 1.640 . S
C1109 C233 1.617 . S
C1129 C47 1.624 . S
C1135 C556 1.668 . S
C1155 C571 1.645 . S
C1149 C91 1.657 . S
C1175 C595 1.673 . S
C1169 C419 1.606 . S
C1189 C481 1.624 . S
C1195 C558 1.644 . S
C1215 C569 1.672 . S
C1209 C295 1.614 . S
C1235 C584 1.640 . S
C1229 C339 1.646 . S
