# Generated by pormake.
# Topology anh, (6,3)-cn, num edge types: 1
# Building blocks:
#     Node 0, Type 0, BuildingBlock: BETDAH_clean_sbu_0, # of connection points: 6
#     Node 1, Type 0, BuildingBlock: BETDAH_clean_sbu_0, # of connection points: 6
#     Node 2, Type 0, BuildingBlock: BETDAH_clean_sbu_0, # of connection points: 6
#     Node 3, Type 1, BuildingBlock: BETDIP_clean_linker_0, # of connection points: 3
#     Node 4, Type 1, BuildingBlock: BETDIP_clean_linker_0, # of connection points: 3
#     Node 5, Type 1, BuildingBlock: BETDIP_clean_linker_0, # of connection points: 3
#     Node 6, Type 1, BuildingBlock: BETDIP_clean_linker_0, # of connection points: 3
#     Node 7, Type 1, BuildingBlock: BETDIP_clean_linker_0, # of connection points: 3
#     Node 8, Type 1, BuildingBlock: BETDIP_clean_linker_0, # of connection points: 3
#     Edge 9, Type (0, 1), BuildingBlock: EZIPEK_clean_linker_0, # of connection points: 2
#     Edge 10, Type (0, 1), BuildingBlock: EZIPEK_clean_linker_0, # of connection points: 2
#     Edge 11, Type (0, 1), BuildingBlock: EZIPEK_clean_linker_0, # of connection points: 2
#     Edge 12, Type (0, 1), BuildingBlock: EZIPEK_clean_linker_0, # of connection points: 2
#     Edge 13, Type (0, 1), BuildingBlock: EZIPEK_clean_linker_0, # of connection points: 2
#     Edge 14, Type (0, 1), BuildingBlock: EZIPEK_clean_linker_0, # of connection points: 2
#     Edge 15, Type (0, 1), BuildingBlock: EZIPEK_clean_linker_0, # of connection points: 2
#     Edge 16, Type (0, 1), BuildingBlock: EZIPEK_clean_linker_0, # of connection points: 2
#     Edge 17, Type (0, 1), BuildingBlock: EZIPEK_clean_linker_0, # of connection points: 2
#     Edge 18, Type (0, 1), BuildingBlock: EZIPEK_clean_linker_0, # of connection points: 2
#     Edge 19, Type (0, 1), BuildingBlock: EZIPEK_clean_linker_0, # of connection points: 2
#     Edge 20, Type (0, 1), BuildingBlock: EZIPEK_clean_linker_0, # of connection points: 2
#     Edge 21, Type (0, 1), BuildingBlock: EZIPEK_clean_linker_0, # of connection points: 2
#     Edge 22, Type (0, 1), BuildingBlock: EZIPEK_clean_linker_0, # of connection points: 2
#     Edge 23, Type (0, 1), BuildingBlock: EZIPEK_clean_linker_0, # of connection points: 2
#     Edge 24, Type (0, 1), BuildingBlock: EZIPEK_clean_linker_0, # of connection points: 2
#     Edge 25, Type (0, 1), BuildingBlock: EZIPEK_clean_linker_0, # of connection points: 2
#     Edge 26, Type (0, 1), BuildingBlock: EZIPEK_clean_linker_0, # of connection points: 2
# Relax obj value: 0.221
# Max RMSD: 0.211
# Mean RMSD: 0.136
data_MOF--net-anh--node1-BETDAH_clean_sbu_0--node2-BETDIP_clean_linker_0--edge1-EZIPEK_clean_linker_0
_symmetry_space_group_name_H-M    P1
_symmetry_Int_Tables_number       1
_symmetry_cell_setting            triclinic
loop_
_symmetry_equiv_pos_as_xyz
'x, y, z'
_cell_length_a     24.595836
_cell_length_b     29.735083
_cell_length_c     36.323276
_cell_angle_alpha  95.488635
_cell_angle_beta   89.00807
_cell_angle_gamma 132.55515
loop_
_atom_site_label
_atom_site_type_symbol
_atom_site_fract_x
_atom_site_fract_y
_atom_site_fract_z
_atom_type_partial_charge
Ho0 Ho 0.15744 0.58059 0.1439 0.0
Ho1 Ho 1.05399 0.60533 0.15861 0.0
C2 C 0.23317 0.724 0.1589 0.0
C3 C 0.22678 0.55502 0.10881 0.0
C4 C 0.23544 0.51152 0.11189 0.0
C5 C 0.28665 0.51612 0.09065 0.0
C6 C 0.2961 0.47534 0.09331 0.0
C7 C 0.25444 0.42954 0.11723 0.0
C8 C 0.20332 0.42498 0.13876 0.0
C9 C 0.19393 0.46603 0.13614 0.0
C10 C 0.14231 0.58638 0.21774 0.0
C11 C 0.97996 0.46376 0.15396 0.0
C12 C 0.9682 0.62253 0.17783 0.0
C13 C 0.88713 0.57624 0.16966 0.0
C14 C 0.84484 0.51674 0.1802 0.0
C15 C 0.77477 0.46773 0.16321 0.0
C16 C 0.74556 0.47728 0.13558 0.0
C17 C 0.7844 0.53721 0.12727 0.0
C18 C 0.85488 0.58647 0.14425 0.0
C19 C 1.06294 0.57607 0.08728 0.0
O20 O 0.24203 0.68534 0.14793 0.0
O21 O 0.16669 0.70344 0.16602 0.0
O22 O 0.16033 0.53079 0.09796 0.0
O23 O 0.25759 0.5987 0.13647 0.0
O24 O 0.17985 0.57445 0.20219 0.0
O25 O 0.11267 0.59163 0.19264 0.0
O26 O 0.97276 0.50345 0.16414 0.0
O27 O 1.04352 0.48246 0.14223 0.0
O28 O 1.00678 0.64377 0.1485 0.0
O29 O 0.99447 0.60935 0.20132 0.0
O30 O 1.00241 0.55735 0.10083 0.0
O31 O 0.11519 0.61072 0.11177 0.0
H32 H 0.31914 0.55113 0.07196 0.0
H33 H 0.33554 0.47909 0.07644 0.0
H34 H 0.17066 0.38962 0.1572 0.0
H35 H 0.15431 0.46228 0.15282 0.0
H36 H 0.86779 0.50689 0.19951 0.0
H37 H 0.74526 0.42171 0.16997 0.0
H38 H 0.7622 0.54516 0.10603 0.0
H39 H 0.88639 0.63166 0.13544 0.0
Ho40 Ho 0.68177 0.07968 0.47232 0.0
Ho41 Ho 0.58142 0.10335 0.46837 0.0
C42 C 0.50032 0.96116 0.46336 0.0
C43 C 0.74849 0.04627 0.49339 0.0
C44 C 0.72497 0.98998 0.50567 0.0
C45 C 0.66925 0.95723 0.53075 0.0
C46 C 0.64754 0.90381 0.54207 0.0
C47 C 0.68135 0.88265 0.52851 0.0
C48 C 0.73663 0.915 0.50335 0.0
C49 C 0.75832 0.96843 0.49198 0.0
C50 C 0.65589 0.09034 0.40351 0.0
C51 C 0.76267 0.2213 0.4712 0.0
C52 C 0.51661 0.14086 0.45255 0.0
C53 C 0.53396 0.19806 0.46441 0.0
C54 C 0.50212 0.21458 0.44489 0.0
C55 C 0.51633 0.26784 0.45741 0.0
C56 C 0.56204 0.30459 0.48971 0.0
C57 C 0.59561 0.28894 0.50852 0.0
C58 C 0.58186 0.23609 0.49588 0.0
C59 C 0.61095 0.09565 0.53769 0.0
O60 O 0.56688 0.98225 0.47262 0.0
O61 O 0.49349 1.00023 0.45667 0.0
O62 O 0.73203 0.04275 0.45858 0.0
O63 O 0.73701 0.07605 0.51568 0.0
O64 O 0.71819 0.10892 0.41581 0.0
O65 O 0.6082 0.06255 0.4274 0.0
O66 O 0.69496 0.20001 0.46634 0.0
O67 O 0.7724 0.18377 0.47725 0.0
O68 O 0.49697 0.10605 0.47874 0.0
O69 O 0.56393 0.14623 0.43152 0.0
O70 O 0.54922 0.07875 0.52653 0.0
O71 O 0.6558 0.12114 0.51261 0.0
H72 H 0.64276 0.97301 0.54174 0.0
H73 H 0.60477 0.87917 0.56152 0.0
H74 H 0.76314 0.89904 0.49274 0.0
H75 H 0.80125 0.99304 0.47259 0.0
H76 H 0.46548 0.18584 0.42041 0.0
H77 H 0.49024 0.27957 0.44259 0.0
H78 H 0.63121 0.31697 0.5334 0.0
H79 H 0.60732 0.22415 0.51108 0.0
Ho80 Ho 0.6785 0.60267 0.85375 0.0
Ho81 Ho 0.5715 0.4663 0.84905 0.0
C82 C 0.49488 0.52935 0.85396 0.0
C83 C 0.76458 0.71384 0.83666 0.0
C84 C 0.75032 0.75284 0.82731 0.0
C85 C 0.69805 0.73212 0.79838 0.0
C86 C 0.68703 0.76975 0.7883 0.0
C87 C 0.7272 0.8287 0.80709 0.0
C88 C 0.77795 0.84905 0.83668 0.0
C89 C 0.78977 0.81156 0.84653 0.0
C90 C 0.62744 0.55633 0.919 0.0
C91 C 0.75671 0.54083 0.85238 0.0
C92 C 0.50475 0.35275 0.85302 0.0
C93 C 0.53011 0.31979 0.84576 0.0
C94 C 0.5032 0.27013 0.8651 0.0
C95 C 0.52238 0.2357 0.85542 0.0
C96 C 0.56832 0.2504 0.82612 0.0
C97 C 0.59718 0.3013 0.80776 0.0
C98 C 0.57836 0.33564 0.81748 0.0
C99 C 0.59023 0.51067 0.78413 0.0
O100 O 0.56451 0.57928 0.84614 0.0
O101 O 0.48786 0.48153 0.86132 0.0
O102 O 0.75787 0.70143 0.871 0.0
O103 O 0.73592 0.66593 0.81271 0.0
O104 O 0.64087 0.60448 0.91099 0.0
O105 O 0.64575 0.53859 0.8933 0.0
O106 O 0.68476 0.48728 0.8467 0.0
O107 O 0.76753 0.59252 0.85723 0.0
O108 O 0.49968 0.37255 0.82398 0.0
O109 O 0.53456 0.3935 0.88227 0.0
O110 O 0.52712 0.4623 0.79403 0.0
O111 O 0.63986 0.5314 0.80865 0.0
H112 H 0.66595 0.68694 0.78312 0.0
H113 H 0.64729 0.75296 0.76559 0.0
H114 H 0.80919 0.89428 0.85169 0.0
H115 H 0.83011 0.8286 0.86895 0.0
H116 H 0.46596 0.25708 0.88697 0.0
H117 H 0.49972 0.19657 0.86995 0.0
H118 H 0.63268 0.31339 0.78513 0.0
H119 H 0.59969 0.37349 0.80197 0.0
H120 H 0.53731 0.03428 0.14045 0.0
H121 H 0.68627 0.14603 0.2379 0.0
H122 H 0.4891 0.95927 0.24499 0.0
H123 H 0.70735 0.22259 0.21191 0.0
C124 C 0.71661 0.21387 0.18387 0.0
C125 C 0.55204 0.03947 0.16946 0.0
C126 C 0.50451 0.98787 0.19039 0.0
C127 C 0.61813 0.09813 0.18652 0.0
C128 C 0.63571 0.10324 0.22426 0.0
C129 C 0.58853 0.05392 0.24529 0.0
C130 C 0.52446 0.99699 0.22825 0.0
N131 N 0.66709 0.15118 0.16618 0.0
H132 H 0.61529 0.55384 0.52301 0.0
H133 H 0.63461 0.6317 0.6338 0.0
H134 H 0.60344 0.47054 0.61708 0.0
H135 H 0.56922 0.64904 0.60317 0.0
C136 C 0.60019 0.66667 0.57856 0.0
C137 C 0.61752 0.55367 0.55277 0.0
C138 C 0.61016 0.50794 0.5674 0.0
C139 C 0.62439 0.59752 0.57645 0.0
C140 C 0.6273 0.59713 0.61505 0.0
C141 C 0.61933 0.55121 0.62974 0.0
C142 C 0.61081 0.50674 0.60582 0.0
N143 N 0.6272 0.64097 0.5609 0.0
H144 H 1.06757 0.53401 0.82128 0.0
H145 H 0.1603 0.54311 0.92612 0.0
H146 H 0.9914 0.54854 0.92673 0.0
H147 H 0.24929 0.55372 0.90192 0.0
C148 C 0.24123 0.54082 0.8723 0.0
C149 C 1.06983 0.53727 0.85121 0.0
C150 C 1.01796 0.5416 0.87119 0.0
C151 C 0.12563 0.53829 0.87061 0.0
C152 C 0.12416 0.54283 0.90945 0.0
C153 C 0.07694 0.54706 0.92837 0.0
C154 C 1.02602 0.54571 0.90983 0.0
N155 N 0.18019 0.53415 0.85334 0.0
H156 H 0.18815 0.65474 0.48622 0.0
H157 H 1.07118 0.52949 0.38579 0.0
H158 H 0.25685 0.72014 0.37882 0.0
H159 H 0.97001 0.48568 0.42472 0.0
C160 C 0.99531 0.48094 0.44633 0.0
C161 C 0.18126 0.64616 0.45627 0.0
C162 C 0.23137 0.69597 0.43462 0.0
C163 C 0.12138 0.58528 0.43884 0.0
C164 C 0.11406 0.57537 0.39983 0.0
C165 C 0.16218 0.62396 0.37841 0.0
C166 C 0.21982 0.68322 0.39589 0.0
N167 N 1.07034 0.53401 0.45999 0.0
H168 H 0.65485 0.08218 0.79904 0.0
H169 H 0.67663 0.0272 0.68958 0.0
H170 H 0.62538 0.13989 0.70322 0.0
H171 H 0.64013 0.94533 0.71831 0.0
C172 C 0.67061 0.96728 0.74512 0.0
C173 C 0.65452 0.08302 0.76928 0.0
C174 C 0.6392 0.11523 0.7538 0.0
C175 C 0.66714 0.05028 0.7465 0.0
C176 C 0.666 0.05126 0.70772 0.0
C177 C 0.65133 0.08389 0.69211 0.0
C178 C 0.63808 0.11568 0.71528 0.0
N179 N 0.68113 0.01737 0.76347 0.0
H180 H 0.33751 0.25061 0.0883 0.0
H181 H 0.49812 0.334 0.00567 0.0
H182 H 0.4252 0.42206 0.05364 0.0
H183 H 0.48702 0.21778 0.04417 0.0
C184 C 0.48565 0.25273 0.05364 0.0
C185 C 0.37383 0.2878 0.07136 0.0
C186 C 0.37555 0.33599 0.07322 0.0
C187 C 0.41952 0.28799 0.04775 0.0
C188 C 0.46495 0.33528 0.02494 0.0
C189 C 0.467 0.38381 0.02681 0.0
C190 C 0.42385 0.38467 0.05194 0.0
N191 N 0.41965 0.24038 0.04706 0.0
C192 C 0.32397 0.40326 0.13981 0.0
C193 C 0.26407 0.38565 0.11777 0.0
C194 C 0.25597 0.30888 0.07958 0.0
C195 C 0.32567 0.33663 0.096 0.0
N196 N 0.41962 0.39982 0.14568 0.0
N197 N 0.1641 0.31591 0.0713 0.0
C198 C 0.3566 0.37952 0.12815 0.0
C199 C 0.22589 0.33521 0.08972 0.0
N200 N 0.35063 0.44429 0.1708 0.0
N201 N 0.22079 0.25922 0.05337 0.0
H202 H 0.1399 0.33331 0.07937 0.0
H203 H 0.13727 0.28376 0.04793 0.0
H204 H 0.24265 0.23982 0.04549 0.0
H205 H 0.16801 0.23437 0.04139 0.0
H206 H 0.39283 0.45824 0.18911 0.0
H207 H 0.32665 0.4617 0.17943 0.0
H208 H 0.44966 0.43488 0.16749 0.0
H209 H 0.44208 0.38081 0.1379 0.0
C210 C 0.89025 0.31077 0.44801 0.0
C211 C 0.82914 0.28978 0.46961 0.0
C212 C 0.88376 0.39745 0.4805 0.0
C213 C 0.94621 0.41846 0.46058 0.0
N214 N 1.0159 0.39639 0.43217 0.0
N215 N 0.7801 0.31785 0.51436 0.0
C216 C 0.95187 0.37548 0.44694 0.0
C217 C 0.82965 0.33462 0.48817 0.0
N218 N 0.88735 0.26925 0.42594 0.0
N219 N 0.87507 0.4374 0.49153 0.0
H220 H 0.74227 0.27352 0.52211 0.0
H221 H 0.7817 0.34915 0.53121 0.0
H222 H 0.91525 0.48413 0.48841 0.0
H223 H 0.82642 0.42353 0.50173 0.0
H224 H 0.92589 0.28171 0.40654 0.0
H225 H 0.84261 0.22207 0.424 0.0
H226 H 1.02694 0.36855 0.42518 0.0
H227 H 1.06092 0.44292 0.43027 0.0
C228 C 0.64634 0.8513 0.79925 0.0
C229 C 0.71582 0.86872 0.79511 0.0
C230 C 0.75974 0.95822 0.76522 0.0
C231 C 0.68753 0.93617 0.76507 0.0
N232 N 0.55987 0.85939 0.77911 0.0
N233 N 0.83593 0.93435 0.76982 0.0
C234 C 0.63018 0.88207 0.78137 0.0
C235 C 0.77218 0.92142 0.77726 0.0
N236 N 0.5966 0.80636 0.82109 0.0
N237 N 0.81644 0.01436 0.75376 0.0
H238 H 0.84695 0.90822 0.77759 0.0
H239 H 0.87536 0.96787 0.75323 0.0
H240 H 0.80884 0.04173 0.74393 0.0
H241 H 0.87175 0.03604 0.7569 0.0
H242 H 0.5479 0.7954 0.82814 0.0
H243 H 0.60713 0.78361 0.83504 0.0
H244 H 0.5139 0.81636 0.78643 0.0
H245 H 0.54666 0.88208 0.76766 0.0
C246 C 0.6084 0.3888 0.12852 0.0
C247 C 0.67802 0.42329 0.113 0.0
C248 C 0.61994 0.34953 0.05687 0.0
C249 C 0.55206 0.31161 0.07419 0.0
N250 N 0.48436 0.28944 0.12907 0.0
N251 N 0.75296 0.43349 0.06441 0.0
C252 C 0.54678 0.3298 0.11068 0.0
C253 C 0.68463 0.40302 0.07761 0.0
N254 N 0.60115 0.41285 0.1601 0.0
N255 N 0.62209 0.33553 0.02022 0.0
H256 H 0.80185 0.4732 0.0785 0.0
H257 H 0.76189 0.41675 0.04092 0.0
H258 H 0.5759 0.29643 0.00419 0.0
H259 H 0.66787 0.36518 0.0049 0.0
H260 H 0.5503 0.39271 0.17067 0.0
H261 H 0.6455 0.456 0.17387 0.0
H262 H 0.48012 0.29795 0.15696 0.0
H263 H 0.43904 0.24487 0.11751 0.0
C264 C 0.42254 0.84809 0.47847 0.0
C265 C 0.431 0.89196 0.45869 0.0
C266 C 0.29966 0.80858 0.43629 0.0
C267 C 0.29544 0.76308 0.44981 0.0
N268 N 0.36131 0.7411 0.47916 0.0
N269 N 0.3791 0.902 0.40739 0.0
C270 C 0.35922 0.78327 0.46974 0.0
C271 C 0.36976 0.869 0.43461 0.0
N272 N 0.47264 0.86726 0.50648 0.0
N273 N 0.23661 0.79363 0.4238 0.0
H274 H 0.43095 0.94141 0.4005 0.0
H275 H 0.33672 0.88483 0.38785 0.0
H276 H 0.18429 0.75014 0.42523 0.0
H277 H 0.23632 0.82633 0.41597 0.0
H278 H 0.46496 0.83739 0.5236 0.0
H279 H 0.51726 0.91314 0.51554 0.0
H280 H 0.40934 0.75328 0.48982 0.0
H281 H 0.31684 0.69387 0.47348 0.0
C282 C 0.52814 0.15366 0.79131 0.0
C283 C 0.58372 0.21118 0.81272 0.0
C284 C 0.67581 0.20421 0.79778 0.0
C285 C 0.61968 0.14588 0.77735 0.0
N286 N 0.49007 0.05861 0.76193 0.0
N287 N 0.70599 0.28502 0.84304 0.0
C288 C 0.545 0.11852 0.77655 0.0
C289 C 0.65623 0.23443 0.81811 0.0
N290 N 0.46044 0.13409 0.7833 0.0
N291 N 0.74814 0.23195 0.79638 0.0
H292 H 0.69319 0.30806 0.85832 0.0
H293 H 0.75743 0.30094 0.85096 0.0
H294 H 0.76443 0.21087 0.78225 0.0
H295 H 0.79235 0.27738 0.80703 0.0
H296 H 0.42091 0.09635 0.7642 0.0
H297 H 0.44555 0.15825 0.79345 0.0
H298 H 0.43402 0.03406 0.76392 0.0
H299 H 0.5005 0.03155 0.75082 0.0
C300 C 0.60996 0.76998 0.51868 0.0
C301 C 0.65976 0.827 0.54133 0.0
C302 C 0.66444 0.77741 0.58964 0.0
C303 C 0.61965 0.72146 0.56573 0.0
N304 N 0.55257 0.66375 0.50689 0.0
N305 N 0.74231 0.88796 0.59591 0.0
C306 C 0.59348 0.71759 0.52996 0.0
C307 C 0.68899 0.83153 0.57623 0.0
N308 N 0.57638 0.76561 0.48711 0.0
N309 N 0.68331 0.77878 0.62522 0.0
H310 H 0.76117 0.92863 0.58716 0.0
H311 H 0.77204 0.89536 0.61946 0.0
H312 H 0.66994 0.74102 0.63559 0.0
H313 H 0.70809 0.81611 0.64536 0.0
H314 H 0.53351 0.72426 0.47139 0.0
H315 H 0.58762 0.8032 0.47788 0.0
H316 H 0.53971 0.65991 0.47895 0.0
H317 H 0.53406 0.62296 0.51517 0.0
C318 C 0.82587 0.49741 0.83335 0.0
C319 C 0.82633 0.54251 0.85387 0.0
C320 C 0.95972 0.59378 0.87475 0.0
C321 C 0.95564 0.54477 0.85855 0.0
N322 N 0.87068 0.44361 0.82573 0.0
N323 N 0.89939 0.62841 0.90157 0.0
C324 C 0.88441 0.49514 0.83885 0.0
C325 C 0.89539 0.5892 0.87621 0.0
N326 N 0.77067 0.45733 0.80642 0.0
N327 N 1.02759 0.64743 0.88869 0.0
H328 H 0.85527 0.62563 0.90569 0.0
H329 H 0.94294 0.65855 0.92163 0.0
H330 H 0.07472 0.65364 0.88768 0.0
H331 H 1.03855 0.6875 0.89715 0.0
H332 H 0.76912 0.42742 0.78793 0.0
H333 H 0.73143 0.45933 0.79969 0.0
H334 H 0.81876 0.40275 0.81508 0.0
H335 H 0.91066 0.44095 0.82804 0.0
C336 C 0.30772 0.83248 0.19342 0.0
C337 C 0.30075 0.79343 0.16375 0.0
C338 C 0.4278 0.88437 0.14795 0.0
C339 C 0.43143 0.92384 0.17562 0.0
N340 N 0.36187 0.93568 0.21571 0.0
N341 N 0.34861 0.78984 0.10591 0.0
C342 C 0.36677 0.89779 0.19511 0.0
C343 C 0.35918 0.82165 0.13894 0.0
N344 N 0.26184 0.80782 0.22188 0.0
N345 N 0.4902 0.90536 0.13118 0.0
H346 H 0.29826 0.74606 0.09696 0.0
H347 H 0.38677 0.80985 0.08555 0.0
H348 H 0.54106 0.95018 0.13693 0.0
H349 H 0.49251 0.8767 0.11388 0.0
H350 H 0.26912 0.83457 0.24557 0.0
H351 H 0.2231 0.76092 0.22437 0.0
H352 H 0.31374 0.91949 0.22808 0.0
H353 H 0.40303 0.98346 0.21679 0.0
C354 C 0.64211 0.41827 0.50485 0.0
C355 C 0.57209 0.35787 0.50533 0.0
C356 C 0.52392 0.39896 0.5387 0.0
C357 C 0.59633 0.45805 0.54275 0.0
N358 N 0.72626 0.52437 0.53259 0.0
N359 N 0.44855 0.28921 0.5268 0.0
C360 C 0.656 0.46805 0.52634 0.0
C361 C 0.51324 0.34774 0.52305 0.0
N362 N 0.69477 0.42794 0.48343 0.0
N363 N 0.46532 0.39202 0.54958 0.0
H364 H 0.43842 0.25016 0.51609 0.0
H365 H 0.40718 0.27929 0.5432 0.0
H366 H 0.47126 0.42869 0.56128 0.0
H367 H 0.41039 0.35121 0.54387 0.0
H368 H 0.7444 0.47142 0.4791 0.0
H369 H 0.68613 0.39236 0.46731 0.0
H370 H 0.77318 0.53269 0.52504 0.0
H371 H 0.73827 0.56217 0.54764 0.0
C372 C 0.42408 0.57041 0.83726 0.0
C373 C 0.42492 0.52824 0.855 0.0
C374 C 0.30055 0.49068 0.87927 0.0
C375 C 0.29805 0.53017 0.8603 0.0
N376 N 0.36147 0.60441 0.81724 0.0
N377 N 0.34149 0.43627 0.88627 0.0
C378 C 0.36137 0.56878 0.83833 0.0
C379 C 0.35659 0.48538 0.87384 0.0
N380 N 0.48429 0.61385 0.81873 0.0
N381 N 0.24857 0.45748 0.90437 0.0
H382 H 0.37724 0.42914 0.88539 0.0
H383 H 0.28975 0.39888 0.89461 0.0
H384 H 0.2041 0.45466 0.90724 0.0
H385 H 0.25236 0.43623 0.92402 0.0
H386 H 0.49607 0.6525 0.81135 0.0
H387 H 0.52415 0.61259 0.81127 0.0
H388 H 0.39841 0.62879 0.79696 0.0
H389 H 0.31954 0.60506 0.81799 0.0
C390 C 0.91915 0.35972 0.17624 0.0
C391 C 0.91332 0.39555 0.15627 0.0
C392 C 0.77709 0.30672 0.14863 0.0
C393 C 0.78353 0.2705 0.16733 0.0
N394 N 0.86246 0.25861 0.19211 0.0
N395 N 0.83689 0.39659 0.1163 0.0
C396 C 0.85534 0.29587 0.17867 0.0
C397 C 0.84223 0.36697 0.14036 0.0
N398 N 0.98428 0.38754 0.19535 0.0
N399 N 0.70825 0.28442 0.13991 0.0
H400 H 0.88256 0.43977 0.109 0.0
H401 H 0.78839 0.37595 0.1008 0.0
H402 H 0.65998 0.2398 0.1438 0.0
H403 H 0.69894 0.31105 0.13086 0.0
H404 H 0.99002 0.36595 0.21369 0.0
H405 H 1.03124 0.4341 0.19576 0.0
H406 H 0.91325 0.27178 0.19751 0.0
H407 H 0.81704 0.21226 0.19437 0.0
C408 C 0.12162 0.62117 0.02784 0.0
C409 C 1.07158 0.56861 0.04709 0.0
C410 C 1.02795 0.50131 -0.01152 0.0
C411 C 0.08027 0.5537 0.96967 0.0
N412 N 0.18603 0.66236 0.97182 0.0
N413 N 0.98698 0.45867 0.04711 0.0
C414 C 0.13034 0.61325 -0.01042 0.0
C415 C 1.02749 0.50864 0.02776 0.0
N416 N 0.15694 0.67851 0.04528 0.0
N417 N 0.97742 0.44464 0.96862 0.0
H418 H 0.98547 0.46222 0.0758 0.0
H419 H 0.95996 0.41429 0.03526 0.0
H420 H 0.97856 0.43705 0.94009 0.0
H421 H 0.93184 0.40578 0.97994 0.0
H422 H 0.18765 0.71777 0.03163 0.0
H423 H 0.15018 0.68667 0.07275 0.0
H424 H 0.22937 0.70572 0.98557 0.0
H425 H 0.19253 0.65867 0.94356 0.0
C426 C 0.62429 0.03157 0.34091 0.0
C427 C 0.63663 0.07989 0.36331 0.0
C428 C 0.60863 0.10591 0.30928 0.0
C429 C 0.60501 0.06259 0.28604 0.0
N430 N 0.62429 0.99271 0.27918 0.0
N431 N 0.65825 0.17231 0.36716 0.0
C432 C 0.61681 0.02758 0.3017 0.0
C433 C 0.63393 0.11979 0.34705 0.0
N434 N 0.61879 0.98905 0.35704 0.0
N435 N 0.58534 0.13218 0.29576 0.0
H436 H 0.6797 0.18502 0.39452 0.0
H437 H 0.66416 0.20604 0.35557 0.0
H438 H 0.56365 0.12156 0.26861 0.0
H439 H 0.58033 0.15952 0.31255 0.0
H440 H 0.60211 0.94925 0.34229 0.0
H441 H 0.62461 0.99074 0.38566 0.0
H442 H 0.64027 0.97115 0.2891 0.0
H443 H 0.62174 0.99023 0.25035 0.0
C444 C 0.55322 0.52851 0.72754 0.0
C445 C 0.60282 0.5272 0.74564 0.0
C446 C 0.67228 0.55566 0.68977 0.0
C447 C 0.61627 0.54744 0.67026 0.0
N448 N 0.4962 0.51567 0.66911 0.0
N449 N 0.70043 0.52604 0.74036 0.0
C450 C 0.55485 0.53135 0.68874 0.0
C451 C 0.6605 0.53771 0.726 0.0
N452 N 0.50539 0.52829 0.74742 0.0
N453 N 0.73689 0.58082 0.67373 0.0
H454 H 0.69031 0.50779 0.76532 0.0
H455 H 0.73794 0.52744 0.72535 0.0
H456 H 0.74747 0.59481 0.64722 0.0
H457 H 0.78248 0.59342 0.68814 0.0
H458 H 0.47391 0.536 0.73624 0.0
H459 H 0.50244 0.5265 0.77592 0.0
H460 H 0.44661 0.49702 0.68074 0.0
H461 H 0.4941 0.51577 0.64048 0.0
C462 C 0.69342 0.14083 0.59714 0.0
C463 C 0.62667 0.09045 0.57589 0.0
C464 C 0.57808 0.03371 0.63067 0.0
C465 C 0.64573 0.08286 0.6512 0.0
N466 N 0.77341 0.17671 0.65224 0.0
N467 N 0.51308 0.98335 0.57044 0.0
C468 C 0.70532 0.13419 0.63373 0.0
C469 C 0.57134 0.03521 0.59209 0.0
N470 N 0.74317 0.1965 0.58374 0.0
N471 N 0.51908 0.98654 0.64832 0.0
H472 H 0.50595 0.98189 0.54207 0.0
H473 H 0.47576 0.94019 0.57981 0.0
H474 H 0.52225 0.98271 0.67629 0.0
H475 H 0.46563 0.95352 0.63594 0.0
H476 H 0.78834 0.23636 0.59968 0.0
H477 H 0.7361 0.2049 0.55794 0.0
H478 H 0.82105 0.21173 0.63974 0.0
H479 H 0.7835 0.17349 0.67921 0.0
C480 C 0.62824 0.51082 0.97351 0.0
C481 C 0.59301 0.52372 0.95231 0.0
C482 C 0.47578 0.4434 0.97841 0.0
C483 C 0.51129 0.43255 0.0014 0.0
N484 N 0.62565 0.46798 0.02782 0.0
N485 N 0.49052 0.5174 0.94541 0.0
C486 C 0.58899 0.46982 0.00105 0.0
C487 C 0.51931 0.49526 0.95844 0.0
N488 N 0.69923 0.53782 0.96741 0.0
N489 N 0.40035 0.40231 0.97375 0.0
H490 H 0.52143 0.55665 0.93178 0.0
H491 H 0.43897 0.50118 0.95225 0.0
H492 H 0.3659 0.36115 0.98561 0.0
H493 H 0.37242 0.40578 0.95472 0.0
H494 H 0.72444 0.52435 0.97858 0.0
H495 H 0.73189 0.5721 0.94987 0.0
H496 H 0.68307 0.49797 0.03083 0.0
H497 H 0.59918 0.44063 0.04939 0.0
C498 C 0.21429 0.63288 0.27878 0.0
C499 C 0.14587 0.60045 0.25855 0.0
C500 C 0.08951 0.59075 0.31725 0.0
C501 C 0.15455 0.6134 0.3371 0.0
N502 N 0.27285 0.64211 0.33519 0.0
N503 N 1.01427 0.53963 0.25956 0.0
C504 C 0.21519 0.63029 0.31738 0.0
C505 C 0.08218 0.5771 0.27799 0.0
N506 N 0.27915 0.66857 0.2615 0.0
N507 N 1.03585 0.58416 0.33554 0.0
H508 H 1.00641 0.52726 0.23113 0.0
H509 H 0.96525 0.51638 0.27298 0.0
H510 H 1.03999 0.59527 0.36408 0.0
H511 H 0.99086 0.5735 0.32187 0.0
H512 H 0.33078 0.69686 0.27589 0.0
H513 H 0.28177 0.67614 0.23381 0.0
H514 H 0.31513 0.6494 0.32113 0.0
H515 H 0.27414 0.63781 0.36326 0.0
loop_
_geom_bond_atom_site_label_1
_geom_bond_atom_site_label_2
_geom_bond_distance
_geom_bond_site_symmetry_2
_ccdc_geom_bond_type
Ho0 C3 2.811 . S
Ho0 O20 2.322 . S
Ho0 O22 2.378 . S
Ho0 O23 2.524 . S
Ho0 O24 2.381 . S
Ho0 O25 2.669 . S
Ho0 O27 2.346 1_455 S
Ho0 O31 2.305 . S
Ho1 C12 2.811 1_455 S
Ho1 O21 2.346 . S
Ho1 O25 2.305 . S
Ho1 O26 2.322 1_455 S
Ho1 O28 2.378 1_455 S
Ho1 O29 2.524 1_455 S
Ho1 O30 2.381 . S
Ho1 O31 2.669 . S
C2 O20 1.259 . S
C2 O21 1.268 . S
C3 Ho0 2.811 . S
C3 C4 1.488 . S
C3 O22 1.215 . S
C3 O23 1.289 . S
C4 C3 1.488 . S
C4 C5 1.348 . S
C4 C9 1.413 . S
C5 C4 1.348 . S
C5 C6 1.442 . S
C5 H32 0.930 . S
C6 C5 1.442 . S
C6 C7 1.381 . S
C6 H33 0.931 . S
C7 C6 1.381 . S
C7 C8 1.321 . S
C8 C7 1.321 . S
C8 C9 1.403 . S
C8 H34 0.934 . S
C9 C4 1.413 . S
C9 C8 1.403 . S
C9 H35 0.930 . S
C10 O24 1.275 . S
C10 O25 1.256 . S
C11 O26 1.259 . S
C11 O27 1.268 . S
C12 Ho1 2.811 1_655 S
C12 C13 1.488 . S
C12 O28 1.215 . S
C12 O29 1.289 . S
C13 C12 1.488 . S
C13 C14 1.348 . S
C13 C18 1.413 . S
C14 C13 1.348 . S
C14 C15 1.442 . S
C14 H36 0.930 . S
C15 C14 1.442 . S
C15 C16 1.381 . S
C15 H37 0.931 . S
C16 C15 1.381 . S
C16 C17 1.321 . S
C17 C16 1.321 . S
C17 C18 1.403 . S
C17 H38 0.934 . S
C18 C13 1.413 . S
C18 C17 1.403 . S
C18 H39 0.930 . S
C19 O30 1.275 . S
C19 O31 1.256 . S
O20 Ho0 2.322 . S
O20 C2 1.259 . S
O21 Ho1 2.346 . S
O21 C2 1.268 . S
O22 Ho0 2.378 . S
O22 C3 1.215 . S
O23 Ho0 2.524 . S
O23 C3 1.289 . S
O24 Ho0 2.381 . S
O24 C10 1.275 . S
O25 Ho0 2.669 . S
O25 Ho1 2.305 . S
O25 C10 1.256 . S
O26 Ho1 2.322 1_655 S
O26 C11 1.259 . S
O27 Ho0 2.346 1_655 S
O27 C11 1.268 . S
O28 Ho1 2.378 1_655 S
O28 C12 1.215 . S
O29 Ho1 2.524 1_655 S
O29 C12 1.289 . S
O30 Ho1 2.381 . S
O30 C19 1.275 . S
O31 Ho0 2.305 . S
O31 Ho1 2.669 . S
O31 C19 1.256 . S
H32 C5 0.930 . S
H33 C6 0.931 . S
H34 C8 0.934 . S
H35 C9 0.930 . S
H36 C14 0.930 . S
H37 C15 0.931 . S
H38 C17 0.934 . S
H39 C18 0.930 . S
Ho40 C43 2.811 1_545 S
Ho40 O60 2.322 1_545 S
Ho40 O62 2.378 1_545 S
Ho40 O63 2.524 1_545 S
Ho40 O64 2.381 . S
Ho40 O65 2.669 . S
Ho40 O67 2.346 . S
Ho40 O71 2.305 . S
Ho41 C52 2.811 . S
Ho41 O61 2.346 1_545 S
Ho41 O65 2.305 . S
Ho41 O66 2.322 . S
Ho41 O68 2.378 . S
Ho41 O69 2.524 . S
Ho41 O70 2.381 . S
Ho41 O71 2.669 . S
C42 O60 1.259 . S
C42 O61 1.268 . S
C43 Ho40 2.811 1_565 S
C43 C44 1.488 . S
C43 O62 1.215 . S
C43 O63 1.289 . S
C44 C43 1.488 . S
C44 C45 1.348 . S
C44 C49 1.413 . S
C45 C44 1.348 . S
C45 C46 1.442 . S
C45 H72 0.930 . S
C46 C45 1.442 . S
C46 C47 1.381 . S
C46 H73 0.931 . S
C47 C46 1.381 . S
C47 C48 1.321 . S
C48 C47 1.321 . S
C48 C49 1.403 . S
C48 H74 0.934 . S
C49 C44 1.413 . S
C49 C48 1.403 . S
C49 H75 0.930 . S
C50 O64 1.275 . S
C50 O65 1.256 . S
C51 O66 1.259 . S
C51 O67 1.268 . S
C52 Ho41 2.811 . S
C52 C53 1.488 . S
C52 O68 1.215 . S
C52 O69 1.289 . S
C53 C52 1.488 . S
C53 C54 1.348 . S
C53 C58 1.413 . S
C54 C53 1.348 . S
C54 C55 1.442 . S
C54 H76 0.930 . S
C55 C54 1.442 . S
C55 C56 1.381 . S
C55 H77 0.931 . S
C56 C55 1.381 . S
C56 C57 1.321 . S
C57 C56 1.321 . S
C57 C58 1.403 . S
C57 H78 0.934 . S
C58 C53 1.413 . S
C58 C57 1.403 . S
C58 H79 0.930 . S
C59 O70 1.275 . S
C59 O71 1.256 . S
O60 Ho40 2.322 1_565 S
O60 C42 1.259 . S
O61 Ho41 2.346 1_565 S
O61 C42 1.268 . S
O62 Ho40 2.378 1_565 S
O62 C43 1.215 . S
O63 Ho40 2.524 1_565 S
O63 C43 1.289 . S
O64 Ho40 2.381 . S
O64 C50 1.275 . S
O65 Ho40 2.669 . S
O65 Ho41 2.305 . S
O65 C50 1.256 . S
O66 Ho41 2.322 . S
O66 C51 1.259 . S
O67 Ho40 2.346 . S
O67 C51 1.268 . S
O68 Ho41 2.378 . S
O68 C52 1.215 . S
O69 Ho41 2.524 . S
O69 C52 1.289 . S
O70 Ho41 2.381 . S
O70 C59 1.275 . S
O71 Ho40 2.305 . S
O71 Ho41 2.669 . S
O71 C59 1.256 . S
H72 C45 0.930 . S
H73 C46 0.931 . S
H74 C48 0.934 . S
H75 C49 0.930 . S
H76 C54 0.930 . S
H77 C55 0.931 . S
H78 C57 0.934 . S
H79 C58 0.930 . S
Ho80 C83 2.811 . S
Ho80 O100 2.322 . S
Ho80 O102 2.378 . S
Ho80 O103 2.524 . S
Ho80 O104 2.381 . S
Ho80 O105 2.669 . S
Ho80 O107 2.346 . S
Ho80 O111 2.305 . S
Ho81 C92 2.811 . S
Ho81 O101 2.346 . S
Ho81 O105 2.305 . S
Ho81 O106 2.322 . S
Ho81 O108 2.378 . S
Ho81 O109 2.524 . S
Ho81 O110 2.381 . S
Ho81 O111 2.669 . S
C82 O100 1.259 . S
C82 O101 1.268 . S
C83 Ho80 2.811 . S
C83 C84 1.488 . S
C83 O102 1.215 . S
C83 O103 1.289 . S
C84 C83 1.488 . S
C84 C85 1.348 . S
C84 C89 1.413 . S
C85 C84 1.348 . S
C85 C86 1.442 . S
C85 H112 0.930 . S
C86 C85 1.442 . S
C86 C87 1.381 . S
C86 H113 0.931 . S
C87 C86 1.381 . S
C87 C88 1.321 . S
C88 C87 1.321 . S
C88 C89 1.403 . S
C88 H114 0.934 . S
C89 C84 1.413 . S
C89 C88 1.403 . S
C89 H115 0.930 . S
C90 O104 1.275 . S
C90 O105 1.256 . S
C91 O106 1.259 . S
C91 O107 1.268 . S
C92 Ho81 2.811 . S
C92 C93 1.488 . S
C92 O108 1.215 . S
C92 O109 1.289 . S
C93 C92 1.488 . S
C93 C94 1.348 . S
C93 C98 1.413 . S
C94 C93 1.348 . S
C94 C95 1.442 . S
C94 H116 0.930 . S
C95 C94 1.442 . S
C95 C96 1.381 . S
C95 H117 0.931 . S
C96 C95 1.381 . S
C96 C97 1.321 . S
C97 C96 1.321 . S
C97 C98 1.403 . S
C97 H118 0.934 . S
C98 C93 1.413 . S
C98 C97 1.403 . S
C98 H119 0.930 . S
C99 O110 1.275 . S
C99 O111 1.256 . S
O100 Ho80 2.322 . S
O100 C82 1.259 . S
O101 Ho81 2.346 . S
O101 C82 1.268 . S
O102 Ho80 2.378 . S
O102 C83 1.215 . S
O103 Ho80 2.524 . S
O103 C83 1.289 . S
O104 Ho80 2.381 . S
O104 C90 1.275 . S
O105 Ho80 2.669 . S
O105 Ho81 2.305 . S
O105 C90 1.256 . S
O106 Ho81 2.322 . S
O106 C91 1.259 . S
O107 Ho80 2.346 . S
O107 C91 1.268 . S
O108 Ho81 2.378 . S
O108 C92 1.215 . S
O109 Ho81 2.524 . S
O109 C92 1.289 . S
O110 Ho81 2.381 . S
O110 C99 1.275 . S
O111 Ho80 2.305 . S
O111 Ho81 2.669 . S
O111 C99 1.256 . S
H112 C85 0.930 . S
H113 C86 0.931 . S
H114 C88 0.934 . S
H115 C89 0.930 . S
H116 C94 0.930 . S
H117 C95 0.931 . S
H118 C97 0.934 . S
H119 C98 0.930 . S
H120 C125 0.930 . S
H121 C128 0.930 . S
H122 C130 0.930 . S
H123 C124 1.016 . S
C124 H123 1.016 . S
C124 N131 1.286 . S
C125 H120 0.930 . S
C125 C126 1.397 1_545 S
C125 C127 1.361 . S
C126 C125 1.397 1_565 S
C126 C130 1.390 . S
C127 C125 1.361 . S
C127 C128 1.393 . S
C127 N131 1.413 . S
C128 H121 0.930 . S
C128 C127 1.393 . S
C128 C129 1.399 . S
C129 C128 1.399 . S
C129 C130 1.381 1_545 S
C130 H122 0.930 . S
C130 C126 1.390 . S
C130 C129 1.381 1_565 S
N131 C124 1.286 . S
N131 C127 1.413 . S
H132 C137 0.930 . S
H133 C140 0.930 . S
H134 C142 0.930 . S
H135 C136 1.016 . S
C136 H135 1.016 . S
C136 N143 1.286 . S
C137 H132 0.930 . S
C137 C138 1.397 . S
C137 C139 1.361 . S
C138 C137 1.397 . S
C138 C142 1.390 . S
C139 C137 1.361 . S
C139 C140 1.393 . S
C139 N143 1.413 . S
C140 H133 0.930 . S
C140 C139 1.393 . S
C140 C141 1.399 . S
C141 C140 1.399 . S
C141 C142 1.381 . S
C142 H134 0.930 . S
C142 C138 1.390 . S
C142 C141 1.381 . S
N143 C136 1.286 . S
N143 C139 1.413 . S
H144 C149 0.930 1_655 S
H145 C152 0.930 . S
H146 C154 0.930 . S
H147 C148 1.016 . S
C148 H147 1.016 . S
C148 N155 1.286 . S
C149 H144 0.930 1_455 S
C149 C150 1.397 1_455 S
C149 C151 1.361 . S
C150 C149 1.397 1_655 S
C150 C154 1.390 . S
C151 C149 1.361 . S
C151 C152 1.393 . S
C151 N155 1.413 . S
C152 H145 0.930 . S
C152 C151 1.393 . S
C152 C153 1.399 . S
C153 C152 1.399 . S
C153 C154 1.381 1_455 S
C154 H146 0.930 . S
C154 C150 1.390 . S
C154 C153 1.381 1_655 S
N155 C148 1.286 . S
N155 C151 1.413 . S
H156 C161 0.930 . S
H157 C164 0.930 . S
H158 C166 0.930 . S
H159 C160 1.016 . S
C160 H159 1.016 . S
C160 N167 1.286 . S
C161 H156 0.930 . S
C161 C162 1.397 . S
C161 C163 1.361 1_455 S
C162 C161 1.397 . S
C162 C166 1.390 . S
C163 C161 1.361 1_655 S
C163 C164 1.393 . S
C163 N167 1.413 . S
C164 H157 0.930 . S
C164 C163 1.393 . S
C164 C165 1.399 1_655 S
C165 C164 1.399 1_455 S
C165 C166 1.381 . S
C166 H158 0.930 . S
C166 C162 1.390 . S
C166 C165 1.381 . S
N167 C160 1.286 . S
N167 C163 1.413 . S
H168 C173 0.930 . S
H169 C176 0.930 1_565 S
H170 C178 0.930 . S
H171 C172 1.016 . S
C172 H171 1.016 . S
C172 N179 1.286 . S
C173 H168 0.930 . S
C173 C174 1.397 . S
C173 C175 1.361 . S
C174 C173 1.397 . S
C174 C178 1.390 . S
C175 C173 1.361 . S
C175 C176 1.393 . S
C175 N179 1.413 1_545 S
C176 H169 0.930 1_545 S
C176 C175 1.393 . S
C176 C177 1.399 . S
C177 C176 1.399 . S
C177 C178 1.381 . S
C178 H170 0.930 . S
C178 C174 1.390 . S
C178 C177 1.381 . S
N179 C172 1.286 . S
N179 C175 1.413 1_565 S
H180 C185 0.930 . S
H181 C188 0.930 . S
H182 C190 0.930 . S
H183 C184 1.016 . S
C184 H183 1.016 . S
C184 N191 1.286 . S
C185 H180 0.930 . S
C185 C186 1.397 . S
C185 C187 1.361 . S
C186 C185 1.397 . S
C186 C190 1.390 . S
C187 C185 1.361 . S
C187 C188 1.393 . S
C187 N191 1.413 . S
C188 H181 0.930 . S
C188 C187 1.393 . S
C188 C189 1.399 . S
C189 C188 1.399 . S
C189 C190 1.381 . S
C190 H182 0.930 . S
C190 C186 1.390 . S
C190 C189 1.381 . S
N191 C184 1.286 . S
N191 C187 1.413 . S
C192 C193 1.363 . S
C192 C198 1.379 . S
C192 N200 1.356 . S
C193 C192 1.363 . S
C193 C199 1.363 . S
C194 C195 1.363 . S
C194 C199 1.379 . S
C194 N201 1.356 . S
C195 C194 1.363 . S
C195 C198 1.363 . S
N196 C198 1.356 . S
N196 H208 0.984 . S
N196 H209 0.985 . S
N197 C199 1.356 . S
N197 H202 0.984 . S
N197 H203 0.985 . S
C198 C192 1.379 . S
C198 C195 1.363 . S
C198 N196 1.356 . S
C199 C193 1.363 . S
C199 C194 1.379 . S
C199 N197 1.356 . S
N200 C192 1.356 . S
N200 H206 0.984 . S
N200 H207 0.984 . S
N201 C194 1.356 . S
N201 H204 0.984 . S
N201 H205 0.985 . S
H202 N197 0.984 . S
H203 N197 0.985 . S
H204 N201 0.984 . S
H205 N201 0.985 . S
H206 N200 0.984 . S
H207 N200 0.984 . S
H208 N196 0.984 . S
H209 N196 0.985 . S
C210 C211 1.363 . S
C210 C216 1.379 . S
C210 N218 1.356 . S
C211 C210 1.363 . S
C211 C217 1.363 . S
C212 C213 1.363 . S
C212 C217 1.379 . S
C212 N219 1.356 . S
C213 C212 1.363 . S
C213 C216 1.363 . S
N214 C216 1.356 . S
N214 H226 0.984 . S
N214 H227 0.985 . S
N215 C217 1.356 . S
N215 H220 0.984 . S
N215 H221 0.985 . S
C216 C210 1.379 . S
C216 C213 1.363 . S
C216 N214 1.356 . S
C217 C211 1.363 . S
C217 C212 1.379 . S
C217 N215 1.356 . S
N218 C210 1.356 . S
N218 H224 0.984 . S
N218 H225 0.984 . S
N219 C212 1.356 . S
N219 H222 0.984 . S
N219 H223 0.985 . S
H220 N215 0.984 . S
H221 N215 0.985 . S
H222 N219 0.984 . S
H223 N219 0.985 . S
H224 N218 0.984 . S
H225 N218 0.984 . S
H226 N214 0.984 . S
H227 N214 0.985 . S
C228 C229 1.363 . S
C228 C234 1.379 . S
C228 N236 1.356 . S
C229 C228 1.363 . S
C229 C235 1.363 . S
C230 C231 1.363 . S
C230 C235 1.379 . S
C230 N237 1.356 . S
C231 C230 1.363 . S
C231 C234 1.363 . S
N232 C234 1.356 . S
N232 H244 0.984 . S
N232 H245 0.985 . S
N233 C235 1.356 . S
N233 H238 0.984 . S
N233 H239 0.985 . S
C234 C228 1.379 . S
C234 C231 1.363 . S
C234 N232 1.356 . S
C235 C229 1.363 . S
C235 C230 1.379 . S
C235 N233 1.356 . S
N236 C228 1.356 . S
N236 H242 0.984 . S
N236 H243 0.984 . S
N237 C230 1.356 . S
N237 H240 0.984 . S
N237 H241 0.985 1_565 S
H238 N233 0.984 . S
H239 N233 0.985 . S
H240 N237 0.984 . S
H241 N237 0.985 1_545 S
H242 N236 0.984 . S
H243 N236 0.984 . S
H244 N232 0.984 . S
H245 N232 0.985 . S
C246 C247 1.363 . S
C246 C252 1.379 . S
C246 N254 1.356 . S
C247 C246 1.363 . S
C247 C253 1.363 . S
C248 C249 1.363 . S
C248 C253 1.379 . S
C248 N255 1.356 . S
C249 C248 1.363 . S
C249 C252 1.363 . S
N250 C252 1.356 . S
N250 H262 0.984 . S
N250 H263 0.985 . S
N251 C253 1.356 . S
N251 H256 0.984 . S
N251 H257 0.985 . S
C252 C246 1.379 . S
C252 C249 1.363 . S
C252 N250 1.356 . S
C253 C247 1.363 . S
C253 C248 1.379 . S
C253 N251 1.356 . S
N254 C246 1.356 . S
N254 H260 0.984 . S
N254 H261 0.984 . S
N255 C248 1.356 . S
N255 H258 0.984 . S
N255 H259 0.985 . S
H256 N251 0.984 . S
H257 N251 0.985 . S
H258 N255 0.984 . S
H259 N255 0.985 . S
H260 N254 0.984 . S
H261 N254 0.984 . S
H262 N250 0.984 . S
H263 N250 0.985 . S
C264 C265 1.363 . S
C264 C270 1.379 . S
C264 N272 1.356 . S
C265 C264 1.363 . S
C265 C271 1.363 . S
C266 C267 1.363 . S
C266 C271 1.379 . S
C266 N273 1.356 . S
C267 C266 1.363 . S
C267 C270 1.363 . S
N268 C270 1.356 . S
N268 H280 0.984 . S
N268 H281 0.985 . S
N269 C271 1.356 . S
N269 H274 0.984 . S
N269 H275 0.985 . S
C270 C264 1.379 . S
C270 C267 1.363 . S
C270 N268 1.356 . S
C271 C265 1.363 . S
C271 C266 1.379 . S
C271 N269 1.356 . S
N272 C264 1.356 . S
N272 H278 0.984 . S
N272 H279 0.984 . S
N273 C266 1.356 . S
N273 H276 0.984 . S
N273 H277 0.985 . S
H274 N269 0.984 . S
H275 N269 0.985 . S
H276 N273 0.984 . S
H277 N273 0.985 . S
H278 N272 0.984 . S
H279 N272 0.984 . S
H280 N268 0.984 . S
H281 N268 0.985 . S
C282 C283 1.363 . S
C282 C288 1.379 . S
C282 N290 1.356 . S
C283 C282 1.363 . S
C283 C289 1.363 . S
C284 C285 1.363 . S
C284 C289 1.379 . S
C284 N291 1.356 . S
C285 C284 1.363 . S
C285 C288 1.363 . S
N286 C288 1.356 . S
N286 H298 0.984 . S
N286 H299 0.985 . S
N287 C289 1.356 . S
N287 H292 0.984 . S
N287 H293 0.985 . S
C288 C282 1.379 . S
C288 C285 1.363 . S
C288 N286 1.356 . S
C289 C283 1.363 . S
C289 C284 1.379 . S
C289 N287 1.356 . S
N290 C282 1.356 . S
N290 H296 0.984 . S
N290 H297 0.984 . S
N291 C284 1.356 . S
N291 H294 0.984 . S
N291 H295 0.985 . S
H292 N287 0.984 . S
H293 N287 0.985 . S
H294 N291 0.984 . S
H295 N291 0.985 . S
H296 N290 0.984 . S
H297 N290 0.984 . S
H298 N286 0.984 . S
H299 N286 0.985 . S
C300 C301 1.363 . S
C300 C306 1.379 . S
C300 N308 1.356 . S
C301 C300 1.363 . S
C301 C307 1.363 . S
C302 C303 1.363 . S
C302 C307 1.379 . S
C302 N309 1.356 . S
C303 C302 1.363 . S
C303 C306 1.363 . S
N304 C306 1.356 . S
N304 H316 0.984 . S
N304 H317 0.985 . S
N305 C307 1.356 . S
N305 H310 0.984 . S
N305 H311 0.985 . S
C306 C300 1.379 . S
C306 C303 1.363 . S
C306 N304 1.356 . S
C307 C301 1.363 . S
C307 C302 1.379 . S
C307 N305 1.356 . S
N308 C300 1.356 . S
N308 H314 0.984 . S
N308 H315 0.984 . S
N309 C302 1.356 . S
N309 H312 0.984 . S
N309 H313 0.985 . S
H310 N305 0.984 . S
H311 N305 0.985 . S
H312 N309 0.984 . S
H313 N309 0.985 . S
H314 N308 0.984 . S
H315 N308 0.984 . S
H316 N304 0.984 . S
H317 N304 0.985 . S
C318 C319 1.363 . S
C318 C324 1.379 . S
C318 N326 1.356 . S
C319 C318 1.363 . S
C319 C325 1.363 . S
C320 C321 1.363 . S
C320 C325 1.379 . S
C320 N327 1.356 . S
C321 C320 1.363 . S
C321 C324 1.363 . S
N322 C324 1.356 . S
N322 H334 0.984 . S
N322 H335 0.985 . S
N323 C325 1.356 . S
N323 H328 0.984 . S
N323 H329 0.985 . S
C324 C318 1.379 . S
C324 C321 1.363 . S
C324 N322 1.356 . S
C325 C319 1.363 . S
C325 C320 1.379 . S
C325 N323 1.356 . S
N326 C318 1.356 . S
N326 H332 0.984 . S
N326 H333 0.984 . S
N327 C320 1.356 . S
N327 H330 0.984 . S
N327 H331 0.985 . S
H328 N323 0.984 . S
H329 N323 0.985 . S
H330 N327 0.984 . S
H331 N327 0.985 . S
H332 N326 0.984 . S
H333 N326 0.984 . S
H334 N322 0.984 . S
H335 N322 0.985 . S
C336 C337 1.363 . S
C336 C342 1.379 . S
C336 N344 1.356 . S
C337 C336 1.363 . S
C337 C343 1.363 . S
C338 C339 1.363 . S
C338 C343 1.379 . S
C338 N345 1.356 . S
C339 C338 1.363 . S
C339 C342 1.363 . S
N340 C342 1.356 . S
N340 H352 0.984 . S
N340 H353 0.985 . S
N341 C343 1.356 . S
N341 H346 0.984 . S
N341 H347 0.985 . S
C342 C336 1.379 . S
C342 C339 1.363 . S
C342 N340 1.356 . S
C343 C337 1.363 . S
C343 C338 1.379 . S
C343 N341 1.356 . S
N344 C336 1.356 . S
N344 H350 0.984 . S
N344 H351 0.984 . S
N345 C338 1.356 . S
N345 H348 0.984 . S
N345 H349 0.985 . S
H346 N341 0.984 . S
H347 N341 0.985 . S
H348 N345 0.984 . S
H349 N345 0.985 . S
H350 N344 0.984 . S
H351 N344 0.984 . S
H352 N340 0.984 . S
H353 N340 0.985 . S
C354 C355 1.363 . S
C354 C360 1.379 . S
C354 N362 1.356 . S
C355 C354 1.363 . S
C355 C361 1.363 . S
C356 C357 1.363 . S
C356 C361 1.379 . S
C356 N363 1.356 . S
C357 C356 1.363 . S
C357 C360 1.363 . S
N358 C360 1.356 . S
N358 H370 0.984 . S
N358 H371 0.985 . S
N359 C361 1.356 . S
N359 H364 0.984 . S
N359 H365 0.985 . S
C360 C354 1.379 . S
C360 C357 1.363 . S
C360 N358 1.356 . S
C361 C355 1.363 . S
C361 C356 1.379 . S
C361 N359 1.356 . S
N362 C354 1.356 . S
N362 H368 0.984 . S
N362 H369 0.984 . S
N363 C356 1.356 . S
N363 H366 0.984 . S
N363 H367 0.985 . S
H364 N359 0.984 . S
H365 N359 0.985 . S
H366 N363 0.984 . S
H367 N363 0.985 . S
H368 N362 0.984 . S
H369 N362 0.984 . S
H370 N358 0.984 . S
H371 N358 0.985 . S
C372 C373 1.363 . S
C372 C378 1.379 . S
C372 N380 1.356 . S
C373 C372 1.363 . S
C373 C379 1.363 . S
C374 C375 1.363 . S
C374 C379 1.379 . S
C374 N381 1.356 . S
C375 C374 1.363 . S
C375 C378 1.363 . S
N376 C378 1.356 . S
N376 H388 0.984 . S
N376 H389 0.985 . S
N377 C379 1.356 . S
N377 H382 0.984 . S
N377 H383 0.985 . S
C378 C372 1.379 . S
C378 C375 1.363 . S
C378 N376 1.356 . S
C379 C373 1.363 . S
C379 C374 1.379 . S
C379 N377 1.356 . S
N380 C372 1.356 . S
N380 H386 0.984 . S
N380 H387 0.984 . S
N381 C374 1.356 . S
N381 H384 0.984 . S
N381 H385 0.985 . S
H382 N377 0.984 . S
H383 N377 0.985 . S
H384 N381 0.984 . S
H385 N381 0.985 . S
H386 N380 0.984 . S
H387 N380 0.984 . S
H388 N376 0.984 . S
H389 N376 0.985 . S
C390 C391 1.363 . S
C390 C396 1.379 . S
C390 N398 1.356 . S
C391 C390 1.363 . S
C391 C397 1.363 . S
C392 C393 1.363 . S
C392 C397 1.379 . S
C392 N399 1.356 . S
C393 C392 1.363 . S
C393 C396 1.363 . S
N394 C396 1.356 . S
N394 H406 0.984 . S
N394 H407 0.985 . S
N395 C397 1.356 . S
N395 H400 0.984 . S
N395 H401 0.985 . S
C396 C390 1.379 . S
C396 C393 1.363 . S
C396 N394 1.356 . S
C397 C391 1.363 . S
C397 C392 1.379 . S
C397 N395 1.356 . S
N398 C390 1.356 . S
N398 H404 0.984 . S
N398 H405 0.984 . S
N399 C392 1.356 . S
N399 H402 0.984 . S
N399 H403 0.985 . S
H400 N395 0.984 . S
H401 N395 0.985 . S
H402 N399 0.984 . S
H403 N399 0.985 . S
H404 N398 0.984 . S
H405 N398 0.984 . S
H406 N394 0.984 . S
H407 N394 0.985 . S
C408 C409 1.363 . S
C408 C414 1.379 . S
C408 N416 1.356 . S
C409 C408 1.363 . S
C409 C415 1.363 . S
C410 C411 1.363 . S
C410 C415 1.379 1_556 S
C410 N417 1.356 . S
C411 C410 1.363 . S
C411 C414 1.363 1_556 S
N412 C414 1.356 1_556 S
N412 H424 0.984 . S
N412 H425 0.985 . S
N413 C415 1.356 . S
N413 H418 0.984 . S
N413 H419 0.985 . S
C414 C408 1.379 . S
C414 C411 1.363 1_554 S
C414 N412 1.356 1_554 S
C415 C409 1.363 . S
C415 C410 1.379 1_554 S
C415 N413 1.356 . S
N416 C408 1.356 . S
N416 H422 0.984 . S
N416 H423 0.984 . S
N417 C410 1.356 . S
N417 H420 0.984 . S
N417 H421 0.985 . S
H418 N413 0.984 . S
H419 N413 0.985 . S
H420 N417 0.984 . S
H421 N417 0.985 . S
H422 N416 0.984 . S
H423 N416 0.984 . S
H424 N412 0.984 . S
H425 N412 0.985 . S
C426 C427 1.363 1_565 S
C426 C432 1.379 . S
C426 N434 1.356 . S
C427 C426 1.363 1_545 S
C427 C433 1.363 . S
C428 C429 1.363 . S
C428 C433 1.379 . S
C428 N435 1.356 . S
C429 C428 1.363 . S
C429 C432 1.363 1_545 S
N430 C432 1.356 . S
N430 H442 0.984 . S
N430 H443 0.985 . S
N431 C433 1.356 . S
N431 H436 0.984 . S
N431 H437 0.985 . S
C432 C426 1.379 . S
C432 C429 1.363 1_565 S
C432 N430 1.356 . S
C433 C427 1.363 . S
C433 C428 1.379 . S
C433 N431 1.356 . S
N434 C426 1.356 . S
N434 H440 0.984 . S
N434 H441 0.984 . S
N435 C428 1.356 . S
N435 H438 0.984 . S
N435 H439 0.985 . S
H436 N431 0.984 . S
H437 N431 0.985 . S
H438 N435 0.984 . S
H439 N435 0.985 . S
H440 N434 0.984 . S
H441 N434 0.984 . S
H442 N430 0.984 . S
H443 N430 0.985 . S
C444 C445 1.363 . S
C444 C450 1.379 . S
C444 N452 1.356 . S
C445 C444 1.363 . S
C445 C451 1.363 . S
C446 C447 1.363 . S
C446 C451 1.379 . S
C446 N453 1.356 . S
C447 C446 1.363 . S
C447 C450 1.363 . S
N448 C450 1.356 . S
N448 H460 0.984 . S
N448 H461 0.985 . S
N449 C451 1.356 . S
N449 H454 0.984 . S
N449 H455 0.985 . S
C450 C444 1.379 . S
C450 C447 1.363 . S
C450 N448 1.356 . S
C451 C445 1.363 . S
C451 C446 1.379 . S
C451 N449 1.356 . S
N452 C444 1.356 . S
N452 H458 0.984 . S
N452 H459 0.984 . S
N453 C446 1.356 . S
N453 H456 0.984 . S
N453 H457 0.985 . S
H454 N449 0.984 . S
H455 N449 0.985 . S
H456 N453 0.984 . S
H457 N453 0.985 . S
H458 N452 0.984 . S
H459 N452 0.984 . S
H460 N448 0.984 . S
H461 N448 0.985 . S
C462 C463 1.363 . S
C462 C468 1.379 . S
C462 N470 1.356 . S
C463 C462 1.363 . S
C463 C469 1.363 1_545 S
C464 C465 1.363 1_565 S
C464 C469 1.379 . S
C464 N471 1.356 . S
C465 C464 1.363 1_545 S
C465 C468 1.363 . S
N466 C468 1.356 . S
N466 H478 0.984 . S
N466 H479 0.985 . S
N467 C469 1.356 . S
N467 H472 0.984 . S
N467 H473 0.985 . S
C468 C462 1.379 . S
C468 C465 1.363 . S
C468 N466 1.356 . S
C469 C463 1.363 1_565 S
C469 C464 1.379 . S
C469 N467 1.356 . S
N470 C462 1.356 . S
N470 H476 0.984 . S
N470 H477 0.984 . S
N471 C464 1.356 . S
N471 H474 0.984 . S
N471 H475 0.985 . S
H472 N467 0.984 . S
H473 N467 0.985 . S
H474 N471 0.984 . S
H475 N471 0.985 . S
H476 N470 0.984 . S
H477 N470 0.984 . S
H478 N466 0.984 . S
H479 N466 0.985 . S
C480 C481 1.363 . S
C480 C486 1.379 1_556 S
C480 N488 1.356 . S
C481 C480 1.363 . S
C481 C487 1.363 . S
C482 C483 1.363 1_556 S
C482 C487 1.379 . S
C482 N489 1.356 1_556 S
C483 C482 1.363 1_554 S
C483 C486 1.363 . S
N484 C486 1.356 . S
N484 H496 0.984 . S
N484 H497 0.985 . S
N485 C487 1.356 . S
N485 H490 0.984 . S
N485 H491 0.985 . S
C486 C480 1.379 1_554 S
C486 C483 1.363 . S
C486 N484 1.356 . S
C487 C481 1.363 . S
C487 C482 1.379 . S
C487 N485 1.356 . S
N488 C480 1.356 . S
N488 H494 0.984 . S
N488 H495 0.984 . S
N489 C482 1.356 1_554 S
N489 H492 0.984 . S
N489 H493 0.985 1_554 S
H490 N485 0.984 . S
H491 N485 0.985 . S
H492 N489 0.984 . S
H493 N489 0.985 1_556 S
H494 N488 0.984 . S
H495 N488 0.984 . S
H496 N484 0.984 . S
H497 N484 0.985 . S
C498 C499 1.363 . S
C498 C504 1.379 . S
C498 N506 1.356 . S
C499 C498 1.363 . S
C499 C505 1.363 1_455 S
C500 C501 1.363 1_655 S
C500 C505 1.379 . S
C500 N507 1.356 . S
C501 C500 1.363 1_455 S
C501 C504 1.363 . S
N502 C504 1.356 . S
N502 H514 0.984 . S
N502 H515 0.985 . S
N503 C505 1.356 . S
N503 H508 0.984 . S
N503 H509 0.985 . S
C504 C498 1.379 . S
C504 C501 1.363 . S
C504 N502 1.356 . S
C505 C499 1.363 1_655 S
C505 C500 1.379 . S
C505 N503 1.356 . S
N506 C498 1.356 . S
N506 H512 0.984 . S
N506 H513 0.984 . S
N507 C500 1.356 . S
N507 H510 0.984 . S
N507 H511 0.985 . S
H508 N503 0.984 . S
H509 N503 0.985 . S
H510 N507 0.984 . S
H511 N507 0.985 . S
H512 N506 0.984 . S
H513 N506 0.984 . S
H514 N502 0.984 . S
H515 N502 0.985 . S
C193 C7 1.186 . S
C195 C186 1.303 . S
C211 C51 1.972 . S
C213 C160 1.896 . S
C229 C87 1.388 . S
C231 C172 1.432 . S
C247 C16 0.641 . S
C249 C184 0.498 . S
C267 C162 1.876 . S
C265 C42 1.923 . S
C285 C174 1.279 . S
C283 C96 1.250 . S
C301 C47 1.371 . S
C303 C136 1.397 . S
C319 C91 3.330 . S
C321 C150 3.302 . S
C337 C2 1.948 . S
C339 C126 1.931 . S
C357 C138 1.276 . S
C355 C56 1.239 . S
C375 C148 2.808 . S
C373 C82 2.926 . S
C391 C11 1.985 . S
C393 C124 1.928 . S
C411 C153 1.821 . S
C409 C19 1.725 . S
C427 C50 1.395 . S
C429 C129 1.457 . S
C445 C99 1.508 . S
C447 C141 1.523 . S
C465 C177 1.512 . S
C463 C59 1.508 . S
C483 C189 1.186 . S
C481 C90 1.171 . S
C499 C10 1.394 . S
C501 C165 1.420 . S
