# Generated by pormake.
# Topology eea, (3,6)-cn, num edge types: 1
# Building blocks:
#     Node 0, Type 0, BuildingBlock: BETDAH_clean_linker_0, # of connection points: 3
#     Node 1, Type 0, BuildingBlock: BETDAH_clean_linker_0, # of connection points: 3
#     Node 2, Type 0, BuildingBlock: BETDAH_clean_linker_0, # of connection points: 3
#     Node 3, Type 0, BuildingBlock: BETDAH_clean_linker_0, # of connection points: 3
#     Node 4, Type 0, BuildingBlock: BETDAH_clean_linker_0, # of connection points: 3
#     Node 5, Type 0, BuildingBlock: BETDAH_clean_linker_0, # of connection points: 3
#     Node 6, Type 0, BuildingBlock: BETDAH_clean_linker_0, # of connection points: 3
#     Node 7, Type 0, BuildingBlock: BETDAH_clean_linker_0, # of connection points: 3
#     Node 8, Type 0, BuildingBlock: BETDAH_clean_linker_0, # of connection points: 3
#     Node 9, Type 0, BuildingBlock: BETDAH_clean_linker_0, # of connection points: 3
#     Node 10, Type 0, BuildingBlock: BETDAH_clean_linker_0, # of connection points: 3
#     Node 11, Type 0, BuildingBlock: BETDAH_clean_linker_0, # of connection points: 3
#     Node 12, Type 0, BuildingBlock: BETDAH_clean_linker_0, # of connection points: 3
#     Node 13, Type 0, BuildingBlock: BETDAH_clean_linker_0, # of connection points: 3
#     Node 14, Type 0, BuildingBlock: BETDAH_clean_linker_0, # of connection points: 3
#     Node 15, Type 0, BuildingBlock: BETDAH_clean_linker_0, # of connection points: 3
#     Node 16, Type 0, BuildingBlock: BETDAH_clean_linker_0, # of connection points: 3
#     Node 17, Type 0, BuildingBlock: BETDAH_clean_linker_0, # of connection points: 3
#     Node 18, Type 1, BuildingBlock: CUKXOW_clean_sbu_0, # of connection points: 6
#     Node 19, Type 1, BuildingBlock: CUKXOW_clean_sbu_0, # of connection points: 6
#     Node 20, Type 1, BuildingBlock: CUKXOW_clean_sbu_0, # of connection points: 6
#     Node 21, Type 1, BuildingBlock: CUKXOW_clean_sbu_0, # of connection points: 6
#     Node 22, Type 1, BuildingBlock: CUKXOW_clean_sbu_0, # of connection points: 6
#     Node 23, Type 1, BuildingBlock: CUKXOW_clean_sbu_0, # of connection points: 6
#     Node 24, Type 1, BuildingBlock: CUKXOW_clean_sbu_0, # of connection points: 6
#     Node 25, Type 1, BuildingBlock: CUKXOW_clean_sbu_0, # of connection points: 6
#     Node 26, Type 1, BuildingBlock: CUKXOW_clean_sbu_0, # of connection points: 6
#     Edge 27, Type (0, 1), BuildingBlock: XIVTED_clean_linker_0, # of connection points: 2
#     Edge 28, Type (0, 1), BuildingBlock: XIVTED_clean_linker_0, # of connection points: 2
#     Edge 29, Type (0, 1), BuildingBlock: XIVTED_clean_linker_0, # of connection points: 2
#     Edge 30, Type (0, 1), BuildingBlock: XIVTED_clean_linker_0, # of connection points: 2
#     Edge 31, Type (0, 1), BuildingBlock: XIVTED_clean_linker_0, # of connection points: 2
#     Edge 32, Type (0, 1), BuildingBlock: XIVTED_clean_linker_0, # of connection points: 2
#     Edge 33, Type (0, 1), BuildingBlock: XIVTED_clean_linker_0, # of connection points: 2
#     Edge 34, Type (0, 1), BuildingBlock: XIVTED_clean_linker_0, # of connection points: 2
#     Edge 35, Type (0, 1), BuildingBlock: XIVTED_clean_linker_0, # of connection points: 2
#     Edge 36, Type (0, 1), BuildingBlock: XIVTED_clean_linker_0, # of connection points: 2
#     Edge 37, Type (0, 1), BuildingBlock: XIVTED_clean_linker_0, # of connection points: 2
#     Edge 38, Type (0, 1), BuildingBlock: XIVTED_clean_linker_0, # of connection points: 2
#     Edge 39, Type (0, 1), BuildingBlock: XIVTED_clean_linker_0, # of connection points: 2
#     Edge 40, Type (0, 1), BuildingBlock: XIVTED_clean_linker_0, # of connection points: 2
#     Edge 41, Type (0, 1), BuildingBlock: XIVTED_clean_linker_0, # of connection points: 2
#     Edge 42, Type (0, 1), BuildingBlock: XIVTED_clean_linker_0, # of connection points: 2
#     Edge 43, Type (0, 1), BuildingBlock: XIVTED_clean_linker_0, # of connection points: 2
#     Edge 44, Type (0, 1), BuildingBlock: XIVTED_clean_linker_0, # of connection points: 2
#     Edge 45, Type (0, 1), BuildingBlock: XIVTED_clean_linker_0, # of connection points: 2
#     Edge 46, Type (0, 1), BuildingBlock: XIVTED_clean_linker_0, # of connection points: 2
#     Edge 47, Type (0, 1), BuildingBlock: XIVTED_clean_linker_0, # of connection points: 2
#     Edge 48, Type (0, 1), BuildingBlock: XIVTED_clean_linker_0, # of connection points: 2
#     Edge 49, Type (0, 1), BuildingBlock: XIVTED_clean_linker_0, # of connection points: 2
#     Edge 50, Type (0, 1), BuildingBlock: XIVTED_clean_linker_0, # of connection points: 2
#     Edge 51, Type (0, 1), BuildingBlock: XIVTED_clean_linker_0, # of connection points: 2
#     Edge 52, Type (0, 1), BuildingBlock: XIVTED_clean_linker_0, # of connection points: 2
#     Edge 53, Type (0, 1), BuildingBlock: XIVTED_clean_linker_0, # of connection points: 2
#     Edge 54, Type (0, 1), BuildingBlock: XIVTED_clean_linker_0, # of connection points: 2
#     Edge 55, Type (0, 1), BuildingBlock: XIVTED_clean_linker_0, # of connection points: 2
#     Edge 56, Type (0, 1), BuildingBlock: XIVTED_clean_linker_0, # of connection points: 2
#     Edge 57, Type (0, 1), BuildingBlock: XIVTED_clean_linker_0, # of connection points: 2
#     Edge 58, Type (0, 1), BuildingBlock: XIVTED_clean_linker_0, # of connection points: 2
#     Edge 59, Type (0, 1), BuildingBlock: XIVTED_clean_linker_0, # of connection points: 2
#     Edge 60, Type (0, 1), BuildingBlock: XIVTED_clean_linker_0, # of connection points: 2
#     Edge 61, Type (0, 1), BuildingBlock: XIVTED_clean_linker_0, # of connection points: 2
#     Edge 62, Type (0, 1), BuildingBlock: XIVTED_clean_linker_0, # of connection points: 2
#     Edge 63, Type (0, 1), BuildingBlock: XIVTED_clean_linker_0, # of connection points: 2
#     Edge 64, Type (0, 1), BuildingBlock: XIVTED_clean_linker_0, # of connection points: 2
#     Edge 65, Type (0, 1), BuildingBlock: XIVTED_clean_linker_0, # of connection points: 2
#     Edge 66, Type (0, 1), BuildingBlock: XIVTED_clean_linker_0, # of connection points: 2
#     Edge 67, Type (0, 1), BuildingBlock: XIVTED_clean_linker_0, # of connection points: 2
#     Edge 68, Type (0, 1), BuildingBlock: XIVTED_clean_linker_0, # of connection points: 2
#     Edge 69, Type (0, 1), BuildingBlock: XIVTED_clean_linker_0, # of connection points: 2
#     Edge 70, Type (0, 1), BuildingBlock: XIVTED_clean_linker_0, # of connection points: 2
#     Edge 71, Type (0, 1), BuildingBlock: XIVTED_clean_linker_0, # of connection points: 2
#     Edge 72, Type (0, 1), BuildingBlock: XIVTED_clean_linker_0, # of connection points: 2
#     Edge 73, Type (0, 1), BuildingBlock: XIVTED_clean_linker_0, # of connection points: 2
#     Edge 74, Type (0, 1), BuildingBlock: XIVTED_clean_linker_0, # of connection points: 2
#     Edge 75, Type (0, 1), BuildingBlock: XIVTED_clean_linker_0, # of connection points: 2
#     Edge 76, Type (0, 1), BuildingBlock: XIVTED_clean_linker_0, # of connection points: 2
#     Edge 77, Type (0, 1), BuildingBlock: XIVTED_clean_linker_0, # of connection points: 2
#     Edge 78, Type (0, 1), BuildingBlock: XIVTED_clean_linker_0, # of connection points: 2
#     Edge 79, Type (0, 1), BuildingBlock: XIVTED_clean_linker_0, # of connection points: 2
#     Edge 80, Type (0, 1), BuildingBlock: XIVTED_clean_linker_0, # of connection points: 2
# Relax obj value: 0.033
# Max RMSD: 0.156
# Mean RMSD: 0.090
data_MOF--net-eea--node1-CUKXOW_clean_sbu_0--node2-BETDAH_clean_linker_0--edge1-XIVTED_clean_linker_0
_symmetry_space_group_name_H-M    P1
_symmetry_Int_Tables_number       1
_symmetry_cell_setting            triclinic
loop_
_symmetry_equiv_pos_as_xyz
'x, y, z'
_cell_length_a     60.419402
_cell_length_b     56.964527
_cell_length_c     50.380363
_cell_angle_alpha  93.264465
_cell_angle_beta   93.350558
_cell_angle_gamma 119.93561
loop_
_atom_site_label
_atom_site_type_symbol
_atom_site_fract_x
_atom_site_fract_y
_atom_site_fract_z
_atom_type_partial_charge
H0 H 0.24696 0.07635 0.44777 0.0
H1 H 0.26744 0.15904 0.43658 0.0
H2 H 0.23651 0.0978 0.36961 0.0
C3 C 0.2481 0.09147 0.43491 0.0
C4 C 0.24016 0.0837 0.40758 0.0
C5 C 0.25858 0.11871 0.44562 0.0
C6 C 0.25927 0.13795 0.42879 0.0
C7 C 0.2512 0.13022 0.40132 0.0
C8 C 0.24228 0.10339 0.39086 0.0
N9 N 0.25363 0.14932 0.38324 0.0
C10 C 0.24714 0.16922 0.38824 0.0
H11 H 0.9212 0.18102 0.45158 0.0
H12 H 0.85473 0.10096 0.43493 0.0
H13 H 0.91365 0.12933 0.38162 0.0
C14 C 0.91047 0.16208 0.43878 0.0
C15 C 0.92054 0.15799 0.41558 0.0
C16 C 0.88686 0.1415 0.44599 0.0
C17 C 0.87295 0.11681 0.42948 0.0
C18 C 0.88254 0.1128 0.40594 0.0
C19 C 0.90618 0.13327 0.39931 0.0
N20 N 0.86929 0.08845 0.38841 0.0
C21 C 0.84688 0.06517 0.39309 0.0
H22 H 0.83704 0.73985 0.46669 0.0
H23 H 0.89131 0.7173 0.44149 0.0
H24 H 0.85334 0.74202 0.38447 0.0
C25 C 0.84738 0.73716 0.45104 0.0
C26 C 0.8432 0.74253 0.42491 0.0
C27 C 0.86439 0.7277 0.45713 0.0
C28 C 0.87816 0.72461 0.43703 0.0
C29 C 0.87442 0.7303 0.41093 0.0
C30 C 0.85664 0.73863 0.4049 0.0
N31 N 0.8873 0.72643 0.39005 0.0
C32 C 0.91376 0.73777 0.39195 0.0
H33 H 0.08754 0.27952 0.57014 0.0
H34 H 0.16565 0.30213 0.59494 0.0
H35 H 0.10845 0.26818 0.64969 0.0
C36 C 0.10179 0.28109 0.58533 0.0
C37 C 0.09445 0.27189 0.61046 0.0
C38 C 0.12751 0.2925 0.57965 0.0
C39 C 0.14584 0.29379 0.59911 0.0
C40 C 0.13873 0.28463 0.62415 0.0
C41 C 0.11335 0.27436 0.62992 0.0
N42 N 0.1571 0.28661 0.64426 0.0
C43 C 0.17106 0.27353 0.64079 0.0
H44 H 0.75156 0.819 0.58026 0.0
H45 H 0.73568 0.88319 0.60186 0.0
H46 H 0.76385 0.85191 0.6622 0.0
C47 C 0.75096 0.83312 0.59515 0.0
C48 C 0.75868 0.83329 0.62207 0.0
C49 C 0.7422 0.85075 0.58749 0.0
C50 C 0.74254 0.86961 0.60716 0.0
C51 C 0.75044 0.87001 0.63406 0.0
C52 C 0.75783 0.85145 0.64139 0.0
N53 N 0.7506 0.88839 0.65437 0.0
C54 C 0.75611 0.91462 0.65042 0.0
H55 H 0.17478 0.9255 0.56702 0.0
H56 H 0.12853 0.83948 0.57407 0.0
H57 H 0.14965 0.89685 0.64292 0.0
C58 C 0.16399 0.90883 0.57886 0.0
C59 C 0.16364 0.91454 0.60629 0.0
C60 C 0.15162 0.88181 0.56687 0.0
C61 C 0.13772 0.86047 0.58259 0.0
C62 C 0.13675 0.86601 0.60982 0.0
C63 C 0.14992 0.8929 0.62167 0.0
N64 N 0.12464 0.84435 0.62589 0.0
C65 C 0.09891 0.83319 0.62984 0.0
H66 H 0.92824 0.41495 0.77517 0.0
H67 H 0.93684 0.49382 0.76585 0.0
H68 H 0.90587 0.43183 0.69948 0.0
C69 C 0.92641 0.42899 0.76282 0.0
C70 C 0.91594 0.42012 0.73617 0.0
C71 C 0.93423 0.45559 0.77382 0.0
C72 C 0.93061 0.47319 0.75785 0.0
C73 C 0.92038 0.46446 0.73091 0.0
C74 C 0.91331 0.43815 0.72033 0.0
N75 N 0.91846 0.48193 0.71316 0.0
C76 C 0.91427 0.5032 0.72022 0.0
H77 H 0.59219 0.51558 0.7884 0.0
H78 H 0.52151 0.44007 0.76479 0.0
H79 H 0.58139 0.47012 0.71287 0.0
C80 C 0.58033 0.49809 0.77408 0.0
C81 C 0.58976 0.4957 0.74976 0.0
C82 C 0.55567 0.4781 0.77991 0.0
C83 C 0.54068 0.45533 0.76104 0.0
C84 C 0.55009 0.45265 0.73688 0.0
C85 C 0.57436 0.4728 0.73145 0.0
N86 N 0.5357 0.43026 0.71719 0.0
C87 C 0.5137 0.40617 0.72106 0.0
H88 H 0.50117 0.07685 0.79919 0.0
H89 H 0.5607 0.05921 0.78196 0.0
H90 H 0.52698 0.08409 0.72073 0.0
C91 C 0.51429 0.07649 0.78566 0.0
C92 C 0.51252 0.08278 0.75931 0.0
C93 C 0.53178 0.0683 0.79439 0.0
C94 C 0.54743 0.06595 0.77599 0.0
C95 C 0.54522 0.07127 0.7494 0.0
C96 C 0.52801 0.07975 0.74127 0.0
N97 N 0.55799 0.06533 0.72977 0.0
C98 C 0.5845 0.07864 0.73008 0.0
H99 H 0.75468 0.60483 0.89612 0.0
H100 H 0.83171 0.62838 0.92683 0.0
H101 H 0.77118 0.59627 0.97818 0.0
C102 C 0.76818 0.60694 0.91252 0.0
C103 C 0.7595 0.59875 0.93748 0.0
C104 C 0.79424 0.61803 0.90857 0.0
C105 C 0.81161 0.62018 0.92968 0.0
C106 C 0.8031 0.61202 0.95465 0.0
C107 C 0.77731 0.60191 0.95859 0.0
N108 N 0.8203 0.61431 0.97625 0.0
C109 C 0.83521 0.60216 0.97427 0.0
H110 H 0.41732 0.1521 0.90346 0.0
H111 H 0.4194 0.22772 0.92457 0.0
H112 H 0.45305 0.19712 0.98 0.0
C113 C 0.42271 0.16961 0.91758 0.0
C114 C 0.43622 0.17245 0.94233 0.0
C115 C 0.41647 0.18948 0.91093 0.0
C116 C 0.4238 0.21215 0.92955 0.0
C117 C 0.43698 0.2148 0.95449 0.0
C118 C 0.4429 0.1949 0.9607 0.0
N119 N 0.44468 0.23714 0.97393 0.0
C120 C 0.44644 0.26161 0.96863 0.0
H121 H 0.84135 0.24995 0.89885 0.0
H122 H 0.7857 0.16774 0.91209 0.0
H123 H 0.81968 0.23 0.97795 0.0
C124 C 0.82964 0.23527 0.91212 0.0
C125 C 0.83221 0.24349 0.9395 0.0
C126 C 0.81323 0.20789 0.90204 0.0
C127 C 0.7985 0.1889 0.91952 0.0
C128 C 0.80079 0.19704 0.94683 0.0
C129 C 0.81795 0.22406 0.95676 0.0
N130 N 0.78693 0.178 0.96485 0.0
C131 C 0.7603 0.16384 0.96277 0.0
H132 H 0.57987 0.74441 0.12428 0.0
H133 H 0.59249 0.82505 0.11573 0.0
H134 H 0.57442 0.76886 0.04637 0.0
C135 C 0.58036 0.7596 0.11194 0.0
C136 C 0.57566 0.75331 0.08414 0.0
C137 C 0.58669 0.78548 0.12376 0.0
C138 C 0.58781 0.80506 0.10711 0.0
C139 C 0.58349 0.79896 0.07915 0.0
C140 C 0.5779 0.77337 0.06791 0.0
N141 N 0.58548 0.8183 0.06157 0.0
C142 C 0.57816 0.8375 0.06682 0.0
H143 H 0.25161 0.84779 0.12061 0.0
H144 H 0.18146 0.77247 0.09533 0.0
H145 H 0.24168 0.80445 0.0439 0.0
C146 C 0.24017 0.83049 0.10593 0.0
C147 C 0.24995 0.82882 0.08164 0.0
C148 C 0.21539 0.81029 0.1111 0.0
C149 C 0.20041 0.78826 0.09155 0.0
C150 C 0.20998 0.78657 0.06721 0.0
C151 C 0.23449 0.8067 0.06251 0.0
N152 N 0.19563 0.76503 0.04675 0.0
C153 C 0.17428 0.7403 0.05032 0.0
H154 H 0.17174 0.41814 0.13668 0.0
H155 H 0.23285 0.40248 0.12085 0.0
H156 H 0.19423 0.4193 0.05723 0.0
C157 C 0.18455 0.41705 0.12316 0.0
C158 C 0.18134 0.42069 0.09616 0.0
C159 C 0.20308 0.41054 0.13254 0.0
C160 C 0.21859 0.40769 0.11427 0.0
C161 C 0.21497 0.41051 0.0871 0.0
C162 C 0.19645 0.4169 0.07822 0.0
N163 N 0.2283 0.4049 0.06792 0.0
C164 C 0.25487 0.41824 0.06923 0.0
H165 H 0.41861 0.93381 0.22567 0.0
H166 H 0.49529 0.95472 0.25554 0.0
H167 H 0.43536 0.92492 0.30749 0.0
C168 C 0.43212 0.93536 0.24176 0.0
C169 C 0.42355 0.92732 0.26684 0.0
C170 C 0.45807 0.94563 0.23745 0.0
C171 C 0.47532 0.94721 0.25847 0.0
C172 C 0.46697 0.93964 0.2836 0.0
C173 C 0.44136 0.93018 0.28778 0.0
N174 N 0.4843 0.94249 0.30533 0.0
C175 C 0.49851 0.92949 0.30438 0.0
H176 H 0.08565 0.48087 0.23391 0.0
H177 H 0.0819 0.55366 0.25309 0.0
H178 H 0.10899 0.52153 0.31352 0.0
C179 C 0.08833 0.49731 0.24809 0.0
C180 C 0.09774 0.49869 0.27468 0.0
C181 C 0.08216 0.51686 0.23994 0.0
C182 C 0.08676 0.53859 0.2587 0.0
C183 C 0.09659 0.54026 0.28517 0.0
C184 C 0.10145 0.52005 0.29303 0.0
N185 N 0.10142 0.56163 0.30472 0.0
C186 C 0.10516 0.58689 0.29918 0.0
H187 H 0.51311 0.59037 0.23466 0.0
H188 H 0.46099 0.5042 0.23484 0.0
H189 H 0.47705 0.5582 0.30538 0.0
C190 C 0.49989 0.57309 0.24459 0.0
C191 C 0.49647 0.57734 0.27138 0.0
C192 C 0.48692 0.54682 0.23086 0.0
C193 C 0.47028 0.5248 0.24448 0.0
C194 C 0.46622 0.52892 0.27102 0.0
C195 C 0.47918 0.55525 0.28444 0.0
N196 N 0.45194 0.50597 0.28499 0.0
C197 C 0.42851 0.49969 0.29399 0.0
Tb198 Tb 0.53166 0.02531 0.01327 0.0
C199 C 0.51809 0.96666 0.02638 0.0
Tb200 Tb 0.47431 0.98218 0.01728 0.0
O201 O 0.54205 0.02689 0.05607 0.0
O202 O 0.50459 0.01535 0.04166 0.0
O203 O 0.53488 0.98936 0.01662 0.0
C204 C 0.42835 0.94871 0.033 0.0
O205 O 0.49424 0.96068 0.0301 0.0
C206 C 0.48817 0.9912 0.96878 0.0
C207 C 0.48825 0.0409 0.00359 0.0
O208 O 0.43836 0.94293 0.0133 0.0
O209 O 0.4442 0.97321 0.04384 0.0
O210 O 0.46488 0.98255 0.97474 0.0
O211 O 0.5015 0.9917 0.98918 0.0
O212 O 0.47128 0.01839 0.0135 0.0
O213 O 0.51192 0.04649 0.99986 0.0
C214 C 0.57677 0.05924 0.99616 0.0
O215 O 0.56731 0.06474 0.01653 0.0
O216 O 0.56075 0.03474 0.98536 0.0
C217 C 0.51855 0.01661 0.06196 0.0
Tb218 Tb 0.97689 0.50188 0.00979 0.0
C219 C 0.03494 0.54637 0.02042 0.0
Tb220 Tb 0.0156 0.48281 0.01626 0.0
O221 O 0.98661 0.51887 0.05174 0.0
O222 O 0.98861 0.48445 0.03972 0.0
O223 O 0.01177 0.54107 0.01107 0.0
C224 C 0.05141 0.4715 0.03415 0.0
O225 O 0.04026 0.52693 0.02525 0.0
C226 C 0.99985 0.48247 0.96661 0.0
C227 C 0.95804 0.43881 0.00363 0.0
O228 O 0.03792 0.47771 0.04903 0.0
O229 O 0.04481 0.47174 0.00929 0.0
O230 O 0.00752 0.46624 0.97465 0.0
O231 O 0.0037 0.49987 0.98574 0.0
O232 O 0.98017 0.44419 0.01639 0.0
O233 O 0.95382 0.45838 0.99623 0.0
C234 C 0.94087 0.51402 0.99507 0.0
O235 O 0.94056 0.50053 0.01509 0.0
O236 O 0.96131 0.52037 0.98315 0.0
C237 C 0.99324 0.50164 0.05917 0.0
Tb238 Tb 0.47671 0.49951 1.00125 0.0
C239 C 0.49113 0.45524 0.98723 0.0
Tb240 Tb 0.53308 0.51854 0.99343 0.0
O241 O 0.46554 0.48359 0.95887 0.0
O242 O 0.50164 0.51693 0.97128 0.0
O243 O 0.47482 0.46053 0.999 0.0
C244 C 0.57763 0.52971 0.97557 0.0
O245 O 0.51355 0.47472 0.98065 0.0
C246 C 0.52315 0.51864 0.04324 0.0
C247 C 0.51866 0.56266 0.00918 0.0
O248 O 0.56826 0.51642 0.996 0.0
O249 O 0.56186 0.53664 0.96507 0.0
O250 O 0.54547 0.5345 0.03527 0.0
O251 O 0.5085 0.50178 0.02396 0.0
O252 O 0.53517 0.55787 0.99706 0.0
O253 O 0.49608 0.54286 0.01497 0.0
C254 C 0.43228 0.48778 0.02002 0.0
O255 O 0.44088 0.50065 0.99913 0.0
O256 O 0.44863 0.48152 0.03019 0.0
C257 C 0.48788 0.5005 0.95153 0.0
Tb258 Tb 0.20171 0.36256 0.35488 0.0
C259 C 0.18695 0.30066 0.35771 0.0
Tb260 Tb 0.14403 0.31749 0.35217 0.0
O261 O 0.19919 0.37867 0.39501 0.0
O262 O 0.17569 0.3382 0.38105 0.0
O263 O 0.20503 0.32605 0.35459 0.0
C264 C 0.09786 0.28222 0.36576 0.0
O265 O 0.16218 0.29292 0.35827 0.0
C266 C 0.16103 0.33452 0.30637 0.0
C267 C 0.1591 0.37829 0.34671 0.0
O268 O 0.10793 0.27845 0.34492 0.0
O269 O 0.11382 0.30565 0.37883 0.0
O270 O 0.13714 0.32427 0.31089 0.0
O271 O 0.17331 0.33233 0.32617 0.0
O272 O 0.14277 0.35527 0.35634 0.0
O273 O 0.18254 0.38415 0.34184 0.0
C274 C 0.24997 0.39501 0.34427 0.0
O275 O 0.24321 0.38354 0.36625 0.0
O276 O 0.22958 0.38813 0.3283 0.0
C277 C 0.17987 0.35556 0.39993 0.0
Tb278 Tb 0.6405 0.83193 0.35467 0.0
C279 C 0.69854 0.87579 0.36706 0.0
Tb280 Tb 0.67943 0.81234 0.36014 0.0
O281 O 0.64978 0.84855 0.39665 0.0
O282 O 0.65312 0.81495 0.38422 0.0
O283 O 0.67586 0.87086 0.35629 0.0
C284 C 0.71572 0.80089 0.37563 0.0
O285 O 0.70315 0.85603 0.3728 0.0
C286 C 0.66242 0.81263 0.31121 0.0
C287 C 0.62136 0.76829 0.34813 0.0
O288 O 0.7156 0.81333 0.35487 0.0
O289 O 0.69542 0.79494 0.38771 0.0
O290 O 0.66969 0.79572 0.31812 0.0
O291 O 0.66703 0.82961 0.33084 0.0
O292 O 0.6442 0.77337 0.35856 0.0
O293 O 0.61645 0.78798 0.3428 0.0
C294 C 0.60564 0.84481 0.33756 0.0
O295 O 0.60535 0.83333 0.35919 0.0
O296 O 0.62545 0.84883 0.32548 0.0
C297 C 0.6575 0.83204 0.40373 0.0
Tb298 Tb 0.14127 0.82677 0.33772 0.0
C299 C 0.15656 0.78276 0.32473 0.0
Tb300 Tb 0.19852 0.84603 0.33155 0.0
O301 O 0.12992 0.81156 0.29505 0.0
O302 O 0.16691 0.84268 0.30804 0.0
O303 O 0.14001 0.78805 0.33601 0.0
C304 C 0.24437 0.85992 0.31508 0.0
O305 O 0.17922 0.80223 0.31857 0.0
C306 C 0.18759 0.8471 0.381 0.0
C307 C 0.18255 0.88968 0.34487 0.0
O308 O 0.2322 0.84101 0.33061 0.0
O309 O 0.23072 0.87092 0.30876 0.0
O310 O 0.21034 0.86177 0.37349 0.0
O311 O 0.17311 0.83026 0.36165 0.0
O312 O 0.19907 0.88467 0.33307 0.0
O313 O 0.16019 0.87005 0.35125 0.0
C314 C 0.0959 0.81406 0.35475 0.0
O315 O 0.10626 0.82943 0.3358 0.0
O316 O 0.11115 0.80597 0.36415 0.0
C317 C 0.15293 0.82645 0.28821 0.0
Tb318 Tb 0.86991 0.69834 0.68598 0.0
C319 C 0.85678 0.63645 0.68866 0.0
Tb320 Tb 0.81344 0.65188 0.68325 0.0
O321 O 0.86959 0.71084 0.72805 0.0
O322 O 0.84584 0.67089 0.71166 0.0
O323 O 0.87391 0.66187 0.68436 0.0
C324 C 0.76593 0.62025 0.69674 0.0
O325 O 0.83238 0.62864 0.69165 0.0
C326 C 0.83343 0.66295 0.63751 0.0
C327 C 0.82641 0.71346 0.6802 0.0
O328 O 0.77355 0.6188 0.67342 0.0
O329 O 0.785 0.63947 0.71232 0.0
O330 O 0.81467 0.63906 0.6415 0.0
O331 O 0.83766 0.67923 0.65755 0.0
O332 O 0.80953 0.68838 0.68559 0.0
O333 O 0.85056 0.7209 0.67635 0.0
C334 C 0.9173 0.72958 0.6723 0.0
O335 O 0.90871 0.73386 0.69403 0.0
O336 O 0.89924 0.70777 0.65841 0.0
C337 C 0.85065 0.68707 0.73198 0.0
Tb338 Tb 0.31085 0.17119 0.68009 0.0
C339 C 0.36938 0.21416 0.69132 0.0
Tb340 Tb 0.3491 0.15048 0.68589 0.0
O341 O 0.31931 0.18793 0.72225 0.0
O342 O 0.32421 0.15542 0.71017 0.0
O343 O 0.3467 0.20952 0.68087 0.0
C344 C 0.38417 0.13705 0.70075 0.0
O345 O 0.37372 0.19427 0.69723 0.0
C346 C 0.33102 0.14821 0.63669 0.0
C347 C 0.29055 0.10767 0.67502 0.0
O348 O 0.38495 0.15066 0.6807 0.0
O349 O 0.36365 0.13093 0.71245 0.0
O350 O 0.33911 0.13234 0.64475 0.0
O351 O 0.33593 0.16641 0.65535 0.0
O352 O 0.31304 0.11246 0.68627 0.0
O353 O 0.28647 0.12749 0.66814 0.0
C354 C 0.27613 0.18486 0.66421 0.0
O355 O 0.27424 0.16986 0.68338 0.0
O356 O 0.29746 0.19192 0.65379 0.0
C357 C 0.32847 0.1727 0.72944 0.0
Tb358 Tb 0.81012 0.16408 0.66835 0.0
C359 C 0.82122 0.11454 0.66607 0.0
Tb360 Tb 0.86567 0.17574 0.67095 0.0
O361 O 0.81121 0.17343 0.62642 0.0
O362 O 0.83348 0.1583 0.64241 0.0
O363 O 0.80476 0.1231 0.6706 0.0
C364 C 0.9129 0.19249 0.65708 0.0
O365 O 0.84553 0.13158 0.66214 0.0
C366 C 0.8464 0.1711 0.71691 0.0
C367 C 0.85442 0.22533 0.67388 0.0
O368 O 0.90407 0.18091 0.67857 0.0
O369 O 0.89512 0.19446 0.64343 0.0
O370 O 0.86468 0.16601 0.71258 0.0
O371 O 0.84231 0.18128 0.69705 0.0
O372 O 0.87116 0.21697 0.67014 0.0
O373 O 0.82986 0.20817 0.67654 0.0
C374 C 0.76329 0.14847 0.68289 0.0
O375 O 0.7712 0.15741 0.66014 0.0
O376 O 0.78167 0.14822 0.69727 0.0
C377 C 0.8294 0.16812 0.62231 0.0
H378 H 0.29398 0.85633 0.1168 0.0
H379 H 0.388 0.90531 0.00347 0.0
H380 H 0.26662 0.8485 0.03375 0.0
H381 H 0.41007 0.95209 0.08047 0.0
H382 H 0.34433 0.8776 0.01617 0.0
H383 H 0.33783 0.88654 0.10583 0.0
C384 C 0.29703 0.86111 0.09636 0.0
C385 C 0.27643 0.8494 0.07613 0.0
C386 C 0.35878 0.89392 0.03027 0.0
C387 C 0.32661 0.88317 0.06347 0.0
C388 C 0.38365 0.90957 0.02312 0.0
C389 C 0.40248 0.93098 0.04095 0.0
C390 C 0.35292 0.89938 0.05563 0.0
C391 C 0.39594 0.93579 0.06614 0.0
C392 C 0.32209 0.8782 0.09014 0.0
C393 C 0.28182 0.85624 0.04994 0.0
N394 N 0.37167 0.91996 0.07287 0.0
N395 N 0.30636 0.87232 0.04433 0.0
H396 H 0.15022 0.40315 0.04867 0.0
H397 H 0.07136 0.47642 0.08556 0.0
H398 H 0.16794 0.45483 0.12216 0.0
H399 H 0.07492 0.45058 0.00455 0.0
H400 H 0.10318 0.46409 0.10097 0.0
H401 H 0.11897 0.41599 0.03356 0.0
C402 C 0.14773 0.41733 0.06159 0.0
C403 C 0.16191 0.42798 0.08675 0.0
C404 C 0.09702 0.4612 0.07982 0.0
C405 C 0.12563 0.44224 0.06971 0.0
C406 C 0.07888 0.46816 0.07106 0.0
C407 C 0.07065 0.46451 0.04379 0.0
C408 C 0.10663 0.45018 0.06117 0.0
C409 C 0.08088 0.45375 0.02576 0.0
C410 C 0.12975 0.42453 0.05298 0.0
C411 C 0.15726 0.44577 0.1028 0.0
N412 N 0.09827 0.44681 0.03479 0.0
N413 N 0.13947 0.45226 0.09405 0.0
H414 H 0.59362 0.73869 0.0411 0.0
H415 H 0.49416 0.57982 0.04215 0.0
H416 H 0.5396 0.70489 0.0998 0.0
H417 H 0.5605 0.61018 0.99761 0.0
H418 H 0.50795 0.62628 0.05954 0.0
H419 H 0.57938 0.69239 0.02135 0.0
C420 C 0.57875 0.72152 0.04977 0.0
C421 C 0.56781 0.72557 0.07216 0.0
C422 C 0.51948 0.62282 0.04592 0.0
C423 C 0.55141 0.67277 0.04968 0.0
C424 C 0.51155 0.59626 0.03582 0.0
C425 C 0.52621 0.59103 0.01837 0.0
C426 C 0.54218 0.64446 0.03844 0.0
C427 C 0.54864 0.61325 0.01106 0.0
C428 C 0.57072 0.69516 0.03858 0.0
C429 C 0.54874 0.70265 0.08275 0.0
N430 N 0.55595 0.63904 0.02114 0.0
N431 N 0.54108 0.67726 0.07136 0.0
H432 H 0.86696 0.2625 0.98395 0.0
H433 H 0.91461 0.41931 0.96903 0.0
H434 H 0.83833 0.28975 0.91928 0.0
H435 H 0.95589 0.39278 0.02037 0.0
H436 H 0.88323 0.37177 0.95426 0.0
H437 H 0.89657 0.31002 1.00106 0.0
C438 C 0.86682 0.27851 0.97345 0.0
C439 C 0.85019 0.2722 0.95015 0.0
C440 C 0.89911 0.37636 0.96882 0.0
C441 C 0.884 0.32656 0.96958 0.0
C442 C 0.91698 0.40351 0.9774 0.0
C443 C 0.93798 0.41008 0.99596 0.0
C444 C 0.9021 0.35557 0.97902 0.0
C445 C 0.94008 0.38869 0.00596 0.0
C446 C 0.8838 0.3056 0.98313 0.0
C447 C 0.85101 0.29373 0.93716 0.0
N448 N 0.92237 0.3624 0.99737 0.0
N449 N 0.86758 0.31995 0.94709 0.0
H450 H 0.73022 0.55574 0.96563 0.0
H451 H 0.60176 0.56224 0.93665 0.0
H452 H 0.72579 0.61444 0.91838 0.0
H453 H 0.61137 0.5152 0.99561 0.0
H454 H 0.6456 0.57774 0.92546 0.0
H455 H 0.68518 0.53714 0.97304 0.0
C456 C 0.71983 0.56482 0.95691 0.0
C457 C 0.73191 0.58684 0.94152 0.0
C458 C 0.63807 0.56393 0.94076 0.0
C459 C 0.68015 0.56531 0.94959 0.0
C460 C 0.61307 0.55504 0.94707 0.0
C461 C 0.60312 0.53758 0.96715 0.0
C462 C 0.65307 0.55515 0.95458 0.0
C463 C 0.61844 0.52877 0.98007 0.0
C464 C 0.69405 0.55406 0.96101 0.0
C465 C 0.71724 0.59731 0.93018 0.0
N466 N 0.6427 0.53771 0.97361 0.0
N467 N 0.69215 0.5865 0.9345 0.0
H468 H 0.48396 0.18321 0.96038 0.0
H469 H 0.43926 0.03204 0.99518 0.0
H470 H 0.40647 0.11682 0.94021 0.0
H471 H 0.51857 0.09316 0.99148 0.0
H472 H 0.42631 0.06343 0.97862 0.0
H473 H 0.49655 0.151 0.97499 0.0
C474 C 0.46963 0.16176 0.95896 0.0
C475 C 0.44414 0.1526 0.94918 0.0
C476 C 0.44653 0.06991 0.98144 0.0
C477 C 0.45833 0.11564 0.96606 0.0
C478 C 0.45397 0.05211 0.9911 0.0
C479 C 0.48007 0.06002 0.99487 0.0
C480 C 0.46534 0.09592 0.97583 0.0
C481 C 0.49824 0.08616 0.98892 0.0
C482 C 0.47682 0.14339 0.96723 0.0
C483 C 0.42634 0.12462 0.94753 0.0
N484 N 0.49053 0.10319 0.97983 0.0
N485 N 0.43371 0.1071 0.95614 0.0
H486 H 0.72404 0.11661 0.93481 0.0
H487 H 0.61247 0.11039 0.01798 0.0
H488 H 0.73493 0.18023 0.99372 0.0
H489 H 0.59999 0.04797 0.95653 0.0
H490 H 0.65672 0.1377 0.00712 0.0
H491 H 0.67786 0.09232 0.94014 0.0
C492 C 0.71654 0.12549 0.94866 0.0
C493 C 0.73295 0.15025 0.9639 0.0
C494 C 0.64429 0.11812 0.99585 0.0
C495 C 0.68064 0.12282 0.97033 0.0
C496 C 0.61903 0.10257 0.00203 0.0
C497 C 0.6027 0.07688 0.98822 0.0
C498 C 0.6533 0.10782 0.9758 0.0
C499 C 0.61207 0.06767 0.96772 0.0
C500 C 0.69029 0.1117 0.95174 0.0
C501 C 0.72265 0.16109 0.98166 0.0
N502 N 0.63684 0.08304 0.96224 0.0
N503 N 0.69714 0.14723 0.98452 0.0
H504 H 0.87354 0.60926 0.94425 0.0
H505 H 0.8981 0.50281 0.01949 0.0
H506 H 0.82832 0.56263 0.005 0.0
H507 H 0.94275 0.54733 0.95728 0.0
H508 H 0.8706 0.52245 0.01229 0.0
H509 H 0.89781 0.58517 0.94669 0.0
C510 C 0.86875 0.59384 0.958 0.0
C511 C 0.84918 0.58782 0.97456 0.0
C512 C 0.88629 0.52781 1.00005 0.0
C513 C 0.87653 0.56035 0.97754 0.0
C514 C 0.90194 0.51655 0.00413 0.0
C515 C 0.92273 0.5236 0.98903 0.0
C516 C 0.89158 0.5464 0.98082 0.0
C517 C 0.92689 0.54145 0.96938 0.0
C518 C 0.8825 0.5801 0.95939 0.0
C519 C 0.84344 0.56777 0.99201 0.0
N520 N 0.91156 0.55242 0.96595 0.0
N521 N 0.85713 0.55479 0.99314 0.0
H522 H 0.41411 0.27974 0.97961 0.0
H523 H 0.51916 0.43479 0.96472 0.0
H524 H 0.48844 0.30427 0.95316 0.0
H525 H 0.44626 0.40982 0.9957 0.0
H526 H 0.50682 0.38691 0.9562 0.0
H527 H 0.42384 0.32709 0.98101 0.0
C528 C 0.43232 0.29516 0.97371 0.0
C529 C 0.45054 0.28847 0.96619 0.0
C530 C 0.49351 0.39195 0.96477 0.0
C531 C 0.46205 0.34241 0.96813 0.0
C532 C 0.50055 0.41929 0.96968 0.0
C533 C 0.48384 0.42641 0.98118 0.0
C534 C 0.46957 0.37157 0.97137 0.0
C535 C 0.4599 0.40539 0.98701 0.0
C536 C 0.43795 0.32214 0.97461 0.0
C537 C 0.47395 0.30891 0.95895 0.0
N538 N 0.45355 0.37898 0.98214 0.0
N539 N 0.47915 0.3351 0.96024 0.0
H540 H 0.1243 0.72256 0.03603 0.0
H541 H 0.08457 0.56624 0.0417 0.0
H542 H 0.17665 0.69658 0.06383 0.0
H543 H 0.0322 0.59221 0.01307 0.0
H544 H 0.11791 0.61385 0.05219 0.0
H545 H 0.08935 0.67493 0.0305 0.0
C546 C 0.12822 0.70673 0.04137 0.0
C547 C 0.15306 0.71312 0.0505 0.0
C548 C 0.09912 0.60913 0.04363 0.0
C549 C 0.11371 0.65892 0.0438 0.0
C550 C 0.08007 0.58191 0.03752 0.0
C551 C 0.05555 0.57514 0.0263 0.0
C552 C 0.09366 0.62979 0.03848 0.0
C553 C 0.05084 0.5964 0.02156 0.0
C554 C 0.1084 0.67961 0.03809 0.0
C555 C 0.15753 0.69219 0.05688 0.0
N556 N 0.06973 0.62274 0.02763 0.0
N557 N 0.13803 0.66592 0.05327 0.0
H558 H 0.27935 0.45815 0.03788 0.0
H559 H 0.41203 0.45906 0.06233 0.0
H560 H 0.291 0.40878 0.09229 0.0
H561 H 0.39614 0.49951 1.00053 0.0
H562 H 0.36971 0.44474 0.0774 0.0
H563 H 0.32409 0.47808 0.02798 0.0
C564 C 0.29157 0.45186 0.04799 0.0
C565 C 0.28183 0.43201 0.06591 0.0
C566 C 0.3755 0.45684 0.06062 0.0
C567 C 0.33267 0.45425 0.05456 0.0
C568 C 0.39963 0.46502 0.05203 0.0
C569 C 0.40741 0.4803 0.03006 0.0
C570 C 0.3591 0.46407 0.04716 0.0
C571 C 0.39076 0.48761 0.01748 0.0
C572 C 0.31701 0.46309 0.04228 0.0
C573 C 0.29808 0.4242 0.07841 0.0
N574 N 0.36732 0.47934 0.02615 0.0
N575 N 0.32278 0.43528 0.07241 0.0
H576 H 0.5301 0.82806 0.07124 0.0
H577 H 0.56651 0.97441 0.02653 0.0
H578 H 0.60702 0.89082 0.06109 0.0
H579 H 0.49025 0.91621 0.04476 0.0
H580 H 0.58145 0.9441 0.04026 0.0
H581 H 0.51499 0.86024 0.0637 0.0
C582 C 0.54382 0.84884 0.06797 0.0
C583 C 0.56977 0.85711 0.06696 0.0
C584 C 0.56145 0.9379 0.04134 0.0
C585 C 0.55278 0.89362 0.05772 0.0
C586 C 0.55281 0.95519 0.03333 0.0
C587 C 0.52697 0.94782 0.03427 0.0
C588 C 0.54417 0.91286 0.05026 0.0
C589 C 0.51029 0.9227 0.04355 0.0
C590 C 0.53523 0.86711 0.06352 0.0
C591 C 0.58686 0.88391 0.06223 0.0
N592 N 0.51916 0.90604 0.05108 0.0
N593 N 0.57804 0.9012 0.05759 0.0
H594 H 0.96406 0.19114 0.44979 0.0
H595 H 0.05806 0.23901 0.33497 0.0
H596 H 0.93657 0.17185 0.36587 0.0
H597 H 0.07879 0.28351 0.41307 0.0
H598 H 0.0144 0.20983 0.34716 0.0
H599 H 0.00721 0.22192 0.43786 0.0
C600 C 0.96693 0.19357 0.42889 0.0
C601 C 0.9465 0.17862 0.40884 0.0
C602 C 0.02853 0.22601 0.3616 0.0
C603 C 0.99612 0.21327 0.39509 0.0
C604 C 0.05341 0.2425 0.35471 0.0
C605 C 0.0719 0.26364 0.37305 0.0
C606 C 0.0223 0.23047 0.38713 0.0
C607 C 0.06498 0.26744 0.39835 0.0
C608 C 0.99165 0.21101 0.42211 0.0
C609 C 0.95171 0.18238 0.38206 0.0
N610 N 0.04073 0.25092 0.40472 0.0
N611 N 0.976 0.1991 0.37598 0.0
H612 H 0.79627 0.72537 0.4438 0.0
H613 H 0.75991 0.81426 0.353 0.0
H614 H 0.84734 0.78047 0.39115 0.0
H615 H 0.71582 0.77108 0.41611 0.0
H616 H 0.79148 0.80082 0.3655 0.0
H617 H 0.76591 0.74065 0.43288 0.0
C618 C 0.80124 0.74084 0.43011 0.0
C619 C 0.8245 0.75167 0.41844 0.0
C620 C 0.77496 0.79435 0.37669 0.0
C621 C 0.7895 0.76893 0.40548 0.0
C622 C 0.75695 0.802 0.36955 0.0
C623 C 0.73527 0.7937 0.38354 0.0
C624 C 0.77114 0.77811 0.39786 0.0
C625 C 0.7323 0.77787 0.40482 0.0
C626 C 0.78379 0.74946 0.42377 0.0
C627 C 0.82953 0.77125 0.40037 0.0
N628 N 0.74998 0.77048 0.41127 0.0
N629 N 0.81217 0.7792 0.39442 0.0
H630 H 0.25388 0.06583 0.36327 0.0
H631 H 0.15936 0.90816 0.37839 0.0
H632 H 0.20478 0.03687 0.42684 0.0
H633 H 0.22218 0.93639 0.329 0.0
H634 H 0.17232 0.9553 0.39236 0.0
H635 H 0.23897 0.01856 0.34647 0.0
C636 C 0.2398 0.0495 0.37354 0.0
C637 C 0.23056 0.05523 0.3965 0.0
C638 C 0.18324 0.9512 0.37841 0.0
C639 C 0.21352 0.00124 0.37748 0.0
C640 C 0.17578 0.92425 0.37029 0.0
C641 C 0.1897 0.91826 0.35246 0.0
C642 C 0.20467 0.97241 0.36849 0.0
C643 C 0.21093 0.94004 0.34284 0.0
C644 C 0.23144 0.02257 0.36406 0.0
C645 C 0.21256 0.03333 0.40922 0.0
N646 N 0.21775 0.96617 0.35095 0.0
N647 N 0.2046 0.00731 0.39952 0.0
H648 H 0.54736 0.60044 0.28524 0.0
H649 H 0.57051 0.74777 0.33018 0.0
H650 H 0.48443 0.6153 0.29056 0.0
H651 H 0.62618 0.72303 0.34828 0.0
H652 H 0.53874 0.70037 0.31431 0.0
H653 H 0.5768 0.64626 0.30688 0.0
C654 C 0.5398 0.61342 0.29124 0.0
C655 C 0.51358 0.60428 0.28628 0.0
C656 C 0.55785 0.70535 0.32202 0.0
C657 C 0.54707 0.65684 0.31063 0.0
C658 C 0.57603 0.73241 0.33104 0.0
C659 C 0.60114 0.7395 0.34053 0.0
C660 C 0.56495 0.68533 0.32214 0.0
C661 C 0.60712 0.71865 0.34117 0.0
C662 C 0.55654 0.63952 0.30359 0.0
C663 C 0.50459 0.62174 0.29424 0.0
N664 N 0.58927 0.69265 0.33188 0.0
N665 N 0.52139 0.64739 0.30583 0.0
H666 H 0.39074 0.94502 0.24995 0.0
H667 H 0.27516 0.83894 0.32746 0.0
H668 H 0.39392 0.884 0.29436 0.0
H669 H 0.27138 0.89944 0.28284 0.0
H670 H 0.31811 0.85395 0.31388 0.0
H671 H 0.34627 0.92725 0.2598 0.0
C672 C 0.38203 0.92774 0.26156 0.0
C673 C 0.39615 0.9161 0.27149 0.0
C674 C 0.30789 0.86392 0.30697 0.0
C675 C 0.34535 0.89584 0.28309 0.0
C676 C 0.28339 0.85534 0.31473 0.0
C677 C 0.26986 0.86808 0.30633 0.0
C678 C 0.31891 0.88543 0.29073 0.0
C679 C 0.28129 0.88917 0.2898 0.0
C680 C 0.35668 0.9177 0.26732 0.0
C681 C 0.38392 0.89392 0.28668 0.0
N682 N 0.3052 0.89726 0.28261 0.0
N683 N 0.3593 0.88458 0.29208 0.0
H684 H 0.12807 0.48197 0.25158 0.0
H685 H 0.11642 0.38016 0.35997 0.0
H686 H 0.08321 0.47002 0.31831 0.0
H687 H 0.18024 0.41731 0.31226 0.0
H688 H 0.0999 0.40804 0.3415 0.0
H689 H 0.14266 0.45225 0.26941 0.0
C690 C 0.12103 0.47276 0.26977 0.0
C691 C 0.1045 0.47848 0.28356 0.0
C692 C 0.1176 0.41013 0.33525 0.0
C693 C 0.12116 0.44469 0.30412 0.0
C694 C 0.12706 0.39429 0.34581 0.0
C695 C 0.14986 0.39654 0.33785 0.0
C696 C 0.13077 0.42792 0.31621 0.0
C697 C 0.16276 0.41509 0.31927 0.0
C698 C 0.12952 0.45604 0.28007 0.0
C699 C 0.09613 0.46625 0.30721 0.0
N700 N 0.15294 0.42988 0.30895 0.0
N701 N 0.10453 0.44991 0.31675 0.0
H702 H 0.38584 0.49102 0.2646 0.0
H703 H 0.29424 0.41135 0.37624 0.0
H704 H 0.41385 0.48332 0.3423 0.0
H705 H 0.26612 0.41901 0.29844 0.0
H706 H 0.3383 0.44004 0.36524 0.0
H707 H 0.34192 0.46751 0.2777 0.0
C708 C 0.38265 0.48471 0.28458 0.0
C709 C 0.4032 0.48911 0.30254 0.0
C710 C 0.32251 0.43556 0.35059 0.0
C711 C 0.35332 0.46191 0.31755 0.0
C712 C 0.29739 0.41916 0.35686 0.0
C713 C 0.2766 0.41278 0.33817 0.0
C714 C 0.32686 0.44559 0.32541 0.0
C715 C 0.28167 0.42344 0.31339 0.0
C716 C 0.35766 0.4712 0.29203 0.0
C717 C 0.39833 0.48036 0.32804 0.0
N718 N 0.30629 0.43924 0.30768 0.0
N719 N 0.37383 0.46702 0.33478 0.0
H720 H 0.48924 0.89037 0.33648 0.0
H721 H 0.60738 0.87385 0.29564 0.0
H722 H 0.53827 0.93536 0.27733 0.0
H723 H 0.5636 0.83741 0.36137 0.0
H724 H 0.57951 0.89259 0.28499 0.0
H725 H 0.51349 0.86679 0.34232 0.0
C726 C 0.5051 0.89508 0.32462 0.0
C727 C 0.512 0.91471 0.30651 0.0
C728 C 0.57591 0.88035 0.30164 0.0
C729 C 0.53986 0.88812 0.31304 0.0
C730 C 0.59174 0.86962 0.30767 0.0
C731 C 0.58779 0.85423 0.32949 0.0
C732 C 0.55599 0.87556 0.31754 0.0
C733 C 0.56732 0.84928 0.34443 0.0
C734 C 0.51894 0.88171 0.32795 0.0
C735 C 0.53255 0.92027 0.29154 0.0
N736 N 0.55224 0.86 0.33825 0.0
N737 N 0.5459 0.90708 0.29519 0.0
H738 H 0.07375 0.6067 0.30798 0.0
H739 H 0.18491 0.7618 0.30373 0.0
H740 H 0.14982 0.62954 0.28808 0.0
H741 H 0.11062 0.73757 0.3308 0.0
H742 H 0.17149 0.71368 0.29375 0.0
H743 H 0.08569 0.65478 0.31159 0.0
C744 C 0.09285 0.62193 0.30394 0.0
C745 C 0.11085 0.61448 0.2976 0.0
C746 C 0.15815 0.71896 0.30182 0.0
C747 C 0.1249 0.66933 0.30217 0.0
C748 C 0.1658 0.74644 0.30757 0.0
C749 C 0.14896 0.75383 0.31833 0.0
C750 C 0.13345 0.69874 0.30676 0.0
C751 C 0.12438 0.73296 0.32272 0.0
C752 C 0.09974 0.64934 0.30615 0.0
C753 C 0.13544 0.63474 0.29285 0.0
N754 N 0.11742 0.70646 0.31697 0.0
N755 N 0.14184 0.66135 0.29537 0.0
H756 H 0.84465 0.02206 0.41485 0.0
H757 H 0.69818 0.92224 0.356 0.0
H758 H 0.79846 0.04906 0.37311 0.0
H759 H 0.74665 0.89479 0.3924 0.0
H760 H 0.73325 0.96924 0.3658 0.0
H761 H 0.80738 0.97582 0.41112 0.0
C762 C 0.82644 0.01821 0.40532 0.0
C763 C 0.82431 0.03909 0.39439 0.0
C764 C 0.73618 0.95293 0.3717 0.0
C765 C 0.78191 0.98651 0.38953 0.0
C766 C 0.71615 0.92605 0.36609 0.0
C767 C 0.71948 0.90444 0.37319 0.0
C768 C 0.75973 0.95831 0.38457 0.0
C769 C 0.74321 0.91071 0.38634 0.0
C770 C 0.80525 0.99187 0.40303 0.0
C771 C 0.80061 0.03332 0.38191 0.0
N772 N 0.76242 0.93704 0.39153 0.0
N773 N 0.78028 0.00746 0.37967 0.0
H774 H 0.94726 0.72441 0.4149 0.0
H775 H 0.0625 0.82999 0.33669 0.0
H776 H 0.94168 0.78022 0.36454 0.0
H777 H 0.07071 0.77852 0.3912 0.0
H778 H 0.01872 0.81335 0.34834 0.0
H779 H 0.99308 0.74515 0.40832 0.0
C780 C 0.95586 0.74122 0.40268 0.0
C781 C 0.94102 0.75078 0.39021 0.0
C782 C 0.03011 0.80578 0.35791 0.0
C783 C 0.99292 0.77433 0.38236 0.0
C784 C 0.05509 0.81529 0.35125 0.0
C785 C 0.07011 0.8055 0.36292 0.0
C786 C 0.02001 0.78618 0.37627 0.0
C787 C 0.05966 0.78651 0.3817 0.0
C788 C 0.98191 0.75302 0.39888 0.0
C789 C 0.95271 0.77242 0.37447 0.0
N790 N 0.03518 0.77732 0.38768 0.0
N791 N 0.97797 0.78341 0.37087 0.0
H792 H 0.27718 0.22341 0.38718 0.0
H793 H 0.15717 0.24679 0.36629 0.0
H794 H 0.1987 0.15961 0.38811 0.0
H795 H 0.23577 0.30886 0.36045 0.0
H796 H 0.17189 0.21506 0.3765 0.0
H797 H 0.26242 0.25594 0.38069 0.0
C798 C 0.25686 0.21646 0.38648 0.0
C799 C 0.23905 0.1891 0.38839 0.0
C800 C 0.18589 0.23563 0.37295 0.0
C801 C 0.22193 0.22571 0.38038 0.0
C802 C 0.17749 0.25376 0.36701 0.0
C803 C 0.19522 0.28059 0.3624 0.0
C804 C 0.21222 0.24438 0.37438 0.0
C805 C 0.22133 0.28841 0.36375 0.0
C806 C 0.2484 0.2349 0.38258 0.0
C807 C 0.21293 0.18075 0.38696 0.0
N808 N 0.22901 0.27042 0.36963 0.0
N809 N 0.20509 0.19899 0.38292 0.0
H810 H 0.63481 0.5243 0.78319 0.0
H811 H 0.72255 0.58486 0.66434 0.0
H812 H 0.60405 0.51503 0.70125 0.0
H813 H 0.75012 0.61618 0.74679 0.0
H814 H 0.67939 0.55615 0.67773 0.0
H815 H 0.67764 0.55596 0.77073 0.0
C816 C 0.63694 0.52909 0.76267 0.0
C817 C 0.61571 0.51666 0.74322 0.0
C818 C 0.69486 0.56938 0.6929 0.0
C819 C 0.66481 0.55244 0.72876 0.0
C820 C 0.71947 0.58565 0.68526 0.0
C821 C 0.73983 0.60286 0.70449 0.0
C822 C 0.69066 0.57005 0.72002 0.0
C823 C 0.73486 0.60319 0.73135 0.0
C824 C 0.66145 0.54705 0.75555 0.0
C825 C 0.61985 0.52351 0.71686 0.0
N826 N 0.71079 0.58689 0.73836 0.0
N827 N 0.64387 0.5407 0.71039 0.0
H828 H 0.49708 0.11332 0.78894 0.0
H829 H 0.41838 0.1333 0.67042 0.0
H830 H 0.48553 0.07299 0.70976 0.0
H831 H 0.39389 0.12433 0.74975 0.0
H832 H 0.45011 0.1203 0.68446 0.0
H833 H 0.46569 0.12632 0.77484 0.0
C834 C 0.48795 0.10699 0.76867 0.0
C835 C 0.49403 0.09174 0.75065 0.0
C836 C 0.43776 0.12121 0.69873 0.0
C837 C 0.45876 0.10766 0.73424 0.0
C838 C 0.41979 0.12869 0.6908 0.0
C839 C 0.40353 0.12971 0.70898 0.0
C840 C 0.43985 0.11546 0.72517 0.0
C841 C 0.40602 0.12356 0.73514 0.0
C842 C 0.47015 0.11464 0.76065 0.0
C843 C 0.48197 0.08508 0.72435 0.0
N844 N 0.42404 0.11691 0.74257 0.0
N845 N 0.46505 0.09321 0.71692 0.0
H846 H 0.94242 0.39285 0.74061 0.0
H847 H 0.8265 0.25114 0.6733 0.0
H848 H 0.87124 0.3837 0.7059 0.0
H849 H 0.90415 0.26679 0.6864 0.0
H850 H 0.84209 0.29923 0.68629 0.0
H851 H 0.92829 0.34614 0.72259 0.0
C852 C 0.9238 0.38097 0.72921 0.0
C853 C 0.90792 0.39209 0.72481 0.0
C854 C 0.85575 0.2922 0.68608 0.0
C855 C 0.89165 0.33872 0.70414 0.0
C856 C 0.84687 0.26472 0.67869 0.0
C857 C 0.86403 0.25487 0.67886 0.0
C858 C 0.88195 0.30992 0.69409 0.0
C859 C 0.89023 0.27347 0.68593 0.0
C860 C 0.91583 0.35441 0.71878 0.0
C861 C 0.88412 0.37594 0.70962 0.0
N862 N 0.89835 0.30004 0.69355 0.0
N863 N 0.87661 0.35 0.70002 0.0
H864 H 0.16668 0.96076 0.58911 0.0
H865 H 0.28776 0.06138 0.69191 0.0
H866 H 0.1966 0.93296 0.65208 0.0
H867 H 0.24603 0.08862 0.64221 0.0
H868 H 0.25477 0.01423 0.67752 0.0
H869 H 0.19573 0.00781 0.60809 0.0
C870 C 0.17926 0.96459 0.60705 0.0
C871 C 0.17927 0.94295 0.61901 0.0
C872 C 0.25272 0.03053 0.66996 0.0
C873 C 0.2127 0.9967 0.64074 0.0
C874 C 0.27159 0.05748 0.67812 0.0
C875 C 0.26974 0.07905 0.66821 0.0
C876 C 0.23199 0.02505 0.65147 0.0
C877 C 0.24827 0.07269 0.65044 0.0
C878 C 0.19577 0.99141 0.61792 0.0
C879 C 0.19582 0.94902 0.64234 0.0
N880 N 0.23038 0.0463 0.64246 0.0
N881 N 0.21205 0.97534 0.65229 0.0
H882 H 0.05908 0.2867 0.59445 0.0
H883 H 0.95064 0.18544 0.68109 0.0
H884 H 0.06741 0.22926 0.6403 0.0
H885 H 0.93506 0.22348 0.61666 0.0
H886 H 0.99474 0.20419 0.66921 0.0
H887 H 0.01462 0.26647 0.60487 0.0
C888 C 0.05159 0.26973 0.60653 0.0
C889 C 0.0672 0.25975 0.61649 0.0
C890 C 0.98163 0.20834 0.65762 0.0
C891 C 0.01631 0.23686 0.62896 0.0
C892 C 0.95652 0.1977 0.66442 0.0
C893 C 0.93928 0.20295 0.64981 0.0
C894 C 0.98959 0.22463 0.63628 0.0
C895 C 0.94781 0.21894 0.62839 0.0
C896 C 0.0262 0.25828 0.61258 0.0
C897 C 0.05638 0.23803 0.63253 0.0
N898 N 0.97242 0.22936 0.62236 0.0
N899 N 0.03169 0.22742 0.63834 0.0
H900 H 0.79471 0.82483 0.6 0.0
H901 H 0.78192 0.71107 0.69338 0.0
H902 H 0.74429 0.80036 0.66273 0.0
H903 H 0.84902 0.7582 0.65243 0.0
H904 H 0.76504 0.74011 0.67934 0.0
H905 H 0.81167 0.79623 0.61523 0.0
C906 C 0.78707 0.81324 0.61683 0.0
C907 C 0.76811 0.81494 0.63016 0.0
C908 C 0.78354 0.74417 0.67362 0.0
C909 C 0.78741 0.78232 0.64772 0.0
C910 C 0.79319 0.72763 0.68163 0.0
C911 C 0.81695 0.73224 0.67414 0.0
C912 C 0.79754 0.76514 0.65763 0.0
C913 C 0.8307 0.75398 0.65885 0.0
C914 C 0.79689 0.79713 0.62566 0.0
C915 C 0.75905 0.79973 0.65205 0.0
N916 N 0.82069 0.76945 0.6509 0.0
N917 N 0.7687 0.78395 0.66009 0.0
H918 H 0.07948 0.84555 0.67175 0.0
H919 H 0.93664 0.72213 0.62718 0.0
H920 H 0.05846 0.79174 0.59956 0.0
H921 H 0.95757 0.7748 0.70034 0.0
H922 H 0.98067 0.74891 0.61557 0.0
H923 H 0.03445 0.82161 0.6815 0.0
C924 C 0.06523 0.82878 0.6579 0.0
C925 C 0.07235 0.82045 0.63488 0.0
C926 C 0.97567 0.75471 0.63414 0.0
C927 C 0.02115 0.79292 0.64581 0.0
C928 C 0.95054 0.73942 0.64076 0.0
C929 C 0.94358 0.74625 0.66479 0.0
C930 C 0.99399 0.77698 0.65171 0.0
C931 C 0.96224 0.76885 0.68165 0.0
C932 C 0.03961 0.81509 0.66344 0.0
C933 C 0.05348 0.79865 0.61751 0.0
N934 N 0.98665 0.78338 0.67483 0.0
N935 N 0.02869 0.78553 0.62336 0.0
H936 H 0.21261 0.28403 0.61463 0.0
H937 H 0.23096 0.1712 0.68471 0.0
H938 H 0.16034 0.22974 0.66663 0.0
H939 H 0.28111 0.22132 0.62866 0.0
H940 H 0.20357 0.19078 0.67627 0.0
H941 H 0.23691 0.25998 0.6174 0.0
C942 C 0.20621 0.26687 0.62642 0.0
C943 C 0.18463 0.2587 0.64046 0.0
C944 C 0.22045 0.1974 0.66563 0.0
C945 C 0.21214 0.23135 0.64395 0.0
C946 C 0.23606 0.18618 0.67044 0.0
C947 C 0.25834 0.19477 0.65744 0.0
C948 C 0.22727 0.21751 0.64782 0.0
C949 C 0.26408 0.21421 0.63913 0.0
C950 C 0.22002 0.25318 0.62804 0.0
C951 C 0.17697 0.23652 0.65555 0.0
N952 N 0.24875 0.2251 0.635 0.0
N953 N 0.19079 0.22368 0.65702 0.0
H954 H 0.7279 0.93855 0.65938 0.0
H955 H 0.84759 0.08854 0.65319 0.0
H956 H 0.80241 0.95468 0.64005 0.0
H957 H 0.77269 0.07274 0.67151 0.0
H958 H 0.83105 0.0396 0.64714 0.0
H959 H 0.74332 0.98759 0.66211 0.0
C960 C 0.74743 0.95252 0.65539 0.0
C961 C 0.76398 0.94291 0.64935 0.0
C962 C 0.81821 0.04682 0.65246 0.0
C963 C 0.78189 0.99871 0.65283 0.0
C964 C 0.82767 0.07482 0.656 0.0
C965 C 0.81154 0.08487 0.66293 0.0
C966 C 0.79242 0.02862 0.65591 0.0
C967 C 0.78587 0.066 0.6662 0.0
C968 C 0.75627 0.98044 0.65706 0.0
C969 C 0.78913 0.96154 0.64461 0.0
N970 N 0.77713 0.03881 0.66269 0.0
N971 N 0.7974 0.98863 0.64655 0.0
H972 H 0.46447 0.39016 0.7045 0.0
H973 H 0.41802 0.23263 0.71497 0.0
H974 H 0.51335 0.36161 0.73676 0.0
H975 H 0.36896 0.26099 0.68203 0.0
H976 H 0.45241 0.27981 0.72533 0.0
H977 H 0.42824 0.34316 0.69902 0.0
C978 C 0.46735 0.37393 0.71083 0.0
C979 C 0.49162 0.37945 0.72123 0.0
C980 C 0.43411 0.27573 0.71586 0.0
C981 C 0.45076 0.32587 0.7146 0.0
C982 C 0.41445 0.24874 0.70984 0.0
C983 C 0.39053 0.24274 0.69742 0.0
C984 C 0.42993 0.29697 0.70943 0.0
C985 C 0.38707 0.26457 0.69148 0.0
C986 C 0.4468 0.34715 0.70758 0.0
C987 C 0.49473 0.35796 0.72884 0.0
N988 N 0.40656 0.29067 0.69748 0.0
N989 N 0.47453 0.33203 0.72524 0.0
H990 H 0.60577 0.1087 0.68997 0.0
H991 H 0.74474 0.12792 0.72943 0.0
H992 H 0.62329 0.07754 0.75909 0.0
H993 H 0.72345 0.14939 0.65538 0.0
H994 H 0.70166 0.11285 0.74272 0.0
H995 H 0.65016 0.12763 0.67923 0.0
C996 C 0.61918 0.10617 0.70302 0.0
C997 C 0.61119 0.09176 0.72542 0.0
C998 C 0.7064 0.12089 0.72358 0.0
C999 C 0.66174 0.11295 0.71324 0.0
C1000 C 0.73097 0.12948 0.71599 0.0
C1001 C 0.73754 0.13977 0.69123 0.0
C1002 C 0.68833 0.12271 0.7063 0.0
C1003 C 0.71908 0.14147 0.67461 0.0
C1004 C 0.64443 0.11683 0.69685 0.0
C1005 C 0.62898 0.08871 0.74168 0.0
N1006 N 0.69529 0.133 0.68244 0.0
N1007 N 0.65351 0.09918 0.73523 0.0
H1008 H 0.86895 0.49774 0.73132 0.0
H1009 H 0.9053 0.64441 0.68591 0.0
H1010 H 0.94375 0.55533 0.70981 0.0
H1011 H 0.82934 0.58465 0.70346 0.0
H1012 H 0.92046 0.61328 0.69698 0.0
H1013 H 0.85506 0.53099 0.7249 0.0
C1014 C 0.88257 0.51769 0.72583 0.0
C1015 C 0.90752 0.52415 0.72137 0.0
C1016 C 0.90047 0.60698 0.69839 0.0
C1017 C 0.89177 0.56189 0.71323 0.0
C1018 C 0.89175 0.62471 0.69195 0.0
C1019 C 0.86595 0.61717 0.69365 0.0
C1020 C 0.88331 0.58148 0.70665 0.0
C1021 C 0.84936 0.59137 0.70172 0.0
C1022 C 0.87462 0.53656 0.72191 0.0
C1023 C 0.92441 0.5499 0.71374 0.0
N1024 N 0.85833 0.57451 0.70793 0.0
N1025 N 0.91619 0.56784 0.70976 0.0
H1026 H 0.4345 0.9222 0.18709 0.0
H1027 H 0.54294 0.03994 0.11147 0.0
H1028 H 0.50251 0.99145 0.22818 0.0
H1029 H 0.47583 0.96953 0.07146 0.0
H1030 H 0.5288 0.02269 0.15457 0.0
H1031 H 0.44925 0.93956 0.14449 0.0
C1032 C 0.45251 0.9411 0.18717 0.0
C1033 C 0.46725 0.95539 0.21129 0.0
C1034 C 0.51697 0.01117 0.13634 0.0
C1035 C 0.4844 0.97535 0.16248 0.0
C1036 C 0.52502 0.02102 0.1118 0.0
C1037 C 0.50987 0.00667 0.08793 0.0
C1038 C 0.49376 0.98657 0.1369 0.0
C1039 C 0.48717 0.98203 0.08933 0.0
C1040 C 0.461 0.95095 0.16281 0.0
C1041 C 0.49065 0.97957 0.21009 0.0
N1042 N 0.47976 0.97276 0.11335 0.0
N1043 N 0.49846 0.98882 0.18612 0.0
H1044 H 0.04754 0.46997 0.20826 0.0
H1045 H 0.01954 0.54659 0.09491 0.0
H1046 H 0.08907 0.55748 0.20816 0.0
H1047 H 0.99777 0.46196 0.08291 0.0
H1048 H 0.04233 0.55044 0.13823 0.0
H1049 H 0.02695 0.46609 0.1638 0.0
C1050 C 0.05262 0.4884 0.19888 0.0
C1051 C 0.07018 0.51414 0.21225 0.0
C1052 C 0.03265 0.53104 0.12611 0.0
C1053 C 0.04596 0.50972 0.16137 0.0
C1054 C 0.01953 0.5288 0.10147 0.0
C1055 C 0.00683 0.50393 0.08537 0.0
C1056 C 0.03273 0.50811 0.13492 0.0
C1057 C 0.00748 0.48153 0.09472 0.0
C1058 C 0.04067 0.48612 0.17349 0.0
C1059 C 0.07537 0.53721 0.19905 0.0
N1060 N 0.02011 0.4841 0.11896 0.0
N1061 N 0.06322 0.53445 0.17449 0.0
H1062 H 0.53265 0.57213 0.20866 0.0
H1063 H 0.48047 0.48329 0.06709 0.0
H1064 H 0.45286 0.51069 0.18939 0.0
H1065 H 0.55114 0.56031 0.0815 0.0
H1066 H 0.47057 0.48984 0.11267 0.0
H1067 H 0.54061 0.56489 0.163 0.0
C1068 C 0.51669 0.5573 0.1948 0.0
C1069 C 0.49194 0.54225 0.20296 0.0
C1070 C 0.48815 0.50534 0.10572 0.0
C1071 C 0.50117 0.53336 0.1505 0.0
C1072 C 0.49368 0.50169 0.0797 0.0
C1073 C 0.51642 0.52148 0.07044 0.0
C1074 C 0.50576 0.52871 0.12258 0.0
C1075 C 0.53337 0.54454 0.08785 0.0
C1076 C 0.52132 0.55304 0.1687 0.0
C1077 C 0.47228 0.52266 0.18413 0.0
N1078 N 0.52773 0.54748 0.11305 0.0
N1079 N 0.47732 0.51875 0.15877 0.0
H1080 H 0.97089 0.44653 0.79663 0.0
H1081 H 0.98456 0.51584 0.9435 0.0
H1082 H 0.92709 0.48545 0.81434 0.0
H1083 H 0.99595 0.44796 0.92529 0.0
H1084 H 0.96987 0.51265 0.89595 0.0
H1085 H 0.98808 0.45591 0.84329 0.0
C1086 C 0.96487 0.45709 0.81037 0.0
C1087 C 0.94701 0.46461 0.80164 0.0
C1088 C 0.97559 0.49852 0.90254 0.0
C1089 C 0.96699 0.47574 0.85536 0.0
C1090 C 0.98384 0.50024 0.92961 0.0
C1091 C 0.99121 0.48196 0.93839 0.0
C1092 C 0.97535 0.47877 0.88427 0.0
C1093 C 0.99041 0.46246 0.91948 0.0
C1094 C 0.97476 0.46249 0.83704 0.0
C1095 C 0.94067 0.47912 0.82027 0.0
N1096 N 0.98276 0.46148 0.89341 0.0
N1097 N 0.9505 0.48404 0.8464 0.0
H1098 H 0.52483 0.43805 0.81089 0.0
H1099 H 0.52806 0.53973 0.92866 0.0
H1100 H 0.56303 0.52512 0.8075 0.0
H1101 H 0.46918 0.45508 0.91618 0.0
H1102 H 0.54477 0.53441 0.8869 0.0
H1103 H 0.5076 0.4435 0.85196 0.0
C1104 C 0.52952 0.45831 0.81858 0.0
C1105 C 0.54545 0.48114 0.80543 0.0
C1106 C 0.52813 0.51702 0.89323 0.0
C1107 C 0.52613 0.48748 0.85302 0.0
C1108 C 0.51868 0.52003 0.91708 0.0
C1109 C 0.49729 0.4978 0.9258 0.0
C1110 C 0.51625 0.49149 0.87818 0.0
C1111 C 0.48564 0.47276 0.91001 0.0
C1112 C 0.51974 0.46137 0.84216 0.0
C1113 C 0.55125 0.50691 0.81698 0.0
N1114 N 0.49539 0.47021 0.88704 0.0
N1115 N 0.54169 0.50936 0.8401 0.0
H1116 H 0.53803 0.02671 0.81215 0.0
H1117 H 0.47151 0.01987 0.94146 0.0
H1118 H 0.52589 0.09208 0.84035 0.0
H1119 H 0.52741 0.99388 0.9418 0.0
H1120 H 0.48719 0.0421 0.90099 0.0
H1121 H 0.53176 0.01063 0.85673 0.0
C1122 C 0.53453 0.03801 0.82771 0.0
C1123 C 0.532 0.06055 0.82218 0.0
C1124 C 0.49614 0.03169 0.91001 0.0
C1125 C 0.52411 0.04169 0.87286 0.0
C1126 C 0.48711 0.01887 0.93294 0.0
C1127 C 0.49822 0.00507 0.94481 0.0
C1128 C 0.51589 0.02997 0.89838 0.0
C1129 C 0.51847 0.00446 0.93315 0.0
C1130 C 0.53085 0.0287 0.8531 0.0
C1131 C 0.52719 0.07412 0.84328 0.0
N1132 N 0.52646 0.01641 0.91021 0.0
N1133 N 0.5229 0.06417 0.86747 0.0
H1134 H 0.16851 0.34128 0.56983 0.0
H1135 H 0.14669 0.30499 0.41256 0.0
H1136 H 0.10371 0.26804 0.5299 0.0
H1137 H 0.19315 0.38803 0.44773 0.0
H1138 H 0.13287 0.29082 0.456 0.0
H1139 H 0.18044 0.35839 0.52616 0.0
C1140 C 0.15686 0.32878 0.55187 0.0
C1141 C 0.13512 0.30316 0.55345 0.0
C1142 C 0.14582 0.31221 0.45429 0.0
C1143 C 0.1486 0.32259 0.50363 0.0
C1144 C 0.15356 0.32041 0.42936 0.0
C1145 C 0.17062 0.34788 0.42636 0.0
C1146 C 0.15567 0.33145 0.47674 0.0
C1147 C 0.17974 0.3667 0.44915 0.0
C1148 C 0.16355 0.33866 0.52703 0.0
C1149 C 0.12051 0.28795 0.52961 0.0
N1150 N 0.17229 0.35811 0.47353 0.0
N1151 N 0.12762 0.29781 0.50573 0.0
H1152 H 0.74688 0.89206 0.55799 0.0
H1153 H 0.66532 0.79375 0.42608 0.0
H1154 H 0.71341 0.80471 0.5525 0.0
H1155 H 0.68042 0.87597 0.44091 0.0
H1156 H 0.6878 0.79862 0.47005 0.0
H1157 H 0.72731 0.8877 0.51281 0.0
C1158 C 0.73542 0.87195 0.54738 0.0
C1159 C 0.73176 0.84872 0.55931 0.0
C1160 C 0.68623 0.8156 0.46365 0.0
C1161 C 0.7096 0.84367 0.50723 0.0
C1162 C 0.67355 0.81287 0.43854 0.0
C1163 C 0.67108 0.8345 0.42995 0.0
C1164 C 0.69667 0.84023 0.48012 0.0
C1165 C 0.68179 0.85875 0.44692 0.0
C1166 C 0.72434 0.86951 0.5215 0.0
C1167 C 0.71713 0.82328 0.54416 0.0
N1168 N 0.69416 0.86099 0.47117 0.0
N1169 N 0.70659 0.82145 0.51898 0.0
H1170 H 0.11631 0.84228 0.52807 0.0
H1171 H 0.21581 0.89031 0.41728 0.0
H1172 H 0.19515 0.90767 0.54141 0.0
H1173 H 0.14369 0.81462 0.40516 0.0
H1174 H 0.20595 0.89863 0.46162 0.0
H1175 H 0.12358 0.83305 0.48211 0.0
C1176 C 0.1351 0.8547 0.5214 0.0
C1177 C 0.15507 0.876 0.53867 0.0
C1178 C 0.19215 0.88018 0.44937 0.0
C1179 C 0.16337 0.86568 0.48614 0.0
C1180 C 0.19779 0.8754 0.42398 0.0
C1181 C 0.1805 0.85175 0.40751 0.0
C1182 C 0.16899 0.86114 0.45861 0.0
C1183 C 0.15736 0.83326 0.41716 0.0
C1184 C 0.13918 0.84946 0.49516 0.0
C1185 C 0.17895 0.8915 0.5288 0.0
N1186 N 0.15225 0.83831 0.44221 0.0
N1187 N 0.18236 0.88605 0.50331 0.0
H1188 H 0.56443 0.75229 0.16323 0.0
H1189 H 0.66086 0.8532 0.28594 0.0
H1190 H 0.62443 0.83341 0.15181 0.0
H1191 H 0.63283 0.7669 0.27766 0.0
H1192 H 0.63928 0.84858 0.24122 0.0
H1193 H 0.5807 0.76016 0.2103 0.0
C1194 C 0.58092 0.77184 0.17059 0.0
C1195 C 0.59345 0.79196 0.15324 0.0
C1196 C 0.63779 0.83072 0.24938 0.0
C1197 C 0.61169 0.80125 0.20738 0.0
C1198 C 0.64997 0.8333 0.27478 0.0
C1199 C 0.64871 0.81041 0.28521 0.0
C1200 C 0.62379 0.80495 0.23484 0.0
C1201 C 0.63445 0.78507 0.27012 0.0
C1202 C 0.59009 0.77631 0.19749 0.0
C1203 C 0.61416 0.81726 0.16431 0.0
N1204 N 0.62244 0.78299 0.24573 0.0
N1205 N 0.62279 0.82113 0.19068 0.0
H1206 H 0.16668 0.79914 0.11989 0.0
H1207 H 0.19937 0.83335 0.27844 0.0
H1208 H 0.24104 0.82542 0.16137 0.0
H1209 H 0.1255 0.81033 0.23884 0.0
H1210 H 0.21458 0.82988 0.23556 0.0
H1211 H 0.15065 0.80201 0.16279 0.0
C1212 C 0.17962 0.80539 0.13801 0.0
C1213 C 0.2053 0.81209 0.13696 0.0
C1214 C 0.19509 0.82581 0.23605 0.0
C1215 C 0.18708 0.8156 0.18614 0.0
C1216 C 0.18662 0.82831 0.2606 0.0
C1217 C 0.16163 0.82328 0.26213 0.0
C1218 C 0.17829 0.81794 0.21262 0.0
C1219 C 0.1451 0.81477 0.23845 0.0
C1220 C 0.17047 0.80715 0.16248 0.0
C1221 C 0.22123 0.82042 0.16109 0.0
N1222 N 0.15376 0.81251 0.21458 0.0
N1223 N 0.21186 0.82191 0.18461 0.0
H1224 H 0.1972 0.43615 0.1772 0.0
H1225 H 0.20303 0.3404 0.28284 0.0
H1226 H 0.21201 0.37169 0.15293 0.0
H1227 H 0.14419 0.36222 0.2776 0.0
H1228 H 0.21905 0.363 0.24207 0.0
H1229 H 0.19099 0.42065 0.2218 0.0
C1230 C 0.19939 0.41891 0.18122 0.0
C1231 C 0.20444 0.40476 0.16091 0.0
C1232 C 0.2028 0.36296 0.25012 0.0
C1233 C 0.19824 0.38767 0.21227 0.0
C1234 C 0.19372 0.3502 0.27324 0.0
C1235 C 0.17215 0.3493 0.28321 0.0
C1236 C 0.19062 0.37552 0.23764 0.0
C1237 C 0.1607 0.36225 0.27026 0.0
C1238 C 0.19599 0.41024 0.20673 0.0
C1239 C 0.20807 0.38322 0.1678 0.0
N1240 N 0.17015 0.37496 0.24818 0.0
N1241 N 0.20467 0.37515 0.19289 0.0
H1242 H 0.77339 0.59149 0.85883 0.0
H1243 H 0.86353 0.71801 0.78018 0.0
H1244 H 0.835 0.66692 0.89914 0.0
H1245 H 0.81902 0.63533 0.74354 0.0
H1246 H 0.85024 0.70142 0.82378 0.0
H1247 H 0.78681 0.60893 0.81586 0.0
C1248 C 0.78978 0.61173 0.85858 0.0
C1249 C 0.80315 0.6278 0.88249 0.0
C1250 C 0.84333 0.687 0.80611 0.0
C1251 C 0.81853 0.64797 0.83349 0.0
C1252 C 0.8508 0.69645 0.78129 0.0
C1253 C 0.84208 0.67805 0.75823 0.0
C1254 C 0.82691 0.65901 0.80769 0.0
C1255 C 0.8258 0.6503 0.76072 0.0
C1256 C 0.79748 0.62165 0.83409 0.0
C1257 C 0.82436 0.65382 0.8811 0.0
N1258 N 0.81868 0.64165 0.78497 0.0
N1259 N 0.83133 0.6632 0.85697 0.0
H1260 H 0.37698 0.19931 0.89942 0.0
H1261 H 0.37141 0.16961 0.7413 0.0
H1262 H 0.42506 0.17394 0.8619 0.0
H1263 H 0.31637 0.18418 0.77799 0.0
H1264 H 0.39208 0.17248 0.78534 0.0
H1265 H 0.35548 0.19568 0.85537 0.0
C1266 C 0.38307 0.19306 0.88191 0.0
C1267 C 0.40286 0.1869 0.88439 0.0
C1268 C 0.37528 0.17471 0.7839 0.0
C1269 C 0.37826 0.18261 0.8339 0.0
C1270 C 0.36318 0.17247 0.75869 0.0
C1271 C 0.34146 0.17526 0.75606 0.0
C1272 C 0.36578 0.18023 0.80678 0.0
C1273 C 0.33287 0.18142 0.77926 0.0
C1274 C 0.3707 0.19086 0.85679 0.0
C1275 C 0.40971 0.17856 0.86102 0.0
N1276 N 0.34497 0.18358 0.80371 0.0
N1277 N 0.3975 0.17674 0.83681 0.0
H1278 H 0.80895 0.23119 0.85743 0.0
H1279 H 0.85275 0.14941 0.76172 0.0
H1280 H 0.81794 0.16502 0.88244 0.0
H1281 H 0.82026 0.1964 0.73211 0.0
H1282 H 0.84082 0.15522 0.80631 0.0
H1283 H 0.81361 0.21929 0.81142 0.0
C1284 C 0.81167 0.214 0.85314 0.0
C1285 C 0.81311 0.19909 0.87373 0.0
C1286 C 0.83607 0.16402 0.78999 0.0
C1287 C 0.81877 0.18555 0.82128 0.0
C1288 C 0.84293 0.16076 0.7646 0.0
C1289 C 0.83757 0.17255 0.74332 0.0
C1290 C 0.82413 0.17952 0.79413 0.0
C1291 C 0.82476 0.18701 0.74803 0.0
C1292 C 0.81426 0.20716 0.82691 0.0
C1293 C 0.81653 0.17691 0.86711 0.0
N1294 N 0.81872 0.19033 0.77299 0.0
N1295 N 0.81957 0.17101 0.84151 0.0
H1296 H 0.25592 0.15346 0.4846 0.0
H1297 H 0.31969 0.10814 0.59821 0.0
H1298 H 0.28931 0.10284 0.47058 0.0
H1299 H 0.3172 0.18217 0.61213 0.0
H1300 H 0.30285 0.10322 0.55213 0.0
H1301 H 0.27393 0.16288 0.53183 0.0
C1302 C 0.26711 0.14449 0.49137 0.0
C1303 C 0.27058 0.1268 0.47374 0.0
C1304 C 0.30597 0.12063 0.56513 0.0
C1305 C 0.29087 0.13725 0.52738 0.0
C1306 C 0.31554 0.12342 0.59155 0.0
C1307 C 0.3199 0.14564 0.60904 0.0
C1308 C 0.30045 0.14009 0.55587 0.0
C1309 C 0.31394 0.16466 0.59928 0.0
C1310 C 0.2773 0.14983 0.51825 0.0
C1311 C 0.28537 0.11586 0.48354 0.0
N1312 N 0.30443 0.16145 0.57321 0.0
N1313 N 0.29469 0.12105 0.5096 0.0
H1314 H 0.87149 0.10762 0.48552 0.0
H1315 H 0.82537 0.19055 0.57669 0.0
H1316 H 0.88097 0.18417 0.46434 0.0
H1317 H 0.8537 0.14067 0.60841 0.0
H1318 H 0.83921 0.18465 0.53294 0.0
H1319 H 0.85757 0.11492 0.52837 0.0
C1320 C 0.87041 0.12585 0.48984 0.0
C1321 C 0.87738 0.14534 0.47145 0.0
C1322 C 0.84242 0.17513 0.54959 0.0
C1323 C 0.86142 0.15378 0.52029 0.0
C1324 C 0.83452 0.17844 0.57444 0.0
C1325 C 0.83838 0.16604 0.59611 0.0
C1326 C 0.85369 0.15884 0.54641 0.0
C1327 C 0.85035 0.15059 0.59224 0.0
C1328 C 0.86266 0.1301 0.51432 0.0
C1329 C 0.87588 0.16876 0.47811 0.0
N1330 N 0.85735 0.14721 0.56783 0.0
N1331 N 0.8679 0.17229 0.50198 0.0
H1332 H 0.8752 0.75817 0.50482 0.0
H1333 H 0.82362 0.6314 0.59023 0.0
H1334 H 0.8568 0.67863 0.47075 0.0
H1335 H 0.86386 0.71476 0.62533 0.0
H1336 H 0.83593 0.64762 0.54629 0.0
H1337 H 0.8718 0.74246 0.54937 0.0
C1338 C 0.87081 0.73748 0.50685 0.0
C1339 C 0.86626 0.71964 0.48421 0.0
C1340 C 0.84232 0.6623 0.5637 0.0
C1341 C 0.86179 0.70127 0.53498 0.0
C1342 C 0.83526 0.65305 0.58871 0.0
C1343 C 0.8426 0.67177 0.61135 0.0
C1344 C 0.85651 0.69044 0.56141 0.0
C1345 C 0.85771 0.69961 0.60838 0.0
C1346 C 0.86886 0.72849 0.53223 0.0
C1347 C 0.8606 0.69302 0.48781 0.0
N1348 N 0.86392 0.70809 0.58386 0.0
N1349 N 0.85814 0.68448 0.51273 0.0
loop_
_geom_bond_atom_site_label_1
_geom_bond_atom_site_label_2
_geom_bond_distance
_geom_bond_site_symmetry_2
_ccdc_geom_bond_type
H0 C3 0.929 . S
H1 C6 0.929 . S
H2 C8 0.930 . S
C3 H0 0.929 . S
C3 C4 1.398 . S
C3 C5 1.396 . S
C4 C3 1.398 . S
C4 C8 1.407 . S
C5 C3 1.396 . S
C5 C6 1.394 . S
C6 H1 0.929 . S
C6 C5 1.394 . S
C6 C7 1.382 . S
C7 C6 1.382 . S
C7 C8 1.392 . S
C7 N9 1.420 . S
C8 H2 0.930 . S
C8 C4 1.407 . S
C8 C7 1.392 . S
N9 C7 1.420 . S
N9 C10 1.244 . S
C10 N9 1.244 . S
H11 C14 0.929 . S
H12 C17 0.929 . S
H13 C19 0.930 . S
C14 H11 0.929 . S
C14 C15 1.398 . S
C14 C16 1.396 . S
C15 C14 1.398 . S
C15 C19 1.407 . S
C16 C14 1.396 . S
C16 C17 1.394 . S
C17 H12 0.929 . S
C17 C16 1.394 . S
C17 C18 1.382 . S
C18 C17 1.382 . S
C18 C19 1.392 . S
C18 N20 1.420 . S
C19 H13 0.930 . S
C19 C15 1.407 . S
C19 C18 1.392 . S
N20 C18 1.420 . S
N20 C21 1.244 . S
C21 N20 1.244 . S
H22 C25 0.929 . S
H23 C28 0.929 . S
H24 C30 0.930 . S
C25 H22 0.929 . S
C25 C26 1.398 . S
C25 C27 1.396 . S
C26 C25 1.398 . S
C26 C30 1.407 . S
C27 C25 1.396 . S
C27 C28 1.394 . S
C28 H23 0.929 . S
C28 C27 1.394 . S
C28 C29 1.382 . S
C29 C28 1.382 . S
C29 C30 1.392 . S
C29 N31 1.420 . S
C30 H24 0.930 . S
C30 C26 1.407 . S
C30 C29 1.392 . S
N31 C29 1.420 . S
N31 C32 1.244 . S
C32 N31 1.244 . S
H33 C36 0.929 . S
H34 C39 0.929 . S
H35 C41 0.930 . S
C36 H33 0.929 . S
C36 C37 1.398 . S
C36 C38 1.396 . S
C37 C36 1.398 . S
C37 C41 1.407 . S
C38 C36 1.396 . S
C38 C39 1.394 . S
C39 H34 0.929 . S
C39 C38 1.394 . S
C39 C40 1.382 . S
C40 C39 1.382 . S
C40 C41 1.392 . S
C40 N42 1.420 . S
C41 H35 0.930 . S
C41 C37 1.407 . S
C41 C40 1.392 . S
N42 C40 1.420 . S
N42 C43 1.244 . S
C43 N42 1.244 . S
H44 C47 0.929 . S
H45 C50 0.929 . S
H46 C52 0.930 . S
C47 H44 0.929 . S
C47 C48 1.398 . S
C47 C49 1.396 . S
C48 C47 1.398 . S
C48 C52 1.407 . S
C49 C47 1.396 . S
C49 C50 1.394 . S
C50 H45 0.929 . S
C50 C49 1.394 . S
C50 C51 1.382 . S
C51 C50 1.382 . S
C51 C52 1.392 . S
C51 N53 1.420 . S
C52 H46 0.930 . S
C52 C48 1.407 . S
C52 C51 1.392 . S
N53 C51 1.420 . S
N53 C54 1.244 . S
C54 N53 1.244 . S
H55 C58 0.929 . S
H56 C61 0.929 . S
H57 C63 0.930 . S
C58 H55 0.929 . S
C58 C59 1.398 . S
C58 C60 1.396 . S
C59 C58 1.398 . S
C59 C63 1.407 . S
C60 C58 1.396 . S
C60 C61 1.394 . S
C61 H56 0.929 . S
C61 C60 1.394 . S
C61 C62 1.382 . S
C62 C61 1.382 . S
C62 C63 1.392 . S
C62 N64 1.420 . S
C63 H57 0.930 . S
C63 C59 1.407 . S
C63 C62 1.392 . S
N64 C62 1.420 . S
N64 C65 1.244 . S
C65 N64 1.244 . S
H66 C69 0.929 . S
H67 C72 0.929 . S
H68 C74 0.930 . S
C69 H66 0.929 . S
C69 C70 1.398 . S
C69 C71 1.396 . S
C70 C69 1.398 . S
C70 C74 1.407 . S
C71 C69 1.396 . S
C71 C72 1.394 . S
C72 H67 0.929 . S
C72 C71 1.394 . S
C72 C73 1.382 . S
C73 C72 1.382 . S
C73 C74 1.392 . S
C73 N75 1.420 . S
C74 H68 0.930 . S
C74 C70 1.407 . S
C74 C73 1.392 . S
N75 C73 1.420 . S
N75 C76 1.244 . S
C76 N75 1.244 . S
H77 C80 0.929 . S
H78 C83 0.929 . S
H79 C85 0.930 . S
C80 H77 0.929 . S
C80 C81 1.398 . S
C80 C82 1.396 . S
C81 C80 1.398 . S
C81 C85 1.407 . S
C82 C80 1.396 . S
C82 C83 1.394 . S
C83 H78 0.929 . S
C83 C82 1.394 . S
C83 C84 1.382 . S
C84 C83 1.382 . S
C84 C85 1.392 . S
C84 N86 1.420 . S
C85 H79 0.930 . S
C85 C81 1.407 . S
C85 C84 1.392 . S
N86 C84 1.420 . S
N86 C87 1.244 . S
C87 N86 1.244 . S
H88 C91 0.929 . S
H89 C94 0.929 . S
H90 C96 0.930 . S
C91 H88 0.929 . S
C91 C92 1.398 . S
C91 C93 1.396 . S
C92 C91 1.398 . S
C92 C96 1.407 . S
C93 C91 1.396 . S
C93 C94 1.394 . S
C94 H89 0.929 . S
C94 C93 1.394 . S
C94 C95 1.382 . S
C95 C94 1.382 . S
C95 C96 1.392 . S
C95 N97 1.420 . S
C96 H90 0.930 . S
C96 C92 1.407 . S
C96 C95 1.392 . S
N97 C95 1.420 . S
N97 C98 1.244 . S
C98 N97 1.244 . S
H99 C102 0.929 . S
H100 C105 0.929 . S
H101 C107 0.930 . S
C102 H99 0.929 . S
C102 C103 1.398 . S
C102 C104 1.396 . S
C103 C102 1.398 . S
C103 C107 1.407 . S
C104 C102 1.396 . S
C104 C105 1.394 . S
C105 H100 0.929 . S
C105 C104 1.394 . S
C105 C106 1.382 . S
C106 C105 1.382 . S
C106 C107 1.392 . S
C106 N108 1.420 . S
C107 H101 0.930 . S
C107 C103 1.407 . S
C107 C106 1.392 . S
N108 C106 1.420 . S
N108 C109 1.244 . S
C109 N108 1.244 . S
H110 C113 0.929 . S
H111 C116 0.929 . S
H112 C118 0.930 . S
C113 H110 0.929 . S
C113 C114 1.398 . S
C113 C115 1.396 . S
C114 C113 1.398 . S
C114 C118 1.407 . S
C115 C113 1.396 . S
C115 C116 1.394 . S
C116 H111 0.929 . S
C116 C115 1.394 . S
C116 C117 1.382 . S
C117 C116 1.382 . S
C117 C118 1.392 . S
C117 N119 1.420 . S
C118 H112 0.930 . S
C118 C114 1.407 . S
C118 C117 1.392 . S
N119 C117 1.420 . S
N119 C120 1.244 . S
C120 N119 1.244 . S
H121 C124 0.929 . S
H122 C127 0.929 . S
H123 C129 0.930 . S
C124 H121 0.929 . S
C124 C125 1.398 . S
C124 C126 1.396 . S
C125 C124 1.398 . S
C125 C129 1.407 . S
C126 C124 1.396 . S
C126 C127 1.394 . S
C127 H122 0.929 . S
C127 C126 1.394 . S
C127 C128 1.382 . S
C128 C127 1.382 . S
C128 C129 1.392 . S
C128 N130 1.420 . S
C129 H123 0.930 . S
C129 C125 1.407 . S
C129 C128 1.392 . S
N130 C128 1.420 . S
N130 C131 1.244 . S
C131 N130 1.244 . S
H132 C135 0.929 . S
H133 C138 0.929 . S
H134 C140 0.930 . S
C135 H132 0.929 . S
C135 C136 1.398 . S
C135 C137 1.396 . S
C136 C135 1.398 . S
C136 C140 1.407 . S
C137 C135 1.396 . S
C137 C138 1.394 . S
C138 H133 0.929 . S
C138 C137 1.394 . S
C138 C139 1.382 . S
C139 C138 1.382 . S
C139 C140 1.392 . S
C139 N141 1.420 . S
C140 H134 0.930 . S
C140 C136 1.407 . S
C140 C139 1.392 . S
N141 C139 1.420 . S
N141 C142 1.244 . S
C142 N141 1.244 . S
H143 C146 0.929 . S
H144 C149 0.929 . S
H145 C151 0.930 . S
C146 H143 0.929 . S
C146 C147 1.398 . S
C146 C148 1.396 . S
C147 C146 1.398 . S
C147 C151 1.407 . S
C148 C146 1.396 . S
C148 C149 1.394 . S
C149 H144 0.929 . S
C149 C148 1.394 . S
C149 C150 1.382 . S
C150 C149 1.382 . S
C150 C151 1.392 . S
C150 N152 1.420 . S
C151 H145 0.930 . S
C151 C147 1.407 . S
C151 C150 1.392 . S
N152 C150 1.420 . S
N152 C153 1.244 . S
C153 N152 1.244 . S
H154 C157 0.929 . S
H155 C160 0.929 . S
H156 C162 0.930 . S
C157 H154 0.929 . S
C157 C158 1.398 . S
C157 C159 1.396 . S
C158 C157 1.398 . S
C158 C162 1.407 . S
C159 C157 1.396 . S
C159 C160 1.394 . S
C160 H155 0.929 . S
C160 C159 1.394 . S
C160 C161 1.382 . S
C161 C160 1.382 . S
C161 C162 1.392 . S
C161 N163 1.420 . S
C162 H156 0.930 . S
C162 C158 1.407 . S
C162 C161 1.392 . S
N163 C161 1.420 . S
N163 C164 1.244 . S
C164 N163 1.244 . S
H165 C168 0.929 . S
H166 C171 0.929 . S
H167 C173 0.930 . S
C168 H165 0.929 . S
C168 C169 1.398 . S
C168 C170 1.396 . S
C169 C168 1.398 . S
C169 C173 1.407 . S
C170 C168 1.396 . S
C170 C171 1.394 . S
C171 H166 0.929 . S
C171 C170 1.394 . S
C171 C172 1.382 . S
C172 C171 1.382 . S
C172 C173 1.392 . S
C172 N174 1.420 . S
C173 H167 0.930 . S
C173 C169 1.407 . S
C173 C172 1.392 . S
N174 C172 1.420 . S
N174 C175 1.244 . S
C175 N174 1.244 . S
H176 C179 0.929 . S
H177 C182 0.929 . S
H178 C184 0.930 . S
C179 H176 0.929 . S
C179 C180 1.398 . S
C179 C181 1.396 . S
C180 C179 1.398 . S
C180 C184 1.407 . S
C181 C179 1.396 . S
C181 C182 1.394 . S
C182 H177 0.929 . S
C182 C181 1.394 . S
C182 C183 1.382 . S
C183 C182 1.382 . S
C183 C184 1.392 . S
C183 N185 1.420 . S
C184 H178 0.930 . S
C184 C180 1.407 . S
C184 C183 1.392 . S
N185 C183 1.420 . S
N185 C186 1.244 . S
C186 N185 1.244 . S
H187 C190 0.929 . S
H188 C193 0.929 . S
H189 C195 0.930 . S
C190 H187 0.929 . S
C190 C191 1.398 . S
C190 C192 1.396 . S
C191 C190 1.398 . S
C191 C195 1.407 . S
C192 C190 1.396 . S
C192 C193 1.394 . S
C193 H188 0.929 . S
C193 C192 1.394 . S
C193 C194 1.382 . S
C194 C193 1.382 . S
C194 C195 1.392 . S
C194 N196 1.420 . S
C195 H189 0.930 . S
C195 C191 1.407 . S
C195 C194 1.392 . S
N196 C194 1.420 . S
N196 C197 1.244 . S
C197 N196 1.244 . S
Tb198 O201 2.453 . S
Tb198 O202 2.596 1_545 S
Tb198 O203 2.374 1_545 S
Tb198 O211 2.343 1_554 S
Tb198 O213 2.353 . S
Tb198 O215 2.427 . S
Tb198 O216 2.530 . S
C199 O203 1.251 . S
C199 O205 1.263 1_554 S
Tb200 O202 2.343 1_556 S
Tb200 O205 2.353 . S
Tb200 O208 2.427 1_556 S
Tb200 O209 2.513 1_556 S
Tb200 O210 2.453 . S
Tb200 O211 2.596 1_565 S
Tb200 O212 2.374 1_565 S
O201 Tb198 2.453 . S
O201 C217 1.245 1_545 S
O202 Tb198 2.596 1_565 S
O202 Tb200 2.343 1_554 S
O202 C217 1.259 . S
O203 Tb198 2.374 1_565 S
O203 C199 1.251 . S
C204 O208 1.275 . S
C204 O209 1.246 . S
O205 C199 1.263 1_556 S
O205 Tb200 2.353 . S
C206 O210 1.245 1_545 S
C206 O211 1.259 . S
C207 O212 1.250 1_554 S
C207 O213 1.263 . S
O208 Tb200 2.427 1_554 S
O208 C204 1.275 . S
O209 Tb200 2.513 1_554 S
O209 C204 1.246 . S
O210 Tb200 2.453 . S
O210 C206 1.245 1_565 S
O211 Tb198 2.343 1_556 S
O211 Tb200 2.596 1_545 S
O211 C206 1.259 . S
O212 Tb200 2.374 1_545 S
O212 C207 1.250 1_556 S
O213 Tb198 2.353 . S
O213 C207 1.263 . S
C214 O215 1.275 1_556 S
C214 O216 1.240 1_556 S
O215 Tb198 2.427 . S
O215 C214 1.275 1_554 S
O216 Tb198 2.530 . S
O216 C214 1.240 1_554 S
C217 O201 1.245 1_565 S
C217 O202 1.259 . S
Tb218 O221 2.453 . S
Tb218 O222 2.596 1_655 S
Tb218 O223 2.374 1_655 S
Tb218 O231 2.343 1_554 S
Tb218 O233 2.353 . S
Tb218 O235 2.427 1_554 S
Tb218 O236 2.513 1_554 S
C219 O223 1.251 . S
C219 O225 1.263 . S
Tb220 O222 2.343 1_556 S
Tb220 O225 2.353 1_556 S
Tb220 O228 2.427 1_556 S
Tb220 O229 2.513 1_556 S
Tb220 O230 2.453 . S
Tb220 O231 2.596 1_455 S
Tb220 O232 2.374 1_455 S
O221 Tb218 2.453 . S
O221 C237 1.245 1_655 S
O222 Tb218 2.596 1_455 S
O222 Tb220 2.343 1_554 S
O222 C237 1.259 . S
O223 Tb218 2.374 1_455 S
O223 C219 1.251 . S
C224 O228 1.275 . S
C224 O229 1.246 . S
O225 C219 1.263 . S
O225 Tb220 2.353 1_554 S
C226 O230 1.245 1_655 S
C226 O231 1.259 . S
C227 O232 1.250 1_554 S
C227 O233 1.263 . S
O228 Tb220 2.427 1_554 S
O228 C224 1.275 . S
O229 Tb220 2.513 1_554 S
O229 C224 1.246 . S
O230 Tb220 2.453 . S
O230 C226 1.245 1_455 S
O231 Tb218 2.343 1_556 S
O231 Tb220 2.596 1_655 S
O231 C226 1.259 . S
O232 Tb220 2.374 1_655 S
O232 C227 1.250 1_556 S
O233 Tb218 2.353 . S
O233 C227 1.263 . S
C234 O235 1.275 . S
C234 O236 1.246 . S
O235 Tb218 2.427 1_556 S
O235 C234 1.275 . S
O236 Tb218 2.513 1_556 S
O236 C234 1.246 . S
C237 O221 1.245 1_455 S
C237 O222 1.259 . S
Tb238 O241 2.453 . S
Tb238 O242 2.596 . S
Tb238 O243 2.374 1_556 S
Tb238 O251 2.343 1_556 S
Tb238 O253 2.353 1_556 S
Tb238 O255 2.427 1_556 S
Tb238 O256 2.513 1_556 S
C239 O243 1.251 . S
C239 O245 1.263 . S
Tb240 O242 2.343 1_554 S
Tb240 O245 2.353 . S
Tb240 O248 2.427 . S
Tb240 O249 2.494 1_554 S
Tb240 O250 2.453 . S
Tb240 O251 2.596 . S
Tb240 O252 2.374 . S
O241 Tb238 2.453 . S
O241 C257 1.245 . S
O242 Tb238 2.596 . S
O242 Tb240 2.343 1_556 S
O242 C257 1.259 . S
O243 Tb238 2.374 1_554 S
O243 C239 1.251 . S
C244 O248 1.275 1_556 S
C244 O249 1.251 . S
O245 C239 1.263 . S
O245 Tb240 2.353 . S
C246 O250 1.245 . S
C246 O251 1.259 . S
C247 O252 1.250 . S
C247 O253 1.263 . S
O248 Tb240 2.427 . S
O248 C244 1.275 1_554 S
O249 Tb240 2.494 1_556 S
O249 C244 1.251 . S
O250 Tb240 2.453 . S
O250 C246 1.245 . S
O251 Tb238 2.343 1_554 S
O251 Tb240 2.596 . S
O251 C246 1.259 . S
O252 Tb240 2.374 . S
O252 C247 1.250 . S
O253 Tb238 2.353 1_554 S
O253 C247 1.263 . S
C254 O255 1.275 . S
C254 O256 1.246 . S
O255 Tb238 2.427 1_554 S
O255 C254 1.275 . S
O256 Tb238 2.513 1_554 S
O256 C254 1.246 . S
C257 O241 1.245 . S
C257 O242 1.259 . S
Tb258 O261 2.453 . S
Tb258 O262 2.596 . S
Tb258 O263 2.374 . S
Tb258 O271 2.343 . S
Tb258 O273 2.353 . S
Tb258 O275 2.427 . S
Tb258 O276 2.513 . S
C259 O263 1.251 . S
C259 O265 1.263 . S
Tb260 O262 2.343 . S
Tb260 O265 2.353 . S
Tb260 O268 2.427 . S
Tb260 O269 2.513 . S
Tb260 O270 2.453 . S
Tb260 O271 2.596 . S
Tb260 O272 2.374 . S
O261 Tb258 2.453 . S
O261 C277 1.245 . S
O262 Tb258 2.596 . S
O262 Tb260 2.343 . S
O262 C277 1.259 . S
O263 Tb258 2.374 . S
O263 C259 1.251 . S
C264 O268 1.275 . S
C264 O269 1.246 . S
O265 C259 1.263 . S
O265 Tb260 2.353 . S
C266 O270 1.245 . S
C266 O271 1.259 . S
C267 O272 1.250 . S
C267 O273 1.263 . S
O268 Tb260 2.427 . S
O268 C264 1.275 . S
O269 Tb260 2.513 . S
O269 C264 1.246 . S
O270 Tb260 2.453 . S
O270 C266 1.245 . S
O271 Tb258 2.343 . S
O271 Tb260 2.596 . S
O271 C266 1.259 . S
O272 Tb260 2.374 . S
O272 C267 1.250 . S
O273 Tb258 2.353 . S
O273 C267 1.263 . S
C274 O275 1.275 . S
C274 O276 1.246 . S
O275 Tb258 2.427 . S
O275 C274 1.275 . S
O276 Tb258 2.513 . S
O276 C274 1.246 . S
C277 O261 1.245 . S
C277 O262 1.259 . S
Tb278 O281 2.453 . S
Tb278 O282 2.596 . S
Tb278 O283 2.374 . S
Tb278 O291 2.343 . S
Tb278 O293 2.353 . S
Tb278 O295 2.427 . S
Tb278 O296 2.513 . S
C279 O283 1.251 . S
C279 O285 1.263 . S
Tb280 O282 2.343 . S
Tb280 O285 2.353 . S
Tb280 O288 2.427 . S
Tb280 O289 2.513 . S
Tb280 O290 2.453 . S
Tb280 O291 2.596 . S
Tb280 O292 2.374 . S
O281 Tb278 2.453 . S
O281 C297 1.245 . S
O282 Tb278 2.596 . S
O282 Tb280 2.343 . S
O282 C297 1.259 . S
O283 Tb278 2.374 . S
O283 C279 1.251 . S
C284 O288 1.275 . S
C284 O289 1.246 . S
O285 C279 1.263 . S
O285 Tb280 2.353 . S
C286 O290 1.245 . S
C286 O291 1.259 . S
C287 O292 1.250 . S
C287 O293 1.263 . S
O288 Tb280 2.427 . S
O288 C284 1.275 . S
O289 Tb280 2.513 . S
O289 C284 1.246 . S
O290 Tb280 2.453 . S
O290 C286 1.245 . S
O291 Tb278 2.343 . S
O291 Tb280 2.596 . S
O291 C286 1.259 . S
O292 Tb280 2.374 . S
O292 C287 1.250 . S
O293 Tb278 2.353 . S
O293 C287 1.263 . S
C294 O295 1.275 . S
C294 O296 1.246 . S
O295 Tb278 2.427 . S
O295 C294 1.275 . S
O296 Tb278 2.513 . S
O296 C294 1.246 . S
C297 O281 1.245 . S
C297 O282 1.259 . S
Tb298 O301 2.453 . S
Tb298 O302 2.596 . S
Tb298 O303 2.374 . S
Tb298 O311 2.343 . S
Tb298 O313 2.353 . S
Tb298 O315 2.427 . S
Tb298 O316 2.513 . S
C299 O303 1.251 . S
C299 O305 1.263 . S
Tb300 O302 2.343 . S
Tb300 O305 2.353 . S
Tb300 O308 2.427 . S
Tb300 O309 2.513 . S
Tb300 O310 2.453 . S
Tb300 O311 2.596 . S
Tb300 O312 2.374 . S
O301 Tb298 2.453 . S
O301 C317 1.245 . S
O302 Tb298 2.596 . S
O302 Tb300 2.343 . S
O302 C317 1.259 . S
O303 Tb298 2.374 . S
O303 C299 1.251 . S
C304 O308 1.275 . S
C304 O309 1.246 . S
O305 C299 1.263 . S
O305 Tb300 2.353 . S
C306 O310 1.245 . S
C306 O311 1.259 . S
C307 O312 1.250 . S
C307 O313 1.263 . S
O308 Tb300 2.427 . S
O308 C304 1.275 . S
O309 Tb300 2.513 . S
O309 C304 1.246 . S
O310 Tb300 2.453 . S
O310 C306 1.245 . S
O311 Tb298 2.343 . S
O311 Tb300 2.596 . S
O311 C306 1.259 . S
O312 Tb300 2.374 . S
O312 C307 1.250 . S
O313 Tb298 2.353 . S
O313 C307 1.263 . S
C314 O315 1.275 . S
C314 O316 1.246 . S
O315 Tb298 2.427 . S
O315 C314 1.275 . S
O316 Tb298 2.513 . S
O316 C314 1.246 . S
C317 O301 1.245 . S
C317 O302 1.259 . S
Tb318 O321 2.453 . S
Tb318 O322 2.596 . S
Tb318 O323 2.374 . S
Tb318 O331 2.343 . S
Tb318 O333 2.353 . S
Tb318 O335 2.427 . S
Tb318 O336 2.513 . S
C319 O323 1.251 . S
C319 O325 1.263 . S
Tb320 O322 2.343 . S
Tb320 O325 2.353 . S
Tb320 O328 2.427 . S
Tb320 O329 2.513 . S
Tb320 O330 2.453 . S
Tb320 O331 2.596 . S
Tb320 O332 2.374 . S
O321 Tb318 2.453 . S
O321 C337 1.245 . S
O322 Tb318 2.596 . S
O322 Tb320 2.343 . S
O322 C337 1.259 . S
O323 Tb318 2.374 . S
O323 C319 1.251 . S
C324 O328 1.275 . S
C324 O329 1.246 . S
O325 C319 1.263 . S
O325 Tb320 2.353 . S
C326 O330 1.245 . S
C326 O331 1.259 . S
C327 O332 1.250 . S
C327 O333 1.263 . S
O328 Tb320 2.427 . S
O328 C324 1.275 . S
O329 Tb320 2.513 . S
O329 C324 1.246 . S
O330 Tb320 2.453 . S
O330 C326 1.245 . S
O331 Tb318 2.343 . S
O331 Tb320 2.596 . S
O331 C326 1.259 . S
O332 Tb320 2.374 . S
O332 C327 1.250 . S
O333 Tb318 2.353 . S
O333 C327 1.263 . S
C334 O335 1.275 . S
C334 O336 1.246 . S
O335 Tb318 2.427 . S
O335 C334 1.275 . S
O336 Tb318 2.513 . S
O336 C334 1.246 . S
C337 O321 1.245 . S
C337 O322 1.259 . S
Tb338 O341 2.453 . S
Tb338 O342 2.596 . S
Tb338 O343 2.374 . S
Tb338 O351 2.343 . S
Tb338 O353 2.353 . S
Tb338 O355 2.427 . S
Tb338 O356 2.513 . S
C339 O343 1.251 . S
C339 O345 1.263 . S
Tb340 O342 2.343 . S
Tb340 O345 2.353 . S
Tb340 O348 2.427 . S
Tb340 O349 2.513 . S
Tb340 O350 2.453 . S
Tb340 O351 2.596 . S
Tb340 O352 2.374 . S
O341 Tb338 2.453 . S
O341 C357 1.245 . S
O342 Tb338 2.596 . S
O342 Tb340 2.343 . S
O342 C357 1.259 . S
O343 Tb338 2.374 . S
O343 C339 1.251 . S
C344 O348 1.275 . S
C344 O349 1.246 . S
O345 C339 1.263 . S
O345 Tb340 2.353 . S
C346 O350 1.245 . S
C346 O351 1.259 . S
C347 O352 1.250 . S
C347 O353 1.263 . S
O348 Tb340 2.427 . S
O348 C344 1.275 . S
O349 Tb340 2.513 . S
O349 C344 1.246 . S
O350 Tb340 2.453 . S
O350 C346 1.245 . S
O351 Tb338 2.343 . S
O351 Tb340 2.596 . S
O351 C346 1.259 . S
O352 Tb340 2.374 . S
O352 C347 1.250 . S
O353 Tb338 2.353 . S
O353 C347 1.263 . S
C354 O355 1.275 . S
C354 O356 1.246 . S
O355 Tb338 2.427 . S
O355 C354 1.275 . S
O356 Tb338 2.513 . S
O356 C354 1.246 . S
C357 O341 1.245 . S
C357 O342 1.259 . S
Tb358 O361 2.453 . S
Tb358 O362 2.596 . S
Tb358 O363 2.374 . S
Tb358 O371 2.343 . S
Tb358 O373 2.353 . S
Tb358 O375 2.427 . S
Tb358 O376 2.513 . S
C359 O363 1.251 . S
C359 O365 1.263 . S
Tb360 O362 2.343 . S
Tb360 O365 2.353 . S
Tb360 O368 2.427 . S
Tb360 O369 2.513 . S
Tb360 O370 2.453 . S
Tb360 O371 2.596 . S
Tb360 O372 2.374 . S
O361 Tb358 2.453 . S
O361 C377 1.245 . S
O362 Tb358 2.596 . S
O362 Tb360 2.343 . S
O362 C377 1.259 . S
O363 Tb358 2.374 . S
O363 C359 1.251 . S
C364 O368 1.275 . S
C364 O369 1.246 . S
O365 C359 1.263 . S
O365 Tb360 2.353 . S
C366 O370 1.245 . S
C366 O371 1.259 . S
C367 O372 1.250 . S
C367 O373 1.263 . S
O368 Tb360 2.427 . S
O368 C364 1.275 . S
O369 Tb360 2.513 . S
O369 C364 1.246 . S
O370 Tb360 2.453 . S
O370 C366 1.245 . S
O371 Tb358 2.343 . S
O371 Tb360 2.596 . S
O371 C366 1.259 . S
O372 Tb360 2.374 . S
O372 C367 1.250 . S
O373 Tb358 2.353 . S
O373 C367 1.263 . S
C374 O375 1.275 . S
C374 O376 1.246 . S
O375 Tb358 2.427 . S
O375 C374 1.275 . S
O376 Tb358 2.513 . S
O376 C374 1.246 . S
C377 O361 1.245 . S
C377 O362 1.259 . S
H378 C384 0.930 . S
H379 C388 0.930 1_556 S
H380 C393 0.929 . S
H381 C391 0.929 . S
H382 C386 0.929 . S
H383 C392 0.929 . S
C384 H378 0.930 . S
C384 C385 1.367 . S
C384 C392 1.378 . S
C385 C384 1.367 . S
C385 C393 1.433 . S
C386 H382 0.929 . S
C386 C388 1.378 . S
C386 C390 1.350 . S
C387 C390 1.463 . S
C387 C392 1.350 . S
C387 N395 1.427 . S
C388 H379 0.930 1_554 S
C388 C386 1.378 . S
C388 C389 1.367 . S
C389 C388 1.367 . S
C389 C391 1.433 . S
C390 C386 1.350 . S
C390 C387 1.463 . S
C390 N394 1.427 . S
C391 H381 0.929 . S
C391 C389 1.433 . S
C391 N394 1.384 . S
C392 H383 0.929 . S
C392 C384 1.378 . S
C392 C387 1.350 . S
C393 H380 0.929 . S
C393 C385 1.433 . S
C393 N395 1.384 . S
N394 C390 1.427 . S
N394 C391 1.384 . S
N395 C387 1.427 . S
N395 C393 1.384 . S
H396 C402 0.930 . S
H397 C406 0.930 . S
H398 C411 0.929 . S
H399 C409 0.929 . S
H400 C404 0.929 . S
H401 C410 0.929 . S
C402 H396 0.930 . S
C402 C403 1.367 . S
C402 C410 1.378 . S
C403 C402 1.367 . S
C403 C411 1.433 . S
C404 H400 0.929 . S
C404 C406 1.378 . S
C404 C408 1.350 . S
C405 C408 1.463 . S
C405 C410 1.350 . S
C405 N413 1.427 . S
C406 H397 0.930 . S
C406 C404 1.378 . S
C406 C407 1.367 . S
C407 C406 1.367 . S
C407 C409 1.433 . S
C408 C404 1.350 . S
C408 C405 1.463 . S
C408 N412 1.427 . S
C409 H399 0.929 . S
C409 C407 1.433 . S
C409 N412 1.384 . S
C410 H401 0.929 . S
C410 C402 1.378 . S
C410 C405 1.350 . S
C411 H398 0.929 . S
C411 C403 1.433 . S
C411 N413 1.384 . S
N412 C408 1.427 . S
N412 C409 1.384 . S
N413 C405 1.427 . S
N413 C411 1.384 . S
H414 C420 0.930 . S
H415 C424 0.930 . S
H416 C429 0.929 . S
H417 C427 0.929 1_556 S
H418 C422 0.929 . S
H419 C428 0.929 . S
C420 H414 0.930 . S
C420 C421 1.367 . S
C420 C428 1.378 . S
C421 C420 1.367 . S
C421 C429 1.433 . S
C422 H418 0.929 . S
C422 C424 1.378 . S
C422 C426 1.350 . S
C423 C426 1.463 . S
C423 C428 1.350 . S
C423 N431 1.427 . S
C424 H415 0.930 . S
C424 C422 1.378 . S
C424 C425 1.367 . S
C425 C424 1.367 . S
C425 C427 1.433 . S
C426 C422 1.350 . S
C426 C423 1.463 . S
C426 N430 1.427 . S
C427 H417 0.929 1_554 S
C427 C425 1.433 . S
C427 N430 1.384 . S
C428 H419 0.929 . S
C428 C420 1.378 . S
C428 C423 1.350 . S
C429 H416 0.929 . S
C429 C421 1.433 . S
C429 N431 1.384 . S
N430 C426 1.427 . S
N430 C427 1.384 . S
N431 C423 1.427 . S
N431 C429 1.384 . S
H432 C438 0.930 . S
H433 C442 0.930 . S
H434 C447 0.929 . S
H435 C445 0.929 . S
H436 C440 0.929 . S
H437 C446 0.929 1_554 S
C438 H432 0.930 . S
C438 C439 1.367 . S
C438 C446 1.378 . S
C439 C438 1.367 . S
C439 C447 1.433 . S
C440 H436 0.929 . S
C440 C442 1.378 . S
C440 C444 1.350 . S
C441 C444 1.463 . S
C441 C446 1.350 . S
C441 N449 1.427 . S
C442 H433 0.930 . S
C442 C440 1.378 . S
C442 C443 1.367 . S
C443 C442 1.367 . S
C443 C445 1.433 1_556 S
C444 C440 1.350 . S
C444 C441 1.463 . S
C444 N448 1.427 1_556 S
C445 H435 0.929 . S
C445 C443 1.433 1_554 S
C445 N448 1.384 . S
C446 H437 0.929 1_556 S
C446 C438 1.378 . S
C446 C441 1.350 . S
C447 H434 0.929 . S
C447 C439 1.433 . S
C447 N449 1.384 . S
N448 C444 1.427 1_554 S
N448 C445 1.384 . S
N449 C441 1.427 . S
N449 C447 1.384 . S
H450 C456 0.930 . S
H451 C460 0.930 . S
H452 C465 0.929 . S
H453 C463 0.953 . S
H454 C458 0.929 . S
H455 C464 0.929 . S
C456 H450 0.930 . S
C456 C457 1.367 . S
C456 C464 1.378 . S
C457 C456 1.367 . S
C457 C465 1.433 . S
C458 H454 0.929 . S
C458 C460 1.378 . S
C458 C462 1.350 . S
C459 C462 1.463 . S
C459 C464 1.350 . S
C459 N467 1.427 . S
C460 H451 0.930 . S
C460 C458 1.378 . S
C460 C461 1.367 . S
C461 C460 1.367 . S
C461 C463 1.433 . S
C462 C458 1.350 . S
C462 C459 1.463 . S
C462 N466 1.427 . S
C463 H453 0.953 . S
C463 C461 1.433 . S
C463 N466 1.384 . S
C464 H455 0.929 . S
C464 C456 1.378 . S
C464 C459 1.350 . S
C465 H452 0.929 . S
C465 C457 1.433 . S
C465 N467 1.384 . S
N466 C462 1.427 . S
N466 C463 1.384 . S
N467 C459 1.427 . S
N467 C465 1.384 . S
H468 C474 0.930 . S
H469 C478 0.930 . S
H470 C483 0.929 . S
H471 C481 0.925 1_554 S
H472 C476 0.929 . S
H473 C482 0.929 . S
C474 H468 0.930 . S
C474 C475 1.367 . S
C474 C482 1.378 . S
C475 C474 1.367 . S
C475 C483 1.433 . S
C476 H472 0.929 . S
C476 C478 1.378 . S
C476 C480 1.350 . S
C477 C480 1.463 . S
C477 C482 1.350 . S
C477 N485 1.427 . S
C478 H469 0.930 . S
C478 C476 1.378 . S
C478 C479 1.367 . S
C479 C478 1.367 . S
C479 C481 1.431 . S
C480 C476 1.350 . S
C480 C477 1.463 . S
C480 N484 1.427 . S
C481 H471 0.925 1_556 S
C481 C479 1.431 . S
C481 N484 1.392 . S
C482 H473 0.929 . S
C482 C474 1.378 . S
C482 C477 1.350 . S
C483 H470 0.929 . S
C483 C475 1.433 . S
C483 N485 1.384 . S
N484 C480 1.427 . S
N484 C481 1.392 . S
N485 C477 1.427 . S
N485 C483 1.384 . S
H486 C492 0.930 . S
H487 C496 0.930 . S
H488 C501 0.929 1_554 S
H489 C499 0.929 . S
H490 C494 0.929 . S
H491 C500 0.929 . S
C492 H486 0.930 . S
C492 C493 1.367 . S
C492 C500 1.378 . S
C493 C492 1.367 . S
C493 C501 1.433 . S
C494 H490 0.929 . S
C494 C496 1.378 . S
C494 C498 1.350 1_554 S
C495 C498 1.463 . S
C495 C500 1.350 . S
C495 N503 1.427 . S
C496 H487 0.930 . S
C496 C494 1.378 . S
C496 C497 1.367 1_554 S
C497 C496 1.367 1_556 S
C497 C499 1.433 . S
C498 C494 1.350 1_556 S
C498 C495 1.463 . S
C498 N502 1.427 . S
C499 H489 0.929 . S
C499 C497 1.433 . S
C499 N502 1.384 . S
C500 H491 0.929 . S
C500 C492 1.378 . S
C500 C495 1.350 . S
C501 H488 0.929 1_556 S
C501 C493 1.433 . S
C501 N503 1.384 . S
N502 C498 1.427 . S
N502 C499 1.384 . S
N503 C495 1.427 . S
N503 C501 1.384 . S
H504 C510 0.930 . S
H505 C514 0.930 1_554 S
H506 C519 0.929 . S
H507 C517 0.929 . S
H508 C512 0.929 . S
H509 C518 0.929 . S
C510 H504 0.930 . S
C510 C511 1.367 . S
C510 C518 1.378 . S
C511 C510 1.367 . S
C511 C519 1.433 . S
C512 H508 0.929 . S
C512 C514 1.378 . S
C512 C516 1.350 . S
C513 C516 1.463 . S
C513 C518 1.350 . S
C513 N521 1.427 . S
C514 H505 0.930 1_556 S
C514 C512 1.378 . S
C514 C515 1.367 . S
C515 C514 1.367 . S
C515 C517 1.433 . S
C516 C512 1.350 . S
C516 C513 1.463 . S
C516 N520 1.427 . S
C517 H507 0.929 . S
C517 C515 1.433 . S
C517 N520 1.384 . S
C518 H509 0.929 . S
C518 C510 1.378 . S
C518 C513 1.350 . S
C519 H506 0.929 . S
C519 C511 1.433 . S
C519 N521 1.384 . S
N520 C516 1.427 . S
N520 C517 1.384 . S
N521 C513 1.427 . S
N521 C519 1.384 . S
H522 C528 0.930 . S
H523 C532 0.930 . S
H524 C537 0.926 1_554 S
H525 C535 0.929 . S
H526 C530 0.929 . S
H527 C536 0.929 . S
C528 H522 0.930 . S
C528 C529 1.367 . S
C528 C536 1.378 . S
C529 C528 1.367 . S
C529 C537 1.437 . S
C530 H526 0.929 . S
C530 C532 1.378 . S
C530 C534 1.350 1_554 S
C531 C534 1.463 . S
C531 C536 1.350 . S
C531 N539 1.427 1_556 S
C532 H523 0.930 . S
C532 C530 1.378 . S
C532 C533 1.381 . S
C533 C532 1.381 . S
C533 C535 1.418 1_554 S
C534 C530 1.350 1_556 S
C534 C531 1.463 . S
C534 N538 1.427 . S
C535 H525 0.929 . S
C535 C533 1.418 1_556 S
C535 N538 1.384 . S
C536 H527 0.929 . S
C536 C528 1.378 . S
C536 C531 1.350 . S
C537 H524 0.926 1_556 S
C537 C529 1.437 . S
C537 N539 1.383 1_556 S
N538 C534 1.427 . S
N538 C535 1.384 . S
N539 C531 1.427 1_554 S
N539 C537 1.383 1_554 S
H540 C546 0.930 . S
H541 C550 0.930 1_556 S
H542 C555 0.929 . S
H543 C553 0.929 . S
H544 C548 0.929 . S
H545 C554 0.929 . S
C546 H540 0.930 . S
C546 C547 1.367 . S
C546 C554 1.378 . S
C547 C546 1.367 . S
C547 C555 1.433 . S
C548 H544 0.929 . S
C548 C550 1.378 . S
C548 C552 1.350 . S
C549 C552 1.463 . S
C549 C554 1.350 . S
C549 N557 1.427 . S
C550 H541 0.930 1_554 S
C550 C548 1.378 . S
C550 C551 1.367 . S
C551 C550 1.367 . S
C551 C553 1.433 . S
C552 C548 1.350 . S
C552 C549 1.463 . S
C552 N556 1.427 . S
C553 H543 0.929 . S
C553 C551 1.433 . S
C553 N556 1.384 . S
C554 H545 0.929 . S
C554 C546 1.378 . S
C554 C549 1.350 . S
C555 H542 0.929 . S
C555 C547 1.433 . S
C555 N557 1.384 . S
N556 C552 1.427 . S
N556 C553 1.384 . S
N557 C549 1.427 . S
N557 C555 1.384 . S
H558 C564 0.930 . S
H559 C568 0.930 . S
H560 C573 0.929 . S
H561 C571 0.929 . S
H562 C566 0.929 . S
H563 C572 0.929 . S
C564 H558 0.930 . S
C564 C565 1.367 . S
C564 C572 1.378 . S
C565 C564 1.367 . S
C565 C573 1.433 . S
C566 H562 0.929 . S
C566 C568 1.378 . S
C566 C570 1.350 . S
C567 C570 1.463 . S
C567 C572 1.350 . S
C567 N575 1.427 . S
C568 H559 0.930 . S
C568 C566 1.378 . S
C568 C569 1.367 . S
C569 C568 1.367 . S
C569 C571 1.433 . S
C570 C566 1.350 . S
C570 C567 1.463 . S
C570 N574 1.427 . S
C571 H561 0.929 . S
C571 C569 1.433 . S
C571 N574 1.384 . S
C572 H563 0.929 . S
C572 C564 1.378 . S
C572 C567 1.350 . S
C573 H560 0.929 . S
C573 C565 1.433 . S
C573 N575 1.384 . S
N574 C570 1.427 . S
N574 C571 1.384 . S
N575 C567 1.427 . S
N575 C573 1.384 . S
H576 C582 0.930 . S
H577 C586 0.930 . S
H578 C591 0.929 . S
H579 C589 0.929 . S
H580 C584 0.929 . S
H581 C590 0.929 1_556 S
C582 H576 0.930 . S
C582 C583 1.367 . S
C582 C590 1.378 . S
C583 C582 1.367 . S
C583 C591 1.433 . S
C584 H580 0.929 . S
C584 C586 1.378 . S
C584 C588 1.350 . S
C585 C588 1.463 . S
C585 C590 1.350 . S
C585 N593 1.427 . S
C586 H577 0.930 . S
C586 C584 1.378 . S
C586 C587 1.367 . S
C587 C586 1.367 . S
C587 C589 1.434 1_554 S
C588 C584 1.350 . S
C588 C585 1.463 . S
C588 N592 1.427 . S
C589 H579 0.929 . S
C589 C587 1.434 1_556 S
C589 N592 1.384 1_556 S
C590 H581 0.929 1_554 S
C590 C582 1.378 . S
C590 C585 1.350 . S
C591 H578 0.929 . S
C591 C583 1.433 . S
C591 N593 1.384 . S
N592 C588 1.427 . S
N592 C589 1.384 1_554 S
N593 C585 1.427 . S
N593 C591 1.384 . S
H594 C600 0.930 . S
H595 C604 0.930 . S
H596 C609 0.929 . S
H597 C607 0.929 . S
H598 C602 0.929 1_655 S
H599 C608 0.929 . S
C600 H594 0.930 . S
C600 C601 1.367 . S
C600 C608 1.378 . S
C601 C600 1.367 . S
C601 C609 1.433 . S
C602 H598 0.929 1_455 S
C602 C604 1.378 . S
C602 C606 1.350 . S
C603 C606 1.463 1_655 S
C603 C608 1.350 . S
C603 N611 1.427 . S
C604 H595 0.930 . S
C604 C602 1.378 . S
C604 C605 1.367 . S
C605 C604 1.367 . S
C605 C607 1.433 . S
C606 C602 1.350 . S
C606 C603 1.463 1_455 S
C606 N610 1.427 . S
C607 H597 0.929 . S
C607 C605 1.433 . S
C607 N610 1.384 . S
C608 H599 0.929 . S
C608 C600 1.378 . S
C608 C603 1.350 . S
C609 H596 0.929 . S
C609 C601 1.433 . S
C609 N611 1.384 . S
N610 C606 1.427 . S
N610 C607 1.384 . S
N611 C603 1.427 . S
N611 C609 1.384 . S
H612 C618 0.930 . S
H613 C622 0.930 . S
H614 C627 0.929 . S
H615 C625 0.929 . S
H616 C620 0.929 . S
H617 C626 0.929 . S
C618 H612 0.930 . S
C618 C619 1.367 . S
C618 C626 1.378 . S
C619 C618 1.367 . S
C619 C627 1.433 . S
C620 H616 0.929 . S
C620 C622 1.378 . S
C620 C624 1.350 . S
C621 C624 1.463 . S
C621 C626 1.350 . S
C621 N629 1.427 . S
C622 H613 0.930 . S
C622 C620 1.378 . S
C622 C623 1.367 . S
C623 C622 1.367 . S
C623 C625 1.433 . S
C624 C620 1.350 . S
C624 C621 1.463 . S
C624 N628 1.427 . S
C625 H615 0.929 . S
C625 C623 1.433 . S
C625 N628 1.384 . S
C626 H617 0.929 . S
C626 C618 1.378 . S
C626 C621 1.350 . S
C627 H614 0.929 . S
C627 C619 1.433 . S
C627 N629 1.384 . S
N628 C624 1.427 . S
N628 C625 1.384 . S
N629 C621 1.427 . S
N629 C627 1.384 . S
H630 C636 0.930 . S
H631 C640 0.930 . S
H632 C645 0.929 . S
H633 C643 0.929 . S
H634 C638 0.929 . S
H635 C644 0.929 . S
C636 H630 0.930 . S
C636 C637 1.367 . S
C636 C644 1.378 . S
C637 C636 1.367 . S
C637 C645 1.433 . S
C638 H634 0.929 . S
C638 C640 1.378 . S
C638 C642 1.350 . S
C639 C642 1.463 1_545 S
C639 C644 1.350 . S
C639 N647 1.427 . S
C640 H631 0.930 . S
C640 C638 1.378 . S
C640 C641 1.367 . S
C641 C640 1.367 . S
C641 C643 1.433 . S
C642 C638 1.350 . S
C642 C639 1.463 1_565 S
C642 N646 1.427 . S
C643 H633 0.929 . S
C643 C641 1.433 . S
C643 N646 1.384 . S
C644 H635 0.929 . S
C644 C636 1.378 . S
C644 C639 1.350 . S
C645 H632 0.929 . S
C645 C637 1.433 . S
C645 N647 1.384 . S
N646 C642 1.427 . S
N646 C643 1.384 . S
N647 C639 1.427 . S
N647 C645 1.384 . S
H648 C654 0.930 . S
H649 C658 0.930 . S
H650 C663 0.929 . S
H651 C661 0.929 . S
H652 C656 0.929 . S
H653 C662 0.929 . S
C654 H648 0.930 . S
C654 C655 1.367 . S
C654 C662 1.378 . S
C655 C654 1.367 . S
C655 C663 1.433 . S
C656 H652 0.929 . S
C656 C658 1.378 . S
C656 C660 1.350 . S
C657 C660 1.463 . S
C657 C662 1.350 . S
C657 N665 1.427 . S
C658 H649 0.930 . S
C658 C656 1.378 . S
C658 C659 1.367 . S
C659 C658 1.367 . S
C659 C661 1.433 . S
C660 C656 1.350 . S
C660 C657 1.463 . S
C660 N664 1.427 . S
C661 H651 0.929 . S
C661 C659 1.433 . S
C661 N664 1.384 . S
C662 H653 0.929 . S
C662 C654 1.378 . S
C662 C657 1.350 . S
C663 H650 0.929 . S
C663 C655 1.433 . S
C663 N665 1.384 . S
N664 C660 1.427 . S
N664 C661 1.384 . S
N665 C657 1.427 . S
N665 C663 1.384 . S
H666 C672 0.930 . S
H667 C676 0.930 . S
H668 C681 0.929 . S
H669 C679 0.929 . S
H670 C674 0.929 . S
H671 C680 0.929 . S
C672 H666 0.930 . S
C672 C673 1.367 . S
C672 C680 1.378 . S
C673 C672 1.367 . S
C673 C681 1.433 . S
C674 H670 0.929 . S
C674 C676 1.378 . S
C674 C678 1.350 . S
C675 C678 1.463 . S
C675 C680 1.350 . S
C675 N683 1.427 . S
C676 H667 0.930 . S
C676 C674 1.378 . S
C676 C677 1.367 . S
C677 C676 1.367 . S
C677 C679 1.433 . S
C678 C674 1.350 . S
C678 C675 1.463 . S
C678 N682 1.427 . S
C679 H669 0.929 . S
C679 C677 1.433 . S
C679 N682 1.384 . S
C680 H671 0.929 . S
C680 C672 1.378 . S
C680 C675 1.350 . S
C681 H668 0.929 . S
C681 C673 1.433 . S
C681 N683 1.384 . S
N682 C678 1.427 . S
N682 C679 1.384 . S
N683 C675 1.427 . S
N683 C681 1.384 . S
H684 C690 0.930 . S
H685 C694 0.930 . S
H686 C699 0.929 . S
H687 C697 0.929 . S
H688 C692 0.929 . S
H689 C698 0.929 . S
C690 H684 0.930 . S
C690 C691 1.367 . S
C690 C698 1.378 . S
C691 C690 1.367 . S
C691 C699 1.433 . S
C692 H688 0.929 . S
C692 C694 1.378 . S
C692 C696 1.350 . S
C693 C696 1.463 . S
C693 C698 1.350 . S
C693 N701 1.427 . S
C694 H685 0.930 . S
C694 C692 1.378 . S
C694 C695 1.367 . S
C695 C694 1.367 . S
C695 C697 1.433 . S
C696 C692 1.350 . S
C696 C693 1.463 . S
C696 N700 1.427 . S
C697 H687 0.929 . S
C697 C695 1.433 . S
C697 N700 1.384 . S
C698 H689 0.929 . S
C698 C690 1.378 . S
C698 C693 1.350 . S
C699 H686 0.929 . S
C699 C691 1.433 . S
C699 N701 1.384 . S
N700 C696 1.427 . S
N700 C697 1.384 . S
N701 C693 1.427 . S
N701 C699 1.384 . S
H702 C708 0.930 . S
H703 C712 0.930 . S
H704 C717 0.929 . S
H705 C715 0.929 . S
H706 C710 0.929 . S
H707 C716 0.929 . S
C708 H702 0.930 . S
C708 C709 1.367 . S
C708 C716 1.378 . S
C709 C708 1.367 . S
C709 C717 1.433 . S
C710 H706 0.929 . S
C710 C712 1.378 . S
C710 C714 1.350 . S
C711 C714 1.463 . S
C711 C716 1.350 . S
C711 N719 1.427 . S
C712 H703 0.930 . S
C712 C710 1.378 . S
C712 C713 1.367 . S
C713 C712 1.367 . S
C713 C715 1.433 . S
C714 C710 1.350 . S
C714 C711 1.463 . S
C714 N718 1.427 . S
C715 H705 0.929 . S
C715 C713 1.433 . S
C715 N718 1.384 . S
C716 H707 0.929 . S
C716 C708 1.378 . S
C716 C711 1.350 . S
C717 H704 0.929 . S
C717 C709 1.433 . S
C717 N719 1.384 . S
N718 C714 1.427 . S
N718 C715 1.384 . S
N719 C711 1.427 . S
N719 C717 1.384 . S
H720 C726 0.930 . S
H721 C730 0.930 . S
H722 C735 0.929 . S
H723 C733 0.929 . S
H724 C728 0.929 . S
H725 C734 0.929 . S
C726 H720 0.930 . S
C726 C727 1.367 . S
C726 C734 1.378 . S
C727 C726 1.367 . S
C727 C735 1.433 . S
C728 H724 0.929 . S
C728 C730 1.378 . S
C728 C732 1.350 . S
C729 C732 1.463 . S
C729 C734 1.350 . S
C729 N737 1.427 . S
C730 H721 0.930 . S
C730 C728 1.378 . S
C730 C731 1.367 . S
C731 C730 1.367 . S
C731 C733 1.433 . S
C732 C728 1.350 . S
C732 C729 1.463 . S
C732 N736 1.427 . S
C733 H723 0.929 . S
C733 C731 1.433 . S
C733 N736 1.384 . S
C734 H725 0.929 . S
C734 C726 1.378 . S
C734 C729 1.350 . S
C735 H722 0.929 . S
C735 C727 1.433 . S
C735 N737 1.384 . S
N736 C732 1.427 . S
N736 C733 1.384 . S
N737 C729 1.427 . S
N737 C735 1.384 . S
H738 C744 0.930 . S
H739 C748 0.930 . S
H740 C753 0.929 . S
H741 C751 0.929 . S
H742 C746 0.929 . S
H743 C752 0.929 . S
C744 H738 0.930 . S
C744 C745 1.367 . S
C744 C752 1.378 . S
C745 C744 1.367 . S
C745 C753 1.433 . S
C746 H742 0.929 . S
C746 C748 1.378 . S
C746 C750 1.350 . S
C747 C750 1.463 . S
C747 C752 1.350 . S
C747 N755 1.427 . S
C748 H739 0.930 . S
C748 C746 1.378 . S
C748 C749 1.367 . S
C749 C748 1.367 . S
C749 C751 1.433 . S
C750 C746 1.350 . S
C750 C747 1.463 . S
C750 N754 1.427 . S
C751 H741 0.929 . S
C751 C749 1.433 . S
C751 N754 1.384 . S
C752 H743 0.929 . S
C752 C744 1.378 . S
C752 C747 1.350 . S
C753 H740 0.929 . S
C753 C745 1.433 . S
C753 N755 1.384 . S
N754 C750 1.427 . S
N754 C751 1.384 . S
N755 C747 1.427 . S
N755 C753 1.384 . S
H756 C762 0.930 . S
H757 C766 0.930 . S
H758 C771 0.929 . S
H759 C769 0.929 . S
H760 C764 0.929 . S
H761 C770 0.929 . S
C762 H756 0.930 . S
C762 C763 1.367 . S
C762 C770 1.378 1_545 S
C763 C762 1.367 . S
C763 C771 1.433 . S
C764 H760 0.929 . S
C764 C766 1.378 . S
C764 C768 1.350 . S
C765 C768 1.463 . S
C765 C770 1.350 . S
C765 N773 1.427 . S
C766 H757 0.930 . S
C766 C764 1.378 . S
C766 C767 1.367 . S
C767 C766 1.367 . S
C767 C769 1.433 . S
C768 C764 1.350 . S
C768 C765 1.463 . S
C768 N772 1.427 . S
C769 H759 0.929 . S
C769 C767 1.433 . S
C769 N772 1.384 . S
C770 H761 0.929 . S
C770 C762 1.378 1_565 S
C770 C765 1.350 . S
C771 H758 0.929 . S
C771 C763 1.433 . S
C771 N773 1.384 1_545 S
N772 C768 1.427 . S
N772 C769 1.384 . S
N773 C765 1.427 . S
N773 C771 1.384 1_565 S
H774 C780 0.930 . S
H775 C784 0.930 . S
H776 C789 0.929 . S
H777 C787 0.929 . S
H778 C782 0.929 . S
H779 C788 0.929 . S
C780 H774 0.930 . S
C780 C781 1.367 . S
C780 C788 1.378 1_655 S
C781 C780 1.367 . S
C781 C789 1.433 . S
C782 H778 0.929 . S
C782 C784 1.378 . S
C782 C786 1.350 . S
C783 C786 1.463 . S
C783 C788 1.350 . S
C783 N791 1.427 . S
C784 H775 0.930 . S
C784 C782 1.378 . S
C784 C785 1.367 . S
C785 C784 1.367 . S
C785 C787 1.433 . S
C786 C782 1.350 . S
C786 C783 1.463 . S
C786 N790 1.427 . S
C787 H777 0.929 . S
C787 C785 1.433 . S
C787 N790 1.384 . S
C788 H779 0.929 . S
C788 C780 1.378 1_455 S
C788 C783 1.350 . S
C789 H776 0.929 . S
C789 C781 1.433 . S
C789 N791 1.384 1_655 S
N790 C786 1.427 . S
N790 C787 1.384 . S
N791 C783 1.427 . S
N791 C789 1.384 1_455 S
H792 C798 0.930 . S
H793 C802 0.930 . S
H794 C807 0.929 . S
H795 C805 0.929 . S
H796 C800 0.929 . S
H797 C806 0.929 . S
C798 H792 0.930 . S
C798 C799 1.367 . S
C798 C806 1.378 . S
C799 C798 1.367 . S
C799 C807 1.433 . S
C800 H796 0.929 . S
C800 C802 1.378 . S
C800 C804 1.350 . S
C801 C804 1.463 . S
C801 C806 1.350 . S
C801 N809 1.427 . S
C802 H793 0.930 . S
C802 C800 1.378 . S
C802 C803 1.367 . S
C803 C802 1.367 . S
C803 C805 1.433 . S
C804 C800 1.350 . S
C804 C801 1.463 . S
C804 N808 1.427 . S
C805 H795 0.929 . S
C805 C803 1.433 . S
C805 N808 1.384 . S
C806 H797 0.929 . S
C806 C798 1.378 . S
C806 C801 1.350 . S
C807 H794 0.929 . S
C807 C799 1.433 . S
C807 N809 1.384 . S
N808 C804 1.427 . S
N808 C805 1.384 . S
N809 C801 1.427 . S
N809 C807 1.384 . S
H810 C816 0.930 . S
H811 C820 0.930 . S
H812 C825 0.929 . S
H813 C823 0.929 . S
H814 C818 0.929 . S
H815 C824 0.929 . S
C816 H810 0.930 . S
C816 C817 1.367 . S
C816 C824 1.378 . S
C817 C816 1.367 . S
C817 C825 1.433 . S
C818 H814 0.929 . S
C818 C820 1.378 . S
C818 C822 1.350 . S
C819 C822 1.463 . S
C819 C824 1.350 . S
C819 N827 1.427 . S
C820 H811 0.930 . S
C820 C818 1.378 . S
C820 C821 1.367 . S
C821 C820 1.367 . S
C821 C823 1.433 . S
C822 C818 1.350 . S
C822 C819 1.463 . S
C822 N826 1.427 . S
C823 H813 0.929 . S
C823 C821 1.433 . S
C823 N826 1.384 . S
C824 H815 0.929 . S
C824 C816 1.378 . S
C824 C819 1.350 . S
C825 H812 0.929 . S
C825 C817 1.433 . S
C825 N827 1.384 . S
N826 C822 1.427 . S
N826 C823 1.384 . S
N827 C819 1.427 . S
N827 C825 1.384 . S
H828 C834 0.930 . S
H829 C838 0.930 . S
H830 C843 0.929 . S
H831 C841 0.929 . S
H832 C836 0.929 . S
H833 C842 0.929 . S
C834 H828 0.930 . S
C834 C835 1.367 . S
C834 C842 1.378 . S
C835 C834 1.367 . S
C835 C843 1.433 . S
C836 H832 0.929 . S
C836 C838 1.378 . S
C836 C840 1.350 . S
C837 C840 1.463 . S
C837 C842 1.350 . S
C837 N845 1.427 . S
C838 H829 0.930 . S
C838 C836 1.378 . S
C838 C839 1.367 . S
C839 C838 1.367 . S
C839 C841 1.433 . S
C840 C836 1.350 . S
C840 C837 1.463 . S
C840 N844 1.427 . S
C841 H831 0.929 . S
C841 C839 1.433 . S
C841 N844 1.384 . S
C842 H833 0.929 . S
C842 C834 1.378 . S
C842 C837 1.350 . S
C843 H830 0.929 . S
C843 C835 1.433 . S
C843 N845 1.384 . S
N844 C840 1.427 . S
N844 C841 1.384 . S
N845 C837 1.427 . S
N845 C843 1.384 . S
H846 C852 0.930 . S
H847 C856 0.930 . S
H848 C861 0.929 . S
H849 C859 0.929 . S
H850 C854 0.929 . S
H851 C860 0.929 . S
C852 H846 0.930 . S
C852 C853 1.367 . S
C852 C860 1.378 . S
C853 C852 1.367 . S
C853 C861 1.433 . S
C854 H850 0.929 . S
C854 C856 1.378 . S
C854 C858 1.350 . S
C855 C858 1.463 . S
C855 C860 1.350 . S
C855 N863 1.427 . S
C856 H847 0.930 . S
C856 C854 1.378 . S
C856 C857 1.367 . S
C857 C856 1.367 . S
C857 C859 1.433 . S
C858 C854 1.350 . S
C858 C855 1.463 . S
C858 N862 1.427 . S
C859 H849 0.929 . S
C859 C857 1.433 . S
C859 N862 1.384 . S
C860 H851 0.929 . S
C860 C852 1.378 . S
C860 C855 1.350 . S
C861 H848 0.929 . S
C861 C853 1.433 . S
C861 N863 1.384 . S
N862 C858 1.427 . S
N862 C859 1.384 . S
N863 C855 1.427 . S
N863 C861 1.384 . S
H864 C870 0.930 . S
H865 C874 0.930 . S
H866 C879 0.929 . S
H867 C877 0.929 . S
H868 C872 0.929 . S
H869 C878 0.929 . S
C870 H864 0.930 . S
C870 C871 1.367 . S
C870 C878 1.378 . S
C871 C870 1.367 . S
C871 C879 1.433 . S
C872 H868 0.929 . S
C872 C874 1.378 . S
C872 C876 1.350 . S
C873 C876 1.463 1_565 S
C873 C878 1.350 . S
C873 N881 1.427 . S
C874 H865 0.930 . S
C874 C872 1.378 . S
C874 C875 1.367 . S
C875 C874 1.367 . S
C875 C877 1.433 . S
C876 C872 1.350 . S
C876 C873 1.463 1_545 S
C876 N880 1.427 . S
C877 H867 0.929 . S
C877 C875 1.433 . S
C877 N880 1.384 . S
C878 H869 0.929 . S
C878 C870 1.378 . S
C878 C873 1.350 . S
C879 H866 0.929 . S
C879 C871 1.433 . S
C879 N881 1.384 . S
N880 C876 1.427 . S
N880 C877 1.384 . S
N881 C873 1.427 . S
N881 C879 1.384 . S
H882 C888 0.930 . S
H883 C892 0.930 . S
H884 C897 0.929 . S
H885 C895 0.929 . S
H886 C890 0.929 . S
H887 C896 0.929 . S
C888 H882 0.930 . S
C888 C889 1.367 . S
C888 C896 1.378 . S
C889 C888 1.367 . S
C889 C897 1.433 . S
C890 H886 0.929 . S
C890 C892 1.378 . S
C890 C894 1.350 . S
C891 C894 1.463 1_455 S
C891 C896 1.350 . S
C891 N899 1.427 . S
C892 H883 0.930 . S
C892 C890 1.378 . S
C892 C893 1.367 . S
C893 C892 1.367 . S
C893 C895 1.433 . S
C894 C890 1.350 . S
C894 C891 1.463 1_655 S
C894 N898 1.427 . S
C895 H885 0.929 . S
C895 C893 1.433 . S
C895 N898 1.384 . S
C896 H887 0.929 . S
C896 C888 1.378 . S
C896 C891 1.350 . S
C897 H884 0.929 . S
C897 C889 1.433 . S
C897 N899 1.384 . S
N898 C894 1.427 . S
N898 C895 1.384 . S
N899 C891 1.427 . S
N899 C897 1.384 . S
H900 C906 0.930 . S
H901 C910 0.930 . S
H902 C915 0.929 . S
H903 C913 0.929 . S
H904 C908 0.929 . S
H905 C914 0.929 . S
C906 H900 0.930 . S
C906 C907 1.367 . S
C906 C914 1.378 . S
C907 C906 1.367 . S
C907 C915 1.433 . S
C908 H904 0.929 . S
C908 C910 1.378 . S
C908 C912 1.350 . S
C909 C912 1.463 . S
C909 C914 1.350 . S
C909 N917 1.427 . S
C910 H901 0.930 . S
C910 C908 1.378 . S
C910 C911 1.367 . S
C911 C910 1.367 . S
C911 C913 1.433 . S
C912 C908 1.350 . S
C912 C909 1.463 . S
C912 N916 1.427 . S
C913 H903 0.929 . S
C913 C911 1.433 . S
C913 N916 1.384 . S
C914 H905 0.929 . S
C914 C906 1.378 . S
C914 C909 1.350 . S
C915 H902 0.929 . S
C915 C907 1.433 . S
C915 N917 1.384 . S
N916 C912 1.427 . S
N916 C913 1.384 . S
N917 C909 1.427 . S
N917 C915 1.384 . S
H918 C924 0.930 . S
H919 C928 0.930 . S
H920 C933 0.929 . S
H921 C931 0.929 . S
H922 C926 0.929 . S
H923 C932 0.929 1_655 S
C924 H918 0.930 . S
C924 C925 1.367 . S
C924 C932 1.378 . S
C925 C924 1.367 . S
C925 C933 1.433 . S
C926 H922 0.929 . S
C926 C928 1.378 . S
C926 C930 1.350 . S
C927 C930 1.463 . S
C927 C932 1.350 1_655 S
C927 N935 1.427 1_655 S
C928 H919 0.930 . S
C928 C926 1.378 . S
C928 C929 1.367 . S
C929 C928 1.367 . S
C929 C931 1.433 . S
C930 C926 1.350 . S
C930 C927 1.463 . S
C930 N934 1.427 . S
C931 H921 0.929 . S
C931 C929 1.433 . S
C931 N934 1.384 . S
C932 H923 0.929 1_455 S
C932 C924 1.378 . S
C932 C927 1.350 1_455 S
C933 H920 0.929 . S
C933 C925 1.433 . S
C933 N935 1.384 . S
N934 C930 1.427 . S
N934 C931 1.384 . S
N935 C927 1.427 1_455 S
N935 C933 1.384 . S
H936 C942 0.930 . S
H937 C946 0.930 . S
H938 C951 0.929 . S
H939 C949 0.929 . S
H940 C944 0.929 . S
H941 C950 0.929 . S
C942 H936 0.930 . S
C942 C943 1.367 . S
C942 C950 1.378 . S
C943 C942 1.367 . S
C943 C951 1.433 . S
C944 H940 0.929 . S
C944 C946 1.378 . S
C944 C948 1.350 . S
C945 C948 1.463 . S
C945 C950 1.350 . S
C945 N953 1.427 . S
C946 H937 0.930 . S
C946 C944 1.378 . S
C946 C947 1.367 . S
C947 C946 1.367 . S
C947 C949 1.433 . S
C948 C944 1.350 . S
C948 C945 1.463 . S
C948 N952 1.427 . S
C949 H939 0.929 . S
C949 C947 1.433 . S
C949 N952 1.384 . S
C950 H941 0.929 . S
C950 C942 1.378 . S
C950 C945 1.350 . S
C951 H938 0.929 . S
C951 C943 1.433 . S
C951 N953 1.384 . S
N952 C948 1.427 . S
N952 C949 1.384 . S
N953 C945 1.427 . S
N953 C951 1.384 . S
H954 C960 0.930 . S
H955 C964 0.930 . S
H956 C969 0.929 . S
H957 C967 0.929 . S
H958 C962 0.929 . S
H959 C968 0.929 . S
C960 H954 0.930 . S
C960 C961 1.367 . S
C960 C968 1.378 1_565 S
C961 C960 1.367 . S
C961 C969 1.433 . S
C962 H958 0.929 . S
C962 C964 1.378 . S
C962 C966 1.350 . S
C963 C966 1.463 . S
C963 C968 1.350 . S
C963 N971 1.427 . S
C964 H955 0.930 . S
C964 C962 1.378 . S
C964 C965 1.367 . S
C965 C964 1.367 . S
C965 C967 1.433 . S
C966 C962 1.350 . S
C966 C963 1.463 . S
C966 N970 1.427 . S
C967 H957 0.929 . S
C967 C965 1.433 . S
C967 N970 1.384 . S
C968 H959 0.929 . S
C968 C960 1.378 1_545 S
C968 C963 1.350 . S
C969 H956 0.929 . S
C969 C961 1.433 . S
C969 N971 1.384 1_565 S
N970 C966 1.427 . S
N970 C967 1.384 . S
N971 C963 1.427 . S
N971 C969 1.384 1_545 S
H972 C978 0.930 . S
H973 C982 0.930 . S
H974 C987 0.929 . S
H975 C985 0.929 . S
H976 C980 0.929 . S
H977 C986 0.929 . S
C978 H972 0.930 . S
C978 C979 1.367 . S
C978 C986 1.378 . S
C979 C978 1.367 . S
C979 C987 1.433 . S
C980 H976 0.929 . S
C980 C982 1.378 . S
C980 C984 1.350 . S
C981 C984 1.463 . S
C981 C986 1.350 . S
C981 N989 1.427 . S
C982 H973 0.930 . S
C982 C980 1.378 . S
C982 C983 1.367 . S
C983 C982 1.367 . S
C983 C985 1.433 . S
C984 C980 1.350 . S
C984 C981 1.463 . S
C984 N988 1.427 . S
C985 H975 0.929 . S
C985 C983 1.433 . S
C985 N988 1.384 . S
C986 H977 0.929 . S
C986 C978 1.378 . S
C986 C981 1.350 . S
C987 H974 0.929 . S
C987 C979 1.433 . S
C987 N989 1.384 . S
N988 C984 1.427 . S
N988 C985 1.384 . S
N989 C981 1.427 . S
N989 C987 1.384 . S
H990 C996 0.930 . S
H991 C1000 0.930 . S
H992 C1005 0.929 . S
H993 C1003 0.929 . S
H994 C998 0.929 . S
H995 C1004 0.929 . S
C996 H990 0.930 . S
C996 C997 1.367 . S
C996 C1004 1.378 . S
C997 C996 1.367 . S
C997 C1005 1.433 . S
C998 H994 0.929 . S
C998 C1000 1.378 . S
C998 C1002 1.350 . S
C999 C1002 1.463 . S
C999 C1004 1.350 . S
C999 N1007 1.427 . S
C1000 H991 0.930 . S
C1000 C998 1.378 . S
C1000 C1001 1.367 . S
C1001 C1000 1.367 . S
C1001 C1003 1.433 . S
C1002 C998 1.350 . S
C1002 C999 1.463 . S
C1002 N1006 1.427 . S
C1003 H993 0.929 . S
C1003 C1001 1.433 . S
C1003 N1006 1.384 . S
C1004 H995 0.929 . S
C1004 C996 1.378 . S
C1004 C999 1.350 . S
C1005 H992 0.929 . S
C1005 C997 1.433 . S
C1005 N1007 1.384 . S
N1006 C1002 1.427 . S
N1006 C1003 1.384 . S
N1007 C999 1.427 . S
N1007 C1005 1.384 . S
H1008 C1014 0.930 . S
H1009 C1018 0.930 . S
H1010 C1023 0.929 . S
H1011 C1021 0.929 . S
H1012 C1016 0.929 . S
H1013 C1022 0.929 . S
C1014 H1008 0.930 . S
C1014 C1015 1.367 . S
C1014 C1022 1.378 . S
C1015 C1014 1.367 . S
C1015 C1023 1.433 . S
C1016 H1012 0.929 . S
C1016 C1018 1.378 . S
C1016 C1020 1.350 . S
C1017 C1020 1.463 . S
C1017 C1022 1.350 . S
C1017 N1025 1.427 . S
C1018 H1009 0.930 . S
C1018 C1016 1.378 . S
C1018 C1019 1.367 . S
C1019 C1018 1.367 . S
C1019 C1021 1.433 . S
C1020 C1016 1.350 . S
C1020 C1017 1.463 . S
C1020 N1024 1.427 . S
C1021 H1011 0.929 . S
C1021 C1019 1.433 . S
C1021 N1024 1.384 . S
C1022 H1013 0.929 . S
C1022 C1014 1.378 . S
C1022 C1017 1.350 . S
C1023 H1010 0.929 . S
C1023 C1015 1.433 . S
C1023 N1025 1.384 . S
N1024 C1020 1.427 . S
N1024 C1021 1.384 . S
N1025 C1017 1.427 . S
N1025 C1023 1.384 . S
H1026 C1032 0.930 . S
H1027 C1036 0.930 1_545 S
H1028 C1041 0.929 . S
H1029 C1039 0.929 . S
H1030 C1034 0.929 . S
H1031 C1040 0.929 . S
C1032 H1026 0.930 . S
C1032 C1033 1.367 . S
C1032 C1040 1.378 . S
C1033 C1032 1.367 . S
C1033 C1041 1.433 . S
C1034 H1030 0.929 . S
C1034 C1036 1.378 . S
C1034 C1038 1.350 . S
C1035 C1038 1.463 . S
C1035 C1040 1.350 . S
C1035 N1043 1.427 . S
C1036 H1027 0.930 1_565 S
C1036 C1034 1.378 . S
C1036 C1037 1.367 . S
C1037 C1036 1.367 . S
C1037 C1039 1.433 . S
C1038 C1034 1.350 . S
C1038 C1035 1.463 . S
C1038 N1042 1.427 . S
C1039 H1029 0.929 . S
C1039 C1037 1.433 . S
C1039 N1042 1.384 . S
C1040 H1031 0.929 . S
C1040 C1032 1.378 . S
C1040 C1035 1.350 . S
C1041 H1028 0.929 . S
C1041 C1033 1.433 . S
C1041 N1043 1.384 . S
N1042 C1038 1.427 . S
N1042 C1039 1.384 . S
N1043 C1035 1.427 . S
N1043 C1041 1.384 . S
H1044 C1050 0.930 . S
H1045 C1054 0.930 . S
H1046 C1059 0.929 . S
H1047 C1057 0.929 1_655 S
H1048 C1052 0.929 . S
H1049 C1058 0.929 . S
C1050 H1044 0.930 . S
C1050 C1051 1.367 . S
C1050 C1058 1.378 . S
C1051 C1050 1.367 . S
C1051 C1059 1.433 . S
C1052 H1048 0.929 . S
C1052 C1054 1.378 . S
C1052 C1056 1.350 . S
C1053 C1056 1.463 . S
C1053 C1058 1.350 . S
C1053 N1061 1.427 . S
C1054 H1045 0.930 . S
C1054 C1052 1.378 . S
C1054 C1055 1.367 . S
C1055 C1054 1.367 . S
C1055 C1057 1.433 . S
C1056 C1052 1.350 . S
C1056 C1053 1.463 . S
C1056 N1060 1.427 . S
C1057 H1047 0.929 1_455 S
C1057 C1055 1.433 . S
C1057 N1060 1.384 . S
C1058 H1049 0.929 . S
C1058 C1050 1.378 . S
C1058 C1053 1.350 . S
C1059 H1046 0.929 . S
C1059 C1051 1.433 . S
C1059 N1061 1.384 . S
N1060 C1056 1.427 . S
N1060 C1057 1.384 . S
N1061 C1053 1.427 . S
N1061 C1059 1.384 . S
H1062 C1068 0.930 . S
H1063 C1072 0.930 . S
H1064 C1077 0.929 . S
H1065 C1075 0.929 . S
H1066 C1070 0.929 . S
H1067 C1076 0.929 . S
C1068 H1062 0.930 . S
C1068 C1069 1.367 . S
C1068 C1076 1.378 . S
C1069 C1068 1.367 . S
C1069 C1077 1.433 . S
C1070 H1066 0.929 . S
C1070 C1072 1.378 . S
C1070 C1074 1.350 . S
C1071 C1074 1.463 . S
C1071 C1076 1.350 . S
C1071 N1079 1.427 . S
C1072 H1063 0.930 . S
C1072 C1070 1.378 . S
C1072 C1073 1.367 . S
C1073 C1072 1.367 . S
C1073 C1075 1.433 . S
C1074 C1070 1.350 . S
C1074 C1071 1.463 . S
C1074 N1078 1.427 . S
C1075 H1065 0.929 . S
C1075 C1073 1.433 . S
C1075 N1078 1.384 . S
C1076 H1067 0.929 . S
C1076 C1068 1.378 . S
C1076 C1071 1.350 . S
C1077 H1064 0.929 . S
C1077 C1069 1.433 . S
C1077 N1079 1.384 . S
N1078 C1074 1.427 . S
N1078 C1075 1.384 . S
N1079 C1071 1.427 . S
N1079 C1077 1.384 . S
H1080 C1086 0.930 . S
H1081 C1090 0.930 . S
H1082 C1095 0.929 . S
H1083 C1093 0.929 . S
H1084 C1088 0.929 . S
H1085 C1094 0.929 . S
C1086 H1080 0.930 . S
C1086 C1087 1.367 . S
C1086 C1094 1.378 . S
C1087 C1086 1.367 . S
C1087 C1095 1.433 . S
C1088 H1084 0.929 . S
C1088 C1090 1.378 . S
C1088 C1092 1.350 . S
C1089 C1092 1.463 . S
C1089 C1094 1.350 . S
C1089 N1097 1.427 . S
C1090 H1081 0.930 . S
C1090 C1088 1.378 . S
C1090 C1091 1.367 . S
C1091 C1090 1.367 . S
C1091 C1093 1.433 . S
C1092 C1088 1.350 . S
C1092 C1089 1.463 . S
C1092 N1096 1.427 . S
C1093 H1083 0.929 . S
C1093 C1091 1.433 . S
C1093 N1096 1.384 . S
C1094 H1085 0.929 . S
C1094 C1086 1.378 . S
C1094 C1089 1.350 . S
C1095 H1082 0.929 . S
C1095 C1087 1.433 . S
C1095 N1097 1.384 . S
N1096 C1092 1.427 . S
N1096 C1093 1.384 . S
N1097 C1089 1.427 . S
N1097 C1095 1.384 . S
H1098 C1104 0.930 . S
H1099 C1108 0.930 . S
H1100 C1113 0.929 . S
H1101 C1111 0.929 . S
H1102 C1106 0.929 . S
H1103 C1112 0.929 . S
C1104 H1098 0.930 . S
C1104 C1105 1.367 . S
C1104 C1112 1.378 . S
C1105 C1104 1.367 . S
C1105 C1113 1.433 . S
C1106 H1102 0.929 . S
C1106 C1108 1.378 . S
C1106 C1110 1.350 . S
C1107 C1110 1.463 . S
C1107 C1112 1.350 . S
C1107 N1115 1.427 . S
C1108 H1099 0.930 . S
C1108 C1106 1.378 . S
C1108 C1109 1.367 . S
C1109 C1108 1.367 . S
C1109 C1111 1.433 . S
C1110 C1106 1.350 . S
C1110 C1107 1.463 . S
C1110 N1114 1.427 . S
C1111 H1101 0.929 . S
C1111 C1109 1.433 . S
C1111 N1114 1.384 . S
C1112 H1103 0.929 . S
C1112 C1104 1.378 . S
C1112 C1107 1.350 . S
C1113 H1100 0.929 . S
C1113 C1105 1.433 . S
C1113 N1115 1.384 . S
N1114 C1110 1.427 . S
N1114 C1111 1.384 . S
N1115 C1107 1.427 . S
N1115 C1113 1.384 . S
H1116 C1122 0.930 . S
H1117 C1126 0.930 . S
H1118 C1131 0.929 . S
H1119 C1129 0.929 1_565 S
H1120 C1124 0.929 . S
H1121 C1130 0.929 . S
C1122 H1116 0.930 . S
C1122 C1123 1.367 . S
C1122 C1130 1.378 . S
C1123 C1122 1.367 . S
C1123 C1131 1.433 . S
C1124 H1120 0.929 . S
C1124 C1126 1.378 . S
C1124 C1128 1.350 . S
C1125 C1128 1.463 . S
C1125 C1130 1.350 . S
C1125 N1133 1.427 . S
C1126 H1117 0.930 . S
C1126 C1124 1.378 . S
C1126 C1127 1.367 . S
C1127 C1126 1.367 . S
C1127 C1129 1.433 . S
C1128 C1124 1.350 . S
C1128 C1125 1.463 . S
C1128 N1132 1.427 . S
C1129 H1119 0.929 1_545 S
C1129 C1127 1.433 . S
C1129 N1132 1.384 . S
C1130 H1121 0.929 . S
C1130 C1122 1.378 . S
C1130 C1125 1.350 . S
C1131 H1118 0.929 . S
C1131 C1123 1.433 . S
C1131 N1133 1.384 . S
N1132 C1128 1.427 . S
N1132 C1129 1.384 . S
N1133 C1125 1.427 . S
N1133 C1131 1.384 . S
H1134 C1140 0.930 . S
H1135 C1144 0.930 . S
H1136 C1149 0.929 . S
H1137 C1147 0.929 . S
H1138 C1142 0.929 . S
H1139 C1148 0.929 . S
C1140 H1134 0.930 . S
C1140 C1141 1.367 . S
C1140 C1148 1.378 . S
C1141 C1140 1.367 . S
C1141 C1149 1.433 . S
C1142 H1138 0.929 . S
C1142 C1144 1.378 . S
C1142 C1146 1.350 . S
C1143 C1146 1.463 . S
C1143 C1148 1.350 . S
C1143 N1151 1.427 . S
C1144 H1135 0.930 . S
C1144 C1142 1.378 . S
C1144 C1145 1.367 . S
C1145 C1144 1.367 . S
C1145 C1147 1.433 . S
C1146 C1142 1.350 . S
C1146 C1143 1.463 . S
C1146 N1150 1.427 . S
C1147 H1137 0.929 . S
C1147 C1145 1.433 . S
C1147 N1150 1.384 . S
C1148 H1139 0.929 . S
C1148 C1140 1.378 . S
C1148 C1143 1.350 . S
C1149 H1136 0.929 . S
C1149 C1141 1.433 . S
C1149 N1151 1.384 . S
N1150 C1146 1.427 . S
N1150 C1147 1.384 . S
N1151 C1143 1.427 . S
N1151 C1149 1.384 . S
H1152 C1158 0.930 . S
H1153 C1162 0.930 . S
H1154 C1167 0.929 . S
H1155 C1165 0.929 . S
H1156 C1160 0.929 . S
H1157 C1166 0.929 . S
C1158 H1152 0.930 . S
C1158 C1159 1.367 . S
C1158 C1166 1.378 . S
C1159 C1158 1.367 . S
C1159 C1167 1.433 . S
C1160 H1156 0.929 . S
C1160 C1162 1.378 . S
C1160 C1164 1.350 . S
C1161 C1164 1.463 . S
C1161 C1166 1.350 . S
C1161 N1169 1.427 . S
C1162 H1153 0.930 . S
C1162 C1160 1.378 . S
C1162 C1163 1.367 . S
C1163 C1162 1.367 . S
C1163 C1165 1.433 . S
C1164 C1160 1.350 . S
C1164 C1161 1.463 . S
C1164 N1168 1.427 . S
C1165 H1155 0.929 . S
C1165 C1163 1.433 . S
C1165 N1168 1.384 . S
C1166 H1157 0.929 . S
C1166 C1158 1.378 . S
C1166 C1161 1.350 . S
C1167 H1154 0.929 . S
C1167 C1159 1.433 . S
C1167 N1169 1.384 . S
N1168 C1164 1.427 . S
N1168 C1165 1.384 . S
N1169 C1161 1.427 . S
N1169 C1167 1.384 . S
H1170 C1176 0.930 . S
H1171 C1180 0.930 . S
H1172 C1185 0.929 . S
H1173 C1183 0.929 . S
H1174 C1178 0.929 . S
H1175 C1184 0.929 . S
C1176 H1170 0.930 . S
C1176 C1177 1.367 . S
C1176 C1184 1.378 . S
C1177 C1176 1.367 . S
C1177 C1185 1.433 . S
C1178 H1174 0.929 . S
C1178 C1180 1.378 . S
C1178 C1182 1.350 . S
C1179 C1182 1.463 . S
C1179 C1184 1.350 . S
C1179 N1187 1.427 . S
C1180 H1171 0.930 . S
C1180 C1178 1.378 . S
C1180 C1181 1.367 . S
C1181 C1180 1.367 . S
C1181 C1183 1.433 . S
C1182 C1178 1.350 . S
C1182 C1179 1.463 . S
C1182 N1186 1.427 . S
C1183 H1173 0.929 . S
C1183 C1181 1.433 . S
C1183 N1186 1.384 . S
C1184 H1175 0.929 . S
C1184 C1176 1.378 . S
C1184 C1179 1.350 . S
C1185 H1172 0.929 . S
C1185 C1177 1.433 . S
C1185 N1187 1.384 . S
N1186 C1182 1.427 . S
N1186 C1183 1.384 . S
N1187 C1179 1.427 . S
N1187 C1185 1.384 . S
H1188 C1194 0.930 . S
H1189 C1198 0.930 . S
H1190 C1203 0.929 . S
H1191 C1201 0.929 . S
H1192 C1196 0.929 . S
H1193 C1202 0.929 . S
C1194 H1188 0.930 . S
C1194 C1195 1.367 . S
C1194 C1202 1.378 . S
C1195 C1194 1.367 . S
C1195 C1203 1.433 . S
C1196 H1192 0.929 . S
C1196 C1198 1.378 . S
C1196 C1200 1.350 . S
C1197 C1200 1.463 . S
C1197 C1202 1.350 . S
C1197 N1205 1.427 . S
C1198 H1189 0.930 . S
C1198 C1196 1.378 . S
C1198 C1199 1.367 . S
C1199 C1198 1.367 . S
C1199 C1201 1.433 . S
C1200 C1196 1.350 . S
C1200 C1197 1.463 . S
C1200 N1204 1.427 . S
C1201 H1191 0.929 . S
C1201 C1199 1.433 . S
C1201 N1204 1.384 . S
C1202 H1193 0.929 . S
C1202 C1194 1.378 . S
C1202 C1197 1.350 . S
C1203 H1190 0.929 . S
C1203 C1195 1.433 . S
C1203 N1205 1.384 . S
N1204 C1200 1.427 . S
N1204 C1201 1.384 . S
N1205 C1197 1.427 . S
N1205 C1203 1.384 . S
H1206 C1212 0.930 . S
H1207 C1216 0.930 . S
H1208 C1221 0.929 . S
H1209 C1219 0.929 . S
H1210 C1214 0.929 . S
H1211 C1220 0.929 . S
C1212 H1206 0.930 . S
C1212 C1213 1.367 . S
C1212 C1220 1.378 . S
C1213 C1212 1.367 . S
C1213 C1221 1.433 . S
C1214 H1210 0.929 . S
C1214 C1216 1.378 . S
C1214 C1218 1.350 . S
C1215 C1218 1.463 . S
C1215 C1220 1.350 . S
C1215 N1223 1.427 . S
C1216 H1207 0.930 . S
C1216 C1214 1.378 . S
C1216 C1217 1.367 . S
C1217 C1216 1.367 . S
C1217 C1219 1.433 . S
C1218 C1214 1.350 . S
C1218 C1215 1.463 . S
C1218 N1222 1.427 . S
C1219 H1209 0.929 . S
C1219 C1217 1.433 . S
C1219 N1222 1.384 . S
C1220 H1211 0.929 . S
C1220 C1212 1.378 . S
C1220 C1215 1.350 . S
C1221 H1208 0.929 . S
C1221 C1213 1.433 . S
C1221 N1223 1.384 . S
N1222 C1218 1.427 . S
N1222 C1219 1.384 . S
N1223 C1215 1.427 . S
N1223 C1221 1.384 . S
H1224 C1230 0.930 . S
H1225 C1234 0.930 . S
H1226 C1239 0.929 . S
H1227 C1237 0.929 . S
H1228 C1232 0.929 . S
H1229 C1238 0.929 . S
C1230 H1224 0.930 . S
C1230 C1231 1.367 . S
C1230 C1238 1.378 . S
C1231 C1230 1.367 . S
C1231 C1239 1.433 . S
C1232 H1228 0.929 . S
C1232 C1234 1.378 . S
C1232 C1236 1.350 . S
C1233 C1236 1.463 . S
C1233 C1238 1.350 . S
C1233 N1241 1.427 . S
C1234 H1225 0.930 . S
C1234 C1232 1.378 . S
C1234 C1235 1.367 . S
C1235 C1234 1.367 . S
C1235 C1237 1.433 . S
C1236 C1232 1.350 . S
C1236 C1233 1.463 . S
C1236 N1240 1.427 . S
C1237 H1227 0.929 . S
C1237 C1235 1.433 . S
C1237 N1240 1.384 . S
C1238 H1229 0.929 . S
C1238 C1230 1.378 . S
C1238 C1233 1.350 . S
C1239 H1226 0.929 . S
C1239 C1231 1.433 . S
C1239 N1241 1.384 . S
N1240 C1236 1.427 . S
N1240 C1237 1.384 . S
N1241 C1233 1.427 . S
N1241 C1239 1.384 . S
H1242 C1248 0.930 . S
H1243 C1252 0.930 . S
H1244 C1257 0.929 . S
H1245 C1255 0.929 . S
H1246 C1250 0.929 . S
H1247 C1256 0.929 . S
C1248 H1242 0.930 . S
C1248 C1249 1.367 . S
C1248 C1256 1.378 . S
C1249 C1248 1.367 . S
C1249 C1257 1.433 . S
C1250 H1246 0.929 . S
C1250 C1252 1.378 . S
C1250 C1254 1.350 . S
C1251 C1254 1.463 . S
C1251 C1256 1.350 . S
C1251 N1259 1.427 . S
C1252 H1243 0.930 . S
C1252 C1250 1.378 . S
C1252 C1253 1.367 . S
C1253 C1252 1.367 . S
C1253 C1255 1.433 . S
C1254 C1250 1.350 . S
C1254 C1251 1.463 . S
C1254 N1258 1.427 . S
C1255 H1245 0.929 . S
C1255 C1253 1.433 . S
C1255 N1258 1.384 . S
C1256 H1247 0.929 . S
C1256 C1248 1.378 . S
C1256 C1251 1.350 . S
C1257 H1244 0.929 . S
C1257 C1249 1.433 . S
C1257 N1259 1.384 . S
N1258 C1254 1.427 . S
N1258 C1255 1.384 . S
N1259 C1251 1.427 . S
N1259 C1257 1.384 . S
H1260 C1266 0.930 . S
H1261 C1270 0.930 . S
H1262 C1275 0.929 . S
H1263 C1273 0.929 . S
H1264 C1268 0.929 . S
H1265 C1274 0.929 . S
C1266 H1260 0.930 . S
C1266 C1267 1.367 . S
C1266 C1274 1.378 . S
C1267 C1266 1.367 . S
C1267 C1275 1.433 . S
C1268 H1264 0.929 . S
C1268 C1270 1.378 . S
C1268 C1272 1.350 . S
C1269 C1272 1.463 . S
C1269 C1274 1.350 . S
C1269 N1277 1.427 . S
C1270 H1261 0.930 . S
C1270 C1268 1.378 . S
C1270 C1271 1.367 . S
C1271 C1270 1.367 . S
C1271 C1273 1.433 . S
C1272 C1268 1.350 . S
C1272 C1269 1.463 . S
C1272 N1276 1.427 . S
C1273 H1263 0.929 . S
C1273 C1271 1.433 . S
C1273 N1276 1.384 . S
C1274 H1265 0.929 . S
C1274 C1266 1.378 . S
C1274 C1269 1.350 . S
C1275 H1262 0.929 . S
C1275 C1267 1.433 . S
C1275 N1277 1.384 . S
N1276 C1272 1.427 . S
N1276 C1273 1.384 . S
N1277 C1269 1.427 . S
N1277 C1275 1.384 . S
H1278 C1284 0.930 . S
H1279 C1288 0.930 . S
H1280 C1293 0.929 . S
H1281 C1291 0.929 . S
H1282 C1286 0.929 . S
H1283 C1292 0.929 . S
C1284 H1278 0.930 . S
C1284 C1285 1.367 . S
C1284 C1292 1.378 . S
C1285 C1284 1.367 . S
C1285 C1293 1.433 . S
C1286 H1282 0.929 . S
C1286 C1288 1.378 . S
C1286 C1290 1.350 . S
C1287 C1290 1.463 . S
C1287 C1292 1.350 . S
C1287 N1295 1.427 . S
C1288 H1279 0.930 . S
C1288 C1286 1.378 . S
C1288 C1289 1.367 . S
C1289 C1288 1.367 . S
C1289 C1291 1.433 . S
C1290 C1286 1.350 . S
C1290 C1287 1.463 . S
C1290 N1294 1.427 . S
C1291 H1281 0.929 . S
C1291 C1289 1.433 . S
C1291 N1294 1.384 . S
C1292 H1283 0.929 . S
C1292 C1284 1.378 . S
C1292 C1287 1.350 . S
C1293 H1280 0.929 . S
C1293 C1285 1.433 . S
C1293 N1295 1.384 . S
N1294 C1290 1.427 . S
N1294 C1291 1.384 . S
N1295 C1287 1.427 . S
N1295 C1293 1.384 . S
H1296 C1302 0.930 . S
H1297 C1306 0.930 . S
H1298 C1311 0.929 . S
H1299 C1309 0.929 . S
H1300 C1304 0.929 . S
H1301 C1310 0.929 . S
C1302 H1296 0.930 . S
C1302 C1303 1.367 . S
C1302 C1310 1.378 . S
C1303 C1302 1.367 . S
C1303 C1311 1.433 . S
C1304 H1300 0.929 . S
C1304 C1306 1.378 . S
C1304 C1308 1.350 . S
C1305 C1308 1.463 . S
C1305 C1310 1.350 . S
C1305 N1313 1.427 . S
C1306 H1297 0.930 . S
C1306 C1304 1.378 . S
C1306 C1307 1.367 . S
C1307 C1306 1.367 . S
C1307 C1309 1.433 . S
C1308 C1304 1.350 . S
C1308 C1305 1.463 . S
C1308 N1312 1.427 . S
C1309 H1299 0.929 . S
C1309 C1307 1.433 . S
C1309 N1312 1.384 . S
C1310 H1301 0.929 . S
C1310 C1302 1.378 . S
C1310 C1305 1.350 . S
C1311 H1298 0.929 . S
C1311 C1303 1.433 . S
C1311 N1313 1.384 . S
N1312 C1308 1.427 . S
N1312 C1309 1.384 . S
N1313 C1305 1.427 . S
N1313 C1311 1.384 . S
H1314 C1320 0.930 . S
H1315 C1324 0.930 . S
H1316 C1329 0.929 . S
H1317 C1327 0.929 . S
H1318 C1322 0.929 . S
H1319 C1328 0.929 . S
C1320 H1314 0.930 . S
C1320 C1321 1.367 . S
C1320 C1328 1.378 . S
C1321 C1320 1.367 . S
C1321 C1329 1.433 . S
C1322 H1318 0.929 . S
C1322 C1324 1.378 . S
C1322 C1326 1.350 . S
C1323 C1326 1.463 . S
C1323 C1328 1.350 . S
C1323 N1331 1.427 . S
C1324 H1315 0.930 . S
C1324 C1322 1.378 . S
C1324 C1325 1.367 . S
C1325 C1324 1.367 . S
C1325 C1327 1.433 . S
C1326 C1322 1.350 . S
C1326 C1323 1.463 . S
C1326 N1330 1.427 . S
C1327 H1317 0.929 . S
C1327 C1325 1.433 . S
C1327 N1330 1.384 . S
C1328 H1319 0.929 . S
C1328 C1320 1.378 . S
C1328 C1323 1.350 . S
C1329 H1316 0.929 . S
C1329 C1321 1.433 . S
C1329 N1331 1.384 . S
N1330 C1326 1.427 . S
N1330 C1327 1.384 . S
N1331 C1323 1.427 . S
N1331 C1329 1.384 . S
H1332 C1338 0.930 . S
H1333 C1342 0.930 . S
H1334 C1347 0.929 . S
H1335 C1345 0.929 . S
H1336 C1340 0.929 . S
H1337 C1346 0.929 . S
C1338 H1332 0.930 . S
C1338 C1339 1.367 . S
C1338 C1346 1.378 . S
C1339 C1338 1.367 . S
C1339 C1347 1.433 . S
C1340 H1336 0.929 . S
C1340 C1342 1.378 . S
C1340 C1344 1.350 . S
C1341 C1344 1.463 . S
C1341 C1346 1.350 . S
C1341 N1349 1.427 . S
C1342 H1333 0.930 . S
C1342 C1340 1.378 . S
C1342 C1343 1.367 . S
C1343 C1342 1.367 . S
C1343 C1345 1.433 . S
C1344 C1340 1.350 . S
C1344 C1341 1.463 . S
C1344 N1348 1.427 . S
C1345 H1335 0.929 . S
C1345 C1343 1.433 . S
C1345 N1348 1.384 . S
C1346 H1337 0.929 . S
C1346 C1338 1.378 . S
C1346 C1341 1.350 . S
C1347 H1334 0.929 . S
C1347 C1339 1.433 . S
C1347 N1349 1.384 . S
N1348 C1344 1.427 . S
N1348 C1345 1.384 . S
N1349 C1341 1.427 . S
N1349 C1347 1.384 . S
C385 C147 1.556 . S
C389 C204 1.534 . S
C403 C158 1.517 . S
C407 C224 1.497 . S
C421 C136 1.514 . S
C425 C247 1.520 . S
C439 C125 1.428 . S
C443 C227 1.431 1_556 S
C461 C244 1.434 . S
C457 C103 1.450 . S
C475 C114 1.469 . S
C479 C207 1.469 1_556 S
C497 C214 1.540 . S
C493 C131 1.564 . S
C515 C234 1.432 . S
C511 C109 1.457 . S
C529 C120 1.541 . S
C533 C239 1.564 . S
C547 C153 1.446 . S
C551 C219 1.460 . S
C565 C164 1.454 . S
C569 C254 1.432 . S
C587 C199 1.541 . S
C583 C142 1.539 . S
C605 C264 1.534 . S
C601 C15 1.556 . S
C619 C26 1.516 . S
C623 C284 1.494 . S
C637 C4 1.515 . S
C641 C307 1.520 . S
C655 C191 1.424 . S
C659 C287 1.428 . S
C673 C169 1.449 . S
C677 C304 1.428 . S
C691 C180 1.467 . S
C695 C267 1.468 . S
C709 C197 1.564 . S
C713 C274 1.541 . S
C727 C175 1.464 . S
C731 C294 1.442 . S
C749 C299 1.563 . S
C745 C186 1.550 . S
C763 C21 1.455 . S
C767 C279 1.462 . S
C785 C314 1.423 . S
C781 C32 1.448 . S
C799 C10 1.531 . S
C803 C259 1.538 . S
C821 C324 1.534 . S
C817 C81 1.556 . S
C835 C92 1.514 . S
C839 C344 1.487 . S
C857 C367 1.515 . S
C853 C70 1.508 . S
C875 C347 1.427 . S
C871 C59 1.424 . S
C893 C364 1.430 . S
C889 C37 1.449 . S
C907 C48 1.467 . S
C911 C327 1.468 . S
C925 C65 1.567 . S
C929 C334 1.543 . S
C943 C43 1.456 . S
C947 C354 1.431 . S
C965 C359 1.558 . S
C961 C54 1.539 . S
C979 C87 1.447 . S
C983 C339 1.460 . S
C997 C98 1.454 . S
C1001 C374 1.432 . S
C1015 C76 1.538 . S
C1019 C319 1.540 . S
C1033 C170 1.361 . S
C1037 C217 1.305 . S
C1055 C237 1.638 . S
C1051 C181 1.716 . S
C1069 C192 1.515 . S
C1073 C246 1.490 . S
C1087 C71 1.673 . S
C1091 C226 1.629 . S
C1105 C82 1.584 . S
C1109 C257 1.515 . S
C1127 C206 1.317 . S
C1123 C93 1.335 . S
C1141 C38 1.362 . S
C1145 C277 1.319 . S
C1159 C49 1.717 . S
C1163 C297 1.637 . S
C1177 C60 1.520 . S
C1181 C306 1.481 . S
C1195 C137 1.673 . S
C1199 C286 1.628 . S
C1217 C317 1.522 . S
C1213 C148 1.584 . S
C1231 C159 1.329 . S
C1235 C266 1.310 . S
C1249 C104 1.358 . S
C1253 C337 1.302 . S
C1267 C115 1.716 . S
C1271 C357 1.639 . S
C1289 C366 1.478 . S
C1285 C126 1.517 . S
C1303 C5 1.679 . S
C1307 C346 1.626 . S
C1321 C16 1.583 . S
C1325 C377 1.513 . S
C1339 C27 1.334 . S
C1343 C326 1.305 . S
