# Generated by pormake.
# Topology ptr, (4,4)-cn, num edge types: 1
# Building blocks:
#     Node 0, Type 0, BuildingBlock: GALJAG_clean_sbu_0, # of connection points: 4
#     Node 1, Type 0, BuildingBlock: GALJAG_clean_sbu_0, # of connection points: 4
#     Node 2, Type 0, BuildingBlock: GALJAG_clean_sbu_0, # of connection points: 4
#     Node 3, Type 0, BuildingBlock: GALJAG_clean_sbu_0, # of connection points: 4
#     Node 4, Type 0, BuildingBlock: GALJAG_clean_sbu_0, # of connection points: 4
#     Node 5, Type 0, BuildingBlock: GALJAG_clean_sbu_0, # of connection points: 4
#     Node 6, Type 0, BuildingBlock: GALJAG_clean_sbu_0, # of connection points: 4
#     Node 7, Type 0, BuildingBlock: GALJAG_clean_sbu_0, # of connection points: 4
#     Node 8, Type 0, BuildingBlock: GALJAG_clean_sbu_0, # of connection points: 4
#     Node 9, Type 0, BuildingBlock: GALJAG_clean_sbu_0, # of connection points: 4
#     Node 10, Type 0, BuildingBlock: GALJAG_clean_sbu_0, # of connection points: 4
#     Node 11, Type 0, BuildingBlock: GALJAG_clean_sbu_0, # of connection points: 4
#     Node 12, Type 0, BuildingBlock: GALJAG_clean_sbu_0, # of connection points: 4
#     Node 13, Type 0, BuildingBlock: GALJAG_clean_sbu_0, # of connection points: 4
#     Node 14, Type 0, BuildingBlock: GALJAG_clean_sbu_0, # of connection points: 4
#     Node 15, Type 0, BuildingBlock: GALJAG_clean_sbu_0, # of connection points: 4
#     Node 16, Type 0, BuildingBlock: GALJAG_clean_sbu_0, # of connection points: 4
#     Node 17, Type 0, BuildingBlock: GALJAG_clean_sbu_0, # of connection points: 4
#     Node 18, Type 1, BuildingBlock: MIFKUJ_clean_linker_1, # of connection points: 4
#     Node 19, Type 1, BuildingBlock: MIFKUJ_clean_linker_1, # of connection points: 4
#     Node 20, Type 1, BuildingBlock: MIFKUJ_clean_linker_1, # of connection points: 4
#     Node 21, Type 1, BuildingBlock: MIFKUJ_clean_linker_1, # of connection points: 4
#     Node 22, Type 1, BuildingBlock: MIFKUJ_clean_linker_1, # of connection points: 4
#     Node 23, Type 1, BuildingBlock: MIFKUJ_clean_linker_1, # of connection points: 4
#     Node 24, Type 1, BuildingBlock: MIFKUJ_clean_linker_1, # of connection points: 4
#     Node 25, Type 1, BuildingBlock: MIFKUJ_clean_linker_1, # of connection points: 4
#     Node 26, Type 1, BuildingBlock: MIFKUJ_clean_linker_1, # of connection points: 4
#     Node 27, Type 1, BuildingBlock: MIFKUJ_clean_linker_1, # of connection points: 4
#     Node 28, Type 1, BuildingBlock: MIFKUJ_clean_linker_1, # of connection points: 4
#     Node 29, Type 1, BuildingBlock: MIFKUJ_clean_linker_1, # of connection points: 4
#     Node 30, Type 1, BuildingBlock: MIFKUJ_clean_linker_1, # of connection points: 4
#     Node 31, Type 1, BuildingBlock: MIFKUJ_clean_linker_1, # of connection points: 4
#     Node 32, Type 1, BuildingBlock: MIFKUJ_clean_linker_1, # of connection points: 4
#     Node 33, Type 1, BuildingBlock: MIFKUJ_clean_linker_1, # of connection points: 4
#     Node 34, Type 1, BuildingBlock: MIFKUJ_clean_linker_1, # of connection points: 4
#     Node 35, Type 1, BuildingBlock: MIFKUJ_clean_linker_1, # of connection points: 4
#     Edge 36, Type (0, 1), BuildingBlock: AJUNOK_clean_linker_0, # of connection points: 2
#     Edge 37, Type (0, 1), BuildingBlock: AJUNOK_clean_linker_0, # of connection points: 2
#     Edge 38, Type (0, 1), BuildingBlock: AJUNOK_clean_linker_0, # of connection points: 2
#     Edge 39, Type (0, 1), BuildingBlock: AJUNOK_clean_linker_0, # of connection points: 2
#     Edge 40, Type (0, 1), BuildingBlock: AJUNOK_clean_linker_0, # of connection points: 2
#     Edge 41, Type (0, 1), BuildingBlock: AJUNOK_clean_linker_0, # of connection points: 2
#     Edge 42, Type (0, 1), BuildingBlock: AJUNOK_clean_linker_0, # of connection points: 2
#     Edge 43, Type (0, 1), BuildingBlock: AJUNOK_clean_linker_0, # of connection points: 2
#     Edge 44, Type (0, 1), BuildingBlock: AJUNOK_clean_linker_0, # of connection points: 2
#     Edge 45, Type (0, 1), BuildingBlock: AJUNOK_clean_linker_0, # of connection points: 2
#     Edge 46, Type (0, 1), BuildingBlock: AJUNOK_clean_linker_0, # of connection points: 2
#     Edge 47, Type (0, 1), BuildingBlock: AJUNOK_clean_linker_0, # of connection points: 2
#     Edge 48, Type (0, 1), BuildingBlock: AJUNOK_clean_linker_0, # of connection points: 2
#     Edge 49, Type (0, 1), BuildingBlock: AJUNOK_clean_linker_0, # of connection points: 2
#     Edge 50, Type (0, 1), BuildingBlock: AJUNOK_clean_linker_0, # of connection points: 2
#     Edge 51, Type (0, 1), BuildingBlock: AJUNOK_clean_linker_0, # of connection points: 2
#     Edge 52, Type (0, 1), BuildingBlock: AJUNOK_clean_linker_0, # of connection points: 2
#     Edge 53, Type (0, 1), BuildingBlock: AJUNOK_clean_linker_0, # of connection points: 2
#     Edge 54, Type (0, 1), BuildingBlock: AJUNOK_clean_linker_0, # of connection points: 2
#     Edge 55, Type (0, 1), BuildingBlock: AJUNOK_clean_linker_0, # of connection points: 2
#     Edge 56, Type (0, 1), BuildingBlock: AJUNOK_clean_linker_0, # of connection points: 2
#     Edge 57, Type (0, 1), BuildingBlock: AJUNOK_clean_linker_0, # of connection points: 2
#     Edge 58, Type (0, 1), BuildingBlock: AJUNOK_clean_linker_0, # of connection points: 2
#     Edge 59, Type (0, 1), BuildingBlock: AJUNOK_clean_linker_0, # of connection points: 2
#     Edge 60, Type (0, 1), BuildingBlock: AJUNOK_clean_linker_0, # of connection points: 2
#     Edge 61, Type (0, 1), BuildingBlock: AJUNOK_clean_linker_0, # of connection points: 2
#     Edge 62, Type (0, 1), BuildingBlock: AJUNOK_clean_linker_0, # of connection points: 2
#     Edge 63, Type (0, 1), BuildingBlock: AJUNOK_clean_linker_0, # of connection points: 2
#     Edge 64, Type (0, 1), BuildingBlock: AJUNOK_clean_linker_0, # of connection points: 2
#     Edge 65, Type (0, 1), BuildingBlock: AJUNOK_clean_linker_0, # of connection points: 2
#     Edge 66, Type (0, 1), BuildingBlock: AJUNOK_clean_linker_0, # of connection points: 2
#     Edge 67, Type (0, 1), BuildingBlock: AJUNOK_clean_linker_0, # of connection points: 2
#     Edge 68, Type (0, 1), BuildingBlock: AJUNOK_clean_linker_0, # of connection points: 2
#     Edge 69, Type (0, 1), BuildingBlock: AJUNOK_clean_linker_0, # of connection points: 2
#     Edge 70, Type (0, 1), BuildingBlock: AJUNOK_clean_linker_0, # of connection points: 2
#     Edge 71, Type (0, 1), BuildingBlock: AJUNOK_clean_linker_0, # of connection points: 2
#     Edge 72, Type (0, 1), BuildingBlock: AJUNOK_clean_linker_0, # of connection points: 2
#     Edge 73, Type (0, 1), BuildingBlock: AJUNOK_clean_linker_0, # of connection points: 2
#     Edge 74, Type (0, 1), BuildingBlock: AJUNOK_clean_linker_0, # of connection points: 2
#     Edge 75, Type (0, 1), BuildingBlock: AJUNOK_clean_linker_0, # of connection points: 2
#     Edge 76, Type (0, 1), BuildingBlock: AJUNOK_clean_linker_0, # of connection points: 2
#     Edge 77, Type (0, 1), BuildingBlock: AJUNOK_clean_linker_0, # of connection points: 2
#     Edge 78, Type (0, 1), BuildingBlock: AJUNOK_clean_linker_0, # of connection points: 2
#     Edge 79, Type (0, 1), BuildingBlock: AJUNOK_clean_linker_0, # of connection points: 2
#     Edge 80, Type (0, 1), BuildingBlock: AJUNOK_clean_linker_0, # of connection points: 2
#     Edge 81, Type (0, 1), BuildingBlock: AJUNOK_clean_linker_0, # of connection points: 2
#     Edge 82, Type (0, 1), BuildingBlock: AJUNOK_clean_linker_0, # of connection points: 2
#     Edge 83, Type (0, 1), BuildingBlock: AJUNOK_clean_linker_0, # of connection points: 2
#     Edge 84, Type (0, 1), BuildingBlock: AJUNOK_clean_linker_0, # of connection points: 2
#     Edge 85, Type (0, 1), BuildingBlock: AJUNOK_clean_linker_0, # of connection points: 2
#     Edge 86, Type (0, 1), BuildingBlock: AJUNOK_clean_linker_0, # of connection points: 2
#     Edge 87, Type (0, 1), BuildingBlock: AJUNOK_clean_linker_0, # of connection points: 2
#     Edge 88, Type (0, 1), BuildingBlock: AJUNOK_clean_linker_0, # of connection points: 2
#     Edge 89, Type (0, 1), BuildingBlock: AJUNOK_clean_linker_0, # of connection points: 2
#     Edge 90, Type (0, 1), BuildingBlock: AJUNOK_clean_linker_0, # of connection points: 2
#     Edge 91, Type (0, 1), BuildingBlock: AJUNOK_clean_linker_0, # of connection points: 2
#     Edge 92, Type (0, 1), BuildingBlock: AJUNOK_clean_linker_0, # of connection points: 2
#     Edge 93, Type (0, 1), BuildingBlock: AJUNOK_clean_linker_0, # of connection points: 2
#     Edge 94, Type (0, 1), BuildingBlock: AJUNOK_clean_linker_0, # of connection points: 2
#     Edge 95, Type (0, 1), BuildingBlock: AJUNOK_clean_linker_0, # of connection points: 2
#     Edge 96, Type (0, 1), BuildingBlock: AJUNOK_clean_linker_0, # of connection points: 2
#     Edge 97, Type (0, 1), BuildingBlock: AJUNOK_clean_linker_0, # of connection points: 2
#     Edge 98, Type (0, 1), BuildingBlock: AJUNOK_clean_linker_0, # of connection points: 2
#     Edge 99, Type (0, 1), BuildingBlock: AJUNOK_clean_linker_0, # of connection points: 2
#     Edge 100, Type (0, 1), BuildingBlock: AJUNOK_clean_linker_0, # of connection points: 2
#     Edge 101, Type (0, 1), BuildingBlock: AJUNOK_clean_linker_0, # of connection points: 2
#     Edge 102, Type (0, 1), BuildingBlock: AJUNOK_clean_linker_0, # of connection points: 2
#     Edge 103, Type (0, 1), BuildingBlock: AJUNOK_clean_linker_0, # of connection points: 2
#     Edge 104, Type (0, 1), BuildingBlock: AJUNOK_clean_linker_0, # of connection points: 2
#     Edge 105, Type (0, 1), BuildingBlock: AJUNOK_clean_linker_0, # of connection points: 2
#     Edge 106, Type (0, 1), BuildingBlock: AJUNOK_clean_linker_0, # of connection points: 2
#     Edge 107, Type (0, 1), BuildingBlock: AJUNOK_clean_linker_0, # of connection points: 2
# Relax obj value: 0.053
# Max RMSD: 0.081
# Mean RMSD: 0.075
data_MOF--net-ptr--node1-GALJAG_clean_sbu_0--node2-MIFKUJ_clean_linker_1--edge1-AJUNOK_clean_linker_0
_symmetry_space_group_name_H-M    P1
_symmetry_Int_Tables_number       1
_symmetry_cell_setting            triclinic
loop_
_symmetry_equiv_pos_as_xyz
'x, y, z'
_cell_length_a     69.159454
_cell_length_b     69.234575
_cell_length_c     50.328915
_cell_angle_alpha  89.980348
_cell_angle_beta   89.994695
_cell_angle_gamma 120.1207
loop_
_atom_site_label
_atom_site_type_symbol
_atom_site_fract_x
_atom_site_fract_y
_atom_site_fract_z
_atom_type_partial_charge
In0 In 0.00359 0.35547 0.02022 0.0
O1 O 0.98131 0.36214 0.04818 0.0
O2 O 0.01611 0.37827 0.05636 0.0
C3 C 0.97319 0.3166 0.99734 0.0
C4 C 0.03356 0.34532 0.0404 0.0
C5 C 0.01082 0.38497 0.98079 0.0
O6 O 0.96991 0.3228 0.01967 0.0
O7 O 0.99185 0.32982 0.98697 0.0
O8 O 0.02442 0.37831 0.98579 0.0
O9 O 0.99412 0.37715 0.99602 0.0
C10 C 0.99723 0.37518 0.06311 0.0
O11 O 0.03923 0.36225 0.02588 0.0
O12 O 0.01276 0.33332 0.04411 0.0
In13 In 0.6511 0.65022 0.02029 0.0
O14 O 0.64868 0.62788 0.05511 0.0
O15 O 0.62049 0.63134 0.04656 0.0
C16 C 0.69082 0.66 0.99894 0.0
C17 C 0.65971 0.68893 0.04332 0.0
C18 C 0.62418 0.62858 0.97858 0.0
O19 O 0.68034 0.64401 0.01495 0.0
O20 O 0.68141 0.6712 0.99415 0.0
O21 O 0.62776 0.64747 0.98625 0.0
O22 O 0.634 0.62073 0.99209 0.0
C23 C 0.62897 0.62277 0.06127 0.0
O24 O 0.64766 0.68134 0.02281 0.0
O25 O 0.66754 0.67711 0.05187 0.0
In26 In 0.35654 0.00266 0.017 0.0
O27 O 0.36488 0.03873 0.01089 0.0
O28 O 0.33368 0.0128 0.99634 0.0
C29 C 0.38468 0.00634 0.05661 0.0
C30 C 0.37637 0.99867 0.97274 0.0
C31 C 0.31762 0.97226 0.03936 0.0
O32 O 0.37879 0.02072 0.05296 0.0
O33 O 0.37672 0.99059 0.04001 0.0
O34 O 0.32427 0.96879 0.01741 0.0
O35 O 0.33049 0.99109 0.04962 0.0
C36 C 0.34696 0.0335 0.99865 0.0
O37 O 0.36025 0.98188 0.98372 0.0
O38 O 0.38237 0.01696 0.98428 0.0
In39 In 1.00167 0.64861 0.0215 0.0
O40 O 0.02214 0.6445 0.9882 0.0
O41 O 0.9898 0.61734 0.99689 0.0
C42 C 0.0309 0.6879 0.04402 0.0
C43 C 0.9725 0.65851 0.99837 0.0
C44 C 0.99618 0.6221 0.06337 0.0
O45 O 0.03637 0.67985 0.02479 0.0
O46 O 0.01067 0.67654 0.05093 0.0
O47 O 0.97972 0.62092 0.05096 0.0
O48 O 0.0151 0.63622 0.05437 0.0
C49 C 0.00706 0.62478 0.98262 0.0
O50 O 0.96848 0.64843 0.02038 0.0
O51 O 0.99124 0.66378 0.98843 0.0
In52 In 0.3569 0.35606 0.01957 0.0
O53 O 0.36016 0.37815 0.98358 0.0
O54 O 0.38751 0.37373 0.99341 0.0
C55 C 0.31755 0.34695 0.04127 0.0
C56 C 0.34779 0.31674 0.99796 0.0
C57 C 0.38278 0.37762 0.06201 0.0
O58 O 0.32737 0.36207 0.02393 0.0
O59 O 0.32752 0.33648 0.04724 0.0
O60 O 0.37766 0.35788 0.05606 0.0
O61 O 0.37491 0.38628 0.04651 0.0
C62 C 0.3798 0.38255 0.978 0.0
O63 O 0.36474 0.3281 0.01239 0.0
O64 O 0.33536 0.32504 0.99474 0.0
In65 In 0.65146 0.00272 0.02108 0.0
O66 O 0.6475 0.02571 0.05092 0.0
O67 O 0.626 0.99073 0.05461 0.0
C68 C 0.69102 0.03156 0.9988 0.0
C69 C 0.6602 0.97178 0.04098 0.0
C70 C 0.62509 0.99906 0.97953 0.0
O71 O 0.68467 0.03558 0.02065 0.0
O72 O 0.67766 0.01275 0.98879 0.0
O73 O 0.62731 0.98286 0.98702 0.0
O74 O 0.63534 0.01638 0.99353 0.0
C75 C 0.63166 0.00985 0.06341 0.0
O76 O 0.64235 0.9666 0.02859 0.0
O77 O 0.67375 0.99247 0.04283 0.0
In78 In 0.67056 0.68979 0.35473 0.0
O79 O 0.6474 0.69515 0.38273 0.0
O80 O 0.68215 0.71199 0.3914 0.0
C81 C 0.64161 0.65146 0.32969 0.0
C82 C 0.70086 0.68005 0.37462 0.0
C83 C 0.67726 0.72001 0.3165 0.0
O84 O 0.63748 0.65649 0.35231 0.0
O85 O 0.66039 0.66549 0.32028 0.0
O86 O 0.69144 0.71406 0.32134 0.0
O87 O 0.66029 0.71113 0.33131 0.0
C88 C 0.66302 0.70833 0.39792 0.0
O89 O 0.70635 0.6971 0.36039 0.0
O90 O 0.68008 0.66779 0.3783 0.0
In91 In 0.3153 0.98052 0.35157 0.0
O92 O 0.31677 0.96592 0.3923 0.0
O93 O 0.2857 0.9518 0.37216 0.0
C94 C 0.35485 0.98929 0.33076 0.0
C95 C 0.31847 0.0175 0.37392 0.0
C96 C 0.29063 0.96235 0.30729 0.0
O97 O 0.34287 0.97204 0.34449 0.0
O98 O 0.34709 1.00222 0.32798 0.0
O99 O 0.29473 0.98119 0.31593 0.0
O100 O 0.29908 0.95316 0.32086 0.0
C101 C 0.29622 0.95147 0.39238 0.0
O102 O 0.30053 0.00233 0.36381 0.0
O103 O 0.33479 0.01422 0.37217 0.0
In104 In 0.02385 0.33632 0.35318 0.0
O105 O 0.03385 0.3727 0.34677 0.0
O106 O 1.00228 0.34782 0.33177 0.0
C107 C 0.05178 0.34073 0.39328 0.0
C108 C 0.04388 0.33236 0.30909 0.0
C109 C 0.98471 0.30545 0.37502 0.0
O110 O 0.04313 0.35296 0.39134 0.0
O111 O 0.04673 0.32675 0.37475 0.0
O112 O 0.99174 0.30206 0.35329 0.0
O113 O 0.99721 0.3244 0.38514 0.0
C114 C 0.01647 0.36833 0.33386 0.0
O115 O 0.02782 0.31548 0.32009 0.0
O116 O 0.04974 0.35063 0.32059 0.0
In117 In 0.66904 0.98199 0.35353 0.0
O118 O 0.69035 0.98042 0.31949 0.0
O119 O 0.66077 0.95066 0.3301 0.0
C120 C 0.70081 0.02106 0.37405 0.0
C121 C 0.64015 0.99174 0.32911 0.0
C122 C 0.65972 0.95613 0.39746 0.0
O123 O 0.70519 0.00714 0.36348 0.0
O124 O 0.68045 0.01569 0.37336 0.0
O125 O 0.64511 0.95225 0.37998 0.0
O126 O 0.67859 0.97281 0.39276 0.0
C127 C 0.67741 0.95995 0.31482 0.0
O128 O 0.63586 0.98199 0.35139 0.0
O129 O 0.65904 0.99686 0.31977 0.0
In130 In 0.02479 0.68924 0.35282 0.0
O131 O 0.02834 0.71401 0.31994 0.0
O132 O 0.05568 0.70903 0.3276 0.0
C133 C 0.98535 0.67843 0.37555 0.0
C134 C 0.01577 0.6501 0.33029 0.0
C135 C 0.05138 0.71101 0.39445 0.0
O136 O 0.99251 0.69082 0.35521 0.0
O137 O 0.99766 0.67098 0.38356 0.0
O138 O 0.05315 0.69623 0.38175 0.0
O139 O 0.03655 0.71495 0.38597 0.0
C140 C 0.04802 0.71887 0.31386 0.0
O141 O 0.02683 0.65721 0.35155 0.0
O142 O 0.00897 0.6625 0.32087 0.0
In143 In 0.31696 0.3362 0.35432 0.0
O144 O 0.31266 0.30129 0.35743 0.0
O145 O 0.33498 0.3265 0.38421 0.0
C146 C 0.28775 0.32994 0.31486 0.0
C147 C 0.29645 0.3399 0.39781 0.0
C148 C 0.35598 0.36794 0.33319 0.0
O149 O 0.29763 0.31879 0.31594 0.0
O150 O 0.29262 0.34378 0.33343 0.0
O151 O 0.34332 0.37267 0.34621 0.0
O152 O 0.34913 0.34737 0.33113 0.0
C153 C 0.3259 0.30636 0.37696 0.0
O154 O 0.31427 0.35624 0.38886 0.0
O155 O 0.28918 0.322 0.38478 0.0
In156 In 0.3381 0.02304 0.68668 0.0
O157 O 0.37183 0.02427 0.68698 0.0
O158 O 0.34979 0.00873 0.71948 0.0
C159 C 0.34351 0.05049 0.64579 0.0
C160 C 0.33058 0.04476 0.72643 0.0
C161 C 0.30969 0.9835 0.6639 0.0
O162 O 0.35986 0.05231 0.65903 0.0
O163 O 0.32463 0.03501 0.65322 0.0
O164 O 0.30383 0.99137 0.68294 0.0
O165 O 0.32992 0.99524 0.65718 0.0
C166 C 0.36848 0.01443 0.70907 0.0
O167 O 0.31629 0.02501 0.71985 0.0
O168 O 0.34818 0.05339 0.71266 0.0
In169 In 0.98314 0.31584 0.68682 0.0
O170 O 0.9783 0.3462 0.68903 0.0
O171 O 0.99903 0.34319 0.71793 0.0
C172 C 0.95632 0.293 0.64548 0.0
C173 C 0.96163 0.28854 0.72815 0.0
C174 C 0.02302 0.32574 0.66568 0.0
O175 O 0.95983 0.31211 0.65214 0.0
O176 O 0.96624 0.28569 0.65971 0.0
O177 O 0.01263 0.30996 0.68196 0.0
O178 O 0.01349 0.33677 0.66051 0.0
C179 C 0.99039 0.35429 0.70943 0.0
O180 O 0.9817 0.29468 0.72247 0.0
O181 O 0.9525 0.29604 0.71282 0.0
In182 In 0.69117 0.67024 0.68373 0.0
O183 O 0.70171 0.7068 0.67729 0.0
O184 O 0.67088 0.68201 0.66027 0.0
C185 C 0.71891 0.67602 0.72484 0.0
C186 C 0.70958 0.66475 0.63905 0.0
C187 C 0.65193 0.6388 0.70484 0.0
O188 O 0.70781 0.68594 0.72385 0.0
O189 O 0.71628 0.66382 0.70508 0.0
O190 O 0.66474 0.63385 0.69241 0.0
O191 O 0.65871 0.65941 0.70608 0.0
C192 C 0.68486 0.70252 0.66324 0.0
O193 O 0.69181 0.64895 0.64887 0.0
O194 O 0.71767 0.68286 0.6517 0.0
In195 In 0.33866 0.31619 0.68487 0.0
O196 O 0.35737 0.31413 0.64841 0.0
O197 O 0.32705 0.28513 0.65947 0.0
C198 C 0.37063 0.35537 0.7056 0.0
C199 C 0.30798 0.32442 0.66287 0.0
C200 C 0.33197 0.28915 0.72693 0.0
O201 O 0.37506 0.34212 0.69351 0.0
O202 O 0.35016 0.34933 0.70634 0.0
O203 O 0.31723 0.29352 0.7191 0.0
O204 O 0.34969 0.29823 0.71341 0.0
C205 C 0.34326 0.29396 0.64344 0.0
O206 O 0.30472 0.31433 0.68481 0.0
O207 O 0.32679 0.33059 0.6524 0.0
In208 In 0.69206 0.02454 0.68558 0.0
O209 O 0.69116 0.03422 0.64208 0.0
O210 O 0.71404 0.05938 0.66785 0.0
C211 C 0.6531 0.01484 0.70896 0.0
C212 C 0.68835 0.9865 0.6655 0.0
C213 C 0.72039 0.04241 0.72718 0.0
O214 O 0.66022 0.02701 0.68844 0.0
O215 O 0.66517 0.00707 0.71678 0.0
O216 O 0.72282 0.03056 0.70989 0.0
O217 O 0.70391 0.04511 0.7234 0.0
C218 C 0.70678 0.05411 0.6445 0.0
O219 O 0.70697 0.00376 0.66989 0.0
O220 O 0.6717 0.98813 0.67232 0.0
In221 In 0.98414 0.66943 0.68587 0.0
O222 O 0.98022 0.63459 0.68956 0.0
O223 O 0.99938 0.65908 0.71869 0.0
C224 C 0.9566 0.66307 0.64474 0.0
C225 C 0.96014 0.67285 0.72568 0.0
C226 C 0.02334 0.70173 0.66561 0.0
O227 O 0.96512 0.65076 0.6479 0.0
O228 O 0.96243 0.67838 0.66168 0.0
O229 O 0.01009 0.70608 0.67792 0.0
O230 O 0.01702 0.68125 0.66393 0.0
C231 C 0.99149 0.63923 0.71081 0.0
O232 O 0.98079 0.68672 0.72306 0.0
O233 O 0.95203 0.65744 0.7086 0.0
H234 H 0.15518 0.36036 0.21036 0.0
H235 H 0.12744 0.3605 0.24013 0.0
H236 H 0.07588 0.30015 0.20341 0.0
H237 H 0.10399 0.29971 0.1739 0.0
H238 H 0.16771 0.33042 0.20872 0.0
H239 H 0.13846 0.36122 0.14665 0.0
H240 H 0.11039 0.36425 0.12019 0.0
H241 H 0.09205 0.30148 0.08215 0.0
H242 H 0.12001 0.29834 0.10894 0.0
H243 H 0.18358 0.2982 0.10976 0.0
H244 H 0.21499 0.30182 0.08308 0.0
H245 H 0.25845 0.3659 0.11912 0.0
H246 H 0.22708 0.36233 0.14555 0.0
H247 H 0.16554 0.32658 0.11031 0.0
H248 H 0.19424 0.29598 0.18109 0.0
H249 H 0.21997 0.29529 0.2143 0.0
H250 H 0.24198 0.36392 0.2343 0.0
H251 H 0.21571 0.36419 0.202 0.0
C252 C 0.13168 0.33011 0.18977 0.0
C253 C 0.13788 0.34724 0.20849 0.0
C254 C 0.12197 0.34741 0.22536 0.0
C255 C 0.09943 0.33049 0.22385 0.0
C256 C 0.09313 0.31343 0.20492 0.0
C257 C 0.10912 0.31327 0.18794 0.0
C258 C 0.14923 0.32919 0.17369 0.0
C259 C 0.16724 0.32973 0.18717 0.0
C260 C 0.14851 0.32789 0.14561 0.0
C261 C 0.13109 0.32938 0.13004 0.0
C262 C 0.12822 0.34797 0.13285 0.0
C263 C 0.11234 0.34979 0.11759 0.0
C264 C 0.09899 0.33303 0.09928 0.0
C265 C 0.10192 0.31447 0.0964 0.0
C266 C 0.11793 0.31272 0.11157 0.0
C267 C 0.20308 0.32982 0.12994 0.0
C268 C 0.19991 0.31296 0.11199 0.0
C269 C 0.21782 0.31501 0.09686 0.0
C270 C 0.23913 0.33408 0.09922 0.0
C271 C 0.24219 0.35105 0.11694 0.0
C272 C 0.22435 0.34892 0.13221 0.0
C273 C 0.18405 0.32808 0.14545 0.0
C274 C 0.16575 0.32695 0.13186 0.0
C275 C 0.18465 0.32932 0.17345 0.0
C276 C 0.20302 0.33009 0.18932 0.0
C277 C 0.20493 0.31096 0.19234 0.0
C278 C 0.21959 0.31058 0.21128 0.0
C279 C 0.23252 0.32936 0.22735 0.0
C280 C 0.23171 0.34899 0.22277 0.0
C281 C 0.2169 0.34925 0.20418 0.0
H282 H 0.72158 0.89212 0.20572 0.0
H283 H 0.7201 0.91777 0.238 0.0
H284 H 0.65316 0.89804 0.21218 0.0
H285 H 0.65453 0.87203 0.18024 0.0
H286 H 0.69421 0.84782 0.20835 0.0
H287 H 0.70912 0.90568 0.14655 0.0
H288 H 0.70347 0.93251 0.12145 0.0
H289 H 0.6456 0.87826 0.08354 0.0
H290 H 0.64987 0.85159 0.11082 0.0
H291 H 0.64663 0.79548 0.1182 0.0
H292 H 0.64117 0.76309 0.09268 0.0
H293 H 0.70745 0.77731 0.11461 0.0
H294 H 0.71256 0.80939 0.14078 0.0
H295 H 0.67731 0.83915 0.11201 0.0
H296 H 0.65552 0.78362 0.17901 0.0
H297 H 0.65374 0.7564 0.21134 0.0
H298 H 0.71967 0.80433 0.2395 0.0
H299 H 0.72172 0.83137 0.20654 0.0
C300 C 0.68823 0.88027 0.19044 0.0
C301 C 0.70674 0.89363 0.20667 0.0
C302 C 0.70594 0.90837 0.22498 0.0
C303 C 0.68656 0.90997 0.22747 0.0
C304 C 0.6683 0.89711 0.21063 0.0
C305 C 0.66913 0.8824 0.19226 0.0
C306 C 0.68798 0.86238 0.17397 0.0
C307 C 0.69104 0.84623 0.18712 0.0
C308 C 0.68288 0.85988 0.14647 0.0
C309 C 0.67977 0.87649 0.13099 0.0
C310 C 0.6949 0.89951 0.13331 0.0
C311 C 0.69196 0.91488 0.11838 0.0
C312 C 0.67433 0.90758 0.09999 0.0
C313 C 0.65931 0.88453 0.09756 0.0
C314 C 0.66189 0.86921 0.11301 0.0
C315 C 0.67999 0.80483 0.13139 0.0
C316 C 0.66001 0.79166 0.11743 0.0
C317 C 0.65698 0.77326 0.10269 0.0
C318 C 0.67404 0.76788 0.10125 0.0
C319 C 0.694 0.78103 0.11538 0.0
C320 C 0.69694 0.79934 0.13033 0.0
C321 C 0.68314 0.82455 0.14658 0.0
C322 C 0.68076 0.84103 0.13317 0.0
C323 C 0.68837 0.82719 0.17395 0.0
C324 C 0.6888 0.80953 0.19024 0.0
C325 C 0.66989 0.78808 0.19153 0.0
C326 C 0.66876 0.77263 0.21024 0.0
C327 C 0.68642 0.77845 0.2282 0.0
C328 C 0.70584 0.79945 0.2259 0.0
C329 C 0.70698 0.81489 0.20715 0.0
H330 H 0.11639 0.83177 0.20573 0.0
H331 H 0.09144 0.80464 0.23874 0.0
H332 H 0.10783 0.75624 0.2086 0.0
H333 H 0.13332 0.78355 0.17635 0.0
H334 H 0.16002 0.84868 0.20523 0.0
H335 H 0.102 0.8098 0.13977 0.0
H336 H 0.07375 0.77753 0.11496 0.0
H337 H 0.12414 0.76167 0.09086 0.0
H338 H 0.15244 0.79435 0.11509 0.0
H339 H 0.21021 0.8519 0.11285 0.0
H340 H 0.24236 0.87888 0.08681 0.0
H341 H 0.22877 0.93102 0.10979 0.0
H342 H 0.19684 0.90402 0.13626 0.0
H343 H 0.16652 0.83802 0.10893 0.0
H344 H 0.22406 0.87473 0.17268 0.0
H345 H 0.2527 0.90237 0.20202 0.0
H346 H 0.20465 0.91884 0.23346 0.0
H347 H 0.17631 0.89193 0.20314 0.0
C348 C 0.12672 0.80973 0.18847 0.0
C349 C 0.11437 0.81521 0.20599 0.0
C350 C 0.10006 0.79969 0.22476 0.0
C351 C 0.09799 0.77849 0.22645 0.0
C352 C 0.10943 0.77262 0.208 0.0
C353 C 0.12378 0.78814 0.18932 0.0
C354 C 0.1445 0.82724 0.17154 0.0
C355 C 0.16111 0.84667 0.184 0.0
C356 C 0.14649 0.82411 0.1441 0.0
C357 C 0.12926 0.80434 0.12948 0.0
C358 C 0.10692 0.79929 0.12927 0.0
C359 C 0.09079 0.7808 0.11518 0.0
C360 C 0.09668 0.76687 0.10127 0.0
C361 C 0.11913 0.77213 0.1013 0.0
C362 C 0.13527 0.79073 0.1152 0.0
C363 C 0.20118 0.87596 0.12657 0.0
C364 C 0.21407 0.86911 0.11213 0.0
C365 C 0.23234 0.88451 0.09712 0.0
C366 C 0.2379 0.907 0.09597 0.0
C367 C 0.22491 0.9138 0.11037 0.0
C368 C 0.20669 0.89842 0.12549 0.0
C369 C 0.18194 0.85954 0.14264 0.0
C370 C 0.16516 0.8403 0.13004 0.0
C371 C 0.17995 0.86274 0.17006 0.0
C372 C 0.19804 0.8814 0.18542 0.0
C373 C 0.21985 0.88482 0.18518 0.0
C374 C 0.23617 0.90048 0.20217 0.0
C375 C 0.23097 0.91287 0.21996 0.0
C376 C 0.20933 0.90993 0.21961 0.0
C377 C 0.19305 0.89437 0.20247 0.0
H378 H 0.28822 0.1753 0.832 0.0
H379 H 0.29001 0.20317 0.80073 0.0
H380 H 0.35485 0.25136 0.83165 0.0
H381 H 0.35333 0.22314 0.86232 0.0
H382 H 0.31604 0.15938 0.83123 0.0
H383 H 0.29846 0.20118 0.8925 0.0
H384 H 0.30419 0.23392 0.91709 0.0
H385 H 0.36034 0.2362 0.9578 0.0
H386 H 0.35613 0.20509 0.93097 0.0
H387 H 0.3564 0.15371 0.93039 0.0
H388 H 0.36049 0.12692 0.95759 0.0
H389 H 0.30377 0.07279 0.91786 0.0
H390 H 0.29828 0.09974 0.8927 0.0
H391 H 0.32794 0.16519 0.92856 0.0
H392 H 0.35305 0.13269 0.86134 0.0
H393 H 0.35422 0.10619 0.83003 0.0
H394 H 0.28891 0.08932 0.80074 0.0
H395 H 0.28755 0.11532 0.83251 0.0
C396 C 0.32057 0.19716 0.84963 0.0
C397 C 0.30268 0.19197 0.83232 0.0
C398 C 0.30362 0.20797 0.81463 0.0
C399 C 0.32247 0.22951 0.81392 0.0
C400 C 0.3401 0.23488 0.83179 0.0
C401 C 0.33919 0.21884 0.84944 0.0
C402 C 0.32058 0.1793 0.86597 0.0
C403 C 0.3183 0.16048 0.85262 0.0
C404 C 0.32432 0.1812 0.89377 0.0
C405 C 0.32704 0.20071 0.90943 0.0
C406 C 0.3123 0.20896 0.90629 0.0
C407 C 0.31528 0.22744 0.92092 0.0
C408 C 0.33251 0.23754 0.93988 0.0
C409 C 0.34699 0.229 0.94329 0.0
C410 C 0.34442 0.21097 0.92812 0.0
C411 C 0.32708 0.12888 0.90925 0.0
C412 C 0.34457 0.13608 0.92778 0.0
C413 C 0.34706 0.1207 0.94319 0.0
C414 C 0.33234 0.09765 0.94019 0.0
C415 C 0.31504 0.09041 0.92133 0.0
C416 C 0.31219 0.10585 0.9064 0.0
C417 C 0.32428 0.14563 0.89366 0.0
C418 C 0.32573 0.16412 0.90718 0.0
C419 C 0.32043 0.14381 0.86589 0.0
C420 C 0.32012 0.12585 0.84945 0.0
C421 C 0.33874 0.12285 0.84868 0.0
C422 C 0.33946 0.10784 0.83066 0.0
C423 C 0.3216 0.09559 0.81305 0.0
C424 C 0.30273 0.09816 0.81439 0.0
C425 C 0.30201 0.11315 0.8324 0.0
H426 H 0.82898 0.10635 0.8459 0.0
H427 H 0.80207 0.07868 0.81478 0.0
H428 H 0.76303 0.11163 0.81789 0.0
H429 H 0.78917 0.13815 0.85025 0.0
H430 H 0.84938 0.15705 0.83255 0.0
H431 H 0.81079 0.10069 0.89982 0.0
H432 H 0.77909 0.07324 0.9262 0.0
H433 H 0.76323 0.12409 0.94779 0.0
H434 H 0.79508 0.15152 0.92167 0.0
H435 H 0.85238 0.20918 0.92388 0.0
H436 H 0.8794 0.24152 0.94961 0.0
H437 H 0.93195 0.22886 0.9254 0.0
H438 H 0.90491 0.19673 0.89933 0.0
H439 H 0.83882 0.16607 0.92826 0.0
H440 H 0.8718 0.22094 0.86097 0.0
H441 H 0.89806 0.24922 0.82999 0.0
H442 H 0.92008 0.20387 0.80436 0.0
H443 H 0.89408 0.17575 0.83573 0.0
C444 C 0.81093 0.12414 0.8504 0.0
C445 C 0.81436 0.10726 0.84018 0.0
C446 C 0.79914 0.09168 0.82211 0.0
C447 C 0.78061 0.09319 0.81331 0.0
C448 C 0.77699 0.10983 0.82429 0.0
C449 C 0.79193 0.12505 0.84276 0.0
C450 C 0.82831 0.14235 0.86667 0.0
C451 C 0.84743 0.1588 0.85366 0.0
C452 C 0.82505 0.14504 0.89381 0.0
C453 C 0.80523 0.12812 0.90867 0.0
C454 C 0.80036 0.10587 0.91003 0.0
C455 C 0.78232 0.09024 0.92519 0.0
C456 C 0.7689 0.09661 0.93937 0.0
C457 C 0.77362 0.11883 0.93764 0.0
C458 C 0.79169 0.13446 0.92256 0.0
C459 C 0.87663 0.20058 0.90958 0.0
C460 C 0.8697 0.21331 0.9242 0.0
C461 C 0.88513 0.2317 0.93904 0.0
C462 C 0.90774 0.23754 0.93982 0.0
C463 C 0.91465 0.22479 0.92511 0.0
C464 C 0.89923 0.20647 0.91018 0.0
C465 C 0.86012 0.18087 0.89418 0.0
C466 C 0.84108 0.1642 0.90727 0.0
C467 C 0.86318 0.17823 0.8669 0.0
C468 C 0.88114 0.1963 0.85085 0.0
C469 C 0.88271 0.2173 0.84924 0.0
C470 C 0.89757 0.23337 0.8314 0.0
C471 C 0.91114 0.22874 0.81489 0.0
C472 C 0.91008 0.20801 0.81716 0.0
C473 C 0.89516 0.1919 0.83494 0.0
H474 H 0.79132 0.64047 0.83467 0.0
H475 H 0.76489 0.64136 0.80319 0.0
H476 H 0.7851 0.70865 0.82787 0.0
H477 H 0.81096 0.70727 0.86018 0.0
H478 H 0.83785 0.67242 0.83025 0.0
H479 H 0.77883 0.64248 0.89362 0.0
H480 H 0.74802 0.63993 0.92027 0.0
H481 H 0.79298 0.70377 0.95592 0.0
H482 H 0.82384 0.70638 0.92899 0.0
H483 H 0.88349 0.70328 0.93307 0.0
H484 H 0.91151 0.70019 0.95985 0.0
H485 H 0.89905 0.64187 0.91524 0.0
H486 H 0.87039 0.64422 0.88943 0.0
H487 H 0.84072 0.67735 0.92858 0.0
H488 H 0.89959 0.70717 0.85736 0.0
H489 H 0.92593 0.70756 0.82425 0.0
H490 H 0.87844 0.63908 0.80413 0.0
H491 H 0.85194 0.63921 0.83613 0.0
C492 C 0.80303 0.67378 0.84972 0.0
C493 C 0.78966 0.65521 0.83372 0.0
C494 C 0.77469 0.65581 0.81565 0.0
C495 C 0.77301 0.67513 0.81291 0.0
C496 C 0.78575 0.69341 0.82978 0.0
C497 C 0.80058 0.69268 0.84817 0.0
C498 C 0.8213 0.67425 0.86552 0.0
C499 C 0.83844 0.67339 0.85179 0.0
C500 C 0.8222 0.67588 0.89349 0.0
C501 C 0.80353 0.67478 0.90907 0.0
C502 C 0.78201 0.65606 0.90693 0.0
C503 C 0.76449 0.65452 0.92229 0.0
C504 C 0.76817 0.67171 0.93998 0.0
C505 C 0.78971 0.69044 0.94216 0.0
C506 C 0.8073 0.6919 0.92691 0.0
C507 C 0.87514 0.67431 0.90874 0.0
C508 C 0.88675 0.6898 0.92906 0.0
C509 C 0.9027 0.68805 0.94434 0.0
C510 C 0.90738 0.67086 0.93941 0.0
C511 C 0.89584 0.6554 0.91915 0.0
C512 C 0.87965 0.65692 0.90421 0.0
C513 C 0.85748 0.67554 0.89328 0.0
C514 C 0.84042 0.67679 0.90704 0.0
C515 C 0.85646 0.674 0.86524 0.0
C516 C 0.87383 0.67321 0.84896 0.0
C517 C 0.89506 0.6922 0.84601 0.0
C518 C 0.91005 0.69239 0.82714 0.0
C519 C 0.90397 0.67355 0.81111 0.0
C520 C 0.88328 0.6541 0.81553 0.0
C521 C 0.86822 0.65405 0.83397 0.0
H522 H 0.82131 0.69004 0.54441 0.0
H523 H 0.79312 0.68964 0.57372 0.0
H524 H 0.74149 0.63323 0.53087 0.0
H525 H 0.77009 0.633 0.50221 0.0
H526 H 0.83293 0.66025 0.54054 0.0
H527 H 0.80629 0.69443 0.47913 0.0
H528 H 0.77837 0.69813 0.45312 0.0
H529 H 0.76014 0.63623 0.41291 0.0
H530 H 0.78796 0.63244 0.4392 0.0
H531 H 0.85057 0.63459 0.43625 0.0
H532 H 0.88255 0.63822 0.41077 0.0
H533 H 0.92732 0.69482 0.45873 0.0
H534 H 0.89549 0.69186 0.48337 0.0
H535 H 0.83383 0.66084 0.44207 0.0
H536 H 0.86288 0.62849 0.51018 0.0
H537 H 0.88884 0.62753 0.54296 0.0
H538 H 0.90552 0.6933 0.56999 0.0
H539 H 0.87915 0.69379 0.53815 0.0
C540 C 0.7979 0.66155 0.52108 0.0
C541 C 0.80393 0.67756 0.54125 0.0
C542 C 0.78775 0.67741 0.5579 0.0
C543 C 0.76506 0.66129 0.55478 0.0
C544 C 0.75887 0.64561 0.53409 0.0
C545 C 0.77518 0.64566 0.51747 0.0
C546 C 0.81569 0.66085 0.50521 0.0
C547 C 0.83314 0.66051 0.51898 0.0
C548 C 0.81587 0.6608 0.4771 0.0
C549 C 0.79896 0.66299 0.46135 0.0
C550 C 0.79616 0.68157 0.46487 0.0
C551 C 0.78036 0.68375 0.44989 0.0
C552 C 0.76703 0.66737 0.4312 0.0
C553 C 0.77 0.64891 0.42747 0.0
C554 C 0.78593 0.6468 0.44235 0.0
C555 C 0.87061 0.66256 0.46228 0.0
C556 C 0.86726 0.64781 0.44126 0.0
C557 C 0.88546 0.64988 0.42672 0.0
C558 C 0.9073 0.66659 0.43312 0.0
C559 C 0.91063 0.68154 0.4538 0.0
C560 C 0.89245 0.6797 0.46803 0.0
C561 C 0.85127 0.66062 0.4775 0.0
C562 C 0.83344 0.66028 0.46361 0.0
C563 C 0.85095 0.6606 0.5056 0.0
C564 C 0.86897 0.66111 0.52202 0.0
C565 C 0.87239 0.64277 0.52298 0.0
C566 C 0.88719 0.64225 0.54164 0.0
C567 C 0.89871 0.66009 0.55947 0.0
C568 C 0.89633 0.67902 0.55708 0.0
C569 C 0.88141 0.6794 0.53879 0.0
H570 H 0.38234 0.22088 0.53661 0.0
H571 H 0.38214 0.24787 0.56788 0.0
H572 H 0.31633 0.23109 0.54066 0.0
H573 H 0.31633 0.20373 0.50989 0.0
H574 H 0.35426 0.1771 0.53931 0.0
H575 H 0.37449 0.23258 0.471 0.0
H576 H 0.37153 0.26118 0.44576 0.0
H577 H 0.30369 0.21259 0.42423 0.0
H578 H 0.307 0.18387 0.4489 0.0
H579 H 0.30559 0.12652 0.44576 0.0
H580 H 0.29956 0.09446 0.41928 0.0
H581 H 0.36025 0.10022 0.45119 0.0
H582 H 0.3673 0.13352 0.47553 0.0
H583 H 0.3351 0.16747 0.44347 0.0
H584 H 0.31121 0.11876 0.52555 0.0
H585 H 0.31171 0.09313 0.55862 0.0
H586 H 0.38391 0.12775 0.55434 0.0
H587 H 0.38319 0.15434 0.52289 0.0
C588 C 0.34944 0.2104 0.52073 0.0
C589 C 0.36804 0.22331 0.53702 0.0
C590 C 0.36798 0.23883 0.55475 0.0
C591 C 0.34927 0.24165 0.55656 0.0
C592 C 0.33097 0.22924 0.53963 0.0
C593 C 0.33105 0.21376 0.52189 0.0
C594 C 0.34817 0.19172 0.50484 0.0
C595 C 0.35055 0.17526 0.51819 0.0
C596 C 0.34263 0.1889 0.47752 0.0
C597 C 0.34088 0.20617 0.46205 0.0
C598 C 0.35897 0.22812 0.46091 0.0
C599 C 0.35721 0.24446 0.44659 0.0
C600 C 0.33724 0.23921 0.43338 0.0
C601 C 0.3193 0.21711 0.43415 0.0
C602 C 0.32114 0.20072 0.44828 0.0
C603 C 0.33666 0.13226 0.46325 0.0
C604 C 0.31763 0.12091 0.44706 0.0
C605 C 0.31402 0.10233 0.43218 0.0
C606 C 0.32916 0.09441 0.43351 0.0
C607 C 0.34821 0.10581 0.44971 0.0
C608 C 0.35205 0.12466 0.46412 0.0
C609 C 0.34089 0.15263 0.47806 0.0
C610 C 0.33907 0.16943 0.4645 0.0
C611 C 0.3468 0.15575 0.50528 0.0
C612 C 0.34715 0.13829 0.52177 0.0
C613 C 0.3271 0.12064 0.53162 0.0
C614 C 0.32745 0.106 0.55048 0.0
C615 C 0.34789 0.1086 0.55959 0.0
C616 C 0.36791 0.12571 0.54857 0.0
C617 C 0.36755 0.1407 0.53026 0.0
H618 H 0.78199 0.16672 0.53635 0.0
H619 H 0.75373 0.14065 0.56751 0.0
H620 H 0.76842 0.08944 0.54388 0.0
H621 H 0.79677 0.11558 0.51282 0.0
H622 H 0.82546 0.18073 0.53994 0.0
H623 H 0.76723 0.13837 0.47608 0.0
H624 H 0.7404 0.10515 0.45154 0.0
H625 H 0.79481 0.09879 0.4192 0.0
H626 H 0.82129 0.13063 0.4455 0.0
H627 H 0.87717 0.18441 0.44825 0.0
H628 H 0.90944 0.21143 0.42239 0.0
H629 H 0.89644 0.26375 0.44644 0.0
H630 H 0.86448 0.23671 0.47281 0.0
H631 H 0.83387 0.17118 0.44388 0.0
H632 H 0.89025 0.20575 0.50885 0.0
H633 H 0.91854 0.23181 0.53979 0.0
H634 H 0.87111 0.24906 0.57133 0.0
H635 H 0.84311 0.22376 0.53944 0.0
C636 C 0.7914 0.14309 0.52206 0.0
C637 C 0.7789 0.14977 0.53757 0.0
C638 C 0.76278 0.1349 0.55537 0.0
C639 C 0.75878 0.113 0.55798 0.0
C640 C 0.77082 0.10609 0.54189 0.0
C641 C 0.78705 0.12102 0.52415 0.0
C642 C 0.81035 0.15984 0.50575 0.0
C643 C 0.82705 0.17889 0.51877 0.0
C644 C 0.81295 0.15677 0.4784 0.0
C645 C 0.79634 0.13682 0.46321 0.0
C646 C 0.77336 0.12951 0.46425 0.0
C647 C 0.75804 0.11068 0.44988 0.0
C648 C 0.7654 0.09903 0.43376 0.0
C649 C 0.78845 0.10684 0.4321 0.0
C650 C 0.80368 0.12532 0.44687 0.0
C651 C 0.86846 0.20855 0.46256 0.0
C652 C 0.88122 0.20169 0.44786 0.0
C653 C 0.89955 0.21712 0.43291 0.0
C654 C 0.9053 0.23968 0.43204 0.0
C655 C 0.89247 0.2465 0.44678 0.0
C656 C 0.87423 0.23108 0.46187 0.0
C657 C 0.84884 0.192 0.47813 0.0
C658 C 0.83207 0.1731 0.46498 0.0
C659 C 0.84643 0.1948 0.50554 0.0
C660 C 0.86451 0.21282 0.52166 0.0
C661 C 0.88609 0.21561 0.52183 0.0
C662 C 0.90217 0.23027 0.53982 0.0
C663 C 0.89688 0.24212 0.55834 0.0
C664 C 0.87565 0.24014 0.55731 0.0
C665 C 0.85962 0.2256 0.53918 0.0
H666 H 0.95362 0.51751 0.18504 0.0
H667 H 0.95454 0.54601 0.15515 0.0
H668 H 0.02589 0.5744 0.14593 0.0
H669 H 0.02491 0.54679 0.1769 0.0
H670 H 0.98324 0.49189 0.16503 0.0
H671 H 0.96329 0.52845 0.23516 0.0
H672 H 0.96828 0.56058 0.26109 0.0
H673 H 0.03635 0.57804 0.27828 0.0
H674 H 0.03113 0.54571 0.25265 0.0
H675 H 0.02854 0.489 0.26114 0.0
H676 H 0.03386 0.46289 0.28824 0.0
H677 H 0.97456 0.40784 0.25378 0.0
H678 H 0.9681 0.4342 0.22863 0.0
H679 H 0.99975 0.50058 0.26157 0.0
H680 H 0.02555 0.47494 0.18409 0.0
H681 H 0.02667 0.44863 0.15273 0.0
H682 H 0.95449 0.41337 0.14789 0.0
H683 H 0.95378 0.44092 0.1778 0.0
C684 C 0.98926 0.53039 0.18344 0.0
C685 C 0.96948 0.53026 0.17702 0.0
C686 C 0.97003 0.54643 0.15982 0.0
C687 C 0.99034 0.56272 0.14844 0.0
C688 C 0.01009 0.56265 0.15501 0.0
C689 C 0.00956 0.54676 0.17252 0.0
C690 C 0.98878 0.51235 0.19954 0.0
C691 C 0.98632 0.49345 0.18628 0.0
C692 C 0.9937 0.51496 0.22694 0.0
C693 C 0.99689 0.53481 0.24182 0.0
C694 C 0.97933 0.53932 0.24432 0.0
C695 C 0.98218 0.55761 0.25922 0.0
C696 C 1.00261 0.57166 0.27201 0.0
C697 C 0.02024 0.56722 0.26922 0.0
C698 C 0.01735 0.54887 0.25441 0.0
C699 C 0.99813 0.46364 0.24234 0.0
C700 C 0.0166 0.47131 0.25944 0.0
C701 C 0.01983 0.4563 0.27468 0.0
C702 C 0.00492 0.43319 0.27276 0.0
C703 C 0.9864 0.42553 0.2557 0.0
C704 C 0.9829 0.44059 0.24089 0.0
C705 C 0.99437 0.4799 0.22709 0.0
C706 C 0.99621 0.49861 0.24044 0.0
C707 C 0.98935 0.47737 0.1996 0.0
C708 C 0.98958 0.45967 0.18343 0.0
C709 C 0.00999 0.46133 0.17653 0.0
C710 C 0.01054 0.4461 0.15878 0.0
C711 C 0.99062 0.42854 0.14807 0.0
C712 C 0.97015 0.4267 0.15561 0.0
C713 C 0.96967 0.4423 0.17285 0.0
H714 H 0.49574 0.4503 0.16742 0.0
H715 H 0.46788 0.42355 0.13655 0.0
H716 H 0.42003 0.44153 0.1647 0.0
H717 H 0.44819 0.46874 0.19517 0.0
H718 H 0.51227 0.49436 0.16536 0.0
H719 H 0.47049 0.436 0.22719 0.0
H720 H 0.43816 0.40878 0.25233 0.0
H721 H 0.43442 0.4624 0.29143 0.0
H722 H 0.46524 0.48948 0.26411 0.0
H723 H 0.51995 0.54558 0.25871 0.0
H724 H 0.54842 0.57766 0.28363 0.0
H725 H 0.59872 0.56267 0.25659 0.0
H726 H 0.57026 0.53082 0.23136 0.0
H727 H 0.50556 0.50188 0.26233 0.0
H728 H 0.53999 0.55845 0.19585 0.0
H729 H 0.56717 0.58612 0.16502 0.0
H730 H 0.58285 0.53702 0.13552 0.0
H731 H 0.55615 0.50958 0.16688 0.0
C732 C 0.47402 0.46143 0.18374 0.0
C733 C 0.47915 0.44826 0.16723 0.0
C734 C 0.46317 0.43284 0.14976 0.0
C735 C 0.44172 0.43031 0.14841 0.0
C736 C 0.43643 0.44312 0.16539 0.0
C737 C 0.45244 0.45855 0.18291 0.0
C738 C 0.49186 0.47948 0.19998 0.0
C739 C 0.51097 0.49574 0.18668 0.0
C740 C 0.48972 0.48169 0.22767 0.0
C741 C 0.47022 0.46489 0.24332 0.0
C742 C 0.46245 0.44194 0.24071 0.0
C743 C 0.44423 0.42635 0.25564 0.0
C744 C 0.43392 0.43338 0.27437 0.0
C745 C 0.44187 0.45636 0.27714 0.0
C746 C 0.45968 0.47191 0.26168 0.0
C747 C 0.54303 0.53598 0.2429 0.0
C748 C 0.53711 0.5492 0.25817 0.0
C749 C 0.55336 0.56747 0.27244 0.0
C750 C 0.57583 0.57283 0.2718 0.0
C751 C 0.58163 0.55927 0.25695 0.0
C752 C 0.56539 0.54105 0.24259 0.0
C753 C 0.52571 0.51675 0.22757 0.0
C754 C 0.5068 0.5003 0.24104 0.0
C755 C 0.52778 0.51445 0.19998 0.0
C756 C 0.54619 0.53199 0.18385 0.0
C757 C 0.54974 0.55382 0.1833 0.0
C758 C 0.56512 0.56955 0.16554 0.0
C759 C 0.57718 0.56373 0.14799 0.0
C760 C 0.57411 0.54209 0.14915 0.0
C761 C 0.55874 0.52637 0.16691 0.0
H762 H 0.57066 0.05016 0.19064 0.0
H763 H 0.59874 0.05 0.16103 0.0
H764 H 0.5518 0.9816 0.13971 0.0
H765 H 0.52452 0.98154 0.17055 0.0
H766 H 0.51243 0.01979 0.16375 0.0
H767 H 0.56852 0.04476 0.23856 0.0
H768 H 0.59644 0.04051 0.26383 0.0
H769 H 0.5487 0.97054 0.27534 0.0
H770 H 0.52083 0.97491 0.24992 0.0
H771 H 0.46602 0.97978 0.26343 0.0
H772 H 0.43492 0.97571 0.29029 0.0
H773 H 0.43687 0.03133 0.24878 0.0
H774 H 0.46954 0.03689 0.22407 0.0
H775 H 0.50595 0.00788 0.2612 0.0
H776 H 0.44858 0.98182 0.19326 0.0
H777 H 0.42094 0.97975 0.16112 0.0
H778 H 0.46852 0.04562 0.13247 0.0
H779 H 0.49591 0.04783 0.16494 0.0
C780 C 0.54571 0.01574 0.18309 0.0
C781 C 0.56672 0.03499 0.1801 0.0
C782 C 0.58257 0.03498 0.1628 0.0
C783 C 0.57742 0.01588 0.14768 0.0
C784 C 0.55643 0.99653 0.15119 0.0
C785 C 0.54078 0.99647 0.16874 0.0
C786 C 0.52788 0.01611 0.19889 0.0
C787 C 0.5111 0.01764 0.18517 0.0
C788 C 0.52597 0.01255 0.22657 0.0
C789 C 0.54283 0.01003 0.24188 0.0
C790 C 0.56419 0.02845 0.24619 0.0
C791 C 0.58008 0.02601 0.26067 0.0
C792 C 0.5748 0.00512 0.27122 0.0
C793 C 0.5532 0.98682 0.26741 0.0
C794 C 0.53733 0.98926 0.25285 0.0
C795 C 0.47022 0.00858 0.24146 0.0
C796 C 0.46003 0.99137 0.26036 0.0
C797 C 0.44203 0.98889 0.27557 0.0
C798 C 0.43346 0.00333 0.272 0.0
C799 C 0.44339 0.0203 0.25273 0.0
C800 C 0.46182 0.02316 0.23803 0.0
C801 C 0.48996 0.0115 0.22612 0.0
C802 C 0.50716 0.01043 0.23987 0.0
C803 C 0.49208 0.01522 0.19826 0.0
C804 C 0.47429 0.015 0.18154 0.0
C805 C 0.45288 0.99601 0.18047 0.0
C806 C 0.4372 0.99475 0.16193 0.0
C807 C 0.44274 0.01241 0.14407 0.0
C808 C 0.46381 0.03179 0.14601 0.0
C809 C 0.47947 0.03303 0.16448 0.0
H810 H 0.48855 0.02517 0.87817 0.0
H811 H 0.46022 0.0252 0.90694 0.0
H812 H 0.40905 0.96645 0.86712 0.0
H813 H 0.43778 0.96619 0.83843 0.0
H814 H 0.49971 0.99384 0.87559 0.0
H815 H 0.47068 0.02724 0.81807 0.0
H816 H 0.44252 0.03066 0.79239 0.0
H817 H 0.43209 0.97515 0.74334 0.0
H818 H 0.45968 0.97108 0.76975 0.0
H819 H 0.51908 0.97175 0.77039 0.0
H820 H 0.55108 0.97608 0.74446 0.0
H821 H 0.59578 0.03111 0.79447 0.0
H822 H 0.56386 0.02752 0.81963 0.0
H823 H 0.5026 0.99763 0.77727 0.0
H824 H 0.53666 0.96808 0.84005 0.0
H825 H 0.56482 0.96885 0.87064 0.0
H826 H 0.56835 0.02564 0.91085 0.0
H827 H 0.5412 0.02538 0.87994 0.0
C828 C 0.46528 0.99574 0.85608 0.0
C829 C 0.47122 0.01235 0.87546 0.0
C830 C 0.455 0.01247 0.89173 0.0
C831 C 0.4324 0.99601 0.88898 0.0
C832 C 0.42635 0.97937 0.86953 0.0
C833 C 0.44269 0.97929 0.85309 0.0
C834 C 0.48314 0.99531 0.8402 0.0
C835 C 0.50043 0.99478 0.85405 0.0
C836 C 0.48382 0.99622 0.81211 0.0
C837 C 0.46695 0.99854 0.79629 0.0
C838 C 0.46208 0.0155 0.80214 0.0
C839 C 0.44615 0.01759 0.78735 0.0
C840 C 0.43524 0.00316 0.76598 0.0
C841 C 0.44043 0.98653 0.75966 0.0
C842 C 0.45613 0.98421 0.77475 0.0
C843 C 0.53902 0.99895 0.79743 0.0
C844 C 0.53575 0.98481 0.77575 0.0
C845 C 0.55397 0.98728 0.76093 0.0
C846 C 0.57578 0.00376 0.76772 0.0
C847 C 0.57909 0.01808 0.78914 0.0
C848 C 0.56086 0.01588 0.80366 0.0
C849 C 0.51952 0.99656 0.81275 0.0
C850 C 0.50179 0.99637 0.79877 0.0
C851 C 0.51877 0.99578 0.84088 0.0
C852 C 0.53694 0.99677 0.8576 0.0
C853 C 0.54389 0.98095 0.85513 0.0
C854 C 0.5598 0.98129 0.8727 0.0
C855 C 0.56899 0.99749 0.8929 0.0
C856 C 0.56205 0.01332 0.8951 0.0
C857 C 0.54634 0.01305 0.87758 0.0
H858 H 0.04925 0.55537 0.87372 0.0
H859 H 0.04773 0.5808 0.90639 0.0
H860 H 0.98214 0.56369 0.87801 0.0
H861 H 0.98332 0.53772 0.84607 0.0
H862 H 0.02271 0.51203 0.87499 0.0
H863 H 0.04031 0.5679 0.80841 0.0
H864 H 0.03636 0.59588 0.78308 0.0
H865 H 0.96987 0.54542 0.75938 0.0
H866 H 0.97408 0.51735 0.78433 0.0
H867 H 0.97314 0.45814 0.78601 0.0
H868 H 0.96834 0.42605 0.76026 0.0
H869 H 0.03587 0.44291 0.77975 0.0
H870 H 0.04033 0.4746 0.80615 0.0
H871 H 1.00277 0.50247 0.7794 0.0
H872 H 0.98387 0.44743 0.84699 0.0
H873 H 0.98411 0.42054 0.87836 0.0
H874 H 0.05081 0.4696 0.90306 0.0
H875 H 0.05075 0.49627 0.87117 0.0
C876 C 0.01641 0.5446 0.85739 0.0
C877 C 0.03467 0.55733 0.87427 0.0
C878 C 0.03384 0.57192 0.89285 0.0
C879 C 0.01467 0.57392 0.89499 0.0
C880 C 0.99695 0.56215 0.87708 0.0
C881 C 0.99775 0.54752 0.85857 0.0
C882 C 0.01572 0.5264 0.84099 0.0
C883 C 0.01897 0.51028 0.85389 0.0
C884 C 0.00988 0.5236 0.81373 0.0
C885 C 0.00739 0.54059 0.79854 0.0
C886 C 0.02482 0.56289 0.79792 0.0
C887 C 0.02251 0.57887 0.78351 0.0
C888 C 1.00266 0.5729 0.76958 0.0
C889 C 0.98536 0.55049 0.76987 0.0
C890 C 0.98773 0.53447 0.78417 0.0
C891 C 0.00706 0.4687 0.79806 0.0
C892 C 0.98692 0.45493 0.78467 0.0
C893 C 0.98427 0.43672 0.76978 0.0
C894 C 1.00185 0.43215 0.76762 0.0
C895 C 0.02199 0.44596 0.78111 0.0
C896 C 0.02456 0.46405 0.7962 0.0
C897 C 0.00991 0.48822 0.81346 0.0
C898 C 0.00697 0.50449 0.80037 0.0
C899 C 0.01599 0.49115 0.84061 0.0
C900 C 0.01738 0.47382 0.85653 0.0
C901 C 0.99882 0.45219 0.85852 0.0
C902 C 0.99889 0.43691 0.87663 0.0
C903 C 0.0175 0.44297 0.89309 0.0
C904 C 0.03639 0.46433 0.89033 0.0
C905 C 0.03631 0.47962 0.87224 0.0
H906 H 0.45159 0.49585 0.87309 0.0
H907 H 0.42566 0.46779 0.90451 0.0
H908 H 0.44231 0.42001 0.87282 0.0
H909 H 0.4689 0.44836 0.84216 0.0
H910 H 0.49535 0.51224 0.8738 0.0
H911 H 0.43633 0.47007 0.81119 0.0
H912 H 0.40985 0.43712 0.78605 0.0
H913 H 0.46496 0.43543 0.74789 0.0
H914 H 0.4912 0.46683 0.77487 0.0
H915 H 0.54229 0.51829 0.77522 0.0
H916 H 0.57326 0.5452 0.74802 0.0
H917 H 0.57011 0.5991 0.78719 0.0
H918 H 0.53763 0.57202 0.81238 0.0
H919 H 0.50219 0.50655 0.77658 0.0
H920 H 0.55957 0.53958 0.84372 0.0
H921 H 0.58735 0.56654 0.87467 0.0
H922 H 0.53832 0.58229 0.90449 0.0
H923 H 0.5109 0.55596 0.87295 0.0
C924 C 0.46222 0.47425 0.85523 0.0
C925 C 0.4495 0.47926 0.87272 0.0
C926 C 0.43459 0.46319 0.89056 0.0
C927 C 0.4322 0.44182 0.89136 0.0
C928 C 0.44413 0.43648 0.87298 0.0
C929 C 0.45914 0.4526 0.85523 0.0
C930 C 0.48018 0.49227 0.83898 0.0
C931 C 0.49666 0.51116 0.85242 0.0
C932 C 0.4823 0.49042 0.81123 0.0
C933 C 0.46586 0.47075 0.79549 0.0
C934 C 0.44273 0.46228 0.79793 0.0
C935 C 0.42758 0.4436 0.78322 0.0
C936 C 0.43524 0.43331 0.76529 0.0
C937 C 0.4584 0.44236 0.76218 0.0
C938 C 0.47348 0.46063 0.77734 0.0
C939 C 0.53752 0.54299 0.79607 0.0
C940 C 0.548 0.53589 0.77772 0.0
C941 C 0.56592 0.55135 0.76232 0.0
C942 C 0.5741 0.57437 0.7651 0.0
C943 C 0.56389 0.58151 0.78386 0.0
C944 C 0.54556 0.56599 0.7988 0.0
C945 C 0.51783 0.52614 0.81154 0.0
C946 C 0.50088 0.50762 0.79795 0.0
C947 C 0.5156 0.52791 0.83929 0.0
C948 C 0.53321 0.54591 0.85581 0.0
C949 C 0.55499 0.54928 0.85641 0.0
C950 C 0.57078 0.56454 0.87424 0.0
C951 C 0.56505 0.57665 0.89186 0.0
C952 C 0.5434 0.57361 0.89079 0.0
C953 C 0.52765 0.55841 0.87293 0.0
H954 H 0.6187 0.84568 0.51059 0.0
H955 H 0.61759 0.87333 0.48114 0.0
H956 H 0.68939 0.91467 0.48782 0.0
H957 H 0.69005 0.88767 0.51844 0.0
H958 H 0.6478 0.8261 0.49866 0.0
H959 H 0.63533 0.8695 0.56431 0.0
H960 H 0.64297 0.90277 0.58951 0.0
H961 H 0.70523 0.90943 0.6169 0.0
H962 H 0.69828 0.87713 0.59028 0.0
H963 H 0.69639 0.824 0.59313 0.0
H964 H 0.70192 0.79781 0.61967 0.0
H965 H 0.64256 0.74288 0.58509 0.0
H966 H 0.63567 0.76931 0.56094 0.0
H967 H 0.66875 0.83618 0.59393 0.0
H968 H 0.6914 0.80864 0.51755 0.0
H969 H 0.69203 0.78176 0.48673 0.0
H970 H 0.62002 0.74854 0.48009 0.0
H971 H 0.61984 0.77666 0.5095 0.0
C972 C 0.65441 0.86484 0.51692 0.0
C973 C 0.63408 0.86097 0.5061 0.0
C974 C 0.63352 0.87672 0.48918 0.0
C975 C 0.65335 0.89641 0.48234 0.0
C976 C 0.67368 0.90015 0.49334 0.0
C977 C 0.67415 0.88463 0.51067 0.0
C978 C 0.65539 0.84739 0.53285 0.0
C979 C 0.65199 0.82809 0.51965 0.0
C980 C 0.66188 0.85057 0.55988 0.0
C981 C 0.6664 0.87095 0.57492 0.0
C982 C 0.65089 0.87842 0.57518 0.0
C983 C 0.65514 0.89728 0.58991 0.0
C984 C 0.67484 0.90892 0.60497 0.0
C985 C 0.69018 0.90123 0.60498 0.0
C986 C 0.68607 0.88257 0.58999 0.0
C987 C 0.6658 0.79875 0.57449 0.0
C988 C 0.68444 0.80633 0.59133 0.0
C989 C 0.68783 0.79125 0.60621 0.0
C990 C 0.67302 0.76812 0.60408 0.0
C991 C 0.65436 0.76055 0.58723 0.0
C992 C 0.65062 0.77569 0.57293 0.0
C993 C 0.66185 0.81509 0.5596 0.0
C994 C 0.6645 0.8341 0.57299 0.0
C995 C 0.65571 0.81224 0.53243 0.0
C996 C 0.65557 0.79446 0.51595 0.0
C997 C 0.67575 0.79539 0.50966 0.0
C998 C 0.67601 0.77981 0.49224 0.0
C999 C 0.656 0.7626 0.48128 0.0
C1000 C 0.63574 0.76156 0.48807 0.0
C1001 C 0.63557 0.77752 0.50498 0.0
H1002 H 0.15928 0.7764 0.51059 0.0
H1003 H 0.13123 0.74924 0.48014 0.0
H1004 H 0.09439 0.78441 0.48522 0.0
H1005 H 0.12158 0.81028 0.51724 0.0
H1006 H 0.18152 0.82625 0.49876 0.0
H1007 H 0.13815 0.76956 0.56072 0.0
H1008 H 0.10563 0.74268 0.58571 0.0
H1009 H 0.10116 0.79671 0.62251 0.0
H1010 H 0.1323 0.8235 0.59516 0.0
H1011 H 0.18927 0.88027 0.58859 0.0
H1012 H 0.21772 0.91204 0.61387 0.0
H1013 H 0.26624 0.89245 0.59399 0.0
H1014 H 0.23785 0.86108 0.56806 0.0
H1015 H 0.17293 0.8356 0.59487 0.0
H1016 H 0.21305 0.89167 0.52909 0.0
H1017 H 0.24089 0.91754 0.49732 0.0
H1018 H 0.25104 0.86463 0.46859 0.0
H1019 H 0.22377 0.83888 0.50089 0.0
C1020 C 0.14225 0.79506 0.51643 0.0
C1021 C 0.14482 0.77784 0.50558 0.0
C1022 C 0.12886 0.76246 0.48803 0.0
C1023 C 0.11034 0.76442 0.48033 0.0
C1024 C 0.1079 0.78179 0.49133 0.0
C1025 C 0.12356 0.79678 0.50947 0.0
C1026 C 0.16022 0.8126 0.53286 0.0
C1027 C 0.1799 0.82811 0.51992 0.0
C1028 C 0.15754 0.81518 0.56026 0.0
C1029 C 0.13753 0.79866 0.57548 0.0
C1030 C 0.12982 0.77568 0.5735 0.0
C1031 C 0.11153 0.76028 0.58846 0.0
C1032 C 0.10104 0.76751 0.60665 0.0
C1033 C 0.10879 0.79052 0.60867 0.0
C1034 C 0.12674 0.80589 0.59317 0.0
C1035 C 0.21153 0.86849 0.57619 0.0
C1036 C 0.20605 0.88285 0.58966 0.0
C1037 C 0.22229 0.90094 0.60417 0.0
C1038 C 0.24429 0.90491 0.60567 0.0
C1039 C 0.2496 0.89018 0.59264 0.0
C1040 C 0.23339 0.8722 0.57792 0.0
C1041 C 0.19421 0.84946 0.56067 0.0
C1042 C 0.17464 0.83366 0.57376 0.0
C1043 C 0.19693 0.84662 0.53334 0.0
C1044 C 0.21633 0.86328 0.51751 0.0
C1045 C 0.22184 0.88579 0.5167 0.0
C1046 C 0.23768 0.90056 0.4985 0.0
C1047 C 0.24794 0.89295 0.48058 0.0
C1048 C 0.24328 0.8708 0.48226 0.0
C1049 C 0.22768 0.85612 0.50062 0.0
H1050 H 0.1228 0.30538 0.50662 0.0
H1051 H 0.09622 0.30573 0.47488 0.0
H1052 H 0.12084 0.37531 0.4927 0.0
H1053 H 0.14668 0.37445 0.52541 0.0
H1054 H 0.17199 0.34016 0.49886 0.0
H1055 H 0.11181 0.30739 0.56235 0.0
H1056 H 0.08077 0.30499 0.58841 0.0
H1057 H 0.1254 0.36914 0.62358 0.0
H1058 H 0.15648 0.37157 0.59727 0.0
H1059 H 0.2155 0.36654 0.60333 0.0
H1060 H 0.24369 0.36303 0.62915 0.0
H1061 H 0.23219 0.30653 0.58136 0.0
H1062 H 0.20339 0.30935 0.55633 0.0
H1063 H 0.17292 0.3411 0.59735 0.0
H1064 H 0.23544 0.36875 0.536 0.0
H1065 H 0.26394 0.36919 0.50657 0.0
H1066 H 0.2124 0.3123 0.46424 0.0
H1067 H 0.18435 0.31117 0.49441 0.0
C1068 C 0.13652 0.33983 0.5184 0.0
C1069 C 0.12202 0.32052 0.50416 0.0
C1070 C 0.107 0.32082 0.4859 0.0
C1071 C 0.10646 0.34057 0.48118 0.0
C1072 C 0.12051 0.35972 0.49621 0.0
C1073 C 0.13535 0.3593 0.51481 0.0
C1074 C 0.15475 0.34031 0.53421 0.0
C1075 C 0.17222 0.34018 0.52042 0.0
C1076 C 0.15512 0.34096 0.5622 0.0
C1077 C 0.13635 0.3398 0.57763 0.0
C1078 C 0.11487 0.32104 0.57545 0.0
C1079 C 0.09722 0.3196 0.59046 0.0
C1080 C 0.10072 0.33694 0.60782 0.0
C1081 C 0.12225 0.35569 0.61007 0.0
C1082 C 0.13997 0.35705 0.59518 0.0
C1083 C 0.20757 0.33849 0.5775 0.0
C1084 C 0.21891 0.35329 0.5985 0.0
C1085 C 0.23498 0.35131 0.61323 0.0
C1086 C 0.24006 0.33457 0.60708 0.0
C1087 C 0.22865 0.31969 0.58626 0.0
C1088 C 0.21234 0.32142 0.57184 0.0
C1089 C 0.19033 0.34047 0.562 0.0
C1090 C 0.17304 0.3413 0.5758 0.0
C1091 C 0.19001 0.34018 0.53382 0.0
C1092 C 0.20773 0.3399 0.51745 0.0
C1093 C 0.23037 0.35614 0.52068 0.0
C1094 C 0.2466 0.35656 0.50363 0.0
C1095 C 0.24038 0.34095 0.48286 0.0
C1096 C 0.21777 0.32448 0.48012 0.0
C1097 C 0.20168 0.32392 0.49724 0.0
C1098 C 0.97882 0.39425 0.08471 0.0
C1099 C 0.9944 0.38692 0.08594 0.0
C1100 C 0.97743 0.40732 0.1051 0.0
C1101 C 0.99127 0.41317 0.12776 0.0
H1102 H 0.96825 0.39063 0.06738 0.0
H1103 H 0.9659 0.41346 0.10263 0.0
S1104 S 0.0325 0.39507 0.14203 0.0
N1105 N 0.02269 0.3848 0.11227 0.0
N1106 N 0.01931 0.4083 0.15128 0.0
C1107 C 0.0061 0.40486 0.12975 0.0
C1108 C 0.00784 0.39199 0.1087 0.0
C1109 C 0.59483 0.60369 0.08964 0.0
C1110 C 0.61659 0.60807 0.08396 0.0
C1111 C 0.58247 0.58973 0.11071 0.0
C1112 C 0.59133 0.57951 0.12692 0.0
H1113 H 0.58713 0.61096 0.0776 0.0
H1114 H 0.56562 0.58651 0.11395 0.0
S1115 S 0.6479 0.58633 0.12147 0.0
N1116 N 0.64678 0.60159 0.09694 0.0
N1117 N 0.62347 0.57537 0.13665 0.0
C1118 C 0.61317 0.58396 0.12178 0.0
C1119 C 0.62582 0.59825 0.10031 0.0
C1120 C 0.40829 0.02578 0.09646 0.0
C1121 C 0.39927 0.00748 0.07891 0.0
C1122 C 0.42212 0.02717 0.11768 0.0
C1123 C 0.42725 0.0102 0.1223 0.0
H1124 H 0.40474 0.03922 0.09375 0.0
H1125 H 0.4288 0.04161 0.13062 0.0
S1126 S 0.40844 0.95904 0.08189 0.0
N1127 N 0.3968 0.97212 0.06751 0.0
N1128 N 0.42278 0.97485 0.10725 0.0
C1129 C 0.41835 0.99182 0.10497 0.0
C1130 C 0.40438 0.99043 0.08331 0.0
C1131 C 0.38796 0.97734 0.94273 0.0
C1132 C 0.38825 0.99729 0.949 0.0
C1133 C 0.40148 0.97669 0.9223 0.0
C1134 C 0.41561 0.99593 0.90743 0.0
H1135 H 0.37802 0.96242 0.95443 0.0
H1136 H 0.40166 0.96132 0.91897 0.0
S1137 S 0.41958 0.05121 0.91305 0.0
N1138 N 0.4019 0.03601 0.93669 0.0
N1139 N 0.42695 0.03463 0.89818 0.0
C1140 C 0.41489 0.01552 0.91238 0.0
C1141 C 0.4013 0.01624 0.9332 0.0
C1142 C 0.99649 0.40518 0.95349 0.0
C1143 C 0.0134 0.39997 0.95832 0.0
C1144 C 0.99788 0.4188 0.93216 0.0
C1145 C 0.01629 0.42787 0.9148 0.0
H1146 H 0.98194 0.39868 0.96627 0.0
H1147 H 0.98455 0.42254 0.92949 0.0
S1148 S 0.06485 0.41901 0.91813 0.0
N1149 N 0.04907 0.40474 0.9436 0.0
N1150 N 0.05163 0.43039 0.90342 0.0
C1151 C 0.03334 0.42282 0.91928 0.0
C1152 C 0.03189 0.40883 0.94102 0.0
C1153 C 0.60572 0.59477 0.94964 0.0
C1154 C 0.60958 0.61626 0.95577 0.0
C1155 C 0.59172 0.58237 0.92862 0.0
C1156 C 0.58097 0.59092 0.91283 0.0
H1157 H 0.61337 0.58727 0.96137 0.0
H1158 H 0.58888 0.5657 0.92512 0.0
S1159 S 0.58655 0.64688 0.91931 0.0
N1160 N 0.60217 0.64594 0.94355 0.0
N1161 N 0.57597 0.62264 0.90383 0.0
C1162 C 0.58498 0.61255 0.91834 0.0
C1163 C 0.59927 0.62522 0.93982 0.0
C1164 C 0.02773 0.62104 0.94372 0.0
C1165 C 0.00896 0.61155 0.96062 0.0
C1166 C 0.0295 0.60886 0.92245 0.0
C1167 C 0.01247 0.58683 0.91718 0.0
H1168 H 0.04113 0.63802 0.94686 0.0
H1169 H 0.04418 0.6168 0.90988 0.0
S1170 S 0.96054 0.55378 0.95632 0.0
N1171 N 0.97338 0.57838 0.97107 0.0
N1172 N 0.97684 0.55564 0.93133 0.0
C1173 C 0.99378 0.57707 0.93409 0.0
C1174 C 0.99199 0.58938 0.95573 0.0
C1175 C 0.38421 0.40726 0.93912 0.0
C1176 C 0.39302 0.39702 0.95544 0.0
C1177 C 0.3968 0.42147 0.91817 0.0
C1178 C 0.41859 0.42581 0.91264 0.0
H1179 H 0.36755 0.40447 0.94267 0.0
H1180 H 0.38944 0.42913 0.90621 0.0
S1181 S 0.44962 0.4036 0.94972 0.0
N1182 N 0.42507 0.39242 0.9646 0.0
N1183 N 0.44862 0.41919 0.92558 0.0
C1184 C 0.42753 0.41561 0.92871 0.0
C1185 C 0.4148 0.40121 0.95002 0.0
C1186 C 0.59352 0.97819 0.94747 0.0
C1187 C 0.6121 0.99834 0.95587 0.0
C1188 C 0.58009 0.9778 0.92627 0.0
C1189 C 0.58498 0.99752 0.91264 0.0
H1190 H 0.58885 0.96279 0.95795 0.0
H1191 H 0.5653 0.96214 0.92124 0.0
S1192 S 0.63401 0.05383 0.92408 0.0
N1193 N 0.63608 0.038 0.94713 0.0
N1194 N 0.61129 0.03715 0.90697 0.0
C1195 C 0.60433 0.01748 0.91985 0.0
C1196 C 0.61777 0.01792 0.94155 0.0
C1197 C 0.60913 0.99583 0.10485 0.0
C1198 C 0.61995 0.01304 0.08609 0.0
C1199 C 0.59624 0.99735 0.12531 0.0
C1200 C 0.59331 0.016 0.12759 0.0
H1201 H 0.61044 0.9809 0.10357 0.0
H1202 H 0.58816 0.9836 0.1392 0.0
S1203 S 0.61792 0.06548 0.08304 0.0
N1204 N 0.6273 0.04947 0.07118 0.0
N1205 N 0.60232 0.05205 0.10899 0.0
C1206 C 0.60441 0.03355 0.10917 0.0
C1207 C 0.61788 0.03212 0.08856 0.0
C1208 C 0.97605 0.58567 0.08745 0.0
C1209 C 0.99373 0.60785 0.08638 0.0
C1210 C 0.97472 0.57133 0.10799 0.0
C1211 C 0.99082 0.57881 0.12843 0.0
H1212 H 0.96367 0.57909 0.07175 0.0
H1213 H 0.96141 0.55407 0.10731 0.0
S1214 S 0.03832 0.63662 0.13675 0.0
N1215 N 0.02645 0.63731 0.10857 0.0
N1216 N 0.02346 0.61074 0.1478 0.0
C1217 C 0.00785 0.60139 0.12829 0.0
C1218 C 0.00942 0.61581 0.10713 0.0
C1219 C 0.40169 0.41197 0.09002 0.0
C1220 C 0.39706 0.39005 0.08499 0.0
C1221 C 0.41565 0.42457 0.11097 0.0
C1222 C 0.42564 0.41582 0.12773 0.0
H1223 H 0.3947 0.41965 0.07747 0.0
H1224 H 0.41913 0.44155 0.11362 0.0
S1225 S 0.41787 0.35883 0.12433 0.0
N1226 N 0.40287 0.35977 0.09935 0.0
N1227 N 0.42909 0.38352 0.13884 0.0
C1228 C 0.42082 0.39377 0.12336 0.0
C1229 C 0.40652 0.38087 0.102 0.0
C1230 C 0.6445 0.72768 0.41848 0.0
C1231 C 0.65968 0.7199 0.42054 0.0
C1232 C 0.64305 0.74103 0.43848 0.0
C1233 C 0.65642 0.74672 0.46153 0.0
H1234 H 0.6344 0.7243 0.40076 0.0
H1235 H 0.63193 0.74758 0.43534 0.0
S1236 S 0.69624 0.72728 0.47803 0.0
N1237 N 0.68694 0.71706 0.44811 0.0
N1238 N 0.68339 0.74104 0.4864 0.0
C1239 C 0.67073 0.73785 0.4644 0.0
C1240 C 0.67255 0.72471 0.44375 0.0
C1241 C 0.29291 0.94145 0.44075 0.0
C1242 C 0.28488 0.93575 0.41455 0.0
C1243 C 0.28103 0.92748 0.46221 0.0
C1244 C 0.2611 0.90717 0.458 0.0
H1245 H 0.30804 0.95711 0.44477 0.0
H1246 H 0.28736 0.93262 0.48219 0.0
S1247 S 0.23352 0.88421 0.39329 0.0
N1248 N 0.256 0.90817 0.3857 0.0
N1249 N 0.23407 0.88186 0.42589 0.0
C1250 C 0.25326 0.90105 0.43191 0.0
C1251 C 0.26506 0.91536 0.4102 0.0
C1252 C 0.07954 0.33209 0.41321 0.0
C1253 C 0.06615 0.34194 0.41576 0.0
C1254 C 0.09257 0.33194 0.43439 0.0
C1255 C 0.09257 0.34142 0.45914 0.0
H1256 H 0.08002 0.32442 0.39465 0.0
H1257 H 0.10283 0.3244 0.43126 0.0
S1258 S 0.0597 0.3686 0.47647 0.0
N1259 N 0.05345 0.36129 0.44503 0.0
N1260 N 0.07756 0.3605 0.48515 0.0
C1261 C 0.07927 0.35138 0.46199 0.0
C1262 C 0.06613 0.35174 0.44025 0.0
C1263 C 0.05591 0.31145 0.2789 0.0
C1264 C 0.05579 0.33117 0.28524 0.0
C1265 C 0.06934 0.31103 0.25819 0.0
C1266 C 0.08299 0.33029 0.24306 0.0
H1267 H 0.04632 0.29652 0.29072 0.0
H1268 H 0.06978 0.29581 0.25478 0.0
S1269 S 0.08577 0.38504 0.24888 0.0
N1270 N 0.06856 0.3697 0.27282 0.0
N1271 N 0.09343 0.36877 0.23379 0.0
C1272 C 0.0819 0.34967 0.24817 0.0
C1273 C 0.0684 0.35015 0.26928 0.0
C1274 C 0.69829 0.74391 0.27741 0.0
C1275 C 0.67964 0.73531 0.29448 0.0
C1276 C 0.70041 0.75782 0.25594 0.0
C1277 C 0.68387 0.76344 0.25064 0.0
H1278 H 0.71129 0.73978 0.28055 0.0
H1279 H 0.71498 0.76403 0.24324 0.0
S1280 S 0.63248 0.74646 0.29009 0.0
N1281 N 0.64473 0.73421 0.30504 0.0
N1282 N 0.64885 0.76032 0.26486 0.0
C1283 C 0.66532 0.75521 0.26771 0.0
C1284 C 0.66319 0.74117 0.28958 0.0
C1285 C 0.27228 0.92969 0.27679 0.0
C1286 C 0.27637 0.95109 0.28386 0.0
C1287 C 0.25805 0.91783 0.25574 0.0
C1288 C 0.24727 0.92682 0.24079 0.0
H1289 H 0.27983 0.92176 0.2879 0.0
H1290 H 0.25498 0.90115 0.25166 0.0
S1291 S 0.25346 0.98284 0.24982 0.0
N1292 N 0.26922 0.98126 0.2734 0.0
N1293 N 0.24255 0.95894 0.23352 0.0
C1294 C 0.25158 0.94843 0.24715 0.0
C1295 C 0.26614 0.96057 0.2687 0.0
C1296 C 0.66422 0.92543 0.28768 0.0
C1297 C 0.68059 0.94781 0.29253 0.0
C1298 C 0.66618 0.91352 0.26637 0.0
C1299 C 0.68464 0.92346 0.24912 0.0
H1300 H 0.64966 0.91696 0.30039 0.0
H1301 H 0.65327 0.89626 0.26364 0.0
S1302 S 0.73189 0.98172 0.25256 0.0
N1303 N 0.71578 0.97956 0.27794 0.0
N1304 N 0.71941 0.95707 0.23785 0.0
C1305 C 0.70114 0.94581 0.25364 0.0
C1306 C 0.69911 0.95801 0.27532 0.0
C1307 C 0.05135 0.74375 0.27564 0.0
C1308 C 0.06102 0.73433 0.29193 0.0
C1309 C 0.06332 0.758 0.25444 0.0
C1310 C 0.08532 0.76319 0.24867 0.0
H1311 H 0.03436 0.74002 0.27917 0.0
H1312 H 0.05523 0.76482 0.24232 0.0
S1313 S 0.11885 0.74411 0.2862 0.0
N1314 N 0.09437 0.73203 0.30131 0.0
N1315 N 0.11672 0.7588 0.26173 0.0
C1316 C 0.09528 0.75414 0.265 0.0
C1317 C 0.08318 0.73973 0.28656 0.0
C1318 C 0.27344 0.31972 0.26809 0.0
C1319 C 0.27233 0.32796 0.29326 0.0
C1320 C 0.2603 0.31985 0.24683 0.0
C1321 C 0.24559 0.32818 0.2501 0.0
H1322 H 0.28503 0.31378 0.26457 0.0
H1323 H 0.26208 0.31395 0.22756 0.0
S1324 S 0.23417 0.3486 0.31304 0.0
N1325 N 0.25385 0.34275 0.3208 0.0
N1326 N 0.22896 0.34257 0.28119 0.0
C1327 C 0.24359 0.33544 0.27552 0.0
C1328 C 0.257 0.33544 0.297 0.0
C1329 C 0.26949 0.32166 0.43487 0.0
C1330 C 0.28439 0.34134 0.42127 0.0
C1331 C 0.25616 0.32193 0.45561 0.0
C1332 C 0.25697 0.34185 0.46338 0.0
H1333 H 0.26784 0.30581 0.42918 0.0
H1334 H 0.24474 0.30629 0.46525 0.0
S1335 S 0.2935 0.39801 0.43429 0.0
N1336 N 0.29983 0.38143 0.41752 0.0
N1337 N 0.27422 0.38188 0.45603 0.0
C1338 C 0.27231 0.36179 0.45046 0.0
C1339 C 0.28613 0.36154 0.4295 0.0
C1340 C 0.64153 0.91836 0.41856 0.0
C1341 C 0.65594 0.94152 0.4206 0.0
C1342 C 0.64026 0.90394 0.43898 0.0
C1343 C 0.6531 0.91221 0.46235 0.0
H1344 H 0.63201 0.91122 0.40054 0.0
H1345 H 0.62983 0.88613 0.43589 0.0
S1346 S 0.6906 0.97202 0.47894 0.0
N1347 N 0.68168 0.97234 0.44861 0.0
N1348 N 0.67853 0.94544 0.48749 0.0
C1349 C 0.66648 0.93552 0.46523 0.0
C1350 C 0.66808 0.95012 0.44424 0.0
C1351 C 0.08871 0.73062 0.41646 0.0
C1352 C 0.06575 0.72318 0.41723 0.0
C1353 C 0.1029 0.74368 0.43708 0.0
C1354 C 0.09457 0.74935 0.45955 0.0
H1355 H 0.09589 0.72701 0.39936 0.0
H1356 H 0.12064 0.74987 0.43497 0.0
S1357 S 0.03487 0.73093 0.47246 0.0
N1358 N 0.03487 0.72083 0.44275 0.0
N1359 N 0.06121 0.74426 0.48227 0.0
C1360 C 0.07134 0.741 0.461 0.0
C1361 C 0.05702 0.72818 0.43967 0.0
C1362 C 0.34472 0.07881 0.75471 0.0
C1363 C 0.32756 0.05696 0.74881 0.0
C1364 C 0.34275 0.09092 0.77577 0.0
C1365 C 0.32352 0.08174 0.7918 0.0
H1366 H 0.35986 0.08675 0.7429 0.0
H1367 H 0.35627 0.1078 0.7792 0.0
S1368 S 0.27412 0.0249 0.78559 0.0
N1369 N 0.29085 0.02642 0.76125 0.0
N1370 N 0.28723 0.04923 0.80098 0.0
C1371 C 0.30628 0.05985 0.78635 0.0
C1372 C 0.30829 0.04745 0.76486 0.0
C1373 C 0.92694 0.2671 0.75514 0.0
C1374 C 0.94955 0.27373 0.75088 0.0
C1375 C 0.91485 0.25291 0.77618 0.0
C1376 C 0.92484 0.24472 0.79377 0.0
H1377 H 0.91838 0.27274 0.74199 0.0
H1378 H 0.89736 0.24793 0.77835 0.0
S1379 S 0.98384 0.25794 0.79241 0.0
N1380 N 0.9817 0.27162 0.76674 0.0
N1381 N 0.95885 0.24493 0.80635 0.0
C1382 C 0.94749 0.25143 0.79005 0.0
C1383 C 0.95988 0.26595 0.76862 0.0
C1384 C 0.74849 0.66986 0.74412 0.0
C1385 C 0.73332 0.67758 0.74746 0.0
C1386 C 0.76135 0.66948 0.76531 0.0
C1387 C 0.75949 0.67662 0.79087 0.0
H1388 H 0.75039 0.6639 0.72494 0.0
H1389 H 0.77288 0.66349 0.7616 0.0
S1390 S 0.72212 0.69826 0.81029 0.0
N1391 N 0.71729 0.6928 0.77825 0.0
N1392 N 0.74126 0.69167 0.81837 0.0
C1393 C 0.74464 0.68471 0.79448 0.0
C1394 C 0.73159 0.68526 0.77273 0.0
C1395 C 0.73626 0.68193 0.60148 0.0
C1396 C 0.72101 0.66255 0.61534 0.0
C1397 C 0.74954 0.68112 0.58103 0.0
C1398 C 0.74833 0.66092 0.57374 0.0
H1399 H 0.73835 0.69802 0.60687 0.0
H1400 H 0.76131 0.69658 0.5713 0.0
S1401 S 0.71051 0.60525 0.60329 0.0
N1402 N 0.70465 0.62238 0.61961 0.0
N1403 N 0.73009 0.62087 0.58157 0.0
C1404 C 0.73251 0.64123 0.58674 0.0
C1405 C 0.71876 0.64205 0.60746 0.0
C1406 C 0.3309 0.05702 0.60207 0.0
C1407 C 0.34597 0.06536 0.62345 0.0
C1408 C 0.33209 0.07095 0.58118 0.0
C1409 C 0.34811 0.0939 0.58112 0.0
H1410 H 0.31808 0.03954 0.60146 0.0
H1411 H 0.32025 0.06368 0.56501 0.0
S1412 S 0.39057 0.12407 0.63365 0.0
N1413 N 0.37722 0.09782 0.64368 0.0
N1414 N 0.37884 0.12439 0.60521 0.0
C1415 C 0.36328 0.10242 0.60255 0.0
C1416 C 0.36234 0.08807 0.62352 0.0
C1417 C 0.93155 0.28918 0.60697 0.0
C1418 C 0.94166 0.28003 0.62297 0.0
C1419 C 0.91733 0.27699 0.58588 0.0
C1420 C 0.91278 0.25524 0.57991 0.0
H1421 H 0.93455 0.30586 0.61081 0.0
H1422 H 0.90986 0.28465 0.57413 0.0
S1423 S 0.93433 0.22328 0.61628 0.0
N1424 N 0.94577 0.24765 0.63153 0.0
N1425 N 0.9189 0.22478 0.59226 0.0
C1426 C 0.92276 0.2459 0.59575 0.0
C1427 C 0.93721 0.25827 0.61718 0.0
C1428 C 0.32796 0.25947 0.61574 0.0
C1429 C 0.34523 0.28146 0.62066 0.0
C1430 C 0.32927 0.24697 0.59466 0.0
C1431 C 0.34795 0.2559 0.57771 0.0
H1432 H 0.3133 0.25171 0.62836 0.0
H1433 H 0.31573 0.22998 0.59198 0.0
S1434 S 0.39727 0.31297 0.58111 0.0
N1435 N 0.38136 0.31189 0.60621 0.0
N1436 N 0.38374 0.2883 0.56654 0.0
C1437 C 0.36523 0.27794 0.58212 0.0
C1438 C 0.36387 0.29075 0.60357 0.0
C1439 C 0.73383 0.09176 0.62628 0.0
C1440 C 0.71764 0.0693 0.62162 0.0
C1441 C 0.74647 0.10591 0.60544 0.0
C1442 C 0.74358 0.09812 0.57911 0.0
H1443 H 0.73722 0.09837 0.64632 0.0
H1444 H 0.7592 0.12289 0.61014 0.0
S1445 S 0.70235 0.04124 0.55584 0.0
N1446 N 0.69856 0.04027 0.58832 0.0
N1447 N 0.72245 0.06694 0.5492 0.0
C1448 C 0.72697 0.07594 0.57398 0.0
C1449 C 0.71393 0.06154 0.5952 0.0
C1450 C 0.94255 0.65331 0.5978 0.0
C1451 C 0.94047 0.65988 0.62359 0.0
C1452 C 0.92862 0.65281 0.57708 0.0
C1453 C 0.91214 0.6587 0.58166 0.0
H1454 H 0.95555 0.64941 0.5934 0.0
H1455 H 0.93125 0.64852 0.55723 0.0
S1456 S 0.89761 0.67324 0.64677 0.0
N1457 N 0.91921 0.66999 0.65317 0.0
N1458 N 0.89275 0.66843 0.61466 0.0
C1459 C 0.9091 0.66393 0.60776 0.0
C1460 C 0.92335 0.66469 0.62862 0.0
C1461 C 0.95523 0.68312 0.77194 0.0
C1462 C 0.94616 0.67431 0.74684 0.0
C1463 C 0.94158 0.68308 0.79267 0.0
C1464 C 0.9185 0.6744 0.78885 0.0
H1465 H 0.97282 0.68948 0.77579 0.0
H1466 H 0.94905 0.6894 0.81195 0.0
S1467 S 0.88749 0.65255 0.72552 0.0
N1468 N 0.91323 0.65852 0.71862 0.0
N1469 N 0.88781 0.65913 0.75711 0.0
C1470 C 0.90954 0.66654 0.76341 0.0
C1471 C 0.92332 0.66632 0.74253 0.0
C1472 C 0.3464 0.27026 0.75642 0.0
C1473 C 0.32907 0.27448 0.74987 0.0
C1474 C 0.34425 0.25614 0.77751 0.0
C1475 C 0.32468 0.24561 0.79295 0.0
H1476 H 0.36174 0.27771 0.74498 0.0
H1477 H 0.35786 0.25301 0.78132 0.0
S1478 S 0.27491 0.25214 0.78525 0.0
N1479 N 0.29197 0.26766 0.76128 0.0
N1480 N 0.28803 0.24119 0.80115 0.0
C1481 C 0.30736 0.24999 0.78702 0.0
C1482 C 0.30954 0.26442 0.76546 0.0
C1483 C 0.72777 0.05762 0.7732 0.0
C1484 C 0.73582 0.05313 0.74974 0.0
C1485 C 0.74223 0.06971 0.79404 0.0
C1486 C 0.76543 0.0782 0.79208 0.0
H1487 H 0.71012 0.05196 0.77537 0.0
H1488 H 0.73518 0.07276 0.81167 0.0
S1489 S 0.7949 0.07121 0.73434 0.0
N1490 N 0.76826 0.0576 0.72575 0.0
N1491 N 0.79573 0.08123 0.76435 0.0
C1492 C 0.77364 0.07343 0.76881 0.0
C1493 C 0.75878 0.0607 0.74778 0.0
C1494 C 0.07282 0.35761 0.05413 0.0
C1495 C 0.05009 0.34098 0.05385 0.0
C1496 C 0.08855 0.3548 0.06863 0.0
C1497 C 0.08219 0.33515 0.08315 0.0
H1498 H 0.07848 0.37319 0.04359 0.0
H1499 H 0.10582 0.36816 0.06859 0.0
S1500 S 0.02497 0.28627 0.08847 0.0
N1501 N 0.02214 0.3039 0.06902 0.0
N1502 N 0.05178 0.29867 0.09615 0.0
C1503 C 0.05966 0.31817 0.08258 0.0
C1504 C 0.04358 0.32108 0.06799 0.0
C1505 C 0.67298 0.71414 0.08281 0.0
C1506 C 0.66378 0.70955 0.05707 0.0
C1507 C 0.67639 0.73309 0.0968 0.0
C1508 C 0.67083 0.74827 0.08558 0.0
H1509 H 0.67728 0.70281 0.09248 0.0
H1510 H 0.68305 0.73562 0.11679 0.0
S1511 S 0.64796 0.74494 0.01793 0.0
N1512 N 0.65009 0.7223 0.02043 0.0
N1513 N 0.65696 0.75819 0.04652 0.0
C1514 C 0.66208 0.74417 0.05962 0.0
C1515 C 0.65846 0.72477 0.04542 0.0
C1516 C 0.2923 0.95959 0.07878 0.0
C1517 C 0.29679 0.95551 0.05274 0.0
C1518 C 0.27315 0.94392 0.09244 0.0
C1519 C 0.25768 0.92354 0.08061 0.0
H1520 H 0.30382 0.97492 0.08893 0.0
H1521 H 0.27067 0.94765 0.11264 0.0
S1522 S 0.26077 0.90529 0.01219 0.0
N1523 N 0.28369 0.92988 0.01525 0.0
N1524 N 0.24748 0.90056 0.04083 0.0
C1525 C 0.26171 0.91937 0.05441 0.0
C1526 C 0.28129 0.93533 0.0405 0.0
C1527 C 0.36083 0.06982 0.97524 0.0
C1528 C 0.34282 0.0502 0.98564 0.0
C1529 C 0.35726 0.08499 0.96065 0.0
C1530 C 0.33554 0.08136 0.9563 0.0
H1531 H 0.3778 0.07311 0.97759 0.0
H1532 H 0.37166 0.09945 0.95221 0.0
S1533 S 0.28291 0.03357 0.98221 0.0
N1534 N 0.30264 0.02837 0.99199 0.0
N1535 N 0.29589 0.05742 0.96578 0.0
C1536 C 0.31743 0.06212 0.96752 0.0
C1537 C 0.32108 0.04644 0.98191 0.0
C1538 C 0.96034 0.29186 0.9574 0.0
C1539 C 0.95639 0.29594 0.98369 0.0
C1540 C 0.94461 0.27291 0.94351 0.0
C1541 C 0.92427 0.25723 0.95532 0.0
H1542 H 0.97563 0.30354 0.94726 0.0
H1543 H 0.94827 0.27072 0.92316 0.0
S1544 S 0.90632 0.25928 0.02426 0.0
N1545 N 0.93091 0.28225 0.02134 0.0
N1546 N 0.90147 0.24643 0.99532 0.0
C1547 C 0.92022 0.26088 0.98174 0.0
C1548 C 0.93625 0.28025 0.9959 0.0
C1549 C 0.71812 0.648 0.98621 0.0
C1550 C 0.71159 0.66425 0.98539 0.0
C1551 C 0.73662 0.65069 0.97173 0.0
C1552 C 0.74944 0.66985 0.95619 0.0
H1553 H 0.70854 0.6328 0.99758 0.0
H1554 H 0.74085 0.63761 0.97256 0.0
S1555 S 0.73998 0.71767 0.94794 0.0
N1556 N 0.71986 0.70049 0.96819 0.0
N1557 N 0.75471 0.7055 0.94113 0.0
C1558 C 0.7435 0.68649 0.9557 0.0
C1559 C 0.72454 0.68369 0.97025 0.0
C1560 C 0.95853 0.66692 0.9568 0.0
C1561 C 0.95618 0.66271 0.98432 0.0
C1562 C 0.94276 0.66973 0.94248 0.0
C1563 C 0.9243 0.66889 0.95525 0.0
H1564 H 0.9724 0.66752 0.94606 0.0
H1565 H 0.94496 0.67252 0.92124 0.0
S1566 S 0.91071 0.65911 0.02696 0.0
N1567 N 0.93404 0.65822 0.02385 0.0
N1568 N 0.9046 0.66399 0.99687 0.0
C1569 C 0.92195 0.66522 0.9828 0.0
C1570 C 0.93783 0.66198 0.99735 0.0
C1571 C 0.3614 0.29406 0.97468 0.0
C1572 C 0.34347 0.29602 0.98452 0.0
C1573 C 0.35768 0.27517 0.96026 0.0
C1574 C 0.33587 0.25727 0.95563 0.0
H1575 H 0.37844 0.30753 0.97743 0.0
H1576 H 0.37204 0.27484 0.95227 0.0
S1577 S 0.28336 0.2534 0.98019 0.0
N1578 N 0.30327 0.27826 0.99004 0.0
N1579 N 0.29617 0.24214 0.9643 0.0
C1580 C 0.31782 0.25878 0.96628 0.0
C1581 C 0.32164 0.27828 0.98041 0.0
C1582 C 0.71585 0.04346 0.95892 0.0
C1583 C 0.71172 0.04799 0.98492 0.0
C1584 C 0.7345 0.05915 0.94451 0.0
C1585 C 0.74977 0.07999 0.95551 0.0
H1586 H 0.70436 0.02782 0.94933 0.0
H1587 H 0.73669 0.0551 0.92435 0.0
S1588 S 0.74769 0.09944 0.02359 0.0
N1589 N 0.72513 0.07446 0.02158 0.0
N1590 N 0.76036 0.10382 0.99457 0.0
C1591 C 0.74619 0.08454 0.98173 0.0
C1592 C 0.72716 0.06857 0.99642 0.0
C1593 C 0.64609 0.93573 0.06512 0.0
C1594 C 0.66415 0.95506 0.05426 0.0
C1595 C 0.64955 0.92052 0.0798 0.0
C1596 C 0.67119 0.92383 0.08374 0.0
H1597 H 0.6292 0.93271 0.06305 0.0
H1598 H 0.63515 0.90631 0.08861 0.0
S1599 S 0.72381 0.97068 0.05639 0.0
N1600 N 0.70424 0.97621 0.04696 0.0
N1601 N 0.71076 0.94707 0.07328 0.0
C1602 C 0.68932 0.94275 0.07201 0.0
C1603 C 0.6858 0.95847 0.05756 0.0
C1604 C 0.06778 0.72341 0.04691 0.0
C1605 C 0.04714 0.70825 0.05854 0.0
C1606 C 0.08363 0.74241 0.06075 0.0
C1607 C 0.07949 0.74685 0.0868 0.0
H1608 H 0.0717 0.72063 0.02694 0.0
H1609 H 0.09921 0.75376 0.05092 0.0
S1610 S 0.02878 0.71138 0.12697 0.0
N1611 N 0.02378 0.69849 0.09806 0.0
N1612 N 0.05375 0.73383 0.12418 0.0
C1613 C 0.05903 0.73166 0.09876 0.0
C1614 C 0.04282 0.71246 0.08461 0.0
C1615 C 0.28982 0.35861 0.05366 0.0
C1616 C 0.29665 0.3426 0.05469 0.0
C1617 C 0.27107 0.35564 0.06792 0.0
C1618 C 0.25827 0.33639 0.08337 0.0
H1619 H 0.29934 0.37383 0.04231 0.0
H1620 H 0.26659 0.36854 0.06693 0.0
S1621 S 0.26853 0.28911 0.09203 0.0
N1622 N 0.28872 0.30651 0.072 0.0
N1623 N 0.25345 0.30094 0.09856 0.0
C1624 C 0.26457 0.32002 0.08407 0.0
C1625 C 0.28378 0.32312 0.06981 0.0
C1626 C 0.74026 0.69245 0.38785 0.0
C1627 C 0.71756 0.67572 0.38762 0.0
C1628 C 0.75618 0.68953 0.40176 0.0
C1629 C 0.75005 0.66967 0.41569 0.0
H1630 H 0.74575 0.70817 0.3777 0.0
H1631 H 0.77342 0.70296 0.40171 0.0
S1632 S 0.693 0.62051 0.42097 0.0
N1633 N 0.68988 0.63836 0.40226 0.0
N1634 N 0.71987 0.63293 0.42829 0.0
C1635 C 0.72754 0.65262 0.41521 0.0
C1636 C 0.71128 0.65564 0.40122 0.0
C1637 C 0.34123 0.05672 0.39 0.0
C1638 C 0.32029 0.03716 0.38781 0.0
C1639 C 0.34381 0.07519 0.40437 0.0
C1640 C 0.32561 0.07474 0.41756 0.0
H1641 H 0.3558 0.05778 0.38051 0.0
H1642 H 0.36024 0.08997 0.40514 0.0
S1643 S 0.2674 0.02688 0.4191 0.0
N1644 N 0.28105 0.0182 0.40019 0.0
N1645 N 0.28598 0.05255 0.42815 0.0
C1646 C 0.30453 0.05519 0.41554 0.0
C1647 C 0.30186 0.0365 0.40047 0.0
C1648 C 0.95949 0.29251 0.41455 0.0
C1649 C 0.96397 0.2885 0.38846 0.0
C1650 C 0.94047 0.27672 0.42832 0.0
C1651 C 0.92506 0.25626 0.41657 0.0
H1652 H 0.97093 0.30789 0.42466 0.0
H1653 H 0.93803 0.28044 0.44853 0.0
S1654 S 0.92816 0.23812 0.34807 0.0
N1655 N 0.95095 0.26283 0.35104 0.0
N1656 N 0.91494 0.23329 0.37677 0.0
C1657 C 0.92909 0.25215 0.39033 0.0
C1658 C 0.94857 0.26823 0.37631 0.0
C1659 C 0.99287 0.38341 0.31644 0.0
C1660 C 0.01406 0.38564 0.31965 0.0
C1661 C 0.99012 0.399 0.30156 0.0
C1662 C 0.0084 0.41712 0.28886 0.0
H1663 H 0.97832 0.36956 0.32557 0.0
H1664 H 0.97352 0.39685 0.30006 0.0
S1665 S 0.06703 0.42882 0.28901 0.0
N1666 N 0.05345 0.40659 0.30812 0.0
N1667 N 0.04822 0.43531 0.27914 0.0
C1668 C 0.02964 0.41922 0.2916 0.0
C1669 C 0.03248 0.40362 0.30722 0.0
C1670 C 0.60537 0.61522 0.32697 0.0
C1671 C 0.62546 0.63118 0.31487 0.0
C1672 C 0.58951 0.59633 0.313 0.0
C1673 C 0.59312 0.59265 0.28642 0.0
H1674 H 0.6018 0.61736 0.34736 0.0
H1675 H 0.5743 0.58445 0.32313 0.0
S1676 S 0.64252 0.62977 0.2452 0.0
N1677 N 0.64788 0.64217 0.27447 0.0
N1678 N 0.61793 0.60688 0.24825 0.0
C1679 C 0.61311 0.60846 0.27407 0.0
C1680 C 0.62929 0.62766 0.28828 0.0
C1681 C 0.37722 0.97518 0.30766 0.0
C1682 C 0.37552 0.99329 0.31734 0.0
C1683 C 0.39595 0.9786 0.29306 0.0
C1684 C 0.41394 1.00027 0.28802 0.0
H1685 H 0.36366 0.95824 0.31065 0.0
H1686 H 0.39609 0.96411 0.2852 0.0
S1687 S 0.41855 0.05317 0.31204 0.0
N1688 N 0.39369 0.03353 0.32232 0.0
N1689 N 0.42948 0.04004 0.29617 0.0
C1690 C 0.41272 0.0185 0.29854 0.0
C1691 C 0.39339 0.01499 0.31289 0.0
C1692 C 0.60269 0.98899 0.32511 0.0
C1693 C 0.62404 0.99604 0.31447 0.0
C1694 C 0.58686 0.99201 0.31106 0.0
C1695 C 0.59186 0.00234 0.28594 0.0
H1696 H 0.59805 0.98088 0.34434 0.0
H1697 H 0.57062 0.98632 0.31998 0.0
S1698 S 0.64502 0.02328 0.24886 0.0
N1699 N 0.64916 0.0136 0.27697 0.0
N1700 N 0.61937 0.01911 0.25069 0.0
C1701 C 0.61311 0.0095 0.2751 0.0
C1702 C 0.6292 0.00639 0.28932 0.0
C1703 C 1.00202 0.62445 0.29116 0.0
C1704 C 0.01189 0.6295 0.31656 0.0
C1705 C 0.99895 0.60566 0.27705 0.0
C1706 C 0.0056 0.59114 0.28776 0.0
H1707 H 0.99689 0.63527 0.28185 0.0
H1708 H 0.99166 0.60273 0.25737 0.0
S1709 S 0.0308 0.59588 0.35427 0.0
N1710 N 0.02747 0.61785 0.3523 0.0
N1711 N 0.02138 0.58236 0.32591 0.0
C1712 C 0.01508 0.59571 0.31335 0.0
C1713 C 0.01828 0.6149 0.32772 0.0
C1714 C 0.3775 0.40425 0.30941 0.0
C1715 C 0.37651 0.38498 0.31988 0.0
C1716 C 0.39612 0.4198 0.29482 0.0
C1717 C 0.41465 0.41687 0.2906 0.0
H1718 H 0.36348 0.40698 0.31174 0.0
H1719 H 0.39575 0.43397 0.28629 0.0
S1720 S 0.42118 0.37035 0.31702 0.0
N1721 N 0.39592 0.36431 0.32661 0.0
N1722 N 0.43148 0.39407 0.30046 0.0
C1723 C 0.41414 0.39802 0.30199 0.0
C1724 C 0.39495 0.38196 0.31633 0.0
C1725 C 0.32302 0.26887 0.37973 0.0
C1726 C 0.32961 0.28978 0.39124 0.0
C1727 C 0.32571 0.25268 0.39336 0.0
C1728 C 0.33497 0.25676 0.41907 0.0
H1729 H 0.31575 0.26496 0.36002 0.0
H1730 H 0.32058 0.23688 0.38364 0.0
S1731 S 0.35345 0.30825 0.45879 0.0
N1732 N 0.34515 0.31341 0.43027 0.0
N1733 N 0.34968 0.28283 0.45601 0.0
C1734 C 0.34142 0.27752 0.43089 0.0
C1735 C 0.33887 0.29406 0.41696 0.0
C1736 C 0.7158 0.06016 0.39028 0.0
C1737 C 0.7178 0.04099 0.38844 0.0
C1738 C 0.73129 0.07888 0.40482 0.0
C1739 C 0.74912 0.07895 0.41847 0.0
H1740 H 0.70226 0.06077 0.38024 0.0
H1741 H 0.72936 0.09347 0.40521 0.0
S1742 S 0.76009 0.0317 0.42225 0.0
N1743 N 0.73818 0.02263 0.40251 0.0
N1744 N 0.7667 0.05732 0.43075 0.0
C1745 C 0.75093 0.05958 0.41724 0.0
C1746 C 0.73541 0.04073 0.40202 0.0
C1747 C 0.94781 0.67568 0.37704 0.0
C1748 C 0.96504 0.67428 0.39015 0.0
C1749 C 0.92882 0.67257 0.39091 0.0
C1750 C 0.92672 0.66848 0.41843 0.0
H1751 H 0.94901 0.67919 0.35594 0.0
H1752 H 0.91595 0.67389 0.3802 0.0
S1753 S 0.96713 0.66345 0.46206 0.0
N1754 N 0.97862 0.66836 0.43225 0.0
N1755 N 0.94319 0.663 0.45824 0.0
C1756 C 0.94376 0.667 0.43173 0.0
C1757 C 0.96286 0.66976 0.4176 0.0
C1758 C 0.38337 0.0063 0.75008 0.0
C1759 C 0.3854 0.01083 0.72263 0.0
C1760 C 0.39955 0.0038 0.7639 0.0
C1761 C 0.41816 0.00533 0.75069 0.0
H1762 H 0.36936 0.00509 0.76115 0.0
H1763 H 0.39748 1.0006 0.78508 0.0
S1764 S 0.43119 0.01642 0.67898 0.0
N1765 N 0.4075 0.01652 0.68272 0.0
N1766 N 0.43774 0.01139 0.70874 0.0
C1767 C 0.42027 0.00946 0.72322 0.0
C1768 C 0.40395 0.01234 0.70918 0.0
C1769 C 1.00327 0.37973 0.74871 0.0
C1770 C 0.99357 0.37459 0.72323 0.0
C1771 C 0.00593 0.39836 0.76278 0.0
C1772 C 0.9991 0.41271 0.75193 0.0
H1773 H 0.00859 0.3691 0.7581 0.0
H1774 H 0.01308 0.40134 0.78254 0.0
S1775 S 0.97417 0.4076 0.68514 0.0
N1776 N 0.97783 0.38584 0.68729 0.0
N1777 N 0.98329 0.42117 0.71352 0.0
C1778 C 0.98972 0.40801 0.72626 0.0
C1779 C 0.98687 0.38891 0.71197 0.0
C1780 C 0.63027 0.60274 0.72926 0.0
C1781 C 0.63142 0.62202 0.71855 0.0
C1782 C 0.61174 0.5875 0.74426 0.0
C1783 C 0.59342 0.59074 0.74873 0.0
H1784 H 0.64411 0.59975 0.72677 0.0
H1785 H 0.612 0.5733 0.75286 0.0
S1786 S 0.58734 0.63747 0.72209 0.0
N1787 N 0.61234 0.64305 0.71202 0.0
N1788 N 0.57699 0.61391 0.73901 0.0
C1789 C 0.5941 0.60963 0.73722 0.0
C1790 C 0.61319 0.62536 0.72241 0.0
C1791 C 0.66116 0.71752 0.64607 0.0
C1792 C 0.68244 0.72 0.6495 0.0
C1793 C 0.65834 0.73331 0.63176 0.0
C1794 C 0.67664 0.75191 0.61975 0.0
H1795 H 0.64659 0.70331 0.65465 0.0
H1796 H 0.64166 0.73091 0.63016 0.0
S1797 S 0.73563 0.76463 0.62098 0.0
N1798 N 0.722 0.74184 0.6392 0.0
N1799 N 0.71669 0.77092 0.61105 0.0
C1800 C 0.69801 0.75431 0.62276 0.0
C1801 C 0.7009 0.7385 0.63791 0.0
C1802 C 0.27255 0.9484 0.66013 0.0
C1803 C 0.29377 0.96296 0.64938 0.0
C1804 C 0.25679 0.92951 0.64607 0.0
C1805 C 0.2616 0.92452 0.62064 0.0
H1806 H 0.26801 0.95166 0.67953 0.0
H1807 H 0.24069 0.91873 0.65519 0.0
S1808 S 0.31434 0.95794 0.583 0.0
N1809 N 0.31862 0.9713 0.61149 0.0
N1810 N 0.28884 0.93616 0.5849 0.0
C1811 C 0.28276 0.93895 0.60965 0.0
C1812 C 0.29887 0.95807 0.62404 0.0
C1813 C 0.05037 0.31364 0.65358 0.0
C1814 C 0.04383 0.32988 0.65229 0.0
C1815 C 0.06894 0.31619 0.63937 0.0
C1816 C 0.08185 0.33521 0.62366 0.0
H1817 H 0.04075 0.29855 0.66512 0.0
H1818 H 0.07317 0.30313 0.64059 0.0
S1819 S 0.07239 0.38292 0.61416 0.0
N1820 N 0.05216 0.36592 0.63442 0.0
N1821 N 0.08717 0.37071 0.6079 0.0
C1822 C 0.07589 0.35183 0.62268 0.0
C1823 C 0.05684 0.34915 0.63693 0.0
C1824 C 0.29246 0.33211 0.62207 0.0
C1825 C 0.2908 0.32778 0.64956 0.0
C1826 C 0.27598 0.33432 0.60852 0.0
C1827 C 0.25746 0.33271 0.62205 0.0
H1828 H 0.30638 0.33336 0.61078 0.0
H1829 H 0.27774 0.33736 0.5873 0.0
S1830 S 0.24541 0.3221 0.694 0.0
N1831 N 0.26915 0.32219 0.68985 0.0
N1832 N 0.2384 0.32682 0.66434 0.0
C1833 C 0.25574 0.3288 0.64956 0.0
C1834 C 0.27234 0.32618 0.66332 0.0
C1835 C 0.66519 0.94664 0.65144 0.0
C1836 C 0.68595 0.96659 0.65146 0.0
C1837 C 0.66185 0.92806 0.63662 0.0
C1838 C 0.67909 0.92874 0.62104 0.0
H1839 H 0.65131 0.94538 0.66282 0.0
H1840 H 0.6456 0.91304 0.63738 0.0
S1841 S 0.73637 0.97735 0.61338 0.0
N1842 N 0.72398 0.98602 0.63436 0.0
N1843 N 0.71754 0.95133 0.60598 0.0
C1844 C 0.69997 0.94859 0.62094 0.0
C1845 C 0.70344 0.96744 0.63626 0.0
C1846 C 0.04449 0.73798 0.64149 0.0
C1847 C 0.04387 0.71903 0.65252 0.0
C1848 C 0.06308 0.75363 0.6269 0.0
C1849 C 0.08191 0.75113 0.6232 0.0
H1850 H 0.03019 0.74032 0.64333 0.0
H1851 H 0.06242 0.7675 0.61789 0.0
S1852 S 0.08956 0.7058 0.65143 0.0
N1853 N 0.06406 0.6993 0.66051 0.0
N1854 N 0.09949 0.72925 0.63435 0.0
C1855 C 0.08181 0.7327 0.63526 0.0
C1856 C 0.06268 0.71654 0.64962 0.0
C1857 C 0.98915 0.60198 0.71444 0.0
C1858 C 0.99465 0.62263 0.72594 0.0
C1859 C 0.99178 0.58598 0.72864 0.0
C1860 C 0.99994 0.59002 0.75488 0.0
H1861 H 0.98288 0.59816 0.69427 0.0
H1862 H 0.9876 0.57041 0.7189 0.0
S1863 S 0.01505 0.64069 0.79483 0.0
N1864 N 0.00773 0.64583 0.76562 0.0
N1865 N 0.01224 0.61564 0.79231 0.0
C1866 C 0.00515 0.61045 0.76674 0.0
C1867 C 1.00261 0.62677 0.75228 0.0
C1868 C 0.38463 0.39375 0.72366 0.0
C1869 C 0.38775 0.37541 0.71969 0.0
C1870 C 0.40013 0.41246 0.73818 0.0
C1871 C 0.41913 0.41334 0.74971 0.0
H1872 H 0.37015 0.39369 0.71537 0.0
H1873 H 0.39724 0.42637 0.74027 0.0
S1874 S 0.43366 0.36848 0.74713 0.0
N1875 N 0.41067 0.35877 0.7292 0.0
N1876 N 0.43924 0.39337 0.75752 0.0
C1877 C 0.42217 0.39484 0.74623 0.0
C1878 C 0.40663 0.37602 0.73098 0.0
C1879 C 0.61636 0.01384 0.71134 0.0
C1880 C 0.63305 0.01114 0.72388 0.0
C1881 C 0.59759 0.01099 0.7255 0.0
C1882 C 0.59517 0.00586 0.75277 0.0
H1883 H 0.61778 0.01812 0.69045 0.0
H1884 H 0.5851 0.01323 0.7152 0.0
S1885 S 0.63403 0.99716 0.79495 0.0
N1886 N 0.64571 0.00283 0.76522 0.0
N1887 N 0.6107 0.99799 0.79173 0.0
C1888 C 0.61167 0.00313 0.76552 0.0
C1889 C 0.63054 0.00562 0.75109 0.0
loop_
_geom_bond_atom_site_label_1
_geom_bond_atom_site_label_2
_geom_bond_distance
_geom_bond_site_symmetry_2
_ccdc_geom_bond_type
In0 O1 2.275 1_455 S
In0 O2 2.329 . S
In0 O6 2.246 1_455 S
In0 O7 2.330 1_454 S
In0 O8 2.273 1_554 S
In0 O9 2.302 1_454 S
In0 O11 2.327 . S
In0 O12 2.344 . S
O1 In0 2.275 1_655 S
O1 C10 1.228 1_655 S
O2 In0 2.329 . S
O2 C10 1.275 . S
C3 O6 1.252 1_556 S
C3 O7 1.260 . S
C4 O11 1.240 . S
C4 O12 1.252 . S
C5 O8 1.259 . S
C5 O9 1.255 1_455 S
O6 In0 2.246 1_655 S
O6 C3 1.252 1_554 S
O7 In0 2.330 1_656 S
O7 C3 1.260 . S
O8 In0 2.273 1_556 S
O8 C5 1.259 . S
O9 In0 2.302 1_656 S
O9 C5 1.255 1_655 S
C10 O1 1.228 1_455 S
C10 O2 1.275 . S
O11 In0 2.327 . S
O11 C4 1.240 . S
O12 In0 2.344 . S
O12 C4 1.252 . S
In13 O14 2.294 . S
In13 O15 2.326 . S
In13 O19 2.266 . S
In13 O20 2.326 1_554 S
In13 O21 2.266 1_554 S
In13 O22 2.326 1_554 S
In13 O24 2.294 . S
In13 O25 2.326 . S
O14 In13 2.294 . S
O14 C23 1.240 . S
O15 In13 2.326 . S
O15 C23 1.252 . S
C16 O19 1.252 1_556 S
C16 O20 1.260 . S
C17 O24 1.240 . S
C17 O25 1.252 . S
C18 O21 1.252 . S
C18 O22 1.260 . S
O19 In13 2.266 . S
O19 C16 1.252 1_554 S
O20 In13 2.326 1_556 S
O20 C16 1.260 . S
O21 In13 2.266 1_556 S
O21 C18 1.252 . S
O22 In13 2.326 1_556 S
O22 C18 1.260 . S
C23 O14 1.240 . S
C23 O15 1.252 . S
O24 In13 2.294 . S
O24 C17 1.240 . S
O25 In13 2.326 . S
O25 C17 1.252 . S
In26 O27 2.341 . S
In26 O28 2.352 1_554 S
In26 O32 2.276 . S
In26 O33 2.291 1_545 S
In26 O34 2.237 1_545 S
In26 O35 2.332 1_545 S
In26 O37 2.267 1_544 S
In26 O38 2.330 1_554 S
O27 In26 2.341 . S
O27 C36 1.240 1_554 S
O28 In26 2.352 1_556 S
O28 C36 1.252 . S
C29 O32 1.275 . S
C29 O33 1.244 1_545 S
C30 O37 1.222 1_545 S
C30 O38 1.287 . S
C31 O34 1.252 . S
C31 O35 1.260 . S
O32 In26 2.276 . S
O32 C29 1.275 . S
O33 In26 2.291 1_565 S
O33 C29 1.244 1_565 S
O34 In26 2.237 1_565 S
O34 C31 1.252 . S
O35 In26 2.332 1_565 S
O35 C31 1.260 . S
C36 O27 1.240 1_556 S
C36 O28 1.252 . S
O37 In26 2.267 1_566 S
O37 C30 1.222 1_565 S
O38 In26 2.330 1_556 S
O38 C30 1.287 . S
In39 O40 2.293 1_554 S
In39 O41 2.326 1_454 S
In39 O45 2.265 . S
In39 O46 2.326 . S
In39 O47 2.267 1_455 S
In39 O48 2.324 . S
In39 O50 2.296 1_455 S
In39 O51 2.328 1_454 S
O40 In39 2.293 1_556 S
O40 C49 1.239 . S
O41 In39 2.326 1_656 S
O41 C49 1.254 1_655 S
C42 O45 1.252 . S
C42 O46 1.260 . S
C43 O50 1.240 1_556 S
C43 O51 1.252 . S
C44 O47 1.232 1_455 S
C44 O48 1.275 . S
O45 In39 2.265 . S
O45 C42 1.252 . S
O46 In39 2.326 . S
O46 C42 1.260 . S
O47 In39 2.267 1_655 S
O47 C44 1.232 1_655 S
O48 In39 2.324 . S
O48 C44 1.275 . S
C49 O40 1.239 . S
C49 O41 1.254 1_455 S
O50 In39 2.296 1_655 S
O50 C43 1.240 1_554 S
O51 In39 2.328 1_656 S
O51 C43 1.252 . S
In52 O53 2.294 1_554 S
In52 O54 2.326 1_554 S
In52 O58 2.266 . S
In52 O59 2.326 . S
In52 O60 2.266 . S
In52 O61 2.326 . S
In52 O63 2.294 . S
In52 O64 2.326 1_554 S
O53 In52 2.294 1_556 S
O53 C62 1.240 . S
O54 In52 2.326 1_556 S
O54 C62 1.252 . S
C55 O58 1.252 . S
C55 O59 1.260 . S
C56 O63 1.240 1_556 S
C56 O64 1.252 . S
C57 O60 1.252 . S
C57 O61 1.260 . S
O58 In52 2.266 . S
O58 C55 1.252 . S
O59 In52 2.326 . S
O59 C55 1.260 . S
O60 In52 2.266 . S
O60 C57 1.252 . S
O61 In52 2.326 . S
O61 C57 1.260 . S
C62 O53 1.240 . S
C62 O54 1.252 . S
O63 In52 2.294 . S
O63 C56 1.240 1_554 S
O64 In52 2.326 1_556 S
O64 C56 1.252 . S
In65 O66 2.293 . S
In65 O67 2.326 1_545 S
In65 O71 2.265 . S
In65 O72 2.326 1_554 S
In65 O73 2.267 1_544 S
In65 O74 2.324 1_554 S
In65 O76 2.296 1_545 S
In65 O77 2.328 1_545 S
O66 In65 2.293 . S
O66 C75 1.238 . S
O67 In65 2.326 1_565 S
O67 C75 1.255 1_565 S
C68 O71 1.252 1_556 S
C68 O72 1.260 . S
C69 O76 1.240 . S
C69 O77 1.252 . S
C70 O73 1.234 1_545 S
C70 O74 1.273 . S
O71 In65 2.265 . S
O71 C68 1.252 1_554 S
O72 In65 2.326 1_556 S
O72 C68 1.260 . S
O73 In65 2.267 1_566 S
O73 C70 1.234 1_565 S
O74 In65 2.324 1_556 S
O74 C70 1.273 . S
C75 O66 1.238 . S
C75 O67 1.255 1_545 S
O76 In65 2.296 1_565 S
O76 C69 1.240 . S
O77 In65 2.328 1_565 S
O77 C69 1.252 . S
In78 O79 2.294 . S
In78 O80 2.326 . S
In78 O84 2.266 . S
In78 O85 2.326 . S
In78 O86 2.266 . S
In78 O87 2.326 . S
In78 O89 2.294 . S
In78 O90 2.326 . S
O79 In78 2.294 . S
O79 C88 1.240 . S
O80 In78 2.326 . S
O80 C88 1.252 . S
C81 O84 1.252 . S
C81 O85 1.260 . S
C82 O89 1.240 . S
C82 O90 1.252 . S
C83 O86 1.252 . S
C83 O87 1.260 . S
O84 In78 2.266 . S
O84 C81 1.252 . S
O85 In78 2.326 . S
O85 C81 1.260 . S
O86 In78 2.266 . S
O86 C83 1.252 . S
O87 In78 2.326 . S
O87 C83 1.260 . S
C88 O79 1.240 . S
C88 O80 1.252 . S
O89 In78 2.294 . S
O89 C82 1.240 . S
O90 In78 2.326 . S
O90 C82 1.252 . S
In91 O92 2.294 . S
In91 O93 2.326 . S
In91 O97 2.266 . S
In91 O98 2.331 . S
In91 O99 2.266 . S
In91 O100 2.326 . S
In91 O102 2.294 1_565 S
In91 O103 2.326 1_565 S
O92 In91 2.294 . S
O92 C101 1.240 . S
O93 In91 2.326 . S
O93 C101 1.252 . S
C94 O97 1.252 . S
C94 O98 1.292 . S
C95 O102 1.240 . S
C95 O103 1.252 . S
C96 O99 1.252 . S
C96 O100 1.260 . S
O97 In91 2.266 . S
O97 C94 1.252 . S
O98 In91 2.331 . S
O98 C94 1.292 . S
O99 In91 2.266 . S
O99 C96 1.252 . S
O100 In91 2.326 . S
O100 C96 1.260 . S
C101 O92 1.240 . S
C101 O93 1.252 . S
O102 In91 2.294 1_545 S
O102 C95 1.240 . S
O103 In91 2.326 1_545 S
O103 C95 1.252 . S
In104 O105 2.294 . S
In104 O106 2.326 . S
In104 O110 2.266 . S
In104 O111 2.326 . S
In104 O112 2.266 1_455 S
In104 O113 2.326 1_455 S
In104 O115 2.294 . S
In104 O116 2.326 . S
O105 In104 2.294 . S
O105 C114 1.240 . S
O106 In104 2.326 . S
O106 C114 1.252 . S
C107 O110 1.252 . S
C107 O111 1.260 . S
C108 O115 1.240 . S
C108 O116 1.252 . S
C109 O112 1.252 . S
C109 O113 1.260 . S
O110 In104 2.266 . S
O110 C107 1.252 . S
O111 In104 2.326 . S
O111 C107 1.260 . S
O112 In104 2.266 1_655 S
O112 C109 1.252 . S
O113 In104 2.326 1_655 S
O113 C109 1.260 . S
C114 O105 1.240 . S
C114 O106 1.252 . S
O115 In104 2.294 . S
O115 C108 1.240 . S
O116 In104 2.326 . S
O116 C108 1.252 . S
In117 O118 2.294 . S
In117 O119 2.326 . S
In117 O123 2.266 1_565 S
In117 O124 2.326 1_565 S
In117 O125 2.266 . S
In117 O126 2.326 . S
In117 O128 2.294 . S
In117 O129 2.326 . S
O118 In117 2.294 . S
O118 C127 1.240 . S
O119 In117 2.326 . S
O119 C127 1.252 . S
C120 O123 1.252 . S
C120 O124 1.260 . S
C121 O128 1.240 . S
C121 O129 1.252 . S
C122 O125 1.252 . S
C122 O126 1.260 . S
O123 In117 2.266 1_545 S
O123 C120 1.252 . S
O124 In117 2.326 1_545 S
O124 C120 1.260 . S
O125 In117 2.266 . S
O125 C122 1.252 . S
O126 In117 2.326 . S
O126 C122 1.260 . S
C127 O118 1.240 . S
C127 O119 1.252 . S
O128 In117 2.294 . S
O128 C121 1.240 . S
O129 In117 2.326 . S
O129 C121 1.252 . S
In130 O131 2.294 . S
In130 O132 2.326 . S
In130 O136 2.266 1_455 S
In130 O137 2.326 1_455 S
In130 O138 2.266 . S
In130 O139 2.326 . S
In130 O141 2.294 . S
In130 O142 2.326 . S
O131 In130 2.294 . S
O131 C140 1.240 . S
O132 In130 2.326 . S
O132 C140 1.252 . S
C133 O136 1.252 . S
C133 O137 1.260 . S
C134 O141 1.240 . S
C134 O142 1.252 . S
C135 O138 1.252 . S
C135 O139 1.260 . S
O136 In130 2.266 1_655 S
O136 C133 1.252 . S
O137 In130 2.326 1_655 S
O137 C133 1.260 . S
O138 In130 2.266 . S
O138 C135 1.252 . S
O139 In130 2.326 . S
O139 C135 1.260 . S
C140 O131 1.240 . S
C140 O132 1.252 . S
O141 In130 2.294 . S
O141 C134 1.240 . S
O142 In130 2.326 . S
O142 C134 1.252 . S
In143 O144 2.294 . S
In143 O145 2.326 . S
In143 O149 2.266 . S
In143 O150 2.326 . S
In143 O151 2.266 . S
In143 O152 2.326 . S
In143 O154 2.294 . S
In143 O155 2.326 . S
O144 In143 2.294 . S
O144 C153 1.240 . S
O145 In143 2.326 . S
O145 C153 1.252 . S
C146 O149 1.252 . S
C146 O150 1.260 . S
C147 O154 1.240 . S
C147 O155 1.252 . S
C148 O151 1.252 . S
C148 O152 1.260 . S
O149 In143 2.266 . S
O149 C146 1.252 . S
O150 In143 2.326 . S
O150 C146 1.260 . S
O151 In143 2.266 . S
O151 C148 1.252 . S
O152 In143 2.326 . S
O152 C148 1.260 . S
C153 O144 1.240 . S
C153 O145 1.252 . S
O154 In143 2.294 . S
O154 C147 1.240 . S
O155 In143 2.326 . S
O155 C147 1.252 . S
In156 O157 2.294 . S
In156 O158 2.326 . S
In156 O162 2.266 . S
In156 O163 2.326 . S
In156 O164 2.266 1_545 S
In156 O165 2.326 1_545 S
In156 O167 2.294 . S
In156 O168 2.326 . S
O157 In156 2.294 . S
O157 C166 1.240 . S
O158 In156 2.326 . S
O158 C166 1.252 . S
C159 O162 1.252 . S
C159 O163 1.260 . S
C160 O167 1.240 . S
C160 O168 1.252 . S
C161 O164 1.252 . S
C161 O165 1.260 . S
O162 In156 2.266 . S
O162 C159 1.252 . S
O163 In156 2.326 . S
O163 C159 1.260 . S
O164 In156 2.266 1_565 S
O164 C161 1.252 . S
O165 In156 2.326 1_565 S
O165 C161 1.260 . S
C166 O157 1.240 . S
C166 O158 1.252 . S
O167 In156 2.294 . S
O167 C160 1.240 . S
O168 In156 2.326 . S
O168 C160 1.252 . S
In169 O170 2.294 . S
In169 O171 2.326 . S
In169 O175 2.266 . S
In169 O176 2.326 . S
In169 O177 2.266 1_655 S
In169 O178 2.326 1_655 S
In169 O180 2.294 . S
In169 O181 2.326 . S
O170 In169 2.294 . S
O170 C179 1.240 . S
O171 In169 2.326 . S
O171 C179 1.252 . S
C172 O175 1.252 . S
C172 O176 1.260 . S
C173 O180 1.240 . S
C173 O181 1.252 . S
C174 O177 1.252 . S
C174 O178 1.260 . S
O175 In169 2.266 . S
O175 C172 1.252 . S
O176 In169 2.326 . S
O176 C172 1.260 . S
O177 In169 2.266 1_455 S
O177 C174 1.252 . S
O178 In169 2.326 1_455 S
O178 C174 1.260 . S
C179 O170 1.240 . S
C179 O171 1.252 . S
O180 In169 2.294 . S
O180 C173 1.240 . S
O181 In169 2.326 . S
O181 C173 1.252 . S
In182 O183 2.294 . S
In182 O184 2.326 . S
In182 O188 2.266 . S
In182 O189 2.326 . S
In182 O190 2.266 . S
In182 O191 2.326 . S
In182 O193 2.294 . S
In182 O194 2.326 . S
O183 In182 2.294 . S
O183 C192 1.240 . S
O184 In182 2.326 . S
O184 C192 1.252 . S
C185 O188 1.252 . S
C185 O189 1.260 . S
C186 O193 1.240 . S
C186 O194 1.252 . S
C187 O190 1.252 . S
C187 O191 1.260 . S
O188 In182 2.266 . S
O188 C185 1.252 . S
O189 In182 2.326 . S
O189 C185 1.260 . S
O190 In182 2.266 . S
O190 C187 1.252 . S
O191 In182 2.326 . S
O191 C187 1.260 . S
C192 O183 1.240 . S
C192 O184 1.252 . S
O193 In182 2.294 . S
O193 C186 1.240 . S
O194 In182 2.326 . S
O194 C186 1.252 . S
In195 O196 2.294 . S
In195 O197 2.326 . S
In195 O201 2.266 . S
In195 O202 2.326 . S
In195 O203 2.266 . S
In195 O204 2.326 . S
In195 O206 2.294 . S
In195 O207 2.326 . S
O196 In195 2.294 . S
O196 C205 1.240 . S
O197 In195 2.326 . S
O197 C205 1.252 . S
C198 O201 1.252 . S
C198 O202 1.260 . S
C199 O206 1.240 . S
C199 O207 1.252 . S
C200 O203 1.252 . S
C200 O204 1.260 . S
O201 In195 2.266 . S
O201 C198 1.252 . S
O202 In195 2.326 . S
O202 C198 1.260 . S
O203 In195 2.266 . S
O203 C200 1.252 . S
O204 In195 2.326 . S
O204 C200 1.260 . S
C205 O196 1.240 . S
C205 O197 1.252 . S
O206 In195 2.294 . S
O206 C199 1.240 . S
O207 In195 2.326 . S
O207 C199 1.252 . S
In208 O209 2.294 . S
In208 O210 2.326 . S
In208 O214 2.266 . S
In208 O215 2.326 . S
In208 O216 2.266 . S
In208 O217 2.326 . S
In208 O219 2.294 1_545 S
In208 O220 2.326 1_545 S
O209 In208 2.294 . S
O209 C218 1.240 . S
O210 In208 2.326 . S
O210 C218 1.252 . S
C211 O214 1.252 . S
C211 O215 1.260 . S
C212 O219 1.240 . S
C212 O220 1.252 . S
C213 O216 1.252 . S
C213 O217 1.260 . S
O214 In208 2.266 . S
O214 C211 1.252 . S
O215 In208 2.326 . S
O215 C211 1.260 . S
O216 In208 2.266 . S
O216 C213 1.252 . S
O217 In208 2.326 . S
O217 C213 1.260 . S
C218 O209 1.240 . S
C218 O210 1.252 . S
O219 In208 2.294 1_565 S
O219 C212 1.240 . S
O220 In208 2.326 1_565 S
O220 C212 1.252 . S
In221 O222 2.294 . S
In221 O223 2.326 . S
In221 O227 2.266 . S
In221 O228 2.326 . S
In221 O229 2.266 1_655 S
In221 O230 2.326 1_655 S
In221 O232 2.294 . S
In221 O233 2.326 . S
O222 In221 2.294 . S
O222 C231 1.240 . S
O223 In221 2.326 . S
O223 C231 1.252 . S
C224 O227 1.252 . S
C224 O228 1.260 . S
C225 O232 1.240 . S
C225 O233 1.252 . S
C226 O229 1.252 . S
C226 O230 1.260 . S
O227 In221 2.266 . S
O227 C224 1.252 . S
O228 In221 2.326 . S
O228 C224 1.260 . S
O229 In221 2.266 1_455 S
O229 C226 1.252 . S
O230 In221 2.326 1_455 S
O230 C226 1.260 . S
C231 O222 1.240 . S
C231 O223 1.252 . S
O232 In221 2.294 . S
O232 C225 1.240 . S
O233 In221 2.326 . S
O233 C225 1.252 . S
H234 C253 0.949 . S
H235 C254 0.950 . S
H236 C256 0.950 . S
H237 C257 0.950 . S
H238 C259 0.950 . S
H239 C262 0.950 . S
H240 C263 0.950 . S
H241 C265 0.951 . S
H242 C266 0.949 . S
H243 C268 0.949 . S
H244 C269 0.950 . S
H245 C271 0.950 . S
H246 C272 0.950 . S
H247 C274 0.950 . S
H248 C277 0.950 . S
H249 C278 0.950 . S
H250 C280 0.951 . S
H251 C281 0.949 . S
C252 C253 1.376 . S
C252 C257 1.386 . S
C252 C258 1.483 . S
C253 H234 0.949 . S
C253 C252 1.376 . S
C253 C254 1.397 . S
C254 H235 0.950 . S
C254 C253 1.397 . S
C254 C255 1.391 . S
C255 C254 1.391 . S
C255 C256 1.405 . S
C256 H236 0.950 . S
C256 C255 1.405 . S
C256 C257 1.367 . S
C257 H237 0.950 . S
C257 C252 1.386 . S
C257 C256 1.367 . S
C258 C252 1.483 . S
C258 C259 1.382 . S
C258 C260 1.403 . S
C259 H238 0.950 . S
C259 C258 1.382 . S
C259 C275 1.411 . S
C260 C258 1.403 . S
C260 C261 1.489 . S
C260 C274 1.411 . S
C261 C260 1.489 . S
C261 C262 1.383 . S
C261 C266 1.382 . S
C262 H239 0.950 . S
C262 C261 1.383 . S
C262 C263 1.395 . S
C263 H240 0.950 . S
C263 C262 1.395 . S
C263 C264 1.288 . S
C264 C263 1.288 . S
C264 C265 1.392 . S
C265 H241 0.951 . S
C265 C264 1.392 . S
C265 C266 1.392 . S
C266 H242 0.949 . S
C266 C261 1.382 . S
C266 C265 1.392 . S
C267 C268 1.376 . S
C267 C272 1.386 . S
C267 C273 1.483 . S
C268 H243 0.949 . S
C268 C267 1.376 . S
C268 C269 1.397 . S
C269 H244 0.950 . S
C269 C268 1.397 . S
C269 C270 1.391 . S
C270 C269 1.391 . S
C270 C271 1.405 . S
C271 H245 0.950 . S
C271 C270 1.405 . S
C271 C272 1.367 . S
C272 H246 0.950 . S
C272 C267 1.386 . S
C272 C271 1.367 . S
C273 C267 1.483 . S
C273 C274 1.382 . S
C273 C275 1.403 . S
C274 H247 0.950 . S
C274 C260 1.411 . S
C274 C273 1.382 . S
C275 C259 1.411 . S
C275 C273 1.403 . S
C275 C276 1.489 . S
C276 C275 1.489 . S
C276 C277 1.383 . S
C276 C281 1.382 . S
C277 H248 0.950 . S
C277 C276 1.383 . S
C277 C278 1.395 . S
C278 H249 0.950 . S
C278 C277 1.395 . S
C278 C279 1.288 . S
C279 C278 1.288 . S
C279 C280 1.392 . S
C280 H250 0.951 . S
C280 C279 1.392 . S
C280 C281 1.392 . S
C281 H251 0.949 . S
C281 C276 1.382 . S
C281 C280 1.392 . S
H282 C301 0.949 . S
H283 C302 0.950 . S
H284 C304 0.950 . S
H285 C305 0.950 . S
H286 C307 0.950 . S
H287 C310 0.950 . S
H288 C311 0.950 . S
H289 C313 0.951 . S
H290 C314 0.949 . S
H291 C316 0.949 . S
H292 C317 0.950 . S
H293 C319 0.950 . S
H294 C320 0.950 . S
H295 C322 0.950 . S
H296 C325 0.950 . S
H297 C326 0.950 . S
H298 C328 0.951 . S
H299 C329 0.949 . S
C300 C301 1.376 . S
C300 C305 1.386 . S
C300 C306 1.483 . S
C301 H282 0.949 . S
C301 C300 1.376 . S
C301 C302 1.397 . S
C302 H283 0.950 . S
C302 C301 1.397 . S
C302 C303 1.391 . S
C303 C302 1.391 . S
C303 C304 1.405 . S
C304 H284 0.950 . S
C304 C303 1.405 . S
C304 C305 1.367 . S
C305 H285 0.950 . S
C305 C300 1.386 . S
C305 C304 1.367 . S
C306 C300 1.483 . S
C306 C307 1.382 . S
C306 C308 1.403 . S
C307 H286 0.950 . S
C307 C306 1.382 . S
C307 C323 1.411 . S
C308 C306 1.403 . S
C308 C309 1.489 . S
C308 C322 1.411 . S
C309 C308 1.489 . S
C309 C310 1.383 . S
C309 C314 1.382 . S
C310 H287 0.950 . S
C310 C309 1.383 . S
C310 C311 1.395 . S
C311 H288 0.950 . S
C311 C310 1.395 . S
C311 C312 1.288 . S
C312 C311 1.288 . S
C312 C313 1.392 . S
C313 H289 0.951 . S
C313 C312 1.392 . S
C313 C314 1.392 . S
C314 H290 0.949 . S
C314 C309 1.382 . S
C314 C313 1.392 . S
C315 C316 1.376 . S
C315 C320 1.386 . S
C315 C321 1.483 . S
C316 H291 0.949 . S
C316 C315 1.376 . S
C316 C317 1.397 . S
C317 H292 0.950 . S
C317 C316 1.397 . S
C317 C318 1.391 . S
C318 C317 1.391 . S
C318 C319 1.405 . S
C319 H293 0.950 . S
C319 C318 1.405 . S
C319 C320 1.367 . S
C320 H294 0.950 . S
C320 C315 1.386 . S
C320 C319 1.367 . S
C321 C315 1.483 . S
C321 C322 1.382 . S
C321 C323 1.403 . S
C322 H295 0.950 . S
C322 C308 1.411 . S
C322 C321 1.382 . S
C323 C307 1.411 . S
C323 C321 1.403 . S
C323 C324 1.489 . S
C324 C323 1.489 . S
C324 C325 1.383 . S
C324 C329 1.382 . S
C325 H296 0.950 . S
C325 C324 1.383 . S
C325 C326 1.395 . S
C326 H297 0.950 . S
C326 C325 1.395 . S
C326 C327 1.288 . S
C327 C326 1.288 . S
C327 C328 1.392 . S
C328 H298 0.951 . S
C328 C327 1.392 . S
C328 C329 1.392 . S
C329 H299 0.949 . S
C329 C324 1.382 . S
C329 C328 1.392 . S
H330 C349 0.949 . S
H331 C350 0.950 . S
H332 C352 0.950 . S
H333 C353 0.950 . S
H334 C355 0.950 . S
H335 C358 0.950 . S
H336 C359 0.950 . S
H337 C361 0.951 . S
H338 C362 0.949 . S
H339 C364 0.949 . S
H340 C365 0.950 . S
H341 C367 0.950 . S
H342 C368 0.950 . S
H343 C370 0.950 . S
H344 C373 0.950 . S
H345 C374 0.950 . S
H346 C376 0.951 . S
H347 C377 0.949 . S
C348 C349 1.376 . S
C348 C353 1.386 . S
C348 C354 1.483 . S
C349 H330 0.949 . S
C349 C348 1.376 . S
C349 C350 1.397 . S
C350 H331 0.950 . S
C350 C349 1.397 . S
C350 C351 1.391 . S
C351 C350 1.391 . S
C351 C352 1.405 . S
C352 H332 0.950 . S
C352 C351 1.405 . S
C352 C353 1.367 . S
C353 H333 0.950 . S
C353 C348 1.386 . S
C353 C352 1.367 . S
C354 C348 1.483 . S
C354 C355 1.382 . S
C354 C356 1.403 . S
C355 H334 0.950 . S
C355 C354 1.382 . S
C355 C371 1.411 . S
C356 C354 1.403 . S
C356 C357 1.489 . S
C356 C370 1.411 . S
C357 C356 1.489 . S
C357 C358 1.383 . S
C357 C362 1.382 . S
C358 H335 0.950 . S
C358 C357 1.383 . S
C358 C359 1.395 . S
C359 H336 0.950 . S
C359 C358 1.395 . S
C359 C360 1.288 . S
C360 C359 1.288 . S
C360 C361 1.392 . S
C361 H337 0.951 . S
C361 C360 1.392 . S
C361 C362 1.392 . S
C362 H338 0.949 . S
C362 C357 1.382 . S
C362 C361 1.392 . S
C363 C364 1.376 . S
C363 C368 1.386 . S
C363 C369 1.483 . S
C364 H339 0.949 . S
C364 C363 1.376 . S
C364 C365 1.397 . S
C365 H340 0.950 . S
C365 C364 1.397 . S
C365 C366 1.391 . S
C366 C365 1.391 . S
C366 C367 1.405 . S
C367 H341 0.950 . S
C367 C366 1.405 . S
C367 C368 1.367 . S
C368 H342 0.950 . S
C368 C363 1.386 . S
C368 C367 1.367 . S
C369 C363 1.483 . S
C369 C370 1.382 . S
C369 C371 1.403 . S
C370 H343 0.950 . S
C370 C356 1.411 . S
C370 C369 1.382 . S
C371 C355 1.411 . S
C371 C369 1.403 . S
C371 C372 1.489 . S
C372 C371 1.489 . S
C372 C373 1.383 . S
C372 C377 1.382 . S
C373 H344 0.950 . S
C373 C372 1.383 . S
C373 C374 1.395 . S
C374 H345 0.950 . S
C374 C373 1.395 . S
C374 C375 1.288 . S
C375 C374 1.288 . S
C375 C376 1.392 . S
C376 H346 0.951 . S
C376 C375 1.392 . S
C376 C377 1.392 . S
C377 H347 0.949 . S
C377 C372 1.382 . S
C377 C376 1.392 . S
H378 C397 0.949 . S
H379 C398 0.950 . S
H380 C400 0.950 . S
H381 C401 0.950 . S
H382 C403 0.950 . S
H383 C406 0.950 . S
H384 C407 0.950 . S
H385 C409 0.951 . S
H386 C410 0.949 . S
H387 C412 0.949 . S
H388 C413 0.950 . S
H389 C415 0.950 . S
H390 C416 0.950 . S
H391 C418 0.950 . S
H392 C421 0.950 . S
H393 C422 0.950 . S
H394 C424 0.951 . S
H395 C425 0.949 . S
C396 C397 1.376 . S
C396 C401 1.386 . S
C396 C402 1.483 . S
C397 H378 0.949 . S
C397 C396 1.376 . S
C397 C398 1.397 . S
C398 H379 0.950 . S
C398 C397 1.397 . S
C398 C399 1.391 . S
C399 C398 1.391 . S
C399 C400 1.405 . S
C400 H380 0.950 . S
C400 C399 1.405 . S
C400 C401 1.367 . S
C401 H381 0.950 . S
C401 C396 1.386 . S
C401 C400 1.367 . S
C402 C396 1.483 . S
C402 C403 1.382 . S
C402 C404 1.403 . S
C403 H382 0.950 . S
C403 C402 1.382 . S
C403 C419 1.411 . S
C404 C402 1.403 . S
C404 C405 1.489 . S
C404 C418 1.411 . S
C405 C404 1.489 . S
C405 C406 1.383 . S
C405 C410 1.382 . S
C406 H383 0.950 . S
C406 C405 1.383 . S
C406 C407 1.395 . S
C407 H384 0.950 . S
C407 C406 1.395 . S
C407 C408 1.288 . S
C408 C407 1.288 . S
C408 C409 1.392 . S
C409 H385 0.951 . S
C409 C408 1.392 . S
C409 C410 1.392 . S
C410 H386 0.949 . S
C410 C405 1.382 . S
C410 C409 1.392 . S
C411 C412 1.376 . S
C411 C416 1.386 . S
C411 C417 1.483 . S
C412 H387 0.949 . S
C412 C411 1.376 . S
C412 C413 1.397 . S
C413 H388 0.950 . S
C413 C412 1.397 . S
C413 C414 1.391 . S
C414 C413 1.391 . S
C414 C415 1.405 . S
C415 H389 0.950 . S
C415 C414 1.405 . S
C415 C416 1.367 . S
C416 H390 0.950 . S
C416 C411 1.386 . S
C416 C415 1.367 . S
C417 C411 1.483 . S
C417 C418 1.382 . S
C417 C419 1.403 . S
C418 H391 0.950 . S
C418 C404 1.411 . S
C418 C417 1.382 . S
C419 C403 1.411 . S
C419 C417 1.403 . S
C419 C420 1.489 . S
C420 C419 1.489 . S
C420 C421 1.383 . S
C420 C425 1.382 . S
C421 H392 0.950 . S
C421 C420 1.383 . S
C421 C422 1.395 . S
C422 H393 0.950 . S
C422 C421 1.395 . S
C422 C423 1.288 . S
C423 C422 1.288 . S
C423 C424 1.392 . S
C424 H394 0.951 . S
C424 C423 1.392 . S
C424 C425 1.392 . S
C425 H395 0.949 . S
C425 C420 1.382 . S
C425 C424 1.392 . S
H426 C445 0.949 . S
H427 C446 0.950 . S
H428 C448 0.950 . S
H429 C449 0.950 . S
H430 C451 0.950 . S
H431 C454 0.950 . S
H432 C455 0.950 . S
H433 C457 0.951 . S
H434 C458 0.949 . S
H435 C460 0.949 . S
H436 C461 0.950 . S
H437 C463 0.950 . S
H438 C464 0.950 . S
H439 C466 0.950 . S
H440 C469 0.950 . S
H441 C470 0.950 . S
H442 C472 0.951 . S
H443 C473 0.949 . S
C444 C445 1.376 . S
C444 C449 1.386 . S
C444 C450 1.483 . S
C445 H426 0.949 . S
C445 C444 1.376 . S
C445 C446 1.397 . S
C446 H427 0.950 . S
C446 C445 1.397 . S
C446 C447 1.391 . S
C447 C446 1.391 . S
C447 C448 1.405 . S
C448 H428 0.950 . S
C448 C447 1.405 . S
C448 C449 1.367 . S
C449 H429 0.950 . S
C449 C444 1.386 . S
C449 C448 1.367 . S
C450 C444 1.483 . S
C450 C451 1.382 . S
C450 C452 1.403 . S
C451 H430 0.950 . S
C451 C450 1.382 . S
C451 C467 1.411 . S
C452 C450 1.403 . S
C452 C453 1.489 . S
C452 C466 1.411 . S
C453 C452 1.489 . S
C453 C454 1.383 . S
C453 C458 1.382 . S
C454 H431 0.950 . S
C454 C453 1.383 . S
C454 C455 1.395 . S
C455 H432 0.950 . S
C455 C454 1.395 . S
C455 C456 1.288 . S
C456 C455 1.288 . S
C456 C457 1.392 . S
C457 H433 0.951 . S
C457 C456 1.392 . S
C457 C458 1.392 . S
C458 H434 0.949 . S
C458 C453 1.382 . S
C458 C457 1.392 . S
C459 C460 1.376 . S
C459 C464 1.386 . S
C459 C465 1.483 . S
C460 H435 0.949 . S
C460 C459 1.376 . S
C460 C461 1.397 . S
C461 H436 0.950 . S
C461 C460 1.397 . S
C461 C462 1.391 . S
C462 C461 1.391 . S
C462 C463 1.405 . S
C463 H437 0.950 . S
C463 C462 1.405 . S
C463 C464 1.367 . S
C464 H438 0.950 . S
C464 C459 1.386 . S
C464 C463 1.367 . S
C465 C459 1.483 . S
C465 C466 1.382 . S
C465 C467 1.403 . S
C466 H439 0.950 . S
C466 C452 1.411 . S
C466 C465 1.382 . S
C467 C451 1.411 . S
C467 C465 1.403 . S
C467 C468 1.489 . S
C468 C467 1.489 . S
C468 C469 1.383 . S
C468 C473 1.382 . S
C469 H440 0.950 . S
C469 C468 1.383 . S
C469 C470 1.395 . S
C470 H441 0.950 . S
C470 C469 1.395 . S
C470 C471 1.288 . S
C471 C470 1.288 . S
C471 C472 1.392 . S
C472 H442 0.951 . S
C472 C471 1.392 . S
C472 C473 1.392 . S
C473 H443 0.949 . S
C473 C468 1.382 . S
C473 C472 1.392 . S
H474 C493 0.949 . S
H475 C494 0.950 . S
H476 C496 0.950 . S
H477 C497 0.950 . S
H478 C499 0.950 . S
H479 C502 0.950 . S
H480 C503 0.950 . S
H481 C505 0.951 . S
H482 C506 0.949 . S
H483 C508 0.949 . S
H484 C509 0.950 . S
H485 C511 0.950 . S
H486 C512 0.950 . S
H487 C514 0.950 . S
H488 C517 0.950 . S
H489 C518 0.950 . S
H490 C520 0.951 . S
H491 C521 0.949 . S
C492 C493 1.376 . S
C492 C497 1.386 . S
C492 C498 1.483 . S
C493 H474 0.949 . S
C493 C492 1.376 . S
C493 C494 1.397 . S
C494 H475 0.950 . S
C494 C493 1.397 . S
C494 C495 1.391 . S
C495 C494 1.391 . S
C495 C496 1.405 . S
C496 H476 0.950 . S
C496 C495 1.405 . S
C496 C497 1.367 . S
C497 H477 0.950 . S
C497 C492 1.386 . S
C497 C496 1.367 . S
C498 C492 1.483 . S
C498 C499 1.382 . S
C498 C500 1.403 . S
C499 H478 0.950 . S
C499 C498 1.382 . S
C499 C515 1.411 . S
C500 C498 1.403 . S
C500 C501 1.489 . S
C500 C514 1.411 . S
C501 C500 1.489 . S
C501 C502 1.383 . S
C501 C506 1.382 . S
C502 H479 0.950 . S
C502 C501 1.383 . S
C502 C503 1.395 . S
C503 H480 0.950 . S
C503 C502 1.395 . S
C503 C504 1.288 . S
C504 C503 1.288 . S
C504 C505 1.392 . S
C505 H481 0.951 . S
C505 C504 1.392 . S
C505 C506 1.392 . S
C506 H482 0.949 . S
C506 C501 1.382 . S
C506 C505 1.392 . S
C507 C508 1.376 . S
C507 C512 1.386 . S
C507 C513 1.483 . S
C508 H483 0.949 . S
C508 C507 1.376 . S
C508 C509 1.397 . S
C509 H484 0.950 . S
C509 C508 1.397 . S
C509 C510 1.391 . S
C510 C509 1.391 . S
C510 C511 1.405 . S
C511 H485 0.950 . S
C511 C510 1.405 . S
C511 C512 1.367 . S
C512 H486 0.950 . S
C512 C507 1.386 . S
C512 C511 1.367 . S
C513 C507 1.483 . S
C513 C514 1.382 . S
C513 C515 1.403 . S
C514 H487 0.950 . S
C514 C500 1.411 . S
C514 C513 1.382 . S
C515 C499 1.411 . S
C515 C513 1.403 . S
C515 C516 1.489 . S
C516 C515 1.489 . S
C516 C517 1.383 . S
C516 C521 1.382 . S
C517 H488 0.950 . S
C517 C516 1.383 . S
C517 C518 1.395 . S
C518 H489 0.950 . S
C518 C517 1.395 . S
C518 C519 1.288 . S
C519 C518 1.288 . S
C519 C520 1.392 . S
C520 H490 0.951 . S
C520 C519 1.392 . S
C520 C521 1.392 . S
C521 H491 0.949 . S
C521 C516 1.382 . S
C521 C520 1.392 . S
H522 C541 0.949 . S
H523 C542 0.950 . S
H524 C544 0.950 . S
H525 C545 0.950 . S
H526 C547 0.950 . S
H527 C550 0.950 . S
H528 C551 0.950 . S
H529 C553 0.951 . S
H530 C554 0.949 . S
H531 C556 0.949 . S
H532 C557 0.950 . S
H533 C559 0.950 . S
H534 C560 0.950 . S
H535 C562 0.950 . S
H536 C565 0.950 . S
H537 C566 0.950 . S
H538 C568 0.951 . S
H539 C569 0.949 . S
C540 C541 1.376 . S
C540 C545 1.386 . S
C540 C546 1.483 . S
C541 H522 0.949 . S
C541 C540 1.376 . S
C541 C542 1.397 . S
C542 H523 0.950 . S
C542 C541 1.397 . S
C542 C543 1.391 . S
C543 C542 1.391 . S
C543 C544 1.405 . S
C544 H524 0.950 . S
C544 C543 1.405 . S
C544 C545 1.367 . S
C545 H525 0.950 . S
C545 C540 1.386 . S
C545 C544 1.367 . S
C546 C540 1.483 . S
C546 C547 1.382 . S
C546 C548 1.403 . S
C547 H526 0.950 . S
C547 C546 1.382 . S
C547 C563 1.411 . S
C548 C546 1.403 . S
C548 C549 1.489 . S
C548 C562 1.411 . S
C549 C548 1.489 . S
C549 C550 1.383 . S
C549 C554 1.382 . S
C550 H527 0.950 . S
C550 C549 1.383 . S
C550 C551 1.395 . S
C551 H528 0.950 . S
C551 C550 1.395 . S
C551 C552 1.288 . S
C552 C551 1.288 . S
C552 C553 1.392 . S
C553 H529 0.951 . S
C553 C552 1.392 . S
C553 C554 1.392 . S
C554 H530 0.949 . S
C554 C549 1.382 . S
C554 C553 1.392 . S
C555 C556 1.376 . S
C555 C560 1.386 . S
C555 C561 1.483 . S
C556 H531 0.949 . S
C556 C555 1.376 . S
C556 C557 1.397 . S
C557 H532 0.950 . S
C557 C556 1.397 . S
C557 C558 1.391 . S
C558 C557 1.391 . S
C558 C559 1.405 . S
C559 H533 0.950 . S
C559 C558 1.405 . S
C559 C560 1.367 . S
C560 H534 0.950 . S
C560 C555 1.386 . S
C560 C559 1.367 . S
C561 C555 1.483 . S
C561 C562 1.382 . S
C561 C563 1.403 . S
C562 H535 0.950 . S
C562 C548 1.411 . S
C562 C561 1.382 . S
C563 C547 1.411 . S
C563 C561 1.403 . S
C563 C564 1.489 . S
C564 C563 1.489 . S
C564 C565 1.383 . S
C564 C569 1.382 . S
C565 H536 0.950 . S
C565 C564 1.383 . S
C565 C566 1.395 . S
C566 H537 0.950 . S
C566 C565 1.395 . S
C566 C567 1.288 . S
C567 C566 1.288 . S
C567 C568 1.392 . S
C568 H538 0.951 . S
C568 C567 1.392 . S
C568 C569 1.392 . S
C569 H539 0.949 . S
C569 C564 1.382 . S
C569 C568 1.392 . S
H570 C589 0.949 . S
H571 C590 0.950 . S
H572 C592 0.950 . S
H573 C593 0.950 . S
H574 C595 0.950 . S
H575 C598 0.950 . S
H576 C599 0.950 . S
H577 C601 0.951 . S
H578 C602 0.949 . S
H579 C604 0.949 . S
H580 C605 0.950 . S
H581 C607 0.950 . S
H582 C608 0.950 . S
H583 C610 0.950 . S
H584 C613 0.950 . S
H585 C614 0.950 . S
H586 C616 0.951 . S
H587 C617 0.949 . S
C588 C589 1.376 . S
C588 C593 1.386 . S
C588 C594 1.483 . S
C589 H570 0.949 . S
C589 C588 1.376 . S
C589 C590 1.397 . S
C590 H571 0.950 . S
C590 C589 1.397 . S
C590 C591 1.391 . S
C591 C590 1.391 . S
C591 C592 1.405 . S
C592 H572 0.950 . S
C592 C591 1.405 . S
C592 C593 1.367 . S
C593 H573 0.950 . S
C593 C588 1.386 . S
C593 C592 1.367 . S
C594 C588 1.483 . S
C594 C595 1.382 . S
C594 C596 1.403 . S
C595 H574 0.950 . S
C595 C594 1.382 . S
C595 C611 1.411 . S
C596 C594 1.403 . S
C596 C597 1.489 . S
C596 C610 1.411 . S
C597 C596 1.489 . S
C597 C598 1.383 . S
C597 C602 1.382 . S
C598 H575 0.950 . S
C598 C597 1.383 . S
C598 C599 1.395 . S
C599 H576 0.950 . S
C599 C598 1.395 . S
C599 C600 1.288 . S
C600 C599 1.288 . S
C600 C601 1.392 . S
C601 H577 0.951 . S
C601 C600 1.392 . S
C601 C602 1.392 . S
C602 H578 0.949 . S
C602 C597 1.382 . S
C602 C601 1.392 . S
C603 C604 1.376 . S
C603 C608 1.386 . S
C603 C609 1.483 . S
C604 H579 0.949 . S
C604 C603 1.376 . S
C604 C605 1.397 . S
C605 H580 0.950 . S
C605 C604 1.397 . S
C605 C606 1.391 . S
C606 C605 1.391 . S
C606 C607 1.405 . S
C607 H581 0.950 . S
C607 C606 1.405 . S
C607 C608 1.367 . S
C608 H582 0.950 . S
C608 C603 1.386 . S
C608 C607 1.367 . S
C609 C603 1.483 . S
C609 C610 1.382 . S
C609 C611 1.403 . S
C610 H583 0.950 . S
C610 C596 1.411 . S
C610 C609 1.382 . S
C611 C595 1.411 . S
C611 C609 1.403 . S
C611 C612 1.489 . S
C612 C611 1.489 . S
C612 C613 1.383 . S
C612 C617 1.382 . S
C613 H584 0.950 . S
C613 C612 1.383 . S
C613 C614 1.395 . S
C614 H585 0.950 . S
C614 C613 1.395 . S
C614 C615 1.288 . S
C615 C614 1.288 . S
C615 C616 1.392 . S
C616 H586 0.951 . S
C616 C615 1.392 . S
C616 C617 1.392 . S
C617 H587 0.949 . S
C617 C612 1.382 . S
C617 C616 1.392 . S
H618 C637 0.949 . S
H619 C638 0.950 . S
H620 C640 0.950 . S
H621 C641 0.950 . S
H622 C643 0.950 . S
H623 C646 0.950 . S
H624 C647 0.950 . S
H625 C649 0.951 . S
H626 C650 0.949 . S
H627 C652 0.949 . S
H628 C653 0.950 . S
H629 C655 0.950 . S
H630 C656 0.950 . S
H631 C658 0.950 . S
H632 C661 0.950 . S
H633 C662 0.950 . S
H634 C664 0.951 . S
H635 C665 0.949 . S
C636 C637 1.376 . S
C636 C641 1.386 . S
C636 C642 1.483 . S
C637 H618 0.949 . S
C637 C636 1.376 . S
C637 C638 1.397 . S
C638 H619 0.950 . S
C638 C637 1.397 . S
C638 C639 1.391 . S
C639 C638 1.391 . S
C639 C640 1.405 . S
C640 H620 0.950 . S
C640 C639 1.405 . S
C640 C641 1.367 . S
C641 H621 0.950 . S
C641 C636 1.386 . S
C641 C640 1.367 . S
C642 C636 1.483 . S
C642 C643 1.382 . S
C642 C644 1.403 . S
C643 H622 0.950 . S
C643 C642 1.382 . S
C643 C659 1.411 . S
C644 C642 1.403 . S
C644 C645 1.489 . S
C644 C658 1.411 . S
C645 C644 1.489 . S
C645 C646 1.383 . S
C645 C650 1.382 . S
C646 H623 0.950 . S
C646 C645 1.383 . S
C646 C647 1.395 . S
C647 H624 0.950 . S
C647 C646 1.395 . S
C647 C648 1.288 . S
C648 C647 1.288 . S
C648 C649 1.392 . S
C649 H625 0.951 . S
C649 C648 1.392 . S
C649 C650 1.392 . S
C650 H626 0.949 . S
C650 C645 1.382 . S
C650 C649 1.392 . S
C651 C652 1.376 . S
C651 C656 1.386 . S
C651 C657 1.483 . S
C652 H627 0.949 . S
C652 C651 1.376 . S
C652 C653 1.397 . S
C653 H628 0.950 . S
C653 C652 1.397 . S
C653 C654 1.391 . S
C654 C653 1.391 . S
C654 C655 1.405 . S
C655 H629 0.950 . S
C655 C654 1.405 . S
C655 C656 1.367 . S
C656 H630 0.950 . S
C656 C651 1.386 . S
C656 C655 1.367 . S
C657 C651 1.483 . S
C657 C658 1.382 . S
C657 C659 1.403 . S
C658 H631 0.950 . S
C658 C644 1.411 . S
C658 C657 1.382 . S
C659 C643 1.411 . S
C659 C657 1.403 . S
C659 C660 1.489 . S
C660 C659 1.489 . S
C660 C661 1.383 . S
C660 C665 1.382 . S
C661 H632 0.950 . S
C661 C660 1.383 . S
C661 C662 1.395 . S
C662 H633 0.950 . S
C662 C661 1.395 . S
C662 C663 1.288 . S
C663 C662 1.288 . S
C663 C664 1.392 . S
C664 H634 0.951 . S
C664 C663 1.392 . S
C664 C665 1.392 . S
C665 H635 0.949 . S
C665 C660 1.382 . S
C665 C664 1.392 . S
H666 C685 0.949 . S
H667 C686 0.950 . S
H668 C688 0.950 . S
H669 C689 0.950 . S
H670 C691 0.950 . S
H671 C694 0.950 . S
H672 C695 0.950 . S
H673 C697 0.951 . S
H674 C698 0.949 . S
H675 C700 0.949 . S
H676 C701 0.950 . S
H677 C703 0.950 . S
H678 C704 0.950 . S
H679 C706 0.950 . S
H680 C709 0.950 . S
H681 C710 0.950 . S
H682 C712 0.951 . S
H683 C713 0.949 . S
C684 C685 1.376 . S
C684 C689 1.386 1_655 S
C684 C690 1.483 . S
C685 H666 0.949 . S
C685 C684 1.376 . S
C685 C686 1.397 . S
C686 H667 0.950 . S
C686 C685 1.397 . S
C686 C687 1.391 . S
C687 C686 1.391 . S
C687 C688 1.405 1_655 S
C688 H668 0.950 . S
C688 C687 1.405 1_455 S
C688 C689 1.367 . S
C689 H669 0.950 . S
C689 C684 1.386 1_455 S
C689 C688 1.367 . S
C690 C684 1.483 . S
C690 C691 1.382 . S
C690 C692 1.403 1_655 S
C691 H670 0.950 . S
C691 C690 1.382 . S
C691 C707 1.411 . S
C692 C690 1.403 1_455 S
C692 C693 1.489 . S
C692 C706 1.411 . S
C693 C692 1.489 . S
C693 C694 1.383 1_455 S
C693 C698 1.382 . S
C694 H671 0.950 . S
C694 C693 1.383 1_655 S
C694 C695 1.395 . S
C695 H672 0.950 . S
C695 C694 1.395 . S
C695 C696 1.288 1_655 S
C696 C695 1.288 1_455 S
C696 C697 1.392 . S
C697 H673 0.951 . S
C697 C696 1.392 . S
C697 C698 1.392 . S
C698 H674 0.949 . S
C698 C693 1.382 . S
C698 C697 1.392 . S
C699 C700 1.376 . S
C699 C704 1.386 1_455 S
C699 C705 1.483 . S
C700 H675 0.949 . S
C700 C699 1.376 . S
C700 C701 1.397 . S
C701 H676 0.950 . S
C701 C700 1.397 . S
C701 C702 1.391 . S
C702 C701 1.391 . S
C702 C703 1.405 1_455 S
C703 H677 0.950 . S
C703 C702 1.405 1_655 S
C703 C704 1.367 . S
C704 H678 0.950 . S
C704 C699 1.386 1_655 S
C704 C703 1.367 . S
C705 C699 1.483 . S
C705 C706 1.382 . S
C705 C707 1.403 1_455 S
C706 H679 0.950 . S
C706 C692 1.411 . S
C706 C705 1.382 . S
C707 C691 1.411 . S
C707 C705 1.403 1_655 S
C707 C708 1.489 . S
C708 C707 1.489 . S
C708 C709 1.383 1_655 S
C708 C713 1.382 . S
C709 H680 0.950 . S
C709 C708 1.383 1_455 S
C709 C710 1.395 . S
C710 H681 0.950 . S
C710 C709 1.395 . S
C710 C711 1.288 1_455 S
C711 C710 1.288 1_655 S
C711 C712 1.392 . S
C712 H682 0.951 . S
C712 C711 1.392 . S
C712 C713 1.392 . S
C713 H683 0.949 . S
C713 C708 1.382 . S
C713 C712 1.392 . S
H714 C733 0.949 . S
H715 C734 0.950 . S
H716 C736 0.950 . S
H717 C737 0.950 . S
H718 C739 0.950 . S
H719 C742 0.950 . S
H720 C743 0.950 . S
H721 C745 0.951 . S
H722 C746 0.949 . S
H723 C748 0.949 . S
H724 C749 0.950 . S
H725 C751 0.950 . S
H726 C752 0.950 . S
H727 C754 0.950 . S
H728 C757 0.950 . S
H729 C758 0.950 . S
H730 C760 0.951 . S
H731 C761 0.949 . S
C732 C733 1.376 . S
C732 C737 1.386 . S
C732 C738 1.483 . S
C733 H714 0.949 . S
C733 C732 1.376 . S
C733 C734 1.397 . S
C734 H715 0.950 . S
C734 C733 1.397 . S
C734 C735 1.391 . S
C735 C734 1.391 . S
C735 C736 1.405 . S
C736 H716 0.950 . S
C736 C735 1.405 . S
C736 C737 1.367 . S
C737 H717 0.950 . S
C737 C732 1.386 . S
C737 C736 1.367 . S
C738 C732 1.483 . S
C738 C739 1.382 . S
C738 C740 1.403 . S
C739 H718 0.950 . S
C739 C738 1.382 . S
C739 C755 1.411 . S
C740 C738 1.403 . S
C740 C741 1.489 . S
C740 C754 1.411 . S
C741 C740 1.489 . S
C741 C742 1.383 . S
C741 C746 1.382 . S
C742 H719 0.950 . S
C742 C741 1.383 . S
C742 C743 1.395 . S
C743 H720 0.950 . S
C743 C742 1.395 . S
C743 C744 1.288 . S
C744 C743 1.288 . S
C744 C745 1.392 . S
C745 H721 0.951 . S
C745 C744 1.392 . S
C745 C746 1.392 . S
C746 H722 0.949 . S
C746 C741 1.382 . S
C746 C745 1.392 . S
C747 C748 1.376 . S
C747 C752 1.386 . S
C747 C753 1.483 . S
C748 H723 0.949 . S
C748 C747 1.376 . S
C748 C749 1.397 . S
C749 H724 0.950 . S
C749 C748 1.397 . S
C749 C750 1.391 . S
C750 C749 1.391 . S
C750 C751 1.405 . S
C751 H725 0.950 . S
C751 C750 1.405 . S
C751 C752 1.367 . S
C752 H726 0.950 . S
C752 C747 1.386 . S
C752 C751 1.367 . S
C753 C747 1.483 . S
C753 C754 1.382 . S
C753 C755 1.403 . S
C754 H727 0.950 . S
C754 C740 1.411 . S
C754 C753 1.382 . S
C755 C739 1.411 . S
C755 C753 1.403 . S
C755 C756 1.489 . S
C756 C755 1.489 . S
C756 C757 1.383 . S
C756 C761 1.382 . S
C757 H728 0.950 . S
C757 C756 1.383 . S
C757 C758 1.395 . S
C758 H729 0.950 . S
C758 C757 1.395 . S
C758 C759 1.288 . S
C759 C758 1.288 . S
C759 C760 1.392 . S
C760 H730 0.951 . S
C760 C759 1.392 . S
C760 C761 1.392 . S
C761 H731 0.949 . S
C761 C756 1.382 . S
C761 C760 1.392 . S
H762 C781 0.949 . S
H763 C782 0.950 . S
H764 C784 0.950 . S
H765 C785 0.950 . S
H766 C787 0.950 . S
H767 C790 0.950 . S
H768 C791 0.950 . S
H769 C793 0.951 . S
H770 C794 0.949 . S
H771 C796 0.949 . S
H772 C797 0.950 . S
H773 C799 0.950 . S
H774 C800 0.950 . S
H775 C802 0.950 . S
H776 C805 0.950 . S
H777 C806 0.950 . S
H778 C808 0.951 . S
H779 C809 0.949 . S
C780 C781 1.376 . S
C780 C785 1.386 1_545 S
C780 C786 1.483 . S
C781 H762 0.949 . S
C781 C780 1.376 . S
C781 C782 1.397 . S
C782 H763 0.950 . S
C782 C781 1.397 . S
C782 C783 1.391 . S
C783 C782 1.391 . S
C783 C784 1.405 1_545 S
C784 H764 0.950 . S
C784 C783 1.405 1_565 S
C784 C785 1.367 . S
C785 H765 0.950 . S
C785 C780 1.386 1_565 S
C785 C784 1.367 . S
C786 C780 1.483 . S
C786 C787 1.382 . S
C786 C788 1.403 1_545 S
C787 H766 0.950 . S
C787 C786 1.382 . S
C787 C803 1.411 . S
C788 C786 1.403 1_565 S
C788 C789 1.489 . S
C788 C802 1.411 . S
C789 C788 1.489 . S
C789 C790 1.383 1_565 S
C789 C794 1.382 . S
C790 H767 0.950 . S
C790 C789 1.383 1_545 S
C790 C791 1.395 . S
C791 H768 0.950 . S
C791 C790 1.395 . S
C791 C792 1.288 1_545 S
C792 C791 1.288 1_565 S
C792 C793 1.392 . S
C793 H769 0.951 . S
C793 C792 1.392 . S
C793 C794 1.392 . S
C794 H770 0.949 . S
C794 C789 1.382 . S
C794 C793 1.392 . S
C795 C796 1.376 . S
C795 C800 1.386 1_565 S
C795 C801 1.483 . S
C796 H771 0.949 . S
C796 C795 1.376 . S
C796 C797 1.397 . S
C797 H772 0.950 . S
C797 C796 1.397 . S
C797 C798 1.391 . S
C798 C797 1.391 . S
C798 C799 1.405 1_565 S
C799 H773 0.950 . S
C799 C798 1.405 1_545 S
C799 C800 1.367 . S
C800 H774 0.950 . S
C800 C795 1.386 1_545 S
C800 C799 1.367 . S
C801 C795 1.483 . S
C801 C802 1.382 . S
C801 C803 1.403 1_565 S
C802 H775 0.950 . S
C802 C788 1.411 . S
C802 C801 1.382 . S
C803 C787 1.411 . S
C803 C801 1.403 1_545 S
C803 C804 1.489 . S
C804 C803 1.489 . S
C804 C805 1.383 1_545 S
C804 C809 1.382 . S
C805 H776 0.950 . S
C805 C804 1.383 1_565 S
C805 C806 1.395 . S
C806 H777 0.950 . S
C806 C805 1.395 . S
C806 C807 1.288 1_565 S
C807 C806 1.288 1_545 S
C807 C808 1.392 . S
C808 H778 0.951 . S
C808 C807 1.392 . S
C808 C809 1.392 . S
C809 H779 0.949 . S
C809 C804 1.382 . S
C809 C808 1.392 . S
H810 C829 0.949 . S
H811 C830 0.950 . S
H812 C832 0.950 . S
H813 C833 0.950 . S
H814 C835 0.950 . S
H815 C838 0.950 . S
H816 C839 0.950 . S
H817 C841 0.951 . S
H818 C842 0.949 . S
H819 C844 0.949 . S
H820 C845 0.950 . S
H821 C847 0.950 . S
H822 C848 0.950 . S
H823 C850 0.950 . S
H824 C853 0.950 . S
H825 C854 0.950 . S
H826 C856 0.951 . S
H827 C857 0.949 . S
C828 C829 1.382 . S
C828 C833 1.383 1_545 S
C828 C834 1.505 . S
C829 H810 0.949 . S
C829 C828 1.382 . S
C829 C830 1.397 . S
C830 H811 0.950 . S
C830 C829 1.397 . S
C830 C831 1.391 1_545 S
C831 C830 1.391 1_565 S
C831 C832 1.405 . S
C832 H812 0.950 . S
C832 C831 1.405 . S
C832 C833 1.367 . S
C833 H813 0.950 . S
C833 C828 1.383 1_565 S
C833 C832 1.367 . S
C834 C828 1.505 . S
C834 C835 1.359 . S
C834 C836 1.398 1_545 S
C835 H814 0.950 . S
C835 C834 1.359 . S
C835 C851 1.411 . S
C836 C834 1.398 1_565 S
C836 C837 1.484 . S
C836 C850 1.437 . S
C837 C836 1.484 . S
C837 C838 1.345 1_565 S
C837 C842 1.403 . S
C838 H815 0.950 . S
C838 C837 1.345 1_545 S
C838 C839 1.395 . S
C839 H816 0.950 . S
C839 C838 1.395 . S
C839 C840 1.288 . S
C840 C839 1.288 . S
C840 C841 1.392 1_545 S
C841 H817 0.951 . S
C841 C840 1.392 1_565 S
C841 C842 1.392 . S
C842 H818 0.949 . S
C842 C837 1.403 . S
C842 C841 1.392 . S
C843 C844 1.372 . S
C843 C848 1.388 1_565 S
C843 C849 1.505 . S
C844 H819 0.949 . S
C844 C843 1.372 . S
C844 C845 1.397 . S
C845 H820 0.950 . S
C845 C844 1.397 . S
C845 C846 1.391 1_565 S
C846 C845 1.391 1_545 S
C846 C847 1.405 . S
C847 H821 0.950 . S
C847 C846 1.405 . S
C847 C848 1.367 . S
C848 H822 0.950 . S
C848 C843 1.388 1_545 S
C848 C847 1.367 . S
C849 C843 1.505 . S
C849 C850 1.364 . S
C849 C851 1.400 1_565 S
C850 H823 0.950 . S
C850 C836 1.437 . S
C850 C849 1.364 . S
C851 C835 1.411 . S
C851 C849 1.400 1_545 S
C851 C852 1.512 . S
C852 C851 1.512 . S
C852 C853 1.331 1_545 S
C852 C857 1.410 . S
C853 H824 0.950 . S
C853 C852 1.331 1_565 S
C853 C854 1.395 . S
C854 H825 0.950 . S
C854 C853 1.395 . S
C854 C855 1.288 . S
C855 C854 1.288 . S
C855 C856 1.392 1_565 S
C856 H826 0.951 . S
C856 C855 1.392 1_545 S
C856 C857 1.392 . S
C857 H827 0.949 . S
C857 C852 1.410 . S
C857 C856 1.392 . S
H858 C877 0.949 . S
H859 C878 0.950 . S
H860 C880 0.950 . S
H861 C881 0.950 . S
H862 C883 0.950 . S
H863 C886 0.950 . S
H864 C887 0.950 . S
H865 C889 0.951 . S
H866 C890 0.949 . S
H867 C892 0.949 . S
H868 C893 0.950 . S
H869 C895 0.950 . S
H870 C896 0.950 . S
H871 C898 0.950 . S
H872 C901 0.950 . S
H873 C902 0.950 . S
H874 C904 0.951 . S
H875 C905 0.949 . S
C876 C877 1.376 . S
C876 C881 1.386 1_455 S
C876 C882 1.483 . S
C877 H858 0.949 . S
C877 C876 1.376 . S
C877 C878 1.397 . S
C878 H859 0.950 . S
C878 C877 1.397 . S
C878 C879 1.391 . S
C879 C878 1.391 . S
C879 C880 1.405 1_455 S
C880 H860 0.950 . S
C880 C879 1.405 1_655 S
C880 C881 1.367 . S
C881 H861 0.950 . S
C881 C876 1.386 1_655 S
C881 C880 1.367 . S
C882 C876 1.483 . S
C882 C883 1.382 . S
C882 C884 1.403 1_455 S
C883 H862 0.950 . S
C883 C882 1.382 . S
C883 C899 1.411 . S
C884 C882 1.403 1_655 S
C884 C885 1.489 . S
C884 C898 1.411 . S
C885 C884 1.489 . S
C885 C886 1.383 1_655 S
C885 C890 1.382 . S
C886 H863 0.950 . S
C886 C885 1.383 1_455 S
C886 C887 1.395 . S
C887 H864 0.950 . S
C887 C886 1.395 . S
C887 C888 1.288 1_455 S
C888 C887 1.288 1_655 S
C888 C889 1.392 . S
C889 H865 0.951 . S
C889 C888 1.392 . S
C889 C890 1.392 . S
C890 H866 0.949 . S
C890 C885 1.382 . S
C890 C889 1.392 . S
C891 C892 1.376 . S
C891 C896 1.386 1_655 S
C891 C897 1.483 . S
C892 H867 0.949 . S
C892 C891 1.376 . S
C892 C893 1.397 . S
C893 H868 0.950 . S
C893 C892 1.397 . S
C893 C894 1.391 . S
C894 C893 1.391 . S
C894 C895 1.405 1_655 S
C895 H869 0.950 . S
C895 C894 1.405 1_455 S
C895 C896 1.367 . S
C896 H870 0.950 . S
C896 C891 1.386 1_455 S
C896 C895 1.367 . S
C897 C891 1.483 . S
C897 C898 1.382 . S
C897 C899 1.403 1_655 S
C898 H871 0.950 . S
C898 C884 1.411 . S
C898 C897 1.382 . S
C899 C883 1.411 . S
C899 C897 1.403 1_455 S
C899 C900 1.489 . S
C900 C899 1.489 . S
C900 C901 1.383 1_455 S
C900 C905 1.382 . S
C901 H872 0.950 . S
C901 C900 1.383 1_655 S
C901 C902 1.395 . S
C902 H873 0.950 . S
C902 C901 1.395 . S
C902 C903 1.288 1_655 S
C903 C902 1.288 1_455 S
C903 C904 1.392 . S
C904 H874 0.951 . S
C904 C903 1.392 . S
C904 C905 1.392 . S
C905 H875 0.949 . S
C905 C900 1.382 . S
C905 C904 1.392 . S
H906 C925 0.949 . S
H907 C926 0.950 . S
H908 C928 0.950 . S
H909 C929 0.950 . S
H910 C931 0.950 . S
H911 C934 0.950 . S
H912 C935 0.950 . S
H913 C937 0.951 . S
H914 C938 0.949 . S
H915 C940 0.949 . S
H916 C941 0.950 . S
H917 C943 0.950 . S
H918 C944 0.950 . S
H919 C946 0.950 . S
H920 C949 0.950 . S
H921 C950 0.950 . S
H922 C952 0.951 . S
H923 C953 0.949 . S
C924 C925 1.376 . S
C924 C929 1.386 . S
C924 C930 1.483 . S
C925 H906 0.949 . S
C925 C924 1.376 . S
C925 C926 1.397 . S
C926 H907 0.950 . S
C926 C925 1.397 . S
C926 C927 1.391 . S
C927 C926 1.391 . S
C927 C928 1.405 . S
C928 H908 0.950 . S
C928 C927 1.405 . S
C928 C929 1.367 . S
C929 H909 0.950 . S
C929 C924 1.386 . S
C929 C928 1.367 . S
C930 C924 1.483 . S
C930 C931 1.382 . S
C930 C932 1.403 . S
C931 H910 0.950 . S
C931 C930 1.382 . S
C931 C947 1.411 . S
C932 C930 1.403 . S
C932 C933 1.489 . S
C932 C946 1.411 . S
C933 C932 1.489 . S
C933 C934 1.383 . S
C933 C938 1.382 . S
C934 H911 0.950 . S
C934 C933 1.383 . S
C934 C935 1.395 . S
C935 H912 0.950 . S
C935 C934 1.395 . S
C935 C936 1.288 . S
C936 C935 1.288 . S
C936 C937 1.392 . S
C937 H913 0.951 . S
C937 C936 1.392 . S
C937 C938 1.392 . S
C938 H914 0.949 . S
C938 C933 1.382 . S
C938 C937 1.392 . S
C939 C940 1.376 . S
C939 C944 1.386 . S
C939 C945 1.483 . S
C940 H915 0.949 . S
C940 C939 1.376 . S
C940 C941 1.397 . S
C941 H916 0.950 . S
C941 C940 1.397 . S
C941 C942 1.391 . S
C942 C941 1.391 . S
C942 C943 1.405 . S
C943 H917 0.950 . S
C943 C942 1.405 . S
C943 C944 1.367 . S
C944 H918 0.950 . S
C944 C939 1.386 . S
C944 C943 1.367 . S
C945 C939 1.483 . S
C945 C946 1.382 . S
C945 C947 1.403 . S
C946 H919 0.950 . S
C946 C932 1.411 . S
C946 C945 1.382 . S
C947 C931 1.411 . S
C947 C945 1.403 . S
C947 C948 1.489 . S
C948 C947 1.489 . S
C948 C949 1.383 . S
C948 C953 1.382 . S
C949 H920 0.950 . S
C949 C948 1.383 . S
C949 C950 1.395 . S
C950 H921 0.950 . S
C950 C949 1.395 . S
C950 C951 1.288 . S
C951 C950 1.288 . S
C951 C952 1.392 . S
C952 H922 0.951 . S
C952 C951 1.392 . S
C952 C953 1.392 . S
C953 H923 0.949 . S
C953 C948 1.382 . S
C953 C952 1.392 . S
H954 C973 0.949 . S
H955 C974 0.950 . S
H956 C976 0.950 . S
H957 C977 0.950 . S
H958 C979 0.950 . S
H959 C982 0.950 . S
H960 C983 0.950 . S
H961 C985 0.951 . S
H962 C986 0.949 . S
H963 C988 0.949 . S
H964 C989 0.950 . S
H965 C991 0.950 . S
H966 C992 0.950 . S
H967 C994 0.950 . S
H968 C997 0.950 . S
H969 C998 0.950 . S
H970 C1000 0.951 . S
H971 C1001 0.949 . S
C972 C973 1.376 . S
C972 C977 1.386 . S
C972 C978 1.483 . S
C973 H954 0.949 . S
C973 C972 1.376 . S
C973 C974 1.397 . S
C974 H955 0.950 . S
C974 C973 1.397 . S
C974 C975 1.391 . S
C975 C974 1.391 . S
C975 C976 1.405 . S
C976 H956 0.950 . S
C976 C975 1.405 . S
C976 C977 1.367 . S
C977 H957 0.950 . S
C977 C972 1.386 . S
C977 C976 1.367 . S
C978 C972 1.483 . S
C978 C979 1.382 . S
C978 C980 1.403 . S
C979 H958 0.950 . S
C979 C978 1.382 . S
C979 C995 1.411 . S
C980 C978 1.403 . S
C980 C981 1.489 . S
C980 C994 1.411 . S
C981 C980 1.489 . S
C981 C982 1.383 . S
C981 C986 1.382 . S
C982 H959 0.950 . S
C982 C981 1.383 . S
C982 C983 1.395 . S
C983 H960 0.950 . S
C983 C982 1.395 . S
C983 C984 1.288 . S
C984 C983 1.288 . S
C984 C985 1.392 . S
C985 H961 0.951 . S
C985 C984 1.392 . S
C985 C986 1.392 . S
C986 H962 0.949 . S
C986 C981 1.382 . S
C986 C985 1.392 . S
C987 C988 1.376 . S
C987 C992 1.386 . S
C987 C993 1.483 . S
C988 H963 0.949 . S
C988 C987 1.376 . S
C988 C989 1.397 . S
C989 H964 0.950 . S
C989 C988 1.397 . S
C989 C990 1.391 . S
C990 C989 1.391 . S
C990 C991 1.405 . S
C991 H965 0.950 . S
C991 C990 1.405 . S
C991 C992 1.367 . S
C992 H966 0.950 . S
C992 C987 1.386 . S
C992 C991 1.367 . S
C993 C987 1.483 . S
C993 C994 1.382 . S
C993 C995 1.403 . S
C994 H967 0.950 . S
C994 C980 1.411 . S
C994 C993 1.382 . S
C995 C979 1.411 . S
C995 C993 1.403 . S
C995 C996 1.489 . S
C996 C995 1.489 . S
C996 C997 1.383 . S
C996 C1001 1.382 . S
C997 H968 0.950 . S
C997 C996 1.383 . S
C997 C998 1.395 . S
C998 H969 0.950 . S
C998 C997 1.395 . S
C998 C999 1.288 . S
C999 C998 1.288 . S
C999 C1000 1.392 . S
C1000 H970 0.951 . S
C1000 C999 1.392 . S
C1000 C1001 1.392 . S
C1001 H971 0.949 . S
C1001 C996 1.382 . S
C1001 C1000 1.392 . S
H1002 C1021 0.949 . S
H1003 C1022 0.950 . S
H1004 C1024 0.950 . S
H1005 C1025 0.950 . S
H1006 C1027 0.950 . S
H1007 C1030 0.950 . S
H1008 C1031 0.950 . S
H1009 C1033 0.951 . S
H1010 C1034 0.949 . S
H1011 C1036 0.949 . S
H1012 C1037 0.950 . S
H1013 C1039 0.950 . S
H1014 C1040 0.950 . S
H1015 C1042 0.950 . S
H1016 C1045 0.950 . S
H1017 C1046 0.950 . S
H1018 C1048 0.951 . S
H1019 C1049 0.949 . S
C1020 C1021 1.376 . S
C1020 C1025 1.386 . S
C1020 C1026 1.483 . S
C1021 H1002 0.949 . S
C1021 C1020 1.376 . S
C1021 C1022 1.397 . S
C1022 H1003 0.950 . S
C1022 C1021 1.397 . S
C1022 C1023 1.391 . S
C1023 C1022 1.391 . S
C1023 C1024 1.405 . S
C1024 H1004 0.950 . S
C1024 C1023 1.405 . S
C1024 C1025 1.367 . S
C1025 H1005 0.950 . S
C1025 C1020 1.386 . S
C1025 C1024 1.367 . S
C1026 C1020 1.483 . S
C1026 C1027 1.382 . S
C1026 C1028 1.403 . S
C1027 H1006 0.950 . S
C1027 C1026 1.382 . S
C1027 C1043 1.411 . S
C1028 C1026 1.403 . S
C1028 C1029 1.489 . S
C1028 C1042 1.411 . S
C1029 C1028 1.489 . S
C1029 C1030 1.383 . S
C1029 C1034 1.382 . S
C1030 H1007 0.950 . S
C1030 C1029 1.383 . S
C1030 C1031 1.395 . S
C1031 H1008 0.950 . S
C1031 C1030 1.395 . S
C1031 C1032 1.288 . S
C1032 C1031 1.288 . S
C1032 C1033 1.392 . S
C1033 H1009 0.951 . S
C1033 C1032 1.392 . S
C1033 C1034 1.392 . S
C1034 H1010 0.949 . S
C1034 C1029 1.382 . S
C1034 C1033 1.392 . S
C1035 C1036 1.376 . S
C1035 C1040 1.386 . S
C1035 C1041 1.483 . S
C1036 H1011 0.949 . S
C1036 C1035 1.376 . S
C1036 C1037 1.397 . S
C1037 H1012 0.950 . S
C1037 C1036 1.397 . S
C1037 C1038 1.391 . S
C1038 C1037 1.391 . S
C1038 C1039 1.405 . S
C1039 H1013 0.950 . S
C1039 C1038 1.405 . S
C1039 C1040 1.367 . S
C1040 H1014 0.950 . S
C1040 C1035 1.386 . S
C1040 C1039 1.367 . S
C1041 C1035 1.483 . S
C1041 C1042 1.382 . S
C1041 C1043 1.403 . S
C1042 H1015 0.950 . S
C1042 C1028 1.411 . S
C1042 C1041 1.382 . S
C1043 C1027 1.411 . S
C1043 C1041 1.403 . S
C1043 C1044 1.489 . S
C1044 C1043 1.489 . S
C1044 C1045 1.383 . S
C1044 C1049 1.382 . S
C1045 H1016 0.950 . S
C1045 C1044 1.383 . S
C1045 C1046 1.395 . S
C1046 H1017 0.950 . S
C1046 C1045 1.395 . S
C1046 C1047 1.288 . S
C1047 C1046 1.288 . S
C1047 C1048 1.392 . S
C1048 H1018 0.951 . S
C1048 C1047 1.392 . S
C1048 C1049 1.392 . S
C1049 H1019 0.949 . S
C1049 C1044 1.382 . S
C1049 C1048 1.392 . S
H1050 C1069 0.949 . S
H1051 C1070 0.950 . S
H1052 C1072 0.950 . S
H1053 C1073 0.950 . S
H1054 C1075 0.950 . S
H1055 C1078 0.950 . S
H1056 C1079 0.950 . S
H1057 C1081 0.951 . S
H1058 C1082 0.949 . S
H1059 C1084 0.949 . S
H1060 C1085 0.950 . S
H1061 C1087 0.950 . S
H1062 C1088 0.950 . S
H1063 C1090 0.950 . S
H1064 C1093 0.950 . S
H1065 C1094 0.950 . S
H1066 C1096 0.951 . S
H1067 C1097 0.949 . S
C1068 C1069 1.376 . S
C1068 C1073 1.386 . S
C1068 C1074 1.483 . S
C1069 H1050 0.949 . S
C1069 C1068 1.376 . S
C1069 C1070 1.397 . S
C1070 H1051 0.950 . S
C1070 C1069 1.397 . S
C1070 C1071 1.391 . S
C1071 C1070 1.391 . S
C1071 C1072 1.405 . S
C1072 H1052 0.950 . S
C1072 C1071 1.405 . S
C1072 C1073 1.367 . S
C1073 H1053 0.950 . S
C1073 C1068 1.386 . S
C1073 C1072 1.367 . S
C1074 C1068 1.483 . S
C1074 C1075 1.382 . S
C1074 C1076 1.403 . S
C1075 H1054 0.950 . S
C1075 C1074 1.382 . S
C1075 C1091 1.411 . S
C1076 C1074 1.403 . S
C1076 C1077 1.489 . S
C1076 C1090 1.411 . S
C1077 C1076 1.489 . S
C1077 C1078 1.383 . S
C1077 C1082 1.382 . S
C1078 H1055 0.950 . S
C1078 C1077 1.383 . S
C1078 C1079 1.395 . S
C1079 H1056 0.950 . S
C1079 C1078 1.395 . S
C1079 C1080 1.288 . S
C1080 C1079 1.288 . S
C1080 C1081 1.392 . S
C1081 H1057 0.951 . S
C1081 C1080 1.392 . S
C1081 C1082 1.392 . S
C1082 H1058 0.949 . S
C1082 C1077 1.382 . S
C1082 C1081 1.392 . S
C1083 C1084 1.376 . S
C1083 C1088 1.386 . S
C1083 C1089 1.483 . S
C1084 H1059 0.949 . S
C1084 C1083 1.376 . S
C1084 C1085 1.397 . S
C1085 H1060 0.950 . S
C1085 C1084 1.397 . S
C1085 C1086 1.391 . S
C1086 C1085 1.391 . S
C1086 C1087 1.405 . S
C1087 H1061 0.950 . S
C1087 C1086 1.405 . S
C1087 C1088 1.367 . S
C1088 H1062 0.950 . S
C1088 C1083 1.386 . S
C1088 C1087 1.367 . S
C1089 C1083 1.483 . S
C1089 C1090 1.382 . S
C1089 C1091 1.403 . S
C1090 H1063 0.950 . S
C1090 C1076 1.411 . S
C1090 C1089 1.382 . S
C1091 C1075 1.411 . S
C1091 C1089 1.403 . S
C1091 C1092 1.489 . S
C1092 C1091 1.489 . S
C1092 C1093 1.383 . S
C1092 C1097 1.382 . S
C1093 H1064 0.950 . S
C1093 C1092 1.383 . S
C1093 C1094 1.395 . S
C1094 H1065 0.950 . S
C1094 C1093 1.395 . S
C1094 C1095 1.288 . S
C1095 C1094 1.288 . S
C1095 C1096 1.392 . S
C1096 H1066 0.951 . S
C1096 C1095 1.392 . S
C1096 C1097 1.392 . S
C1097 H1067 0.949 . S
C1097 C1092 1.382 . S
C1097 C1096 1.392 . S
C1098 C1099 1.403 . S
C1098 C1100 1.419 . S
C1098 H1102 0.930 . S
C1099 C1098 1.403 . S
C1099 C1108 1.409 1_655 S
C1100 C1098 1.419 . S
C1100 C1101 1.363 . S
C1100 H1103 0.929 . S
C1101 C1100 1.363 . S
C1101 C1107 1.428 1_655 S
H1102 C1098 0.930 . S
H1103 C1100 0.929 . S
S1104 N1105 1.613 . S
S1104 N1106 1.610 . S
N1105 S1104 1.613 . S
N1105 C1108 1.350 . S
N1106 S1104 1.610 . S
N1106 C1107 1.351 . S
C1107 C1101 1.428 1_455 S
C1107 N1106 1.351 . S
C1107 C1108 1.434 . S
C1108 C1099 1.409 1_455 S
C1108 N1105 1.350 . S
C1108 C1107 1.434 . S
C1109 C1110 1.369 . S
C1109 C1111 1.419 . S
C1109 H1113 0.930 . S
C1110 C1109 1.369 . S
C1110 C1119 1.429 . S
C1111 C1109 1.419 . S
C1111 C1112 1.363 . S
C1111 H1114 0.929 . S
C1112 C1111 1.363 . S
C1112 C1118 1.428 . S
H1113 C1109 0.930 . S
H1114 C1111 0.929 . S
S1115 N1116 1.613 . S
S1115 N1117 1.610 . S
N1116 S1115 1.613 . S
N1116 C1119 1.350 . S
N1117 S1115 1.610 . S
N1117 C1118 1.351 . S
C1118 C1112 1.428 . S
C1118 N1117 1.351 . S
C1118 C1119 1.434 . S
C1119 C1110 1.429 . S
C1119 N1116 1.350 . S
C1119 C1118 1.434 . S
C1120 C1121 1.369 . S
C1120 C1122 1.419 . S
C1120 H1124 0.930 . S
C1121 C1120 1.369 . S
C1121 C1130 1.429 1_545 S
C1122 C1120 1.419 . S
C1122 C1123 1.363 . S
C1122 H1125 0.929 . S
C1123 C1122 1.363 . S
C1123 C1129 1.428 1_545 S
H1124 C1120 0.930 . S
H1125 C1122 0.929 . S
S1126 N1127 1.613 . S
S1126 N1128 1.610 . S
N1127 S1126 1.613 . S
N1127 C1130 1.350 . S
N1128 S1126 1.610 . S
N1128 C1129 1.351 . S
C1129 C1123 1.428 1_565 S
C1129 N1128 1.351 . S
C1129 C1130 1.434 . S
C1130 C1121 1.429 1_565 S
C1130 N1127 1.350 . S
C1130 C1129 1.434 . S
C1131 C1132 1.377 . S
C1131 C1133 1.419 . S
C1131 H1135 0.930 . S
C1132 C1131 1.377 . S
C1132 C1141 1.424 1_565 S
C1133 C1131 1.419 . S
C1133 C1134 1.363 . S
C1133 H1136 0.929 . S
C1134 C1133 1.363 . S
C1134 C1140 1.428 1_565 S
H1135 C1131 0.930 . S
H1136 C1133 0.929 . S
S1137 N1138 1.613 . S
S1137 N1139 1.610 . S
N1138 S1137 1.613 . S
N1138 C1141 1.350 . S
N1139 S1137 1.610 . S
N1139 C1140 1.351 . S
C1140 C1134 1.428 1_545 S
C1140 N1139 1.351 . S
C1140 C1141 1.434 . S
C1141 C1132 1.424 1_545 S
C1141 N1138 1.350 . S
C1141 C1140 1.434 . S
C1142 C1143 1.369 1_655 S
C1142 C1144 1.419 . S
C1142 H1146 0.930 . S
C1143 C1142 1.369 1_455 S
C1143 C1152 1.429 . S
C1144 C1142 1.419 . S
C1144 C1145 1.363 1_655 S
C1144 H1147 0.929 . S
C1145 C1144 1.363 1_455 S
C1145 C1151 1.428 . S
H1146 C1142 0.930 . S
H1147 C1144 0.929 . S
S1148 N1149 1.613 . S
S1148 N1150 1.610 . S
N1149 S1148 1.613 . S
N1149 C1152 1.350 . S
N1150 S1148 1.610 . S
N1150 C1151 1.351 . S
C1151 C1145 1.428 . S
C1151 N1150 1.351 . S
C1151 C1152 1.434 . S
C1152 C1143 1.429 . S
C1152 N1149 1.350 . S
C1152 C1151 1.434 . S
C1153 C1154 1.369 . S
C1153 C1155 1.419 . S
C1153 H1157 0.930 . S
C1154 C1153 1.369 . S
C1154 C1163 1.429 . S
C1155 C1153 1.419 . S
C1155 C1156 1.363 . S
C1155 H1158 0.929 . S
C1156 C1155 1.363 . S
C1156 C1162 1.428 . S
H1157 C1153 0.930 . S
H1158 C1155 0.929 . S
S1159 N1160 1.613 . S
S1159 N1161 1.610 . S
N1160 S1159 1.613 . S
N1160 C1163 1.350 . S
N1161 S1159 1.610 . S
N1161 C1162 1.351 . S
C1162 C1156 1.428 . S
C1162 N1161 1.351 . S
C1162 C1163 1.434 . S
C1163 C1154 1.429 . S
C1163 N1160 1.350 . S
C1163 C1162 1.434 . S
C1164 C1165 1.369 . S
C1164 C1166 1.419 . S
C1164 H1168 0.930 . S
C1165 C1164 1.369 . S
C1165 C1174 1.429 1_455 S
C1166 C1164 1.419 . S
C1166 C1167 1.363 . S
C1166 H1169 0.929 . S
C1167 C1166 1.363 . S
C1167 C1173 1.428 1_455 S
H1168 C1164 0.930 . S
H1169 C1166 0.929 . S
S1170 N1171 1.613 . S
S1170 N1172 1.610 . S
N1171 S1170 1.613 . S
N1171 C1174 1.350 . S
N1172 S1170 1.610 . S
N1172 C1173 1.351 . S
C1173 C1167 1.428 1_655 S
C1173 N1172 1.351 . S
C1173 C1174 1.434 . S
C1174 C1165 1.429 1_655 S
C1174 N1171 1.350 . S
C1174 C1173 1.434 . S
C1175 C1176 1.369 . S
C1175 C1177 1.419 . S
C1175 H1179 0.930 . S
C1176 C1175 1.369 . S
C1176 C1185 1.429 . S
C1177 C1175 1.419 . S
C1177 C1178 1.363 . S
C1177 H1180 0.929 . S
C1178 C1177 1.363 . S
C1178 C1184 1.428 . S
H1179 C1175 0.930 . S
H1180 C1177 0.929 . S
S1181 N1182 1.613 . S
S1181 N1183 1.610 . S
N1182 S1181 1.613 . S
N1182 C1185 1.350 . S
N1183 S1181 1.610 . S
N1183 C1184 1.351 . S
C1184 C1178 1.428 . S
C1184 N1183 1.351 . S
C1184 C1185 1.434 . S
C1185 C1176 1.429 . S
C1185 N1182 1.350 . S
C1185 C1184 1.434 . S
C1186 C1187 1.388 . S
C1186 C1188 1.419 . S
C1186 H1190 0.930 . S
C1187 C1186 1.388 . S
C1187 C1196 1.399 1_565 S
C1188 C1186 1.419 . S
C1188 C1189 1.363 . S
C1188 H1191 0.929 . S
C1189 C1188 1.363 . S
C1189 C1195 1.428 1_565 S
H1190 C1186 0.930 . S
H1191 C1188 0.929 . S
S1192 N1193 1.613 . S
S1192 N1194 1.610 . S
N1193 S1192 1.613 . S
N1193 C1196 1.350 . S
N1194 S1192 1.610 . S
N1194 C1195 1.351 . S
C1195 C1189 1.428 1_545 S
C1195 N1194 1.351 . S
C1195 C1196 1.434 . S
C1196 C1187 1.399 1_545 S
C1196 N1193 1.350 . S
C1196 C1195 1.434 . S
C1197 C1198 1.369 1_565 S
C1197 C1199 1.419 . S
C1197 H1201 0.930 . S
C1198 C1197 1.369 1_545 S
C1198 C1207 1.429 . S
C1199 C1197 1.419 . S
C1199 C1200 1.363 1_565 S
C1199 H1202 0.929 . S
C1200 C1199 1.363 1_545 S
C1200 C1206 1.428 . S
H1201 C1197 0.930 . S
H1202 C1199 0.929 . S
S1203 N1204 1.613 . S
S1203 N1205 1.610 . S
N1204 S1203 1.613 . S
N1204 C1207 1.350 . S
N1205 S1203 1.610 . S
N1205 C1206 1.351 . S
C1206 C1200 1.428 . S
C1206 N1205 1.351 . S
C1206 C1207 1.434 . S
C1207 C1198 1.429 . S
C1207 N1204 1.350 . S
C1207 C1206 1.434 . S
C1208 C1209 1.382 . S
C1208 C1210 1.419 . S
C1208 H1212 0.930 . S
C1209 C1208 1.382 . S
C1209 C1218 1.405 1_655 S
C1210 C1208 1.419 . S
C1210 C1211 1.363 . S
C1210 H1213 0.929 . S
C1211 C1210 1.363 . S
C1211 C1217 1.428 1_655 S
H1212 C1208 0.930 . S
H1213 C1210 0.929 . S
S1214 N1215 1.613 . S
S1214 N1216 1.610 . S
N1215 S1214 1.613 . S
N1215 C1218 1.350 . S
N1216 S1214 1.610 . S
N1216 C1217 1.351 . S
C1217 C1211 1.428 1_455 S
C1217 N1216 1.351 . S
C1217 C1218 1.434 . S
C1218 C1209 1.405 1_455 S
C1218 N1215 1.350 . S
C1218 C1217 1.434 . S
C1219 C1220 1.369 . S
C1219 C1221 1.419 . S
C1219 H1223 0.930 . S
C1220 C1219 1.369 . S
C1220 C1229 1.429 . S
C1221 C1219 1.419 . S
C1221 C1222 1.363 . S
C1221 H1224 0.929 . S
C1222 C1221 1.363 . S
C1222 C1228 1.428 . S
H1223 C1219 0.930 . S
H1224 C1221 0.929 . S
S1225 N1226 1.613 . S
S1225 N1227 1.610 . S
N1226 S1225 1.613 . S
N1226 C1229 1.350 . S
N1227 S1225 1.610 . S
N1227 C1228 1.351 . S
C1228 C1222 1.428 . S
C1228 N1227 1.351 . S
C1228 C1229 1.434 . S
C1229 C1220 1.429 . S
C1229 N1226 1.350 . S
C1229 C1228 1.434 . S
C1230 C1231 1.369 . S
C1230 C1232 1.419 . S
C1230 H1234 0.930 . S
C1231 C1230 1.369 . S
C1231 C1240 1.429 . S
C1232 C1230 1.419 . S
C1232 C1233 1.363 . S
C1232 H1235 0.929 . S
C1233 C1232 1.363 . S
C1233 C1239 1.428 . S
H1234 C1230 0.930 . S
H1235 C1232 0.929 . S
S1236 N1237 1.613 . S
S1236 N1238 1.610 . S
N1237 S1236 1.613 . S
N1237 C1240 1.350 . S
N1238 S1236 1.610 . S
N1238 C1239 1.351 . S
C1239 C1233 1.428 . S
C1239 N1238 1.351 . S
C1239 C1240 1.434 . S
C1240 C1231 1.429 . S
C1240 N1237 1.350 . S
C1240 C1239 1.434 . S
C1241 C1242 1.369 . S
C1241 C1243 1.419 . S
C1241 H1245 0.930 . S
C1242 C1241 1.369 . S
C1242 C1251 1.429 . S
C1243 C1241 1.419 . S
C1243 C1244 1.363 . S
C1243 H1246 0.929 . S
C1244 C1243 1.363 . S
C1244 C1250 1.428 . S
H1245 C1241 0.930 . S
H1246 C1243 0.929 . S
S1247 N1248 1.613 . S
S1247 N1249 1.610 . S
N1248 S1247 1.613 . S
N1248 C1251 1.350 . S
N1249 S1247 1.610 . S
N1249 C1250 1.351 . S
C1250 C1244 1.428 . S
C1250 N1249 1.351 . S
C1250 C1251 1.434 . S
C1251 C1242 1.429 . S
C1251 N1248 1.350 . S
C1251 C1250 1.434 . S
C1252 C1253 1.369 . S
C1252 C1254 1.419 . S
C1252 H1256 0.930 . S
C1253 C1252 1.369 . S
C1253 C1262 1.429 . S
C1254 C1252 1.419 . S
C1254 C1255 1.363 . S
C1254 H1257 0.929 . S
C1255 C1254 1.363 . S
C1255 C1261 1.428 . S
H1256 C1252 0.930 . S
H1257 C1254 0.929 . S
S1258 N1259 1.613 . S
S1258 N1260 1.610 . S
N1259 S1258 1.613 . S
N1259 C1262 1.350 . S
N1260 S1258 1.610 . S
N1260 C1261 1.351 . S
C1261 C1255 1.428 . S
C1261 N1260 1.351 . S
C1261 C1262 1.434 . S
C1262 C1253 1.429 . S
C1262 N1259 1.350 . S
C1262 C1261 1.434 . S
C1263 C1264 1.369 . S
C1263 C1265 1.419 . S
C1263 H1267 0.930 . S
C1264 C1263 1.369 . S
C1264 C1273 1.429 . S
C1265 C1263 1.419 . S
C1265 C1266 1.363 . S
C1265 H1268 0.929 . S
C1266 C1265 1.363 . S
C1266 C1272 1.428 . S
H1267 C1263 0.930 . S
H1268 C1265 0.929 . S
S1269 N1270 1.613 . S
S1269 N1271 1.610 . S
N1270 S1269 1.613 . S
N1270 C1273 1.350 . S
N1271 S1269 1.610 . S
N1271 C1272 1.351 . S
C1272 C1266 1.428 . S
C1272 N1271 1.351 . S
C1272 C1273 1.434 . S
C1273 C1264 1.429 . S
C1273 N1270 1.350 . S
C1273 C1272 1.434 . S
C1274 C1275 1.369 . S
C1274 C1276 1.419 . S
C1274 H1278 0.930 . S
C1275 C1274 1.369 . S
C1275 C1284 1.429 . S
C1276 C1274 1.419 . S
C1276 C1277 1.363 . S
C1276 H1279 0.929 . S
C1277 C1276 1.363 . S
C1277 C1283 1.428 . S
H1278 C1274 0.930 . S
H1279 C1276 0.929 . S
S1280 N1281 1.613 . S
S1280 N1282 1.610 . S
N1281 S1280 1.613 . S
N1281 C1284 1.350 . S
N1282 S1280 1.610 . S
N1282 C1283 1.351 . S
C1283 C1277 1.428 . S
C1283 N1282 1.351 . S
C1283 C1284 1.434 . S
C1284 C1275 1.429 . S
C1284 N1281 1.350 . S
C1284 C1283 1.434 . S
C1285 C1286 1.369 . S
C1285 C1287 1.419 . S
C1285 H1289 0.930 . S
C1286 C1285 1.369 . S
C1286 C1295 1.429 . S
C1287 C1285 1.419 . S
C1287 C1288 1.363 . S
C1287 H1290 0.929 . S
C1288 C1287 1.363 . S
C1288 C1294 1.428 . S
H1289 C1285 0.930 . S
H1290 C1287 0.929 . S
S1291 N1292 1.613 . S
S1291 N1293 1.610 . S
N1292 S1291 1.613 . S
N1292 C1295 1.350 . S
N1293 S1291 1.610 . S
N1293 C1294 1.351 . S
C1294 C1288 1.428 . S
C1294 N1293 1.351 . S
C1294 C1295 1.434 . S
C1295 C1286 1.429 . S
C1295 N1292 1.350 . S
C1295 C1294 1.434 . S
C1296 C1297 1.369 . S
C1296 C1298 1.419 . S
C1296 H1300 0.930 . S
C1297 C1296 1.369 . S
C1297 C1306 1.429 . S
C1298 C1296 1.419 . S
C1298 C1299 1.363 . S
C1298 H1301 0.929 . S
C1299 C1298 1.363 . S
C1299 C1305 1.428 . S
H1300 C1296 0.930 . S
H1301 C1298 0.929 . S
S1302 N1303 1.613 . S
S1302 N1304 1.610 . S
N1303 S1302 1.613 . S
N1303 C1306 1.350 . S
N1304 S1302 1.610 . S
N1304 C1305 1.351 . S
C1305 C1299 1.428 . S
C1305 N1304 1.351 . S
C1305 C1306 1.434 . S
C1306 C1297 1.429 . S
C1306 N1303 1.350 . S
C1306 C1305 1.434 . S
C1307 C1308 1.369 . S
C1307 C1309 1.419 . S
C1307 H1311 0.930 . S
C1308 C1307 1.369 . S
C1308 C1317 1.429 . S
C1309 C1307 1.419 . S
C1309 C1310 1.363 . S
C1309 H1312 0.929 . S
C1310 C1309 1.363 . S
C1310 C1316 1.428 . S
H1311 C1307 0.930 . S
H1312 C1309 0.929 . S
S1313 N1314 1.613 . S
S1313 N1315 1.610 . S
N1314 S1313 1.613 . S
N1314 C1317 1.350 . S
N1315 S1313 1.610 . S
N1315 C1316 1.351 . S
C1316 C1310 1.428 . S
C1316 N1315 1.351 . S
C1316 C1317 1.434 . S
C1317 C1308 1.429 . S
C1317 N1314 1.350 . S
C1317 C1316 1.434 . S
C1318 C1319 1.369 . S
C1318 C1320 1.419 . S
C1318 H1322 0.930 . S
C1319 C1318 1.369 . S
C1319 C1328 1.429 . S
C1320 C1318 1.419 . S
C1320 C1321 1.363 . S
C1320 H1323 0.929 . S
C1321 C1320 1.363 . S
C1321 C1327 1.428 . S
H1322 C1318 0.930 . S
H1323 C1320 0.929 . S
S1324 N1325 1.613 . S
S1324 N1326 1.610 . S
N1325 S1324 1.613 . S
N1325 C1328 1.350 . S
N1326 S1324 1.610 . S
N1326 C1327 1.351 . S
C1327 C1321 1.428 . S
C1327 N1326 1.351 . S
C1327 C1328 1.434 . S
C1328 C1319 1.429 . S
C1328 N1325 1.350 . S
C1328 C1327 1.434 . S
C1329 C1330 1.369 . S
C1329 C1331 1.419 . S
C1329 H1333 0.930 . S
C1330 C1329 1.369 . S
C1330 C1339 1.429 . S
C1331 C1329 1.419 . S
C1331 C1332 1.363 . S
C1331 H1334 0.929 . S
C1332 C1331 1.363 . S
C1332 C1338 1.428 . S
H1333 C1329 0.930 . S
H1334 C1331 0.929 . S
S1335 N1336 1.613 . S
S1335 N1337 1.610 . S
N1336 S1335 1.613 . S
N1336 C1339 1.350 . S
N1337 S1335 1.610 . S
N1337 C1338 1.351 . S
C1338 C1332 1.428 . S
C1338 N1337 1.351 . S
C1338 C1339 1.434 . S
C1339 C1330 1.429 . S
C1339 N1336 1.350 . S
C1339 C1338 1.434 . S
C1340 C1341 1.369 . S
C1340 C1342 1.419 . S
C1340 H1344 0.930 . S
C1341 C1340 1.369 . S
C1341 C1350 1.429 . S
C1342 C1340 1.419 . S
C1342 C1343 1.363 . S
C1342 H1345 0.929 . S
C1343 C1342 1.363 . S
C1343 C1349 1.428 . S
H1344 C1340 0.930 . S
H1345 C1342 0.929 . S
S1346 N1347 1.613 . S
S1346 N1348 1.610 . S
N1347 S1346 1.613 . S
N1347 C1350 1.350 . S
N1348 S1346 1.610 . S
N1348 C1349 1.351 . S
C1349 C1343 1.428 . S
C1349 N1348 1.351 . S
C1349 C1350 1.434 . S
C1350 C1341 1.429 . S
C1350 N1347 1.350 . S
C1350 C1349 1.434 . S
C1351 C1352 1.369 . S
C1351 C1353 1.419 . S
C1351 H1355 0.930 . S
C1352 C1351 1.369 . S
C1352 C1361 1.429 . S
C1353 C1351 1.419 . S
C1353 C1354 1.363 . S
C1353 H1356 0.929 . S
C1354 C1353 1.363 . S
C1354 C1360 1.428 . S
H1355 C1351 0.930 . S
H1356 C1353 0.929 . S
S1357 N1358 1.613 . S
S1357 N1359 1.610 . S
N1358 S1357 1.613 . S
N1358 C1361 1.350 . S
N1359 S1357 1.610 . S
N1359 C1360 1.351 . S
C1360 C1354 1.428 . S
C1360 N1359 1.351 . S
C1360 C1361 1.434 . S
C1361 C1352 1.429 . S
C1361 N1358 1.350 . S
C1361 C1360 1.434 . S
C1362 C1363 1.369 . S
C1362 C1364 1.419 . S
C1362 H1366 0.930 . S
C1363 C1362 1.369 . S
C1363 C1372 1.429 . S
C1364 C1362 1.419 . S
C1364 C1365 1.363 . S
C1364 H1367 0.929 . S
C1365 C1364 1.363 . S
C1365 C1371 1.428 . S
H1366 C1362 0.930 . S
H1367 C1364 0.929 . S
S1368 N1369 1.613 . S
S1368 N1370 1.610 . S
N1369 S1368 1.613 . S
N1369 C1372 1.350 . S
N1370 S1368 1.610 . S
N1370 C1371 1.351 . S
C1371 C1365 1.428 . S
C1371 N1370 1.351 . S
C1371 C1372 1.434 . S
C1372 C1363 1.429 . S
C1372 N1369 1.350 . S
C1372 C1371 1.434 . S
C1373 C1374 1.369 . S
C1373 C1375 1.419 . S
C1373 H1377 0.930 . S
C1374 C1373 1.369 . S
C1374 C1383 1.429 . S
C1375 C1373 1.419 . S
C1375 C1376 1.363 . S
C1375 H1378 0.929 . S
C1376 C1375 1.363 . S
C1376 C1382 1.428 . S
H1377 C1373 0.930 . S
H1378 C1375 0.929 . S
S1379 N1380 1.613 . S
S1379 N1381 1.610 . S
N1380 S1379 1.613 . S
N1380 C1383 1.350 . S
N1381 S1379 1.610 . S
N1381 C1382 1.351 . S
C1382 C1376 1.428 . S
C1382 N1381 1.351 . S
C1382 C1383 1.434 . S
C1383 C1374 1.429 . S
C1383 N1380 1.350 . S
C1383 C1382 1.434 . S
C1384 C1385 1.369 . S
C1384 C1386 1.419 . S
C1384 H1388 0.930 . S
C1385 C1384 1.369 . S
C1385 C1394 1.429 . S
C1386 C1384 1.419 . S
C1386 C1387 1.363 . S
C1386 H1389 0.929 . S
C1387 C1386 1.363 . S
C1387 C1393 1.428 . S
H1388 C1384 0.930 . S
H1389 C1386 0.929 . S
S1390 N1391 1.613 . S
S1390 N1392 1.610 . S
N1391 S1390 1.613 . S
N1391 C1394 1.350 . S
N1392 S1390 1.610 . S
N1392 C1393 1.351 . S
C1393 C1387 1.428 . S
C1393 N1392 1.351 . S
C1393 C1394 1.434 . S
C1394 C1385 1.429 . S
C1394 N1391 1.350 . S
C1394 C1393 1.434 . S
C1395 C1396 1.369 . S
C1395 C1397 1.419 . S
C1395 H1399 0.930 . S
C1396 C1395 1.369 . S
C1396 C1405 1.429 . S
C1397 C1395 1.419 . S
C1397 C1398 1.363 . S
C1397 H1400 0.929 . S
C1398 C1397 1.363 . S
C1398 C1404 1.428 . S
H1399 C1395 0.930 . S
H1400 C1397 0.929 . S
S1401 N1402 1.613 . S
S1401 N1403 1.610 . S
N1402 S1401 1.613 . S
N1402 C1405 1.350 . S
N1403 S1401 1.610 . S
N1403 C1404 1.351 . S
C1404 C1398 1.428 . S
C1404 N1403 1.351 . S
C1404 C1405 1.434 . S
C1405 C1396 1.429 . S
C1405 N1402 1.350 . S
C1405 C1404 1.434 . S
C1406 C1407 1.369 . S
C1406 C1408 1.419 . S
C1406 H1410 0.930 . S
C1407 C1406 1.369 . S
C1407 C1416 1.429 . S
C1408 C1406 1.419 . S
C1408 C1409 1.363 . S
C1408 H1411 0.929 . S
C1409 C1408 1.363 . S
C1409 C1415 1.428 . S
H1410 C1406 0.930 . S
H1411 C1408 0.929 . S
S1412 N1413 1.613 . S
S1412 N1414 1.610 . S
N1413 S1412 1.613 . S
N1413 C1416 1.350 . S
N1414 S1412 1.610 . S
N1414 C1415 1.351 . S
C1415 C1409 1.428 . S
C1415 N1414 1.351 . S
C1415 C1416 1.434 . S
C1416 C1407 1.429 . S
C1416 N1413 1.350 . S
C1416 C1415 1.434 . S
C1417 C1418 1.369 . S
C1417 C1419 1.419 . S
C1417 H1421 0.930 . S
C1418 C1417 1.369 . S
C1418 C1427 1.429 . S
C1419 C1417 1.419 . S
C1419 C1420 1.363 . S
C1419 H1422 0.929 . S
C1420 C1419 1.363 . S
C1420 C1426 1.428 . S
H1421 C1417 0.930 . S
H1422 C1419 0.929 . S
S1423 N1424 1.613 . S
S1423 N1425 1.610 . S
N1424 S1423 1.613 . S
N1424 C1427 1.350 . S
N1425 S1423 1.610 . S
N1425 C1426 1.351 . S
C1426 C1420 1.428 . S
C1426 N1425 1.351 . S
C1426 C1427 1.434 . S
C1427 C1418 1.429 . S
C1427 N1424 1.350 . S
C1427 C1426 1.434 . S
C1428 C1429 1.369 . S
C1428 C1430 1.419 . S
C1428 H1432 0.930 . S
C1429 C1428 1.369 . S
C1429 C1438 1.429 . S
C1430 C1428 1.419 . S
C1430 C1431 1.363 . S
C1430 H1433 0.929 . S
C1431 C1430 1.363 . S
C1431 C1437 1.428 . S
H1432 C1428 0.930 . S
H1433 C1430 0.929 . S
S1434 N1435 1.613 . S
S1434 N1436 1.610 . S
N1435 S1434 1.613 . S
N1435 C1438 1.350 . S
N1436 S1434 1.610 . S
N1436 C1437 1.351 . S
C1437 C1431 1.428 . S
C1437 N1436 1.351 . S
C1437 C1438 1.434 . S
C1438 C1429 1.429 . S
C1438 N1435 1.350 . S
C1438 C1437 1.434 . S
C1439 C1440 1.369 . S
C1439 C1441 1.419 . S
C1439 H1443 0.930 . S
C1440 C1439 1.369 . S
C1440 C1449 1.429 . S
C1441 C1439 1.419 . S
C1441 C1442 1.363 . S
C1441 H1444 0.929 . S
C1442 C1441 1.363 . S
C1442 C1448 1.428 . S
H1443 C1439 0.930 . S
H1444 C1441 0.929 . S
S1445 N1446 1.613 . S
S1445 N1447 1.610 . S
N1446 S1445 1.613 . S
N1446 C1449 1.350 . S
N1447 S1445 1.610 . S
N1447 C1448 1.351 . S
C1448 C1442 1.428 . S
C1448 N1447 1.351 . S
C1448 C1449 1.434 . S
C1449 C1440 1.429 . S
C1449 N1446 1.350 . S
C1449 C1448 1.434 . S
C1450 C1451 1.369 . S
C1450 C1452 1.419 . S
C1450 H1454 0.930 . S
C1451 C1450 1.369 . S
C1451 C1460 1.429 . S
C1452 C1450 1.419 . S
C1452 C1453 1.363 . S
C1452 H1455 0.929 . S
C1453 C1452 1.363 . S
C1453 C1459 1.428 . S
H1454 C1450 0.930 . S
H1455 C1452 0.929 . S
S1456 N1457 1.613 . S
S1456 N1458 1.610 . S
N1457 S1456 1.613 . S
N1457 C1460 1.350 . S
N1458 S1456 1.610 . S
N1458 C1459 1.351 . S
C1459 C1453 1.428 . S
C1459 N1458 1.351 . S
C1459 C1460 1.434 . S
C1460 C1451 1.429 . S
C1460 N1457 1.350 . S
C1460 C1459 1.434 . S
C1461 C1462 1.369 . S
C1461 C1463 1.419 . S
C1461 H1465 0.930 . S
C1462 C1461 1.369 . S
C1462 C1471 1.429 . S
C1463 C1461 1.419 . S
C1463 C1464 1.363 . S
C1463 H1466 0.929 . S
C1464 C1463 1.363 . S
C1464 C1470 1.428 . S
H1465 C1461 0.930 . S
H1466 C1463 0.929 . S
S1467 N1468 1.613 . S
S1467 N1469 1.610 . S
N1468 S1467 1.613 . S
N1468 C1471 1.350 . S
N1469 S1467 1.610 . S
N1469 C1470 1.351 . S
C1470 C1464 1.428 . S
C1470 N1469 1.351 . S
C1470 C1471 1.434 . S
C1471 C1462 1.429 . S
C1471 N1468 1.350 . S
C1471 C1470 1.434 . S
C1472 C1473 1.369 . S
C1472 C1474 1.419 . S
C1472 H1476 0.930 . S
C1473 C1472 1.369 . S
C1473 C1482 1.429 . S
C1474 C1472 1.419 . S
C1474 C1475 1.363 . S
C1474 H1477 0.929 . S
C1475 C1474 1.363 . S
C1475 C1481 1.428 . S
H1476 C1472 0.930 . S
H1477 C1474 0.929 . S
S1478 N1479 1.613 . S
S1478 N1480 1.610 . S
N1479 S1478 1.613 . S
N1479 C1482 1.350 . S
N1480 S1478 1.610 . S
N1480 C1481 1.351 . S
C1481 C1475 1.428 . S
C1481 N1480 1.351 . S
C1481 C1482 1.434 . S
C1482 C1473 1.429 . S
C1482 N1479 1.350 . S
C1482 C1481 1.434 . S
C1483 C1484 1.369 . S
C1483 C1485 1.419 . S
C1483 H1487 0.930 . S
C1484 C1483 1.369 . S
C1484 C1493 1.429 . S
C1485 C1483 1.419 . S
C1485 C1486 1.363 . S
C1485 H1488 0.929 . S
C1486 C1485 1.363 . S
C1486 C1492 1.428 . S
H1487 C1483 0.930 . S
H1488 C1485 0.929 . S
S1489 N1490 1.613 . S
S1489 N1491 1.610 . S
N1490 S1489 1.613 . S
N1490 C1493 1.350 . S
N1491 S1489 1.610 . S
N1491 C1492 1.351 . S
C1492 C1486 1.428 . S
C1492 N1491 1.351 . S
C1492 C1493 1.434 . S
C1493 C1484 1.429 . S
C1493 N1490 1.350 . S
C1493 C1492 1.434 . S
C1494 C1495 1.369 . S
C1494 C1496 1.419 . S
C1494 H1498 0.930 . S
C1495 C1494 1.369 . S
C1495 C1504 1.429 . S
C1496 C1494 1.419 . S
C1496 C1497 1.363 . S
C1496 H1499 0.929 . S
C1497 C1496 1.363 . S
C1497 C1503 1.428 . S
H1498 C1494 0.930 . S
H1499 C1496 0.929 . S
S1500 N1501 1.613 . S
S1500 N1502 1.610 . S
N1501 S1500 1.613 . S
N1501 C1504 1.350 . S
N1502 S1500 1.610 . S
N1502 C1503 1.351 . S
C1503 C1497 1.428 . S
C1503 N1502 1.351 . S
C1503 C1504 1.434 . S
C1504 C1495 1.429 . S
C1504 N1501 1.350 . S
C1504 C1503 1.434 . S
C1505 C1506 1.369 . S
C1505 C1507 1.419 . S
C1505 H1509 0.930 . S
C1506 C1505 1.369 . S
C1506 C1515 1.429 . S
C1507 C1505 1.419 . S
C1507 C1508 1.363 . S
C1507 H1510 0.929 . S
C1508 C1507 1.363 . S
C1508 C1514 1.428 . S
H1509 C1505 0.930 . S
H1510 C1507 0.929 . S
S1511 N1512 1.613 . S
S1511 N1513 1.610 . S
N1512 S1511 1.613 . S
N1512 C1515 1.350 . S
N1513 S1511 1.610 . S
N1513 C1514 1.351 . S
C1514 C1508 1.428 . S
C1514 N1513 1.351 . S
C1514 C1515 1.434 . S
C1515 C1506 1.429 . S
C1515 N1512 1.350 . S
C1515 C1514 1.434 . S
C1516 C1517 1.369 . S
C1516 C1518 1.419 . S
C1516 H1520 0.930 . S
C1517 C1516 1.369 . S
C1517 C1526 1.429 . S
C1518 C1516 1.419 . S
C1518 C1519 1.363 . S
C1518 H1521 0.929 . S
C1519 C1518 1.363 . S
C1519 C1525 1.428 . S
H1520 C1516 0.930 . S
H1521 C1518 0.929 . S
S1522 N1523 1.613 . S
S1522 N1524 1.610 . S
N1523 S1522 1.613 . S
N1523 C1526 1.350 . S
N1524 S1522 1.610 . S
N1524 C1525 1.351 . S
C1525 C1519 1.428 . S
C1525 N1524 1.351 . S
C1525 C1526 1.434 . S
C1526 C1517 1.429 . S
C1526 N1523 1.350 . S
C1526 C1525 1.434 . S
C1527 C1528 1.369 . S
C1527 C1529 1.419 . S
C1527 H1531 0.930 . S
C1528 C1527 1.369 . S
C1528 C1537 1.429 . S
C1529 C1527 1.419 . S
C1529 C1530 1.363 . S
C1529 H1532 0.929 . S
C1530 C1529 1.363 . S
C1530 C1536 1.428 . S
H1531 C1527 0.930 . S
H1532 C1529 0.929 . S
S1533 N1534 1.613 . S
S1533 N1535 1.610 1_554 S
N1534 S1533 1.613 . S
N1534 C1537 1.350 1_554 S
N1535 S1533 1.610 1_556 S
N1535 C1536 1.351 . S
C1536 C1530 1.428 . S
C1536 N1535 1.351 . S
C1536 C1537 1.434 . S
C1537 C1528 1.429 . S
C1537 N1534 1.350 1_556 S
C1537 C1536 1.434 . S
C1538 C1539 1.369 . S
C1538 C1540 1.419 . S
C1538 H1542 0.930 . S
C1539 C1538 1.369 . S
C1539 C1548 1.429 . S
C1540 C1538 1.419 . S
C1540 C1541 1.363 . S
C1540 H1543 0.929 . S
C1541 C1540 1.363 . S
C1541 C1547 1.428 . S
H1542 C1538 0.930 . S
H1543 C1540 0.929 . S
S1544 N1545 1.613 . S
S1544 N1546 1.610 . S
N1545 S1544 1.613 . S
N1545 C1548 1.350 . S
N1546 S1544 1.610 . S
N1546 C1547 1.351 . S
C1547 C1541 1.428 . S
C1547 N1546 1.351 . S
C1547 C1548 1.434 . S
C1548 C1539 1.429 . S
C1548 N1545 1.350 . S
C1548 C1547 1.434 . S
C1549 C1550 1.369 . S
C1549 C1551 1.419 . S
C1549 H1553 0.930 . S
C1550 C1549 1.369 . S
C1550 C1559 1.429 . S
C1551 C1549 1.419 . S
C1551 C1552 1.363 . S
C1551 H1554 0.929 . S
C1552 C1551 1.363 . S
C1552 C1558 1.428 . S
H1553 C1549 0.930 . S
H1554 C1551 0.929 . S
S1555 N1556 1.613 . S
S1555 N1557 1.610 . S
N1556 S1555 1.613 . S
N1556 C1559 1.350 . S
N1557 S1555 1.610 . S
N1557 C1558 1.351 . S
C1558 C1552 1.428 . S
C1558 N1557 1.351 . S
C1558 C1559 1.434 . S
C1559 C1550 1.429 . S
C1559 N1556 1.350 . S
C1559 C1558 1.434 . S
C1560 C1561 1.369 . S
C1560 C1562 1.419 . S
C1560 H1564 0.930 . S
C1561 C1560 1.369 . S
C1561 C1570 1.429 . S
C1562 C1560 1.419 . S
C1562 C1563 1.363 . S
C1562 H1565 0.929 . S
C1563 C1562 1.363 . S
C1563 C1569 1.428 . S
H1564 C1560 0.930 . S
H1565 C1562 0.929 . S
S1566 N1567 1.613 . S
S1566 N1568 1.610 1_554 S
N1567 S1566 1.613 . S
N1567 C1570 1.350 1_554 S
N1568 S1566 1.610 1_556 S
N1568 C1569 1.351 . S
C1569 C1563 1.428 . S
C1569 N1568 1.351 . S
C1569 C1570 1.434 . S
C1570 C1561 1.429 . S
C1570 N1567 1.350 1_556 S
C1570 C1569 1.434 . S
C1571 C1572 1.369 . S
C1571 C1573 1.419 . S
C1571 H1575 0.930 . S
C1572 C1571 1.369 . S
C1572 C1581 1.429 . S
C1573 C1571 1.419 . S
C1573 C1574 1.363 . S
C1573 H1576 0.929 . S
C1574 C1573 1.363 . S
C1574 C1580 1.428 . S
H1575 C1571 0.930 . S
H1576 C1573 0.929 . S
S1577 N1578 1.613 . S
S1577 N1579 1.610 1_554 S
N1578 S1577 1.613 . S
N1578 C1581 1.350 1_554 S
N1579 S1577 1.610 1_556 S
N1579 C1580 1.351 . S
C1580 C1574 1.428 . S
C1580 N1579 1.351 . S
C1580 C1581 1.434 . S
C1581 C1572 1.429 . S
C1581 N1578 1.350 1_556 S
C1581 C1580 1.434 . S
C1582 C1583 1.369 . S
C1582 C1584 1.419 . S
C1582 H1586 0.930 . S
C1583 C1582 1.369 . S
C1583 C1592 1.429 . S
C1584 C1582 1.419 . S
C1584 C1585 1.363 . S
C1584 H1587 0.929 . S
C1585 C1584 1.363 . S
C1585 C1591 1.428 . S
H1586 C1582 0.930 . S
H1587 C1584 0.929 . S
S1588 N1589 1.613 . S
S1588 N1590 1.610 1_554 S
N1589 S1588 1.613 . S
N1589 C1592 1.350 1_554 S
N1590 S1588 1.610 1_556 S
N1590 C1591 1.351 . S
C1591 C1585 1.428 . S
C1591 N1590 1.351 . S
C1591 C1592 1.434 . S
C1592 C1583 1.429 . S
C1592 N1589 1.350 1_556 S
C1592 C1591 1.434 . S
C1593 C1594 1.369 . S
C1593 C1595 1.419 . S
C1593 H1597 0.930 . S
C1594 C1593 1.369 . S
C1594 C1603 1.429 . S
C1595 C1593 1.419 . S
C1595 C1596 1.363 . S
C1595 H1598 0.929 . S
C1596 C1595 1.363 . S
C1596 C1602 1.428 . S
H1597 C1593 0.930 . S
H1598 C1595 0.929 . S
S1599 N1600 1.613 . S
S1599 N1601 1.610 . S
N1600 S1599 1.613 . S
N1600 C1603 1.350 . S
N1601 S1599 1.610 . S
N1601 C1602 1.351 . S
C1602 C1596 1.428 . S
C1602 N1601 1.351 . S
C1602 C1603 1.434 . S
C1603 C1594 1.429 . S
C1603 N1600 1.350 . S
C1603 C1602 1.434 . S
C1604 C1605 1.369 . S
C1604 C1606 1.419 . S
C1604 H1608 0.930 . S
C1605 C1604 1.369 . S
C1605 C1614 1.429 . S
C1606 C1604 1.419 . S
C1606 C1607 1.363 . S
C1606 H1609 0.929 . S
C1607 C1606 1.363 . S
C1607 C1613 1.428 . S
H1608 C1604 0.930 . S
H1609 C1606 0.929 . S
S1610 N1611 1.613 . S
S1610 N1612 1.610 . S
N1611 S1610 1.613 . S
N1611 C1614 1.350 . S
N1612 S1610 1.610 . S
N1612 C1613 1.351 . S
C1613 C1607 1.428 . S
C1613 N1612 1.351 . S
C1613 C1614 1.434 . S
C1614 C1605 1.429 . S
C1614 N1611 1.350 . S
C1614 C1613 1.434 . S
C1615 C1616 1.369 . S
C1615 C1617 1.419 . S
C1615 H1619 0.930 . S
C1616 C1615 1.369 . S
C1616 C1625 1.429 . S
C1617 C1615 1.419 . S
C1617 C1618 1.363 . S
C1617 H1620 0.929 . S
C1618 C1617 1.363 . S
C1618 C1624 1.428 . S
H1619 C1615 0.930 . S
H1620 C1617 0.929 . S
S1621 N1622 1.613 . S
S1621 N1623 1.610 . S
N1622 S1621 1.613 . S
N1622 C1625 1.350 . S
N1623 S1621 1.610 . S
N1623 C1624 1.351 . S
C1624 C1618 1.428 . S
C1624 N1623 1.351 . S
C1624 C1625 1.434 . S
C1625 C1616 1.429 . S
C1625 N1622 1.350 . S
C1625 C1624 1.434 . S
C1626 C1627 1.369 . S
C1626 C1628 1.419 . S
C1626 H1630 0.930 . S
C1627 C1626 1.369 . S
C1627 C1636 1.429 . S
C1628 C1626 1.419 . S
C1628 C1629 1.363 . S
C1628 H1631 0.929 . S
C1629 C1628 1.363 . S
C1629 C1635 1.428 . S
H1630 C1626 0.930 . S
H1631 C1628 0.929 . S
S1632 N1633 1.613 . S
S1632 N1634 1.610 . S
N1633 S1632 1.613 . S
N1633 C1636 1.350 . S
N1634 S1632 1.610 . S
N1634 C1635 1.351 . S
C1635 C1629 1.428 . S
C1635 N1634 1.351 . S
C1635 C1636 1.434 . S
C1636 C1627 1.429 . S
C1636 N1633 1.350 . S
C1636 C1635 1.434 . S
C1637 C1638 1.369 . S
C1637 C1639 1.419 . S
C1637 H1641 0.930 . S
C1638 C1637 1.369 . S
C1638 C1647 1.429 . S
C1639 C1637 1.419 . S
C1639 C1640 1.363 . S
C1639 H1642 0.929 . S
C1640 C1639 1.363 . S
C1640 C1646 1.428 . S
H1641 C1637 0.930 . S
H1642 C1639 0.929 . S
S1643 N1644 1.613 . S
S1643 N1645 1.610 . S
N1644 S1643 1.613 . S
N1644 C1647 1.350 . S
N1645 S1643 1.610 . S
N1645 C1646 1.351 . S
C1646 C1640 1.428 . S
C1646 N1645 1.351 . S
C1646 C1647 1.434 . S
C1647 C1638 1.429 . S
C1647 N1644 1.350 . S
C1647 C1646 1.434 . S
C1648 C1649 1.369 . S
C1648 C1650 1.419 . S
C1648 H1652 0.930 . S
C1649 C1648 1.369 . S
C1649 C1658 1.429 . S
C1650 C1648 1.419 . S
C1650 C1651 1.363 . S
C1650 H1653 0.929 . S
C1651 C1650 1.363 . S
C1651 C1657 1.428 . S
H1652 C1648 0.930 . S
H1653 C1650 0.929 . S
S1654 N1655 1.613 . S
S1654 N1656 1.610 . S
N1655 S1654 1.613 . S
N1655 C1658 1.350 . S
N1656 S1654 1.610 . S
N1656 C1657 1.351 . S
C1657 C1651 1.428 . S
C1657 N1656 1.351 . S
C1657 C1658 1.434 . S
C1658 C1649 1.429 . S
C1658 N1655 1.350 . S
C1658 C1657 1.434 . S
C1659 C1660 1.369 1_655 S
C1659 C1661 1.419 . S
C1659 H1663 0.930 . S
C1660 C1659 1.369 1_455 S
C1660 C1669 1.429 . S
C1661 C1659 1.419 . S
C1661 C1662 1.363 1_655 S
C1661 H1664 0.929 . S
C1662 C1661 1.363 1_455 S
C1662 C1668 1.428 . S
H1663 C1659 0.930 . S
H1664 C1661 0.929 . S
S1665 N1666 1.613 . S
S1665 N1667 1.610 . S
N1666 S1665 1.613 . S
N1666 C1669 1.350 . S
N1667 S1665 1.610 . S
N1667 C1668 1.351 . S
C1668 C1662 1.428 . S
C1668 N1667 1.351 . S
C1668 C1669 1.434 . S
C1669 C1660 1.429 . S
C1669 N1666 1.350 . S
C1669 C1668 1.434 . S
C1670 C1671 1.369 . S
C1670 C1672 1.419 . S
C1670 H1674 0.930 . S
C1671 C1670 1.369 . S
C1671 C1680 1.429 . S
C1672 C1670 1.419 . S
C1672 C1673 1.363 . S
C1672 H1675 0.929 . S
C1673 C1672 1.363 . S
C1673 C1679 1.428 . S
H1674 C1670 0.930 . S
H1675 C1672 0.929 . S
S1676 N1677 1.613 . S
S1676 N1678 1.610 . S
N1677 S1676 1.613 . S
N1677 C1680 1.350 . S
N1678 S1676 1.610 . S
N1678 C1679 1.351 . S
C1679 C1673 1.428 . S
C1679 N1678 1.351 . S
C1679 C1680 1.434 . S
C1680 C1671 1.429 . S
C1680 N1677 1.350 . S
C1680 C1679 1.434 . S
C1681 C1682 1.369 . S
C1681 C1683 1.419 . S
C1681 H1685 0.930 . S
C1682 C1681 1.369 . S
C1682 C1691 1.429 1_565 S
C1683 C1681 1.419 . S
C1683 C1684 1.363 . S
C1683 H1686 0.929 . S
C1684 C1683 1.363 . S
C1684 C1690 1.428 1_565 S
H1685 C1681 0.930 . S
H1686 C1683 0.929 . S
S1687 N1688 1.613 . S
S1687 N1689 1.610 . S
N1688 S1687 1.613 . S
N1688 C1691 1.350 . S
N1689 S1687 1.610 . S
N1689 C1690 1.351 . S
C1690 C1684 1.428 1_545 S
C1690 N1689 1.351 . S
C1690 C1691 1.434 . S
C1691 C1682 1.429 1_545 S
C1691 N1688 1.350 . S
C1691 C1690 1.434 . S
C1692 C1693 1.369 . S
C1692 C1694 1.419 . S
C1692 H1696 0.930 . S
C1693 C1692 1.369 . S
C1693 C1702 1.429 . S
C1694 C1692 1.419 . S
C1694 C1695 1.363 . S
C1694 H1697 0.929 . S
C1695 C1694 1.363 . S
C1695 C1701 1.428 . S
H1696 C1692 0.930 . S
H1697 C1694 0.929 . S
S1698 N1699 1.613 1_545 S
S1698 N1700 1.598 . S
N1699 S1698 1.613 1_565 S
N1699 C1702 1.350 . S
N1700 S1698 1.598 . S
N1700 C1701 1.348 1_545 S
C1701 C1695 1.428 . S
C1701 N1700 1.348 1_565 S
C1701 C1702 1.434 . S
C1702 C1693 1.429 . S
C1702 N1699 1.350 . S
C1702 C1701 1.434 . S
C1703 C1704 1.369 1_655 S
C1703 C1705 1.419 . S
C1703 H1707 0.930 . S
C1704 C1703 1.369 1_455 S
C1704 C1713 1.429 . S
C1705 C1703 1.419 . S
C1705 C1706 1.363 1_655 S
C1705 H1708 0.929 . S
C1706 C1705 1.363 1_455 S
C1706 C1712 1.428 . S
H1707 C1703 0.930 . S
H1708 C1705 0.929 . S
S1709 N1710 1.613 . S
S1709 N1711 1.610 . S
N1710 S1709 1.613 . S
N1710 C1713 1.350 . S
N1711 S1709 1.610 . S
N1711 C1712 1.351 . S
C1712 C1706 1.428 . S
C1712 N1711 1.351 . S
C1712 C1713 1.434 . S
C1713 C1704 1.429 . S
C1713 N1710 1.350 . S
C1713 C1712 1.434 . S
C1714 C1715 1.369 . S
C1714 C1716 1.419 . S
C1714 H1718 0.930 . S
C1715 C1714 1.369 . S
C1715 C1724 1.429 . S
C1716 C1714 1.419 . S
C1716 C1717 1.363 . S
C1716 H1719 0.929 . S
C1717 C1716 1.363 . S
C1717 C1723 1.428 . S
H1718 C1714 0.930 . S
H1719 C1716 0.929 . S
S1720 N1721 1.613 . S
S1720 N1722 1.610 . S
N1721 S1720 1.613 . S
N1721 C1724 1.350 . S
N1722 S1720 1.610 . S
N1722 C1723 1.351 . S
C1723 C1717 1.428 . S
C1723 N1722 1.351 . S
C1723 C1724 1.434 . S
C1724 C1715 1.429 . S
C1724 N1721 1.350 . S
C1724 C1723 1.434 . S
C1725 C1726 1.369 . S
C1725 C1727 1.419 . S
C1725 H1729 0.930 . S
C1726 C1725 1.369 . S
C1726 C1735 1.429 . S
C1727 C1725 1.419 . S
C1727 C1728 1.363 . S
C1727 H1730 0.929 . S
C1728 C1727 1.363 . S
C1728 C1734 1.428 . S
H1729 C1725 0.930 . S
H1730 C1727 0.929 . S
S1731 N1732 1.613 . S
S1731 N1733 1.610 . S
N1732 S1731 1.613 . S
N1732 C1735 1.350 . S
N1733 S1731 1.610 . S
N1733 C1734 1.351 . S
C1734 C1728 1.428 . S
C1734 N1733 1.351 . S
C1734 C1735 1.434 . S
C1735 C1726 1.429 . S
C1735 N1732 1.350 . S
C1735 C1734 1.434 . S
C1736 C1737 1.369 . S
C1736 C1738 1.419 . S
C1736 H1740 0.930 . S
C1737 C1736 1.369 . S
C1737 C1746 1.429 . S
C1738 C1736 1.419 . S
C1738 C1739 1.363 . S
C1738 H1741 0.929 . S
C1739 C1738 1.363 . S
C1739 C1745 1.428 . S
H1740 C1736 0.930 . S
H1741 C1738 0.929 . S
S1742 N1743 1.613 . S
S1742 N1744 1.610 . S
N1743 S1742 1.613 . S
N1743 C1746 1.350 . S
N1744 S1742 1.610 . S
N1744 C1745 1.351 . S
C1745 C1739 1.428 . S
C1745 N1744 1.351 . S
C1745 C1746 1.434 . S
C1746 C1737 1.429 . S
C1746 N1743 1.350 . S
C1746 C1745 1.434 . S
C1747 C1748 1.369 . S
C1747 C1749 1.419 . S
C1747 H1751 0.930 . S
C1748 C1747 1.369 . S
C1748 C1757 1.429 . S
C1749 C1747 1.419 . S
C1749 C1750 1.363 . S
C1749 H1752 0.929 . S
C1750 C1749 1.363 . S
C1750 C1756 1.428 . S
H1751 C1747 0.930 . S
H1752 C1749 0.929 . S
S1753 N1754 1.613 . S
S1753 N1755 1.610 . S
N1754 S1753 1.613 . S
N1754 C1757 1.350 . S
N1755 S1753 1.610 . S
N1755 C1756 1.351 . S
C1756 C1750 1.428 . S
C1756 N1755 1.351 . S
C1756 C1757 1.434 . S
C1757 C1748 1.429 . S
C1757 N1754 1.350 . S
C1757 C1756 1.434 . S
C1758 C1759 1.369 . S
C1758 C1760 1.419 . S
C1758 H1762 0.930 . S
C1759 C1758 1.369 . S
C1759 C1768 1.429 . S
C1760 C1758 1.419 . S
C1760 C1761 1.363 . S
C1760 H1763 0.922 1_545 S
C1761 C1760 1.363 . S
C1761 C1767 1.428 . S
H1762 C1758 0.930 . S
H1763 C1760 0.922 1_565 S
S1764 N1765 1.613 . S
S1764 N1766 1.610 . S
N1765 S1764 1.613 . S
N1765 C1768 1.350 . S
N1766 S1764 1.610 . S
N1766 C1767 1.351 . S
C1767 C1761 1.428 . S
C1767 N1766 1.351 . S
C1767 C1768 1.434 . S
C1768 C1759 1.429 . S
C1768 N1765 1.350 . S
C1768 C1767 1.434 . S
C1769 C1770 1.369 1_455 S
C1769 C1771 1.419 . S
C1769 H1773 0.930 . S
C1770 C1769 1.369 1_655 S
C1770 C1779 1.429 . S
C1771 C1769 1.419 . S
C1771 C1772 1.363 1_455 S
C1771 H1774 0.929 . S
C1772 C1771 1.363 1_655 S
C1772 C1778 1.428 . S
H1773 C1769 0.930 . S
H1774 C1771 0.929 . S
S1775 N1776 1.613 . S
S1775 N1777 1.610 . S
N1776 S1775 1.613 . S
N1776 C1779 1.350 . S
N1777 S1775 1.610 . S
N1777 C1778 1.351 . S
C1778 C1772 1.428 . S
C1778 N1777 1.351 . S
C1778 C1779 1.434 . S
C1779 C1770 1.429 . S
C1779 N1776 1.350 . S
C1779 C1778 1.434 . S
C1780 C1781 1.369 . S
C1780 C1782 1.419 . S
C1780 H1784 0.930 . S
C1781 C1780 1.369 . S
C1781 C1790 1.429 . S
C1782 C1780 1.419 . S
C1782 C1783 1.363 . S
C1782 H1785 0.929 . S
C1783 C1782 1.363 . S
C1783 C1789 1.428 . S
H1784 C1780 0.930 . S
H1785 C1782 0.929 . S
S1786 N1787 1.613 . S
S1786 N1788 1.610 . S
N1787 S1786 1.613 . S
N1787 C1790 1.350 . S
N1788 S1786 1.610 . S
N1788 C1789 1.351 . S
C1789 C1783 1.428 . S
C1789 N1788 1.351 . S
C1789 C1790 1.434 . S
C1790 C1781 1.429 . S
C1790 N1787 1.350 . S
C1790 C1789 1.434 . S
C1791 C1792 1.369 . S
C1791 C1793 1.419 . S
C1791 H1795 0.930 . S
C1792 C1791 1.369 . S
C1792 C1801 1.429 . S
C1793 C1791 1.419 . S
C1793 C1794 1.363 . S
C1793 H1796 0.929 . S
C1794 C1793 1.363 . S
C1794 C1800 1.428 . S
H1795 C1791 0.930 . S
H1796 C1793 0.929 . S
S1797 N1798 1.613 . S
S1797 N1799 1.610 . S
N1798 S1797 1.613 . S
N1798 C1801 1.350 . S
N1799 S1797 1.610 . S
N1799 C1800 1.351 . S
C1800 C1794 1.428 . S
C1800 N1799 1.351 . S
C1800 C1801 1.434 . S
C1801 C1792 1.429 . S
C1801 N1798 1.350 . S
C1801 C1800 1.434 . S
C1802 C1803 1.369 . S
C1802 C1804 1.419 . S
C1802 H1806 0.930 . S
C1803 C1802 1.369 . S
C1803 C1812 1.429 . S
C1804 C1802 1.419 . S
C1804 C1805 1.363 . S
C1804 H1807 0.929 . S
C1805 C1804 1.363 . S
C1805 C1811 1.428 . S
H1806 C1802 0.930 . S
H1807 C1804 0.929 . S
S1808 N1809 1.613 . S
S1808 N1810 1.610 . S
N1809 S1808 1.613 . S
N1809 C1812 1.350 . S
N1810 S1808 1.610 . S
N1810 C1811 1.351 . S
C1811 C1805 1.428 . S
C1811 N1810 1.351 . S
C1811 C1812 1.434 . S
C1812 C1803 1.429 . S
C1812 N1809 1.350 . S
C1812 C1811 1.434 . S
C1813 C1814 1.369 . S
C1813 C1815 1.419 . S
C1813 H1817 0.930 . S
C1814 C1813 1.369 . S
C1814 C1823 1.429 . S
C1815 C1813 1.419 . S
C1815 C1816 1.363 . S
C1815 H1818 0.929 . S
C1816 C1815 1.363 . S
C1816 C1822 1.428 . S
H1817 C1813 0.930 . S
H1818 C1815 0.929 . S
S1819 N1820 1.613 . S
S1819 N1821 1.610 . S
N1820 S1819 1.613 . S
N1820 C1823 1.350 . S
N1821 S1819 1.610 . S
N1821 C1822 1.351 . S
C1822 C1816 1.428 . S
C1822 N1821 1.351 . S
C1822 C1823 1.434 . S
C1823 C1814 1.429 . S
C1823 N1820 1.350 . S
C1823 C1822 1.434 . S
C1824 C1825 1.369 . S
C1824 C1826 1.419 . S
C1824 H1828 0.930 . S
C1825 C1824 1.369 . S
C1825 C1834 1.429 . S
C1826 C1824 1.419 . S
C1826 C1827 1.363 . S
C1826 H1829 0.929 . S
C1827 C1826 1.363 . S
C1827 C1833 1.428 . S
H1828 C1824 0.930 . S
H1829 C1826 0.929 . S
S1830 N1831 1.613 . S
S1830 N1832 1.610 . S
N1831 S1830 1.613 . S
N1831 C1834 1.350 . S
N1832 S1830 1.610 . S
N1832 C1833 1.351 . S
C1833 C1827 1.428 . S
C1833 N1832 1.351 . S
C1833 C1834 1.434 . S
C1834 C1825 1.429 . S
C1834 N1831 1.350 . S
C1834 C1833 1.434 . S
C1835 C1836 1.369 . S
C1835 C1837 1.419 . S
C1835 H1839 0.930 . S
C1836 C1835 1.369 . S
C1836 C1845 1.429 . S
C1837 C1835 1.419 . S
C1837 C1838 1.363 . S
C1837 H1840 0.929 . S
C1838 C1837 1.363 . S
C1838 C1844 1.428 . S
H1839 C1835 0.930 . S
H1840 C1837 0.929 . S
S1841 N1842 1.613 . S
S1841 N1843 1.610 . S
N1842 S1841 1.613 . S
N1842 C1845 1.350 . S
N1843 S1841 1.610 . S
N1843 C1844 1.351 . S
C1844 C1838 1.428 . S
C1844 N1843 1.351 . S
C1844 C1845 1.434 . S
C1845 C1836 1.429 . S
C1845 N1842 1.350 . S
C1845 C1844 1.434 . S
C1846 C1847 1.369 . S
C1846 C1848 1.419 . S
C1846 H1850 0.930 . S
C1847 C1846 1.369 . S
C1847 C1856 1.429 . S
C1848 C1846 1.419 . S
C1848 C1849 1.363 . S
C1848 H1851 0.929 . S
C1849 C1848 1.363 . S
C1849 C1855 1.428 . S
H1850 C1846 0.930 . S
H1851 C1848 0.929 . S
S1852 N1853 1.613 . S
S1852 N1854 1.610 . S
N1853 S1852 1.613 . S
N1853 C1856 1.350 . S
N1854 S1852 1.610 . S
N1854 C1855 1.351 . S
C1855 C1849 1.428 . S
C1855 N1854 1.351 . S
C1855 C1856 1.434 . S
C1856 C1847 1.429 . S
C1856 N1853 1.350 . S
C1856 C1855 1.434 . S
C1857 C1858 1.369 1_455 S
C1857 C1859 1.419 . S
C1857 H1861 0.930 . S
C1858 C1857 1.369 1_655 S
C1858 C1867 1.429 . S
C1859 C1857 1.419 . S
C1859 C1860 1.363 1_455 S
C1859 H1862 0.929 . S
C1860 C1859 1.363 1_655 S
C1860 C1866 1.428 . S
H1861 C1857 0.930 . S
H1862 C1859 0.929 . S
S1863 N1864 1.613 . S
S1863 N1865 1.610 . S
N1864 S1863 1.613 . S
N1864 C1867 1.350 . S
N1865 S1863 1.610 . S
N1865 C1866 1.351 . S
C1866 C1860 1.428 . S
C1866 N1865 1.351 . S
C1866 C1867 1.434 . S
C1867 C1858 1.429 . S
C1867 N1864 1.350 . S
C1867 C1866 1.434 . S
C1868 C1869 1.369 . S
C1868 C1870 1.419 . S
C1868 H1872 0.930 . S
C1869 C1868 1.369 . S
C1869 C1878 1.429 . S
C1870 C1868 1.419 . S
C1870 C1871 1.363 . S
C1870 H1873 0.929 . S
C1871 C1870 1.363 . S
C1871 C1877 1.428 . S
H1872 C1868 0.930 . S
H1873 C1870 0.929 . S
S1874 N1875 1.613 . S
S1874 N1876 1.610 . S
N1875 S1874 1.613 . S
N1875 C1878 1.350 . S
N1876 S1874 1.610 . S
N1876 C1877 1.351 . S
C1877 C1871 1.428 . S
C1877 N1876 1.351 . S
C1877 C1878 1.434 . S
C1878 C1869 1.429 . S
C1878 N1875 1.350 . S
C1878 C1877 1.434 . S
C1879 C1880 1.369 1_565 S
C1879 C1881 1.419 . S
C1879 H1883 0.930 . S
C1880 C1879 1.369 1_545 S
C1880 C1889 1.429 . S
C1881 C1879 1.419 . S
C1881 C1882 1.363 1_565 S
C1881 H1884 0.929 . S
C1882 C1881 1.363 1_545 S
C1882 C1888 1.428 . S
H1883 C1879 0.930 . S
H1884 C1881 0.929 . S
S1885 N1886 1.613 . S
S1885 N1887 1.610 . S
N1886 S1885 1.613 . S
N1886 C1889 1.350 . S
N1887 S1885 1.610 . S
N1887 C1888 1.351 . S
C1888 C1882 1.428 . S
C1888 N1887 1.351 . S
C1888 C1889 1.434 . S
C1889 C1880 1.429 . S
C1889 N1886 1.350 . S
C1889 C1888 1.434 . S
C1099 C10 1.588 1_655 S
C1101 C711 1.591 . S
C1110 C23 1.630 . S
C1112 C759 1.613 . S
C1123 C807 1.594 . S
C1121 C29 1.607 . S
C1132 C30 1.592 1_565 S
C1134 C831 1.596 . S
C1143 C5 1.613 . S
C1145 C903 1.600 . S
C1154 C18 1.637 . S
C1156 C951 1.622 . S
C1165 C49 1.608 . S
C1167 C879 1.596 . S
C1178 C927 1.624 . S
C1176 C62 1.635 . S
C1189 C855 1.581 . S
C1187 C70 1.630 1_565 S
C1198 C75 1.605 . S
C1200 C783 1.594 . S
C1211 C687 1.615 . S
C1209 C44 1.638 1_655 S
C1220 C57 1.640 . S
C1222 C735 1.631 . S
C1231 C88 1.655 . S
C1233 C999 1.639 . S
C1242 C101 1.654 . S
C1244 C1047 1.634 . S
C1255 C1071 1.634 . S
C1253 C107 1.653 . S
C1264 C108 1.641 . S
C1266 C255 1.620 . S
C1275 C83 1.652 . S
C1277 C327 1.635 . S
C1286 C96 1.649 . S
C1288 C375 1.632 . S
C1297 C127 1.639 . S
C1299 C303 1.630 . S
C1308 C140 1.647 . S
C1310 C351 1.634 . S
C1321 C279 1.598 . S
C1319 C146 1.644 . S
C1332 C1095 1.612 . S
C1330 C147 1.652 . S
C1343 C975 1.647 . S
C1341 C122 1.658 . S
C1354 C1023 1.651 . S
C1352 C135 1.662 . S
C1363 C160 1.638 . S
C1365 C423 1.621 . S
C1374 C173 1.642 . S
C1376 C471 1.626 . S
C1385 C185 1.649 . S
C1387 C495 1.631 . S
C1396 C186 1.655 . S
C1398 C543 1.638 . S
C1409 C615 1.637 . S
C1407 C159 1.654 . S
C1420 C663 1.641 . S
C1418 C172 1.660 . S
C1431 C591 1.649 . S
C1429 C205 1.658 . S
C1442 C639 1.647 . S
C1440 C218 1.658 . S
C1451 C224 1.646 . S
C1453 C567 1.603 . S
C1464 C519 1.589 . S
C1462 C225 1.635 . S
C1473 C200 1.654 . S
C1475 C399 1.645 . S
C1486 C447 1.640 . S
C1484 C213 1.651 . S
C1497 C264 1.522 . S
C1495 C4 1.524 . S
C1506 C17 1.508 . S
C1508 C318 1.493 . S
C1519 C366 1.513 . S
C1517 C31 1.527 . S
C1530 C414 1.513 . S
C1528 C36 1.527 . S
C1541 C462 1.514 . S
C1539 C3 1.530 . S
C1552 C504 1.510 . S
C1550 C16 1.512 . S
C1561 C43 1.530 . S
C1563 C510 1.528 . S
C1572 C56 1.509 . S
C1574 C408 1.490 . S
C1583 C68 1.522 . S
C1585 C456 1.499 . S
C1594 C69 1.526 . S
C1596 C312 1.513 . S
C1607 C360 1.508 . S
C1605 C42 1.527 . S
C1616 C55 1.515 . S
C1618 C270 1.506 . S
C1629 C552 1.522 . S
C1627 C82 1.524 . S
C1638 C95 1.533 . S
C1640 C606 1.519 . S
C1649 C109 1.546 . S
C1651 C654 1.531 . S
C1662 C702 1.495 . S
C1660 C114 1.497 . S
C1671 C81 1.532 . S
C1673 C750 1.515 . S
C1682 C94 1.502 . S
C1684 C798 1.496 . S
C1693 C121 1.500 . S
C1695 C792 1.491 . S
C1704 C134 1.494 . S
C1706 C696 1.491 . S
C1717 C744 1.508 . S
C1715 C148 1.525 . S
C1726 C153 1.525 . S
C1728 C600 1.504 . S
C1737 C120 1.547 . S
C1739 C648 1.525 . S
C1750 C558 1.530 . S
C1748 C133 1.541 . S
C1761 C840 1.498 . S
C1759 C166 1.495 . S
C1770 C179 1.492 . S
C1772 C894 1.491 . S
C1781 C187 1.529 . S
C1783 C942 1.515 . S
C1794 C990 1.510 . S
C1792 C192 1.527 . S
C1805 C1038 1.529 . S
C1803 C161 1.548 . S
C1814 C174 1.539 . S
C1816 C1080 1.536 . S
C1825 C199 1.529 . S
C1827 C1086 1.521 . S
C1836 C212 1.534 . S
C1838 C984 1.513 . S
C1849 C1032 1.523 . S
C1847 C226 1.541 . S
C1860 C888 1.488 . S
C1858 C231 1.491 . S
C1871 C936 1.512 . S
C1869 C198 1.533 . S
C1880 C211 1.505 . S
C1882 C846 1.499 . S
