# Generated by pormake.
# Topology nom, (4,4)-cn, num edge types: 1
# Building blocks:
#     Node 0, Type 0, BuildingBlock: NAHDIM_clean_linker_0, # of connection points: 4
#     Node 1, Type 0, BuildingBlock: NAHDIM_clean_linker_0, # of connection points: 4
#     Node 2, Type 0, BuildingBlock: NAHDIM_clean_linker_0, # of connection points: 4
#     Node 3, Type 0, BuildingBlock: NAHDIM_clean_linker_0, # of connection points: 4
#     Node 4, Type 0, BuildingBlock: NAHDIM_clean_linker_0, # of connection points: 4
#     Node 5, Type 0, BuildingBlock: NAHDIM_clean_linker_0, # of connection points: 4
#     Node 6, Type 1, BuildingBlock: NAHDIM_clean_sbu_0, # of connection points: 4
#     Node 7, Type 1, BuildingBlock: NAHDIM_clean_sbu_0, # of connection points: 4
#     Node 8, Type 1, BuildingBlock: NAHDIM_clean_sbu_0, # of connection points: 4
#     Node 9, Type 1, BuildingBlock: NAHDIM_clean_sbu_0, # of connection points: 4
#     Node 10, Type 1, BuildingBlock: NAHDIM_clean_sbu_0, # of connection points: 4
#     Node 11, Type 1, BuildingBlock: NAHDIM_clean_sbu_0, # of connection points: 4
#     Edge 12, Type (0, 1), None
#     Edge 13, Type (0, 1), None
#     Edge 14, Type (0, 1), None
#     Edge 15, Type (0, 1), None
#     Edge 16, Type (0, 1), None
#     Edge 17, Type (0, 1), None
#     Edge 18, Type (0, 1), None
#     Edge 19, Type (0, 1), None
#     Edge 20, Type (0, 1), None
#     Edge 21, Type (0, 1), None
#     Edge 22, Type (0, 1), None
#     Edge 23, Type (0, 1), None
#     Edge 24, Type (0, 1), None
#     Edge 25, Type (0, 1), None
#     Edge 26, Type (0, 1), None
#     Edge 27, Type (0, 1), None
#     Edge 28, Type (0, 1), None
#     Edge 29, Type (0, 1), None
#     Edge 30, Type (0, 1), None
#     Edge 31, Type (0, 1), None
#     Edge 32, Type (0, 1), None
#     Edge 33, Type (0, 1), None
#     Edge 34, Type (0, 1), None
#     Edge 35, Type (0, 1), None
# Relax obj value: 0.067
# Max RMSD: 0.134
# Mean RMSD: 0.125
data_MOF--net-nom--node1-NAHDIM_clean_sbu_0--node2-NAHDIM_clean_linker_0--edge1-none
_symmetry_space_group_name_H-M    P1
_symmetry_Int_Tables_number       1
_symmetry_cell_setting            triclinic
loop_
_symmetry_equiv_pos_as_xyz
'x, y, z'
_cell_length_a     34.156658
_cell_length_b     35.424295
_cell_length_c     41.782814
_cell_angle_alpha  90.362699
_cell_angle_beta   90.790813
_cell_angle_gamma 121.16706
loop_
_atom_site_label
_atom_site_type_symbol
_atom_site_fract_x
_atom_site_fract_y
_atom_site_fract_z
_atom_type_partial_charge
C0 C 0.31871 0.76395 0.21931 0.0
C1 C 0.30468 0.75297 0.25419 0.0
C2 C 0.22019 0.7074 0.25566 0.0
C3 C 0.2155 0.66711 0.24607 0.0
C4 C 0.1725 0.62785 0.24593 0.0
C5 C 0.13343 0.62913 0.25498 0.0
C6 C 0.13784 0.66999 0.26324 0.0
C7 C 0.18123 0.70848 0.26364 0.0
C8 C 0.16887 0.5849 0.23666 0.0
C9 C 0.09682 0.67296 0.27215 0.0
C10 C 0.84918 0.44515 0.10206 0.0
C11 C 0.89907 0.46808 0.09211 0.0
C12 C 0.94495 0.47631 0.14094 0.0
C13 C 0.94187 0.51041 0.15581 0.0
C14 C 0.96523 0.52951 0.18495 0.0
C15 C 0.9919 0.51408 0.19952 0.0
C16 C 0.99476 0.47962 0.18467 0.0
C17 C 0.97114 0.46118 0.15564 0.0
C18 C 0.96125 0.56598 0.20035 0.0
C19 C 0.0228 0.46226 0.19951 0.0
C20 C 0.79503 0.37134 0.35348 0.0
C21 C 0.81178 0.41686 0.35333 0.0
C22 C 0.85903 0.44754 0.35377 0.0
C23 C 0.89009 0.43236 0.35418 0.0
C24 C 0.87331 0.38661 0.35577 0.0
C25 C 0.82588 0.35669 0.3557 0.0
C26 C 0.87578 0.49618 0.35307 0.0
C27 C 0.90546 0.36934 0.35656 0.0
C28 C 0.15862 0.62236 0.52496 0.0
C29 C 0.1675 0.61061 0.49176 0.0
C30 C 0.10377 0.55295 0.45979 0.0
C31 C 0.08204 0.57597 0.45094 0.0
C32 C 0.05152 0.56189 0.42455 0.0
C33 C 0.04267 0.52411 0.40666 0.0
C34 C 0.06287 0.49972 0.41649 0.0
C35 C 0.09282 0.51427 0.44318 0.0
C36 C 0.02946 0.58785 0.41533 0.0
C37 C 0.05372 0.45894 0.39827 0.0
C38 C 0.08813 0.58783 0.25719 0.0
C39 C 0.06152 0.57002 0.22923 0.0
C40 C 0.01686 0.53364 0.23032 0.0
C41 C 0.99743 0.5156 0.26022 0.0
C42 C 0.95167 0.48103 0.26246 0.0
C43 C 0.93266 0.46424 0.29207 0.0
C44 C 0.95899 0.48064 0.32054 0.0
C45 C 0.93982 0.46427 0.3508 0.0
C46 C 0.96767 0.47928 0.37842 0.0
C47 C 0.01425 0.51126 0.37677 0.0
C48 C 0.03334 0.52996 0.34692 0.0
C49 C 0.07942 0.56385 0.34454 0.0
C50 C 0.09743 0.58292 0.31523 0.0
C51 C 0.07043 0.56802 0.28699 0.0
C52 C 0.02453 0.5326 0.28861 0.0
C53 C 0.00563 0.51433 0.31871 0.0
C54 C 0.68059 0.30426 0.32074 0.0
C55 C 0.71557 0.34653 0.33857 0.0
O56 O 0.26111 0.74603 0.25757 0.0
O57 O 0.13525 0.567 0.48415 0.0
O58 O 0.74961 0.34063 0.35146 0.0
O59 O 0.92321 0.4566 0.11278 0.0
H60 H 0.3059 0.72348 0.26141 0.0
H61 H 0.31921 0.79441 0.2123 0.0
H62 H 0.353 0.76875 0.21559 0.0
H63 H 0.29395 0.73637 0.20339 0.0
H64 H 0.24502 0.66591 0.2388 0.0
H65 H 0.18506 0.73978 0.27056 0.0
H66 H 0.14657 0.57075 0.21498 0.0
H67 H 0.20274 0.58907 0.23165 0.0
H68 H 0.15271 0.56076 0.25618 0.0
H69 H 0.10506 0.70765 0.27378 0.0
H70 H 0.0686 0.65475 0.25428 0.0
H71 H 0.08422 0.65738 0.29572 0.0
H72 H 0.9141 0.5044 0.09264 0.0
H73 H 0.82918 0.45342 0.0855 0.0
H74 H 0.83445 0.40895 0.10262 0.0
H75 H 0.84692 0.4564 0.12645 0.0
H76 H 0.92118 0.5221 0.14507 0.0
H77 H 0.97314 0.43474 0.14412 0.0
H78 H 0.94701 0.55603 0.22466 0.0
H79 H 0.99575 0.59607 0.20314 0.0
H80 H 0.939 0.57423 0.18616 0.0
H81 H 0.02207 0.43573 0.1847 0.0
H82 H 0.05889 0.48957 0.20276 0.0
H83 H 0.00958 0.44903 0.22356 0.0
H84 H 0.72988 0.37349 0.32076 0.0
H85 H 0.78814 0.42859 0.3528 0.0
H86 H 0.8126 0.32152 0.35634 0.0
H87 H 0.89134 0.50961 0.32957 0.0
H88 H 0.84771 0.50281 0.35675 0.0
H89 H 0.90266 0.51417 0.37186 0.0
H90 H 0.88693 0.33273 0.35705 0.0
H91 H 0.9275 0.38079 0.33521 0.0
H92 H 0.92825 0.38272 0.37807 0.0
H93 H 0.16525 0.63318 0.47443 0.0
H94 H 0.15992 0.60061 0.54327 0.0
H95 H 0.18404 0.65742 0.53087 0.0
H96 H 0.12404 0.61808 0.52524 0.0
H97 H 0.08883 0.60489 0.46461 0.0
H98 H 0.10909 0.49628 0.45057 0.0
H99 H 0.04232 0.60336 0.39177 0.0
H100 H 0.99182 0.56543 0.41276 0.0
H101 H 0.03675 0.61417 0.43319 0.0
H102 H 0.07221 0.44373 0.40892 0.0
H103 H 0.01647 0.4342 0.3979 0.0
H104 H 0.06433 0.46744 0.37305 0.0
H105 H 0.07569 0.58473 0.20636 0.0
H106 H 0.9298 0.46706 0.24138 0.0
H107 H 0.89708 0.43801 0.29233 0.0
H108 H 0.95293 0.46595 0.40147 0.0
H109 H 0.10195 0.57656 0.36539 0.0
H110 H 0.13295 0.6093 0.31494 0.0
H111 H 0.66488 0.27593 0.33731 0.0
H112 H 0.65317 0.30822 0.30968 0.0
H113 H 0.69768 0.29681 0.30138 0.0
C114 C 0.21366 0.72094 0.60851 0.0
C115 C 0.26052 0.73642 0.59414 0.0
C116 C 0.31266 0.80835 0.57004 0.0
C117 C 0.35425 0.81218 0.57963 0.0
C118 C 0.39617 0.85166 0.57514 0.0
C119 C 0.39638 0.88801 0.56109 0.0
C120 C 0.35448 0.88403 0.55134 0.0
C121 C 0.31334 0.84403 0.55555 0.0
C122 C 0.44019 0.85444 0.58521 0.0
C123 C 0.3529 0.92213 0.53672 0.0
C124 C 0.63933 0.15333 0.72995 0.0
C125 C 0.5976 0.13357 0.70728 0.0
C126 C 0.57131 0.0774 0.66382 0.0
C127 C 0.53722 0.08387 0.65045 0.0
C128 C 0.51131 0.05915 0.6234 0.0
C129 C 0.52099 0.02876 0.60879 0.0
C130 C 0.55586 0.0229 0.62198 0.0
C131 C 0.58007 0.04691 0.6495 0.0
C132 C 0.47346 0.06524 0.61059 0.0
C133 C 0.56747 0.99102 0.60709 0.0
C134 C 0.58595 0.20442 0.44371 0.0
C135 C 0.5393 0.17205 0.44593 0.0
C136 C 0.52495 0.12721 0.44755 0.0
C137 C 0.55784 0.11427 0.44731 0.0
C138 C 0.60462 0.14647 0.44386 0.0
C139 C 0.61803 0.19119 0.442 0.0
C140 C 0.47454 0.09369 0.45064 0.0
C141 C 0.64045 0.13375 0.44347 0.0
C142 C 0.49116 0.88334 0.28537 0.0
C143 C 0.4837 0.85425 0.31434 0.0
C144 C 0.51136 0.9063 0.36078 0.0
C145 C 0.47537 0.91476 0.3613 0.0
C146 C 0.47468 0.9432 0.38475 0.0
C147 C 0.51035 0.96312 0.40813 0.0
C148 C 0.54655 0.95467 0.40744 0.0
C149 C 0.54651 0.92648 0.38376 0.0
C150 C 0.43584 0.95182 0.38475 0.0
C151 C 0.5854 0.97542 0.4318 0.0
C152 C 0.43986 0.93065 0.55684 0.0
C153 C 0.45955 0.95916 0.58337 0.0
C154 C 0.49535 0.00283 0.57969 0.0
C155 C 0.50887 0.01956 0.54856 0.0
C156 C 0.53951 0.06468 0.54334 0.0
C157 C 0.55002 0.08081 0.51236 0.0
C158 C 0.53344 0.05189 0.48568 0.0
C159 C 0.543 0.06767 0.45409 0.0
C160 C 0.53315 0.03798 0.42859 0.0
C161 C 0.51041 0.99242 0.43382 0.0
C162 C 0.49304 0.97609 0.46448 0.0
C163 C 0.46333 0.93078 0.46973 0.0
C164 C 0.44506 0.91571 0.49989 0.0
C165 C 0.45857 0.94505 0.52624 0.0
C166 C 0.49125 0.99018 0.52187 0.0
C167 C 0.50603 0.00604 0.49066 0.0
C168 C 0.56582 0.26968 0.48298 0.0
C169 C 0.57629 0.26866 0.44752 0.0
O170 O 0.27122 0.771 0.57377 0.0
O171 O 0.51436 0.87957 0.33868 0.0
O172 O 0.60157 0.24845 0.44373 0.0
O173 O 0.5956 0.09842 0.69094 0.0
H174 H 0.28553 0.74755 0.61451 0.0
H175 H 0.18664 0.70809 0.5894 0.0
H176 H 0.20504 0.69467 0.62627 0.0
H177 H 0.21424 0.74903 0.62097 0.0
H178 H 0.35437 0.78443 0.5902 0.0
H179 H 0.28116 0.84063 0.54802 0.0
H180 H 0.45551 0.87729 0.60611 0.0
H181 H 0.43477 0.82179 0.59192 0.0
H182 H 0.46516 0.86801 0.56555 0.0
H183 H 0.31747 0.91571 0.53489 0.0
H184 H 0.37418 0.9528 0.55113 0.0
H185 H 0.36705 0.92796 0.51229 0.0
H186 H 0.60264 0.15965 0.69025 0.0
H187 H 0.64285 0.18162 0.7439 0.0
H188 H 0.63649 0.12805 0.74696 0.0
H189 H 0.67091 0.1652 0.71594 0.0
H190 H 0.53007 0.10743 0.6613 0.0
H191 H 0.60631 0.04207 0.66002 0.0
H192 H 0.48268 0.08064 0.5867 0.0
H193 H 0.44137 0.03269 0.60751 0.0
H194 H 0.46691 0.08644 0.62661 0.0
H195 H 0.59761 0.99258 0.61894 0.0
H196 H 0.53776 0.95684 0.60886 0.0
H197 H 0.57467 0.99817 0.58129 0.0
H198 H 0.54386 0.251 0.43319 0.0
H199 H 0.51377 0.18133 0.44702 0.0
H200 H 0.65392 0.21625 0.44003 0.0
H201 H 0.46785 0.08071 0.47534 0.0
H202 H 0.45294 0.10809 0.44571 0.0
H203 H 0.464 0.0654 0.4339 0.0
H204 H 0.67535 0.16258 0.43978 0.0
H205 H 0.64029 0.11817 0.46649 0.0
H206 H 0.63222 0.10898 0.4241 0.0
H207 H 0.44797 0.83905 0.32267 0.0
H208 H 0.52573 0.89593 0.27545 0.0
H209 H 0.46494 0.86451 0.26651 0.0
H210 H 0.48814 0.912 0.29232 0.0
H211 H 0.44798 0.89955 0.34355 0.0
H212 H 0.57414 0.91989 0.3831 0.0
H213 H 0.41763 0.94111 0.40778 0.0
H214 H 0.44963 0.98778 0.38277 0.0
H215 H 0.41089 0.93429 0.36478 0.0
H216 H 0.61155 0.96635 0.42747 0.0
H217 H 0.60228 0.01191 0.43128 0.0
H218 H 0.57178 0.96475 0.45618 0.0
H219 H 0.4469 0.94729 0.60711 0.0
H220 H 0.55419 0.08821 0.56304 0.0
H221 H 0.57225 0.11606 0.50956 0.0
H222 H 0.54345 0.0504 0.40462 0.0
H223 H 0.4525 0.90683 0.45032 0.0
H224 H 0.42101 0.88074 0.50254 0.0
H225 H 0.59791 0.28628 0.49771 0.0
H226 H 0.54728 0.28752 0.48627 0.0
H227 H 0.54385 0.23564 0.49185 0.0
C228 C 0.48104 0.25726 0.76304 0.0
C229 C 0.52392 0.28644 0.74369 0.0
C230 C 0.51483 0.34003 0.71355 0.0
C231 C 0.55476 0.37994 0.72215 0.0
C232 C 0.55753 0.42053 0.71734 0.0
C233 C 0.51951 0.42091 0.70386 0.0
C234 C 0.47899 0.38047 0.69574 0.0
C235 C 0.47761 0.34065 0.70015 0.0
C236 C 0.60146 0.46295 0.72558 0.0
C237 C 0.43724 0.37918 0.68185 0.0
C238 C 0.50534 0.68487 0.84147 0.0
C239 C 0.48128 0.63952 0.82486 0.0
C240 C 0.50633 0.61178 0.7799 0.0
C241 C 0.47143 0.56708 0.78021 0.0
C242 C 0.47174 0.53648 0.75863 0.0
C243 C 0.50868 0.55066 0.7374 0.0
C244 C 0.54558 0.59504 0.73908 0.0
C245 C 0.54316 0.62511 0.75963 0.0
C246 C 0.4318 0.48957 0.75772 0.0
C247 C 0.58722 0.61142 0.71853 0.0
C248 C 0.42541 0.62484 0.56065 0.0
C249 C 0.39931 0.57972 0.56728 0.0
C250 C 0.42037 0.55506 0.57188 0.0
C251 C 0.46865 0.57626 0.57038 0.0
C252 C 0.49474 0.62128 0.56198 0.0
C253 C 0.47255 0.64484 0.5567 0.0
C254 C 0.39109 0.50669 0.57943 0.0
C255 C 0.54611 0.64487 0.55961 0.0
C256 C 0.58343 0.42443 0.43087 0.0
C257 C 0.61891 0.44006 0.45809 0.0
C258 C 0.60076 0.48412 0.49461 0.0
C259 C 0.55712 0.45041 0.5039 0.0
C260 C 0.53219 0.45894 0.52638 0.0
C261 C 0.55243 0.50125 0.54116 0.0
C262 C 0.5969 0.53475 0.53238 0.0
C263 C 0.61993 0.5259 0.50878 0.0
C264 C 0.48429 0.42277 0.53425 0.0
C265 C 0.62026 0.58012 0.54781 0.0
C266 C 0.52239 0.46301 0.69569 0.0
C267 C 0.51555 0.48681 0.71965 0.0
C268 C 0.50789 0.5209 0.71168 0.0
C269 C 0.5031 0.52864 0.67903 0.0
C270 C 0.4881 0.55729 0.66988 0.0
C271 C 0.4839 0.56481 0.63772 0.0
C272 C 0.4959 0.54504 0.61348 0.0
C273 C 0.49168 0.55233 0.58071 0.0
C274 C 0.50854 0.53602 0.55749 0.0
C275 C 0.52807 0.51104 0.56609 0.0
C276 C 0.52794 0.4995 0.59849 0.0
C277 C 0.54335 0.47122 0.60788 0.0
C278 C 0.54086 0.45855 0.63963 0.0
C279 C 0.52603 0.47622 0.6635 0.0
C280 C 0.51399 0.50746 0.65496 0.0
C281 C 0.51249 0.51725 0.62226 0.0
C282 C 0.39551 0.69382 0.59624 0.0
C283 C 0.37472 0.64859 0.57979 0.0
O284 O 0.5118 0.30052 0.71655 0.0
O285 O 0.62532 0.47875 0.4716 0.0
O286 O 0.40602 0.64984 0.5584 0.0
O287 O 0.50497 0.64371 0.79717 0.0
H288 H 0.54811 0.31458 0.7595 0.0
H289 H 0.45629 0.22747 0.74884 0.0
H290 H 0.49008 0.24682 0.78561 0.0
H291 H 0.4643 0.276 0.76941 0.0
H292 H 0.58419 0.3795 0.73161 0.0
H293 H 0.44715 0.30961 0.69338 0.0
H294 H 0.59494 0.48158 0.74407 0.0
H295 H 0.62856 0.45713 0.73473 0.0
H296 H 0.61415 0.48392 0.70407 0.0
H297 H 0.40631 0.34555 0.68248 0.0
H298 H 0.43027 0.4023 0.6951 0.0
H299 H 0.44347 0.38967 0.65652 0.0
H300 H 0.48293 0.61545 0.84091 0.0
H301 H 0.4878 0.68477 0.86352 0.0
H302 H 0.54104 0.69472 0.84809 0.0
H303 H 0.50637 0.71007 0.8252 0.0
H304 H 0.44301 0.5563 0.79618 0.0
H305 H 0.5702 0.65956 0.75984 0.0
H306 H 0.4188 0.47931 0.73274 0.0
H307 H 0.44323 0.46726 0.76651 0.0
H308 H 0.40326 0.48521 0.77281 0.0
H309 H 0.6171 0.64198 0.72876 0.0
H310 H 0.59676 0.586 0.71581 0.0
H311 H 0.57962 0.61913 0.69437 0.0
H312 H 0.36682 0.62411 0.599 0.0
H313 H 0.36251 0.56393 0.56914 0.0
H314 H 0.49219 0.67955 0.55093 0.0
H315 H 0.39435 0.50202 0.60537 0.0
H316 H 0.35436 0.49344 0.57357 0.0
H317 H 0.40271 0.4872 0.566 0.0
H318 H 0.56178 0.68094 0.55631 0.0
H319 H 0.56131 0.63942 0.58146 0.0
H320 H 0.55499 0.6312 0.53888 0.0
H321 H 0.60712 0.41406 0.47652 0.0
H322 H 0.57578 0.3919 0.42159 0.0
H323 H 0.55085 0.42043 0.4392 0.0
H324 H 0.59629 0.44929 0.41172 0.0
H325 H 0.54196 0.4177 0.49342 0.0
H326 H 0.65358 0.55167 0.50146 0.0
H327 H 0.48442 0.40962 0.55825 0.0
H328 H 0.46095 0.43585 0.53497 0.0
H329 H 0.47044 0.39502 0.51659 0.0
H330 H 0.65697 0.60028 0.54158 0.0
H331 H 0.60296 0.59766 0.53964 0.0
H332 H 0.6177 0.5776 0.57426 0.0
H333 H 0.51597 0.47859 0.74455 0.0
H334 H 0.47859 0.57352 0.68749 0.0
H335 H 0.47179 0.58689 0.63213 0.0
H336 H 0.50717 0.54346 0.5325 0.0
H337 H 0.55629 0.45756 0.59071 0.0
H338 H 0.55176 0.43558 0.64543 0.0
H339 H 0.40396 0.71995 0.57836 0.0
H340 H 0.37124 0.69385 0.61369 0.0
H341 H 0.42742 0.70176 0.60941 0.0
C342 C 0.29072 0.52658 0.95043 0.0
C343 C 0.27865 0.5459 0.92191 0.0
C344 C 0.2061 0.50053 0.89191 0.0
C345 C 0.19202 0.5314 0.88999 0.0
C346 C 0.1468 0.51805 0.88101 0.0
C347 C 0.1153 0.47314 0.87339 0.0
C348 C 0.12988 0.44235 0.8742 0.0
C349 C 0.17522 0.45658 0.88324 0.0
C350 C 0.13253 0.55183 0.87977 0.0
C351 C 0.09734 0.39428 0.86592 0.0
C352 C 0.81255 0.32597 0.02321 0.0
C353 C 0.82377 0.34277 0.989 0.0
C354 C 0.89753 0.39045 0.96413 0.0
C355 C 0.90369 0.359 0.94806 0.0
C356 C 0.93425 0.37128 0.92265 0.0
C357 C 0.95916 0.41589 0.91319 0.0
C358 C 0.95426 0.44787 0.93014 0.0
C359 C 0.92381 0.43474 0.95566 0.0
C360 C 0.93981 0.33658 0.90579 0.0
C361 C 0.98072 0.4958 0.92097 0.0
C362 C 0.78005 0.3613 0.73739 0.0
C363 C 0.79586 0.33216 0.74212 0.0
C364 C 0.84254 0.34834 0.74831 0.0
C365 C 0.87381 0.3945 0.75001 0.0
C366 C 0.85792 0.42378 0.74471 0.0
C367 C 0.81132 0.4067 0.73806 0.0
C368 C 0.85849 0.31619 0.75305 0.0
C369 C 0.8901 0.47314 0.74613 0.0
C370 C 0.10849 0.46608 0.58694 0.0
C371 C 0.13842 0.49807 0.6139 0.0
C372 C 0.08785 0.49585 0.65637 0.0
C373 C 0.07292 0.45297 0.66706 0.0
C374 C 0.04466 0.43602 0.69381 0.0
C375 C 0.03155 0.4626 0.71037 0.0
C376 C 0.04697 0.50589 0.69983 0.0
C377 C 0.07452 0.52171 0.6728 0.0
C378 C 0.02849 0.3896 0.70427 0.0
C379 C 0.03411 0.53541 0.71703 0.0
C380 C 0.06675 0.45799 0.86551 0.0
C381 C 0.03618 0.44509 0.89078 0.0
C382 C 0.98966 0.42893 0.88519 0.0
C383 C 0.97282 0.42504 0.85346 0.0
C384 C 0.92615 0.4085 0.84694 0.0
C385 C 0.90976 0.40421 0.81565 0.0
C386 C 0.93943 0.41659 0.78963 0.0
C387 C 0.92303 0.41229 0.75773 0.0
C388 C 0.95378 0.42656 0.73252 0.0
C389 C 1.00073 0.44499 0.73819 0.0
C390 C 0.01758 0.44831 0.76987 0.0
C391 C 0.06441 0.46575 0.77645 0.0
C392 C 0.0806 0.46875 0.80771 0.0
C393 C 0.05069 0.4551 0.83365 0.0
C394 C 0.00345 0.43811 0.82761 0.0
C395 C 0.98679 0.43419 0.79567 0.0
C396 C 0.66471 0.3197 0.75652 0.0
C397 C 0.69726 0.30813 0.74065 0.0
O398 O 0.2491 0.51169 0.90135 0.0
O399 O 0.11428 0.51347 0.63021 0.0
O400 O 0.73537 0.34725 0.73123 0.0
O401 O 0.86761 0.37949 0.98841 0.0
H402 H 0.26223 0.56347 0.93171 0.0
H403 H 0.25909 0.50335 0.96327 0.0
H404 H 0.30727 0.50832 0.94223 0.0
H405 H 0.31422 0.55326 0.96748 0.0
H406 H 0.21617 0.56594 0.89511 0.0
H407 H 0.1866 0.43316 0.88423 0.0
H408 H 0.10492 0.54319 0.89715 0.0
H409 H 0.16139 0.58573 0.88541 0.0
H410 H 0.11847 0.55149 0.85557 0.0
H411 H 0.11409 0.37454 0.86746 0.0
H412 H 0.06805 0.38025 0.88244 0.0
H413 H 0.08331 0.39107 0.84125 0.0
H414 H 0.82082 0.31524 0.97418 0.0
H415 H 0.77597 0.29951 0.02484 0.0
H416 H 0.83391 0.31209 0.03047 0.0
H417 H 0.82 0.35304 0.04021 0.0
H418 H 0.88536 0.32501 0.95557 0.0
H419 H 0.91952 0.45889 0.96867 0.0
H420 H 0.92764 0.33296 0.88055 0.0
H421 H 0.97656 0.34698 0.90544 0.0
H422 H 0.92037 0.30393 0.91737 0.0
H423 H 0.97211 0.51642 0.93597 0.0
H424 H 0.01798 0.50877 0.92351 0.0
H425 H 0.97346 0.49903 0.89547 0.0
H426 H 0.70634 0.29111 0.75895 0.0
H427 H 0.77209 0.29689 0.74047 0.0
H428 H 0.79883 0.42886 0.73388 0.0
H429 H 0.87118 0.31894 0.77807 0.0
H430 H 0.83074 0.28151 0.74827 0.0
H431 H 0.88742 0.32437 0.73701 0.0
H432 H 0.8716 0.49129 0.74514 0.0
H433 H 0.91139 0.48298 0.76843 0.0
H434 H 0.91349 0.48329 0.72558 0.0
H435 H 0.1497 0.48083 0.63039 0.0
H436 H 0.1283 0.45481 0.57318 0.0
H437 H 0.07835 0.43664 0.59703 0.0
H438 H 0.09594 0.48217 0.57041 0.0
H439 H 0.08251 0.43229 0.65447 0.0
H440 H 0.08609 0.55467 0.66438 0.0
H441 H 0.04079 0.39028 0.72913 0.0
H442 H 0.9905 0.37001 0.70433 0.0
H443 H 0.04081 0.3727 0.68848 0.0
H444 H 0.05184 0.56936 0.70739 0.0
H445 H 0.99664 0.52119 0.71459 0.0
H446 H 0.04259 0.53729 0.74296 0.0
H447 H 0.04873 0.44741 0.91515 0.0
H448 H 0.90166 0.39849 0.86597 0.0
H449 H 0.87348 0.39114 0.81215 0.0
H450 H 0.94109 0.42406 0.70817 0.0
H451 H 0.08905 0.47699 0.75745 0.0
H452 H 0.11693 0.48216 0.81132 0.0
H453 H 0.63815 0.29122 0.76968 0.0
H454 H 0.68389 0.34688 0.77434 0.0
H455 H 0.64853 0.33064 0.73852 0.0
C456 C 0.3815 0.74195 0.89968 0.0
C457 C 0.4149 0.74219 0.92474 0.0
C458 C 0.4768 0.82027 0.92798 0.0
C459 C 0.45118 0.83605 0.9429 0.0
C460 C 0.47091 0.88108 0.95047 0.0
C461 C 0.51748 0.91086 0.94374 0.0
C462 C 0.54339 0.89514 0.92885 0.0
C463 C 0.52259 0.85008 0.92104 0.0
C464 C 0.44201 0.89681 0.96585 0.0
C465 C 0.59314 0.92595 0.92137 0.0
C466 C 0.53174 0.18028 0.81276 0.0
C467 C 0.56517 0.16686 0.82489 0.0
C468 C 0.55651 0.12523 0.87365 0.0
C469 C 0.58508 0.10883 0.8665 0.0
C470 C 0.58631 0.07746 0.8863 0.0
C471 C 0.55752 0.06156 0.91314 0.0
C472 C 0.52663 0.07612 0.919 0.0
C473 C 0.52753 0.10866 0.89966 0.0
C474 C 0.61954 0.06263 0.87929 0.0
C475 C 0.49352 0.05846 0.94628 0.0
C476 C 0.69454 0.23574 0.08232 0.0
C477 C 0.72058 0.21751 0.07328 0.0
C478 C 0.70012 0.172 0.06751 0.0
C479 C 0.65236 0.14406 0.07104 0.0
C480 C 0.62602 0.16201 0.0815 0.0
C481 C 0.64746 0.20764 0.08735 0.0
C482 C 0.72936 0.15389 0.05694 0.0
C483 C 0.57512 0.13302 0.08606 0.0
C484 C 0.49568 0.82035 0.15003 0.0
C485 C 0.49414 0.8526 0.17379 0.0
C486 C 0.55162 0.92469 0.15421 0.0
C487 C 0.59682 0.94479 0.14406 0.0
C488 C 0.61319 0.97718 0.12037 0.0
C489 C 0.58368 0.99008 0.10705 0.0
C490 C 0.53873 0.97166 0.11859 0.0
C491 C 0.52322 0.93926 0.14212 0.0
C492 C 0.66143 0.9966 0.10883 0.0
C493 C 0.50671 0.98559 0.10558 0.0
C494 C 0.53944 0.95831 0.95287 0.0
C495 C 0.54172 0.98775 0.92971 0.0
C496 C 0.56202 0.0328 0.93681 0.0
C497 C 0.58195 0.04928 0.96749 0.0
C498 C 0.60508 0.09472 0.97486 0.0
C499 C 0.62154 0.11036 0.00571 0.0
C500 C 0.61532 0.08117 0.03046 0.0
C501 C 0.62965 0.09647 0.06231 0.0
C502 C 0.62067 0.06625 0.08664 0.0
C503 C 0.59846 0.02097 0.07988 0.0
C504 C 0.58624 0.00534 0.04791 0.0
C505 C 0.56598 0.96025 0.04008 0.0
C506 C 0.55198 0.94492 0.00879 0.0
C507 C 0.55639 0.97388 0.98432 0.0
C508 C 0.5777 0.01956 0.99159 0.0
C509 C 0.59358 0.03542 0.02327 0.0
C510 C 0.69784 0.32536 0.11744 0.0
C511 C 0.69716 0.30646 0.08431 0.0
O512 O 0.45896 0.77702 0.91968 0.0
O513 O 0.53646 0.8914 0.17553 0.0
O514 O 0.71633 0.28029 0.08622 0.0
O515 O 0.55761 0.15863 0.85723 0.0
H516 H 0.40385 0.74471 0.94918 0.0
H517 H 0.39213 0.73948 0.8751 0.0
H518 H 0.34637 0.71356 0.9035 0.0
H519 H 0.38037 0.77262 0.90142 0.0
H520 H 0.41575 0.81367 0.94865 0.0
H521 H 0.54216 0.83779 0.90954 0.0
H522 H 0.44495 0.92516 0.95253 0.0
H523 H 0.40533 0.87041 0.96666 0.0
H524 H 0.45465 0.9084 0.9907 0.0
H525 H 0.60904 0.90834 0.91077 0.0
H526 H 0.59636 0.95129 0.90433 0.0
H527 H 0.61248 0.94347 0.94357 0.0
H528 H 0.55725 0.13633 0.81151 0.0
H529 H 0.52701 0.1759 0.7866 0.0
H530 H 0.49747 0.15855 0.8231 0.0
H531 H 0.54356 0.21496 0.81974 0.0
H532 H 0.60774 0.12181 0.84637 0.0
H533 H 0.50545 0.12143 0.9048 0.0
H534 H 0.60036 0.02662 0.87405 0.0
H535 H 0.64142 0.07998 0.85859 0.0
H536 H 0.64187 0.06858 0.90063 0.0
H537 H 0.46483 0.06434 0.94263 0.0
H538 H 0.47913 0.0225 0.9491 0.0
H539 H 0.51175 0.07536 0.96891 0.0
H540 H 0.66117 0.28754 0.07523 0.0
H541 H 0.75703 0.23929 0.07008 0.0
H542 H 0.62725 0.22097 0.09594 0.0
H543 H 0.7195 0.14073 0.03207 0.0
H544 H 0.76643 0.17936 0.05772 0.0
H545 H 0.72339 0.12611 0.07245 0.0
H546 H 0.55914 0.15223 0.09311 0.0
H547 H 0.55833 0.11441 0.06356 0.0
H548 H 0.56849 0.10855 0.10488 0.0
H549 H 0.46685 0.8587 0.16566 0.0
H550 H 0.46199 0.78901 0.14863 0.0
H551 H 0.50359 0.83489 0.12579 0.0
H552 H 0.52247 0.81306 0.15733 0.0
H553 H 0.61875 0.93389 0.15397 0.0
H554 H 0.489 0.92569 0.15105 0.0
H555 H 0.66064 0.98902 0.08291 0.0
H556 H 0.68028 0.03307 0.11173 0.0
H557 H 0.6804 0.98364 0.12199 0.0
H558 H 0.47428 0.97094 0.11895 0.0
H559 H 0.5236 0.02208 0.10667 0.0
H560 H 0.4983 0.97517 0.08006 0.0
H561 H 0.5265 0.97528 0.90615 0.0
H562 H 0.61041 0.11872 0.95688 0.0
H563 H 0.63843 0.1456 0.01 0.0
H564 H 0.62993 0.07798 0.11122 0.0
H565 H 0.56071 0.93629 0.05808 0.0
H566 H 0.5366 0.90989 0.00422 0.0
H567 H 0.73334 0.34459 0.12742 0.0
H568 H 0.68341 0.34714 0.11604 0.0
H569 H 0.67669 0.29801 0.13394 0.0
C570 C 0.7985 0.5462 0.02327 0.0
C571 C 0.75651 0.50677 0.03795 0.0
C572 C 0.70603 0.52166 0.0689 0.0
C573 C 0.66295 0.48487 0.06116 0.0
C574 C 0.62286 0.48596 0.06579 0.0
C575 C 0.62613 0.52506 0.07776 0.0
C576 C 0.66986 0.56244 0.08509 0.0
C577 C 0.70912 0.55978 0.0813 0.0
C578 C 0.57716 0.44522 0.05793 0.0
C579 C 0.67537 0.60532 0.09696 0.0
C580 C 0.39879 0.52645 0.89517 0.0
C581 C 0.42839 0.55119 0.92468 0.0
C582 C 0.45331 0.52633 0.97186 0.0
C583 C 0.47797 0.56695 0.98847 0.0
C584 C 0.50039 0.57026 0.01783 0.0
C585 C 0.49546 0.53168 0.03179 0.0
C586 C 0.46771 0.49034 0.01612 0.0
C587 C 0.44804 0.48848 0.98606 0.0
C588 C 0.5305 0.61516 0.03326 0.0
C589 C 0.45991 0.44806 0.0305 0.0
C590 C 0.39116 0.60996 0.21134 0.0
C591 C 0.43219 0.63587 0.19513 0.0
C592 C 0.45992 0.61893 0.18679 0.0
C593 C 0.44527 0.57436 0.19353 0.0
C594 C 0.40316 0.54785 0.20914 0.0
C595 C 0.37729 0.56639 0.2185 0.0
C596 C 0.50548 0.64936 0.17165 0.0
C597 C 0.38553 0.50006 0.21646 0.0
C598 C 0.53651 0.44358 0.35461 0.0
C599 C 0.56988 0.44241 0.33103 0.0
C600 C 0.57519 0.49369 0.28942 0.0
C601 C 0.60136 0.53684 0.27837 0.0
C602 C 0.58599 0.55151 0.25265 0.0
C603 C 0.54372 0.52184 0.23722 0.0
C604 C 0.51688 0.47819 0.24834 0.0
C605 C 0.53265 0.46466 0.27444 0.0
C606 C 0.6151 0.59846 0.24169 0.0
C607 C 0.47164 0.44558 0.23238 0.0
C608 C 0.58413 0.52683 0.08349 0.0
C609 C 0.56032 0.53002 0.05717 0.0
C610 C 0.52206 0.53426 0.06113 0.0
C611 C 0.50884 0.53828 0.09237 0.0
C612 C 0.47233 0.54512 0.09757 0.0
C613 C 0.46144 0.5514 0.12845 0.0
C614 C 0.4854 0.54923 0.15533 0.0
C615 C 0.47574 0.55682 0.18681 0.0
C616 C 0.49677 0.54934 0.213 0.0
C617 C 0.52789 0.53542 0.20867 0.0
C618 C 0.54116 0.53189 0.17746 0.0
C619 C 0.57495 0.52124 0.17235 0.0
C620 C 0.58905 0.51953 0.14162 0.0
C621 C 0.56891 0.52705 0.11474 0.0
C622 C 0.53254 0.53475 0.11923 0.0
C623 C 0.51973 0.5387 0.1507 0.0
C624 C 0.30694 0.64113 0.20673 0.0
C625 C 0.35756 0.65591 0.20481 0.0
O626 O 0.74505 0.52092 0.06532 0.0
O627 O 0.59225 0.48163 0.3144 0.0
O628 O 0.365 0.6263 0.22129 0.0
O629 O 0.43626 0.52212 0.94156 0.0
H630 H 0.72831 0.49387 0.01966 0.0
H631 H 0.79131 0.57287 0.01846 0.0
H632 H 0.82851 0.55929 0.03995 0.0
H633 H 0.80692 0.5365 1.00021 0.0
H634 H 0.66066 0.45504 0.05213 0.0
H635 H 0.74263 0.58791 0.08732 0.0
H636 H 0.564 0.45011 0.03488 0.0
H637 H 0.57982 0.41539 0.05546 0.0
H638 H 0.55189 0.43932 0.07664 0.0
H639 H 0.71114 0.63333 0.09482 0.0
H640 H 0.6523 0.61314 0.08343 0.0
H641 H 0.66618 0.6023 0.12257 0.0
H642 H 0.40908 0.5618 0.93968 0.0
H643 H 0.4153 0.51197 0.88101 0.0
H644 H 0.36475 0.49931 0.90277 0.0
H645 H 0.39362 0.54858 0.87933 0.0
H646 H 0.48151 0.59645 0.97814 0.0
H647 H 0.42857 0.45721 0.97327 0.0
H648 H 0.51384 0.61811 0.05495 0.0
H649 H 0.56395 0.61963 0.04085 0.0
H650 H 0.53681 0.64226 0.01689 0.0
H651 H 0.42995 0.41855 0.01924 0.0
H652 H 0.49058 0.44557 0.02676 0.0
H653 H 0.4545 0.44768 0.05668 0.0
H654 H 0.36489 0.65558 0.17892 0.0
H655 H 0.4435 0.66981 0.18992 0.0
H656 H 0.34562 0.54664 0.23112 0.0
H657 H 0.50298 0.64166 0.14566 0.0
H658 H 0.51597 0.6846 0.17447 0.0
H659 H 0.53274 0.64485 0.18228 0.0
H660 H 0.34804 0.48147 0.22038 0.0
H661 H 0.39306 0.4837 0.19676 0.0
H662 H 0.40268 0.49825 0.23864 0.0
H663 H 0.55109 0.41386 0.31423 0.0
H664 H 0.51857 0.4124 0.36821 0.0
H665 H 0.55508 0.47179 0.37173 0.0
H666 H 0.51023 0.44732 0.34157 0.0
H667 H 0.63399 0.55915 0.29009 0.0
H668 H 0.51149 0.43127 0.28267 0.0
H669 H 0.62746 0.59864 0.21723 0.0
H670 H 0.59434 0.61432 0.24048 0.0
H671 H 0.6452 0.61843 0.25783 0.0
H672 H 0.45558 0.41234 0.24313 0.0
H673 H 0.44768 0.45778 0.23441 0.0
H674 H 0.47659 0.44249 0.20649 0.0
H675 H 0.57139 0.52866 0.03319 0.0
H676 H 0.45244 0.54669 0.07779 0.0
H677 H 0.43377 0.55763 0.13106 0.0
H678 H 0.48842 0.55389 0.23712 0.0
H679 H 0.59166 0.51508 0.19208 0.0
H680 H 0.6158 0.51197 0.13918 0.0
H681 H 0.29666 0.63863 0.23211 0.0
H682 H 0.30011 0.66481 0.19424 0.0
H683 H 0.28567 0.60817 0.19506 0.0
C684 C 0.60374 0.31475 0.43522 0.0
O685 O 0.64246 0.34373 0.44954 0.0
O686 O 0.67155 0.37693 0.35767 0.0
Zn687 Zn 0.63065 0.38383 0.3887 0.0
O688 O 0.67028 0.43077 0.42235 0.0
C689 C 0.60402 0.43524 0.34875 0.0
O690 O 0.64685 0.46732 0.35247 0.0
O691 O 0.59143 0.32483 0.40941 0.0
C692 C 0.665 0.44939 0.44682 0.0
O693 O 0.70176 0.47791 0.46333 0.0
C694 C 0.69244 0.35688 0.36454 0.0
O695 O 0.68789 0.33964 0.39295 0.0
O696 O 0.59036 0.39847 0.36217 0.0
C697 C 0.2614 0.69982 0.57624 0.0
O698 O 0.29442 0.7092 0.55623 0.0
O699 O 0.29339 0.61629 0.57699 0.0
Zn700 Zn 0.23487 0.61039 0.55989 0.0
O701 O 0.23877 0.61679 0.51145 0.0
C702 C 0.18094 0.53728 0.60118 0.0
O703 O 0.21618 0.56044 0.62062 0.0
O704 O 0.23151 0.65967 0.58127 0.0
C705 C 0.21452 0.6173 0.48814 0.0
O706 O 0.23078 0.62247 0.45915 0.0
C707 C 0.33117 0.63761 0.56258 0.0
O708 O 0.3326 0.65492 0.5346 0.0
O709 O 0.18087 0.55206 0.57351 0.0
C710 C 0.5471 0.26172 0.73462 0.0
O711 O 0.56029 0.26221 0.70516 0.0
O712 O 0.63676 0.24142 0.71372 0.0
Zn713 Zn 0.59313 0.21256 0.75064 0.0
O714 O 0.54937 0.14667 0.74202 0.0
C715 C 0.61452 0.20217 0.81938 0.0
O716 O 0.64474 0.21378 0.84289 0.0
O717 O 0.55702 0.24294 0.7563 0.0
C718 C 0.55476 0.11907 0.72597 0.0
O719 O 0.52191 0.07734 0.72566 0.0
C720 C 0.67504 0.27763 0.71203 0.0
O721 O 0.69613 0.28796 0.68455 0.0
O722 O 0.62834 0.22023 0.79226 0.0
C723 C 0.41404 0.6994 0.92245 0.0
O724 O 0.39177 0.66876 0.94374 0.0
O725 O 0.35969 0.58548 0.91136 0.0
Zn726 Zn 0.41686 0.62889 0.88808 0.0
O727 O 0.47177 0.62352 0.90129 0.0
C728 C 0.43188 0.62451 0.8176 0.0
O729 O 0.41665 0.61759 0.78781 0.0
O730 O 0.42876 0.69026 0.89756 0.0
C731 C 0.47216 0.59124 0.91421 0.0
O732 O 0.51144 0.59326 0.91819 0.0
C733 C 0.32027 0.57857 0.90386 0.0
O734 O 0.31595 0.60054 0.88026 0.0
O735 O 0.4042 0.61821 0.83998 0.0
C736 C 0.76464 0.46984 0.04568 0.0
O737 O 0.7385 0.43967 0.06625 0.0
O738 O 0.76585 0.37097 0.06674 0.0
Zn739 Zn 0.80435 0.41429 0.03264 0.0
O740 O 0.87283 0.43791 0.03758 0.0
C741 C 0.79045 0.35469 0.97569 0.0
O742 O 0.77054 0.33809 0.94777 0.0
O743 O 0.79371 0.46535 0.03001 0.0
C744 C 0.90517 0.45639 0.05848 0.0
O745 O 0.94646 0.46698 0.04993 0.0
C746 C 0.72394 0.34257 0.06103 0.0
O747 O 0.7056 0.34203 0.03307 0.0
O748 O 0.78217 0.38169 0.98991 0.0
C749 C 0.38765 0.7021 0.21806 0.0
O750 O 0.42532 0.72958 0.20323 0.0
O751 O 0.37913 0.80203 0.27912 0.0
Zn752 Zn 0.41561 0.7803 0.25584 0.0
O753 O 0.44062 0.81558 0.21543 0.0
C754 C 0.49181 0.81737 0.30568 0.0
O755 O 0.5244 0.81472 0.32064 0.0
O756 O 0.37643 0.71555 0.24265 0.0
C757 C 0.4816 0.8324 0.20624 0.0
O758 O 0.51099 0.82729 0.22341 0.0
C759 C 0.33715 0.79026 0.27632 0.0
O760 O 0.32186 0.8105 0.29407 0.0
O761 O 0.46775 0.78818 0.28439 0.0
loop_
_geom_bond_atom_site_label_1
_geom_bond_atom_site_label_2
_geom_bond_distance
_geom_bond_site_symmetry_2
_ccdc_geom_bond_type
C0 C1 1.560 . S
C0 H61 0.959 . S
C0 H62 0.959 . S
C0 H63 0.960 . S
C1 C0 1.560 . S
C1 O56 1.426 . S
C1 H60 0.980 . S
C2 C3 1.407 . S
C2 C7 1.418 . S
C2 O56 1.334 . S
C3 C2 1.407 . S
C3 C4 1.360 . S
C3 H64 0.929 . S
C4 C3 1.360 . S
C4 C5 1.401 . S
C4 C8 1.527 . S
C5 C4 1.401 . S
C5 C6 1.405 . S
C5 C38 1.587 . S
C6 C5 1.405 . S
C6 C7 1.332 . S
C6 C9 1.496 . S
C7 C2 1.418 . S
C7 C6 1.332 . S
C7 H65 0.929 . S
C8 C4 1.527 . S
C8 H66 0.959 . S
C8 H67 0.961 . S
C8 H68 0.961 . S
C9 C6 1.496 . S
C9 H69 0.960 . S
C9 H70 0.960 . S
C9 H71 0.961 . S
C10 C11 1.517 . S
C10 H73 0.961 . S
C10 H74 0.960 . S
C10 H75 0.959 . S
C11 C10 1.517 . S
C11 O59 1.468 . S
C11 H72 0.980 . S
C12 C13 1.349 . S
C12 C17 1.367 . S
C12 O59 1.408 . S
C13 C12 1.349 . S
C13 C14 1.407 . S
C13 H76 0.930 . S
C14 C13 1.407 . S
C14 C15 1.449 . S
C14 C18 1.535 . S
C15 C14 1.449 . S
C15 C16 1.384 . S
C15 C40 1.553 1_655 S
C16 C15 1.384 . S
C16 C17 1.364 . S
C16 C19 1.450 . S
C17 C12 1.367 . S
C17 C16 1.364 . S
C17 H77 0.931 . S
C18 C14 1.535 . S
C18 H78 0.959 1_655 S
C18 H79 0.961 . S
C18 H80 0.959 . S
C19 C16 1.450 . S
C19 H81 0.960 . S
C19 H82 0.960 1_655 S
C19 H83 0.960 . S
C20 C21 1.309 . S
C20 C25 1.304 . S
C20 O58 1.435 . S
C21 C20 1.309 . S
C21 C22 1.476 . S
C21 H85 0.930 . S
C22 C21 1.476 . S
C22 C23 1.400 . S
C22 C26 1.567 . S
C23 C22 1.400 . S
C23 C24 1.373 . S
C23 C45 1.432 . S
C24 C23 1.373 . S
C24 C25 1.339 . S
C24 C27 1.530 . S
C25 C20 1.304 . S
C25 C24 1.339 . S
C25 H86 0.930 . S
C26 C22 1.567 . S
C26 H87 0.961 . S
C26 H88 0.960 . S
C26 H89 0.958 . S
C27 C24 1.530 . S
C27 H90 0.961 . S
C27 H91 0.960 . S
C27 H92 0.960 . S
C28 C29 1.530 . S
C28 H94 0.961 . S
C28 H95 0.961 . S
C28 H96 0.959 . S
C29 C28 1.530 . S
C29 O57 1.412 . S
C29 H93 0.980 . S
C30 C31 1.288 . S
C30 C35 1.377 . S
C30 O57 1.393 . S
C31 C30 1.288 . S
C31 C32 1.369 . S
C31 H97 0.932 . S
C32 C31 1.369 . S
C32 C33 1.398 . S
C32 C36 1.527 . S
C33 C32 1.398 . S
C33 C34 1.380 . S
C33 C47 1.497 . S
C34 C33 1.380 . S
C34 C35 1.383 . S
C34 C37 1.603 . S
C35 C30 1.377 . S
C35 C34 1.383 . S
C35 H98 0.929 . S
C36 C32 1.527 . S
C36 H99 0.961 . S
C36 H100 0.959 1_455 S
C36 H101 0.959 . S
C37 C34 1.603 . S
C37 H102 0.960 . S
C37 H103 0.962 . S
C37 H104 0.961 . S
C38 C5 1.587 . S
C38 C39 1.360 . S
C38 C51 1.412 . S
C39 C38 1.360 . S
C39 C40 1.365 . S
C39 H105 0.929 . S
C40 C15 1.553 1_455 S
C40 C39 1.365 . S
C40 C41 1.404 1_455 S
C41 C40 1.404 1_655 S
C41 C42 1.395 . S
C41 C52 1.451 1_655 S
C42 C41 1.395 . S
C42 C43 1.322 . S
C42 H106 0.930 . S
C43 C42 1.322 . S
C43 C44 1.459 . S
C43 H107 0.929 . S
C44 C43 1.459 . S
C44 C45 1.445 . S
C44 C53 1.395 1_655 S
C45 C23 1.432 . S
C45 C44 1.445 . S
C45 C46 1.370 . S
C46 C45 1.370 . S
C46 C47 1.438 1_655 S
C46 H108 0.930 . S
C47 C33 1.497 . S
C47 C46 1.438 1_455 S
C47 C48 1.360 . S
C48 C47 1.360 . S
C48 C49 1.401 . S
C48 C53 1.446 . S
C49 C48 1.401 . S
C49 C50 1.347 . S
C49 H109 0.929 . S
C50 C49 1.347 . S
C50 C51 1.455 . S
C50 H110 0.930 . S
C51 C38 1.412 . S
C51 C50 1.455 . S
C51 C52 1.331 . S
C52 C41 1.451 1_455 S
C52 C51 1.331 . S
C52 C53 1.497 . S
C53 C44 1.395 1_455 S
C53 C48 1.446 . S
C53 C52 1.497 . S
C54 C55 1.582 . S
C54 H111 0.962 . S
C54 H112 0.959 . S
C54 H113 0.958 . S
C55 C54 1.582 . S
C55 O58 1.458 . S
C55 H84 0.980 . S
O56 C1 1.426 . S
O56 C2 1.334 . S
O57 C29 1.412 . S
O57 C30 1.393 . S
O58 C20 1.435 . S
O58 C55 1.458 . S
O59 C11 1.468 . S
O59 C12 1.408 . S
H60 C1 0.980 . S
H61 C0 0.959 . S
H62 C0 0.959 . S
H63 C0 0.960 . S
H64 C3 0.929 . S
H65 C7 0.929 . S
H66 C8 0.959 . S
H67 C8 0.961 . S
H68 C8 0.961 . S
H69 C9 0.960 . S
H70 C9 0.960 . S
H71 C9 0.961 . S
H72 C11 0.980 . S
H73 C10 0.961 . S
H74 C10 0.960 . S
H75 C10 0.959 . S
H76 C13 0.930 . S
H77 C17 0.931 . S
H78 C18 0.959 1_455 S
H79 C18 0.961 . S
H80 C18 0.959 . S
H81 C19 0.960 . S
H82 C19 0.960 1_455 S
H83 C19 0.960 . S
H84 C55 0.980 . S
H85 C21 0.930 . S
H86 C25 0.930 . S
H87 C26 0.961 . S
H88 C26 0.960 . S
H89 C26 0.958 . S
H90 C27 0.961 . S
H91 C27 0.960 . S
H92 C27 0.960 . S
H93 C29 0.980 . S
H94 C28 0.961 . S
H95 C28 0.961 . S
H96 C28 0.959 . S
H97 C31 0.932 . S
H98 C35 0.929 . S
H99 C36 0.961 . S
H100 C36 0.959 1_655 S
H101 C36 0.959 . S
H102 C37 0.960 . S
H103 C37 0.962 . S
H104 C37 0.961 . S
H105 C39 0.929 . S
H106 C42 0.930 . S
H107 C43 0.929 . S
H108 C46 0.930 . S
H109 C49 0.929 . S
H110 C50 0.930 . S
H111 C54 0.962 . S
H112 C54 0.959 . S
H113 C54 0.958 . S
C114 C115 1.560 . S
C114 H175 0.959 . S
C114 H176 0.959 . S
C114 H177 0.960 . S
C115 C114 1.560 . S
C115 O170 1.426 . S
C115 H174 0.980 . S
C116 C117 1.407 . S
C116 C121 1.418 . S
C116 O170 1.334 . S
C117 C116 1.407 . S
C117 C118 1.360 . S
C117 H178 0.929 . S
C118 C117 1.360 . S
C118 C119 1.401 . S
C118 C122 1.527 . S
C119 C118 1.401 . S
C119 C120 1.405 . S
C119 C152 1.587 . S
C120 C119 1.405 . S
C120 C121 1.332 . S
C120 C123 1.496 . S
C121 C116 1.418 . S
C121 C120 1.332 . S
C121 H179 0.929 . S
C122 C118 1.527 . S
C122 H180 0.959 . S
C122 H181 0.961 . S
C122 H182 0.961 . S
C123 C120 1.496 . S
C123 H183 0.960 . S
C123 H184 0.960 . S
C123 H185 0.961 . S
C124 C125 1.517 . S
C124 H187 0.961 . S
C124 H188 0.960 . S
C124 H189 0.959 . S
C125 C124 1.517 . S
C125 O173 1.468 . S
C125 H186 0.980 . S
C126 C127 1.349 . S
C126 C131 1.367 . S
C126 O173 1.408 . S
C127 C126 1.349 . S
C127 C128 1.407 . S
C127 H190 0.930 . S
C128 C127 1.407 . S
C128 C129 1.449 . S
C128 C132 1.535 . S
C129 C128 1.449 . S
C129 C130 1.384 . S
C129 C154 1.553 . S
C130 C129 1.384 . S
C130 C131 1.364 . S
C130 C133 1.450 . S
C131 C126 1.367 . S
C131 C130 1.364 . S
C131 H191 0.931 . S
C132 C128 1.535 . S
C132 H192 0.959 . S
C132 H193 0.961 . S
C132 H194 0.959 . S
C133 C130 1.450 . S
C133 H195 0.960 . S
C133 H196 0.960 . S
C133 H197 0.960 . S
C134 C135 1.309 . S
C134 C139 1.304 . S
C134 O172 1.435 . S
C135 C134 1.309 . S
C135 C136 1.476 . S
C135 H199 0.930 . S
C136 C135 1.476 . S
C136 C137 1.400 . S
C136 C140 1.567 . S
C137 C136 1.400 . S
C137 C138 1.373 . S
C137 C159 1.432 . S
C138 C137 1.373 . S
C138 C139 1.339 . S
C138 C141 1.530 . S
C139 C134 1.304 . S
C139 C138 1.339 . S
C139 H200 0.930 . S
C140 C136 1.567 . S
C140 H201 0.961 . S
C140 H202 0.960 . S
C140 H203 0.958 . S
C141 C138 1.530 . S
C141 H204 0.961 . S
C141 H205 0.960 . S
C141 H206 0.960 . S
C142 C143 1.530 . S
C142 H208 0.961 . S
C142 H209 0.961 . S
C142 H210 0.959 . S
C143 C142 1.530 . S
C143 O171 1.412 . S
C143 H207 0.980 . S
C144 C145 1.288 . S
C144 C149 1.377 . S
C144 O171 1.393 . S
C145 C144 1.288 . S
C145 C146 1.369 . S
C145 H211 0.932 . S
C146 C145 1.369 . S
C146 C147 1.398 . S
C146 C150 1.527 . S
C147 C146 1.398 . S
C147 C148 1.380 . S
C147 C161 1.497 1_565 S
C148 C147 1.380 . S
C148 C149 1.383 . S
C148 C151 1.603 . S
C149 C144 1.377 . S
C149 C148 1.383 . S
C149 H212 0.929 . S
C150 C146 1.527 . S
C150 H213 0.961 . S
C150 H214 0.959 1_565 S
C150 H215 0.959 . S
C151 C148 1.603 . S
C151 H216 0.960 . S
C151 H217 0.962 . S
C151 H218 0.961 . S
C152 C119 1.587 . S
C152 C153 1.360 . S
C152 C165 1.412 . S
C153 C152 1.360 . S
C153 C154 1.365 1_565 S
C153 H219 0.929 . S
C154 C129 1.553 . S
C154 C153 1.365 1_545 S
C154 C155 1.404 . S
C155 C154 1.404 . S
C155 C156 1.395 . S
C155 C166 1.445 1_545 S
C156 C155 1.395 . S
C156 C157 1.322 . S
C156 H220 0.930 . S
C157 C156 1.322 . S
C157 C158 1.459 . S
C157 H221 0.929 . S
C158 C157 1.459 . S
C158 C159 1.445 . S
C158 C167 1.395 . S
C159 C137 1.432 . S
C159 C158 1.445 . S
C159 C160 1.370 . S
C160 C159 1.370 . S
C160 C161 1.438 . S
C160 H222 0.930 . S
C161 C147 1.497 1_545 S
C161 C160 1.438 . S
C161 C162 1.360 1_545 S
C162 C161 1.360 1_565 S
C162 C163 1.401 . S
C162 C167 1.446 1_565 S
C163 C162 1.401 . S
C163 C164 1.347 . S
C163 H223 0.929 . S
C164 C163 1.347 . S
C164 C165 1.455 . S
C164 H224 0.930 . S
C165 C152 1.412 . S
C165 C164 1.455 . S
C165 C166 1.341 . S
C166 C155 1.445 1_565 S
C166 C165 1.341 . S
C166 C167 1.492 1_565 S
C167 C158 1.395 . S
C167 C162 1.446 1_545 S
C167 C166 1.492 1_545 S
C168 C169 1.582 . S
C168 H225 0.962 . S
C168 H226 0.959 . S
C168 H227 0.958 . S
C169 C168 1.582 . S
C169 O172 1.458 . S
C169 H198 0.980 . S
O170 C115 1.426 . S
O170 C116 1.334 . S
O171 C143 1.412 . S
O171 C144 1.393 . S
O172 C134 1.435 . S
O172 C169 1.458 . S
O173 C125 1.468 . S
O173 C126 1.408 . S
H174 C115 0.980 . S
H175 C114 0.959 . S
H176 C114 0.959 . S
H177 C114 0.960 . S
H178 C117 0.929 . S
H179 C121 0.929 . S
H180 C122 0.959 . S
H181 C122 0.961 . S
H182 C122 0.961 . S
H183 C123 0.960 . S
H184 C123 0.960 . S
H185 C123 0.961 . S
H186 C125 0.980 . S
H187 C124 0.961 . S
H188 C124 0.960 . S
H189 C124 0.959 . S
H190 C127 0.930 . S
H191 C131 0.931 . S
H192 C132 0.959 . S
H193 C132 0.961 . S
H194 C132 0.959 . S
H195 C133 0.960 . S
H196 C133 0.960 . S
H197 C133 0.960 . S
H198 C169 0.980 . S
H199 C135 0.930 . S
H200 C139 0.930 . S
H201 C140 0.961 . S
H202 C140 0.960 . S
H203 C140 0.958 . S
H204 C141 0.961 . S
H205 C141 0.960 . S
H206 C141 0.960 . S
H207 C143 0.980 . S
H208 C142 0.961 . S
H209 C142 0.961 . S
H210 C142 0.959 . S
H211 C145 0.932 . S
H212 C149 0.929 . S
H213 C150 0.961 . S
H214 C150 0.959 1_545 S
H215 C150 0.959 . S
H216 C151 0.960 . S
H217 C151 0.962 . S
H218 C151 0.961 . S
H219 C153 0.929 . S
H220 C156 0.930 . S
H221 C157 0.929 . S
H222 C160 0.930 . S
H223 C163 0.929 . S
H224 C164 0.930 . S
H225 C168 0.962 . S
H226 C168 0.959 . S
H227 C168 0.958 . S
C228 C229 1.560 . S
C228 H289 0.959 . S
C228 H290 0.959 . S
C228 H291 0.960 . S
C229 C228 1.560 . S
C229 O284 1.426 . S
C229 H288 0.980 . S
C230 C231 1.407 . S
C230 C235 1.418 . S
C230 O284 1.334 . S
C231 C230 1.407 . S
C231 C232 1.360 . S
C231 H292 0.929 . S
C232 C231 1.360 . S
C232 C233 1.401 . S
C232 C236 1.527 . S
C233 C232 1.401 . S
C233 C234 1.405 . S
C233 C266 1.587 . S
C234 C233 1.405 . S
C234 C235 1.332 . S
C234 C237 1.496 . S
C235 C230 1.418 . S
C235 C234 1.332 . S
C235 H293 0.929 . S
C236 C232 1.527 . S
C236 H294 0.959 . S
C236 H295 0.961 . S
C236 H296 0.961 . S
C237 C234 1.496 . S
C237 H297 0.960 . S
C237 H298 0.960 . S
C237 H299 0.961 . S
C238 C239 1.517 . S
C238 H301 0.961 . S
C238 H302 0.960 . S
C238 H303 0.959 . S
C239 C238 1.517 . S
C239 O287 1.468 . S
C239 H300 0.980 . S
C240 C241 1.349 . S
C240 C245 1.367 . S
C240 O287 1.408 . S
C241 C240 1.349 . S
C241 C242 1.407 . S
C241 H304 0.930 . S
C242 C241 1.407 . S
C242 C243 1.449 . S
C242 C246 1.535 . S
C243 C242 1.449 . S
C243 C244 1.384 . S
C243 C268 1.553 . S
C244 C243 1.384 . S
C244 C245 1.364 . S
C244 C247 1.450 . S
C245 C240 1.367 . S
C245 C244 1.364 . S
C245 H305 0.931 . S
C246 C242 1.535 . S
C246 H306 0.959 . S
C246 H307 0.961 . S
C246 H308 0.959 . S
C247 C244 1.450 . S
C247 H309 0.960 . S
C247 H310 0.960 . S
C247 H311 0.960 . S
C248 C249 1.309 . S
C248 C253 1.304 . S
C248 O286 1.435 . S
C249 C248 1.309 . S
C249 C250 1.476 . S
C249 H313 0.930 . S
C250 C249 1.476 . S
C250 C251 1.400 . S
C250 C254 1.567 . S
C251 C250 1.400 . S
C251 C252 1.373 . S
C251 C273 1.432 . S
C252 C251 1.373 . S
C252 C253 1.339 . S
C252 C255 1.530 . S
C253 C248 1.304 . S
C253 C252 1.339 . S
C253 H314 0.930 . S
C254 C250 1.567 . S
C254 H315 0.961 . S
C254 H316 0.960 . S
C254 H317 0.958 . S
C255 C252 1.530 . S
C255 H318 0.961 . S
C255 H319 0.960 . S
C255 H320 0.960 . S
C256 C257 1.530 . S
C256 H322 0.961 . S
C256 H323 0.961 . S
C256 H324 0.959 . S
C257 C256 1.530 . S
C257 O285 1.412 . S
C257 H321 0.980 . S
C258 C259 1.288 . S
C258 C263 1.377 . S
C258 O285 1.393 . S
C259 C258 1.288 . S
C259 C260 1.369 . S
C259 H325 0.932 . S
C260 C259 1.369 . S
C260 C261 1.398 . S
C260 C264 1.527 . S
C261 C260 1.398 . S
C261 C262 1.380 . S
C261 C275 1.497 . S
C262 C261 1.380 . S
C262 C263 1.383 . S
C262 C265 1.603 . S
C263 C258 1.377 . S
C263 C262 1.383 . S
C263 H326 0.929 . S
C264 C260 1.527 . S
C264 H327 0.961 . S
C264 H328 0.959 . S
C264 H329 0.959 . S
C265 C262 1.603 . S
C265 H330 0.960 . S
C265 H331 0.962 . S
C265 H332 0.961 . S
C266 C233 1.587 . S
C266 C267 1.360 . S
C266 C279 1.412 . S
C267 C266 1.360 . S
C267 C268 1.365 . S
C267 H333 0.929 . S
C268 C243 1.553 . S
C268 C267 1.365 . S
C268 C269 1.404 . S
C269 C268 1.404 . S
C269 C270 1.395 . S
C269 C280 1.451 . S
C270 C269 1.395 . S
C270 C271 1.322 . S
C270 H334 0.930 . S
C271 C270 1.322 . S
C271 C272 1.459 . S
C271 H335 0.929 . S
C272 C271 1.459 . S
C272 C273 1.445 . S
C272 C281 1.395 . S
C273 C251 1.432 . S
C273 C272 1.445 . S
C273 C274 1.370 . S
C274 C273 1.370 . S
C274 C275 1.438 . S
C274 H336 0.930 . S
C275 C261 1.497 . S
C275 C274 1.438 . S
C275 C276 1.360 . S
C276 C275 1.360 . S
C276 C277 1.401 . S
C276 C281 1.446 . S
C277 C276 1.401 . S
C277 C278 1.347 . S
C277 H337 0.929 . S
C278 C277 1.347 . S
C278 C279 1.455 . S
C278 H338 0.930 . S
C279 C266 1.412 . S
C279 C278 1.455 . S
C279 C280 1.331 . S
C280 C269 1.451 . S
C280 C279 1.331 . S
C280 C281 1.497 . S
C281 C272 1.395 . S
C281 C276 1.446 . S
C281 C280 1.497 . S
C282 C283 1.582 . S
C282 H339 0.962 . S
C282 H340 0.959 . S
C282 H341 0.958 . S
C283 C282 1.582 . S
C283 O286 1.458 . S
C283 H312 0.980 . S
O284 C229 1.426 . S
O284 C230 1.334 . S
O285 C257 1.412 . S
O285 C258 1.393 . S
O286 C248 1.435 . S
O286 C283 1.458 . S
O287 C239 1.468 . S
O287 C240 1.408 . S
H288 C229 0.980 . S
H289 C228 0.959 . S
H290 C228 0.959 . S
H291 C228 0.960 . S
H292 C231 0.929 . S
H293 C235 0.929 . S
H294 C236 0.959 . S
H295 C236 0.961 . S
H296 C236 0.961 . S
H297 C237 0.960 . S
H298 C237 0.960 . S
H299 C237 0.961 . S
H300 C239 0.980 . S
H301 C238 0.961 . S
H302 C238 0.960 . S
H303 C238 0.959 . S
H304 C241 0.930 . S
H305 C245 0.931 . S
H306 C246 0.959 . S
H307 C246 0.961 . S
H308 C246 0.959 . S
H309 C247 0.960 . S
H310 C247 0.960 . S
H311 C247 0.960 . S
H312 C283 0.980 . S
H313 C249 0.930 . S
H314 C253 0.930 . S
H315 C254 0.961 . S
H316 C254 0.960 . S
H317 C254 0.958 . S
H318 C255 0.961 . S
H319 C255 0.960 . S
H320 C255 0.960 . S
H321 C257 0.980 . S
H322 C256 0.961 . S
H323 C256 0.961 . S
H324 C256 0.959 . S
H325 C259 0.932 . S
H326 C263 0.929 . S
H327 C264 0.961 . S
H328 C264 0.959 . S
H329 C264 0.959 . S
H330 C265 0.960 . S
H331 C265 0.962 . S
H332 C265 0.961 . S
H333 C267 0.929 . S
H334 C270 0.930 . S
H335 C271 0.929 . S
H336 C274 0.930 . S
H337 C277 0.929 . S
H338 C278 0.930 . S
H339 C282 0.962 . S
H340 C282 0.959 . S
H341 C282 0.958 . S
C342 C343 1.560 . S
C342 H403 0.959 . S
C342 H404 0.959 . S
C342 H405 0.960 . S
C343 C342 1.560 . S
C343 O398 1.426 . S
C343 H402 0.980 . S
C344 C345 1.407 . S
C344 C349 1.418 . S
C344 O398 1.334 . S
C345 C344 1.407 . S
C345 C346 1.360 . S
C345 H406 0.929 . S
C346 C345 1.360 . S
C346 C347 1.401 . S
C346 C350 1.527 . S
C347 C346 1.401 . S
C347 C348 1.405 . S
C347 C380 1.587 . S
C348 C347 1.405 . S
C348 C349 1.332 . S
C348 C351 1.496 . S
C349 C344 1.418 . S
C349 C348 1.332 . S
C349 H407 0.929 . S
C350 C346 1.527 . S
C350 H408 0.959 . S
C350 H409 0.961 . S
C350 H410 0.961 . S
C351 C348 1.496 . S
C351 H411 0.960 . S
C351 H412 0.960 . S
C351 H413 0.961 . S
C352 C353 1.517 . S
C352 H415 0.961 . S
C352 H416 0.960 . S
C352 H417 0.959 . S
C353 C352 1.517 . S
C353 O401 1.468 1_554 S
C353 H414 0.980 . S
C354 C355 1.349 . S
C354 C359 1.367 . S
C354 O401 1.408 . S
C355 C354 1.349 . S
C355 C356 1.407 . S
C355 H418 0.930 . S
C356 C355 1.407 . S
C356 C357 1.449 . S
C356 C360 1.535 . S
C357 C356 1.449 . S
C357 C358 1.384 . S
C357 C382 1.553 1_655 S
C358 C357 1.384 . S
C358 C359 1.364 . S
C358 C361 1.450 . S
C359 C354 1.367 . S
C359 C358 1.364 . S
C359 H419 0.931 . S
C360 C356 1.535 . S
C360 H420 0.959 1_655 S
C360 H421 0.961 1_655 S
C360 H422 0.959 . S
C361 C358 1.450 . S
C361 H423 0.960 . S
C361 H424 0.960 1_655 S
C361 H425 0.960 . S
C362 C363 1.309 . S
C362 C367 1.304 . S
C362 O400 1.435 . S
C363 C362 1.309 . S
C363 C364 1.476 . S
C363 H427 0.930 . S
C364 C363 1.476 . S
C364 C365 1.400 . S
C364 C368 1.567 . S
C365 C364 1.400 . S
C365 C366 1.373 . S
C365 C387 1.432 . S
C366 C365 1.373 . S
C366 C367 1.339 . S
C366 C369 1.530 . S
C367 C362 1.304 . S
C367 C366 1.339 . S
C367 H428 0.930 . S
C368 C364 1.567 . S
C368 H429 0.961 . S
C368 H430 0.960 . S
C368 H431 0.958 . S
C369 C366 1.530 . S
C369 H432 0.961 . S
C369 H433 0.960 . S
C369 H434 0.960 . S
C370 C371 1.530 . S
C370 H436 0.961 . S
C370 H437 0.961 . S
C370 H438 0.959 . S
C371 C370 1.530 . S
C371 O399 1.412 . S
C371 H435 0.980 . S
C372 C373 1.288 . S
C372 C377 1.377 . S
C372 O399 1.393 . S
C373 C372 1.288 . S
C373 C374 1.369 . S
C373 H439 0.932 . S
C374 C373 1.369 . S
C374 C375 1.398 . S
C374 C378 1.527 . S
C375 C374 1.398 . S
C375 C376 1.380 . S
C375 C389 1.497 . S
C376 C375 1.380 . S
C376 C377 1.383 . S
C376 C379 1.603 . S
C377 C372 1.377 . S
C377 C376 1.383 . S
C377 H440 0.929 . S
C378 C374 1.527 . S
C378 H441 0.961 . S
C378 H442 0.959 1_455 S
C378 H443 0.959 . S
C379 C376 1.603 . S
C379 H444 0.960 . S
C379 H445 0.962 . S
C379 H446 0.961 . S
C380 C347 1.587 . S
C380 C381 1.360 . S
C380 C393 1.412 . S
C381 C380 1.360 . S
C381 C382 1.365 . S
C381 H447 0.929 . S
C382 C357 1.553 1_455 S
C382 C381 1.365 . S
C382 C383 1.404 1_455 S
C383 C382 1.404 1_655 S
C383 C384 1.395 . S
C383 C394 1.451 1_655 S
C384 C383 1.395 . S
C384 C385 1.322 . S
C384 H448 0.930 . S
C385 C384 1.322 . S
C385 C386 1.459 . S
C385 H449 0.929 . S
C386 C385 1.459 . S
C386 C387 1.445 . S
C386 C395 1.395 1_655 S
C387 C365 1.432 . S
C387 C386 1.445 . S
C387 C388 1.370 . S
C388 C387 1.370 . S
C388 C389 1.438 1_655 S
C388 H450 0.930 . S
C389 C375 1.497 . S
C389 C388 1.438 1_455 S
C389 C390 1.360 . S
C390 C389 1.360 . S
C390 C391 1.401 . S
C390 C395 1.446 . S
C391 C390 1.401 . S
C391 C392 1.347 . S
C391 H451 0.929 . S
C392 C391 1.347 . S
C392 C393 1.455 . S
C392 H452 0.930 . S
C393 C380 1.412 . S
C393 C392 1.455 . S
C393 C394 1.331 . S
C394 C383 1.451 1_455 S
C394 C393 1.331 . S
C394 C395 1.497 . S
C395 C386 1.395 1_455 S
C395 C390 1.446 . S
C395 C394 1.497 . S
C396 C397 1.582 . S
C396 H453 0.962 . S
C396 H454 0.959 . S
C396 H455 0.958 . S
C397 C396 1.582 . S
C397 O400 1.458 . S
C397 H426 0.980 . S
O398 C343 1.426 . S
O398 C344 1.334 . S
O399 C371 1.412 . S
O399 C372 1.393 . S
O400 C362 1.435 . S
O400 C397 1.458 . S
O401 C353 1.468 1_556 S
O401 C354 1.408 . S
H402 C343 0.980 . S
H403 C342 0.959 . S
H404 C342 0.959 . S
H405 C342 0.960 . S
H406 C345 0.929 . S
H407 C349 0.929 . S
H408 C350 0.959 . S
H409 C350 0.961 . S
H410 C350 0.961 . S
H411 C351 0.960 . S
H412 C351 0.960 . S
H413 C351 0.961 . S
H414 C353 0.980 . S
H415 C352 0.961 . S
H416 C352 0.960 . S
H417 C352 0.959 . S
H418 C355 0.930 . S
H419 C359 0.931 . S
H420 C360 0.959 1_455 S
H421 C360 0.961 1_455 S
H422 C360 0.959 . S
H423 C361 0.960 . S
H424 C361 0.960 1_455 S
H425 C361 0.960 . S
H426 C397 0.980 . S
H427 C363 0.930 . S
H428 C367 0.930 . S
H429 C368 0.961 . S
H430 C368 0.960 . S
H431 C368 0.958 . S
H432 C369 0.961 . S
H433 C369 0.960 . S
H434 C369 0.960 . S
H435 C371 0.980 . S
H436 C370 0.961 . S
H437 C370 0.961 . S
H438 C370 0.959 . S
H439 C373 0.932 . S
H440 C377 0.929 . S
H441 C378 0.961 . S
H442 C378 0.959 1_655 S
H443 C378 0.959 . S
H444 C379 0.960 . S
H445 C379 0.962 . S
H446 C379 0.961 . S
H447 C381 0.929 . S
H448 C384 0.930 . S
H449 C385 0.929 . S
H450 C388 0.930 . S
H451 C391 0.929 . S
H452 C392 0.930 . S
H453 C396 0.962 . S
H454 C396 0.959 . S
H455 C396 0.958 . S
C456 C457 1.560 . S
C456 H517 0.959 . S
C456 H518 0.959 . S
C456 H519 0.960 . S
C457 C456 1.560 . S
C457 O512 1.426 . S
C457 H516 0.980 . S
C458 C459 1.407 . S
C458 C463 1.418 . S
C458 O512 1.334 . S
C459 C458 1.407 . S
C459 C460 1.360 . S
C459 H520 0.929 . S
C460 C459 1.360 . S
C460 C461 1.401 . S
C460 C464 1.527 . S
C461 C460 1.401 . S
C461 C462 1.405 . S
C461 C494 1.587 . S
C462 C461 1.405 . S
C462 C463 1.332 . S
C462 C465 1.496 . S
C463 C458 1.418 . S
C463 C462 1.332 . S
C463 H521 0.929 . S
C464 C460 1.527 . S
C464 H522 0.959 . S
C464 H523 0.961 . S
C464 H524 0.961 . S
C465 C462 1.496 . S
C465 H525 0.960 . S
C465 H526 0.960 . S
C465 H527 0.961 . S
C466 C467 1.517 . S
C466 H529 0.961 . S
C466 H530 0.960 . S
C466 H531 0.959 . S
C467 C466 1.517 . S
C467 O515 1.468 . S
C467 H528 0.980 . S
C468 C469 1.349 . S
C468 C473 1.367 . S
C468 O515 1.408 . S
C469 C468 1.349 . S
C469 C470 1.407 . S
C469 H532 0.930 . S
C470 C469 1.407 . S
C470 C471 1.449 . S
C470 C474 1.535 . S
C471 C470 1.449 . S
C471 C472 1.384 . S
C471 C496 1.553 . S
C472 C471 1.384 . S
C472 C473 1.364 . S
C472 C475 1.450 . S
C473 C468 1.367 . S
C473 C472 1.364 . S
C473 H533 0.931 . S
C474 C470 1.535 . S
C474 H534 0.959 . S
C474 H535 0.961 . S
C474 H536 0.959 . S
C475 C472 1.450 . S
C475 H537 0.960 . S
C475 H538 0.960 1_545 S
C475 H539 0.960 . S
C476 C477 1.309 . S
C476 C481 1.304 . S
C476 O514 1.435 . S
C477 C476 1.309 . S
C477 C478 1.476 . S
C477 H541 0.930 . S
C478 C477 1.476 . S
C478 C479 1.400 . S
C478 C482 1.567 . S
C479 C478 1.400 . S
C479 C480 1.373 . S
C479 C501 1.432 . S
C480 C479 1.373 . S
C480 C481 1.339 . S
C480 C483 1.530 . S
C481 C476 1.304 . S
C481 C480 1.339 . S
C481 H542 0.930 . S
C482 C478 1.567 . S
C482 H543 0.961 . S
C482 H544 0.960 . S
C482 H545 0.958 . S
C483 C480 1.530 . S
C483 H546 0.961 . S
C483 H547 0.960 . S
C483 H548 0.960 . S
C484 C485 1.530 . S
C484 H550 0.961 . S
C484 H551 0.961 . S
C484 H552 0.959 . S
C485 C484 1.530 . S
C485 O513 1.412 . S
C485 H549 0.980 . S
C486 C487 1.288 . S
C486 C491 1.377 . S
C486 O513 1.393 . S
C487 C486 1.288 . S
C487 C488 1.369 . S
C487 H553 0.932 . S
C488 C487 1.369 . S
C488 C489 1.398 . S
C488 C492 1.527 1_565 S
C489 C488 1.398 . S
C489 C490 1.380 . S
C489 C503 1.497 1_565 S
C490 C489 1.380 . S
C490 C491 1.383 . S
C490 C493 1.603 . S
C491 C486 1.377 . S
C491 C490 1.383 . S
C491 H554 0.929 . S
C492 C488 1.527 1_545 S
C492 H555 0.960 1_545 S
C492 H556 0.959 . S
C492 H557 0.959 1_545 S
C493 C490 1.603 . S
C493 H558 0.960 . S
C493 H559 0.962 . S
C493 H560 0.961 . S
C494 C461 1.587 . S
C494 C495 1.360 . S
C494 C507 1.412 . S
C495 C494 1.360 . S
C495 C496 1.365 1_565 S
C495 H561 0.929 . S
C496 C471 1.553 . S
C496 C495 1.365 1_545 S
C496 C497 1.404 . S
C497 C496 1.404 . S
C497 C498 1.395 . S
C497 C508 1.451 1_545 S
C498 C497 1.395 . S
C498 C499 1.322 . S
C498 H562 0.930 . S
C499 C498 1.322 . S
C499 C500 1.459 1_556 S
C499 H563 0.929 . S
C500 C499 1.459 1_554 S
C500 C501 1.445 . S
C500 C509 1.395 1_554 S
C501 C479 1.432 . S
C501 C500 1.445 . S
C501 C502 1.370 . S
C502 C501 1.370 . S
C502 C503 1.438 . S
C502 H564 0.930 . S
C503 C489 1.497 1_545 S
C503 C502 1.438 . S
C503 C504 1.360 1_545 S
C504 C503 1.360 1_565 S
C504 C505 1.401 . S
C504 C509 1.446 1_564 S
C505 C504 1.401 . S
C505 C506 1.347 1_554 S
C505 H565 0.929 . S
C506 C505 1.347 1_556 S
C506 C507 1.455 . S
C506 H566 0.930 . S
C507 C494 1.412 . S
C507 C506 1.455 . S
C507 C508 1.331 . S
C508 C497 1.451 1_565 S
C508 C507 1.331 . S
C508 C509 1.497 1_565 S
C509 C500 1.395 1_556 S
C509 C504 1.446 1_546 S
C509 C508 1.497 1_545 S
C510 C511 1.582 . S
C510 H567 0.962 . S
C510 H568 0.959 . S
C510 H569 0.958 . S
C511 C510 1.582 . S
C511 O514 1.458 . S
C511 H540 0.980 . S
O512 C457 1.426 . S
O512 C458 1.334 . S
O513 C485 1.412 . S
O513 C486 1.393 . S
O514 C476 1.435 . S
O514 C511 1.458 . S
O515 C467 1.468 . S
O515 C468 1.408 . S
H516 C457 0.980 . S
H517 C456 0.959 . S
H518 C456 0.959 . S
H519 C456 0.960 . S
H520 C459 0.929 . S
H521 C463 0.929 . S
H522 C464 0.959 . S
H523 C464 0.961 . S
H524 C464 0.961 . S
H525 C465 0.960 . S
H526 C465 0.960 . S
H527 C465 0.961 . S
H528 C467 0.980 . S
H529 C466 0.961 . S
H530 C466 0.960 . S
H531 C466 0.959 . S
H532 C469 0.930 . S
H533 C473 0.931 . S
H534 C474 0.959 . S
H535 C474 0.961 . S
H536 C474 0.959 . S
H537 C475 0.960 . S
H538 C475 0.960 1_565 S
H539 C475 0.960 . S
H540 C511 0.980 . S
H541 C477 0.930 . S
H542 C481 0.930 . S
H543 C482 0.961 . S
H544 C482 0.960 . S
H545 C482 0.958 . S
H546 C483 0.961 . S
H547 C483 0.960 . S
H548 C483 0.960 . S
H549 C485 0.980 . S
H550 C484 0.961 . S
H551 C484 0.961 . S
H552 C484 0.959 . S
H553 C487 0.932 . S
H554 C491 0.929 . S
H555 C492 0.960 1_565 S
H556 C492 0.959 . S
H557 C492 0.959 1_565 S
H558 C493 0.960 . S
H559 C493 0.962 . S
H560 C493 0.961 . S
H561 C495 0.929 . S
H562 C498 0.930 . S
H563 C499 0.929 . S
H564 C502 0.930 . S
H565 C505 0.929 . S
H566 C506 0.930 . S
H567 C510 0.962 . S
H568 C510 0.959 . S
H569 C510 0.958 . S
C570 C571 1.560 . S
C570 H631 0.959 . S
C570 H632 0.959 . S
C570 H633 0.960 . S
C571 C570 1.560 . S
C571 O626 1.426 . S
C571 H630 0.980 . S
C572 C573 1.407 . S
C572 C577 1.418 . S
C572 O626 1.334 . S
C573 C572 1.407 . S
C573 C574 1.360 . S
C573 H634 0.929 . S
C574 C573 1.360 . S
C574 C575 1.401 . S
C574 C578 1.527 . S
C575 C574 1.401 . S
C575 C576 1.405 . S
C575 C608 1.587 . S
C576 C575 1.405 . S
C576 C577 1.332 . S
C576 C579 1.496 . S
C577 C572 1.418 . S
C577 C576 1.332 . S
C577 H635 0.929 . S
C578 C574 1.527 . S
C578 H636 0.959 . S
C578 H637 0.961 . S
C578 H638 0.961 . S
C579 C576 1.496 . S
C579 H639 0.960 . S
C579 H640 0.960 . S
C579 H641 0.961 . S
C580 C581 1.517 . S
C580 H643 0.961 . S
C580 H644 0.960 . S
C580 H645 0.959 . S
C581 C580 1.517 . S
C581 O629 1.468 . S
C581 H642 0.980 . S
C582 C583 1.349 . S
C582 C587 1.367 1_556 S
C582 O629 1.408 . S
C583 C582 1.349 . S
C583 C584 1.407 1_556 S
C583 H646 0.930 . S
C584 C583 1.407 1_554 S
C584 C585 1.449 . S
C584 C588 1.535 . S
C585 C584 1.449 . S
C585 C586 1.384 . S
C585 C610 1.553 . S
C586 C585 1.384 . S
C586 C587 1.364 . S
C586 C589 1.450 . S
C587 C582 1.367 1_554 S
C587 C586 1.364 . S
C587 H647 0.931 1_554 S
C588 C584 1.535 . S
C588 H648 0.959 . S
C588 H649 0.961 . S
C588 H650 0.959 . S
C589 C586 1.450 . S
C589 H651 0.960 . S
C589 H652 0.960 . S
C589 H653 0.960 . S
C590 C591 1.309 . S
C590 C595 1.304 . S
C590 O628 1.435 . S
C591 C590 1.309 . S
C591 C592 1.476 . S
C591 H655 0.930 . S
C592 C591 1.476 . S
C592 C593 1.400 . S
C592 C596 1.567 . S
C593 C592 1.400 . S
C593 C594 1.373 . S
C593 C615 1.432 . S
C594 C593 1.373 . S
C594 C595 1.339 . S
C594 C597 1.530 . S
C595 C590 1.304 . S
C595 C594 1.339 . S
C595 H656 0.930 . S
C596 C592 1.567 . S
C596 H657 0.961 . S
C596 H658 0.960 . S
C596 H659 0.958 . S
C597 C594 1.530 . S
C597 H660 0.961 . S
C597 H661 0.960 . S
C597 H662 0.960 . S
C598 C599 1.530 . S
C598 H664 0.961 . S
C598 H665 0.961 . S
C598 H666 0.959 . S
C599 C598 1.530 . S
C599 O627 1.412 . S
C599 H663 0.980 . S
C600 C601 1.288 . S
C600 C605 1.377 . S
C600 O627 1.393 . S
C601 C600 1.288 . S
C601 C602 1.369 . S
C601 H667 0.932 . S
C602 C601 1.369 . S
C602 C603 1.398 . S
C602 C606 1.527 . S
C603 C602 1.398 . S
C603 C604 1.380 . S
C603 C617 1.497 . S
C604 C603 1.380 . S
C604 C605 1.383 . S
C604 C607 1.603 . S
C605 C600 1.377 . S
C605 C604 1.383 . S
C605 H668 0.929 . S
C606 C602 1.527 . S
C606 H669 0.961 . S
C606 H670 0.959 . S
C606 H671 0.959 . S
C607 C604 1.603 . S
C607 H672 0.960 . S
C607 H673 0.962 . S
C607 H674 0.961 . S
C608 C575 1.587 . S
C608 C609 1.360 . S
C608 C621 1.412 . S
C609 C608 1.360 . S
C609 C610 1.365 . S
C609 H675 0.929 . S
C610 C585 1.553 . S
C610 C609 1.365 . S
C610 C611 1.404 . S
C611 C610 1.404 . S
C611 C612 1.395 . S
C611 C622 1.451 . S
C612 C611 1.395 . S
C612 C613 1.322 . S
C612 H676 0.930 . S
C613 C612 1.322 . S
C613 C614 1.459 . S
C613 H677 0.929 . S
C614 C613 1.459 . S
C614 C615 1.445 . S
C614 C623 1.395 . S
C615 C593 1.432 . S
C615 C614 1.445 . S
C615 C616 1.370 . S
C616 C615 1.370 . S
C616 C617 1.438 . S
C616 H678 0.930 . S
C617 C603 1.497 . S
C617 C616 1.438 . S
C617 C618 1.360 . S
C618 C617 1.360 . S
C618 C619 1.401 . S
C618 C623 1.446 . S
C619 C618 1.401 . S
C619 C620 1.347 . S
C619 H679 0.929 . S
C620 C619 1.347 . S
C620 C621 1.455 . S
C620 H680 0.930 . S
C621 C608 1.412 . S
C621 C620 1.455 . S
C621 C622 1.331 . S
C622 C611 1.451 . S
C622 C621 1.331 . S
C622 C623 1.497 . S
C623 C614 1.395 . S
C623 C618 1.446 . S
C623 C622 1.497 . S
C624 C625 1.582 . S
C624 H681 0.962 . S
C624 H682 0.959 . S
C624 H683 0.958 . S
C625 C624 1.582 . S
C625 O628 1.458 . S
C625 H654 0.980 . S
O626 C571 1.426 . S
O626 C572 1.334 . S
O627 C599 1.412 . S
O627 C600 1.393 . S
O628 C590 1.435 . S
O628 C625 1.458 . S
O629 C581 1.468 . S
O629 C582 1.408 . S
H630 C571 0.980 . S
H631 C570 0.959 . S
H632 C570 0.959 . S
H633 C570 0.960 . S
H634 C573 0.929 . S
H635 C577 0.929 . S
H636 C578 0.959 . S
H637 C578 0.961 . S
H638 C578 0.961 . S
H639 C579 0.960 . S
H640 C579 0.960 . S
H641 C579 0.961 . S
H642 C581 0.980 . S
H643 C580 0.961 . S
H644 C580 0.960 . S
H645 C580 0.959 . S
H646 C583 0.930 . S
H647 C587 0.931 1_556 S
H648 C588 0.959 . S
H649 C588 0.961 . S
H650 C588 0.959 . S
H651 C589 0.960 . S
H652 C589 0.960 . S
H653 C589 0.960 . S
H654 C625 0.980 . S
H655 C591 0.930 . S
H656 C595 0.930 . S
H657 C596 0.961 . S
H658 C596 0.960 . S
H659 C596 0.958 . S
H660 C597 0.961 . S
H661 C597 0.960 . S
H662 C597 0.960 . S
H663 C599 0.980 . S
H664 C598 0.961 . S
H665 C598 0.961 . S
H666 C598 0.959 . S
H667 C601 0.932 . S
H668 C605 0.929 . S
H669 C606 0.961 . S
H670 C606 0.959 . S
H671 C606 0.959 . S
H672 C607 0.960 . S
H673 C607 0.962 . S
H674 C607 0.961 . S
H675 C609 0.929 . S
H676 C612 0.930 . S
H677 C613 0.929 . S
H678 C616 0.930 . S
H679 C619 0.929 . S
H680 C620 0.930 . S
H681 C624 0.962 . S
H682 C624 0.959 . S
H683 C624 0.958 . S
C684 O685 1.160 . S
C684 O691 1.185 . S
O685 C684 1.160 . S
O686 Zn687 1.899 . S
O686 C694 1.284 . S
Zn687 O686 1.899 . S
Zn687 O688 2.032 . S
Zn687 O691 2.086 . S
Zn687 O696 1.977 . S
O688 Zn687 2.032 . S
O688 C692 1.278 . S
C689 O690 1.203 . S
C689 O696 1.267 . S
O690 C689 1.203 . S
O691 C684 1.185 . S
O691 Zn687 2.086 . S
C692 O688 1.278 . S
C692 O693 1.211 . S
O693 C692 1.211 . S
C694 O686 1.284 . S
C694 O695 1.273 . S
O695 C694 1.273 . S
O696 Zn687 1.977 . S
O696 C689 1.267 . S
C697 O698 1.160 . S
C697 O704 1.185 . S
O698 C697 1.160 . S
O699 Zn700 1.899 . S
O699 C707 1.284 . S
Zn700 O699 1.899 . S
Zn700 O701 2.032 . S
Zn700 O704 2.086 . S
Zn700 O709 1.977 . S
O701 Zn700 2.032 . S
O701 C705 1.278 . S
C702 O703 1.203 . S
C702 O709 1.267 . S
O703 C702 1.203 . S
O704 C697 1.185 . S
O704 Zn700 2.086 . S
C705 O701 1.278 . S
C705 O706 1.211 . S
O706 C705 1.211 . S
C707 O699 1.284 . S
C707 O708 1.273 . S
O708 C707 1.273 . S
O709 Zn700 1.977 . S
O709 C702 1.267 . S
C710 O711 1.160 . S
C710 O717 1.185 . S
O711 C710 1.160 . S
O712 Zn713 1.899 . S
O712 C720 1.284 . S
Zn713 O712 1.899 . S
Zn713 O714 2.032 . S
Zn713 O717 2.086 . S
Zn713 O722 1.977 . S
O714 Zn713 2.032 . S
O714 C718 1.278 . S
C715 O716 1.203 . S
C715 O722 1.267 . S
O716 C715 1.203 . S
O717 C710 1.185 . S
O717 Zn713 2.086 . S
C718 O714 1.278 . S
C718 O719 1.211 . S
O719 C718 1.211 . S
C720 O712 1.284 . S
C720 O721 1.273 . S
O721 C720 1.273 . S
O722 Zn713 1.977 . S
O722 C715 1.267 . S
C723 O724 1.160 . S
C723 O730 1.185 . S
O724 C723 1.160 . S
O725 Zn726 1.899 . S
O725 C733 1.284 . S
Zn726 O725 1.899 . S
Zn726 O727 2.032 . S
Zn726 O730 2.086 . S
Zn726 O735 1.977 . S
O727 Zn726 2.032 . S
O727 C731 1.278 . S
C728 O729 1.203 . S
C728 O735 1.267 . S
O729 C728 1.203 . S
O730 C723 1.185 . S
O730 Zn726 2.086 . S
C731 O727 1.278 . S
C731 O732 1.211 . S
O732 C731 1.211 . S
C733 O725 1.284 . S
C733 O734 1.273 . S
O734 C733 1.273 . S
O735 Zn726 1.977 . S
O735 C728 1.267 . S
C736 O737 1.160 . S
C736 O743 1.185 . S
O737 C736 1.160 . S
O738 Zn739 1.899 . S
O738 C746 1.284 . S
Zn739 O738 1.899 . S
Zn739 O740 2.032 . S
Zn739 O743 2.086 . S
Zn739 O748 1.977 . S
O740 Zn739 2.032 . S
O740 C744 1.278 . S
C741 O742 1.203 . S
C741 O748 1.267 . S
O742 C741 1.203 . S
O743 C736 1.185 . S
O743 Zn739 2.086 . S
C744 O740 1.278 . S
C744 O745 1.211 . S
O745 C744 1.211 . S
C746 O738 1.284 . S
C746 O747 1.273 . S
O747 C746 1.273 . S
O748 Zn739 1.977 . S
O748 C741 1.267 . S
C749 O750 1.160 . S
C749 O756 1.185 . S
O750 C749 1.160 . S
O751 Zn752 1.899 . S
O751 C759 1.284 . S
Zn752 O751 1.899 . S
Zn752 O753 2.032 . S
Zn752 O756 2.086 . S
Zn752 O761 1.977 . S
O753 Zn752 2.032 . S
O753 C757 1.278 . S
C754 O755 1.203 . S
C754 O761 1.267 . S
O755 C754 1.203 . S
O756 C749 1.185 . S
O756 Zn752 2.086 . S
C757 O753 1.278 . S
C757 O758 1.211 . S
O758 C757 1.211 . S
C759 O751 1.284 . S
C759 O760 1.273 . S
O760 C759 1.273 . S
O761 Zn752 1.977 . S
O761 C754 1.267 . S
C759 C1 2.538 . S
C169 C684 2.780 . S
C283 C707 3.515 . S
C397 C720 2.214 . S
C723 C457 2.206 . S
C571 C736 1.941 . S
C115 C697 2.066 . S
C229 C710 2.160 . S
C343 C733 1.711 . S
C746 C511 3.403 . S
C749 C625 2.728 . S
C694 C55 3.411 . S
C29 C705 1.300 . S
C125 C718 0.626 . S
C728 C239 0.947 . S
C353 C741 0.860 . S
C757 C485 0.933 . S
C689 C599 1.001 . S
C754 C143 0.987 . S
C257 C692 1.091 . S
C702 C371 1.343 . S
C467 C715 1.085 . S
C581 C731 0.550 . S
C11 C744 0.683 . S
