# Generated by pormake.
# Topology ssa, (4,4)-cn, num edge types: 1
# Building blocks:
#     Node 0, Type 0, BuildingBlock: KOZSID_clean_sbu_0, # of connection points: 4
#     Node 1, Type 0, BuildingBlock: KOZSID_clean_sbu_0, # of connection points: 4
#     Node 2, Type 0, BuildingBlock: KOZSID_clean_sbu_0, # of connection points: 4
#     Node 3, Type 0, BuildingBlock: KOZSID_clean_sbu_0, # of connection points: 4
#     Node 4, Type 0, BuildingBlock: KOZSID_clean_sbu_0, # of connection points: 4
#     Node 5, Type 0, BuildingBlock: KOZSID_clean_sbu_0, # of connection points: 4
#     Node 6, Type 1, BuildingBlock: NAWXER_clean_linker_0, # of connection points: 4
#     Node 7, Type 1, BuildingBlock: NAWXER_clean_linker_0, # of connection points: 4
#     Node 8, Type 1, BuildingBlock: NAWXER_clean_linker_0, # of connection points: 4
#     Node 9, Type 1, BuildingBlock: NAWXER_clean_linker_0, # of connection points: 4
#     Node 10, Type 1, BuildingBlock: NAWXER_clean_linker_0, # of connection points: 4
#     Node 11, Type 1, BuildingBlock: NAWXER_clean_linker_0, # of connection points: 4
#     Edge 12, Type (0, 1), BuildingBlock: OJICUG_clean_linker_0, # of connection points: 2
#     Edge 13, Type (0, 1), BuildingBlock: OJICUG_clean_linker_0, # of connection points: 2
#     Edge 14, Type (0, 1), BuildingBlock: OJICUG_clean_linker_0, # of connection points: 2
#     Edge 15, Type (0, 1), BuildingBlock: OJICUG_clean_linker_0, # of connection points: 2
#     Edge 16, Type (0, 1), BuildingBlock: OJICUG_clean_linker_0, # of connection points: 2
#     Edge 17, Type (0, 1), BuildingBlock: OJICUG_clean_linker_0, # of connection points: 2
#     Edge 18, Type (0, 1), BuildingBlock: OJICUG_clean_linker_0, # of connection points: 2
#     Edge 19, Type (0, 1), BuildingBlock: OJICUG_clean_linker_0, # of connection points: 2
#     Edge 20, Type (0, 1), BuildingBlock: OJICUG_clean_linker_0, # of connection points: 2
#     Edge 21, Type (0, 1), BuildingBlock: OJICUG_clean_linker_0, # of connection points: 2
#     Edge 22, Type (0, 1), BuildingBlock: OJICUG_clean_linker_0, # of connection points: 2
#     Edge 23, Type (0, 1), BuildingBlock: OJICUG_clean_linker_0, # of connection points: 2
#     Edge 24, Type (0, 1), BuildingBlock: OJICUG_clean_linker_0, # of connection points: 2
#     Edge 25, Type (0, 1), BuildingBlock: OJICUG_clean_linker_0, # of connection points: 2
#     Edge 26, Type (0, 1), BuildingBlock: OJICUG_clean_linker_0, # of connection points: 2
#     Edge 27, Type (0, 1), BuildingBlock: OJICUG_clean_linker_0, # of connection points: 2
#     Edge 28, Type (0, 1), BuildingBlock: OJICUG_clean_linker_0, # of connection points: 2
#     Edge 29, Type (0, 1), BuildingBlock: OJICUG_clean_linker_0, # of connection points: 2
#     Edge 30, Type (0, 1), BuildingBlock: OJICUG_clean_linker_0, # of connection points: 2
#     Edge 31, Type (0, 1), BuildingBlock: OJICUG_clean_linker_0, # of connection points: 2
#     Edge 32, Type (0, 1), BuildingBlock: OJICUG_clean_linker_0, # of connection points: 2
#     Edge 33, Type (0, 1), BuildingBlock: OJICUG_clean_linker_0, # of connection points: 2
#     Edge 34, Type (0, 1), BuildingBlock: OJICUG_clean_linker_0, # of connection points: 2
#     Edge 35, Type (0, 1), BuildingBlock: OJICUG_clean_linker_0, # of connection points: 2
# Relax obj value: 0.007
# Max RMSD: 0.025
# Mean RMSD: 0.013
data_MOF--net-ssa--node1-KOZSID_clean_sbu_0--node2-NAWXER_clean_linker_0--edge1-OJICUG_clean_linker_0
_symmetry_space_group_name_H-M    P1
_symmetry_Int_Tables_number       1
_symmetry_cell_setting            triclinic
loop_
_symmetry_equiv_pos_as_xyz
'x, y, z'
_cell_length_a     49.957802
_cell_length_b     51.277986
_cell_length_c     35.548763
_cell_angle_alpha  86.990281
_cell_angle_beta   90.027877
_cell_angle_gamma 122.78725
loop_
_atom_site_label
_atom_site_type_symbol
_atom_site_fract_x
_atom_site_fract_y
_atom_site_fract_z
_atom_type_partial_charge
C0 C 0.95057 0.51529 0.99224 0.0
C1 C 0.92325 0.5099 0.01036 0.0
C2 C 0.91923 0.49285 0.04307 0.0
C3 C 0.94431 0.489 0.04313 0.0
N4 N 0.96446 0.50301 0.01276 0.0
Co5 Co 0.00371 0.50291 0.00111 0.0
N6 N 0.99607 0.47517 0.04728 0.0
C7 C 0.97131 0.46296 0.07255 0.0
C8 C 0.97321 0.44589 0.10215 0.0
C9 C 0.00102 0.44757 0.09576 0.0
C10 C 0.01451 0.46556 0.06234 0.0
N11 N 0.04314 0.50306 0.98968 0.0
C12 C 0.05697 0.49069 0.01015 0.0
C13 C 0.08459 0.49654 0.9923 0.0
C14 C 0.08883 0.51394 0.95985 0.0
C15 C 0.0636 0.51756 0.95965 0.0
N16 N 0.01116 0.53041 0.95476 0.0
C17 C 0.03563 0.54222 0.92915 0.0
C18 C 0.03338 0.55876 0.89918 0.0
C19 C 0.00554 0.55703 0.90562 0.0
C20 C 0.99243 0.53956 0.93943 0.0
N21 N 0.02937 0.54003 0.03093 0.0
C22 C 0.06701 0.59133 0.07477 0.0
C23 C 0.07773 0.59002 0.03908 0.0
C24 C 0.05856 0.56451 0.01767 0.0
C25 C 0.03698 0.56683 0.08791 0.0
C26 C 0.01882 0.54155 0.06585 0.0
N27 N 0.978 0.46583 0.97124 0.0
C28 C 0.97043 0.43879 0.91445 0.0
C29 C 0.9392 0.416 0.926 0.0
C30 C 0.92803 0.41788 0.96105 0.0
C31 C 0.94781 0.44254 0.98327 0.0
C32 C 0.9892 0.46346 0.9372 0.0
H33 H 0.93793 0.44249 0.00979 0.0
H34 H 0.01242 0.48061 0.92623 0.0
H35 H 0.068 0.56501 0.99063 0.0
H36 H 0.99653 0.52334 0.07796 0.0
C37 C 0.94824 0.47035 0.06965 0.0
C38 C 0.96124 0.53055 0.95464 0.0
C39 C 0.04577 0.47458 0.04729 0.0
C40 C 0.05914 0.53548 0.93258 0.0
H41 H 0.90738 0.51683 1.00039 0.0
H42 H 0.89976 0.48349 0.06369 0.0
H43 H 0.95695 0.43462 0.12631 0.0
H44 H 0.01067 0.43749 0.11432 0.0
H45 H 0.10039 0.4895 0.00217 0.0
H46 H 0.10836 0.52342 0.9393 0.0
H47 H 0.04947 0.56979 0.87483 0.0
H48 H 0.99563 0.56674 0.88687 0.0
H49 H 0.10077 0.60869 0.02761 0.0
H50 H 0.02783 0.56672 0.11559 0.0
H51 H 0.97998 0.43818 0.88738 0.0
H52 H 0.90405 0.40038 0.97128 0.0
C53 C 0.54365 0.01343 0.5663 0.0
C54 C 0.54343 0.00054 0.60172 0.0
C55 C 0.51466 0.9731 0.60661 0.0
C56 C 0.49893 0.97085 0.57416 0.0
N57 N 0.51612 0.99495 0.54846 0.0
Co58 Co 0.50144 0.00232 0.49874 0.0
N59 N 0.45799 0.96342 0.50754 0.0
C60 C 0.44748 0.94301 0.53803 0.0
C61 C 0.41695 0.91792 0.53539 0.0
C62 C 0.4075 0.92226 0.5009 0.0
C63 C 0.43297 0.94984 0.48443 0.0
N64 N 0.48665 0.00997 0.44928 0.0
C65 C 0.45866 0.99216 0.43202 0.0
C66 C 0.4584 0.00572 0.39731 0.0
C67 C 0.48739 0.03291 0.39222 0.0
C68 C 0.50364 0.0344 0.42395 0.0
N69 N 0.54497 0.04097 0.48968 0.0
C70 C 0.55584 0.06077 0.45861 0.0
C71 C 0.58662 0.0855 0.46086 0.0
C72 C 0.59583 0.08159 0.49571 0.0
C73 C 0.56994 0.05467 0.51281 0.0
N74 N 0.51564 0.97787 0.4736 0.0
C75 C 0.53127 0.94077 0.43548 0.0
C76 C 0.53998 0.97005 0.42013 0.0
C77 C 0.53186 0.98801 0.43943 0.0
C78 C 0.51556 0.93079 0.47072 0.0
C79 C 0.50832 0.94966 0.48927 0.0
N80 N 0.48726 0.02673 0.52397 0.0
C81 C 0.48997 0.07489 0.52985 0.0
C82 C 0.47206 0.06344 0.56369 0.0
C83 C 0.46096 0.03297 0.57662 0.0
C84 C 0.46884 0.01522 0.55656 0.0
C85 C 0.49697 0.05618 0.51041 0.0
H86 H 0.46028 0.99248 0.56848 0.0
H87 H 0.51068 0.06624 0.48478 0.0
H88 H 0.53844 0.00973 0.42577 0.0
H89 H 0.49639 0.94068 0.51602 0.0
C90 C 0.46733 0.9475 0.56805 0.0
C91 C 0.56963 0.04412 0.55178 0.0
C92 C 0.43258 0.96152 0.44629 0.0
C93 C 0.53563 0.057 0.42931 0.0
H94 H 0.56175 0.01031 0.62239 0.0
H95 H 0.50583 0.95722 0.63143 0.0
H96 H 0.40343 0.89846 0.55578 0.0
H97 H 0.38467 0.90662 0.48887 0.0
H98 H 0.43954 0.9965 0.37727 0.0
H99 H 0.496 0.04912 0.36772 0.0
H100 H 0.60031 0.1047 0.4402 0.0
H101 H 0.61869 0.09725 0.50768 0.0
H102 H 0.5521 0.97866 0.39276 0.0
H103 H 0.50879 0.90843 0.48395 0.0
H104 H 0.49863 0.09825 0.51844 0.0
H105 H 0.4471 0.02314 0.60281 0.0
C106 C 0.55568 0.53567 0.94217 0.0
C107 C 0.56294 0.55269 0.90781 0.0
C108 C 0.53802 0.55583 0.90037 0.0
C109 C 0.5169 0.54035 0.93023 0.0
N110 N 0.52705 0.52804 0.95675 0.0
Co111 Co 0.50192 0.50035 0.00219 0.0
N112 N 0.4644 0.50332 0.98999 0.0
C113 C 0.46296 0.52109 0.9616 0.0
C114 C 0.4356 0.52115 0.96235 0.0
C115 C 0.41872 0.50276 0.99351 0.0
C116 C 0.43668 0.49217 0.00983 0.0
N117 N 0.47615 0.47093 0.04606 0.0
C118 C 0.44632 0.46083 0.05886 0.0
C119 C 0.43691 0.43938 0.08944 0.0
C120 C 0.46208 0.43659 0.09694 0.0
C121 C 0.48518 0.45612 0.07035 0.0
N122 N 0.54005 0.49894 0.01581 0.0
C123 C 0.54326 0.48496 0.04723 0.0
C124 C 0.57243 0.48844 0.04919 0.0
C125 C 0.58868 0.50537 0.0169 0.0
C126 C 0.56828 0.51103 0.99691 0.0
N127 N 0.51774 0.53657 0.03361 0.0
C128 C 0.53539 0.58666 0.07916 0.0
C129 C 0.5281 0.5579 0.09494 0.0
C130 C 0.51989 0.53359 0.07187 0.0
C131 C 0.53487 0.59014 0.03991 0.0
C132 C 0.52577 0.565 0.01794 0.0
N133 N 0.4862 0.46425 0.97084 0.0
C134 C 0.4851 0.4182 0.9565 0.0
C135 C 0.47008 0.41638 0.92278 0.0
C136 C 0.46187 0.43799 0.9142 0.0
C137 C 0.47028 0.46175 0.93841 0.0
C138 C 0.49253 0.44188 0.98016 0.0
H139 H 0.46428 0.47819 0.92989 0.0
H140 H 0.50395 0.44194 0.0055 0.0
H141 H 0.51484 0.51246 0.08591 0.0
H142 H 0.52507 0.56916 0.98839 0.0
C143 C 0.48752 0.53714 0.93443 0.0
C144 C 0.576 0.52622 0.95912 0.0
C145 C 0.42715 0.47268 0.04496 0.0
C146 C 0.51685 0.46452 0.07076 0.0
H147 H 0.58378 0.56149 0.88957 0.0
H148 H 0.53534 0.56751 0.8758 0.0
H149 H 0.42896 0.53352 0.94291 0.0
H150 H 0.39604 0.49829 0.00332 0.0
H151 H 0.4146 0.42787 0.10556 0.0
H152 H 0.46385 0.42309 0.12011 0.0
H153 H 0.58031 0.47843 0.07053 0.0
H154 H 0.61242 0.51186 0.00834 0.0
H155 H 0.5278 0.55363 0.12513 0.0
H156 H 0.54118 0.61211 0.02593 0.0
H157 H 0.49133 0.40148 0.96447 0.0
H158 H 0.45009 0.43723 0.8883 0.0
C159 C 0.94388 0.43546 0.51575 0.0
C160 C 0.91479 0.41344 0.50142 0.0
C161 C 0.91117 0.4269 0.46939 0.0
C162 C 0.93823 0.45614 0.46585 0.0
N163 N 0.95919 0.46205 0.49337 0.0
Co164 Co 0.0016 0.50156 0.49907 0.0
N165 N 0.99523 0.52221 0.4535 0.0
C166 C 0.96945 0.50982 0.43161 0.0
C167 C 0.97245 0.52911 0.40149 0.0
C168 C 0.00205 0.55528 0.40393 0.0
C169 C 0.01542 0.55048 0.43567 0.0
N170 N 0.04413 0.54101 0.5046 0.0
C171 C 0.05959 0.56745 0.48195 0.0
C172 C 0.089 0.58925 0.4958 0.0
C173 C 0.0926 0.57583 0.52788 0.0
C174 C 0.06526 0.54682 0.53187 0.0
N175 N 0.00788 0.48095 0.54478 0.0
C176 C 0.03348 0.4935 0.56696 0.0
C177 C 0.03026 0.47443 0.59745 0.0
C178 C 0.00068 0.44824 0.59497 0.0
C179 C 0.98755 0.45279 0.56279 0.0
N180 N 0.02216 0.48651 0.46649 0.0
C181 C 0.05332 0.4683 0.41831 0.0
C182 C 0.06642 0.48145 0.45239 0.0
C183 C 0.05046 0.49001 0.47594 0.0
C184 C 0.02396 0.46387 0.40925 0.0
C185 C 0.00904 0.47321 0.43339 0.0
N186 N 0.98103 0.51658 0.5317 0.0
C187 C 0.97962 0.53974 0.58867 0.0
C188 C 0.9496 0.53406 0.58056 0.0
C189 C 0.93601 0.52016 0.54699 0.0
C190 C 0.9521 0.51198 0.52308 0.0
C191 C 0.99468 0.53078 0.56419 0.0
H192 H 0.94036 0.50145 0.49809 0.0
H193 H 0.01719 0.5353 0.57246 0.0
H194 H 0.06178 0.49988 0.50137 0.0
H195 H 0.98709 0.46969 0.42439 0.0
C196 C 0.94389 0.47912 0.43825 0.0
C197 C 0.95509 0.43053 0.55166 0.0
C198 C 0.04801 0.57258 0.44645 0.0
C199 C 0.05929 0.52403 0.55993 0.0
H200 H 0.89763 0.39027 0.51339 0.0
H201 H 0.89089 0.41685 0.45134 0.0
H202 H 0.95557 0.52427 0.37959 0.0
H203 H 0.01284 0.57524 0.38393 0.0
H204 H 0.10631 0.61228 0.48356 0.0
H205 H 0.11301 0.58578 0.54572 0.0
H206 H 0.047 0.4794 0.61956 0.0
H207 H 0.98979 0.42847 0.61523 0.0
H208 H 0.08933 0.48592 0.46067 0.0
H209 H 0.01241 0.45329 0.38358 0.0
H210 H 0.99156 0.55099 0.61387 0.0
H211 H 0.91262 0.51479 0.53943 0.0
C212 C 0.47087 0.98557 0.08404 0.0
C213 C 0.48124 0.99474 0.12006 0.0
C214 C 0.50838 0.02367 0.11607 0.0
C215 C 0.51438 0.02957 0.07803 0.0
N216 N 0.4932 0.00575 0.05771 0.0
Co217 Co 0.50059 0.99809 0.00513 0.0
N218 N 0.54086 0.04036 0.9985 0.0
C219 C 0.55393 0.06227 0.02414 0.0
C220 C 0.5809 0.08948 0.01106 0.0
C221 C 0.58517 0.08485 0.97471 0.0
C222 C 0.56042 0.05491 0.96774 0.0
N223 N 0.5083 0.99008 0.95283 0.0
C224 C 0.53149 0.0091 0.9267 0.0
C225 C 0.52772 0.99457 0.89347 0.0
C226 C 0.50114 0.96532 0.89875 0.0
C227 C 0.49022 0.9637 0.9347 0.0
N228 N 0.4599 0.95613 0.01165 0.0
C229 C 0.44797 0.93333 0.98718 0.0
C230 C 0.42323 0.90529 0.00216 0.0
C231 C 0.41855 0.91074 0.03795 0.0
C232 C 0.43977 0.94228 0.0422 0.0
N233 N 0.47693 0.01604 0.98436 0.0
C234 C 0.45738 0.05018 0.94213 0.0
C235 C 0.44733 0.02005 0.93318 0.0
C236 C 0.45718 0.00332 0.95481 0.0
C237 C 0.47422 0.06141 0.97505 0.0
C238 C 0.48322 0.04377 0.99605 0.0
N239 N 0.52476 0.98013 0.02606 0.0
C240 C 0.52786 0.93506 0.03889 0.0
C241 C 0.5494 0.94968 0.06735 0.0
C242 C 0.56087 0.98084 0.07209 0.0
C243 C 0.54872 0.99563 0.05086 0.0
C244 C 0.5164 0.95077 0.01837 0.0
H245 H 0.55885 0.01941 0.0556 0.0
H246 H 0.5003 0.93828 0.99708 0.0
H247 H 0.44994 0.98082 0.94613 0.0
H248 H 0.49664 0.05357 0.0206 0.0
C249 C 0.54125 0.05589 0.0609 0.0
C250 C 0.43953 0.9586 0.07493 0.0
C251 C 0.55683 0.04126 0.93165 0.0
C252 C 0.46254 0.93818 0.95173 0.0
H253 H 0.47147 0.98148 0.14662 0.0
H254 H 0.523 0.03788 0.13829 0.0
H255 H 0.59585 0.1101 0.02625 0.0
H256 H 0.60448 0.10158 0.95559 0.0
H257 H 0.54241 0.00426 0.86788 0.0
H258 H 0.49073 0.94753 0.87857 0.0
H259 H 0.41074 0.88329 0.98904 0.0
H260 H 0.40122 0.89341 0.05847 0.0
H261 H 0.43367 0.01019 0.90834 0.0
H262 H 0.48146 0.08421 0.98375 0.0
H263 H 0.51866 0.9111 0.0334 0.0
H264 H 0.57877 0.99368 0.09254 0.0
C265 C 0.51391 0.56456 0.49091 0.0
C266 C 0.50789 0.58529 0.50633 0.0
C267 C 0.48882 0.5703 0.53768 0.0
C268 C 0.48449 0.54149 0.53975 0.0
N269 N 0.50005 0.5373 0.51194 0.0
Co270 Co 0.50019 0.49889 0.50408 0.0
N271 N 0.47028 0.476 0.5487 0.0
C272 C 0.45715 0.48687 0.57133 0.0
C273 C 0.43893 0.46647 0.6008 0.0
C274 C 0.44084 0.44118 0.59719 0.0
C275 C 0.46008 0.44756 0.56541 0.0
N276 N 0.50042 0.46051 0.49632 0.0
C277 C 0.48697 0.43344 0.5177 0.0
C278 C 0.49311 0.41274 0.50241 0.0
C279 C 0.51187 0.42759 0.4708 0.0
C280 C 0.51592 0.45627 0.46848 0.0
N281 N 0.53005 0.52174 0.45941 0.0
C282 C 0.54287 0.51072 0.43652 0.0
C283 C 0.56118 0.53116 0.40711 0.0
C284 C 0.55968 0.55665 0.41108 0.0
C285 C 0.54059 0.55033 0.44298 0.0
N286 N 0.53695 0.51368 0.53746 0.0
C287 C 0.58774 0.53169 0.58655 0.0
C288 C 0.58719 0.51967 0.55193 0.0
C289 C 0.56199 0.51118 0.52794 0.0
C290 C 0.56262 0.53506 0.59575 0.0
C291 C 0.53764 0.52584 0.57114 0.0
N292 N 0.46343 0.48416 0.47062 0.0
C293 C 0.43803 0.46326 0.41202 0.0
C294 C 0.41354 0.46775 0.42052 0.0
C295 C 0.41409 0.47979 0.45512 0.0
C296 C 0.43879 0.48743 0.47963 0.0
C297 C 0.46255 0.47168 0.43712 0.0
H298 H 0.43771 0.49649 0.50541 0.0
H299 H 0.4807 0.46822 0.42848 0.0
H300 H 0.56307 0.50219 0.50209 0.0
H301 H 0.51904 0.5285 0.58024 0.0
C302 C 0.46468 0.51735 0.56623 0.0
C303 C 0.53153 0.57134 0.45525 0.0
C304 C 0.46965 0.42684 0.55355 0.0
C305 C 0.53545 0.4803 0.44173 0.0
H306 H 0.51588 0.6086 0.49549 0.0
H307 H 0.47869 0.57907 0.55624 0.0
H308 H 0.42677 0.47007 0.62315 0.0
H309 H 0.43006 0.42084 0.61655 0.0
H310 H 0.48543 0.38957 0.5135 0.0
H311 H 0.52202 0.41882 0.45227 0.0
H312 H 0.57326 0.52753 0.3847 0.0
H313 H 0.57071 0.57713 0.39192 0.0
H314 H 0.6057 0.51603 0.54353 0.0
H315 H 0.56207 0.54473 0.62188 0.0
H316 H 0.43848 0.4534 0.38601 0.0
H317 H 0.39601 0.48417 0.46308 0.0
C318 C 0.3277 0.47998 0.16002 0.0
C319 C 0.32243 0.45617 0.137 0.0
C320 C 0.30287 0.47686 0.18206 0.0
C321 C 0.27215 0.45005 0.18127 0.0
C322 C 0.29143 0.42935 0.1363 0.0
C323 C 0.26647 0.42653 0.15787 0.0
C324 C 0.2459 0.4469 0.20433 0.0
C325 C 0.3086 0.43328 0.28447 0.0
C326 C 0.31808 0.45177 0.31561 0.0
C327 C 0.28543 0.43169 0.26073 0.0
C328 C 0.27221 0.44938 0.26713 0.0
C329 C 0.30472 0.46918 0.32216 0.0
C330 C 0.28217 0.4681 0.29811 0.0
C331 C 0.24644 0.44731 0.24402 0.0
C332 C 0.11978 0.43016 0.28617 0.0
C333 C 0.13054 0.44877 0.31723 0.0
C334 C 0.14147 0.42899 0.26252 0.0
C335 C 0.17435 0.44731 0.26884 0.0
C336 C 0.16321 0.46639 0.32406 0.0
C337 C 0.18487 0.46576 0.30006 0.0
C338 C 0.19825 0.44668 0.24477 0.0
C339 C 0.1485 0.47761 0.16748 0.0
C340 C 0.13274 0.45819 0.13786 0.0
C341 C 0.16986 0.47415 0.18907 0.0
C342 C 0.17532 0.45064 0.18227 0.0
C343 C 0.13892 0.43519 0.13048 0.0
C344 C 0.16006 0.43153 0.15241 0.0
C345 C 0.19808 0.44696 0.20494 0.0
H346 H 0.35092 0.50131 0.16071 0.0
H347 H 0.30757 0.49551 0.19951 0.0
H348 H 0.28641 0.41029 0.11948 0.0
H349 H 0.24285 0.40569 0.15688 0.0
H350 H 0.31843 0.41942 0.27919 0.0
H351 H 0.27738 0.41604 0.23811 0.0
H352 H 0.31185 0.48376 0.34588 0.0
H353 H 0.27234 0.48188 0.30392 0.0
H354 H 0.09459 0.41615 0.28066 0.0
H355 H 0.13249 0.41364 0.23956 0.0
H356 H 0.17207 0.48105 0.34771 0.0
H357 H 0.21 0.47995 0.30584 0.0
H358 H 0.14422 0.49542 0.17424 0.0
H359 H 0.18213 0.48992 0.21111 0.0
H360 H 0.12778 0.42025 0.10742 0.0
H361 H 0.16439 0.41364 0.14616 0.0
N362 N 0.22172 0.44665 0.18632 0.0
N363 N 0.2225 0.44703 0.26242 0.0
C364 C 0.86531 0.30872 0.80022 0.0
C365 C 0.85406 0.31765 0.83013 0.0
C366 C 0.84398 0.28507 0.77746 0.0
C367 C 0.81091 0.27052 0.7833 0.0
C368 C 0.82094 0.3019 0.83691 0.0
C369 C 0.79973 0.27882 0.81373 0.0
C370 C 0.78745 0.24593 0.75915 0.0
C371 C 0.84736 0.33014 0.68049 0.0
C372 C 0.863 0.32605 0.65065 0.0
C373 C 0.82383 0.30463 0.7028 0.0
C374 C 0.81609 0.2745 0.69665 0.0
C375 C 0.85469 0.29573 0.64408 0.0
C376 C 0.83148 0.27026 0.66683 0.0
C377 C 0.79048 0.24716 0.71936 0.0
C378 C 0.66015 0.14547 0.67599 0.0
C379 C 0.66753 0.13151 0.64827 0.0
C380 C 0.68385 0.1672 0.69856 0.0
C381 C 0.71539 0.17505 0.69449 0.0
C382 C 0.69927 0.13984 0.64381 0.0
C383 C 0.72297 0.1615 0.66657 0.0
C384 C 0.74072 0.19834 0.71808 0.0
C385 C 0.67127 0.11777 0.79779 0.0
C386 C 0.6561 0.12587 0.82373 0.0
C387 C 0.69777 0.14086 0.77606 0.0
C388 C 0.70939 0.17238 0.77986 0.0
C389 C 0.66805 0.15745 0.82762 0.0
C390 C 0.6945 0.18043 0.80605 0.0
C391 C 0.73752 0.19738 0.75766 0.0
H392 H 0.89058 0.32023 0.79394 0.0
H393 H 0.85342 0.27836 0.7552 0.0
H394 H 0.81121 0.30722 0.86032 0.0
H395 H 0.77439 0.26761 0.81947 0.0
H396 H 0.85324 0.35308 0.68671 0.0
H397 H 0.81153 0.3085 0.72472 0.0
H398 H 0.86562 0.29152 0.62087 0.0
H399 H 0.82544 0.24717 0.66103 0.0
H400 H 0.63597 0.13952 0.68043 0.0
H401 H 0.6775 0.17801 0.71907 0.0
H402 H 0.70595 0.13001 0.6223 0.0
H403 H 0.74724 0.16758 0.6625 0.0
H404 H 0.6626 0.09361 0.79424 0.0
H405 H 0.70929 0.13412 0.75654 0.0
H406 H 0.65734 0.16447 0.84792 0.0
H407 H 0.70325 0.20461 0.80969 0.0
N408 N 0.76093 0.22115 0.77649 0.0
N409 N 0.76718 0.22312 0.70051 0.0
C410 C 0.57938 0.69706 0.20138 0.0
C411 C 0.55345 0.68176 0.17738 0.0
C412 C 0.58195 0.71935 0.22488 0.0
C413 C 0.55885 0.72691 0.22443 0.0
C414 C 0.53004 0.68904 0.17799 0.0
C415 C 0.53299 0.71167 0.2008 0.0
C416 C 0.56193 0.75176 0.24677 0.0
C417 C 0.53164 0.66946 0.32671 0.0
C418 C 0.55152 0.67487 0.35731 0.0
C419 C 0.53531 0.69419 0.30377 0.0
C420 C 0.55961 0.72494 0.31004 0.0
C421 C 0.57551 0.70575 0.36397 0.0
C422 C 0.57944 0.73051 0.34061 0.0
C423 C 0.56299 0.75136 0.28648 0.0
C424 C 0.53038 0.84286 0.32249 0.0
C425 C 0.55261 0.86055 0.34944 0.0
C426 C 0.53449 0.8231 0.30121 0.0
C427 C 0.56087 0.82058 0.30653 0.0
C428 C 0.57908 0.8581 0.35469 0.0
C429 C 0.58296 0.83794 0.33369 0.0
C430 C 0.56443 0.79877 0.28482 0.0
C431 C 0.58494 0.87786 0.20182 0.0
C432 C 0.56529 0.86885 0.17053 0.0
C433 C 0.58445 0.85544 0.22656 0.0
C434 C 0.56378 0.82363 0.22082 0.0
C435 C 0.54477 0.83709 0.16485 0.0
C436 C 0.54405 0.81477 0.18968 0.0
C437 C 0.56382 0.79925 0.24507 0.0
H438 H 0.59808 0.69241 0.20142 0.0
H439 H 0.60229 0.7312 0.24268 0.0
H440 H 0.50925 0.67722 0.16089 0.0
H441 H 0.51485 0.71713 0.20023 0.0
H442 H 0.51308 0.64607 0.32041 0.0
H443 H 0.51868 0.68914 0.28152 0.0
H444 H 0.59087 0.7109 0.38768 0.0
H445 H 0.59795 0.75406 0.3465 0.0
H446 H 0.50985 0.84441 0.31777 0.0
H447 H 0.51685 0.80948 0.28086 0.0
H448 H 0.5964 0.87129 0.37554 0.0
H449 H 0.60329 0.83606 0.33845 0.0
H450 H 0.60116 0.90223 0.20665 0.0
H451 H 0.6007 0.86301 0.2496 0.0
H452 H 0.529 0.82946 0.14131 0.0
H453 H 0.52797 0.79044 0.1845 0.0
N454 N 0.5624 0.77561 0.22777 0.0
N455 N 0.56432 0.77502 0.30403 0.0
C456 C 0.88306 0.57011 0.71509 0.0
C457 C 0.87217 0.5516 0.68394 0.0
C458 C 0.86141 0.57089 0.73931 0.0
C459 C 0.82848 0.55229 0.73343 0.0
C460 C 0.83941 0.53363 0.67765 0.0
C461 C 0.81783 0.53389 0.70217 0.0
C462 C 0.80462 0.55262 0.75791 0.0
C463 C 0.85643 0.52339 0.83452 0.0
C464 C 0.87203 0.54314 0.86392 0.0
C465 C 0.83445 0.526 0.81314 0.0
C466 C 0.82814 0.54893 0.82004 0.0
C467 C 0.86504 0.56556 0.87135 0.0
C468 C 0.84324 0.56834 0.84969 0.0
C469 C 0.80475 0.5518 0.79773 0.0
C470 C 0.67362 0.52052 0.83959 0.0
C471 C 0.68026 0.54003 0.86935 0.0
C472 C 0.69826 0.5239 0.8169 0.0
C473 C 0.73008 0.54732 0.82288 0.0
C474 C 0.71225 0.56291 0.87588 0.0
C475 C 0.73688 0.56643 0.85296 0.0
C476 C 0.75643 0.55104 0.79912 0.0
C477 C 0.69543 0.56814 0.72007 0.0
C478 C 0.68566 0.55011 0.68851 0.0
C479 C 0.71851 0.56907 0.7434 0.0
C480 C 0.73123 0.55108 0.73616 0.0
C481 C 0.69878 0.53267 0.68094 0.0
C482 C 0.7212 0.53304 0.70457 0.0
C483 C 0.75638 0.55192 0.75929 0.0
H484 H 0.9083 0.58439 0.72022 0.0
H485 H 0.87047 0.5862 0.76231 0.0
H486 H 0.83044 0.519 0.65397 0.0
H487 H 0.79264 0.51949 0.69674 0.0
H488 H 0.86133 0.50599 0.82779 0.0
H489 H 0.82236 0.51006 0.79121 0.0
H490 H 0.87605 0.58071 0.89426 0.0
H491 H 0.83828 0.5858 0.85598 0.0
H492 H 0.64932 0.50279 0.8335 0.0
H493 H 0.69241 0.50817 0.79465 0.0
H494 H 0.71833 0.57793 0.89899 0.0
H495 H 0.76129 0.58426 0.85856 0.0
H496 H 0.68573 0.58198 0.72616 0.0
H497 H 0.72662 0.58411 0.76667 0.0
H498 H 0.69141 0.51844 0.65687 0.0
H499 H 0.73071 0.51911 0.69811 0.0
N500 N 0.78044 0.55262 0.74057 0.0
N501 N 0.78081 0.55134 0.8167 0.0
C502 C 0.1639 0.68681 0.19862 0.0
C503 C 0.14562 0.69094 0.17181 0.0
C504 C 0.18336 0.71044 0.22227 0.0
C505 C 0.185 0.7387 0.21952 0.0
C506 C 0.14706 0.71914 0.16928 0.0
C507 C 0.16691 0.74297 0.19265 0.0
C508 C 0.20728 0.76441 0.24284 0.0
C509 C 0.12857 0.69312 0.32241 0.0
C510 C 0.13826 0.67901 0.34929 0.0
C511 C 0.15116 0.71946 0.30029 0.0
C512 C 0.18385 0.73216 0.30467 0.0
C513 C 0.17099 0.69185 0.35367 0.0
C514 C 0.19355 0.7183 0.33177 0.0
C515 C 0.2081 0.76058 0.28232 0.0
C516 C 0.31633 0.88741 0.32543 0.0
C517 C 0.33087 0.8775 0.35132 0.0
C518 C 0.29161 0.86608 0.30333 0.0
C519 C 0.28122 0.83449 0.30642 0.0
C520 C 0.31974 0.84572 0.35499 0.0
C521 C 0.29518 0.82451 0.3329 0.0
C522 C 0.25552 0.81127 0.28305 0.0
C523 C 0.33572 0.8775 0.20147 0.0
C524 C 0.32762 0.89032 0.17112 0.0
C525 C 0.3121 0.85347 0.22528 0.0
C526 C 0.27985 0.84246 0.22014 0.0
C527 C 0.29541 0.87905 0.16542 0.0
C528 C 0.27173 0.8554 0.18986 0.0
C529 C 0.2544 0.81535 0.24343 0.0
H530 H 0.16313 0.66527 0.20129 0.0
H531 H 0.19764 0.70685 0.24222 0.0
H532 H 0.13342 0.72301 0.14863 0.0
H533 H 0.16815 0.76474 0.18978 0.0
H534 H 0.10351 0.68368 0.31836 0.0
H535 H 0.14309 0.73013 0.28014 0.0
H536 H 0.17917 0.68175 0.37451 0.0
H537 H 0.21864 0.72787 0.33587 0.0
H538 H 0.32433 0.91171 0.32184 0.0
H539 H 0.28073 0.87428 0.28377 0.0
H540 H 0.32984 0.83712 0.37521 0.0
H541 H 0.28736 0.80023 0.33619 0.0
H542 H 0.36035 0.88519 0.20583 0.0
H543 H 0.31912 0.84291 0.24695 0.0
H544 H 0.28858 0.88836 0.14198 0.0
H545 H 0.24699 0.84688 0.18479 0.0
N546 N 0.23024 0.79171 0.22501 0.0
N547 N 0.23229 0.78403 0.30078 0.0
C548 C 0.42365 0.12262 0.80709 0.0
C549 C 0.44366 0.13299 0.83814 0.0
C550 C 0.42137 0.14374 0.78278 0.0
C551 C 0.43954 0.17571 0.78864 0.0
C552 C 0.46101 0.16488 0.84438 0.0
C553 C 0.45907 0.18589 0.81993 0.0
C554 C 0.43758 0.19898 0.76413 0.0
C555 C 0.47186 0.15663 0.6843 0.0
C556 C 0.45008 0.14003 0.6564 0.0
C557 C 0.46731 0.17544 0.70699 0.0
C558 C 0.44088 0.17796 0.70225 0.0
C559 C 0.42356 0.1425 0.65182 0.0
C560 C 0.4192 0.16158 0.6743 0.0
C561 C 0.43723 0.19952 0.72433 0.0
C562 C 0.47068 0.3286 0.68147 0.0
C563 C 0.45059 0.3234 0.65112 0.0
C564 C 0.46675 0.30374 0.70443 0.0
C565 C 0.442 0.27311 0.69841 0.0
C566 C 0.42636 0.29258 0.64453 0.0
C567 C 0.42217 0.26773 0.6679 0.0
C568 C 0.4379 0.24658 0.72242 0.0
C569 C 0.42664 0.30805 0.79838 0.0
C570 C 0.44835 0.319 0.82776 0.0
C571 C 0.42249 0.28385 0.77732 0.0
C572 C 0.44051 0.27065 0.78474 0.0
C573 C 0.46512 0.30464 0.83612 0.0
C574 C 0.46133 0.28091 0.81482 0.0
C575 C 0.43798 0.24589 0.76225 0.0
H576 H 0.40993 0.09826 0.80134 0.0
H577 H 0.40521 0.13497 0.75972 0.0
H578 H 0.47599 0.17373 0.86848 0.0
H579 H 0.47303 0.2103 0.82556 0.0
H580 H 0.49241 0.15505 0.68859 0.0
H581 H 0.48474 0.18844 0.72783 0.0
H582 H 0.4066 0.13023 0.63026 0.0
H583 H 0.39893 0.1636 0.66984 0.0
H584 H 0.48943 0.35193 0.68772 0.0
H585 H 0.48317 0.30853 0.7269 0.0
H586 H 0.41089 0.28754 0.62097 0.0
H587 H 0.40336 0.24425 0.66219 0.0
H588 H 0.41325 0.31849 0.79122 0.0
H589 H 0.40546 0.27569 0.75509 0.0
H590 H 0.48125 0.31168 0.85926 0.0
H591 H 0.47515 0.27084 0.82161 0.0
N592 N 0.43789 0.22218 0.78125 0.0
N593 N 0.43715 0.22315 0.7051 0.0
C594 C 0.06132 0.44022 0.0797 0.0
C595 C 0.06761 0.47005 0.07095 0.0
H596 H 0.07648 0.41293 0.10852 0.0
C597 C 0.09539 0.49595 0.08376 0.0
H598 H 0.04009 0.41998 0.06972 0.0
C599 C 0.11657 0.49211 0.10523 0.0
C600 C 0.11027 0.46222 0.11458 0.0
H601 H 0.10077 0.51919 0.07691 0.0
H602 H 0.1381 0.51265 0.11406 0.0
C603 C 0.08233 0.4363 0.10154 0.0
C604 C 0.61797 0.06114 0.5903 0.0
C605 C 0.59436 0.06591 0.57728 0.0
H606 H 0.65932 0.07781 0.62355 0.0
C607 C 0.59486 0.09222 0.58739 0.0
H608 H 0.61807 0.04105 0.58249 0.0
C609 C 0.61857 0.11346 0.61038 0.0
C610 C 0.64228 0.10879 0.62377 0.0
H611 H 0.57696 0.09641 0.57726 0.0
H612 H 0.61858 0.13381 0.61714 0.0
C613 C 0.64167 0.08232 0.61346 0.0
C614 C 0.53243 0.6327 0.0927 0.0
C615 C 0.54202 0.61226 0.10347 0.0
H616 H 0.52966 0.67115 0.1064 0.0
C617 C 0.55679 0.61581 0.13826 0.0
H618 H 0.52056 0.63061 0.0665 0.0
C619 C 0.56082 0.63846 0.1621 0.0
C620 C 0.55068 0.6585 0.15151 0.0
H621 H 0.56513 0.601 0.14734 0.0
H622 H 0.57125 0.63972 0.18918 0.0
C623 C 0.53705 0.65569 0.11612 0.0
C624 C 0.93407 0.5378 0.64659 0.0
C625 C 0.93203 0.54148 0.60734 0.0
H626 H 0.91691 0.5385 0.70164 0.0
C627 C 0.91188 0.55094 0.5939 0.0
H628 H 0.94895 0.53015 0.65808 0.0
C629 C 0.89314 0.5551 0.61891 0.0
C630 C 0.89454 0.55045 0.65793 0.0
H631 H 0.91023 0.5548 0.56399 0.0
H632 H 0.87722 0.56159 0.60773 0.0
C633 C 0.91567 0.54247 0.67163 0.0
C634 C 0.40776 0.95666 0.13371 0.0
C635 C 0.40858 0.94761 0.09705 0.0
H636 H 0.38188 0.94478 0.18654 0.0
C637 C 0.37861 0.92636 0.08208 0.0
H638 H 0.4273 0.97688 0.1452 0.0
C639 C 0.35132 0.90882 0.1056 0.0
C640 C 0.35302 0.91353 0.1442 0.0
H641 H 0.37616 0.92203 0.05248 0.0
H642 H 0.32955 0.89038 0.094 0.0
C643 C 0.38076 0.93904 0.15743 0.0
C644 C 0.4336 0.37454 0.58739 0.0
C645 C 0.46439 0.4005 0.57916 0.0
H646 H 0.40493 0.33023 0.61743 0.0
C647 C 0.49059 0.40102 0.59424 0.0
H648 H 0.4131 0.37359 0.57564 0.0
C649 C 0.48613 0.376 0.61734 0.0
C650 C 0.45527 0.34998 0.62619 0.0
H651 H 0.51458 0.42075 0.58784 0.0
H652 H 0.50696 0.37692 0.62777 0.0
C653 C 0.42904 0.34962 0.61094 0.0
C654 C 0.5672 0.93158 0.39683 0.0
C655 C 0.53729 0.9202 0.41428 0.0
H656 H 0.59562 0.92143 0.36292 0.0
C657 C 0.51275 0.889 0.41081 0.0
H658 H 0.58656 0.95551 0.39923 0.0
C659 C 0.51784 0.86968 0.38989 0.0
C660 C 0.54769 0.88103 0.37237 0.0
H661 H 0.48939 0.87968 0.4237 0.0
H662 H 0.49843 0.84578 0.3875 0.0
C663 C 0.57244 0.91208 0.37632 0.0
C664 C 0.60179 0.50361 0.925 0.0
C665 C 0.60317 0.52991 0.93699 0.0
H666 H 0.62525 0.48607 0.89491 0.0
C667 C 0.63026 0.55949 0.92778 0.0
H668 H 0.58112 0.48056 0.93214 0.0
C669 C 0.65534 0.5628 0.90598 0.0
C670 C 0.65393 0.53652 0.89335 0.0
H671 H 0.63179 0.58004 0.93705 0.0
H672 H 0.67554 0.58601 0.89844 0.0
C673 C 0.62693 0.50685 0.90346 0.0
C674 C 0.09589 0.6002 0.40285 0.0
C675 C 0.07029 0.5994 0.42034 0.0
H676 H 0.13739 0.62599 0.36633 0.0
C677 C 0.06671 0.62456 0.41403 0.0
H678 H 0.09901 0.58096 0.40752 0.0
C679 C 0.08849 0.65023 0.39043 0.0
C680 C 0.11441 0.65129 0.37315 0.0
H681 H 0.04724 0.62442 0.42767 0.0
H682 H 0.08548 0.66957 0.38639 0.0
C683 C 0.11782 0.62595 0.37952 0.0
C684 C 0.42367 0.06098 0.89954 0.0
C685 C 0.45315 0.0709 0.91565 0.0
H686 H 0.39723 0.07296 0.86308 0.0
C687 C 0.47946 0.10075 0.90526 0.0
H688 H 0.40304 0.038 0.90702 0.0
C689 C 0.4764 0.12045 0.87964 0.0
C690 C 0.4468 0.11103 0.86408 0.0
H691 H 0.50267 0.10872 0.91648 0.0
H692 H 0.49745 0.14304 0.8718 0.0
C693 C 0.42046 0.08093 0.87418 0.0
C694 C 0.35712 0.45039 0.40598 0.0
C695 C 0.38825 0.46098 0.39316 0.0
H696 H 0.31061 0.43926 0.39132 0.0
C697 C 0.39531 0.46636 0.35406 0.0
H698 H 0.35048 0.44521 0.43569 0.0
C699 C 0.3721 0.46211 0.32862 0.0
C700 C 0.34159 0.45292 0.34181 0.0
H701 H 0.41906 0.47493 0.34307 0.0
H702 H 0.37836 0.46725 0.29879 0.0
C703 C 0.33416 0.44671 0.38061 0.0
C704 C 0.9271 0.37234 0.88568 0.0
C705 C 0.91791 0.39109 0.90112 0.0
H706 H 0.91393 0.33384 0.85232 0.0
C707 C 0.88813 0.38609 0.89256 0.0
H708 H 0.94996 0.37573 0.89202 0.0
C709 C 0.86783 0.36274 0.86907 0.0
C710 C 0.87648 0.34329 0.85415 0.0
H711 H 0.88074 0.40061 0.90364 0.0
H712 H 0.84543 0.36021 0.86238 0.0
C713 C 0.9065 0.34849 0.86272 0.0
C714 C 0.94449 0.56356 0.92128 0.0
C715 C 0.9389 0.5341 0.93076 0.0
H716 H 0.92817 0.58965 0.89193 0.0
C717 C 0.91134 0.50764 0.91852 0.0
H718 H 0.96555 0.58422 0.93081 0.0
C719 C 0.88964 0.51056 0.89694 0.0
C720 C 0.89518 0.54007 0.88699 0.0
H721 H 0.90653 0.48467 0.92593 0.0
H722 H 0.86829 0.48963 0.88854 0.0
C723 C 0.92293 0.56656 0.8994 0.0
C724 C 0.40787 0.91706 0.4046 0.0
C725 C 0.40701 0.94088 0.42089 0.0
H726 H 0.3849 0.8788 0.36917 0.0
C727 C 0.38155 0.94448 0.4137 0.0
H728 H 0.42745 0.91405 0.40983 0.0
C729 C 0.357 0.92421 0.3907 0.0
C730 C 0.35751 0.89997 0.37459 0.0
H731 H 0.38052 0.96273 0.42626 0.0
H732 H 0.33727 0.92708 0.38626 0.0
C733 C 0.38343 0.89685 0.38158 0.0
C734 C 0.48974 0.39006 0.88534 0.0
C735 C 0.46444 0.39277 0.89629 0.0
H736 H 0.50479 0.36562 0.85402 0.0
C737 C 0.43398 0.37233 0.88278 0.0
H738 H 0.51358 0.40595 0.89489 0.0
C739 C 0.42867 0.34863 0.85991 0.0
C740 C 0.45388 0.34529 0.84982 0.0
H741 H 0.41411 0.37403 0.89095 0.0
H742 H 0.40468 0.33239 0.85117 0.0
C743 C 0.48461 0.36681 0.86212 0.0
C744 C 0.08985 0.44982 0.40609 0.0
C745 C 0.07075 0.46036 0.39204 0.0
H746 H 0.12372 0.43791 0.39328 0.0
C747 C 0.06968 0.46461 0.35271 0.0
H748 H 0.09072 0.44549 0.43607 0.0
C749 C 0.08802 0.45944 0.32822 0.0
C750 C 0.10814 0.45039 0.34257 0.0
H751 H 0.05564 0.47309 0.34076 0.0
H752 H 0.08756 0.46385 0.29815 0.0
C753 C 0.10856 0.44519 0.38164 0.0
C754 C 0.57851 0.08398 0.88118 0.0
C755 C 0.57997 0.06025 0.90038 0.0
H756 H 0.60131 0.12311 0.84114 0.0
C757 C 0.60508 0.05648 0.89221 0.0
H758 H 0.55923 0.08714 0.8873 0.0
C759 C 0.62924 0.07706 0.86606 0.0
C760 C 0.62865 0.10178 0.84791 0.0
H761 H 0.60656 0.03834 0.90709 0.0
H762 H 0.64909 0.07448 0.86137 0.0
C763 C 0.60264 0.10457 0.8551 0.0
C764 C 0.51101 0.59745 0.41449 0.0
C765 C 0.53706 0.59784 0.42981 0.0
H766 H 0.49499 0.62168 0.38062 0.0
C767 C 0.56795 0.62372 0.42177 0.0
H768 H 0.48696 0.57779 0.42074 0.0
C769 C 0.57275 0.64868 0.39811 0.0
C770 C 0.54666 0.64839 0.38254 0.0
H771 H 0.58832 0.62452 0.43369 0.0
H772 H 0.59691 0.66801 0.39174 0.0
C773 C 0.51571 0.6225 0.39128 0.0
C774 C 0.4356 0.07187 0.60235 0.0
C775 C 0.46597 0.08341 0.58614 0.0
H776 H 0.40675 0.08079 0.63718 0.0
C777 C 0.49088 0.11387 0.59263 0.0
H778 H 0.41593 0.04852 0.59764 0.0
C779 C 0.48568 0.13223 0.61537 0.0
C780 C 0.45537 0.12064 0.63178 0.0
H781 H 0.5146 0.12328 0.58081 0.0
H782 H 0.50536 0.15559 0.62001 0.0
C783 C 0.43031 0.09037 0.62475 0.0
C784 C 0.3688 0.45071 0.05602 0.0
C785 C 0.40004 0.46763 0.0687 0.0
H786 H 0.32003 0.43479 0.06674 0.0
C787 C 0.40563 0.47983 0.10431 0.0
H788 H 0.36398 0.44082 0.02876 0.0
C789 C 0.38044 0.47562 0.12669 0.0
C790 C 0.3491 0.45951 0.1137 0.0
H791 H 0.42957 0.49272 0.11476 0.0
H792 H 0.38562 0.48493 0.15428 0.0
C793 C 0.34364 0.44699 0.07805 0.0
C794 C 0.93613 0.37946 0.58699 0.0
C795 C 0.93231 0.40418 0.57806 0.0
H796 H 0.91788 0.33585 0.61788 0.0
C797 C 0.90589 0.40333 0.59305 0.0
H798 H 0.95626 0.37962 0.57534 0.0
C799 C 0.88346 0.37803 0.61654 0.0
C800 C 0.88719 0.35317 0.6259 0.0
H801 H 0.90241 0.42211 0.58613 0.0
H802 H 0.86289 0.37776 0.62673 0.0
C803 C 0.91395 0.3543 0.61096 0.0
C804 C 0.5597 0.93596 0.13222 0.0
C805 C 0.55808 0.93189 0.09325 0.0
H806 H 0.56321 0.91911 0.18728 0.0
C807 C 0.56198 0.90882 0.0798 0.0
H808 H 0.55643 0.95327 0.14359 0.0
C809 C 0.56556 0.88913 0.10488 0.0
C810 C 0.56553 0.89219 0.14392 0.0
H811 H 0.56153 0.90549 0.04992 0.0
H812 H 0.56771 0.87104 0.09377 0.0
C813 C 0.56349 0.91635 0.15731 0.0
C814 C 0.60726 0.53395 0.65244 0.0
C815 C 0.61371 0.53952 0.61324 0.0
H816 H 0.62531 0.53341 0.70711 0.0
C817 C 0.64491 0.55122 0.59964 0.0
H818 H 0.58349 0.52458 0.664 0.0
C819 C 0.66854 0.55561 0.62433 0.0
C820 C 0.66169 0.54902 0.6632 0.0
H821 H 0.65104 0.55657 0.56981 0.0
H822 H 0.69211 0.56372 0.61301 0.0
C823 C 0.63112 0.53889 0.6772 0.0
C824 C 0.07468 0.63217 0.11753 0.0
C825 C 0.08734 0.61757 0.09864 0.0
H826 H 0.08334 0.66707 0.15528 0.0
C827 C 0.1194 0.62766 0.10345 0.0
H828 H 0.05008 0.62494 0.11416 0.0
C829 C 0.13827 0.6515 0.12717 0.0
C830 C 0.12562 0.66603 0.14616 0.0
H831 H 0.1297 0.61666 0.08948 0.0
H832 H 0.16286 0.65868 0.13054 0.0
C833 C 0.09372 0.65635 0.14083 0.0
loop_
_geom_bond_atom_site_label_1
_geom_bond_atom_site_label_2
_geom_bond_distance
_geom_bond_site_symmetry_2
_ccdc_geom_bond_type
C0 C1 1.443 . S
C0 N4 1.376 1_556 S
C0 C38 1.389 . S
C1 C0 1.443 . S
C1 C2 1.340 1_556 S
C1 H41 0.951 . S
C2 C1 1.340 1_554 S
C2 C3 1.439 . S
C2 H42 0.950 . S
C3 C2 1.439 . S
C3 N4 1.374 . S
C3 C37 1.395 . S
N4 C0 1.376 1_554 S
N4 C3 1.374 . S
N4 Co5 1.972 1_655 S
Co5 N4 1.972 1_455 S
Co5 N6 2.022 1_455 S
Co5 N11 2.045 1_554 S
Co5 N16 1.968 1_554 S
Co5 N21 2.300 . S
Co5 N27 2.265 1_454 S
N6 Co5 2.022 1_655 S
N6 C7 1.376 . S
N6 C10 1.383 1_655 S
C7 N6 1.376 . S
C7 C8 1.446 . S
C7 C37 1.391 . S
C8 C7 1.446 . S
C8 C9 1.339 1_655 S
C8 H43 0.949 . S
C9 C8 1.339 1_455 S
C9 C10 1.439 . S
C9 H44 0.950 . S
C10 N6 1.383 1_455 S
C10 C9 1.439 . S
C10 C39 1.392 . S
N11 Co5 2.045 1_556 S
N11 C12 1.376 1_556 S
N11 C15 1.374 . S
C12 N11 1.376 1_554 S
C12 C13 1.443 . S
C12 C39 1.389 . S
C13 C12 1.443 . S
C13 C14 1.340 1_554 S
C13 H45 0.951 . S
C14 C13 1.340 1_556 S
C14 C15 1.439 . S
C14 H46 0.950 . S
C15 N11 1.374 . S
C15 C14 1.439 . S
C15 C40 1.395 . S
N16 Co5 1.968 1_556 S
N16 C17 1.376 . S
N16 C20 1.383 1_455 S
C17 N16 1.376 . S
C17 C18 1.446 . S
C17 C40 1.391 . S
C18 C17 1.446 . S
C18 C19 1.339 1_455 S
C18 H47 0.949 . S
C19 C18 1.339 1_655 S
C19 C20 1.439 . S
C19 H48 0.950 . S
C20 N16 1.383 1_655 S
C20 C19 1.439 . S
C20 C38 1.392 . S
N21 Co5 2.300 . S
N21 C24 1.332 . S
N21 C26 1.332 . S
C22 C23 1.386 . S
C22 C25 1.388 . S
C23 C22 1.386 . S
C23 C24 1.382 . S
C23 H49 0.950 . S
C24 N21 1.332 . S
C24 C23 1.382 . S
C24 H35 0.952 1_554 S
C25 C22 1.388 . S
C25 C26 1.382 . S
C25 H50 0.950 . S
C26 N21 1.332 . S
C26 C25 1.382 . S
C26 H36 0.948 . S
N27 Co5 2.265 1_656 S
N27 C31 1.332 . S
N27 C32 1.332 . S
C28 C29 1.388 . S
C28 C32 1.382 . S
C28 H51 0.950 . S
C29 C28 1.388 . S
C29 C30 1.386 . S
C30 C29 1.386 . S
C30 C31 1.382 . S
C30 H52 0.950 . S
C31 N27 1.332 . S
C31 C30 1.382 . S
C31 H33 0.952 1_556 S
C32 N27 1.332 . S
C32 C28 1.382 . S
C32 H34 0.948 . S
H33 C31 0.952 1_554 S
H34 C32 0.948 . S
H35 C24 0.952 1_556 S
H36 C26 0.948 . S
C37 C3 1.395 . S
C37 C7 1.391 . S
C38 C0 1.389 . S
C38 C20 1.392 . S
C39 C10 1.392 . S
C39 C12 1.389 . S
C40 C15 1.395 . S
C40 C17 1.391 . S
H41 C1 0.951 . S
H42 C2 0.950 . S
H43 C8 0.949 . S
H44 C9 0.950 . S
H45 C13 0.951 . S
H46 C14 0.950 . S
H47 C18 0.949 . S
H48 C19 0.950 . S
H49 C23 0.950 . S
H50 C25 0.950 . S
H51 C28 0.950 . S
H52 C30 0.950 . S
C53 C54 1.443 . S
C53 N57 1.376 1_545 S
C53 C91 1.389 . S
C54 C53 1.443 . S
C54 C55 1.340 1_545 S
C54 H94 0.951 . S
C55 C54 1.340 1_565 S
C55 C56 1.439 . S
C55 H95 0.950 . S
C56 C55 1.439 . S
C56 N57 1.374 . S
C56 C90 1.395 . S
N57 C53 1.376 1_565 S
N57 C56 1.374 . S
N57 Co58 2.001 1_565 S
Co58 N57 2.001 1_545 S
Co58 N59 1.980 1_545 S
Co58 N64 2.016 . S
Co58 N69 2.010 . S
Co58 N74 2.255 1_545 S
Co58 N80 2.310 . S
N59 Co58 1.980 1_565 S
N59 C60 1.376 . S
N59 C63 1.383 . S
C60 N59 1.376 . S
C60 C61 1.446 . S
C60 C90 1.391 . S
C61 C60 1.446 . S
C61 C62 1.339 . S
C61 H96 0.949 . S
C62 C61 1.339 . S
C62 C63 1.439 . S
C62 H97 0.950 . S
C63 N59 1.383 . S
C63 C62 1.439 . S
C63 C92 1.392 . S
N64 Co58 2.016 . S
N64 C65 1.376 1_545 S
N64 C68 1.374 . S
C65 N64 1.376 1_565 S
C65 C66 1.443 . S
C65 C92 1.389 . S
C66 C65 1.443 . S
C66 C67 1.340 1_565 S
C66 H98 0.951 . S
C67 C66 1.340 1_545 S
C67 C68 1.439 . S
C67 H99 0.950 . S
C68 N64 1.374 . S
C68 C67 1.439 . S
C68 C93 1.395 . S
N69 Co58 2.010 . S
N69 C70 1.376 . S
N69 C73 1.383 . S
C70 N69 1.376 . S
C70 C71 1.446 . S
C70 C93 1.391 . S
C71 C70 1.446 . S
C71 C72 1.339 . S
C71 H100 0.949 . S
C72 C71 1.339 . S
C72 C73 1.439 . S
C72 H101 0.950 . S
C73 N69 1.383 . S
C73 C72 1.439 . S
C73 C91 1.392 . S
N74 Co58 2.255 1_565 S
N74 C77 1.332 . S
N74 C79 1.332 . S
C75 C76 1.386 . S
C75 C78 1.388 . S
C76 C75 1.386 . S
C76 C77 1.382 . S
C76 H102 0.950 . S
C77 N74 1.332 . S
C77 C76 1.382 . S
C77 H88 0.952 1_565 S
C78 C75 1.388 . S
C78 C79 1.382 . S
C78 H103 0.950 . S
C79 N74 1.332 . S
C79 C78 1.382 . S
C79 H89 0.948 . S
N80 Co58 2.310 . S
N80 C84 1.332 . S
N80 C85 1.332 . S
C81 C82 1.388 . S
C81 C85 1.382 . S
C81 H104 0.950 . S
C82 C81 1.388 . S
C82 C83 1.386 . S
C83 C82 1.386 . S
C83 C84 1.382 . S
C83 H105 0.950 . S
C84 N80 1.332 . S
C84 C83 1.382 . S
C84 H86 0.952 1_545 S
C85 N80 1.332 . S
C85 C81 1.382 . S
C85 H87 0.948 . S
H86 C84 0.952 1_565 S
H87 C85 0.948 . S
H88 C77 0.952 1_545 S
H89 C79 0.948 . S
C90 C56 1.395 . S
C90 C60 1.391 . S
C91 C53 1.389 . S
C91 C73 1.392 . S
C92 C63 1.392 . S
C92 C65 1.389 . S
C93 C68 1.395 . S
C93 C70 1.391 . S
H94 C54 0.951 . S
H95 C55 0.950 . S
H96 C61 0.949 . S
H97 C62 0.950 . S
H98 C66 0.951 . S
H99 C67 0.950 . S
H100 C71 0.949 . S
H101 C72 0.950 . S
H102 C76 0.950 . S
H103 C78 0.950 . S
H104 C81 0.950 . S
H105 C83 0.950 . S
C106 C107 1.443 . S
C106 N110 1.376 . S
C106 C144 1.389 . S
C107 C106 1.443 . S
C107 C108 1.340 . S
C107 H147 0.951 . S
C108 C107 1.340 . S
C108 C109 1.439 . S
C108 H148 0.950 . S
C109 C108 1.439 . S
C109 N110 1.374 . S
C109 C143 1.395 . S
N110 C106 1.376 . S
N110 C109 1.374 . S
N110 Co111 1.988 1_556 S
Co111 N110 1.988 1_554 S
Co111 N112 1.990 1_554 S
Co111 N117 2.029 . S
Co111 N122 2.000 . S
Co111 N127 2.295 . S
Co111 N133 2.270 1_554 S
N112 Co111 1.990 1_556 S
N112 C113 1.376 . S
N112 C116 1.383 1_556 S
C113 N112 1.376 . S
C113 C114 1.446 . S
C113 C143 1.391 . S
C114 C113 1.446 . S
C114 C115 1.339 . S
C114 H149 0.949 . S
C115 C114 1.339 . S
C115 C116 1.439 1_556 S
C115 H150 0.950 1_556 S
C116 N112 1.383 1_554 S
C116 C115 1.439 1_554 S
C116 C145 1.392 . S
N117 Co111 2.029 . S
N117 C118 1.376 . S
N117 C121 1.374 . S
C118 N117 1.376 . S
C118 C119 1.443 . S
C118 C145 1.389 . S
C119 C118 1.443 . S
C119 C120 1.340 . S
C119 H151 0.951 . S
C120 C119 1.340 . S
C120 C121 1.439 . S
C120 H152 0.950 . S
C121 N117 1.374 . S
C121 C120 1.439 . S
C121 C146 1.395 . S
N122 Co111 2.000 . S
N122 C123 1.376 . S
N122 C126 1.383 1_554 S
C123 N122 1.376 . S
C123 C124 1.446 . S
C123 C146 1.391 . S
C124 C123 1.446 . S
C124 C125 1.339 . S
C124 H153 0.949 . S
C125 C124 1.339 . S
C125 C126 1.439 1_554 S
C125 H154 0.950 1_554 S
C126 N122 1.383 1_556 S
C126 C125 1.439 1_556 S
C126 C144 1.392 . S
N127 Co111 2.295 . S
N127 C130 1.332 . S
N127 C132 1.332 . S
C128 C129 1.386 . S
C128 C131 1.388 . S
C129 C128 1.386 . S
C129 C130 1.382 . S
C129 H155 0.950 . S
C130 N127 1.332 . S
C130 C129 1.382 . S
C130 H141 0.952 . S
C131 C128 1.388 . S
C131 C132 1.382 . S
C131 H156 0.950 . S
C132 N127 1.332 . S
C132 C131 1.382 . S
C132 H142 0.948 . S
N133 Co111 2.270 1_556 S
N133 C137 1.332 . S
N133 C138 1.332 . S
C134 C135 1.388 . S
C134 C138 1.382 . S
C134 H157 0.950 . S
C135 C134 1.388 . S
C135 C136 1.386 . S
C136 C135 1.386 . S
C136 C137 1.382 . S
C136 H158 0.950 . S
C137 N133 1.332 . S
C137 C136 1.382 . S
C137 H139 0.952 . S
C138 N133 1.332 . S
C138 C134 1.382 . S
C138 H140 0.970 . S
H139 C137 0.952 . S
H140 C138 0.970 . S
H141 C130 0.952 . S
H142 C132 0.948 . S
C143 C109 1.395 . S
C143 C113 1.391 . S
C144 C106 1.389 . S
C144 C126 1.392 . S
C145 C116 1.392 . S
C145 C118 1.389 . S
C146 C121 1.395 . S
C146 C123 1.391 . S
H147 C107 0.951 . S
H148 C108 0.950 . S
H149 C114 0.949 . S
H150 C115 0.950 1_554 S
H151 C119 0.951 . S
H152 C120 0.950 . S
H153 C124 0.949 . S
H154 C125 0.950 1_556 S
H155 C129 0.950 . S
H156 C131 0.950 . S
H157 C134 0.950 . S
H158 C136 0.950 . S
C159 C160 1.443 . S
C159 N163 1.376 . S
C159 C197 1.389 . S
C160 C159 1.443 . S
C160 C161 1.340 . S
C160 H200 0.951 . S
C161 C160 1.340 . S
C161 C162 1.439 . S
C161 H201 0.950 . S
C162 C161 1.439 . S
C162 N163 1.374 . S
C162 C196 1.395 . S
N163 C159 1.376 . S
N163 C162 1.374 . S
N163 Co164 1.983 1_655 S
Co164 N163 1.983 1_455 S
Co164 N165 1.978 1_455 S
Co164 N170 2.034 . S
Co164 N175 2.012 . S
Co164 N180 2.313 . S
Co164 N186 2.252 1_455 S
N165 Co164 1.978 1_655 S
N165 C166 1.376 . S
N165 C169 1.383 1_655 S
C166 N165 1.376 . S
C166 C167 1.446 . S
C166 C196 1.391 . S
C167 C166 1.446 . S
C167 C168 1.339 1_655 S
C167 H202 0.949 . S
C168 C167 1.339 1_455 S
C168 C169 1.439 . S
C168 H203 0.950 . S
C169 N165 1.383 1_455 S
C169 C168 1.439 . S
C169 C198 1.392 . S
N170 Co164 2.034 . S
N170 C171 1.376 . S
N170 C174 1.374 . S
C171 N170 1.376 . S
C171 C172 1.443 . S
C171 C198 1.389 . S
C172 C171 1.443 . S
C172 C173 1.340 . S
C172 H204 0.951 . S
C173 C172 1.340 . S
C173 C174 1.439 . S
C173 H205 0.950 . S
C174 N170 1.374 . S
C174 C173 1.439 . S
C174 C199 1.395 . S
N175 Co164 2.012 . S
N175 C176 1.376 . S
N175 C179 1.383 1_455 S
C176 N175 1.376 . S
C176 C177 1.446 . S
C176 C199 1.391 . S
C177 C176 1.446 . S
C177 C178 1.339 1_455 S
C177 H206 0.949 . S
C178 C177 1.339 1_655 S
C178 C179 1.439 . S
C178 H207 0.950 . S
C179 N175 1.383 1_655 S
C179 C178 1.439 . S
C179 C197 1.392 . S
N180 Co164 2.313 . S
N180 C183 1.332 . S
N180 C185 1.332 . S
C181 C182 1.386 . S
C181 C184 1.388 . S
C182 C181 1.386 . S
C182 C183 1.382 . S
C182 H208 0.950 . S
C183 N180 1.332 . S
C183 C182 1.382 . S
C183 H194 0.952 . S
C184 C181 1.388 . S
C184 C185 1.382 . S
C184 H209 0.950 . S
C185 N180 1.332 . S
C185 C184 1.382 . S
C185 H195 0.948 . S
N186 Co164 2.252 1_655 S
N186 C190 1.332 . S
N186 C191 1.332 . S
C187 C188 1.388 . S
C187 C191 1.382 . S
C187 H210 0.950 . S
C188 C187 1.388 . S
C188 C189 1.386 . S
C189 C188 1.386 . S
C189 C190 1.382 . S
C189 H211 0.950 . S
C190 N186 1.332 . S
C190 C189 1.382 . S
C190 H192 0.952 . S
C191 N186 1.332 . S
C191 C187 1.382 . S
C191 H193 0.948 . S
H192 C190 0.952 . S
H193 C191 0.948 . S
H194 C183 0.952 . S
H195 C185 0.948 . S
C196 C162 1.395 . S
C196 C166 1.391 . S
C197 C159 1.389 . S
C197 C179 1.392 . S
C198 C169 1.392 . S
C198 C171 1.389 . S
C199 C174 1.395 . S
C199 C176 1.391 . S
H200 C160 0.951 . S
H201 C161 0.950 . S
H202 C167 0.949 . S
H203 C168 0.950 . S
H204 C172 0.951 . S
H205 C173 0.950 . S
H206 C177 0.949 . S
H207 C178 0.950 . S
H208 C182 0.950 . S
H209 C184 0.950 . S
H210 C187 0.950 . S
H211 C189 0.950 . S
C212 C213 1.443 . S
C212 N216 1.376 1_565 S
C212 C250 1.389 . S
C213 C212 1.443 . S
C213 C214 1.340 1_565 S
C213 H253 0.951 . S
C214 C213 1.340 1_545 S
C214 C215 1.439 . S
C214 H254 0.950 . S
C215 C214 1.439 . S
C215 N216 1.374 . S
C215 C249 1.395 . S
N216 C212 1.376 1_545 S
N216 C215 1.374 . S
N216 Co217 2.040 . S
Co217 N216 2.040 . S
Co217 N218 2.014 . S
Co217 N223 1.976 1_544 S
Co217 N228 1.976 1_544 S
Co217 N233 2.299 1_554 S
Co217 N239 2.267 1_545 S
N218 Co217 2.014 . S
N218 C219 1.376 . S
N218 C222 1.383 1_554 S
C219 N218 1.376 . S
C219 C220 1.446 . S
C219 C249 1.391 . S
C220 C219 1.446 . S
C220 C221 1.339 1_554 S
C220 H255 0.949 . S
C221 C220 1.339 1_556 S
C221 C222 1.439 . S
C221 H256 0.950 . S
C222 N218 1.383 1_556 S
C222 C221 1.439 . S
C222 C251 1.392 . S
N223 Co217 1.976 1_566 S
N223 C224 1.376 1_565 S
N223 C227 1.374 . S
C224 N223 1.376 1_545 S
C224 C225 1.443 . S
C224 C251 1.389 . S
C225 C224 1.443 . S
C225 C226 1.340 1_545 S
C225 H257 0.951 . S
C226 C225 1.340 1_565 S
C226 C227 1.439 . S
C226 H258 0.950 . S
C227 N223 1.374 . S
C227 C226 1.439 . S
C227 C252 1.395 . S
N228 Co217 1.976 1_566 S
N228 C229 1.376 . S
N228 C232 1.383 1_556 S
C229 N228 1.376 . S
C229 C230 1.446 . S
C229 C252 1.391 . S
C230 C229 1.446 . S
C230 C231 1.339 1_556 S
C230 H259 0.949 . S
C231 C230 1.339 1_554 S
C231 C232 1.439 . S
C231 H260 0.950 . S
C232 N228 1.383 1_554 S
C232 C231 1.439 . S
C232 C250 1.392 . S
N233 Co217 2.299 1_556 S
N233 C236 1.332 . S
N233 C238 1.332 . S
C234 C235 1.386 . S
C234 C237 1.388 . S
C235 C234 1.386 . S
C235 C236 1.382 . S
C235 H261 0.950 . S
C236 N233 1.332 . S
C236 C235 1.382 . S
C236 H247 0.952 1_545 S
C237 C234 1.388 . S
C237 C238 1.382 . S
C237 H262 0.950 . S
C238 N233 1.332 . S
C238 C237 1.382 . S
C238 H248 0.948 . S
N239 Co217 2.267 1_565 S
N239 C243 1.332 . S
N239 C244 1.332 . S
C240 C241 1.388 . S
C240 C244 1.382 . S
C240 H263 0.950 . S
C241 C240 1.388 . S
C241 C242 1.386 . S
C242 C241 1.386 . S
C242 C243 1.382 . S
C242 H264 0.950 . S
C243 N239 1.332 . S
C243 C242 1.382 . S
C243 H245 0.952 1_565 S
C244 N239 1.332 . S
C244 C240 1.382 . S
C244 H246 0.948 . S
H245 C243 0.952 1_545 S
H246 C244 0.948 . S
H247 C236 0.952 1_565 S
H248 C238 0.948 . S
C249 C215 1.395 . S
C249 C219 1.391 . S
C250 C212 1.389 . S
C250 C232 1.392 . S
C251 C222 1.392 . S
C251 C224 1.389 . S
C252 C227 1.395 . S
C252 C229 1.391 . S
H253 C213 0.951 . S
H254 C214 0.950 . S
H255 C220 0.949 . S
H256 C221 0.950 . S
H257 C225 0.951 . S
H258 C226 0.950 . S
H259 C230 0.949 . S
H260 C231 0.950 . S
H261 C235 0.950 . S
H262 C237 0.950 . S
H263 C240 0.950 . S
H264 C242 0.950 . S
C265 C266 1.443 . S
C265 N269 1.376 . S
C265 C303 1.389 . S
C266 C265 1.443 . S
C266 C267 1.340 . S
C266 H306 0.951 . S
C267 C266 1.340 . S
C267 C268 1.439 . S
C267 H307 0.950 . S
C268 C267 1.439 . S
C268 N269 1.374 . S
C268 C302 1.395 . S
N269 C265 1.376 . S
N269 C268 1.374 . S
N269 Co270 2.008 . S
Co270 N269 2.008 . S
Co270 N271 1.995 . S
Co270 N276 2.008 . S
Co270 N281 1.995 . S
Co270 N286 2.282 . S
Co270 N292 2.282 . S
N271 Co270 1.995 . S
N271 C272 1.376 . S
N271 C275 1.383 . S
C272 N271 1.376 . S
C272 C273 1.446 . S
C272 C302 1.391 . S
C273 C272 1.446 . S
C273 C274 1.339 . S
C273 H308 0.949 . S
C274 C273 1.339 . S
C274 C275 1.439 . S
C274 H309 0.950 . S
C275 N271 1.383 . S
C275 C274 1.439 . S
C275 C304 1.392 . S
N276 Co270 2.008 . S
N276 C277 1.376 . S
N276 C280 1.374 . S
C277 N276 1.376 . S
C277 C278 1.443 . S
C277 C304 1.389 . S
C278 C277 1.443 . S
C278 C279 1.340 . S
C278 H310 0.951 . S
C279 C278 1.340 . S
C279 C280 1.439 . S
C279 H311 0.950 . S
C280 N276 1.374 . S
C280 C279 1.439 . S
C280 C305 1.395 . S
N281 Co270 1.995 . S
N281 C282 1.376 . S
N281 C285 1.383 . S
C282 N281 1.376 . S
C282 C283 1.446 . S
C282 C305 1.391 . S
C283 C282 1.446 . S
C283 C284 1.339 . S
C283 H312 0.949 . S
C284 C283 1.339 . S
C284 C285 1.439 . S
C284 H313 0.950 . S
C285 N281 1.383 . S
C285 C284 1.439 . S
C285 C303 1.392 . S
N286 Co270 2.282 . S
N286 C289 1.332 . S
N286 C291 1.332 . S
C287 C288 1.386 . S
C287 C290 1.388 . S
C288 C287 1.386 . S
C288 C289 1.382 . S
C288 H314 0.950 . S
C289 N286 1.332 . S
C289 C288 1.382 . S
C289 H300 0.952 . S
C290 C287 1.388 . S
C290 C291 1.382 . S
C290 H315 0.950 . S
C291 N286 1.332 . S
C291 C290 1.382 . S
C291 H301 0.948 . S
N292 Co270 2.282 . S
N292 C296 1.332 . S
N292 C297 1.332 . S
C293 C294 1.388 . S
C293 C297 1.382 . S
C293 H316 0.950 . S
C294 C293 1.388 . S
C294 C295 1.386 . S
C295 C294 1.386 . S
C295 C296 1.382 . S
C295 H317 0.950 . S
C296 N292 1.332 . S
C296 C295 1.382 . S
C296 H298 0.952 . S
C297 N292 1.332 . S
C297 C293 1.382 . S
C297 H299 0.948 . S
H298 C296 0.952 . S
H299 C297 0.948 . S
H300 C289 0.952 . S
H301 C291 0.948 . S
C302 C268 1.395 . S
C302 C272 1.391 . S
C303 C265 1.389 . S
C303 C285 1.392 . S
C304 C275 1.392 . S
C304 C277 1.389 . S
C305 C280 1.395 . S
C305 C282 1.391 . S
H306 C266 0.951 . S
H307 C267 0.950 . S
H308 C273 0.949 . S
H309 C274 0.950 . S
H310 C278 0.951 . S
H311 C279 0.950 . S
H312 C283 0.949 . S
H313 C284 0.950 . S
H314 C288 0.950 . S
H315 C290 0.950 . S
H316 C293 0.950 . S
H317 C295 0.950 . S
C318 C319 1.384 . S
C318 C320 1.384 . S
C318 H346 0.931 . S
C319 C318 1.384 . S
C319 C322 1.382 . S
C320 C318 1.384 . S
C320 C321 1.381 . S
C320 H347 0.930 . S
C321 C320 1.381 . S
C321 C323 1.381 . S
C321 C324 1.487 . S
C322 C319 1.382 . S
C322 C323 1.387 . S
C322 H348 0.930 . S
C323 C321 1.381 . S
C323 C322 1.387 . S
C323 H349 0.931 . S
C324 C321 1.487 . S
C324 C331 1.399 . S
C324 N362 1.343 . S
C325 C326 1.384 . S
C325 C327 1.384 . S
C325 H350 0.931 . S
C326 C325 1.384 . S
C326 C329 1.382 . S
C327 C325 1.384 . S
C327 C328 1.381 . S
C327 H351 0.930 . S
C328 C327 1.381 . S
C328 C330 1.381 . S
C328 C331 1.487 . S
C329 C326 1.382 . S
C329 C330 1.387 . S
C329 H352 0.930 . S
C330 C328 1.381 . S
C330 C329 1.387 . S
C330 H353 0.931 . S
C331 C324 1.399 . S
C331 C328 1.487 . S
C331 N363 1.343 . S
C332 C333 1.384 . S
C332 C334 1.384 . S
C332 H354 0.931 . S
C333 C332 1.384 . S
C333 C336 1.382 . S
C334 C332 1.384 . S
C334 C335 1.381 . S
C334 H355 0.930 . S
C335 C334 1.381 . S
C335 C337 1.381 . S
C335 C338 1.487 . S
C336 C333 1.382 . S
C336 C337 1.387 . S
C336 H356 0.930 . S
C337 C335 1.381 . S
C337 C336 1.387 . S
C337 H357 0.931 . S
C338 C335 1.487 . S
C338 C345 1.399 . S
C338 N363 1.343 . S
C339 C340 1.384 . S
C339 C341 1.384 . S
C339 H358 0.931 . S
C340 C339 1.384 . S
C340 C343 1.382 . S
C341 C339 1.384 . S
C341 C342 1.381 . S
C341 H359 0.930 . S
C342 C341 1.381 . S
C342 C344 1.381 . S
C342 C345 1.487 . S
C343 C340 1.382 . S
C343 C344 1.387 . S
C343 H360 0.930 . S
C344 C342 1.381 . S
C344 C343 1.387 . S
C344 H361 0.931 . S
C345 C338 1.399 . S
C345 C342 1.487 . S
C345 N362 1.343 . S
H346 C318 0.931 . S
H347 C320 0.930 . S
H348 C322 0.930 . S
H349 C323 0.931 . S
H350 C325 0.931 . S
H351 C327 0.930 . S
H352 C329 0.930 . S
H353 C330 0.931 . S
H354 C332 0.931 . S
H355 C334 0.930 . S
H356 C336 0.930 . S
H357 C337 0.931 . S
H358 C339 0.931 . S
H359 C341 0.930 . S
H360 C343 0.930 . S
H361 C344 0.931 . S
N362 C324 1.343 . S
N362 C345 1.343 . S
N363 C331 1.343 . S
N363 C338 1.343 . S
C364 C365 1.384 . S
C364 C366 1.384 . S
C364 H392 0.931 . S
C365 C364 1.384 . S
C365 C368 1.382 . S
C366 C364 1.384 . S
C366 C367 1.381 . S
C366 H393 0.930 . S
C367 C366 1.381 . S
C367 C369 1.381 . S
C367 C370 1.487 . S
C368 C365 1.382 . S
C368 C369 1.387 . S
C368 H394 0.930 . S
C369 C367 1.381 . S
C369 C368 1.387 . S
C369 H395 0.931 . S
C370 C367 1.487 . S
C370 C377 1.399 . S
C370 N408 1.343 . S
C371 C372 1.384 . S
C371 C373 1.384 . S
C371 H396 0.931 . S
C372 C371 1.384 . S
C372 C375 1.382 . S
C373 C371 1.384 . S
C373 C374 1.381 . S
C373 H397 0.930 . S
C374 C373 1.381 . S
C374 C376 1.381 . S
C374 C377 1.487 . S
C375 C372 1.382 . S
C375 C376 1.387 . S
C375 H398 0.930 . S
C376 C374 1.381 . S
C376 C375 1.387 . S
C376 H399 0.931 . S
C377 C370 1.399 . S
C377 C374 1.487 . S
C377 N409 1.343 . S
C378 C379 1.384 . S
C378 C380 1.384 . S
C378 H400 0.931 . S
C379 C378 1.384 . S
C379 C382 1.382 . S
C380 C378 1.384 . S
C380 C381 1.381 . S
C380 H401 0.930 . S
C381 C380 1.381 . S
C381 C383 1.381 . S
C381 C384 1.487 . S
C382 C379 1.382 . S
C382 C383 1.387 . S
C382 H402 0.930 . S
C383 C381 1.381 . S
C383 C382 1.387 . S
C383 H403 0.931 . S
C384 C381 1.487 . S
C384 C391 1.399 . S
C384 N409 1.343 . S
C385 C386 1.384 . S
C385 C387 1.384 . S
C385 H404 0.931 . S
C386 C385 1.384 . S
C386 C389 1.382 . S
C387 C385 1.384 . S
C387 C388 1.381 . S
C387 H405 0.930 . S
C388 C387 1.381 . S
C388 C390 1.381 . S
C388 C391 1.487 . S
C389 C386 1.382 . S
C389 C390 1.387 . S
C389 H406 0.930 . S
C390 C388 1.381 . S
C390 C389 1.387 . S
C390 H407 0.931 . S
C391 C384 1.399 . S
C391 C388 1.487 . S
C391 N408 1.343 . S
H392 C364 0.931 . S
H393 C366 0.930 . S
H394 C368 0.930 . S
H395 C369 0.931 . S
H396 C371 0.931 . S
H397 C373 0.930 . S
H398 C375 0.930 . S
H399 C376 0.931 . S
H400 C378 0.931 . S
H401 C380 0.930 . S
H402 C382 0.930 . S
H403 C383 0.931 . S
H404 C385 0.931 . S
H405 C387 0.930 . S
H406 C389 0.930 . S
H407 C390 0.931 . S
N408 C370 1.343 . S
N408 C391 1.343 . S
N409 C377 1.343 . S
N409 C384 1.343 . S
C410 C411 1.384 . S
C410 C412 1.384 . S
C410 H438 0.931 . S
C411 C410 1.384 . S
C411 C414 1.382 . S
C412 C410 1.384 . S
C412 C413 1.381 . S
C412 H439 0.930 . S
C413 C412 1.381 . S
C413 C415 1.381 . S
C413 C416 1.487 . S
C414 C411 1.382 . S
C414 C415 1.387 . S
C414 H440 0.930 . S
C415 C413 1.381 . S
C415 C414 1.387 . S
C415 H441 0.931 . S
C416 C413 1.487 . S
C416 C423 1.399 . S
C416 N454 1.343 . S
C417 C418 1.384 . S
C417 C419 1.384 . S
C417 H442 0.931 . S
C418 C417 1.384 . S
C418 C421 1.382 . S
C419 C417 1.384 . S
C419 C420 1.381 . S
C419 H443 0.930 . S
C420 C419 1.381 . S
C420 C422 1.381 . S
C420 C423 1.487 . S
C421 C418 1.382 . S
C421 C422 1.387 . S
C421 H444 0.930 . S
C422 C420 1.381 . S
C422 C421 1.387 . S
C422 H445 0.931 . S
C423 C416 1.399 . S
C423 C420 1.487 . S
C423 N455 1.343 . S
C424 C425 1.384 . S
C424 C426 1.384 . S
C424 H446 0.931 . S
C425 C424 1.384 . S
C425 C428 1.382 . S
C426 C424 1.384 . S
C426 C427 1.381 . S
C426 H447 0.930 . S
C427 C426 1.381 . S
C427 C429 1.381 . S
C427 C430 1.487 . S
C428 C425 1.382 . S
C428 C429 1.387 . S
C428 H448 0.930 . S
C429 C427 1.381 . S
C429 C428 1.387 . S
C429 H449 0.931 . S
C430 C427 1.487 . S
C430 C437 1.399 . S
C430 N455 1.343 . S
C431 C432 1.384 . S
C431 C433 1.384 . S
C431 H450 0.931 . S
C432 C431 1.384 . S
C432 C435 1.382 . S
C433 C431 1.384 . S
C433 C434 1.381 . S
C433 H451 0.930 . S
C434 C433 1.381 . S
C434 C436 1.381 . S
C434 C437 1.487 . S
C435 C432 1.382 . S
C435 C436 1.387 . S
C435 H452 0.930 . S
C436 C434 1.381 . S
C436 C435 1.387 . S
C436 H453 0.931 . S
C437 C430 1.399 . S
C437 C434 1.487 . S
C437 N454 1.343 . S
H438 C410 0.931 . S
H439 C412 0.930 . S
H440 C414 0.930 . S
H441 C415 0.931 . S
H442 C417 0.931 . S
H443 C419 0.930 . S
H444 C421 0.930 . S
H445 C422 0.931 . S
H446 C424 0.931 . S
H447 C426 0.930 . S
H448 C428 0.930 . S
H449 C429 0.931 . S
H450 C431 0.931 . S
H451 C433 0.930 . S
H452 C435 0.930 . S
H453 C436 0.931 . S
N454 C416 1.343 . S
N454 C437 1.343 . S
N455 C423 1.343 . S
N455 C430 1.343 . S
C456 C457 1.384 . S
C456 C458 1.384 . S
C456 H484 0.931 . S
C457 C456 1.384 . S
C457 C460 1.382 . S
C458 C456 1.384 . S
C458 C459 1.381 . S
C458 H485 0.930 . S
C459 C458 1.381 . S
C459 C461 1.381 . S
C459 C462 1.487 . S
C460 C457 1.382 . S
C460 C461 1.387 . S
C460 H486 0.930 . S
C461 C459 1.381 . S
C461 C460 1.387 . S
C461 H487 0.931 . S
C462 C459 1.487 . S
C462 C469 1.399 . S
C462 N500 1.343 . S
C463 C464 1.384 . S
C463 C465 1.384 . S
C463 H488 0.931 . S
C464 C463 1.384 . S
C464 C467 1.382 . S
C465 C463 1.384 . S
C465 C466 1.381 . S
C465 H489 0.930 . S
C466 C465 1.381 . S
C466 C468 1.381 . S
C466 C469 1.487 . S
C467 C464 1.382 . S
C467 C468 1.387 . S
C467 H490 0.930 . S
C468 C466 1.381 . S
C468 C467 1.387 . S
C468 H491 0.931 . S
C469 C462 1.399 . S
C469 C466 1.487 . S
C469 N501 1.343 . S
C470 C471 1.384 . S
C470 C472 1.384 . S
C470 H492 0.931 . S
C471 C470 1.384 . S
C471 C474 1.382 . S
C472 C470 1.384 . S
C472 C473 1.381 . S
C472 H493 0.930 . S
C473 C472 1.381 . S
C473 C475 1.381 . S
C473 C476 1.487 . S
C474 C471 1.382 . S
C474 C475 1.387 . S
C474 H494 0.930 . S
C475 C473 1.381 . S
C475 C474 1.387 . S
C475 H495 0.931 . S
C476 C473 1.487 . S
C476 C483 1.399 . S
C476 N501 1.343 . S
C477 C478 1.384 . S
C477 C479 1.384 . S
C477 H496 0.931 . S
C478 C477 1.384 . S
C478 C481 1.382 . S
C479 C477 1.384 . S
C479 C480 1.381 . S
C479 H497 0.930 . S
C480 C479 1.381 . S
C480 C482 1.381 . S
C480 C483 1.487 . S
C481 C478 1.382 . S
C481 C482 1.387 . S
C481 H498 0.930 . S
C482 C480 1.381 . S
C482 C481 1.387 . S
C482 H499 0.931 . S
C483 C476 1.399 . S
C483 C480 1.487 . S
C483 N500 1.343 . S
H484 C456 0.931 . S
H485 C458 0.930 . S
H486 C460 0.930 . S
H487 C461 0.931 . S
H488 C463 0.931 . S
H489 C465 0.930 . S
H490 C467 0.930 . S
H491 C468 0.931 . S
H492 C470 0.931 . S
H493 C472 0.930 . S
H494 C474 0.930 . S
H495 C475 0.931 . S
H496 C477 0.931 . S
H497 C479 0.930 . S
H498 C481 0.930 . S
H499 C482 0.931 . S
N500 C462 1.343 . S
N500 C483 1.343 . S
N501 C469 1.343 . S
N501 C476 1.343 . S
C502 C503 1.384 . S
C502 C504 1.384 . S
C502 H530 0.931 . S
C503 C502 1.384 . S
C503 C506 1.382 . S
C504 C502 1.384 . S
C504 C505 1.381 . S
C504 H531 0.930 . S
C505 C504 1.381 . S
C505 C507 1.381 . S
C505 C508 1.487 . S
C506 C503 1.382 . S
C506 C507 1.387 . S
C506 H532 0.930 . S
C507 C505 1.381 . S
C507 C506 1.387 . S
C507 H533 0.931 . S
C508 C505 1.487 . S
C508 C515 1.399 . S
C508 N546 1.343 . S
C509 C510 1.384 . S
C509 C511 1.384 . S
C509 H534 0.931 . S
C510 C509 1.384 . S
C510 C513 1.382 . S
C511 C509 1.384 . S
C511 C512 1.381 . S
C511 H535 0.930 . S
C512 C511 1.381 . S
C512 C514 1.381 . S
C512 C515 1.487 . S
C513 C510 1.382 . S
C513 C514 1.387 . S
C513 H536 0.930 . S
C514 C512 1.381 . S
C514 C513 1.387 . S
C514 H537 0.931 . S
C515 C508 1.399 . S
C515 C512 1.487 . S
C515 N547 1.343 . S
C516 C517 1.384 . S
C516 C518 1.384 . S
C516 H538 0.931 . S
C517 C516 1.384 . S
C517 C520 1.382 . S
C518 C516 1.384 . S
C518 C519 1.381 . S
C518 H539 0.930 . S
C519 C518 1.381 . S
C519 C521 1.381 . S
C519 C522 1.487 . S
C520 C517 1.382 . S
C520 C521 1.387 . S
C520 H540 0.930 . S
C521 C519 1.381 . S
C521 C520 1.387 . S
C521 H541 0.931 . S
C522 C519 1.487 . S
C522 C529 1.399 . S
C522 N547 1.343 . S
C523 C524 1.384 . S
C523 C525 1.384 . S
C523 H542 0.931 . S
C524 C523 1.384 . S
C524 C527 1.382 . S
C525 C523 1.384 . S
C525 C526 1.381 . S
C525 H543 0.930 . S
C526 C525 1.381 . S
C526 C528 1.381 . S
C526 C529 1.487 . S
C527 C524 1.382 . S
C527 C528 1.387 . S
C527 H544 0.930 . S
C528 C526 1.381 . S
C528 C527 1.387 . S
C528 H545 0.931 . S
C529 C522 1.399 . S
C529 C526 1.487 . S
C529 N546 1.343 . S
H530 C502 0.931 . S
H531 C504 0.930 . S
H532 C506 0.930 . S
H533 C507 0.931 . S
H534 C509 0.931 . S
H535 C511 0.930 . S
H536 C513 0.930 . S
H537 C514 0.931 . S
H538 C516 0.931 . S
H539 C518 0.930 . S
H540 C520 0.930 . S
H541 C521 0.931 . S
H542 C523 0.931 . S
H543 C525 0.930 . S
H544 C527 0.930 . S
H545 C528 0.931 . S
N546 C508 1.343 . S
N546 C529 1.343 . S
N547 C515 1.343 . S
N547 C522 1.343 . S
C548 C549 1.384 . S
C548 C550 1.384 . S
C548 H576 0.931 . S
C549 C548 1.384 . S
C549 C552 1.382 . S
C550 C548 1.384 . S
C550 C551 1.381 . S
C550 H577 0.930 . S
C551 C550 1.381 . S
C551 C553 1.381 . S
C551 C554 1.487 . S
C552 C549 1.382 . S
C552 C553 1.387 . S
C552 H578 0.930 . S
C553 C551 1.381 . S
C553 C552 1.387 . S
C553 H579 0.931 . S
C554 C551 1.487 . S
C554 C561 1.399 . S
C554 N592 1.343 . S
C555 C556 1.384 . S
C555 C557 1.384 . S
C555 H580 0.931 . S
C556 C555 1.384 . S
C556 C559 1.382 . S
C557 C555 1.384 . S
C557 C558 1.381 . S
C557 H581 0.930 . S
C558 C557 1.381 . S
C558 C560 1.381 . S
C558 C561 1.487 . S
C559 C556 1.382 . S
C559 C560 1.387 . S
C559 H582 0.930 . S
C560 C558 1.381 . S
C560 C559 1.387 . S
C560 H583 0.931 . S
C561 C554 1.399 . S
C561 C558 1.487 . S
C561 N593 1.343 . S
C562 C563 1.384 . S
C562 C564 1.384 . S
C562 H584 0.931 . S
C563 C562 1.384 . S
C563 C566 1.382 . S
C564 C562 1.384 . S
C564 C565 1.381 . S
C564 H585 0.930 . S
C565 C564 1.381 . S
C565 C567 1.381 . S
C565 C568 1.487 . S
C566 C563 1.382 . S
C566 C567 1.387 . S
C566 H586 0.930 . S
C567 C565 1.381 . S
C567 C566 1.387 . S
C567 H587 0.931 . S
C568 C565 1.487 . S
C568 C575 1.399 . S
C568 N593 1.343 . S
C569 C570 1.384 . S
C569 C571 1.384 . S
C569 H588 0.931 . S
C570 C569 1.384 . S
C570 C573 1.382 . S
C571 C569 1.384 . S
C571 C572 1.381 . S
C571 H589 0.930 . S
C572 C571 1.381 . S
C572 C574 1.381 . S
C572 C575 1.487 . S
C573 C570 1.382 . S
C573 C574 1.387 . S
C573 H590 0.930 . S
C574 C572 1.381 . S
C574 C573 1.387 . S
C574 H591 0.931 . S
C575 C568 1.399 . S
C575 C572 1.487 . S
C575 N592 1.343 . S
H576 C548 0.931 . S
H577 C550 0.930 . S
H578 C552 0.930 . S
H579 C553 0.931 . S
H580 C555 0.931 . S
H581 C557 0.930 . S
H582 C559 0.930 . S
H583 C560 0.931 . S
H584 C562 0.931 . S
H585 C564 0.930 . S
H586 C566 0.930 . S
H587 C567 0.931 . S
H588 C569 0.931 . S
H589 C571 0.930 . S
H590 C573 0.930 . S
H591 C574 0.931 . S
N592 C554 1.343 . S
N592 C575 1.343 . S
N593 C561 1.343 . S
N593 C568 1.343 . S
C594 C595 1.387 . S
C594 H598 0.950 . S
C594 C603 1.390 . S
C595 C594 1.387 . S
C595 C597 1.387 . S
H596 C603 0.950 . S
C597 C595 1.387 . S
C597 C599 1.390 . S
C597 H601 0.950 . S
H598 C594 0.950 . S
C599 C597 1.390 . S
C599 C600 1.387 . S
C599 H602 0.950 . S
C600 C599 1.387 . S
C600 C603 1.387 . S
H601 C597 0.950 . S
H602 C599 0.950 . S
C603 C594 1.390 . S
C603 H596 0.950 . S
C603 C600 1.387 . S
C604 C605 1.387 . S
C604 H608 0.950 . S
C604 C613 1.390 . S
C605 C604 1.387 . S
C605 C607 1.387 . S
H606 C613 0.950 . S
C607 C605 1.387 . S
C607 C609 1.390 . S
C607 H611 0.950 . S
H608 C604 0.950 . S
C609 C607 1.390 . S
C609 C610 1.387 . S
C609 H612 0.950 . S
C610 C609 1.387 . S
C610 C613 1.387 . S
H611 C607 0.950 . S
H612 C609 0.950 . S
C613 C604 1.390 . S
C613 H606 0.950 . S
C613 C610 1.387 . S
C614 C615 1.387 . S
C614 H618 0.950 . S
C614 C623 1.390 . S
C615 C614 1.387 . S
C615 C617 1.387 . S
H616 C623 0.950 . S
C617 C615 1.387 . S
C617 C619 1.390 . S
C617 H621 0.950 . S
H618 C614 0.950 . S
C619 C617 1.390 . S
C619 C620 1.387 . S
C619 H622 0.950 . S
C620 C619 1.387 . S
C620 C623 1.387 . S
H621 C617 0.950 . S
H622 C619 0.950 . S
C623 C614 1.390 . S
C623 H616 0.950 . S
C623 C620 1.387 . S
C624 C625 1.387 . S
C624 H628 0.950 . S
C624 C633 1.390 . S
C625 C624 1.387 . S
C625 C627 1.387 . S
H626 C633 0.950 . S
C627 C625 1.387 . S
C627 C629 1.390 . S
C627 H631 0.950 . S
H628 C624 0.950 . S
C629 C627 1.390 . S
C629 C630 1.387 . S
C629 H632 0.950 . S
C630 C629 1.387 . S
C630 C633 1.387 . S
H631 C627 0.950 . S
H632 C629 0.950 . S
C633 C624 1.390 . S
C633 H626 0.950 . S
C633 C630 1.387 . S
C634 C635 1.387 . S
C634 H638 0.950 . S
C634 C643 1.390 . S
C635 C634 1.387 . S
C635 C637 1.387 . S
H636 C643 0.950 . S
C637 C635 1.387 . S
C637 C639 1.390 . S
C637 H641 0.950 . S
H638 C634 0.950 . S
C639 C637 1.390 . S
C639 C640 1.387 . S
C639 H642 0.950 . S
C640 C639 1.387 . S
C640 C643 1.387 . S
H641 C637 0.950 . S
H642 C639 0.950 . S
C643 C634 1.390 . S
C643 H636 0.950 . S
C643 C640 1.387 . S
C644 C645 1.387 . S
C644 H648 0.950 . S
C644 C653 1.390 . S
C645 C644 1.387 . S
C645 C647 1.387 . S
H646 C653 0.950 . S
C647 C645 1.387 . S
C647 C649 1.390 . S
C647 H651 0.950 . S
H648 C644 0.950 . S
C649 C647 1.390 . S
C649 C650 1.387 . S
C649 H652 0.950 . S
C650 C649 1.387 . S
C650 C653 1.387 . S
H651 C647 0.950 . S
H652 C649 0.950 . S
C653 C644 1.390 . S
C653 H646 0.950 . S
C653 C650 1.387 . S
C654 C655 1.387 . S
C654 H658 0.950 . S
C654 C663 1.390 . S
C655 C654 1.387 . S
C655 C657 1.387 . S
H656 C663 0.950 . S
C657 C655 1.387 . S
C657 C659 1.390 . S
C657 H661 0.950 . S
H658 C654 0.950 . S
C659 C657 1.390 . S
C659 C660 1.387 . S
C659 H662 0.950 . S
C660 C659 1.387 . S
C660 C663 1.387 . S
H661 C657 0.950 . S
H662 C659 0.950 . S
C663 C654 1.390 . S
C663 H656 0.950 . S
C663 C660 1.387 . S
C664 C665 1.387 . S
C664 H668 0.950 . S
C664 C673 1.390 . S
C665 C664 1.387 . S
C665 C667 1.387 . S
H666 C673 0.950 . S
C667 C665 1.387 . S
C667 C669 1.390 . S
C667 H671 0.950 . S
H668 C664 0.950 . S
C669 C667 1.390 . S
C669 C670 1.387 . S
C669 H672 0.950 . S
C670 C669 1.387 . S
C670 C673 1.387 . S
H671 C667 0.950 . S
H672 C669 0.950 . S
C673 C664 1.390 . S
C673 H666 0.950 . S
C673 C670 1.387 . S
C674 C675 1.387 . S
C674 H678 0.950 . S
C674 C683 1.390 . S
C675 C674 1.387 . S
C675 C677 1.387 . S
H676 C683 0.950 . S
C677 C675 1.387 . S
C677 C679 1.390 . S
C677 H681 0.950 . S
H678 C674 0.950 . S
C679 C677 1.390 . S
C679 C680 1.387 . S
C679 H682 0.950 . S
C680 C679 1.387 . S
C680 C683 1.387 . S
H681 C677 0.950 . S
H682 C679 0.950 . S
C683 C674 1.390 . S
C683 H676 0.950 . S
C683 C680 1.387 . S
C684 C685 1.387 . S
C684 H688 0.950 . S
C684 C693 1.390 . S
C685 C684 1.387 . S
C685 C687 1.387 . S
H686 C693 0.950 . S
C687 C685 1.387 . S
C687 C689 1.390 . S
C687 H691 0.950 . S
H688 C684 0.950 . S
C689 C687 1.390 . S
C689 C690 1.387 . S
C689 H692 0.950 . S
C690 C689 1.387 . S
C690 C693 1.387 . S
H691 C687 0.950 . S
H692 C689 0.950 . S
C693 C684 1.390 . S
C693 H686 0.950 . S
C693 C690 1.387 . S
C694 C695 1.387 . S
C694 H698 0.950 . S
C694 C703 1.390 . S
C695 C694 1.387 . S
C695 C697 1.387 . S
H696 C703 0.950 . S
C697 C695 1.387 . S
C697 C699 1.390 . S
C697 H701 0.950 . S
H698 C694 0.950 . S
C699 C697 1.390 . S
C699 C700 1.387 . S
C699 H702 0.950 . S
C700 C699 1.387 . S
C700 C703 1.387 . S
H701 C697 0.950 . S
H702 C699 0.950 . S
C703 C694 1.390 . S
C703 H696 0.950 . S
C703 C700 1.387 . S
C704 C705 1.387 . S
C704 H708 0.950 . S
C704 C713 1.390 . S
C705 C704 1.387 . S
C705 C707 1.387 . S
H706 C713 0.950 . S
C707 C705 1.387 . S
C707 C709 1.390 . S
C707 H711 0.950 . S
H708 C704 0.950 . S
C709 C707 1.390 . S
C709 C710 1.387 . S
C709 H712 0.950 . S
C710 C709 1.387 . S
C710 C713 1.387 . S
H711 C707 0.950 . S
H712 C709 0.950 . S
C713 C704 1.390 . S
C713 H706 0.950 . S
C713 C710 1.387 . S
C714 C715 1.387 . S
C714 H718 0.950 . S
C714 C723 1.390 . S
C715 C714 1.387 . S
C715 C717 1.387 . S
H716 C723 0.950 . S
C717 C715 1.387 . S
C717 C719 1.390 . S
C717 H721 0.950 . S
H718 C714 0.950 . S
C719 C717 1.390 . S
C719 C720 1.387 . S
C719 H722 0.950 . S
C720 C719 1.387 . S
C720 C723 1.387 . S
H721 C717 0.950 . S
H722 C719 0.950 . S
C723 C714 1.390 . S
C723 H716 0.950 . S
C723 C720 1.387 . S
C724 C725 1.387 . S
C724 H728 0.950 . S
C724 C733 1.390 . S
C725 C724 1.387 . S
C725 C727 1.387 . S
H726 C733 0.950 . S
C727 C725 1.387 . S
C727 C729 1.390 . S
C727 H731 0.950 . S
H728 C724 0.950 . S
C729 C727 1.390 . S
C729 C730 1.387 . S
C729 H732 0.950 . S
C730 C729 1.387 . S
C730 C733 1.387 . S
H731 C727 0.950 . S
H732 C729 0.950 . S
C733 C724 1.390 . S
C733 H726 0.950 . S
C733 C730 1.387 . S
C734 C735 1.387 . S
C734 H738 0.950 . S
C734 C743 1.390 . S
C735 C734 1.387 . S
C735 C737 1.387 . S
H736 C743 0.950 . S
C737 C735 1.387 . S
C737 C739 1.390 . S
C737 H741 0.950 . S
H738 C734 0.950 . S
C739 C737 1.390 . S
C739 C740 1.387 . S
C739 H742 0.950 . S
C740 C739 1.387 . S
C740 C743 1.387 . S
H741 C737 0.950 . S
H742 C739 0.950 . S
C743 C734 1.390 . S
C743 H736 0.950 . S
C743 C740 1.387 . S
C744 C745 1.387 . S
C744 H748 0.950 . S
C744 C753 1.390 . S
C745 C744 1.387 . S
C745 C747 1.387 . S
H746 C753 0.950 . S
C747 C745 1.387 . S
C747 C749 1.390 . S
C747 H751 0.950 . S
H748 C744 0.950 . S
C749 C747 1.390 . S
C749 C750 1.387 . S
C749 H752 0.950 . S
C750 C749 1.387 . S
C750 C753 1.387 . S
H751 C747 0.950 . S
H752 C749 0.950 . S
C753 C744 1.390 . S
C753 H746 0.950 . S
C753 C750 1.387 . S
C754 C755 1.387 . S
C754 H758 0.950 . S
C754 C763 1.390 . S
C755 C754 1.387 . S
C755 C757 1.387 . S
H756 C763 0.950 . S
C757 C755 1.387 . S
C757 C759 1.390 . S
C757 H761 0.950 . S
H758 C754 0.950 . S
C759 C757 1.390 . S
C759 C760 1.387 . S
C759 H762 0.950 . S
C760 C759 1.387 . S
C760 C763 1.387 . S
H761 C757 0.950 . S
H762 C759 0.950 . S
C763 C754 1.390 . S
C763 H756 0.950 . S
C763 C760 1.387 . S
C764 C765 1.387 . S
C764 H768 0.950 . S
C764 C773 1.390 . S
C765 C764 1.387 . S
C765 C767 1.387 . S
H766 C773 0.950 . S
C767 C765 1.387 . S
C767 C769 1.390 . S
C767 H771 0.950 . S
H768 C764 0.950 . S
C769 C767 1.390 . S
C769 C770 1.387 . S
C769 H772 0.950 . S
C770 C769 1.387 . S
C770 C773 1.387 . S
H771 C767 0.950 . S
H772 C769 0.950 . S
C773 C764 1.390 . S
C773 H766 0.950 . S
C773 C770 1.387 . S
C774 C775 1.387 . S
C774 H778 0.950 . S
C774 C783 1.390 . S
C775 C774 1.387 . S
C775 C777 1.387 . S
H776 C783 0.950 . S
C777 C775 1.387 . S
C777 C779 1.390 . S
C777 H781 0.950 . S
H778 C774 0.950 . S
C779 C777 1.390 . S
C779 C780 1.387 . S
C779 H782 0.950 . S
C780 C779 1.387 . S
C780 C783 1.387 . S
H781 C777 0.950 . S
H782 C779 0.950 . S
C783 C774 1.390 . S
C783 H776 0.950 . S
C783 C780 1.387 . S
C784 C785 1.387 . S
C784 H788 0.950 . S
C784 C793 1.390 . S
C785 C784 1.387 . S
C785 C787 1.387 . S
H786 C793 0.950 . S
C787 C785 1.387 . S
C787 C789 1.390 . S
C787 H791 0.950 . S
H788 C784 0.950 . S
C789 C787 1.390 . S
C789 C790 1.387 . S
C789 H792 0.950 . S
C790 C789 1.387 . S
C790 C793 1.387 . S
H791 C787 0.950 . S
H792 C789 0.950 . S
C793 C784 1.390 . S
C793 H786 0.950 . S
C793 C790 1.387 . S
C794 C795 1.387 . S
C794 H798 0.950 . S
C794 C803 1.390 . S
C795 C794 1.387 . S
C795 C797 1.387 . S
H796 C803 0.950 . S
C797 C795 1.387 . S
C797 C799 1.390 . S
C797 H801 0.950 . S
H798 C794 0.950 . S
C799 C797 1.390 . S
C799 C800 1.387 . S
C799 H802 0.950 . S
C800 C799 1.387 . S
C800 C803 1.387 . S
H801 C797 0.950 . S
H802 C799 0.950 . S
C803 C794 1.390 . S
C803 H796 0.950 . S
C803 C800 1.387 . S
C804 C805 1.387 . S
C804 H808 0.950 . S
C804 C813 1.390 . S
C805 C804 1.387 . S
C805 C807 1.387 . S
H806 C813 0.950 . S
C807 C805 1.387 . S
C807 C809 1.390 . S
C807 H811 0.950 . S
H808 C804 0.950 . S
C809 C807 1.390 . S
C809 C810 1.387 . S
C809 H812 0.950 . S
C810 C809 1.387 . S
C810 C813 1.387 . S
H811 C807 0.950 . S
H812 C809 0.950 . S
C813 C804 1.390 . S
C813 H806 0.950 . S
C813 C810 1.387 . S
C814 C815 1.387 . S
C814 H818 0.950 . S
C814 C823 1.390 . S
C815 C814 1.387 . S
C815 C817 1.387 . S
H816 C823 0.950 . S
C817 C815 1.387 . S
C817 C819 1.390 . S
C817 H821 0.950 . S
H818 C814 0.950 . S
C819 C817 1.390 . S
C819 C820 1.387 . S
C819 H822 0.950 . S
C820 C819 1.387 . S
C820 C823 1.387 . S
H821 C817 0.950 . S
H822 C819 0.950 . S
C823 C814 1.390 . S
C823 H816 0.950 . S
C823 C820 1.387 . S
C824 C825 1.387 . S
C824 H828 0.950 . S
C824 C833 1.390 . S
C825 C824 1.387 . S
C825 C827 1.387 . S
H826 C833 0.950 . S
C827 C825 1.387 . S
C827 C829 1.390 . S
C827 H831 0.950 . S
H828 C824 0.950 . S
C829 C827 1.390 . S
C829 C830 1.387 . S
C829 H832 0.950 . S
C830 C829 1.387 . S
C830 C833 1.387 . S
H831 C827 0.950 . S
H832 C829 0.950 . S
C833 C824 1.390 . S
C833 H826 0.950 . S
C833 C830 1.387 . S
C595 C39 1.805 . S
C600 C340 1.774 . S
C605 C91 1.756 . S
C610 C379 1.738 . S
C620 C411 1.592 . S
C615 C128 1.639 . S
C630 C457 1.551 . S
C625 C188 1.585 . S
C640 C524 1.673 . S
C635 C250 1.687 . S
C650 C563 1.751 . S
C645 C304 1.787 . S
C655 C75 1.694 . S
C660 C425 1.661 . S
C665 C144 1.792 . S
C670 C471 1.762 . S
C680 C510 1.689 . S
C675 C198 1.729 . S
C690 C549 1.563 . S
C685 C234 1.611 . S
C695 C294 1.568 . S
C700 C326 1.534 . S
C710 C365 1.560 . S
C705 C29 1.589 . S
C720 C464 1.774 . S
C715 C38 1.805 . S
C725 C92 1.756 . S
C730 C517 1.721 . S
C740 C570 1.593 . S
C735 C135 1.639 . S
C745 C181 1.586 . S
C750 C333 1.552 . S
C755 C251 1.687 . S
C760 C386 1.654 . S
C765 C303 1.788 . S
C770 C418 1.752 . S
C775 C82 1.693 . S
C780 C556 1.658 . S
C790 C319 1.762 . S
C785 C145 1.793 . S
C795 C197 1.729 . S
C800 C372 1.707 . S
C805 C241 1.609 . S
C810 C432 1.561 . S
C815 C287 1.569 . S
C820 C478 1.534 . S
C825 C22 1.589 . S
C830 C503 1.576 . S
