# Generated by pormake.
# Topology pyr, (3,6)-cn, num edge types: 1
# Building blocks:
#     Node 0, Type 0, BuildingBlock: QEWDON_clean_linker_0, # of connection points: 3
#     Node 1, Type 0, BuildingBlock: QEWDON_clean_linker_0, # of connection points: 3
#     Node 2, Type 0, BuildingBlock: QEWDON_clean_linker_0, # of connection points: 3
#     Node 3, Type 0, BuildingBlock: QEWDON_clean_linker_0, # of connection points: 3
#     Node 4, Type 0, BuildingBlock: QEWDON_clean_linker_0, # of connection points: 3
#     Node 5, Type 0, BuildingBlock: QEWDON_clean_linker_0, # of connection points: 3
#     Node 6, Type 0, BuildingBlock: QEWDON_clean_linker_0, # of connection points: 3
#     Node 7, Type 0, BuildingBlock: QEWDON_clean_linker_0, # of connection points: 3
#     Node 8, Type 1, BuildingBlock: BETGAK_clean_sbu_0, # of connection points: 6
#     Node 9, Type 1, BuildingBlock: BETGAK_clean_sbu_0, # of connection points: 6
#     Node 10, Type 1, BuildingBlock: BETGAK_clean_sbu_0, # of connection points: 6
#     Node 11, Type 1, BuildingBlock: BETGAK_clean_sbu_0, # of connection points: 6
#     Edge 12, Type (0, 1), BuildingBlock: ZUJKAS_clean_linker_0, # of connection points: 2
#     Edge 13, Type (0, 1), BuildingBlock: ZUJKAS_clean_linker_0, # of connection points: 2
#     Edge 14, Type (0, 1), BuildingBlock: ZUJKAS_clean_linker_0, # of connection points: 2
#     Edge 15, Type (0, 1), BuildingBlock: ZUJKAS_clean_linker_0, # of connection points: 2
#     Edge 16, Type (0, 1), BuildingBlock: ZUJKAS_clean_linker_0, # of connection points: 2
#     Edge 17, Type (0, 1), BuildingBlock: ZUJKAS_clean_linker_0, # of connection points: 2
#     Edge 18, Type (0, 1), BuildingBlock: ZUJKAS_clean_linker_0, # of connection points: 2
#     Edge 19, Type (0, 1), BuildingBlock: ZUJKAS_clean_linker_0, # of connection points: 2
#     Edge 20, Type (0, 1), BuildingBlock: ZUJKAS_clean_linker_0, # of connection points: 2
#     Edge 21, Type (0, 1), BuildingBlock: ZUJKAS_clean_linker_0, # of connection points: 2
#     Edge 22, Type (0, 1), BuildingBlock: ZUJKAS_clean_linker_0, # of connection points: 2
#     Edge 23, Type (0, 1), BuildingBlock: ZUJKAS_clean_linker_0, # of connection points: 2
#     Edge 24, Type (0, 1), BuildingBlock: ZUJKAS_clean_linker_0, # of connection points: 2
#     Edge 25, Type (0, 1), BuildingBlock: ZUJKAS_clean_linker_0, # of connection points: 2
#     Edge 26, Type (0, 1), BuildingBlock: ZUJKAS_clean_linker_0, # of connection points: 2
#     Edge 27, Type (0, 1), BuildingBlock: ZUJKAS_clean_linker_0, # of connection points: 2
#     Edge 28, Type (0, 1), BuildingBlock: ZUJKAS_clean_linker_0, # of connection points: 2
#     Edge 29, Type (0, 1), BuildingBlock: ZUJKAS_clean_linker_0, # of connection points: 2
#     Edge 30, Type (0, 1), BuildingBlock: ZUJKAS_clean_linker_0, # of connection points: 2
#     Edge 31, Type (0, 1), BuildingBlock: ZUJKAS_clean_linker_0, # of connection points: 2
#     Edge 32, Type (0, 1), BuildingBlock: ZUJKAS_clean_linker_0, # of connection points: 2
#     Edge 33, Type (0, 1), BuildingBlock: ZUJKAS_clean_linker_0, # of connection points: 2
#     Edge 34, Type (0, 1), BuildingBlock: ZUJKAS_clean_linker_0, # of connection points: 2
#     Edge 35, Type (0, 1), BuildingBlock: ZUJKAS_clean_linker_0, # of connection points: 2
# Relax obj value: 0.145
# Max RMSD: 0.266
# Mean RMSD: 0.196
data_MOF--net-pyr--node1-BETGAK_clean_sbu_0--node2-QEWDON_clean_linker_0--edge1-ZUJKAS_clean_linker_0
_symmetry_space_group_name_H-M    P1
_symmetry_Int_Tables_number       1
_symmetry_cell_setting            triclinic
loop_
_symmetry_equiv_pos_as_xyz
'x, y, z'
_cell_length_a     49.123437
_cell_length_b     52.983012
_cell_length_c     50.845493
_cell_angle_alpha  91.849087
_cell_angle_beta   89.502885
_cell_angle_gamma 107.02893
loop_
_atom_site_label
_atom_site_type_symbol
_atom_site_fract_x
_atom_site_fract_y
_atom_site_fract_z
_atom_type_partial_charge
H0 H 0.37554 0.31076 0.19469 0.0
C1 C 0.3591 0.30376 0.20932 0.0
C2 C 0.35193 0.27736 0.21687 0.0
C3 C 0.34453 0.32096 0.21988 0.0
H4 H 0.32533 0.24823 0.24195 0.0
C5 C 0.33022 0.26834 0.23542 0.0
C6 C 0.31547 0.28524 0.24628 0.0
C7 C 0.3227 0.31152 0.2383 0.0
C8 C 0.35205 0.34879 0.21166 0.0
H9 H 0.31141 0.32471 0.24652 0.0
C10 C 0.33059 0.36031 0.20544 0.0
C11 C 0.33751 0.38672 0.19773 0.0
C12 C 0.3807 0.36397 0.21001 0.0
H13 H 0.39764 0.35567 0.2149 0.0
C14 C 0.38773 0.39019 0.20246 0.0
H15 H 0.3085 0.34844 0.20595 0.0
C16 C 0.36635 0.40155 0.19638 0.0
H17 H 0.37241 0.42203 0.1909 0.0
H18 H 0.40985 0.4018 0.20144 0.0
H19 H 0.27657 0.90601 0.71199 0.0
C20 C 0.28975 0.89694 0.70005 0.0
C21 C 0.31796 0.8999 0.70758 0.0
C22 C 0.2781 0.88154 0.67765 0.0
H23 H 0.35647 0.88999 0.69781 0.0
C24 C 0.33466 0.88777 0.69211 0.0
C25 C 0.3233 0.87245 0.66956 0.0
C26 C 0.2949 0.86925 0.66257 0.0
C27 C 0.2486 0.87889 0.6695 0.0
H28 H 0.28606 0.85775 0.64499 0.0
C29 C 0.23979 0.90156 0.66675 0.0
C30 C 0.21238 0.8996 0.65745 0.0
C31 C 0.22952 0.85395 0.66351 0.0
H32 H 0.23591 0.83619 0.66556 0.0
C33 C 0.202 0.85178 0.65492 0.0
H34 H 0.25458 0.9208 0.67136 0.0
C35 C 0.19345 0.87443 0.65177 0.0
H36 H 0.17229 0.87224 0.64427 0.0
H37 H 0.18737 0.8325 0.65032 0.0
H38 H 0.7023 0.44252 0.89328 0.0
C39 C 0.69385 0.42237 0.89956 0.0
C40 C 0.70924 0.4125 0.91802 0.0
C41 C 0.66633 0.40729 0.89129 0.0
H42 H 0.70934 0.37927 0.94115 0.0
C43 C 0.69717 0.38683 0.92739 0.0
C44 C 0.66979 0.37106 0.91953 0.0
C45 C 0.65472 0.38166 0.90133 0.0
C46 C 0.64674 0.42039 0.87845 0.0
H47 H 0.63305 0.37068 0.89616 0.0
C48 C 0.64863 0.42827 0.85167 0.0
C49 C 0.62799 0.4395 0.84119 0.0
C50 C 0.62488 0.42474 0.89428 0.0
H51 H 0.62301 0.4192 0.9147 0.0
C52 C 0.60528 0.43627 0.88427 0.0
H53 H 0.66522 0.42496 0.83907 0.0
C54 C 0.60671 0.44345 0.85811 0.0
H55 H 0.59094 0.45224 0.851 0.0
H56 H 0.58867 0.43951 0.89688 0.0
H57 H 0.89591 0.77603 0.3711 0.0
C58 C 0.87967 0.76385 0.38361 0.0
C59 C 0.8754 0.77312 0.40935 0.0
C60 C 0.86192 0.73948 0.37344 0.0
H61 H 0.84835 0.76493 0.44374 0.0
C62 C 0.85278 0.75765 0.42449 0.0
C63 C 0.83486 0.7334 0.41477 0.0
C64 C 0.84 0.72425 0.38949 0.0
C65 C 0.86072 0.73297 0.34453 0.0
H66 H 0.82544 0.70616 0.38143 0.0
C67 C 0.8817 0.72433 0.33037 0.0
C68 C 0.87795 0.71745 0.30298 0.0
C69 C 0.83654 0.73474 0.33109 0.0
H70 H 0.82029 0.74131 0.34137 0.0
C71 C 0.8327 0.72783 0.30452 0.0
H72 H 0.90046 0.72291 0.34051 0.0
C73 C 0.85293 0.71911 0.29069 0.0
H74 H 0.84863 0.71327 0.27018 0.0
H75 H 0.81372 0.729 0.2946 0.0
H76 H 0.73897 0.80471 0.93571 0.0
C77 C 0.74875 0.81707 0.91958 0.0
C78 C 0.77643 0.81805 0.91156 0.0
C79 C 0.73391 0.83252 0.90742 0.0
H80 H 0.81038 0.83508 0.88461 0.0
C81 C 0.78904 0.83438 0.89089 0.0
C82 C 0.77432 0.84955 0.87811 0.0
C83 C 0.74683 0.84877 0.88676 0.0
C84 C 0.7047 0.8313 0.91606 0.0
H85 H 0.73506 0.86009 0.87686 0.0
C86 C 0.69725 0.85461 0.92166 0.0
C87 C 0.66958 0.85342 0.93021 0.0
C88 C 0.68419 0.80674 0.91894 0.0
H89 H 0.6894 0.78853 0.9146 0.0
C90 C 0.65667 0.80545 0.92714 0.0
H91 H 0.71304 0.87361 0.91954 0.0
C92 C 0.64936 0.82858 0.93278 0.0
H93 H 0.62801 0.827 0.93965 0.0
H94 H 0.64098 0.78644 0.9293 0.0
H95 H 0.75297 0.19197 0.52245 0.0
C96 C 0.74356 0.19091 0.50309 0.0
C97 C 0.75728 0.18348 0.48115 0.0
C98 C 0.7177 0.19681 0.50027 0.0
H99 H 0.75561 0.1765 0.43915 0.0
C100 C 0.7449 0.18192 0.45621 0.0
C101 C 0.7191 0.1878 0.45299 0.0
C102 C 0.70569 0.19545 0.47506 0.0
C103 C 0.70335 0.20437 0.52372 0.0
H104 H 0.68549 0.19953 0.47271 0.0
C105 C 0.69204 0.22579 0.5229 0.0
C106 C 0.67933 0.23375 0.54529 0.0
C107 C 0.70151 0.19069 0.54723 0.0
H108 H 0.70976 0.1739 0.54835 0.0
C109 C 0.68879 0.19845 0.5695 0.0
H110 H 0.69398 0.23686 0.50506 0.0
C111 C 0.67785 0.21993 0.56863 0.0
H112 H 0.66802 0.2256 0.58611 0.0
H113 H 0.68744 0.18779 0.5875 0.0
H114 H 0.4288 0.79013 0.24169 0.0
C115 C 0.40715 0.77941 0.23618 0.0
C116 C 0.39229 0.79069 0.2184 0.0
C117 C 0.39533 0.75345 0.24531 0.0
H118 H 0.35284 0.78374 0.19706 0.0
C119 C 0.36489 0.77534 0.21016 0.0
C120 C 0.35277 0.74914 0.2182 0.0
C121 C 0.36806 0.7386 0.23622 0.0
C122 C 0.41458 0.73972 0.25769 0.0
H123 H 0.35975 0.71814 0.2416 0.0
C124 C 0.41354 0.73256 0.28467 0.0
C125 C 0.4336 0.72031 0.29457 0.0
C126 C 0.435 0.73378 0.24112 0.0
H127 H 0.43617 0.73879 0.22056 0.0
C128 C 0.45399 0.72126 0.25057 0.0
H129 H 0.39804 0.73711 0.2978 0.0
C130 C 0.45337 0.71467 0.27688 0.0
H131 H 0.46859 0.70498 0.28346 0.0
H132 H 0.46947 0.71673 0.23739 0.0
H133 H 0.23328 0.44458 0.7543 0.0
C134 C 0.21955 0.42784 0.74339 0.0
C135 C 0.22754 0.42123 0.71787 0.0
C136 C 0.1952 0.41159 0.75586 0.0
H137 H 0.21603 0.39307 0.68525 0.0
C138 C 0.21011 0.39838 0.70476 0.0
C139 C 0.18597 0.38154 0.71688 0.0
C140 C 0.17872 0.38848 0.74247 0.0
C141 C 0.19099 0.41476 0.78478 0.0
H142 H 0.16074 0.37541 0.75247 0.0
C143 C 0.17683 0.43235 0.79618 0.0
C144 C 0.17241 0.43302 0.82386 0.0
C145 C 0.20091 0.39862 0.80127 0.0
H146 H 0.21175 0.38506 0.79305 0.0
C147 C 0.19688 0.39956 0.82838 0.0
H148 H 0.16886 0.4448 0.78372 0.0
C149 C 0.18267 0.41646 0.83956 0.0
H150 H 0.17964 0.41663 0.8607 0.0
H151 H 0.20464 0.38694 0.8408 0.0
La152 La 0.04078 0.09134 0.53244 0.0
La153 La 0.01903 0.068 0.58474 0.0
C154 C 0.04741 0.10745 0.48609 0.0
C155 C 0.06889 0.12725 0.47146 0.0
C156 C 0.09779 0.13421 0.47844 0.0
C157 C 0.11823 0.15125 0.46287 0.0
C158 C 0.11005 0.16179 0.44024 0.0
C159 C 0.08097 0.15559 0.43396 0.0
C160 C 0.06057 0.13837 0.44942 0.0
C161 C 0.07754 0.0759 0.56021 0.0
C162 C 0.05833 0.12833 0.58195 0.0
C163 C 1.01105 0.05239 0.63121 0.0
C164 C 0.9883 0.03381 0.64587 0.0
C165 C 0.95949 0.03153 0.64134 0.0
C166 C 0.93831 1.01527 0.65686 0.0
C167 C 0.94557 1.00078 0.67693 0.0
C168 C 0.97435 1.00244 0.68081 0.0
C169 C 0.99554 0.01891 0.66545 0.0
C170 C 0.98201 0.08268 0.55667 0.0
C171 C 1.00243 0.03063 0.5353 0.0
O172 O 0.05529 0.08745 0.49418 0.0
O173 O 0.03305 0.11644 0.50402 0.0
O174 O 0.08484 0.09558 0.54452 0.0
O175 O 0.05132 0.06483 0.55815 0.0
O176 O 0.05425 0.12773 0.55621 0.0
O177 O 0.05002 0.10646 0.59569 0.0
O178 O 1.0053 0.07341 0.62297 0.0
O179 O 0.02446 0.04211 0.61346 0.0
O180 O 0.97519 0.06303 0.57236 0.0
O181 O 1.00812 0.09436 0.55889 0.0
O182 O 1.00637 0.03144 0.56109 0.0
O183 O 1.0106 0.05243 0.52143 0.0
H184 H 0.10461 0.126 0.49556 0.0
H185 H 0.14046 0.15596 0.46833 0.0
H186 H 0.07408 0.16324 0.41652 0.0
H187 H 0.03834 0.13321 0.44379 0.0
H188 H 0.95336 0.04267 0.62615 0.0
H189 H 0.91626 1.01411 0.65327 0.0
H190 H 0.98057 0.99167 0.69628 0.0
H191 H 0.01765 0.02041 0.66922 0.0
La192 La 0.55965 0.09448 0.08626 0.0
La193 La 0.5027 0.0682 0.05307 0.0
C194 C 0.60468 0.12567 0.10483 0.0
C195 C 0.61538 0.13246 0.13179 0.0
C196 C 0.60583 0.11449 0.15192 0.0
C197 C 0.61463 0.12154 0.17781 0.0
C198 C 0.63304 0.14676 0.1841 0.0
C199 C 0.64264 0.16473 0.16387 0.0
C200 C 0.63388 0.15759 0.13787 0.0
C201 C 0.52733 0.04918 0.10725 0.0
C202 C 0.50213 0.10615 0.10225 0.0
C203 C 0.45685 0.03726 0.03583 0.0
C204 C 0.44398 0.02978 1.00977 0.0
C205 C 0.45293 0.04631 0.9884 0.0
C206 C 0.4414 0.03839 0.96341 0.0
C207 C 0.42099 1.01371 0.9594 0.0
C208 C 0.41194 0.99733 0.98095 0.0
C209 C 0.42335 1.00535 1.00596 0.0
C210 C 0.53484 0.11353 0.03212 0.0
C211 C 0.56015 0.05621 0.03713 0.0
O212 O 0.60261 0.10154 0.09623 0.0
O213 O 0.5821 0.13286 0.09918 0.0
O214 O 0.55127 0.06397 0.11687 0.0
O215 O 0.52308 0.06103 0.08734 0.0
O216 O 0.53031 0.11449 0.10275 0.0
O217 O 0.48751 0.08571 0.08743 0.0
O218 O 0.45959 0.0616 0.04414 0.0
O219 O 0.47968 0.03 0.0402 0.0
O220 O 0.51085 0.09875 0.02254 0.0
O221 O 0.53921 0.10172 0.05202 0.0
O222 O 0.53195 0.04832 0.03635 0.0
O223 O 0.57505 0.07628 0.05232 0.0
H224 H 0.59123 0.09511 0.14772 0.0
H225 H 0.6065 0.10742 0.19302 0.0
H226 H 0.65698 0.18424 0.16812 0.0
H227 H 0.64126 0.17177 0.12258 0.0
H228 H 0.46906 0.06516 0.99096 0.0
H229 H 0.44902 0.05126 0.94711 0.0
H230 H 0.39605 0.97832 0.97845 0.0
H231 H 0.41631 0.99235 0.02227 0.0
La232 La 0.53563 0.5589 0.54809 0.0
La233 La 0.52974 0.60285 0.5873 0.0
C234 C 0.5594 0.53414 0.51721 0.0
C235 C 0.56603 0.50901 0.5181 0.0
C236 C 0.55312 0.4904 0.53685 0.0
C237 C 0.56127 0.46741 0.53897 0.0
C238 C 0.58265 0.4629 0.52255 0.0
C239 C 0.59524 0.48149 0.50358 0.0
C240 C 0.58695 0.50438 0.50137 0.0
C241 C 0.48791 0.54182 0.57633 0.0
C242 C 0.55232 0.55772 0.60927 0.0
C243 C 0.51239 0.63504 0.61524 0.0
C244 C 0.49968 0.65626 0.6105 0.0
C245 C 0.50567 0.67094 0.58753 0.0
C246 C 0.49303 0.69095 0.58345 0.0
C247 C 0.47401 0.69624 0.60212 0.0
C248 C 0.46796 0.68131 0.62494 0.0
C249 C 0.48074 0.66151 0.62909 0.0
C250 C 0.57945 0.61052 0.56333 0.0
C251 C 0.50855 0.60231 0.52692 0.0
O252 O 0.53228 0.53267 0.51572 0.0
O253 O 0.57327 0.55218 0.53446 0.0
O254 O 0.49575 0.52794 0.55786 0.0
O255 O 0.50679 0.56378 0.57732 0.0
O256 O 0.55606 0.55065 0.58439 0.0
O257 O 0.5392 0.57584 0.61511 0.0
O258 O 0.53895 0.63919 0.60804 0.0
O259 O 0.49658 0.61123 0.60869 0.0
O260 O 0.57651 0.61786 0.58753 0.0
O261 O 0.55509 0.60032 0.55356 0.0
O262 O 0.50991 0.61263 0.55134 0.0
O263 O 0.51855 0.58204 0.52103 0.0
H264 H 0.53719 0.49392 0.55018 0.0
H265 H 0.55147 0.45357 0.55395 0.0
H266 H 0.61158 0.47837 0.49053 0.0
H267 H 0.59723 0.5187 0.48694 0.0
H268 H 0.52005 0.66693 0.57281 0.0
H269 H 0.49788 0.70209 0.56564 0.0
H270 H 0.45367 0.68523 0.63981 0.0
H271 H 0.47585 0.65028 0.64686 0.0
La272 La 0.03186 0.55593 0.0769 0.0
La273 La 0.03532 0.6054 0.05201 0.0
C274 C 0.04058 0.5144 0.09307 0.0
C275 C 0.06463 0.50683 0.10384 0.0
C276 C 0.05926 0.48549 0.12063 0.0
C277 C 0.0817 0.47714 0.13009 0.0
C278 C 0.10997 0.48999 0.12286 0.0
C279 C 0.11529 0.51179 0.10644 0.0
C280 C 0.09282 0.52015 0.09702 0.0
C281 C 1.00515 0.58582 0.10318 0.0
C282 C 0.08689 0.60594 0.08736 0.0
C283 C 0.02718 0.64713 0.03581 0.0
C284 C 1.00399 0.65582 0.02479 0.0
C285 C 1.01058 0.67563 1.00621 0.0
C286 C 0.98941 0.68566 0.9967 0.0
C287 C 0.9612 0.67616 1.00573 0.0
C288 C 0.95447 0.65563 0.02377 0.0
C289 C 0.9757 0.6455 0.0332 0.0
C290 C 0.06249 0.57582 0.02575 0.0
C291 C 0.98031 0.55549 0.0417 0.0
O292 O 0.03053 0.53019 0.10789 0.0
O293 O 0.04282 0.52119 0.06847 0.0
O294 O 0.99564 0.56034 0.10035 0.0
O295 O 0.02899 0.5935 0.09185 0.0
O296 O 0.07606 0.57983 0.0868 0.0
O297 O 0.07281 0.62083 0.07678 0.0
O298 O 0.03686 0.6311 0.02097 0.0
O299 O 0.02457 0.64025 0.06039 0.0
O300 O 0.07151 0.60131 0.02852 0.0
O301 O 0.0386 0.56791 0.03703 0.0
O302 O 0.99089 0.58162 0.04265 0.0
O303 O 0.9946 0.54057 0.05186 0.0
H304 H 0.03763 0.47509 0.1262 0.0
H305 H 0.0769 0.46058 0.14305 0.0
H306 H 0.13675 0.52196 0.10026 0.0
H307 H 0.09743 0.53668 0.08403 0.0
H308 H 0.03226 0.68368 0.99936 0.0
H309 H 0.99521 0.70105 0.9824 0.0
H310 H 0.93302 0.64796 0.03125 0.0
H311 H 0.97012 0.63005 0.04746 0.0
H312 H 0.30555 0.31075 0.29152 0.0
H313 H 0.26975 0.29356 0.32532 0.0
H314 H 0.23954 0.22011 0.28071 0.0
H315 H 0.27438 0.23752 0.24631 0.0
H316 H 0.19598 0.23737 0.30079 0.0
H317 H 0.2757 0.23936 0.37825 0.0
H318 H 0.27956 0.27066 0.36371 0.0
H319 H 0.28507 0.24381 0.34397 0.0
C320 C 0.29102 0.29108 0.28872 0.0
C321 C 0.29297 0.27542 0.26631 0.0
C322 C 0.27082 0.28118 0.30821 0.0
C323 C 0.2524 0.25538 0.30576 0.0
C324 C 0.25373 0.24 0.28308 0.0
H325 H 0.15845 0.15167 0.42266 0.0
H326 H 0.19272 0.17628 0.39074 0.0
C327 C 0.2738 0.2499 0.26354 0.0
C328 C 0.23187 0.24414 0.32686 0.0
H329 H 0.22738 0.22677 0.39118 0.0
C330 C 0.20279 0.23512 0.3206 0.0
C331 C 0.24092 0.24095 0.35256 0.0
C332 C 0.27202 0.24896 0.36006 0.0
C333 C 0.18247 0.22279 0.33929 0.0
C334 C 0.19147 0.21999 0.36512 0.0
C335 C 0.22054 0.2292 0.37143 0.0
C336 C 0.17129 0.20611 0.38544 0.0
C337 C 0.15172 0.21202 0.33091 0.0
C338 C 0.1482 0.21504 0.39347 0.0
C339 C 0.12848 0.20091 0.41163 0.0
C340 C 0.13181 0.17787 0.42235 0.0
C341 C 0.15549 0.16951 0.41493 0.0
C342 C 0.17502 0.18349 0.39663 0.0
H343 H 0.14952 0.20989 0.30916 0.0
H344 H 0.14165 0.19248 0.3395 0.0
H345 H 0.13985 0.22581 0.33795 0.0
H346 H 0.14531 0.23282 0.38557 0.0
H347 H 0.11062 0.20798 0.41727 0.0
H348 H 0.31328 0.94788 0.72509 0.0
H349 H 0.33217 0.972 0.76614 0.0
H350 H 0.36727 0.90947 0.78646 0.0
H351 H 0.34864 0.88543 0.74559 0.0
H352 H 0.32027 0.95633 0.81699 0.0
H353 H 0.43518 0.9745 0.79668 0.0
H354 H 0.40842 0.96403 0.77128 0.0
H355 H 0.41557 0.94026 0.79263 0.0
C356 C 0.32509 0.93935 0.73833 0.0
C357 C 0.32972 0.91489 0.73207 0.0
C358 C 0.33593 0.95317 0.76167 0.0
C359 C 0.3516 0.94276 0.77904 0.0
C360 C 0.35596 0.91822 0.77295 0.0
H361 H 0.41439 0.96536 0.93589 0.0
H362 H 0.39701 0.95053 0.89141 0.0
C363 C 0.34526 0.90448 0.74962 0.0
C364 C 0.36233 0.9568 0.80419 0.0
H365 H 0.42226 0.97917 0.84187 0.0
C366 C 0.34262 0.96173 0.8223 0.0
C367 C 0.39153 0.96393 0.81097 0.0
C368 C 0.41393 0.96066 0.79175 0.0
C369 C 0.35119 0.97245 0.84754 0.0
C370 C 0.38015 0.97841 0.85464 0.0
C371 C 0.40001 0.97434 0.83629 0.0
C372 C 0.39005 0.98756 0.88154 0.0
C373 C 0.32919 0.9764 0.86684 0.0
C374 C 0.39189 1.0133 0.89051 0.0
C375 C 0.40182 0.02184 0.9159 0.0
C376 C 0.40991 1.00467 0.93266 0.0
C377 C 0.40792 0.97887 0.92355 0.0
C378 C 0.39819 0.97044 0.89814 0.0
H379 H 0.30715 0.96812 0.85917 0.0
H380 H 0.33098 0.96695 0.88567 0.0
H381 H 0.33308 0.99783 0.87114 0.0
H382 H 0.38584 0.02679 0.87781 0.0
H383 H 0.403 0.04178 0.92249 0.0
H384 H 0.58342 0.42186 0.80731 0.0
H385 H 0.57534 0.44081 0.76611 0.0
H386 H 0.66039 0.49437 0.76976 0.0
H387 H 0.6682 0.47571 0.8119 0.0
H388 H 0.62471 0.52105 0.75817 0.0
H389 H 0.59678 0.43311 0.69176 0.0
H390 H 0.57438 0.42745 0.72025 0.0
H391 H 0.61219 0.43288 0.72378 0.0
C392 C 0.60078 0.43716 0.799 0.0
C393 C 0.62666 0.4469 0.81292 0.0
C394 C 0.59612 0.44804 0.77521 0.0
C395 C 0.61727 0.46895 0.76413 0.0
C396 C 0.64361 0.47819 0.77753 0.0
H397 H 0.58659 0.52442 0.60697 0.0
H398 H 0.60419 0.50424 0.6434 0.0
C399 C 0.64828 0.46725 0.80154 0.0
C400 C 0.61088 0.48221 0.73988 0.0
H401 H 0.5809 0.46964 0.67824 0.0
C402 C 0.61542 0.50974 0.74063 0.0
C403 C 0.59912 0.46791 0.71646 0.0
C404 C 0.59564 0.43876 0.71288 0.0
C405 C 0.60774 0.52299 0.71944 0.0
C406 C 0.59422 0.50843 0.69673 0.0
C407 C 0.59068 0.48105 0.69557 0.0
C408 C 0.58353 0.52109 0.67419 0.0
C409 C 0.61475 0.55267 0.72157 0.0
C410 C 0.56547 0.53714 0.67873 0.0
C411 C 0.55561 0.54897 0.65783 0.0
C412 C 0.56296 0.54485 0.63149 0.0
C413 C 0.58047 0.52827 0.62684 0.0
C414 C 0.59057 0.51662 0.64783 0.0
H415 H 0.63311 0.5613 0.73496 0.0
H416 H 0.61988 0.56172 0.70207 0.0
H417 H 0.59619 0.55807 0.7299 0.0
H418 H 0.55866 0.54037 0.69851 0.0
H419 H 0.54189 0.56123 0.66242 0.0
H420 H 0.89455 0.73043 0.25246 0.0
H421 H 0.91907 0.70865 0.22185 0.0
H422 H 0.936 0.66252 0.28466 0.0
H423 H 0.90883 0.68284 0.31519 0.0
H424 H 0.96702 0.70484 0.21315 0.0
H425 H 0.90309 0.60308 0.23573 0.0
H426 H 0.89495 0.63164 0.24977 0.0
H427 H 0.92288 0.6204 0.26358 0.0
C428 C 0.90321 0.71547 0.2599 0.0
C429 C 0.89876 0.70792 0.28633 0.0
C430 C 0.9176 0.70307 0.24224 0.0
C431 C 0.9288 0.68302 0.25034 0.0
C432 C 0.9266 0.67699 0.27732 0.0
H433 H 0.03624 0.62873 0.13264 0.0
H434 H 0.01982 0.65174 0.16916 0.0
C435 C 0.91152 0.68908 0.29503 0.0
C436 C 0.94211 0.66863 0.23016 0.0
H437 H 0.94055 0.60726 0.20535 0.0
C438 C 0.96107 0.68346 0.21152 0.0
C439 C 0.93435 0.64065 0.22738 0.0
C440 C 0.9125 0.623 0.24499 0.0
C441 C 0.97174 0.67145 0.19019 0.0
C442 C 0.96472 0.64348 0.1879 0.0
C443 C 0.94625 0.62863 0.20686 0.0
C444 C 0.97531 0.62916 0.16567 0.0
C445 C 0.98924 0.68914 0.16969 0.0
C446 C 0.95636 0.60774 0.15183 0.0
C447 C 0.96602 0.59388 0.13151 0.0
C448 C 0.99482 0.60132 0.12401 0.0
C449 C 0.01381 0.62279 0.13758 0.0
C450 C 1.0043 0.63616 0.15844 0.0
H451 H 0.9844 0.70835 0.16936 0.0
H452 H 1.01216 0.69344 0.1745 0.0
H453 H 0.98536 0.67977 0.1497 0.0
H454 H 0.93392 0.60166 0.15673 0.0
H455 H 0.95087 0.57736 0.12154 0.0
H456 H 0.40926 0.28683 0.20951 0.0
H457 H 0.43406 0.25618 0.19135 0.0
H458 H 0.35369 0.19597 0.18104 0.0
H459 H 0.32872 0.22655 0.19876 0.0
H460 H 0.43074 0.20389 0.21111 0.0
H461 H 0.39357 0.20098 0.10771 0.0
H462 H 0.39247 0.22707 0.13109 0.0
H463 H 0.36636 0.19533 0.13256 0.0
C464 C 0.39688 0.26715 0.2031 0.0
C465 C 0.36705 0.25909 0.20549 0.0
C466 C 0.41106 0.24965 0.19292 0.0
C467 C 0.39564 0.22394 0.18471 0.0
C468 C 0.3659 0.21583 0.18704 0.0
H469 H 0.44437 0.09458 0.10864 0.0
H470 H 0.41823 0.12178 0.13099 0.0
C471 C 0.35172 0.23325 0.19733 0.0
C472 C 0.41068 0.20546 0.17398 0.0
H473 H 0.41985 0.17174 0.11794 0.0
C474 C 0.42846 0.19685 0.19074 0.0
C475 C 0.40742 0.19627 0.14747 0.0
C476 C 0.38911 0.20547 0.12852 0.0
C477 C 0.44293 0.179 0.1817 0.0
C478 C 0.43997 0.17005 0.15506 0.0
C479 C 0.42202 0.17857 0.13838 0.0
C480 C 0.45591 0.15248 0.14375 0.0
C481 C 0.46082 0.16955 0.20086 0.0
C482 C 0.48578 0.16061 0.14369 0.0
C483 C 0.50081 0.14506 0.13107 0.0
C484 C 0.48624 0.12119 0.11795 0.0
C485 C 0.4563 0.11283 0.11852 0.0
C486 C 0.44129 0.12837 0.13126 0.0
H487 H 0.45413 0.17177 0.22153 0.0
H488 H 0.45953 0.14852 0.19677 0.0
H489 H 0.48339 0.18155 0.199 0.0
H490 H 0.4975 0.17942 0.15269 0.0
H491 H 0.52385 0.15222 0.13091 0.0
H492 H 0.24507 0.94535 0.63617 0.0
H493 H 0.23091 0.98442 0.62602 0.0
H494 H 0.14656 0.94716 0.65554 0.0
H495 H 0.16095 0.90854 0.66701 0.0
H496 H 0.1911 0.98546 0.59137 0.0
H497 H 0.16191 0.02025 0.68811 0.0
H498 H 0.1823 0.99696 0.68486 0.0
H499 H 0.14403 0.98584 0.68237 0.0
C500 C 0.22373 0.94574 0.64121 0.0
C501 C 0.20414 0.92383 0.65251 0.0
C502 C 0.21565 0.96805 0.63525 0.0
C503 C 0.18786 0.96891 0.64045 0.0
C504 C 0.16835 0.94723 0.652 0.0
H505 H 0.06378 0.02991 0.5857 0.0
H506 H 0.0957 1.00972 0.60757 0.0
C507 C 0.17646 0.92497 0.65814 0.0
C508 C 0.17828 0.99111 0.63124 0.0
H509 H 0.14001 0.03297 0.64998 0.0
C510 C 0.1806 0.99638 0.60429 0.0
C511 C 0.16476 1.00543 0.64816 0.0
C512 C 0.16339 1.00202 0.67753 0.0
C513 C 0.16787 1.01415 0.5935 0.0
C514 C 0.15262 0.02699 0.61016 0.0
C515 C 0.15175 0.02299 0.63732 0.0
C516 C 0.13385 0.04119 0.59918 0.0
C517 C 0.16909 0.01773 0.56415 0.0
C518 C 0.14485 0.06577 0.58753 0.0
C519 C 0.1265 0.07755 0.57518 0.0
C520 C 0.0971 0.06477 0.57435 0.0
C521 C 0.08627 0.04043 0.58646 0.0
C522 C 0.10447 0.02883 0.59889 0.0
H523 H 0.18045 1.00504 0.55377 0.0
H524 H 0.1472 1.01303 0.55602 0.0
H525 H 0.18021 0.03866 0.55995 0.0
H526 H 0.16755 0.07552 0.58762 0.0
H527 H 0.1353 0.09635 0.56595 0.0
H528 H 0.75854 0.43982 0.89259 0.0
H529 H 0.80442 0.46476 0.91253 0.0
H530 H 0.7673 0.44991 0.98976 0.0
H531 H 0.72225 0.42395 0.96995 0.0
H532 H 0.82442 0.50709 0.94128 0.0
H533 H 0.83428 0.42575 1.00191 0.0
H534 H 0.80678 0.42095 0.97747 0.0
H535 H 0.80229 0.43397 1.00992 0.0
C536 C 0.76028 0.44186 0.91382 0.0
C537 C 0.73681 0.42949 0.92965 0.0
C538 C 0.78656 0.45616 0.92528 0.0
C539 C 0.78998 0.45874 0.95288 0.0
C540 C 0.76599 0.44747 0.96855 0.0
H541 H 0.93618 0.57623 0.03106 0.0
H542 H 0.89045 0.55386 1.00982 0.0
C543 C 0.74001 0.43276 0.95716 0.0
C544 C 0.81837 0.47315 0.96529 0.0
H545 H 0.86545 0.46844 1.01292 0.0
C546 C 0.83343 0.49849 0.95682 0.0
C547 C 0.83086 0.46205 0.98531 0.0
C548 C 0.81786 0.43409 0.99396 0.0
C549 C 0.85998 0.51298 0.96791 0.0
C550 C 0.87166 0.50244 0.98894 0.0
C551 C 0.85671 0.47698 0.99714 0.0
C552 C 0.89971 0.51672 1.00211 0.0
C553 C 0.87553 0.53907 0.9562 0.0
C554 C 0.92022 0.50339 1.00614 0.0
C555 C 0.94601 0.51594 0.01908 0.0
C556 C 0.95248 0.54242 0.02818 0.0
C557 C 0.93213 0.55592 0.02412 0.0
C558 C 0.90595 0.54313 1.01164 0.0
H559 H 0.86888 0.54007 0.93552 0.0
H560 H 0.87039 0.55525 0.96768 0.0
H561 H 0.89894 0.54255 0.95655 0.0
H562 H 0.91635 0.48312 0.99915 0.0
H563 H 0.96112 0.50487 0.02165 0.0
H564 H 0.79334 0.753 0.43503 0.0
H565 H 0.75093 0.73001 0.45975 0.0
H566 H 0.776 0.65847 0.45453 0.0
H567 H 0.81781 0.68128 0.42843 0.0
H568 H 0.72193 0.64574 0.44833 0.0
H569 H 0.74498 0.71406 0.53487 0.0
H570 H 0.74236 0.73156 0.50593 0.0
H571 H 0.77036 0.71606 0.50866 0.0
C572 C 0.78989 0.7324 0.4393 0.0
C573 C 0.80915 0.71906 0.43007 0.0
C574 C 0.76567 0.71926 0.45366 0.0
C575 C 0.76044 0.69258 0.45993 0.0
C576 C 0.77948 0.67908 0.45029 0.0
H577 H 0.63402 0.62674 0.5819 0.0
H578 H 0.67807 0.64388 0.55686 0.0
C579 C 0.80345 0.69212 0.43539 0.0
C580 C 0.73486 0.67873 0.47596 0.0
H581 H 0.69735 0.68528 0.53152 0.0
C582 C 0.71676 0.65432 0.46666 0.0
C583 C 0.72811 0.68937 0.50029 0.0
C584 C 0.74767 0.71403 0.51315 0.0
C585 C 0.69204 0.64074 0.48048 0.0
C586 C 0.68429 0.65229 0.50388 0.0
C587 C 0.70276 0.67639 0.51347 0.0
C588 C 0.65736 0.63991 0.51884 0.0
C589 C 0.67501 0.6138 0.47006 0.0
C590 C 0.63071 0.63165 0.50611 0.0
C591 C 0.60555 0.62116 0.52041 0.0
C592 C 0.60627 0.61945 0.54792 0.0
C593 C 0.63278 0.62777 0.56072 0.0
C594 C 0.658 0.63769 0.54636 0.0
H595 H 0.68861 0.60407 0.45847 0.0
H596 H 0.66487 0.60069 0.48621 0.0
H597 H 0.65812 0.61595 0.45672 0.0
H598 H 0.62917 0.63389 0.48515 0.0
H599 H 0.58541 0.61523 0.51 0.0
H600 H 0.33711 0.41976 0.15749 0.0
H601 H 0.29953 0.43921 0.14614 0.0
H602 H 0.24818 0.39916 0.21007 0.0
H603 H 0.28612 0.3805 0.22226 0.0
H604 H 0.24491 0.41392 0.13105 0.0
H605 H 0.24541 0.47459 0.2221 0.0
H606 H 0.27367 0.46026 0.21408 0.0
H607 H 0.24094 0.44041 0.22806 0.0
C608 C 0.31804 0.41545 0.16944 0.0
C609 C 0.31471 0.39867 0.19088 0.0
C610 C 0.2965 0.42643 0.1628 0.0
C611 C 0.27124 0.42095 0.17749 0.0
C612 C 0.26773 0.40409 0.19879 0.0
H613 H 0.11031 0.43865 0.12634 0.0
H614 H 0.14951 0.42241 0.13999 0.0
C615 C 0.2893 0.39316 0.20551 0.0
C616 C 0.24817 0.43208 0.16986 0.0
H617 H 0.20668 0.46976 0.19257 0.0
C618 C 0.23664 0.42623 0.14446 0.0
C619 C 0.23766 0.44841 0.18727 0.0
C620 C 0.25022 0.45653 0.21431 0.0
C621 C 0.21451 0.43587 0.13613 0.0
C622 C 0.20327 0.45135 0.15388 0.0
C623 C 0.21516 0.45764 0.17911 0.0
C624 C 0.1792 0.46125 0.14656 0.0
C625 C 0.20367 0.42969 0.10827 0.0
C626 C 0.18261 0.48849 0.14659 0.0
C627 C 0.16009 0.49787 0.13915 0.0
C628 C 0.13369 0.48015 0.13169 0.0
C629 C 0.13025 0.45285 0.13219 0.0
C630 C 0.15274 0.44351 0.13967 0.0
H631 H 0.21939 0.42403 0.09532 0.0
H632 H 0.1839 0.41285 0.10824 0.0
H633 H 0.19862 0.44686 0.09981 0.0
H634 H 0.20282 0.5025 0.15206 0.0
H635 H 0.16332 0.51899 0.13936 0.0
H636 H 0.6325 0.32561 0.89706 0.0
H637 H 0.61097 0.28293 0.91711 0.0
H638 H 0.65636 0.31235 0.98915 0.0
H639 H 0.67649 0.35531 0.96999 0.0
H640 H 0.63197 0.24636 0.93536 0.0
H641 H 0.57958 0.28182 0.01947 0.0
H642 H 0.59512 0.30277 0.99271 0.0
H643 H 0.61717 0.29775 0.019 0.0
C644 C 0.63761 0.32327 0.91733 0.0
C645 C 0.65648 0.34441 0.93165 0.0
C646 C 0.62538 0.29859 0.92879 0.0
C647 C 0.63143 0.29415 0.95501 0.0
C648 C 0.65051 0.31508 0.9692 0.0
H649 H 0.58191 0.15191 0.05325 0.0
H650 H 0.60654 0.19535 0.0352 0.0
C651 C 0.66256 0.33976 0.95788 0.0
C652 C 0.61842 0.2676 0.96721 0.0
H653 H 0.5813 0.23744 0.02091 0.0
C654 C 0.62081 0.24455 0.95401 0.0
C655 C 0.60372 0.26474 0.99168 0.0
C656 C 0.59846 0.28805 1.00641 0.0
C657 C 0.60939 0.21921 0.96453 0.0
C658 C 0.59488 0.21642 0.98899 0.0
C659 C 0.59263 0.23939 1.00233 0.0
C660 C 0.58047 0.18978 1.00016 0.0
C661 C 0.61324 0.19552 0.94944 0.0
C662 C 0.55744 0.17203 0.98681 0.0
C663 C 0.54326 0.14741 0.99724 0.0
C664 C 0.55164 0.13956 0.02135 0.0
C665 C 0.57486 0.15718 0.0347 0.0
C666 C 0.58894 0.1821 0.02435 0.0
H667 H 0.63065 0.20125 0.93473 0.0
H668 H 0.61796 0.1813 0.96297 0.0
H669 H 0.59323 0.1853 0.93878 0.0
H670 H 0.55007 0.17738 0.96838 0.0
H671 H 0.52542 0.13451 0.98638 0.0
H672 H 0.89371 0.82059 0.38408 0.0
H673 H 0.91759 0.86446 0.40349 0.0
H674 H 0.91837 0.83003 0.47902 0.0
H675 H 0.89563 0.78626 0.45966 0.0
H676 H 0.89871 0.89189 0.44206 0.0
H677 H 0.99916 0.8763 0.47569 0.0
H678 H 0.9752 0.85345 0.45322 0.0
H679 H 0.96842 0.85221 0.4881 0.0
C680 C 0.89961 0.82225 0.40468 0.0
C681 C 0.89269 0.79968 0.42021 0.0
C682 C 0.91305 0.84745 0.41585 0.0
C683 C 0.92021 0.85076 0.44276 0.0
C684 C 0.91374 0.82819 0.45815 0.0
H685 H 0.98464 0.98124 0.55632 0.0
H686 H 0.96455 0.93859 0.53328 0.0
C687 C 0.90038 0.80307 0.44703 0.0
C688 C 0.93301 0.87775 0.45513 0.0
H689 H 0.98827 0.91445 0.49369 0.0
C690 C 0.91846 0.89688 0.4531 0.0
C691 C 0.95877 0.88447 0.46971 0.0
C692 C 0.97645 0.86562 0.47161 0.0
C693 C 0.9284 0.92199 0.46577 0.0
C694 C 0.95393 0.92854 0.48067 0.0
C695 C 0.96864 0.90954 0.48245 0.0
C696 C 0.96565 0.95485 0.49467 0.0
C697 C 0.91094 0.94101 0.46377 0.0
C698 C 0.97324 0.97844 0.48079 0.0
C699 C 0.98475 1.00296 0.49395 0.0
C700 C 0.98913 1.00459 0.5214 0.0
C701 C 0.98152 0.98092 0.53525 0.0
C702 C 0.97006 0.95641 0.52205 0.0
H703 H 0.88866 0.93077 0.45772 0.0
H704 H 0.9106 0.95177 0.48282 0.0
H705 H 0.92054 0.95574 0.44875 0.0
H706 H 0.97068 0.97789 0.45963 0.0
H707 H 0.99049 0.02063 0.48251 0.0
H708 H 0.37838 0.89325 0.65342 0.0
H709 H 0.4084 0.87002 0.63034 0.0
H710 H 0.33801 0.79856 0.62771 0.0
H711 H 0.30798 0.82161 0.65053 0.0
H712 H 0.42243 0.82902 0.64949 0.0
H713 H 0.36863 0.79808 0.55393 0.0
H714 H 0.36123 0.82335 0.57506 0.0
H715 H 0.34394 0.78892 0.58058 0.0
C716 C 0.36929 0.87264 0.64764 0.0
C717 C 0.34088 0.85919 0.65377 0.0
C718 C 0.38636 0.85949 0.63432 0.0
C719 C 0.37528 0.83272 0.62686 0.0
C720 C 0.34676 0.81943 0.63251 0.0
H721 H 0.41831 0.69387 0.60848 0.0
H722 H 0.39773 0.73066 0.60874 0.0
C723 C 0.32966 0.83258 0.6457 0.0
C724 C 0.39418 0.81768 0.61619 0.0
H725 H 0.3973 0.77097 0.56941 0.0
C726 C 0.41746 0.81687 0.63158 0.0
C727 C 0.38768 0.80195 0.59278 0.0
C728 C 0.36417 0.80334 0.57452 0.0
C729 C 0.43303 0.79918 0.62532 0.0
C730 C 0.42521 0.78211 0.60294 0.0
C731 C 0.40311 0.78408 0.58661 0.0
C732 C 0.43709 0.75981 0.59849 0.0
C733 C 0.45641 0.79753 0.64366 0.0
C734 C 0.46581 0.76402 0.59184 0.0
C735 C 0.47764 0.74302 0.59175 0.0
C736 C 0.46087 0.71765 0.59844 0.0
C737 C 0.43176 0.71331 0.60363 0.0
C738 C 0.41996 0.73423 0.60359 0.0
H739 H 0.45772 0.81025 0.66169 0.0
H740 H 0.45295 0.77684 0.64959 0.0
H741 H 0.47719 0.8039 0.63334 0.0
H742 H 0.47925 0.78368 0.58772 0.0
H743 H 0.50016 0.74687 0.58773 0.0
H744 H 0.80539 0.83601 0.83814 0.0
H745 H 0.82987 0.86335 0.80248 0.0
H746 H 0.7965 0.92629 0.82983 0.0
H747 H 0.77301 0.89948 0.86649 0.0
H748 H 0.81014 0.88574 0.76217 0.0
H749 H 0.88124 0.96327 0.82718 0.0
H750 H 0.85999 0.93203 0.83932 0.0
H751 H 0.8439 0.95768 0.83312 0.0
C752 C 0.80352 0.8558 0.83682 0.0
C753 C 0.78763 0.86572 0.85546 0.0
C754 C 0.8173 0.8713 0.81625 0.0
C755 C 0.81543 0.89701 0.81377 0.0
C756 C 0.79873 0.90669 0.83172 0.0
H757 H 0.90255 1.01539 0.70124 0.0
H758 H 0.86791 0.99028 0.73284 0.0
C759 C 0.78506 0.89123 0.85248 0.0
C760 C 0.83145 0.91362 0.79257 0.0
H761 H 0.8853 0.96988 0.7815 0.0
C762 C 0.82648 0.9042 0.76638 0.0
C763 C 0.8528 0.93769 0.79814 0.0
C764 C 0.86006 0.94822 0.82595 0.0
C765 C 0.84253 0.91805 0.74564 0.0
C766 C 0.86412 0.94181 0.7513 0.0
C767 C 0.86861 0.95164 0.77734 0.0
C768 C 0.88344 0.95606 0.73071 0.0
C769 C 0.83649 0.90714 0.71784 0.0
C770 C 0.90353 0.94503 0.71913 0.0
C771 C 0.92339 0.95934 0.70123 0.0
C772 C 0.92338 0.98487 0.69455 0.0
C773 C 0.90282 0.99563 0.70579 0.0
C774 C 0.88313 0.9814 0.72389 0.0
H775 H 0.81543 0.89196 0.71613 0.0
H776 H 0.83712 0.9232 0.70413 0.0
H777 H 0.85312 0.89785 0.71157 0.0
H778 H 0.90427 0.92561 0.72444 0.0
H779 H 0.9389 0.95053 0.69276 0.0
H780 H 0.69765 0.22333 0.42884 0.0
H781 H 0.67874 0.21996 0.38382 0.0
H782 H 0.69303 0.14381 0.37264 0.0
H783 H 0.71166 0.14694 0.41742 0.0
H784 H 0.71017 0.21223 0.33636 0.0
H785 H 0.60908 0.13243 0.34903 0.0
H786 H 0.62817 0.15238 0.3763 0.0
H787 H 0.63977 0.12559 0.36254 0.0
C788 C 0.69635 0.20575 0.41684 0.0
C789 C 0.70614 0.1854 0.42652 0.0
C790 C 0.6857 0.20391 0.39119 0.0
C791 C 0.68428 0.18154 0.37512 0.0
C792 C 0.69363 0.16107 0.38491 0.0
H793 H 0.64968 0.11716 0.22008 0.0
H794 H 0.66129 0.12836 0.26644 0.0
C795 C 0.70446 0.16298 0.41037 0.0
C796 C 0.67446 0.17983 0.34759 0.0
H797 H 0.62553 0.14101 0.30491 0.0
C798 C 0.69141 0.19699 0.32945 0.0
C799 C 0.65001 0.15989 0.3388 0.0
C800 C 0.63052 0.14164 0.3577 0.0
C801 C 0.68537 0.19377 0.3024 0.0
C802 C 0.6615 0.17315 0.2935 0.0
C803 C 0.64392 0.15671 0.31182 0.0
C804 C 0.65528 0.16717 0.2652 0.0
C805 C 0.70531 0.21158 0.28347 0.0
C806 C 0.64814 0.18534 0.24917 0.0
C807 C 0.64149 0.17898 0.22263 0.0
C808 C 0.64166 0.15426 0.21181 0.0
C809 C 0.64906 0.13623 0.22792 0.0
C810 C 0.65576 0.14262 0.25437 0.0
H811 H 0.72567 0.22289 0.29303 0.0
H812 H 0.71011 0.19994 0.26643 0.0
H813 H 0.695 0.22592 0.27585 0.0
H814 H 0.64717 0.20421 0.2573 0.0
H815 H 0.63546 0.19311 0.21077 0.0
H816 H 0.39219 0.68903 0.32699 0.0
H817 H 0.39976 0.67089 0.36951 0.0
H818 H 0.48847 0.71559 0.36722 0.0
H819 H 0.48074 0.73422 0.32578 0.0
H820 H 0.43029 0.63963 0.38118 0.0
H821 H 0.4744 0.73011 0.44185 0.0
H822 H 0.45774 0.73064 0.4105 0.0
H823 H 0.49471 0.7316 0.41223 0.0
C824 C 0.41303 0.6957 0.33609 0.0
C825 C 0.43573 0.7134 0.32294 0.0
C826 C 0.4175 0.68504 0.36033 0.0
C827 C 0.44474 0.69194 0.37221 0.0
C828 C 0.46708 0.71026 0.35933 0.0
H829 H 0.5113 0.59309 0.47347 0.0
H830 H 0.49452 0.61423 0.43765 0.0
C831 C 0.46262 0.7209 0.33535 0.0
C832 C 0.45057 0.67883 0.39679 0.0
H833 H 0.48577 0.69136 0.45607 0.0
C834 C 0.44214 0.65106 0.39764 0.0
C835 C 0.46561 0.69332 0.41888 0.0
C836 C 0.47333 0.72305 0.42096 0.0
C837 C 0.44916 0.63763 0.41903 0.0
C838 C 0.46601 0.65213 0.44022 0.0
C839 C 0.47341 0.6799 0.43988 0.0
C840 C 0.47639 0.63902 0.46262 0.0
C841 C 0.43788 0.6079 0.41875 0.0
C842 C 0.47318 0.64632 0.48916 0.0
C843 C 0.48338 0.63448 0.50995 0.0
C844 C 0.49712 0.61486 0.50493 0.0
C845 C 0.5005 0.60776 0.47839 0.0
C846 C 0.49061 0.61978 0.45767 0.0
H847 H 0.41792 0.60075 0.40709 0.0
H848 H 0.4538 0.59936 0.40937 0.0
H849 H 0.43355 0.60037 0.43896 0.0
H850 H 0.4626 0.66118 0.4939 0.0
H851 H 0.48042 0.64071 0.52999 0.0
H852 H 0.1909 0.48641 0.83489 0.0
H853 H 0.17043 0.51113 0.86744 0.0
H854 H 0.09909 0.44192 0.87796 0.0
H855 H 0.1198 0.41722 0.84596 0.0
H856 H 0.11941 0.52375 0.874 0.0
H857 H 0.13015 0.45683 0.95223 0.0
H858 H 0.1462 0.45656 0.92022 0.0
H859 H 0.10895 0.44003 0.92484 0.0
C860 C 0.17042 0.47678 0.84357 0.0
C861 C 0.15677 0.44996 0.83756 0.0
C862 C 0.15882 0.49083 0.8624 0.0
C863 C 0.13347 0.47831 0.87582 0.0
C864 C 0.11898 0.45198 0.86853 0.0
H865 H 0.03922 0.52418 1.00825 0.0
H866 H 0.05585 0.50083 0.97177 0.0
C867 C 0.1306 0.43795 0.84986 0.0
C868 C 0.12283 0.49223 0.89815 0.0
H869 H 0.10578 0.48811 0.96378 0.0
C870 C 0.11654 0.51597 0.89363 0.0
C871 C 0.11899 0.48225 0.92395 0.0
C872 C 0.12666 0.45767 0.93075 0.0
C873 C 0.10609 0.52959 0.91384 0.0
C874 C 0.10228 0.5196 0.93964 0.0
C875 C 0.10852 0.49585 0.94413 0.0
C876 C 0.09233 0.53369 0.96227 0.0
C877 C 0.09859 0.55427 0.90716 0.0
C878 C 0.10754 0.55976 0.96979 0.0
C879 C 0.0981 0.57308 0.99066 0.0
C880 C 0.07324 0.56069 1.00479 0.0
C881 C 0.05841 0.53435 0.9978 0.0
C882 C 0.0679 0.52099 0.97687 0.0
H883 H 0.09465 0.55495 0.88574 0.0
H884 H 0.07939 0.5557 0.91807 0.0
H885 H 0.1166 0.57181 0.91268 0.0
H886 H 0.12686 0.56989 0.95952 0.0
H887 H 0.1102 0.59327 0.99559 0.0
H888 H 0.70089 0.89684 0.95874 0.0
H889 H 0.686 0.93519 0.97384 0.0
H890 H 0.60611 0.90353 0.933 0.0
H891 H 0.62083 0.86527 0.91774 0.0
H892 H 0.66617 0.97365 0.94617 0.0
H893 H 0.58402 0.91095 1.01108 0.0
H894 H 0.61246 0.89995 0.99669 0.0
H895 H 0.58188 0.89949 0.97731 0.0
C896 C 0.68035 0.89827 0.95262 0.0
C897 C 0.66187 0.87788 0.9373 0.0
C898 C 0.67187 0.92015 0.96131 0.0
C899 C 0.6448 0.92193 0.95487 0.0
C900 C 0.62689 0.90225 0.93857 0.0
H901 H 0.53817 0.01865 0.99881 0.0
H902 H 0.56124 0.98863 0.97725 0.0
C903 C 0.63529 0.88039 0.92994 0.0
C904 C 0.63452 0.94352 0.96629 0.0
H905 H 0.58298 0.95495 1.00625 0.0
C906 C 0.64808 0.96967 0.95941 0.0
C907 C 0.61109 0.93821 0.98372 0.0
C908 C 0.59663 0.91068 0.99288 0.0
C909 C 0.63811 0.9906 0.96887 0.0
C910 C 0.61425 0.98513 0.98581 0.0
C911 C 0.60112 0.95904 0.99305 0.0
C912 C 0.60201 1.0059 0.99618 0.0
C913 C 0.65262 0.01823 0.96013 0.0
C914 C 0.61749 0.02595 1.01362 0.0
C915 C 0.60434 0.04328 0.02602 0.0
C916 C 0.57542 0.04063 0.02137 0.0
C917 C 0.56041 0.02119 1.00303 0.0
C918 C 0.57356 1.00399 0.99063 0.0
H919 H 0.66646 0.01829 0.94272 0.0
H920 H 0.6367 0.02853 0.95527 0.0
H921 H 0.66612 0.0296 0.97641 0.0
H922 H 0.63934 0.02748 0.01851 0.0
H923 H 0.61649 0.05794 0.04012 0.0
H924 H 0.8037 0.21009 0.51054 0.0
H925 H 0.84644 0.19666 0.51867 0.0
H926 H 0.81392 0.12787 0.46768 0.0
H927 H 0.77122 0.14117 0.45945 0.0
H928 H 0.84546 0.1506 0.5418 0.0
H929 H 0.89658 0.15552 0.44372 0.0
H930 H 0.8697 0.17167 0.45153 0.0
H931 H 0.85961 0.13689 0.44331 0.0
C932 C 0.80581 0.19222 0.50092 0.0
C933 C 0.78414 0.17661 0.48444 0.0
C934 C 0.83027 0.18469 0.50543 0.0
C935 C 0.83348 0.16149 0.49348 0.0
C936 C 0.81218 0.14619 0.47655 0.0
H937 H 0.92508 0.05989 0.55181 0.0
H938 H 0.89 0.0798 0.53459 0.0
C939 C 0.78776 0.15376 0.47196 0.0
C940 C 0.85754 0.15179 0.50092 0.0
H941 H 0.91231 0.13089 0.47609 0.0
C942 C 0.86026 0.14656 0.52747 0.0
C943 C 0.8769 0.14673 0.48219 0.0
C944 C 0.87578 0.15323 0.45363 0.0
C945 C 0.88132 0.13561 0.53572 0.0
C946 C 0.89978 0.12937 0.51683 0.0
C947 C 0.89776 0.1354 0.4904 0.0
C948 C 0.92116 0.11639 0.5244 0.0
C949 C 0.88361 0.13076 0.5646 0.0
C950 C 0.95023 0.13012 0.52345 0.0
C951 C 0.97027 0.1188 0.53324 0.0
C952 C 0.9614 0.09359 0.54396 0.0
C953 C 0.93238 0.07944 0.54381 0.0
C954 C 0.91239 0.09076 0.53404 0.0
H955 H 0.8725 0.14223 0.5771 0.0
H956 H 0.8737 0.10947 0.56817 0.0
H957 H 0.90625 0.13603 0.57083 0.0
H958 H 0.9573 0.14993 0.51603 0.0
H959 H 0.99253 0.13014 0.53327 0.0
H960 H 0.30726 0.71278 0.24153 0.0
H961 H 0.26259 0.68602 0.22084 0.0
H962 H 0.2911 0.72091 0.14638 0.0
H963 H 0.3357 0.74715 0.16661 0.0
H964 H 0.22036 0.70181 0.1948 0.0
H965 H 0.26701 0.6422 0.12658 0.0
H966 H 0.2866 0.66132 0.15403 0.0
H967 H 0.28306 0.67713 0.124 0.0
C968 C 0.30414 0.7146 0.2207 0.0
C969 C 0.32527 0.73236 0.2059 0.0
C970 C 0.27847 0.69934 0.20888 0.0
C971 C 0.27339 0.70107 0.18186 0.0
C972 C 0.29446 0.71875 0.1671 0.0
H973 H 0.1134 0.65899 0.09506 0.0
H974 H 0.15768 0.68057 0.11855 0.0
C975 C 0.31995 0.73407 0.17888 0.0
C976 C 0.24595 0.68504 0.16911 0.0
H977 H 0.21875 0.64067 0.11847 0.0
C978 C 0.22005 0.68832 0.17823 0.0
C979 C 0.24521 0.66708 0.14761 0.0
C980 C 0.2719 0.66146 0.1376 0.0
C981 C 0.19382 0.67494 0.16604 0.0
C982 C 0.19322 0.65786 0.14382 0.0
C983 C 0.21901 0.6539 0.13525 0.0
C984 C 0.16619 0.64436 0.12901 0.0
C985 C 0.16687 0.67909 0.17725 0.0
C986 C 0.15627 0.61663 0.12615 0.0
C987 C 0.13077 0.60409 0.11254 0.0
C988 C 0.11463 0.61897 0.10113 0.0
C989 C 0.12499 0.64673 0.10358 0.0
C990 C 0.15035 0.6592 0.11726 0.0
H991 H 0.16973 0.68638 0.19808 0.0
H992 H 0.16091 0.69409 0.16572 0.0
H993 H 0.149 0.66052 0.17617 0.0
H994 H 0.16807 0.60462 0.1348 0.0
H995 H 0.12364 0.58273 0.1111 0.0
H996 H 0.26517 0.40232 0.68865 0.0
H997 H 0.30868 0.42711 0.66669 0.0
H998 H 0.2975 0.50005 0.69754 0.0
H999 H 0.25306 0.47538 0.7191 0.0
H1000 H 0.31069 0.47729 0.62948 0.0
H1001 H 0.38456 0.4929 0.71497 0.0
H1002 H 0.35388 0.46405 0.7124 0.0
H1003 H 0.34905 0.49584 0.71912 0.0
C1004 C 0.27155 0.42366 0.69059 0.0
C1005 C 0.25505 0.43675 0.70544 0.0
C1006 C 0.29671 0.4378 0.67814 0.0
C1007 C 0.30639 0.46543 0.6804 0.0
C1008 C 0.29047 0.4787 0.69556 0.0
H1009 H 0.47123 0.56524 0.62068 0.0
H1010 H 0.4267 0.54936 0.64557 0.0
C1011 C 0.26509 0.46453 0.70798 0.0
C1012 C 0.33278 0.48009 0.66624 0.0
H1013 H 0.40483 0.50645 0.67374 0.0
C1014 C 0.33125 0.48388 0.63917 0.0
C1015 C 0.35956 0.48891 0.67892 0.0
C1016 C 0.3622 0.48533 0.70797 0.0
C1017 C 0.35577 0.49586 0.62437 0.0
C1018 C 0.3829 0.50357 0.63674 0.0
C1019 C 0.38425 0.50048 0.66406 0.0
C1020 C 0.41005 0.51376 0.62149 0.0
C1021 C 0.35218 0.50034 0.59561 0.0
C1022 C 0.41609 0.49903 0.5999 0.0
C1023 C 0.44124 0.50841 0.58541 0.0
C1024 C 0.46134 0.53265 0.59221 0.0
C1025 C 0.45583 0.54705 0.61431 0.0
C1026 C 0.43044 0.53775 0.62876 0.0
H1027 H 0.33065 0.50214 0.59157 0.0
H1028 H 0.3683 0.51845 0.58898 0.0
H1029 H 0.35459 0.48318 0.58375 0.0
H1030 H 0.40142 0.48005 0.59431 0.0
H1031 H 0.44497 0.49653 0.5688 0.0
H1032 H 0.757 0.76588 0.92367 0.0
H1033 H 0.78416 0.73879 0.94286 0.0
H1034 H 0.8587 0.80652 0.94693 0.0
H1035 H 0.83167 0.83372 0.92817 0.0
H1036 H 0.83533 0.73073 0.92083 0.0
H1037 H 0.85233 0.77605 0.02152 0.0
H1038 H 0.82494 0.77982 0.99982 0.0
H1039 H 0.86128 0.79941 0.99568 0.0
C1040 C 0.77905 0.77505 0.92906 0.0
C1041 C 0.79224 0.8019 0.92444 0.0
C1042 C 0.79454 0.75955 0.93986 0.0
C1043 C 0.8233 0.77076 0.94654 0.0
C1044 C 0.8364 0.79761 0.94226 0.0
H1045 H 0.96765 0.72853 0.99916 0.0
H1046 H 0.93211 0.74902 0.9848 0.0
C1047 C 0.82102 0.81305 0.93134 0.0
C1048 C 0.84021 0.75425 0.95675 0.0
H1049 H 0.88137 0.74873 1.00868 0.0
C1050 C 0.84512 0.73435 0.94017 0.0
C1051 C 0.8529 0.75913 0.98195 0.0
C1052 C 0.84744 0.7796 1.00091 0.0
C1053 C 0.86354 0.71997 0.94767 0.0
C1054 C 0.87686 0.72536 0.97264 0.0
C1055 C 0.87119 0.7447 0.98952 0.0
C1056 C 0.89812 0.71236 0.98104 0.0
C1057 C 0.86958 0.70005 0.92837 0.0
C1058 C 0.89074 0.68491 0.98383 0.0
C1059 C 0.91118 0.67303 0.99173 0.0
C1060 C 0.93929 0.68845 0.99714 0.0
C1061 C 0.94639 0.71598 0.99463 0.0
C1062 C 0.92603 0.72778 0.98666 0.0
H1063 H 0.86272 0.70253 0.90809 0.0
H1064 H 0.89265 0.7017 0.92802 0.0
H1065 H 0.85783 0.67985 0.93445 0.0
H1066 H 0.86917 0.67269 0.98004 0.0
H1067 H 0.90503 0.65178 0.99338 0.0
H1068 H 0.38626 0.80766 0.16835 0.0
H1069 H 0.40738 0.851 0.14998 0.0
H1070 H 0.45137 0.87873 0.22298 0.0
H1071 H 0.42966 0.8355 0.24197 0.0
H1072 H 0.40419 0.90181 0.16664 0.0
H1073 H 0.51583 0.89808 0.16819 0.0
H1074 H 0.48583 0.86908 0.17206 0.0
H1075 H 0.49759 0.8922 0.1992 0.0
C1076 C 0.40005 0.82294 0.18085 0.0
C1077 C 0.40585 0.81764 0.20697 0.0
C1078 C 0.41236 0.84786 0.1701 0.0
C1079 C 0.4313 0.86836 0.18484 0.0
C1080 C 0.43724 0.86328 0.21088 0.0
H1081 H 0.53578 0.02878 0.1536 0.0
H1082 H 0.51137 0.9859 0.17155 0.0
C1083 C 0.42476 0.83836 0.22177 0.0
C1084 C 0.44462 0.89491 0.17294 0.0
H1085 H 0.50864 0.93834 0.15617 0.0
C1086 C 0.42704 0.90976 0.1643 0.0
C1087 C 0.47445 0.90553 0.16972 0.0
C1088 C 0.4946 0.89038 0.17754 0.0
C1089 C 0.43837 0.93496 0.15336 0.0
C1090 C 0.46828 0.94562 0.15009 0.0
C1091 C 0.48578 0.93056 0.15854 0.0
C1092 C 0.48211 0.97257 0.13895 0.0
C1093 C 0.41808 0.95024 0.14633 0.0
C1094 C 0.47409 0.98009 0.11444 0.0
C1095 C 0.48795 1.00512 0.10421 0.0
C1096 C 0.51054 0.02312 0.11797 0.0
C1097 C 0.51847 0.01554 0.14238 0.0
C1098 C 0.50451 0.99081 0.15269 0.0
H1099 H 0.39762 0.94327 0.15713 0.0
H1100 H 0.42745 0.97169 0.15076 0.0
H1101 H 0.41326 0.94737 0.12498 0.0
H1102 H 0.4575 0.96642 0.10286 0.0
H1103 H 0.48139 1.01008 0.08533 0.0
H1104 H 0.16472 0.33255 0.73854 0.0
H1105 H 0.14256 0.29006 0.71587 0.0
H1106 H 0.14929 0.32915 0.64205 0.0
H1107 H 0.17124 0.3717 0.66454 0.0
H1108 H 0.09368 0.27109 0.68539 0.0
H1109 H 0.18886 0.27299 0.62519 0.0
H1110 H 0.19012 0.2955 0.65287 0.0
H1111 H 0.17654 0.30143 0.62166 0.0
C1112 C 0.16114 0.33225 0.71754 0.0
C1113 C 0.17006 0.35576 0.70345 0.0
C1114 C 0.1486 0.30781 0.70453 0.0
C1115 C 0.14476 0.30615 0.67708 0.0
C1116 C 0.15269 0.32966 0.6631 0.0
H1117 H 0.0782 0.17764 0.56098 0.0
H1118 H 0.09856 0.22012 0.58425 0.0
C1119 C 0.16522 0.35408 0.67606 0.0
C1120 C 0.13258 0.2799 0.6631 0.0
H1121 H 0.14661 0.23876 0.61486 0.0
C1122 C 0.10534 0.26399 0.67006 0.0
C1123 C 0.14766 0.27046 0.64301 0.0
C1124 C 0.17752 0.28583 0.63535 0.0
C1125 C 0.0926 0.23937 0.65722 0.0
C1126 C 0.10768 0.22995 0.63711 0.0
C1127 C 0.13494 0.24585 0.63018 0.0
C1128 C 0.09555 0.20377 0.62298 0.0
C1129 C 0.06274 0.224 0.66485 0.0
C1130 C 0.08749 0.18013 0.63677 0.0
C1131 C 0.07581 0.15571 0.62348 0.0
C1132 C 0.07201 0.15421 0.59596 0.0
C1133 C 0.08067 0.17788 0.58214 0.0
C1134 C 0.09237 0.20228 0.59545 0.0
H1135 H 0.05138 0.23686 0.67496 0.0
H1136 H 0.05017 0.21428 0.64734 0.0
H1137 H 0.06372 0.20845 0.6786 0.0
H1138 H 0.09031 0.18051 0.65789 0.0
H1139 H 0.06959 0.138 0.63486 0.0
H1140 H 0.64607 0.24465 0.50721 0.0
H1141 H 0.62954 0.28379 0.5045 0.0
H1142 H 0.67132 0.31416 0.57809 0.0
H1143 H 0.68763 0.27485 0.58108 0.0
H1144 H 0.61782 0.31971 0.57536 0.0
H1145 H 0.67907 0.35664 0.48531 0.0
H1146 H 0.65608 0.32351 0.48126 0.0
H1147 H 0.68528 0.33057 0.50414 0.0
C1148 C 0.65178 0.25973 0.52276 0.0
C1149 C 0.66826 0.25684 0.54428 0.0
C1150 C 0.64242 0.28208 0.52115 0.0
C1151 C 0.64972 0.30208 0.54082 0.0
C1152 C 0.6656 0.29897 0.56265 0.0
H1153 H 0.63736 0.46075 0.52425 0.0
H1154 H 0.65365 0.42184 0.52993 0.0
C1155 C 0.6748 0.27651 0.56438 0.0
C1156 C 0.64068 0.32622 0.53868 0.0
H1157 H 0.64446 0.37776 0.4989 0.0
C1158 C 0.62373 0.33249 0.55872 0.0
C1159 C 0.64885 0.34306 0.51715 0.0
C1160 C 0.66856 0.3383 0.49587 0.0
C1161 C 0.61421 0.35494 0.55756 0.0
C1162 C 0.62134 0.37113 0.53545 0.0
C1163 C 0.63875 0.36512 0.51567 0.0
C1164 C 0.61126 0.3946 0.53251 0.0
C1165 C 0.59705 0.36133 0.58021 0.0
C1166 C 0.58203 0.39209 0.53181 0.0
C1167 C 0.57268 0.41429 0.52865 0.0
C1168 C 0.59243 0.43929 0.52575 0.0
C1169 C 0.62168 0.44168 0.52616 0.0
C1170 C 0.631 0.41952 0.52951 0.0
H1171 H 0.60041 0.35166 0.59848 0.0
H1172 H 0.60262 0.38297 0.58424 0.0
H1173 H 0.57407 0.35402 0.5752 0.0
H1174 H 0.56644 0.37292 0.53341 0.0
H1175 H 0.55001 0.41186 0.52806 0.0
loop_
_geom_bond_atom_site_label_1
_geom_bond_atom_site_label_2
_geom_bond_distance
_geom_bond_site_symmetry_2
_ccdc_geom_bond_type
H0 C1 0.949 . S
C1 H0 0.949 . S
C1 C2 1.395 . S
C1 C3 1.391 . S
C2 C1 1.395 . S
C2 C5 1.390 . S
C3 C1 1.391 . S
C3 C7 1.387 . S
C3 C8 1.491 . S
H4 C5 0.950 . S
C5 C2 1.390 . S
C5 H4 0.950 . S
C5 C6 1.378 . S
C6 C5 1.378 . S
C6 C7 1.409 . S
C7 C3 1.387 . S
C7 C6 1.409 . S
C7 H9 0.951 . S
C8 C3 1.491 . S
C8 C10 1.382 . S
C8 C12 1.404 . S
H9 C7 0.951 . S
C10 C8 1.382 . S
C10 C11 1.390 . S
C10 H15 0.949 . S
C11 C10 1.390 . S
C11 C16 1.399 . S
C12 C8 1.404 . S
C12 H13 0.950 . S
C12 C14 1.375 . S
H13 C12 0.950 . S
C14 C12 1.375 . S
C14 C16 1.382 . S
C14 H18 0.950 . S
H15 C10 0.949 . S
C16 C11 1.399 . S
C16 C14 1.382 . S
C16 H17 0.952 . S
H17 C16 0.952 . S
H18 C14 0.950 . S
H19 C20 0.949 . S
C20 H19 0.949 . S
C20 C21 1.395 . S
C20 C22 1.391 . S
C21 C20 1.395 . S
C21 C24 1.390 . S
C22 C20 1.391 . S
C22 C26 1.387 . S
C22 C27 1.491 . S
H23 C24 0.950 . S
C24 C21 1.390 . S
C24 H23 0.950 . S
C24 C25 1.378 . S
C25 C24 1.378 . S
C25 C26 1.409 . S
C26 C22 1.387 . S
C26 C25 1.409 . S
C26 H28 0.951 . S
C27 C22 1.491 . S
C27 C29 1.382 . S
C27 C31 1.404 . S
H28 C26 0.951 . S
C29 C27 1.382 . S
C29 C30 1.390 . S
C29 H34 0.949 . S
C30 C29 1.390 . S
C30 C35 1.399 . S
C31 C27 1.404 . S
C31 H32 0.950 . S
C31 C33 1.375 . S
H32 C31 0.950 . S
C33 C31 1.375 . S
C33 C35 1.382 . S
C33 H37 0.950 . S
H34 C29 0.949 . S
C35 C30 1.399 . S
C35 C33 1.382 . S
C35 H36 0.952 . S
H36 C35 0.952 . S
H37 C33 0.950 . S
H38 C39 0.949 . S
C39 H38 0.949 . S
C39 C40 1.395 . S
C39 C41 1.391 . S
C40 C39 1.395 . S
C40 C43 1.390 . S
C41 C39 1.391 . S
C41 C45 1.387 . S
C41 C46 1.491 . S
H42 C43 0.950 . S
C43 C40 1.390 . S
C43 H42 0.950 . S
C43 C44 1.378 . S
C44 C43 1.378 . S
C44 C45 1.409 . S
C45 C41 1.387 . S
C45 C44 1.409 . S
C45 H47 0.951 . S
C46 C41 1.491 . S
C46 C48 1.382 . S
C46 C50 1.404 . S
H47 C45 0.951 . S
C48 C46 1.382 . S
C48 C49 1.390 . S
C48 H53 0.949 . S
C49 C48 1.390 . S
C49 C54 1.399 . S
C50 C46 1.404 . S
C50 H51 0.950 . S
C50 C52 1.375 . S
H51 C50 0.950 . S
C52 C50 1.375 . S
C52 C54 1.382 . S
C52 H56 0.950 . S
H53 C48 0.949 . S
C54 C49 1.399 . S
C54 C52 1.382 . S
C54 H55 0.952 . S
H55 C54 0.952 . S
H56 C52 0.950 . S
H57 C58 0.949 . S
C58 H57 0.949 . S
C58 C59 1.395 . S
C58 C60 1.391 . S
C59 C58 1.395 . S
C59 C62 1.390 . S
C60 C58 1.391 . S
C60 C64 1.387 . S
C60 C65 1.491 . S
H61 C62 0.950 . S
C62 C59 1.390 . S
C62 H61 0.950 . S
C62 C63 1.378 . S
C63 C62 1.378 . S
C63 C64 1.409 . S
C64 C60 1.387 . S
C64 C63 1.409 . S
C64 H66 0.951 . S
C65 C60 1.491 . S
C65 C67 1.382 . S
C65 C69 1.404 . S
H66 C64 0.951 . S
C67 C65 1.382 . S
C67 C68 1.390 . S
C67 H72 0.949 . S
C68 C67 1.390 . S
C68 C73 1.399 . S
C69 C65 1.404 . S
C69 H70 0.950 . S
C69 C71 1.375 . S
H70 C69 0.950 . S
C71 C69 1.375 . S
C71 C73 1.382 . S
C71 H75 0.950 . S
H72 C67 0.949 . S
C73 C68 1.399 . S
C73 C71 1.382 . S
C73 H74 0.952 . S
H74 C73 0.952 . S
H75 C71 0.950 . S
H76 C77 0.949 . S
C77 H76 0.949 . S
C77 C78 1.395 . S
C77 C79 1.391 . S
C78 C77 1.395 . S
C78 C81 1.390 . S
C79 C77 1.391 . S
C79 C83 1.387 . S
C79 C84 1.491 . S
H80 C81 0.950 . S
C81 C78 1.390 . S
C81 H80 0.950 . S
C81 C82 1.378 . S
C82 C81 1.378 . S
C82 C83 1.409 . S
C83 C79 1.387 . S
C83 C82 1.409 . S
C83 H85 0.951 . S
C84 C79 1.491 . S
C84 C86 1.382 . S
C84 C88 1.404 . S
H85 C83 0.951 . S
C86 C84 1.382 . S
C86 C87 1.390 . S
C86 H91 0.949 . S
C87 C86 1.390 . S
C87 C92 1.399 . S
C88 C84 1.404 . S
C88 H89 0.950 . S
C88 C90 1.375 . S
H89 C88 0.950 . S
C90 C88 1.375 . S
C90 C92 1.382 . S
C90 H94 0.950 . S
H91 C86 0.949 . S
C92 C87 1.399 . S
C92 C90 1.382 . S
C92 H93 0.952 . S
H93 C92 0.952 . S
H94 C90 0.950 . S
H95 C96 0.949 . S
C96 H95 0.949 . S
C96 C97 1.395 . S
C96 C98 1.391 . S
C97 C96 1.395 . S
C97 C100 1.390 . S
C98 C96 1.391 . S
C98 C102 1.387 . S
C98 C103 1.491 . S
H99 C100 0.950 . S
C100 C97 1.390 . S
C100 H99 0.950 . S
C100 C101 1.378 . S
C101 C100 1.378 . S
C101 C102 1.409 . S
C102 C98 1.387 . S
C102 C101 1.409 . S
C102 H104 0.951 . S
C103 C98 1.491 . S
C103 C105 1.382 . S
C103 C107 1.404 . S
H104 C102 0.951 . S
C105 C103 1.382 . S
C105 C106 1.390 . S
C105 H110 0.949 . S
C106 C105 1.390 . S
C106 C111 1.399 . S
C107 C103 1.404 . S
C107 H108 0.950 . S
C107 C109 1.375 . S
H108 C107 0.950 . S
C109 C107 1.375 . S
C109 C111 1.382 . S
C109 H113 0.950 . S
H110 C105 0.949 . S
C111 C106 1.399 . S
C111 C109 1.382 . S
C111 H112 0.952 . S
H112 C111 0.952 . S
H113 C109 0.950 . S
H114 C115 0.949 . S
C115 H114 0.949 . S
C115 C116 1.395 . S
C115 C117 1.391 . S
C116 C115 1.395 . S
C116 C119 1.390 . S
C117 C115 1.391 . S
C117 C121 1.387 . S
C117 C122 1.491 . S
H118 C119 0.950 . S
C119 C116 1.390 . S
C119 H118 0.950 . S
C119 C120 1.378 . S
C120 C119 1.378 . S
C120 C121 1.409 . S
C121 C117 1.387 . S
C121 C120 1.409 . S
C121 H123 0.951 . S
C122 C117 1.491 . S
C122 C124 1.382 . S
C122 C126 1.404 . S
H123 C121 0.951 . S
C124 C122 1.382 . S
C124 C125 1.390 . S
C124 H129 0.949 . S
C125 C124 1.390 . S
C125 C130 1.399 . S
C126 C122 1.404 . S
C126 H127 0.950 . S
C126 C128 1.375 . S
H127 C126 0.950 . S
C128 C126 1.375 . S
C128 C130 1.382 . S
C128 H132 0.950 . S
H129 C124 0.949 . S
C130 C125 1.399 . S
C130 C128 1.382 . S
C130 H131 0.952 . S
H131 C130 0.952 . S
H132 C128 0.950 . S
H133 C134 0.949 . S
C134 H133 0.949 . S
C134 C135 1.395 . S
C134 C136 1.391 . S
C135 C134 1.395 . S
C135 C138 1.390 . S
C136 C134 1.391 . S
C136 C140 1.387 . S
C136 C141 1.491 . S
H137 C138 0.950 . S
C138 C135 1.390 . S
C138 H137 0.950 . S
C138 C139 1.378 . S
C139 C138 1.378 . S
C139 C140 1.409 . S
C140 C136 1.387 . S
C140 C139 1.409 . S
C140 H142 0.951 . S
C141 C136 1.491 . S
C141 C143 1.382 . S
C141 C145 1.404 . S
H142 C140 0.951 . S
C143 C141 1.382 . S
C143 C144 1.390 . S
C143 H148 0.949 . S
C144 C143 1.390 . S
C144 C149 1.399 . S
C145 C141 1.404 . S
C145 H146 0.950 . S
C145 C147 1.375 . S
H146 C145 0.950 . S
C147 C145 1.375 . S
C147 C149 1.382 . S
C147 H151 0.950 . S
H148 C143 0.949 . S
C149 C144 1.399 . S
C149 C147 1.382 . S
C149 H150 0.952 . S
H150 C149 0.952 . S
H151 C147 0.950 . S
La152 C154 2.928 . S
La152 O172 2.521 . S
La152 O173 2.628 . S
La152 O174 2.554 . S
La152 O175 2.757 . S
La152 O176 2.470 . S
La152 O181 2.482 1_455 S
La152 O183 2.503 . S
La153 C163 2.928 1_545 S
La153 O175 2.482 1_655 S
La153 O177 2.503 1_655 S
La153 O178 2.521 . S
La153 O179 2.628 1_545 S
La153 O180 2.554 . S
La153 O181 2.757 . S
La153 O182 2.470 . S
C154 La152 2.928 . S
C154 C155 1.503 . S
C154 O172 1.261 . S
C154 O173 1.243 . S
C155 C154 1.503 . S
C155 C156 1.394 . S
C155 C160 1.373 . S
C156 C155 1.394 . S
C156 C157 1.380 . S
C156 H184 0.930 . S
C157 C156 1.380 . S
C157 C158 1.376 . S
C157 H185 0.930 . S
C158 C157 1.376 . S
C158 C159 1.370 . S
C159 C158 1.370 . S
C159 C160 1.396 . S
C159 H186 0.929 . S
C160 C155 1.373 . S
C160 C159 1.396 . S
C160 H187 0.929 . S
C161 O174 1.240 . S
C161 O175 1.289 . S
C162 O176 1.258 . S
C162 O177 1.256 . S
C163 La153 2.928 1_565 S
C163 C164 1.503 . S
C163 O178 1.261 1_565 S
C163 O179 1.243 . S
C164 C163 1.503 . S
C164 C165 1.394 . S
C164 C169 1.373 . S
C165 C164 1.394 . S
C165 C166 1.380 . S
C165 H188 0.930 . S
C166 C165 1.380 . S
C166 C167 1.376 . S
C166 H189 0.930 . S
C167 C166 1.376 . S
C167 C168 1.370 . S
C168 C167 1.370 . S
C168 C169 1.396 . S
C168 H190 0.929 . S
C169 C164 1.373 . S
C169 C168 1.396 . S
C169 H191 0.929 . S
C170 O180 1.240 . S
C170 O181 1.289 . S
C171 O182 1.258 1_565 S
C171 O183 1.256 1_665 S
O172 La152 2.521 . S
O172 C154 1.261 . S
O173 La152 2.628 . S
O173 C154 1.243 . S
O174 La152 2.554 . S
O174 C161 1.240 . S
O175 La152 2.757 . S
O175 La153 2.482 1_455 S
O175 C161 1.289 . S
O176 La152 2.470 . S
O176 C162 1.258 . S
O177 La153 2.503 1_455 S
O177 C162 1.256 . S
O178 La153 2.521 . S
O178 C163 1.261 1_545 S
O179 La153 2.628 1_565 S
O179 C163 1.243 . S
O180 La153 2.554 . S
O180 C170 1.240 . S
O181 La152 2.482 1_655 S
O181 La153 2.757 . S
O181 C170 1.289 . S
O182 La153 2.470 . S
O182 C171 1.258 1_545 S
O183 La152 2.503 . S
O183 C171 1.256 1_445 S
H184 C156 0.930 . S
H185 C157 0.930 . S
H186 C159 0.929 . S
H187 C160 0.929 . S
H188 C165 0.930 . S
H189 C166 0.930 . S
H190 C168 0.929 . S
H191 C169 0.929 . S
La192 C194 2.928 . S
La192 O212 2.521 . S
La192 O213 2.628 . S
La192 O214 2.554 . S
La192 O215 2.757 . S
La192 O216 2.470 . S
La192 O221 2.482 . S
La192 O223 2.503 . S
La193 C203 2.927 . S
La193 O215 2.482 . S
La193 O217 2.503 . S
La193 O218 2.530 . S
La193 O219 2.628 1_545 S
La193 O220 2.554 . S
La193 O221 2.757 . S
La193 O222 2.470 . S
C194 La192 2.928 . S
C194 C195 1.503 . S
C194 O212 1.261 . S
C194 O213 1.243 . S
C195 C194 1.503 . S
C195 C196 1.394 . S
C195 C200 1.373 . S
C196 C195 1.394 . S
C196 C197 1.380 . S
C196 H224 0.930 . S
C197 C196 1.380 . S
C197 C198 1.376 . S
C197 H225 0.930 . S
C198 C197 1.376 . S
C198 C199 1.370 . S
C199 C198 1.370 . S
C199 C200 1.396 . S
C199 H226 0.929 . S
C200 C195 1.373 . S
C200 C199 1.396 . S
C200 H227 0.929 . S
C201 O214 1.240 1_565 S
C201 O215 1.289 1_565 S
C202 O216 1.258 . S
C202 O217 1.256 . S
C203 La193 2.927 . S
C203 C204 1.504 1_544 S
C203 O218 1.260 . S
C203 O219 1.244 1_545 S
C204 C203 1.504 1_566 S
C204 C205 1.394 . S
C204 C209 1.373 . S
C205 C204 1.394 . S
C205 C206 1.380 . S
C205 H228 0.930 1_565 S
C206 C205 1.380 . S
C206 C207 1.376 . S
C206 H229 0.930 . S
C207 C206 1.376 . S
C207 C208 1.370 . S
C208 C207 1.370 . S
C208 C209 1.396 . S
C208 H230 0.929 . S
C209 C204 1.373 . S
C209 C208 1.396 . S
C209 H231 0.929 . S
C210 O220 1.240 . S
C210 O221 1.289 . S
C211 O222 1.258 . S
C211 O223 1.256 . S
O212 La192 2.521 . S
O212 C194 1.261 . S
O213 La192 2.628 . S
O213 C194 1.243 . S
O214 La192 2.554 . S
O214 C201 1.240 1_545 S
O215 La192 2.757 . S
O215 La193 2.482 . S
O215 C201 1.289 1_545 S
O216 La192 2.470 . S
O216 C202 1.258 . S
O217 La193 2.503 . S
O217 C202 1.256 . S
O218 La193 2.530 . S
O218 C203 1.260 . S
O219 La193 2.628 1_565 S
O219 C203 1.244 1_565 S
O220 La193 2.554 . S
O220 C210 1.240 . S
O221 La192 2.482 . S
O221 La193 2.757 . S
O221 C210 1.289 . S
O222 La193 2.470 . S
O222 C211 1.258 . S
O223 La192 2.503 . S
O223 C211 1.256 . S
H224 C196 0.930 . S
H225 C197 0.930 . S
H226 C199 0.929 . S
H227 C200 0.929 . S
H228 C205 0.930 1_545 S
H229 C206 0.930 . S
H230 C208 0.929 . S
H231 C209 0.929 . S
La232 C234 2.928 . S
La232 O252 2.521 . S
La232 O253 2.628 . S
La232 O254 2.554 . S
La232 O255 2.757 . S
La232 O256 2.470 . S
La232 O261 2.482 . S
La232 O263 2.503 . S
La233 C243 2.928 . S
La233 O255 2.482 . S
La233 O257 2.503 . S
La233 O258 2.521 . S
La233 O259 2.628 . S
La233 O260 2.554 . S
La233 O261 2.757 . S
La233 O262 2.470 . S
C234 La232 2.928 . S
C234 C235 1.503 . S
C234 O252 1.261 . S
C234 O253 1.243 . S
C235 C234 1.503 . S
C235 C236 1.394 . S
C235 C240 1.373 . S
C236 C235 1.394 . S
C236 C237 1.380 . S
C236 H264 0.930 . S
C237 C236 1.380 . S
C237 C238 1.376 . S
C237 H265 0.930 . S
C238 C237 1.376 . S
C238 C239 1.370 . S
C239 C238 1.370 . S
C239 C240 1.396 . S
C239 H266 0.929 . S
C240 C235 1.373 . S
C240 C239 1.396 . S
C240 H267 0.929 . S
C241 O254 1.240 . S
C241 O255 1.289 . S
C242 O256 1.258 . S
C242 O257 1.256 . S
C243 La233 2.928 . S
C243 C244 1.503 . S
C243 O258 1.261 . S
C243 O259 1.243 . S
C244 C243 1.503 . S
C244 C245 1.394 . S
C244 C249 1.373 . S
C245 C244 1.394 . S
C245 C246 1.380 . S
C245 H268 0.930 . S
C246 C245 1.380 . S
C246 C247 1.376 . S
C246 H269 0.930 . S
C247 C246 1.376 . S
C247 C248 1.370 . S
C248 C247 1.370 . S
C248 C249 1.396 . S
C248 H270 0.929 . S
C249 C244 1.373 . S
C249 C248 1.396 . S
C249 H271 0.929 . S
C250 O260 1.240 . S
C250 O261 1.289 . S
C251 O262 1.258 . S
C251 O263 1.256 . S
O252 La232 2.521 . S
O252 C234 1.261 . S
O253 La232 2.628 . S
O253 C234 1.243 . S
O254 La232 2.554 . S
O254 C241 1.240 . S
O255 La232 2.757 . S
O255 La233 2.482 . S
O255 C241 1.289 . S
O256 La232 2.470 . S
O256 C242 1.258 . S
O257 La233 2.503 . S
O257 C242 1.256 . S
O258 La233 2.521 . S
O258 C243 1.261 . S
O259 La233 2.628 . S
O259 C243 1.243 . S
O260 La233 2.554 . S
O260 C250 1.240 . S
O261 La232 2.482 . S
O261 La233 2.757 . S
O261 C250 1.289 . S
O262 La233 2.470 . S
O262 C251 1.258 . S
O263 La232 2.503 . S
O263 C251 1.256 . S
H264 C236 0.930 . S
H265 C237 0.930 . S
H266 C239 0.929 . S
H267 C240 0.929 . S
H268 C245 0.930 . S
H269 C246 0.930 . S
H270 C248 0.929 . S
H271 C249 0.929 . S
La272 C274 2.928 . S
La272 O292 2.521 . S
La272 O293 2.628 . S
La272 O294 2.554 . S
La272 O295 2.757 . S
La272 O296 2.470 . S
La272 O301 2.482 1_554 S
La272 O303 2.503 1_455 S
La273 C283 2.923 1_454 S
La273 O295 2.492 . S
La273 O297 2.510 . S
La273 O298 2.512 1_554 S
La273 O299 2.627 1_454 S
La273 O300 2.545 1_554 S
La273 O301 2.757 1_554 S
La273 O302 2.487 1_554 S
C274 La272 2.928 . S
C274 C275 1.503 . S
C274 O292 1.261 . S
C274 O293 1.243 . S
C275 C274 1.503 . S
C275 C276 1.394 . S
C275 C280 1.373 . S
C276 C275 1.394 . S
C276 C277 1.380 . S
C276 H304 0.930 . S
C277 C276 1.380 . S
C277 C278 1.376 . S
C277 H305 0.930 . S
C278 C277 1.376 . S
C278 C279 1.370 . S
C279 C278 1.370 . S
C279 C280 1.396 . S
C279 H306 0.929 . S
C280 C275 1.373 . S
C280 C279 1.396 . S
C280 H307 0.929 . S
C281 O294 1.240 . S
C281 O295 1.289 . S
C282 O296 1.258 . S
C282 O297 1.256 . S
C283 La273 2.923 1_656 S
C283 C284 1.503 . S
C283 O298 1.261 1_655 S
C283 O299 1.243 . S
C284 C283 1.503 . S
C284 C285 1.394 . S
C284 C289 1.373 . S
C285 C284 1.394 . S
C285 C286 1.380 . S
C285 H308 0.930 . S
C286 C285 1.380 . S
C286 C287 1.376 . S
C286 H309 0.930 . S
C287 C286 1.376 . S
C287 C288 1.370 . S
C288 C287 1.370 . S
C288 C289 1.396 . S
C288 H310 0.929 . S
C289 C284 1.373 . S
C289 C288 1.396 . S
C289 H311 0.929 . S
C290 O300 1.240 . S
C290 O301 1.289 . S
C291 O302 1.245 1_655 S
C291 O303 1.256 1_556 S
O292 La272 2.521 . S
O292 C274 1.261 . S
O293 La272 2.628 . S
O293 C274 1.243 . S
O294 La272 2.554 . S
O294 C281 1.240 . S
O295 La272 2.757 . S
O295 La273 2.492 . S
O295 C281 1.289 . S
O296 La272 2.470 . S
O296 C282 1.258 . S
O297 La273 2.510 . S
O297 C282 1.256 . S
O298 La273 2.512 1_556 S
O298 C283 1.261 1_455 S
O299 La273 2.627 1_656 S
O299 C283 1.243 . S
O300 La273 2.545 1_556 S
O300 C290 1.240 . S
O301 La272 2.482 1_556 S
O301 La273 2.757 1_556 S
O301 C290 1.289 . S
O302 La273 2.487 1_556 S
O302 C291 1.245 1_455 S
O303 La272 2.503 1_655 S
O303 C291 1.256 1_554 S
H304 C276 0.930 . S
H305 C277 0.930 . S
H306 C279 0.929 . S
H307 C280 0.929 . S
H308 C285 0.930 . S
H309 C286 0.930 . S
H310 C288 0.929 . S
H311 C289 0.929 . S
H312 C320 0.929 . S
H313 C322 0.930 . S
H314 C324 0.930 . S
H315 C327 0.929 . S
H316 C330 0.930 . S
H317 C332 0.960 . S
H318 C332 0.960 . S
H319 C332 0.960 . S
C320 H312 0.929 . S
C320 C321 1.377 . S
C320 C322 1.384 . S
C321 C320 1.377 . S
C321 C327 1.390 . S
C322 H313 0.930 . S
C322 C320 1.384 . S
C322 C323 1.372 . S
C323 C322 1.372 . S
C323 C324 1.400 . S
C323 C328 1.490 . S
C324 H314 0.930 . S
C324 C323 1.400 . S
C324 C327 1.386 . S
H325 C341 0.930 . S
H326 C342 0.931 . S
C327 H315 0.929 . S
C327 C321 1.390 . S
C327 C324 1.386 . S
C328 C323 1.490 . S
C328 C330 1.395 . S
C328 C331 1.403 . S
H329 C335 0.930 . S
C330 H316 0.930 . S
C330 C328 1.395 . S
C330 C333 1.403 . S
C331 C328 1.403 . S
C331 C332 1.524 . S
C331 C335 1.400 . S
C332 H317 0.960 . S
C332 H318 0.960 . S
C332 H319 0.960 . S
C332 C331 1.524 . S
C333 C330 1.403 . S
C333 C334 1.392 . S
C333 C337 1.495 . S
C334 C333 1.392 . S
C334 C335 1.385 . S
C334 C336 1.478 . S
C335 H329 0.930 . S
C335 C331 1.400 . S
C335 C334 1.385 . S
C336 C334 1.478 . S
C336 C338 1.381 . S
C336 C342 1.383 . S
C337 C333 1.495 . S
C337 H343 0.959 . S
C337 H344 0.961 . S
C337 H345 0.960 . S
C338 C336 1.381 . S
C338 C339 1.394 . S
C338 H346 0.930 . S
C339 C338 1.394 . S
C339 C340 1.383 . S
C339 H347 0.929 . S
C340 C339 1.383 . S
C340 C341 1.377 . S
C341 H325 0.930 . S
C341 C340 1.377 . S
C341 C342 1.379 . S
C342 H326 0.931 . S
C342 C336 1.383 . S
C342 C341 1.379 . S
H343 C337 0.959 . S
H344 C337 0.961 . S
H345 C337 0.960 . S
H346 C338 0.930 . S
H347 C339 0.929 . S
H348 C356 0.929 . S
H349 C358 0.930 . S
H350 C360 0.930 . S
H351 C363 0.929 . S
H352 C366 0.930 . S
H353 C368 0.960 . S
H354 C368 0.960 . S
H355 C368 0.960 . S
C356 H348 0.929 . S
C356 C357 1.377 . S
C356 C358 1.384 . S
C357 C356 1.377 . S
C357 C363 1.390 . S
C358 H349 0.930 . S
C358 C356 1.384 . S
C358 C359 1.372 . S
C359 C358 1.372 . S
C359 C360 1.400 . S
C359 C364 1.490 . S
C360 H350 0.930 . S
C360 C359 1.400 . S
C360 C363 1.386 . S
H361 C377 0.930 . S
H362 C378 0.931 . S
C363 H351 0.929 . S
C363 C357 1.390 . S
C363 C360 1.386 . S
C364 C359 1.490 . S
C364 C366 1.395 . S
C364 C367 1.403 . S
H365 C371 0.930 . S
C366 H352 0.930 . S
C366 C364 1.395 . S
C366 C369 1.403 . S
C367 C364 1.403 . S
C367 C368 1.524 . S
C367 C371 1.400 . S
C368 H353 0.960 . S
C368 H354 0.960 . S
C368 H355 0.960 . S
C368 C367 1.524 . S
C369 C366 1.403 . S
C369 C370 1.392 . S
C369 C373 1.495 . S
C370 C369 1.392 . S
C370 C371 1.385 . S
C370 C372 1.478 . S
C371 H365 0.930 . S
C371 C367 1.400 . S
C371 C370 1.385 . S
C372 C370 1.478 . S
C372 C374 1.381 . S
C372 C378 1.383 . S
C373 C369 1.495 . S
C373 H379 0.959 . S
C373 H380 0.961 . S
C373 H381 0.960 . S
C374 C372 1.381 . S
C374 C375 1.394 . S
C374 H382 0.930 . S
C375 C374 1.394 . S
C375 C376 1.383 . S
C375 H383 0.929 . S
C376 C375 1.383 . S
C376 C377 1.377 . S
C377 H361 0.930 . S
C377 C376 1.377 . S
C377 C378 1.379 . S
C378 H362 0.931 . S
C378 C372 1.383 . S
C378 C377 1.379 . S
H379 C373 0.959 . S
H380 C373 0.961 . S
H381 C373 0.960 . S
H382 C374 0.930 . S
H383 C375 0.929 . S
H384 C392 0.929 . S
H385 C394 0.930 . S
H386 C396 0.930 . S
H387 C399 0.929 . S
H388 C402 0.930 . S
H389 C404 0.960 . S
H390 C404 0.960 . S
H391 C404 0.960 . S
C392 H384 0.929 . S
C392 C393 1.377 . S
C392 C394 1.384 . S
C393 C392 1.377 . S
C393 C399 1.390 . S
C394 H385 0.930 . S
C394 C392 1.384 . S
C394 C395 1.372 . S
C395 C394 1.372 . S
C395 C396 1.400 . S
C395 C400 1.490 . S
C396 H386 0.930 . S
C396 C395 1.400 . S
C396 C399 1.386 . S
H397 C413 0.930 . S
H398 C414 0.931 . S
C399 H387 0.929 . S
C399 C393 1.390 . S
C399 C396 1.386 . S
C400 C395 1.490 . S
C400 C402 1.395 . S
C400 C403 1.403 . S
H401 C407 0.930 . S
C402 H388 0.930 . S
C402 C400 1.395 . S
C402 C405 1.403 . S
C403 C400 1.403 . S
C403 C404 1.524 . S
C403 C407 1.400 . S
C404 H389 0.960 . S
C404 H390 0.960 . S
C404 H391 0.960 . S
C404 C403 1.524 . S
C405 C402 1.403 . S
C405 C406 1.392 . S
C405 C409 1.495 . S
C406 C405 1.392 . S
C406 C407 1.385 . S
C406 C408 1.478 . S
C407 H401 0.930 . S
C407 C403 1.400 . S
C407 C406 1.385 . S
C408 C406 1.478 . S
C408 C410 1.381 . S
C408 C414 1.383 . S
C409 C405 1.495 . S
C409 H415 0.959 . S
C409 H416 0.961 . S
C409 H417 0.960 . S
C410 C408 1.381 . S
C410 C411 1.394 . S
C410 H418 0.930 . S
C411 C410 1.394 . S
C411 C412 1.383 . S
C411 H419 0.929 . S
C412 C411 1.383 . S
C412 C413 1.377 . S
C413 H397 0.930 . S
C413 C412 1.377 . S
C413 C414 1.379 . S
C414 H398 0.931 . S
C414 C408 1.383 . S
C414 C413 1.379 . S
H415 C409 0.959 . S
H416 C409 0.961 . S
H417 C409 0.960 . S
H418 C410 0.930 . S
H419 C411 0.929 . S
H420 C428 0.929 . S
H421 C430 0.930 . S
H422 C432 0.930 . S
H423 C435 0.929 . S
H424 C438 0.930 . S
H425 C440 0.960 . S
H426 C440 0.960 . S
H427 C440 0.960 . S
C428 H420 0.929 . S
C428 C429 1.377 . S
C428 C430 1.384 . S
C429 C428 1.377 . S
C429 C435 1.390 . S
C430 H421 0.930 . S
C430 C428 1.384 . S
C430 C431 1.372 . S
C431 C430 1.372 . S
C431 C432 1.400 . S
C431 C436 1.490 . S
C432 H422 0.930 . S
C432 C431 1.400 . S
C432 C435 1.386 . S
H433 C449 0.930 . S
H434 C450 0.931 1_455 S
C435 H423 0.929 . S
C435 C429 1.390 . S
C435 C432 1.386 . S
C436 C431 1.490 . S
C436 C438 1.395 . S
C436 C439 1.403 . S
H437 C443 0.930 . S
C438 H424 0.930 . S
C438 C436 1.395 . S
C438 C441 1.403 . S
C439 C436 1.403 . S
C439 C440 1.524 . S
C439 C443 1.400 . S
C440 H425 0.960 . S
C440 H426 0.960 . S
C440 H427 0.960 . S
C440 C439 1.524 . S
C441 C438 1.403 . S
C441 C442 1.392 . S
C441 C445 1.495 . S
C442 C441 1.392 . S
C442 C443 1.385 . S
C442 C444 1.478 . S
C443 H437 0.930 . S
C443 C439 1.400 . S
C443 C442 1.385 . S
C444 C442 1.478 . S
C444 C446 1.381 . S
C444 C450 1.383 . S
C445 C441 1.495 . S
C445 H451 0.959 . S
C445 H452 0.961 . S
C445 H453 0.960 . S
C446 C444 1.381 . S
C446 C447 1.394 . S
C446 H454 0.930 . S
C447 C446 1.394 . S
C447 C448 1.383 . S
C447 H455 0.929 . S
C448 C447 1.383 . S
C448 C449 1.377 1_655 S
C449 H433 0.930 . S
C449 C448 1.377 1_455 S
C449 C450 1.379 1_455 S
C450 H434 0.931 1_655 S
C450 C444 1.383 . S
C450 C449 1.379 1_655 S
H451 C445 0.959 . S
H452 C445 0.961 . S
H453 C445 0.960 . S
H454 C446 0.930 . S
H455 C447 0.929 . S
H456 C464 0.929 . S
H457 C466 0.930 . S
H458 C468 0.930 . S
H459 C471 0.929 . S
H460 C474 0.930 . S
H461 C476 0.960 . S
H462 C476 0.960 . S
H463 C476 0.960 . S
C464 H456 0.929 . S
C464 C465 1.377 . S
C464 C466 1.384 . S
C465 C464 1.377 . S
C465 C471 1.390 . S
C466 H457 0.930 . S
C466 C464 1.384 . S
C466 C467 1.372 . S
C467 C466 1.372 . S
C467 C468 1.400 . S
C467 C472 1.490 . S
C468 H458 0.930 . S
C468 C467 1.400 . S
C468 C471 1.386 . S
H469 C485 0.930 . S
H470 C486 0.931 . S
C471 H459 0.929 . S
C471 C465 1.390 . S
C471 C468 1.386 . S
C472 C467 1.490 . S
C472 C474 1.395 . S
C472 C475 1.403 . S
H473 C479 0.930 . S
C474 H460 0.930 . S
C474 C472 1.395 . S
C474 C477 1.403 . S
C475 C472 1.403 . S
C475 C476 1.524 . S
C475 C479 1.400 . S
C476 H461 0.960 . S
C476 H462 0.960 . S
C476 H463 0.960 . S
C476 C475 1.524 . S
C477 C474 1.403 . S
C477 C478 1.392 . S
C477 C481 1.495 . S
C478 C477 1.392 . S
C478 C479 1.385 . S
C478 C480 1.478 . S
C479 H473 0.930 . S
C479 C475 1.400 . S
C479 C478 1.385 . S
C480 C478 1.478 . S
C480 C482 1.381 . S
C480 C486 1.383 . S
C481 C477 1.495 . S
C481 H487 0.959 . S
C481 H488 0.961 . S
C481 H489 0.960 . S
C482 C480 1.381 . S
C482 C483 1.394 . S
C482 H490 0.930 . S
C483 C482 1.394 . S
C483 C484 1.383 . S
C483 H491 0.929 . S
C484 C483 1.383 . S
C484 C485 1.377 . S
C485 H469 0.930 . S
C485 C484 1.377 . S
C485 C486 1.379 . S
C486 H470 0.931 . S
C486 C480 1.383 . S
C486 C485 1.379 . S
H487 C481 0.959 . S
H488 C481 0.961 . S
H489 C481 0.960 . S
H490 C482 0.930 . S
H491 C483 0.929 . S
H492 C500 0.929 . S
H493 C502 0.930 . S
H494 C504 0.930 . S
H495 C507 0.929 . S
H496 C510 0.930 . S
H497 C512 0.960 1_545 S
H498 C512 0.960 . S
H499 C512 0.960 . S
C500 H492 0.929 . S
C500 C501 1.377 . S
C500 C502 1.384 . S
C501 C500 1.377 . S
C501 C507 1.390 . S
C502 H493 0.930 . S
C502 C500 1.384 . S
C502 C503 1.372 . S
C503 C502 1.372 . S
C503 C504 1.400 . S
C503 C508 1.490 . S
C504 H494 0.930 . S
C504 C503 1.400 . S
C504 C507 1.386 . S
H505 C521 0.930 . S
H506 C522 0.931 . S
C507 H495 0.929 . S
C507 C501 1.390 . S
C507 C504 1.386 . S
C508 C503 1.490 . S
C508 C510 1.395 . S
C508 C511 1.403 . S
H509 C515 0.930 1_545 S
C510 H496 0.930 . S
C510 C508 1.395 . S
C510 C513 1.403 . S
C511 C508 1.403 . S
C511 C512 1.524 . S
C511 C515 1.400 . S
C512 H497 0.960 1_565 S
C512 H498 0.960 . S
C512 H499 0.960 . S
C512 C511 1.524 . S
C513 C510 1.403 . S
C513 C514 1.392 . S
C513 C517 1.495 . S
C514 C513 1.392 . S
C514 C515 1.385 . S
C514 C516 1.478 . S
C515 H509 0.930 1_565 S
C515 C511 1.400 . S
C515 C514 1.385 . S
C516 C514 1.478 . S
C516 C518 1.381 . S
C516 C522 1.383 . S
C517 C513 1.495 . S
C517 H523 0.959 . S
C517 H524 0.961 . S
C517 H525 0.960 . S
C518 C516 1.381 . S
C518 C519 1.394 1_565 S
C518 H526 0.930 . S
C519 C518 1.394 1_545 S
C519 C520 1.383 . S
C519 H527 0.929 . S
C520 C519 1.383 . S
C520 C521 1.377 . S
C521 H505 0.930 . S
C521 C520 1.377 . S
C521 C522 1.379 1_545 S
C522 H506 0.931 . S
C522 C516 1.383 . S
C522 C521 1.379 1_565 S
H523 C517 0.959 . S
H524 C517 0.961 . S
H525 C517 0.960 . S
H526 C518 0.930 . S
H527 C519 0.929 . S
H528 C536 0.929 . S
H529 C538 0.930 . S
H530 C540 0.930 . S
H531 C543 0.929 . S
H532 C546 0.930 . S
H533 C548 0.960 . S
H534 C548 0.960 . S
H535 C548 0.960 . S
C536 H528 0.929 . S
C536 C537 1.377 . S
C536 C538 1.384 . S
C537 C536 1.377 . S
C537 C543 1.390 . S
C538 H529 0.930 . S
C538 C536 1.384 . S
C538 C539 1.372 . S
C539 C538 1.372 . S
C539 C540 1.400 . S
C539 C544 1.490 . S
C540 H530 0.930 . S
C540 C539 1.400 . S
C540 C543 1.386 . S
H541 C557 0.930 1_554 S
H542 C558 0.931 . S
C543 H531 0.929 . S
C543 C537 1.390 . S
C543 C540 1.386 . S
C544 C539 1.490 . S
C544 C546 1.395 . S
C544 C547 1.403 . S
H545 C551 0.930 . S
C546 H532 0.930 . S
C546 C544 1.395 . S
C546 C549 1.403 . S
C547 C544 1.403 . S
C547 C548 1.524 . S
C547 C551 1.400 . S
C548 H533 0.960 . S
C548 H534 0.960 . S
C548 H535 0.960 . S
C548 C547 1.524 . S
C549 C546 1.403 . S
C549 C550 1.392 . S
C549 C553 1.495 . S
C550 C549 1.392 . S
C550 C551 1.385 . S
C550 C552 1.478 . S
C551 H545 0.930 . S
C551 C547 1.400 . S
C551 C550 1.385 . S
C552 C550 1.478 . S
C552 C554 1.381 . S
C552 C558 1.383 . S
C553 C549 1.495 . S
C553 H559 0.959 . S
C553 H560 0.961 . S
C553 H561 0.960 . S
C554 C552 1.381 . S
C554 C555 1.394 . S
C554 H562 0.930 . S
C555 C554 1.394 . S
C555 C556 1.383 . S
C555 H563 0.929 . S
C556 C555 1.383 . S
C556 C557 1.377 . S
C557 H541 0.930 1_556 S
C557 C556 1.377 . S
C557 C558 1.379 . S
C558 H542 0.931 . S
C558 C552 1.383 . S
C558 C557 1.379 . S
H559 C553 0.959 . S
H560 C553 0.961 . S
H561 C553 0.960 . S
H562 C554 0.930 . S
H563 C555 0.929 . S
H564 C572 0.929 . S
H565 C574 0.930 . S
H566 C576 0.930 . S
H567 C579 0.929 . S
H568 C582 0.930 . S
H569 C584 0.960 . S
H570 C584 0.960 . S
H571 C584 0.960 . S
C572 H564 0.929 . S
C572 C573 1.377 . S
C572 C574 1.384 . S
C573 C572 1.377 . S
C573 C579 1.390 . S
C574 H565 0.930 . S
C574 C572 1.384 . S
C574 C575 1.372 . S
C575 C574 1.372 . S
C575 C576 1.400 . S
C575 C580 1.490 . S
C576 H566 0.930 . S
C576 C575 1.400 . S
C576 C579 1.386 . S
H577 C593 0.930 . S
H578 C594 0.931 . S
C579 H567 0.929 . S
C579 C573 1.390 . S
C579 C576 1.386 . S
C580 C575 1.490 . S
C580 C582 1.395 . S
C580 C583 1.403 . S
H581 C587 0.930 . S
C582 H568 0.930 . S
C582 C580 1.395 . S
C582 C585 1.403 . S
C583 C580 1.403 . S
C583 C584 1.524 . S
C583 C587 1.400 . S
C584 H569 0.960 . S
C584 H570 0.960 . S
C584 H571 0.960 . S
C584 C583 1.524 . S
C585 C582 1.403 . S
C585 C586 1.392 . S
C585 C589 1.495 . S
C586 C585 1.392 . S
C586 C587 1.385 . S
C586 C588 1.478 . S
C587 H581 0.930 . S
C587 C583 1.400 . S
C587 C586 1.385 . S
C588 C586 1.478 . S
C588 C590 1.381 . S
C588 C594 1.383 . S
C589 C585 1.495 . S
C589 H595 0.959 . S
C589 H596 0.961 . S
C589 H597 0.960 . S
C590 C588 1.381 . S
C590 C591 1.394 . S
C590 H598 0.930 . S
C591 C590 1.394 . S
C591 C592 1.383 . S
C591 H599 0.929 . S
C592 C591 1.383 . S
C592 C593 1.377 . S
C593 H577 0.930 . S
C593 C592 1.377 . S
C593 C594 1.379 . S
C594 H578 0.931 . S
C594 C588 1.383 . S
C594 C593 1.379 . S
H595 C589 0.959 . S
H596 C589 0.961 . S
H597 C589 0.960 . S
H598 C590 0.930 . S
H599 C591 0.929 . S
H600 C608 0.929 . S
H601 C610 0.930 . S
H602 C612 0.930 . S
H603 C615 0.929 . S
H604 C618 0.930 . S
H605 C620 0.960 . S
H606 C620 0.960 . S
H607 C620 0.960 . S
C608 H600 0.929 . S
C608 C609 1.377 . S
C608 C610 1.384 . S
C609 C608 1.377 . S
C609 C615 1.390 . S
C610 H601 0.930 . S
C610 C608 1.384 . S
C610 C611 1.372 . S
C611 C610 1.372 . S
C611 C612 1.400 . S
C611 C616 1.490 . S
C612 H602 0.930 . S
C612 C611 1.400 . S
C612 C615 1.386 . S
H613 C629 0.930 . S
H614 C630 0.931 . S
C615 H603 0.929 . S
C615 C609 1.390 . S
C615 C612 1.386 . S
C616 C611 1.490 . S
C616 C618 1.395 . S
C616 C619 1.403 . S
H617 C623 0.930 . S
C618 H604 0.930 . S
C618 C616 1.395 . S
C618 C621 1.403 . S
C619 C616 1.403 . S
C619 C620 1.524 . S
C619 C623 1.400 . S
C620 H605 0.960 . S
C620 H606 0.960 . S
C620 H607 0.960 . S
C620 C619 1.524 . S
C621 C618 1.403 . S
C621 C622 1.392 . S
C621 C625 1.495 . S
C622 C621 1.392 . S
C622 C623 1.385 . S
C622 C624 1.478 . S
C623 H617 0.930 . S
C623 C619 1.400 . S
C623 C622 1.385 . S
C624 C622 1.478 . S
C624 C626 1.381 . S
C624 C630 1.383 . S
C625 C621 1.495 . S
C625 H631 0.959 . S
C625 H632 0.961 . S
C625 H633 0.960 . S
C626 C624 1.381 . S
C626 C627 1.394 . S
C626 H634 0.930 . S
C627 C626 1.394 . S
C627 C628 1.383 . S
C627 H635 0.929 . S
C628 C627 1.383 . S
C628 C629 1.377 . S
C629 H613 0.930 . S
C629 C628 1.377 . S
C629 C630 1.379 . S
C630 H614 0.931 . S
C630 C624 1.383 . S
C630 C629 1.379 . S
H631 C625 0.959 . S
H632 C625 0.961 . S
H633 C625 0.960 . S
H634 C626 0.930 . S
H635 C627 0.929 . S
H636 C644 0.929 . S
H637 C646 0.930 . S
H638 C648 0.930 . S
H639 C651 0.929 . S
H640 C654 0.930 . S
H641 C656 0.960 . S
H642 C656 0.960 1_556 S
H643 C656 0.960 . S
C644 H636 0.929 . S
C644 C645 1.377 . S
C644 C646 1.384 . S
C645 C644 1.377 . S
C645 C651 1.390 . S
C646 H637 0.930 . S
C646 C644 1.384 . S
C646 C647 1.372 . S
C647 C646 1.372 . S
C647 C648 1.400 . S
C647 C652 1.490 . S
C648 H638 0.930 . S
C648 C647 1.400 . S
C648 C651 1.386 . S
H649 C665 0.930 . S
H650 C666 0.931 . S
C651 H639 0.929 . S
C651 C645 1.390 . S
C651 C648 1.386 . S
C652 C647 1.490 . S
C652 C654 1.395 . S
C652 C655 1.403 . S
H653 C659 0.930 1_554 S
C654 H640 0.930 . S
C654 C652 1.395 . S
C654 C657 1.403 . S
C655 C652 1.403 . S
C655 C656 1.524 1_556 S
C655 C659 1.400 . S
C656 H641 0.960 . S
C656 H642 0.960 1_554 S
C656 H643 0.960 . S
C656 C655 1.524 1_554 S
C657 C654 1.403 . S
C657 C658 1.392 . S
C657 C661 1.495 . S
C658 C657 1.392 . S
C658 C659 1.385 . S
C658 C660 1.478 . S
C659 H653 0.930 1_556 S
C659 C655 1.400 . S
C659 C658 1.385 . S
C660 C658 1.478 . S
C660 C662 1.381 . S
C660 C666 1.383 1_556 S
C661 C657 1.495 . S
C661 H667 0.959 . S
C661 H668 0.961 . S
C661 H669 0.960 . S
C662 C660 1.381 . S
C662 C663 1.394 1_556 S
C662 H670 0.930 . S
C663 C662 1.394 1_554 S
C663 C664 1.383 . S
C663 H671 0.929 1_554 S
C664 C663 1.383 . S
C664 C665 1.377 . S
C665 H649 0.930 . S
C665 C664 1.377 . S
C665 C666 1.379 . S
C666 H650 0.931 . S
C666 C660 1.383 1_554 S
C666 C665 1.379 . S
H667 C661 0.959 . S
H668 C661 0.961 . S
H669 C661 0.960 . S
H670 C662 0.930 . S
H671 C663 0.929 1_556 S
H672 C680 0.929 . S
H673 C682 0.930 . S
H674 C684 0.930 . S
H675 C687 0.929 . S
H676 C690 0.930 . S
H677 C692 0.960 . S
H678 C692 0.960 . S
H679 C692 0.960 . S
C680 H672 0.929 . S
C680 C681 1.377 . S
C680 C682 1.384 . S
C681 C680 1.377 . S
C681 C687 1.390 . S
C682 H673 0.930 . S
C682 C680 1.384 . S
C682 C683 1.372 . S
C683 C682 1.372 . S
C683 C684 1.400 . S
C683 C688 1.490 . S
C684 H674 0.930 . S
C684 C683 1.400 . S
C684 C687 1.386 . S
H685 C701 0.930 . S
H686 C702 0.931 . S
C687 H675 0.929 . S
C687 C681 1.390 . S
C687 C684 1.386 . S
C688 C683 1.490 . S
C688 C690 1.395 . S
C688 C691 1.403 . S
H689 C695 0.930 . S
C690 H676 0.930 . S
C690 C688 1.395 . S
C690 C693 1.403 . S
C691 C688 1.403 . S
C691 C692 1.524 . S
C691 C695 1.400 . S
C692 H677 0.960 . S
C692 H678 0.960 . S
C692 H679 0.960 . S
C692 C691 1.524 . S
C693 C690 1.403 . S
C693 C694 1.392 . S
C693 C697 1.495 . S
C694 C693 1.392 . S
C694 C695 1.385 . S
C694 C696 1.478 . S
C695 H689 0.930 . S
C695 C691 1.400 . S
C695 C694 1.385 . S
C696 C694 1.478 . S
C696 C698 1.381 . S
C696 C702 1.383 . S
C697 C693 1.495 . S
C697 H703 0.959 . S
C697 H704 0.961 . S
C697 H705 0.960 . S
C698 C696 1.381 . S
C698 C699 1.394 . S
C698 H706 0.930 . S
C699 C698 1.394 . S
C699 C700 1.383 . S
C699 H707 0.929 . S
C700 C699 1.383 . S
C700 C701 1.377 . S
C701 H685 0.930 . S
C701 C700 1.377 . S
C701 C702 1.379 . S
C702 H686 0.931 . S
C702 C696 1.383 . S
C702 C701 1.379 . S
H703 C697 0.959 . S
H704 C697 0.961 . S
H705 C697 0.960 . S
H706 C698 0.930 . S
H707 C699 0.929 . S
H708 C716 0.929 . S
H709 C718 0.930 . S
H710 C720 0.930 . S
H711 C723 0.929 . S
H712 C726 0.930 . S
H713 C728 0.960 . S
H714 C728 0.960 . S
H715 C728 0.960 . S
C716 H708 0.929 . S
C716 C717 1.377 . S
C716 C718 1.384 . S
C717 C716 1.377 . S
C717 C723 1.390 . S
C718 H709 0.930 . S
C718 C716 1.384 . S
C718 C719 1.372 . S
C719 C718 1.372 . S
C719 C720 1.400 . S
C719 C724 1.490 . S
C720 H710 0.930 . S
C720 C719 1.400 . S
C720 C723 1.386 . S
H721 C737 0.930 . S
H722 C738 0.931 . S
C723 H711 0.929 . S
C723 C717 1.390 . S
C723 C720 1.386 . S
C724 C719 1.490 . S
C724 C726 1.395 . S
C724 C727 1.403 . S
H725 C731 0.930 . S
C726 H712 0.930 . S
C726 C724 1.395 . S
C726 C729 1.403 . S
C727 C724 1.403 . S
C727 C728 1.524 . S
C727 C731 1.400 . S
C728 H713 0.960 . S
C728 H714 0.960 . S
C728 H715 0.960 . S
C728 C727 1.524 . S
C729 C726 1.403 . S
C729 C730 1.392 . S
C729 C733 1.495 . S
C730 C729 1.392 . S
C730 C731 1.385 . S
C730 C732 1.478 . S
C731 H725 0.930 . S
C731 C727 1.400 . S
C731 C730 1.385 . S
C732 C730 1.478 . S
C732 C734 1.381 . S
C732 C738 1.383 . S
C733 C729 1.495 . S
C733 H739 0.959 . S
C733 H740 0.961 . S
C733 H741 0.960 . S
C734 C732 1.381 . S
C734 C735 1.394 . S
C734 H742 0.930 . S
C735 C734 1.394 . S
C735 C736 1.383 . S
C735 H743 0.929 . S
C736 C735 1.383 . S
C736 C737 1.377 . S
C737 H721 0.930 . S
C737 C736 1.377 . S
C737 C738 1.379 . S
C738 H722 0.931 . S
C738 C732 1.383 . S
C738 C737 1.379 . S
H739 C733 0.959 . S
H740 C733 0.961 . S
H741 C733 0.960 . S
H742 C734 0.930 . S
H743 C735 0.929 . S
H744 C752 0.929 . S
H745 C754 0.930 . S
H746 C756 0.930 . S
H747 C759 0.929 . S
H748 C762 0.930 . S
H749 C764 0.960 . S
H750 C764 0.960 . S
H751 C764 0.960 . S
C752 H744 0.929 . S
C752 C753 1.377 . S
C752 C754 1.384 . S
C753 C752 1.377 . S
C753 C759 1.390 . S
C754 H745 0.930 . S
C754 C752 1.384 . S
C754 C755 1.372 . S
C755 C754 1.372 . S
C755 C756 1.400 . S
C755 C760 1.490 . S
C756 H746 0.930 . S
C756 C755 1.400 . S
C756 C759 1.386 . S
H757 C773 0.930 . S
H758 C774 0.931 . S
C759 H747 0.929 . S
C759 C753 1.390 . S
C759 C756 1.386 . S
C760 C755 1.490 . S
C760 C762 1.395 . S
C760 C763 1.403 . S
H761 C767 0.930 . S
C762 H748 0.930 . S
C762 C760 1.395 . S
C762 C765 1.403 . S
C763 C760 1.403 . S
C763 C764 1.524 . S
C763 C767 1.400 . S
C764 H749 0.960 . S
C764 H750 0.960 . S
C764 H751 0.960 . S
C764 C763 1.524 . S
C765 C762 1.403 . S
C765 C766 1.392 . S
C765 C769 1.495 . S
C766 C765 1.392 . S
C766 C767 1.385 . S
C766 C768 1.478 . S
C767 H761 0.930 . S
C767 C763 1.400 . S
C767 C766 1.385 . S
C768 C766 1.478 . S
C768 C770 1.381 . S
C768 C774 1.383 . S
C769 C765 1.495 . S
C769 H775 0.959 . S
C769 H776 0.961 . S
C769 H777 0.960 . S
C770 C768 1.381 . S
C770 C771 1.394 . S
C770 H778 0.930 . S
C771 C770 1.394 . S
C771 C772 1.383 . S
C771 H779 0.929 . S
C772 C771 1.383 . S
C772 C773 1.377 . S
C773 H757 0.930 . S
C773 C772 1.377 . S
C773 C774 1.379 . S
C774 H758 0.931 . S
C774 C768 1.383 . S
C774 C773 1.379 . S
H775 C769 0.959 . S
H776 C769 0.961 . S
H777 C769 0.960 . S
H778 C770 0.930 . S
H779 C771 0.929 . S
H780 C788 0.929 . S
H781 C790 0.930 . S
H782 C792 0.930 . S
H783 C795 0.929 . S
H784 C798 0.930 . S
H785 C800 0.960 . S
H786 C800 0.960 . S
H787 C800 0.960 . S
C788 H780 0.929 . S
C788 C789 1.377 . S
C788 C790 1.384 . S
C789 C788 1.377 . S
C789 C795 1.390 . S
C790 H781 0.930 . S
C790 C788 1.384 . S
C790 C791 1.372 . S
C791 C790 1.372 . S
C791 C792 1.400 . S
C791 C796 1.490 . S
C792 H782 0.930 . S
C792 C791 1.400 . S
C792 C795 1.386 . S
H793 C809 0.930 . S
H794 C810 0.931 . S
C795 H783 0.929 . S
C795 C789 1.390 . S
C795 C792 1.386 . S
C796 C791 1.490 . S
C796 C798 1.395 . S
C796 C799 1.403 . S
H797 C803 0.930 . S
C798 H784 0.930 . S
C798 C796 1.395 . S
C798 C801 1.403 . S
C799 C796 1.403 . S
C799 C800 1.524 . S
C799 C803 1.400 . S
C800 H785 0.960 . S
C800 H786 0.960 . S
C800 H787 0.960 . S
C800 C799 1.524 . S
C801 C798 1.403 . S
C801 C802 1.392 . S
C801 C805 1.495 . S
C802 C801 1.392 . S
C802 C803 1.385 . S
C802 C804 1.478 . S
C803 H797 0.930 . S
C803 C799 1.400 . S
C803 C802 1.385 . S
C804 C802 1.478 . S
C804 C806 1.381 . S
C804 C810 1.383 . S
C805 C801 1.495 . S
C805 H811 0.959 . S
C805 H812 0.961 . S
C805 H813 0.960 . S
C806 C804 1.381 . S
C806 C807 1.394 . S
C806 H814 0.930 . S
C807 C806 1.394 . S
C807 C808 1.383 . S
C807 H815 0.929 . S
C808 C807 1.383 . S
C808 C809 1.377 . S
C809 H793 0.930 . S
C809 C808 1.377 . S
C809 C810 1.379 . S
C810 H794 0.931 . S
C810 C804 1.383 . S
C810 C809 1.379 . S
H811 C805 0.959 . S
H812 C805 0.961 . S
H813 C805 0.960 . S
H814 C806 0.930 . S
H815 C807 0.929 . S
H816 C824 0.929 . S
H817 C826 0.930 . S
H818 C828 0.930 . S
H819 C831 0.929 . S
H820 C834 0.930 . S
H821 C836 0.960 . S
H822 C836 0.960 . S
H823 C836 0.960 . S
C824 H816 0.929 . S
C824 C825 1.377 . S
C824 C826 1.384 . S
C825 C824 1.377 . S
C825 C831 1.390 . S
C826 H817 0.930 . S
C826 C824 1.384 . S
C826 C827 1.372 . S
C827 C826 1.372 . S
C827 C828 1.400 . S
C827 C832 1.490 . S
C828 H818 0.930 . S
C828 C827 1.400 . S
C828 C831 1.386 . S
H829 C845 0.930 . S
H830 C846 0.931 . S
C831 H819 0.929 . S
C831 C825 1.390 . S
C831 C828 1.386 . S
C832 C827 1.490 . S
C832 C834 1.395 . S
C832 C835 1.403 . S
H833 C839 0.930 . S
C834 H820 0.930 . S
C834 C832 1.395 . S
C834 C837 1.403 . S
C835 C832 1.403 . S
C835 C836 1.524 . S
C835 C839 1.400 . S
C836 H821 0.960 . S
C836 H822 0.960 . S
C836 H823 0.960 . S
C836 C835 1.524 . S
C837 C834 1.403 . S
C837 C838 1.392 . S
C837 C841 1.495 . S
C838 C837 1.392 . S
C838 C839 1.385 . S
C838 C840 1.478 . S
C839 H833 0.930 . S
C839 C835 1.400 . S
C839 C838 1.385 . S
C840 C838 1.478 . S
C840 C842 1.381 . S
C840 C846 1.383 . S
C841 C837 1.495 . S
C841 H847 0.959 . S
C841 H848 0.961 . S
C841 H849 0.960 . S
C842 C840 1.381 . S
C842 C843 1.394 . S
C842 H850 0.930 . S
C843 C842 1.394 . S
C843 C844 1.383 . S
C843 H851 0.929 . S
C844 C843 1.383 . S
C844 C845 1.377 . S
C845 H829 0.930 . S
C845 C844 1.377 . S
C845 C846 1.379 . S
C846 H830 0.931 . S
C846 C840 1.383 . S
C846 C845 1.379 . S
H847 C841 0.959 . S
H848 C841 0.961 . S
H849 C841 0.960 . S
H850 C842 0.930 . S
H851 C843 0.929 . S
H852 C860 0.929 . S
H853 C862 0.930 . S
H854 C864 0.930 . S
H855 C867 0.929 . S
H856 C870 0.930 . S
H857 C872 0.960 . S
H858 C872 0.960 . S
H859 C872 0.960 . S
C860 H852 0.929 . S
C860 C861 1.377 . S
C860 C862 1.384 . S
C861 C860 1.377 . S
C861 C867 1.390 . S
C862 H853 0.930 . S
C862 C860 1.384 . S
C862 C863 1.372 . S
C863 C862 1.372 . S
C863 C864 1.400 . S
C863 C868 1.490 . S
C864 H854 0.930 . S
C864 C863 1.400 . S
C864 C867 1.386 . S
H865 C881 0.930 . S
H866 C882 0.931 . S
C867 H855 0.929 . S
C867 C861 1.390 . S
C867 C864 1.386 . S
C868 C863 1.490 . S
C868 C870 1.395 . S
C868 C871 1.403 . S
H869 C875 0.930 . S
C870 H856 0.930 . S
C870 C868 1.395 . S
C870 C873 1.403 . S
C871 C868 1.403 . S
C871 C872 1.524 . S
C871 C875 1.400 . S
C872 H857 0.960 . S
C872 H858 0.960 . S
C872 H859 0.960 . S
C872 C871 1.524 . S
C873 C870 1.403 . S
C873 C874 1.392 . S
C873 C877 1.495 . S
C874 C873 1.392 . S
C874 C875 1.385 . S
C874 C876 1.478 . S
C875 H869 0.930 . S
C875 C871 1.400 . S
C875 C874 1.385 . S
C876 C874 1.478 . S
C876 C878 1.381 . S
C876 C882 1.383 . S
C877 C873 1.495 . S
C877 H883 0.959 . S
C877 H884 0.961 . S
C877 H885 0.960 . S
C878 C876 1.381 . S
C878 C879 1.394 . S
C878 H886 0.930 . S
C879 C878 1.394 . S
C879 C880 1.383 . S
C879 H887 0.929 . S
C880 C879 1.383 . S
C880 C881 1.377 . S
C881 H865 0.930 . S
C881 C880 1.377 . S
C881 C882 1.379 . S
C882 H866 0.931 . S
C882 C876 1.383 . S
C882 C881 1.379 . S
H883 C877 0.959 . S
H884 C877 0.961 . S
H885 C877 0.960 . S
H886 C878 0.930 . S
H887 C879 0.929 . S
H888 C896 0.929 . S
H889 C898 0.930 . S
H890 C900 0.930 . S
H891 C903 0.929 . S
H892 C906 0.930 . S
H893 C908 0.960 . S
H894 C908 0.960 . S
H895 C908 0.960 . S
C896 H888 0.929 . S
C896 C897 1.377 . S
C896 C898 1.384 . S
C897 C896 1.377 . S
C897 C903 1.390 . S
C898 H889 0.930 . S
C898 C896 1.384 . S
C898 C899 1.372 . S
C899 C898 1.372 . S
C899 C900 1.400 . S
C899 C904 1.490 . S
C900 H890 0.930 . S
C900 C899 1.400 . S
C900 C903 1.386 . S
H901 C917 0.930 . S
H902 C918 0.931 . S
C903 H891 0.929 . S
C903 C897 1.390 . S
C903 C900 1.386 . S
C904 C899 1.490 . S
C904 C906 1.395 . S
C904 C907 1.403 . S
H905 C911 0.930 . S
C906 H892 0.930 . S
C906 C904 1.395 . S
C906 C909 1.403 . S
C907 C904 1.403 . S
C907 C908 1.524 . S
C907 C911 1.400 . S
C908 H893 0.960 . S
C908 H894 0.960 . S
C908 H895 0.960 . S
C908 C907 1.524 . S
C909 C906 1.403 . S
C909 C910 1.392 . S
C909 C913 1.495 . S
C910 C909 1.392 . S
C910 C911 1.385 . S
C910 C912 1.478 . S
C911 H905 0.930 . S
C911 C907 1.400 . S
C911 C910 1.385 . S
C912 C910 1.478 . S
C912 C914 1.381 1_556 S
C912 C918 1.383 . S
C913 C909 1.495 . S
C913 H919 0.959 . S
C913 H920 0.961 . S
C913 H921 0.960 . S
C914 C912 1.381 1_554 S
C914 C915 1.394 . S
C914 H922 0.930 . S
C915 C914 1.394 . S
C915 C916 1.383 . S
C915 H923 0.929 . S
C916 C915 1.383 . S
C916 C917 1.377 1_554 S
C917 H901 0.930 . S
C917 C916 1.377 1_556 S
C917 C918 1.379 . S
C918 H902 0.931 . S
C918 C912 1.383 . S
C918 C917 1.379 . S
H919 C913 0.959 . S
H920 C913 0.961 . S
H921 C913 0.960 . S
H922 C914 0.930 . S
H923 C915 0.929 . S
H924 C932 0.929 . S
H925 C934 0.930 . S
H926 C936 0.930 . S
H927 C939 0.929 . S
H928 C942 0.930 . S
H929 C944 0.960 . S
H930 C944 0.960 . S
H931 C944 0.960 . S
C932 H924 0.929 . S
C932 C933 1.377 . S
C932 C934 1.384 . S
C933 C932 1.377 . S
C933 C939 1.390 . S
C934 H925 0.930 . S
C934 C932 1.384 . S
C934 C935 1.372 . S
C935 C934 1.372 . S
C935 C936 1.400 . S
C935 C940 1.490 . S
C936 H926 0.930 . S
C936 C935 1.400 . S
C936 C939 1.386 . S
H937 C953 0.930 . S
H938 C954 0.931 . S
C939 H927 0.929 . S
C939 C933 1.390 . S
C939 C936 1.386 . S
C940 C935 1.490 . S
C940 C942 1.395 . S
C940 C943 1.403 . S
H941 C947 0.930 . S
C942 H928 0.930 . S
C942 C940 1.395 . S
C942 C945 1.403 . S
C943 C940 1.403 . S
C943 C944 1.524 . S
C943 C947 1.400 . S
C944 H929 0.960 . S
C944 H930 0.960 . S
C944 H931 0.960 . S
C944 C943 1.524 . S
C945 C942 1.403 . S
C945 C946 1.392 . S
C945 C949 1.495 . S
C946 C945 1.392 . S
C946 C947 1.385 . S
C946 C948 1.478 . S
C947 H941 0.930 . S
C947 C943 1.400 . S
C947 C946 1.385 . S
C948 C946 1.478 . S
C948 C950 1.381 . S
C948 C954 1.383 . S
C949 C945 1.495 . S
C949 H955 0.959 . S
C949 H956 0.961 . S
C949 H957 0.960 . S
C950 C948 1.381 . S
C950 C951 1.394 . S
C950 H958 0.930 . S
C951 C950 1.394 . S
C951 C952 1.383 . S
C951 H959 0.929 . S
C952 C951 1.383 . S
C952 C953 1.377 . S
C953 H937 0.930 . S
C953 C952 1.377 . S
C953 C954 1.379 . S
C954 H938 0.931 . S
C954 C948 1.383 . S
C954 C953 1.379 . S
H955 C949 0.959 . S
H956 C949 0.961 . S
H957 C949 0.960 . S
H958 C950 0.930 . S
H959 C951 0.929 . S
H960 C968 0.929 . S
H961 C970 0.930 . S
H962 C972 0.930 . S
H963 C975 0.929 . S
H964 C978 0.930 . S
H965 C980 0.960 . S
H966 C980 0.960 . S
H967 C980 0.960 . S
C968 H960 0.929 . S
C968 C969 1.377 . S
C968 C970 1.384 . S
C969 C968 1.377 . S
C969 C975 1.390 . S
C970 H961 0.930 . S
C970 C968 1.384 . S
C970 C971 1.372 . S
C971 C970 1.372 . S
C971 C972 1.400 . S
C971 C976 1.490 . S
C972 H962 0.930 . S
C972 C971 1.400 . S
C972 C975 1.386 . S
H973 C989 0.930 . S
H974 C990 0.931 . S
C975 H963 0.929 . S
C975 C969 1.390 . S
C975 C972 1.386 . S
C976 C971 1.490 . S
C976 C978 1.395 . S
C976 C979 1.403 . S
H977 C983 0.930 . S
C978 H964 0.930 . S
C978 C976 1.395 . S
C978 C981 1.403 . S
C979 C976 1.403 . S
C979 C980 1.524 . S
C979 C983 1.400 . S
C980 H965 0.960 . S
C980 H966 0.960 . S
C980 H967 0.960 . S
C980 C979 1.524 . S
C981 C978 1.403 . S
C981 C982 1.392 . S
C981 C985 1.495 . S
C982 C981 1.392 . S
C982 C983 1.385 . S
C982 C984 1.478 . S
C983 H977 0.930 . S
C983 C979 1.400 . S
C983 C982 1.385 . S
C984 C982 1.478 . S
C984 C986 1.381 . S
C984 C990 1.383 . S
C985 C981 1.495 . S
C985 H991 0.959 . S
C985 H992 0.961 . S
C985 H993 0.960 . S
C986 C984 1.381 . S
C986 C987 1.394 . S
C986 H994 0.930 . S
C987 C986 1.394 . S
C987 C988 1.383 . S
C987 H995 0.929 . S
C988 C987 1.383 . S
C988 C989 1.377 . S
C989 H973 0.930 . S
C989 C988 1.377 . S
C989 C990 1.379 . S
C990 H974 0.931 . S
C990 C984 1.383 . S
C990 C989 1.379 . S
H991 C985 0.959 . S
H992 C985 0.961 . S
H993 C985 0.960 . S
H994 C986 0.930 . S
H995 C987 0.929 . S
H996 C1004 0.929 . S
H997 C1006 0.930 . S
H998 C1008 0.930 . S
H999 C1011 0.929 . S
H1000 C1014 0.930 . S
H1001 C1016 0.960 . S
H1002 C1016 0.960 . S
H1003 C1016 0.960 . S
C1004 H996 0.929 . S
C1004 C1005 1.377 . S
C1004 C1006 1.384 . S
C1005 C1004 1.377 . S
C1005 C1011 1.390 . S
C1006 H997 0.930 . S
C1006 C1004 1.384 . S
C1006 C1007 1.372 . S
C1007 C1006 1.372 . S
C1007 C1008 1.400 . S
C1007 C1012 1.490 . S
C1008 H998 0.930 . S
C1008 C1007 1.400 . S
C1008 C1011 1.386 . S
H1009 C1025 0.930 . S
H1010 C1026 0.931 . S
C1011 H999 0.929 . S
C1011 C1005 1.390 . S
C1011 C1008 1.386 . S
C1012 C1007 1.490 . S
C1012 C1014 1.395 . S
C1012 C1015 1.403 . S
H1013 C1019 0.930 . S
C1014 H1000 0.930 . S
C1014 C1012 1.395 . S
C1014 C1017 1.403 . S
C1015 C1012 1.403 . S
C1015 C1016 1.524 . S
C1015 C1019 1.400 . S
C1016 H1001 0.960 . S
C1016 H1002 0.960 . S
C1016 H1003 0.960 . S
C1016 C1015 1.524 . S
C1017 C1014 1.403 . S
C1017 C1018 1.392 . S
C1017 C1021 1.495 . S
C1018 C1017 1.392 . S
C1018 C1019 1.385 . S
C1018 C1020 1.478 . S
C1019 H1013 0.930 . S
C1019 C1015 1.400 . S
C1019 C1018 1.385 . S
C1020 C1018 1.478 . S
C1020 C1022 1.381 . S
C1020 C1026 1.383 . S
C1021 C1017 1.495 . S
C1021 H1027 0.959 . S
C1021 H1028 0.961 . S
C1021 H1029 0.960 . S
C1022 C1020 1.381 . S
C1022 C1023 1.394 . S
C1022 H1030 0.930 . S
C1023 C1022 1.394 . S
C1023 C1024 1.383 . S
C1023 H1031 0.929 . S
C1024 C1023 1.383 . S
C1024 C1025 1.377 . S
C1025 H1009 0.930 . S
C1025 C1024 1.377 . S
C1025 C1026 1.379 . S
C1026 H1010 0.931 . S
C1026 C1020 1.383 . S
C1026 C1025 1.379 . S
H1027 C1021 0.959 . S
H1028 C1021 0.961 . S
H1029 C1021 0.960 . S
H1030 C1022 0.930 . S
H1031 C1023 0.929 . S
H1032 C1040 0.929 . S
H1033 C1042 0.930 . S
H1034 C1044 0.930 . S
H1035 C1047 0.929 . S
H1036 C1050 0.930 . S
H1037 C1052 0.960 . S
H1038 C1052 0.960 . S
H1039 C1052 0.960 . S
C1040 H1032 0.929 . S
C1040 C1041 1.377 . S
C1040 C1042 1.384 . S
C1041 C1040 1.377 . S
C1041 C1047 1.390 . S
C1042 H1033 0.930 . S
C1042 C1040 1.384 . S
C1042 C1043 1.372 . S
C1043 C1042 1.372 . S
C1043 C1044 1.400 . S
C1043 C1048 1.490 . S
C1044 H1034 0.930 . S
C1044 C1043 1.400 . S
C1044 C1047 1.386 . S
H1045 C1061 0.930 . S
H1046 C1062 0.931 . S
C1047 H1035 0.929 . S
C1047 C1041 1.390 . S
C1047 C1044 1.386 . S
C1048 C1043 1.490 . S
C1048 C1050 1.395 . S
C1048 C1051 1.403 . S
H1049 C1055 0.930 . S
C1050 H1036 0.930 . S
C1050 C1048 1.395 . S
C1050 C1053 1.403 . S
C1051 C1048 1.403 . S
C1051 C1052 1.524 . S
C1051 C1055 1.400 . S
C1052 H1037 0.960 . S
C1052 H1038 0.960 . S
C1052 H1039 0.960 . S
C1052 C1051 1.524 . S
C1053 C1050 1.403 . S
C1053 C1054 1.392 . S
C1053 C1057 1.495 . S
C1054 C1053 1.392 . S
C1054 C1055 1.385 . S
C1054 C1056 1.478 . S
C1055 H1049 0.930 . S
C1055 C1051 1.400 . S
C1055 C1054 1.385 . S
C1056 C1054 1.478 . S
C1056 C1058 1.381 . S
C1056 C1062 1.383 . S
C1057 C1053 1.495 . S
C1057 H1063 0.959 . S
C1057 H1064 0.961 . S
C1057 H1065 0.960 . S
C1058 C1056 1.381 . S
C1058 C1059 1.394 . S
C1058 H1066 0.930 . S
C1059 C1058 1.394 . S
C1059 C1060 1.383 . S
C1059 H1067 0.929 . S
C1060 C1059 1.383 . S
C1060 C1061 1.377 . S
C1061 H1045 0.930 . S
C1061 C1060 1.377 . S
C1061 C1062 1.379 . S
C1062 H1046 0.931 . S
C1062 C1056 1.383 . S
C1062 C1061 1.379 . S
H1063 C1057 0.959 . S
H1064 C1057 0.961 . S
H1065 C1057 0.960 . S
H1066 C1058 0.930 . S
H1067 C1059 0.929 . S
H1068 C1076 0.929 . S
H1069 C1078 0.930 . S
H1070 C1080 0.930 . S
H1071 C1083 0.929 . S
H1072 C1086 0.930 . S
H1073 C1088 0.960 . S
H1074 C1088 0.960 . S
H1075 C1088 0.960 . S
C1076 H1068 0.929 . S
C1076 C1077 1.377 . S
C1076 C1078 1.384 . S
C1077 C1076 1.377 . S
C1077 C1083 1.390 . S
C1078 H1069 0.930 . S
C1078 C1076 1.384 . S
C1078 C1079 1.372 . S
C1079 C1078 1.372 . S
C1079 C1080 1.400 . S
C1079 C1084 1.490 . S
C1080 H1070 0.930 . S
C1080 C1079 1.400 . S
C1080 C1083 1.386 . S
H1081 C1097 0.930 . S
H1082 C1098 0.931 . S
C1083 H1071 0.929 . S
C1083 C1077 1.390 . S
C1083 C1080 1.386 . S
C1084 C1079 1.490 . S
C1084 C1086 1.395 . S
C1084 C1087 1.403 . S
H1085 C1091 0.930 . S
C1086 H1072 0.930 . S
C1086 C1084 1.395 . S
C1086 C1089 1.403 . S
C1087 C1084 1.403 . S
C1087 C1088 1.524 . S
C1087 C1091 1.400 . S
C1088 H1073 0.960 . S
C1088 H1074 0.960 . S
C1088 H1075 0.960 . S
C1088 C1087 1.524 . S
C1089 C1086 1.403 . S
C1089 C1090 1.392 . S
C1089 C1093 1.495 . S
C1090 C1089 1.392 . S
C1090 C1091 1.385 . S
C1090 C1092 1.478 . S
C1091 H1085 0.930 . S
C1091 C1087 1.400 . S
C1091 C1090 1.385 . S
C1092 C1090 1.478 . S
C1092 C1094 1.381 . S
C1092 C1098 1.383 . S
C1093 C1089 1.495 . S
C1093 H1099 0.959 . S
C1093 H1100 0.961 . S
C1093 H1101 0.960 . S
C1094 C1092 1.381 . S
C1094 C1095 1.394 . S
C1094 H1102 0.930 . S
C1095 C1094 1.394 . S
C1095 C1096 1.383 . S
C1095 H1103 0.929 . S
C1096 C1095 1.383 . S
C1096 C1097 1.377 . S
C1097 H1081 0.930 . S
C1097 C1096 1.377 . S
C1097 C1098 1.379 . S
C1098 H1082 0.931 . S
C1098 C1092 1.383 . S
C1098 C1097 1.379 . S
H1099 C1093 0.959 . S
H1100 C1093 0.961 . S
H1101 C1093 0.960 . S
H1102 C1094 0.930 . S
H1103 C1095 0.929 . S
H1104 C1112 0.929 . S
H1105 C1114 0.930 . S
H1106 C1116 0.930 . S
H1107 C1119 0.929 . S
H1108 C1122 0.930 . S
H1109 C1124 0.960 . S
H1110 C1124 0.960 . S
H1111 C1124 0.960 . S
C1112 H1104 0.929 . S
C1112 C1113 1.377 . S
C1112 C1114 1.384 . S
C1113 C1112 1.377 . S
C1113 C1119 1.390 . S
C1114 H1105 0.930 . S
C1114 C1112 1.384 . S
C1114 C1115 1.372 . S
C1115 C1114 1.372 . S
C1115 C1116 1.400 . S
C1115 C1120 1.490 . S
C1116 H1106 0.930 . S
C1116 C1115 1.400 . S
C1116 C1119 1.386 . S
H1117 C1133 0.930 . S
H1118 C1134 0.931 . S
C1119 H1107 0.929 . S
C1119 C1113 1.390 . S
C1119 C1116 1.386 . S
C1120 C1115 1.490 . S
C1120 C1122 1.395 . S
C1120 C1123 1.403 . S
H1121 C1127 0.930 . S
C1122 H1108 0.930 . S
C1122 C1120 1.395 . S
C1122 C1125 1.403 . S
C1123 C1120 1.403 . S
C1123 C1124 1.524 . S
C1123 C1127 1.400 . S
C1124 H1109 0.960 . S
C1124 H1110 0.960 . S
C1124 H1111 0.960 . S
C1124 C1123 1.524 . S
C1125 C1122 1.403 . S
C1125 C1126 1.392 . S
C1125 C1129 1.495 . S
C1126 C1125 1.392 . S
C1126 C1127 1.385 . S
C1126 C1128 1.478 . S
C1127 H1121 0.930 . S
C1127 C1123 1.400 . S
C1127 C1126 1.385 . S
C1128 C1126 1.478 . S
C1128 C1130 1.381 . S
C1128 C1134 1.383 . S
C1129 C1125 1.495 . S
C1129 H1135 0.959 . S
C1129 H1136 0.961 . S
C1129 H1137 0.960 . S
C1130 C1128 1.381 . S
C1130 C1131 1.394 . S
C1130 H1138 0.930 . S
C1131 C1130 1.394 . S
C1131 C1132 1.383 . S
C1131 H1139 0.929 . S
C1132 C1131 1.383 . S
C1132 C1133 1.377 . S
C1133 H1117 0.930 . S
C1133 C1132 1.377 . S
C1133 C1134 1.379 . S
C1134 H1118 0.931 . S
C1134 C1128 1.383 . S
C1134 C1133 1.379 . S
H1135 C1129 0.959 . S
H1136 C1129 0.961 . S
H1137 C1129 0.960 . S
H1138 C1130 0.930 . S
H1139 C1131 0.929 . S
H1140 C1148 0.929 . S
H1141 C1150 0.930 . S
H1142 C1152 0.930 . S
H1143 C1155 0.929 . S
H1144 C1158 0.930 . S
H1145 C1160 0.960 . S
H1146 C1160 0.960 . S
H1147 C1160 0.960 . S
C1148 H1140 0.929 . S
C1148 C1149 1.377 . S
C1148 C1150 1.384 . S
C1149 C1148 1.377 . S
C1149 C1155 1.390 . S
C1150 H1141 0.930 . S
C1150 C1148 1.384 . S
C1150 C1151 1.372 . S
C1151 C1150 1.372 . S
C1151 C1152 1.400 . S
C1151 C1156 1.490 . S
C1152 H1142 0.930 . S
C1152 C1151 1.400 . S
C1152 C1155 1.386 . S
H1153 C1169 0.930 . S
H1154 C1170 0.931 . S
C1155 H1143 0.929 . S
C1155 C1149 1.390 . S
C1155 C1152 1.386 . S
C1156 C1151 1.490 . S
C1156 C1158 1.395 . S
C1156 C1159 1.403 . S
H1157 C1163 0.930 . S
C1158 H1144 0.930 . S
C1158 C1156 1.395 . S
C1158 C1161 1.403 . S
C1159 C1156 1.403 . S
C1159 C1160 1.524 . S
C1159 C1163 1.400 . S
C1160 H1145 0.960 . S
C1160 H1146 0.960 . S
C1160 H1147 0.960 . S
C1160 C1159 1.524 . S
C1161 C1158 1.403 . S
C1161 C1162 1.392 . S
C1161 C1165 1.495 . S
C1162 C1161 1.392 . S
C1162 C1163 1.385 . S
C1162 C1164 1.478 . S
C1163 H1157 0.930 . S
C1163 C1159 1.400 . S
C1163 C1162 1.385 . S
C1164 C1162 1.478 . S
C1164 C1166 1.381 . S
C1164 C1170 1.383 . S
C1165 C1161 1.495 . S
C1165 H1171 0.959 . S
C1165 H1172 0.961 . S
C1165 H1173 0.960 . S
C1166 C1164 1.381 . S
C1166 C1167 1.394 . S
C1166 H1174 0.930 . S
C1167 C1166 1.394 . S
C1167 C1168 1.383 . S
C1167 H1175 0.929 . S
C1168 C1167 1.383 . S
C1168 C1169 1.377 . S
C1169 H1153 0.930 . S
C1169 C1168 1.377 . S
C1169 C1170 1.379 . S
C1170 H1154 0.931 . S
C1170 C1164 1.383 . S
C1170 C1169 1.379 . S
H1171 C1165 0.959 . S
H1172 C1165 0.961 . S
H1173 C1165 0.960 . S
H1174 C1166 0.930 . S
H1175 C1167 0.929 . S
C321 C6 1.195 . S
C340 C158 1.213 . S
C357 C21 1.516 . S
C376 C207 1.524 . S
C412 C242 1.684 . S
C393 C49 1.651 . S
C429 C68 1.968 . S
C448 C281 2.037 1_655 S
C484 C202 3.210 . S
C465 C2 3.129 . S
C520 C161 0.387 . S
C501 C30 0.491 . S
C556 C291 1.768 . S
C537 C40 1.808 . S
C592 C250 1.351 . S
C573 C63 1.359 . S
C609 C11 1.447 . S
C628 C278 1.586 . S
C664 C210 2.605 . S
C645 C44 2.702 . S
C681 C59 1.903 . S
C700 C171 1.881 . S
C717 C25 1.072 . S
C736 C247 1.058 . S
C772 C167 1.542 . S
C753 C82 1.534 . S
C789 C101 1.171 . S
C808 C198 1.183 . S
C825 C125 2.228 . S
C844 C251 2.325 . S
C861 C144 1.637 . S
C880 C290 1.713 . S
C897 C87 1.882 . S
C916 C211 1.988 1_565 S
C952 C170 1.902 . S
C933 C97 1.989 . S
C988 C282 1.521 . S
C969 C120 1.617 . S
C1024 C241 1.334 . S
C1005 C135 1.416 . S
C1041 C78 2.007 . S
C1060 C287 2.082 . S
C1096 C201 1.822 . S
C1077 C116 1.862 . S
C1132 C162 2.659 . S
C1113 C139 2.681 . S
C1149 C106 0.766 . S
C1168 C238 0.812 . S
