# Generated by pormake.
# Topology zzz, (3,6)-cn, num edge types: 1
# Building blocks:
#     Node 0, Type 0, BuildingBlock: QEWDON_clean_linker_0, # of connection points: 3
#     Node 1, Type 0, BuildingBlock: QEWDON_clean_linker_0, # of connection points: 3
#     Node 2, Type 0, BuildingBlock: QEWDON_clean_linker_0, # of connection points: 3
#     Node 3, Type 0, BuildingBlock: QEWDON_clean_linker_0, # of connection points: 3
#     Node 4, Type 0, BuildingBlock: QEWDON_clean_linker_0, # of connection points: 3
#     Node 5, Type 0, BuildingBlock: QEWDON_clean_linker_0, # of connection points: 3
#     Node 6, Type 0, BuildingBlock: QEWDON_clean_linker_0, # of connection points: 3
#     Node 7, Type 0, BuildingBlock: QEWDON_clean_linker_0, # of connection points: 3
#     Node 8, Type 1, BuildingBlock: KUMJIN_clean_sbu_0, # of connection points: 6
#     Node 9, Type 1, BuildingBlock: KUMJIN_clean_sbu_0, # of connection points: 6
#     Node 10, Type 1, BuildingBlock: KUMJIN_clean_sbu_0, # of connection points: 6
#     Node 11, Type 1, BuildingBlock: KUMJIN_clean_sbu_0, # of connection points: 6
#     Edge 12, Type (0, 1), BuildingBlock: EZIPEK_clean_linker_0, # of connection points: 2
#     Edge 13, Type (0, 1), BuildingBlock: EZIPEK_clean_linker_0, # of connection points: 2
#     Edge 14, Type (0, 1), BuildingBlock: EZIPEK_clean_linker_0, # of connection points: 2
#     Edge 15, Type (0, 1), BuildingBlock: EZIPEK_clean_linker_0, # of connection points: 2
#     Edge 16, Type (0, 1), BuildingBlock: EZIPEK_clean_linker_0, # of connection points: 2
#     Edge 17, Type (0, 1), BuildingBlock: EZIPEK_clean_linker_0, # of connection points: 2
#     Edge 18, Type (0, 1), BuildingBlock: EZIPEK_clean_linker_0, # of connection points: 2
#     Edge 19, Type (0, 1), BuildingBlock: EZIPEK_clean_linker_0, # of connection points: 2
#     Edge 20, Type (0, 1), BuildingBlock: EZIPEK_clean_linker_0, # of connection points: 2
#     Edge 21, Type (0, 1), BuildingBlock: EZIPEK_clean_linker_0, # of connection points: 2
#     Edge 22, Type (0, 1), BuildingBlock: EZIPEK_clean_linker_0, # of connection points: 2
#     Edge 23, Type (0, 1), BuildingBlock: EZIPEK_clean_linker_0, # of connection points: 2
#     Edge 24, Type (0, 1), BuildingBlock: EZIPEK_clean_linker_0, # of connection points: 2
#     Edge 25, Type (0, 1), BuildingBlock: EZIPEK_clean_linker_0, # of connection points: 2
#     Edge 26, Type (0, 1), BuildingBlock: EZIPEK_clean_linker_0, # of connection points: 2
#     Edge 27, Type (0, 1), BuildingBlock: EZIPEK_clean_linker_0, # of connection points: 2
#     Edge 28, Type (0, 1), BuildingBlock: EZIPEK_clean_linker_0, # of connection points: 2
#     Edge 29, Type (0, 1), BuildingBlock: EZIPEK_clean_linker_0, # of connection points: 2
#     Edge 30, Type (0, 1), BuildingBlock: EZIPEK_clean_linker_0, # of connection points: 2
#     Edge 31, Type (0, 1), BuildingBlock: EZIPEK_clean_linker_0, # of connection points: 2
#     Edge 32, Type (0, 1), BuildingBlock: EZIPEK_clean_linker_0, # of connection points: 2
#     Edge 33, Type (0, 1), BuildingBlock: EZIPEK_clean_linker_0, # of connection points: 2
#     Edge 34, Type (0, 1), BuildingBlock: EZIPEK_clean_linker_0, # of connection points: 2
#     Edge 35, Type (0, 1), BuildingBlock: EZIPEK_clean_linker_0, # of connection points: 2
# Relax obj value: 0.156
# Max RMSD: 0.166
# Mean RMSD: 0.078
data_MOF--net-zzz--node1-KUMJIN_clean_sbu_0--node2-QEWDON_clean_linker_0--edge1-EZIPEK_clean_linker_0
_symmetry_space_group_name_H-M    P1
_symmetry_Int_Tables_number       1
_symmetry_cell_setting            triclinic
loop_
_symmetry_equiv_pos_as_xyz
'x, y, z'
_cell_length_a     39.950306
_cell_length_b     39.959784
_cell_length_c     11.156172
_cell_angle_alpha  91.66466
_cell_angle_beta   89.687261
_cell_angle_gamma 90.370045
loop_
_atom_site_label
_atom_site_type_symbol
_atom_site_fract_x
_atom_site_fract_y
_atom_site_fract_z
_atom_type_partial_charge
H0 H 0.7689 0.59871 0.15508 0.0
C1 C 0.78694 0.5894 0.21738 0.0
C2 C 0.81872 0.60467 0.2229 0.0
C3 C 0.77817 0.56253 0.29042 0.0
H4 H 0.86619 0.60539 0.31763 0.0
C5 C 0.84164 0.59401 0.31004 0.0
C6 C 0.835 0.56717 0.3843 0.0
C7 C 0.80289 0.55136 0.37419 0.0
C8 C 0.74274 0.54781 0.28123 0.0
H9 H 0.79748 0.53046 0.43076 0.0
C10 C 0.72222 0.54903 0.17487 0.0
C11 C 0.68804 0.53773 0.17502 0.0
C12 C 0.72817 0.53409 0.38394 0.0
H13 H 0.74177 0.53316 0.46734 0.0
C14 C 0.69533 0.52216 0.38295 0.0
H15 H 0.73248 0.55854 0.09257 0.0
C16 C 0.67565 0.52417 0.2809 0.0
H17 H 0.6504 0.5147 0.28413 0.0
H18 H 0.68482 0.51144 0.4627 0.0
H19 H 0.97255 0.78734 0.16531 0.0
C20 C 0.98251 0.80667 0.22469 0.0
C21 C 0.96865 0.83877 0.22135 0.0
C22 C 1.00943 0.79933 0.2996 0.0
H23 H 0.96732 0.8874 0.31411 0.0
C24 C 0.9788 0.863 0.30969 0.0
C25 C 1.00604 0.85832 0.38559 0.0
C26 C 1.02153 0.82588 0.37983 0.0
C27 C 1.0231 0.76348 0.29323 0.0
H28 H 0.04295 0.82169 0.43617 0.0
C29 C 1.01983 0.74115 0.18898 0.0
C30 C 0.02795 0.70621 0.19279 0.0
C31 C 0.03732 0.75023 0.39621 0.0
H32 H 0.04056 0.7655 0.47703 0.0
C33 C 0.04647 0.71663 0.39903 0.0
H34 H 1.01102 0.75064 0.10506 0.0
C35 C 0.04059 0.69477 0.30159 0.0
H36 H 0.04701 0.66865 0.3104 0.0
H37 H 0.05781 0.70717 0.4789 0.0
H38 H 0.78218 0.96325 0.085 0.0
C39 C 0.76347 0.97405 0.14444 0.0
C40 C 0.73006 0.97054 0.11454 0.0
C41 C 0.77381 0.99242 0.24542 0.0
H42 H 0.67925 0.98134 0.17507 0.0
C43 C 0.70543 0.98245 0.19803 0.0
C44 C 0.71415 0.99761 0.30965 0.0
C45 C 0.74912 1.0031 0.33211 0.0
C46 C 0.8111 0.99711 0.25468 0.0
H47 H 0.75687 1.01605 0.414 0.0
C48 C 0.83068 1.00496 0.15064 0.0
C49 C 0.86564 0.99889 0.1453 0.0
C50 C 0.82762 0.98537 0.35526 0.0
H51 H 0.8136 0.97869 0.43453 0.0
C52 C 0.86193 0.97899 0.35024 0.0
H53 H 0.81841 1.01413 0.07178 0.0
C54 C 0.88035 0.98449 0.24558 0.0
H55 H 0.9067 0.97857 0.24487 0.0
H56 H 0.87425 0.96874 0.42706 0.0
H57 H 0.587 0.79914 0.16328 0.0
C58 C 0.57982 0.78109 0.22875 0.0
C59 C 0.59563 0.74972 0.22525 0.0
C60 C 0.55388 0.78852 0.31107 0.0
H61 H 0.60317 0.70498 0.32843 0.0
C62 C 0.58981 0.72832 0.32206 0.0
C63 C 0.56293 0.73327 0.40049 0.0
C64 C 0.54463 0.76338 0.39425 0.0
C65 C 0.53716 0.82246 0.30963 0.0
H66 H 0.52303 0.76655 0.45219 0.0
C67 C 0.53781 0.84357 0.20734 0.0
C68 C 0.52738 0.87767 0.21622 0.0
C69 C 0.52232 0.83521 0.41571 0.0
H70 H 0.52142 0.82097 0.49657 0.0
C71 C 0.50939 0.86733 0.42169 0.0
H72 H 0.54694 0.83399 0.12176 0.0
C73 C 0.51286 0.8883 0.32522 0.0
H74 H 0.50405 0.9133 0.33556 0.0
H75 H 0.49785 0.87657 0.50394 0.0
H76 H 0.31321 0.56025 0.17442 0.0
C77 C 0.29243 0.54943 0.12575 0.0
C78 C 0.26737 0.57137 0.09075 0.0
C79 C 0.2901 0.51458 0.1034 0.0
H80 H 0.22298 0.57607 0.98387 0.0
C81 C 0.24141 0.55904 0.01706 0.0
C82 C 0.23664 0.52494 0.99187 0.0
C83 C 0.2612 0.50247 0.0362 0.0
C84 C 0.3177 0.49193 0.15226 0.0
H85 H 0.25737 0.47607 0.01787 0.0
C86 C 0.34283 0.50325 0.23789 0.0
C87 C 0.36919 0.48198 0.27584 0.0
C88 C 0.31988 0.45839 0.11066 0.0
H89 H 0.30268 0.44803 0.04501 0.0
C90 C 0.34511 0.43734 0.1496 0.0
H91 H 0.34224 0.52816 0.2776 0.0
C92 C 0.3695 0.44895 0.22973 0.0
H93 H 0.38914 0.43199 0.25493 0.0
H94 H 0.34621 0.41178 0.11499 0.0
H95 H 0.03221 0.3079 0.25849 0.0
C96 C 0.04374 0.28728 0.20874 0.0
C97 C 0.02732 0.25634 0.20553 0.0
C98 C 0.07397 0.29205 0.147 0.0
H99 H 0.02673 0.20571 0.13517 0.0
C100 C 0.04018 0.22944 0.13725 0.0
C101 C 0.06836 0.23298 0.06471 0.0
C102 C 0.0858 0.26462 0.07038 0.0
C103 C 0.0893 0.32721 0.15371 0.0
H104 H 0.10778 0.26785 0.01478 0.0
C105 C 0.08597 0.34955 0.25756 0.0
C106 C 0.09362 0.38478 0.25297 0.0
C107 C 0.10346 0.34027 0.04978 0.0
H108 H 0.10617 0.32489 0.96892 0.0
C109 C 0.11254 0.37393 0.04563 0.0
H110 H 0.07692 0.33951 0.34077 0.0
C111 C 0.10717 0.39572 0.14378 0.0
H112 H 0.113 0.42184 0.13253 0.0
H113 H 0.12274 0.38362 0.96341 0.0
H114 H 0.28082 1.01733 0.2705 0.0
C115 C 0.30181 1.02521 0.21624 0.0
C116 C 0.33059 1.00614 0.21889 0.0
C117 C 0.30076 0.05481 0.15244 0.0
H118 H 0.3798 0.99805 0.14814 0.0
C119 C 0.35756 1.01341 0.14372 0.0
C120 C 0.35534 0.03803 0.0565 0.0
C121 C 0.32667 0.05971 0.06366 0.0
C122 C 0.27213 0.07876 0.18256 0.0
H123 H 0.32446 0.07964 0.00093 0.0
C124 C 0.25419 0.07736 0.29462 0.0
C125 C 0.22467 0.09614 0.31808 0.0
C126 C 0.26142 0.10224 0.10009 0.0
H127 H 0.27376 0.10456 0.01425 0.0
C128 C 0.23379 0.12264 0.12578 0.0
H129 H 0.2625 0.06123 0.36444 0.0
C130 C 0.21543 0.11941 0.2321 0.0
H131 H 0.19303 0.13426 0.24451 0.0
H132 H 0.22574 0.14036 0.06042 0.0
H133 H 0.55878 0.27123 0.21674 0.0
C134 C 0.55131 0.28719 0.14528 0.0
C135 C 0.57044 0.31609 0.12708 0.0
C136 C 0.52084 0.28152 0.0845 0.0
H137 H 0.57533 0.361 0.0266 0.0
C138 C 0.56097 0.33827 0.0383 0.0
C139 C 0.53041 0.33495 0.9797 0.0
C140 C 0.51074 0.30592 -0.0001 0.0
C141 C 0.49797 0.25319 0.12373 0.0
H142 H 0.48722 0.30352 0.95308 0.0
C143 C 0.50986 0.22471 0.18623 0.0
C144 C 0.48751 0.19973 0.22864 0.0
C145 C 0.46314 0.25583 0.10762 0.0
H146 H 0.45214 0.27728 0.06676 0.0
C147 C 0.44123 0.23139 0.14821 0.0
H148 H 0.53627 0.22155 0.20238 0.0
C149 C 0.45317 0.20362 0.20653 0.0
H150 H 0.43524 0.1851 0.23603 0.0
H151 H 0.41458 0.23402 0.13447 0.0
Eu152 Eu 0.06527 0.02668 0.8388 0.0
C153 C 0.98398 0.03719 0.39793 0.0
C154 C 1.02301 1.01029 0.26121 0.0
C155 C 0.96574 1.01779 0.20189 0.0
C156 C 1.01664 0.02888 0.36809 0.0
C157 C 0.95842 0.03291 0.3129 0.0
C158 C 0.99762 1.00572 0.17697 0.0
C159 C 0.91881 0.05348 0.45985 0.0
N160 N 0.97692 0.04867 0.51037 0.0
C161 C 0.94448 0.05516 0.54358 0.0
C162 C 0.92616 0.04359 0.34262 0.0
Eu163 Eu 1.02339 0.06638 0.62586 0.0
N164 N 0.04152 0.03622 0.44704 0.0
C165 C 0.07277 1.02318 0.42517 0.0
C166 C 0.05419 0.99549 0.24498 0.0
C167 C 0.07957 1.00302 0.32458 0.0
H168 H 0.9382 0.06343 0.63328 0.0
H169 H 0.10386 0.99146 0.31307 0.0
H170 H 1.00223 0.99284 0.09241 0.0
H171 H 0.89357 0.06049 0.48528 0.0
H172 H 0.09188 1.02396 0.49028 0.0
H173 H 0.98841 0.1069 0.14656 0.0
H174 H 0.05841 0.97632 0.17723 0.0
H175 H 0.1486 1.01701 0.83738 0.0
H176 H 0.99935 0.07306 0.96834 0.0
H177 H 0.19621 0.02873 0.97066 0.0
H178 H 0.94649 1.01329 0.13808 0.0
H179 H 0.03401 0.11984 0.28811 0.0
H180 H 0.09309 0.11272 0.34754 0.0
H181 H 0.90661 0.04385 0.27675 0.0
H182 H 0.14871 0.09277 0.29609 0.0
N183 N 0.0499 0.06136 0.01059 0.0
C184 C 1.01902 0.07527 0.03193 0.0
C185 C 0.03842 0.10268 0.21305 0.0
C186 C 0.06994 0.08893 0.192 0.0
C187 C 1.0128 0.09571 0.13282 0.0
C188 C 0.07524 0.06835 0.08828 0.0
H189 H 0.18741 0.05922 0.16204 0.0
N190 N 0.11284 0.04121 0.95278 0.0
C191 C 0.1714 0.03713 -0.00382 0.0
C192 C 0.10729 0.05726 0.05983 0.0
C193 C 0.1443 0.03076 0.92079 0.0
C194 C 0.16628 0.05435 0.10467 0.0
C195 C 0.13416 0.06519 0.13682 0.0
O196 O 0.09692 0.98187 0.84229 0.0
O197 O 0.02946 1.01281 0.68631 0.0
O198 O 0.98226 0.04093 0.73562 0.0
O199 O 1.00969 1.01748 0.8919 0.0
O200 O 0.07507 0.98961 0.68732 0.0
O201 O 0.06069 0.99243 0.98197 0.0
O202 O 0.99239 0.10903 0.66734 0.0
O203 O 0.06207 0.0792 0.76934 0.0
O204 O 0.10767 0.05053 0.72478 0.0
O205 O 0.07942 0.07806 0.57514 0.0
O206 O 1.01886 0.1051 0.77924 0.0
O207 O 1.01159 0.10299 0.48594 0.0
C208 C 0.04658 0.98904 0.63474 0.0
C209 C 0.07427 0.93583 0.9435 0.0
C210 C 0.0319 0.8924 0.96502 0.0
C211 C 0.04095 0.92491 0.93237 0.0
C212 C 0.05724 0.86986 -0.00474 0.0
C213 C 0.0992 0.91303 0.97273 0.0
C214 C 0.09073 0.87997 -0.00361 0.0
C215 C 0.98139 1.02556 0.83827 0.0
C216 C 0.08293 0.97146 0.93984 0.0
C217 C 0.12845 0.08492 0.24034 0.0
C218 C 0.0966 0.09672 0.2684 0.0
C219 C 0.04888 0.10509 0.8197 0.0
C220 C 0.96083 0.13601 0.52195 0.0
C221 C 0.96268 0.16146 0.4393 0.0
C222 C 0.93588 0.18371 0.42696 0.0
C223 C 0.90539 0.17793 0.48503 0.0
C224 C 0.93078 0.13228 0.58793 0.0
C225 C 0.9028 0.1518 0.56458 0.0
C226 C 0.10819 0.06815 0.62498 0.0
C227 C 0.99249 0.12046 0.55989 0.0
H228 H 1.02176 0.94256 0.90989 0.0
H229 H 0.05103 0.8447 0.022 0.0
H230 H 0.12506 0.9211 0.98113 0.0
H231 H 0.10998 0.86254 0.02092 0.0
H232 H 0.98646 0.16669 0.39583 0.0
H233 H 0.88474 0.1951 0.47626 0.0
H234 H 0.92919 0.1159 0.66283 0.0
H235 H 0.87994 0.1484 0.6154 0.0
Eu236 Eu 0.54712 0.06584 0.7707 0.0
C237 C 0.57791 0.94669 0.4646 0.0
C238 C 0.60001 0.96983 0.28211 0.0
C239 C 0.62183 0.91749 0.35137 0.0
C240 C 0.57797 0.97177 0.38128 0.0
C241 C 0.59897 0.91856 0.44696 0.0
C242 C 0.62254 0.94326 0.26991 0.0
C243 C 0.56932 0.89139 0.60502 0.0
N244 N 0.55483 0.94786 0.55456 0.0
C245 C 0.54872 0.91938 0.61781 0.0
C246 C 0.59512 0.89129 0.52119 0.0
Eu247 Eu 0.52214 0.99839 0.56961 0.0
N248 N 0.55406 0.99584 0.38884 0.0
C249 C 0.54653 1.01297 0.28811 0.0
C250 C 0.5971 0.99342 0.19342 0.0
C251 C 0.56911 1.01379 0.19287 0.0
H252 H 0.52845 0.91809 0.68153 0.0
H253 H 0.56452 0.0296 0.11861 0.0
H254 H 0.63907 0.94122 0.19358 0.0
H255 H 0.56489 0.86969 0.65891 0.0
H256 H 0.5235 0.0267 0.28023 0.0
H257 H 0.46873 0.07512 0.17299 0.0
H258 H 0.61494 0.9946 0.12143 0.0
H259 H 0.57472 0.12998 0.60065 0.0
H260 H 0.5118 0.05102 0.03851 0.0
H261 H 0.55951 0.18845 0.56204 0.0
H262 H 0.63824 0.89624 0.33708 0.0
H263 H 0.44367 0.12966 0.12735 0.0
H264 H 0.4403 0.17817 0.98768 0.0
H265 H 0.61071 0.86931 0.51001 0.0
H266 H 0.46709 0.21051 0.82907 0.0
N267 N 0.50823 0.08888 0.91047 0.0
C268 C 0.49951 0.07349 0.01362 0.0
C269 C 0.46213 0.11872 0.06684 0.0
C270 C 0.47332 0.13576 0.96613 0.0
C271 C 0.47589 0.08775 0.09217 0.0
C272 C 0.49773 0.12055 0.89139 0.0
H273 H 0.51228 0.2149 0.67245 0.0
N274 N 0.53618 0.12318 0.73088 0.0
C275 C 0.54583 0.17456 0.62847 0.0
C276 C 0.512 0.1382 0.79896 0.0
C277 C 0.55448 0.14149 0.65101 0.0
C278 C 0.51915 0.18938 0.6909 0.0
C279 C 0.50218 0.17138 0.77844 0.0
O280 O 0.58838 0.09953 0.81614 0.0
O281 O 0.56775 1.0249 0.64299 0.0
O282 O 0.5368 0.97388 0.74355 0.0
O283 O 0.54319 1.0174 0.88404 0.0
O284 O 0.59151 0.06979 0.64151 0.0
O285 O 0.57077 0.06424 0.94538 0.0
O286 O 0.50186 0.95601 0.47316 0.0
O287 O 0.50118 0.03706 0.70546 0.0
O288 O 0.51601 0.08823 0.62359 0.0
O289 O 0.52082 0.04872 0.47072 0.0
O290 O 0.4818 0.98976 0.70621 0.0
O291 O 0.471 0.99955 0.4943 0.0
C292 C 0.59186 0.04045 0.59164 0.0
C293 C 0.62744 0.0786 0.94548 0.0
C294 C 0.67273 0.03934 0.91998 0.0
C295 C 0.64206 0.05162 0.88304 0.0
C296 C 0.69102 0.05765 0.00789 0.0
C297 C 0.64551 0.09671 0.03278 0.0
C298 C 0.67787 0.08686 0.06062 0.0
C299 C 0.54131 0.98468 0.85518 0.0
C300 C 0.59302 0.08709 0.92084 0.0
C301 C 0.4759 0.18552 0.84621 0.0
C302 C 0.46111 0.16743 0.93832 0.0
C303 C 0.47878 1.01888 0.75719 0.0
C304 C 0.44539 0.94573 0.51172 0.0
C305 C 0.41407 0.94526 0.45822 0.0
C306 C 0.38836 0.92454 0.50143 0.0
C307 C 0.39434 0.90344 0.59675 0.0
C308 C 0.45107 0.92478 0.60884 0.0
C309 C 0.42582 0.90358 0.65022 0.0
C310 C 0.51534 0.07995 0.50857 0.0
C311 C 0.47193 0.96773 0.46487 0.0
H312 H 0.6287 0.0392 0.8103 0.0
H313 H 0.71516 0.04899 0.0377 0.0
H314 H 0.63461 0.11826 0.07912 0.0
H315 H 0.6923 0.10122 0.12594 0.0
H316 H 0.40929 0.96181 0.38487 0.0
H317 H 0.37457 0.88768 0.63123 0.0
H318 H 0.47484 0.92489 0.65361 0.0
H319 H 0.43053 0.8877 0.72516 0.0
Eu320 Eu 0.56316 0.51939 0.59005 0.0
C321 C 0.42641 0.52369 0.79364 0.0
C322 C 0.39745 0.54913 0.62943 0.0
C323 C 0.3679 0.50991 0.75498 0.0
C324 C 0.42695 0.54426 0.69591 0.0
C325 C 0.39653 0.50719 0.82635 0.0
C326 C 0.36828 0.53109 0.65721 0.0
C327 C 0.42274 0.49353 0.01255 0.0
N328 N 0.45385 0.52287 0.86469 0.0
C329 C 0.45065 0.5124 0.97932 0.0
C330 C 0.39575 0.49022 0.93413 0.0
Eu331 Eu 0.50221 0.55103 0.7969 0.0
N332 N 0.45564 0.56125 0.67076 0.0
C333 C 0.45556 0.58533 0.58626 0.0
C334 C 0.39786 0.57267 0.53914 0.0
C335 C 0.42693 0.59118 0.51867 0.0
H336 H 0.47013 0.51804 0.04369 0.0
H337 H 0.42734 0.60997 0.45071 0.0
H338 H 0.34564 0.53401 0.60558 0.0
H339 H 0.42185 0.48224 0.09922 0.0
H340 H 0.47727 0.60049 0.57121 0.0
H341 H 0.6054 0.38932 0.55875 0.0
H342 H 0.37574 0.57715 0.48627 0.0
H343 H 0.60843 0.58971 0.66382 0.0
H344 H 0.56662 0.43653 0.53406 0.0
H345 H 0.66485 0.60493 0.72924 0.0
H346 H 0.34489 0.49706 0.7781 0.0
H347 H 0.66207 0.40026 0.63924 0.0
H348 H 0.70501 0.44178 0.71266 0.0
H349 H 0.37367 0.47652 0.96083 0.0
H350 H 0.72109 0.50018 0.7584 0.0
N351 N 0.59884 0.47263 0.61391 0.0
C352 C 0.59033 0.44092 0.57631 0.0
C353 C 0.64467 0.42077 0.6317 0.0
C354 C 0.65426 0.45366 0.66208 0.0
C355 C 0.61265 0.41443 0.58727 0.0
C356 C 0.63063 0.47952 0.65081 0.0
H357 H 0.7065 0.5609 0.76396 0.0
N358 N 0.61653 0.53711 0.66379 0.0
C359 C 0.65809 0.57883 0.71545 0.0
C360 C 0.63967 0.51258 0.67695 0.0
C361 C 0.62576 0.56997 0.67864 0.0
C362 C 0.68151 0.55393 0.73494 0.0
C363 C 0.67262 0.52038 0.71454 0.0
O364 O 0.55472 0.52742 0.40022 0.0
O365 O 0.50836 0.53336 0.60395 0.0
O366 O 0.50004 0.49382 0.82197 0.0
O367 O 0.54474 0.47434 0.70401 0.0
O368 O 0.51934 0.48758 0.51928 0.0
O369 O 0.60375 0.51553 0.45826 0.0
O370 O 0.50937 0.57836 0.96848 0.0
O371 O 0.5586 0.54607 0.7669 0.0
O372 O 0.55914 0.57601 0.55715 0.0
O373 O 0.5237 0.59734 0.70599 0.0
O374 O 0.54054 0.53165 0.93094 0.0
O375 O 0.46805 0.59062 0.85635 0.0
C376 C 0.49502 0.50747 0.55041 0.0
C377 C 0.58604 0.49187 0.27501 0.0
C378 C 0.596 0.43368 0.21733 0.0
C379 C 0.6014 0.46096 0.29623 0.0
C380 C 0.57892 0.43848 0.11046 0.0
C381 C 0.56853 0.49609 0.16918 0.0
C382 C 0.56577 0.46963 0.08688 0.0
C383 C 0.52022 0.46913 0.7842 0.0
C384 C 0.58444 0.51849 0.36713 0.0
C385 C 0.69582 0.4946 0.72873 0.0
C386 C 0.68668 0.46135 0.70257 0.0
C387 C 0.56765 0.53404 0.86712 0.0
C388 C 0.48937 0.63436 0.97682 0.0
C389 C 0.52087 0.64931 0.9635 0.0
C390 C 0.52626 0.68267 0.00027 0.0
C391 C 0.49871 0.70227 0.03669 0.0
C392 C 0.46216 0.65401 0.01505 0.0
C393 C 0.46675 0.68803 0.04258 0.0
C394 C 0.54365 0.60146 0.61233 0.0
C395 C 0.48432 0.59837 0.95302 0.0
H396 H 0.61589 0.45749 0.37595 0.0
H397 H 0.57472 0.41798 0.0469 0.0
H398 H 0.55679 0.51975 0.15105 0.0
H399 H 0.55389 0.4734 0.00286 0.0
H400 H 0.54164 0.63465 0.93163 0.0
H401 H 0.50213 0.72827 0.0645 0.0
H402 H 0.43746 0.64298 0.0242 0.0
H403 H 0.44573 0.70313 0.07229 0.0
Eu404 Eu 0.05012 0.5712 0.59205 0.0
C405 C 1.02011 0.44632 0.90588 0.0
C406 C 0.98373 0.41236 0.77699 0.0
C407 C 1.00408 0.39004 0.96281 0.0
C408 C 1.0 0.44312 0.80458 0.0
C409 C 1.02079 0.42038 0.98867 0.0
C410 C 0.98605 0.38584 0.85626 0.0
C411 C 0.05197 0.45725 0.12243 0.0
N412 N 0.03619 0.47604 0.92925 0.0
C413 C 0.05229 0.48155 0.03563 0.0
C414 C 0.03617 0.42655 0.09899 0.0
Eu415 Eu 1.01782 0.52156 0.81749 0.0
N416 N 0.99736 0.46971 0.73127 0.0
C417 C 0.98151 0.46563 0.62369 0.0
C418 C 0.96606 0.40895 0.66953 0.0
C419 C 0.96555 0.43551 0.59144 0.0
H420 H 0.06269 0.50593 0.05814 0.0
H421 H 0.95288 0.43283 0.50616 0.0
H422 H 0.97358 0.36215 0.83679 0.0
H423 H 0.06274 0.46291 0.20887 0.0
H424 H 0.98149 0.48526 0.56142 0.0
H425 H 0.13847 0.64778 0.85834 0.0
H426 H 0.95352 0.38567 0.6446 0.0
H427 H 0.98929 0.60269 0.40624 0.0
H428 H 0.11672 0.5968 0.76173 0.0
H429 H 0.95426 0.65247 0.39623 0.0
H430 H 1.0047 0.36977 0.02525 0.0
H431 H 0.10569 0.69992 0.85709 0.0
H432 H 0.05361 0.72931 0.79904 0.0
H433 H 0.03486 0.40813 0.16786 0.0
H434 H 1.0017 0.7295 0.68255 0.0
N435 N 0.07166 0.61893 0.70065 0.0
C436 C 0.10185 0.61897 0.75826 0.0
C437 C 0.09605 0.6775 0.81211 0.0
C438 C 0.06526 0.67759 0.75339 0.0
C439 C 0.11456 0.64814 0.81339 0.0
C440 C 0.054 0.64783 0.69422 0.0
H441 H 0.96453 0.70114 0.53208 0.0
N442 N 1.01577 0.61977 0.56358 0.0
C443 C 0.97342 0.65131 0.4638 0.0
C444 C 1.0248 0.64795 0.62742 0.0
C445 C 0.99297 0.62268 0.47248 0.0
C446 C 0.97934 0.67871 0.54051 0.0
C447 C 1.00621 0.67788 0.61976 0.0
O448 O 0.05489 0.58324 0.40327 0.0
O449 O 0.04962 0.51703 0.6475 0.0
O450 O 0.0763 0.51968 0.84507 0.0
O451 O 0.09633 0.54621 0.67699 0.0
O452 O 0.04264 0.52454 0.47018 0.0
O453 O 0.09718 0.5901 0.52093 0.0
O454 O 1.01021 0.54095 0.00511 0.0
O455 O 0.0392 0.5737 0.78886 0.0
O456 O 0.99293 0.56361 0.55711 0.0
O457 O 0.97129 0.53025 0.70442 0.0
O458 O 0.99147 0.5717 0.84888 0.0
O459 O 0.98056 0.50009 0.93005 0.0
C460 C 0.04673 0.50112 0.54642 0.0
C461 C 0.10891 0.58477 0.31576 0.0
C462 C 0.16258 0.59465 0.22041 0.0
C463 C 0.13901 0.60286 0.30909 0.0
C464 C 0.15466 0.56982 0.13329 0.0
C465 C 0.10169 0.55931 0.23076 0.0
C466 C 0.1245 0.55211 0.13924 0.0
C467 C 0.10217 0.52928 0.7761 0.0
C468 C 0.08585 0.59307 0.41317 0.0
C469 C 1.01601 0.70661 0.6862 0.0
C470 C 0.04567 0.70657 0.7518 0.0
C471 C 1.01604 0.59194 0.83388 0.0
C472 C 0.95313 0.53103 0.07227 0.0
C473 C 0.93863 0.56206 0.0468 0.0
C474 C 0.90412 0.56689 0.06462 0.0
C475 C 0.88444 0.54022 0.10628 0.0
C476 C 0.93289 0.5052 0.11569 0.0
C477 C 0.89865 0.50942 0.12762 0.0
C478 C 0.96721 0.54827 0.60839 0.0
C479 C 0.98526 0.52015 0.02155 0.0
H480 H 0.14484 0.62219 0.3762 0.0
H481 H 0.17202 0.56365 0.06223 0.0
H482 H 0.07852 0.54515 0.23463 0.0
H483 H 0.11853 0.5329 0.07303 0.0
H484 H 0.95341 0.58164 0.00812 0.0
H485 H 0.85766 0.54281 0.11863 0.0
H486 H 0.94321 0.48061 0.13021 0.0
H487 H 0.88291 0.4884 0.15019 0.0
C488 C 0.18415 0.11514 0.48702 0.0
C489 C 0.20067 0.08872 0.42206 0.0
C490 C 0.16258 0.04865 0.52128 0.0
C491 C 0.14174 0.07539 0.56476 0.0
N492 N 0.13383 0.13488 0.59047 0.0
N493 N 0.20353 0.0307 0.36999 0.0
C494 C 0.15299 0.10889 0.54829 0.0
C495 C 0.18961 0.05541 0.44007 0.0
N496 N 0.19876 0.14611 0.49202 0.0
N497 N 0.15695 1.01672 0.55727 0.0
H498 H 0.19505 1.00596 0.36527 0.0
H499 H 0.19505 1.00596 0.36527 0.0
H500 H 0.13733 1.01002 0.61319 0.0
H501 H 0.17378 0.99728 0.54128 0.0
H502 H 0.18979 0.16597 0.54519 0.0
H503 H 0.22197 0.15075 0.45222 0.0
H504 H 0.13833 0.15972 0.56933 0.0
H505 H 0.11231 0.13139 0.64203 0.0
C506 C 0.52163 0.1456 0.25591 0.0
C507 C 0.4983 0.1699 0.30092 0.0
C508 C 0.48104 0.12997 0.45354 0.0
C509 C 0.5073 0.10774 0.42229 0.0
N510 N 0.55543 0.09696 0.29573 0.0
N511 N 0.46198 0.18611 0.46852 0.0
C512 C 0.52843 0.11628 0.32378 0.0
C513 C 0.48035 0.16252 0.4077 0.0
N514 N 0.53607 0.14934 0.14582 0.0
N515 N 0.45548 0.11958 0.52454 0.0
H516 H 0.46174 0.21137 0.44724 0.0
H517 H 0.46174 0.21137 0.44724 0.0
H518 H 0.45179 0.09416 0.53892 0.0
H519 H 0.43601 0.13536 0.55221 0.0
H520 H 0.55032 0.13083 0.10275 0.0
H521 H 0.53112 0.16942 0.09143 0.0
H522 H 0.57383 0.10363 0.23426 0.0
H523 H 0.56068 0.07536 0.34101 0.0
C524 C 0.40501 0.47476 0.46422 0.0
C525 C 0.39784 0.49292 0.35972 0.0
C526 C 0.45232 0.52231 0.38414 0.0
C527 C 0.46023 0.50411 0.4892 0.0
N528 N 0.44447 0.45883 0.61651 0.0
N529 N 0.40973 0.53947 0.24084 0.0
C530 C 0.43653 0.47919 0.52527 0.0
C531 C 0.42024 0.51851 0.32676 0.0
N532 N 0.38044 0.45482 0.51012 0.0
N533 N 0.47655 0.54114 0.3325 0.0
H534 H 0.42253 0.56094 0.21512 0.0
H535 H 0.42253 0.56094 0.21512 0.0
H536 H 0.50006 0.54338 0.36948 0.0
H537 H 0.47467 0.55154 0.24839 0.0
H538 H 0.38185 0.44351 0.59275 0.0
H539 H 0.35683 0.45246 0.4711 0.0
H540 H 0.43122 0.43726 0.63747 0.0
H541 H 0.46562 0.46268 0.66801 0.0
C542 C 0.05797 0.41124 0.43151 0.0
C543 C 0.08649 0.4117 0.35366 0.0
C544 C 0.09541 0.47082 0.42804 0.0
C545 C 0.06649 0.46941 0.50366 0.0
N546 N 0.05115 0.42689 0.63733 0.0
N547 N 0.14067 0.4387 0.33461 0.0
C548 C 0.0547 0.43665 0.52329 0.0
C549 C 0.10793 0.44059 0.36922 0.0
N550 N 0.03362 0.38743 0.42134 0.0
N551 N 0.11172 0.50048 0.41456 0.0
H552 H 0.15127 0.41635 0.30269 0.0
H553 H 0.15794 0.45789 0.35169 0.0
H554 H 0.10511 0.52204 0.4633 0.0
H555 H 0.13102 0.50354 0.35252 0.0
H556 H 1.01347 0.38714 0.48132 0.0
H557 H 0.03143 0.37113 0.3474 0.0
H558 H 0.04645 0.40191 0.6575 0.0
H559 H 0.05888 0.44294 0.70745 0.0
C560 C 0.90477 0.97993 0.9754 0.0
C561 C 0.88781 1.00655 0.03722 0.0
C562 C 0.92632 0.04611 0.93633 0.0
C563 C 0.94743 1.01901 0.89706 0.0
N564 N 0.95276 0.95934 0.86482 0.0
N565 N 0.88204 0.06603 0.07102 0.0
C566 C 0.93534 0.98582 0.91219 0.0
C567 C 0.89791 0.03999 0.01318 0.0
N568 N 0.89225 0.94822 0.97602 0.0
N569 N 0.93324 0.07786 0.90088 0.0
H570 H 0.86089 0.06279 0.12458 0.0
H571 H 0.891 0.09056 0.0726 0.0
H572 H 0.95398 0.08398 0.84915 0.0
H573 H 0.9169 0.09784 0.91403 0.0
H574 H 0.8696 0.94193 0.01706 0.0
H575 H 0.8696 0.94193 0.01706 0.0
H576 H 0.94449 0.93464 0.87149 0.0
H577 H 0.9753 0.96229 0.81907 0.0
C578 C 0.50624 0.92775 0.10185 0.0
C579 C 0.53155 0.90354 0.11751 0.0
C580 C 0.56208 0.9298 0.94993 0.0
C581 C 0.5397 0.95782 0.95136 0.0
N582 N 0.49223 0.98395 0.05029 0.0
N583 N 0.58732 0.88572 0.06509 0.0
C584 C 0.51265 0.95709 0.03503 0.0
C585 C 0.56054 0.90564 0.04342 0.0
N586 N 0.47504 0.92096 0.14505 0.0
N587 N 0.58511 0.92619 0.86027 0.0
H588 H 0.59016 0.8732 0.14486 0.0
H589 H 0.60816 0.88364 0.00981 0.0
H590 H 0.58828 0.9438 0.79472 0.0
H591 H 0.59945 0.90477 0.84601 0.0
H592 H 0.45401 0.93559 0.13001 0.0
H593 H 0.45401 0.93559 0.13001 0.0
H594 H 0.4757 0.98672 0.12256 0.0
H595 H 0.49216 1.00337 0.99119 0.0
C596 C 0.64832 0.56778 0.03246 0.0
C597 C 0.66386 0.53783 0.06827 0.0
C598 C 0.62176 0.5057 0.9467 0.0
C599 C 0.60297 0.53539 0.92584 0.0
N600 N 0.59966 0.59496 0.94973 0.0
N601 N 0.66894 0.47842 0.04257 0.0
C602 C 0.61705 0.56647 0.96795 0.0
C603 C 0.65162 0.50688 0.01912 0.0
N604 N 0.66359 0.59766 0.05964 0.0
N605 N 0.61109 0.47618 0.89581 0.0
H606 H 0.69181 0.47899 0.08737 0.0
H607 H 0.66149 0.45431 0.01756 0.0
H608 H 0.58936 0.47455 0.84579 0.0
H609 H 0.62335 0.45342 0.89984 0.0
H610 H 0.65711 0.62001 0.02074 0.0
H611 H 0.68519 0.5996 0.11126 0.0
H612 H 0.60749 0.61878 0.97665 0.0
H613 H 0.57642 0.59432 0.90883 0.0
C614 C 0.99527 0.67395 0.02185 0.0
C615 C 1.02543 0.6806 0.08649 0.0
C616 C 0.04872 0.62838 -0.0071 0.0
C617 C 1.02009 0.62322 0.91866 0.0
N618 N 0.96928 0.64753 0.84625 0.0
N619 N 0.08432 0.66912 0.09687 0.0
C620 C 0.99428 0.64795 0.92882 0.0
C621 C 0.05315 0.65933 0.06004 0.0
N622 N 0.96704 0.69145 0.05139 0.0
N623 N 0.07141 0.60344 0.0048 0.0
H624 H 0.08903 0.69238 0.13848 0.0
H625 H 0.10588 0.65622 0.0721 0.0
H626 H 0.06822 0.57938 0.96863 0.0
H627 H 0.09193 0.60592 0.06108 0.0
H628 H 0.94369 0.68611 0.0142 0.0
H629 H 0.96617 0.70932 0.12109 0.0
H630 H 0.95129 0.66617 0.84132 0.0
H631 H 0.9695 0.63105 0.77247 0.0
C632 C 0.96766 0.23995 0.19775 0.0
C633 C 0.99502 0.25149 0.26783 0.0
C634 C 0.9645 0.23745 0.44846 0.0
C635 C 0.94367 0.21647 0.3769 0.0
N636 N 0.92054 0.20102 0.18562 0.0
N637 N 1.01948 0.26244 0.46359 0.0
C638 C 0.94287 0.21968 0.25166 0.0
C639 C 0.99305 0.25186 0.39483 0.0
N640 N 0.96747 0.24738 0.07941 0.0
N641 N 0.95839 0.24079 0.56861 0.0
H642 H 0.04151 0.27217 0.42822 0.0
H643 H 1.02049 0.25941 0.55592 0.0
H644 H 0.93778 0.22928 0.60842 0.0
H645 H 0.97157 0.25735 0.62502 0.0
H646 H 0.94811 0.24107 0.02051 0.0
H647 H 0.94811 0.24107 0.02051 0.0
H648 H 0.9211 0.19874 0.09247 0.0
H649 H 0.90191 0.18681 0.22657 0.0
C650 C 0.33824 0.94558 0.25394 0.0
C651 C 0.33273 0.97819 0.30219 0.0
C652 C 0.33811 0.95709 0.50336 0.0
C653 C 0.3547 0.92918 0.45285 0.0
N654 N 0.36317 0.89103 0.28742 0.0
N655 N 0.32708 1.01561 0.47674 0.0
C656 C 0.35087 0.92084 0.33016 0.0
C657 C 0.33132 0.98408 0.42852 0.0
N658 N 0.33228 0.93982 0.13508 0.0
N659 N 0.33259 0.95888 0.62397 0.0
H660 H 0.32444 0.03677 0.42544 0.0
H661 H 0.32914 1.02124 0.56817 0.0
H662 H 0.33884 0.93903 0.67827 0.0
H663 H 0.31912 0.97809 0.66653 0.0
H664 H 0.33458 0.91661 0.0909 0.0
H665 H 0.33458 0.91661 0.0909 0.0
H666 H 0.36506 0.88423 0.19694 0.0
H667 H 0.37237 0.87337 0.34599 0.0
C668 C 0.62239 0.34494 0.18972 0.0
C669 C 0.59174 0.3303 0.2248 0.0
C670 C 0.57275 0.38275 0.31076 0.0
C671 C 0.60036 0.39903 0.25608 0.0
N672 N 0.65616 0.39491 0.17412 0.0
N673 N 0.55119 0.33033 0.38378 0.0
C674 C 0.62727 0.37976 0.20916 0.0
C675 C 0.57261 0.34749 0.31256 0.0
N676 N 0.64518 0.32674 0.12566 0.0
N677 N 0.54496 0.40021 0.34579 0.0
H678 H 0.55119 0.30423 0.38435 0.0
H679 H 0.53622 0.34207 0.44885 0.0
H680 H 0.54351 0.42623 0.34379 0.0
H681 H 0.52243 0.38835 0.36649 0.0
H682 H 0.64177 0.30122 0.106 0.0
H683 H 0.64177 0.30122 0.106 0.0
H684 H 0.67594 0.38149 0.13501 0.0
H685 H 0.66036 0.42044 0.19055 0.0
C686 C 0.25487 0.59963 0.27761 0.0
C687 C 0.26292 0.60425 0.15668 0.0
C688 C 0.20847 0.6292 0.12963 0.0
C689 C 0.19691 0.60898 0.22453 0.0
N690 N 0.21072 0.57872 0.40333 0.0
N691 N 0.25663 0.64416 0.0044 0.0
C692 C 0.22056 0.59643 0.30665 0.0
C693 C 0.24317 0.62787 0.0987 0.0
N694 N 0.27958 0.59506 0.3587 0.0
N695 N 0.18615 0.64691 0.06555 0.0
H696 H 0.28171 0.64054 0.98047 0.0
H697 H 0.24375 0.66146 0.95447 0.0
H698 H 0.161 0.64792 0.0904 0.0
H699 H 0.19252 0.66085 0.99138 0.0
H700 H 0.27479 0.59241 0.44994 0.0
H701 H 0.30474 0.59716 0.33394 0.0
H702 H 0.22768 0.56603 0.45582 0.0
H703 H 0.18572 0.57508 0.42628 0.0
C704 C 0.95947 0.83385 0.00238 0.0
C705 C 0.94907 0.84898 0.11208 0.0
C706 C 0.97467 0.90039 0.06424 0.0
C707 C 0.99624 0.88239 0.98237 0.0
N708 N 1.00029 0.83601 0.83902 0.0
N709 N 0.92031 0.89924 0.16448 0.0
C710 C 0.9852 0.85044 0.93722 0.0
C711 C 0.94556 0.88357 0.10402 0.0
N712 N 0.9456 0.80414 0.96591 0.0
N713 N 0.98461 0.92904 0.12274 0.0
H714 H 0.90121 0.88546 0.20474 0.0
H715 H 0.91833 0.92518 0.16943 0.0
H716 H 1.00901 0.93799 0.11874 0.0
H717 H 0.97002 0.94071 0.1893 0.0
H718 H 0.95142 0.79188 0.88494 0.0
H719 H 0.92701 0.79291 0.0177 0.0
H720 H 0.99496 0.81182 0.80723 0.0
H721 H 1.01817 0.84894 0.78943 0.0
C722 C 0.68875 0.95138 0.9669 0.0
C723 C 0.72212 0.95925 0.98814 0.0
C724 C 0.71911 1.00368 0.84657 0.0
C725 C 0.68486 1.00603 0.87823 0.0
N726 N 0.63509 0.97311 0.92801 0.0
N727 N 0.76916 0.9695 0.85868 0.0
C728 C 0.66869 0.9766 0.92011 0.0
C729 C 0.73778 0.97758 0.89672 0.0
N730 N 0.6757 0.92261 0.00884 0.0
N731 N 0.7336 0.02772 0.77924 0.0
H732 H 0.78139 0.94868 0.89168 0.0
H733 H 0.7812 0.98131 0.78827 0.0
H734 H 0.71922 0.04656 0.74238 0.0
H735 H 0.75927 0.02903 0.76285 0.0
H736 H 0.65059 0.91658 -0.00269 0.0
H737 H 0.69078 0.90522 0.05088 0.0
H738 H 0.61802 0.99078 0.90016 0.0
H739 H 0.61802 0.99078 0.90016 0.0
C740 C 0.59561 0.74722 0.00417 0.0
C741 C 0.61069 0.73586 0.10924 0.0
C742 C 0.58559 0.68199 0.08272 0.0
C743 C 0.56072 0.69681 0.00928 0.0
N744 N 0.5488 0.73963 0.86667 0.0
N745 N 0.64289 0.68791 0.15488 0.0
C746 C 0.56822 0.72814 0.95653 0.0
C747 C 0.61488 0.70108 0.10706 0.0
N748 N 0.60693 0.77599 0.95545 0.0
N749 N 0.5796 0.65345 0.14385 0.0
H750 H 0.66267 0.70346 0.18281 0.0
H751 H 0.64641 0.66223 0.16131 0.0
H752 H 0.55703 0.64037 0.14119 0.0
H753 H 0.59652 0.64439 0.20576 0.0
H754 H 0.59792 0.78532 0.87574 0.0
H755 H 0.62686 0.78928 -0.00527 0.0
H756 H 0.55151 0.76335 0.83154 0.0
H757 H 0.52997 0.72486 0.82721 0.0
C758 C 0.8606 0.64434 0.14639 0.0
C759 C 0.83018 0.62739 0.12482 0.0
C760 C 0.85652 0.59458 0.96727 0.0
C761 C 0.88667 0.59828 0.03398 0.0
N762 N 0.92058 0.63578 0.15825 0.0
N763 N 0.7991 0.61396 0.94675 0.0
C764 C 0.89038 0.62732 0.11003 0.0
C765 C 0.82809 0.61246 0.00944 0.0
N766 N 0.86057 0.67274 0.21638 0.0
N767 N 0.85426 0.57103 0.87688 0.0
H768 H 0.77873 0.6275 0.98104 0.0
H769 H 0.79659 0.60431 0.85945 0.0
H770 H 0.87499 0.55686 0.84997 0.0
H771 H 0.83196 0.56504 0.83302 0.0
H772 H 0.88199 0.68694 0.23464 0.0
H773 H 0.83802 0.68269 0.2488 0.0
H774 H 0.92366 0.65513 0.22162 0.0
H775 H 0.94261 0.62367 0.13341 0.0
C776 C 0.05457 0.20061 0.87081 0.0
C777 C 0.07463 0.20374 0.97576 0.0
C778 C 0.09115 0.14422 0.93953 0.0
C779 C 0.06537 0.13943 0.85386 0.0
N780 N 0.04249 0.16825 0.68888 0.0
N781 N 0.11362 0.17759 0.10704 0.0
C782 C 0.05253 0.16924 0.80524 0.0
C783 C 0.09377 0.17533 0.00813 0.0
N784 N 0.03626 0.22731 0.83579 0.0
N785 N 0.11598 0.12131 0.94233 0.0
H786 H 0.11689 0.20002 0.15599 0.0
H787 H 0.12547 0.15693 0.14232 0.0
H788 H 0.11668 0.10154 0.87945 0.0
H789 H 0.13766 0.12478 -0.00712 0.0
H790 H 1.01789 0.22541 0.76992 0.0
H791 H 0.0384 0.25101 0.87701 0.0
H792 H 0.03486 0.18921 0.64303 0.0
H793 H 0.04764 0.14731 0.63412 0.0
C794 C 0.39241 1.00503 0.9117 0.0
C795 C 0.38278 0.03688 0.95869 0.0
C796 C 0.43072 0.05937 0.84213 0.0
C797 C 0.44597 0.02692 0.82914 0.0
N798 N 0.43815 0.9677 0.87718 0.0
N799 N 0.39367 0.09619 0.95989 0.0
C800 C 0.42584 0.99946 0.87099 0.0
C801 C 0.40209 0.06471 0.92079 0.0
N802 N 0.3693 0.97972 0.9048 0.0
N803 N 0.44214 0.0848 0.77537 0.0
H804 H 0.37572 0.10081 0.02601 0.0
H805 H 0.40596 0.11771 0.93279 0.0
H806 H 0.46301 0.08203 0.7214 0.0
H807 H 0.42965 0.10744 0.76784 0.0
H808 H 0.37424 0.95666 0.86239 0.0
H809 H 0.34421 0.98345 0.92791 0.0
H810 H 0.42463 0.94834 0.91591 0.0
H811 H 0.4628 0.96097 0.86072 0.0
C812 C 0.52838 0.37289 0.79977 0.0
C813 C 0.51793 0.3657 0.91758 0.0
C814 C 0.50298 0.42536 0.9483 0.0
C815 C 0.5147 0.43306 0.82964 0.0
N816 N 0.51856 0.40781 0.63172 0.0
N817 N 0.48553 0.38307 0.08987 0.0
C818 C 0.52177 0.405 0.7521 0.0
C819 C 0.50156 0.39125 0.98609 0.0
N820 N 0.54496 0.34923 0.73243 0.0
N821 N 0.49556 0.45028 0.02946 0.0
H822 H 0.48517 0.3588 0.1217 0.0
H823 H 0.46977 0.39932 0.13769 0.0
H824 H 0.50049 0.47503 0.01316 0.0
H825 H 0.48975 0.44656 0.11916 0.0
H826 H 0.55638 0.35466 0.65094 0.0
H827 H 0.54878 0.32499 0.76181 0.0
H828 H 0.51966 0.38708 0.57333 0.0
H829 H 0.51032 0.42966 0.59326 0.0
C830 C 0.20082 0.53214 0.80687 0.0
C831 C 0.20533 0.51585 0.91715 0.0
C832 C 0.14625 0.49653 0.89781 0.0
C833 C 0.13908 0.52063 0.80941 0.0
N834 N 0.16472 0.55708 0.66289 0.0
N835 N 0.17974 0.48289 0.07072 0.0
C836 C 0.16789 0.53695 0.75848 0.0
C837 C 0.17745 0.49771 0.96262 0.0
N838 N 0.22863 0.54228 0.7456 0.0
N839 N 0.12433 0.47087 0.91486 0.0
H840 H 0.20168 0.48319 0.12084 0.0
H841 H 0.15901 0.47256 0.1136 0.0
H842 H 0.10372 0.46673 0.85934 0.0
H843 H 0.12975 0.45106 0.96984 0.0
H844 H 0.22793 0.55169 0.65969 0.0
H845 H 0.25284 0.53803 0.77624 0.0
H846 H 0.18184 0.57614 0.64532 0.0
H847 H 0.14689 0.55321 0.59664 0.0
C848 C 0.99521 0.90897 0.53054 0.0
C849 C 1.01829 0.88971 0.45895 0.0
C850 C 0.0599 0.9353 0.50111 0.0
C851 C 0.0355 0.95655 0.5621 0.0
N852 N 0.97606 0.96438 0.5897 0.0
N853 N 0.07029 0.89157 0.34945 0.0
C854 C 1.00206 0.94358 0.56362 0.0
C855 C 0.04999 0.90481 0.43742 0.0
N856 N 0.9664 0.89409 0.56889 0.0
N857 N 0.09306 0.94374 0.50105 0.0
H858 H 0.06417 0.87012 0.29875 0.0
H859 H 0.09159 0.90386 0.31839 0.0
H860 H 0.1025 0.967 0.52711 0.0
H861 H 0.1117 0.92674 0.47596 0.0
H862 H 0.95004 0.90576 0.62984 0.0
H863 H 0.96096 0.86891 0.5499 0.0
H864 H 0.95109 0.95699 0.58118 0.0
H865 H 0.97941 0.98982 0.60524 0.0
C866 C 0.66961 0.98703 0.47492 0.0
C867 C 0.68565 1.00932 0.39488 0.0
C868 C 0.64032 0.05032 0.44023 0.0
C869 C 0.6235 0.02807 0.52053 0.0
N870 N 0.62963 0.97876 0.63713 0.0
N871 N 0.691 0.06582 0.33222 0.0
C872 C 0.64039 0.9974 0.54416 0.0
C873 C 0.67225 0.04191 0.38674 0.0
N874 N 0.68241 0.95563 0.48503 0.0
N875 N 0.62566 0.07978 0.41161 0.0
H876 H 0.71393 0.06069 0.29077 0.0
H877 H 0.68561 0.09127 0.33912 0.0
H878 H 0.60421 0.08911 0.45284 0.0
H879 H 0.63364 0.09416 0.34033 0.0
H880 H 0.67072 0.93668 0.53204 0.0
H881 H 0.70423 0.94796 0.44068 0.0
H882 H 0.64238 0.95821 0.6687 0.0
H883 H 0.60894 0.98545 0.68859 0.0
C884 C 0.53192 0.67855 0.41423 0.0
C885 C 0.55214 0.70334 0.47186 0.0
C886 C 0.56579 0.66232 0.62698 0.0
C887 C 0.54754 0.63661 0.5632 0.0
N888 N 0.51574 0.62176 0.38432 0.0
N889 N 0.59002 0.71876 0.63022 0.0
C890 C 0.53144 0.64518 0.45461 0.0
C891 C 0.56931 0.69521 0.57836 0.0
N892 N 0.51367 0.68642 0.31601 0.0
N893 N 0.5803 0.65507 0.73324 0.0
H894 H 0.59144 0.74324 0.6003 0.0
H895 H 0.60641 0.71418 0.69984 0.0
H896 H 0.57965 0.63115 0.76657 0.0
H897 H 0.59199 0.67252 0.79006 0.0
H898 H 0.49863 0.66894 0.27007 0.0
H899 H 0.51248 0.71067 0.2844 0.0
H900 H 0.51522 0.59641 0.4026 0.0
H901 H 0.51522 0.59641 0.4026 0.0
C902 C 0.87619 0.58039 0.55578 0.0
C903 C 0.86373 0.55716 0.46693 0.0
C904 C 0.91922 0.53014 0.4648 0.0
C905 C 0.93161 0.5519 0.55801 0.0
N906 N 0.91687 0.5924 0.71289 0.0
N907 N 0.87142 0.50267 0.37415 0.0
C908 C 0.90849 0.57544 0.60973 0.0
C909 C 0.88447 0.52962 0.43496 0.0
N910 N 0.85697 0.60726 0.58901 0.0
N911 N 0.94011 0.51079 0.39646 0.0
H912 H 0.84632 0.50116 0.34945 0.0
H913 H 0.88553 0.4811 0.35728 0.0
H914 H 0.96614 0.5127 0.40016 0.0
H915 H 0.96614 0.5127 0.40016 0.0
H916 H 0.86575 0.62741 0.64136 0.0
H917 H 0.83242 0.60991 0.5593 0.0
H918 H 0.90136 0.60948 0.75772 0.0
H919 H 0.93794 0.58625 0.7612 0.0
loop_
_geom_bond_atom_site_label_1
_geom_bond_atom_site_label_2
_geom_bond_distance
_geom_bond_site_symmetry_2
_ccdc_geom_bond_type
H0 C1 0.949 . S
C1 H0 0.949 . S
C1 C2 1.395 . S
C1 C3 1.391 . S
C2 C1 1.395 . S
C2 C5 1.390 . S
C3 C1 1.391 . S
C3 C7 1.387 . S
C3 C8 1.491 . S
H4 C5 0.950 . S
C5 C2 1.390 . S
C5 H4 0.950 . S
C5 C6 1.378 . S
C6 C5 1.378 . S
C6 C7 1.409 . S
C7 C3 1.387 . S
C7 C6 1.409 . S
C7 H9 0.951 . S
C8 C3 1.491 . S
C8 C10 1.382 . S
C8 C12 1.404 . S
H9 C7 0.951 . S
C10 C8 1.382 . S
C10 C11 1.390 . S
C10 H15 0.949 . S
C11 C10 1.390 . S
C11 C16 1.399 . S
C12 C8 1.404 . S
C12 H13 0.950 . S
C12 C14 1.375 . S
H13 C12 0.950 . S
C14 C12 1.375 . S
C14 C16 1.382 . S
C14 H18 0.950 . S
H15 C10 0.949 . S
C16 C11 1.399 . S
C16 C14 1.382 . S
C16 H17 0.952 . S
H17 C16 0.952 . S
H18 C14 0.950 . S
H19 C20 0.949 . S
C20 H19 0.949 . S
C20 C21 1.395 . S
C20 C22 1.391 . S
C21 C20 1.395 . S
C21 C24 1.390 . S
C22 C20 1.391 . S
C22 C26 1.387 . S
C22 C27 1.491 . S
H23 C24 0.950 . S
C24 C21 1.390 . S
C24 H23 0.950 . S
C24 C25 1.378 . S
C25 C24 1.378 . S
C25 C26 1.409 . S
C26 C22 1.387 . S
C26 C25 1.409 . S
C26 H28 0.951 . S
C27 C22 1.491 . S
C27 C29 1.382 . S
C27 C31 1.404 . S
H28 C26 0.951 . S
C29 C27 1.382 . S
C29 C30 1.390 . S
C29 H34 0.949 . S
C30 C29 1.390 . S
C30 C35 1.399 . S
C31 C27 1.404 . S
C31 H32 0.950 . S
C31 C33 1.375 . S
H32 C31 0.950 . S
C33 C31 1.375 . S
C33 C35 1.382 . S
C33 H37 0.950 . S
H34 C29 0.949 . S
C35 C30 1.399 . S
C35 C33 1.382 . S
C35 H36 0.952 . S
H36 C35 0.952 . S
H37 C33 0.950 . S
H38 C39 0.949 . S
C39 H38 0.949 . S
C39 C40 1.395 . S
C39 C41 1.391 . S
C40 C39 1.395 . S
C40 C43 1.390 . S
C41 C39 1.391 . S
C41 C45 1.387 . S
C41 C46 1.491 . S
H42 C43 0.950 . S
C43 C40 1.390 . S
C43 H42 0.950 . S
C43 C44 1.378 . S
C44 C43 1.378 . S
C44 C45 1.409 . S
C45 C41 1.387 . S
C45 C44 1.409 . S
C45 H47 0.951 . S
C46 C41 1.491 . S
C46 C48 1.382 . S
C46 C50 1.404 . S
H47 C45 0.951 . S
C48 C46 1.382 . S
C48 C49 1.390 . S
C48 H53 0.949 . S
C49 C48 1.390 . S
C49 C54 1.399 . S
C50 C46 1.404 . S
C50 H51 0.950 . S
C50 C52 1.375 . S
H51 C50 0.950 . S
C52 C50 1.375 . S
C52 C54 1.382 . S
C52 H56 0.950 . S
H53 C48 0.949 . S
C54 C49 1.399 . S
C54 C52 1.382 . S
C54 H55 0.952 . S
H55 C54 0.952 . S
H56 C52 0.950 . S
H57 C58 0.949 . S
C58 H57 0.949 . S
C58 C59 1.395 . S
C58 C60 1.391 . S
C59 C58 1.395 . S
C59 C62 1.390 . S
C60 C58 1.391 . S
C60 C64 1.387 . S
C60 C65 1.491 . S
H61 C62 0.950 . S
C62 C59 1.390 . S
C62 H61 0.950 . S
C62 C63 1.378 . S
C63 C62 1.378 . S
C63 C64 1.409 . S
C64 C60 1.387 . S
C64 C63 1.409 . S
C64 H66 0.951 . S
C65 C60 1.491 . S
C65 C67 1.382 . S
C65 C69 1.404 . S
H66 C64 0.951 . S
C67 C65 1.382 . S
C67 C68 1.390 . S
C67 H72 0.949 . S
C68 C67 1.390 . S
C68 C73 1.399 . S
C69 C65 1.404 . S
C69 H70 0.950 . S
C69 C71 1.375 . S
H70 C69 0.950 . S
C71 C69 1.375 . S
C71 C73 1.382 . S
C71 H75 0.950 . S
H72 C67 0.949 . S
C73 C68 1.399 . S
C73 C71 1.382 . S
C73 H74 0.952 . S
H74 C73 0.952 . S
H75 C71 0.950 . S
H76 C77 0.949 . S
C77 H76 0.949 . S
C77 C78 1.395 . S
C77 C79 1.391 1_554 S
C78 C77 1.395 . S
C78 C81 1.390 1_554 S
C79 C77 1.391 1_556 S
C79 C83 1.387 . S
C79 C84 1.491 . S
H80 C81 0.950 . S
C81 C78 1.390 1_556 S
C81 H80 0.950 . S
C81 C82 1.378 . S
C82 C81 1.378 . S
C82 C83 1.409 . S
C83 C79 1.387 . S
C83 C82 1.409 . S
C83 H85 0.951 . S
C84 C79 1.491 . S
C84 C86 1.382 1_556 S
C84 C88 1.404 . S
H85 C83 0.951 . S
C86 C84 1.382 1_554 S
C86 C87 1.390 . S
C86 H91 0.949 . S
C87 C86 1.390 . S
C87 C92 1.399 1_554 S
C88 C84 1.404 . S
C88 H89 0.950 . S
C88 C90 1.375 . S
H89 C88 0.950 . S
C90 C88 1.375 . S
C90 C92 1.382 . S
C90 H94 0.950 . S
H91 C86 0.949 . S
C92 C87 1.399 1_556 S
C92 C90 1.382 . S
C92 H93 0.952 . S
H93 C92 0.952 . S
H94 C90 0.950 . S
H95 C96 0.949 . S
C96 H95 0.949 . S
C96 C97 1.395 . S
C96 C98 1.391 1_554 S
C97 C96 1.395 . S
C97 C100 1.390 1_554 S
C98 C96 1.391 1_556 S
C98 C102 1.387 . S
C98 C103 1.491 . S
H99 C100 0.950 . S
C100 C97 1.390 1_556 S
C100 H99 0.950 . S
C100 C101 1.378 . S
C101 C100 1.378 . S
C101 C102 1.409 . S
C102 C98 1.387 . S
C102 C101 1.409 . S
C102 H104 0.951 . S
C103 C98 1.491 . S
C103 C105 1.382 1_556 S
C103 C107 1.404 . S
H104 C102 0.951 . S
C105 C103 1.382 1_554 S
C105 C106 1.390 . S
C105 H110 0.949 . S
C106 C105 1.390 . S
C106 C111 1.399 1_554 S
C107 C103 1.404 . S
C107 H108 0.950 . S
C107 C109 1.375 . S
H108 C107 0.950 . S
C109 C107 1.375 . S
C109 C111 1.382 . S
C109 H113 0.950 1_455 S
H110 C105 0.949 . S
C111 C106 1.399 1_556 S
C111 C109 1.382 . S
C111 H112 0.952 . S
H112 C111 0.952 . S
H113 C109 0.950 1_655 S
H114 C115 0.949 . S
C115 H114 0.949 . S
C115 C116 1.395 . S
C115 C117 1.391 1_554 S
C116 C115 1.395 . S
C116 C119 1.390 1_554 S
C117 C115 1.391 1_556 S
C117 C121 1.387 . S
C117 C122 1.491 . S
H118 C119 0.950 . S
C119 C116 1.390 1_556 S
C119 H118 0.950 . S
C119 C120 1.378 . S
C120 C119 1.378 . S
C120 C121 1.409 . S
C121 C117 1.387 . S
C121 C120 1.409 . S
C121 H123 0.951 . S
C122 C117 1.491 . S
C122 C124 1.382 1_556 S
C122 C126 1.404 . S
H123 C121 0.951 . S
C124 C122 1.382 1_554 S
C124 C125 1.390 . S
C124 H129 0.949 . S
C125 C124 1.390 . S
C125 C130 1.399 1_554 S
C126 C122 1.404 . S
C126 H127 0.950 . S
C126 C128 1.375 . S
H127 C126 0.950 . S
C128 C126 1.375 . S
C128 C130 1.382 . S
C128 H132 0.950 1_545 S
H129 C124 0.949 . S
C130 C125 1.399 1_556 S
C130 C128 1.382 . S
C130 H131 0.952 . S
H131 C130 0.952 . S
H132 C128 0.950 1_565 S
H133 C134 0.949 . S
C134 H133 0.949 . S
C134 C135 1.395 . S
C134 C136 1.391 1_554 S
C135 C134 1.395 . S
C135 C138 1.390 1_554 S
C136 C134 1.391 1_556 S
C136 C140 1.387 . S
C136 C141 1.491 . S
H137 C138 0.950 . S
C138 C135 1.390 1_556 S
C138 H137 0.950 . S
C138 C139 1.378 . S
C139 C138 1.378 . S
C139 C140 1.409 . S
C140 C136 1.387 . S
C140 C139 1.409 . S
C140 H142 0.951 . S
C141 C136 1.491 . S
C141 C143 1.382 1_556 S
C141 C145 1.404 . S
H142 C140 0.951 . S
C143 C141 1.382 1_554 S
C143 C144 1.390 . S
C143 H148 0.949 . S
C144 C143 1.390 . S
C144 C149 1.399 1_554 S
C145 C141 1.404 . S
C145 H146 0.950 . S
C145 C147 1.375 . S
H146 C145 0.950 . S
C147 C145 1.375 . S
C147 C149 1.382 . S
C147 H151 0.950 . S
H148 C143 0.949 . S
C149 C144 1.399 1_556 S
C149 C147 1.382 . S
C149 H150 0.952 . S
H150 C149 0.952 . S
H151 C147 0.950 . S
Eu152 N183 2.657 1_566 S
Eu152 N190 2.609 1_565 S
Eu152 O196 2.558 . S
Eu152 O197 2.612 1_455 S
Eu152 O199 2.345 1_455 S
Eu152 O200 2.563 . S
Eu152 O201 2.419 1_556 S
Eu152 O203 2.380 1_565 S
Eu152 O204 2.432 . S
Eu152 C216 2.848 . S
C153 C156 1.428 1_545 S
C153 C157 1.411 1_545 S
C153 N160 1.377 . S
C154 C156 1.420 . S
C154 C158 1.423 . S
C154 C166 1.392 . S
C155 C157 1.420 . S
C155 C158 1.351 . S
C155 H178 0.931 . S
C156 C153 1.428 1_565 S
C156 C154 1.420 . S
C156 N164 1.362 . S
C157 C153 1.411 1_565 S
C157 C155 1.420 . S
C157 C162 1.395 1_565 S
C158 C154 1.423 . S
C158 C155 1.351 . S
C158 H170 0.930 . S
C159 C161 1.400 . S
C159 C162 1.386 . S
C159 H171 0.930 . S
N160 C153 1.377 . S
N160 C161 1.321 . S
N160 Eu163 2.609 . S
C161 C159 1.400 . S
C161 N160 1.321 . S
C161 H168 0.930 . S
C162 C157 1.395 1_545 S
C162 C159 1.386 . S
C162 H181 0.930 . S
Eu163 N160 2.609 . S
Eu163 N164 2.657 1_545 S
Eu163 O197 2.380 1_545 S
Eu163 O198 2.432 . S
Eu163 O202 2.558 . S
Eu163 O203 2.612 1_655 S
Eu163 O205 2.339 1_655 S
Eu163 O206 2.563 1_655 S
Eu163 O207 2.419 . S
Eu163 C227 2.848 . S
N164 C156 1.362 . S
N164 Eu163 2.657 1_565 S
N164 C165 1.334 1_655 S
C165 N164 1.334 1_455 S
C165 C167 1.413 . S
C165 H172 0.929 . S
C166 C154 1.392 . S
C166 C167 1.367 1_655 S
C166 H174 0.930 . S
C167 C165 1.413 . S
C167 C166 1.367 1_455 S
C167 H169 0.930 . S
H168 C161 0.930 . S
H169 C167 0.930 . S
H170 C158 0.930 . S
H171 C159 0.930 . S
H172 C165 0.929 . S
H173 C187 0.930 1_655 S
H174 C166 0.930 . S
H175 C193 0.930 . S
H176 C184 0.929 1_655 S
H177 C191 0.930 . S
H178 C155 0.931 . S
H179 C185 0.930 . S
H180 C218 0.930 . S
H181 C162 0.930 . S
H182 C217 0.931 . S
N183 Eu152 2.657 1_544 S
N183 C184 1.334 . S
N183 C188 1.362 . S
C184 H176 0.929 1_455 S
C184 N183 1.334 . S
C184 C187 1.413 . S
C185 H179 0.930 . S
C185 C186 1.392 . S
C185 C187 1.367 . S
C186 C185 1.392 . S
C186 C188 1.420 . S
C186 C218 1.423 . S
C187 H173 0.930 1_455 S
C187 C184 1.413 . S
C187 C185 1.367 . S
C188 N183 1.362 . S
C188 C186 1.420 . S
C188 C192 1.429 . S
H189 C194 0.930 . S
N190 Eu152 2.609 1_545 S
N190 C192 1.377 1_556 S
N190 C193 1.321 1_545 S
C191 H177 0.930 . S
C191 C193 1.400 . S
C191 C194 1.386 1_566 S
C192 C188 1.429 . S
C192 N190 1.377 1_554 S
C192 C195 1.411 . S
C193 H175 0.930 . S
C193 N190 1.321 1_565 S
C193 C191 1.400 . S
C194 H189 0.930 . S
C194 C191 1.386 1_544 S
C194 C195 1.395 . S
C195 C192 1.411 . S
C195 C194 1.395 . S
C195 C217 1.420 . S
O196 Eu152 2.558 . S
O196 C216 1.257 . S
O197 Eu152 2.612 1_655 S
O197 Eu163 2.380 1_565 S
O197 C208 1.276 . S
O198 Eu163 2.432 . S
O198 C215 1.264 . S
O199 Eu152 2.345 1_655 S
O199 C215 1.245 1_565 S
O200 Eu152 2.563 . S
O200 C208 1.235 1_455 S
O201 Eu152 2.419 1_554 S
O201 C216 1.249 1_554 S
O202 Eu163 2.558 . S
O202 C227 1.257 . S
O203 Eu152 2.380 1_545 S
O203 Eu163 2.612 1_455 S
O203 C219 1.276 . S
O204 Eu152 2.432 . S
O204 C226 1.264 1_565 S
O205 Eu163 2.339 1_455 S
O205 C226 1.254 . S
O206 Eu163 2.563 1_455 S
O206 C219 1.235 . S
O207 Eu163 2.419 . S
O207 C227 1.249 . S
C208 O197 1.276 . S
C208 O200 1.235 1_655 S
C209 C211 1.393 . S
C209 C213 1.395 . S
C209 C216 1.492 1_554 S
C210 C211 1.392 . S
C210 C212 1.386 . S
C211 C209 1.393 . S
C211 C210 1.392 . S
C211 H228 0.930 . S
C212 C210 1.386 . S
C212 C214 1.395 . S
C212 H229 0.930 . S
C213 C209 1.395 . S
C213 C214 1.379 . S
C213 H230 0.930 . S
C214 C212 1.395 . S
C214 C213 1.379 . S
C214 H231 0.930 . S
C215 O198 1.264 . S
C215 O199 1.245 1_545 S
C216 Eu152 2.848 . S
C216 O196 1.257 . S
C216 O201 1.249 1_556 S
C216 C209 1.492 1_556 S
C217 H182 0.931 . S
C217 C195 1.420 . S
C217 C218 1.351 . S
C218 H180 0.930 . S
C218 C186 1.423 . S
C218 C217 1.351 . S
C219 O203 1.276 . S
C219 O206 1.235 . S
C220 C221 1.393 . S
C220 C224 1.395 . S
C220 C227 1.492 . S
C221 C220 1.393 . S
C221 C222 1.392 . S
C221 H232 0.930 1_655 S
C222 C221 1.392 . S
C222 C223 1.386 . S
C223 C222 1.386 . S
C223 C225 1.395 . S
C223 H233 0.930 . S
C224 C220 1.395 . S
C224 C225 1.379 . S
C224 H234 0.930 . S
C225 C223 1.395 . S
C225 C224 1.379 . S
C225 H235 0.930 . S
C226 O204 1.264 1_545 S
C226 O205 1.254 . S
C227 Eu163 2.848 . S
C227 O202 1.257 . S
C227 O207 1.249 . S
C227 C220 1.492 . S
H228 C211 0.930 . S
H229 C212 0.930 . S
H230 C213 0.930 . S
H231 C214 0.930 . S
H232 C221 0.930 1_455 S
H233 C223 0.930 . S
H234 C224 0.930 . S
H235 C225 0.930 . S
Eu236 N267 2.657 1_556 S
Eu236 N274 2.609 . S
Eu236 O280 2.558 . S
Eu236 O281 2.612 1_545 S
Eu236 O283 2.339 1_545 S
Eu236 O284 2.563 . S
Eu236 O285 2.419 1_556 S
Eu236 O287 2.380 . S
Eu236 O288 2.432 . S
Eu236 C300 2.848 . S
C237 C240 1.429 . S
C237 C241 1.411 . S
C237 N244 1.377 . S
C238 C240 1.420 . S
C238 C242 1.423 . S
C238 C250 1.392 . S
C239 C241 1.420 . S
C239 C242 1.351 . S
C239 H262 0.931 . S
C240 C237 1.429 . S
C240 C238 1.420 . S
C240 N248 1.362 . S
C241 C237 1.411 . S
C241 C239 1.420 . S
C241 C246 1.395 . S
C242 C238 1.423 . S
C242 C239 1.351 . S
C242 H254 0.930 . S
C243 C245 1.400 . S
C243 C246 1.386 . S
C243 H255 0.930 . S
N244 C237 1.377 . S
N244 C245 1.321 . S
N244 Eu247 2.609 . S
C245 C243 1.400 . S
C245 N244 1.321 . S
C245 H252 0.930 . S
C246 C241 1.395 . S
C246 C243 1.386 . S
C246 H265 0.930 . S
Eu247 N244 2.609 . S
Eu247 N248 2.657 . S
Eu247 O281 2.380 . S
Eu247 O282 2.432 . S
Eu247 O286 2.558 . S
Eu247 O287 2.612 1_565 S
Eu247 O289 2.339 1_565 S
Eu247 O290 2.563 1_565 S
Eu247 O291 2.419 . S
Eu247 C311 2.848 . S
N248 C240 1.362 . S
N248 Eu247 2.657 . S
N248 C249 1.334 1_565 S
C249 N248 1.334 1_545 S
C249 C251 1.413 . S
C249 H256 0.929 . S
C250 C238 1.392 . S
C250 C251 1.367 1_565 S
C250 H258 0.930 . S
C251 C249 1.413 . S
C251 C250 1.367 1_545 S
C251 H253 0.930 . S
H252 C245 0.930 . S
H253 C251 0.930 . S
H254 C242 0.930 . S
H255 C243 0.930 . S
H256 C249 0.929 . S
H257 C271 0.930 1_565 S
H258 C250 0.930 . S
H259 C277 0.930 . S
H260 C268 0.929 1_565 S
H261 C275 0.930 . S
H262 C239 0.931 . S
H263 C269 0.930 . S
H264 C302 0.930 . S
H265 C246 0.930 . S
H266 C301 0.931 . S
N267 Eu236 2.657 1_554 S
N267 C268 1.334 . S
N267 C272 1.362 . S
C268 H260 0.929 1_545 S
C268 N267 1.334 . S
C268 C271 1.413 . S
C269 H263 0.930 . S
C269 C270 1.392 . S
C269 C271 1.367 . S
C270 C269 1.392 . S
C270 C272 1.420 . S
C270 C302 1.423 . S
C271 H257 0.930 1_545 S
C271 C268 1.413 . S
C271 C269 1.367 . S
C272 N267 1.362 . S
C272 C270 1.420 . S
C272 C276 1.429 . S
H273 C278 0.930 . S
N274 Eu236 2.609 . S
N274 C276 1.377 1_556 S
N274 C277 1.321 . S
C275 H261 0.930 . S
C275 C277 1.400 . S
C275 C278 1.386 1_556 S
C276 C272 1.429 . S
C276 N274 1.377 1_554 S
C276 C279 1.411 . S
C277 H259 0.930 . S
C277 N274 1.321 . S
C277 C275 1.400 . S
C278 H273 0.930 . S
C278 C275 1.386 1_554 S
C278 C279 1.395 . S
C279 C276 1.411 . S
C279 C278 1.395 . S
C279 C301 1.420 . S
O280 Eu236 2.558 . S
O280 C300 1.257 . S
O281 Eu236 2.612 1_565 S
O281 Eu247 2.380 . S
O281 C292 1.276 . S
O282 Eu247 2.432 . S
O282 C299 1.264 . S
O283 Eu236 2.339 1_565 S
O283 C299 1.254 . S
O284 Eu236 2.563 . S
O284 C292 1.235 1_545 S
O285 Eu236 2.419 1_554 S
O285 C300 1.249 1_554 S
O286 Eu247 2.558 . S
O286 C311 1.257 . S
O287 Eu236 2.380 . S
O287 Eu247 2.612 1_545 S
O287 C303 1.276 . S
O288 Eu236 2.432 . S
O288 C310 1.264 . S
O289 Eu247 2.339 1_545 S
O289 C310 1.254 . S
O290 Eu247 2.563 1_545 S
O290 C303 1.235 . S
O291 Eu247 2.419 . S
O291 C311 1.249 . S
C292 O281 1.276 . S
C292 O284 1.235 1_565 S
C293 C295 1.393 . S
C293 C297 1.395 . S
C293 C300 1.492 1_554 S
C294 C295 1.392 . S
C294 C296 1.386 . S
C295 C293 1.393 . S
C295 C294 1.392 . S
C295 H312 0.930 . S
C296 C294 1.386 . S
C296 C298 1.395 . S
C296 H313 0.930 . S
C297 C293 1.395 . S
C297 C298 1.379 . S
C297 H314 0.930 . S
C298 C296 1.395 . S
C298 C297 1.379 . S
C298 H315 0.930 . S
C299 O282 1.264 . S
C299 O283 1.254 . S
C300 Eu236 2.848 . S
C300 O280 1.257 . S
C300 O285 1.249 1_556 S
C300 C293 1.492 1_556 S
C301 H266 0.931 . S
C301 C279 1.420 . S
C301 C302 1.351 . S
C302 H264 0.930 . S
C302 C270 1.423 . S
C302 C301 1.351 . S
C303 O287 1.276 . S
C303 O290 1.235 . S
C304 C305 1.393 . S
C304 C308 1.395 . S
C304 C311 1.492 . S
C305 C304 1.393 . S
C305 C306 1.392 . S
C305 H316 0.930 1_565 S
C306 C305 1.392 . S
C306 C307 1.386 . S
C307 C306 1.386 . S
C307 C309 1.395 . S
C307 H317 0.930 . S
C308 C304 1.395 . S
C308 C309 1.379 . S
C308 H318 0.930 . S
C309 C307 1.395 . S
C309 C308 1.379 . S
C309 H319 0.930 . S
C310 O288 1.264 . S
C310 O289 1.254 . S
C311 Eu247 2.848 . S
C311 O286 1.257 . S
C311 O291 1.249 . S
C311 C304 1.492 . S
H312 C295 0.930 . S
H313 C296 0.930 . S
H314 C297 0.930 . S
H315 C298 0.930 . S
H316 C305 0.930 1_545 S
H317 C307 0.930 . S
H318 C308 0.930 . S
H319 C309 0.930 . S
Eu320 N351 2.657 . S
Eu320 N358 2.609 . S
Eu320 O364 2.558 . S
Eu320 O365 2.612 . S
Eu320 O367 2.339 . S
Eu320 O368 2.563 . S
Eu320 O369 2.419 . S
Eu320 O371 2.380 . S
Eu320 O372 2.432 . S
Eu320 C384 2.848 . S
C321 C324 1.429 . S
C321 C325 1.411 . S
C321 N328 1.377 . S
C322 C324 1.420 . S
C322 C326 1.423 . S
C322 C334 1.392 . S
C323 C325 1.420 . S
C323 C326 1.351 . S
C323 H346 0.931 . S
C324 C321 1.429 . S
C324 C322 1.420 . S
C324 N332 1.362 . S
C325 C321 1.411 . S
C325 C323 1.420 . S
C325 C330 1.395 1_556 S
C326 C322 1.423 . S
C326 C323 1.351 . S
C326 H338 0.930 . S
C327 C329 1.400 . S
C327 C330 1.386 . S
C327 H339 0.930 . S
N328 C321 1.377 . S
N328 C329 1.321 1_556 S
N328 Eu331 2.609 . S
C329 C327 1.400 . S
C329 N328 1.321 1_554 S
C329 H336 0.930 . S
C330 C325 1.395 1_554 S
C330 C327 1.386 . S
C330 H349 0.930 . S
Eu331 N328 2.609 . S
Eu331 N332 2.657 . S
Eu331 O365 2.380 . S
Eu331 O366 2.432 . S
Eu331 O370 2.558 1_556 S
Eu331 O371 2.612 . S
Eu331 O373 2.339 . S
Eu331 O374 2.563 . S
Eu331 O375 2.419 . S
Eu331 C395 2.848 1_556 S
N332 C324 1.362 . S
N332 Eu331 2.657 . S
N332 C333 1.334 . S
C333 N332 1.334 . S
C333 C335 1.413 . S
C333 H340 0.929 . S
C334 C322 1.392 . S
C334 C335 1.367 . S
C334 H342 0.930 . S
C335 C333 1.413 . S
C335 C334 1.367 . S
C335 H337 0.930 . S
H336 C329 0.930 . S
H337 C335 0.930 . S
H338 C326 0.930 . S
H339 C327 0.930 . S
H340 C333 0.929 . S
H341 C355 0.930 . S
H342 C334 0.930 . S
H343 C361 0.930 . S
H344 C352 0.929 . S
H345 C359 0.930 . S
H346 C323 0.931 . S
H347 C353 0.930 . S
H348 C386 0.930 . S
H349 C330 0.930 . S
H350 C385 0.931 . S
N351 Eu320 2.657 . S
N351 C352 1.334 . S
N351 C356 1.362 . S
C352 H344 0.929 . S
C352 N351 1.334 . S
C352 C355 1.413 . S
C353 H347 0.930 . S
C353 C354 1.392 . S
C353 C355 1.367 . S
C354 C353 1.392 . S
C354 C356 1.420 . S
C354 C386 1.423 . S
C355 H341 0.930 . S
C355 C352 1.413 . S
C355 C353 1.367 . S
C356 N351 1.362 . S
C356 C354 1.420 . S
C356 C360 1.429 . S
H357 C362 0.930 . S
N358 Eu320 2.609 . S
N358 C360 1.377 . S
N358 C361 1.321 . S
C359 H345 0.930 . S
C359 C361 1.400 . S
C359 C362 1.386 . S
C360 C356 1.429 . S
C360 N358 1.377 . S
C360 C363 1.411 . S
C361 H343 0.930 . S
C361 N358 1.321 . S
C361 C359 1.400 . S
C362 H357 0.930 . S
C362 C359 1.386 . S
C362 C363 1.395 . S
C363 C360 1.411 . S
C363 C362 1.395 . S
C363 C385 1.420 . S
O364 Eu320 2.558 . S
O364 C384 1.257 . S
O365 Eu320 2.612 . S
O365 Eu331 2.380 . S
O365 C376 1.276 . S
O366 Eu331 2.432 . S
O366 C383 1.264 . S
O367 Eu320 2.339 . S
O367 C383 1.254 . S
O368 Eu320 2.563 . S
O368 C376 1.235 . S
O369 Eu320 2.419 . S
O369 C384 1.249 . S
O370 Eu331 2.558 1_554 S
O370 C395 1.257 . S
O371 Eu320 2.380 . S
O371 Eu331 2.612 . S
O371 C387 1.276 . S
O372 Eu320 2.432 . S
O372 C394 1.264 . S
O373 Eu331 2.339 . S
O373 C394 1.254 . S
O374 Eu331 2.563 . S
O374 C387 1.235 . S
O375 Eu331 2.419 . S
O375 C395 1.249 1_556 S
C376 O365 1.276 . S
C376 O368 1.235 . S
C377 C379 1.393 . S
C377 C381 1.395 . S
C377 C384 1.492 . S
C378 C379 1.392 . S
C378 C380 1.386 . S
C379 C377 1.393 . S
C379 C378 1.392 . S
C379 H396 0.930 . S
C380 C378 1.386 . S
C380 C382 1.395 . S
C380 H397 0.930 . S
C381 C377 1.395 . S
C381 C382 1.379 . S
C381 H398 0.930 . S
C382 C380 1.395 . S
C382 C381 1.379 . S
C382 H399 0.930 1_554 S
C383 O366 1.264 . S
C383 O367 1.254 . S
C384 Eu320 2.848 . S
C384 O364 1.257 . S
C384 O369 1.249 . S
C384 C377 1.492 . S
C385 H350 0.931 . S
C385 C363 1.420 . S
C385 C386 1.351 . S
C386 H348 0.930 . S
C386 C354 1.423 . S
C386 C385 1.351 . S
C387 O371 1.276 . S
C387 O374 1.235 . S
C388 C389 1.393 . S
C388 C392 1.395 . S
C388 C395 1.492 . S
C389 C388 1.393 . S
C389 C390 1.392 . S
C389 H400 0.930 . S
C390 C389 1.392 . S
C390 C391 1.386 . S
C391 C390 1.386 . S
C391 C393 1.395 . S
C391 H401 0.930 . S
C392 C388 1.395 . S
C392 C393 1.379 . S
C392 H402 0.930 . S
C393 C391 1.395 . S
C393 C392 1.379 . S
C393 H403 0.930 . S
C394 O372 1.264 . S
C394 O373 1.254 . S
C395 Eu331 2.848 1_554 S
C395 O370 1.257 . S
C395 O375 1.249 1_554 S
C395 C388 1.492 . S
H396 C379 0.930 . S
H397 C380 0.930 . S
H398 C381 0.930 . S
H399 C382 0.930 1_556 S
H400 C389 0.930 . S
H401 C391 0.930 . S
H402 C392 0.930 . S
H403 C393 0.930 . S
Eu404 N435 2.657 . S
Eu404 N442 2.609 . S
Eu404 O448 2.558 . S
Eu404 O449 2.612 . S
Eu404 O451 2.339 . S
Eu404 O452 2.563 . S
Eu404 O453 2.419 . S
Eu404 O455 2.380 . S
Eu404 O456 2.432 1_455 S
Eu404 C468 2.848 . S
C405 C408 1.429 . S
C405 C409 1.411 . S
C405 N412 1.369 1_655 S
C406 C408 1.420 . S
C406 C410 1.423 . S
C406 C418 1.392 . S
C407 C409 1.420 . S
C407 C410 1.351 . S
C407 H430 0.931 . S
C408 C405 1.429 . S
C408 C406 1.420 . S
C408 N416 1.362 . S
C409 C405 1.411 . S
C409 C407 1.420 . S
C409 C414 1.395 1_656 S
C410 C406 1.423 . S
C410 C407 1.351 . S
C410 H422 0.930 . S
C411 C413 1.400 . S
C411 C414 1.386 . S
C411 H423 0.930 . S
N412 C405 1.369 1_455 S
N412 C413 1.331 1_556 S
N412 Eu415 2.605 1_455 S
C413 C411 1.400 . S
C413 N412 1.331 1_554 S
C413 H420 0.930 . S
C414 C409 1.395 1_454 S
C414 C411 1.386 . S
C414 H433 0.930 . S
Eu415 N412 2.605 1_655 S
Eu415 N416 2.657 . S
Eu415 O449 2.380 1_655 S
Eu415 O450 2.432 1_655 S
Eu415 O454 2.558 1_556 S
Eu415 O455 2.612 1_655 S
Eu415 O457 2.339 . S
Eu415 O458 2.563 . S
Eu415 O459 2.419 . S
Eu415 C479 2.848 1_556 S
N416 C408 1.362 . S
N416 Eu415 2.657 . S
N416 C417 1.334 . S
C417 N416 1.334 . S
C417 C419 1.413 . S
C417 H424 0.929 . S
C418 C406 1.392 . S
C418 C419 1.367 . S
C418 H426 0.930 . S
C419 C417 1.413 . S
C419 C418 1.367 . S
C419 H421 0.930 . S
H420 C413 0.930 . S
H421 C419 0.930 . S
H422 C410 0.930 . S
H423 C411 0.930 . S
H424 C417 0.929 . S
H425 C439 0.930 . S
H426 C418 0.930 . S
H427 C445 0.930 . S
H428 C436 0.929 . S
H429 C443 0.930 . S
H430 C407 0.931 . S
H431 C437 0.930 . S
H432 C470 0.930 . S
H433 C414 0.930 . S
H434 C469 0.931 . S
N435 Eu404 2.657 . S
N435 C436 1.334 . S
N435 C440 1.362 . S
C436 H428 0.929 . S
C436 N435 1.334 . S
C436 C439 1.413 . S
C437 H431 0.930 . S
C437 C438 1.392 . S
C437 C439 1.367 . S
C438 C437 1.392 . S
C438 C440 1.420 . S
C438 C470 1.423 . S
C439 H425 0.930 . S
C439 C436 1.413 . S
C439 C437 1.367 . S
C440 N435 1.362 . S
C440 C438 1.420 . S
C440 C444 1.429 . S
H441 C446 0.930 . S
N442 Eu404 2.609 . S
N442 C444 1.377 . S
N442 C445 1.321 1_455 S
C443 H429 0.930 . S
C443 C445 1.400 . S
C443 C446 1.386 1_655 S
C444 C440 1.429 . S
C444 N442 1.377 . S
C444 C447 1.411 . S
C445 H427 0.930 . S
C445 N442 1.321 1_655 S
C445 C443 1.400 . S
C446 H441 0.930 . S
C446 C443 1.386 1_455 S
C446 C447 1.395 . S
C447 C444 1.411 . S
C447 C446 1.395 . S
C447 C469 1.420 . S
O448 Eu404 2.558 . S
O448 C468 1.257 . S
O449 Eu404 2.612 . S
O449 Eu415 2.380 1_455 S
O449 C460 1.276 . S
O450 Eu415 2.432 1_455 S
O450 C467 1.264 . S
O451 Eu404 2.339 . S
O451 C467 1.254 . S
O452 Eu404 2.563 . S
O452 C460 1.235 . S
O453 Eu404 2.419 . S
O453 C468 1.249 . S
O454 Eu415 2.558 1_554 S
O454 C479 1.257 . S
O455 Eu404 2.380 . S
O455 Eu415 2.612 1_455 S
O455 C471 1.276 1_455 S
O456 Eu404 2.432 1_655 S
O456 C478 1.264 . S
O457 Eu415 2.339 . S
O457 C478 1.254 . S
O458 Eu415 2.563 . S
O458 C471 1.235 . S
O459 Eu415 2.419 . S
O459 C479 1.249 1_556 S
C460 O449 1.276 . S
C460 O452 1.235 . S
C461 C463 1.393 . S
C461 C465 1.395 . S
C461 C468 1.492 . S
C462 C463 1.392 . S
C462 C464 1.386 . S
C463 C461 1.393 . S
C463 C462 1.392 . S
C463 H480 0.930 . S
C464 C462 1.386 . S
C464 C466 1.395 . S
C464 H481 0.930 . S
C465 C461 1.395 . S
C465 C466 1.379 . S
C465 H482 0.930 . S
C466 C464 1.395 . S
C466 C465 1.379 . S
C466 H483 0.930 1_554 S
C467 O450 1.264 . S
C467 O451 1.254 . S
C468 Eu404 2.848 . S
C468 O448 1.257 . S
C468 O453 1.249 . S
C468 C461 1.492 . S
C469 H434 0.931 . S
C469 C447 1.420 . S
C469 C470 1.351 . S
C470 H432 0.930 . S
C470 C438 1.423 . S
C470 C469 1.351 . S
C471 O455 1.276 1_655 S
C471 O458 1.235 . S
C472 C473 1.393 . S
C472 C476 1.395 . S
C472 C479 1.492 . S
C473 C472 1.393 . S
C473 C474 1.392 . S
C473 H484 0.930 . S
C474 C473 1.392 . S
C474 C475 1.386 . S
C475 C474 1.386 . S
C475 C477 1.395 . S
C475 H485 0.930 . S
C476 C472 1.395 . S
C476 C477 1.379 . S
C476 H486 0.930 . S
C477 C475 1.395 . S
C477 C476 1.379 . S
C477 H487 0.930 . S
C478 O456 1.264 . S
C478 O457 1.254 . S
C479 Eu415 2.848 1_554 S
C479 O454 1.257 . S
C479 O459 1.249 1_554 S
C479 C472 1.492 . S
H480 C463 0.930 . S
H481 C464 0.930 . S
H482 C465 0.930 . S
H483 C466 0.930 1_556 S
H484 C473 0.930 . S
H485 C475 0.930 . S
H486 C476 0.930 . S
H487 C477 0.930 . S
C488 C489 1.363 . S
C488 C494 1.379 . S
C488 N496 1.356 . S
C489 C488 1.363 . S
C489 C495 1.363 . S
C490 C491 1.363 . S
C490 C495 1.379 . S
C490 N497 1.356 1_545 S
C491 C490 1.363 . S
C491 C494 1.363 . S
N492 C494 1.356 . S
N492 H504 0.984 . S
N492 H505 0.985 . S
N493 C495 1.356 1_565 S
N493 H498 0.984 1_565 S
N493 H499 0.985 . S
C494 C488 1.379 . S
C494 C491 1.363 . S
C494 N492 1.356 . S
C495 C489 1.363 . S
C495 C490 1.379 . S
C495 N493 1.356 1_545 S
N496 C488 1.356 . S
N496 H502 0.984 . S
N496 H503 0.984 . S
N497 C490 1.356 1_565 S
N497 H500 0.984 . S
N497 H501 0.985 . S
H498 N493 0.984 1_545 S
H499 N493 0.985 . S
H500 N497 0.984 . S
H501 N497 0.985 . S
H502 N496 0.984 . S
H503 N496 0.984 . S
H504 N492 0.984 . S
H505 N492 0.985 . S
C506 C507 1.363 . S
C506 C512 1.379 . S
C506 N514 1.356 . S
C507 C506 1.363 . S
C507 C513 1.363 . S
C508 C509 1.363 . S
C508 C513 1.379 . S
C508 N515 1.356 . S
C509 C508 1.363 . S
C509 C512 1.363 . S
N510 C512 1.356 . S
N510 H522 0.984 . S
N510 H523 0.985 . S
N511 C513 1.356 . S
N511 H516 0.984 . S
N511 H517 0.985 . S
C512 C506 1.379 . S
C512 C509 1.363 . S
C512 N510 1.356 . S
C513 C507 1.363 . S
C513 C508 1.379 . S
C513 N511 1.356 . S
N514 C506 1.356 . S
N514 H520 0.984 . S
N514 H521 0.984 . S
N515 C508 1.356 . S
N515 H518 0.984 . S
N515 H519 0.985 . S
H516 N511 0.984 . S
H517 N511 0.985 . S
H518 N515 0.984 . S
H519 N515 0.985 . S
H520 N514 0.984 . S
H521 N514 0.984 . S
H522 N510 0.984 . S
H523 N510 0.985 . S
C524 C525 1.363 . S
C524 C530 1.379 . S
C524 N532 1.356 . S
C525 C524 1.363 . S
C525 C531 1.363 . S
C526 C527 1.363 . S
C526 C531 1.379 . S
C526 N533 1.356 . S
C527 C526 1.363 . S
C527 C530 1.363 . S
N528 C530 1.356 . S
N528 H540 0.984 . S
N528 H541 0.985 . S
N529 C531 1.356 . S
N529 H534 0.984 . S
N529 H535 0.985 . S
C530 C524 1.379 . S
C530 C527 1.363 . S
C530 N528 1.356 . S
C531 C525 1.363 . S
C531 C526 1.379 . S
C531 N529 1.356 . S
N532 C524 1.356 . S
N532 H538 0.984 . S
N532 H539 0.984 . S
N533 C526 1.356 . S
N533 H536 0.984 . S
N533 H537 0.985 . S
H534 N529 0.984 . S
H535 N529 0.985 . S
H536 N533 0.984 . S
H537 N533 0.985 . S
H538 N532 0.984 . S
H539 N532 0.984 . S
H540 N528 0.984 . S
H541 N528 0.985 . S
C542 C543 1.363 . S
C542 C548 1.379 . S
C542 N550 1.356 . S
C543 C542 1.363 . S
C543 C549 1.363 . S
C544 C545 1.363 . S
C544 C549 1.379 . S
C544 N551 1.356 . S
C545 C544 1.363 . S
C545 C548 1.363 . S
N546 C548 1.356 . S
N546 H558 0.984 . S
N546 H559 0.985 . S
N547 C549 1.356 . S
N547 H552 0.984 . S
N547 H553 0.985 . S
C548 C542 1.379 . S
C548 C545 1.363 . S
C548 N546 1.356 . S
C549 C543 1.363 . S
C549 C544 1.379 . S
C549 N547 1.356 . S
N550 C542 1.356 . S
N550 H556 0.984 . S
N550 H557 0.984 . S
N551 C544 1.356 . S
N551 H554 0.984 . S
N551 H555 0.985 . S
H552 N547 0.984 . S
H553 N547 0.985 . S
H554 N551 0.984 . S
H555 N551 0.985 . S
H556 N550 0.984 . S
H557 N550 0.984 . S
H558 N546 0.984 . S
H559 N546 0.985 . S
C560 C561 1.363 . S
C560 C566 1.379 . S
C560 N568 1.356 . S
C561 C560 1.363 . S
C561 C567 1.363 1_565 S
C562 C563 1.363 1_544 S
C562 C567 1.379 . S
C562 N569 1.356 1_554 S
C563 C562 1.363 1_566 S
C563 C566 1.363 1_556 S
N564 C566 1.356 1_556 S
N564 H576 0.984 . S
N564 H577 0.985 . S
N565 C567 1.356 . S
N565 H570 0.984 . S
N565 H571 0.985 . S
C566 C560 1.379 . S
C566 C563 1.363 1_554 S
C566 N564 1.356 1_554 S
C567 C561 1.363 1_545 S
C567 C562 1.379 . S
C567 N565 1.356 . S
N568 C560 1.356 . S
N568 H574 0.984 . S
N568 H575 0.984 . S
N569 C562 1.356 1_556 S
N569 H572 0.984 . S
N569 H573 0.985 . S
H570 N565 0.984 . S
H571 N565 0.985 . S
H572 N569 0.984 . S
H573 N569 0.985 . S
H574 N568 0.984 . S
H575 N568 0.984 . S
H576 N564 0.984 . S
H577 N564 0.985 . S
C578 C579 1.363 . S
C578 C584 1.379 . S
C578 N586 1.356 . S
C579 C578 1.363 . S
C579 C585 1.363 . S
C580 C581 1.363 . S
C580 C585 1.379 1_556 S
C580 N587 1.356 . S
C581 C580 1.363 . S
C581 C584 1.363 1_556 S
N582 C584 1.356 . S
N582 H594 0.984 . S
N582 H595 0.985 1_554 S
N583 C585 1.356 . S
N583 H588 0.984 . S
N583 H589 0.985 . S
C584 C578 1.379 . S
C584 C581 1.363 1_554 S
C584 N582 1.356 . S
C585 C579 1.363 . S
C585 C580 1.379 1_554 S
C585 N583 1.356 . S
N586 C578 1.356 . S
N586 H592 0.984 . S
N586 H593 0.984 . S
N587 C580 1.356 . S
N587 H590 0.984 . S
N587 H591 0.985 . S
H588 N583 0.984 . S
H589 N583 0.985 . S
H590 N587 0.984 . S
H591 N587 0.985 . S
H592 N586 0.984 . S
H593 N586 0.984 . S
H594 N582 0.984 . S
H595 N582 0.985 1_556 S
C596 C597 1.363 . S
C596 C602 1.379 . S
C596 N604 1.356 . S
C597 C596 1.363 . S
C597 C603 1.363 . S
C598 C599 1.363 . S
C598 C603 1.379 1_556 S
C598 N605 1.356 . S
C599 C598 1.363 . S
C599 C602 1.363 1_556 S
N600 C602 1.356 1_556 S
N600 H612 0.983 1_556 S
N600 H613 0.985 . S
N601 C603 1.356 . S
N601 H606 0.984 . S
N601 H607 0.985 . S
C602 C596 1.379 . S
C602 C599 1.363 1_554 S
C602 N600 1.356 1_554 S
C603 C597 1.363 . S
C603 C598 1.379 1_554 S
C603 N601 1.356 . S
N604 C596 1.356 . S
N604 H610 0.984 . S
N604 H611 0.984 . S
N605 C598 1.356 . S
N605 H608 0.984 . S
N605 H609 0.985 . S
H606 N601 0.984 . S
H607 N601 0.985 . S
H608 N605 0.984 . S
H609 N605 0.985 . S
H610 N604 0.984 . S
H611 N604 0.984 . S
H612 N600 0.983 1_554 S
H613 N600 0.985 . S
C614 C615 1.363 . S
C614 C620 1.379 1_554 S
C614 N622 1.356 . S
C615 C614 1.363 . S
C615 C621 1.363 . S
C616 C617 1.363 1_554 S
C616 C621 1.379 . S
C616 N623 1.356 1_655 S
C617 C616 1.363 1_556 S
C617 C620 1.363 . S
N618 C620 1.356 . S
N618 H630 0.984 . S
N618 H631 0.985 . S
N619 C621 1.356 . S
N619 H624 0.984 . S
N619 H625 0.983 1_655 S
C620 C614 1.379 1_556 S
C620 C617 1.363 . S
C620 N618 1.356 . S
C621 C615 1.363 . S
C621 C616 1.379 . S
C621 N619 1.356 . S
N622 C614 1.356 . S
N622 H628 0.984 . S
N622 H629 0.984 . S
N623 C616 1.356 1_455 S
N623 H626 0.984 1_554 S
N623 H627 0.985 . S
H624 N619 0.984 . S
H625 N619 0.983 1_455 S
H626 N623 0.984 1_556 S
H627 N623 0.985 . S
H628 N622 0.984 . S
H629 N622 0.984 . S
H630 N618 0.984 . S
H631 N618 0.985 . S
C632 C633 1.363 . S
C632 C638 1.379 . S
C632 N640 1.356 1_554 S
C633 C632 1.363 . S
C633 C639 1.363 . S
C634 C635 1.363 . S
C634 C639 1.379 . S
C634 N641 1.356 . S
C635 C634 1.363 . S
C635 C638 1.363 . S
N636 C638 1.374 . S
N636 H648 0.989 1_554 S
N636 H649 0.964 1_455 S
N637 C639 1.356 . S
N637 H642 0.984 . S
N637 H643 0.985 . S
C638 C632 1.379 . S
C638 C635 1.363 . S
C638 N636 1.374 . S
C639 C633 1.363 . S
C639 C634 1.379 . S
C639 N637 1.356 . S
N640 C632 1.356 1_556 S
N640 H646 0.984 . S
N640 H647 0.984 . S
N641 C634 1.356 . S
N641 H644 0.984 1_455 S
N641 H645 0.985 . S
H642 N637 0.984 . S
H643 N637 0.985 . S
H644 N641 0.984 1_655 S
H645 N641 0.985 . S
H646 N640 0.984 . S
H647 N640 0.984 . S
H648 N636 0.989 1_556 S
H649 N636 0.964 1_655 S
C650 C651 1.363 . S
C650 C656 1.358 1_545 S
C650 N658 1.356 1_554 S
C651 C650 1.363 . S
C651 C657 1.363 . S
C652 C653 1.363 . S
C652 C657 1.379 . S
C652 N659 1.356 . S
C653 C652 1.363 . S
C653 C656 1.354 1_545 S
N654 C656 1.388 . S
N654 H666 0.984 . S
N654 H667 0.985 . S
N655 C657 1.356 . S
N655 H660 0.984 . S
N655 H661 0.985 . S
C656 C650 1.358 1_565 S
C656 C653 1.354 1_565 S
C656 N654 1.388 . S
C657 C651 1.363 . S
C657 C652 1.379 . S
C657 N655 1.356 . S
N658 C650 1.356 1_556 S
N658 H664 0.981 . S
N658 H665 0.984 . S
N659 C652 1.356 . S
N659 H662 0.984 . S
N659 H663 0.985 . S
H660 N655 0.984 . S
H661 N655 0.985 . S
H662 N659 0.984 . S
H663 N659 0.985 . S
H664 N658 0.981 . S
H665 N658 0.984 . S
H666 N654 0.984 . S
H667 N654 0.985 . S
C668 C669 1.363 . S
C668 C674 1.379 . S
C668 N676 1.356 1_554 S
C669 C668 1.363 . S
C669 C675 1.363 . S
C670 C671 1.363 . S
C670 C675 1.379 . S
C670 N677 1.356 . S
C671 C670 1.363 . S
C671 C674 1.363 . S
N672 C674 1.356 . S
N672 H684 0.984 1_554 S
N672 H685 0.985 . S
N673 C675 1.356 . S
N673 H678 0.984 . S
N673 H679 0.985 . S
C674 C668 1.379 . S
C674 C671 1.363 . S
C674 N672 1.356 . S
C675 C669 1.363 . S
C675 C670 1.379 . S
C675 N673 1.356 . S
N676 C668 1.356 1_556 S
N676 H682 0.984 . S
N676 H683 0.984 . S
N677 C670 1.356 . S
N677 H680 0.984 . S
N677 H681 0.985 . S
H678 N673 0.984 . S
H679 N673 0.985 . S
H680 N677 0.984 . S
H681 N677 0.985 . S
H682 N676 0.984 . S
H683 N676 0.984 . S
H684 N672 0.984 1_556 S
H685 N672 0.985 . S
C686 C687 1.363 . S
C686 C692 1.379 . S
C686 N694 1.356 . S
C687 C686 1.363 . S
C687 C693 1.363 . S
C688 C689 1.363 . S
C688 C693 1.379 . S
C688 N695 1.356 . S
C689 C688 1.363 . S
C689 C692 1.363 . S
N690 C692 1.356 . S
N690 H702 0.984 . S
N690 H703 0.985 . S
N691 C693 1.356 1_556 S
N691 H696 0.984 . S
N691 H697 0.985 . S
C692 C686 1.379 . S
C692 C689 1.363 . S
C692 N690 1.356 . S
C693 C687 1.363 . S
C693 C688 1.379 . S
C693 N691 1.356 1_554 S
N694 C686 1.356 . S
N694 H700 0.984 . S
N694 H701 0.984 . S
N695 C688 1.356 . S
N695 H698 0.984 . S
N695 H699 0.985 1_554 S
H696 N691 0.984 . S
H697 N691 0.985 . S
H698 N695 0.984 . S
H699 N695 0.985 1_556 S
H700 N694 0.984 . S
H701 N694 0.984 . S
H702 N690 0.984 . S
H703 N690 0.985 . S
C704 C705 1.363 . S
C704 C710 1.379 1_655 S
C704 N712 1.356 . S
C705 C704 1.363 . S
C705 C711 1.363 . S
C706 C707 1.363 1_655 S
C706 C711 1.379 . S
C706 N713 1.356 . S
C707 C706 1.363 1_455 S
C707 C710 1.363 . S
N708 C710 1.356 . S
N708 H720 0.984 . S
N708 H721 0.985 . S
N709 C711 1.356 . S
N709 H714 0.984 . S
N709 H715 0.985 . S
C710 C704 1.379 1_455 S
C710 C707 1.363 . S
C710 N708 1.356 . S
C711 C705 1.363 . S
C711 C706 1.379 . S
C711 N709 1.356 . S
N712 C704 1.356 . S
N712 H718 0.984 1_655 S
N712 H719 0.984 . S
N713 C706 1.356 . S
N713 H716 0.984 1_655 S
N713 H717 0.985 . S
H714 N709 0.984 . S
H715 N709 0.985 . S
H716 N713 0.984 1_455 S
H717 N713 0.985 . S
H718 N712 0.984 1_455 S
H719 N712 0.984 . S
H720 N708 0.984 . S
H721 N708 0.985 . S
C722 C723 1.363 . S
C722 C728 1.379 1_565 S
C722 N730 1.356 . S
C723 C722 1.363 . S
C723 C729 1.363 . S
C724 C725 1.363 . S
C724 C729 1.379 1_545 S
C724 N731 1.356 . S
C725 C724 1.363 . S
C725 C728 1.363 . S
N726 C728 1.356 . S
N726 H738 0.984 . S
N726 H739 0.985 . S
N727 C729 1.356 . S
N727 H732 0.984 . S
N727 H733 0.985 . S
C728 C722 1.379 1_545 S
C728 C725 1.363 . S
C728 N726 1.356 . S
C729 C723 1.363 . S
C729 C724 1.379 1_565 S
C729 N727 1.356 . S
N730 C722 1.356 . S
N730 H736 0.984 . S
N730 H737 0.984 . S
N731 C724 1.356 . S
N731 H734 0.984 . S
N731 H735 0.985 1_554 S
H732 N727 0.984 . S
H733 N727 0.985 . S
H734 N731 0.984 . S
H735 N731 0.985 1_556 S
H736 N730 0.984 . S
H737 N730 0.984 . S
H738 N726 0.984 . S
H739 N726 0.985 . S
C740 C741 1.363 . S
C740 C746 1.379 . S
C740 N748 1.356 . S
C741 C740 1.363 . S
C741 C747 1.363 . S
C742 C743 1.363 . S
C742 C747 1.379 . S
C742 N749 1.356 . S
C743 C742 1.363 . S
C743 C746 1.363 . S
N744 C746 1.356 . S
N744 H756 0.984 . S
N744 H757 0.985 . S
N745 C747 1.356 . S
N745 H750 0.984 . S
N745 H751 0.985 . S
C746 C740 1.379 . S
C746 C743 1.363 . S
C746 N744 1.356 . S
C747 C741 1.363 . S
C747 C742 1.379 . S
C747 N745 1.356 . S
N748 C740 1.356 . S
N748 H754 0.984 . S
N748 H755 0.984 . S
N749 C742 1.356 . S
N749 H752 0.984 . S
N749 H753 0.985 . S
H750 N745 0.984 . S
H751 N745 0.985 . S
H752 N749 0.984 . S
H753 N749 0.985 . S
H754 N748 0.984 . S
H755 N748 0.984 . S
H756 N744 0.984 . S
H757 N744 0.985 . S
C758 C759 1.363 . S
C758 C764 1.379 . S
C758 N766 1.356 . S
C759 C758 1.363 . S
C759 C765 1.363 . S
C760 C761 1.363 . S
C760 C765 1.379 . S
C760 N767 1.356 . S
C761 C760 1.363 . S
C761 C764 1.363 . S
N762 C764 1.356 . S
N762 H774 0.984 . S
N762 H775 0.985 . S
N763 C765 1.356 . S
N763 H768 0.984 . S
N763 H769 0.985 . S
C764 C758 1.379 . S
C764 C761 1.363 . S
C764 N762 1.356 . S
C765 C759 1.363 . S
C765 C760 1.379 . S
C765 N763 1.356 . S
N766 C758 1.356 . S
N766 H772 0.984 . S
N766 H773 0.984 . S
N767 C760 1.356 . S
N767 H770 0.984 . S
N767 H771 0.985 1_554 S
H768 N763 0.984 . S
H769 N763 0.985 . S
H770 N767 0.984 . S
H771 N767 0.985 1_556 S
H772 N766 0.984 . S
H773 N766 0.984 . S
H774 N762 0.984 . S
H775 N762 0.985 . S
C776 C777 1.363 . S
C776 C782 1.379 . S
C776 N784 1.356 . S
C777 C776 1.363 . S
C777 C783 1.363 . S
C778 C779 1.363 . S
C778 C783 1.379 . S
C778 N785 1.356 . S
C779 C778 1.363 . S
C779 C782 1.363 . S
N780 C782 1.356 . S
N780 H792 0.984 1_455 S
N780 H793 0.985 . S
N781 C783 1.356 . S
N781 H786 0.984 . S
N781 H787 0.985 1_556 S
C782 C776 1.379 . S
C782 C779 1.363 . S
C782 N780 1.356 . S
C783 C777 1.363 . S
C783 C778 1.379 . S
C783 N781 1.356 . S
N784 C776 1.356 . S
N784 H790 0.984 . S
N784 H791 0.984 . S
N785 C778 1.356 . S
N785 H788 0.984 . S
N785 H789 0.985 1_556 S
H786 N781 0.984 . S
H787 N781 0.985 1_554 S
H788 N785 0.984 . S
H789 N785 0.985 1_554 S
H790 N784 0.984 . S
H791 N784 0.984 . S
H792 N780 0.984 1_655 S
H793 N780 0.985 . S
C794 C795 1.363 . S
C794 C800 1.379 . S
C794 N802 1.356 . S
C795 C794 1.363 . S
C795 C801 1.363 . S
C796 C797 1.363 . S
C796 C801 1.379 . S
C796 N803 1.356 . S
C797 C796 1.363 . S
C797 C800 1.363 . S
N798 C800 1.356 . S
N798 H810 0.984 1_545 S
N798 H811 0.985 . S
N799 C801 1.356 . S
N799 H804 0.984 . S
N799 H805 0.985 1_556 S
C800 C794 1.379 . S
C800 C797 1.363 . S
C800 N798 1.356 . S
C801 C795 1.363 . S
C801 C796 1.379 . S
C801 N799 1.356 . S
N802 C794 1.356 . S
N802 H808 0.984 . S
N802 H809 0.984 . S
N803 C796 1.356 . S
N803 H806 0.984 . S
N803 H807 0.985 1_556 S
H804 N799 0.984 . S
H805 N799 0.985 1_554 S
H806 N803 0.984 . S
H807 N803 0.985 1_554 S
H808 N802 0.984 . S
H809 N802 0.984 . S
H810 N798 0.984 1_565 S
H811 N798 0.985 . S
C812 C813 1.363 . S
C812 C818 1.379 . S
C812 N820 1.356 . S
C813 C812 1.363 . S
C813 C819 1.363 . S
C814 C815 1.363 . S
C814 C819 1.379 . S
C814 N821 1.356 . S
C815 C814 1.363 . S
C815 C818 1.363 . S
N816 C818 1.356 . S
N816 H828 0.984 . S
N816 H829 0.985 . S
N817 C819 1.356 . S
N817 H822 0.984 . S
N817 H823 0.985 1_556 S
C818 C812 1.379 . S
C818 C815 1.363 . S
C818 N816 1.356 . S
C819 C813 1.363 . S
C819 C814 1.379 . S
C819 N817 1.356 . S
N820 C812 1.356 . S
N820 H826 0.984 . S
N820 H827 0.984 . S
N821 C814 1.356 . S
N821 H824 0.984 . S
N821 H825 0.985 1_556 S
H822 N817 0.984 . S
H823 N817 0.985 1_554 S
H824 N821 0.984 . S
H825 N821 0.985 1_554 S
H826 N820 0.984 . S
H827 N820 0.984 . S
H828 N816 0.984 . S
H829 N816 0.985 . S
C830 C831 1.363 . S
C830 C836 1.379 . S
C830 N838 1.356 . S
C831 C830 1.363 . S
C831 C837 1.363 . S
C832 C833 1.363 . S
C832 C837 1.379 . S
C832 N839 1.356 . S
C833 C832 1.363 . S
C833 C836 1.363 . S
N834 C836 1.356 . S
N834 H846 0.984 . S
N834 H847 0.985 . S
N835 C837 1.356 . S
N835 H840 0.984 . S
N835 H841 0.985 1_556 S
C836 C830 1.379 . S
C836 C833 1.363 . S
C836 N834 1.356 . S
C837 C831 1.363 . S
C837 C832 1.379 . S
C837 N835 1.356 . S
N838 C830 1.356 . S
N838 H844 0.984 . S
N838 H845 0.984 . S
N839 C832 1.356 . S
N839 H842 0.984 . S
N839 H843 0.985 1_556 S
H840 N835 0.984 . S
H841 N835 0.985 1_554 S
H842 N839 0.984 . S
H843 N839 0.985 1_554 S
H844 N838 0.984 . S
H845 N838 0.984 . S
H846 N834 0.984 . S
H847 N834 0.985 . S
C848 C849 1.363 . S
C848 C854 1.379 . S
C848 N856 1.356 . S
C849 C848 1.363 . S
C849 C855 1.363 . S
C850 C851 1.363 . S
C850 C855 1.379 . S
C850 N857 1.356 1_655 S
C851 C850 1.363 . S
C851 C854 1.363 . S
N852 C854 1.356 . S
N852 H864 0.984 . S
N852 H865 0.985 . S
N853 C855 1.356 . S
N853 H858 0.984 . S
N853 H859 0.985 1_655 S
C854 C848 1.379 . S
C854 C851 1.363 . S
C854 N852 1.356 . S
C855 C849 1.363 . S
C855 C850 1.379 . S
C855 N853 1.356 . S
N856 C848 1.356 . S
N856 H862 0.984 . S
N856 H863 0.984 . S
N857 C850 1.356 1_455 S
N857 H860 0.984 . S
N857 H861 0.985 . S
H858 N853 0.984 . S
H859 N853 0.985 1_455 S
H860 N857 0.984 . S
H861 N857 0.985 . S
H862 N856 0.984 . S
H863 N856 0.984 . S
H864 N852 0.984 . S
H865 N852 0.985 . S
C866 C867 1.363 . S
C866 C872 1.379 . S
C866 N874 1.356 . S
C867 C866 1.363 . S
C867 C873 1.363 . S
C868 C869 1.363 . S
C868 C873 1.379 . S
C868 N875 1.356 1_565 S
C869 C868 1.363 . S
C869 C872 1.363 . S
N870 C872 1.356 . S
N870 H882 0.984 . S
N870 H883 0.985 . S
N871 C873 1.356 . S
N871 H876 0.984 . S
N871 H877 0.985 1_565 S
C872 C866 1.379 . S
C872 C869 1.363 . S
C872 N870 1.356 . S
C873 C867 1.363 . S
C873 C868 1.379 . S
C873 N871 1.356 . S
N874 C866 1.356 . S
N874 H880 0.984 . S
N874 H881 0.984 . S
N875 C868 1.356 1_545 S
N875 H878 0.984 . S
N875 H879 0.985 . S
H876 N871 0.984 . S
H877 N871 0.985 1_545 S
H878 N875 0.984 . S
H879 N875 0.985 . S
H880 N874 0.984 . S
H881 N874 0.984 . S
H882 N870 0.984 . S
H883 N870 0.985 . S
C884 C885 1.363 . S
C884 C890 1.379 . S
C884 N892 1.356 . S
C885 C884 1.363 . S
C885 C891 1.363 . S
C886 C887 1.363 . S
C886 C891 1.379 . S
C886 N893 1.356 . S
C887 C886 1.363 . S
C887 C890 1.363 . S
N888 C890 1.356 . S
N888 H900 0.984 . S
N888 H901 0.985 . S
N889 C891 1.356 . S
N889 H894 0.984 . S
N889 H895 0.985 . S
C890 C884 1.379 . S
C890 C887 1.363 . S
C890 N888 1.356 . S
C891 C885 1.363 . S
C891 C886 1.379 . S
C891 N889 1.356 . S
N892 C884 1.356 . S
N892 H898 0.984 . S
N892 H899 0.984 . S
N893 C886 1.356 . S
N893 H896 0.984 . S
N893 H897 0.985 . S
H894 N889 0.984 . S
H895 N889 0.985 . S
H896 N893 0.984 . S
H897 N893 0.985 . S
H898 N892 0.984 . S
H899 N892 0.984 . S
H900 N888 0.984 . S
H901 N888 0.985 . S
C902 C903 1.363 . S
C902 C908 1.379 . S
C902 N910 1.356 . S
C903 C902 1.363 . S
C903 C909 1.363 . S
C904 C905 1.363 . S
C904 C909 1.379 . S
C904 N911 1.356 . S
C905 C904 1.363 . S
C905 C908 1.363 . S
N906 C908 1.356 . S
N906 H918 0.984 . S
N906 H919 0.985 . S
N907 C909 1.356 . S
N907 H912 0.984 . S
N907 H913 0.985 . S
C908 C902 1.379 . S
C908 C905 1.363 . S
C908 N906 1.356 . S
C909 C903 1.363 . S
C909 C904 1.379 . S
C909 N907 1.356 . S
N910 C902 1.356 . S
N910 H916 0.984 . S
N910 H917 0.984 . S
N911 C904 1.356 . S
N911 H914 0.984 . S
N911 H915 0.985 . S
H912 N907 0.984 . S
H913 N907 0.985 . S
H914 N911 0.984 . S
H915 N911 0.985 . S
H916 N910 0.984 . S
H917 N910 0.984 . S
H918 N906 0.984 . S
H919 N906 0.985 . S
C489 C125 2.077 . S
C491 C226 2.068 . S
C509 C310 2.080 . S
C507 C144 2.075 . S
C527 C376 1.993 . S
C525 C87 2.136 . S
C545 C460 1.983 . S
C543 C106 2.138 . S
C563 C215 2.068 1_565 S
C561 C49 2.167 . S
C579 C68 2.177 . S
C581 C299 2.080 . S
C597 C11 2.249 . S
C599 C387 1.993 . S
C615 C30 2.239 . S
C617 C471 1.983 . S
C635 C222 0.948 1_455 S
C633 C97 0.891 . S
C653 C306 0.911 1_545 S
C651 C116 0.865 . S
C671 C378 0.904 . S
C669 C135 0.851 . S
C687 C78 0.875 . S
C689 C462 0.940 . S
C705 C21 0.893 . S
C707 C210 0.948 . S
C725 C294 0.911 . S
C723 C40 0.867 . S
C743 C390 0.904 . S
C741 C59 0.852 . S
C759 C2 0.876 . S
C761 C474 0.939 . S
C777 C101 2.113 . S
C779 C219 2.198 . S
C795 C120 2.089 . S
C797 C303 2.173 . S
C815 C383 2.284 . S
C813 C139 2.017 . S
C833 C467 2.307 . S
C831 C82 2.040 . S
C849 C25 2.118 . S
C851 C208 2.198 . S
C869 C292 2.173 . S
C867 C44 2.093 . S
C887 C394 2.283 . S
C885 C63 2.022 . S
C903 C6 2.045 . S
C905 C478 2.307 . S
