# Generated by pormake.
# Topology anh, (6,3)-cn, num edge types: 1
# Building blocks:
#     Node 0, Type 0, BuildingBlock: PAMTOO_clean_sbu_0, # of connection points: 6
#     Node 1, Type 0, BuildingBlock: PAMTOO_clean_sbu_0, # of connection points: 6
#     Node 2, Type 0, BuildingBlock: PAMTOO_clean_sbu_0, # of connection points: 6
#     Node 3, Type 1, BuildingBlock: BELTOD_clean_linker_0, # of connection points: 3
#     Node 4, Type 1, BuildingBlock: BELTOD_clean_linker_0, # of connection points: 3
#     Node 5, Type 1, BuildingBlock: BELTOD_clean_linker_0, # of connection points: 3
#     Node 6, Type 1, BuildingBlock: BELTOD_clean_linker_0, # of connection points: 3
#     Node 7, Type 1, BuildingBlock: BELTOD_clean_linker_0, # of connection points: 3
#     Node 8, Type 1, BuildingBlock: BELTOD_clean_linker_0, # of connection points: 3
#     Edge 9, Type (0, 1), BuildingBlock: XIVTED_clean_linker_0, # of connection points: 2
#     Edge 10, Type (0, 1), BuildingBlock: XIVTED_clean_linker_0, # of connection points: 2
#     Edge 11, Type (0, 1), BuildingBlock: XIVTED_clean_linker_0, # of connection points: 2
#     Edge 12, Type (0, 1), BuildingBlock: XIVTED_clean_linker_0, # of connection points: 2
#     Edge 13, Type (0, 1), BuildingBlock: XIVTED_clean_linker_0, # of connection points: 2
#     Edge 14, Type (0, 1), BuildingBlock: XIVTED_clean_linker_0, # of connection points: 2
#     Edge 15, Type (0, 1), BuildingBlock: XIVTED_clean_linker_0, # of connection points: 2
#     Edge 16, Type (0, 1), BuildingBlock: XIVTED_clean_linker_0, # of connection points: 2
#     Edge 17, Type (0, 1), BuildingBlock: XIVTED_clean_linker_0, # of connection points: 2
#     Edge 18, Type (0, 1), BuildingBlock: XIVTED_clean_linker_0, # of connection points: 2
#     Edge 19, Type (0, 1), BuildingBlock: XIVTED_clean_linker_0, # of connection points: 2
#     Edge 20, Type (0, 1), BuildingBlock: XIVTED_clean_linker_0, # of connection points: 2
#     Edge 21, Type (0, 1), BuildingBlock: XIVTED_clean_linker_0, # of connection points: 2
#     Edge 22, Type (0, 1), BuildingBlock: XIVTED_clean_linker_0, # of connection points: 2
#     Edge 23, Type (0, 1), BuildingBlock: XIVTED_clean_linker_0, # of connection points: 2
#     Edge 24, Type (0, 1), BuildingBlock: XIVTED_clean_linker_0, # of connection points: 2
#     Edge 25, Type (0, 1), BuildingBlock: XIVTED_clean_linker_0, # of connection points: 2
#     Edge 26, Type (0, 1), BuildingBlock: XIVTED_clean_linker_0, # of connection points: 2
# Relax obj value: 0.178
# Max RMSD: 0.192
# Mean RMSD: 0.149
data_MOF--net-anh--node1-PAMTOO_clean_sbu_0--node2-BELTOD_clean_linker_0--edge1-XIVTED_clean_linker_0
_symmetry_space_group_name_H-M    P1
_symmetry_Int_Tables_number       1
_symmetry_cell_setting            triclinic
loop_
_symmetry_equiv_pos_as_xyz
'x, y, z'
_cell_length_a     34.444532
_cell_length_b     33.425125
_cell_length_c     61.126796
_cell_angle_alpha  90.929473
_cell_angle_beta   95.073245
_cell_angle_gamma 104.52855
loop_
_atom_site_label
_atom_site_type_symbol
_atom_site_fract_x
_atom_site_fract_y
_atom_site_fract_z
_atom_type_partial_charge
Dy0 Dy 0.06613 0.61188 0.15827 0.0
Dy1 Dy 1.03498 0.51526 0.13952 0.0
C2 C 0.06284 0.58972 0.10731 0.0
O3 O 0.99977 0.60176 0.14741 0.0
O4 O 0.98185 0.53212 0.15217 0.0
O5 O 0.07256 0.67727 0.15412 0.0
O6 O 0.09531 0.65566 0.18467 0.0
O7 O 1.05208 0.51352 0.17559 0.0
O8 O 1.04119 0.57532 0.18621 0.0
O9 O 0.10106 0.53183 0.13533 0.0
O10 O 0.12144 0.58682 0.16042 0.0
O11 O 1.03807 0.45146 0.13929 0.0
O12 O 0.99141 0.46941 0.1187 0.0
C13 C 0.97193 0.56734 0.14967 0.0
O14 O 0.0833 0.61242 0.12417 0.0
O15 O 1.03689 0.55421 0.10984 0.0
C16 C 0.13357 0.71759 0.17207 0.0
C17 C 0.21119 0.77184 0.17348 0.0
C18 C 0.20096 0.73535 0.16008 0.0
C19 C 0.16254 0.70845 0.15942 0.0
C20 C 0.14317 0.75429 0.18503 0.0
C21 C 0.18163 0.78124 0.18572 0.0
C22 C 0.09442 0.68763 0.17287 0.0
C23 C 1.04629 0.53878 0.19091 0.0
C24 C 0.12971 0.55842 0.14764 0.0
C25 C 0.97359 0.40547 0.13533 0.0
C26 C 0.91331 0.34237 0.1515 0.0
C27 C 0.92769 0.38082 0.163 0.0
C28 C 0.9575 0.41207 0.15497 0.0
C29 C 0.95943 0.36732 0.12375 0.0
C30 C 0.92951 0.336 0.13175 0.0
C31 C 1.00437 0.43873 0.12674 0.0
H32 H 0.22275 0.72739 0.15021 0.0
H33 H 0.15566 0.68009 0.14937 0.0
H34 H 0.12123 0.76161 0.19503 0.0
H35 H 0.1886 0.80873 0.19644 0.0
H36 H 0.91551 0.38701 0.17807 0.0
H37 H 0.96788 0.44152 0.16404 0.0
H38 H 0.97149 0.36177 0.10853 0.0
H39 H 0.91945 0.30663 0.12262 0.0
Dy40 Dy 0.52293 0.01195 0.51449 0.0
Dy41 Dy 0.62152 0.0465 0.52498 0.0
C42 C 0.56369 0.02426 0.56325 0.0
O43 O 0.53599 0.08011 0.52272 0.0
O44 O 0.59933 0.09907 0.51133 0.0
O45 O 0.46275 0.00183 0.52486 0.0
O46 O 0.47133 0.98615 0.49146 0.0
O47 O 0.61191 0.02994 0.48914 0.0
O48 O 0.54637 0.03399 0.48268 0.0
O49 O 0.60759 0.97956 0.53279 0.0
O50 O 0.5469 0.95576 0.5119 0.0
O51 O 0.68255 0.04259 0.52222 0.0
O52 O 0.67117 0.09125 0.54264 0.0
C53 C 0.5665 0.10858 0.51655 0.0
O54 O 0.53699 -0.00123 0.54958 0.0
O55 O 0.59358 0.05182 0.55609 0.0
C56 C 0.41614 0.94411 0.50676 0.0
C57 C 0.35962 0.8664 0.50292 0.0
C58 C 0.40092 0.86925 0.50808 0.0
C59 C 0.42892 0.90779 0.51 0.0
C60 C 0.37499 0.94164 0.50246 0.0
C61 C 0.34693 0.90314 0.50062 0.0
C62 C 0.44563 0.9842 0.50606 0.0
C63 C 0.58086 0.03226 0.47561 0.0
C64 C 0.579 0.94912 0.52308 0.0
C65 C 0.73132 0.10705 0.52546 0.0
C66 C 0.79519 0.16682 0.50991 0.0
C67 C 0.76334 0.14379 0.49519 0.0
C68 C 0.73158 0.11425 0.50291 0.0
C69 C 0.76278 0.13003 0.54017 0.0
C70 C 0.79436 0.15968 0.53251 0.0
C71 C 0.69831 0.07647 0.53414 0.0
H72 H 0.41188 0.84168 0.50972 0.0
H73 H 0.46066 0.90921 0.51328 0.0
H74 H 0.36465 0.96943 0.49996 0.0
H75 H 0.31534 0.90213 0.49702 0.0
H76 H 0.76318 0.14814 0.47767 0.0
H77 H 0.70735 0.097 0.49129 0.0
H78 H 0.76283 0.12516 0.55766 0.0
H79 H 0.81788 0.17734 0.54436 0.0
Dy80 Dy 0.56447 0.46108 0.84913 0.0
Dy81 Dy 0.4667 0.44181 0.83817 0.0
C82 C 0.52658 0.45091 0.80041 0.0
O83 O 0.55257 0.52092 0.83869 0.0
O84 O 0.48648 0.51005 0.84563 0.0
O85 O 0.62446 0.49374 0.8432 0.0
O86 O 0.61528 0.45189 0.87021 0.0
O87 O 0.47971 0.43337 0.87423 0.0
O88 O 0.53959 0.48197 0.87826 0.0
O89 O 0.47947 0.38024 0.83328 0.0
O90 O 0.54028 0.39365 0.85434 0.0
O91 O 0.40702 0.43179 0.84885 0.0
O92 O 0.41473 0.43159 0.81415 0.0
C93 C 0.5209 0.5349 0.84155 0.0
O94 O 0.55266 0.43919 0.81411 0.0
O95 O 0.49559 0.46179 0.80739 0.0
C96 C 0.67683 0.46201 0.85383 0.0
C97 C 0.75305 0.45478 0.84392 0.0
C98 C 0.72088 0.4484 0.82729 0.0
C99 C 0.68299 0.45207 0.83221 0.0
C100 C 0.70758 0.46433 0.87069 0.0
C101 C 0.74533 0.46071 0.86583 0.0
C102 C 0.64133 0.47596 0.85885 0.0
C103 C 0.50792 0.45985 0.88669 0.0
C104 C 0.50881 0.3676 0.84386 0.0
C105 C 0.37097 0.46913 0.82607 0.0
C106 C 0.34201 0.5397 0.81751 0.0
C107 C 0.36725 0.53828 0.83669 0.0
C108 C 0.38172 0.50359 0.84085 0.0
C109 C 0.34509 0.46993 0.8071 0.0
C110 C 0.33063 0.50492 0.80286 0.0
C111 C 0.3909 0.43514 0.82906 0.0
H112 H 0.72563 0.44313 0.81032 0.0
H113 H 0.65936 0.44967 0.81895 0.0
H114 H 0.70332 0.47192 0.88747 0.0
H115 H 0.76927 0.46628 0.8791 0.0
H116 H 0.37585 0.56403 0.84861 0.0
H117 H 0.40209 0.50425 0.85548 0.0
H118 H 0.33699 0.44397 0.7953 0.0
H119 H 0.3113 0.50508 0.78791 0.0
P120 P 0.62211 -0.00051 0.24023 0.0
H121 H 0.59351 0.94459 0.20136 0.0
H122 H 0.52593 0.91232 0.18402 0.0
H123 H 0.47605 0.98431 0.22814 0.0
H124 H 0.54383 0.01743 0.24478 0.0
H125 H 0.70847 0.03301 0.24675 0.0
H126 H 0.75462 0.09228 0.23233 0.0
H127 H 0.65411 0.12331 0.1953 0.0
H128 H 0.60794 0.06344 0.2098 0.0
H129 H 0.57571 0.94755 0.27118 0.0
H130 H 0.65359 0.07087 0.27187 0.0
O131 O 0.64442 0.96063 0.23946 0.0
H132 H 0.56687 0.95717 0.31 0.0
H133 H 0.64512 0.0805 0.31075 0.0
C134 C 0.57352 0.98256 0.2247 0.0
C135 C 0.56805 0.95393 0.20702 0.0
C136 C 0.52933 0.93528 0.19723 0.0
C137 C 0.49536 0.94497 0.205 0.0
C138 C 0.5014 0.97604 0.22169 0.0
C139 C 0.5402 0.99485 0.23136 0.0
C140 C 0.65493 0.04361 0.22915 0.0
C141 C 0.69637 0.05251 0.23548 0.0
C142 C 0.72268 0.08661 0.22735 0.0
C143 C 0.70805 0.11259 0.21268 0.0
C144 C 0.66634 0.10364 0.2064 0.0
C145 C 0.63992 0.06952 0.21471 0.0
C146 C 0.61523 0.00842 0.26862 0.0
C147 C 0.59075 0.97677 0.27967 0.0
C148 C 0.58558 0.98237 0.30181 0.0
C149 C 0.60527 0.01962 0.3134 0.0
C150 C 0.62983 0.05135 0.30227 0.0
C151 C 0.63462 0.04587 0.28001 0.0
P152 P 0.62734 0.53684 0.57607 0.0
H153 H 0.67156 0.48968 0.55182 0.0
H154 H 0.6522 0.42056 0.53499 0.0
H155 H 0.52717 0.41436 0.54235 0.0
H156 H 0.54723 0.48392 0.55989 0.0
H157 H 0.67299 0.62209 0.58345 0.0
H158 H 0.66222 0.68762 0.57162 0.0
H159 H 0.55204 0.62312 0.53329 0.0
H160 H 0.5626 0.55698 0.54603 0.0
H161 H 0.58995 0.4596 0.59713 0.0
H162 H 0.6213 0.59076 0.61319 0.0
O163 O 0.677 0.54473 0.582 0.0
H164 H 0.56756 0.44566 0.63357 0.0
H165 H 0.6005 0.57649 0.65013 0.0
C166 C 0.61093 0.49192 0.55742 0.0
C167 C 0.63984 0.47405 0.54938 0.0
C168 C 0.62861 0.43427 0.5396 0.0
C169 C 0.58808 0.41137 0.53753 0.0
C170 C 0.55874 0.43072 0.54403 0.0
C171 C 0.57008 0.47076 0.55379 0.0
C172 C 0.61905 0.58444 0.56532 0.0
C173 C 0.64669 0.62182 0.57228 0.0
C174 C 0.64054 0.65951 0.56537 0.0
C175 C 0.60653 0.66097 0.55116 0.0
C176 C 0.57853 0.62333 0.54428 0.0
C177 C 0.58467 0.58538 0.5514 0.0
C178 C 0.60588 0.52645 0.60192 0.0
C179 C 0.59098 0.48556 0.60813 0.0
C180 C 0.57846 0.47747 0.62909 0.0
C181 C 0.58206 0.51002 0.64452 0.0
C182 C 0.59724 0.5509 0.63843 0.0
C183 C 0.60888 0.55903 0.61727 0.0
P184 P 0.10568 0.75781 0.88902 0.0
H185 H 0.12272 0.78038 0.84457 0.0
H186 H 0.17562 0.76963 0.82261 0.0
H187 H 0.24005 0.73904 0.88123 0.0
H188 H 0.18744 0.74979 0.90295 0.0
H189 H 1.01935 0.73175 0.89149 0.0
H190 H 0.96821 0.6692 0.87786 0.0
H191 H 0.05658 0.62876 0.84348 0.0
H192 H 0.10794 0.69022 0.85772 0.0
H193 H 0.1007 0.79568 0.93211 0.0
H194 H 0.12113 0.68237 0.9067 0.0
O195 O 0.09035 0.80136 0.88854 0.0
H196 H 0.09809 0.76794 0.96891 0.0
H197 H 0.11888 0.65454 0.94342 0.0
C198 C 0.15076 0.76494 0.87525 0.0
C199 C 0.14904 0.7729 0.85278 0.0
C200 C 0.17914 0.7666 0.84024 0.0
C201 C 0.21162 0.75295 0.85016 0.0
C202 C 0.21546 0.74971 0.87312 0.0
C203 C 0.18512 0.75551 0.88558 0.0
C204 C 0.06717 0.71642 0.87514 0.0
C205 C 1.02752 0.70993 0.88062 0.0
C206 C 0.9985 0.67412 0.873 0.0
C207 C 1.00871 0.64446 0.85964 0.0
C208 C 1.04806 0.65151 0.85356 0.0
C209 C 0.07729 0.68693 0.86157 0.0
C210 C 0.11116 0.74109 0.91672 0.0
C211 C 0.1054 0.76516 0.93452 0.0
C212 C 0.10394 0.74925 0.95555 0.0
C213 C 0.10793 0.70888 0.95903 0.0
C214 C 0.11508 0.68547 0.94122 0.0
C215 C 0.11672 0.70148 0.92027 0.0
P216 P 0.1335 0.45605 0.42151 0.0
H217 H 0.21229 0.48984 0.44603 0.0
H218 H 0.24396 0.55717 0.46405 0.0
H219 H 0.13348 0.59486 0.44973 0.0
H220 H 0.10227 0.52753 0.43124 0.0
H221 H 0.12545 0.3822 0.44744 0.0
H222 H 0.0684 0.33726 0.46314 0.0
H223 H 0.99354 0.41769 0.44087 0.0
H224 H 1.05061 0.46167 0.42446 0.0
H225 H 0.15642 0.52746 0.39375 0.0
H226 H 0.07569 0.40531 0.38787 0.0
O227 O 0.1686 0.42989 0.41986 0.0
H228 H 0.13569 0.53954 0.35576 0.0
H229 H 1.05462 0.4173 0.34976 0.0
C230 C 0.15499 0.50378 0.43719 0.0
C231 C 0.19471 0.51238 0.44695 0.0
C232 C 0.21273 0.55089 0.45741 0.0
C233 C 0.19132 0.58153 0.45827 0.0
C234 C 0.15098 0.57216 0.44911 0.0
C235 C 0.13297 0.53357 0.43869 0.0
C236 C 0.09213 0.42503 0.43463 0.0
C237 C 0.0968 0.39023 0.44598 0.0
C238 C 0.06414 0.36469 0.45512 0.0
C239 C 1.02623 0.37372 0.45324 0.0
C240 C 1.02207 0.4094 0.44233 0.0
C241 C 1.05477 0.43482 0.43312 0.0
C242 C 0.1167 0.46593 0.39386 0.0
C243 C 0.13368 0.50348 0.38444 0.0
C244 C 0.12179 0.51037 0.36268 0.0
C245 C 0.09322 0.47952 0.34982 0.0
C246 C 0.07674 0.44164 0.35923 0.0
C247 C 0.08851 0.43488 0.38105 0.0
P248 P 0.5844 0.97333 0.80066 0.0
H249 H 0.62418 0.04558 0.82891 0.0
H250 H 0.60169 0.10434 0.84161 0.0
H251 H 0.47977 0.04428 0.81554 0.0
H252 H 0.50294 0.98518 0.80255 0.0
H253 H 0.57858 0.89857 0.77473 0.0
H254 H 0.56111 0.82574 0.78304 0.0
H255 H 0.52796 0.85641 0.8465 0.0
H256 H 0.54525 0.93016 0.83789 0.0
H257 H 0.63937 0.01676 0.76994 0.0
H258 H 0.51452 0.94976 0.76795 0.0
O259 O 0.63362 0.98172 0.80824 0.0
H260 H 0.63107 0.02678 0.73055 0.0
H261 H 0.5055 0.96075 0.72855 0.0
C262 C 0.56521 0.01082 0.81486 0.0
C263 C 0.59239 0.04436 0.82641 0.0
C264 C 0.5794 0.07811 0.83375 0.0
C265 C 0.53888 0.07924 0.82955 0.0
C266 C 0.51127 0.04463 0.81883 0.0
C267 C 0.52437 0.01067 0.81156 0.0
C268 C 0.56238 0.91978 0.80548 0.0
C269 C 0.56637 0.88975 0.79017 0.0
C270 C 0.55679 0.84806 0.79504 0.0
C271 C 0.5435 0.83541 0.81548 0.0
C272 C 0.53785 0.86529 0.83054 0.0
C273 C 0.54765 0.90735 0.82564 0.0
C274 C 0.57771 0.982 0.77176 0.0
C275 C 0.61009 0.00436 0.76103 0.0
C276 C 0.60517 0.01038 0.7385 0.0
C277 C 0.5676 0.99448 0.72633 0.0
C278 C 0.53497 0.97284 0.73733 0.0
C279 C 0.54 0.96677 0.75987 0.0
P280 P 0.53583 0.50242 0.12647 0.0
H281 H 0.58933 0.50911 0.16708 0.0
H282 H 0.66282 0.5292 0.17396 0.0
H283 H 0.67113 0.57795 0.10909 0.0
H284 H 0.59796 0.5584 0.10247 0.0
H285 H 0.4631 0.45394 0.14336 0.0
H286 H 0.3986 0.46719 0.14878 0.0
H287 H 0.44527 0.59554 0.13471 0.0
H288 H 0.51124 0.58209 0.12981 0.0
H289 H 0.53516 0.43464 0.09517 0.0
H290 H 0.51712 0.55768 0.09248 0.0
O291 O 0.53436 0.45537 0.13573 0.0
H292 H 0.52392 0.42707 0.05518 0.0
H293 H 0.50539 0.55009 0.05246 0.0
C294 C 0.58756 0.53197 0.13424 0.0
C295 C 0.60683 0.52545 0.1546 0.0
C296 C 0.64909 0.5364 0.15838 0.0
C297 C 0.67332 0.55445 0.14191 0.0
C298 C 0.65378 0.56416 0.12222 0.0
C299 C 0.6115 0.55296 0.11841 0.0
C300 C 0.49265 0.51702 0.13635 0.0
C301 C 0.46026 0.48534 0.14201 0.0
C302 C 0.42281 0.49284 0.1448 0.0
C303 C 0.41613 0.53227 0.14175 0.0
C304 C 0.44918 0.56474 0.13721 0.0
C305 C 0.48703 0.55712 0.13443 0.0
C306 C 0.52653 0.49659 0.09691 0.0
C307 C 0.52834 0.45991 0.08605 0.0
C308 C 0.5217 0.45549 0.06314 0.0
C309 C 0.51355 0.48789 0.05064 0.0
C310 C 0.51178 0.52463 0.06161 0.0
C311 C 0.51818 0.52889 0.08453 0.0
H312 H 0.1994 0.61227 0.16701 0.0
H313 H 0.34511 0.48023 0.12407 0.0
H314 H 0.15839 0.50011 0.12645 0.0
H315 H 0.39093 0.59745 0.15971 0.0
H316 H 0.27678 0.48743 0.12555 0.0
H317 H 0.2692 0.6078 0.16531 0.0
C318 C 0.20492 0.58664 0.15778 0.0
C319 C 0.17259 0.55644 0.14691 0.0
C320 C 0.30163 0.51169 0.13308 0.0
C321 C 0.25288 0.55121 0.1449 0.0
C322 C 0.34089 0.50748 0.13237 0.0
C323 C 0.37421 0.53802 0.14202 0.0
C324 C 0.29496 0.54674 0.14359 0.0
C325 C 0.36638 0.5731 0.15201 0.0
C326 C 0.24491 0.58421 0.15678 0.0
C327 C 0.18201 0.52417 0.13512 0.0
N328 N 0.32767 0.57637 0.15265 0.0
N329 N 0.22101 0.52241 0.1345 0.0
H330 H 0.87543 0.18389 0.52471 0.0
H331 H 0.94761 0.35076 0.43504 0.0
H332 H 0.79298 0.22091 0.47659 0.0
H333 H 1.0245 0.3315 0.49149 0.0
H334 H 0.89095 0.30178 0.44908 0.0
H335 H 0.93085 0.23579 0.51169 0.0
C336 C 0.86886 0.2031 0.51151 0.0
C337 C 0.8293 0.198 0.50182 0.0
C338 C 0.9202 0.30841 0.45843 0.0
C339 C 0.89301 0.25723 0.48655 0.0
C340 C 0.95256 0.33661 0.4505 0.0
C341 C 0.99105 0.34531 0.46205 0.0
C342 C 0.9263 0.28849 0.478 0.0
C343 C 0.99563 0.32532 0.4818 0.0
C344 C 0.90063 0.23265 0.50401 0.0
C345 C 0.82296 0.22329 0.4844 0.0
N346 N 0.96373 0.29777 0.48909 0.0
N347 N 0.85447 0.25175 0.47732 0.0
H348 H 0.5871 0.59493 0.83298 0.0
H349 H 0.48109 0.78272 0.83418 0.0
H350 H 0.46269 0.57756 0.84566 0.0
H351 H 0.59674 0.789 0.81058 0.0
H352 H 0.47499 0.70948 0.84218 0.0
H353 H 0.59241 0.66809 0.8285 0.0
C354 C 0.56082 0.60645 0.83488 0.0
C355 C 0.52431 0.57982 0.83961 0.0
C356 C 0.50167 0.72702 0.83527 0.0
C357 C 0.53025 0.66423 0.83441 0.0
C358 C 0.50521 0.76875 0.83081 0.0
C359 C 0.53924 0.79175 0.82147 0.0
C360 C 0.53267 0.70857 0.83063 0.0
C361 C 0.56966 0.77224 0.8174 0.0
C362 C 0.56389 0.6484 0.83228 0.0
C363 C 0.49141 0.59688 0.84196 0.0
N364 N 0.56563 0.73194 0.82199 0.0
N365 N 0.49512 0.63803 0.83928 0.0
H366 H 0.9094 0.50448 0.16038 0.0
H367 H 0.73396 0.61827 0.12846 0.0
H368 H 0.93452 0.62994 0.13891 0.0
H369 H 0.71575 0.50216 0.1608 0.0
H370 H 0.80663 0.6232 0.13099 0.0
H371 H 0.83822 0.5032 0.15948 0.0
C372 C 0.90007 0.53192 0.15549 0.0
C373 C 0.92842 0.56742 0.14971 0.0
C374 C 0.78673 0.5968 0.13766 0.0
C375 C 0.84586 0.56598 0.14852 0.0
C376 C 0.7451 0.59385 0.13615 0.0
C377 C 0.71826 0.55978 0.1445 0.0
C378 C 0.8019 0.56523 0.14736 0.0
C379 C 0.73494 0.52936 0.15442 0.0
C380 C 0.85918 0.53114 0.15503 0.0
C381 C 0.91399 0.6019 0.14357 0.0
N382 N 0.77533 0.5327 0.15543 0.0
N383 N 0.87381 0.60024 0.14302 0.0
H384 H 0.29624 0.84475 0.47097 0.0
H385 H 0.24499 0.6036 0.49515 0.0
H386 H 0.35663 0.7941 0.5245 0.0
H387 H 0.18499 0.65587 0.44215 0.0
H388 H 0.28284 0.67341 0.50787 0.0
H389 H 0.2515 0.77639 0.4622 0.0
C390 C 0.29978 0.81941 0.48111 0.0
C391 C 0.33041 0.82533 0.49851 0.0
C392 C 0.26116 0.66961 0.49356 0.0
C393 C 0.27955 0.74643 0.4882 0.0
C394 C 0.23965 0.62974 0.48623 0.0
C395 C 0.21188 0.62377 0.46747 0.0
C396 C 0.25502 0.70383 0.482 0.0
C397 C 0.20576 0.65889 0.4568 0.0
C398 C 0.27435 0.78021 0.47596 0.0
C399 C 0.33388 0.79095 0.51075 0.0
N400 N 0.22734 0.69731 0.46412 0.0
N401 N 0.30891 0.75296 0.50529 0.0
H402 H 0.45838 0.30469 0.81772 0.0
H403 H 0.56333 0.132 0.86591 0.0
H404 H 0.55566 0.32838 0.86966 0.0
H405 H 0.48746 0.11527 0.80464 0.0
H406 H 0.55138 0.20035 0.87117 0.0
H407 H 0.45975 0.23175 0.81629 0.0
C408 C 0.47977 0.29455 0.82895 0.0
C409 C 0.50717 0.32284 0.84371 0.0
C410 C 0.53706 0.18157 0.85667 0.0
C411 C 0.50874 0.23941 0.84221 0.0
C412 C 0.54391 0.14253 0.85363 0.0
C413 C 0.52681 0.11792 0.83466 0.0
C414 C 0.51282 0.19627 0.84067 0.0
C415 C 0.50115 0.13295 0.81957 0.0
C416 C 0.48059 0.25292 0.82808 0.0
C417 C 0.53422 0.30785 0.85786 0.0
N418 N 0.49522 0.17128 0.82281 0.0
N419 N 0.53437 0.26726 0.85672 0.0
H420 H 0.6468 0.92368 0.53576 0.0
H421 H 0.53552 0.68557 0.54459 0.0
H422 H 0.51988 0.87618 0.51588 0.0
H423 H 0.66388 0.73023 0.54158 0.0
H424 H 0.52793 0.75475 0.53591 0.0
H425 H 0.65261 0.85301 0.54057 0.0
C426 C 0.6201 0.8984 0.53239 0.0
C427 C 0.58277 0.90602 0.52542 0.0
C428 C 0.55769 0.74922 0.53705 0.0
C429 C 0.58921 0.82466 0.53107 0.0
C430 C 0.56207 0.70963 0.54189 0.0
C431 C 0.60051 0.70187 0.54413 0.0
C432 C 0.59198 0.78145 0.53463 0.0
C433 C 0.63374 0.7347 0.54065 0.0
C434 C 0.62349 0.85797 0.53506 0.0
C435 C 0.54929 0.87183 0.52122 0.0
N436 N 0.62874 0.77293 0.5363 0.0
N437 N 0.55322 0.83266 0.52428 0.0
H438 H 0.78565 0.49726 0.80918 0.0
H439 H 0.98254 0.61098 0.81812 0.0
H440 H 0.81784 0.43446 0.86653 0.0
H441 H 0.96749 0.58906 0.88652 0.0
H442 H 0.92648 0.54979 0.80803 0.0
H443 H 0.85603 0.5325 0.80794 0.0
C444 C 0.80761 0.4894 0.821 0.0
C445 C 0.7955 0.46372 0.83843 0.0
C446 C 0.93573 0.55824 0.82522 0.0
C447 C 0.87643 0.50482 0.8373 0.0
C448 C 0.96767 0.59291 0.83095 0.0
C449 C 0.97865 0.60535 0.85313 0.0
C450 C 0.91519 0.53602 0.84187 0.0
C451 C 0.95908 0.58087 0.86923 0.0
C452 C 0.84808 0.50979 0.82029 0.0
C453 C 0.82563 0.45517 0.85328 0.0
N454 N 0.92809 0.5475 0.86327 0.0
N455 N 0.86457 0.47679 0.85283 0.0
H456 H 0.23586 0.85695 0.17631 0.0
H457 H 0.46994 0.86167 0.19534 0.0
H458 H 0.28212 0.74831 0.17557 0.0
H459 H 0.42592 0.97167 0.19719 0.0
H460 H 0.40147 0.82059 0.18527 0.0
H461 H 0.30507 0.90011 0.18177 0.0
C462 C 0.26052 0.84214 0.17727 0.0
C463 C 0.25303 0.79884 0.17552 0.0
C464 C 0.40672 0.85375 0.18773 0.0
C465 C 0.3324 0.84815 0.18161 0.0
C466 C 0.446 0.87738 0.1933 0.0
C467 C 0.45393 0.92036 0.19712 0.0
C468 C 0.3748 0.87301 0.18602 0.0
C469 C 0.42128 0.93862 0.19468 0.0
C470 C 0.30004 0.86683 0.18028 0.0
C471 C 0.28628 0.7815 0.17655 0.0
N472 N 0.38316 0.91484 0.18938 0.0
N473 N 0.32439 0.80615 0.17961 0.0
H474 H 0.61735 0.17313 0.49831 0.0
H475 H 0.53259 0.3472 0.55373 0.0
H476 H 0.5125 0.14467 0.5346 0.0
H477 H 0.62013 0.37259 0.50609 0.0
H478 H 0.52269 0.27319 0.54601 0.0
H479 H 0.61766 0.24617 0.50046 0.0
C480 C 0.59421 0.18217 0.50664 0.0
C481 C 0.56497 0.15261 0.5164 0.0
C482 C 0.54374 0.29497 0.53708 0.0
C483 C 0.56534 0.23664 0.51905 0.0
C484 C 0.54921 0.33738 0.54134 0.0
C485 C 0.57755 0.3665 0.5307 0.0
C486 C 0.56698 0.28136 0.52219 0.0
C487 C 0.59858 0.3515 0.51507 0.0
C488 C 0.59435 0.22398 0.50781 0.0
C489 C 0.53564 0.16631 0.52685 0.0
N490 N 0.59319 0.31011 0.51148 0.0
N491 N 0.53681 0.20734 0.52809 0.0
H492 H 0.26636 0.54345 0.80088 0.0
H493 H 0.29355 0.76283 0.85533 0.0
H494 H 0.38292 0.62116 0.82507 0.0
H495 H 0.18602 0.6989 0.81499 0.0
H496 H 0.32992 0.71687 0.83963 0.0
H497 H 0.23903 0.60404 0.80072 0.0
C498 C 0.28644 0.57336 0.80572 0.0
C499 C 0.32675 0.57699 0.81356 0.0
C500 C 0.29863 0.71357 0.83377 0.0
C501 C 0.29544 0.64642 0.81386 0.0
C502 C 0.27793 0.73983 0.84273 0.0
C503 C 0.23664 0.73426 0.83668 0.0
C504 C 0.27761 0.68104 0.81902 0.0
C505 C 0.21785 0.70426 0.82015 0.0
C506 C 0.27077 0.60801 0.80569 0.0
C507 C 0.35128 0.61665 0.81964 0.0
N508 N 0.23823 0.67813 0.81227 0.0
N509 N 0.33507 0.64968 0.82009 0.0
H510 H 0.84798 0.28884 0.12859 0.0
H511 H 0.77205 0.16779 0.23518 0.0
H512 H 0.90657 0.31988 0.19423 0.0
H513 H 0.70913 0.13934 0.17038 0.0
H514 H 0.82108 0.22417 0.22035 0.0
H515 H 0.79673 0.23414 0.14336 0.0
C516 C 0.85019 0.28407 0.1461 0.0
C517 C 0.88172 0.30906 0.16018 0.0
C518 C 0.79651 0.20573 0.20934 0.0
C519 C 0.82287 0.24666 0.17723 0.0
C520 C 0.76857 0.17339 0.2178 0.0
C521 C 0.73654 0.14858 0.20398 0.0
C522 C 0.79265 0.2134 0.18683 0.0
C523 C 0.73318 0.15782 0.18166 0.0
C524 C 0.82075 0.25299 0.15453 0.0
C525 C 0.88262 0.30179 0.18276 0.0
N526 N 0.76101 0.18932 0.17376 0.0
N527 N 0.85375 0.27125 0.19055 0.0
H528 H 1.02972 0.55208 0.06709 0.0
H529 H 0.1382 0.74548 -0.00049 0.0
H530 H 0.11188 0.66306 0.09673 0.0
H531 H 0.0661 0.63083 0.9684 0.0
H532 H 0.12771 0.7156 0.03538 0.0
H533 H 1.04162 0.58006 0.03074 0.0
C534 C 1.05025 0.58223 0.06599 0.0
C535 C 0.06972 0.60523 0.08504 0.0
C536 C 0.11427 0.69687 0.02071 0.0
C537 C 0.0834 0.63741 0.04356 0.0
C538 C 0.12012 0.71402 0.00023 0.0
C539 C 0.10302 0.69065 0.98093 0.0
C540 C 0.0909 0.65607 0.02197 0.0
C541 C 0.08025 0.64982 0.98286 0.0
C542 C 0.05707 0.59816 0.04524 0.0
C543 C 0.09609 0.64412 0.08257 0.0
N544 N 0.07471 0.63388 0.00301 0.0
N545 N 0.10203 0.65895 0.06228 0.0
H546 H 0.65015 0.04497 0.45496 0.0
H547 H 0.53613 -0.00052 0.33419 0.0
H548 H 0.52105 0.02201 0.44175 0.0
H549 H 0.66438 0.0511 0.34662 0.0
H550 H 0.52999 0.00481 0.37364 0.0
H551 H 0.65608 0.04468 0.41542 0.0
C552 C 0.62303 0.03989 0.44376 0.0
C553 C 0.58501 0.03336 0.45171 0.0
C554 C 0.55945 0.01521 0.36773 0.0
C555 C 0.59163 0.03286 0.40639 0.0
C556 C 0.56298 0.01198 0.34524 0.0
C557 C 0.60084 0.02477 0.33714 0.0
C558 C 0.59408 0.0309 0.38229 0.0
C559 C 0.63459 0.04118 0.35216 0.0
C560 C 0.62648 0.03989 0.42118 0.0
C561 C 0.55098 0.02723 0.43639 0.0
N562 N 0.63046 0.04348 0.37403 0.0
N563 N 0.55508 0.02686 0.41447 0.0
H564 H 0.59875 0.4626 0.78292 0.0
H565 H 0.51165 0.46395 0.65818 0.0
H566 H 0.47242 0.45206 0.76502 0.0
H567 H 0.63073 0.53504 0.6824 0.0
H568 H 0.4973 0.44755 0.69619 0.0
H569 H 0.61187 0.47667 0.74469 0.0
C570 C 0.57371 0.46277 0.7709 0.0
C571 C 0.53443 0.4562 0.77713 0.0
C572 C 0.52649 0.46683 0.69313 0.0
C573 C 0.54925 0.47204 0.73348 0.0
C574 C 0.53467 0.47609 0.67154 0.0
C575 C 0.57229 0.50105 0.6673 0.0
C576 C 0.55653 0.48181 0.71045 0.0
C577 C 0.60122 0.51604 0.68508 0.0
C578 C 0.58129 0.4711 0.74917 0.0
C579 C 0.50317 0.45713 0.76091 0.0
N580 N 0.59287 0.50589 0.7059 0.0
N581 N 0.51121 0.46471 0.73977 0.0
H582 H 0.60634 0.07911 0.59563 0.0
H583 H 0.52435 0.93832 0.69423 0.0
H584 H 0.51511 0.96364 0.58555 0.0
H585 H 0.60019 0.06272 0.70337 0.0
H586 H 0.51985 0.94673 0.65451 0.0
H587 H 0.60425 0.0732 0.63519 0.0
C588 C 0.58574 0.05252 0.60173 0.0
C589 C 0.56097 0.02171 0.58722 0.0
C590 C 0.53728 0.97225 0.66523 0.0
C591 C 0.55857 0.01468 0.63266 0.0
C592 C 0.53971 0.96757 0.68793 0.0
C593 C 0.56288 -0.00021 0.70222 0.0
C594 C 0.55834 0.00934 0.6567 0.0
C595 C 0.5826 0.03674 0.69302 0.0
C596 C 0.58451 0.04922 0.62436 0.0
C597 C 0.53474 0.98811 0.59613 0.0
N598 N 0.58003 0.04041 0.67088 0.0
N599 N 0.53442 0.98534 0.6183 0.0
H600 H 0.55115 0.52314 0.91428 0.0
H601 H 0.47091 0.42121 0.02417 0.0
H602 H 0.4583 0.40897 0.91343 0.0
H603 H 0.54523 0.54559 0.02153 0.0
H604 H 0.46618 0.4148 0.98394 0.0
H605 H 0.5495 0.53072 0.95377 0.0
C606 C 0.53028 0.49962 0.9224 0.0
C607 C 0.50496 0.4652 0.91052 0.0
C608 C 0.48326 0.44357 0.99218 0.0
C609 C 0.50306 0.47369 0.95601 0.0
C610 C 0.48617 0.44717 0.01513 0.0
C611 C 0.50857 0.48398 0.02624 0.0
C612 C 0.50324 0.47687 0.98028 0.0
C613 C 0.52732 0.5168 0.01369 0.0
C614 C 0.52929 0.50407 0.94501 0.0
C615 C 0.47834 0.43598 0.92197 0.0
N616 N 0.52444 0.51235 0.99144 0.0
N617 N 0.4783 0.4407 0.94415 0.0
H618 H 1.05526 0.46549 0.20764 0.0
H619 H 0.07657 0.54916 0.33264 0.0
H620 H 1.04075 0.58522 0.22723 0.0
H621 H 0.08327 0.42619 0.31397 0.0
H622 H 0.06091 0.56177 0.29403 0.0
H623 H 0.06259 0.44907 0.2464 0.0
C624 C 1.05335 0.48823 0.22006 0.0
C625 C 1.04766 0.52692 0.21414 0.0
C626 C 0.06558 0.53192 0.29835 0.0
C627 C 0.05621 0.50837 0.25854 0.0
C628 C 0.07474 0.5248 0.3204 0.0
C629 C 0.08148 0.48666 0.32653 0.0
C630 C 0.06338 0.50078 0.28223 0.0
C631 C 0.07803 0.45596 0.30999 0.0
C632 C 0.05754 0.47882 0.24219 0.0
C633 C 1.04526 0.55507 0.23097 0.0
N634 N 0.0695 0.46378 0.28859 0.0
N635 N 1.04981 0.54533 0.25236 0.0
loop_
_geom_bond_atom_site_label_1
_geom_bond_atom_site_label_2
_geom_bond_distance
_geom_bond_site_symmetry_2
_ccdc_geom_bond_type
Dy0 O3 2.307 1_455 S
Dy0 O5 2.395 . S
Dy0 O6 2.379 . S
Dy0 O8 2.339 . S
Dy0 O10 2.298 . S
Dy0 O14 2.275 . S
Dy0 C22 2.738 . S
Dy1 O4 2.298 . S
Dy1 O7 2.275 1_655 S
Dy1 O9 2.307 1_655 S
Dy1 O11 2.395 . S
Dy1 O12 2.379 . S
Dy1 O15 2.339 . S
Dy1 C31 2.738 . S
C2 O14 1.254 . S
C2 O15 1.257 1_455 S
O3 Dy0 2.307 1_655 S
O3 C13 1.266 . S
O4 Dy1 2.298 . S
O4 C13 1.236 . S
O5 Dy0 2.395 . S
O5 C22 1.255 . S
O6 Dy0 2.379 . S
O6 C22 1.249 . S
O7 Dy1 2.275 1_455 S
O7 C23 1.254 . S
O8 Dy0 2.339 . S
O8 C23 1.257 . S
O9 Dy1 2.307 1_455 S
O9 C24 1.266 . S
O10 Dy0 2.298 . S
O10 C24 1.236 . S
O11 Dy1 2.395 . S
O11 C31 1.255 . S
O12 Dy1 2.379 . S
O12 C31 1.249 . S
C13 O3 1.266 . S
C13 O4 1.236 . S
O14 Dy0 2.275 . S
O14 C2 1.254 . S
O15 Dy1 2.339 . S
O15 C2 1.257 1_655 S
C16 C19 1.344 . S
C16 C20 1.328 . S
C16 C22 1.516 . S
C17 C18 1.304 . S
C17 C21 1.323 . S
C18 C17 1.304 . S
C18 C19 1.371 . S
C18 H32 0.930 . S
C19 C16 1.344 . S
C19 C18 1.371 . S
C19 H33 0.931 . S
C20 C16 1.328 . S
C20 C21 1.433 . S
C20 H34 0.931 . S
C21 C17 1.323 . S
C21 C20 1.433 . S
C21 H35 0.933 . S
C22 Dy0 2.738 . S
C22 O5 1.255 . S
C22 O6 1.249 . S
C22 C16 1.516 . S
C23 O7 1.254 . S
C23 O8 1.257 . S
C24 O9 1.266 . S
C24 O10 1.236 . S
C25 C28 1.344 . S
C25 C29 1.328 . S
C25 C31 1.516 . S
C26 C27 1.304 . S
C26 C30 1.323 . S
C27 C26 1.304 . S
C27 C28 1.371 . S
C27 H36 0.930 . S
C28 C25 1.344 . S
C28 C27 1.371 . S
C28 H37 0.931 . S
C29 C25 1.328 . S
C29 C30 1.433 . S
C29 H38 0.931 . S
C30 C26 1.323 . S
C30 C29 1.433 . S
C30 H39 0.933 . S
C31 Dy1 2.738 . S
C31 O11 1.255 . S
C31 O12 1.249 . S
C31 C25 1.516 . S
H32 C18 0.930 . S
H33 C19 0.931 . S
H34 C20 0.931 . S
H35 C21 0.933 . S
H36 C27 0.930 . S
H37 C28 0.931 . S
H38 C29 0.931 . S
H39 C30 0.933 . S
Dy40 O43 2.307 . S
Dy40 O45 2.395 1_545 S
Dy40 O46 2.379 1_545 S
Dy40 O48 2.339 . S
Dy40 O50 2.298 1_545 S
Dy40 O54 2.275 . S
Dy40 C62 2.738 1_545 S
Dy41 O44 2.298 . S
Dy41 O47 2.275 . S
Dy41 O49 2.307 1_545 S
Dy41 O51 2.395 . S
Dy41 O52 2.379 . S
Dy41 O55 2.339 . S
Dy41 C71 2.738 . S
C42 O54 1.254 . S
C42 O55 1.257 . S
O43 Dy40 2.307 . S
O43 C53 1.266 . S
O44 Dy41 2.298 . S
O44 C53 1.236 . S
O45 Dy40 2.395 1_565 S
O45 C62 1.255 . S
O46 Dy40 2.379 1_565 S
O46 C62 1.249 . S
O47 Dy41 2.275 . S
O47 C63 1.254 . S
O48 Dy40 2.339 . S
O48 C63 1.257 . S
O49 Dy41 2.307 1_565 S
O49 C64 1.266 . S
O50 Dy40 2.298 1_565 S
O50 C64 1.236 . S
O51 Dy41 2.395 . S
O51 C71 1.255 . S
O52 Dy41 2.379 . S
O52 C71 1.249 . S
C53 O43 1.266 . S
C53 O44 1.236 . S
O54 Dy40 2.275 . S
O54 C42 1.254 . S
O55 Dy41 2.339 . S
O55 C42 1.257 . S
C56 C59 1.344 . S
C56 C60 1.328 . S
C56 C62 1.516 . S
C57 C58 1.304 . S
C57 C61 1.323 . S
C58 C57 1.304 . S
C58 C59 1.371 . S
C58 H72 0.930 . S
C59 C56 1.344 . S
C59 C58 1.371 . S
C59 H73 0.931 . S
C60 C56 1.328 . S
C60 C61 1.433 . S
C60 H74 0.931 . S
C61 C57 1.323 . S
C61 C60 1.433 . S
C61 H75 0.933 . S
C62 Dy40 2.738 1_565 S
C62 O45 1.255 . S
C62 O46 1.249 . S
C62 C56 1.516 . S
C63 O47 1.254 . S
C63 O48 1.257 . S
C64 O49 1.266 . S
C64 O50 1.236 . S
C65 C68 1.344 . S
C65 C69 1.328 . S
C65 C71 1.516 . S
C66 C67 1.304 . S
C66 C70 1.323 . S
C67 C66 1.304 . S
C67 C68 1.371 . S
C67 H76 0.930 . S
C68 C65 1.344 . S
C68 C67 1.371 . S
C68 H77 0.931 . S
C69 C65 1.328 . S
C69 C70 1.433 . S
C69 H78 0.931 . S
C70 C66 1.323 . S
C70 C69 1.433 . S
C70 H79 0.933 . S
C71 Dy41 2.738 . S
C71 O51 1.255 . S
C71 O52 1.249 . S
C71 C65 1.516 . S
H72 C58 0.930 . S
H73 C59 0.931 . S
H74 C60 0.931 . S
H75 C61 0.933 . S
H76 C67 0.930 . S
H77 C68 0.931 . S
H78 C69 0.931 . S
H79 C70 0.933 . S
Dy80 O83 2.307 . S
Dy80 O85 2.395 . S
Dy80 O86 2.379 . S
Dy80 O88 2.339 . S
Dy80 O90 2.298 . S
Dy80 O94 2.275 . S
Dy80 C102 2.738 . S
Dy81 O84 2.298 . S
Dy81 O87 2.275 . S
Dy81 O89 2.307 . S
Dy81 O91 2.395 . S
Dy81 O92 2.379 . S
Dy81 O95 2.339 . S
Dy81 C111 2.738 . S
C82 O94 1.254 . S
C82 O95 1.257 . S
O83 Dy80 2.307 . S
O83 C93 1.266 . S
O84 Dy81 2.298 . S
O84 C93 1.236 . S
O85 Dy80 2.395 . S
O85 C102 1.255 . S
O86 Dy80 2.379 . S
O86 C102 1.249 . S
O87 Dy81 2.275 . S
O87 C103 1.254 . S
O88 Dy80 2.339 . S
O88 C103 1.257 . S
O89 Dy81 2.307 . S
O89 C104 1.266 . S
O90 Dy80 2.298 . S
O90 C104 1.236 . S
O91 Dy81 2.395 . S
O91 C111 1.255 . S
O92 Dy81 2.379 . S
O92 C111 1.249 . S
C93 O83 1.266 . S
C93 O84 1.236 . S
O94 Dy80 2.275 . S
O94 C82 1.254 . S
O95 Dy81 2.339 . S
O95 C82 1.257 . S
C96 C99 1.344 . S
C96 C100 1.328 . S
C96 C102 1.516 . S
C97 C98 1.304 . S
C97 C101 1.323 . S
C98 C97 1.304 . S
C98 C99 1.371 . S
C98 H112 0.930 . S
C99 C96 1.344 . S
C99 C98 1.371 . S
C99 H113 0.931 . S
C100 C96 1.328 . S
C100 C101 1.433 . S
C100 H114 0.931 . S
C101 C97 1.323 . S
C101 C100 1.433 . S
C101 H115 0.933 . S
C102 Dy80 2.738 . S
C102 O85 1.255 . S
C102 O86 1.249 . S
C102 C96 1.516 . S
C103 O87 1.254 . S
C103 O88 1.257 . S
C104 O89 1.266 . S
C104 O90 1.236 . S
C105 C108 1.344 . S
C105 C109 1.328 . S
C105 C111 1.516 . S
C106 C107 1.304 . S
C106 C110 1.323 . S
C107 C106 1.304 . S
C107 C108 1.371 . S
C107 H116 0.930 . S
C108 C105 1.344 . S
C108 C107 1.371 . S
C108 H117 0.931 . S
C109 C105 1.328 . S
C109 C110 1.433 . S
C109 H118 0.931 . S
C110 C106 1.323 . S
C110 C109 1.433 . S
C110 H119 0.933 . S
C111 Dy81 2.738 . S
C111 O91 1.255 . S
C111 O92 1.249 . S
C111 C105 1.516 . S
H112 C98 0.930 . S
H113 C99 0.931 . S
H114 C100 0.931 . S
H115 C101 0.933 . S
H116 C107 0.930 . S
H117 C108 0.931 . S
H118 C109 0.931 . S
H119 C110 0.933 . S
P120 O131 1.490 1_545 S
P120 C134 1.812 1_545 S
P120 C140 1.803 . S
P120 C146 1.819 . S
H121 C135 0.941 . S
H122 C136 0.939 . S
H123 C138 0.940 1_545 S
H124 C139 0.940 . S
H125 C141 0.939 . S
H126 C142 0.942 . S
H127 C144 0.940 . S
H128 C145 0.939 . S
H129 C147 0.941 . S
H130 C151 0.939 . S
O131 P120 1.490 1_565 S
H132 C148 0.939 1_565 S
H133 C150 0.940 . S
C134 P120 1.812 1_565 S
C134 C135 1.389 . S
C134 C139 1.391 1_565 S
C135 H121 0.941 . S
C135 C134 1.389 . S
C135 C136 1.397 . S
C136 H122 0.939 . S
C136 C135 1.397 . S
C136 C137 1.378 . S
C137 C136 1.378 . S
C137 C138 1.378 . S
C138 H123 0.940 1_565 S
C138 C137 1.378 . S
C138 C139 1.396 1_565 S
C139 H124 0.940 . S
C139 C134 1.391 1_545 S
C139 C138 1.396 1_545 S
C140 P120 1.803 . S
C140 C141 1.378 . S
C140 C145 1.400 . S
C141 H125 0.939 . S
C141 C140 1.378 . S
C141 C142 1.361 . S
C142 H126 0.942 . S
C142 C141 1.361 . S
C142 C143 1.369 . S
C143 C142 1.369 . S
C143 C144 1.404 . S
C144 H127 0.940 . S
C144 C143 1.404 . S
C144 C145 1.389 . S
C145 H128 0.939 . S
C145 C140 1.400 . S
C145 C144 1.389 . S
C146 P120 1.819 . S
C146 C147 1.391 1_545 S
C146 C151 1.391 . S
C147 H129 0.941 . S
C147 C146 1.391 1_565 S
C147 C148 1.396 1_565 S
C148 H132 0.939 1_545 S
C148 C147 1.396 1_545 S
C148 C149 1.397 . S
C149 C148 1.397 . S
C149 C150 1.385 . S
C150 H133 0.940 . S
C150 C149 1.385 . S
C150 C151 1.388 . S
C151 H130 0.939 . S
C151 C146 1.391 . S
C151 C150 1.388 . S
P152 O163 1.490 . S
P152 C166 1.812 . S
P152 C172 1.803 . S
P152 C178 1.819 . S
H153 C167 0.941 . S
H154 C168 0.939 . S
H155 C170 0.940 . S
H156 C171 0.940 . S
H157 C173 0.939 . S
H158 C174 0.942 . S
H159 C176 0.940 . S
H160 C177 0.939 . S
H161 C179 0.941 . S
H162 C183 0.939 . S
O163 P152 1.490 . S
H164 C180 0.939 . S
H165 C182 0.940 . S
C166 P152 1.812 . S
C166 C167 1.389 . S
C166 C171 1.391 . S
C167 H153 0.941 . S
C167 C166 1.389 . S
C167 C168 1.397 . S
C168 H154 0.939 . S
C168 C167 1.397 . S
C168 C169 1.378 . S
C169 C168 1.378 . S
C169 C170 1.378 . S
C170 H155 0.940 . S
C170 C169 1.378 . S
C170 C171 1.396 . S
C171 H156 0.940 . S
C171 C166 1.391 . S
C171 C170 1.396 . S
C172 P152 1.803 . S
C172 C173 1.378 . S
C172 C177 1.400 . S
C173 H157 0.939 . S
C173 C172 1.378 . S
C173 C174 1.361 . S
C174 H158 0.942 . S
C174 C173 1.361 . S
C174 C175 1.369 . S
C175 C174 1.369 . S
C175 C176 1.404 . S
C176 H159 0.940 . S
C176 C175 1.404 . S
C176 C177 1.389 . S
C177 H160 0.939 . S
C177 C172 1.400 . S
C177 C176 1.389 . S
C178 P152 1.819 . S
C178 C179 1.391 . S
C178 C183 1.391 . S
C179 H161 0.941 . S
C179 C178 1.391 . S
C179 C180 1.396 . S
C180 H164 0.939 . S
C180 C179 1.396 . S
C180 C181 1.397 . S
C181 C180 1.397 . S
C181 C182 1.385 . S
C182 H165 0.940 . S
C182 C181 1.385 . S
C182 C183 1.388 . S
C183 H162 0.939 . S
C183 C178 1.391 . S
C183 C182 1.388 . S
P184 O195 1.490 . S
P184 C198 1.812 . S
P184 C204 1.803 1_455 S
P184 C210 1.819 . S
H185 C199 0.941 . S
H186 C200 0.939 . S
H187 C202 0.940 . S
H188 C203 0.940 . S
H189 C205 0.939 . S
H190 C206 0.942 . S
H191 C208 0.940 . S
H192 C209 0.939 . S
H193 C211 0.941 . S
H194 C215 0.939 . S
O195 P184 1.490 . S
H196 C212 0.939 . S
H197 C214 0.940 . S
C198 P184 1.812 . S
C198 C199 1.389 . S
C198 C203 1.391 . S
C199 H185 0.941 . S
C199 C198 1.389 . S
C199 C200 1.397 . S
C200 H186 0.939 . S
C200 C199 1.397 . S
C200 C201 1.378 . S
C201 C200 1.378 . S
C201 C202 1.378 . S
C202 H187 0.940 . S
C202 C201 1.378 . S
C202 C203 1.396 . S
C203 H188 0.940 . S
C203 C198 1.391 . S
C203 C202 1.396 . S
C204 P184 1.803 1_655 S
C204 C205 1.378 . S
C204 C209 1.400 . S
C205 H189 0.939 . S
C205 C204 1.378 . S
C205 C206 1.361 . S
C206 H190 0.942 . S
C206 C205 1.361 . S
C206 C207 1.369 . S
C207 C206 1.369 . S
C207 C208 1.404 . S
C208 H191 0.940 . S
C208 C207 1.404 . S
C208 C209 1.389 . S
C209 H192 0.939 . S
C209 C204 1.400 . S
C209 C208 1.389 . S
C210 P184 1.819 . S
C210 C211 1.391 . S
C210 C215 1.391 1_455 S
C211 H193 0.941 . S
C211 C210 1.391 . S
C211 C212 1.396 . S
C212 H196 0.939 . S
C212 C211 1.396 . S
C212 C213 1.397 . S
C213 C212 1.397 . S
C213 C214 1.385 1_455 S
C214 H197 0.940 . S
C214 C213 1.385 1_655 S
C214 C215 1.388 . S
C215 H194 0.939 . S
C215 C210 1.391 1_655 S
C215 C214 1.388 . S
P216 O227 1.490 . S
P216 C230 1.812 . S
P216 C236 1.803 1_455 S
P216 C242 1.819 . S
H217 C231 0.941 . S
H218 C232 0.939 . S
H219 C234 0.940 . S
H220 C235 0.940 . S
H221 C237 0.939 . S
H222 C238 0.942 . S
H223 C240 0.940 . S
H224 C241 0.939 . S
H225 C243 0.941 . S
H226 C247 0.939 . S
O227 P216 1.490 . S
H228 C244 0.939 . S
H229 C246 0.940 . S
C230 P216 1.812 . S
C230 C231 1.389 . S
C230 C235 1.391 . S
C231 H217 0.941 . S
C231 C230 1.389 . S
C231 C232 1.397 . S
C232 H218 0.939 . S
C232 C231 1.397 . S
C232 C233 1.378 . S
C233 C232 1.378 . S
C233 C234 1.378 . S
C234 H219 0.940 . S
C234 C233 1.378 . S
C234 C235 1.396 . S
C235 H220 0.940 . S
C235 C230 1.391 . S
C235 C234 1.396 . S
C236 P216 1.803 1_655 S
C236 C237 1.378 . S
C236 C241 1.400 . S
C237 H221 0.939 . S
C237 C236 1.378 . S
C237 C238 1.361 . S
C238 H222 0.942 . S
C238 C237 1.361 . S
C238 C239 1.369 . S
C239 C238 1.369 . S
C239 C240 1.404 . S
C240 H223 0.940 . S
C240 C239 1.404 . S
C240 C241 1.389 . S
C241 H224 0.939 . S
C241 C236 1.400 . S
C241 C240 1.389 . S
C242 P216 1.819 . S
C242 C243 1.391 . S
C242 C247 1.391 1_455 S
C243 H225 0.941 . S
C243 C242 1.391 . S
C243 C244 1.396 . S
C244 H228 0.939 . S
C244 C243 1.396 . S
C244 C245 1.397 . S
C245 C244 1.397 . S
C245 C246 1.385 1_455 S
C246 H229 0.940 . S
C246 C245 1.385 1_655 S
C246 C247 1.388 . S
C247 H226 0.939 . S
C247 C242 1.391 1_655 S
C247 C246 1.388 . S
P248 O259 1.490 . S
P248 C262 1.812 . S
P248 C268 1.803 1_545 S
P248 C274 1.819 . S
H249 C263 0.941 . S
H250 C264 0.939 . S
H251 C266 0.940 . S
H252 C267 0.940 . S
H253 C269 0.939 . S
H254 C270 0.942 . S
H255 C272 0.940 . S
H256 C273 0.939 . S
H257 C275 0.941 . S
H258 C279 0.939 . S
O259 P248 1.490 . S
H260 C276 0.939 . S
H261 C278 0.940 . S
C262 P248 1.812 . S
C262 C263 1.389 . S
C262 C267 1.391 . S
C263 H249 0.941 . S
C263 C262 1.389 . S
C263 C264 1.397 . S
C264 H250 0.939 . S
C264 C263 1.397 . S
C264 C265 1.378 . S
C265 C264 1.378 . S
C265 C266 1.378 . S
C266 H251 0.940 . S
C266 C265 1.378 . S
C266 C267 1.396 . S
C267 H252 0.940 . S
C267 C262 1.391 . S
C267 C266 1.396 . S
C268 P248 1.803 1_565 S
C268 C269 1.378 . S
C268 C273 1.400 . S
C269 H253 0.939 . S
C269 C268 1.378 . S
C269 C270 1.361 . S
C270 H254 0.942 . S
C270 C269 1.361 . S
C270 C271 1.369 . S
C271 C270 1.369 . S
C271 C272 1.404 . S
C272 H255 0.940 . S
C272 C271 1.404 . S
C272 C273 1.389 . S
C273 H256 0.939 . S
C273 C268 1.400 . S
C273 C272 1.389 . S
C274 P248 1.819 . S
C274 C275 1.391 . S
C274 C279 1.391 1_545 S
C275 H257 0.941 . S
C275 C274 1.391 . S
C275 C276 1.396 . S
C276 H260 0.939 . S
C276 C275 1.396 . S
C276 C277 1.397 . S
C277 C276 1.397 . S
C277 C278 1.385 1_545 S
C278 H261 0.940 . S
C278 C277 1.385 1_565 S
C278 C279 1.388 . S
C279 H258 0.939 . S
C279 C274 1.391 1_565 S
C279 C278 1.388 . S
P280 O291 1.490 . S
P280 C294 1.812 . S
P280 C300 1.803 . S
P280 C306 1.819 . S
H281 C295 0.941 . S
H282 C296 0.939 . S
H283 C298 0.940 . S
H284 C299 0.940 . S
H285 C301 0.939 . S
H286 C302 0.942 . S
H287 C304 0.940 . S
H288 C305 0.939 . S
H289 C307 0.941 . S
H290 C311 0.939 . S
O291 P280 1.490 . S
H292 C308 0.939 . S
H293 C310 0.940 . S
C294 P280 1.812 . S
C294 C295 1.389 . S
C294 C299 1.391 . S
C295 H281 0.941 . S
C295 C294 1.389 . S
C295 C296 1.397 . S
C296 H282 0.939 . S
C296 C295 1.397 . S
C296 C297 1.378 . S
C297 C296 1.378 . S
C297 C298 1.378 . S
C298 H283 0.940 . S
C298 C297 1.378 . S
C298 C299 1.396 . S
C299 H284 0.940 . S
C299 C294 1.391 . S
C299 C298 1.396 . S
C300 P280 1.803 . S
C300 C301 1.378 . S
C300 C305 1.400 . S
C301 H285 0.939 . S
C301 C300 1.378 . S
C301 C302 1.361 . S
C302 H286 0.942 . S
C302 C301 1.361 . S
C302 C303 1.369 . S
C303 C302 1.369 . S
C303 C304 1.404 . S
C304 H287 0.940 . S
C304 C303 1.404 . S
C304 C305 1.389 . S
C305 H288 0.939 . S
C305 C300 1.400 . S
C305 C304 1.389 . S
C306 P280 1.819 . S
C306 C307 1.391 . S
C306 C311 1.391 . S
C307 H289 0.941 . S
C307 C306 1.391 . S
C307 C308 1.396 . S
C308 H292 0.939 . S
C308 C307 1.396 . S
C308 C309 1.397 . S
C309 C308 1.397 . S
C309 C310 1.385 . S
C310 H293 0.940 . S
C310 C309 1.385 . S
C310 C311 1.388 . S
C311 H290 0.939 . S
C311 C306 1.391 . S
C311 C310 1.388 . S
H312 C318 0.930 . S
H313 C322 0.930 . S
H314 C327 0.929 . S
H315 C325 0.929 . S
H316 C320 0.929 . S
H317 C326 0.929 . S
C318 H312 0.930 . S
C318 C319 1.367 . S
C318 C326 1.378 . S
C319 C318 1.367 . S
C319 C327 1.433 . S
C320 H316 0.929 . S
C320 C322 1.378 . S
C320 C324 1.350 . S
C321 C324 1.463 . S
C321 C326 1.350 . S
C321 N329 1.427 . S
C322 H313 0.930 . S
C322 C320 1.378 . S
C322 C323 1.367 . S
C323 C322 1.367 . S
C323 C325 1.433 . S
C324 C320 1.350 . S
C324 C321 1.463 . S
C324 N328 1.427 . S
C325 H315 0.929 . S
C325 C323 1.433 . S
C325 N328 1.384 . S
C326 H317 0.929 . S
C326 C318 1.378 . S
C326 C321 1.350 . S
C327 H314 0.929 . S
C327 C319 1.433 . S
C327 N329 1.384 . S
N328 C324 1.427 . S
N328 C325 1.384 . S
N329 C321 1.427 . S
N329 C327 1.384 . S
H330 C336 0.930 . S
H331 C340 0.930 . S
H332 C345 0.929 . S
H333 C343 0.929 . S
H334 C338 0.929 . S
H335 C344 0.929 . S
C336 H330 0.930 . S
C336 C337 1.367 . S
C336 C344 1.378 . S
C337 C336 1.367 . S
C337 C345 1.433 . S
C338 H334 0.929 . S
C338 C340 1.378 . S
C338 C342 1.350 . S
C339 C342 1.463 . S
C339 C344 1.350 . S
C339 N347 1.427 . S
C340 H331 0.930 . S
C340 C338 1.378 . S
C340 C341 1.367 . S
C341 C340 1.367 . S
C341 C343 1.433 . S
C342 C338 1.350 . S
C342 C339 1.463 . S
C342 N346 1.427 . S
C343 H333 0.929 . S
C343 C341 1.433 . S
C343 N346 1.384 . S
C344 H335 0.929 . S
C344 C336 1.378 . S
C344 C339 1.350 . S
C345 H332 0.929 . S
C345 C337 1.433 . S
C345 N347 1.384 . S
N346 C342 1.427 . S
N346 C343 1.384 . S
N347 C339 1.427 . S
N347 C345 1.384 . S
H348 C354 0.930 . S
H349 C358 0.930 . S
H350 C363 0.929 . S
H351 C361 0.929 . S
H352 C356 0.929 . S
H353 C362 0.929 . S
C354 H348 0.930 . S
C354 C355 1.367 . S
C354 C362 1.378 . S
C355 C354 1.367 . S
C355 C363 1.433 . S
C356 H352 0.929 . S
C356 C358 1.378 . S
C356 C360 1.350 . S
C357 C360 1.463 . S
C357 C362 1.350 . S
C357 N365 1.427 . S
C358 H349 0.930 . S
C358 C356 1.378 . S
C358 C359 1.367 . S
C359 C358 1.367 . S
C359 C361 1.433 . S
C360 C356 1.350 . S
C360 C357 1.463 . S
C360 N364 1.427 . S
C361 H351 0.929 . S
C361 C359 1.433 . S
C361 N364 1.384 . S
C362 H353 0.929 . S
C362 C354 1.378 . S
C362 C357 1.350 . S
C363 H350 0.929 . S
C363 C355 1.433 . S
C363 N365 1.384 . S
N364 C360 1.427 . S
N364 C361 1.384 . S
N365 C357 1.427 . S
N365 C363 1.384 . S
H366 C372 0.930 . S
H367 C376 0.930 . S
H368 C381 0.929 . S
H369 C379 0.929 . S
H370 C374 0.929 . S
H371 C380 0.929 . S
C372 H366 0.930 . S
C372 C373 1.367 . S
C372 C380 1.378 . S
C373 C372 1.367 . S
C373 C381 1.433 . S
C374 H370 0.929 . S
C374 C376 1.378 . S
C374 C378 1.350 . S
C375 C378 1.463 . S
C375 C380 1.350 . S
C375 N383 1.427 . S
C376 H367 0.930 . S
C376 C374 1.378 . S
C376 C377 1.367 . S
C377 C376 1.367 . S
C377 C379 1.433 . S
C378 C374 1.350 . S
C378 C375 1.463 . S
C378 N382 1.427 . S
C379 H369 0.929 . S
C379 C377 1.433 . S
C379 N382 1.384 . S
C380 H371 0.929 . S
C380 C372 1.378 . S
C380 C375 1.350 . S
C381 H368 0.929 . S
C381 C373 1.433 . S
C381 N383 1.384 . S
N382 C378 1.427 . S
N382 C379 1.384 . S
N383 C375 1.427 . S
N383 C381 1.384 . S
H384 C390 0.930 . S
H385 C394 0.930 . S
H386 C399 0.929 . S
H387 C397 0.929 . S
H388 C392 0.929 . S
H389 C398 0.929 . S
C390 H384 0.930 . S
C390 C391 1.367 . S
C390 C398 1.378 . S
C391 C390 1.367 . S
C391 C399 1.433 . S
C392 H388 0.929 . S
C392 C394 1.378 . S
C392 C396 1.350 . S
C393 C396 1.463 . S
C393 C398 1.350 . S
C393 N401 1.427 . S
C394 H385 0.930 . S
C394 C392 1.378 . S
C394 C395 1.367 . S
C395 C394 1.367 . S
C395 C397 1.433 . S
C396 C392 1.350 . S
C396 C393 1.463 . S
C396 N400 1.427 . S
C397 H387 0.929 . S
C397 C395 1.433 . S
C397 N400 1.384 . S
C398 H389 0.929 . S
C398 C390 1.378 . S
C398 C393 1.350 . S
C399 H386 0.929 . S
C399 C391 1.433 . S
C399 N401 1.384 . S
N400 C396 1.427 . S
N400 C397 1.384 . S
N401 C393 1.427 . S
N401 C399 1.384 . S
H402 C408 0.930 . S
H403 C412 0.930 . S
H404 C417 0.929 . S
H405 C415 0.929 . S
H406 C410 0.929 . S
H407 C416 0.929 . S
C408 H402 0.930 . S
C408 C409 1.367 . S
C408 C416 1.378 . S
C409 C408 1.367 . S
C409 C417 1.433 . S
C410 H406 0.929 . S
C410 C412 1.378 . S
C410 C414 1.350 . S
C411 C414 1.463 . S
C411 C416 1.350 . S
C411 N419 1.427 . S
C412 H403 0.930 . S
C412 C410 1.378 . S
C412 C413 1.367 . S
C413 C412 1.367 . S
C413 C415 1.433 . S
C414 C410 1.350 . S
C414 C411 1.463 . S
C414 N418 1.427 . S
C415 H405 0.929 . S
C415 C413 1.433 . S
C415 N418 1.384 . S
C416 H407 0.929 . S
C416 C408 1.378 . S
C416 C411 1.350 . S
C417 H404 0.929 . S
C417 C409 1.433 . S
C417 N419 1.384 . S
N418 C414 1.427 . S
N418 C415 1.384 . S
N419 C411 1.427 . S
N419 C417 1.384 . S
H420 C426 0.930 . S
H421 C430 0.930 . S
H422 C435 0.929 . S
H423 C433 0.929 . S
H424 C428 0.929 . S
H425 C434 0.929 . S
C426 H420 0.930 . S
C426 C427 1.367 . S
C426 C434 1.378 . S
C427 C426 1.367 . S
C427 C435 1.433 . S
C428 H424 0.929 . S
C428 C430 1.378 . S
C428 C432 1.350 . S
C429 C432 1.463 . S
C429 C434 1.350 . S
C429 N437 1.427 . S
C430 H421 0.930 . S
C430 C428 1.378 . S
C430 C431 1.367 . S
C431 C430 1.367 . S
C431 C433 1.433 . S
C432 C428 1.350 . S
C432 C429 1.463 . S
C432 N436 1.427 . S
C433 H423 0.929 . S
C433 C431 1.433 . S
C433 N436 1.384 . S
C434 H425 0.929 . S
C434 C426 1.378 . S
C434 C429 1.350 . S
C435 H422 0.929 . S
C435 C427 1.433 . S
C435 N437 1.384 . S
N436 C432 1.427 . S
N436 C433 1.384 . S
N437 C429 1.427 . S
N437 C435 1.384 . S
H438 C444 0.930 . S
H439 C448 0.930 . S
H440 C453 0.929 . S
H441 C451 0.929 . S
H442 C446 0.929 . S
H443 C452 0.929 . S
C444 H438 0.930 . S
C444 C445 1.367 . S
C444 C452 1.378 . S
C445 C444 1.367 . S
C445 C453 1.433 . S
C446 H442 0.929 . S
C446 C448 1.378 . S
C446 C450 1.350 . S
C447 C450 1.463 . S
C447 C452 1.350 . S
C447 N455 1.427 . S
C448 H439 0.930 . S
C448 C446 1.378 . S
C448 C449 1.367 . S
C449 C448 1.367 . S
C449 C451 1.433 . S
C450 C446 1.350 . S
C450 C447 1.463 . S
C450 N454 1.427 . S
C451 H441 0.929 . S
C451 C449 1.433 . S
C451 N454 1.384 . S
C452 H443 0.929 . S
C452 C444 1.378 . S
C452 C447 1.350 . S
C453 H440 0.929 . S
C453 C445 1.433 . S
C453 N455 1.384 . S
N454 C450 1.427 . S
N454 C451 1.384 . S
N455 C447 1.427 . S
N455 C453 1.384 . S
H456 C462 0.930 . S
H457 C466 0.930 . S
H458 C471 0.929 . S
H459 C469 0.929 . S
H460 C464 0.929 . S
H461 C470 0.929 . S
C462 H456 0.930 . S
C462 C463 1.367 . S
C462 C470 1.378 . S
C463 C462 1.367 . S
C463 C471 1.433 . S
C464 H460 0.929 . S
C464 C466 1.378 . S
C464 C468 1.350 . S
C465 C468 1.463 . S
C465 C470 1.350 . S
C465 N473 1.427 . S
C466 H457 0.930 . S
C466 C464 1.378 . S
C466 C467 1.367 . S
C467 C466 1.367 . S
C467 C469 1.433 . S
C468 C464 1.350 . S
C468 C465 1.463 . S
C468 N472 1.427 . S
C469 H459 0.929 . S
C469 C467 1.433 . S
C469 N472 1.384 . S
C470 H461 0.929 . S
C470 C462 1.378 . S
C470 C465 1.350 . S
C471 H458 0.929 . S
C471 C463 1.433 . S
C471 N473 1.384 . S
N472 C468 1.427 . S
N472 C469 1.384 . S
N473 C465 1.427 . S
N473 C471 1.384 . S
H474 C480 0.930 . S
H475 C484 0.930 . S
H476 C489 0.929 . S
H477 C487 0.929 . S
H478 C482 0.929 . S
H479 C488 0.929 . S
C480 H474 0.930 . S
C480 C481 1.367 . S
C480 C488 1.378 . S
C481 C480 1.367 . S
C481 C489 1.433 . S
C482 H478 0.929 . S
C482 C484 1.378 . S
C482 C486 1.350 . S
C483 C486 1.463 . S
C483 C488 1.350 . S
C483 N491 1.427 . S
C484 H475 0.930 . S
C484 C482 1.378 . S
C484 C485 1.367 . S
C485 C484 1.367 . S
C485 C487 1.433 . S
C486 C482 1.350 . S
C486 C483 1.463 . S
C486 N490 1.427 . S
C487 H477 0.929 . S
C487 C485 1.433 . S
C487 N490 1.384 . S
C488 H479 0.929 . S
C488 C480 1.378 . S
C488 C483 1.350 . S
C489 H476 0.929 . S
C489 C481 1.433 . S
C489 N491 1.384 . S
N490 C486 1.427 . S
N490 C487 1.384 . S
N491 C483 1.427 . S
N491 C489 1.384 . S
H492 C498 0.930 . S
H493 C502 0.930 . S
H494 C507 0.929 . S
H495 C505 0.929 . S
H496 C500 0.929 . S
H497 C506 0.929 . S
C498 H492 0.930 . S
C498 C499 1.367 . S
C498 C506 1.378 . S
C499 C498 1.367 . S
C499 C507 1.433 . S
C500 H496 0.929 . S
C500 C502 1.378 . S
C500 C504 1.350 . S
C501 C504 1.463 . S
C501 C506 1.350 . S
C501 N509 1.427 . S
C502 H493 0.930 . S
C502 C500 1.378 . S
C502 C503 1.367 . S
C503 C502 1.367 . S
C503 C505 1.433 . S
C504 C500 1.350 . S
C504 C501 1.463 . S
C504 N508 1.427 . S
C505 H495 0.929 . S
C505 C503 1.433 . S
C505 N508 1.384 . S
C506 H497 0.929 . S
C506 C498 1.378 . S
C506 C501 1.350 . S
C507 H494 0.929 . S
C507 C499 1.433 . S
C507 N509 1.384 . S
N508 C504 1.427 . S
N508 C505 1.384 . S
N509 C501 1.427 . S
N509 C507 1.384 . S
H510 C516 0.930 . S
H511 C520 0.930 . S
H512 C525 0.929 . S
H513 C523 0.929 . S
H514 C518 0.929 . S
H515 C524 0.929 . S
C516 H510 0.930 . S
C516 C517 1.367 . S
C516 C524 1.378 . S
C517 C516 1.367 . S
C517 C525 1.433 . S
C518 H514 0.929 . S
C518 C520 1.378 . S
C518 C522 1.350 . S
C519 C522 1.463 . S
C519 C524 1.350 . S
C519 N527 1.427 . S
C520 H511 0.930 . S
C520 C518 1.378 . S
C520 C521 1.367 . S
C521 C520 1.367 . S
C521 C523 1.433 . S
C522 C518 1.350 . S
C522 C519 1.463 . S
C522 N526 1.427 . S
C523 H513 0.929 . S
C523 C521 1.433 . S
C523 N526 1.384 . S
C524 H515 0.929 . S
C524 C516 1.378 . S
C524 C519 1.350 . S
C525 H512 0.929 . S
C525 C517 1.433 . S
C525 N527 1.384 . S
N526 C522 1.427 . S
N526 C523 1.384 . S
N527 C519 1.427 . S
N527 C525 1.384 . S
H528 C534 0.930 . S
H529 C538 0.930 . S
H530 C543 0.929 . S
H531 C541 0.929 1_556 S
H532 C536 0.929 . S
H533 C542 0.929 . S
C534 H528 0.930 . S
C534 C535 1.367 1_655 S
C534 C542 1.378 . S
C535 C534 1.367 1_455 S
C535 C543 1.433 . S
C536 H532 0.929 . S
C536 C538 1.378 . S
C536 C540 1.350 . S
C537 C540 1.463 . S
C537 C542 1.350 1_455 S
C537 N545 1.427 . S
C538 H529 0.930 . S
C538 C536 1.378 . S
C538 C539 1.367 1_554 S
C539 C538 1.367 1_556 S
C539 C541 1.433 1_456 S
C540 C536 1.350 . S
C540 C537 1.463 . S
C540 N544 1.427 1_455 S
C541 H531 0.929 1_554 S
C541 C539 1.433 1_654 S
C541 N544 1.384 . S
C542 H533 0.929 . S
C542 C534 1.378 . S
C542 C537 1.350 1_655 S
C543 H530 0.929 . S
C543 C535 1.433 . S
C543 N545 1.384 . S
N544 C540 1.427 1_655 S
N544 C541 1.384 . S
N545 C537 1.427 . S
N545 C543 1.384 . S
H546 C552 0.930 . S
H547 C556 0.930 1_565 S
H548 C561 0.929 1_565 S
H549 C559 0.929 . S
H550 C554 0.929 1_565 S
H551 C560 0.929 . S
C552 H546 0.930 . S
C552 C553 1.367 . S
C552 C560 1.378 . S
C553 C552 1.367 . S
C553 C561 1.433 . S
C554 H550 0.929 1_545 S
C554 C556 1.378 . S
C554 C558 1.350 . S
C555 C558 1.463 . S
C555 C560 1.350 . S
C555 N563 1.427 . S
C556 H547 0.930 1_545 S
C556 C554 1.378 . S
C556 C557 1.367 . S
C557 C556 1.367 . S
C557 C559 1.433 . S
C558 C554 1.350 . S
C558 C555 1.463 . S
C558 N562 1.427 . S
C559 H549 0.929 . S
C559 C557 1.433 . S
C559 N562 1.384 . S
C560 H551 0.929 . S
C560 C552 1.378 . S
C560 C555 1.350 . S
C561 H548 0.929 1_545 S
C561 C553 1.433 . S
C561 N563 1.384 . S
N562 C558 1.427 . S
N562 C559 1.384 . S
N563 C555 1.427 . S
N563 C561 1.384 . S
H564 C570 0.930 . S
H565 C574 0.930 . S
H566 C579 0.929 . S
H567 C577 0.929 . S
H568 C572 0.929 . S
H569 C578 0.929 . S
C570 H564 0.930 . S
C570 C571 1.367 . S
C570 C578 1.378 . S
C571 C570 1.367 . S
C571 C579 1.433 . S
C572 H568 0.929 . S
C572 C574 1.378 . S
C572 C576 1.350 . S
C573 C576 1.463 . S
C573 C578 1.350 . S
C573 N581 1.427 . S
C574 H565 0.930 . S
C574 C572 1.378 . S
C574 C575 1.367 . S
C575 C574 1.367 . S
C575 C577 1.433 . S
C576 C572 1.350 . S
C576 C573 1.463 . S
C576 N580 1.427 . S
C577 H567 0.929 . S
C577 C575 1.433 . S
C577 N580 1.384 . S
C578 H569 0.929 . S
C578 C570 1.378 . S
C578 C573 1.350 . S
C579 H566 0.929 . S
C579 C571 1.433 . S
C579 N581 1.384 . S
N580 C576 1.427 . S
N580 C577 1.384 . S
N581 C573 1.427 . S
N581 C579 1.384 . S
H582 C588 0.930 . S
H583 C592 0.930 . S
H584 C597 0.929 . S
H585 C595 0.929 . S
H586 C590 0.929 . S
H587 C596 0.929 . S
C588 H582 0.930 . S
C588 C589 1.367 . S
C588 C596 1.378 . S
C589 C588 1.367 . S
C589 C597 1.433 1_545 S
C590 H586 0.929 . S
C590 C592 1.378 . S
C590 C594 1.350 1_565 S
C591 C594 1.463 . S
C591 C596 1.350 . S
C591 N599 1.427 1_545 S
C592 H583 0.930 . S
C592 C590 1.378 . S
C592 C593 1.367 1_565 S
C593 C592 1.367 1_545 S
C593 C595 1.433 . S
C594 C590 1.350 1_545 S
C594 C591 1.463 . S
C594 N598 1.427 . S
C595 H585 0.929 . S
C595 C593 1.433 . S
C595 N598 1.384 . S
C596 H587 0.929 . S
C596 C588 1.378 . S
C596 C591 1.350 . S
C597 H584 0.929 . S
C597 C589 1.433 1_565 S
C597 N599 1.384 . S
N598 C594 1.427 . S
N598 C595 1.384 . S
N599 C591 1.427 1_565 S
N599 C597 1.384 . S
H600 C606 0.930 . S
H601 C610 0.930 . S
H602 C615 0.929 . S
H603 C613 0.910 1_554 S
H604 C608 0.929 . S
H605 C614 0.929 . S
C606 H600 0.930 . S
C606 C607 1.367 . S
C606 C614 1.378 . S
C607 C606 1.367 . S
C607 C615 1.433 . S
C608 H604 0.929 . S
C608 C610 1.378 1_556 S
C608 C612 1.350 . S
C609 C612 1.463 . S
C609 C614 1.350 . S
C609 N617 1.427 . S
C610 H601 0.930 . S
C610 C608 1.378 1_554 S
C610 C611 1.367 . S
C611 C610 1.367 . S
C611 C613 1.411 1_554 S
C612 C608 1.350 . S
C612 C609 1.463 . S
C612 N616 1.427 . S
C613 H603 0.910 1_556 S
C613 C611 1.411 1_556 S
C613 N616 1.427 . S
C614 H605 0.929 . S
C614 C606 1.378 . S
C614 C609 1.350 . S
C615 H602 0.929 . S
C615 C607 1.433 . S
C615 N617 1.384 . S
N616 C612 1.427 . S
N616 C613 1.427 . S
N617 C609 1.427 . S
N617 C615 1.384 . S
H618 C624 0.930 . S
H619 C628 0.930 . S
H620 C633 0.937 . S
H621 C631 0.936 . S
H622 C626 0.929 . S
H623 C632 0.929 . S
C624 H618 0.930 . S
C624 C625 1.367 . S
C624 C632 1.378 . S
C625 C624 1.367 . S
C625 C633 1.433 . S
C626 H622 0.929 . S
C626 C628 1.378 . S
C626 C630 1.343 1_655 S
C627 C630 1.465 . S
C627 C632 1.350 . S
C627 N635 1.433 . S
C628 H619 0.930 . S
C628 C626 1.378 . S
C628 C629 1.367 . S
C629 C628 1.367 . S
C629 C631 1.424 1_655 S
C630 C626 1.343 1_455 S
C630 C627 1.465 . S
C630 N634 1.432 . S
C631 H621 0.936 . S
C631 C629 1.424 1_455 S
C631 N634 1.386 . S
C632 H623 0.929 . S
C632 C624 1.378 . S
C632 C627 1.350 . S
C633 H620 0.937 . S
C633 C625 1.433 . S
C633 N635 1.386 . S
N634 C630 1.432 . S
N634 C631 1.386 . S
N635 C627 1.433 . S
N635 C633 1.386 . S
C319 C24 2.907 . S
C323 C303 2.832 . S
C337 C66 1.154 . S
C341 C239 1.159 . S
C355 C93 1.805 . S
C359 C271 1.761 . S
C373 C13 3.059 . S
C377 C297 3.011 . S
C395 C233 1.246 . S
C391 C57 1.258 . S
C413 C265 1.862 . S
C409 C104 1.921 . S
C427 C64 1.922 . S
C431 C175 1.864 . S
C445 C97 0.513 . S
C449 C207 0.489 . S
C463 C17 1.291 . S
C467 C137 1.297 . S
C485 C169 1.756 . S
C481 C53 1.798 . S
C503 C201 0.263 . S
C499 C106 0.429 . S
C517 C26 1.176 . S
C521 C143 1.166 . S
C539 C213 1.077 . S
C535 C2 1.069 . S
C553 C63 1.462 . S
C557 C149 1.464 . S
C571 C82 1.374 . S
C575 C181 1.376 . S
C593 C277 1.360 . S
C589 C42 1.384 . S
C611 C309 1.745 . S
C607 C103 1.737 . S
C625 C23 1.476 . S
C629 C245 1.472 1_655 S
