# Generated by pormake.
# Topology rtl, (3,6)-cn, num edge types: 1
# Building blocks:
#     Node 0, Type 0, BuildingBlock: ESEHIV_clean_linker_0, # of connection points: 3
#     Node 1, Type 0, BuildingBlock: ESEHIV_clean_linker_0, # of connection points: 3
#     Node 2, Type 0, BuildingBlock: ESEHIV_clean_linker_0, # of connection points: 3
#     Node 3, Type 0, BuildingBlock: ESEHIV_clean_linker_0, # of connection points: 3
#     Node 4, Type 1, BuildingBlock: FUNLAD_clean_sbu_0, # of connection points: 6
#     Node 5, Type 1, BuildingBlock: FUNLAD_clean_sbu_0, # of connection points: 6
#     Edge 6, Type (0, 1), BuildingBlock: XUDNAN_clean_linker_2, # of connection points: 2
#     Edge 7, Type (0, 1), BuildingBlock: XUDNAN_clean_linker_2, # of connection points: 2
#     Edge 8, Type (0, 1), BuildingBlock: XUDNAN_clean_linker_2, # of connection points: 2
#     Edge 9, Type (0, 1), BuildingBlock: XUDNAN_clean_linker_2, # of connection points: 2
#     Edge 10, Type (0, 1), BuildingBlock: XUDNAN_clean_linker_2, # of connection points: 2
#     Edge 11, Type (0, 1), BuildingBlock: XUDNAN_clean_linker_2, # of connection points: 2
#     Edge 12, Type (0, 1), BuildingBlock: XUDNAN_clean_linker_2, # of connection points: 2
#     Edge 13, Type (0, 1), BuildingBlock: XUDNAN_clean_linker_2, # of connection points: 2
#     Edge 14, Type (0, 1), BuildingBlock: XUDNAN_clean_linker_2, # of connection points: 2
#     Edge 15, Type (0, 1), BuildingBlock: XUDNAN_clean_linker_2, # of connection points: 2
#     Edge 16, Type (0, 1), BuildingBlock: XUDNAN_clean_linker_2, # of connection points: 2
#     Edge 17, Type (0, 1), BuildingBlock: XUDNAN_clean_linker_2, # of connection points: 2
# Relax obj value: 0.025
# Max RMSD: 0.105
# Mean RMSD: 0.087
data_MOF--net-rtl--node1-FUNLAD_clean_sbu_0--node2-ESEHIV_clean_linker_0--edge1-XUDNAN_clean_linker_2
_symmetry_space_group_name_H-M    P1
_symmetry_Int_Tables_number       1
_symmetry_cell_setting            triclinic
loop_
_symmetry_equiv_pos_as_xyz
'x, y, z'
_cell_length_a     38.971336
_cell_length_b     31.406312
_cell_length_c     21.673698
_cell_angle_alpha  89.942368
_cell_angle_beta   90.949436
_cell_angle_gamma 90.283484
loop_
_atom_site_label
_atom_site_type_symbol
_atom_site_fract_x
_atom_site_fract_y
_atom_site_fract_z
_atom_type_partial_charge
H0 H 0.07109 0.81793 0.97866 0.0
H1 H 0.14628 0.77918 0.11442 0.0
H2 H 0.15924 0.74784 0.92234 0.0
C3 C 0.09456 0.80129 0.99089 0.0
C4 C 0.1134 0.78205 0.9443 0.0
C5 C 0.10662 0.80142 0.05218 0.0
C6 C 0.13695 0.7794 0.06708 0.0
C7 C 0.15608 0.75934 0.02078 0.0
C8 C 0.14419 0.76128 0.95908 0.0
H9 H 0.58281 0.67526 0.49738 0.0
H10 H 0.65381 0.76225 0.4137 0.0
H11 H 0.64032 0.76319 0.61064 0.0
C12 C 0.60184 0.70046 0.50161 0.0
C13 C 0.60953 0.71785 0.55975 0.0
C14 C 0.61742 0.71682 0.44869 0.0
C15 C 0.64169 0.74976 0.45463 0.0
C16 C 0.65049 0.76649 0.51293 0.0
C17 C 0.63376 0.75082 0.56526 0.0
H18 H 0.9269 0.17513 0.01935 0.0
H19 H 0.85401 0.2549 0.10906 0.0
H20 H 0.85459 0.24753 0.91022 0.0
C21 C 0.90533 0.1968 0.01644 0.0
C22 C 0.8923 0.20925 0.95855 0.0
C23 C 0.89148 0.21306 0.07054 0.0
C24 C 0.86443 0.24209 0.06689 0.0
C25 C 0.8506 0.25441 0.00925 0.0
C26 C 0.86436 0.23735 0.95494 0.0
H27 H 0.42202 0.33192 0.50566 0.0
H28 H 0.35692 0.24206 0.59811 0.0
H29 H 0.36994 0.2334 0.40194 0.0
C30 C 0.40535 0.30418 0.50425 0.0
C31 C 0.39827 0.28398 0.44764 0.0
C32 C 0.39049 0.28924 0.55875 0.0
C33 C 0.36871 0.2536 0.55627 0.0
C34 C 0.36117 0.23343 0.49998 0.0
C35 C 0.37604 0.24863 0.44567 0.0
C36 C 0.02098 0.95262 0.41278 0.0
N37 N 0.08113 0.03951 0.51295 0.0
C38 C 0.10722 0.01118 0.50761 0.0
C39 C 0.14119 0.02527 0.5064 0.0
C40 C 0.14844 0.069 0.51031 0.0
C41 C 0.12103 0.09762 0.51536 0.0
C42 C 0.08738 0.08209 0.51681 0.0
Zn43 Zn 0.03204 0.01643 0.51397 0.0
C44 C 0.98461 0.06497 0.43256 0.0
N45 N 0.93086 0.96451 0.51341 0.0
C46 C 0.92549 0.92174 0.51079 0.0
C47 C 0.90425 0.9921 0.51842 0.0
C48 C 0.87062 0.9769 0.52146 0.0
C49 C 0.8643 0.93286 0.51956 0.0
C50 C 0.89229 0.90515 0.51393 0.0
Zn51 Zn 0.97968 0.98792 0.51241 0.0
O52 O 0.04258 0.97863 0.43603 0.0
C53 C 0.02691 0.93805 0.59239 0.0
O54 O 0.99152 0.94861 0.43628 0.0
H55 H 0.90911 0.026 0.52047 0.0
H56 H 0.10169 0.97749 0.50409 0.0
H57 H 0.94704 0.90039 0.50699 0.0
O58 O 0.04798 0.96634 0.57448 0.0
O59 O 0.99585 0.93976 0.574 0.0
H60 H 0.06626 0.10403 0.52112 0.0
O61 O 0.96824 0.02847 0.58834 0.0
O62 O 0.02054 0.05466 0.59066 0.0
O63 O 0.96432 0.03565 0.44966 0.0
O64 O 0.01523 0.06594 0.45367 0.0
C65 C 0.99041 0.05364 0.61219 0.0
H66 H 0.16155 0.0022 0.50177 0.0
H67 H 0.12558 0.13157 0.51917 0.0
H68 H 0.84981 0.99944 0.52493 0.0
H69 H 0.8887 0.87094 0.5132 0.0
C70 C 0.47041 0.45215 0.9196 0.0
N71 N 0.57278 0.45764 0.98741 0.0
C72 C 0.57591 0.41452 0.99043 0.0
C73 C 0.60843 0.39567 0.98988 0.0
C74 C 0.63789 0.42153 0.98624 0.0
C75 C 0.63364 0.46572 0.98036 0.0
C76 C 0.60085 0.48314 0.98141 0.0
Zn77 Zn 0.52647 0.48743 0.99807 0.0
C78 C 0.51834 0.56065 0.91194 0.0
N79 N 0.43214 0.55407 0.02364 0.0
C80 C 0.40167 0.53323 0.02996 0.0
C81 C 0.43387 0.59734 0.02523 0.0
C82 C 0.40446 0.62136 0.03443 0.0
C83 C 0.37273 0.60084 0.04173 0.0
C84 C 0.37141 0.55617 0.03878 0.0
Zn85 Zn 0.47726 0.52203 0.012 0.0
O86 O 0.50244 0.44802 0.93035 0.0
C87 C 0.48515 0.44836 0.09759 0.0
O88 O 0.45359 0.48023 0.94838 0.0
H89 H 0.4582 0.61342 0.01952 0.0
H90 H 0.55327 0.3948 0.99526 0.0
H91 H 0.40086 0.49881 0.02851 0.0
O92 O 0.51262 0.44367 0.06754 0.0
O93 O 0.46546 0.47953 0.08516 0.0
H94 H 0.59795 0.51733 0.97926 0.0
O95 O 0.50155 0.56332 0.07452 0.0
O96 O 0.54973 0.52794 0.06678 0.0
O97 O 0.48992 0.56398 0.93927 0.0
O98 O 0.53905 0.53135 0.92772 0.0
C99 C 0.53273 0.55822 0.08999 0.0
H100 H 0.61051 0.36147 0.99487 0.0
H101 H 0.65553 0.48685 0.9763 0.0
H102 H 0.40651 0.65576 0.0353 0.0
H103 H 0.34741 0.53918 0.0444 0.0
H104 H 0.30043 0.23116 0.43629 0.0
H105 H 0.36407 0.15872 0.56366 0.0
H106 H 0.31781 0.10489 0.57318 0.0
H107 H 0.22499 0.21835 0.51663 0.0
H108 H 0.19691 0.21431 0.44995 0.0
H109 H 0.23666 0.24338 0.44502 0.0
H110 H 0.25512 0.19645 0.3532 0.0
H111 H 0.21516 0.16751 0.35727 0.0
H112 H 0.25532 0.13933 0.36147 0.0
H113 H 0.26308 0.06299 0.57626 0.0
H114 H 0.20343 0.03607 0.57384 0.0
H115 H 0.17462 0.13722 0.44692 0.0
C116 C 0.3049 0.20317 0.46449 0.0
C117 C 0.33583 0.19838 0.49843 0.0
C118 C 0.34057 0.16238 0.5368 0.0
C119 C 0.31451 0.13177 0.54241 0.0
C120 C 0.28387 0.13792 0.50959 0.0
C121 C 0.27895 0.17266 0.47124 0.0
C122 C 0.24254 0.17395 0.44581 0.0
C123 C 0.22421 0.21492 0.46556 0.0
C124 C 0.24202 0.169 0.37524 0.0
C125 C 0.22753 0.13511 0.477 0.0
C126 C 0.25192 0.11443 0.51285 0.0
C127 C 0.24386 0.07859 0.54774 0.0
C128 C 0.20995 0.06351 0.54599 0.0
C129 C 0.18444 0.0845 0.5101 0.0
C130 C 0.19353 0.12065 0.47501 0.0
H131 H 0.18267 0.68517 0.97365 0.0
H132 H 0.20575 0.78801 0.10187 0.0
H133 H 0.26163 0.75541 0.12648 0.0
H134 H 0.22492 0.60046 0.06088 0.0
H135 H 0.24118 0.57485 0.99304 0.0
H136 H 0.20172 0.60445 0.98847 0.0
H137 H 0.22646 0.65077 0.9006 0.0
H138 H 0.26591 0.62124 0.90474 0.0
H139 H 0.26668 0.67835 0.91291 0.0
H140 H 0.31601 0.71426 0.13354 0.0
H141 H 0.36617 0.66765 0.12093 0.0
H142 H 0.30903 0.59221 0.9863 0.0
C143 C 0.19943 0.7008 0.007 0.0
C144 C 0.18952 0.73895 0.03635 0.0
C145 C 0.21227 0.75828 0.07982 0.0
C146 C 0.24422 0.74013 0.09389 0.0
C147 C 0.25315 0.70265 0.0641 0.0
C148 C 0.23152 0.68318 0.0215 0.0
C149 C 0.24808 0.64406 0.99412 0.0
C150 C 0.22776 0.60356 0.0101 0.0
C151 C 0.25202 0.64892 0.92394 0.0
C152 C 0.28261 0.64503 0.02733 0.0
C153 C 0.28484 0.67896 0.06778 0.0
C154 C 0.31455 0.68749 0.10221 0.0
C155 C 0.34294 0.66097 0.09451 0.0
C156 C 0.3415 0.6264 0.05259 0.0
C157 C 0.31071 0.61805 0.01927 0.0
H158 H 0.71198 0.76841 0.45402 0.0
H159 H 0.65161 0.83752 0.587 0.0
H160 H 0.69913 0.88927 0.60102 0.0
H161 H 0.79194 0.77997 0.53007 0.0
H162 H 0.81609 0.78658 0.46047 0.0
H163 H 0.77677 0.75626 0.4589 0.0
H164 H 0.75249 0.80472 0.37184 0.0
H165 H 0.79185 0.83505 0.37282 0.0
H166 H 0.75144 0.86156 0.38319 0.0
H167 H 0.75438 0.93153 0.60347 0.0
H168 H 0.81284 0.96122 0.59396 0.0
H169 H 0.83564 0.86555 0.45627 0.0
C170 C 0.70843 0.79487 0.48524 0.0
C171 C 0.67805 0.79901 0.5193 0.0
C172 C 0.6748 0.83353 0.56082 0.0
C173 C 0.70154 0.86319 0.56881 0.0
C174 C 0.73125 0.85791 0.53477 0.0
C175 C 0.73474 0.82471 0.49362 0.0
C176 C 0.76958 0.82538 0.4639 0.0
C177 C 0.78977 0.78463 0.47929 0.0
C178 C 0.76612 0.83209 0.39378 0.0
C179 C 0.78536 0.86387 0.49533 0.0
C180 C 0.76284 0.88233 0.53586 0.0
C181 C 0.7721 0.91762 0.57139 0.0
C182 C 0.80531 0.93438 0.56541 0.0
C183 C 0.82884 0.91582 0.52422 0.0
C184 C 0.81844 0.88026 0.48858 0.0
H185 H 0.78845 0.25029 0.94696 0.0
H186 H 0.85061 0.33108 0.067 0.0
H187 H 0.80369 0.38342 0.07047 0.0
H188 H 0.74582 0.33665 0.8605 0.0
H189 H 0.70514 0.30915 0.85642 0.0
H190 H 0.74449 0.27926 0.85954 0.0
H191 H 0.72278 0.23852 0.95539 0.0
H192 H 0.6835 0.26846 0.95283 0.0
H193 H 0.70965 0.26805 0.0222 0.0
H194 H 0.74987 0.42489 0.06594 0.0
H195 H 0.69176 0.45411 0.05319 0.0
H196 H 0.66319 0.34725 0.93574 0.0
C197 C 0.79226 0.27938 0.97304 0.0
C198 C 0.82309 0.28678 0.00673 0.0
C199 C 0.82708 0.3248 0.04121 0.0
C200 C 0.80065 0.35473 0.04328 0.0
C201 C 0.77034 0.34619 0.01065 0.0
C202 C 0.76592 0.30958 0.97602 0.0
C203 C 0.73006 0.30756 0.94766 0.0
C204 C 0.73147 0.30821 0.87682 0.0
C205 C 0.71034 0.26832 0.97093 0.0
C206 C 0.71501 0.34849 0.97242 0.0
C207 C 0.73887 0.3703 0.00827 0.0
C208 C 0.73105 0.40841 0.03737 0.0
C209 C 0.69798 0.42487 0.02953 0.0
C210 C 0.67294 0.40332 0.99282 0.0
C211 C 0.68169 0.36448 0.96409 0.0
H212 H 0.0939 0.78308 0.17474 0.0
H213 H 0.08155 0.88151 0.03524 0.0
H214 H 0.05434 0.92788 0.11116 0.0
H215 H 0.01401 0.80401 0.25608 0.0
H216 H 0.03294 0.79479 0.33133 0.0
H217 H 0.04924 0.7674 0.26499 0.0
H218 H 0.11024 0.79662 0.28951 0.0
H219 H 0.09416 0.82398 0.35593 0.0
H220 H 0.1167 0.85325 0.29745 0.0
H221 H 0.0319 0.96547 0.20162 0.0
H222 H 0.01595 0.99278 0.30412 0.0
H223 H 0.04287 0.87163 0.38717 0.0
C224 C 0.08529 0.81429 0.16017 0.0
C225 C 0.08936 0.82829 0.09863 0.0
C226 C 0.07789 0.8695 0.08153 0.0
C227 C 0.06255 0.89626 0.12443 0.0
C228 C 0.05889 0.88151 0.18446 0.0
C229 C 0.0699 0.8416 0.20261 0.0
C230 C 0.06417 0.83461 0.27097 0.0
C231 C 0.03856 0.79803 0.28144 0.0
C232 C 0.09835 0.82666 0.30549 0.0
C233 C 0.04889 0.87718 0.2884 0.0
C234 C 0.04587 0.90353 0.23746 0.0
C235 C 0.03377 0.94505 0.24177 0.0
C236 C 0.0248 0.96025 0.29988 0.0
C237 C 0.02793 0.93398 0.35254 0.0
C238 C 0.03983 0.89186 0.34697 0.0
H239 H 0.61255 0.63767 0.60742 0.0
H240 H 0.56797 0.76206 0.63592 0.0
H241 H 0.53823 0.73492 0.72838 0.0
H242 H 0.54061 0.57437 0.65681 0.0
H243 H 0.56689 0.53507 0.69524 0.0
H244 H 0.58331 0.56391 0.63011 0.0
H245 H 0.63579 0.58857 0.69616 0.0
H246 H 0.61954 0.55979 0.76146 0.0
H247 H 0.62894 0.61587 0.76802 0.0
H248 H 0.51219 0.69333 0.81551 0.0
H249 H 0.49578 0.64221 0.89696 0.0
H250 H 0.56106 0.54665 0.81555 0.0
C251 C 0.59635 0.65896 0.63315 0.0
C252 C 0.59212 0.7017 0.61488 0.0
C253 C 0.57128 0.72914 0.64966 0.0
C254 C 0.5543 0.71399 0.70189 0.0
C255 C 0.55896 0.67156 0.71889 0.0
C256 C 0.5798 0.64458 0.68602 0.0
C257 C 0.58175 0.60098 0.71561 0.0
C258 C 0.56727 0.56656 0.67183 0.0
C259 C 0.6187 0.59072 0.73656 0.0
C260 C 0.55867 0.60759 0.77017 0.0
C261 C 0.5454 0.64832 0.7708 0.0
C262 C 0.52262 0.66145 0.81579 0.0
C263 C 0.51338 0.63223 0.86166 0.0
C264 C 0.52739 0.59074 0.8626 0.0
C265 C 0.55029 0.57838 0.81624 0.0
H266 H 0.88548 0.13602 0.1263 0.0
H267 H 0.9307 0.26138 0.14867 0.0
H268 H 0.95903 0.23808 0.2464 0.0
H269 H 0.86858 0.11842 0.28964 0.0
H270 H 0.87814 0.0624 0.28572 0.0
H271 H 0.86119 0.08959 0.21872 0.0
H272 H 0.91316 0.06435 0.1554 0.0
H273 H 0.93034 0.03727 0.22223 0.0
H274 H 0.95607 0.07627 0.18283 0.0
H275 H 0.98622 0.19842 0.33677 0.0
H276 H 0.00552 0.14782 0.41809 0.0
H277 H 0.93856 0.05065 0.33961 0.0
C278 C 0.90109 0.15853 0.15235 0.0
C279 C 0.90612 0.20034 0.13074 0.0
C280 C 0.92662 0.22924 0.16529 0.0
C281 C 0.94279 0.21625 0.22049 0.0
C282 C 0.93763 0.17452 0.24052 0.0
C283 C 0.91684 0.14631 0.20793 0.0
C284 C 0.91535 0.10334 0.23928 0.0
C285 C 0.87863 0.09284 0.25955 0.0
C286 C 0.92958 0.06825 0.19744 0.0
C287 C 0.93887 0.11152 0.29419 0.0
C288 C 0.9518 0.15257 0.29391 0.0
C289 C 0.97581 0.16643 0.33806 0.0
C290 C 0.98669 0.13756 0.38384 0.0
C291 C 0.97306 0.09575 0.38546 0.0
C292 C 0.94878 0.08279 0.34019 0.0
H293 H 0.45179 0.31652 0.60944 0.0
H294 H 0.34212 0.31346 0.6408 0.0
H295 H 0.35107 0.3522 0.73885 0.0
H296 H 0.47812 0.30177 0.76971 0.0
H297 H 0.51444 0.33726 0.76444 0.0
H298 H 0.4996 0.30837 0.69727 0.0
H299 H 0.49306 0.37927 0.637 0.0
H300 H 0.50795 0.40834 0.70389 0.0
H301 H 0.46715 0.42117 0.66835 0.0
H302 H 0.3713 0.39426 0.82986 0.0
H303 H 0.40186 0.43557 0.91063 0.0
H304 H 0.49879 0.40951 0.82262 0.0
C305 C 0.42972 0.32405 0.63706 0.0
C306 C 0.39627 0.31195 0.61783 0.0
C307 C 0.36798 0.32205 0.6552 0.0
C308 C 0.3728 0.34413 0.71077 0.0
C309 C 0.40608 0.35558 0.72847 0.0
C310 C 0.4341 0.34575 0.69302 0.0
C311 C 0.46711 0.36212 0.72255 0.0
C312 C 0.49124 0.32517 0.7395 0.0
C313 C 0.48485 0.39466 0.68044 0.0
C314 C 0.45316 0.38318 0.77969 0.0
C315 C 0.41789 0.37905 0.78206 0.0
C316 C 0.39895 0.39739 0.82891 0.0
C317 C 0.41652 0.42084 0.87444 0.0
C318 C 0.45267 0.42544 0.87302 0.0
C319 C 0.4712 0.40597 0.82532 0.0
H320 H 0.61503 0.6338 0.40995 0.0
H321 H 0.59691 0.76346 0.34906 0.0
H322 H 0.57717 0.73679 0.24718 0.0
H323 H 0.64579 0.5943 0.26087 0.0
H324 H 0.62559 0.54296 0.26986 0.0
H325 H 0.64002 0.57233 0.3369 0.0
H326 H 0.57891 0.56785 0.38194 0.0
H327 H 0.56432 0.53848 0.31517 0.0
H328 H 0.5429 0.58685 0.33666 0.0
H329 H 0.55356 0.69617 0.15744 0.0
H330 H 0.53118 0.64386 0.08144 0.0
H331 H 0.56857 0.5405 0.19639 0.0
C332 C 0.60715 0.65646 0.37483 0.0
C333 C 0.60743 0.70063 0.38697 0.0
C334 C 0.5971 0.72952 0.34019 0.0
C335 C 0.58583 0.71468 0.28239 0.0
C336 C 0.5856 0.67092 0.27195 0.0
C337 C 0.59637 0.64221 0.31649 0.0
C338 C 0.59289 0.59677 0.29366 0.0
C339 C 0.62818 0.57533 0.2901 0.0
C340 C 0.56829 0.57099 0.33427 0.0
C341 C 0.57762 0.60441 0.22991 0.0
C342 C 0.57355 0.64746 0.21851 0.0
C343 C 0.55729 0.66245 0.16514 0.0
C344 C 0.54464 0.63264 0.12244 0.0
C345 C 0.54888 0.58854 0.13296 0.0
C346 C 0.56597 0.5742 0.18683 0.0
H347 H 0.86894 0.15519 0.86743 0.0
H348 H 0.95687 0.23041 0.92705 0.0
H349 H 0.99082 0.20105 0.84179 0.0
H350 H 0.91545 0.06295 0.83135 0.0
H351 H 0.88985 0.04834 0.76459 0.0
H352 H 0.87104 0.07853 0.82584 0.0
H353 H 0.85292 0.13723 0.74796 0.0
H354 H 0.87138 0.10696 0.6863 0.0
H355 H 0.88481 0.16125 0.69946 0.0
H356 H 0.01631 0.16023 0.75579 0.0
H357 H 0.03178 0.11147 0.67179 0.0
H358 H 0.92775 0.06103 0.66806 0.0
C359 C 0.89506 0.16612 0.86126 0.0
C360 C 0.91037 0.19536 0.90286 0.0
C361 C 0.94482 0.20829 0.89494 0.0
C362 C 0.96423 0.19178 0.84684 0.0
C363 C 0.94878 0.16224 0.80726 0.0
C364 C 0.91495 0.1496 0.8136 0.0
C365 C 0.90536 0.11547 0.76685 0.0
C366 C 0.89481 0.07387 0.7991 0.0
C367 C 0.87693 0.13118 0.72251 0.0
C368 C 0.93918 0.11057 0.73401 0.0
C369 C 0.96377 0.13805 0.75789 0.0
C370 C 0.99723 0.13876 0.73632 0.0
C371 C 0.00579 0.11082 0.68871 0.0
C372 C 0.98103 0.08238 0.66328 0.0
C373 C 0.94728 0.08239 0.68643 0.0
H374 H 0.39381 0.36474 0.40191 0.0
H375 H 0.43694 0.24056 0.36518 0.0
H376 H 0.4645 0.26926 0.2715 0.0
H377 H 0.37473 0.39085 0.24232 0.0
H378 H 0.38488 0.44654 0.25179 0.0
H379 H 0.36914 0.41619 0.31605 0.0
H380 H 0.42271 0.4382 0.38119 0.0
H381 H 0.43867 0.4685 0.31708 0.0
H382 H 0.46491 0.4277 0.35211 0.0
H383 H 0.48962 0.3127 0.18531 0.0
H384 H 0.50616 0.36582 0.10686 0.0
H385 H 0.44335 0.46046 0.19641 0.0
C386 C 0.40909 0.34371 0.374 0.0
C387 C 0.41357 0.3006 0.39052 0.0
C388 C 0.43329 0.27368 0.35285 0.0
C389 C 0.44907 0.28973 0.2999 0.0
C390 C 0.44438 0.33255 0.28503 0.0
C391 C 0.42449 0.35902 0.32051 0.0
C392 C 0.42273 0.40346 0.29353 0.0
C393 C 0.38567 0.41492 0.2748 0.0
C394 C 0.43818 0.4364 0.33867 0.0
C395 C 0.44499 0.39801 0.23758 0.0
C396 C 0.45754 0.35701 0.23387 0.0
C397 C 0.47969 0.34478 0.18739 0.0
C398 C 0.48904 0.37519 0.14324 0.0
C399 C 0.47584 0.41709 0.14543 0.0
C400 C 0.45352 0.42851 0.19324 0.0
H401 H 0.14016 0.83781 0.86274 0.0
H402 H 0.05906 0.7448 0.88528 0.0
H403 H 0.03166 0.76904 0.7876 0.0
H404 H 0.08824 0.91861 0.81812 0.0
H405 H 0.11643 0.94275 0.76286 0.0
H406 H 0.13406 0.91206 0.82571 0.0
H407 H 0.16549 0.8633 0.7489 0.0
H408 H 0.14843 0.89434 0.68556 0.0
H409 H 0.14146 0.83757 0.68756 0.0
H410 H 0.0083 0.81107 0.69904 0.0
H411 H 0.9914 0.86605 0.62324 0.0
H412 H 0.08737 0.93313 0.65875 0.0
C413 C 0.11759 0.82127 0.84516 0.0
C414 C 0.10211 0.78867 0.87989 0.0
C415 C 0.0716 0.76902 0.85794 0.0
C416 C 0.0559 0.7827 0.80278 0.0
C417 C 0.07106 0.81614 0.77053 0.0
C418 C 0.10145 0.83491 0.79052 0.0
C419 C 0.11006 0.87371 0.75201 0.0
C420 C 0.11231 0.91415 0.79207 0.0
C421 C 0.14333 0.8668 0.71638 0.0
C422 C 0.07914 0.87479 0.70881 0.0
C423 C 0.05719 0.841 0.71974 0.0
C424 C 0.0256 0.83717 0.68917 0.0
C425 C 0.01614 0.86872 0.64649 0.0
C426 C 0.03813 0.90379 0.63489 0.0
C427 C 0.07023 0.9064 0.66596 0.0
loop_
_geom_bond_atom_site_label_1
_geom_bond_atom_site_label_2
_geom_bond_distance
_geom_bond_site_symmetry_2
_ccdc_geom_bond_type
H0 C3 0.931 . S
H1 C6 0.928 . S
H2 C8 0.930 . S
C3 H0 0.931 . S
C3 C4 1.413 1_554 S
C3 C5 1.360 . S
C4 C3 1.413 1_556 S
C4 C8 1.429 . S
C5 C3 1.360 . S
C5 C6 1.372 . S
C6 H1 0.928 . S
C6 C5 1.372 . S
C6 C7 1.404 . S
C7 C6 1.404 . S
C7 C8 1.391 1_554 S
C8 H2 0.930 . S
C8 C4 1.429 . S
C8 C7 1.391 1_556 S
H9 C12 0.931 . S
H10 C15 0.928 . S
H11 C17 0.930 . S
C12 H9 0.931 . S
C12 C13 1.413 . S
C12 C14 1.360 . S
C13 C12 1.413 . S
C13 C17 1.429 . S
C14 C12 1.360 . S
C14 C15 1.372 . S
C15 H10 0.928 . S
C15 C14 1.372 . S
C15 C16 1.404 . S
C16 C15 1.404 . S
C16 C17 1.391 . S
C17 H11 0.930 . S
C17 C13 1.429 . S
C17 C16 1.391 . S
H18 C21 0.931 . S
H19 C24 0.928 . S
H20 C26 0.930 . S
C21 H18 0.931 . S
C21 C22 1.413 1_554 S
C21 C23 1.360 . S
C22 C21 1.413 1_556 S
C22 C26 1.429 . S
C23 C21 1.360 . S
C23 C24 1.372 . S
C24 H19 0.928 . S
C24 C23 1.372 . S
C24 C25 1.404 . S
C25 C24 1.404 . S
C25 C26 1.391 1_554 S
C26 H20 0.930 . S
C26 C22 1.429 . S
C26 C25 1.391 1_556 S
H27 C30 0.931 . S
H28 C33 0.928 . S
H29 C35 0.930 . S
C30 H27 0.931 . S
C30 C31 1.413 . S
C30 C32 1.360 . S
C31 C30 1.413 . S
C31 C35 1.429 . S
C32 C30 1.360 . S
C32 C33 1.372 . S
C33 H28 0.928 . S
C33 C32 1.372 . S
C33 C34 1.404 . S
C34 C33 1.404 . S
C34 C35 1.391 . S
C35 H29 0.930 . S
C35 C31 1.429 . S
C35 C34 1.391 . S
C36 O52 1.251 . S
C36 O54 1.254 1_455 S
N37 C38 1.333 . S
N37 C42 1.307 . S
N37 Zn43 2.020 . S
C38 N37 1.333 . S
C38 C39 1.379 . S
C38 H56 0.952 . S
C39 C38 1.379 . S
C39 C40 1.390 . S
C39 H66 0.949 . S
C40 C39 1.390 . S
C40 C41 1.357 . S
C41 C40 1.357 . S
C41 C42 1.370 . S
C41 H67 0.950 . S
C42 N37 1.307 . S
C42 C41 1.370 . S
C42 H60 0.948 . S
Zn43 N37 2.020 . S
Zn43 O52 2.039 1_545 S
Zn43 O58 2.034 1_545 S
Zn43 O62 2.025 . S
Zn43 O64 2.024 . S
C44 O63 1.246 . S
C44 O64 1.249 1_655 S
N45 C46 1.307 . S
N45 C47 1.333 . S
N45 Zn51 2.020 . S
C46 N45 1.307 . S
C46 C50 1.370 . S
C46 H57 0.948 . S
C47 N45 1.333 . S
C47 C48 1.379 . S
C47 H55 0.952 . S
C48 C47 1.379 . S
C48 C49 1.390 . S
C48 H68 0.949 . S
C49 C48 1.390 . S
C49 C50 1.357 . S
C50 C46 1.370 . S
C50 C49 1.357 . S
C50 H69 0.950 . S
Zn51 N45 2.020 . S
Zn51 O54 2.025 . S
Zn51 O59 2.024 . S
Zn51 O61 2.039 1_565 S
Zn51 O63 2.034 1_565 S
O52 C36 1.251 . S
O52 Zn43 2.039 1_565 S
C53 O58 1.246 . S
C53 O59 1.249 1_455 S
O54 C36 1.254 1_655 S
O54 Zn51 2.025 . S
H55 C47 0.952 . S
H56 C38 0.952 . S
H57 C46 0.948 . S
O58 Zn43 2.034 1_565 S
O58 C53 1.246 . S
O59 Zn51 2.024 . S
O59 C53 1.249 1_655 S
H60 C42 0.948 . S
O61 Zn51 2.039 1_545 S
O61 C65 1.251 . S
O62 Zn43 2.025 . S
O62 C65 1.254 1_455 S
O63 C44 1.246 . S
O63 Zn51 2.034 1_545 S
O64 Zn43 2.024 . S
O64 C44 1.249 1_455 S
C65 O61 1.251 . S
C65 O62 1.254 1_655 S
H66 C39 0.949 . S
H67 C41 0.950 . S
H68 C48 0.949 . S
H69 C50 0.950 . S
C70 O86 1.251 . S
C70 O88 1.254 . S
N71 C72 1.333 1_554 S
N71 C76 1.307 . S
N71 Zn77 2.020 . S
C72 N71 1.333 1_556 S
C72 C73 1.379 . S
C72 H90 0.952 . S
C73 C72 1.379 . S
C73 C74 1.390 1_556 S
C73 H100 0.949 . S
C74 C73 1.390 1_554 S
C74 C75 1.357 . S
C75 C74 1.357 . S
C75 C76 1.370 . S
C75 H101 0.950 . S
C76 N71 1.307 . S
C76 C75 1.370 . S
C76 H94 0.948 . S
Zn77 N71 2.020 . S
Zn77 O86 2.039 1_554 S
Zn77 O92 2.034 . S
Zn77 O96 2.025 . S
Zn77 O98 2.024 1_554 S
C78 O97 1.246 . S
C78 O98 1.249 . S
N79 C80 1.307 1_554 S
N79 C81 1.333 . S
N79 Zn85 2.020 . S
C80 N79 1.307 1_556 S
C80 C84 1.370 . S
C80 H91 0.948 . S
C81 N79 1.333 . S
C81 C82 1.379 . S
C81 H89 0.952 . S
C82 C81 1.379 . S
C82 C83 1.390 . S
C82 H102 0.949 . S
C83 C82 1.390 . S
C83 C84 1.357 1_554 S
C84 C80 1.370 . S
C84 C83 1.357 1_556 S
C84 H103 0.950 . S
Zn85 N79 2.020 . S
Zn85 O88 2.025 1_554 S
Zn85 O93 2.024 . S
Zn85 O95 2.039 . S
Zn85 O97 2.034 1_554 S
O86 C70 1.251 . S
O86 Zn77 2.039 1_556 S
C87 O92 1.246 . S
C87 O93 1.249 . S
O88 C70 1.254 . S
O88 Zn85 2.025 1_556 S
H89 C81 0.952 . S
H90 C72 0.952 . S
H91 C80 0.948 . S
O92 Zn77 2.034 . S
O92 C87 1.246 . S
O93 Zn85 2.024 . S
O93 C87 1.249 . S
H94 C76 0.948 . S
O95 Zn85 2.039 . S
O95 C99 1.251 . S
O96 Zn77 2.025 . S
O96 C99 1.254 . S
O97 C78 1.246 . S
O97 Zn85 2.034 1_556 S
O98 Zn77 2.024 1_556 S
O98 C78 1.249 . S
C99 O95 1.251 . S
C99 O96 1.254 . S
H100 C73 0.949 . S
H101 C75 0.950 . S
H102 C82 0.949 . S
H103 C84 0.950 . S
H104 C116 0.930 . S
H105 C118 0.930 . S
H106 C119 0.930 . S
H107 C123 0.959 . S
H108 C123 0.959 . S
H109 C123 0.961 . S
H110 C124 0.960 . S
H111 C124 0.961 . S
H112 C124 0.959 . S
H113 C127 0.929 . S
H114 C128 0.931 . S
H115 C130 0.930 . S
C116 H104 0.930 . S
C116 C117 1.399 . S
C116 C121 1.399 . S
C117 C116 1.399 . S
C117 C118 1.376 . S
C118 H105 0.930 . S
C118 C117 1.376 . S
C118 C119 1.388 . S
C119 H106 0.930 . S
C119 C118 1.388 . S
C119 C120 1.390 . S
C120 C119 1.390 . S
C120 C121 1.394 . S
C120 C126 1.465 . S
C121 C116 1.399 . S
C121 C120 1.394 . S
C121 C122 1.516 . S
C122 C121 1.516 . S
C122 C123 1.502 . S
C122 C124 1.561 . S
C122 C125 1.526 . S
C123 H107 0.959 . S
C123 H108 0.959 . S
C123 H109 0.961 . S
C123 C122 1.502 . S
C124 H110 0.960 . S
C124 H111 0.961 . S
C124 H112 0.959 . S
C124 C122 1.561 . S
C125 C122 1.526 . S
C125 C126 1.396 . S
C125 C130 1.390 . S
C126 C120 1.465 . S
C126 C125 1.396 . S
C126 C127 1.399 . S
C127 H113 0.929 . S
C127 C126 1.399 . S
C127 C128 1.385 . S
C128 H114 0.931 . S
C128 C127 1.385 . S
C128 C129 1.389 . S
C129 C128 1.389 . S
C129 C130 1.387 . S
C130 H115 0.930 . S
C130 C125 1.390 . S
C130 C129 1.387 . S
H131 C143 0.930 . S
H132 C145 0.930 . S
H133 C146 0.930 . S
H134 C150 0.959 . S
H135 C150 0.959 . S
H136 C150 0.961 . S
H137 C151 0.960 . S
H138 C151 0.961 . S
H139 C151 0.959 . S
H140 C154 0.929 . S
H141 C155 0.931 . S
H142 C157 0.930 . S
C143 H131 0.930 . S
C143 C144 1.399 1_556 S
C143 C148 1.399 . S
C144 C143 1.399 1_554 S
C144 C145 1.376 . S
C145 H132 0.930 . S
C145 C144 1.376 . S
C145 C146 1.388 . S
C146 H133 0.930 . S
C146 C145 1.388 . S
C146 C147 1.390 . S
C147 C146 1.390 . S
C147 C148 1.394 1_554 S
C147 C153 1.465 . S
C148 C143 1.399 . S
C148 C147 1.394 1_556 S
C148 C149 1.516 . S
C149 C148 1.516 . S
C149 C150 1.502 . S
C149 C151 1.561 . S
C149 C152 1.526 . S
C150 H134 0.959 . S
C150 H135 0.959 . S
C150 H136 0.961 . S
C150 C149 1.502 . S
C151 H137 0.960 . S
C151 H138 0.961 . S
C151 H139 0.959 . S
C151 C149 1.561 . S
C152 C149 1.526 . S
C152 C153 1.396 1_556 S
C152 C157 1.390 . S
C153 C147 1.465 . S
C153 C152 1.396 1_554 S
C153 C154 1.399 . S
C154 H140 0.929 . S
C154 C153 1.399 . S
C154 C155 1.385 . S
C155 H141 0.931 . S
C155 C154 1.385 . S
C155 C156 1.389 . S
C156 C155 1.389 . S
C156 C157 1.387 1_554 S
C157 H142 0.930 . S
C157 C152 1.390 . S
C157 C156 1.387 1_556 S
H158 C170 0.930 . S
H159 C172 0.930 . S
H160 C173 0.930 . S
H161 C177 0.959 . S
H162 C177 0.959 . S
H163 C177 0.961 . S
H164 C178 0.960 . S
H165 C178 0.961 . S
H166 C178 0.959 . S
H167 C181 0.929 . S
H168 C182 0.931 . S
H169 C184 0.930 . S
C170 H158 0.930 . S
C170 C171 1.399 . S
C170 C175 1.399 . S
C171 C170 1.399 . S
C171 C172 1.376 . S
C172 H159 0.930 . S
C172 C171 1.376 . S
C172 C173 1.388 . S
C173 H160 0.930 . S
C173 C172 1.388 . S
C173 C174 1.390 . S
C174 C173 1.390 . S
C174 C175 1.394 . S
C174 C180 1.465 . S
C175 C170 1.399 . S
C175 C174 1.394 . S
C175 C176 1.516 . S
C176 C175 1.516 . S
C176 C177 1.502 . S
C176 C178 1.561 . S
C176 C179 1.526 . S
C177 H161 0.959 . S
C177 H162 0.959 . S
C177 H163 0.961 . S
C177 C176 1.502 . S
C178 H164 0.960 . S
C178 H165 0.961 . S
C178 H166 0.959 . S
C178 C176 1.561 . S
C179 C176 1.526 . S
C179 C180 1.396 . S
C179 C184 1.390 . S
C180 C174 1.465 . S
C180 C179 1.396 . S
C180 C181 1.399 . S
C181 H167 0.929 . S
C181 C180 1.399 . S
C181 C182 1.385 . S
C182 H168 0.931 . S
C182 C181 1.385 . S
C182 C183 1.389 . S
C183 C182 1.389 . S
C183 C184 1.387 . S
C184 H169 0.930 . S
C184 C179 1.390 . S
C184 C183 1.387 . S
H185 C197 0.930 . S
H186 C199 0.930 . S
H187 C200 0.930 . S
H188 C204 0.959 . S
H189 C204 0.959 . S
H190 C204 0.961 . S
H191 C205 0.960 . S
H192 C205 0.961 . S
H193 C205 0.959 . S
H194 C208 0.929 . S
H195 C209 0.931 . S
H196 C211 0.930 . S
C197 H185 0.930 . S
C197 C198 1.399 1_556 S
C197 C202 1.399 . S
C198 C197 1.399 1_554 S
C198 C199 1.376 . S
C199 H186 0.930 . S
C199 C198 1.376 . S
C199 C200 1.388 . S
C200 H187 0.930 . S
C200 C199 1.388 . S
C200 C201 1.390 . S
C201 C200 1.390 . S
C201 C202 1.394 1_554 S
C201 C207 1.465 . S
C202 C197 1.399 . S
C202 C201 1.394 1_556 S
C202 C203 1.516 . S
C203 C202 1.516 . S
C203 C204 1.502 . S
C203 C205 1.561 1_556 S
C203 C206 1.526 . S
C204 H188 0.959 . S
C204 H189 0.959 . S
C204 H190 0.961 . S
C204 C203 1.502 . S
C205 H191 0.960 . S
C205 H192 0.961 . S
C205 H193 0.959 . S
C205 C203 1.561 1_554 S
C206 C203 1.526 . S
C206 C207 1.396 1_556 S
C206 C211 1.390 . S
C207 C201 1.465 . S
C207 C206 1.396 1_554 S
C207 C208 1.399 . S
C208 H194 0.929 . S
C208 C207 1.399 . S
C208 C209 1.385 . S
C209 H195 0.931 . S
C209 C208 1.385 . S
C209 C210 1.389 . S
C210 C209 1.389 . S
C210 C211 1.387 1_554 S
C211 H196 0.930 . S
C211 C206 1.390 . S
C211 C210 1.387 1_556 S
H212 C224 0.930 . S
H213 C226 0.930 . S
H214 C227 0.930 . S
H215 C231 0.959 . S
H216 C231 0.959 . S
H217 C231 0.961 . S
H218 C232 0.960 . S
H219 C232 0.961 . S
H220 C232 0.959 . S
H221 C235 0.929 . S
H222 C236 0.931 . S
H223 C238 0.930 . S
C224 H212 0.930 . S
C224 C225 1.399 . S
C224 C229 1.399 . S
C225 C224 1.399 . S
C225 C226 1.376 . S
C226 H213 0.930 . S
C226 C225 1.376 . S
C226 C227 1.388 . S
C227 H214 0.930 . S
C227 C226 1.388 . S
C227 C228 1.390 . S
C228 C227 1.390 . S
C228 C229 1.394 . S
C228 C234 1.465 . S
C229 C224 1.399 . S
C229 C228 1.394 . S
C229 C230 1.516 . S
C230 C229 1.516 . S
C230 C231 1.502 . S
C230 C232 1.561 . S
C230 C233 1.526 . S
C231 H215 0.959 . S
C231 H216 0.959 . S
C231 H217 0.961 . S
C231 C230 1.502 . S
C232 H218 0.960 . S
C232 H219 0.961 . S
C232 H220 0.959 . S
C232 C230 1.561 . S
C233 C230 1.526 . S
C233 C234 1.396 . S
C233 C238 1.390 . S
C234 C228 1.465 . S
C234 C233 1.396 . S
C234 C235 1.399 . S
C235 H221 0.929 . S
C235 C234 1.399 . S
C235 C236 1.385 . S
C236 H222 0.931 . S
C236 C235 1.385 . S
C236 C237 1.389 . S
C237 C236 1.389 . S
C237 C238 1.387 . S
C238 H223 0.930 . S
C238 C233 1.390 . S
C238 C237 1.387 . S
H239 C251 0.930 . S
H240 C253 0.930 . S
H241 C254 0.930 . S
H242 C258 0.959 . S
H243 C258 0.959 . S
H244 C258 0.961 . S
H245 C259 0.960 . S
H246 C259 0.961 . S
H247 C259 0.959 . S
H248 C262 0.929 . S
H249 C263 0.931 . S
H250 C265 0.930 . S
C251 H239 0.930 . S
C251 C252 1.399 . S
C251 C256 1.399 . S
C252 C251 1.399 . S
C252 C253 1.376 . S
C253 H240 0.930 . S
C253 C252 1.376 . S
C253 C254 1.388 . S
C254 H241 0.930 . S
C254 C253 1.388 . S
C254 C255 1.390 . S
C255 C254 1.390 . S
C255 C256 1.394 . S
C255 C261 1.465 . S
C256 C251 1.399 . S
C256 C255 1.394 . S
C256 C257 1.516 . S
C257 C256 1.516 . S
C257 C258 1.502 . S
C257 C259 1.561 . S
C257 C260 1.526 . S
C258 H242 0.959 . S
C258 H243 0.959 . S
C258 H244 0.961 . S
C258 C257 1.502 . S
C259 H245 0.960 . S
C259 H246 0.961 . S
C259 H247 0.959 . S
C259 C257 1.561 . S
C260 C257 1.526 . S
C260 C261 1.396 . S
C260 C265 1.390 . S
C261 C255 1.465 . S
C261 C260 1.396 . S
C261 C262 1.399 . S
C262 H248 0.929 . S
C262 C261 1.399 . S
C262 C263 1.385 . S
C263 H249 0.931 . S
C263 C262 1.385 . S
C263 C264 1.389 . S
C264 C263 1.389 . S
C264 C265 1.387 . S
C265 H250 0.930 . S
C265 C260 1.390 . S
C265 C264 1.387 . S
H266 C278 0.930 . S
H267 C280 0.930 . S
H268 C281 0.930 . S
H269 C285 0.959 . S
H270 C285 0.959 . S
H271 C285 0.961 . S
H272 C286 0.960 . S
H273 C286 0.961 . S
H274 C286 0.959 . S
H275 C289 0.929 . S
H276 C290 0.931 . S
H277 C292 0.930 . S
C278 H266 0.930 . S
C278 C279 1.399 . S
C278 C283 1.399 . S
C279 C278 1.399 . S
C279 C280 1.376 . S
C280 H267 0.930 . S
C280 C279 1.376 . S
C280 C281 1.388 . S
C281 H268 0.930 . S
C281 C280 1.388 . S
C281 C282 1.390 . S
C282 C281 1.390 . S
C282 C283 1.394 . S
C282 C288 1.465 . S
C283 C278 1.399 . S
C283 C282 1.394 . S
C283 C284 1.516 . S
C284 C283 1.516 . S
C284 C285 1.502 . S
C284 C286 1.561 . S
C284 C287 1.526 . S
C285 H269 0.959 . S
C285 H270 0.959 . S
C285 H271 0.961 . S
C285 C284 1.502 . S
C286 H272 0.960 . S
C286 H273 0.961 . S
C286 H274 0.959 . S
C286 C284 1.561 . S
C287 C284 1.526 . S
C287 C288 1.396 . S
C287 C292 1.390 . S
C288 C282 1.465 . S
C288 C287 1.396 . S
C288 C289 1.399 . S
C289 H275 0.929 . S
C289 C288 1.399 . S
C289 C290 1.385 . S
C290 H276 0.931 . S
C290 C289 1.385 . S
C290 C291 1.389 . S
C291 C290 1.389 . S
C291 C292 1.387 . S
C292 H277 0.930 . S
C292 C287 1.390 . S
C292 C291 1.387 . S
H293 C305 0.930 . S
H294 C307 0.930 . S
H295 C308 0.930 . S
H296 C312 0.959 . S
H297 C312 0.959 . S
H298 C312 0.961 . S
H299 C313 0.960 . S
H300 C313 0.961 . S
H301 C313 0.959 . S
H302 C316 0.929 . S
H303 C317 0.931 . S
H304 C319 0.930 . S
C305 H293 0.930 . S
C305 C306 1.399 . S
C305 C310 1.399 . S
C306 C305 1.399 . S
C306 C307 1.376 . S
C307 H294 0.930 . S
C307 C306 1.376 . S
C307 C308 1.388 . S
C308 H295 0.930 . S
C308 C307 1.388 . S
C308 C309 1.390 . S
C309 C308 1.390 . S
C309 C310 1.394 . S
C309 C315 1.465 . S
C310 C305 1.399 . S
C310 C309 1.394 . S
C310 C311 1.516 . S
C311 C310 1.516 . S
C311 C312 1.502 . S
C311 C313 1.561 . S
C311 C314 1.526 . S
C312 H296 0.959 . S
C312 H297 0.959 . S
C312 H298 0.961 . S
C312 C311 1.502 . S
C313 H299 0.960 . S
C313 H300 0.961 . S
C313 H301 0.959 . S
C313 C311 1.561 . S
C314 C311 1.526 . S
C314 C315 1.396 . S
C314 C319 1.390 . S
C315 C309 1.465 . S
C315 C314 1.396 . S
C315 C316 1.399 . S
C316 H302 0.929 . S
C316 C315 1.399 . S
C316 C317 1.385 . S
C317 H303 0.931 . S
C317 C316 1.385 . S
C317 C318 1.389 . S
C318 C317 1.389 . S
C318 C319 1.387 . S
C319 H304 0.930 . S
C319 C314 1.390 . S
C319 C318 1.387 . S
H320 C332 0.930 . S
H321 C334 0.930 . S
H322 C335 0.930 . S
H323 C339 0.959 . S
H324 C339 0.959 . S
H325 C339 0.961 . S
H326 C340 0.960 . S
H327 C340 0.961 . S
H328 C340 0.959 . S
H329 C343 0.929 . S
H330 C344 0.931 . S
H331 C346 0.930 . S
C332 H320 0.930 . S
C332 C333 1.399 . S
C332 C337 1.399 . S
C333 C332 1.399 . S
C333 C334 1.376 . S
C334 H321 0.930 . S
C334 C333 1.376 . S
C334 C335 1.388 . S
C335 H322 0.930 . S
C335 C334 1.388 . S
C335 C336 1.390 . S
C336 C335 1.390 . S
C336 C337 1.394 . S
C336 C342 1.465 . S
C337 C332 1.399 . S
C337 C336 1.394 . S
C337 C338 1.516 . S
C338 C337 1.516 . S
C338 C339 1.502 . S
C338 C340 1.561 . S
C338 C341 1.526 . S
C339 H323 0.959 . S
C339 H324 0.959 . S
C339 H325 0.961 . S
C339 C338 1.502 . S
C340 H326 0.960 . S
C340 H327 0.961 . S
C340 H328 0.959 . S
C340 C338 1.561 . S
C341 C338 1.526 . S
C341 C342 1.396 . S
C341 C346 1.390 . S
C342 C336 1.465 . S
C342 C341 1.396 . S
C342 C343 1.399 . S
C343 H329 0.929 . S
C343 C342 1.399 . S
C343 C344 1.385 . S
C344 H330 0.931 . S
C344 C343 1.385 . S
C344 C345 1.389 . S
C345 C344 1.389 . S
C345 C346 1.387 . S
C346 H331 0.930 . S
C346 C341 1.390 . S
C346 C345 1.387 . S
H347 C359 0.930 . S
H348 C361 0.930 . S
H349 C362 0.930 . S
H350 C366 0.959 . S
H351 C366 0.959 . S
H352 C366 0.961 . S
H353 C367 0.960 . S
H354 C367 0.961 . S
H355 C367 0.959 . S
H356 C370 0.929 1_455 S
H357 C371 0.934 1_455 S
H358 C373 0.930 . S
C359 H347 0.930 . S
C359 C360 1.399 . S
C359 C364 1.399 . S
C360 C359 1.399 . S
C360 C361 1.376 . S
C361 H348 0.930 . S
C361 C360 1.376 . S
C361 C362 1.388 . S
C362 H349 0.930 . S
C362 C361 1.388 . S
C362 C363 1.390 . S
C363 C362 1.390 . S
C363 C364 1.394 . S
C363 C369 1.465 . S
C364 C359 1.399 . S
C364 C363 1.394 . S
C364 C365 1.516 . S
C365 C364 1.516 . S
C365 C366 1.502 . S
C365 C367 1.561 . S
C365 C368 1.526 . S
C366 H350 0.959 . S
C366 H351 0.959 . S
C366 H352 0.961 . S
C366 C365 1.502 . S
C367 H353 0.960 . S
C367 H354 0.961 . S
C367 H355 0.959 . S
C367 C365 1.561 . S
C368 C365 1.526 . S
C368 C369 1.396 . S
C368 C373 1.390 . S
C369 C363 1.465 . S
C369 C368 1.396 . S
C369 C370 1.399 . S
C370 H356 0.929 1_655 S
C370 C369 1.399 . S
C370 C371 1.385 . S
C371 H357 0.934 1_655 S
C371 C370 1.385 . S
C371 C372 1.387 . S
C372 C371 1.387 . S
C372 C373 1.387 . S
C373 H358 0.930 . S
C373 C368 1.390 . S
C373 C372 1.387 . S
H374 C386 0.930 . S
H375 C388 0.930 . S
H376 C389 0.930 . S
H377 C393 0.959 . S
H378 C393 0.959 . S
H379 C393 0.961 . S
H380 C394 0.960 . S
H381 C394 0.961 . S
H382 C394 0.959 . S
H383 C397 0.929 . S
H384 C398 0.931 . S
H385 C400 0.930 . S
C386 H374 0.930 . S
C386 C387 1.399 . S
C386 C391 1.399 . S
C387 C386 1.399 . S
C387 C388 1.376 . S
C388 H375 0.930 . S
C388 C387 1.376 . S
C388 C389 1.388 . S
C389 H376 0.930 . S
C389 C388 1.388 . S
C389 C390 1.390 . S
C390 C389 1.390 . S
C390 C391 1.394 . S
C390 C396 1.465 . S
C391 C386 1.399 . S
C391 C390 1.394 . S
C391 C392 1.516 . S
C392 C391 1.516 . S
C392 C393 1.502 . S
C392 C394 1.561 . S
C392 C395 1.526 . S
C393 H377 0.959 . S
C393 H378 0.959 . S
C393 H379 0.961 . S
C393 C392 1.502 . S
C394 H380 0.960 . S
C394 H381 0.961 . S
C394 H382 0.959 . S
C394 C392 1.561 . S
C395 C392 1.526 . S
C395 C396 1.396 . S
C395 C400 1.390 . S
C396 C390 1.465 . S
C396 C395 1.396 . S
C396 C397 1.399 . S
C397 H383 0.929 . S
C397 C396 1.399 . S
C397 C398 1.385 . S
C398 H384 0.931 . S
C398 C397 1.385 . S
C398 C399 1.389 . S
C399 C398 1.389 . S
C399 C400 1.387 . S
C400 H385 0.930 . S
C400 C395 1.390 . S
C400 C399 1.387 . S
H401 C413 0.930 . S
H402 C415 0.930 . S
H403 C416 0.930 . S
H404 C420 0.959 1_655 S
H405 C420 0.959 . S
H406 C420 0.961 . S
H407 C421 0.960 . S
H408 C421 0.961 . S
H409 C421 0.959 . S
H410 C424 0.929 . S
H411 C425 0.931 . S
H412 C427 0.930 . S
C413 H401 0.930 . S
C413 C414 1.399 . S
C413 C418 1.399 . S
C414 C413 1.399 . S
C414 C415 1.376 . S
C415 H402 0.930 . S
C415 C414 1.376 . S
C415 C416 1.388 . S
C416 H403 0.930 . S
C416 C415 1.388 . S
C416 C417 1.390 . S
C417 C416 1.390 . S
C417 C418 1.394 . S
C417 C423 1.465 . S
C418 C413 1.399 . S
C418 C417 1.394 . S
C418 C419 1.516 . S
C419 C418 1.516 . S
C419 C420 1.502 . S
C419 C421 1.561 . S
C419 C422 1.526 . S
C420 H404 0.959 1_455 S
C420 H405 0.959 . S
C420 H406 0.961 . S
C420 C419 1.502 . S
C421 H407 0.960 . S
C421 H408 0.961 . S
C421 H409 0.959 . S
C421 C419 1.561 . S
C422 C419 1.526 . S
C422 C423 1.396 . S
C422 C427 1.390 . S
C423 C417 1.465 . S
C423 C422 1.396 . S
C423 C424 1.399 . S
C424 H410 0.929 . S
C424 C423 1.399 . S
C424 C425 1.385 . S
C425 H411 0.931 . S
C425 C424 1.385 . S
C425 C426 1.389 . S
C426 C425 1.389 . S
C426 C427 1.387 . S
C427 H412 0.930 . S
C427 C422 1.390 . S
C427 C426 1.387 . S
C129 C40 1.529 . S
C117 C34 1.538 . S
C144 C7 1.479 . S
C156 C83 1.510 . S
C171 C16 1.535 . S
C183 C49 1.538 . S
C198 C25 1.502 . S
C210 C74 1.490 . S
C237 C36 1.518 . S
C225 C5 1.477 . S
C264 C78 1.560 . S
C252 C13 1.549 . S
C279 C23 1.520 . S
C291 C44 1.508 . S
C306 C32 1.522 . S
C318 C70 1.566 . S
C345 C99 1.563 . S
C333 C14 1.554 . S
C372 C65 1.511 . S
C360 C22 1.520 . S
C399 C87 1.558 . S
C387 C31 1.565 . S
C414 C4 1.500 . S
C426 C53 1.510 . S
