# Generated by pormake.
# Topology pyr, (3,6)-cn, num edge types: 1
# Building blocks:
#     Node 0, Type 0, BuildingBlock: CUQRIR_clean_linker_1, # of connection points: 3
#     Node 1, Type 0, BuildingBlock: CUQRIR_clean_linker_1, # of connection points: 3
#     Node 2, Type 0, BuildingBlock: CUQRIR_clean_linker_1, # of connection points: 3
#     Node 3, Type 0, BuildingBlock: CUQRIR_clean_linker_1, # of connection points: 3
#     Node 4, Type 0, BuildingBlock: CUQRIR_clean_linker_1, # of connection points: 3
#     Node 5, Type 0, BuildingBlock: CUQRIR_clean_linker_1, # of connection points: 3
#     Node 6, Type 0, BuildingBlock: CUQRIR_clean_linker_1, # of connection points: 3
#     Node 7, Type 0, BuildingBlock: CUQRIR_clean_linker_1, # of connection points: 3
#     Node 8, Type 1, BuildingBlock: BETDIP_clean_sbu_0, # of connection points: 6
#     Node 9, Type 1, BuildingBlock: BETDIP_clean_sbu_0, # of connection points: 6
#     Node 10, Type 1, BuildingBlock: BETDIP_clean_sbu_0, # of connection points: 6
#     Node 11, Type 1, BuildingBlock: BETDIP_clean_sbu_0, # of connection points: 6
#     Edge 12, Type (0, 1), BuildingBlock: EZIPEK_clean_linker_0, # of connection points: 2
#     Edge 13, Type (0, 1), BuildingBlock: EZIPEK_clean_linker_0, # of connection points: 2
#     Edge 14, Type (0, 1), BuildingBlock: EZIPEK_clean_linker_0, # of connection points: 2
#     Edge 15, Type (0, 1), BuildingBlock: EZIPEK_clean_linker_0, # of connection points: 2
#     Edge 16, Type (0, 1), BuildingBlock: EZIPEK_clean_linker_0, # of connection points: 2
#     Edge 17, Type (0, 1), BuildingBlock: EZIPEK_clean_linker_0, # of connection points: 2
#     Edge 18, Type (0, 1), BuildingBlock: EZIPEK_clean_linker_0, # of connection points: 2
#     Edge 19, Type (0, 1), BuildingBlock: EZIPEK_clean_linker_0, # of connection points: 2
#     Edge 20, Type (0, 1), BuildingBlock: EZIPEK_clean_linker_0, # of connection points: 2
#     Edge 21, Type (0, 1), BuildingBlock: EZIPEK_clean_linker_0, # of connection points: 2
#     Edge 22, Type (0, 1), BuildingBlock: EZIPEK_clean_linker_0, # of connection points: 2
#     Edge 23, Type (0, 1), BuildingBlock: EZIPEK_clean_linker_0, # of connection points: 2
#     Edge 24, Type (0, 1), BuildingBlock: EZIPEK_clean_linker_0, # of connection points: 2
#     Edge 25, Type (0, 1), BuildingBlock: EZIPEK_clean_linker_0, # of connection points: 2
#     Edge 26, Type (0, 1), BuildingBlock: EZIPEK_clean_linker_0, # of connection points: 2
#     Edge 27, Type (0, 1), BuildingBlock: EZIPEK_clean_linker_0, # of connection points: 2
#     Edge 28, Type (0, 1), BuildingBlock: EZIPEK_clean_linker_0, # of connection points: 2
#     Edge 29, Type (0, 1), BuildingBlock: EZIPEK_clean_linker_0, # of connection points: 2
#     Edge 30, Type (0, 1), BuildingBlock: EZIPEK_clean_linker_0, # of connection points: 2
#     Edge 31, Type (0, 1), BuildingBlock: EZIPEK_clean_linker_0, # of connection points: 2
#     Edge 32, Type (0, 1), BuildingBlock: EZIPEK_clean_linker_0, # of connection points: 2
#     Edge 33, Type (0, 1), BuildingBlock: EZIPEK_clean_linker_0, # of connection points: 2
#     Edge 34, Type (0, 1), BuildingBlock: EZIPEK_clean_linker_0, # of connection points: 2
#     Edge 35, Type (0, 1), BuildingBlock: EZIPEK_clean_linker_0, # of connection points: 2
# Relax obj value: 0.299
# Max RMSD: 0.308
# Mean RMSD: 0.179
data_MOF--net-pyr--node1-BETDIP_clean_sbu_0--node2-CUQRIR_clean_linker_1--edge1-EZIPEK_clean_linker_0
_symmetry_space_group_name_H-M    P1
_symmetry_Int_Tables_number       1
_symmetry_cell_setting            triclinic
loop_
_symmetry_equiv_pos_as_xyz
'x, y, z'
_cell_length_a     23.950073
_cell_length_b     25.350282
_cell_length_c     24.148599
_cell_angle_alpha  87.38254
_cell_angle_beta   93.915278
_cell_angle_gamma 110.06823
loop_
_atom_site_label
_atom_site_type_symbol
_atom_site_fract_x
_atom_site_fract_y
_atom_site_fract_z
_atom_type_partial_charge
C0 C 0.41113 0.42791 0.30725 0.0
N1 N 0.43361 0.38787 0.32567 0.0
N2 N 0.41533 0.43639 0.25169 0.0
C3 C 0.37758 0.45336 0.34228 0.0
C4 C 0.44743 0.4043 0.23812 0.0
N5 N 0.45824 0.37452 0.28313 0.0
C6 C 0.46429 0.39875 0.18046 0.0
H7 H 0.32976 0.43889 0.32821 0.0
H8 H 0.39517 0.49965 0.33691 0.0
H9 H 0.38208 0.44251 0.387 0.0
H10 H 0.51346 0.41608 0.17895 0.0
H11 H 0.44427 0.42168 0.14944 0.0
H12 H 0.45002 0.3537 0.16994 0.0
C13 C 0.13997 0.84908 0.81451 0.0
N14 N 0.10264 0.87339 0.83453 0.0
N15 N 0.16335 0.82426 0.85599 0.0
C16 C 0.16752 0.86253 0.75858 0.0
C17 C 0.14264 0.83673 0.90225 0.0
N18 N 0.10964 0.87056 0.89006 0.0
C19 C 0.16455 0.82463 0.95992 0.0
H20 H 0.14415 0.82841 0.72936 0.0
H21 H 0.21474 0.86507 0.76176 0.0
H22 H 0.16716 0.90356 0.74109 0.0
H23 H 0.19532 0.86406 0.97842 0.0
H24 H 0.18827 0.79399 0.95941 0.0
H25 H 0.12649 0.80706 0.98683 0.0
C26 C 0.58534 0.43169 0.94168 0.0
N27 N 0.62458 0.41702 0.97837 0.0
N28 N 0.61331 0.46488 0.89899 0.0
C29 C 0.52107 0.42099 0.95169 0.0
C30 C 0.6711 0.47255 0.91298 0.0
N31 N 0.67902 0.45187 0.96523 0.0
C32 C 0.71464 0.48076 0.86842 0.0
H33 H 0.49201 0.39328 0.9193 0.0
H34 H 0.51234 0.4613 0.94783 0.0
H35 H 0.50955 0.40219 0.99359 0.0
H36 H 0.72524 0.52338 0.84911 0.0
H37 H 0.69344 0.45063 0.83484 0.0
H38 H 0.75581 0.47324 0.8846 0.0
C39 C 0.84948 0.7329 0.42731 0.0
N40 N 0.89824 0.77279 0.40583 0.0
N41 N 0.81712 0.756 0.4558 0.0
C42 C 0.83134 0.67099 0.41757 0.0
C43 C 0.84688 0.81154 0.45072 0.0
N44 N 0.89788 0.82293 0.42318 0.0
C45 C 0.82754 0.85515 0.47641 0.0
H46 H 0.80576 0.66145 0.37701 0.0
H47 H 0.80271 0.64617 0.45051 0.0
H48 H 0.87122 0.65835 0.41616 0.0
H49 H 0.84262 0.85871 0.52099 0.0
H50 H 0.77825 0.84239 0.4738 0.0
H51 H 0.84656 0.89681 0.45552 0.0
C52 C 0.59955 0.89529 0.97857 0.0
N53 N 0.63144 0.87634 0.94547 0.0
N54 N 0.56336 0.91764 0.9477 0.0
C55 C 0.60693 0.89625 1.04098 0.0
C56 C 0.57247 0.90898 0.89465 0.0
N57 N 0.61551 0.8858 0.89316 0.0
C58 C 0.54193 0.92592 0.84397 0.0
H59 H 0.56298 0.87629 1.05896 0.0
H60 H 0.62475 0.94049 1.0545 0.0
H61 H 0.63712 0.8738 1.05755 0.0
H62 H 0.57536 0.95615 0.8178 0.0
H63 H 0.5088 0.94469 0.85527 0.0
H64 H 0.51914 0.8883 0.81864 0.0
C65 C 0.91745 0.36774 0.50663 0.0
N66 N 0.95492 0.36663 0.46749 0.0
N67 N 0.88147 0.39602 0.4876 0.0
C68 C 0.91295 0.33767 0.56216 0.0
C69 C 0.89788 0.41254 0.43537 0.0
N70 N 0.94465 0.39621 0.42283 0.0
C71 C 0.86043 0.43633 0.39547 0.0
H72 H 0.91688 0.29566 0.55835 0.0
H73 H 0.8705 0.33284 0.58106 0.0
H74 H 0.95016 0.36285 0.59027 0.0
H75 H 0.81737 0.43286 0.41216 0.0
H76 H 0.84932 0.4135 0.35607 0.0
H77 H 0.8836 0.48176 0.38799 0.0
C78 C 0.33212 0.74105 0.33295 0.0
N79 N 0.3882 0.77412 0.35097 0.0
N80 N 0.31446 0.76016 0.28401 0.0
C81 C 0.29509 0.68797 0.36181 0.0
C82 C 0.36054 0.80681 0.27246 0.0
N83 N 0.40542 0.81639 0.3126 0.0
C84 C 0.36061 0.84478 0.2224 0.0
H85 H 0.30238 0.65159 0.34363 0.0
H86 H 0.24705 0.68218 0.35544 0.0
H87 H 0.30758 0.68862 0.40695 0.0
H88 H 0.35666 0.88456 0.2358 0.0
H89 H 0.32329 0.82523 0.19183 0.0
H90 H 0.40307 0.85522 0.20163 0.0
C91 C 0.09422 0.40737 0.83702 0.0
N92 N 0.12691 0.39985 0.7953 0.0
N93 N 0.11848 0.4596 0.8593 0.0
C94 C 0.03844 0.3637 0.85625 0.0
C95 C 0.1671 0.4838 0.8292 0.0
N96 N 0.17202 0.44877 0.78977 0.0
C97 C 0.2098 0.54248 0.83851 0.0
H98 H 1.01556 0.33441 0.82249 0.0
H99 H 1.00789 0.38384 0.87102 0.0
H100 H 0.05031 0.33924 0.89152 0.0
H101 H 0.21545 0.5519 0.88338 0.0
H102 H 0.19111 0.57277 0.81687 0.0
H103 H 0.25395 0.54852 0.8225 0.0
Tb104 Tb 0.98583 0.09963 0.61715 0.0
Tb105 Tb 0.10352 0.11847 0.59474 0.0
C106 C 0.87408 1.06961 0.60832 0.0
C107 C 0.8271 1.02095 0.63044 0.0
C108 C 0.77221 1.02604 0.63975 0.0
C109 C 0.73352 0.98756 0.6749 0.0
C110 C 0.74973 0.944 0.70121 0.0
C111 C 0.80133 0.93494 0.68664 0.0
C112 C 0.84009 0.97354 0.6514 0.0
C113 C 0.05959 0.18341 0.68025 0.0
C114 C 0.04757 1.03396 0.69338 0.0
C115 C 0.21424 0.13712 0.60203 0.0
C116 C 0.26878 0.18128 0.58591 0.0
C117 C 0.27266 0.23781 0.58322 0.0
C118 C 0.31662 0.27671 0.55287 0.0
C119 C 0.35571 0.25882 0.5241 0.0
C120 C 0.35669 0.20413 0.53301 0.0
C121 C 0.31327 0.16543 0.56401 0.0
C122 C 0.02663 1.03458 0.53221 0.0
C123 C 0.04486 0.193 0.5258 0.0
O124 O 0.90594 1.05931 0.57121 0.0
O125 O 0.90699 0.10378 0.64599 0.0
O126 O 0.06452 0.17439 0.62961 0.0
O127 O 1.01165 0.14452 0.69589 0.0
O128 O 0.99519 1.0347 0.67452 0.0
O129 O 0.09627 1.06747 0.67148 0.0
O130 O 0.18521 0.14858 0.64097 0.0
O131 O 0.17876 0.11183 0.56061 0.0
O132 O 0.02499 1.04391 0.58339 0.0
O133 O 0.0739 1.07369 0.51569 0.0
O134 O 0.09678 0.18991 0.5442 0.0
O135 O 0.99555 0.15595 0.54396 0.0
H136 H 0.76159 1.06236 0.62386 0.0
H137 H 0.69397 0.99522 0.68614 0.0
H138 H 0.81468 0.90188 0.70712 0.0
H139 H 0.88233 0.96897 0.6445 0.0
H140 H 0.23872 0.2508 0.59999 0.0
H141 H 0.31512 0.31875 0.54589 0.0
H142 H 0.38619 0.18967 0.51061 0.0
H143 H 0.31089 0.12192 0.56611 0.0
Tb144 Tb 0.59989 0.13775 0.18751 0.0
Tb145 Tb 0.4758 0.12207 0.17888 0.0
C146 C 0.71188 0.17484 0.19311 0.0
C147 C 0.76095 0.22603 0.2095 0.0
C148 C 0.81021 0.24712 0.17637 0.0
C149 C 0.86092 0.29089 0.19517 0.0
C150 C 0.86259 0.31347 0.24738 0.0
C151 C 0.81212 0.29465 0.27892 0.0
C152 C 0.76161 0.25128 0.26015 0.0
C153 C 0.536 1.03842 0.23282 0.0
C154 C 0.54525 0.19609 0.2701 0.0
C155 C 0.36359 0.08829 0.17465 0.0
C156 C 0.31546 1.06545 0.13189 0.0
C157 C 0.26469 1.08148 0.12965 0.0
C158 C 0.218 1.05881 1.08994 0.0
C159 C 0.22172 1.0196 1.05253 0.0
C160 C 0.27273 1.00415 1.05442 0.0
C161 C 0.31929 1.02694 0.09363 0.0
C162 C 0.54391 0.21883 0.12894 0.0
C163 C 0.52361 1.06187 0.09259 0.0
O164 O 0.67969 0.17849 0.14816 0.0
O165 O 0.67959 0.14562 0.23286 0.0
O166 O 0.52646 0.0849 0.23588 0.0
O167 O 0.58478 1.04971 0.2078 0.0
O168 O 0.59038 0.20378 0.23867 0.0
O169 O 0.49879 0.15077 0.2621 0.0
O170 O 0.3953 1.05665 0.18987 0.0
O171 O 0.39662 0.14089 0.16814 0.0
O172 O 0.54894 0.17065 0.12805 0.0
O173 O 0.49737 0.21241 0.15643 0.0
O174 O 0.47645 1.06722 0.11289 0.0
O175 O 0.57809 0.09037 0.11181 0.0
H176 H 0.81037 0.22816 0.13709 0.0
H177 H 0.89966 0.30513 0.17047 0.0
H178 H 0.81293 0.3117 0.31945 0.0
H179 H 0.72426 0.23584 0.28647 0.0
H180 H 0.26109 0.11128 0.15877 0.0
H181 H 0.17902 1.07137 1.08862 0.0
H182 H 0.27633 0.97412 1.02553 0.0
H183 H 0.35795 1.01398 0.09421 0.0
Tb184 Tb 0.49249 0.65665 0.64794 0.0
Tb185 Tb 0.48643 0.54909 0.58442 0.0
C186 C 0.46731 0.74111 0.66996 0.0
C187 C 0.43711 0.75577 0.7144 0.0
C188 C 0.41542 0.80026 0.70502 0.0
C189 C 0.37547 0.8077 0.74062 0.0
C190 C 0.3567 0.77068 0.78603 0.0
C191 C 0.38159 0.72842 0.79777 0.0
C192 C 0.42133 0.72065 0.7617 0.0
C193 C 0.53208 0.58921 0.7171 0.0
C194 C 0.3763 0.54226 0.65406 0.0
C195 C 0.50684 0.46121 0.56496 0.0
C196 C 0.56269 0.45033 0.55791 0.0
C197 C 0.57777 0.41116 0.59335 0.0
C198 C 0.63074 0.40067 0.58775 0.0
C199 C 0.66945 0.42936 0.54671 0.0
C200 C 0.65519 0.46936 0.51203 0.0
C201 C 0.60237 0.48 0.5177 0.0
C202 C 0.45615 0.62561 0.51493 0.0
C203 C 0.60128 0.65722 0.5763 0.0
O204 O 0.43251 0.7002 0.63906 0.0
O205 O 0.51949 0.73626 0.6829 0.0
O206 O 0.51287 0.58212 0.66629 0.0
O207 O 0.52917 0.63748 0.7295 0.0
O208 O 0.40585 0.59447 0.67085 0.0
O209 O 0.39748 0.51761 0.61729 0.0
O210 O 0.50039 0.47553 0.61476 0.0
O211 O 0.4903 0.49153 0.52624 0.0
O212 O 0.47017 0.62621 0.56674 0.0
O213 O 0.45753 0.57684 0.50184 0.0
O214 O 0.57889 0.60175 0.57516 0.0
O215 O 0.57391 0.68781 0.59955 0.0
H216 H 0.42681 0.82735 0.66845 0.0
H217 H 0.35701 0.84082 0.73131 0.0
H218 H 0.36783 0.69982 0.83293 0.0
H219 H 0.43732 0.68568 0.7691 0.0
H220 H 0.54823 0.38829 0.62504 0.0
H221 H 0.64125 0.36977 0.61492 0.0
H222 H 0.68476 0.49197 0.48027 0.0
H223 H 0.59254 0.51116 0.49038 0.0
Tb224 Tb 0.99188 0.66247 1.08833 0.0
Tb225 Tb 1.00274 0.57186 0.16138 0.0
C226 C 0.95589 0.71442 1.01062 0.0
C227 C 0.91242 0.74332 1.00408 0.0
C228 C 0.8928 0.75546 0.95062 0.0
C229 C 0.8477 0.77876 0.94361 0.0
C230 C 0.82196 0.79005 0.99008 0.0
C231 C 0.84244 0.779 1.04364 0.0
C232 C 0.88751 0.75566 1.05061 0.0
C233 C 0.09347 0.69075 0.14758 0.0
C234 C 0.95858 0.66701 0.21372 0.0
C235 C 0.04941 0.52309 0.23335 0.0
C236 C 0.10673 0.51454 0.23067 0.0
C237 C 0.14601 0.54549 0.19108 0.0
C238 C 0.19905 0.53606 0.18418 0.0
C239 C 0.21438 0.49621 0.21791 0.0
C240 C 0.17544 0.46549 0.25831 0.0
C241 C 0.12165 0.4745 0.26451 0.0
C242 C 0.89775 0.5419 0.1056 0.0
C243 C 0.04367 0.57306 1.03705 0.0
O244 O 0.93317 0.66026 1.01958 0.0
O245 O 1.00295 0.73772 1.04332 0.0
O246 O 0.06662 0.64343 0.1255 0.0
O247 O 0.0666 0.72552 0.1306 0.0
O248 O 0.9597 0.68945 0.1626 0.0
O249 O 0.97107 0.61951 0.22149 0.0
O250 O 0.05314 0.57557 0.23653 0.0
O251 O 1.00835 0.49633 0.19624 0.0
O252 O 0.92664 0.59035 0.1248 0.0
O253 O 0.92403 0.50731 0.12443 0.0
O254 O 0.03973 0.54903 1.08743 0.0
O255 O 0.02975 0.61946 1.02976 0.0
H256 H 0.91159 0.74595 0.91437 0.0
H257 H 0.83219 0.78716 0.90207 0.0
H258 H 0.82281 0.78752 1.07981 0.0
H259 H 0.90217 0.74632 0.09211 0.0
H260 H 0.13484 0.57653 0.16502 0.0
H261 H 0.22819 0.5598 0.15263 0.0
H262 H 0.18651 0.43428 0.28457 0.0
H263 H 0.0917 0.45012 0.29515 0.0
C264 C 0.35466 0.31946 0.37914 0.0
C265 C 0.41562 0.35293 0.37474 0.0
C266 C 0.43972 0.32054 0.4677 0.0
C267 C 0.37852 0.28922 0.47225 0.0
N268 N 0.28167 0.24412 0.4267 0.0
N269 N 0.51619 0.38695 0.41293 0.0
C270 C 0.3371 0.28456 0.42641 0.0
C271 C 0.45843 0.3532 0.41831 0.0
N272 N 0.31287 0.32158 0.33845 0.0
N273 N 0.47942 0.31808 0.51024 0.0
H274 H 0.52962 0.41332 0.37832 0.0
H275 H 0.55064 0.39034 0.44261 0.0
H276 H 0.4663 0.29605 0.5474 0.0
H277 H 0.52529 0.33516 0.5081 0.0
H278 H 0.26727 0.30646 0.3439 0.0
H279 H 0.3232 0.34075 0.29984 0.0
H280 H 0.25251 0.23365 0.39173 0.0
H281 H 0.26645 0.21658 0.4601 0.0
C282 C 0.09652 0.90688 0.97984 0.0
C283 C 0.11869 0.91741 0.92605 0.0
C284 C 0.18441 1.01086 0.95419 0.0
C285 C 0.17355 0.99391 1.01006 0.0
N286 N 0.11523 0.92923 1.07754 0.0
N287 N 0.18135 0.97835 0.86043 0.0
C288 C 0.12688 0.94369 1.02328 0.0
C289 C 0.1607 0.9704 0.91236 0.0
N290 N 0.04872 0.85988 0.98943 0.0
N291 N 0.21911 1.06483 0.94211 0.0
H292 H 0.21599 1.01349 0.84722 0.0
H293 H 0.21599 1.01349 0.84722 0.0
H294 H 0.23709 0.09432 0.9731 0.0
H295 H 0.2249 1.08169 0.90192 0.0
H296 H 0.02646 0.85203 1.0261 0.0
H297 H 0.02915 0.83059 0.95857 0.0
H298 H 0.08684 0.89013 0.09066 0.0
H299 H 0.13587 0.95624 0.1099 0.0
C300 C 0.61103 0.55324 0.84969 0.0
C301 C 0.59058 0.49374 0.85296 0.0
C302 C 0.52904 0.49408 0.76587 0.0
C303 C 0.55588 0.55354 0.75902 0.0
N304 N 0.63712 0.63597 0.78946 0.0
N305 N 0.53879 0.40755 0.80604 0.0
C306 C 0.60134 0.58186 0.79948 0.0
C307 C 0.55213 0.46411 0.80854 0.0
N308 N 0.63756 0.58289 0.8957 0.0
N309 N 0.47926 0.46631 0.73427 0.0
H310 H 0.55653 0.38543 0.83539 0.0
H311 H 0.51533 0.38417 0.77224 0.0
H312 H 0.45964 0.48736 0.70558 0.0
H313 H 0.45467 0.42398 0.74066 0.0
H314 H 0.64951 0.62639 0.89697 0.0
H315 H 0.64069 0.5632 0.93412 0.0
H316 H 0.67375 0.65695 0.81565 0.0
H317 H 0.63497 0.65715 0.75175 0.0
C318 C 0.88759 0.75278 0.30315 0.0
C319 C 0.9225 0.76052 0.35449 0.0
C320 C 0.97875 0.7046 0.31602 0.0
C321 C 0.94467 0.69745 0.26356 0.0
N322 N 0.86502 0.71656 0.20925 0.0
N323 N 1.00899 0.75343 0.40414 0.0
C324 C 0.89925 0.72285 0.25777 0.0
C325 C 0.97016 0.73904 0.35885 0.0
N326 N 0.84035 0.77152 0.29913 0.0
N327 N 1.01922 0.67781 0.32624 0.0
H328 H 1.00432 0.77962 0.43416 0.0
H329 H 0.04875 0.74519 0.40887 0.0
H330 H 0.03312 0.65778 0.29624 0.0
H331 H 0.03791 0.67352 0.36565 0.0
H332 H 0.80734 0.76181 0.2672 0.0
H333 H 0.83308 0.79595 0.32956 0.0
H334 H 0.83842 0.74057 0.1976 0.0
H335 H 0.86307 0.68694 0.18001 0.0
C336 C 0.44899 0.27489 0.29486 0.0
C337 C 0.48486 0.33108 0.28471 0.0
C338 C 0.57242 0.30116 0.28555 0.0
C339 C 0.53461 0.24476 0.29501 0.0
N340 N 0.4466 0.18775 0.34033 0.0
N341 N 0.58272 0.40043 0.28119 0.0
C342 C 0.47627 0.23521 0.31102 0.0
C343 C 0.54753 0.34522 0.28343 0.0
N344 N 0.38894 0.25842 0.28512 0.0
N345 N 0.63159 0.31236 0.27953 0.0
H346 H 0.56505 0.43284 0.27939 0.0
H347 H 0.62902 0.41427 0.28432 0.0
H348 H 0.65179 0.28253 0.29 0.0
H349 H 0.66041 0.35083 0.26544 0.0
H350 H 0.36119 0.21665 0.289 0.0
H351 H 0.36884 0.28557 0.26624 0.0
H352 H 0.40458 0.18075 0.35496 0.0
H353 H 0.46749 0.15944 0.35515 0.0
C354 C 0.04297 0.94014 0.82218 0.0
C355 C 0.06641 0.90122 0.80106 0.0
C356 C 0.06071 0.94059 0.7084 0.0
C357 C 0.05141 0.9875 0.73095 0.0
N358 N 1.0232 1.02704 0.80933 0.0
N359 N 0.04264 0.84134 0.72267 0.0
C360 C 0.03926 0.98587 0.78784 0.0
C361 C 0.05749 0.89371 0.74341 0.0
N362 N 1.0132 0.92874 0.86945 0.0
N363 N 0.07537 0.9412 0.65473 0.0
H364 H 0.03653 0.80618 0.74903 0.0
H365 H 0.03121 0.8331 0.68068 0.0
H366 H 0.08043 0.97542 0.62756 0.0
H367 H 0.08682 0.90891 0.63889 0.0
H368 H 1.00281 0.88988 0.8902 0.0
H369 H 1.00281 0.88988 0.8902 0.0
H370 H 1.01489 1.02691 0.85125 0.0
H371 H 1.01965 1.06129 0.78554 0.0
C372 C 0.72752 0.47936 1.06428 0.0
C373 C 0.72871 0.48451 1.00491 0.0
C374 C 0.83661 0.53224 1.01481 0.0
C375 C 0.83821 0.52382 1.07288 0.0
N376 N 0.78358 0.48651 0.15414 0.0
N377 N 0.77985 0.56447 0.94634 0.0
C378 C 0.78294 0.49685 0.09819 0.0
C379 C 0.78188 0.52454 0.98524 0.0
N380 N 0.67428 0.4649 1.08836 0.0
N381 N 0.88702 0.54702 0.98654 0.0
H382 H 0.81826 0.59632 0.93404 0.0
H383 H 0.74027 0.5711 0.93409 0.0
H384 H 0.92764 0.54889 1.00603 0.0
H385 H 0.88587 0.55126 0.94328 0.0
H386 H 0.66991 0.4633 0.13102 0.0
H387 H 0.63496 0.46204 1.06547 0.0
H388 H 0.74662 0.46127 0.17476 0.0
H389 H 0.82255 0.50075 0.17954 0.0
C390 C 0.70741 0.7081 0.45665 0.0
C391 C 0.76337 0.72908 0.48599 0.0
C392 C 0.71271 0.71063 0.57453 0.0
C393 C 0.65694 0.68524 0.54534 0.0
N394 N 0.60252 0.6534 0.45808 0.0
N395 N 0.82078 0.74322 0.57276 0.0
C396 C 0.65481 0.68204 0.48624 0.0
C397 C 0.7663 0.72849 0.54502 0.0
N398 N 0.70433 0.71524 0.40026 0.0
N399 N 0.71449 0.71768 0.63047 0.0
H400 H 0.86002 0.75479 0.55195 0.0
H401 H 0.82706 0.73931 0.61562 0.0
H402 H 0.67656 0.70347 0.65341 0.0
H403 H 0.75263 0.74097 0.65352 0.0
H404 H 0.66453 0.7071 0.37641 0.0
H405 H 0.74205 0.7337 0.37766 0.0
H406 H 0.59938 0.64333 0.41639 0.0
H407 H 0.56255 0.63644 0.47725 0.0
C408 C 0.37898 0.51218 0.22156 0.0
C409 C 0.37345 0.45529 0.21765 0.0
C410 C 0.26733 0.43263 0.19054 0.0
C411 C 0.27048 0.48536 0.21009 0.0
N412 N 0.32968 0.57735 0.24253 0.0
N413 N 0.31229 0.36075 0.19257 0.0
C414 C 0.32669 0.5265 0.22362 0.0
C415 C 0.31796 0.4156 0.19872 0.0
N416 N 0.43463 0.55113 0.22805 0.0
N417 N 0.21598 0.39909 0.16408 0.0
H418 H 0.34815 0.34653 0.1952 0.0
H419 H 0.27138 0.32862 0.18727 0.0
H420 H 0.17838 0.41096 0.1572 0.0
H421 H 0.21261 0.36247 0.14412 0.0
H422 H 0.44319 0.59426 0.22789 0.0
H423 H 0.47255 0.53956 0.22847 0.0
H424 H 0.36916 0.60837 0.25481 0.0
H425 H 0.29216 0.58759 0.24926 0.0
C426 C 0.65026 0.34665 1.04835 0.0
C427 C 0.60995 0.36149 1.00969 0.0
C428 C 0.53157 0.27289 1.03926 0.0
C429 C 0.56796 0.26636 1.08631 0.0
N430 N 0.66403 0.30071 0.13587 0.0
N431 N 0.53243 0.30831 0.94494 0.0
C432 C 0.62789 0.3043 0.09083 0.0
C433 C 0.55537 0.31628 0.99834 0.0
N434 N 0.7091 0.36359 1.03817 0.0
N435 N 0.47424 0.23709 1.03241 0.0
H436 H 0.5563 0.33112 0.91211 0.0
H437 H 0.49593 0.27368 0.93253 0.0
H438 H 0.45611 0.20206 1.0582 0.0
H439 H 0.44393 0.24428 1.00255 0.0
H440 H 0.73985 0.35067 1.06265 0.0
H441 H 0.7246 0.38189 1.00017 0.0
H442 H 0.706 0.33079 0.14373 0.0
H443 H 0.65015 0.27024 0.16715 0.0
C444 C 0.96669 0.87426 0.49963 0.0
C445 C 0.9489 0.8722 0.44215 0.0
C446 C 0.98889 0.97726 0.44148 0.0
C447 C 0.99657 0.97839 0.50119 0.0
N448 N 0.96767 0.92079 0.58444 0.0
N449 N 0.94132 0.9237 0.35865 0.0
C450 C 0.97915 0.92498 0.52963 0.0
C451 C 0.96079 0.92456 0.41309 0.0
N452 N 0.96624 0.82597 0.52701 0.0
N453 N 1.00564 1.02659 0.41147 0.0
H454 H 0.92307 0.88605 0.33749 0.0
H455 H 0.94078 0.95926 0.33559 0.0
H456 H 1.01797 1.06578 0.42944 0.0
H457 H 1.00855 1.02859 0.36854 0.0
H458 H 0.98301 0.82533 0.56796 0.0
H459 H 0.95375 0.78775 0.50698 0.0
H460 H 0.94984 0.88236 0.60543 0.0
H461 H 0.96744 0.95447 0.60699 0.0
C462 C 0.20138 0.75093 0.83003 0.0
C463 C 0.21266 0.80443 0.85209 0.0
C464 C 0.31994 0.82371 0.8505 0.0
C465 C 0.30821 0.7754 0.81837 0.0
N466 N 0.23757 0.69254 0.77587 0.0
N467 N 0.28231 0.89427 0.88046 0.0
C468 C 0.24888 0.73804 0.80863 0.0
C469 C 0.27196 0.8412 0.86272 0.0
N470 N 0.14476 0.71314 0.82885 0.0
N471 N 0.37713 0.8531 0.86843 0.0
H472 H 0.24828 0.90902 0.88875 0.0
H473 H 0.32435 0.9251 0.88296 0.0
H474 H 0.41285 0.8405 0.86018 0.0
H475 H 0.38832 0.88629 0.89569 0.0
H476 H 0.13386 0.6714 0.81788 0.0
H477 H 0.10953 0.72267 0.84383 0.0
H478 H 0.19491 0.66769 0.762 0.0
H479 H 0.27099 0.68125 0.75968 0.0
C480 C 0.63866 0.85647 0.80346 0.0
C481 C 0.65411 0.89453 0.84778 0.0
C482 C 0.74217 0.95409 0.80135 0.0
C483 C 0.72256 0.92042 0.75399 0.0
N484 N 0.66042 0.83499 0.71138 0.0
N485 N 0.71521 0.98367 0.88558 0.0
C486 C 0.67333 0.86974 0.75559 0.0
C487 C 0.70501 0.94394 0.84627 0.0
N488 N 0.5893 0.80941 0.80665 0.0
N489 N 0.79657 0.99596 0.80336 0.0
H490 H 0.68868 0.97857 0.91902 0.0
H491 H 0.74677 1.0238 0.88268 0.0
H492 H 0.825 1.00565 0.77072 0.0
H493 H 0.81617 1.01747 0.83935 0.0
H494 H 0.57448 0.77902 0.77652 0.0
H495 H 0.56218 0.801 0.84025 0.0
H496 H 0.62704 0.79595 0.70992 0.0
H497 H 0.68575 0.8444 0.67643 0.0
C498 C 0.95771 0.43695 0.32718 0.0
C499 C 0.9736 0.40414 0.36976 0.0
C500 C 0.95717 0.32981 0.30516 0.0
C501 C 0.91804 0.35215 0.27345 0.0
N502 N 0.89489 0.43509 0.2443 0.0
N503 N 0.04474 0.35722 0.36802 0.0
C504 C 0.92417 0.40914 0.28003 0.0
C505 C 0.99135 0.36134 0.35009 0.0
N506 N 0.97032 0.49282 0.33308 0.0
N507 N 0.95972 0.27843 0.29451 0.0
H508 H 0.07299 0.38586 0.39613 0.0
H509 H 0.0621 0.3294 0.35109 0.0
H510 H 0.93579 0.25479 0.26102 0.0
H511 H 0.98455 0.2595 0.32026 0.0
H512 H 0.99448 0.51384 0.36798 0.0
H513 H 0.99448 0.51384 0.36798 0.0
H514 H 0.89693 0.47632 0.24997 0.0
H515 H 0.86982 0.41506 0.20935 0.0
C516 C 0.43456 0.76338 0.44663 0.0
C517 C 0.42483 0.75043 0.38937 0.0
C518 C 0.431 0.65703 0.41526 0.0
C519 C 0.44609 0.67057 0.47272 0.0
N520 N 0.48199 0.74892 0.53497 0.0
N521 N 0.43677 0.69149 0.31984 0.0
C522 C 0.45373 0.72744 0.48614 0.0
C523 C 0.43259 0.70018 0.37433 0.0
N524 N 0.42491 0.80971 0.46382 0.0
N525 N 0.40867 0.60251 0.399 0.0
H526 H 0.4328 0.71992 0.2885 0.0
H527 H 0.45052 0.65918 0.30759 0.0
H528 H 0.39437 0.5684 0.42643 0.0
H529 H 0.39421 0.59173 0.35802 0.0
H530 H 0.42467 0.81831 0.5056 0.0
H531 H 0.41444 0.8377 0.4357 0.0
H532 H 0.49276 0.79099 0.54485 0.0
H533 H 0.50122 0.72652 0.56207 0.0
C534 C 0.12081 0.48638 0.95881 0.0
C535 C 0.0976 0.48613 0.90322 0.0
C536 C 0.04255 0.54756 0.93138 0.0
C537 C 0.06505 0.54709 0.98847 0.0
N538 N 0.14374 0.53214 1.04756 0.0
N539 N 0.03232 0.51184 0.83704 0.0
C540 C 0.10863 0.52018 0.99971 0.0
C541 C 0.05767 0.51583 0.88983 0.0
N542 N 0.15455 0.45347 0.9728 0.0
N543 N 1.0093 0.58049 0.91525 0.0
H544 H 0.0441 0.49087 0.80608 0.0
H545 H 0.99682 0.52517 0.82453 0.0
H546 H 0.99532 0.60379 0.94171 0.0
H547 H 0.99879 0.58889 0.87408 0.0
H548 H 0.16744 0.44585 1.01358 0.0
H549 H 0.16519 0.42978 0.94363 0.0
H550 H 0.17956 0.51827 1.05687 0.0
H551 H 0.14282 0.56304 1.07394 0.0
C552 C 0.49058 0.93268 1.00551 0.0
C553 C 0.53628 0.95515 0.96827 0.0
C554 C 0.54916 1.04977 0.99789 0.0
C555 C 0.51631 1.02586 1.04454 0.0
N556 N 0.45109 0.94409 0.09211 0.0
N557 N 0.60779 1.03706 0.9262 0.0
C558 C 0.48401 0.96726 1.0475 0.0
C559 C 0.56416 1.01438 0.9625 0.0
N560 N 0.45581 0.8775 1.00177 0.0
N561 N 0.56581 0.10639 0.98759 0.0
H562 H 0.61743 1.01423 0.89611 0.0
H563 H 0.63586 1.07883 0.92704 0.0
H564 H 0.55411 0.13301 1.01267 0.0
H565 H 0.58526 0.12582 0.95132 0.0
H566 H 0.41853 0.85878 1.02479 0.0
H567 H 0.46175 0.85202 0.97152 0.0
H568 H 0.43223 0.90098 0.09932 0.0
H569 H 0.44546 0.96771 0.12407 0.0
C570 C 0.95964 0.27316 0.44835 0.0
C571 C 0.98703 0.32742 0.47043 0.0
C572 C 0.06827 0.29883 0.5142 0.0
C573 C 0.03855 0.24325 0.49456 0.0
N574 N 0.9697 0.18433 0.42727 0.0
N575 N 0.07108 0.39601 0.51502 0.0
C576 C 0.98883 0.23301 0.45612 0.0
C577 C 0.04278 0.34146 0.50038 0.0
N578 N 0.90454 0.25952 0.42178 0.0
N579 N 0.1188 0.3104 0.54815 0.0
H580 H 0.0524 0.42717 0.50534 0.0
H581 H 0.11417 0.41139 0.5329 0.0
H582 H 0.1435 0.28379 0.55378 0.0
H583 H 0.13684 0.34678 0.571 0.0
H584 H 0.87905 0.21886 0.4102 0.0
H585 H 0.88301 0.28869 0.41363 0.0
H586 H 0.9366 0.1758 0.39532 0.0
H587 H 0.99166 0.15507 0.43176 0.0
C588 C 0.25231 0.70612 0.2053 0.0
C589 C 0.25775 0.73901 0.25251 0.0
C590 C 0.15618 0.73996 0.23195 0.0
C591 C 0.15051 0.7074 0.18362 0.0
N592 N 0.20004 0.67372 0.1168 0.0
N593 N 0.22055 0.79527 0.30634 0.0
C594 C 0.20039 0.69395 0.16839 0.0
C595 C 0.21109 0.75801 0.26457 0.0
N596 N 0.29776 0.68748 0.1955 0.0
N597 N 0.10888 0.75315 0.24748 0.0
H598 H 0.25937 0.80732 0.33208 0.0
H599 H 0.19231 0.81725 0.31355 0.0
H600 H 0.0683 0.74257 0.22501 0.0
H601 H 0.10797 0.77164 0.28481 0.0
H602 H 0.29558 0.65944 0.16461 0.0
H603 H 0.33658 0.69728 0.22124 0.0
H604 H 0.23671 0.66774 0.10099 0.0
H605 H 0.16461 0.66752 1.0874 0.0
C606 C 0.26189 0.44066 0.74819 0.0
C607 C 0.21672 0.46498 0.74765 0.0
C608 C 0.27242 0.53666 0.67936 0.0
C609 C 0.31663 0.51074 0.67874 0.0
N610 N 0.33814 0.42467 0.69792 0.0
N611 N 0.17366 0.53062 0.70463 0.0
C612 C 0.30638 0.45837 0.70813 0.0
C613 C 0.22034 0.51113 0.71036 0.0
N614 N 0.26549 0.40375 0.78992 0.0
N615 N 0.28023 0.586 0.65036 0.0
H616 H 0.13604 0.51418 0.72772 0.0
H617 H 0.17009 0.56011 0.67444 0.0
H618 H 0.31363 0.60251 0.62243 0.0
H619 H 0.25489 0.61146 0.65519 0.0
H620 H 0.30085 0.38861 0.79582 0.0
H621 H 0.23699 0.39402 0.82238 0.0
H622 H 0.32867 0.38436 0.71531 0.0
H623 H 0.36831 0.43335 0.66699 0.0
C624 C 0.73358 0.88938 0.98294 0.0
C625 C 0.6777 0.85351 0.9622 0.0
C626 C 0.71357 0.77392 0.96983 0.0
C627 C 0.77194 0.81173 0.98248 0.0
N628 N 0.83958 0.90621 0.99686 0.0
N629 N 0.61167 0.76167 0.93781 0.0
C630 C 0.78263 0.86981 0.98837 0.0
C631 C 0.6669 0.79565 0.95621 0.0
N632 N 0.73755 0.94139 0.99873 0.0
N633 N 0.70249 0.71729 0.97305 0.0
H634 H 0.57547 0.77578 0.93308 0.0
H635 H 0.60224 0.7205 0.92562 0.0
H636 H 0.73579 0.69983 0.98201 0.0
H637 H 0.65977 0.68765 0.9716 0.0
H638 H 0.77519 0.96998 1.01835 0.0
H639 H 0.77519 0.96998 1.01835 0.0
H640 H 0.85097 0.94971 0.99459 0.0
H641 H 0.87641 0.89301 1.00183 0.0
C642 C 0.49975 0.88181 0.28019 0.0
C643 C 0.45236 0.87175 0.31531 0.0
C644 C 0.47093 0.97481 0.30955 0.0
C645 C 0.50745 0.98171 0.26343 0.0
N646 N 0.54311 0.93186 0.19776 0.0
N647 N 0.38765 0.91067 0.35774 0.0
C648 C 0.519 0.93266 0.24727 0.0
C649 C 0.4374 0.91921 0.32933 0.0
N650 N 0.52319 0.84052 0.27502 0.0
N651 N 0.46857 1.02049 0.33567 0.0
H652 H 0.36135 0.8708 0.37138 0.0
H653 H 0.37022 0.94235 0.36353 0.0
H654 H 0.4952 1.06136 0.326 0.0
H655 H 0.44579 1.01707 0.37168 0.0
H656 H 0.56047 0.84604 0.25246 0.0
H657 H 0.50929 0.80369 0.29919 0.0
H658 H 0.54772 0.89574 0.18279 0.0
H659 H 0.55014 0.96379 0.16769 0.0
C660 C 0.12607 0.29995 0.78991 0.0
C661 C 0.115 0.34755 0.76418 0.0
C662 C 0.0651 0.28703 0.68407 0.0
C663 C 0.08176 0.24135 0.70719 0.0
N664 N 0.1352 0.20788 0.78032 0.0
N665 N 0.07661 0.38641 0.68431 0.0
C666 C 0.11437 0.24909 0.7596 0.0
C667 C 0.08599 0.34104 0.71019 0.0
N668 N 0.14563 0.30241 0.84447 0.0
N669 N 0.02509 0.27773 0.63945 0.0
H670 H 0.08577 0.42415 0.70436 0.0
H671 H 0.06302 0.38756 0.64251 0.0
H672 H 1.00629 0.23884 0.6209 0.0
H673 H 1.00642 0.3071 0.62376 0.0
H674 H 0.14801 0.26767 0.86792 0.0
H675 H 0.15527 0.3385 0.86761 0.0
H676 H 0.16463 0.2128 0.81505 0.0
H677 H 0.12699 0.17028 0.75997 0.0
C678 C 0.83351 0.44841 0.53984 0.0
C679 C 0.8295 0.39916 0.51227 0.0
C680 C 0.7206 0.36754 0.51042 0.0
C681 C 0.72448 0.41669 0.53871 0.0
N682 N 0.78341 0.49869 0.58967 0.0
N683 N 0.77176 0.30712 0.48018 0.0
C684 C 0.78072 0.45553 0.55647 0.0
C685 C 0.77366 0.35694 0.50095 0.0
N686 N 0.88792 0.48918 0.548 0.0
N687 N 0.66652 0.33277 0.4898 0.0
H688 H 0.81004 0.29911 0.47144 0.0
H689 H 0.73308 0.27227 0.47585 0.0
H690 H 0.62662 0.33906 0.49583 0.0
H691 H 0.66126 0.29994 0.46332 0.0
H692 H 0.89399 0.52909 0.56203 0.0
H693 H 0.92722 0.48369 0.53784 0.0
H694 H 0.82282 0.52565 0.60805 0.0
H695 H 0.74546 0.505 0.60244 0.0
loop_
_geom_bond_atom_site_label_1
_geom_bond_atom_site_label_2
_geom_bond_distance
_geom_bond_site_symmetry_2
_ccdc_geom_bond_type
C0 N1 1.317 . S
C0 N2 1.348 . S
C0 C3 1.485 . S
N1 C0 1.317 . S
N1 N5 1.370 . S
N2 C0 1.348 . S
N2 C4 1.346 . S
C3 C0 1.485 . S
C3 H7 0.960 . S
C3 H8 0.961 . S
C3 H9 0.960 . S
C4 N2 1.346 . S
C4 N5 1.307 . S
C4 C6 1.486 . S
N5 N1 1.370 . S
N5 C4 1.307 . S
C6 C4 1.486 . S
C6 H10 0.960 . S
C6 H11 0.960 . S
C6 H12 0.959 . S
H7 C3 0.960 . S
H8 C3 0.961 . S
H9 C3 0.960 . S
H10 C6 0.960 . S
H11 C6 0.960 . S
H12 C6 0.959 . S
C13 N14 1.317 . S
C13 N15 1.348 . S
C13 C16 1.485 . S
N14 C13 1.317 . S
N14 N18 1.370 . S
N15 C13 1.348 . S
N15 C17 1.346 . S
C16 C13 1.485 . S
C16 H20 0.960 1_455 S
C16 H21 0.961 . S
C16 H22 0.960 . S
C17 N15 1.346 . S
C17 N18 1.307 . S
C17 C19 1.486 . S
N18 N14 1.370 . S
N18 C17 1.307 . S
C19 C17 1.486 . S
C19 H23 0.960 . S
C19 H24 0.960 . S
C19 H25 0.959 . S
H20 C16 0.960 1_655 S
H21 C16 0.961 . S
H22 C16 0.960 . S
H23 C19 0.960 . S
H24 C19 0.960 . S
H25 C19 0.959 . S
C26 N27 1.317 . S
C26 N28 1.348 . S
C26 C29 1.485 . S
N27 C26 1.317 . S
N27 N31 1.370 . S
N28 C26 1.348 . S
N28 C30 1.346 . S
C29 C26 1.485 . S
C29 H33 0.960 . S
C29 H34 0.961 . S
C29 H35 0.960 . S
C30 N28 1.346 . S
C30 N31 1.307 . S
C30 C32 1.486 . S
N31 N27 1.370 . S
N31 C30 1.307 . S
C32 C30 1.486 . S
C32 H36 0.960 . S
C32 H37 0.960 . S
C32 H38 0.959 . S
H33 C29 0.960 . S
H34 C29 0.961 . S
H35 C29 0.960 . S
H36 C32 0.960 . S
H37 C32 0.960 . S
H38 C32 0.959 . S
C39 N40 1.317 . S
C39 N41 1.348 . S
C39 C42 1.485 . S
N40 C39 1.317 . S
N40 N44 1.370 . S
N41 C39 1.348 . S
N41 C43 1.346 . S
C42 C39 1.485 . S
C42 H46 0.960 . S
C42 H47 0.961 . S
C42 H48 0.960 . S
C43 N41 1.346 . S
C43 N44 1.307 . S
C43 C45 1.486 . S
N44 N40 1.370 . S
N44 C43 1.307 . S
C45 C43 1.486 . S
C45 H49 0.960 . S
C45 H50 0.960 . S
C45 H51 0.959 . S
H46 C42 0.960 . S
H47 C42 0.961 . S
H48 C42 0.960 . S
H49 C45 0.960 . S
H50 C45 0.960 . S
H51 C45 0.959 . S
C52 N53 1.317 . S
C52 N54 1.348 . S
C52 C55 1.485 . S
N53 C52 1.317 . S
N53 N57 1.370 . S
N54 C52 1.348 . S
N54 C56 1.346 . S
C55 C52 1.485 . S
C55 H59 0.960 . S
C55 H60 0.961 . S
C55 H61 0.960 . S
C56 N54 1.346 . S
C56 N57 1.307 . S
C56 C58 1.486 . S
N57 N53 1.370 . S
N57 C56 1.307 . S
C58 C56 1.486 . S
C58 H62 0.960 . S
C58 H63 0.960 . S
C58 H64 0.959 . S
H59 C55 0.960 . S
H60 C55 0.961 . S
H61 C55 0.960 . S
H62 C58 0.960 . S
H63 C58 0.960 . S
H64 C58 0.959 . S
C65 N66 1.317 . S
C65 N67 1.348 . S
C65 C68 1.485 . S
N66 C65 1.317 . S
N66 N70 1.370 . S
N67 C65 1.348 . S
N67 C69 1.346 . S
C68 C65 1.485 . S
C68 H72 0.960 . S
C68 H73 0.961 1_655 S
C68 H74 0.960 1_655 S
C69 N67 1.346 . S
C69 N70 1.307 . S
C69 C71 1.486 . S
N70 N66 1.370 . S
N70 C69 1.307 . S
C71 C69 1.486 . S
C71 H75 0.960 . S
C71 H76 0.960 . S
C71 H77 0.959 . S
H72 C68 0.960 . S
H73 C68 0.961 1_455 S
H74 C68 0.960 1_455 S
H75 C71 0.960 . S
H76 C71 0.960 . S
H77 C71 0.959 . S
C78 N79 1.317 . S
C78 N80 1.348 . S
C78 C81 1.485 . S
N79 C78 1.317 . S
N79 N83 1.370 . S
N80 C78 1.348 . S
N80 C82 1.346 . S
C81 C78 1.485 . S
C81 H85 0.960 . S
C81 H86 0.961 . S
C81 H87 0.960 . S
C82 N80 1.346 . S
C82 N83 1.307 . S
C82 C84 1.486 . S
N83 N79 1.370 . S
N83 C82 1.307 . S
C84 C82 1.486 . S
C84 H88 0.960 . S
C84 H89 0.960 . S
C84 H90 0.959 . S
H85 C81 0.960 . S
H86 C81 0.961 . S
H87 C81 0.960 . S
H88 C84 0.960 . S
H89 C84 0.960 . S
H90 C84 0.959 . S
C91 N92 1.317 . S
C91 N93 1.348 . S
C91 C94 1.485 . S
N92 C91 1.317 . S
N92 N96 1.370 . S
N93 C91 1.348 . S
N93 C95 1.346 . S
C94 C91 1.485 . S
C94 H98 0.960 . S
C94 H99 0.961 . S
C94 H100 0.960 . S
C95 N93 1.346 . S
C95 N96 1.307 . S
C95 C97 1.486 . S
N96 N92 1.370 . S
N96 C95 1.307 . S
C97 C95 1.486 . S
C97 H101 0.960 . S
C97 H102 0.960 . S
C97 H103 0.959 . S
H98 C94 0.960 . S
H99 C94 0.961 . S
H100 C94 0.960 . S
H101 C97 0.960 . S
H102 C97 0.960 . S
H103 C97 0.959 . S
Tb104 C106 2.809 1_545 S
Tb104 O124 2.484 1_545 S
Tb104 O125 2.440 1_545 S
Tb104 O126 2.658 1_655 S
Tb104 O127 2.409 1_655 S
Tb104 O128 2.378 1_645 S
Tb104 O132 2.325 1_545 S
Tb104 O135 2.341 . S
Tb105 C115 2.809 . S
Tb105 O126 2.325 . S
Tb105 O129 2.341 1_545 S
Tb105 O130 2.484 . S
Tb105 O131 2.440 . S
Tb105 O132 2.658 1_445 S
Tb105 O133 2.409 1_545 S
Tb105 O134 2.378 . S
C106 Tb104 2.809 1_565 S
C106 C107 1.514 . S
C106 O124 1.248 . S
C106 O125 1.266 . S
C107 C106 1.514 . S
C107 C108 1.359 . S
C107 C112 1.348 . S
C108 C107 1.359 . S
C108 C109 1.380 . S
C108 H136 0.929 . S
C109 C108 1.380 . S
C109 C110 1.347 . S
C109 H137 0.931 . S
C110 C109 1.347 . S
C110 C111 1.369 . S
C111 C110 1.369 . S
C111 C112 1.408 . S
C111 H138 0.930 . S
C112 C107 1.348 . S
C112 C111 1.408 . S
C112 H139 0.930 . S
C113 O126 1.281 . S
C113 O127 1.254 . S
C114 O128 1.236 . S
C114 O129 1.266 . S
C115 Tb105 2.809 . S
C115 C116 1.514 . S
C115 O130 1.248 . S
C115 O131 1.266 . S
C116 C115 1.514 . S
C116 C117 1.359 . S
C116 C121 1.348 . S
C117 C116 1.359 . S
C117 C118 1.380 . S
C117 H140 0.929 . S
C118 C117 1.380 . S
C118 C119 1.347 . S
C118 H141 0.931 . S
C119 C118 1.347 . S
C119 C120 1.369 . S
C120 C119 1.369 . S
C120 C121 1.408 . S
C120 H142 0.930 . S
C121 C116 1.348 . S
C121 C120 1.408 . S
C121 H143 0.930 . S
C122 O132 1.281 . S
C122 O133 1.254 1_655 S
C123 O134 1.236 . S
C123 O135 1.266 1_455 S
O124 Tb104 2.484 1_565 S
O124 C106 1.248 . S
O125 Tb104 2.440 1_565 S
O125 C106 1.266 . S
O126 Tb104 2.658 1_455 S
O126 Tb105 2.325 . S
O126 C113 1.281 . S
O127 Tb104 2.409 1_455 S
O127 C113 1.254 . S
O128 Tb104 2.378 1_465 S
O128 C114 1.236 . S
O129 Tb105 2.341 1_565 S
O129 C114 1.266 . S
O130 Tb105 2.484 . S
O130 C115 1.248 . S
O131 Tb105 2.440 . S
O131 C115 1.266 . S
O132 Tb104 2.325 1_565 S
O132 Tb105 2.658 1_665 S
O132 C122 1.281 . S
O133 Tb105 2.409 1_565 S
O133 C122 1.254 1_455 S
O134 Tb105 2.378 . S
O134 C123 1.236 . S
O135 Tb104 2.341 . S
O135 C123 1.266 1_655 S
H136 C108 0.929 . S
H137 C109 0.931 . S
H138 C111 0.930 . S
H139 C112 0.930 . S
H140 C117 0.929 . S
H141 C118 0.931 . S
H142 C120 0.930 . S
H143 C121 0.930 . S
Tb144 C146 2.809 . S
Tb144 O164 2.484 . S
Tb144 O165 2.440 . S
Tb144 O166 2.658 1_545 S
Tb144 O167 2.409 1_545 S
Tb144 O168 2.378 . S
Tb144 O172 2.325 . S
Tb144 O175 2.341 1_545 S
Tb145 C155 2.809 1_544 S
Tb145 O166 2.325 1_545 S
Tb145 O169 2.341 . S
Tb145 O170 2.484 1_545 S
Tb145 O171 2.440 1_554 S
Tb145 O172 2.658 . S
Tb145 O173 2.409 1_554 S
Tb145 O174 2.378 1_544 S
C146 Tb144 2.809 . S
C146 C147 1.514 . S
C146 O164 1.248 . S
C146 O165 1.266 . S
C147 C146 1.514 . S
C147 C148 1.359 . S
C147 C152 1.348 . S
C148 C147 1.359 . S
C148 C149 1.380 . S
C148 H176 0.929 . S
C149 C148 1.380 . S
C149 C150 1.347 . S
C149 H177 0.931 . S
C150 C149 1.347 . S
C150 C151 1.369 . S
C151 C150 1.369 . S
C151 C152 1.408 . S
C151 H178 0.930 . S
C152 C147 1.348 . S
C152 C151 1.408 . S
C152 H179 0.930 . S
C153 O166 1.281 . S
C153 O167 1.254 . S
C154 O168 1.236 . S
C154 O169 1.266 . S
C155 Tb145 2.809 1_566 S
C155 C156 1.514 . S
C155 O170 1.248 1_556 S
C155 O171 1.266 1_565 S
C156 C155 1.514 . S
C156 C157 1.359 . S
C156 C161 1.348 . S
C157 C156 1.359 . S
C157 C158 1.380 . S
C157 H180 0.929 . S
C158 C157 1.380 . S
C158 C159 1.347 . S
C158 H181 0.931 . S
C159 C158 1.347 . S
C159 C160 1.369 . S
C160 C159 1.369 . S
C160 C161 1.408 . S
C160 H182 0.930 . S
C161 C156 1.348 . S
C161 C160 1.408 . S
C161 H183 0.930 . S
C162 O172 1.281 . S
C162 O173 1.254 1_554 S
C163 O174 1.236 1_554 S
C163 O175 1.266 . S
O164 Tb144 2.484 . S
O164 C146 1.248 . S
O165 Tb144 2.440 . S
O165 C146 1.266 . S
O166 Tb144 2.658 1_565 S
O166 Tb145 2.325 1_565 S
O166 C153 1.281 . S
O167 Tb144 2.409 1_565 S
O167 C153 1.254 . S
O168 Tb144 2.378 . S
O168 C154 1.236 . S
O169 Tb145 2.341 . S
O169 C154 1.266 . S
O170 Tb145 2.484 1_565 S
O170 C155 1.248 1_554 S
O171 Tb145 2.440 1_556 S
O171 C155 1.266 1_545 S
O172 Tb144 2.325 . S
O172 Tb145 2.658 . S
O172 C162 1.281 . S
O173 Tb145 2.409 1_556 S
O173 C162 1.254 1_556 S
O174 Tb145 2.378 1_566 S
O174 C163 1.236 1_556 S
O175 Tb144 2.341 1_565 S
O175 C163 1.266 . S
H176 C148 0.929 . S
H177 C149 0.931 . S
H178 C151 0.930 . S
H179 C152 0.930 . S
H180 C157 0.929 . S
H181 C158 0.931 . S
H182 C160 0.930 . S
H183 C161 0.930 . S
Tb184 C186 2.809 . S
Tb184 O204 2.484 . S
Tb184 O205 2.440 . S
Tb184 O206 2.658 . S
Tb184 O207 2.409 . S
Tb184 O208 2.378 . S
Tb184 O212 2.325 . S
Tb184 O215 2.341 . S
Tb185 C195 2.809 . S
Tb185 O206 2.325 . S
Tb185 O209 2.341 . S
Tb185 O210 2.484 . S
Tb185 O211 2.440 . S
Tb185 O212 2.658 . S
Tb185 O213 2.409 . S
Tb185 O214 2.378 . S
C186 Tb184 2.809 . S
C186 C187 1.514 . S
C186 O204 1.248 . S
C186 O205 1.266 . S
C187 C186 1.514 . S
C187 C188 1.359 . S
C187 C192 1.348 . S
C188 C187 1.359 . S
C188 C189 1.380 . S
C188 H216 0.929 . S
C189 C188 1.380 . S
C189 C190 1.347 . S
C189 H217 0.931 . S
C190 C189 1.347 . S
C190 C191 1.369 . S
C191 C190 1.369 . S
C191 C192 1.408 . S
C191 H218 0.930 . S
C192 C187 1.348 . S
C192 C191 1.408 . S
C192 H219 0.930 . S
C193 O206 1.281 . S
C193 O207 1.254 . S
C194 O208 1.236 . S
C194 O209 1.266 . S
C195 Tb185 2.809 . S
C195 C196 1.514 . S
C195 O210 1.248 . S
C195 O211 1.266 . S
C196 C195 1.514 . S
C196 C197 1.359 . S
C196 C201 1.348 . S
C197 C196 1.359 . S
C197 C198 1.380 . S
C197 H220 0.929 . S
C198 C197 1.380 . S
C198 C199 1.347 . S
C198 H221 0.931 . S
C199 C198 1.347 . S
C199 C200 1.369 . S
C200 C199 1.369 . S
C200 C201 1.408 . S
C200 H222 0.930 . S
C201 C196 1.348 . S
C201 C200 1.408 . S
C201 H223 0.930 . S
C202 O212 1.281 . S
C202 O213 1.254 . S
C203 O214 1.236 . S
C203 O215 1.266 . S
O204 Tb184 2.484 . S
O204 C186 1.248 . S
O205 Tb184 2.440 . S
O205 C186 1.266 . S
O206 Tb184 2.658 . S
O206 Tb185 2.325 . S
O206 C193 1.281 . S
O207 Tb184 2.409 . S
O207 C193 1.254 . S
O208 Tb184 2.378 . S
O208 C194 1.236 . S
O209 Tb185 2.341 . S
O209 C194 1.266 . S
O210 Tb185 2.484 . S
O210 C195 1.248 . S
O211 Tb185 2.440 . S
O211 C195 1.266 . S
O212 Tb184 2.325 . S
O212 Tb185 2.658 . S
O212 C202 1.281 . S
O213 Tb185 2.409 . S
O213 C202 1.254 . S
O214 Tb185 2.378 . S
O214 C203 1.236 . S
O215 Tb184 2.341 . S
O215 C203 1.266 . S
H216 C188 0.929 . S
H217 C189 0.931 . S
H218 C191 0.930 . S
H219 C192 0.930 . S
H220 C197 0.929 . S
H221 C198 0.931 . S
H222 C200 0.930 . S
H223 C201 0.930 . S
Tb224 C226 2.809 . S
Tb224 O244 2.484 . S
Tb224 O245 2.440 . S
Tb224 O246 2.658 1_656 S
Tb224 O247 2.409 1_656 S
Tb224 O248 2.378 1_556 S
Tb224 O252 2.325 . S
Tb224 O255 2.341 1_655 S
Tb225 C235 2.809 . S
Tb225 O246 2.325 . S
Tb225 O249 2.341 1_455 S
Tb225 O250 2.484 . S
Tb225 O251 2.440 . S
Tb225 O252 2.658 1_454 S
Tb225 O253 2.409 1_455 S
Tb225 O254 2.378 1_554 S
C226 Tb224 2.809 . S
C226 C227 1.514 . S
C226 O244 1.248 . S
C226 O245 1.266 . S
C227 C226 1.514 . S
C227 C228 1.359 . S
C227 C232 1.348 . S
C228 C227 1.359 . S
C228 C229 1.380 . S
C228 H256 0.929 . S
C229 C228 1.380 . S
C229 C230 1.347 . S
C229 H257 0.931 . S
C230 C229 1.347 . S
C230 C231 1.369 . S
C231 C230 1.369 . S
C231 C232 1.408 . S
C231 H258 0.930 . S
C232 C227 1.348 . S
C232 C231 1.408 . S
C232 H259 0.930 . S
C233 O246 1.281 . S
C233 O247 1.254 . S
C234 O248 1.236 . S
C234 O249 1.266 . S
C235 Tb225 2.809 . S
C235 C236 1.514 . S
C235 O250 1.248 . S
C235 O251 1.266 . S
C236 C235 1.514 . S
C236 C237 1.359 . S
C236 C241 1.348 . S
C237 C236 1.359 . S
C237 C238 1.380 . S
C237 H260 0.929 . S
C238 C237 1.380 . S
C238 C239 1.347 . S
C238 H261 0.931 . S
C239 C238 1.347 . S
C239 C240 1.369 . S
C240 C239 1.369 . S
C240 C241 1.408 . S
C240 H262 0.930 . S
C241 C236 1.348 . S
C241 C240 1.408 . S
C241 H263 0.930 . S
C242 O252 1.281 . S
C242 O253 1.254 1_556 S
C243 O254 1.236 . S
C243 O255 1.266 . S
O244 Tb224 2.484 . S
O244 C226 1.248 . S
O245 Tb224 2.440 . S
O245 C226 1.266 . S
O246 Tb224 2.658 1_454 S
O246 Tb225 2.325 . S
O246 C233 1.281 . S
O247 Tb224 2.409 1_454 S
O247 C233 1.254 . S
O248 Tb224 2.378 1_554 S
O248 C234 1.236 . S
O249 Tb225 2.341 1_655 S
O249 C234 1.266 . S
O250 Tb225 2.484 . S
O250 C235 1.248 . S
O251 Tb225 2.440 . S
O251 C235 1.266 . S
O252 Tb224 2.325 . S
O252 Tb225 2.658 1_656 S
O252 C242 1.281 . S
O253 Tb225 2.409 1_655 S
O253 C242 1.254 1_554 S
O254 Tb225 2.378 1_556 S
O254 C243 1.236 . S
O255 Tb224 2.341 1_455 S
O255 C243 1.266 . S
H256 C228 0.929 . S
H257 C229 0.931 . S
H258 C231 0.930 . S
H259 C232 0.930 . S
H260 C237 0.929 . S
H261 C238 0.931 . S
H262 C240 0.930 . S
H263 C241 0.930 . S
C264 C265 1.363 . S
C264 C270 1.379 . S
C264 N272 1.356 . S
C265 C264 1.363 . S
C265 C271 1.363 . S
C266 C267 1.363 . S
C266 C271 1.379 . S
C266 N273 1.356 . S
C267 C266 1.363 . S
C267 C270 1.363 . S
N268 C270 1.356 . S
N268 H280 0.984 . S
N268 H281 0.985 . S
N269 C271 1.356 . S
N269 H274 0.984 . S
N269 H275 0.985 . S
C270 C264 1.379 . S
C270 C267 1.363 . S
C270 N268 1.356 . S
C271 C265 1.363 . S
C271 C266 1.379 . S
C271 N269 1.356 . S
N272 C264 1.356 . S
N272 H278 0.984 . S
N272 H279 0.984 . S
N273 C266 1.356 . S
N273 H276 0.984 . S
N273 H277 0.985 . S
H274 N269 0.984 . S
H275 N269 0.985 . S
H276 N273 0.984 . S
H277 N273 0.985 . S
H278 N272 0.984 . S
H279 N272 0.984 . S
H280 N268 0.984 . S
H281 N268 0.985 . S
C282 C283 1.363 . S
C282 C288 1.379 . S
C282 N290 1.356 . S
C283 C282 1.363 . S
C283 C289 1.363 . S
C284 C285 1.363 . S
C284 C289 1.379 . S
C284 N291 1.356 . S
C285 C284 1.363 . S
C285 C288 1.363 . S
N286 C288 1.356 . S
N286 H298 0.984 . S
N286 H299 0.985 . S
N287 C289 1.356 . S
N287 H292 0.984 . S
N287 H293 0.985 . S
C288 C282 1.379 . S
C288 C285 1.363 . S
C288 N286 1.356 . S
C289 C283 1.363 . S
C289 C284 1.379 . S
C289 N287 1.356 . S
N290 C282 1.356 . S
N290 H296 0.984 . S
N290 H297 0.984 . S
N291 C284 1.356 . S
N291 H294 0.984 . S
N291 H295 0.985 . S
H292 N287 0.984 . S
H293 N287 0.985 . S
H294 N291 0.984 . S
H295 N291 0.985 . S
H296 N290 0.984 . S
H297 N290 0.984 . S
H298 N286 0.984 . S
H299 N286 0.985 . S
C300 C301 1.363 . S
C300 C306 1.379 . S
C300 N308 1.356 . S
C301 C300 1.363 . S
C301 C307 1.363 . S
C302 C303 1.363 . S
C302 C307 1.379 . S
C302 N309 1.356 . S
C303 C302 1.363 . S
C303 C306 1.363 . S
N304 C306 1.356 . S
N304 H316 0.984 . S
N304 H317 0.985 . S
N305 C307 1.356 . S
N305 H310 0.984 . S
N305 H311 0.985 . S
C306 C300 1.379 . S
C306 C303 1.363 . S
C306 N304 1.356 . S
C307 C301 1.363 . S
C307 C302 1.379 . S
C307 N305 1.356 . S
N308 C300 1.356 . S
N308 H314 0.984 . S
N308 H315 0.984 . S
N309 C302 1.356 . S
N309 H312 0.984 . S
N309 H313 0.985 . S
H310 N305 0.984 . S
H311 N305 0.985 . S
H312 N309 0.984 . S
H313 N309 0.985 . S
H314 N308 0.984 . S
H315 N308 0.984 . S
H316 N304 0.984 . S
H317 N304 0.985 . S
C318 C319 1.363 . S
C318 C324 1.379 . S
C318 N326 1.356 . S
C319 C318 1.363 . S
C319 C325 1.363 . S
C320 C321 1.363 . S
C320 C325 1.379 . S
C320 N327 1.356 . S
C321 C320 1.363 . S
C321 C324 1.363 . S
N322 C324 1.356 . S
N322 H334 0.984 . S
N322 H335 0.985 . S
N323 C325 1.356 . S
N323 H328 0.984 . S
N323 H329 0.985 . S
C324 C318 1.379 . S
C324 C321 1.363 . S
C324 N322 1.356 . S
C325 C319 1.363 . S
C325 C320 1.379 . S
C325 N323 1.356 . S
N326 C318 1.356 . S
N326 H332 0.984 . S
N326 H333 0.984 . S
N327 C320 1.356 . S
N327 H330 0.984 . S
N327 H331 0.985 . S
H328 N323 0.984 . S
H329 N323 0.985 . S
H330 N327 0.984 . S
H331 N327 0.985 . S
H332 N326 0.984 . S
H333 N326 0.984 . S
H334 N322 0.984 . S
H335 N322 0.985 . S
C336 C337 1.363 . S
C336 C342 1.379 . S
C336 N344 1.356 . S
C337 C336 1.363 . S
C337 C343 1.363 . S
C338 C339 1.363 . S
C338 C343 1.379 . S
C338 N345 1.356 . S
C339 C338 1.363 . S
C339 C342 1.363 . S
N340 C342 1.356 . S
N340 H352 0.984 . S
N340 H353 0.985 . S
N341 C343 1.356 . S
N341 H346 0.984 . S
N341 H347 0.985 . S
C342 C336 1.379 . S
C342 C339 1.363 . S
C342 N340 1.356 . S
C343 C337 1.363 . S
C343 C338 1.379 . S
C343 N341 1.356 . S
N344 C336 1.356 . S
N344 H350 0.984 . S
N344 H351 0.984 . S
N345 C338 1.356 . S
N345 H348 0.984 . S
N345 H349 0.985 . S
H346 N341 0.984 . S
H347 N341 0.985 . S
H348 N345 0.984 . S
H349 N345 0.985 . S
H350 N344 0.984 . S
H351 N344 0.984 . S
H352 N340 0.984 . S
H353 N340 0.985 . S
C354 C355 1.363 . S
C354 C360 1.379 . S
C354 N362 1.356 . S
C355 C354 1.363 . S
C355 C361 1.363 . S
C356 C357 1.363 . S
C356 C361 1.379 . S
C356 N363 1.356 . S
C357 C356 1.363 . S
C357 C360 1.363 . S
N358 C360 1.356 . S
N358 H370 0.984 . S
N358 H371 0.985 . S
N359 C361 1.356 . S
N359 H364 0.986 1_455 S
N359 H365 0.985 1_455 S
C360 C354 1.379 . S
C360 C357 1.363 . S
C360 N358 1.356 . S
C361 C355 1.363 . S
C361 C356 1.379 . S
C361 N359 1.356 . S
N362 C354 1.356 . S
N362 H368 0.984 . S
N362 H369 0.984 . S
N363 C356 1.356 . S
N363 H366 0.984 . S
N363 H367 0.985 . S
H364 N359 0.986 1_655 S
H365 N359 0.985 1_655 S
H366 N363 0.984 . S
H367 N363 0.985 . S
H368 N362 0.984 . S
H369 N362 0.984 . S
H370 N358 0.984 . S
H371 N358 0.985 . S
C372 C373 1.363 . S
C372 C378 1.379 . S
C372 N380 1.356 . S
C373 C372 1.363 . S
C373 C379 1.363 . S
C374 C375 1.363 . S
C374 C379 1.379 . S
C374 N381 1.356 . S
C375 C374 1.363 . S
C375 C378 1.363 . S
N376 C378 1.356 1_554 S
N376 H388 0.984 . S
N376 H389 0.985 . S
N377 C379 1.356 . S
N377 H382 0.984 . S
N377 H383 0.985 . S
C378 C372 1.379 . S
C378 C375 1.363 . S
C378 N376 1.356 1_556 S
C379 C373 1.363 . S
C379 C374 1.379 . S
C379 N377 1.356 . S
N380 C372 1.356 . S
N380 H386 0.984 . S
N380 H387 0.984 . S
N381 C374 1.356 . S
N381 H384 0.984 . S
N381 H385 0.985 . S
H382 N377 0.984 . S
H383 N377 0.985 . S
H384 N381 0.984 . S
H385 N381 0.985 . S
H386 N380 0.984 . S
H387 N380 0.984 . S
H388 N376 0.984 . S
H389 N376 0.985 . S
C390 C391 1.363 . S
C390 C396 1.379 . S
C390 N398 1.356 . S
C391 C390 1.363 . S
C391 C397 1.363 . S
C392 C393 1.363 . S
C392 C397 1.379 . S
C392 N399 1.356 . S
C393 C392 1.363 . S
C393 C396 1.363 . S
N394 C396 1.356 . S
N394 H406 0.984 . S
N394 H407 0.985 . S
N395 C397 1.356 . S
N395 H400 0.984 . S
N395 H401 0.985 . S
C396 C390 1.379 . S
C396 C393 1.363 . S
C396 N394 1.356 . S
C397 C391 1.363 . S
C397 C392 1.379 . S
C397 N395 1.356 . S
N398 C390 1.356 . S
N398 H404 0.984 . S
N398 H405 0.984 . S
N399 C392 1.356 . S
N399 H402 0.984 . S
N399 H403 0.985 . S
H400 N395 0.984 . S
H401 N395 0.985 . S
H402 N399 0.984 . S
H403 N399 0.985 . S
H404 N398 0.984 . S
H405 N398 0.984 . S
H406 N394 0.984 . S
H407 N394 0.985 . S
C408 C409 1.363 . S
C408 C414 1.379 . S
C408 N416 1.356 . S
C409 C408 1.363 . S
C409 C415 1.363 . S
C410 C411 1.363 . S
C410 C415 1.379 . S
C410 N417 1.356 . S
C411 C410 1.363 . S
C411 C414 1.363 . S
N412 C414 1.356 . S
N412 H424 0.984 . S
N412 H425 0.985 . S
N413 C415 1.356 . S
N413 H418 0.984 . S
N413 H419 0.985 . S
C414 C408 1.379 . S
C414 C411 1.363 . S
C414 N412 1.356 . S
C415 C409 1.363 . S
C415 C410 1.379 . S
C415 N413 1.356 . S
N416 C408 1.356 . S
N416 H422 0.984 . S
N416 H423 0.984 . S
N417 C410 1.356 . S
N417 H420 0.984 . S
N417 H421 0.985 . S
H418 N413 0.984 . S
H419 N413 0.985 . S
H420 N417 0.984 . S
H421 N417 0.985 . S
H422 N416 0.984 . S
H423 N416 0.984 . S
H424 N412 0.984 . S
H425 N412 0.985 . S
C426 C427 1.363 . S
C426 C432 1.379 . S
C426 N434 1.356 . S
C427 C426 1.363 . S
C427 C433 1.363 . S
C428 C429 1.363 . S
C428 C433 1.379 . S
C428 N435 1.356 . S
C429 C428 1.363 . S
C429 C432 1.363 . S
N430 C432 1.356 1_554 S
N430 H442 0.984 . S
N430 H443 0.985 . S
N431 C433 1.356 . S
N431 H436 0.984 . S
N431 H437 0.985 . S
C432 C426 1.379 . S
C432 C429 1.363 . S
C432 N430 1.356 1_556 S
C433 C427 1.363 . S
C433 C428 1.379 . S
C433 N431 1.356 . S
N434 C426 1.356 . S
N434 H440 0.984 . S
N434 H441 0.984 . S
N435 C428 1.356 . S
N435 H438 0.984 . S
N435 H439 0.985 . S
H436 N431 0.984 . S
H437 N431 0.985 . S
H438 N435 0.984 . S
H439 N435 0.985 . S
H440 N434 0.984 . S
H441 N434 0.984 . S
H442 N430 0.984 . S
H443 N430 0.985 . S
C444 C445 1.363 . S
C444 C450 1.379 . S
C444 N452 1.356 . S
C445 C444 1.363 . S
C445 C451 1.363 . S
C446 C447 1.363 . S
C446 C451 1.379 . S
C446 N453 1.356 1_655 S
C447 C446 1.363 . S
C447 C450 1.363 . S
N448 C450 1.356 . S
N448 H460 0.984 . S
N448 H461 0.985 . S
N449 C451 1.356 . S
N449 H454 0.984 . S
N449 H455 0.975 1_655 S
C450 C444 1.379 . S
C450 C447 1.363 . S
C450 N448 1.356 . S
C451 C445 1.363 . S
C451 C446 1.379 . S
C451 N449 1.356 . S
N452 C444 1.356 . S
N452 H458 0.984 . S
N452 H459 0.984 . S
N453 C446 1.356 1_455 S
N453 H456 0.984 . S
N453 H457 0.985 . S
H454 N449 0.984 . S
H455 N449 0.975 1_455 S
H456 N453 0.984 . S
H457 N453 0.985 . S
H458 N452 0.984 . S
H459 N452 0.984 . S
H460 N448 0.984 . S
H461 N448 0.985 . S
C462 C463 1.363 . S
C462 C468 1.379 . S
C462 N470 1.356 . S
C463 C462 1.363 . S
C463 C469 1.363 . S
C464 C465 1.363 . S
C464 C469 1.379 . S
C464 N471 1.356 . S
C465 C464 1.363 . S
C465 C468 1.363 . S
N466 C468 1.356 . S
N466 H478 0.984 . S
N466 H479 0.985 . S
N467 C469 1.356 . S
N467 H472 0.984 . S
N467 H473 0.985 . S
C468 C462 1.379 . S
C468 C465 1.363 . S
C468 N466 1.356 . S
C469 C463 1.363 . S
C469 C464 1.379 . S
C469 N467 1.356 . S
N470 C462 1.356 . S
N470 H476 0.984 . S
N470 H477 0.984 . S
N471 C464 1.356 . S
N471 H474 0.984 . S
N471 H475 0.985 . S
H472 N467 0.984 . S
H473 N467 0.985 . S
H474 N471 0.984 . S
H475 N471 0.985 . S
H476 N470 0.984 . S
H477 N470 0.984 . S
H478 N466 0.984 . S
H479 N466 0.985 . S
C480 C481 1.363 . S
C480 C486 1.379 . S
C480 N488 1.356 . S
C481 C480 1.363 . S
C481 C487 1.363 . S
C482 C483 1.363 . S
C482 C487 1.379 . S
C482 N489 1.356 . S
C483 C482 1.363 . S
C483 C486 1.363 . S
N484 C486 1.356 . S
N484 H496 0.984 . S
N484 H497 0.985 . S
N485 C487 1.356 . S
N485 H490 0.984 . S
N485 H491 0.985 . S
C486 C480 1.379 . S
C486 C483 1.363 . S
C486 N484 1.356 . S
C487 C481 1.363 . S
C487 C482 1.379 . S
C487 N485 1.356 . S
N488 C480 1.356 . S
N488 H494 0.984 . S
N488 H495 0.984 . S
N489 C482 1.356 . S
N489 H492 0.984 . S
N489 H493 0.985 . S
H490 N485 0.984 . S
H491 N485 0.985 . S
H492 N489 0.984 . S
H493 N489 0.985 . S
H494 N488 0.984 . S
H495 N488 0.984 . S
H496 N484 0.984 . S
H497 N484 0.985 . S
C498 C499 1.363 . S
C498 C504 1.379 . S
C498 N506 1.356 . S
C499 C498 1.363 . S
C499 C505 1.363 . S
C500 C501 1.363 . S
C500 C505 1.379 . S
C500 N507 1.356 . S
C501 C500 1.363 . S
C501 C504 1.363 . S
N502 C504 1.356 . S
N502 H514 0.984 . S
N502 H515 0.985 . S
N503 C505 1.356 . S
N503 H508 0.984 . S
N503 H509 0.985 . S
C504 C498 1.379 . S
C504 C501 1.363 . S
C504 N502 1.356 . S
C505 C499 1.363 . S
C505 C500 1.379 . S
C505 N503 1.356 . S
N506 C498 1.356 . S
N506 H512 0.984 . S
N506 H513 0.984 . S
N507 C500 1.356 . S
N507 H510 0.984 . S
N507 H511 0.985 . S
H508 N503 0.984 . S
H509 N503 0.985 . S
H510 N507 0.984 . S
H511 N507 0.985 . S
H512 N506 0.984 . S
H513 N506 0.984 . S
H514 N502 0.984 . S
H515 N502 0.985 . S
C516 C517 1.363 . S
C516 C522 1.379 . S
C516 N524 1.356 . S
C517 C516 1.363 . S
C517 C523 1.363 . S
C518 C519 1.363 . S
C518 C523 1.379 . S
C518 N525 1.356 . S
C519 C518 1.363 . S
C519 C522 1.363 . S
N520 C522 1.356 . S
N520 H532 0.984 . S
N520 H533 0.985 . S
N521 C523 1.356 . S
N521 H526 0.984 . S
N521 H527 0.985 . S
C522 C516 1.379 . S
C522 C519 1.363 . S
C522 N520 1.356 . S
C523 C517 1.363 . S
C523 C518 1.379 . S
C523 N521 1.356 . S
N524 C516 1.356 . S
N524 H530 0.984 . S
N524 H531 0.984 . S
N525 C518 1.356 . S
N525 H528 0.984 . S
N525 H529 0.985 . S
H526 N521 0.984 . S
H527 N521 0.985 . S
H528 N525 0.984 . S
H529 N525 0.985 . S
H530 N524 0.984 . S
H531 N524 0.984 . S
H532 N520 0.984 . S
H533 N520 0.985 . S
C534 C535 1.363 . S
C534 C540 1.379 . S
C534 N542 1.356 . S
C535 C534 1.363 . S
C535 C541 1.363 . S
C536 C537 1.363 . S
C536 C541 1.379 . S
C536 N543 1.356 . S
C537 C536 1.363 . S
C537 C540 1.363 . S
N538 C540 1.356 . S
N538 H550 0.984 . S
N538 H551 0.985 . S
N539 C541 1.356 . S
N539 H544 0.984 . S
N539 H545 0.985 . S
C540 C534 1.379 . S
C540 C537 1.363 . S
C540 N538 1.356 . S
C541 C535 1.363 . S
C541 C536 1.379 . S
C541 N539 1.356 . S
N542 C534 1.356 . S
N542 H548 0.984 . S
N542 H549 0.984 . S
N543 C536 1.356 . S
N543 H546 0.984 . S
N543 H547 0.985 . S
H544 N539 0.984 . S
H545 N539 0.985 . S
H546 N543 0.984 . S
H547 N543 0.985 . S
H548 N542 0.984 . S
H549 N542 0.984 . S
H550 N538 0.984 . S
H551 N538 0.985 . S
C552 C553 1.363 . S
C552 C558 1.379 . S
C552 N560 1.356 . S
C553 C552 1.363 . S
C553 C559 1.363 . S
C554 C555 1.363 . S
C554 C559 1.379 . S
C554 N561 1.356 . S
C555 C554 1.363 . S
C555 C558 1.363 . S
N556 C558 1.356 1_554 S
N556 H568 0.984 . S
N556 H569 0.985 . S
N557 C559 1.356 . S
N557 H562 0.984 . S
N557 H563 0.985 . S
C558 C552 1.379 . S
C558 C555 1.363 . S
C558 N556 1.356 1_556 S
C559 C553 1.363 . S
C559 C554 1.379 . S
C559 N557 1.356 . S
N560 C552 1.356 . S
N560 H566 0.984 1_556 S
N560 H567 0.984 . S
N561 C554 1.356 . S
N561 H564 0.984 1_565 S
N561 H565 0.985 1_565 S
H562 N557 0.984 . S
H563 N557 0.985 . S
H564 N561 0.984 1_545 S
H565 N561 0.985 1_545 S
H566 N560 0.984 1_554 S
H567 N560 0.984 . S
H568 N556 0.984 . S
H569 N556 0.985 . S
C570 C571 1.363 . S
C570 C576 1.379 . S
C570 N578 1.356 . S
C571 C570 1.363 . S
C571 C577 1.363 1_655 S
C572 C573 1.363 . S
C572 C577 1.379 . S
C572 N579 1.356 . S
C573 C572 1.363 . S
C573 C576 1.363 1_455 S
N574 C576 1.356 . S
N574 H586 0.984 . S
N574 H587 0.985 . S
N575 C577 1.356 . S
N575 H580 0.984 . S
N575 H581 0.985 . S
C576 C570 1.379 . S
C576 C573 1.363 1_655 S
C576 N574 1.356 . S
C577 C571 1.363 1_455 S
C577 C572 1.379 . S
C577 N575 1.356 . S
N578 C570 1.356 . S
N578 H584 0.984 . S
N578 H585 0.984 . S
N579 C572 1.356 . S
N579 H582 0.984 . S
N579 H583 0.985 . S
H580 N575 0.984 . S
H581 N575 0.985 . S
H582 N579 0.984 . S
H583 N579 0.985 . S
H584 N578 0.984 . S
H585 N578 0.984 . S
H586 N574 0.984 . S
H587 N574 0.985 . S
C588 C589 1.363 . S
C588 C594 1.379 . S
C588 N596 1.356 . S
C589 C588 1.363 . S
C589 C595 1.363 . S
C590 C591 1.363 . S
C590 C595 1.379 . S
C590 N597 1.356 . S
C591 C590 1.363 . S
C591 C594 1.363 . S
N592 C594 1.356 . S
N592 H604 0.984 . S
N592 H605 0.985 . S
N593 C595 1.356 . S
N593 H598 0.984 . S
N593 H599 0.985 . S
C594 C588 1.379 . S
C594 C591 1.363 . S
C594 N592 1.356 . S
C595 C589 1.363 . S
C595 C590 1.379 . S
C595 N593 1.356 . S
N596 C588 1.356 . S
N596 H602 0.984 . S
N596 H603 0.984 . S
N597 C590 1.356 . S
N597 H600 0.984 . S
N597 H601 0.985 . S
H598 N593 0.984 . S
H599 N593 0.985 . S
H600 N597 0.984 . S
H601 N597 0.985 . S
H602 N596 0.984 . S
H603 N596 0.984 . S
H604 N592 0.984 . S
H605 N592 0.985 . S
C606 C607 1.363 . S
C606 C612 1.379 . S
C606 N614 1.356 . S
C607 C606 1.363 . S
C607 C613 1.363 . S
C608 C609 1.363 . S
C608 C613 1.379 . S
C608 N615 1.356 . S
C609 C608 1.363 . S
C609 C612 1.363 . S
N610 C612 1.356 . S
N610 H622 0.984 . S
N610 H623 0.985 . S
N611 C613 1.356 . S
N611 H616 0.984 . S
N611 H617 0.985 . S
C612 C606 1.379 . S
C612 C609 1.363 . S
C612 N610 1.356 . S
C613 C607 1.363 . S
C613 C608 1.379 . S
C613 N611 1.356 . S
N614 C606 1.356 . S
N614 H620 0.984 . S
N614 H621 0.984 . S
N615 C608 1.356 . S
N615 H618 0.984 . S
N615 H619 0.985 . S
H616 N611 0.984 . S
H617 N611 0.985 . S
H618 N615 0.984 . S
H619 N615 0.985 . S
H620 N614 0.984 . S
H621 N614 0.984 . S
H622 N610 0.984 . S
H623 N610 0.985 . S
C624 C625 1.363 . S
C624 C630 1.379 . S
C624 N632 1.356 . S
C625 C624 1.363 . S
C625 C631 1.363 . S
C626 C627 1.363 . S
C626 C631 1.379 . S
C626 N633 1.356 . S
C627 C626 1.363 . S
C627 C630 1.363 . S
N628 C630 1.356 . S
N628 H640 0.984 . S
N628 H641 0.985 . S
N629 C631 1.356 . S
N629 H634 0.984 . S
N629 H635 0.985 . S
C630 C624 1.379 . S
C630 C627 1.363 . S
C630 N628 1.356 . S
C631 C625 1.363 . S
C631 C626 1.379 . S
C631 N629 1.356 . S
N632 C624 1.356 . S
N632 H638 0.984 . S
N632 H639 0.984 . S
N633 C626 1.356 . S
N633 H636 0.984 . S
N633 H637 0.985 . S
H634 N629 0.984 . S
H635 N629 0.985 . S
H636 N633 0.984 . S
H637 N633 0.985 . S
H638 N632 0.984 . S
H639 N632 0.984 . S
H640 N628 0.984 . S
H641 N628 0.985 . S
C642 C643 1.363 . S
C642 C648 1.379 . S
C642 N650 1.356 . S
C643 C642 1.363 . S
C643 C649 1.363 . S
C644 C645 1.363 . S
C644 C649 1.379 . S
C644 N651 1.356 . S
C645 C644 1.363 . S
C645 C648 1.363 . S
N646 C648 1.356 . S
N646 H658 0.984 . S
N646 H659 0.985 . S
N647 C649 1.356 . S
N647 H652 0.984 . S
N647 H653 0.985 . S
C648 C642 1.379 . S
C648 C645 1.363 . S
C648 N646 1.356 . S
C649 C643 1.363 . S
C649 C644 1.379 . S
C649 N647 1.356 . S
N650 C642 1.356 . S
N650 H656 0.984 . S
N650 H657 0.984 . S
N651 C644 1.356 . S
N651 H654 0.984 . S
N651 H655 0.985 . S
H652 N647 0.984 . S
H653 N647 0.985 . S
H654 N651 0.984 . S
H655 N651 0.985 . S
H656 N650 0.984 . S
H657 N650 0.984 . S
H658 N646 0.984 . S
H659 N646 0.985 . S
C660 C661 1.363 . S
C660 C666 1.379 . S
C660 N668 1.356 . S
C661 C660 1.363 . S
C661 C667 1.363 . S
C662 C663 1.363 . S
C662 C667 1.379 . S
C662 N669 1.356 . S
C663 C662 1.363 . S
C663 C666 1.363 . S
N664 C666 1.356 . S
N664 H676 0.984 . S
N664 H677 0.985 . S
N665 C667 1.356 . S
N665 H670 0.984 . S
N665 H671 0.985 . S
C666 C660 1.379 . S
C666 C663 1.363 . S
C666 N664 1.356 . S
C667 C661 1.363 . S
C667 C662 1.379 . S
C667 N665 1.356 . S
N668 C660 1.356 . S
N668 H674 0.984 . S
N668 H675 0.984 . S
N669 C662 1.356 . S
N669 H672 0.984 . S
N669 H673 0.985 . S
H670 N665 0.984 . S
H671 N665 0.985 . S
H672 N669 0.984 . S
H673 N669 0.985 . S
H674 N668 0.984 . S
H675 N668 0.984 . S
H676 N664 0.984 . S
H677 N664 0.985 . S
C678 C679 1.363 . S
C678 C684 1.379 . S
C678 N686 1.356 . S
C679 C678 1.363 . S
C679 C685 1.363 . S
C680 C681 1.363 . S
C680 C685 1.379 . S
C680 N687 1.356 . S
C681 C680 1.363 . S
C681 C684 1.363 . S
N682 C684 1.356 . S
N682 H694 0.984 . S
N682 H695 0.985 . S
N683 C685 1.356 . S
N683 H688 0.984 . S
N683 H689 0.985 . S
C684 C678 1.379 . S
C684 C681 1.363 . S
C684 N682 1.356 . S
C685 C679 1.363 . S
C685 C680 1.379 . S
C685 N683 1.356 . S
N686 C678 1.356 . S
N686 H692 0.984 . S
N686 H693 0.984 . S
N687 C680 1.356 . S
N687 H690 0.984 . S
N687 H691 0.985 . S
H688 N683 0.984 . S
H689 N683 0.985 . S
H690 N687 0.984 . S
H691 N687 0.985 . S
H692 N686 0.984 . S
H693 N686 0.984 . S
H694 N682 0.984 . S
H695 N682 0.985 . S
C265 N1 1.084 . S
C267 C119 1.131 . S
C283 N18 1.008 . S
C285 C159 1.065 . S
C303 C193 2.065 . S
C301 N28 2.082 . S
C319 N40 2.828 . S
C321 C234 2.821 . S
C339 C154 1.638 . S
C337 N5 1.592 . S
C357 C114 1.740 . S
C355 N14 1.573 . S
C375 C242 1.789 . S
C373 N31 1.802 . S
C393 C203 1.666 . S
C391 N41 1.720 . S
C409 N2 1.325 . S
C411 C239 1.349 . S
C429 C162 2.273 1_556 S
C427 N27 2.332 . S
C445 N44 2.502 . S
C447 C122 2.530 . S
C463 N15 1.247 . S
C465 C190 1.304 . S
C483 C110 1.589 . S
C481 N57 1.668 . S
C499 N70 0.934 . S
C501 C150 1.019 . S
C517 N79 2.279 . S
C519 C202 2.386 . S
C535 N93 2.620 . S
C537 C243 2.528 . S
C553 N54 1.346 . S
C555 C163 1.456 1_556 S
C573 C123 2.221 . S
C571 N66 2.175 . S
C591 C233 1.501 . S
C589 N80 1.483 . S
C609 C194 1.804 . S
C607 N96 1.898 . S
C625 N53 1.465 . S
C627 C230 1.528 . S
C645 C153 1.879 . S
C643 N83 1.855 . S
C663 C113 2.476 . S
C661 N92 2.659 . S
C679 N67 1.584 . S
C681 C199 1.640 . S
