# Generated by pormake.
# Topology pth, (4,4)-cn, num edge types: 1
# Building blocks:
#     Node 0, Type 0, BuildingBlock: QUQFOY_clean_sbu_1, # of connection points: 4
#     Node 1, Type 0, BuildingBlock: QUQFOY_clean_sbu_1, # of connection points: 4
#     Node 2, Type 0, BuildingBlock: QUQFOY_clean_sbu_1, # of connection points: 4
#     Node 3, Type 1, BuildingBlock: NAHDIM_clean_linker_0, # of connection points: 4
#     Node 4, Type 1, BuildingBlock: NAHDIM_clean_linker_0, # of connection points: 4
#     Node 5, Type 1, BuildingBlock: NAHDIM_clean_linker_0, # of connection points: 4
#     Edge 6, Type (0, 1), BuildingBlock: KIFKEQ_clean_linker_1, # of connection points: 2
#     Edge 7, Type (0, 1), BuildingBlock: KIFKEQ_clean_linker_1, # of connection points: 2
#     Edge 8, Type (0, 1), BuildingBlock: KIFKEQ_clean_linker_1, # of connection points: 2
#     Edge 9, Type (0, 1), BuildingBlock: KIFKEQ_clean_linker_1, # of connection points: 2
#     Edge 10, Type (0, 1), BuildingBlock: KIFKEQ_clean_linker_1, # of connection points: 2
#     Edge 11, Type (0, 1), BuildingBlock: KIFKEQ_clean_linker_1, # of connection points: 2
#     Edge 12, Type (0, 1), BuildingBlock: KIFKEQ_clean_linker_1, # of connection points: 2
#     Edge 13, Type (0, 1), BuildingBlock: KIFKEQ_clean_linker_1, # of connection points: 2
#     Edge 14, Type (0, 1), BuildingBlock: KIFKEQ_clean_linker_1, # of connection points: 2
#     Edge 15, Type (0, 1), BuildingBlock: KIFKEQ_clean_linker_1, # of connection points: 2
#     Edge 16, Type (0, 1), BuildingBlock: KIFKEQ_clean_linker_1, # of connection points: 2
#     Edge 17, Type (0, 1), BuildingBlock: KIFKEQ_clean_linker_1, # of connection points: 2
# Relax obj value: 0.027
# Max RMSD: 0.121
# Mean RMSD: 0.078
data_MOF--net-pth--node1-QUQFOY_clean_sbu_1--node2-NAHDIM_clean_linker_0--edge1-KIFKEQ_clean_linker_1
_symmetry_space_group_name_H-M    P1
_symmetry_Int_Tables_number       1
_symmetry_cell_setting            triclinic
loop_
_symmetry_equiv_pos_as_xyz
'x, y, z'
_cell_length_a     31.066741
_cell_length_b     33.722892
_cell_length_c     84.362603
_cell_angle_alpha  89.678663
_cell_angle_beta   90.610544
_cell_angle_gamma 120.0352
loop_
_atom_site_label
_atom_site_type_symbol
_atom_site_fract_x
_atom_site_fract_y
_atom_site_fract_z
_atom_type_partial_charge
O0 O 0.06895 0.11692 0.0548 0.0
Cd1 Cd 0.00925 0.07606 0.06907 0.0
Cd2 Cd 0.05279 0.02563 0.06835 0.0
O3 O 0.11305 0.08309 0.059 0.0
O4 O 0.9861 0.11812 0.07655 0.0
O5 O 0.01639 0.08588 0.09267 0.0
C6 C 0.99946 0.11363 0.09067 0.0
C7 C 0.05993 0.98549 0.08984 0.0
C8 C 0.10874 0.11556 0.05296 0.0
C9 C 0.95438 0.98952 0.05138 0.0
O10 O 0.9941 0.98776 0.05305 0.0
O11 O 0.94976 0.02049 0.05834 0.0
O12 O 0.07457 0.98229 0.0759 0.0
O13 O 0.04307 0.01325 0.09174 0.0
O14 O 0.99324 0.09291 0.41299 0.0
Cd15 Cd 0.05145 0.0929 0.40159 0.0
Cd16 Cd 0.98618 0.00282 0.3993 0.0
O17 O 0.93613 0.02237 0.40667 0.0
O18 O 0.09598 0.15755 0.39495 0.0
O19 O 0.05278 0.10116 0.37795 0.0
C20 C 0.08195 0.14439 0.38055 0.0
C21 C 0.96799 0.95156 0.37839 0.0
C22 C 0.94813 0.06093 0.41284 0.0
C23 C 0.07636 0.03197 0.42018 0.0
O24 O 0.03304 1.00041 0.41624 0.0
O25 O 0.09365 0.07213 0.41455 0.0
O26 O 0.9454 0.9384 0.39176 0.0
O27 O 0.99961 0.99462 0.37658 0.0
O28 O 0.98264 0.01811 0.70347 0.0
Cd29 Cd 0.01219 0.99172 0.71962 0.0
Cd30 Cd 0.08326 0.08075 0.72195 0.0
O31 O 0.03668 0.09135 0.70717 0.0
O32 O 0.95622 0.93009 0.72542 0.0
O33 O 0.99289 0.98717 0.74255 0.0
C34 C 0.9588 0.94545 0.73957 0.0
C35 C 0.11454 0.12446 0.74491 0.0
C36 C 0.99765 0.06001 0.70048 0.0
C37 C 0.11405 0.0151 0.70944 0.0
O38 O 0.12609 0.05648 0.71206 0.0
O39 O 0.07022 0.98291 0.71235 0.0
O40 O 0.1322 0.14119 0.73116 0.0
O41 O 0.07806 0.08277 0.74563 0.0
C42 C 0.89769 0.69405 0.29101 0.0
C43 C 0.92946 0.69733 0.30557 0.0
C44 C 0.98514 0.6717 0.29487 0.0
C45 C 0.03391 0.68612 0.2903 0.0
C46 C 0.04649 0.65577 0.28317 0.0
C47 C 0.00905 0.60985 0.28037 0.0
C48 C 0.95991 0.59452 0.28542 0.0
C49 C 0.9485 0.62543 0.29272 0.0
C50 C 0.09949 0.67309 0.27823 0.0
C51 C 0.91913 0.54569 0.2827 0.0
C52 C 0.16751 0.40517 0.29142 0.0
C53 C 0.13521 0.4006 0.30576 0.0
C54 C 0.07846 0.42548 0.29485 0.0
C55 C 0.02941 0.41059 0.29017 0.0
C56 C 0.01596 0.44073 0.28313 0.0
C57 C 0.05283 0.4869 0.28047 0.0
C58 C 0.10223 0.50269 0.28567 0.0
C59 C 0.11449 0.47199 0.29292 0.0
C60 C 0.96266 0.4229 0.27808 0.0
C61 C 0.14243 0.55179 0.28313 0.0
C62 C 0.04691 0.41 0.17909 0.0
C63 C 0.00166 0.40049 0.18582 0.0
C64 C 0.99707 0.43496 0.19354 0.0
C65 C 0.03883 0.47969 0.1947 0.0
C66 C 0.08406 0.48962 0.18747 0.0
C67 C 0.08724 0.45468 0.17955 0.0
C68 C 0.94765 0.42347 0.20056 0.0
C69 C 0.12928 0.53686 0.18842 0.0
C70 C 0.97763 0.75844 0.18758 0.0
C71 C 0.01897 0.76192 0.17692 0.0
C72 C 0.01051 0.68613 0.17847 0.0
C73 C 0.97014 0.64148 0.1789 0.0
C74 C 0.97337 0.60662 0.18706 0.0
C75 C 0.01869 0.6166 0.19454 0.0
C76 C 0.06045 0.66131 0.19344 0.0
C77 C 0.0558 0.6957 0.1855 0.0
C78 C 0.92815 0.5594 0.18792 0.0
C79 C 0.10997 0.67286 0.20073 0.0
C80 C 0.02033 0.57878 0.27111 0.0
C81 C 0.03073 0.54826 0.27931 0.0
C82 C 0.04073 0.51773 0.27117 0.0
C83 C 0.04007 0.51729 0.25438 0.0
C84 C 0.04963 0.48689 0.24581 0.0
C85 C 0.04804 0.48613 0.22932 0.0
C86 C 0.03767 0.51627 0.22073 0.0
C87 C 0.03545 0.51541 0.20396 0.0
C88 C 0.02869 0.5481 0.19576 0.0
C89 C 0.0223 0.58083 0.20389 0.0
C90 C 0.02084 0.58001 0.22066 0.0
C91 C 0.01091 0.6102 0.2292 0.0
C92 C 0.01017 0.60952 0.24569 0.0
C93 C 0.0201 0.57912 0.25432 0.0
C94 C 0.02985 0.54817 0.24595 0.0
C95 C 0.02944 0.54814 0.2291 0.0
C96 C 0.07915 0.33727 0.18893 0.0
C97 C 0.03816 0.33405 0.17785 0.0
O98 O 0.97523 0.70363 0.30098 0.0
O99 O 0.00505 0.71893 0.17085 0.0
O100 O 0.05239 0.37714 0.17172 0.0
O101 O 0.08921 0.39374 0.30085 0.0
H102 H 0.90921 0.66497 0.31246 0.0
H103 H 0.88818 0.66307 0.28393 0.0
H104 H 0.9179 0.72437 0.28319 0.0
H105 H 0.86233 0.69169 0.2948 0.0
H106 H 0.06213 0.72164 0.29212 0.0
H107 H 0.9107 0.61315 0.29642 0.0
H108 H 0.11229 0.64948 0.28252 0.0
H109 H 0.12521 0.70803 0.28284 0.0
H110 H 0.10153 0.67401 0.26509 0.0
H111 H 0.88268 0.53904 0.28725 0.0
H112 H 0.92908 0.52188 0.28865 0.0
H113 H 0.91525 0.53788 0.26982 0.0
H114 H 0.15495 0.43274 0.31281 0.0
H115 H 0.20265 0.407 0.29543 0.0
H116 H 0.17745 0.43688 0.28467 0.0
H117 H 0.14753 0.37573 0.28321 0.0
H118 H 0.00165 0.37488 0.29184 0.0
H119 H 0.15247 0.48463 0.29673 0.0
H120 H 0.94969 0.44634 0.28222 0.0
H121 H 0.93742 0.38799 0.28276 0.0
H122 H 0.96006 0.42168 0.26494 0.0
H123 H 0.17924 0.55872 0.28768 0.0
H124 H 0.13231 0.57508 0.28919 0.0
H125 H 0.14565 0.56005 0.27028 0.0
H126 H 0.00345 0.32092 0.18481 0.0
H127 H 0.96967 0.3664 0.18486 0.0
H128 H 0.12176 0.46177 0.17405 0.0
H129 H 0.9505 0.42379 0.21369 0.0
H130 H 0.9173 0.38918 0.19677 0.0
H131 H 0.93757 0.4496 0.19705 0.0
H132 H 0.16253 0.53827 0.18306 0.0
H133 H 0.1378 0.54792 0.20099 0.0
H134 H 0.12153 0.56167 0.18214 0.0
H135 H 0.0535 0.77504 0.18419 0.0
H136 H 0.9882 0.79246 0.19268 0.0
H137 H 0.97131 0.73444 0.19752 0.0
H138 H 0.94236 0.74556 0.18074 0.0
H139 H 0.93558 0.63433 0.17318 0.0
H140 H 0.08778 0.72978 0.18458 0.0
H141 H 0.92004 0.54823 0.20048 0.0
H142 H 0.93565 0.53462 0.18168 0.0
H143 H 0.89474 0.55807 0.18248 0.0
H144 H 0.14029 0.70709 0.19696 0.0
H145 H 0.11997 0.64666 0.19743 0.0
H146 H 0.10735 0.67273 0.21384 0.0
H147 H 0.0311 0.54832 0.29216 0.0
H148 H 0.05814 0.46305 0.25172 0.0
H149 H 0.05544 0.46179 0.2234 0.0
H150 H 0.02844 0.54809 0.1829 0.0
H151 H 0.00325 0.63452 0.22322 0.0
H152 H 0.00203 0.63344 0.25156 0.0
H153 H 0.11458 0.35013 0.1824 0.0
H154 H 0.06833 0.30318 0.19408 0.0
H155 H 0.0853 0.36119 0.19882 0.0
C156 C 0.3662 0.90535 0.67472 0.0
C157 C 0.36798 0.94296 0.66407 0.0
C158 C 0.38853 0.94763 0.636 0.0
C159 C 0.41566 0.9954 0.63421 0.0
C160 C 0.44803 0.01548 0.62138 0.0
C161 C 0.45359 0.98714 0.61024 0.0
C162 C 0.42528 0.93888 0.61186 0.0
C163 C 0.39234 0.91982 0.62458 0.0
C164 C 0.47673 0.06696 0.61984 0.0
C165 C 0.43073 0.90737 0.60045 0.0
C166 C 0.84138 0.17235 0.60782 0.0
C167 C 0.80666 0.13733 0.61997 0.0
C168 C 0.72676 0.08522 0.60676 0.0
C169 C 0.69562 0.0397 0.60223 0.0
C170 C 0.64716 0.02448 0.59663 0.0
C171 C 0.62966 0.05585 0.59542 0.0
C172 C 0.66124 0.10223 0.59968 0.0
C173 C 0.70958 0.11655 0.60527 0.0
C174 C 0.6145 0.97482 0.59212 0.0
C175 C 0.64371 0.13657 0.59839 0.0
C176 C 0.62628 0.06584 0.48676 0.0
C177 C 0.59571 0.0207 0.49171 0.0
C178 C 0.56316 0.01021 0.50447 0.0
C179 C 0.5605 0.04591 0.5123 0.0
C180 C 0.59114 0.09178 0.50732 0.0
C181 C 0.62413 0.10139 0.49471 0.0
C182 C 0.5313 0.96089 0.50948 0.0
C183 C 0.58862 0.13058 0.51525 0.0
C184 C 0.15662 0.91782 0.52398 0.0
C185 C 0.20701 0.95287 0.51716 0.0
C186 C 0.28539 0.95183 0.51922 0.0
C187 C 0.30453 0.92261 0.52167 0.0
C188 C 0.35455 0.93984 0.52587 0.0
C189 C 0.38619 0.98766 0.52763 0.0
C190 C 0.36758 0.01764 0.52461 0.0
C191 C 0.31737 0.99945 0.52031 0.0
C192 C 0.37342 0.90692 0.52867 0.0
C193 C 0.40065 0.06884 0.52611 0.0
C194 C 0.49116 0.00775 0.59747 0.0
C195 C 0.54087 0.02369 0.60157 0.0
C196 C 0.57789 0.0399 0.59007 0.0
C197 C 0.56517 0.03963 0.57392 0.0
C198 C 0.60116 0.05377 0.56197 0.0
C199 C 0.58799 0.05217 0.54606 0.0
C200 C 0.5385 0.03717 0.54152 0.0
C201 C 0.52458 0.03489 0.52537 0.0
C202 C 0.47499 0.01965 0.52129 0.0
C203 C 0.43851 0.00609 0.5329 0.0
C204 C 0.45163 0.00806 0.5491 0.0
C205 C 0.4158 0.99461 0.56108 0.0
C206 C 0.42873 0.995 0.57695 0.0
C207 C 0.47798 0.00899 0.58144 0.0
C208 C 0.51504 0.02428 0.56961 0.0
C209 C 0.50178 0.02347 0.5534 0.0
C210 C 0.67196 0.1357 0.45696 0.0
C211 C 0.69369 0.11453 0.46837 0.0
O212 O 0.3583 0.92724 0.64855 0.0
O213 O 0.23609 0.93257 0.51583 0.0
O214 O 0.65636 0.07308 0.47417 0.0
O215 O 0.77285 0.09711 0.61237 0.0
H216 H 0.40624 0.97301 0.66523 0.0
H217 H 0.39455 0.89665 0.67085 0.0
H218 H 0.32899 0.87392 0.67406 0.0
H219 H 0.37438 0.91721 0.68723 0.0
H220 H 0.41141 0.01697 0.64278 0.0
H221 H 0.37071 0.88296 0.626 0.0
H222 H 0.51662 0.07969 0.62249 0.0
H223 H 0.46317 0.0838 0.62809 0.0
H224 H 0.474 0.07724 0.60751 0.0
H225 H 0.41059 0.87114 0.60447 0.0
H226 H 0.47061 0.9182 0.59897 0.0
H227 H 0.41574 0.90928 0.58865 0.0
H228 H 0.78673 0.15191 0.62644 0.0
H229 H 0.86861 0.2046 0.61387 0.0
H230 H 0.81964 0.18046 0.5992 0.0
H231 H 0.86185 0.15866 0.60119 0.0
H232 H 0.70932 0.01588 0.60328 0.0
H233 H 0.73355 0.15217 0.60836 0.0
H234 H 0.60201 0.9723 0.57959 0.0
H235 H 0.58077 0.95902 0.59961 0.0
H236 H 0.63393 0.95488 0.59353 0.0
H237 H 0.67296 0.17158 0.60195 0.0
H238 H 0.61079 0.12572 0.60604 0.0
H239 H 0.63198 0.13771 0.586 0.0
H240 H 0.7127 0.13876 0.47835 0.0
H241 H 0.59755 0.99351 0.48552 0.0
H242 H 0.64742 0.13658 0.49106 0.0
H243 H 0.53445 0.95758 0.52249 0.0
H244 H 0.54175 0.93786 0.50338 0.0
H245 H 0.49176 0.9493 0.50667 0.0
H246 H 0.61258 0.16403 0.50936 0.0
H247 H 0.60061 0.1332 0.52782 0.0
H248 H 0.54967 0.12357 0.51515 0.0
H249 H 0.22391 0.98173 0.52578 0.0
H250 H 0.13254 0.93326 0.52528 0.0
H251 H 0.16199 0.90654 0.53587 0.0
H252 H 0.13751 0.88726 0.51617 0.0
H253 H 0.27974 0.88598 0.52055 0.0
H254 H 0.3035 0.02257 0.51781 0.0
H255 H 0.38469 0.90853 0.54129 0.0
H256 H 0.40681 0.91689 0.52135 0.0
H257 H 0.34493 0.871 0.5258 0.0
H258 H 0.38034 0.08756 0.52367 0.0
H259 H 0.43202 0.0809 0.5177 0.0
H260 H 0.4168 0.07752 0.53826 0.0
H261 H 0.5508 0.02272 0.61388 0.0
H262 H 0.63983 0.06571 0.56477 0.0
H263 H 0.61714 0.06288 0.53737 0.0
H264 H 0.46446 0.01743 0.50888 0.0
H265 H 0.37724 0.98324 0.55831 0.0
H266 H 0.39958 0.984 0.58566 0.0
H267 H 0.65127 0.11186 0.44707 0.0
H268 H 0.70222 0.16822 0.45197 0.0
H269 H 0.64589 0.1435 0.46324 0.0
C270 C 0.6299 0.73382 0.80023 0.0
C271 C 0.67268 0.75226 0.8124 0.0
C272 C 0.64115 0.68701 0.83101 0.0
C273 C 0.60286 0.69241 0.83752 0.0
C274 C 0.56868 0.65989 0.84814 0.0
C275 C 0.57334 0.62167 0.85255 0.0
C276 C 0.6126 0.61682 0.84636 0.0
C277 C 0.64592 0.64956 0.83566 0.0
C278 C 0.52731 0.66612 0.85457 0.0
C279 C 0.61904 0.57676 0.85093 0.0
C280 C 0.24935 0.2912 0.85862 0.0
C281 C 0.281 0.30925 0.84366 0.0
C282 C 0.33533 0.3925 0.84628 0.0
C283 C 0.38174 0.39487 0.84755 0.0
C284 C 0.42344 0.43419 0.85362 0.0
C285 C 0.41884 0.47212 0.85827 0.0
C286 C 0.37285 0.47073 0.85623 0.0
C287 C 0.33174 0.43094 0.85018 0.0
C288 C 0.47229 0.43502 0.8553 0.0
C289 C 0.36688 0.51088 0.86082 0.0
C290 C 0.39472 0.40793 0.96293 0.0
C291 C 0.43439 0.40899 0.95468 0.0
C292 C 0.4653 0.44646 0.94505 0.0
C293 C 0.45594 0.48328 0.94342 0.0
C294 C 0.41653 0.48262 0.95188 0.0
C295 C 0.38675 0.44508 0.96165 0.0
C296 C 0.50789 0.4466 0.93654 0.0
C297 C 0.40549 0.52127 0.95043 0.0
C298 C 0.72749 0.82692 0.9509 0.0
C299 C 0.70663 0.79786 0.96592 0.0
C300 C 0.66762 0.71906 0.95538 0.0
C301 C 0.67468 0.68165 0.9533 0.0
C302 C 0.64011 0.64277 0.94484 0.0
C303 C 0.59686 0.64104 0.93852 0.0
C304 C 0.58921 0.67867 0.94064 0.0
C305 C 0.62492 0.71752 0.94889 0.0
C306 C 0.64971 0.60346 0.94271 0.0
C307 C 0.54295 0.67762 0.93435 0.0
C308 C 0.53674 0.58623 0.8634 0.0
C309 C 0.49599 0.54774 0.85665 0.0
C310 C 0.46125 0.51212 0.86612 0.0
C311 C 0.4673 0.51455 0.88279 0.0
C312 C 0.43377 0.47874 0.89263 0.0
C313 C 0.44024 0.48118 0.909 0.0
C314 C 0.48022 0.5197 0.91619 0.0
C315 C 0.48736 0.5223 0.93281 0.0
C316 C 0.52581 0.56211 0.93965 0.0
C317 C 0.55855 0.59917 0.93029 0.0
C318 C 0.55379 0.59618 0.91357 0.0
C319 C 0.58786 0.63163 0.90375 0.0
C320 C 0.58261 0.62836 0.88731 0.0
C321 C 0.54269 0.5898 0.88009 0.0
C322 C 0.50793 0.55368 0.88979 0.0
C323 C 0.51396 0.55655 0.90653 0.0
C324 C 0.33092 0.30325 0.95672 0.0
C325 C 0.3563 0.328 0.97222 0.0
O326 O 0.67387 0.7164 0.82015 0.0
O327 O 0.70281 0.75546 0.96375 0.0
O328 O 0.36317 0.37196 0.97213 0.0
O329 O 0.29358 0.35444 0.84107 0.0
H330 H 0.66769 0.77401 0.82122 0.0
H331 H 0.59341 0.71379 0.80611 0.0
H332 H 0.63372 0.71121 0.79151 0.0
H333 H 0.62986 0.76264 0.79379 0.0
H334 H 0.59905 0.7216 0.83432 0.0
H335 H 0.67571 0.64578 0.8307 0.0
H336 H 0.49079 0.63566 0.85164 0.0
H337 H 0.52801 0.69714 0.84973 0.0
H338 H 0.53042 0.66894 0.86768 0.0
H339 H 0.65298 0.57918 0.84573 0.0
H340 H 0.58619 0.54443 0.84683 0.0
H341 H 0.62122 0.5748 0.86403 0.0
H342 H 0.31432 0.30599 0.84593 0.0
H343 H 0.2356 0.25401 0.86013 0.0
H344 H 0.21722 0.29703 0.85816 0.0
H345 H 0.27234 0.30946 0.86917 0.0
H346 H 0.38606 0.36656 0.84369 0.0
H347 H 0.2961 0.42923 0.84883 0.0
H348 H 0.50139 0.46431 0.8485 0.0
H349 H 0.47 0.40292 0.85102 0.0
H350 H 0.48421 0.44013 0.86794 0.0
H351 H 0.3296 0.50555 0.85758 0.0
H352 H 0.39572 0.5425 0.85493 0.0
H353 H 0.37238 0.51643 0.87382 0.0
H354 H 0.39281 0.32965 0.97357 0.0
H355 H 0.44159 0.38086 0.95568 0.0
H356 H 0.35629 0.44412 0.96812 0.0
H357 H 0.50037 0.44354 0.92358 0.0
H358 H 0.51354 0.41794 0.94037 0.0
H359 H 0.54286 0.47947 0.93866 0.0
H360 H 0.37134 0.51406 0.95689 0.0
H361 H 0.40095 0.52756 0.93775 0.0
H362 H 0.43728 0.55318 0.95528 0.0
H363 H 0.6695 0.79345 0.96857 0.0
H364 H 0.72999 0.86074 0.95234 0.0
H365 H 0.70281 0.80953 0.94058 0.0
H366 H 0.76509 0.83237 0.94833 0.0
H367 H 0.70772 0.68313 0.95832 0.0
H368 H 0.61878 0.74614 0.95028 0.0
H369 H 0.64489 0.59303 0.93005 0.0
H370 H 0.62226 0.57353 0.94966 0.0
H371 H 0.68768 0.61229 0.9467 0.0
H372 H 0.5403 0.70771 0.93827 0.0
H373 H 0.50929 0.64592 0.93834 0.0
H374 H 0.543 0.6772 0.9212 0.0
H375 H 0.49146 0.54531 0.84386 0.0
H376 H 0.40225 0.44823 0.88779 0.0
H377 H 0.41332 0.45254 0.91596 0.0
H378 H 0.53038 0.56424 0.95244 0.0
H379 H 0.61917 0.66218 0.90866 0.0
H380 H 0.61007 0.6566 0.88034 0.0
H381 H 0.3251 0.26794 0.95671 0.0
H382 H 0.35432 0.32161 0.94638 0.0
H383 H 0.29435 0.30138 0.95525 0.0
H384 H 0.98366 0.186 0.08863 0.0
H385 H 0.01462 0.10644 0.1224 0.0
H386 H 0.99043 0.23795 0.10974 0.0
H387 H 0.02089 0.15849 0.14359 0.0
H388 H 0.97934 0.24089 0.17858 0.0
H389 H 0.96631 0.18507 0.15791 0.0
H390 H 0.06416 0.29527 0.12694 0.0
H391 H 0.078 0.35085 0.14762 0.0
C392 C 0.9913 0.17923 0.10059 0.0
C393 C 0.99875 0.14214 0.10383 0.0
C394 C 0.99547 0.20919 0.11265 0.0
C395 C 0.0065 0.2024 0.12826 0.0
C396 C 0.01216 0.16439 0.13165 0.0
C397 C 0.00868 0.1347 0.11953 0.0
C398 C 0.99768 0.25309 0.16729 0.0
C399 C 0.02866 0.3003 0.16461 0.0
C400 C 0.99048 0.22121 0.15553 0.0
C401 C 0.01387 0.23593 0.1408 0.0
C402 C 0.04502 0.28306 0.13811 0.0
C403 C 0.05284 0.31488 0.14995 0.0
H404 H 0.85225 0.99705 0.42024 0.0
H405 H 0.95761 0.14224 0.42225 0.0
H406 H 0.79101 0.00967 0.43366 0.0
H407 H 0.89598 0.1551 0.43511 0.0
H408 H 0.79486 0.15733 0.47319 0.0
H409 H 0.8553 0.14371 0.45972 0.0
H410 H 0.73767 0.04082 0.43047 0.0
H411 H 0.67711 0.05321 0.44448 0.0
C412 C 0.86215 0.03172 0.42339 0.0
C413 C 0.90988 0.0686 0.42024 0.0
C414 C 0.82695 0.03902 0.43102 0.0
C415 C 0.83852 0.08342 0.43555 0.0
C416 C 0.88602 0.12034 0.43211 0.0
C417 C 0.92131 0.113 0.42462 0.0
C418 C 0.78199 0.13172 0.46392 0.0
C419 C 0.73128 0.10633 0.4599 0.0
C420 C 0.81665 0.12413 0.45609 0.0
C421 C 0.80148 0.09125 0.44394 0.0
C422 C 0.75067 0.06595 0.4399 0.0
C423 C 0.71599 0.07328 0.44782 0.0
H424 H 0.88413 0.85692 0.73646 0.0
H425 H 0.95002 0.96854 0.77004 0.0
H426 H 0.81958 0.8109 0.75537 0.0
H427 H 0.88565 0.92187 0.7892 0.0
H428 H 0.72387 0.84557 0.80864 0.0
H429 H 0.79678 0.89198 0.79233 0.0
H430 H 0.80306 0.77067 0.78019 0.0
H431 H 0.72942 0.7243 0.79615 0.0
C432 C 0.88524 0.87147 0.74797 0.0
C433 C 0.92216 0.91651 0.7517 0.0
C434 C 0.84832 0.8449 0.75888 0.0
C435 C 0.84735 0.86262 0.77383 0.0
C436 C 0.88497 0.90735 0.77772 0.0
C437 C 0.92203 0.93399 0.76678 0.0
C438 C 0.74146 0.82906 0.8027 0.0
C439 C 0.7214 0.78143 0.80388 0.0
C440 C 0.78331 0.85562 0.79339 0.0
C441 C 0.80584 0.83509 0.78494 0.0
C442 C 0.78637 0.78755 0.78641 0.0
C443 C 0.74448 0.76101 0.79568 0.0
H444 H 0.0437 0.99104 0.12143 0.0
H445 H 0.07437 0.91236 0.08779 0.0
H446 H 0.03664 0.93797 0.14252 0.0
H447 H 0.06683 0.85934 0.10881 0.0
H448 H 0.97969 0.74553 0.14637 0.0
H449 H 0.9936 0.80146 0.12566 0.0
H450 H 0.09093 0.91116 0.15715 0.0
H451 H 0.07778 0.85503 0.17785 0.0
C452 C 0.04933 0.9627 0.11856 0.0
C453 C 0.05954 0.95589 0.10294 0.0
C454 C 0.04542 0.93243 0.13064 0.0
C455 C 0.0509 0.89442 0.12726 0.0
C456 C 0.06195 0.8881 0.11171 0.0
C457 C 0.06657 0.91866 0.0997 0.0
C458 C 0.00476 0.78147 0.1488 0.0
C459 C 0.02872 0.79582 0.16363 0.0
C460 C 0.01263 0.81349 0.13695 0.0
C461 C 0.04361 0.8606 0.13978 0.0
C462 C 0.06686 0.87506 0.15466 0.0
C463 C 0.05961 0.84299 0.16644 0.0
H464 H 0.16266 0.09293 0.43562 0.0
H465 H 0.05412 0.94871 0.43219 0.0
H466 H 0.20353 0.07672 0.45759 0.0
H467 H 0.09424 0.93281 0.45418 0.0
H468 H 0.19034 0.90997 0.48822 0.0
H469 H 0.16803 0.9317 0.46311 0.0
H470 H 0.18152 0.05268 0.48527 0.0
H471 H 0.20491 0.03132 0.51025 0.0
C472 C 0.14788 0.05776 0.4394 0.0
C473 C 0.10487 0.02217 0.43222 0.0
C474 C 0.17112 0.04853 0.45205 0.0
C475 C 0.15202 0.00351 0.45769 0.0
C476 C 0.11032 0.9678 0.45003 0.0
C477 C 0.08705 0.977 0.43748 0.0
C478 C 0.18964 0.94173 0.48759 0.0
C479 C 0.19978 0.96921 0.50114 0.0
C480 C 0.1765 0.95401 0.47327 0.0
C481 C 0.17277 0.99382 0.4722 0.0
C482 C 0.18471 0.02215 0.48561 0.0
C483 C 0.19789 0.00986 0.49994 0.0
H484 H 0.20387 0.20295 0.74766 0.0
H485 H 0.07589 0.10824 0.77486 0.0
H486 H 0.24281 0.2474 0.77158 0.0
H487 H 0.1149 0.15343 0.79883 0.0
H488 H 0.18609 0.28301 0.8324 0.0
H489 H 0.14432 0.23764 0.8088 0.0
H490 H 0.27534 0.23017 0.79771 0.0
H491 H 0.31675 0.27439 0.82152 0.0
C492 C 0.18389 0.19179 0.75873 0.0
C493 C 0.13683 0.15205 0.75939 0.0
C494 C 0.20633 0.21713 0.77242 0.0
C495 C 0.18188 0.20371 0.78702 0.0
C496 C 0.13438 0.16455 0.78768 0.0
C497 C 0.11221 0.13867 0.774 0.0
C498 C 0.20567 0.27097 0.82511 0.0
C499 C 0.25426 0.28109 0.82912 0.0
C500 C 0.18178 0.24515 0.81159 0.0
C501 C 0.20653 0.23019 0.80154 0.0
C502 C 0.25545 0.24129 0.80529 0.0
C503 C 0.27901 0.26638 0.81893 0.0
H504 H 0.01348 0.14548 0.69302 0.0
H505 H 0.919 0.00209 0.6817 0.0
H506 H 0.96866 0.16526 0.67351 0.0
H507 H 0.87417 0.02197 0.66234 0.0
H508 H 0.84427 0.0792 0.61682 0.0
H509 H 0.89101 0.0616 0.63631 0.0
H510 H 0.88456 0.15595 0.66929 0.0
H511 H 0.83788 0.17366 0.64973 0.0
C512 C 0.98312 0.11818 0.68642 0.0
C513 C 0.96991 0.07219 0.68891 0.0
C514 C 0.95732 0.12953 0.6753 0.0
C515 C 0.91804 0.09518 0.66636 0.0
C516 C 0.90471 0.04923 0.6689 0.0
C517 C 0.93023 0.03785 0.68008 0.0
C518 C 0.85259 0.09593 0.62827 0.0
C519 C 0.83639 0.12696 0.63192 0.0
C520 C 0.87925 0.08582 0.63943 0.0
C521 C 0.89096 0.10703 0.65438 0.0
C522 C 0.87616 0.13915 0.65785 0.0
C523 C 0.8492 0.14905 0.64672 0.0
H524 H 0.85693 0.96822 0.04943 0.0
H525 H 0.96372 0.93879 0.02816 0.0
H526 H 0.79423 0.91815 0.03017 0.0
H527 H 0.90251 0.89113 0.00846 0.0
H528 H 0.77611 0.78115 0.98112 0.0
H529 H 0.8309 0.82273 0.00309 0.0
H530 H 0.77183 0.91479 0.00348 0.0
H531 H 0.71432 0.87083 0.98216 0.0
C532 C 0.86699 0.95109 0.04063 0.0
C533 C 0.91521 0.95739 0.04034 0.0
C534 C 0.83119 0.92265 0.02949 0.0
C535 C 0.8431 0.90051 0.01765 0.0
C536 C 0.89135 0.90662 0.01754 0.0
C537 C 0.92673 0.93431 0.02882 0.0
C538 C 0.77408 0.80973 0.98605 0.0
C539 C 0.74028 0.82235 0.97998 0.0
C540 C 0.80609 0.83405 0.99858 0.0
C541 C 0.80625 0.87247 0.0051 0.0
C542 C 0.77232 0.88497 0.99904 0.0
C543 C 0.73961 0.86006 0.98671 0.0
H544 H 0.88845 0.86577 0.3749 0.0
H545 H 0.03065 0.95979 0.35445 0.0
H546 H 0.87918 0.80629 0.3567 0.0
H547 H 0.02292 0.89958 0.33674 0.0
H548 H 0.97716 0.78974 0.29857 0.0
H549 H 0.98407 0.85224 0.31486 0.0
H550 H 0.90957 0.75656 0.35304 0.0
H551 H 0.90004 0.69409 0.33637 0.0
C552 C 0.91773 0.87371 0.36646 0.0
C553 C 0.9603 0.91739 0.36612 0.0
C554 C 0.91274 0.83941 0.35612 0.0
C555 C 0.95069 0.84759 0.34537 0.0
C556 C 0.99265 0.89191 0.34471 0.0
C557 C 0.9972 0.92652 0.3549 0.0
C558 C 0.96201 0.78218 0.31042 0.0
C559 C 0.93737 0.73685 0.31609 0.0
C560 C 0.96632 0.81807 0.31984 0.0
C561 C 0.94689 0.80966 0.33528 0.0
C562 C 0.92375 0.76442 0.34108 0.0
C563 C 0.91875 0.72852 0.33158 0.0
H564 H 0.20781 0.07595 0.69937 0.0
H565 H 0.10425 0.93088 0.70394 0.0
H566 H 0.26821 0.05942 0.68759 0.0
H567 H 0.16536 0.91435 0.69253 0.0
H568 H 0.26733 0.89989 0.6575 0.0
H569 H 0.20606 0.91783 0.668 0.0
H570 H 0.32223 0.03037 0.69462 0.0
H571 H 0.38343 0.01314 0.68371 0.0
C572 C 0.19801 0.04049 0.69797 0.0
C573 C 0.15113 0.00474 0.70262 0.0
C574 C 0.2328 0.03101 0.69126 0.0
C575 C 0.22174 0.98555 0.6891 0.0
C576 C 0.17487 0.94976 0.69379 0.0
C577 C 0.13994 0.95924 0.70045 0.0
C578 C 0.27975 0.92894 0.66538 0.0
C579 C 0.3303 0.95579 0.66952 0.0
C580 C 0.24463 0.9389 0.67155 0.0
C581 C 0.25917 0.97559 0.68216 0.0
C582 C 0.30979 0.00239 0.68627 0.0
C583 C 0.34488 0.99253 0.68005 0.0
H584 H 0.10101 0.17338 0.03206 0.0
H585 H 0.20586 0.13604 0.05075 0.0
H586 H 0.16308 0.22637 0.01384 0.0
H587 H 0.26945 0.19126 0.033 0.0
H588 H 0.34895 0.25125 0.98577 0.0
H589 H 0.29201 0.20232 0.00622 0.0
H590 H 0.23557 0.29577 0.01072 0.0
H591 H 0.28987 0.34261 0.98959 0.0
C592 C 0.13775 0.17715 0.03249 0.0
C593 C 0.14845 0.15039 0.04284 0.0
C594 C 0.17364 0.20793 0.02208 0.0
C595 C 0.22163 0.21346 0.0219 0.0
C596 C 0.23273 0.18745 0.03257 0.0
C597 C 0.19641 0.156 0.04285 0.0
C598 C 0.32457 0.26138 0.99127 0.0
C599 C 0.3244 0.30102 0.98615 0.0
C600 C 0.29213 0.23354 0.00308 0.0
C601 C 0.25891 0.24488 0.01018 0.0
C602 C 0.25983 0.28533 0.00535 0.0
C603 C 0.29157 0.31265 0.99334 0.0
H604 H 0.16171 0.23081 0.37946 0.0
H605 H 0.03028 0.13591 0.35323 0.0
H606 H 0.17669 0.29104 0.36055 0.0
H607 H 0.04317 0.19665 0.3348 0.0
H608 H 0.09479 0.30916 0.29788 0.0
H609 H 0.08707 0.24663 0.31446 0.0
H610 H 0.14618 0.33931 0.35437 0.0
H611 H 0.15714 0.40215 0.33745 0.0
C612 C 0.13616 0.22282 0.36956 0.0
C613 C 0.09483 0.17872 0.36782 0.0
C614 C 0.14432 0.25752 0.3588 0.0
C615 C 0.11064 0.24929 0.34623 0.0
C616 C 0.0703 0.20448 0.34418 0.0
C617 C 0.06278 0.16951 0.35477 0.0
C618 C 0.1068 0.31621 0.31014 0.0
C619 C 0.1277 0.3609 0.31624 0.0
C620 C 0.10185 0.28019 0.31974 0.0
C621 C 0.11649 0.28767 0.33581 0.0
C622 C 0.1359 0.3322 0.34198 0.0
C623 C 0.1417 0.36831 0.33231 0.0
loop_
_geom_bond_atom_site_label_1
_geom_bond_atom_site_label_2
_geom_bond_distance
_geom_bond_site_symmetry_2
_ccdc_geom_bond_type
O0 Cd1 2.223 1_455 S
O0 C8 1.315 . S
Cd1 O0 2.223 1_655 S
Cd1 O4 2.297 . S
Cd1 O5 2.439 1_655 S
Cd1 O11 2.240 1_545 S
Cd2 O3 2.240 . S
Cd2 O10 2.223 1_545 S
Cd2 O12 2.297 1_545 S
Cd2 O13 2.439 1_545 S
O3 Cd2 2.240 . S
O3 C8 1.279 . S
O4 Cd1 2.297 . S
O4 C6 1.247 1_655 S
O5 Cd1 2.439 1_455 S
O5 C6 1.208 . S
C6 O4 1.247 1_455 S
C6 O5 1.208 . S
C7 O12 1.247 . S
C7 O13 1.208 . S
C8 O0 1.315 . S
C8 O3 1.279 . S
C9 O10 1.315 1_655 S
C9 O11 1.279 . S
O10 Cd2 2.223 1_565 S
O10 C9 1.315 1_455 S
O11 Cd1 2.240 1_565 S
O11 C9 1.279 . S
O12 Cd2 2.297 1_565 S
O12 C7 1.247 . S
O13 Cd2 2.439 1_565 S
O13 C7 1.208 . S
O14 Cd15 2.223 . S
O14 C22 1.315 1_455 S
Cd15 O14 2.223 . S
Cd15 O18 2.297 . S
Cd15 O19 2.439 . S
Cd15 O25 2.240 . S
Cd16 O17 2.240 1_565 S
Cd16 O24 2.223 1_655 S
Cd16 O26 2.297 1_655 S
Cd16 O27 2.439 1_655 S
O17 Cd16 2.240 1_545 S
O17 C22 1.279 . S
O18 Cd15 2.297 . S
O18 C20 1.247 . S
O19 Cd15 2.439 . S
O19 C20 1.208 . S
C20 O18 1.247 . S
C20 O19 1.208 . S
C21 O26 1.247 . S
C21 O27 1.208 . S
C22 O14 1.315 1_655 S
C22 O17 1.279 . S
C23 O24 1.315 1_545 S
C23 O25 1.279 . S
O24 Cd16 2.223 1_455 S
O24 C23 1.315 1_565 S
O25 Cd15 2.240 . S
O25 C23 1.279 . S
O26 Cd16 2.297 1_455 S
O26 C21 1.247 . S
O27 Cd16 2.439 1_455 S
O27 C21 1.208 . S
O28 Cd29 2.223 . S
O28 C36 1.315 1_565 S
Cd29 O28 2.223 . S
Cd29 O32 2.297 . S
Cd29 O33 2.439 . S
Cd29 O39 2.240 1_665 S
Cd30 O31 2.240 1_455 S
Cd30 O38 2.223 . S
Cd30 O40 2.297 . S
Cd30 O41 2.439 . S
O31 Cd30 2.240 1_655 S
O31 C36 1.279 . S
O32 Cd29 2.297 . S
O32 C34 1.247 . S
O33 Cd29 2.439 . S
O33 C34 1.208 . S
C34 O32 1.247 . S
C34 O33 1.208 . S
C35 O40 1.247 . S
C35 O41 1.208 . S
C36 O28 1.315 1_545 S
C36 O31 1.279 . S
C37 O38 1.315 . S
C37 O39 1.279 . S
O38 Cd30 2.223 . S
O38 C37 1.315 . S
O39 Cd29 2.240 1_445 S
O39 C37 1.279 . S
O40 Cd30 2.297 . S
O40 C35 1.247 . S
O41 Cd30 2.439 . S
O41 C35 1.208 . S
C42 C43 1.560 . S
C42 H103 0.959 . S
C42 H104 0.959 . S
C42 H105 0.960 . S
C43 C42 1.560 . S
C43 O98 1.426 . S
C43 H102 0.980 1_655 S
C44 C45 1.407 1_655 S
C44 C49 1.418 . S
C44 O98 1.334 . S
C45 C44 1.407 1_455 S
C45 C46 1.360 . S
C45 H106 0.929 . S
C46 C45 1.360 . S
C46 C47 1.401 . S
C46 C50 1.527 . S
C47 C46 1.401 . S
C47 C48 1.405 1_455 S
C47 C80 1.587 . S
C48 C47 1.405 1_655 S
C48 C49 1.332 . S
C48 C51 1.496 . S
C49 C44 1.418 . S
C49 C48 1.332 . S
C49 H107 0.929 . S
C50 C46 1.527 . S
C50 H108 0.959 . S
C50 H109 0.961 . S
C50 H110 0.961 . S
C51 C48 1.496 . S
C51 H111 0.960 . S
C51 H112 0.960 . S
C51 H113 0.961 . S
C52 C53 1.517 . S
C52 H115 0.961 . S
C52 H116 0.960 . S
C52 H117 0.959 . S
C53 C52 1.517 . S
C53 O101 1.468 . S
C53 H114 0.980 . S
C54 C55 1.349 . S
C54 C59 1.367 . S
C54 O101 1.408 . S
C55 C54 1.349 . S
C55 C56 1.407 . S
C55 H118 0.930 . S
C56 C55 1.407 . S
C56 C57 1.449 . S
C56 C60 1.535 1_455 S
C57 C56 1.449 . S
C57 C58 1.384 . S
C57 C82 1.553 . S
C58 C57 1.384 . S
C58 C59 1.364 . S
C58 C61 1.450 . S
C59 C54 1.367 . S
C59 C58 1.364 . S
C59 H119 0.931 . S
C60 C56 1.535 1_655 S
C60 H120 0.959 . S
C60 H121 0.961 . S
C60 H122 0.959 . S
C61 C58 1.450 . S
C61 H123 0.960 . S
C61 H124 0.960 . S
C61 H125 0.960 . S
C62 C63 1.309 . S
C62 C67 1.304 . S
C62 O100 1.435 . S
C63 C62 1.309 . S
C63 C64 1.476 . S
C63 H127 0.930 1_455 S
C64 C63 1.476 . S
C64 C65 1.400 . S
C64 C68 1.567 1_455 S
C65 C64 1.400 . S
C65 C66 1.373 . S
C65 C87 1.432 . S
C66 C65 1.373 . S
C66 C67 1.339 . S
C66 C69 1.530 . S
C67 C62 1.304 . S
C67 C66 1.339 . S
C67 H128 0.930 . S
C68 C64 1.567 1_655 S
C68 H129 0.961 . S
C68 H130 0.960 . S
C68 H131 0.958 . S
C69 C66 1.530 . S
C69 H132 0.961 . S
C69 H133 0.960 . S
C69 H134 0.960 . S
C70 C71 1.530 1_655 S
C70 H136 0.961 . S
C70 H137 0.961 . S
C70 H138 0.959 . S
C71 C70 1.530 1_455 S
C71 O99 1.412 1_455 S
C71 H135 0.980 . S
C72 C73 1.288 . S
C72 C77 1.377 1_655 S
C72 O99 1.393 . S
C73 C72 1.288 . S
C73 C74 1.369 . S
C73 H139 0.932 . S
C74 C73 1.369 . S
C74 C75 1.398 1_655 S
C74 C78 1.527 . S
C75 C74 1.398 1_455 S
C75 C76 1.380 . S
C75 C89 1.497 . S
C76 C75 1.380 . S
C76 C77 1.383 . S
C76 C79 1.603 . S
C77 C72 1.377 1_455 S
C77 C76 1.383 . S
C77 H140 0.929 . S
C78 C74 1.527 . S
C78 H141 0.961 . S
C78 H142 0.959 . S
C78 H143 0.959 . S
C79 C76 1.603 . S
C79 H144 0.960 . S
C79 H145 0.962 . S
C79 H146 0.961 . S
C80 C47 1.587 . S
C80 C81 1.360 . S
C80 C93 1.412 . S
C81 C80 1.360 . S
C81 C82 1.365 . S
C81 H147 0.929 . S
C82 C57 1.553 . S
C82 C81 1.365 . S
C82 C83 1.404 . S
C83 C82 1.404 . S
C83 C84 1.395 . S
C83 C94 1.451 . S
C84 C83 1.395 . S
C84 C85 1.322 . S
C84 H148 0.930 . S
C85 C84 1.322 . S
C85 C86 1.459 . S
C85 H149 0.929 . S
C86 C85 1.459 . S
C86 C87 1.445 . S
C86 C95 1.395 . S
C87 C65 1.432 . S
C87 C86 1.445 . S
C87 C88 1.370 . S
C88 C87 1.370 . S
C88 C89 1.438 . S
C88 H150 0.930 . S
C89 C75 1.497 . S
C89 C88 1.438 . S
C89 C90 1.360 . S
C90 C89 1.360 . S
C90 C91 1.401 . S
C90 C95 1.446 . S
C91 C90 1.401 . S
C91 C92 1.347 . S
C91 H151 0.929 . S
C92 C91 1.347 . S
C92 C93 1.455 . S
C92 H152 0.930 . S
C93 C80 1.412 . S
C93 C92 1.455 . S
C93 C94 1.331 . S
C94 C83 1.451 . S
C94 C93 1.331 . S
C94 C95 1.497 . S
C95 C86 1.395 . S
C95 C90 1.446 . S
C95 C94 1.497 . S
C96 C97 1.582 . S
C96 H153 0.962 . S
C96 H154 0.959 . S
C96 H155 0.958 . S
C97 C96 1.582 . S
C97 O100 1.458 . S
C97 H126 0.980 . S
O98 C43 1.426 . S
O98 C44 1.334 . S
O99 C71 1.412 1_655 S
O99 C72 1.393 . S
O100 C62 1.435 . S
O100 C97 1.458 . S
O101 C53 1.468 . S
O101 C54 1.408 . S
H102 C43 0.980 1_455 S
H103 C42 0.959 . S
H104 C42 0.959 . S
H105 C42 0.960 . S
H106 C45 0.929 . S
H107 C49 0.929 . S
H108 C50 0.959 . S
H109 C50 0.961 . S
H110 C50 0.961 . S
H111 C51 0.960 . S
H112 C51 0.960 . S
H113 C51 0.961 . S
H114 C53 0.980 . S
H115 C52 0.961 . S
H116 C52 0.960 . S
H117 C52 0.959 . S
H118 C55 0.930 . S
H119 C59 0.931 . S
H120 C60 0.959 . S
H121 C60 0.961 . S
H122 C60 0.959 . S
H123 C61 0.960 . S
H124 C61 0.960 . S
H125 C61 0.960 . S
H126 C97 0.980 . S
H127 C63 0.930 1_655 S
H128 C67 0.930 . S
H129 C68 0.961 . S
H130 C68 0.960 . S
H131 C68 0.958 . S
H132 C69 0.961 . S
H133 C69 0.960 . S
H134 C69 0.960 . S
H135 C71 0.980 . S
H136 C70 0.961 . S
H137 C70 0.961 . S
H138 C70 0.959 . S
H139 C73 0.932 . S
H140 C77 0.929 . S
H141 C78 0.961 . S
H142 C78 0.959 . S
H143 C78 0.959 . S
H144 C79 0.960 . S
H145 C79 0.962 . S
H146 C79 0.961 . S
H147 C81 0.929 . S
H148 C84 0.930 . S
H149 C85 0.929 . S
H150 C88 0.930 . S
H151 C91 0.929 . S
H152 C92 0.930 . S
H153 C96 0.962 . S
H154 C96 0.959 . S
H155 C96 0.958 . S
C156 C157 1.560 1_565 S
C156 H217 0.959 . S
C156 H218 0.959 . S
C156 H219 0.944 1_565 S
C157 C156 1.560 1_545 S
C157 O212 1.426 1_545 S
C157 H216 0.980 . S
C158 C159 1.407 . S
C158 C163 1.418 1_545 S
C158 O212 1.334 1_545 S
C159 C158 1.407 . S
C159 C160 1.360 . S
C159 H220 0.929 . S
C160 C159 1.360 . S
C160 C161 1.401 . S
C160 C164 1.527 . S
C161 C160 1.401 . S
C161 C162 1.405 . S
C161 C194 1.587 . S
C162 C161 1.405 . S
C162 C163 1.332 1_545 S
C162 C165 1.496 1_545 S
C163 C158 1.418 1_565 S
C163 C162 1.332 1_565 S
C163 H221 0.929 . S
C164 C160 1.527 . S
C164 H222 0.959 . S
C164 H223 0.961 . S
C164 H224 0.961 . S
C165 C162 1.496 1_565 S
C165 H225 0.960 . S
C165 H226 0.960 . S
C165 H227 0.961 . S
C166 C167 1.517 . S
C166 H229 0.961 . S
C166 H230 0.960 . S
C166 H231 0.959 . S
C167 C166 1.517 . S
C167 O215 1.468 . S
C167 H228 0.980 . S
C168 C169 1.349 . S
C168 C173 1.367 . S
C168 O215 1.408 . S
C169 C168 1.349 . S
C169 C170 1.407 . S
C169 H232 0.930 . S
C170 C169 1.407 . S
C170 C171 1.449 . S
C170 C174 1.535 . S
C171 C170 1.449 . S
C171 C172 1.384 . S
C171 C196 1.553 . S
C172 C171 1.384 . S
C172 C173 1.364 . S
C172 C175 1.450 . S
C173 C168 1.367 . S
C173 C172 1.364 . S
C173 H233 0.931 . S
C174 C170 1.535 . S
C174 H234 0.959 . S
C174 H235 0.961 1_545 S
C174 H236 0.959 1_545 S
C175 C172 1.450 . S
C175 H237 0.960 . S
C175 H238 0.960 . S
C175 H239 0.960 . S
C176 C177 1.309 . S
C176 C181 1.304 . S
C176 O214 1.435 . S
C177 C176 1.309 . S
C177 C178 1.476 . S
C177 H241 0.930 . S
C178 C177 1.476 . S
C178 C179 1.400 . S
C178 C182 1.567 1_545 S
C179 C178 1.400 . S
C179 C180 1.373 . S
C179 C201 1.432 . S
C180 C179 1.373 . S
C180 C181 1.339 . S
C180 C183 1.530 . S
C181 C176 1.304 . S
C181 C180 1.339 . S
C181 H242 0.930 . S
C182 C178 1.567 1_565 S
C182 H243 0.961 . S
C182 H244 0.960 . S
C182 H245 0.958 . S
C183 C180 1.530 . S
C183 H246 0.961 . S
C183 H247 0.960 . S
C183 H248 0.960 . S
C184 C185 1.530 . S
C184 H250 0.961 . S
C184 H251 0.961 1_545 S
C184 H252 0.959 1_545 S
C185 C184 1.530 . S
C185 O213 1.412 . S
C185 H249 0.980 . S
C186 C187 1.288 1_545 S
C186 C191 1.377 . S
C186 O213 1.393 . S
C187 C186 1.288 1_565 S
C187 C188 1.368 . S
C187 H253 0.932 . S
C188 C187 1.368 . S
C188 C189 1.394 1_565 S
C188 C192 1.533 . S
C189 C188 1.394 1_545 S
C189 C190 1.380 . S
C189 C203 1.497 . S
C190 C189 1.380 . S
C190 C191 1.383 . S
C190 C193 1.603 . S
C191 C186 1.377 . S
C191 C190 1.383 . S
C191 H254 0.929 . S
C192 C188 1.533 . S
C192 H255 0.961 . S
C192 H256 0.959 . S
C192 H257 0.959 . S
C193 C190 1.603 . S
C193 H258 0.960 . S
C193 H259 0.962 . S
C193 H260 0.961 . S
C194 C161 1.587 . S
C194 C195 1.360 . S
C194 C207 1.412 . S
C195 C194 1.360 . S
C195 C196 1.365 . S
C195 H261 0.929 . S
C196 C171 1.553 . S
C196 C195 1.365 . S
C196 C197 1.404 . S
C197 C196 1.404 . S
C197 C198 1.395 . S
C197 C208 1.451 . S
C198 C197 1.395 . S
C198 C199 1.322 . S
C198 H262 0.930 . S
C199 C198 1.322 . S
C199 C200 1.459 . S
C199 H263 0.929 . S
C200 C199 1.459 . S
C200 C201 1.445 . S
C200 C209 1.395 . S
C201 C179 1.432 . S
C201 C200 1.445 . S
C201 C202 1.370 . S
C202 C201 1.370 . S
C202 C203 1.438 . S
C202 H264 0.930 . S
C203 C189 1.497 . S
C203 C202 1.438 . S
C203 C204 1.360 . S
C204 C203 1.360 . S
C204 C205 1.401 . S
C204 C209 1.446 . S
C205 C204 1.401 . S
C205 C206 1.347 . S
C205 H265 0.929 . S
C206 C205 1.347 . S
C206 C207 1.455 . S
C206 H266 0.930 . S
C207 C194 1.412 . S
C207 C206 1.455 . S
C207 C208 1.331 . S
C208 C197 1.451 . S
C208 C207 1.331 . S
C208 C209 1.497 . S
C209 C200 1.395 . S
C209 C204 1.446 . S
C209 C208 1.497 . S
C210 C211 1.582 . S
C210 H267 0.962 . S
C210 H268 0.959 . S
C210 H269 0.958 . S
C211 C210 1.582 . S
C211 O214 1.458 . S
C211 H240 0.980 . S
O212 C157 1.426 1_565 S
O212 C158 1.334 1_565 S
O213 C185 1.412 . S
O213 C186 1.393 . S
O214 C176 1.435 . S
O214 C211 1.458 . S
O215 C167 1.468 . S
O215 C168 1.408 . S
H216 C157 0.980 . S
H217 C156 0.959 . S
H218 C156 0.959 . S
H219 C156 0.944 1_545 S
H220 C159 0.929 . S
H221 C163 0.929 . S
H222 C164 0.959 . S
H223 C164 0.961 . S
H224 C164 0.961 . S
H225 C165 0.960 . S
H226 C165 0.960 . S
H227 C165 0.961 . S
H228 C167 0.980 . S
H229 C166 0.961 . S
H230 C166 0.960 . S
H231 C166 0.959 . S
H232 C169 0.930 . S
H233 C173 0.931 . S
H234 C174 0.959 . S
H235 C174 0.961 1_565 S
H236 C174 0.959 1_565 S
H237 C175 0.960 . S
H238 C175 0.960 . S
H239 C175 0.960 . S
H240 C211 0.980 . S
H241 C177 0.930 . S
H242 C181 0.930 . S
H243 C182 0.961 . S
H244 C182 0.960 . S
H245 C182 0.958 . S
H246 C183 0.961 . S
H247 C183 0.960 . S
H248 C183 0.960 . S
H249 C185 0.980 . S
H250 C184 0.961 . S
H251 C184 0.961 1_565 S
H252 C184 0.959 1_565 S
H253 C187 0.932 . S
H254 C191 0.929 . S
H255 C192 0.961 . S
H256 C192 0.959 . S
H257 C192 0.959 . S
H258 C193 0.960 . S
H259 C193 0.962 . S
H260 C193 0.961 . S
H261 C195 0.929 . S
H262 C198 0.930 . S
H263 C199 0.929 . S
H264 C202 0.930 . S
H265 C205 0.929 . S
H266 C206 0.930 . S
H267 C210 0.962 . S
H268 C210 0.959 . S
H269 C210 0.958 . S
C270 C271 1.560 . S
C270 H331 0.959 . S
C270 H332 0.959 . S
C270 H333 0.960 . S
C271 C270 1.560 . S
C271 O326 1.426 . S
C271 H330 0.980 . S
C272 C273 1.407 . S
C272 C277 1.418 . S
C272 O326 1.334 . S
C273 C272 1.407 . S
C273 C274 1.360 . S
C273 H334 0.929 . S
C274 C273 1.360 . S
C274 C275 1.401 . S
C274 C278 1.527 . S
C275 C274 1.401 . S
C275 C276 1.405 . S
C275 C308 1.587 . S
C276 C275 1.405 . S
C276 C277 1.332 . S
C276 C279 1.496 . S
C277 C272 1.418 . S
C277 C276 1.332 . S
C277 H335 0.929 . S
C278 C274 1.527 . S
C278 H336 0.959 . S
C278 H337 0.961 . S
C278 H338 0.961 . S
C279 C276 1.496 . S
C279 H339 0.960 . S
C279 H340 0.960 . S
C279 H341 0.961 . S
C280 C281 1.517 . S
C280 H343 0.961 . S
C280 H344 0.960 . S
C280 H345 0.959 . S
C281 C280 1.517 . S
C281 O329 1.468 . S
C281 H342 0.980 . S
C282 C283 1.349 . S
C282 C287 1.367 . S
C282 O329 1.408 . S
C283 C282 1.349 . S
C283 C284 1.407 . S
C283 H346 0.930 . S
C284 C283 1.407 . S
C284 C285 1.449 . S
C284 C288 1.535 . S
C285 C284 1.449 . S
C285 C286 1.384 . S
C285 C310 1.553 . S
C286 C285 1.384 . S
C286 C287 1.364 . S
C286 C289 1.450 . S
C287 C282 1.367 . S
C287 C286 1.364 . S
C287 H347 0.931 . S
C288 C284 1.535 . S
C288 H348 0.959 . S
C288 H349 0.961 . S
C288 H350 0.959 . S
C289 C286 1.450 . S
C289 H351 0.960 . S
C289 H352 0.960 . S
C289 H353 0.960 . S
C290 C291 1.309 . S
C290 C295 1.304 . S
C290 O328 1.435 . S
C291 C290 1.309 . S
C291 C292 1.476 . S
C291 H355 0.930 . S
C292 C291 1.476 . S
C292 C293 1.400 . S
C292 C296 1.567 . S
C293 C292 1.400 . S
C293 C294 1.373 . S
C293 C315 1.432 . S
C294 C293 1.373 . S
C294 C295 1.339 . S
C294 C297 1.530 . S
C295 C290 1.304 . S
C295 C294 1.339 . S
C295 H356 0.930 . S
C296 C292 1.567 . S
C296 H357 0.961 . S
C296 H358 0.960 . S
C296 H359 0.958 . S
C297 C294 1.530 . S
C297 H360 0.961 . S
C297 H361 0.960 . S
C297 H362 0.960 . S
C298 C299 1.530 . S
C298 H364 0.961 . S
C298 H365 0.961 . S
C298 H366 0.959 . S
C299 C298 1.530 . S
C299 O327 1.412 . S
C299 H363 0.980 . S
C300 C301 1.288 . S
C300 C305 1.377 . S
C300 O327 1.393 . S
C301 C300 1.288 . S
C301 C302 1.369 . S
C301 H367 0.932 . S
C302 C301 1.369 . S
C302 C303 1.398 . S
C302 C306 1.527 . S
C303 C302 1.398 . S
C303 C304 1.380 . S
C303 C317 1.497 . S
C304 C303 1.380 . S
C304 C305 1.383 . S
C304 C307 1.603 . S
C305 C300 1.377 . S
C305 C304 1.383 . S
C305 H368 0.929 . S
C306 C302 1.527 . S
C306 H369 0.961 . S
C306 H370 0.959 . S
C306 H371 0.959 . S
C307 C304 1.603 . S
C307 H372 0.960 . S
C307 H373 0.962 . S
C307 H374 0.961 . S
C308 C275 1.587 . S
C308 C309 1.360 . S
C308 C321 1.412 . S
C309 C308 1.360 . S
C309 C310 1.365 . S
C309 H375 0.929 . S
C310 C285 1.553 . S
C310 C309 1.365 . S
C310 C311 1.404 . S
C311 C310 1.404 . S
C311 C312 1.395 . S
C311 C322 1.451 . S
C312 C311 1.395 . S
C312 C313 1.322 . S
C312 H376 0.930 . S
C313 C312 1.322 . S
C313 C314 1.459 . S
C313 H377 0.929 . S
C314 C313 1.459 . S
C314 C315 1.445 . S
C314 C323 1.395 . S
C315 C293 1.432 . S
C315 C314 1.445 . S
C315 C316 1.370 . S
C316 C315 1.370 . S
C316 C317 1.438 . S
C316 H378 0.930 . S
C317 C303 1.497 . S
C317 C316 1.438 . S
C317 C318 1.360 . S
C318 C317 1.360 . S
C318 C319 1.401 . S
C318 C323 1.446 . S
C319 C318 1.401 . S
C319 C320 1.347 . S
C319 H379 0.929 . S
C320 C319 1.347 . S
C320 C321 1.455 . S
C320 H380 0.930 . S
C321 C308 1.412 . S
C321 C320 1.455 . S
C321 C322 1.331 . S
C322 C311 1.451 . S
C322 C321 1.331 . S
C322 C323 1.497 . S
C323 C314 1.395 . S
C323 C318 1.446 . S
C323 C322 1.497 . S
C324 C325 1.582 . S
C324 H381 0.962 . S
C324 H382 0.959 . S
C324 H383 0.958 . S
C325 C324 1.582 . S
C325 O328 1.458 . S
C325 H354 0.980 . S
O326 C271 1.426 . S
O326 C272 1.334 . S
O327 C299 1.412 . S
O327 C300 1.393 . S
O328 C290 1.435 . S
O328 C325 1.458 . S
O329 C281 1.468 . S
O329 C282 1.408 . S
H330 C271 0.980 . S
H331 C270 0.959 . S
H332 C270 0.959 . S
H333 C270 0.960 . S
H334 C273 0.929 . S
H335 C277 0.929 . S
H336 C278 0.959 . S
H337 C278 0.961 . S
H338 C278 0.961 . S
H339 C279 0.960 . S
H340 C279 0.960 . S
H341 C279 0.961 . S
H342 C281 0.980 . S
H343 C280 0.961 . S
H344 C280 0.960 . S
H345 C280 0.959 . S
H346 C283 0.930 . S
H347 C287 0.931 . S
H348 C288 0.959 . S
H349 C288 0.961 . S
H350 C288 0.959 . S
H351 C289 0.960 . S
H352 C289 0.960 . S
H353 C289 0.960 . S
H354 C325 0.980 . S
H355 C291 0.930 . S
H356 C295 0.930 . S
H357 C296 0.961 . S
H358 C296 0.960 . S
H359 C296 0.958 . S
H360 C297 0.961 . S
H361 C297 0.960 . S
H362 C297 0.960 . S
H363 C299 0.980 . S
H364 C298 0.961 . S
H365 C298 0.961 . S
H366 C298 0.959 . S
H367 C301 0.932 . S
H368 C305 0.929 . S
H369 C306 0.961 . S
H370 C306 0.959 . S
H371 C306 0.959 . S
H372 C307 0.960 . S
H373 C307 0.962 . S
H374 C307 0.961 . S
H375 C309 0.929 . S
H376 C312 0.930 . S
H377 C313 0.929 . S
H378 C316 0.930 . S
H379 C319 0.929 . S
H380 C320 0.930 . S
H381 C324 0.962 . S
H382 C324 0.959 . S
H383 C324 0.958 . S
H384 C392 0.950 . S
H385 C397 0.950 . S
H386 C394 0.950 . S
H387 C396 0.950 . S
H388 C398 0.950 . S
H389 C400 0.950 . S
H390 C402 0.950 . S
H391 C403 0.950 . S
C392 H384 0.950 . S
C392 C393 1.386 1_655 S
C392 C394 1.391 . S
C393 C392 1.386 1_455 S
C393 C397 1.393 . S
C394 H386 0.950 . S
C394 C392 1.391 . S
C394 C395 1.400 1_655 S
C395 C394 1.400 1_455 S
C395 C396 1.398 . S
C395 C401 1.491 . S
C396 H387 0.950 . S
C396 C395 1.398 . S
C396 C397 1.391 . S
C397 H385 0.950 . S
C397 C393 1.393 . S
C397 C396 1.391 . S
C398 H388 0.950 . S
C398 C399 1.386 . S
C398 C400 1.391 . S
C399 C398 1.386 . S
C399 C403 1.393 1_455 S
C400 H389 0.950 . S
C400 C398 1.391 . S
C400 C401 1.400 . S
C401 C395 1.491 . S
C401 C400 1.400 . S
C401 C402 1.398 1_455 S
C402 H390 0.950 . S
C402 C401 1.398 1_655 S
C402 C403 1.391 . S
C403 H391 0.950 . S
C403 C399 1.393 1_655 S
C403 C402 1.391 . S
H404 C412 0.950 . S
H405 C417 0.950 . S
H406 C414 0.950 . S
H407 C416 0.950 . S
H408 C418 0.950 . S
H409 C420 0.950 . S
H410 C422 0.950 . S
H411 C423 0.950 . S
C412 H404 0.950 . S
C412 C413 1.386 . S
C412 C414 1.391 . S
C413 C412 1.386 . S
C413 C417 1.393 . S
C414 H406 0.950 . S
C414 C412 1.391 . S
C414 C415 1.400 . S
C415 C414 1.400 . S
C415 C416 1.398 . S
C415 C421 1.491 . S
C416 H407 0.950 . S
C416 C415 1.398 . S
C416 C417 1.391 . S
C417 H405 0.950 . S
C417 C413 1.393 . S
C417 C416 1.391 . S
C418 H408 0.950 . S
C418 C419 1.386 . S
C418 C420 1.391 . S
C419 C418 1.386 . S
C419 C423 1.393 . S
C420 H409 0.950 . S
C420 C418 1.391 . S
C420 C421 1.400 . S
C421 C415 1.491 . S
C421 C420 1.400 . S
C421 C422 1.398 . S
C422 H410 0.950 . S
C422 C421 1.398 . S
C422 C423 1.391 . S
C423 H411 0.950 . S
C423 C419 1.393 . S
C423 C422 1.391 . S
H424 C432 0.950 . S
H425 C437 0.950 . S
H426 C434 0.950 . S
H427 C436 0.950 . S
H428 C438 0.950 . S
H429 C440 0.950 . S
H430 C442 0.950 . S
H431 C443 0.950 . S
C432 H424 0.950 . S
C432 C433 1.386 . S
C432 C434 1.391 . S
C433 C432 1.386 . S
C433 C437 1.393 . S
C434 H426 0.950 . S
C434 C432 1.391 . S
C434 C435 1.400 . S
C435 C434 1.400 . S
C435 C436 1.398 . S
C435 C441 1.491 . S
C436 H427 0.950 . S
C436 C435 1.398 . S
C436 C437 1.391 . S
C437 H425 0.950 . S
C437 C433 1.393 . S
C437 C436 1.391 . S
C438 H428 0.950 . S
C438 C439 1.386 . S
C438 C440 1.391 . S
C439 C438 1.386 . S
C439 C443 1.393 . S
C440 H429 0.950 . S
C440 C438 1.391 . S
C440 C441 1.400 . S
C441 C435 1.491 . S
C441 C440 1.400 . S
C441 C442 1.398 . S
C442 H430 0.950 . S
C442 C441 1.398 . S
C442 C443 1.391 . S
C443 H431 0.950 . S
C443 C439 1.393 . S
C443 C442 1.391 . S
H444 C452 0.950 . S
H445 C457 0.950 . S
H446 C454 0.950 . S
H447 C456 0.950 . S
H448 C458 0.950 . S
H449 C460 0.950 . S
H450 C462 0.950 . S
H451 C463 0.950 . S
C452 H444 0.950 . S
C452 C453 1.386 1_655 S
C452 C454 1.391 . S
C453 C452 1.386 1_455 S
C453 C457 1.393 . S
C454 H446 0.950 . S
C454 C452 1.391 . S
C454 C455 1.400 1_655 S
C455 C454 1.400 1_455 S
C455 C456 1.398 . S
C455 C461 1.491 . S
C456 H447 0.950 . S
C456 C455 1.398 . S
C456 C457 1.391 . S
C457 H445 0.950 . S
C457 C453 1.393 . S
C457 C456 1.391 . S
C458 H448 0.950 . S
C458 C459 1.386 . S
C458 C460 1.391 . S
C459 C458 1.386 . S
C459 C463 1.393 1_455 S
C460 H449 0.950 . S
C460 C458 1.391 . S
C460 C461 1.400 . S
C461 C455 1.491 . S
C461 C460 1.400 . S
C461 C462 1.398 1_455 S
C462 H450 0.950 . S
C462 C461 1.398 1_655 S
C462 C463 1.391 . S
C463 H451 0.950 . S
C463 C459 1.393 1_655 S
C463 C462 1.391 . S
H464 C472 0.950 . S
H465 C477 0.950 1_565 S
H466 C474 0.950 . S
H467 C476 0.950 1_565 S
H468 C478 0.950 . S
H469 C480 0.950 . S
H470 C482 0.950 . S
H471 C483 0.950 . S
C472 H464 0.950 . S
C472 C473 1.386 . S
C472 C474 1.391 . S
C473 C472 1.386 . S
C473 C477 1.393 . S
C474 H466 0.950 . S
C474 C472 1.391 . S
C474 C475 1.400 . S
C475 C474 1.400 . S
C475 C476 1.398 . S
C475 C481 1.491 . S
C476 H467 0.950 1_545 S
C476 C475 1.398 . S
C476 C477 1.391 . S
C477 H465 0.950 1_545 S
C477 C473 1.393 . S
C477 C476 1.391 . S
C478 H468 0.950 . S
C478 C479 1.386 . S
C478 C480 1.391 . S
C479 C478 1.386 . S
C479 C483 1.393 . S
C480 H469 0.950 . S
C480 C478 1.391 . S
C480 C481 1.400 . S
C481 C475 1.491 . S
C481 C480 1.400 . S
C481 C482 1.398 . S
C482 H470 0.950 . S
C482 C481 1.398 . S
C482 C483 1.391 . S
C483 H471 0.950 . S
C483 C479 1.393 . S
C483 C482 1.391 . S
H484 C492 0.950 . S
H485 C497 0.950 . S
H486 C494 0.950 . S
H487 C496 0.950 . S
H488 C498 0.950 . S
H489 C500 0.950 . S
H490 C502 0.950 . S
H491 C503 0.950 . S
C492 H484 0.950 . S
C492 C493 1.386 . S
C492 C494 1.391 . S
C493 C492 1.386 . S
C493 C497 1.393 . S
C494 H486 0.950 . S
C494 C492 1.391 . S
C494 C495 1.400 . S
C495 C494 1.400 . S
C495 C496 1.398 . S
C495 C501 1.491 . S
C496 H487 0.950 . S
C496 C495 1.398 . S
C496 C497 1.391 . S
C497 H485 0.950 . S
C497 C493 1.393 . S
C497 C496 1.391 . S
C498 H488 0.950 . S
C498 C499 1.386 . S
C498 C500 1.391 . S
C499 C498 1.386 . S
C499 C503 1.393 . S
C500 H489 0.950 . S
C500 C498 1.391 . S
C500 C501 1.400 . S
C501 C495 1.491 . S
C501 C500 1.400 . S
C501 C502 1.398 . S
C502 H490 0.950 . S
C502 C501 1.398 . S
C502 C503 1.391 . S
C503 H491 0.950 . S
C503 C499 1.393 . S
C503 C502 1.391 . S
H504 C512 0.950 . S
H505 C517 0.950 . S
H506 C514 0.950 . S
H507 C516 0.950 . S
H508 C518 0.950 . S
H509 C520 0.950 . S
H510 C522 0.950 . S
H511 C523 0.950 . S
C512 H504 0.950 . S
C512 C513 1.386 . S
C512 C514 1.391 . S
C513 C512 1.386 . S
C513 C517 1.393 . S
C514 H506 0.950 . S
C514 C512 1.391 . S
C514 C515 1.400 . S
C515 C514 1.400 . S
C515 C516 1.398 . S
C515 C521 1.491 . S
C516 H507 0.950 . S
C516 C515 1.398 . S
C516 C517 1.391 . S
C517 H505 0.950 . S
C517 C513 1.393 . S
C517 C516 1.391 . S
C518 H508 0.950 . S
C518 C519 1.386 . S
C518 C520 1.391 . S
C519 C518 1.386 . S
C519 C523 1.393 . S
C520 H509 0.950 . S
C520 C518 1.391 . S
C520 C521 1.400 . S
C521 C515 1.491 . S
C521 C520 1.400 . S
C521 C522 1.398 . S
C522 H510 0.950 . S
C522 C521 1.398 . S
C522 C523 1.391 . S
C523 H511 0.950 . S
C523 C519 1.393 . S
C523 C522 1.391 . S
H524 C532 0.950 . S
H525 C537 0.950 . S
H526 C534 0.950 . S
H527 C536 0.950 . S
H528 C538 0.950 . S
H529 C540 0.950 . S
H530 C542 0.950 . S
H531 C543 0.950 . S
C532 H524 0.950 . S
C532 C533 1.386 . S
C532 C534 1.391 . S
C533 C532 1.386 . S
C533 C537 1.393 . S
C534 H526 0.950 . S
C534 C532 1.391 . S
C534 C535 1.400 . S
C535 C534 1.400 . S
C535 C536 1.398 . S
C535 C541 1.491 . S
C536 H527 0.950 . S
C536 C535 1.398 . S
C536 C537 1.391 . S
C537 H525 0.950 . S
C537 C533 1.393 . S
C537 C536 1.391 . S
C538 H528 0.950 . S
C538 C539 1.386 . S
C538 C540 1.391 . S
C539 C538 1.386 . S
C539 C543 1.393 . S
C540 H529 0.950 . S
C540 C538 1.391 . S
C540 C541 1.400 1_556 S
C541 C535 1.491 . S
C541 C540 1.400 1_554 S
C541 C542 1.398 . S
C542 H530 0.950 . S
C542 C541 1.398 . S
C542 C543 1.391 1_554 S
C543 H531 0.950 . S
C543 C539 1.393 . S
C543 C542 1.391 1_556 S
H544 C552 0.950 . S
H545 C557 0.950 . S
H546 C554 0.950 1_655 S
H547 C556 0.950 . S
H548 C558 0.950 . S
H549 C560 0.950 . S
H550 C562 0.950 1_655 S
H551 C563 0.950 1_655 S
C552 H544 0.950 . S
C552 C553 1.386 . S
C552 C554 1.391 . S
C553 C552 1.386 . S
C553 C557 1.393 . S
C554 H546 0.950 1_455 S
C554 C552 1.391 . S
C554 C555 1.400 . S
C555 C554 1.400 . S
C555 C556 1.398 . S
C555 C561 1.491 . S
C556 H547 0.950 . S
C556 C555 1.398 . S
C556 C557 1.391 . S
C557 H545 0.950 . S
C557 C553 1.393 . S
C557 C556 1.391 . S
C558 H548 0.950 . S
C558 C559 1.386 . S
C558 C560 1.391 . S
C559 C558 1.386 . S
C559 C563 1.393 . S
C560 H549 0.950 . S
C560 C558 1.391 . S
C560 C561 1.400 . S
C561 C555 1.491 . S
C561 C560 1.400 . S
C561 C562 1.398 . S
C562 H550 0.950 1_455 S
C562 C561 1.398 . S
C562 C563 1.391 . S
C563 H551 0.950 1_455 S
C563 C559 1.393 . S
C563 C562 1.391 . S
H564 C572 0.950 . S
H565 C577 0.950 1_565 S
H566 C574 0.950 . S
H567 C576 0.950 1_565 S
H568 C578 0.950 1_565 S
H569 C580 0.950 1_565 S
H570 C582 0.950 . S
H571 C583 0.950 . S
C572 H564 0.950 . S
C572 C573 1.386 . S
C572 C574 1.391 . S
C573 C572 1.386 . S
C573 C577 1.393 . S
C574 H566 0.950 . S
C574 C572 1.391 . S
C574 C575 1.400 . S
C575 C574 1.400 . S
C575 C576 1.398 . S
C575 C581 1.491 . S
C576 H567 0.950 1_545 S
C576 C575 1.398 . S
C576 C577 1.391 . S
C577 H565 0.950 1_545 S
C577 C573 1.393 . S
C577 C576 1.391 . S
C578 H568 0.950 1_545 S
C578 C579 1.386 . S
C578 C580 1.391 . S
C579 C578 1.386 . S
C579 C583 1.393 . S
C580 H569 0.950 1_545 S
C580 C578 1.391 . S
C580 C581 1.400 . S
C581 C575 1.491 . S
C581 C580 1.400 . S
C581 C582 1.398 . S
C582 H570 0.950 . S
C582 C581 1.398 . S
C582 C583 1.391 . S
C583 H571 0.950 . S
C583 C579 1.393 . S
C583 C582 1.391 . S
H584 C592 0.950 . S
H585 C597 0.950 . S
H586 C594 0.950 . S
H587 C596 0.950 1_556 S
H588 C598 0.950 . S
H589 C600 0.950 . S
H590 C602 0.950 . S
H591 C603 0.950 . S
C592 H584 0.950 . S
C592 C593 1.386 . S
C592 C594 1.391 . S
C593 C592 1.386 . S
C593 C597 1.393 . S
C594 H586 0.950 . S
C594 C592 1.391 . S
C594 C595 1.400 . S
C595 C594 1.400 . S
C595 C596 1.398 . S
C595 C601 1.455 1_554 S
C596 H587 0.950 1_554 S
C596 C595 1.398 . S
C596 C597 1.391 . S
C597 H585 0.950 . S
C597 C593 1.393 . S
C597 C596 1.391 . S
C598 H588 0.950 . S
C598 C599 1.386 . S
C598 C600 1.391 . S
C599 C598 1.386 . S
C599 C603 1.393 . S
C600 H589 0.950 . S
C600 C598 1.391 . S
C600 C601 1.451 . S
C601 C595 1.455 1_556 S
C601 C600 1.451 . S
C601 C602 1.387 1_556 S
C602 H590 0.950 . S
C602 C601 1.387 1_554 S
C602 C603 1.391 1_554 S
C603 H591 0.950 . S
C603 C599 1.393 . S
C603 C602 1.391 1_556 S
H604 C612 0.950 . S
H605 C617 0.950 . S
H606 C614 0.950 . S
H607 C616 0.950 . S
H608 C618 0.950 . S
H609 C620 0.950 . S
H610 C622 0.950 . S
H611 C623 0.950 . S
C612 H604 0.950 . S
C612 C613 1.386 . S
C612 C614 1.391 . S
C613 C612 1.386 . S
C613 C617 1.393 . S
C614 H606 0.950 . S
C614 C612 1.391 . S
C614 C615 1.400 . S
C615 C614 1.400 . S
C615 C616 1.398 . S
C615 C621 1.491 . S
C616 H607 0.950 . S
C616 C615 1.398 . S
C616 C617 1.391 . S
C617 H605 0.950 . S
C617 C613 1.393 . S
C617 C616 1.391 . S
C618 H608 0.950 . S
C618 C619 1.386 . S
C618 C620 1.391 . S
C619 C618 1.386 . S
C619 C623 1.393 . S
C620 H609 0.950 . S
C620 C618 1.391 . S
C620 C621 1.400 . S
C621 C615 1.491 . S
C621 C620 1.400 . S
C621 C622 1.398 . S
C622 H610 0.950 . S
C622 C621 1.398 . S
C622 C623 1.391 . S
C623 H611 0.950 . S
C623 C619 1.393 . S
C623 C622 1.391 . S
C399 C97 1.148 . S
C393 C6 1.560 . S
C413 C22 1.665 . S
C419 C211 1.230 . S
C433 C34 1.110 . S
C439 C271 0.867 . S
C453 C7 1.407 . S
C459 C71 1.126 . S
C479 C185 1.246 . S
C473 C23 1.512 . S
C493 C35 1.260 . S
C499 C281 0.778 . S
C519 C167 1.012 . S
C513 C36 1.612 . S
C533 C9 1.761 . S
C539 C299 1.422 . S
C559 C43 1.084 1_455 S
C553 C21 1.313 . S
C579 C157 1.153 . S
C573 C37 1.427 . S
C599 C325 1.404 . S
C593 C8 1.899 . S
C613 C20 1.466 . S
C619 C53 0.938 . S
