# Generated by pormake.
# Topology tbo, (3,4)-cn, num edge types: 1
# Building blocks:
#     Node 0, Type 0, BuildingBlock: WUSLED_clean_sbu_0, # of connection points: 3
#     Node 1, Type 0, BuildingBlock: WUSLED_clean_sbu_0, # of connection points: 3
#     Node 2, Type 0, BuildingBlock: WUSLED_clean_sbu_0, # of connection points: 3
#     Node 3, Type 0, BuildingBlock: WUSLED_clean_sbu_0, # of connection points: 3
#     Node 4, Type 0, BuildingBlock: WUSLED_clean_sbu_0, # of connection points: 3
#     Node 5, Type 0, BuildingBlock: WUSLED_clean_sbu_0, # of connection points: 3
#     Node 6, Type 0, BuildingBlock: WUSLED_clean_sbu_0, # of connection points: 3
#     Node 7, Type 0, BuildingBlock: WUSLED_clean_sbu_0, # of connection points: 3
#     Node 8, Type 0, BuildingBlock: WUSLED_clean_sbu_0, # of connection points: 3
#     Node 9, Type 0, BuildingBlock: WUSLED_clean_sbu_0, # of connection points: 3
#     Node 10, Type 0, BuildingBlock: WUSLED_clean_sbu_0, # of connection points: 3
#     Node 11, Type 0, BuildingBlock: WUSLED_clean_sbu_0, # of connection points: 3
#     Node 12, Type 0, BuildingBlock: WUSLED_clean_sbu_0, # of connection points: 3
#     Node 13, Type 0, BuildingBlock: WUSLED_clean_sbu_0, # of connection points: 3
#     Node 14, Type 0, BuildingBlock: WUSLED_clean_sbu_0, # of connection points: 3
#     Node 15, Type 0, BuildingBlock: WUSLED_clean_sbu_0, # of connection points: 3
#     Node 16, Type 0, BuildingBlock: WUSLED_clean_sbu_0, # of connection points: 3
#     Node 17, Type 0, BuildingBlock: WUSLED_clean_sbu_0, # of connection points: 3
#     Node 18, Type 0, BuildingBlock: WUSLED_clean_sbu_0, # of connection points: 3
#     Node 19, Type 0, BuildingBlock: WUSLED_clean_sbu_0, # of connection points: 3
#     Node 20, Type 0, BuildingBlock: WUSLED_clean_sbu_0, # of connection points: 3
#     Node 21, Type 0, BuildingBlock: WUSLED_clean_sbu_0, # of connection points: 3
#     Node 22, Type 0, BuildingBlock: WUSLED_clean_sbu_0, # of connection points: 3
#     Node 23, Type 0, BuildingBlock: WUSLED_clean_sbu_0, # of connection points: 3
#     Node 24, Type 0, BuildingBlock: WUSLED_clean_sbu_0, # of connection points: 3
#     Node 25, Type 0, BuildingBlock: WUSLED_clean_sbu_0, # of connection points: 3
#     Node 26, Type 0, BuildingBlock: WUSLED_clean_sbu_0, # of connection points: 3
#     Node 27, Type 0, BuildingBlock: WUSLED_clean_sbu_0, # of connection points: 3
#     Node 28, Type 0, BuildingBlock: WUSLED_clean_sbu_0, # of connection points: 3
#     Node 29, Type 0, BuildingBlock: WUSLED_clean_sbu_0, # of connection points: 3
#     Node 30, Type 0, BuildingBlock: WUSLED_clean_sbu_0, # of connection points: 3
#     Node 31, Type 0, BuildingBlock: WUSLED_clean_sbu_0, # of connection points: 3
#     Node 32, Type 1, BuildingBlock: NAWXER_clean_linker_0, # of connection points: 4
#     Node 33, Type 1, BuildingBlock: NAWXER_clean_linker_0, # of connection points: 4
#     Node 34, Type 1, BuildingBlock: NAWXER_clean_linker_0, # of connection points: 4
#     Node 35, Type 1, BuildingBlock: NAWXER_clean_linker_0, # of connection points: 4
#     Node 36, Type 1, BuildingBlock: NAWXER_clean_linker_0, # of connection points: 4
#     Node 37, Type 1, BuildingBlock: NAWXER_clean_linker_0, # of connection points: 4
#     Node 38, Type 1, BuildingBlock: NAWXER_clean_linker_0, # of connection points: 4
#     Node 39, Type 1, BuildingBlock: NAWXER_clean_linker_0, # of connection points: 4
#     Node 40, Type 1, BuildingBlock: NAWXER_clean_linker_0, # of connection points: 4
#     Node 41, Type 1, BuildingBlock: NAWXER_clean_linker_0, # of connection points: 4
#     Node 42, Type 1, BuildingBlock: NAWXER_clean_linker_0, # of connection points: 4
#     Node 43, Type 1, BuildingBlock: NAWXER_clean_linker_0, # of connection points: 4
#     Node 44, Type 1, BuildingBlock: NAWXER_clean_linker_0, # of connection points: 4
#     Node 45, Type 1, BuildingBlock: NAWXER_clean_linker_0, # of connection points: 4
#     Node 46, Type 1, BuildingBlock: NAWXER_clean_linker_0, # of connection points: 4
#     Node 47, Type 1, BuildingBlock: NAWXER_clean_linker_0, # of connection points: 4
#     Node 48, Type 1, BuildingBlock: NAWXER_clean_linker_0, # of connection points: 4
#     Node 49, Type 1, BuildingBlock: NAWXER_clean_linker_0, # of connection points: 4
#     Node 50, Type 1, BuildingBlock: NAWXER_clean_linker_0, # of connection points: 4
#     Node 51, Type 1, BuildingBlock: NAWXER_clean_linker_0, # of connection points: 4
#     Node 52, Type 1, BuildingBlock: NAWXER_clean_linker_0, # of connection points: 4
#     Node 53, Type 1, BuildingBlock: NAWXER_clean_linker_0, # of connection points: 4
#     Node 54, Type 1, BuildingBlock: NAWXER_clean_linker_0, # of connection points: 4
#     Node 55, Type 1, BuildingBlock: NAWXER_clean_linker_0, # of connection points: 4
#     Edge 56, Type (0, 1), BuildingBlock: TEMPAE_clean_linker_10, # of connection points: 2
#     Edge 57, Type (0, 1), BuildingBlock: TEMPAE_clean_linker_10, # of connection points: 2
#     Edge 58, Type (0, 1), BuildingBlock: TEMPAE_clean_linker_10, # of connection points: 2
#     Edge 59, Type (0, 1), BuildingBlock: TEMPAE_clean_linker_10, # of connection points: 2
#     Edge 60, Type (0, 1), BuildingBlock: TEMPAE_clean_linker_10, # of connection points: 2
#     Edge 61, Type (0, 1), BuildingBlock: TEMPAE_clean_linker_10, # of connection points: 2
#     Edge 62, Type (0, 1), BuildingBlock: TEMPAE_clean_linker_10, # of connection points: 2
#     Edge 63, Type (0, 1), BuildingBlock: TEMPAE_clean_linker_10, # of connection points: 2
#     Edge 64, Type (0, 1), BuildingBlock: TEMPAE_clean_linker_10, # of connection points: 2
#     Edge 65, Type (0, 1), BuildingBlock: TEMPAE_clean_linker_10, # of connection points: 2
#     Edge 66, Type (0, 1), BuildingBlock: TEMPAE_clean_linker_10, # of connection points: 2
#     Edge 67, Type (0, 1), BuildingBlock: TEMPAE_clean_linker_10, # of connection points: 2
#     Edge 68, Type (0, 1), BuildingBlock: TEMPAE_clean_linker_10, # of connection points: 2
#     Edge 69, Type (0, 1), BuildingBlock: TEMPAE_clean_linker_10, # of connection points: 2
#     Edge 70, Type (0, 1), BuildingBlock: TEMPAE_clean_linker_10, # of connection points: 2
#     Edge 71, Type (0, 1), BuildingBlock: TEMPAE_clean_linker_10, # of connection points: 2
#     Edge 72, Type (0, 1), BuildingBlock: TEMPAE_clean_linker_10, # of connection points: 2
#     Edge 73, Type (0, 1), BuildingBlock: TEMPAE_clean_linker_10, # of connection points: 2
#     Edge 74, Type (0, 1), BuildingBlock: TEMPAE_clean_linker_10, # of connection points: 2
#     Edge 75, Type (0, 1), BuildingBlock: TEMPAE_clean_linker_10, # of connection points: 2
#     Edge 76, Type (0, 1), BuildingBlock: TEMPAE_clean_linker_10, # of connection points: 2
#     Edge 77, Type (0, 1), BuildingBlock: TEMPAE_clean_linker_10, # of connection points: 2
#     Edge 78, Type (0, 1), BuildingBlock: TEMPAE_clean_linker_10, # of connection points: 2
#     Edge 79, Type (0, 1), BuildingBlock: TEMPAE_clean_linker_10, # of connection points: 2
#     Edge 80, Type (0, 1), BuildingBlock: TEMPAE_clean_linker_10, # of connection points: 2
#     Edge 81, Type (0, 1), BuildingBlock: TEMPAE_clean_linker_10, # of connection points: 2
#     Edge 82, Type (0, 1), BuildingBlock: TEMPAE_clean_linker_10, # of connection points: 2
#     Edge 83, Type (0, 1), BuildingBlock: TEMPAE_clean_linker_10, # of connection points: 2
#     Edge 84, Type (0, 1), BuildingBlock: TEMPAE_clean_linker_10, # of connection points: 2
#     Edge 85, Type (0, 1), BuildingBlock: TEMPAE_clean_linker_10, # of connection points: 2
#     Edge 86, Type (0, 1), BuildingBlock: TEMPAE_clean_linker_10, # of connection points: 2
#     Edge 87, Type (0, 1), BuildingBlock: TEMPAE_clean_linker_10, # of connection points: 2
#     Edge 88, Type (0, 1), BuildingBlock: TEMPAE_clean_linker_10, # of connection points: 2
#     Edge 89, Type (0, 1), BuildingBlock: TEMPAE_clean_linker_10, # of connection points: 2
#     Edge 90, Type (0, 1), BuildingBlock: TEMPAE_clean_linker_10, # of connection points: 2
#     Edge 91, Type (0, 1), BuildingBlock: TEMPAE_clean_linker_10, # of connection points: 2
#     Edge 92, Type (0, 1), BuildingBlock: TEMPAE_clean_linker_10, # of connection points: 2
#     Edge 93, Type (0, 1), BuildingBlock: TEMPAE_clean_linker_10, # of connection points: 2
#     Edge 94, Type (0, 1), BuildingBlock: TEMPAE_clean_linker_10, # of connection points: 2
#     Edge 95, Type (0, 1), BuildingBlock: TEMPAE_clean_linker_10, # of connection points: 2
#     Edge 96, Type (0, 1), BuildingBlock: TEMPAE_clean_linker_10, # of connection points: 2
#     Edge 97, Type (0, 1), BuildingBlock: TEMPAE_clean_linker_10, # of connection points: 2
#     Edge 98, Type (0, 1), BuildingBlock: TEMPAE_clean_linker_10, # of connection points: 2
#     Edge 99, Type (0, 1), BuildingBlock: TEMPAE_clean_linker_10, # of connection points: 2
#     Edge 100, Type (0, 1), BuildingBlock: TEMPAE_clean_linker_10, # of connection points: 2
#     Edge 101, Type (0, 1), BuildingBlock: TEMPAE_clean_linker_10, # of connection points: 2
#     Edge 102, Type (0, 1), BuildingBlock: TEMPAE_clean_linker_10, # of connection points: 2
#     Edge 103, Type (0, 1), BuildingBlock: TEMPAE_clean_linker_10, # of connection points: 2
#     Edge 104, Type (0, 1), BuildingBlock: TEMPAE_clean_linker_10, # of connection points: 2
#     Edge 105, Type (0, 1), BuildingBlock: TEMPAE_clean_linker_10, # of connection points: 2
#     Edge 106, Type (0, 1), BuildingBlock: TEMPAE_clean_linker_10, # of connection points: 2
#     Edge 107, Type (0, 1), BuildingBlock: TEMPAE_clean_linker_10, # of connection points: 2
#     Edge 108, Type (0, 1), BuildingBlock: TEMPAE_clean_linker_10, # of connection points: 2
#     Edge 109, Type (0, 1), BuildingBlock: TEMPAE_clean_linker_10, # of connection points: 2
#     Edge 110, Type (0, 1), BuildingBlock: TEMPAE_clean_linker_10, # of connection points: 2
#     Edge 111, Type (0, 1), BuildingBlock: TEMPAE_clean_linker_10, # of connection points: 2
#     Edge 112, Type (0, 1), BuildingBlock: TEMPAE_clean_linker_10, # of connection points: 2
#     Edge 113, Type (0, 1), BuildingBlock: TEMPAE_clean_linker_10, # of connection points: 2
#     Edge 114, Type (0, 1), BuildingBlock: TEMPAE_clean_linker_10, # of connection points: 2
#     Edge 115, Type (0, 1), BuildingBlock: TEMPAE_clean_linker_10, # of connection points: 2
#     Edge 116, Type (0, 1), BuildingBlock: TEMPAE_clean_linker_10, # of connection points: 2
#     Edge 117, Type (0, 1), BuildingBlock: TEMPAE_clean_linker_10, # of connection points: 2
#     Edge 118, Type (0, 1), BuildingBlock: TEMPAE_clean_linker_10, # of connection points: 2
#     Edge 119, Type (0, 1), BuildingBlock: TEMPAE_clean_linker_10, # of connection points: 2
#     Edge 120, Type (0, 1), BuildingBlock: TEMPAE_clean_linker_10, # of connection points: 2
#     Edge 121, Type (0, 1), BuildingBlock: TEMPAE_clean_linker_10, # of connection points: 2
#     Edge 122, Type (0, 1), BuildingBlock: TEMPAE_clean_linker_10, # of connection points: 2
#     Edge 123, Type (0, 1), BuildingBlock: TEMPAE_clean_linker_10, # of connection points: 2
#     Edge 124, Type (0, 1), BuildingBlock: TEMPAE_clean_linker_10, # of connection points: 2
#     Edge 125, Type (0, 1), BuildingBlock: TEMPAE_clean_linker_10, # of connection points: 2
#     Edge 126, Type (0, 1), BuildingBlock: TEMPAE_clean_linker_10, # of connection points: 2
#     Edge 127, Type (0, 1), BuildingBlock: TEMPAE_clean_linker_10, # of connection points: 2
#     Edge 128, Type (0, 1), BuildingBlock: TEMPAE_clean_linker_10, # of connection points: 2
#     Edge 129, Type (0, 1), BuildingBlock: TEMPAE_clean_linker_10, # of connection points: 2
#     Edge 130, Type (0, 1), BuildingBlock: TEMPAE_clean_linker_10, # of connection points: 2
#     Edge 131, Type (0, 1), BuildingBlock: TEMPAE_clean_linker_10, # of connection points: 2
#     Edge 132, Type (0, 1), BuildingBlock: TEMPAE_clean_linker_10, # of connection points: 2
#     Edge 133, Type (0, 1), BuildingBlock: TEMPAE_clean_linker_10, # of connection points: 2
#     Edge 134, Type (0, 1), BuildingBlock: TEMPAE_clean_linker_10, # of connection points: 2
#     Edge 135, Type (0, 1), BuildingBlock: TEMPAE_clean_linker_10, # of connection points: 2
#     Edge 136, Type (0, 1), BuildingBlock: TEMPAE_clean_linker_10, # of connection points: 2
#     Edge 137, Type (0, 1), BuildingBlock: TEMPAE_clean_linker_10, # of connection points: 2
#     Edge 138, Type (0, 1), BuildingBlock: TEMPAE_clean_linker_10, # of connection points: 2
#     Edge 139, Type (0, 1), BuildingBlock: TEMPAE_clean_linker_10, # of connection points: 2
#     Edge 140, Type (0, 1), BuildingBlock: TEMPAE_clean_linker_10, # of connection points: 2
#     Edge 141, Type (0, 1), BuildingBlock: TEMPAE_clean_linker_10, # of connection points: 2
#     Edge 142, Type (0, 1), BuildingBlock: TEMPAE_clean_linker_10, # of connection points: 2
#     Edge 143, Type (0, 1), BuildingBlock: TEMPAE_clean_linker_10, # of connection points: 2
#     Edge 144, Type (0, 1), BuildingBlock: TEMPAE_clean_linker_10, # of connection points: 2
#     Edge 145, Type (0, 1), BuildingBlock: TEMPAE_clean_linker_10, # of connection points: 2
#     Edge 146, Type (0, 1), BuildingBlock: TEMPAE_clean_linker_10, # of connection points: 2
#     Edge 147, Type (0, 1), BuildingBlock: TEMPAE_clean_linker_10, # of connection points: 2
#     Edge 148, Type (0, 1), BuildingBlock: TEMPAE_clean_linker_10, # of connection points: 2
#     Edge 149, Type (0, 1), BuildingBlock: TEMPAE_clean_linker_10, # of connection points: 2
#     Edge 150, Type (0, 1), BuildingBlock: TEMPAE_clean_linker_10, # of connection points: 2
#     Edge 151, Type (0, 1), BuildingBlock: TEMPAE_clean_linker_10, # of connection points: 2
# Relax obj value: 0.000
# Max RMSD: 0.012
# Mean RMSD: 0.006
data_MOF--net-tbo--node1-WUSLED_clean_sbu_0--node2-NAWXER_clean_linker_0--edge1-TEMPAE_clean_linker_10
_symmetry_space_group_name_H-M    P1
_symmetry_Int_Tables_number       1
_symmetry_cell_setting            triclinic
loop_
_symmetry_equiv_pos_as_xyz
'x, y, z'
_cell_length_a     109.04513
_cell_length_b     109.33985
_cell_length_c     109.1815
_cell_angle_alpha  89.657665
_cell_angle_beta   90.303435
_cell_angle_gamma 90.687411
loop_
_atom_site_label
_atom_site_type_symbol
_atom_site_fract_x
_atom_site_fract_y
_atom_site_fract_z
_atom_type_partial_charge
C0 C 0.18341 0.14912 0.19841 0.0
C1 C 0.19628 0.14899 0.19784 0.0
C2 C 0.19646 0.12818 0.20607 0.0
C3 C 0.20274 0.13863 0.20169 0.0
C4 C 0.18356 0.12829 0.20637 0.0
C5 C 0.17712 0.13866 0.20261 0.0
U6 U 0.17664 0.17723 0.17809 0.0
O7 O 0.15892 0.1846 0.17205 0.0
O8 O 0.1712 0.19578 0.18352 0.0
C9 C 0.1603 0.1947 0.17842 0.0
C10 C 0.17633 0.16012 0.1951 0.0
C11 C 0.14979 0.1984 0.18601 0.0
C12 C 0.13057 0.19389 0.19648 0.0
C13 C 0.14078 0.18995 0.1899 0.0
C14 C 0.13837 0.2147 0.19567 0.0
C15 C 0.12921 0.20632 0.19938 0.0
C16 C 0.14852 0.21078 0.18903 0.0
C17 C 0.19687 0.18381 0.14975 0.0
C18 C 0.20199 0.203 0.13942 0.0
C19 C 0.20408 0.18383 0.1287 0.0
C20 C 0.19995 0.1775 0.13908 0.0
C21 C 0.20531 0.19666 0.12877 0.0
C22 C 0.1978 0.19664 0.14981 0.0
C23 C 0.19325 0.17671 0.16075 0.0
O24 O 0.182 0.17073 0.19642 0.0
O25 O 0.16976 0.15944 0.185 0.0
O26 O 0.18273 0.17076 0.16005 0.0
O27 O 0.19511 0.18193 0.17144 0.0
H28 H 0.20136 0.15691 0.19456 0.0
H29 H 0.21266 0.13879 0.20121 0.0
H30 H 0.17845 0.12046 0.20981 0.0
H31 H 0.1672 0.13857 0.20316 0.0
H32 H 0.12375 0.18719 0.19933 0.0
H33 H 0.14156 0.18033 0.18777 0.0
H34 H 0.13754 0.22435 0.19762 0.0
H35 H 0.15532 0.21746 0.18608 0.0
H36 H 0.20291 0.21286 0.13985 0.0
H37 H 0.20631 0.17865 0.12061 0.0
H38 H 0.19927 0.16761 0.13881 0.0
H39 H 0.19546 0.20175 0.15792 0.0
C40 C 0.81906 0.18479 0.15235 0.0
C41 C 0.82763 0.1908 0.14479 0.0
C42 C 0.81116 0.19791 0.13147 0.0
C43 C 0.82371 0.19725 0.1344 0.0
C44 C 0.80262 0.19201 0.13918 0.0
C45 C 0.80655 0.18549 0.1495 0.0
U46 U 0.8408 0.17918 0.17937 0.0
O47 O 0.83666 0.17336 0.19827 0.0
O48 O 0.8483 0.16203 0.18668 0.0
C49 C 0.84239 0.16293 0.1971 0.0
C50 C 0.82295 0.17772 0.1632 0.0
C51 C 0.8355 0.15196 0.20107 0.0
C52 C 0.82226 0.13445 0.19674 0.0
C53 C 0.82852 0.14499 0.19276 0.0
C54 C 0.8297 0.13791 0.21739 0.0
C55 C 0.82283 0.13074 0.2091 0.0
C56 C 0.83598 0.14839 0.2134 0.0
C57 C 0.86795 0.20099 0.18504 0.0
C58 C 0.88679 0.19651 0.19615 0.0
C59 C 0.88043 0.21751 0.19345 0.0
C60 C 0.87005 0.2135 0.18698 0.0
C61 C 0.88895 0.20907 0.19804 0.0
C62 C 0.87634 0.19249 0.18976 0.0
C63 C 0.85702 0.19705 0.17802 0.0
O64 O 0.83331 0.17178 0.16219 0.0
O65 O 0.82185 0.1833 0.17376 0.0
O66 O 0.84649 0.19808 0.18369 0.0
O67 O 0.85795 0.18678 0.17189 0.0
H68 H 0.83735 0.19048 0.14689 0.0
H69 H 0.83049 0.2018 0.12871 0.0
H70 H 0.7929 0.19225 0.1371 0.0
H71 H 0.7998 0.18093 0.15523 0.0
H72 H 0.81717 0.1291 0.19008 0.0
H73 H 0.82799 0.14764 0.1832 0.0
H74 H 0.83015 0.13547 0.22701 0.0
H75 H 0.84125 0.15371 0.21996 0.0
H76 H 0.89313 0.18979 0.19969 0.0
H77 H 0.88191 0.22724 0.19467 0.0
H78 H 0.86369 0.2202 0.18342 0.0
H79 H 0.87486 0.18277 0.18849 0.0
C80 C 0.82091 0.83628 0.15066 0.0
C81 C 0.82931 0.82955 0.14379 0.0
C82 C 0.81296 0.82315 0.12976 0.0
C83 C 0.82538 0.82306 0.13342 0.0
C84 C 0.80458 0.82972 0.13686 0.0
C85 C 0.80853 0.83622 0.14718 0.0
U86 U 0.84247 0.8438 0.17778 0.0
O87 O 0.84918 0.8618 0.1841 0.0
O88 O 0.83793 0.85024 0.19623 0.0
C89 C 0.84321 0.86099 0.1945 0.0
C90 C 0.82482 0.84367 0.16128 0.0
C91 C 0.83607 0.87184 0.19795 0.0
C92 C 0.81671 0.88194 0.20192 0.0
C93 C 0.82318 0.87166 0.19806 0.0
C94 C 0.8359 0.8928 0.2053 0.0
C95 C 0.823 0.89262 0.20563 0.0
C96 C 0.84234 0.88251 0.20153 0.0
C97 C 0.87042 0.82356 0.18468 0.0
C98 C 0.88111 0.82045 0.20407 0.0
C99 C 0.89107 0.81539 0.18503 0.0
C100 C 0.88069 0.81916 0.17851 0.0
C101 C 0.89138 0.81588 0.1979 0.0
C102 C 0.87075 0.8243 0.19753 0.0
C103 C 0.85939 0.82689 0.17753 0.0
O104 O 0.82377 0.83837 0.17207 0.0
O105 O 0.8351 0.84995 0.16004 0.0
O106 O 0.86018 0.83705 0.17108 0.0
O107 O 0.84877 0.82548 0.18305 0.0
H108 H 0.83893 0.82945 0.14635 0.0
H109 H 0.8321 0.81819 0.12813 0.0
H110 H 0.79493 0.82982 0.13448 0.0
H111 H 0.8019 0.8413 0.1524 0.0
H112 H 0.80678 0.88155 0.20195 0.0
H113 H 0.8181 0.86356 0.19527 0.0
H114 H 0.84103 0.90082 0.20822 0.0
H115 H 0.85228 0.88285 0.20154 0.0
H116 H 0.88111 0.82108 0.21397 0.0
H117 H 0.89876 0.8118 0.17999 0.0
H118 H 0.88063 0.81847 0.16861 0.0
H119 H 0.86296 0.82773 0.20252 0.0
C120 C 0.15009 0.82129 0.18483 0.0
C121 C 0.14975 0.82232 0.19764 0.0
C122 C 0.12897 0.8138 0.19792 0.0
C123 C 0.1393 0.81855 0.20413 0.0
C124 C 0.1293 0.813 0.18507 0.0
C125 C 0.13977 0.81668 0.17861 0.0
U126 U 0.17856 0.84145 0.17878 0.0
O127 O 0.1971 0.83614 0.17308 0.0
O128 O 0.18613 0.84822 0.16135 0.0
C129 C 0.19618 0.84176 0.16245 0.0
C130 C 0.16115 0.82468 0.17777 0.0
C131 C 0.1998 0.83459 0.15167 0.0
C132 C 0.19485 0.8231 0.13323 0.0
C133 C 0.19108 0.82953 0.14358 0.0
C134 C 0.21608 0.82647 0.13906 0.0
C135 C 0.20741 0.82152 0.13083 0.0
C136 C 0.2123 0.83295 0.14934 0.0
C137 C 0.18595 0.86849 0.20024 0.0
C138 C 0.19645 0.88786 0.19613 0.0
C139 C 0.19519 0.8801 0.21691 0.0
C140 C 0.1887 0.86983 0.21272 0.0
C141 C 0.19901 0.88935 0.2087 0.0
C142 C 0.19 0.87753 0.19194 0.0
C143 C 0.17844 0.85787 0.19625 0.0
O144 O 0.16064 0.83507 0.17169 0.0
O145 O 0.17175 0.82298 0.18328 0.0
O146 O 0.18349 0.84708 0.19756 0.0
O147 O 0.17236 0.85909 0.18588 0.0
H148 H 0.15757 0.82594 0.20265 0.0
H149 H 0.13927 0.81942 0.21401 0.0
H150 H 0.12156 0.80926 0.18002 0.0
H151 H 0.13985 0.81579 0.16873 0.0
H152 H 0.18795 0.81929 0.12714 0.0
H153 H 0.18136 0.8306 0.14524 0.0
H154 H 0.22581 0.82554 0.13741 0.0
H155 H 0.21918 0.8368 0.15545 0.0
H156 H 0.19914 0.89482 0.18955 0.0
H157 H 0.19719 0.8808 0.2266 0.0
H158 H 0.1857 0.86296 0.21928 0.0
H159 H 0.18804 0.87672 0.18224 0.0
C160 C 0.15064 0.82069 0.83858 0.0
C161 C 0.14982 0.82244 0.82585 0.0
C162 C 0.12957 0.81276 0.8256 0.0
C163 C 0.1394 0.81845 0.81941 0.0
C164 C 0.13037 0.81121 0.83838 0.0
C165 C 0.14083 0.81511 0.84479 0.0
U166 U 0.17829 0.84195 0.84357 0.0
O167 O 0.18595 0.84963 0.86057 0.0
O168 O 0.19718 0.83766 0.84922 0.0
C169 C 0.19624 0.84357 0.85961 0.0
C170 C 0.16163 0.82454 0.84553 0.0
C171 C 0.20017 0.83677 0.8706 0.0
C172 C 0.19576 0.82349 0.88802 0.0
C173 C 0.19181 0.82978 0.87754 0.0
C174 C 0.21649 0.83093 0.8846 0.0
C175 C 0.20816 0.82402 0.89171 0.0
C176 C 0.21252 0.83725 0.87418 0.0
C177 C 0.18413 0.86848 0.82121 0.0
C178 C 0.19776 0.88577 0.82521 0.0
C179 C 0.18997 0.88229 0.80469 0.0
C180 C 0.18355 0.87195 0.80885 0.0
C181 C 0.19708 0.88941 0.81283 0.0
C182 C 0.19137 0.87538 0.82936 0.0
C183 C 0.177 0.85775 0.82541 0.0
O184 O 0.1722 0.82307 0.84001 0.0
O185 O 0.16084 0.83506 0.8512 0.0
O186 O 0.17113 0.85904 0.8358 0.0
O187 O 0.1825 0.84716 0.82451 0.0
H188 H 0.15725 0.82684 0.82088 0.0
H189 H 0.13898 0.8199 0.80959 0.0
H190 H 0.12301 0.80676 0.84339 0.0
H191 H 0.14129 0.81369 0.85462 0.0
H192 H 0.18908 0.81837 0.89333 0.0
H193 H 0.18223 0.82925 0.87489 0.0
H194 H 0.22613 0.83137 0.88702 0.0
H195 H 0.21911 0.84252 0.86888 0.0
H196 H 0.20305 0.89109 0.83175 0.0
H197 H 0.18942 0.88467 0.79506 0.0
H198 H 0.17807 0.86668 0.80242 0.0
H199 H 0.19197 0.87281 0.83894 0.0
C200 C 0.14843 0.18264 0.82256 0.0
C201 C 0.14847 0.1955 0.82231 0.0
C202 C 0.12732 0.1955 0.81483 0.0
C203 C 0.13804 0.20185 0.81846 0.0
C204 C 0.12726 0.18263 0.81539 0.0
C205 C 0.13771 0.17629 0.81917 0.0
U206 U 0.17677 0.17603 0.84272 0.0
O207 O 0.18428 0.15841 0.84877 0.0
O208 O 0.19538 0.1707 0.83722 0.0
C209 C 0.19441 0.15986 0.84241 0.0
C210 C 0.15952 0.17564 0.82582 0.0
C211 C 0.1983 0.14936 0.83494 0.0
C212 C 0.19409 0.13012 0.82451 0.0
C213 C 0.18995 0.14036 0.83088 0.0
C214 C 0.21492 0.13792 0.82586 0.0
C215 C 0.20666 0.1287 0.82203 0.0
C216 C 0.21078 0.1481 0.83227 0.0
C217 C 0.18364 0.19613 0.8709 0.0
C218 C 0.20319 0.19943 0.88133 0.0
C219 C 0.18424 0.20425 0.89159 0.0
C220 C 0.17758 0.20044 0.88128 0.0
C221 C 0.19713 0.20387 0.89172 0.0
C222 C 0.19651 0.19554 0.87103 0.0
C223 C 0.17632 0.19262 0.86003 0.0
O224 O 0.17014 0.18129 0.82441 0.0
O225 O 0.15891 0.16909 0.83595 0.0
O226 O 0.17038 0.18211 0.86079 0.0
O227 O 0.18144 0.19448 0.84929 0.0
H228 H 0.15662 0.20065 0.8249 0.0
H229 H 0.13849 0.21175 0.81804 0.0
H230 H 0.11912 0.17741 0.81291 0.0
H231 H 0.13744 0.16638 0.81933 0.0
H232 H 0.18747 0.12317 0.8218 0.0
H233 H 0.18025 0.14111 0.8328 0.0
H234 H 0.22462 0.13728 0.82392 0.0
H235 H 0.21739 0.15494 0.83527 0.0
H236 H 0.2131 0.1989 0.88119 0.0
H237 H 0.17928 0.20775 0.89937 0.0
H238 H 0.16767 0.201 0.88137 0.0
H239 H 0.2014 0.19217 0.86315 0.0
C240 C 0.81921 0.15138 0.83676 0.0
C241 C 0.82788 0.1437 0.83137 0.0
C242 C 0.81149 0.13045 0.82359 0.0
C243 C 0.82405 0.1333 0.82489 0.0
C244 C 0.80286 0.13826 0.82887 0.0
C245 C 0.80669 0.1486 0.8354 0.0
U246 U 0.84052 0.17886 0.84313 0.0
O247 O 0.83585 0.19756 0.84876 0.0
O248 O 0.84745 0.18617 0.8606 0.0
C249 C 0.84135 0.19642 0.85944 0.0
C250 C 0.82295 0.16223 0.84391 0.0
C251 C 0.83425 0.20035 0.87019 0.0
C252 C 0.82354 0.19603 0.88928 0.0
C253 C 0.82974 0.19194 0.87889 0.0
C254 C 0.82602 0.21695 0.88225 0.0
C255 C 0.82169 0.20861 0.89115 0.0
C256 C 0.83225 0.21286 0.87192 0.0
C257 C 0.86798 0.1851 0.82191 0.0
C258 C 0.88544 0.19846 0.82634 0.0
C259 C 0.88204 0.19111 0.8057 0.0
C260 C 0.87158 0.18473 0.80962 0.0
C261 C 0.88918 0.19798 0.81402 0.0
C262 C 0.87492 0.19209 0.83025 0.0
C263 C 0.85708 0.178 0.82578 0.0
O264 O 0.83323 0.16137 0.85019 0.0
O265 O 0.82176 0.17282 0.83829 0.0
O266 O 0.84651 0.1835 0.82441 0.0
O267 O 0.85804 0.17202 0.83622 0.0
H268 H 0.8376 0.14572 0.8322 0.0
H269 H 0.83091 0.12753 0.82082 0.0
H270 H 0.79313 0.13626 0.82815 0.0
H271 H 0.79986 0.15439 0.83949 0.0
H272 H 0.82045 0.18935 0.89598 0.0
H273 H 0.83112 0.18222 0.87776 0.0
H274 H 0.82457 0.22668 0.88324 0.0
H275 H 0.83561 0.21951 0.8653 0.0
H276 H 0.89076 0.20357 0.83302 0.0
H277 H 0.88449 0.19071 0.79611 0.0
H278 H 0.8663 0.17945 0.80304 0.0
H279 H 0.87227 0.19254 0.83978 0.0
C280 C 0.83708 0.87027 0.82147 0.0
C281 C 0.82451 0.87133 0.82392 0.0
C282 C 0.82407 0.89105 0.81328 0.0
C283 C 0.81806 0.88162 0.81985 0.0
C284 C 0.83672 0.88998 0.81107 0.0
C285 C 0.84313 0.87971 0.8151 0.0
U286 U 0.84307 0.84228 0.84224 0.0
O287 O 0.84931 0.82393 0.83728 0.0
O288 O 0.86069 0.83542 0.84934 0.0
C289 C 0.85984 0.82521 0.84309 0.0
C290 C 0.84408 0.8594 0.82525 0.0
C291 C 0.87088 0.82166 0.83629 0.0
C292 C 0.88274 0.82052 0.8175 0.0
C293 C 0.8724 0.82455 0.82383 0.0
C294 C 0.89027 0.81092 0.83607 0.0
C295 C 0.89176 0.81354 0.82352 0.0
C296 C 0.87994 0.81492 0.84236 0.0
C297 C 0.82156 0.83464 0.86916 0.0
C298 C 0.8262 0.82293 0.88762 0.0
C299 C 0.80507 0.82615 0.88162 0.0
C300 C 0.80902 0.83282 0.87137 0.0
C301 C 0.81361 0.8212 0.88993 0.0
C302 C 0.83015 0.82954 0.8773 0.0
C303 C 0.82539 0.84215 0.85851 0.0
O304 O 0.84994 0.86022 0.83576 0.0
O305 O 0.83862 0.84873 0.82364 0.0
O306 O 0.82432 0.83692 0.84774 0.0
O307 O 0.83563 0.84852 0.85977 0.0
H308 H 0.81966 0.86416 0.82887 0.0
H309 H 0.80832 0.88207 0.82164 0.0
H310 H 0.84171 0.89714 0.80626 0.0
H311 H 0.85284 0.8791 0.81319 0.0
H312 H 0.88353 0.82263 0.80784 0.0
H313 H 0.86552 0.82977 0.81897 0.0
H314 H 0.89712 0.80578 0.84107 0.0
H315 H 0.87897 0.81264 0.85198 0.0
H316 H 0.83301 0.81912 0.89376 0.0
H317 H 0.79531 0.82511 0.88319 0.0
H318 H 0.80224 0.83669 0.86522 0.0
H319 H 0.83989 0.83075 0.87575 0.0
C320 C 0.18249 0.64986 0.69973 0.0
C321 C 0.19506 0.64875 0.6973 0.0
C322 C 0.19545 0.62912 0.7081 0.0
C323 C 0.20149 0.63848 0.70146 0.0
C324 C 0.1828 0.63023 0.7103 0.0
C325 C 0.17642 0.64049 0.70618 0.0
U326 U 0.17669 0.67762 0.67866 0.0
O327 O 0.15914 0.68454 0.67147 0.0
O328 O 0.17061 0.69609 0.68338 0.0
C329 C 0.16007 0.69482 0.6776 0.0
C330 C 0.17553 0.66071 0.69586 0.0
C331 C 0.14907 0.69851 0.6844 0.0
C332 C 0.13725 0.69981 0.70319 0.0
C333 C 0.14754 0.69567 0.69686 0.0
C334 C 0.12978 0.70942 0.68461 0.0
C335 C 0.12829 0.70686 0.69717 0.0
C336 C 0.14006 0.70531 0.67832 0.0
C337 C 0.19839 0.68472 0.65173 0.0
C338 C 0.19402 0.69602 0.63295 0.0
C339 C 0.21506 0.69308 0.63942 0.0
C340 C 0.21096 0.68659 0.64972 0.0
C341 C 0.20665 0.6978 0.63085 0.0
C342 C 0.18992 0.68959 0.64332 0.0
C343 C 0.19441 0.67739 0.66245 0.0
O344 O 0.18104 0.67137 0.69735 0.0
O345 O 0.16968 0.65981 0.68534 0.0
O346 O 0.18412 0.67111 0.66123 0.0
O347 O 0.1955 0.68274 0.67316 0.0
H348 H 0.19992 0.65587 0.6923 0.0
H349 H 0.21123 0.638 0.69968 0.0
H350 H 0.17779 0.62312 0.71516 0.0
H351 H 0.16671 0.64113 0.70808 0.0
H352 H 0.13646 0.69773 0.71287 0.0
H353 H 0.15438 0.69039 0.70173 0.0
H354 H 0.12297 0.7146 0.6796 0.0
H355 H 0.14104 0.70754 0.66868 0.0
H356 H 0.18731 0.69965 0.6266 0.0
H357 H 0.22484 0.69416 0.63802 0.0
H358 H 0.21765 0.68289 0.65608 0.0
H359 H 0.18016 0.68834 0.6447 0.0
C360 C 0.81975 0.68501 0.65211 0.0
C361 C 0.82836 0.68947 0.6436 0.0
C362 C 0.81195 0.69825 0.63125 0.0
C363 C 0.82448 0.69597 0.63322 0.0
C364 C 0.8034 0.69391 0.63989 0.0
C365 C 0.80727 0.68733 0.6502 0.0
U366 U 0.84144 0.67876 0.67911 0.0
O367 O 0.83706 0.67326 0.69806 0.0
O368 O 0.84826 0.6614 0.68657 0.0
C369 C 0.84232 0.66257 0.69694 0.0
C370 C 0.82352 0.6779 0.66299 0.0
C371 C 0.83495 0.65189 0.70089 0.0
C372 C 0.82231 0.63398 0.69633 0.0
C373 C 0.82888 0.64434 0.69237 0.0
C374 C 0.8275 0.63879 0.71737 0.0
C375 C 0.8216 0.63107 0.70887 0.0
C376 C 0.83414 0.64908 0.7134 0.0
C377 C 0.86954 0.69954 0.68427 0.0
C378 C 0.88087 0.70196 0.70338 0.0
C379 C 0.88998 0.70863 0.68425 0.0
C380 C 0.87945 0.70479 0.67793 0.0
C381 C 0.89078 0.70734 0.69705 0.0
C382 C 0.87036 0.69803 0.69704 0.0
C383 C 0.85843 0.69589 0.6774 0.0
O384 O 0.83362 0.67153 0.66199 0.0
O385 O 0.82266 0.68358 0.67352 0.0
O386 O 0.84793 0.69743 0.68303 0.0
O387 O 0.85902 0.68543 0.67158 0.0
H388 H 0.83807 0.6879 0.64493 0.0
H389 H 0.83128 0.69931 0.62679 0.0
H390 H 0.79368 0.69541 0.63857 0.0
H391 H 0.80049 0.68397 0.65665 0.0
H392 H 0.81775 0.62828 0.68958 0.0
H393 H 0.82929 0.64639 0.68266 0.0
H394 H 0.82721 0.63673 0.72708 0.0
H395 H 0.83875 0.65479 0.72011 0.0
H396 H 0.88127 0.70072 0.71322 0.0
H397 H 0.89741 0.71284 0.67913 0.0
H398 H 0.87899 0.70603 0.66809 0.0
H399 H 0.86285 0.6939 0.70211 0.0
C400 C 0.82042 0.33543 0.65118 0.0
C401 C 0.82882 0.3314 0.6424 0.0
C402 C 0.81217 0.3222 0.63041 0.0
C403 C 0.82474 0.32489 0.63211 0.0
C404 C 0.80386 0.32602 0.63939 0.0
C405 C 0.80794 0.33259 0.64962 0.0
U406 U 0.84202 0.3432 0.67817 0.0
O407 O 0.84885 0.36119 0.68441 0.0
O408 O 0.83763 0.3497 0.69664 0.0
C409 C 0.84295 0.36041 0.69486 0.0
C410 C 0.82431 0.34295 0.66176 0.0
C411 C 0.83593 0.37133 0.69839 0.0
C412 C 0.81675 0.38146 0.70306 0.0
C413 C 0.82306 0.37114 0.69905 0.0
C414 C 0.83604 0.39238 0.70549 0.0
C415 C 0.82317 0.39219 0.70645 0.0
C416 C 0.84233 0.38206 0.70155 0.0
C417 C 0.8699 0.32267 0.68469 0.0
C418 C 0.88153 0.32106 0.70372 0.0
C419 C 0.88956 0.31241 0.68508 0.0
C420 C 0.87921 0.31641 0.67865 0.0
C421 C 0.8908 0.31454 0.69773 0.0
C422 C 0.87118 0.3251 0.69725 0.0
C423 C 0.85883 0.32618 0.67773 0.0
O424 O 0.82327 0.33776 0.6726 0.0
O425 O 0.83451 0.34937 0.6605 0.0
O426 O 0.85965 0.33637 0.67133 0.0
O427 O 0.84832 0.32488 0.68345 0.0
H428 H 0.83852 0.33344 0.64338 0.0
H429 H 0.8314 0.32221 0.62535 0.0
H430 H 0.79416 0.32394 0.63854 0.0
H431 H 0.80129 0.33556 0.65629 0.0
H432 H 0.80685 0.38093 0.70377 0.0
H433 H 0.81787 0.36299 0.69663 0.0
H434 H 0.84129 0.40052 0.70778 0.0
H435 H 0.85225 0.38243 0.70107 0.0
H436 H 0.88213 0.32279 0.71346 0.0
H437 H 0.8966 0.30765 0.6801 0.0
H438 H 0.87843 0.3145 0.66895 0.0
H439 H 0.86411 0.32995 0.7021 0.0
C440 C 0.14977 0.32169 0.68455 0.0
C441 C 0.14959 0.32257 0.69739 0.0
C442 C 0.12885 0.31396 0.69783 0.0
C443 C 0.13924 0.31868 0.70397 0.0
C444 C 0.12904 0.31326 0.68497 0.0
C445 C 0.1394 0.31706 0.67842 0.0
U446 U 0.17753 0.34269 0.6781 0.0
O447 O 0.19612 0.33819 0.67202 0.0
O448 O 0.18443 0.34972 0.66043 0.0
C449 C 0.19472 0.34364 0.66134 0.0
C450 C 0.16065 0.32537 0.67736 0.0
C451 C 0.19824 0.33661 0.65042 0.0
C452 C 0.20202 0.31736 0.64006 0.0
C453 C 0.19815 0.32375 0.6504 0.0
C454 C 0.20582 0.33656 0.6295 0.0
C455 C 0.20595 0.3237 0.6295 0.0
C456 C 0.20205 0.34293 0.63986 0.0
C457 C 0.184 0.37006 0.69935 0.0
C458 C 0.20308 0.38174 0.70082 0.0
C459 C 0.18462 0.38942 0.71015 0.0
C460 C 0.1781 0.37914 0.70604 0.0
C461 C 0.19723 0.39081 0.7077 0.0
C462 C 0.19652 0.37145 0.69667 0.0
C463 C 0.1769 0.35917 0.6955 0.0
O464 O 0.15975 0.33571 0.67124 0.0
O465 O 0.17138 0.32402 0.68275 0.0
O466 O 0.1824 0.34859 0.69674 0.0
O467 O 0.17081 0.36022 0.68514 0.0
H468 H 0.15745 0.32621 0.70233 0.0
H469 H 0.13933 0.31946 0.71386 0.0
H470 H 0.12125 0.30955 0.67998 0.0
H471 H 0.13935 0.3163 0.66853 0.0
H472 H 0.20188 0.30745 0.6403 0.0
H473 H 0.19517 0.31863 0.6584 0.0
H474 H 0.20891 0.34171 0.62157 0.0
H475 H 0.20222 0.35284 0.63968 0.0
H476 H 0.21278 0.38246 0.69884 0.0
H477 H 0.17975 0.39632 0.7152 0.0
H478 H 0.16843 0.37826 0.70813 0.0
H479 H 0.20124 0.36455 0.69147 0.0
C480 C 0.15185 0.31957 0.33672 0.0
C481 C 0.14349 0.32815 0.33209 0.0
C482 C 0.13096 0.31174 0.32338 0.0
C483 C 0.13311 0.32426 0.32553 0.0
C484 C 0.13944 0.30321 0.32788 0.0
C485 C 0.14975 0.30709 0.33452 0.0
U486 U 0.17918 0.34104 0.34273 0.0
O487 O 0.18659 0.34833 0.36 0.0
O488 O 0.19803 0.33671 0.3485 0.0
C489 C 0.19691 0.34231 0.35904 0.0
C490 C 0.16273 0.32336 0.34389 0.0
C491 C 0.20072 0.33524 0.36992 0.0
C492 C 0.19596 0.3229 0.38793 0.0
C493 C 0.19209 0.32934 0.37751 0.0
C494 C 0.2171 0.32794 0.38313 0.0
C495 C 0.20851 0.32214 0.39086 0.0
C496 C 0.21322 0.33444 0.37278 0.0
C497 C 0.18517 0.36816 0.32109 0.0
C498 C 0.19749 0.38627 0.32567 0.0
C499 C 0.19271 0.38118 0.3046 0.0
C500 C 0.18613 0.37086 0.30857 0.0
C501 C 0.19841 0.38904 0.3131 0.0
C502 C 0.19098 0.37588 0.32963 0.0
C503 C 0.17803 0.35731 0.325 0.0
O504 O 0.17332 0.32221 0.33835 0.0
O505 O 0.16185 0.33364 0.35001 0.0
O506 O 0.17198 0.35828 0.33533 0.0
O507 O 0.18358 0.34678 0.32387 0.0
H508 H 0.14496 0.33785 0.33355 0.0
H509 H 0.1268 0.33105 0.32206 0.0
H510 H 0.13797 0.2935 0.32647 0.0
H511 H 0.15608 0.30033 0.33801 0.0
H512 H 0.18914 0.31842 0.39364 0.0
H513 H 0.18239 0.32974 0.3754 0.0
H514 H 0.22681 0.32763 0.38522 0.0
H515 H 0.22001 0.33893 0.36704 0.0
H516 H 0.2019 0.39209 0.33242 0.0
H517 H 0.19314 0.38313 0.29487 0.0
H518 H 0.18171 0.36501 0.30185 0.0
H519 H 0.19045 0.37391 0.33935 0.0
C520 C 0.14864 0.68276 0.32226 0.0
C521 C 0.14873 0.69562 0.32184 0.0
C522 C 0.12749 0.69561 0.31461 0.0
C523 C 0.13828 0.70197 0.31803 0.0
C524 C 0.12738 0.68275 0.31534 0.0
C525 C 0.13784 0.67642 0.31908 0.0
U526 U 0.17731 0.67636 0.34203 0.0
O527 O 0.18481 0.6588 0.34828 0.0
O528 O 0.19577 0.67079 0.33628 0.0
C529 C 0.19484 0.66006 0.34172 0.0
C530 C 0.15972 0.67574 0.32548 0.0
C531 C 0.19861 0.64941 0.33443 0.0
C532 C 0.1943 0.62991 0.32449 0.0
C533 C 0.19023 0.64024 0.33077 0.0
C534 C 0.21509 0.63791 0.32516 0.0
C535 C 0.20682 0.62855 0.32172 0.0
C536 C 0.21103 0.64818 0.33147 0.0
C537 C 0.1852 0.69718 0.36945 0.0
C538 C 0.19605 0.69262 0.38847 0.0
C539 C 0.19468 0.71356 0.38131 0.0
C540 C 0.18798 0.70963 0.37108 0.0
C541 C 0.1987 0.70512 0.3902 0.0
C542 C 0.1894 0.68867 0.37817 0.0
C543 C 0.17752 0.69344 0.35887 0.0
O544 O 0.17036 0.68126 0.32373 0.0
O545 O 0.15926 0.66945 0.33577 0.0
O546 O 0.17138 0.68307 0.35996 0.0
O547 O 0.18245 0.69498 0.34799 0.0
H548 H 0.15693 0.70076 0.32427 0.0
H549 H 0.13876 0.71185 0.31748 0.0
H550 H 0.1192 0.67753 0.31302 0.0
H551 H 0.13754 0.66651 0.31937 0.0
H552 H 0.18768 0.62286 0.32208 0.0
H553 H 0.18058 0.64096 0.33291 0.0
H554 H 0.22474 0.63731 0.32299 0.0
H555 H 0.21765 0.65514 0.33416 0.0
H556 H 0.19913 0.68588 0.39507 0.0
H557 H 0.19645 0.72326 0.38243 0.0
H558 H 0.18479 0.71635 0.3645 0.0
H559 H 0.18746 0.679 0.37711 0.0
C560 C 0.82051 0.65001 0.33799 0.0
C561 C 0.82042 0.65013 0.32512 0.0
C562 C 0.81274 0.62908 0.32484 0.0
C563 C 0.81651 0.63977 0.31861 0.0
C564 C 0.81303 0.62896 0.33772 0.0
C565 C 0.81684 0.63933 0.34421 0.0
U566 U 0.84124 0.67803 0.34418 0.0
O567 O 0.83653 0.69646 0.35039 0.0
O568 O 0.84847 0.68496 0.36176 0.0
C569 C 0.84221 0.69513 0.36096 0.0
C570 C 0.82417 0.6609 0.34516 0.0
C571 C 0.83533 0.69861 0.37202 0.0
C572 C 0.81623 0.70293 0.38254 0.0
C573 C 0.82245 0.69891 0.37214 0.0
C574 C 0.83565 0.70607 0.39297 0.0
C575 C 0.82276 0.70668 0.39306 0.0
C576 C 0.84184 0.70213 0.38256 0.0
C577 C 0.86809 0.68519 0.3224 0.0
C578 C 0.88561 0.6985 0.32671 0.0
C579 C 0.88177 0.69155 0.306 0.0
C580 C 0.8714 0.68508 0.31002 0.0
C581 C 0.8891 0.69825 0.3143 0.0
C582 C 0.87519 0.69204 0.33072 0.0
C583 C 0.85739 0.67786 0.3264 0.0
O584 O 0.83467 0.66014 0.35107 0.0
O585 O 0.82253 0.6716 0.33988 0.0
O586 O 0.84668 0.68319 0.32542 0.0
O587 O 0.8587 0.67169 0.33668 0.0
H588 H 0.8233 0.65822 0.32009 0.0
H589 H 0.81652 0.6401 0.30869 0.0
H590 H 0.81006 0.62092 0.34279 0.0
H591 H 0.81682 0.63905 0.35414 0.0
H592 H 0.80632 0.70337 0.38221 0.0
H593 H 0.81718 0.69622 0.36414 0.0
H594 H 0.84098 0.70865 0.40096 0.0
H595 H 0.85178 0.70194 0.3827 0.0
H596 H 0.89108 0.70348 0.33337 0.0
H597 H 0.88403 0.69133 0.29636 0.0
H598 H 0.866 0.6799 0.30346 0.0
H599 H 0.87276 0.69228 0.34032 0.0
C600 C 0.83557 0.3695 0.32042 0.0
C601 C 0.83139 0.37816 0.32885 0.0
C602 C 0.82261 0.39033 0.31222 0.0
C603 C 0.825 0.38848 0.32478 0.0
C604 C 0.82658 0.38146 0.30387 0.0
C605 C 0.83301 0.3712 0.30793 0.0
U606 U 0.84305 0.34247 0.34197 0.0
O607 O 0.8493 0.32399 0.33744 0.0
O608 O 0.86101 0.33607 0.34857 0.0
C609 C 0.86003 0.32561 0.34277 0.0
C610 C 0.84296 0.35888 0.32429 0.0
C611 C 0.87085 0.32193 0.3357 0.0
C612 C 0.88225 0.32063 0.31665 0.0
C613 C 0.87202 0.32464 0.32317 0.0
C614 C 0.89034 0.31139 0.33517 0.0
C615 C 0.8915 0.31386 0.32255 0.0
C616 C 0.88012 0.31536 0.34164 0.0
C617 C 0.82283 0.33575 0.37012 0.0
C618 C 0.81968 0.3164 0.3809 0.0
C619 C 0.81481 0.33545 0.39087 0.0
C620 C 0.81854 0.34194 0.38043 0.0
C621 C 0.81523 0.32259 0.3912 0.0
C622 C 0.82349 0.32292 0.37047 0.0
C623 C 0.82616 0.34286 0.35904 0.0
O624 O 0.84941 0.3601 0.33443 0.0
O625 O 0.83759 0.3481 0.32331 0.0
O626 O 0.82465 0.33731 0.34847 0.0
O627 O 0.83641 0.34928 0.35969 0.0
H628 H 0.83321 0.37705 0.33855 0.0
H629 H 0.8222 0.39515 0.33147 0.0
H630 H 0.82472 0.38243 0.29416 0.0
H631 H 0.8361 0.36462 0.30127 0.0
H632 H 0.8828 0.32263 0.30694 0.0
H633 H 0.86497 0.32973 0.31841 0.0
H634 H 0.89737 0.30643 0.34008 0.0
H635 H 0.87943 0.31325 0.35132 0.0
H636 H 0.82025 0.30652 0.38092 0.0
H637 H 0.81132 0.34049 0.39859 0.0
H638 H 0.81793 0.35182 0.38034 0.0
H639 H 0.82685 0.31792 0.36266 0.0
C640 C 0.68357 0.14899 0.69879 0.0
C641 C 0.69645 0.14883 0.69825 0.0
C642 C 0.69656 0.128 0.7064 0.0
C643 C 0.70288 0.13845 0.70207 0.0
C644 C 0.68367 0.12813 0.70668 0.0
C645 C 0.67726 0.13852 0.70294 0.0
U646 U 0.67715 0.17746 0.67884 0.0
O647 O 0.65952 0.18487 0.67257 0.0
O648 O 0.67152 0.19587 0.6845 0.0
C649 C 0.66077 0.1949 0.67909 0.0
C650 C 0.67652 0.16001 0.6955 0.0
C651 C 0.6501 0.19854 0.68646 0.0
C652 C 0.63129 0.19379 0.69754 0.0
C653 C 0.64158 0.18994 0.69102 0.0
C654 C 0.63805 0.21485 0.69527 0.0
C655 C 0.62938 0.20631 0.6997 0.0
C656 C 0.64827 0.211 0.6887 0.0
C657 C 0.69805 0.1852 0.65137 0.0
C658 C 0.69355 0.19575 0.63218 0.0
C659 C 0.7145 0.19469 0.63954 0.0
C660 C 0.71052 0.18808 0.64982 0.0
C661 C 0.70608 0.19851 0.63053 0.0
C662 C 0.68956 0.18921 0.64252 0.0
C663 C 0.69428 0.17761 0.662 0.0
O664 O 0.68208 0.17061 0.69717 0.0
O665 O 0.67024 0.15948 0.6852 0.0
O666 O 0.68388 0.17147 0.66094 0.0
O667 O 0.69581 0.18257 0.67284 0.0
H668 H 0.70154 0.15677 0.69501 0.0
H669 H 0.7128 0.13859 0.70161 0.0
H670 H 0.67853 0.12029 0.71008 0.0
H671 H 0.66734 0.13845 0.70346 0.0
H672 H 0.62485 0.18698 0.70095 0.0
H673 H 0.64281 0.18025 0.68948 0.0
H674 H 0.6368 0.22456 0.69663 0.0
H675 H 0.65471 0.2178 0.68524 0.0
H676 H 0.68683 0.19868 0.62547 0.0
H677 H 0.72422 0.19654 0.63849 0.0
H678 H 0.71723 0.18504 0.65649 0.0
H679 H 0.67987 0.18718 0.6435 0.0
C680 C 0.3208 0.18367 0.6515 0.0
C681 C 0.32112 0.19653 0.65139 0.0
C682 C 0.31292 0.19676 0.63058 0.0
C683 C 0.31715 0.20301 0.64104 0.0
C684 C 0.31278 0.1839 0.63069 0.0
C685 C 0.31665 0.17743 0.64106 0.0
U686 U 0.34219 0.17814 0.67888 0.0
O687 O 0.33811 0.17197 0.69761 0.0
O688 O 0.34979 0.16084 0.68586 0.0
C689 C 0.34376 0.16151 0.69622 0.0
C690 C 0.32469 0.17658 0.66235 0.0
C691 C 0.33682 0.1504 0.69984 0.0
C692 C 0.31757 0.13949 0.70339 0.0
C693 C 0.32394 0.14998 0.69948 0.0
C694 C 0.33687 0.12956 0.70774 0.0
C695 C 0.32397 0.12918 0.70761 0.0
C696 C 0.34322 0.14009 0.70393 0.0
C697 C 0.36888 0.20044 0.68499 0.0
C698 C 0.38617 0.1963 0.69849 0.0
C699 C 0.38279 0.21688 0.69095 0.0
C700 C 0.37242 0.21279 0.68454 0.0
C701 C 0.38987 0.20868 0.69793 0.0
C702 C 0.37574 0.19222 0.6921 0.0
C703 C 0.3581 0.19634 0.6779 0.0
O704 O 0.33522 0.17095 0.66133 0.0
O705 O 0.32326 0.18183 0.67304 0.0
O706 O 0.34751 0.19706 0.68352 0.0
O707 O 0.35935 0.1861 0.67179 0.0
H708 H 0.3244 0.20156 0.6593 0.0
H709 H 0.31748 0.21292 0.64117 0.0
H710 H 0.30947 0.17884 0.62282 0.0
H711 H 0.31634 0.16752 0.64096 0.0
H712 H 0.30764 0.13941 0.70306 0.0
H713 H 0.31878 0.15778 0.69625 0.0
H714 H 0.34205 0.12181 0.71104 0.0
H715 H 0.35315 0.14023 0.70429 0.0
H716 H 0.39145 0.18972 0.70367 0.0
H717 H 0.38523 0.22651 0.6905 0.0
H718 H 0.36718 0.21927 0.67917 0.0
H719 H 0.37312 0.18265 0.6926 0.0
C720 C 0.32228 0.83626 0.64995 0.0
C721 C 0.32229 0.82341 0.64999 0.0
C722 C 0.31483 0.82313 0.62888 0.0
C723 C 0.31855 0.8169 0.63957 0.0
C724 C 0.31508 0.83599 0.62882 0.0
C725 C 0.31873 0.84248 0.63925 0.0
U726 U 0.34196 0.84296 0.67864 0.0
O727 O 0.34826 0.86061 0.6861 0.0
O728 O 0.33615 0.8487 0.69702 0.0
C729 C 0.34163 0.85943 0.69608 0.0
C730 C 0.32548 0.84341 0.661 0.0
C731 C 0.33427 0.87008 0.69965 0.0
C732 C 0.32325 0.88875 0.69476 0.0
C733 C 0.32975 0.87846 0.69097 0.0
C734 C 0.32546 0.88227 0.71589 0.0
C735 C 0.32107 0.8908 0.70728 0.0
C736 C 0.33201 0.87205 0.71211 0.0
C737 C 0.36928 0.82217 0.68662 0.0
C738 C 0.38797 0.82687 0.69806 0.0
C739 C 0.38142 0.8058 0.6955 0.0
C740 C 0.3712 0.80969 0.6888 0.0
C741 C 0.38999 0.81433 0.70013 0.0
C742 C 0.37768 0.83076 0.69141 0.0
C743 C 0.35873 0.82589 0.67894 0.0
O744 O 0.32366 0.83797 0.67163 0.0
O745 O 0.33582 0.8497 0.66057 0.0
O746 O 0.35992 0.83623 0.67283 0.0
O747 O 0.34782 0.82439 0.68384 0.0
H748 H 0.32506 0.81837 0.6581 0.0
H749 H 0.31859 0.807 0.63986 0.0
H750 H 0.31216 0.84107 0.62079 0.0
H751 H 0.31862 0.85238 0.63903 0.0
H752 H 0.31988 0.89507 0.68789 0.0
H753 H 0.33131 0.87711 0.68129 0.0
H754 H 0.32409 0.88363 0.7256 0.0
H755 H 0.33544 0.86573 0.71896 0.0
H756 H 0.39433 0.83368 0.70161 0.0
H757 H 0.38276 0.79608 0.6968 0.0
H758 H 0.36486 0.8029 0.68516 0.0
H759 H 0.37638 0.84046 0.68992 0.0
C760 C 0.65117 0.81997 0.68541 0.0
C761 C 0.64342 0.82853 0.69084 0.0
C762 C 0.63035 0.81206 0.69875 0.0
C763 C 0.63307 0.82462 0.6974 0.0
C764 C 0.63827 0.80353 0.69347 0.0
C765 C 0.64855 0.80746 0.68684 0.0
U766 U 0.67854 0.84135 0.67863 0.0
O767 O 0.69707 0.83702 0.67226 0.0
O768 O 0.68518 0.84863 0.66097 0.0
C769 C 0.69558 0.84272 0.66173 0.0
C770 C 0.66187 0.82382 0.67803 0.0
C771 C 0.69917 0.83592 0.65072 0.0
C772 C 0.70045 0.81709 0.63904 0.0
C773 C 0.69646 0.82341 0.64939 0.0
C774 C 0.70963 0.83579 0.63112 0.0
C775 C 0.70719 0.82319 0.62981 0.0
C776 C 0.70568 0.84206 0.64147 0.0
C777 C 0.6855 0.86835 0.70021 0.0
C778 C 0.69601 0.88765 0.69589 0.0
C779 C 0.69446 0.88029 0.71679 0.0
C780 C 0.68804 0.86994 0.7127 0.0
C781 C 0.69842 0.88937 0.70846 0.0
C782 C 0.68964 0.87723 0.6918 0.0
C783 C 0.67826 0.85753 0.69631 0.0
O784 O 0.66083 0.83418 0.67195 0.0
O785 O 0.67265 0.82253 0.6833 0.0
O786 O 0.68378 0.84695 0.69732 0.0
O787 O 0.67184 0.85863 0.68614 0.0
H788 H 0.64531 0.83825 0.68995 0.0
H789 H 0.62723 0.83141 0.70148 0.0
H790 H 0.63637 0.79381 0.69423 0.0
H791 H 0.6544 0.8007 0.68271 0.0
H792 H 0.69848 0.80739 0.63839 0.0
H793 H 0.6914 0.81849 0.65641 0.0
H794 H 0.71458 0.84084 0.62412 0.0
H795 H 0.7078 0.85173 0.6423 0.0
H796 H 0.69881 0.89449 0.68922 0.0
H797 H 0.69633 0.88117 0.72649 0.0
H798 H 0.68498 0.86317 0.71935 0.0
H799 H 0.68784 0.87621 0.68209 0.0
C800 C 0.65149 0.81975 0.33702 0.0
C801 C 0.64311 0.82818 0.33215 0.0
C802 C 0.63063 0.8115 0.32382 0.0
C803 C 0.63276 0.82409 0.32566 0.0
C804 C 0.63918 0.80314 0.32854 0.0
C805 C 0.64947 0.80723 0.3351 0.0
U806 U 0.67818 0.84198 0.34311 0.0
O807 O 0.68537 0.84922 0.36054 0.0
O808 O 0.69719 0.83831 0.34872 0.0
C809 C 0.69594 0.84371 0.35937 0.0
C810 C 0.66231 0.82378 0.34415 0.0
C811 C 0.70007 0.83672 0.37015 0.0
C812 C 0.7012 0.81784 0.38195 0.0
C813 C 0.69704 0.8243 0.37165 0.0
C814 C 0.71126 0.83622 0.38943 0.0
C815 C 0.70841 0.82371 0.39095 0.0
C816 C 0.70715 0.84264 0.37912 0.0
C817 C 0.68322 0.86969 0.32205 0.0
C818 C 0.70241 0.8807 0.31854 0.0
C819 C 0.68307 0.89038 0.31379 0.0
C820 C 0.67677 0.87986 0.31771 0.0
C821 C 0.69596 0.89087 0.31406 0.0
C822 C 0.69609 0.87022 0.32256 0.0
C823 C 0.67635 0.85858 0.32577 0.0
O824 O 0.67289 0.82303 0.33851 0.0
O825 O 0.66114 0.83394 0.35041 0.0
O826 O 0.67045 0.85925 0.3362 0.0
O827 O 0.68202 0.84814 0.32432 0.0
H828 H 0.64451 0.83791 0.33345 0.0
H829 H 0.62632 0.83079 0.32228 0.0
H830 H 0.63798 0.7934 0.32711 0.0
H831 H 0.65587 0.80059 0.3387 0.0
H832 H 0.69891 0.8082 0.38277 0.0
H833 H 0.69152 0.81958 0.36484 0.0
H834 H 0.71659 0.8411 0.39627 0.0
H835 H 0.7095 0.85225 0.37816 0.0
H836 H 0.71233 0.88088 0.31898 0.0
H837 H 0.67786 0.89803 0.31029 0.0
H838 H 0.66684 0.87963 0.31724 0.0
H839 H 0.70128 0.86253 0.32599 0.0
C840 C 0.64961 0.18418 0.32089 0.0
C841 C 0.64095 0.18812 0.32945 0.0
C842 C 0.62864 0.19718 0.31306 0.0
C843 C 0.63056 0.19454 0.32557 0.0
C844 C 0.6375 0.19342 0.30459 0.0
C845 C 0.64783 0.18697 0.30846 0.0
U846 U 0.677 0.17653 0.34204 0.0
O847 O 0.6839 0.15864 0.348 0.0
O848 O 0.69562 0.17083 0.33696 0.0
C849 C 0.69421 0.15991 0.3419 0.0
C850 C 0.66036 0.17686 0.32454 0.0
C851 C 0.69793 0.14946 0.33428 0.0
C852 C 0.69331 0.13057 0.32337 0.0
C853 C 0.68938 0.14075 0.32996 0.0
C854 C 0.71432 0.13781 0.32504 0.0
C855 C 0.70584 0.12894 0.3209 0.0
C856 C 0.7104 0.14793 0.33168 0.0
C857 C 0.68373 0.19611 0.37063 0.0
C858 C 0.70315 0.20013 0.38107 0.0
C859 C 0.68403 0.2032 0.39172 0.0
C860 C 0.67752 0.19948 0.38128 0.0
C861 C 0.69692 0.20369 0.39171 0.0
C862 C 0.69663 0.19633 0.37065 0.0
C863 C 0.67654 0.19289 0.35956 0.0
O864 O 0.67109 0.18239 0.3236 0.0
O865 O 0.6593 0.17017 0.33453 0.0
O866 O 0.67032 0.18253 0.36005 0.0
O867 O 0.68192 0.19479 0.34896 0.0
H868 H 0.64212 0.18612 0.33911 0.0
H869 H 0.62389 0.19719 0.33235 0.0
H870 H 0.63648 0.19548 0.29493 0.0
H871 H 0.65441 0.18406 0.30171 0.0
H872 H 0.68654 0.12397 0.3202 0.0
H873 H 0.67969 0.14174 0.33177 0.0
H874 H 0.72404 0.13677 0.32341 0.0
H875 H 0.71716 0.15449 0.33496 0.0
H876 H 0.71308 0.20027 0.38081 0.0
H877 H 0.67894 0.206 0.3997 0.0
H878 H 0.66758 0.19942 0.38147 0.0
H879 H 0.70166 0.19369 0.36257 0.0
C880 C 0.32017 0.15054 0.33881 0.0
C881 C 0.31983 0.15054 0.32594 0.0
C882 C 0.31204 0.12951 0.32595 0.0
C883 C 0.31577 0.14015 0.31958 0.0
C884 C 0.31264 0.1295 0.33884 0.0
C885 C 0.31662 0.13991 0.34517 0.0
U886 U 0.34129 0.17833 0.34484 0.0
O887 O 0.33674 0.19695 0.35064 0.0
O888 O 0.34836 0.18548 0.36237 0.0
C889 C 0.34237 0.19578 0.36126 0.0
C890 C 0.32391 0.1615 0.34582 0.0
C891 C 0.33546 0.19963 0.37212 0.0
C892 C 0.3165 0.20121 0.38364 0.0
C893 C 0.32288 0.19706 0.37338 0.0
C894 C 0.33526 0.21028 0.39159 0.0
C895 C 0.3226 0.20796 0.39284 0.0
C896 C 0.3416 0.20618 0.38133 0.0
C897 C 0.3688 0.18472 0.32376 0.0
C898 C 0.37966 0.20408 0.32078 0.0
C899 C 0.38926 0.18512 0.31501 0.0
C900 C 0.37888 0.17859 0.31891 0.0
C901 C 0.38976 0.19795 0.31582 0.0
C902 C 0.3693 0.19752 0.32477 0.0
C903 C 0.35788 0.17755 0.32751 0.0
O904 O 0.33428 0.16068 0.35195 0.0
O905 O 0.32256 0.17214 0.34031 0.0
O906 O 0.34721 0.1829 0.32613 0.0
O907 O 0.35887 0.17152 0.33791 0.0
H908 H 0.32256 0.15861 0.32078 0.0
H909 H 0.31532 0.14055 0.30968 0.0
H910 H 0.31007 0.12143 0.34406 0.0
H911 H 0.31687 0.13967 0.3551 0.0
H912 H 0.30675 0.19933 0.38424 0.0
H913 H 0.31797 0.19197 0.36639 0.0
H914 H 0.34032 0.21523 0.39858 0.0
H915 H 0.35132 0.20818 0.38056 0.0
H916 H 0.37982 0.21394 0.32165 0.0
H917 H 0.39681 0.18013 0.31111 0.0
H918 H 0.37868 0.16872 0.31804 0.0
H919 H 0.36166 0.20245 0.32857 0.0
C920 C 0.33667 0.87074 0.32188 0.0
C921 C 0.32409 0.87181 0.32431 0.0
C922 C 0.32377 0.89169 0.31398 0.0
C923 C 0.31769 0.88219 0.32038 0.0
C924 C 0.33643 0.89064 0.31184 0.0
C925 C 0.34278 0.88028 0.31572 0.0
U926 U 0.34308 0.84251 0.34223 0.0
O927 O 0.34846 0.82398 0.33666 0.0
O928 O 0.36075 0.83503 0.34824 0.0
C929 C 0.35935 0.82499 0.34179 0.0
C930 C 0.34355 0.85967 0.32526 0.0
C931 C 0.36987 0.82136 0.33417 0.0
C932 C 0.38886 0.8261 0.32339 0.0
C933 C 0.37864 0.82993 0.33 0.0
C934 C 0.38154 0.80514 0.3247 0.0
C935 C 0.39047 0.81364 0.32072 0.0
C936 C 0.37138 0.80897 0.33137 0.0
C937 C 0.32301 0.83567 0.37054 0.0
C938 C 0.31855 0.81625 0.38074 0.0
C939 C 0.31592 0.83525 0.39164 0.0
C940 C 0.31977 0.84179 0.38127 0.0
C941 C 0.31518 0.8224 0.39148 0.0
C942 C 0.32248 0.82281 0.37038 0.0
C943 C 0.32651 0.84294 0.35961 0.0
O944 O 0.35005 0.8603 0.33542 0.0
O945 O 0.33771 0.84916 0.32396 0.0
O946 O 0.3246 0.83783 0.34888 0.0
O947 O 0.33703 0.84889 0.36031 0.0
H948 H 0.31918 0.86457 0.32908 0.0
H949 H 0.30794 0.88264 0.32212 0.0
H950 H 0.34147 0.89786 0.30716 0.0
H951 H 0.3525 0.87966 0.31381 0.0
H952 H 0.39551 0.83288 0.32034 0.0
H953 H 0.37766 0.83957 0.33195 0.0
H954 H 0.38256 0.79547 0.32292 0.0
H955 H 0.36476 0.80219 0.33452 0.0
H956 H 0.31821 0.80635 0.38036 0.0
H957 H 0.31326 0.84028 0.3997 0.0
H958 H 0.32006 0.8517 0.3816 0.0
H959 H 0.325 0.81784 0.36224 0.0
C960 C 0.68293 0.64946 0.19921 0.0
C961 C 0.69553 0.64841 0.19693 0.0
C962 C 0.69576 0.62852 0.20724 0.0
C963 C 0.7019 0.63804 0.20092 0.0
C964 C 0.68307 0.62955 0.20923 0.0
C965 C 0.67675 0.63991 0.20529 0.0
U966 U 0.67721 0.67775 0.17884 0.0
O967 O 0.65979 0.68535 0.17223 0.0
O968 O 0.67175 0.69629 0.18425 0.0
C969 C 0.66103 0.69537 0.17875 0.0
C970 C 0.67608 0.66051 0.19569 0.0
C971 C 0.65032 0.69905 0.18606 0.0
C972 C 0.63114 0.69441 0.19656 0.0
C973 C 0.64144 0.69052 0.19009 0.0
C974 C 0.63859 0.71533 0.19535 0.0
C975 C 0.62957 0.70687 0.19924 0.0
C976 C 0.64882 0.71146 0.18882 0.0
C977 C 0.69871 0.68465 0.1516 0.0
C978 C 0.69457 0.69762 0.13389 0.0
C979 C 0.71529 0.691 0.1381 0.0
C980 C 0.71115 0.68465 0.14847 0.0
C981 C 0.70704 0.69746 0.13058 0.0
C982 C 0.69044 0.69128 0.14431 0.0
C983 C 0.69461 0.67735 0.16227 0.0
O984 O 0.68181 0.67103 0.19729 0.0
O985 O 0.66997 0.65994 0.1853 0.0
O986 O 0.68408 0.67148 0.16108 0.0
O987 O 0.69602 0.68251 0.17303 0.0
H988 H 0.70049 0.65567 0.19222 0.0
H989 H 0.71167 0.63762 0.1993 0.0
H990 H 0.67799 0.62231 0.21383 0.0
H991 H 0.66701 0.64052 0.20707 0.0
H992 H 0.62444 0.68765 0.19954 0.0
H993 H 0.64241 0.68088 0.18816 0.0
H994 H 0.6376 0.725 0.19713 0.0
H995 H 0.65552 0.7182 0.18578 0.0
H996 H 0.68795 0.70241 0.12827 0.0
H997 H 0.72498 0.69086 0.13599 0.0
H998 H 0.71769 0.67964 0.154 0.0
H999 H 0.68079 0.69143 0.14658 0.0
C1000 C 0.3201 0.68316 0.15143 0.0
C1001 C 0.32045 0.69601 0.15107 0.0
C1002 C 0.31199 0.6959 0.13034 0.0
C1003 C 0.31638 0.70231 0.14065 0.0
C1004 C 0.31189 0.68302 0.1307 0.0
C1005 C 0.31586 0.67674 0.14115 0.0
U1006 U 0.34134 0.67826 0.17905 0.0
O1007 O 0.33695 0.67244 0.19788 0.0
O1008 O 0.34903 0.66129 0.18657 0.0
C1009 C 0.34291 0.66212 0.19687 0.0
C1010 C 0.32397 0.67628 0.16242 0.0
C1011 C 0.33611 0.65107 0.20076 0.0
C1012 C 0.32279 0.63364 0.19635 0.0
C1013 C 0.32908 0.64418 0.19243 0.0
C1014 C 0.33034 0.6369 0.217 0.0
C1015 C 0.32338 0.62983 0.20869 0.0
C1016 C 0.33665 0.64739 0.21305 0.0
C1017 C 0.36796 0.70062 0.18513 0.0
C1018 C 0.3869 0.69653 0.19623 0.0
C1019 C 0.38009 0.71738 0.19357 0.0
C1020 C 0.36979 0.71316 0.18712 0.0
C1021 C 0.38886 0.70914 0.19811 0.0
C1022 C 0.37653 0.69231 0.18985 0.0
C1023 C 0.35721 0.69646 0.17795 0.0
O1024 O 0.33454 0.67069 0.16159 0.0
O1025 O 0.32244 0.68173 0.173 0.0
O1026 O 0.34655 0.69729 0.18342 0.0
O1027 O 0.35847 0.68621 0.17188 0.0
H1028 H 0.32375 0.70118 0.15888 0.0
H1029 H 0.31648 0.71221 0.14076 0.0
H1030 H 0.30879 0.67777 0.12287 0.0
H1031 H 0.3156 0.66683 0.14121 0.0
H1032 H 0.31763 0.62837 0.18968 0.0
H1033 H 0.3285 0.64692 0.18289 0.0
H1034 H 0.33083 0.63439 0.22659 0.0
H1035 H 0.34196 0.65265 0.21963 0.0
H1036 H 0.3935 0.68992 0.19946 0.0
H1037 H 0.38116 0.72713 0.19504 0.0
H1038 H 0.36325 0.71972 0.18362 0.0
H1039 H 0.3753 0.68257 0.1885 0.0
C1040 C 0.32036 0.33624 0.15071 0.0
C1041 C 0.3288 0.32946 0.14393 0.0
C1042 C 0.31263 0.3234 0.12955 0.0
C1043 C 0.32497 0.32311 0.13344 0.0
C1044 C 0.30422 0.33005 0.13653 0.0
C1045 C 0.30806 0.33641 0.14697 0.0
U1046 U 0.34146 0.34277 0.1784 0.0
O1047 O 0.34817 0.36037 0.1856 0.0
O1048 O 0.33643 0.34856 0.197 0.0
C1049 C 0.34188 0.35928 0.1958 0.0
C1050 C 0.32413 0.34333 0.16158 0.0
C1051 C 0.33462 0.36997 0.19948 0.0
C1052 C 0.32342 0.38855 0.19466 0.0
C1053 C 0.32988 0.37825 0.19083 0.0
C1054 C 0.32611 0.38227 0.2158 0.0
C1055 C 0.3215 0.3907 0.2072 0.0
C1056 C 0.33262 0.37204 0.21197 0.0
C1057 C 0.36886 0.32171 0.18511 0.0
C1058 C 0.38634 0.32619 0.19838 0.0
C1059 C 0.38272 0.30552 0.19127 0.0
C1060 C 0.37231 0.30942 0.18488 0.0
C1061 C 0.38995 0.31386 0.19802 0.0
C1062 C 0.37588 0.33008 0.192 0.0
C1063 C 0.35806 0.32555 0.17792 0.0
O1064 O 0.32281 0.33775 0.17219 0.0
O1065 O 0.3345 0.34954 0.1607 0.0
O1066 O 0.35913 0.33594 0.17187 0.0
O1067 O 0.34739 0.32417 0.18332 0.0
H1068 H 0.33835 0.32918 0.14669 0.0
H1069 H 0.33173 0.31817 0.12825 0.0
H1070 H 0.29461 0.33029 0.13397 0.0
H1071 H 0.30139 0.34152 0.15212 0.0
H1072 H 0.31988 0.39479 0.1878 0.0
H1073 H 0.33122 0.37682 0.18112 0.0
H1074 H 0.32492 0.38372 0.22552 0.0
H1075 H 0.33621 0.36579 0.2188 0.0
H1076 H 0.39173 0.33289 0.2034 0.0
H1077 H 0.38505 0.29593 0.19096 0.0
H1078 H 0.36698 0.30281 0.17968 0.0
H1079 H 0.37335 0.33962 0.19233 0.0
C1080 C 0.64947 0.3214 0.18405 0.0
C1081 C 0.64964 0.32122 0.19693 0.0
C1082 C 0.62848 0.31372 0.19727 0.0
C1083 C 0.63926 0.31736 0.20347 0.0
C1084 C 0.62831 0.31409 0.18439 0.0
C1085 C 0.63871 0.31786 0.17786 0.0
U1086 U 0.67739 0.34221 0.17749 0.0
O1087 O 0.69594 0.33757 0.17142 0.0
O1088 O 0.68432 0.34913 0.15979 0.0
C1089 C 0.69458 0.343 0.16072 0.0
C1090 C 0.66039 0.32499 0.17685 0.0
C1091 C 0.69808 0.33592 0.14982 0.0
C1092 C 0.70184 0.31663 0.13953 0.0
C1093 C 0.69797 0.32306 0.14985 0.0
C1094 C 0.70566 0.33579 0.12891 0.0
C1095 C 0.70577 0.32293 0.12895 0.0
C1096 C 0.70189 0.3422 0.13925 0.0
C1097 C 0.684 0.36964 0.19863 0.0
C1098 C 0.70319 0.38114 0.20033 0.0
C1099 C 0.68463 0.38916 0.20915 0.0
C1100 C 0.67808 0.3789 0.20505 0.0
C1101 C 0.6973 0.39038 0.20695 0.0
C1102 C 0.69659 0.37086 0.19619 0.0
C1103 C 0.67686 0.35876 0.19482 0.0
O1104 O 0.65956 0.33531 0.17067 0.0
O1105 O 0.67112 0.32359 0.18221 0.0
O1106 O 0.6823 0.34816 0.1961 0.0
O1107 O 0.67077 0.3598 0.18446 0.0
H1108 H 0.6578 0.324 0.20194 0.0
H1109 H 0.63963 0.3173 0.21338 0.0
H1110 H 0.62021 0.31123 0.17934 0.0
H1111 H 0.63838 0.3179 0.16794 0.0
H1112 H 0.70169 0.30673 0.1398 0.0
H1113 H 0.69499 0.31797 0.15786 0.0
H1114 H 0.70876 0.34092 0.12096 0.0
H1115 H 0.70207 0.35211 0.13903 0.0
H1116 H 0.71294 0.38172 0.19855 0.0
H1117 H 0.67973 0.39619 0.21399 0.0
H1118 H 0.66835 0.37816 0.20696 0.0
H1119 H 0.70134 0.36383 0.1912 0.0
C1120 C 0.65182 0.31983 0.83735 0.0
C1121 C 0.64421 0.32836 0.83151 0.0
C1122 C 0.63092 0.31188 0.82412 0.0
C1123 C 0.6338 0.32442 0.825 0.0
C1124 C 0.63866 0.30338 0.82987 0.0
C1125 C 0.649 0.30732 0.83645 0.0
U1126 U 0.67892 0.34163 0.84284 0.0
O1127 O 0.68645 0.34919 0.85995 0.0
O1128 O 0.69792 0.33765 0.84839 0.0
C1129 C 0.69688 0.34337 0.85888 0.0
C1130 C 0.66274 0.32374 0.84439 0.0
C1131 C 0.70098 0.33652 0.86978 0.0
C1132 C 0.69685 0.32325 0.88726 0.0
C1133 C 0.69275 0.32946 0.87679 0.0
C1134 C 0.71747 0.33089 0.88367 0.0
C1135 C 0.70926 0.32393 0.89087 0.0
C1136 C 0.71335 0.33713 0.87325 0.0
C1137 C 0.6841 0.36864 0.82089 0.0
C1138 C 0.69758 0.38604 0.82499 0.0
C1139 C 0.68975 0.38264 0.80446 0.0
C1140 C 0.68344 0.37221 0.80857 0.0
C1141 C 0.69684 0.38974 0.81263 0.0
C1142 C 0.69129 0.37555 0.82907 0.0
C1143 C 0.67722 0.35771 0.82498 0.0
O1144 O 0.67327 0.32268 0.83872 0.0
O1145 O 0.6618 0.33406 0.85043 0.0
O1146 O 0.67136 0.3587 0.83542 0.0
O1147 O 0.68295 0.34728 0.82387 0.0
H1148 H 0.64628 0.33806 0.83198 0.0
H1149 H 0.62808 0.33118 0.82056 0.0
H1150 H 0.63662 0.29367 0.82945 0.0
H1151 H 0.65477 0.3006 0.84088 0.0
H1152 H 0.69025 0.31808 0.89264 0.0
H1153 H 0.68315 0.32884 0.87422 0.0
H1154 H 0.72712 0.33144 0.88602 0.0
H1155 H 0.71985 0.34247 0.8679 0.0
H1156 H 0.70285 0.39134 0.83155 0.0
H1157 H 0.68916 0.38507 0.79485 0.0
H1158 H 0.67801 0.36693 0.8021 0.0
H1159 H 0.69196 0.3729 0.83863 0.0
C1160 C 0.65052 0.68407 0.82077 0.0
C1161 C 0.64187 0.68809 0.8293 0.0
C1162 C 0.62955 0.69702 0.81285 0.0
C1163 C 0.63148 0.69448 0.82538 0.0
C1164 C 0.6384 0.69318 0.8044 0.0
C1165 C 0.64873 0.68675 0.80832 0.0
U1166 U 0.67778 0.6767 0.84212 0.0
O1167 O 0.68475 0.6589 0.84829 0.0
O1168 O 0.69649 0.67109 0.83726 0.0
C1169 C 0.69512 0.66021 0.8423 0.0
C1170 C 0.66129 0.67682 0.82448 0.0
C1171 C 0.69906 0.64971 0.83486 0.0
C1172 C 0.69486 0.63049 0.82436 0.0
C1173 C 0.6907 0.64074 0.83069 0.0
C1174 C 0.71572 0.63817 0.82596 0.0
C1175 C 0.70745 0.629 0.82202 0.0
C1176 C 0.71156 0.64837 0.83233 0.0
C1177 C 0.6841 0.6965 0.87062 0.0
C1178 C 0.70344 0.69973 0.88146 0.0
C1179 C 0.68427 0.70448 0.89137 0.0
C1180 C 0.67783 0.70073 0.88091 0.0
C1181 C 0.69716 0.70414 0.89174 0.0
C1182 C 0.69697 0.6959 0.87101 0.0
C1183 C 0.67703 0.69318 0.85952 0.0
O1184 O 0.67199 0.6824 0.82359 0.0
O1185 O 0.6602 0.67015 0.8345 0.0
O1186 O 0.67088 0.68278 0.86001 0.0
O1187 O 0.68252 0.69503 0.84896 0.0
H1188 H 0.64305 0.68617 0.83898 0.0
H1189 H 0.62482 0.69719 0.83214 0.0
H1190 H 0.63737 0.69517 0.79472 0.0
H1191 H 0.65531 0.6838 0.80158 0.0
H1192 H 0.68824 0.62358 0.82157 0.0
H1193 H 0.68099 0.64155 0.83249 0.0
H1194 H 0.72543 0.63748 0.82414 0.0
H1195 H 0.71817 0.65517 0.83543 0.0
H1196 H 0.71335 0.69922 0.88151 0.0
H1197 H 0.67916 0.70795 0.89906 0.0
H1198 H 0.66791 0.70129 0.88079 0.0
H1199 H 0.70202 0.69258 0.86321 0.0
C1200 C 0.31917 0.65175 0.83685 0.0
C1201 C 0.32779 0.6442 0.83121 0.0
C1202 C 0.31136 0.631 0.82343 0.0
C1203 C 0.32392 0.6339 0.82461 0.0
C1204 C 0.30277 0.63871 0.82893 0.0
C1205 C 0.30664 0.64895 0.8356 0.0
U1206 U 0.34054 0.67905 0.8437 0.0
O1207 O 0.33618 0.69751 0.8501 0.0
O1208 O 0.34782 0.68563 0.86137 0.0
C1209 C 0.34188 0.696 0.86063 0.0
C1210 C 0.32298 0.6624 0.84426 0.0
C1211 C 0.33507 0.69956 0.87166 0.0
C1212 C 0.31616 0.70108 0.88326 0.0
C1213 C 0.32247 0.69709 0.87289 0.0
C1214 C 0.33503 0.70978 0.89136 0.0
C1215 C 0.32234 0.70757 0.89258 0.0
C1216 C 0.3413 0.70583 0.881 0.0
C1217 C 0.36763 0.68607 0.82216 0.0
C1218 C 0.38695 0.6966 0.82655 0.0
C1219 C 0.37966 0.69504 0.80563 0.0
C1220 C 0.36927 0.68862 0.80967 0.0
C1221 C 0.38872 0.69901 0.81399 0.0
C1222 C 0.37649 0.69022 0.8306 0.0
C1223 C 0.35678 0.67883 0.82602 0.0
O1224 O 0.33336 0.66137 0.85034 0.0
O1225 O 0.32169 0.67316 0.83901 0.0
O1226 O 0.34617 0.68433 0.82502 0.0
O1227 O 0.35788 0.6724 0.83618 0.0
H1228 H 0.33752 0.64623 0.83197 0.0
H1229 H 0.33076 0.62822 0.82037 0.0
H1230 H 0.29304 0.63667 0.82831 0.0
H1231 H 0.29984 0.65464 0.83988 0.0
H1232 H 0.30639 0.6993 0.88383 0.0
H1233 H 0.31749 0.69222 0.86579 0.0
H1234 H 0.34014 0.71453 0.89845 0.0
H1235 H 0.35104 0.70776 0.88025 0.0
H1236 H 0.39377 0.6994 0.83325 0.0
H1237 H 0.38058 0.69692 0.79592 0.0
H1238 H 0.36252 0.68556 0.80301 0.0
H1239 H 0.37543 0.68841 0.8403 0.0
C1240 C 0.33732 0.37121 0.82138 0.0
C1241 C 0.32477 0.37238 0.82386 0.0
C1242 C 0.3245 0.39214 0.81328 0.0
C1243 C 0.31841 0.38275 0.81983 0.0
C1244 C 0.33715 0.39098 0.81109 0.0
C1245 C 0.34346 0.38063 0.81507 0.0
U1246 U 0.34351 0.34312 0.84199 0.0
O1247 O 0.34886 0.32452 0.83662 0.0
O1248 O 0.36112 0.33563 0.84818 0.0
C1249 C 0.35971 0.32551 0.84184 0.0
C1250 C 0.34416 0.36015 0.82489 0.0
C1251 C 0.37026 0.32177 0.83435 0.0
C1252 C 0.38873 0.3265 0.82271 0.0
C1253 C 0.37846 0.33038 0.82924 0.0
C1254 C 0.38254 0.3054 0.826 0.0
C1255 C 0.39092 0.31396 0.82106 0.0
C1256 C 0.37235 0.30928 0.83259 0.0
C1257 C 0.32319 0.33654 0.87018 0.0
C1258 C 0.31842 0.31722 0.88044 0.0
C1259 C 0.31594 0.3363 0.89122 0.0
C1260 C 0.31996 0.34275 0.88087 0.0
C1261 C 0.31497 0.32345 0.89112 0.0
C1262 C 0.32251 0.32369 0.87008 0.0
C1263 C 0.32681 0.34372 0.85923 0.0
O1264 O 0.35059 0.36083 0.83509 0.0
O1265 O 0.33831 0.34964 0.82362 0.0
O1266 O 0.32496 0.33855 0.84852 0.0
O1267 O 0.33735 0.34964 0.85998 0.0
H1268 H 0.31984 0.36522 0.82874 0.0
H1269 H 0.30867 0.38327 0.82161 0.0
H1270 H 0.3422 0.39811 0.8063 0.0
H1271 H 0.35316 0.37993 0.81312 0.0
H1272 H 0.39493 0.33332 0.8189 0.0
H1273 H 0.37701 0.34009 0.8304 0.0
H1274 H 0.38402 0.29568 0.82503 0.0
H1275 H 0.36616 0.30248 0.83647 0.0
H1276 H 0.3177 0.30735 0.87997 0.0
H1277 H 0.31361 0.34142 0.89933 0.0
H1278 H 0.32046 0.35265 0.88117 0.0
H1279 H 0.32497 0.31866 0.86196 0.0
C1280 C 0.25299 0.24009 0.05228 0.0
C1281 C 0.24018 0.23923 0.05361 0.0
C1282 C 0.25815 0.24524 0.0417 0.0
C1283 C 0.25062 0.24985 0.03229 0.0
C1284 C 0.23267 0.24368 0.04411 0.0
C1285 C 0.23783 0.24888 0.03355 0.0
C1286 C 0.25594 0.25515 0.02089 0.0
C1287 C 0.26807 0.27992 0.05149 0.0
C1288 C 0.28084 0.28037 0.05347 0.0
C1289 C 0.26315 0.27454 0.04093 0.0
C1290 C 0.27087 0.26936 0.03215 0.0
C1291 C 0.28855 0.27533 0.04456 0.0
C1292 C 0.28361 0.26996 0.03399 0.0
C1293 C 0.26575 0.26374 0.02083 0.0
C1294 C 0.26843 0.27897 0.96766 0.0
C1295 C 0.28123 0.27985 0.96621 0.0
C1296 C 0.26338 0.2737 0.97823 0.0
C1297 C 0.271 0.26897 0.9875 0.0
C1298 C 0.28884 0.27531 0.97559 0.0
C1299 C 0.28377 0.26997 0.98613 0.0
C1300 C 0.26578 0.26357 0.99891 0.0
C1301 C 0.25262 0.23946 0.96802 0.0
C1302 C 0.2398 0.23927 0.9664 0.0
C1303 C 0.25792 0.24455 0.97856 0.0
C1304 C 0.25052 0.24965 0.98767 0.0
C1305 C 0.23243 0.2442 0.97564 0.0
C1306 C 0.23773 0.24926 0.98618 0.0
C1307 C 0.25594 0.255 0.99897 0.0
H1308 H 0.25905 0.23653 0.0593 0.0
H1309 H 0.26803 0.24547 0.04081 0.0
H1310 H 0.22277 0.24323 0.04486 0.0
H1311 H 0.23181 0.25226 0.0264 0.0
H1312 H 0.26187 0.28394 0.058 0.0
H1313 H 0.25331 0.27455 0.03957 0.0
H1314 H 0.2984 0.27542 0.04581 0.0
H1315 H 0.28976 0.26612 0.0273 0.0
H1316 H 0.26231 0.28261 0.96074 0.0
H1317 H 0.25351 0.27348 0.97922 0.0
H1318 H 0.29872 0.27578 0.97474 0.0
H1319 H 0.28986 0.26652 0.99319 0.0
H1320 H 0.25857 0.23577 0.96108 0.0
H1321 H 0.26779 0.24445 0.97961 0.0
H1322 H 0.22253 0.24402 0.97479 0.0
H1323 H 0.23181 0.25298 0.99314 0.0
N1324 N 0.25139 0.2512 0.00996 0.0
N1325 N 0.27033 0.26753 0.00985 0.0
C1326 C 0.76823 0.24171 0.96865 0.0
C1327 C 0.78103 0.24079 0.96758 0.0
C1328 C 0.76301 0.24662 0.97919 0.0
C1329 C 0.7705 0.25096 0.9888 0.0
C1330 C 0.78849 0.24486 0.97732 0.0
C1331 C 0.78327 0.24986 0.98782 0.0
C1332 C 0.76514 0.25617 1.00009 0.0
C1333 C 0.75391 0.28122 0.96927 0.0
C1334 C 0.74117 0.28152 0.96716 0.0
C1335 C 0.75864 0.2758 0.9799 0.0
C1336 C 0.75074 0.27048 0.9886 0.0
C1337 C 0.73329 0.27632 0.97599 0.0
C1338 C 0.73803 0.27093 0.98663 0.0
C1339 C 0.75562 0.26486 0.99999 0.0
C1340 C 0.75294 0.27976 0.05305 0.0
C1341 C 0.74017 0.28091 0.05434 0.0
C1342 C 0.75789 0.27448 0.04256 0.0
C1343 C 0.75019 0.27002 0.03319 0.0
C1344 C 0.73249 0.27662 0.04485 0.0
C1345 C 0.73745 0.27128 0.03439 0.0
C1346 C 0.75532 0.26462 0.02188 0.0
C1347 C 0.7664 0.23947 0.05264 0.0
C1348 C 0.77912 0.23929 0.05485 0.0
C1349 C 0.76172 0.24491 0.04201 0.0
C1350 C 0.76966 0.25029 0.03338 0.0
C1351 C 0.78705 0.2446 0.04615 0.0
C1352 C 0.78236 0.24995 0.03547 0.0
C1353 C 0.76482 0.25592 0.02199 0.0
H1354 H 0.76223 0.23845 0.96141 0.0
H1355 H 0.75312 0.24691 0.97987 0.0
H1356 H 0.79838 0.24436 0.97675 0.0
H1357 H 0.78925 0.25301 0.99513 0.0
H1358 H 0.76024 0.28536 0.96281 0.0
H1359 H 0.76847 0.27589 0.98138 0.0
H1360 H 0.72345 0.27629 0.97462 0.0
H1361 H 0.73176 0.26696 0.99325 0.0
H1362 H 0.75915 0.28289 0.06017 0.0
H1363 H 0.76776 0.27401 0.04174 0.0
H1364 H 0.72264 0.27755 0.04541 0.0
H1365 H 0.73131 0.26809 0.02722 0.0
H1366 H 0.76006 0.2355 0.0592 0.0
H1367 H 0.7519 0.24482 0.04048 0.0
H1368 H 0.79689 0.24445 0.04752 0.0
H1369 H 0.78866 0.25394 0.02887 0.0
N1370 N 0.7694 0.25211 0.01111 0.0
N1371 N 0.75105 0.26867 0.01087 0.0
C1372 C 0.76801 0.77963 0.05199 0.0
C1373 C 0.78079 0.78009 0.05386 0.0
C1374 C 0.76302 0.77431 0.04143 0.0
C1375 C 0.77067 0.76921 0.03254 0.0
C1376 C 0.78843 0.77514 0.04485 0.0
C1377 C 0.78342 0.76982 0.03428 0.0
C1378 C 0.76546 0.76368 0.02122 0.0
C1379 C 0.75297 0.73971 0.05251 0.0
C1380 C 0.74018 0.73921 0.05418 0.0
C1381 C 0.758 0.74488 0.04188 0.0
C1382 C 0.75038 0.7498 0.03273 0.0
C1383 C 0.73257 0.744 0.04491 0.0
C1384 C 0.73762 0.74917 0.03428 0.0
C1385 C 0.7556 0.75514 0.02131 0.0
C1386 C 0.75198 0.73972 0.96839 0.0
C1387 C 0.73916 0.7395 0.96683 0.0
C1388 C 0.75731 0.7448 0.97892 0.0
C1389 C 0.74994 0.74985 0.98808 0.0
C1390 C 0.73181 0.74441 0.9761 0.0
C1391 C 0.73714 0.74945 0.98664 0.0
C1392 C 0.75543 0.75512 0.99939 0.0
C1393 C 0.76757 0.77963 0.96838 0.0
C1394 C 0.78033 0.77996 0.96646 0.0
C1395 C 0.76267 0.7743 0.97898 0.0
C1396 C 0.7704 0.76908 0.98788 0.0
C1397 C 0.78805 0.77483 0.97544 0.0
C1398 C 0.78313 0.76953 0.98607 0.0
C1399 C 0.76531 0.76363 0.9993 0.0
H1400 H 0.76185 0.78359 0.05858 0.0
H1401 H 0.75316 0.77433 0.04015 0.0
H1402 H 0.7983 0.77525 0.04602 0.0
H1403 H 0.78952 0.76605 0.02751 0.0
H1404 H 0.7591 0.73587 0.05931 0.0
H1405 H 0.76787 0.74488 0.04076 0.0
H1406 H 0.72269 0.74386 0.04591 0.0
H1407 H 0.73154 0.75281 0.02732 0.0
H1408 H 0.7579 0.73605 0.96142 0.0
H1409 H 0.76719 0.7447 0.97993 0.0
H1410 H 0.72191 0.74421 0.97529 0.0
H1411 H 0.73126 0.75314 0.99364 0.0
H1412 H 0.76136 0.78344 0.96163 0.0
H1413 H 0.75283 0.77437 0.98028 0.0
H1414 H 0.79791 0.77508 0.97434 0.0
H1415 H 0.78929 0.76571 0.99287 0.0
N1416 N 0.76997 0.76751 0.01023 0.0
N1417 N 0.75093 0.75128 0.01039 0.0
C1418 C 0.26748 0.74051 0.96939 0.0
C1419 C 0.2803 0.74025 0.96803 0.0
C1420 C 0.26223 0.74551 0.97988 0.0
C1421 C 0.26969 0.75047 0.98919 0.0
C1422 C 0.28773 0.74508 0.97745 0.0
C1423 C 0.28247 0.75006 0.98794 0.0
C1424 C 0.2643 0.75568 1.00046 0.0
C1425 C 0.25264 0.78031 0.96948 0.0
C1426 C 0.23989 0.78058 0.96747 0.0
C1427 C 0.25747 0.77494 0.98009 0.0
C1428 C 0.24965 0.76963 0.98887 0.0
C1429 C 0.23209 0.77536 0.97636 0.0
C1430 C 0.23693 0.77001 0.98698 0.0
C1431 C 0.25464 0.7642 1.0003 0.0
C1432 C 0.25256 0.78048 0.0528 0.0
C1433 C 0.23981 0.78083 0.05463 0.0
C1434 C 0.25738 0.77511 0.0423 0.0
C1435 C 0.24956 0.76987 0.03345 0.0
C1436 C 0.232 0.77572 0.04568 0.0
C1437 C 0.23683 0.77038 0.03515 0.0
C1438 C 0.25457 0.76429 0.0222 0.0
C1439 C 0.2665 0.74052 0.05369 0.0
C1440 C 0.27925 0.73936 0.05508 0.0
C1441 C 0.26155 0.74581 0.0431 0.0
C1442 C 0.26927 0.75029 0.03378 0.0
C1443 C 0.28696 0.74365 0.04566 0.0
C1444 C 0.28201 0.74904 0.03512 0.0
C1445 C 0.26417 0.75569 0.02236 0.0
H1446 H 0.26148 0.73667 0.96243 0.0
H1447 H 0.25234 0.74537 0.98077 0.0
H1448 H 0.29762 0.74517 0.97667 0.0
H1449 H 0.28842 0.75376 0.99502 0.0
H1450 H 0.25891 0.78447 0.96297 0.0
H1451 H 0.26731 0.77511 0.98151 0.0
H1452 H 0.22224 0.7753 0.97506 0.0
H1453 H 0.23072 0.76606 0.99367 0.0
H1454 H 0.25883 0.78428 0.05953 0.0
H1455 H 0.26723 0.7751 0.04107 0.0
H1456 H 0.22213 0.776 0.04672 0.0
H1457 H 0.23061 0.76655 0.02838 0.0
H1458 H 0.26032 0.73707 0.06067 0.0
H1459 H 0.25167 0.74621 0.04213 0.0
H1460 H 0.29682 0.74292 0.04649 0.0
H1461 H 0.28816 0.7523 0.02802 0.0
N1462 N 0.2687 0.75181 0.01148 0.0
N1463 N 0.25012 0.76812 0.01117 0.0
C1464 C 0.96726 0.24254 0.2517 0.0
C1465 C 0.96597 0.24195 0.23888 0.0
C1466 C 0.97799 0.24728 0.257 0.0
C1467 C 0.98757 0.2518 0.24962 0.0
C1468 C 0.97572 0.24619 0.23153 0.0
C1469 C 0.98639 0.25103 0.23684 0.0
C1470 C 0.99906 0.25682 0.25507 0.0
C1471 C 0.96866 0.28127 0.2677 0.0
C1472 C 0.967 0.28133 0.28048 0.0
C1473 C 0.97913 0.2761 0.26258 0.0
C1474 C 0.9881 0.27074 0.27011 0.0
C1475 C 0.97612 0.27614 0.28799 0.0
C1476 C 0.98657 0.27098 0.28286 0.0
C1477 C 0.99929 0.26524 0.26487 0.0
C1478 C 0.05299 0.27906 0.26866 0.0
C1479 C 0.05426 0.27948 0.28149 0.0
C1480 C 0.04227 0.27436 0.26327 0.0
C1481 C 0.03269 0.26974 0.27059 0.0
C1482 C 0.0445 0.27517 0.28877 0.0
C1483 C 0.03384 0.27038 0.28338 0.0
C1484 C 0.02123 0.26474 0.26509 0.0
C1485 C 0.05187 0.2407 0.25234 0.0
C1486 C 0.05334 0.24037 0.23954 0.0
C1487 C 0.04137 0.24578 0.2575 0.0
C1488 C 0.0322 0.25084 0.24999 0.0
C1489 C 0.04397 0.24513 0.23206 0.0
C1490 C 0.03352 0.25027 0.23723 0.0
C1491 C 0.021 0.25632 0.25528 0.0
H1492 H 0.95995 0.23942 0.25765 0.0
H1493 H 0.97881 0.24736 0.26689 0.0
H1494 H 0.97517 0.24564 0.22164 0.0
H1495 H 0.99372 0.25425 0.23094 0.0
H1496 H 0.96195 0.28539 0.26166 0.0
H1497 H 0.98025 0.27638 0.25273 0.0
H1498 H 0.9751 0.27589 0.29785 0.0
H1499 H 0.99339 0.26699 0.28887 0.0
H1500 H 0.06032 0.28224 0.26275 0.0
H1501 H 0.04148 0.27436 0.25338 0.0
H1502 H 0.04502 0.27561 0.29866 0.0
H1503 H 0.0265 0.26709 0.28923 0.0
H1504 H 0.05889 0.23717 0.2584 0.0
H1505 H 0.04044 0.24574 0.26737 0.0
H1506 H 0.04464 0.2448 0.22218 0.0
H1507 H 0.02649 0.25391 0.23123 0.0
N1508 N 0.00992 0.25279 0.25063 0.0
N1509 N 0.01037 0.26877 0.26952 0.0
C1510 C 0.73964 0.96762 0.26655 0.0
C1511 C 0.73834 0.96616 0.2793 0.0
C1512 C 0.74502 0.97823 0.26166 0.0
C1513 C 0.74946 0.98752 0.2694 0.0
C1514 C 0.74257 0.97559 0.28701 0.0
C1515 C 0.74804 0.98615 0.28211 0.0
C1516 C 0.75501 0.99894 0.26438 0.0
C1517 C 0.77955 0.96835 0.25273 0.0
C1518 C 0.78071 0.96697 0.23998 0.0
C1519 C 0.77413 0.97876 0.25763 0.0
C1520 C 0.76952 0.98796 0.24988 0.0
C1521 C 0.7763 0.97632 0.23226 0.0
C1522 C 0.77082 0.9867 0.23717 0.0
C1523 C 0.76386 0.99915 0.25493 0.0
C1524 C 0.77999 0.0519 0.2533 0.0
C1525 C 0.78031 0.05403 0.24058 0.0
C1526 C 0.77463 0.04122 0.25805 0.0
C1527 C 0.76938 0.03247 0.25018 0.0
C1528 C 0.77517 0.04515 0.23273 0.0
C1529 C 0.76984 0.03446 0.23749 0.0
C1530 C 0.76382 0.02103 0.25508 0.0
C1531 C 0.74031 0.05205 0.26773 0.0
C1532 C 0.73948 0.05318 0.28054 0.0
C1533 C 0.74528 0.04156 0.2625 0.0
C1534 C 0.74973 0.03204 0.26995 0.0
C1535 C 0.74367 0.0435 0.28795 0.0
C1536 C 0.74869 0.03305 0.28272 0.0
C1537 C 0.75504 0.02082 0.26459 0.0
H1538 H 0.73656 0.96053 0.26033 0.0
H1539 H 0.74563 0.97919 0.2518 0.0
H1540 H 0.7415 0.97491 0.29685 0.0
H1541 H 0.7512 0.99326 0.28827 0.0
H1542 H 0.78277 0.96133 0.25897 0.0
H1543 H 0.7736 0.97964 0.26748 0.0
H1544 H 0.77724 0.97571 0.22242 0.0
H1545 H 0.76752 0.99375 0.231 0.0
H1546 H 0.78409 0.0584 0.2596 0.0
H1547 H 0.77471 0.03973 0.26787 0.0
H1548 H 0.77516 0.04653 0.2229 0.0
H1549 H 0.76592 0.02778 0.23124 0.0
H1550 H 0.73723 0.05932 0.26173 0.0
H1551 H 0.7456 0.04089 0.25262 0.0
H1552 H 0.74295 0.04392 0.29783 0.0
H1553 H 0.75186 0.02577 0.28867 0.0
N1554 N 0.75105 0.00978 0.26888 0.0
N1555 N 0.76781 0.01021 0.2506 0.0
C1556 C 0.0519 0.77995 0.25312 0.0
C1557 C 0.0534 0.77988 0.24033 0.0
C1558 C 0.04125 0.77508 0.25845 0.0
C1559 C 0.03191 0.76998 0.2511 0.0
C1560 C 0.04395 0.77493 0.233 0.0
C1561 C 0.03329 0.77011 0.23833 0.0
C1562 C 0.02048 0.7649 0.25657 0.0
C1563 C 0.05111 0.74048 0.26893 0.0
C1564 C 0.05272 0.73959 0.2817 0.0
C1565 C 0.04064 0.74593 0.26396 0.0
C1566 C 0.03166 0.75087 0.27163 0.0
C1567 C 0.04361 0.74431 0.28936 0.0
C1568 C 0.03319 0.74986 0.28438 0.0
C1569 C 0.02038 0.75648 0.26647 0.0
C1570 C 0.96726 0.74108 0.26913 0.0
C1571 C 0.96547 0.74086 0.28189 0.0
C1572 C 0.97791 0.74626 0.26412 0.0
C1573 C 0.98697 0.75146 0.27174 0.0
C1574 C 0.97464 0.74594 0.2895 0.0
C1575 C 0.9853 0.75111 0.28447 0.0
C1576 C 0.99843 0.75675 0.26653 0.0
C1577 C 0.96764 0.78061 0.25314 0.0
C1578 C 0.96603 0.78064 0.24035 0.0
C1579 C 0.97815 0.77558 0.25848 0.0
C1580 C 0.98725 0.77039 0.25113 0.0
C1581 C 0.97524 0.7756 0.23302 0.0
C1582 C 0.98576 0.77061 0.23836 0.0
C1583 C 0.99855 0.76514 0.25661 0.0
H1584 H 0.05902 0.78367 0.25902 0.0
H1585 H 0.04029 0.77536 0.26831 0.0
H1586 H 0.04472 0.77491 0.22311 0.0
H1587 H 0.02615 0.76637 0.23246 0.0
H1588 H 0.05781 0.7367 0.26277 0.0
H1589 H 0.03951 0.74613 0.2541 0.0
H1590 H 0.0446 0.74382 0.29923 0.0
H1591 H 0.02634 0.75345 0.2905 0.0
H1592 H 0.96054 0.73702 0.26301 0.0
H1593 H 0.97914 0.74603 0.25429 0.0
H1594 H 0.97354 0.74601 0.29935 0.0
H1595 H 0.99221 0.75497 0.29054 0.0
H1596 H 0.96071 0.78438 0.25905 0.0
H1597 H 0.9792 0.77582 0.26834 0.0
H1598 H 0.9744 0.77566 0.22313 0.0
H1599 H 0.99271 0.76681 0.23248 0.0
N1600 N 0.00957 0.76881 0.25199 0.0
N1601 N 0.00935 0.75282 0.27111 0.0
C1602 C 0.25245 0.96812 0.24197 0.0
C1603 C 0.23965 0.96647 0.24132 0.0
C1604 C 0.25755 0.97879 0.24698 0.0
C1605 C 0.24997 0.98794 0.25168 0.0
C1606 C 0.23209 0.97575 0.24577 0.0
C1607 C 0.23719 0.98638 0.25086 0.0
C1608 C 0.25518 0.99937 0.25698 0.0
C1609 C 0.26837 0.96853 0.28103 0.0
C1610 C 0.28119 0.96723 0.2813 0.0
C1611 C 0.26305 0.97902 0.27597 0.0
C1612 C 0.27044 0.98837 0.27091 0.0
C1613 C 0.28855 0.97671 0.27642 0.0
C1614 C 0.28323 0.98718 0.27135 0.0
C1615 C 0.26497 0.99958 0.26555 0.0
C1616 C 0.26662 0.05244 0.28122 0.0
C1617 C 0.27938 0.05422 0.28226 0.0
C1618 C 0.26179 0.04184 0.27582 0.0
C1619 C 0.2696 0.0329 0.2711 0.0
C1620 C 0.28718 0.04516 0.27774 0.0
C1621 C 0.28234 0.03461 0.27225 0.0
C1622 C 0.26461 0.02147 0.26558 0.0
C1623 C 0.25137 0.05231 0.24152 0.0
C1624 C 0.23855 0.05359 0.24128 0.0
C1625 C 0.25672 0.04185 0.24661 0.0
C1626 C 0.24935 0.03247 0.25164 0.0
C1627 C 0.23121 0.04408 0.24615 0.0
C1628 C 0.23655 0.03362 0.25119 0.0
C1629 C 0.25485 0.02126 0.25698 0.0
H1630 H 0.25853 0.96124 0.23842 0.0
H1631 H 0.26743 0.97993 0.24708 0.0
H1632 H 0.2222 0.97473 0.24549 0.0
H1633 H 0.23113 0.99333 0.2543 0.0
H1634 H 0.26243 0.96153 0.28492 0.0
H1635 H 0.25317 0.97986 0.2761 0.0
H1636 H 0.29845 0.97598 0.27634 0.0
H1637 H 0.28913 0.9943 0.2676 0.0
H1638 H 0.26036 0.05911 0.28484 0.0
H1639 H 0.25193 0.04058 0.2755 0.0
H1640 H 0.29705 0.04628 0.27834 0.0
H1641 H 0.28856 0.0278 0.26882 0.0
H1642 H 0.2573 0.05946 0.23789 0.0
H1643 H 0.26661 0.04107 0.24655 0.0
H1644 H 0.2213 0.04467 0.24593 0.0
H1645 H 0.23067 0.02645 0.25487 0.0
N1646 N 0.25048 0.01022 0.25311 0.0
N1647 N 0.26933 0.01063 0.26943 0.0
C1648 C 0.96808 0.74142 0.7518 0.0
C1649 C 0.96637 0.74192 0.73903 0.0
C1650 C 0.97872 0.74629 0.75718 0.0
C1651 C 0.98783 0.75184 0.7499 0.0
C1652 C 0.97557 0.74736 0.73177 0.0
C1653 C 0.98623 0.75219 0.73714 0.0
C1654 C 0.99929 0.75677 0.75543 0.0
C1655 C 0.96875 0.7805 0.76889 0.0
C1656 C 0.96709 0.78027 0.78166 0.0
C1657 C 0.97922 0.77545 0.76364 0.0
C1658 C 0.9882 0.76992 0.77104 0.0
C1659 C 0.9762 0.77487 0.78904 0.0
C1660 C 0.98665 0.76983 0.78379 0.0
C1661 C 0.99946 0.7647 0.76563 0.0
C1662 C 0.05264 0.77952 0.76977 0.0
C1663 C 0.05431 0.77881 0.78254 0.0
C1664 C 0.042 0.77476 0.76429 0.0
C1665 C 0.03284 0.76914 0.77146 0.0
C1666 C 0.04507 0.77329 0.78969 0.0
C1667 C 0.03441 0.76859 0.78421 0.0
C1668 C 0.02139 0.76432 0.76583 0.0
C1669 C 0.05189 0.7406 0.75216 0.0
C1670 C 0.05348 0.74086 0.73937 0.0
C1671 C 0.04148 0.74568 0.75747 0.0
C1672 C 0.03247 0.75126 0.75014 0.0
C1673 C 0.04437 0.74632 0.73206 0.0
C1674 C 0.03397 0.75139 0.73738 0.0
C1675 C 0.02122 0.75644 0.7556 0.0
H1676 H 0.96115 0.73733 0.75765 0.0
H1677 H 0.97987 0.74562 0.76702 0.0
H1678 H 0.97462 0.74772 0.72189 0.0
H1679 H 0.9932 0.75628 0.73133 0.0
H1680 H 0.96207 0.78479 0.76294 0.0
H1681 H 0.98035 0.77601 0.7538 0.0
H1682 H 0.97518 0.7744 0.79889 0.0
H1683 H 0.99348 0.76571 0.7897 0.0
H1684 H 0.0596 0.78369 0.76401 0.0
H1685 H 0.04088 0.77558 0.75445 0.0
H1686 H 0.04599 0.77277 0.79956 0.0
H1687 H 0.0274 0.76444 0.78994 0.0
H1688 H 0.05859 0.73627 0.75806 0.0
H1689 H 0.04038 0.74508 0.76731 0.0
H1690 H 0.04534 0.74681 0.7222 0.0
H1691 H 0.02712 0.75555 0.73151 0.0
N1692 N 0.01017 0.75304 0.75078 0.0
N1693 N 0.01051 0.76807 0.77047 0.0
C1694 C 0.24 0.96767 0.76774 0.0
C1695 C 0.23978 0.96567 0.78049 0.0
C1696 C 0.24525 0.97835 0.76286 0.0
C1697 C 0.25047 0.98723 0.7706 0.0
C1698 C 0.24492 0.97465 0.78821 0.0
C1699 C 0.25013 0.98534 0.78332 0.0
C1700 C 0.25584 0.99869 0.76555 0.0
C1701 C 0.28023 0.9682 0.75343 0.0
C1702 C 0.28074 0.96662 0.74066 0.0
C1703 C 0.27495 0.97864 0.75842 0.0
C1704 C 0.26995 0.9877 0.75077 0.0
C1705 C 0.27586 0.97579 0.73302 0.0
C1706 C 0.27061 0.98624 0.73802 0.0
C1707 C 0.2645 0.99892 0.75595 0.0
C1708 C 0.2801 0.05201 0.7542 0.0
C1709 C 0.28129 0.05363 0.74146 0.0
C1710 C 0.27467 0.04139 0.75901 0.0
C1711 C 0.27005 0.03224 0.75119 0.0
C1712 C 0.27686 0.04435 0.73367 0.0
C1713 C 0.27134 0.03377 0.73849 0.0
C1714 C 0.26448 0.0208 0.75614 0.0
C1715 C 0.24049 0.05156 0.76856 0.0
C1716 C 0.23963 0.05278 0.78135 0.0
C1717 C 0.24564 0.04111 0.76342 0.0
C1718 C 0.25025 0.03174 0.77097 0.0
C1719 C 0.24399 0.04326 0.78886 0.0
C1720 C 0.24919 0.03285 0.78372 0.0
C1721 C 0.25573 0.02056 0.7657 0.0
H1722 H 0.23589 0.9611 0.76153 0.0
H1723 H 0.24509 0.97974 0.75303 0.0
H1724 H 0.24503 0.97337 0.79805 0.0
H1725 H 0.25403 0.99211 0.78947 0.0
H1726 H 0.28384 0.9613 0.75959 0.0
H1727 H 0.27488 0.97967 0.76828 0.0
H1728 H 0.27627 0.97496 0.72315 0.0
H1729 H 0.26696 0.99317 0.73192 0.0
H1730 H 0.28332 0.05898 0.76049 0.0
H1731 H 0.27417 0.0403 0.76886 0.0
H1732 H 0.27784 0.04515 0.72383 0.0
H1733 H 0.26805 0.02676 0.73227 0.0
H1734 H 0.23701 0.05861 0.76251 0.0
H1735 H 0.24593 0.04033 0.75355 0.0
H1736 H 0.24356 0.04393 0.79874 0.0
H1737 H 0.25256 0.02572 0.78975 0.0
N1738 N 0.25186 0.0095 0.77007 0.0
N1739 N 0.26842 0.00997 0.7516 0.0
C1740 C 0.05201 0.28007 0.75337 0.0
C1741 C 0.05348 0.28006 0.74058 0.0
C1742 C 0.04134 0.27524 0.7587 0.0
C1743 C 0.03196 0.27022 0.75135 0.0
C1744 C 0.04398 0.2752 0.73325 0.0
C1745 C 0.03331 0.27041 0.73857 0.0
C1746 C 0.02053 0.26514 0.75681 0.0
C1747 C 0.05112 0.24063 0.76908 0.0
C1748 C 0.0527 0.23965 0.78184 0.0
C1749 C 0.04068 0.24612 0.76412 0.0
C1750 C 0.03168 0.25101 0.7718 0.0
C1751 C 0.04358 0.24432 0.78952 0.0
C1752 C 0.03318 0.24991 0.78455 0.0
C1753 C 0.02041 0.25666 0.76667 0.0
C1754 C 0.96738 0.24112 0.76917 0.0
C1755 C 0.96552 0.24091 0.78192 0.0
C1756 C 0.97802 0.24636 0.76421 0.0
C1757 C 0.98701 0.25163 0.77187 0.0
C1758 C 0.97461 0.24607 0.78957 0.0
C1759 C 0.98527 0.2513 0.78459 0.0
C1760 C 0.99846 0.25696 0.76671 0.0
C1761 C 0.96763 0.2808 0.75342 0.0
C1762 C 0.96614 0.28111 0.7406 0.0
C1763 C 0.97812 0.27571 0.75874 0.0
C1764 C 0.9873 0.27069 0.75138 0.0
C1765 C 0.97543 0.27622 0.73327 0.0
C1766 C 0.98591 0.27114 0.7386 0.0
C1767 C 0.99859 0.2654 0.75684 0.0
H1768 H 0.05916 0.28372 0.75928 0.0
H1769 H 0.0404 0.27547 0.76857 0.0
H1770 H 0.04473 0.27523 0.72336 0.0
H1771 H 0.02614 0.26673 0.7327 0.0
H1772 H 0.05784 0.23689 0.76291 0.0
H1773 H 0.03957 0.24638 0.75426 0.0
H1774 H 0.04454 0.24376 0.79938 0.0
H1775 H 0.02632 0.25347 0.79068 0.0
H1776 H 0.96072 0.23699 0.76302 0.0
H1777 H 0.9793 0.24614 0.75438 0.0
H1778 H 0.97345 0.24617 0.79941 0.0
H1779 H 0.99212 0.25521 0.79069 0.0
H1780 H 0.96078 0.28469 0.75934 0.0
H1781 H 0.97912 0.27584 0.76861 0.0
H1782 H 0.97455 0.27617 0.72339 0.0
H1783 H 0.99289 0.2674 0.73271 0.0
N1784 N 0.00962 0.26909 0.75225 0.0
N1785 N 0.00937 0.253 0.77127 0.0
C1786 C 0.75256 0.96773 0.74159 0.0
C1787 C 0.73975 0.96619 0.7409 0.0
C1788 C 0.75773 0.97836 0.74662 0.0
C1789 C 0.75021 0.98756 0.75132 0.0
C1790 C 0.73224 0.97552 0.74535 0.0
C1791 C 0.73742 0.9861 0.75047 0.0
C1792 C 0.75549 0.99897 0.75662 0.0
C1793 C 0.76878 0.96808 0.78054 0.0
C1794 C 0.78161 0.96672 0.7807 0.0
C1795 C 0.76347 0.97859 0.77553 0.0
C1796 C 0.77084 0.98791 0.77041 0.0
C1797 C 0.78896 0.97618 0.77577 0.0
C1798 C 0.78364 0.98668 0.77075 0.0
C1799 C 0.76536 0.99915 0.7651 0.0
C1800 C 0.76678 0.05154 0.78163 0.0
C1801 C 0.77949 0.05386 0.78188 0.0
C1802 C 0.76204 0.04093 0.77618 0.0
C1803 C 0.7699 0.03245 0.77077 0.0
C1804 C 0.78735 0.04529 0.77656 0.0
C1805 C 0.7826 0.03466 0.77115 0.0
C1806 C 0.76498 0.02103 0.76522 0.0
C1807 C 0.75147 0.05202 0.74156 0.0
C1808 C 0.73864 0.05324 0.74136 0.0
C1809 C 0.75687 0.04155 0.74657 0.0
C1810 C 0.74956 0.03211 0.75156 0.0
C1811 C 0.73135 0.04369 0.74621 0.0
C1812 C 0.73675 0.03322 0.75117 0.0
C1813 C 0.75512 0.02085 0.75674 0.0
H1814 H 0.75858 0.96081 0.73804 0.0
H1815 H 0.76762 0.97943 0.74672 0.0
H1816 H 0.72235 0.97458 0.74503 0.0
H1817 H 0.73141 0.99309 0.75391 0.0
H1818 H 0.76285 0.9611 0.78447 0.0
H1819 H 0.75359 0.97946 0.77574 0.0
H1820 H 0.79885 0.97541 0.77561 0.0
H1821 H 0.78953 0.99378 0.76696 0.0
H1822 H 0.76047 0.05797 0.78559 0.0
H1823 H 0.75222 0.03932 0.77629 0.0
H1824 H 0.7972 0.04672 0.77676 0.0
H1825 H 0.78886 0.02817 0.76718 0.0
H1826 H 0.75736 0.05921 0.73795 0.0
H1827 H 0.76676 0.04081 0.74646 0.0
H1828 H 0.72144 0.04425 0.74602 0.0
H1829 H 0.7309 0.026 0.75481 0.0
N1830 N 0.75073 0.00983 0.75286 0.0
N1831 N 0.76976 0.01018 0.76898 0.0
C1832 C 0.25337 0.73881 0.55242 0.0
C1833 C 0.2406 0.73823 0.55419 0.0
C1834 C 0.25827 0.74414 0.5418 0.0
C1835 C 0.25052 0.74907 0.53276 0.0
C1836 C 0.23286 0.74305 0.54506 0.0
C1837 C 0.23778 0.74833 0.53442 0.0
C1838 C 0.25559 0.75461 0.52137 0.0
C1839 C 0.26762 0.77898 0.55236 0.0
C1840 C 0.2804 0.78031 0.55382 0.0
C1841 C 0.26265 0.77353 0.54186 0.0
C1842 C 0.27034 0.76905 0.53265 0.0
C1843 C 0.28806 0.77601 0.54449 0.0
C1844 C 0.28308 0.77049 0.53401 0.0
C1845 C 0.26518 0.76345 0.52132 0.0
C1846 C 0.26737 0.77905 0.46821 0.0
C1847 C 0.28015 0.78004 0.46666 0.0
C1848 C 0.26242 0.77371 0.4788 0.0
C1849 C 0.27014 0.76902 0.48801 0.0
C1850 C 0.28785 0.77553 0.47601 0.0
C1851 C 0.28289 0.77014 0.48657 0.0
C1852 C 0.26505 0.76345 0.49939 0.0
C1853 C 0.25224 0.73972 0.46814 0.0
C1854 C 0.23941 0.73887 0.46678 0.0
C1855 C 0.25749 0.74474 0.47874 0.0
C1856 C 0.25004 0.74923 0.48813 0.0
C1857 C 0.23199 0.74309 0.47635 0.0
C1858 C 0.23725 0.74816 0.48691 0.0
C1859 C 0.25542 0.75464 0.49944 0.0
H1860 H 0.25959 0.73524 0.55929 0.0
H1861 H 0.26813 0.74433 0.54063 0.0
H1862 H 0.22299 0.74258 0.54604 0.0
H1863 H 0.2316 0.75193 0.52751 0.0
H1864 H 0.26142 0.78211 0.55936 0.0
H1865 H 0.25277 0.77292 0.5409 0.0
H1866 H 0.29793 0.77708 0.54517 0.0
H1867 H 0.28921 0.7673 0.52697 0.0
H1868 H 0.26115 0.78235 0.4612 0.0
H1869 H 0.25255 0.77331 0.47981 0.0
H1870 H 0.29772 0.77634 0.47526 0.0
H1871 H 0.28905 0.76678 0.49361 0.0
H1872 H 0.25824 0.73662 0.46096 0.0
H1873 H 0.26739 0.7451 0.47958 0.0
H1874 H 0.2221 0.74236 0.47576 0.0
H1875 H 0.2313 0.75136 0.49409 0.0
N1876 N 0.25105 0.75065 0.51044 0.0
N1877 N 0.26958 0.76743 0.51033 0.0
C1878 C 0.77855 0.75217 0.55349 0.0
C1879 C 0.77895 0.73937 0.55483 0.0
C1880 C 0.7737 0.75747 0.54286 0.0
C1881 C 0.76891 0.7501 0.53343 0.0
C1882 C 0.77444 0.73203 0.54523 0.0
C1883 C 0.76951 0.73734 0.53465 0.0
C1884 C 0.76378 0.75554 0.52204 0.0
C1885 C 0.7398 0.76848 0.5528 0.0
C1886 C 0.73987 0.78125 0.55435 0.0
C1887 C 0.74484 0.76327 0.54231 0.0
C1888 C 0.7502 0.77072 0.53321 0.0
C1889 C 0.74508 0.78867 0.54512 0.0
C1890 C 0.75012 0.78346 0.53465 0.0
C1891 C 0.75548 0.76539 0.52195 0.0
C1892 C 0.7401 0.76876 0.46901 0.0
C1893 C 0.7404 0.78152 0.46726 0.0
C1894 C 0.74505 0.76351 0.47963 0.0
C1895 C 0.75048 0.7709 0.48868 0.0
C1896 C 0.74573 0.78889 0.47643 0.0
C1897 C 0.75063 0.78364 0.48705 0.0
C1898 C 0.75563 0.76552 0.50005 0.0
C1899 C 0.77944 0.75309 0.46911 0.0
C1900 C 0.78012 0.74034 0.46773 0.0
C1901 C 0.77422 0.75812 0.47959 0.0
C1902 C 0.76933 0.7505 0.48882 0.0
C1903 C 0.77544 0.73273 0.47707 0.0
C1904 C 0.77013 0.73776 0.48751 0.0
C1905 C 0.76395 0.75569 0.50012 0.0
H1906 H 0.78189 0.75812 0.5607 0.0
H1907 H 0.77376 0.76734 0.542 0.0
H1908 H 0.77484 0.72215 0.54581 0.0
H1909 H 0.76607 0.73145 0.52742 0.0
H1910 H 0.73566 0.76251 0.5596 0.0
H1911 H 0.74445 0.75343 0.54126 0.0
H1912 H 0.74542 0.79852 0.54606 0.0
H1913 H 0.75411 0.7894 0.52772 0.0
H1914 H 0.73587 0.76282 0.46225 0.0
H1915 H 0.74452 0.75367 0.48082 0.0
H1916 H 0.74626 0.79873 0.47534 0.0
H1917 H 0.7547 0.78953 0.49395 0.0
H1918 H 0.78319 0.7592 0.4622 0.0
H1919 H 0.77418 0.76797 0.48055 0.0
H1920 H 0.77579 0.72288 0.47626 0.0
H1921 H 0.76656 0.73168 0.49454 0.0
N1922 N 0.76761 0.75105 0.51112 0.0
N1923 N 0.75181 0.77002 0.51095 0.0
C1924 C 0.78012 0.26765 0.46807 0.0
C1925 C 0.78027 0.28043 0.46643 0.0
C1926 C 0.77507 0.26236 0.47865 0.0
C1927 C 0.76998 0.26974 0.48778 0.0
C1928 C 0.77535 0.28778 0.47568 0.0
C1929 C 0.77034 0.28249 0.48626 0.0
C1930 C 0.76468 0.26432 0.49911 0.0
C1931 C 0.74051 0.25176 0.46795 0.0
C1932 C 0.73953 0.23899 0.46657 0.0
C1933 C 0.74588 0.25683 0.47845 0.0
C1934 C 0.75063 0.24926 0.48775 0.0
C1935 C 0.74411 0.23144 0.47599 0.0
C1936 C 0.74954 0.23652 0.48646 0.0
C1937 C 0.7561 0.2545 0.4991 0.0
C1938 C 0.74085 0.25138 0.55222 0.0
C1939 C 0.74024 0.23859 0.55376 0.0
C1940 C 0.74591 0.25658 0.54161 0.0
C1941 C 0.75068 0.24912 0.53238 0.0
C1942 C 0.74473 0.23116 0.54433 0.0
C1943 C 0.74985 0.23637 0.53377 0.0
C1944 C 0.75609 0.25447 0.52104 0.0
C1945 C 0.77967 0.26758 0.55245 0.0
C1946 C 0.78027 0.28037 0.55373 0.0
C1947 C 0.77471 0.2623 0.54185 0.0
C1948 C 0.77 0.26969 0.53238 0.0
C1949 C 0.77583 0.28774 0.54412 0.0
C1950 C 0.77079 0.28246 0.53356 0.0
C1951 C 0.76468 0.26429 0.52104 0.0
H1952 H 0.78379 0.26172 0.46112 0.0
H1953 H 0.77519 0.25251 0.47972 0.0
H1954 H 0.77551 0.29765 0.47482 0.0
H1955 H 0.76663 0.28839 0.49324 0.0
H1956 H 0.73717 0.25787 0.46088 0.0
H1957 H 0.7462 0.26669 0.47934 0.0
H1958 H 0.74331 0.22158 0.47539 0.0
H1959 H 0.75294 0.23048 0.49358 0.0
H1960 H 0.73754 0.2574 0.55928 0.0
H1961 H 0.74606 0.26644 0.54063 0.0
H1962 H 0.74418 0.22129 0.54505 0.0
H1963 H 0.75326 0.23041 0.5267 0.0
H1964 H 0.78322 0.26165 0.55959 0.0
H1965 H 0.77463 0.25244 0.54102 0.0
H1966 H 0.77607 0.29762 0.54483 0.0
H1967 H 0.76735 0.28837 0.52636 0.0
N1968 N 0.76854 0.26885 0.51007 0.0
N1969 N 0.75224 0.24993 0.51007 0.0
C1970 C 0.25335 0.281 0.4698 0.0
C1971 C 0.24063 0.28106 0.4676 0.0
C1972 C 0.25809 0.27567 0.48045 0.0
C1973 C 0.25021 0.27023 0.48911 0.0
C1974 C 0.23276 0.2757 0.47632 0.0
C1975 C 0.2375 0.27043 0.48702 0.0
C1976 C 0.25511 0.26479 0.50056 0.0
C1977 C 0.26785 0.24103 0.46967 0.0
C1978 C 0.28068 0.24082 0.46827 0.0
C1979 C 0.26261 0.24601 0.48017 0.0
C1980 C 0.27007 0.25099 0.48947 0.0
C1981 C 0.28811 0.24568 0.47769 0.0
C1982 C 0.28286 0.25062 0.48819 0.0
C1983 C 0.26469 0.25618 0.50074 0.0
C1984 C 0.26633 0.24065 0.55384 0.0
C1985 C 0.27908 0.23947 0.55542 0.0
C1986 C 0.26152 0.24602 0.54323 0.0
C1987 C 0.26936 0.25056 0.53405 0.0
C1988 C 0.28689 0.24383 0.5461 0.0
C1989 C 0.28208 0.24927 0.53553 0.0
C1990 C 0.26442 0.25611 0.52263 0.0
C1991 C 0.25279 0.28048 0.55339 0.0
C1992 C 0.24002 0.28162 0.55476 0.0
C1993 C 0.25766 0.27508 0.54293 0.0
C1994 C 0.24989 0.27047 0.53369 0.0
C1995 C 0.23228 0.27721 0.54538 0.0
C1996 C 0.23716 0.27175 0.53495 0.0
C1997 C 0.25493 0.26485 0.52246 0.0
H1998 H 0.25965 0.28501 0.46323 0.0
H1999 H 0.26791 0.27588 0.48198 0.0
H2000 H 0.22291 0.27576 0.47497 0.0
H2001 H 0.23125 0.26642 0.49364 0.0
H2002 H 0.26185 0.23717 0.46273 0.0
H2003 H 0.25273 0.24585 0.48109 0.0
H2004 H 0.298 0.24581 0.47688 0.0
H2005 H 0.28881 0.25433 0.49527 0.0
H2006 H 0.26003 0.23747 0.56084 0.0
H2007 H 0.25166 0.24654 0.54218 0.0
H2008 H 0.29673 0.24286 0.54688 0.0
H2009 H 0.28831 0.25253 0.52851 0.0
H2010 H 0.25904 0.2837 0.56043 0.0
H2011 H 0.26753 0.27458 0.54204 0.0
H2012 H 0.22242 0.27814 0.546 0.0
H2013 H 0.23097 0.26845 0.52788 0.0
N2014 N 0.25059 0.26874 0.51141 0.0
N2015 N 0.26898 0.25223 0.51177 0.0
C2016 C 0.73975 0.46788 0.76734 0.0
C2017 C 0.7396 0.46588 0.78008 0.0
C2018 C 0.74503 0.47853 0.76242 0.0
C2019 C 0.75034 0.48738 0.77014 0.0
C2020 C 0.74484 0.47482 0.78778 0.0
C2021 C 0.75007 0.48549 0.78286 0.0
C2022 C 0.75574 0.49882 0.76508 0.0
C2023 C 0.7797 0.46812 0.75273 0.0
C2024 C 0.7805 0.46675 0.73996 0.0
C2025 C 0.77448 0.47856 0.75777 0.0
C2026 C 0.76974 0.4878 0.75016 0.0
C2027 C 0.77596 0.47611 0.73235 0.0
C2028 C 0.77068 0.48654 0.7374 0.0
C2029 C 0.76432 0.49903 0.75539 0.0
C2030 C 0.78071 0.55168 0.75388 0.0
C2031 C 0.78071 0.55397 0.74119 0.0
C2032 C 0.77539 0.54096 0.7586 0.0
C2033 C 0.76989 0.53236 0.75074 0.0
C2034 C 0.7753 0.54528 0.73333 0.0
C2035 C 0.77004 0.53453 0.73806 0.0
C2036 C 0.76436 0.5209 0.75564 0.0
C2037 C 0.74096 0.55186 0.76851 0.0
C2038 C 0.74019 0.55299 0.78131 0.0
C2039 C 0.74595 0.54138 0.76327 0.0
C2040 C 0.7505 0.53191 0.77071 0.0
C2041 C 0.74449 0.54338 0.78873 0.0
C2042 C 0.74955 0.53294 0.78349 0.0
C2043 C 0.75578 0.52068 0.76532 0.0
H2044 H 0.73557 0.46132 0.76115 0.0
H2045 H 0.74481 0.47993 0.7526 0.0
H2046 H 0.74499 0.47353 0.79762 0.0
H2047 H 0.75405 0.49223 0.78899 0.0
H2048 H 0.78335 0.46122 0.75886 0.0
H2049 H 0.77431 0.47948 0.76764 0.0
H2050 H 0.77636 0.47532 0.72248 0.0
H2051 H 0.76721 0.49357 0.73133 0.0
H2052 H 0.78476 0.55821 0.76017 0.0
H2053 H 0.77563 0.53937 0.7684 0.0
H2054 H 0.77531 0.54671 0.7235 0.0
H2055 H 0.76597 0.52795 0.73181 0.0
H2056 H 0.73752 0.55898 0.76253 0.0
H2057 H 0.74613 0.54066 0.75339 0.0
H2058 H 0.74412 0.54399 0.79862 0.0
H2059 H 0.75286 0.52573 0.78944 0.0
N2060 N 0.75188 0.50964 0.76969 0.0
N2061 N 0.76822 0.51008 0.75101 0.0
C2062 C 0.2524 0.46869 0.7408 0.0
C2063 C 0.2396 0.4668 0.74077 0.0
C2064 C 0.25757 0.47931 0.74585 0.0
C2065 C 0.25008 0.48821 0.75112 0.0
C2066 C 0.23214 0.47581 0.74593 0.0
C2067 C 0.23732 0.48642 0.75097 0.0
C2068 C 0.25537 0.49963 0.75634 0.0
C2069 C 0.26905 0.46874 0.78 0.0
C2070 C 0.28188 0.46747 0.78011 0.0
C2071 C 0.26365 0.47921 0.77501 0.0
C2072 C 0.27094 0.48858 0.76986 0.0
C2073 C 0.28916 0.47696 0.77512 0.0
C2074 C 0.28375 0.48742 0.77012 0.0
C2075 C 0.26536 0.49983 0.76467 0.0
C2076 C 0.26666 0.55214 0.78138 0.0
C2077 C 0.27937 0.55454 0.78153 0.0
C2078 C 0.26194 0.54154 0.77592 0.0
C2079 C 0.2698 0.53312 0.77041 0.0
C2080 C 0.28723 0.54605 0.77609 0.0
C2081 C 0.2825 0.53541 0.77068 0.0
C2082 C 0.2649 0.5217 0.76486 0.0
C2083 C 0.25114 0.55271 0.74142 0.0
C2084 C 0.2383 0.55388 0.7412 0.0
C2085 C 0.25659 0.54224 0.74638 0.0
C2086 C 0.24932 0.53276 0.75135 0.0
C2087 C 0.23106 0.54428 0.74604 0.0
C2088 C 0.23651 0.53382 0.75099 0.0
C2089 C 0.25495 0.52151 0.75649 0.0
H2090 H 0.25841 0.46206 0.73671 0.0
H2091 H 0.26742 0.48063 0.74551 0.0
H2092 H 0.22227 0.47461 0.74621 0.0
H2093 H 0.23134 0.49318 0.7549 0.0
H2094 H 0.26318 0.46173 0.78398 0.0
H2095 H 0.25377 0.48003 0.7753 0.0
H2096 H 0.29905 0.47626 0.77494 0.0
H2097 H 0.28958 0.49456 0.76631 0.0
H2098 H 0.26035 0.55852 0.78543 0.0
H2099 H 0.25213 0.53986 0.77612 0.0
H2100 H 0.29707 0.54754 0.77621 0.0
H2101 H 0.28876 0.52898 0.76663 0.0
H2102 H 0.257 0.55979 0.73756 0.0
H2103 H 0.26648 0.54151 0.74619 0.0
H2104 H 0.22116 0.54491 0.74616 0.0
H2105 H 0.2307 0.5266 0.75468 0.0
N2106 N 0.25053 0.51048 0.75265 0.0
N2107 N 0.26977 0.51086 0.76853 0.0
C2108 C 0.23969 0.46754 0.2671 0.0
C2109 C 0.23954 0.46555 0.27984 0.0
C2110 C 0.24496 0.4782 0.26219 0.0
C2111 C 0.25025 0.48705 0.26992 0.0
C2112 C 0.24478 0.47447 0.28756 0.0
C2113 C 0.24999 0.48516 0.28264 0.0
C2114 C 0.25558 0.49852 0.26485 0.0
C2115 C 0.28013 0.46816 0.25281 0.0
C2116 C 0.28062 0.46648 0.24006 0.0
C2117 C 0.27476 0.47859 0.25773 0.0
C2118 C 0.26964 0.48753 0.25001 0.0
C2119 C 0.27561 0.47551 0.23235 0.0
C2120 C 0.27026 0.48596 0.23728 0.0
C2121 C 0.26412 0.49875 0.25513 0.0
C2122 C 0.28007 0.55152 0.25316 0.0
C2123 C 0.28024 0.55359 0.24042 0.0
C2124 C 0.27476 0.54085 0.258 0.0
C2125 C 0.26941 0.53207 0.25023 0.0
C2126 C 0.27498 0.5447 0.23267 0.0
C2127 C 0.2697 0.53402 0.23753 0.0
C2128 C 0.26399 0.52062 0.25525 0.0
C2129 C 0.24034 0.55141 0.26814 0.0
C2130 C 0.23971 0.55263 0.28094 0.0
C2131 C 0.2454 0.54097 0.26291 0.0
C2132 C 0.25013 0.53159 0.27036 0.0
C2133 C 0.24423 0.54312 0.28837 0.0
C2134 C 0.24933 0.53271 0.28314 0.0
C2135 C 0.25546 0.52038 0.26498 0.0
H2136 H 0.23577 0.46082 0.26092 0.0
H2137 H 0.24479 0.47957 0.25236 0.0
H2138 H 0.24466 0.47327 0.29741 0.0
H2139 H 0.25389 0.49193 0.28878 0.0
H2140 H 0.28384 0.46137 0.25902 0.0
H2141 H 0.27472 0.4797 0.26758 0.0
H2142 H 0.27599 0.4746 0.22249 0.0
H2143 H 0.26652 0.4928 0.23113 0.0
H2144 H 0.28426 0.55802 0.25938 0.0
H2145 H 0.27498 0.5394 0.26782 0.0
H2146 H 0.27485 0.54604 0.22283 0.0
H2147 H 0.26571 0.52733 0.23135 0.0
H2148 H 0.23673 0.55845 0.26215 0.0
H2149 H 0.24549 0.54018 0.25303 0.0
H2150 H 0.24398 0.54379 0.29826 0.0
H2151 H 0.25281 0.52557 0.28909 0.0
N2152 N 0.25166 0.50933 0.26943 0.0
N2153 N 0.26791 0.5098 0.25067 0.0
C2154 C 0.75246 0.46818 0.24036 0.0
C2155 C 0.73966 0.46634 0.24006 0.0
C2156 C 0.75756 0.47879 0.24551 0.0
C2157 C 0.74999 0.48771 0.25062 0.0
C2158 C 0.73212 0.47539 0.24502 0.0
C2159 C 0.73722 0.48598 0.25017 0.0
C2160 C 0.75519 0.49909 0.25601 0.0
C2161 C 0.76832 0.46783 0.27944 0.0
C2162 C 0.78115 0.46676 0.28017 0.0
C2163 C 0.76301 0.47837 0.2745 0.0
C2164 C 0.7704 0.48797 0.26993 0.0
C2165 C 0.78852 0.47651 0.27588 0.0
C2166 C 0.7832 0.48701 0.27086 0.0
C2167 C 0.76493 0.49924 0.26463 0.0
C2168 C 0.76639 0.55203 0.28062 0.0
C2169 C 0.77914 0.55385 0.28176 0.0
C2170 C 0.76161 0.54144 0.27515 0.0
C2171 C 0.76947 0.53254 0.27045 0.0
C2172 C 0.78698 0.54481 0.27725 0.0
C2173 C 0.78219 0.53426 0.27171 0.0
C2174 C 0.76454 0.52114 0.26482 0.0
C2175 C 0.75138 0.55213 0.24088 0.0
C2176 C 0.73854 0.55328 0.24037 0.0
C2177 C 0.75672 0.54167 0.24598 0.0
C2178 C 0.74935 0.5322 0.25083 0.0
C2179 C 0.7312 0.54369 0.24507 0.0
C2180 C 0.73655 0.53325 0.25017 0.0
C2181 C 0.75483 0.52097 0.25615 0.0
H2182 H 0.75853 0.46151 0.23643 0.0
H2183 H 0.76743 0.48006 0.24541 0.0
H2184 H 0.72224 0.47423 0.24508 0.0
H2185 H 0.73118 0.49276 0.25397 0.0
H2186 H 0.76238 0.4606 0.28288 0.0
H2187 H 0.75311 0.47904 0.27434 0.0
H2188 H 0.79843 0.47596 0.27624 0.0
H2189 H 0.78911 0.49432 0.26753 0.0
H2190 H 0.76006 0.5588 0.2839 0.0
H2191 H 0.75175 0.5402 0.27469 0.0
H2192 H 0.79684 0.54576 0.27818 0.0
H2193 H 0.78845 0.52745 0.26835 0.0
H2194 H 0.75731 0.55922 0.23714 0.0
H2195 H 0.76662 0.54095 0.24603 0.0
H2196 H 0.7213 0.54431 0.24497 0.0
H2197 H 0.73066 0.52604 0.25375 0.0
N2198 N 0.7505 0.50995 0.25219 0.0
N2199 N 0.76925 0.51027 0.26862 0.0
C2200 C 0.55228 0.25282 0.74095 0.0
C2201 C 0.55371 0.24006 0.7404 0.0
C2202 C 0.54184 0.25785 0.74623 0.0
C2203 C 0.53262 0.25024 0.7512 0.0
C2204 C 0.54441 0.23246 0.74527 0.0
C2205 C 0.53395 0.2375 0.75053 0.0
C2206 C 0.52135 0.25546 0.75658 0.0
C2207 C 0.5523 0.26696 0.78147 0.0
C2208 C 0.55452 0.27965 0.78174 0.0
C2209 C 0.54166 0.26222 0.776 0.0
C2210 C 0.53304 0.27007 0.77062 0.0
C2211 C 0.54584 0.2875 0.77641 0.0
C2212 C 0.53515 0.28275 0.771 0.0
C2213 C 0.52156 0.26516 0.76511 0.0
C2214 C 0.46879 0.26787 0.78085 0.0
C2215 C 0.46713 0.28061 0.78106 0.0
C2216 C 0.47931 0.2629 0.77565 0.0
C2217 C 0.48837 0.27054 0.77046 0.0
C2218 C 0.47628 0.28825 0.77597 0.0
C2219 C 0.48682 0.28326 0.77081 0.0
C2220 C 0.49965 0.26535 0.76508 0.0
C2221 C 0.46844 0.25345 0.74073 0.0
C2222 C 0.46633 0.24072 0.74056 0.0
C2223 C 0.47915 0.25832 0.74595 0.0
C2224 C 0.48795 0.25059 0.75121 0.0
C2225 C 0.47524 0.233 0.74572 0.0
C2226 C 0.48597 0.23789 0.75091 0.0
C2227 C 0.49944 0.25564 0.75657 0.0
H2228 H 0.55928 0.25894 0.73735 0.0
H2229 H 0.54092 0.2677 0.74632 0.0
H2230 H 0.54513 0.2226 0.74483 0.0
H2231 H 0.52691 0.23144 0.75414 0.0
H2232 H 0.55884 0.26068 0.78545 0.0
H2233 H 0.54011 0.25242 0.77609 0.0
H2234 H 0.5472 0.29732 0.77662 0.0
H2235 H 0.52856 0.28899 0.76704 0.0
H2236 H 0.46191 0.26173 0.78463 0.0
H2237 H 0.48039 0.25306 0.77578 0.0
H2238 H 0.47538 0.2981 0.77614 0.0
H2239 H 0.49375 0.28935 0.767 0.0
H2240 H 0.46192 0.25965 0.73661 0.0
H2241 H 0.48062 0.26813 0.74574 0.0
H2242 H 0.47388 0.22318 0.74584 0.0
H2243 H 0.49267 0.23174 0.75483 0.0
N2244 N 0.51029 0.25104 0.75271 0.0
N2245 N 0.51071 0.26977 0.76896 0.0
C2246 C 0.46799 0.7682 0.74155 0.0
C2247 C 0.46633 0.78094 0.74109 0.0
C2248 C 0.47853 0.76325 0.74691 0.0
C2249 C 0.48759 0.77093 0.75205 0.0
C2250 C 0.47551 0.7886 0.74609 0.0
C2251 C 0.48605 0.78364 0.75144 0.0
C2252 C 0.4989 0.76579 0.75761 0.0
C2253 C 0.46735 0.75313 0.7811 0.0
C2254 C 0.46588 0.74035 0.78194 0.0
C2255 C 0.47802 0.7583 0.77609 0.0
C2256 C 0.48735 0.75081 0.77159 0.0
C2257 C 0.47535 0.73288 0.77768 0.0
C2258 C 0.48597 0.73806 0.7726 0.0
C2259 C 0.49877 0.7561 0.76627 0.0
C2260 C 0.55233 0.75216 0.7806 0.0
C2261 C 0.55325 0.73935 0.7814 0.0
C2262 C 0.54179 0.75757 0.77572 0.0
C2263 C 0.53202 0.75029 0.77131 0.0
C2264 C 0.54335 0.73211 0.77722 0.0
C2265 C 0.53285 0.73752 0.77227 0.0
C2266 C 0.52072 0.75584 0.76614 0.0
C2267 C 0.55136 0.76723 0.74092 0.0
C2268 C 0.55369 0.77991 0.7406 0.0
C2269 C 0.54073 0.76253 0.74642 0.0
C2270 C 0.53224 0.77041 0.75181 0.0
C2271 C 0.5451 0.78778 0.74588 0.0
C2272 C 0.53445 0.78308 0.75134 0.0
C2273 C 0.52084 0.76554 0.75749 0.0
H2274 H 0.4611 0.76202 0.73784 0.0
H2275 H 0.47962 0.75342 0.74697 0.0
H2276 H 0.47462 0.79845 0.74572 0.0
H2277 H 0.49299 0.78976 0.75518 0.0
H2278 H 0.46033 0.75913 0.7845 0.0
H2279 H 0.479 0.76817 0.77584 0.0
H2280 H 0.47447 0.72301 0.77811 0.0
H2281 H 0.49306 0.73207 0.76931 0.0
H2282 H 0.55968 0.75801 0.78395 0.0
H2283 H 0.54124 0.76745 0.7755 0.0
H2284 H 0.54379 0.72222 0.7776 0.0
H2285 H 0.52542 0.73169 0.76905 0.0
H2286 H 0.5578 0.76091 0.737 0.0
H2287 H 0.53911 0.75274 0.7464 0.0
H2288 H 0.54653 0.7976 0.74562 0.0
H2289 H 0.52796 0.78934 0.75529 0.0
N2290 N 0.50993 0.77017 0.75364 0.0
N2291 N 0.50968 0.75148 0.7701 0.0
C2292 C 0.46812 0.77998 0.26772 0.0
C2293 C 0.46673 0.7805 0.28052 0.0
C2294 C 0.47869 0.77502 0.26257 0.0
C2295 C 0.48801 0.77027 0.27009 0.0
C2296 C 0.47625 0.77605 0.28801 0.0
C2297 C 0.48677 0.77103 0.28285 0.0
C2298 C 0.49927 0.76488 0.26482 0.0
C2299 C 0.46754 0.74148 0.25214 0.0
C2300 C 0.46615 0.74087 0.23935 0.0
C2301 C 0.47826 0.74637 0.25734 0.0
C2302 C 0.48769 0.75102 0.24984 0.0
C2303 C 0.47573 0.7452 0.23187 0.0
C2304 C 0.4864 0.7502 0.23707 0.0
C2305 C 0.49912 0.75631 0.25515 0.0
C2306 C 0.55215 0.74095 0.25228 0.0
C2307 C 0.55352 0.74044 0.23947 0.0
C2308 C 0.54162 0.74595 0.25745 0.0
C2309 C 0.53232 0.75078 0.24995 0.0
C2310 C 0.54402 0.74498 0.232 0.0
C2311 C 0.53354 0.75004 0.23718 0.0
C2312 C 0.52107 0.75616 0.25524 0.0
C2313 C 0.55284 0.77943 0.26825 0.0
C2314 C 0.55404 0.78012 0.28106 0.0
C2315 C 0.54217 0.77453 0.26294 0.0
C2316 C 0.53263 0.76994 0.27034 0.0
C2317 C 0.54436 0.77582 0.28843 0.0
C2318 C 0.53377 0.77081 0.28312 0.0
C2319 C 0.52122 0.76472 0.26493 0.0
H2320 H 0.46099 0.78326 0.26165 0.0
H2321 H 0.47955 0.77492 0.25269 0.0
H2322 H 0.47565 0.77653 0.29789 0.0
H2323 H 0.4939 0.76763 0.28887 0.0
H2324 H 0.4604 0.73801 0.25813 0.0
H2325 H 0.47919 0.74647 0.26721 0.0
H2326 H 0.4749 0.74491 0.22199 0.0
H2327 H 0.49359 0.75359 0.23109 0.0
H2328 H 0.55927 0.7376 0.25833 0.0
H2329 H 0.54076 0.74604 0.26733 0.0
H2330 H 0.54461 0.74451 0.22212 0.0
H2331 H 0.52642 0.7535 0.23119 0.0
H2332 H 0.56006 0.78287 0.26235 0.0
H2333 H 0.54136 0.77441 0.25305 0.0
H2334 H 0.54506 0.77617 0.29832 0.0
H2335 H 0.52649 0.76746 0.28902 0.0
N2336 N 0.51031 0.76864 0.26936 0.0
N2337 N 0.51002 0.75239 0.2507 0.0
C2338 C 0.46736 0.26867 0.24124 0.0
C2339 C 0.46572 0.28142 0.24096 0.0
C2340 C 0.47787 0.26362 0.24655 0.0
C2341 C 0.48695 0.27119 0.25181 0.0
C2342 C 0.47492 0.28898 0.24609 0.0
C2343 C 0.48544 0.28392 0.25138 0.0
C2344 C 0.49824 0.26594 0.25728 0.0
C2345 C 0.46686 0.253 0.28096 0.0
C2346 C 0.46503 0.24024 0.28093 0.0
C2347 C 0.47755 0.25823 0.27603 0.0
C2348 C 0.4866 0.2508 0.27092 0.0
C2349 C 0.47419 0.23284 0.27594 0.0
C2350 C 0.48489 0.23806 0.27108 0.0
C2351 C 0.49806 0.25614 0.26579 0.0
C2352 C 0.55143 0.25236 0.28077 0.0
C2353 C 0.5524 0.23955 0.28153 0.0
C2354 C 0.54092 0.25773 0.27578 0.0
C2355 C 0.53125 0.25042 0.27121 0.0
C2356 C 0.54259 0.23227 0.27721 0.0
C2357 C 0.53213 0.23765 0.27215 0.0
C2358 C 0.52001 0.25593 0.26587 0.0
C2359 C 0.55112 0.26753 0.24138 0.0
C2360 C 0.55302 0.28026 0.24035 0.0
C2361 C 0.5405 0.26277 0.24683 0.0
C2362 C 0.53162 0.2706 0.25163 0.0
C2363 C 0.54399 0.28807 0.24496 0.0
C2364 C 0.53341 0.28329 0.25049 0.0
C2365 C 0.52019 0.26567 0.25725 0.0
H2366 H 0.46063 0.26257 0.23713 0.0
H2367 H 0.47897 0.25379 0.24638 0.0
H2368 H 0.47394 0.29883 0.24613 0.0
H2369 H 0.49236 0.28996 0.25529 0.0
H2370 H 0.45998 0.25896 0.2847 0.0
H2371 H 0.47877 0.26807 0.27629 0.0
H2372 H 0.47316 0.22297 0.27596 0.0
H2373 H 0.4918 0.23213 0.26732 0.0
H2374 H 0.55872 0.25823 0.28422 0.0
H2375 H 0.54033 0.26761 0.27556 0.0
H2376 H 0.54308 0.22239 0.27757 0.0
H2377 H 0.52478 0.2318 0.26881 0.0
H2378 H 0.55788 0.26122 0.23801 0.0
H2379 H 0.53921 0.25294 0.24721 0.0
H2380 H 0.545 0.29791 0.24412 0.0
H2381 H 0.52661 0.28953 0.25393 0.0
N2382 N 0.5093 0.27035 0.2534 0.0
N2383 N 0.50894 0.25151 0.2697 0.0
C2384 C 0.22003 0.19841 0.11117 0.0
C2385 C 0.21029 0.20331 0.11784 0.0
C2386 C 0.22477 0.20444 0.1008 0.0
C2387 C 0.21973 0.21573 0.09699 0.0
C2388 C 0.20997 0.2208 0.10372 0.0
C2389 C 0.20536 0.21453 0.11404 0.0
C2390 C 0.23518 0.19871 0.0939 0.0
C2391 C 0.20436 0.23281 0.09998 0.0
C2392 C 0.23953 0.23606 0.07644 0.0
C2393 C 0.2347 0.23351 0.06478 0.0
C2394 C 0.23463 0.23051 0.08701 0.0
C2395 C 0.22466 0.22215 0.08592 0.0
C2396 C 0.21965 0.21963 0.0742 0.0
C2397 C 0.22471 0.22534 0.06379 0.0
C2398 C 0.24019 0.23351 0.09934 0.0
C2399 C 0.20908 0.21073 0.07262 0.0
H2400 H 0.22408 0.18988 0.11414 0.0
H2401 H 0.19775 0.21834 0.11903 0.0
H2402 H 0.23242 0.19714 0.08423 0.0
H2403 H 0.24323 0.20502 0.09378 0.0
H2404 H 0.23803 0.18986 0.09799 0.0
H2405 H 0.19698 0.23565 0.10631 0.0
H2406 H 0.21152 0.2401 0.09973 0.0
H2407 H 0.20045 0.23209 0.0906 0.0
H2408 H 0.24714 0.24248 0.07731 0.0
H2409 H 0.22101 0.2232 0.05481 0.0
H2410 H 0.24394 0.2251 0.10361 0.0
H2411 H 0.23303 0.23697 0.10556 0.0
H2412 H 0.24767 0.24046 0.09868 0.0
H2413 H 0.21184 0.2015 0.07582 0.0
H2414 H 0.20598 0.21006 0.06293 0.0
H2415 H 0.20121 0.21354 0.07831 0.0
C2416 C 0.79687 0.21237 0.12085 0.0
C2417 C 0.80695 0.20455 0.12032 0.0
C2418 C 0.79254 0.21838 0.11031 0.0
C2419 C 0.79837 0.21646 0.09894 0.0
C2420 C 0.80864 0.20868 0.09837 0.0
C2421 C 0.81284 0.20286 0.10907 0.0
C2422 C 0.78165 0.22671 0.11133 0.0
C2423 C 0.81504 0.20632 0.0864 0.0
C2424 C 0.77964 0.22198 0.07 0.0
C2425 C 0.7841 0.23345 0.06613 0.0
C2426 C 0.78427 0.21633 0.08061 0.0
C2427 C 0.7935 0.22232 0.08758 0.0
C2428 C 0.79802 0.23391 0.08374 0.0
C2429 C 0.7933 0.23931 0.07303 0.0
C2430 C 0.77929 0.20391 0.08433 0.0
C2431 C 0.80778 0.24064 0.09099 0.0
H2432 H 0.79238 0.21382 0.12955 0.0
H2433 H 0.82056 0.19673 0.10859 0.0
H2434 H 0.78405 0.23596 0.10778 0.0
H2435 H 0.77396 0.22315 0.10564 0.0
H2436 H 0.77842 0.22758 0.12092 0.0
H2437 H 0.82308 0.20026 0.08756 0.0
H2438 H 0.80853 0.20199 0.07984 0.0
H2439 H 0.81819 0.21508 0.08224 0.0
H2440 H 0.77264 0.21735 0.06461 0.0
H2441 H 0.79668 0.24823 0.07014 0.0
H2442 H 0.77518 0.2044 0.09358 0.0
H2443 H 0.78686 0.19724 0.08484 0.0
H2444 H 0.77222 0.20042 0.07783 0.0
H2445 H 0.8045 0.24227 0.10044 0.0
H2446 H 0.81031 0.24958 0.08677 0.0
H2447 H 0.81613 0.23499 0.09174 0.0
C2448 C 0.80006 0.82194 0.11064 0.0
C2449 C 0.80874 0.8166 0.11851 0.0
C2450 C 0.79578 0.81585 0.10014 0.0
C2451 C 0.80031 0.80412 0.09733 0.0
C2452 C 0.80917 0.79871 0.10513 0.0
C2453 C 0.81326 0.805 0.11563 0.0
C2454 C 0.78635 0.82196 0.09206 0.0
C2455 C 0.81424 0.78623 0.10245 0.0
C2456 C 0.78052 0.78408 0.07654 0.0
C2457 C 0.78609 0.78588 0.06509 0.0
C2458 C 0.78516 0.7898 0.08712 0.0
C2459 C 0.79566 0.7975 0.08628 0.0
C2460 C 0.80145 0.7992 0.07481 0.0
C2461 C 0.7966 0.7934 0.06436 0.0
C2462 C 0.77871 0.78773 0.09917 0.0
C2463 C 0.81267 0.80733 0.07352 0.0
H2464 H 0.79667 0.83098 0.11264 0.0
H2465 H 0.81986 0.80072 0.12169 0.0
H2466 H 0.78995 0.82301 0.08262 0.0
H2467 H 0.77795 0.81615 0.09149 0.0
H2468 H 0.78378 0.83112 0.09549 0.0
H2469 H 0.82127 0.78339 0.10927 0.0
H2470 H 0.80671 0.77932 0.10243 0.0
H2471 H 0.81842 0.78619 0.09321 0.0
H2472 H 0.77252 0.77814 0.07724 0.0
H2473 H 0.80089 0.79498 0.05556 0.0
H2474 H 0.77527 0.79655 0.10267 0.0
H2475 H 0.78524 0.78412 0.10608 0.0
H2476 H 0.77085 0.78122 0.09835 0.0
H2477 H 0.81035 0.81686 0.07592 0.0
H2478 H 0.81641 0.80728 0.06407 0.0
H2479 H 0.81994 0.80433 0.07997 0.0
C2480 C 0.22113 0.80654 0.12043 0.0
C2481 C 0.21151 0.81493 0.1197 0.0
C2482 C 0.22548 0.80066 0.10993 0.0
C2483 C 0.22013 0.80327 0.09837 0.0
C2484 C 0.2103 0.8116 0.09759 0.0
C2485 C 0.20609 0.8173 0.10826 0.0
C2486 C 0.23589 0.79176 0.11119 0.0
C2487 C 0.20439 0.81468 0.08544 0.0
C2488 C 0.23948 0.79777 0.07006 0.0
C2489 C 0.23468 0.78661 0.06579 0.0
C2490 C 0.23478 0.80331 0.08059 0.0
C2491 C 0.22506 0.79755 0.08707 0.0
C2492 C 0.22016 0.78629 0.0828 0.0
C2493 C 0.225 0.78097 0.07221 0.0
C2494 C 0.24021 0.81536 0.08479 0.0
C2495 C 0.20986 0.77981 0.08949 0.0
H2496 H 0.22526 0.80455 0.12926 0.0
H2497 H 0.19874 0.82386 0.1076 0.0
H2498 H 0.23315 0.78276 0.10733 0.0
H2499 H 0.24392 0.79513 0.10589 0.0
H2500 H 0.23877 0.79041 0.12088 0.0
H2501 H 0.19661 0.82106 0.08642 0.0
H2502 H 0.21129 0.81895 0.07926 0.0
H2503 H 0.201 0.80622 0.08093 0.0
H2504 H 0.24683 0.80226 0.06507 0.0
H2505 H 0.22134 0.77228 0.06905 0.0
H2506 H 0.24399 0.81438 0.09419 0.0
H2507 H 0.23296 0.82238 0.08513 0.0
H2508 H 0.24764 0.81871 0.07866 0.0
H2509 H 0.21276 0.77767 0.09901 0.0
H2510 H 0.207 0.77117 0.08494 0.0
H2511 H 0.20179 0.78586 0.09007 0.0
C2512 C 0.22106 0.82293 0.9108 0.0
C2513 C 0.21242 0.81745 0.90293 0.0
C2514 C 0.22536 0.8168 0.92128 0.0
C2515 C 0.22085 0.80491 0.92404 0.0
C2516 C 0.21204 0.79936 0.91622 0.0
C2517 C 0.20795 0.80567 0.90575 0.0
C2518 C 0.23477 0.82304 0.92938 0.0
C2519 C 0.20698 0.78671 0.91888 0.0
C2520 C 0.24043 0.78498 0.94486 0.0
C2521 C 0.23476 0.78649 0.95626 0.0
C2522 C 0.23592 0.7908 0.93428 0.0
C2523 C 0.22544 0.79829 0.93509 0.0
C2524 C 0.21957 0.7997 0.94652 0.0
C2525 C 0.22431 0.79382 0.95696 0.0
C2526 C 0.24244 0.78906 0.92227 0.0
C2527 C 0.20837 0.80759 0.94776 0.0
H2528 H 0.22442 0.8321 0.90884 0.0
H2529 H 0.20139 0.80129 0.89966 0.0
H2530 H 0.23113 0.82392 0.9388 0.0
H2531 H 0.24316 0.81741 0.93 0.0
H2532 H 0.23738 0.83229 0.92594 0.0
H2533 H 0.19999 0.78377 0.91204 0.0
H2534 H 0.21453 0.78 0.91895 0.0
H2535 H 0.20275 0.78645 0.92811 0.0
H2536 H 0.24839 0.77919 0.94418 0.0
H2537 H 0.21996 0.79518 0.96574 0.0
H2538 H 0.24587 0.79801 0.91878 0.0
H2539 H 0.23597 0.78535 0.91532 0.0
H2540 H 0.25032 0.78276 0.92313 0.0
H2541 H 0.21072 0.8172 0.94534 0.0
H2542 H 0.20459 0.80737 0.95718 0.0
H2543 H 0.20111 0.80449 0.94128 0.0
C2544 C 0.20027 0.20539 0.91448 0.0
C2545 C 0.20416 0.20836 0.90258 0.0
C2546 C 0.20643 0.21006 0.92482 0.0
C2547 C 0.2167 0.21795 0.92325 0.0
C2548 C 0.22081 0.22081 0.91127 0.0
C2549 C 0.21451 0.21596 0.90109 0.0
C2550 C 0.20181 0.20669 0.93742 0.0
C2551 C 0.23169 0.22923 0.9092 0.0
C2552 C 0.22432 0.23981 0.94929 0.0
C2553 C 0.23411 0.23391 0.95517 0.0
C2554 C 0.21868 0.23478 0.93884 0.0
C2555 C 0.22287 0.22354 0.93414 0.0
C2556 C 0.23281 0.21758 0.93997 0.0
C2557 C 0.23831 0.22285 0.95039 0.0
C2558 C 0.20817 0.24147 0.93287 0.0
C2559 C 0.23751 0.20556 0.93528 0.0
H2560 H 0.19238 0.19939 0.91572 0.0
H2561 H 0.2175 0.2184 0.89193 0.0
H2562 H 0.20931 0.20264 0.94296 0.0
H2563 H 0.1988 0.21504 0.94224 0.0
H2564 H 0.194 0.20008 0.93709 0.0
H2565 H 0.23401 0.23018 0.89934 0.0
H2566 H 0.2297 0.23843 0.91287 0.0
H2567 H 0.23982 0.22576 0.9142 0.0
H2568 H 0.22113 0.24845 0.95281 0.0
H2569 H 0.24577 0.21816 0.95495 0.0
H2570 H 0.19978 0.23563 0.93301 0.0
H2571 H 0.21032 0.24344 0.92313 0.0
H2572 H 0.20615 0.25022 0.93752 0.0
H2573 H 0.2301 0.19853 0.93563 0.0
H2574 H 0.24547 0.20221 0.94069 0.0
H2575 H 0.2403 0.20653 0.92557 0.0
C2576 C 0.81972 0.22371 0.9083 0.0
C2577 C 0.81547 0.21308 0.9024 0.0
C2578 C 0.81396 0.2281 0.91885 0.0
C2579 C 0.80374 0.22167 0.92374 0.0
C2580 C 0.79943 0.2109 0.9179 0.0
C2581 C 0.80532 0.20676 0.9073 0.0
C2582 C 0.81885 0.23963 0.92478 0.0
C2583 C 0.78859 0.20377 0.92285 0.0
C2584 C 0.79627 0.22729 0.95725 0.0
C2585 C 0.78661 0.23562 0.95634 0.0
C2586 C 0.80178 0.22253 0.94672 0.0
C2587 C 0.79761 0.22624 0.93499 0.0
C2588 C 0.7878 0.23457 0.93401 0.0
C2589 C 0.78239 0.23913 0.94469 0.0
C2590 C 0.81214 0.21358 0.94817 0.0
C2591 C 0.78314 0.23884 0.92168 0.0
H2592 H 0.82769 0.22855 0.90476 0.0
H2593 H 0.80185 0.19863 0.90275 0.0
H2594 H 0.8115 0.24654 0.92525 0.0
H2595 H 0.8218 0.23763 0.93432 0.0
H2596 H 0.82675 0.24366 0.91973 0.0
H2597 H 0.78647 0.19548 0.91735 0.0
H2598 H 0.79042 0.20091 0.93245 0.0
H2599 H 0.78036 0.20964 0.92295 0.0
H2600 H 0.79946 0.22442 0.96622 0.0
H2601 H 0.77502 0.24566 0.94392 0.0
H2602 H 0.82061 0.21743 0.944 0.0
H2603 H 0.80988 0.20498 0.94326 0.0
H2604 H 0.81407 0.21135 0.95792 0.0
H2605 H 0.79061 0.24366 0.91667 0.0
H2606 H 0.77525 0.24511 0.92247 0.0
H2607 H 0.78028 0.23087 0.91606 0.0
C2608 C 0.79956 0.80607 0.90038 0.0
C2609 C 0.80933 0.81451 0.90109 0.0
C2610 C 0.79508 0.80008 0.91091 0.0
C2611 C 0.80044 0.80264 0.92247 0.0
C2612 C 0.81042 0.81103 0.92323 0.0
C2613 C 0.81476 0.81682 0.91254 0.0
C2614 C 0.78451 0.79113 0.90967 0.0
C2615 C 0.81635 0.81407 0.93538 0.0
C2616 C 0.78095 0.79692 0.95082 0.0
C2617 C 0.78554 0.78577 0.95521 0.0
C2618 C 0.78575 0.80251 0.94023 0.0
C2619 C 0.79537 0.79683 0.9338 0.0
C2620 C 0.80005 0.78558 0.93818 0.0
C2621 C 0.79511 0.78021 0.94883 0.0
C2622 C 0.78055 0.81454 0.93594 0.0
C2623 C 0.81024 0.77918 0.93156 0.0
H2624 H 0.79541 0.80411 0.89155 0.0
H2625 H 0.82222 0.82343 0.91319 0.0
H2626 H 0.78707 0.78212 0.91359 0.0
H2627 H 0.77652 0.79442 0.91492 0.0
H2628 H 0.78164 0.78981 0.89998 0.0
H2629 H 0.82426 0.82049 0.93438 0.0
H2630 H 0.80951 0.81826 0.94151 0.0
H2631 H 0.81957 0.8056 0.93995 0.0
H2632 H 0.77369 0.80137 0.95578 0.0
H2633 H 0.79862 0.77153 0.95207 0.0
H2634 H 0.77679 0.81359 0.92652 0.0
H2635 H 0.78792 0.82161 0.93557 0.0
H2636 H 0.77315 0.81782 0.94201 0.0
H2637 H 0.80732 0.77709 0.92204 0.0
H2638 H 0.81291 0.77052 0.93617 0.0
H2639 H 0.81843 0.78527 0.93097 0.0
C2640 C 0.1064 0.20646 0.20253 0.0
C2641 C 0.11813 0.21065 0.20595 0.0
C2642 C 0.09583 0.21095 0.2082 0.0
C2643 C 0.097 0.21978 0.21759 0.0
C2644 C 0.10883 0.22385 0.22126 0.0
C2645 C 0.11924 0.21927 0.21537 0.0
C2646 C 0.08338 0.20643 0.20395 0.0
C2647 C 0.1105 0.23315 0.23132 0.0
C2648 C 0.06999 0.24061 0.22367 0.0
C2649 C 0.06459 0.23509 0.23399 0.0
C2650 C 0.0805 0.23571 0.21825 0.0
C2651 C 0.08584 0.22505 0.2233 0.0
C2652 C 0.0805 0.21947 0.23375 0.0
C2653 C 0.06993 0.22452 0.23894 0.0
C2654 C 0.08589 0.24195 0.2071 0.0
C2655 C 0.08592 0.20812 0.23943 0.0
H2656 H 0.10545 0.19991 0.19516 0.0
H2657 H 0.12828 0.22244 0.21817 0.0
H2658 H 0.07813 0.20266 0.21181 0.0
H2659 H 0.07808 0.21418 0.20014 0.0
H2660 H 0.08404 0.19925 0.19684 0.0
H2661 H 0.12032 0.23504 0.2334 0.0
H2662 H 0.1061 0.24186 0.2286 0.0
H2663 H 0.10592 0.22988 0.2398 0.0
H2664 H 0.06609 0.24889 0.21988 0.0
H2665 H 0.06576 0.22007 0.2468 0.0
H2666 H 0.08617 0.23545 0.19935 0.0
H2667 H 0.09547 0.2449 0.20904 0.0
H2668 H 0.08056 0.25008 0.2042 0.0
H2669 H 0.08588 0.20059 0.23266 0.0
H2670 H 0.08081 0.205 0.24768 0.0
H2671 H 0.09562 0.20989 0.24207 0.0
C2672 C 0.82199 0.11159 0.22191 0.0
C2673 C 0.81638 0.1194 0.21337 0.0
C2674 C 0.816 0.10097 0.22618 0.0
C2675 C 0.80411 0.09801 0.22175 0.0
C2676 C 0.79843 0.10577 0.21304 0.0
C2677 C 0.80461 0.11638 0.20898 0.0
C2678 C 0.82238 0.09294 0.23547 0.0
C2679 C 0.78578 0.10289 0.20807 0.0
C2680 C 0.79349 0.0649 0.22504 0.0
C2681 C 0.78612 0.06537 0.23553 0.0
C2682 C 0.79923 0.07548 0.22034 0.0
C2683 C 0.79764 0.08681 0.2263 0.0
C2684 C 0.79014 0.08738 0.23682 0.0
C2685 C 0.78445 0.07667 0.24129 0.0
C2686 C 0.80714 0.0745 0.20909 0.0
C2687 C 0.78822 0.09928 0.24344 0.0
H2688 H 0.83117 0.11371 0.22519 0.0
H2689 H 0.80013 0.12242 0.2025 0.0
H2690 H 0.81675 0.09213 0.24388 0.0
H2691 H 0.82341 0.08359 0.23176 0.0
H2692 H 0.8316 0.09655 0.23804 0.0
H2693 H 0.78272 0.10973 0.20116 0.0
H2694 H 0.78565 0.09372 0.20377 0.0
H2695 H 0.77906 0.10262 0.21566 0.0
H2696 H 0.79497 0.0562 0.22062 0.0
H2697 H 0.77862 0.07716 0.24928 0.0
H2698 H 0.81674 0.0771 0.21138 0.0
H2699 H 0.80393 0.08095 0.2019 0.0
H2700 H 0.80707 0.06511 0.20525 0.0
H2701 H 0.79715 0.10293 0.2468 0.0
H2702 H 0.78193 0.09822 0.25136 0.0
H2703 H 0.78438 0.10619 0.23706 0.0
C2704 C 0.91418 0.81423 0.20081 0.0
C2705 C 0.90227 0.81136 0.20481 0.0
C2706 C 0.92453 0.80957 0.2069 0.0
C2707 C 0.92296 0.80179 0.21721 0.0
C2708 C 0.91097 0.79901 0.2214 0.0
C2709 C 0.90078 0.80385 0.21517 0.0
C2710 C 0.93715 0.81286 0.2022 0.0
C2711 C 0.90889 0.7907 0.2323 0.0
C2712 C 0.94889 0.77998 0.22488 0.0
C2713 C 0.95483 0.78597 0.23461 0.0
C2714 C 0.93847 0.78497 0.21922 0.0
C2715 C 0.93385 0.79627 0.22335 0.0
C2716 C 0.93975 0.80233 0.23323 0.0
C2717 C 0.95015 0.7971 0.23875 0.0
C2718 C 0.93241 0.77816 0.20878 0.0
C2719 C 0.93517 0.81442 0.23787 0.0
H2720 H 0.91542 0.82015 0.19291 0.0
H2721 H 0.89161 0.80148 0.21824 0.0
H2722 H 0.94276 0.81701 0.20963 0.0
H2723 H 0.94189 0.80447 0.19923 0.0
H2724 H 0.93683 0.81936 0.19435 0.0
H2725 H 0.89902 0.78976 0.23466 0.0
H2726 H 0.91252 0.78148 0.23036 0.0
H2727 H 0.91393 0.79427 0.2404 0.0
H2728 H 0.95234 0.77129 0.22174 0.0
H2729 H 0.95476 0.80186 0.24617 0.0
H2730 H 0.93254 0.78391 0.20038 0.0
H2731 H 0.92265 0.77621 0.21098 0.0
H2732 H 0.937 0.76938 0.20679 0.0
H2733 H 0.93552 0.82135 0.23041 0.0
H2734 H 0.94066 0.81787 0.24576 0.0
H2735 H 0.92546 0.81348 0.24072 0.0
C2736 C 0.21511 0.90598 0.20672 0.0
C2737 C 0.20538 0.9006 0.21329 0.0
C2738 C 0.22104 0.91666 0.21092 0.0
C2739 C 0.21722 0.92209 0.22199 0.0
C2740 C 0.20746 0.91668 0.22869 0.0
C2741 C 0.20164 0.90606 0.22424 0.0
C2742 C 0.23139 0.92216 0.20349 0.0
C2743 C 0.20311 0.92217 0.24053 0.0
C2744 C 0.23891 0.94361 0.23914 0.0
C2745 C 0.23419 0.9551 0.23603 0.0
C2746 C 0.23358 0.9328 0.23452 0.0
C2747 C 0.22332 0.93349 0.22654 0.0
C2748 C 0.21864 0.94508 0.22321 0.0
C2749 C 0.22411 0.95573 0.22802 0.0
C2750 C 0.23879 0.92062 0.23837 0.0
C2751 C 0.20779 0.94622 0.21466 0.0
H2752 H 0.21819 0.90176 0.19834 0.0
H2753 H 0.19401 0.90214 0.22928 0.0
H2754 H 0.22917 0.9317 0.20084 0.0
H2755 H 0.2399 0.92255 0.2091 0.0
H2756 H 0.23323 0.91688 0.19506 0.0
H2757 H 0.19559 0.9167 0.24479 0.0
H2758 H 0.21083 0.92284 0.24716 0.0
H2759 H 0.19979 0.93158 0.23885 0.0
H2760 H 0.24661 0.94304 0.24542 0.0
H2761 H 0.22052 0.96459 0.22544 0.0
H2762 H 0.24131 0.91527 0.23017 0.0
H2763 H 0.23174 0.91523 0.2434 0.0
H2764 H 0.24702 0.92166 0.24432 0.0
H2765 H 0.2097 0.94156 0.20588 0.0
H2766 H 0.2055 0.95591 0.21267 0.0
H2767 H 0.19964 0.94164 0.21874 0.0
C2768 C 0.11989 0.80163 0.80793 0.0
C2769 C 0.11858 0.80829 0.81878 0.0
C2770 C 0.10959 0.79695 0.80165 0.0
C2771 C 0.0977 0.79905 0.80628 0.0
C2772 C 0.09631 0.80596 0.81711 0.0
C2773 C 0.10677 0.81045 0.82325 0.0
C2774 C 0.11146 0.78955 0.79019 0.0
C2775 C 0.08379 0.80851 0.82227 0.0
C2776 C 0.0702 0.79544 0.78494 0.0
C2777 C 0.06558 0.78391 0.78842 0.0
C2778 C 0.08067 0.80047 0.79064 0.0
C2779 C 0.08671 0.79377 0.79998 0.0
C2780 C 0.08217 0.78207 0.80343 0.0
C2781 C 0.07164 0.7773 0.79763 0.0
C2782 C 0.08518 0.81301 0.78677 0.0
C2783 C 0.08841 0.7746 0.81327 0.0
H2784 H 0.129 0.79983 0.80451 0.0
H2785 H 0.1057 0.81572 0.83154 0.0
H2786 H 0.10779 0.78014 0.79156 0.0
H2787 H 0.10632 0.79366 0.78243 0.0
H2788 H 0.12128 0.78899 0.78763 0.0
H2789 H 0.08426 0.81435 0.83055 0.0
H2790 H 0.07804 0.81312 0.81526 0.0
H2791 H 0.0791 0.79978 0.82471 0.0
H2792 H 0.06547 0.80065 0.77793 0.0
H2793 H 0.06821 0.76832 0.80024 0.0
H2794 H 0.09484 0.81254 0.78367 0.0
H2795 H 0.085 0.81931 0.79469 0.0
H2796 H 0.07955 0.81696 0.77925 0.0
H2797 H 0.09812 0.77308 0.81079 0.0
H2798 H 0.08385 0.76557 0.81472 0.0
H2799 H 0.08841 0.77965 0.82205 0.0
C2800 C 0.20464 0.11231 0.80595 0.0
C2801 C 0.21121 0.11755 0.81574 0.0
C2802 C 0.20886 0.10178 0.80003 0.0
C2803 C 0.21996 0.09636 0.80394 0.0
C2804 C 0.22664 0.10159 0.81379 0.0
C2805 C 0.22218 0.11207 0.81958 0.0
C2806 C 0.20145 0.09647 0.78958 0.0
C2807 C 0.23851 0.0961 0.81825 0.0
C2808 C 0.22619 0.06295 0.79681 0.0
C2809 C 0.23425 0.06393 0.78686 0.0
C2810 C 0.22131 0.0734 0.80231 0.0
C2811 C 0.22459 0.08516 0.7978 0.0
C2812 C 0.23261 0.08622 0.78767 0.0
C2813 C 0.23731 0.0756 0.78231 0.0
C2814 C 0.21272 0.07186 0.81303 0.0
C2815 C 0.2364 0.09857 0.78263 0.0
H2816 H 0.19624 0.11653 0.8028 0.0
H2817 H 0.22722 0.11588 0.82727 0.0
H2818 H 0.20706 0.09639 0.78113 0.0
H2819 H 0.19887 0.08684 0.79168 0.0
H2820 H 0.19297 0.10169 0.78771 0.0
H2821 H 0.24271 0.10139 0.82589 0.0
H2822 H 0.23685 0.08657 0.82143 0.0
H2823 H 0.24518 0.09573 0.81063 0.0
H2824 H 0.22363 0.05397 0.80027 0.0
H2825 H 0.24364 0.07646 0.77472 0.0
H2826 H 0.20392 0.07647 0.81105 0.0
H2827 H 0.21677 0.07627 0.82126 0.0
H2828 H 0.21078 0.06209 0.8152 0.0
H2829 H 0.22818 0.1039 0.78007 0.0
H2830 H 0.24239 0.09783 0.77447 0.0
H2831 H 0.24141 0.10383 0.78978 0.0
C2832 C 0.90838 0.19898 0.80139 0.0
C2833 C 0.90053 0.2045 0.80982 0.0
C2834 C 0.91895 0.20505 0.79711 0.0
C2835 C 0.92183 0.21694 0.8014 0.0
C2836 C 0.91405 0.22253 0.81002 0.0
C2837 C 0.90349 0.21626 0.81411 0.0
C2838 C 0.927 0.19876 0.78792 0.0
C2839 C 0.91683 0.23518 0.81484 0.0
C2840 C 0.95491 0.22789 0.79784 0.0
C2841 C 0.95424 0.23514 0.7872 0.0
C2842 C 0.94441 0.22211 0.80269 0.0
C2843 C 0.93294 0.22354 0.79674 0.0
C2844 C 0.93216 0.23096 0.78609 0.0
C2845 C 0.94279 0.23668 0.78148 0.0
C2846 C 0.94563 0.2143 0.81407 0.0
C2847 C 0.92011 0.23272 0.77947 0.0
H2848 H 0.90632 0.18981 0.79819 0.0
H2849 H 0.89743 0.22067 0.82051 0.0
H2850 H 0.92762 0.20434 0.77942 0.0
H2851 H 0.93644 0.1979 0.79165 0.0
H2852 H 0.92349 0.1895 0.78551 0.0
H2853 H 0.91004 0.23813 0.82173 0.0
H2854 H 0.92609 0.23543 0.8191 0.0
H2855 H 0.9169 0.24188 0.80718 0.0
H2856 H 0.96372 0.22651 0.80224 0.0
H2857 H 0.94213 0.24241 0.77337 0.0
H2858 H 0.94317 0.20467 0.81193 0.0
H2859 H 0.93918 0.21742 0.82119 0.0
H2860 H 0.95509 0.21455 0.81792 0.0
H2861 H 0.91653 0.22377 0.77621 0.0
H2862 H 0.92099 0.23901 0.77149 0.0
H2863 H 0.91321 0.23645 0.78583 0.0
C2864 C 0.81981 0.90682 0.797 0.0
C2865 C 0.81724 0.9019 0.80863 0.0
C2866 C 0.81374 0.91723 0.79258 0.0
C2867 C 0.80479 0.92288 0.79991 0.0
C2868 C 0.80199 0.91788 0.81158 0.0
C2869 C 0.80825 0.90748 0.81581 0.0
C2870 C 0.81699 0.92224 0.78007 0.0
C2871 C 0.79249 0.92361 0.81968 0.0
C2872 C 0.79803 0.95634 0.7931 0.0
C2873 C 0.78731 0.95549 0.78596 0.0
C2874 C 0.8037 0.94583 0.79783 0.0
C2875 C 0.79853 0.93414 0.79541 0.0
C2876 C 0.7876 0.93321 0.78838 0.0
C2877 C 0.78214 0.94388 0.78374 0.0
C2878 C 0.81532 0.94723 0.8053 0.0
C2879 C 0.78179 0.92094 0.78559 0.0
H2880 H 0.82656 0.90248 0.79127 0.0
H2881 H 0.80627 0.90385 0.82485 0.0
H2882 H 0.80868 0.92248 0.77416 0.0
H2883 H 0.82046 0.93178 0.7809 0.0
H2884 H 0.82407 0.91672 0.77545 0.0
H2885 H 0.79112 0.91842 0.82835 0.0
H2886 H 0.79532 0.93311 0.82195 0.0
H2887 H 0.78359 0.92412 0.81475 0.0
H2888 H 0.80199 0.96526 0.79504 0.0
H2889 H 0.77394 0.9431 0.77813 0.0
H2890 H 0.82294 0.94247 0.80071 0.0
H2891 H 0.81411 0.94289 0.81443 0.0
H2892 H 0.81802 0.95697 0.8066 0.0
H2893 H 0.7882 0.91537 0.78014 0.0
H2894 H 0.77305 0.92179 0.7804 0.0
H2895 H 0.77996 0.91585 0.79422 0.0
C2896 C 0.19933 0.10545 0.20754 0.0
C2897 C 0.20328 0.11731 0.2106 0.0
C2898 C 0.20534 0.0951 0.21219 0.0
C2899 C 0.21553 0.09661 0.22016 0.0
C2900 C 0.21967 0.10856 0.22315 0.0
C2901 C 0.21353 0.11875 0.21831 0.0
C2902 C 0.2007 0.08253 0.20868 0.0
C2903 C 0.23044 0.11058 0.23168 0.0
C2904 C 0.22293 0.07028 0.24184 0.0
C2905 C 0.23281 0.06474 0.23594 0.0
C2906 C 0.2173 0.08069 0.23685 0.0
C2907 C 0.22161 0.08569 0.22566 0.0
C2908 C 0.23162 0.08019 0.21968 0.0
C2909 C 0.23711 0.06981 0.22491 0.0
C2910 C 0.20671 0.08632 0.24356 0.0
C2911 C 0.23644 0.0852 0.2077 0.0
H2912 H 0.19151 0.10425 0.20147 0.0
H2913 H 0.21655 0.12788 0.22083 0.0
H2914 H 0.20821 0.07719 0.20457 0.0
H2915 H 0.19759 0.07749 0.21697 0.0
H2916 H 0.19295 0.0829 0.20204 0.0
H2917 H 0.23277 0.12043 0.23279 0.0
H2918 H 0.22835 0.10662 0.24082 0.0
H2919 H 0.23862 0.10582 0.22817 0.0
H2920 H 0.21966 0.06653 0.25045 0.0
H2921 H 0.24464 0.06551 0.22022 0.0
H2922 H 0.1984 0.08621 0.23766 0.0
H2923 H 0.20886 0.09602 0.24569 0.0
H2924 H 0.20457 0.08143 0.25225 0.0
H2925 H 0.22908 0.08494 0.20066 0.0
H2926 H 0.24439 0.07997 0.2043 0.0
H2927 H 0.23929 0.09491 0.2088 0.0
C2928 C 0.19798 0.90848 0.79991 0.0
C2929 C 0.20362 0.90063 0.80841 0.0
C2930 C 0.20403 0.91902 0.79553 0.0
C2931 C 0.21599 0.92188 0.79981 0.0
C2932 C 0.22171 0.91408 0.80846 0.0
C2933 C 0.21548 0.90354 0.81263 0.0
C2934 C 0.19761 0.92709 0.7863 0.0
C2935 C 0.23445 0.91685 0.81327 0.0
C2936 C 0.23557 0.94302 0.77997 0.0
C2937 C 0.23402 0.95436 0.78568 0.0
C2938 C 0.22988 0.93236 0.78454 0.0
C2939 C 0.22251 0.93301 0.79515 0.0
C2940 C 0.22107 0.94437 0.8011 0.0
C2941 C 0.2268 0.95491 0.79627 0.0
C2942 C 0.23162 0.92042 0.77793 0.0
C2943 C 0.21332 0.94544 0.81246 0.0
H2944 H 0.18874 0.90645 0.79676 0.0
H2945 H 0.21998 0.89748 0.81907 0.0
H2946 H 0.19669 0.93645 0.79002 0.0
H2947 H 0.20315 0.92785 0.77783 0.0
H2948 H 0.18833 0.92355 0.78384 0.0
H2949 H 0.23753 0.90999 0.82014 0.0
H2950 H 0.24107 0.91705 0.8056 0.0
H2951 H 0.23471 0.92602 0.81756 0.0
H2952 H 0.24129 0.94246 0.7719 0.0
H2953 H 0.2254 0.96364 0.80067 0.0
H2954 H 0.22263 0.91684 0.77467 0.0
H2955 H 0.23547 0.9135 0.78429 0.0
H2956 H 0.23783 0.92141 0.76994 0.0
H2957 H 0.20366 0.94295 0.81029 0.0
H2958 H 0.21356 0.95483 0.81629 0.0
H2959 H 0.21655 0.93895 0.8196 0.0
C2960 C 0.11275 0.21322 0.81565 0.0
C2961 C 0.11633 0.20221 0.81025 0.0
C2962 C 0.10249 0.21964 0.81131 0.0
C2963 C 0.09555 0.21492 0.80137 0.0
C2964 C 0.09908 0.2038 0.7959 0.0
C2965 C 0.10943 0.19763 0.80035 0.0
C2966 C 0.09906 0.23148 0.81738 0.0
C2967 C 0.09193 0.19843 0.78529 0.0
C2968 C 0.06256 0.22514 0.79676 0.0
C2969 C 0.06373 0.23358 0.78709 0.0
C2970 C 0.07284 0.21909 0.80156 0.0
C2971 C 0.08461 0.22158 0.79665 0.0
C2972 C 0.08587 0.23023 0.78701 0.0
C2973 C 0.07542 0.23608 0.78232 0.0
C2974 C 0.07107 0.20985 0.81176 0.0
C2975 C 0.09826 0.23325 0.78159 0.0
H2976 H 0.1179 0.21678 0.82339 0.0
H2977 H 0.11221 0.18926 0.79594 0.0
H2978 H 0.09898 0.239 0.81051 0.0
H2979 H 0.08966 0.2307 0.82118 0.0
H2980 H 0.10548 0.23402 0.8249 0.0
H2981 H 0.09574 0.1896 0.78219 0.0
H2982 H 0.08222 0.19692 0.78795 0.0
H2983 H 0.09198 0.20494 0.77746 0.0
H2984 H 0.05354 0.22305 0.8004 0.0
H2985 H 0.07642 0.24271 0.77495 0.0
H2986 H 0.07686 0.21237 0.81976 0.0
H2987 H 0.07404 0.20071 0.80867 0.0
H2988 H 0.06137 0.20916 0.81476 0.0
H2989 H 0.10464 0.23644 0.78888 0.0
H2990 H 0.09774 0.24043 0.77437 0.0
H2991 H 0.10226 0.22492 0.77755 0.0
C2992 C 0.79744 0.11979 0.80868 0.0
C2993 C 0.80735 0.11928 0.81691 0.0
C2994 C 0.79314 0.10924 0.80266 0.0
C2995 C 0.79882 0.09787 0.80497 0.0
C2996 C 0.80893 0.09733 0.81315 0.0
C2997 C 0.81309 0.10804 0.81899 0.0
C2998 C 0.78242 0.11025 0.79391 0.0
C2999 C 0.81519 0.08538 0.81593 0.0
C3000 C 0.77997 0.06896 0.79912 0.0
C3001 C 0.78453 0.06509 0.78781 0.0
C3002 C 0.78459 0.07955 0.80483 0.0
C3003 C 0.79398 0.08651 0.79907 0.0
C3004 C 0.79865 0.08266 0.78766 0.0
C3005 C 0.79389 0.07199 0.78219 0.0
C3006 C 0.77942 0.08328 0.81704 0.0
C3007 C 0.80859 0.08987 0.78118 0.0
H3008 H 0.79306 0.12847 0.80691 0.0
H3009 H 0.82067 0.10755 0.82543 0.0
H3010 H 0.78497 0.10669 0.78479 0.0
H3011 H 0.77463 0.10456 0.79727 0.0
H3012 H 0.77928 0.11982 0.7928 0.0
H3013 H 0.82312 0.08654 0.82226 0.0
H3014 H 0.80855 0.07885 0.82014 0.0
H3015 H 0.81845 0.08119 0.80733 0.0
H3016 H 0.77286 0.06359 0.80361 0.0
H3017 H 0.79738 0.06914 0.77339 0.0
H3018 H 0.7754 0.09253 0.81629 0.0
H3019 H 0.78687 0.08379 0.82398 0.0
H3020 H 0.77223 0.0768 0.82037 0.0
H3021 H 0.80541 0.0993 0.77927 0.0
H3022 H 0.81128 0.08562 0.7724 0.0
H3023 H 0.81683 0.09065 0.78714 0.0
C3024 C 0.90691 0.79699 0.81914 0.0
C3025 C 0.9026 0.80884 0.81679 0.0
C3026 C 0.91727 0.79249 0.81315 0.0
C3027 C 0.9235 0.79996 0.80449 0.0
C3028 C 0.91912 0.81185 0.80193 0.0
C3029 C 0.90875 0.81615 0.8081 0.0
C3030 C 0.92161 0.77974 0.81614 0.0
C3031 C 0.92549 0.82009 0.79275 0.0
C3032 C 0.95686 0.79237 0.79818 0.0
C3033 C 0.95595 0.78565 0.78729 0.0
C3034 C 0.94642 0.79722 0.80376 0.0
C3035 C 0.93473 0.79535 0.79833 0.0
C3036 C 0.93374 0.78875 0.78724 0.0
C3037 C 0.94434 0.78396 0.78187 0.0
C3038 C 0.94788 0.80423 0.81557 0.0
C3039 C 0.92146 0.78655 0.78115 0.0
H3040 H 0.90211 0.79117 0.82565 0.0
H3041 H 0.90558 0.82535 0.8063 0.0
H3042 H 0.92177 0.77414 0.80771 0.0
H3043 H 0.93112 0.78016 0.81979 0.0
H3044 H 0.91568 0.77505 0.82299 0.0
H3045 H 0.92073 0.82895 0.79151 0.0
H3046 H 0.93505 0.82197 0.79579 0.0
H3047 H 0.92599 0.81548 0.78374 0.0
H3048 H 0.96579 0.79391 0.80233 0.0
H3049 H 0.9435 0.77867 0.77354 0.0
H3050 H 0.9427 0.79952 0.82298 0.0
H3051 H 0.94401 0.81351 0.81452 0.0
H3052 H 0.95763 0.80513 0.81847 0.0
H3053 H 0.91546 0.78104 0.7873 0.0
H3054 H 0.92229 0.78168 0.7723 0.0
H3055 H 0.91682 0.79538 0.77947 0.0
C3056 C 0.80646 0.902 0.21835 0.0
C3057 C 0.81621 0.90346 0.2101 0.0
C3058 C 0.80036 0.91218 0.22309 0.0
C3059 C 0.80404 0.92413 0.21945 0.0
C3060 C 0.81372 0.92565 0.21096 0.0
C3061 C 0.8197 0.91531 0.20642 0.0
C3062 C 0.79014 0.91016 0.23218 0.0
C3063 C 0.81784 0.93821 0.20675 0.0
C3064 C 0.78194 0.95043 0.22408 0.0
C3065 C 0.78662 0.95592 0.23475 0.0
C3066 C 0.78749 0.9401 0.219 0.0
C3067 C 0.79796 0.93505 0.22476 0.0
C3068 C 0.8027 0.94049 0.23556 0.0
C3069 C 0.79701 0.95086 0.24039 0.0
C3070 C 0.78217 0.93459 0.20747 0.0
C3071 C 0.81384 0.93539 0.24198 0.0
H3072 H 0.8038 0.89289 0.22134 0.0
H3073 H 0.82712 0.91651 0.19994 0.0
H3074 H 0.79265 0.91445 0.24105 0.0
H3075 H 0.78165 0.9146 0.22887 0.0
H3076 H 0.78815 0.9003 0.23381 0.0
H3077 H 0.82526 0.93783 0.19983 0.0
H3078 H 0.80998 0.94321 0.20272 0.0
H3079 H 0.82121 0.94359 0.21469 0.0
H3080 H 0.77382 0.95414 0.21974 0.0
H3081 H 0.80084 0.95512 0.24852 0.0
H3082 H 0.77942 0.92493 0.20918 0.0
H3083 H 0.7892 0.93457 0.20016 0.0
H3084 H 0.77404 0.93964 0.20406 0.0
H3085 H 0.81218 0.92566 0.24448 0.0
H3086 H 0.81624 0.94053 0.25043 0.0
H3087 H 0.82183 0.9357 0.23574 0.0
C3088 C 0.11925 0.80213 0.2153 0.0
C3089 C 0.11796 0.80944 0.20477 0.0
C3090 C 0.10894 0.79746 0.22151 0.0
C3091 C 0.09703 0.80024 0.21716 0.0
C3092 C 0.09566 0.80783 0.20669 0.0
C3093 C 0.10614 0.8123 0.20061 0.0
C3094 C 0.11078 0.78935 0.23259 0.0
C3095 C 0.08313 0.81111 0.20181 0.0
C3096 C 0.07044 0.77878 0.22502 0.0
C3097 C 0.06474 0.785 0.2346 0.0
C3098 C 0.08101 0.78359 0.21935 0.0
C3099 C 0.08598 0.79492 0.22332 0.0
C3100 C 0.08032 0.80122 0.23303 0.0
C3101 C 0.06979 0.79617 0.23857 0.0
C3102 C 0.08682 0.77653 0.20909 0.0
C3103 C 0.08529 0.81336 0.23747 0.0
H3104 H 0.12836 0.79977 0.21849 0.0
H3105 H 0.10507 0.81807 0.19258 0.0
H3106 H 0.10589 0.79311 0.24058 0.0
H3107 H 0.10683 0.78013 0.23079 0.0
H3108 H 0.12063 0.78836 0.23503 0.0
H3109 H 0.08364 0.81746 0.19385 0.0
H3110 H 0.07812 0.80269 0.19897 0.0
H3111 H 0.07767 0.81544 0.20911 0.0
H3112 H 0.06669 0.77008 0.222 0.0
H3113 H 0.06535 0.80109 0.24588 0.0
H3114 H 0.09652 0.77456 0.2114 0.0
H3115 H 0.08682 0.78212 0.20058 0.0
H3116 H 0.08195 0.76775 0.20724 0.0
H3117 H 0.09498 0.81241 0.24043 0.0
H3118 H 0.07994 0.817 0.24524 0.0
H3119 H 0.08515 0.82014 0.22987 0.0
C3120 C 0.91167 0.20866 0.20165 0.0
C3121 C 0.90016 0.21339 0.20459 0.0
C3122 C 0.92239 0.21303 0.2074 0.0
C3123 C 0.92158 0.22227 0.21638 0.0
C3124 C 0.90996 0.22692 0.21955 0.0
C3125 C 0.8994 0.22247 0.21357 0.0
C3126 C 0.93462 0.20793 0.20368 0.0
C3127 C 0.9087 0.23667 0.22918 0.0
C3128 C 0.94849 0.22672 0.23831 0.0
C3129 C 0.95453 0.23692 0.23318 0.0
C3130 C 0.93772 0.2219 0.233 0.0
C3131 C 0.93292 0.22733 0.22222 0.0
C3132 C 0.93897 0.2376 0.21697 0.0
C3133 C 0.94965 0.24231 0.22254 0.0
C3134 C 0.93149 0.21097 0.2389 0.0
C3135 C 0.93418 0.24363 0.20545 0.0
H3136 H 0.91231 0.20174 0.19463 0.0
H3137 H 0.89051 0.22605 0.21597 0.0
H3138 H 0.94048 0.21535 0.19981 0.0
H3139 H 0.93948 0.20421 0.21181 0.0
H3140 H 0.93366 0.20056 0.19676 0.0
H3141 H 0.89897 0.23901 0.23089 0.0
H3142 H 0.9129 0.23356 0.23792 0.0
H3143 H 0.91369 0.24509 0.22628 0.0
H3144 H 0.95226 0.22236 0.24641 0.0
H3145 H 0.9541 0.25032 0.21861 0.0
H3146 H 0.93121 0.20321 0.23241 0.0
H3147 H 0.92186 0.21319 0.24115 0.0
H3148 H 0.93623 0.20798 0.24742 0.0
H3149 H 0.93361 0.23685 0.19794 0.0
H3150 H 0.94006 0.25143 0.20242 0.0
H3151 H 0.92477 0.24702 0.207 0.0
C3152 C 0.22077 0.71286 0.62039 0.0
C3153 C 0.21109 0.7043 0.61965 0.0
C3154 C 0.22538 0.7187 0.60985 0.0
C3155 C 0.22026 0.71588 0.59824 0.0
C3156 C 0.21039 0.70737 0.59744 0.0
C3157 C 0.20591 0.70172 0.60815 0.0
C3158 C 0.23582 0.7278 0.61112 0.0
C3159 C 0.20472 0.70406 0.58524 0.0
C3160 C 0.22562 0.73802 0.57165 0.0
C3161 C 0.23536 0.73251 0.56548 0.0
C3162 C 0.22062 0.73273 0.58231 0.0
C3163 C 0.22542 0.72162 0.58691 0.0
C3164 C 0.23522 0.716 0.5807 0.0
C3165 C 0.24008 0.72152 0.5701 0.0
C3166 C 0.21024 0.73906 0.58869 0.0
C3167 C 0.24056 0.70411 0.58524 0.0
H3168 H 0.22472 0.71502 0.62926 0.0
H3169 H 0.19853 0.69503 0.60747 0.0
H3170 H 0.24392 0.72455 0.60603 0.0
H3171 H 0.23319 0.73672 0.60705 0.0
H3172 H 0.23853 0.72927 0.62083 0.0
H3173 H 0.19691 0.69751 0.5862 0.0
H3174 H 0.20142 0.71241 0.5805 0.0
H3175 H 0.21173 0.69991 0.57928 0.0
H3176 H 0.22202 0.74659 0.56822 0.0
H3177 H 0.24749 0.71712 0.56531 0.0
H3178 H 0.21298 0.7413 0.59823 0.0
H3179 H 0.20213 0.73287 0.58921 0.0
H3180 H 0.20753 0.74763 0.58394 0.0
H3181 H 0.24414 0.70525 0.5947 0.0
H3182 H 0.24811 0.70088 0.57934 0.0
H3183 H 0.23329 0.69693 0.58558 0.0
C3184 C 0.81228 0.70188 0.60856 0.0
C3185 C 0.80774 0.70492 0.62013 0.0
C3186 C 0.80794 0.7077 0.59791 0.0
C3187 C 0.79892 0.71685 0.59886 0.0
C3188 C 0.7945 0.72015 0.61054 0.0
C3189 C 0.79892 0.7141 0.62103 0.0
C3190 C 0.8128 0.70385 0.58561 0.0
C3191 C 0.785 0.72997 0.61195 0.0
C3192 C 0.7945 0.73868 0.57195 0.0
C3193 C 0.78407 0.73367 0.56618 0.0
C3194 C 0.7994 0.73335 0.58262 0.0
C3195 C 0.79381 0.7227 0.5876 0.0
C3196 C 0.7833 0.71758 0.58183 0.0
C3197 C 0.77853 0.72316 0.57124 0.0
C3198 C 0.81058 0.73911 0.58855 0.0
C3199 C 0.77708 0.70621 0.58684 0.0
H3200 H 0.819 0.69471 0.60781 0.0
H3201 H 0.79549 0.71659 0.62997 0.0
H3202 H 0.80521 0.70004 0.57995 0.0
H3203 H 0.81661 0.7119 0.58062 0.0
H3204 H 0.82007 0.69686 0.58647 0.0
H3205 H 0.78287 0.73179 0.62171 0.0
H3206 H 0.78825 0.7386 0.60761 0.0
H3207 H 0.7764 0.72719 0.6072 0.0
H3208 H 0.79896 0.74668 0.56803 0.0
H3209 H 0.77035 0.71933 0.567 0.0
H3210 H 0.81822 0.7325 0.58871 0.0
H3211 H 0.80856 0.74146 0.59819 0.0
H3212 H 0.81369 0.74753 0.58368 0.0
H3213 H 0.78372 0.6986 0.5873 0.0
H3214 H 0.76911 0.70327 0.58116 0.0
H3215 H 0.77388 0.70786 0.5963 0.0
C3216 C 0.81437 0.30603 0.61421 0.0
C3217 C 0.8077 0.3157 0.61921 0.0
C3218 C 0.81027 0.29995 0.6036 0.0
C3219 C 0.7992 0.30356 0.59786 0.0
C3220 C 0.79241 0.31326 0.60288 0.0
C3221 C 0.79675 0.31923 0.61343 0.0
C3222 C 0.81781 0.28967 0.59852 0.0
C3223 C 0.78055 0.31739 0.59705 0.0
C3224 C 0.79341 0.2962 0.56426 0.0
C3225 C 0.78546 0.28604 0.56504 0.0
C3226 C 0.79812 0.30185 0.57485 0.0
C3227 C 0.79474 0.29728 0.58654 0.0
C3228 C 0.78682 0.28695 0.58739 0.0
C3229 C 0.78231 0.28144 0.57664 0.0
C3230 C 0.80662 0.31277 0.57352 0.0
C3231 C 0.78293 0.28185 0.59967 0.0
H3232 H 0.82275 0.30311 0.61867 0.0
H3233 H 0.79163 0.32682 0.61705 0.0
H3234 H 0.81225 0.28111 0.59831 0.0
H3235 H 0.82049 0.29181 0.58895 0.0
H3236 H 0.82624 0.28802 0.60401 0.0
H3237 H 0.77622 0.3249 0.60222 0.0
H3238 H 0.78228 0.32061 0.58755 0.0
H3239 H 0.77397 0.3096 0.59649 0.0
H3240 H 0.79603 0.2997 0.55532 0.0
H3241 H 0.77607 0.27367 0.57733 0.0
H3242 H 0.81539 0.31103 0.57839 0.0
H3243 H 0.80245 0.32089 0.5778 0.0
H3244 H 0.80865 0.31496 0.56379 0.0
H3245 H 0.79111 0.27951 0.60525 0.0
H3246 H 0.77702 0.27355 0.59878 0.0
H3247 H 0.77781 0.28888 0.60477 0.0
C3248 C 0.20676 0.32051 0.60676 0.0
C3249 C 0.21039 0.31697 0.61859 0.0
C3250 C 0.21124 0.31455 0.59636 0.0
C3251 C 0.21965 0.30486 0.59781 0.0
C3252 C 0.22325 0.30116 0.60974 0.0
C3253 C 0.21855 0.30722 0.61998 0.0
C3254 C 0.20707 0.31869 0.58381 0.0
C3255 C 0.23226 0.29094 0.61168 0.0
C3256 C 0.2241 0.28285 0.57132 0.0
C3257 C 0.23482 0.28752 0.56586 0.0
C3258 C 0.21905 0.28839 0.58171 0.0
C3259 C 0.2249 0.29881 0.58683 0.0
C3260 C 0.23575 0.30353 0.58142 0.0
C3261 C 0.24055 0.29787 0.57099 0.0
C3262 C 0.20746 0.28309 0.58719 0.0
C3263 C 0.24229 0.31462 0.5866 0.0
H3264 H 0.20035 0.32794 0.60562 0.0
H3265 H 0.2215 0.30453 0.62909 0.0
H3266 H 0.21506 0.32204 0.57845 0.0
H3267 H 0.20297 0.31087 0.57874 0.0
H3268 H 0.20021 0.32611 0.58426 0.0
H3269 H 0.23387 0.28894 0.62154 0.0
H3270 H 0.22886 0.28248 0.60717 0.0
H3271 H 0.24115 0.29342 0.60739 0.0
H3272 H 0.21969 0.27476 0.56756 0.0
H3273 H 0.24871 0.30168 0.56675 0.0
H3274 H 0.20021 0.29013 0.58727 0.0
H3275 H 0.20915 0.28032 0.59684 0.0
H3276 H 0.20397 0.27501 0.58206 0.0
H3277 H 0.2361 0.3226 0.58635 0.0
H3278 H 0.25077 0.317 0.58148 0.0
H3279 H 0.24476 0.31295 0.59634 0.0
C3280 C 0.20679 0.31727 0.41327 0.0
C3281 C 0.21267 0.31551 0.40203 0.0
C3282 C 0.21098 0.31149 0.424 0.0
C3283 C 0.22123 0.30368 0.42347 0.0
C3284 C 0.22704 0.30167 0.4121 0.0
C3285 C 0.22272 0.30764 0.40153 0.0
C3286 C 0.20459 0.31394 0.43596 0.0
C3287 C 0.23791 0.29331 0.41112 0.0
C3288 C 0.24002 0.29831 0.45239 0.0
C3289 C 0.23559 0.28686 0.45632 0.0
C3290 C 0.23536 0.30391 0.44177 0.0
C3291 C 0.2261 0.29788 0.43485 0.0
C3292 C 0.2216 0.28631 0.43877 0.0
C3293 C 0.22636 0.28096 0.44948 0.0
C3294 C 0.24033 0.31631 0.43796 0.0
C3295 C 0.21181 0.27955 0.43158 0.0
H3296 H 0.1991 0.32344 0.41373 0.0
H3297 H 0.22719 0.30613 0.39284 0.0
H3298 H 0.20146 0.3052 0.4402 0.0
H3299 H 0.21111 0.31832 0.44248 0.0
H3300 H 0.19655 0.31998 0.43478 0.0
H3301 H 0.24111 0.29237 0.40153 0.0
H3302 H 0.24561 0.2969 0.41677 0.0
H3303 H 0.23549 0.28409 0.41474 0.0
H3304 H 0.24703 0.30298 0.45773 0.0
H3305 H 0.223 0.27205 0.45242 0.0
H3306 H 0.23276 0.32298 0.43742 0.0
H3307 H 0.24443 0.31576 0.4287 0.0
H3308 H 0.24742 0.31984 0.44442 0.0
H3309 H 0.20347 0.28522 0.43081 0.0
H3310 H 0.20926 0.27065 0.43588 0.0
H3311 H 0.21507 0.27785 0.42214 0.0
C3312 C 0.21458 0.71844 0.40049 0.0
C3313 C 0.20534 0.70944 0.40136 0.0
C3314 C 0.22053 0.72298 0.411 0.0
C3315 C 0.21711 0.7185 0.42271 0.0
C3316 C 0.20791 0.70929 0.42364 0.0
C3317 C 0.20217 0.70485 0.41297 0.0
C3318 C 0.23038 0.7327 0.40959 0.0
C3319 C 0.20393 0.70432 0.43594 0.0
C3320 C 0.23883 0.7234 0.44976 0.0
C3321 C 0.23375 0.73364 0.45544 0.0
C3322 C 0.23356 0.7184 0.43909 0.0
C3323 C 0.22289 0.72371 0.43399 0.0
C3324 C 0.21771 0.73403 0.43967 0.0
C3325 C 0.22322 0.73889 0.45027 0.0
C3326 C 0.23937 0.7074 0.43331 0.0
C3327 C 0.20634 0.73997 0.43454 0.0
H3328 H 0.21719 0.72192 0.39155 0.0
H3329 H 0.19494 0.698 0.41374 0.0
H3330 H 0.22756 0.74119 0.41427 0.0
H3331 H 0.23901 0.72964 0.41401 0.0
H3332 H 0.23229 0.73491 0.39983 0.0
H3333 H 0.19693 0.69689 0.43509 0.0
H3334 H 0.21194 0.70072 0.44105 0.0
H3335 H 0.20003 0.71178 0.4415 0.0
H3336 H 0.24686 0.71916 0.45374 0.0
H3337 H 0.21932 0.74692 0.45445 0.0
H3338 H 0.24184 0.7095 0.42367 0.0
H3339 H 0.23273 0.69964 0.43314 0.0
H3340 H 0.24776 0.70446 0.43828 0.0
H3341 H 0.20807 0.74322 0.42505 0.0
H3342 H 0.20336 0.74785 0.44012 0.0
H3343 H 0.19871 0.73318 0.43409 0.0
C3344 C 0.82104 0.72138 0.41059 0.0
C3345 C 0.8162 0.71141 0.40401 0.0
C3346 C 0.81505 0.72595 0.42092 0.0
C3347 C 0.80385 0.72052 0.42476 0.0
C3348 C 0.79885 0.71052 0.41814 0.0
C3349 C 0.8051 0.70607 0.40788 0.0
C3350 C 0.8207 0.73661 0.42773 0.0
C3351 C 0.78691 0.7045 0.42191 0.0
C3352 C 0.79422 0.72537 0.45784 0.0
C3353 C 0.78592 0.73502 0.45668 0.0
C3354 C 0.80002 0.72049 0.44753 0.0
C3355 C 0.79741 0.72531 0.43574 0.0
C3356 C 0.7889 0.73493 0.43449 0.0
C3357 C 0.7833 0.7397 0.44497 0.0
C3358 C 0.80912 0.71031 0.44927 0.0
C3359 C 0.78578 0.74025 0.42208 0.0
H3360 H 0.82948 0.72574 0.40757 0.0
H3361 H 0.80134 0.69828 0.40298 0.0
H3362 H 0.8143 0.74442 0.42769 0.0
H3363 H 0.82234 0.73403 0.43745 0.0
H3364 H 0.82954 0.7397 0.42367 0.0
H3365 H 0.78413 0.69697 0.41567 0.0
H3366 H 0.78776 0.70076 0.43134 0.0
H3367 H 0.7795 0.71137 0.42204 0.0
H3368 H 0.79639 0.7218 0.46687 0.0
H3369 H 0.77678 0.74705 0.44399 0.0
H3370 H 0.8183 0.71337 0.44605 0.0
H3371 H 0.80636 0.70228 0.44369 0.0
H3372 H 0.80991 0.70737 0.459 0.0
H3373 H 0.79413 0.74427 0.41784 0.0
H3374 H 0.7787 0.74745 0.42263 0.0
H3375 H 0.78237 0.73292 0.41591 0.0
C3376 C 0.80314 0.30537 0.40083 0.0
C3377 C 0.81076 0.31572 0.40217 0.0
C3378 C 0.79835 0.29918 0.4111 0.0
C3379 C 0.80129 0.30338 0.42302 0.0
C3380 C 0.80918 0.31366 0.42444 0.0
C3381 C 0.81379 0.31972 0.41401 0.0
C3382 C 0.78991 0.2883 0.40918 0.0
C3383 C 0.81264 0.31837 0.43698 0.0
C3384 C 0.77959 0.29583 0.44928 0.0
C3385 C 0.78556 0.28611 0.45516 0.0
C3386 C 0.78455 0.30144 0.43878 0.0
C3387 C 0.7958 0.29727 0.43401 0.0
C3388 C 0.80184 0.28741 0.43983 0.0
C3389 C 0.79664 0.28193 0.45031 0.0
C3390 C 0.77776 0.31187 0.4328 0.0
C3391 C 0.81387 0.28273 0.43508 0.0
H3392 H 0.80065 0.3023 0.39172 0.0
H3393 H 0.81979 0.32761 0.41513 0.0
H3394 H 0.79346 0.28022 0.41419 0.0
H3395 H 0.78072 0.29027 0.41295 0.0
H3396 H 0.78886 0.28592 0.39935 0.0
H3397 H 0.81923 0.32618 0.43653 0.0
H3398 H 0.8043 0.32137 0.44184 0.0
H3399 H 0.81678 0.31095 0.44253 0.0
H3400 H 0.77094 0.299 0.45285 0.0
H3401 H 0.80139 0.27452 0.45486 0.0
H3402 H 0.77569 0.30966 0.4231 0.0
H3403 H 0.7836 0.32025 0.43283 0.0
H3404 H 0.76902 0.3139 0.43752 0.0
H3405 H 0.81282 0.27987 0.4254 0.0
H3406 H 0.81731 0.27486 0.44053 0.0
H3407 H 0.82089 0.29016 0.4353 0.0
C3408 C 0.11133 0.70444 0.71264 0.0
C3409 C 0.1175 0.71167 0.70391 0.0
C3410 C 0.10102 0.70886 0.71885 0.0
C3411 C 0.09675 0.72079 0.71627 0.0
C3412 C 0.103 0.72817 0.70756 0.0
C3413 C 0.11329 0.72355 0.70153 0.0
C3414 C 0.09463 0.70071 0.72809 0.0
C3415 C 0.09877 0.74095 0.70454 0.0
C3416 C 0.0635 0.72868 0.72278 0.0
C3417 C 0.06455 0.73541 0.73366 0.0
C3418 C 0.07387 0.72375 0.71713 0.0
C3419 C 0.08561 0.72552 0.72249 0.0
C3420 C 0.08673 0.73214 0.73356 0.0
C3421 C 0.0762 0.73701 0.739 0.0
C3422 C 0.07226 0.71673 0.70535 0.0
C3423 C 0.09907 0.73424 0.73956 0.0
H3424 H 0.11441 0.69522 0.71447 0.0
H3425 H 0.11811 0.7293 0.69498 0.0
H3426 H 0.09424 0.70534 0.73708 0.0
H3427 H 0.08503 0.69893 0.72511 0.0
H3428 H 0.09929 0.6918 0.72932 0.0
H3429 H 0.1047 0.74556 0.69764 0.0
H3430 H 0.08924 0.74061 0.70096 0.0
H3431 H 0.09872 0.74658 0.71296 0.0
H3432 H 0.05453 0.72721 0.71869 0.0
H3433 H 0.07714 0.7423 0.74732 0.0
H3434 H 0.07604 0.70741 0.7064 0.0
H3435 H 0.07745 0.72137 0.6979 0.0
H3436 H 0.06249 0.71592 0.70251 0.0
H3437 H 0.10363 0.72537 0.74126 0.0
H3438 H 0.09834 0.73917 0.74839 0.0
H3439 H 0.10508 0.73966 0.73335 0.0
C3440 C 0.80713 0.62031 0.72325 0.0
C3441 C 0.81495 0.61987 0.71311 0.0
C3442 C 0.80117 0.60971 0.72763 0.0
C3443 C 0.80315 0.59838 0.72178 0.0
C3444 C 0.81092 0.59791 0.71145 0.0
C3445 C 0.81669 0.60867 0.70721 0.0
C3446 C 0.79284 0.61061 0.73859 0.0
C3447 C 0.81334 0.58599 0.70503 0.0
C3448 C 0.79793 0.56936 0.74049 0.0
C3449 C 0.78644 0.56533 0.73617 0.0
C3450 C 0.80348 0.58005 0.73585 0.0
C3451 C 0.79737 0.58696 0.72671 0.0
C3452 C 0.78576 0.58296 0.72232 0.0
C3453 C 0.78046 0.57217 0.72707 0.0
C3454 C 0.81592 0.58394 0.74069 0.0
C3455 C 0.77891 0.59013 0.71266 0.0
H3456 H 0.80565 0.62897 0.72775 0.0
H3457 H 0.82283 0.60826 0.69945 0.0
H3458 H 0.78359 0.60694 0.73629 0.0
H3459 H 0.79649 0.60498 0.74623 0.0
H3460 H 0.79192 0.62018 0.7418 0.0
H3461 H 0.81936 0.58723 0.69693 0.0
H3462 H 0.81776 0.5795 0.71148 0.0
H3463 H 0.80457 0.58172 0.702 0.0
H3464 H 0.80267 0.56402 0.74741 0.0
H3465 H 0.77152 0.56918 0.7238 0.0
H3466 H 0.81538 0.59318 0.74479 0.0
H3467 H 0.82258 0.58454 0.73306 0.0
H3468 H 0.81949 0.57751 0.74772 0.0
H3469 H 0.77723 0.59954 0.71596 0.0
H3470 H 0.76996 0.58579 0.71023 0.0
H3471 H 0.78453 0.59096 0.70425 0.0
C3472 C 0.90746 0.31687 0.71368 0.0
C3473 C 0.90164 0.3098 0.70461 0.0
C3474 C 0.91782 0.31253 0.72003 0.0
C3475 C 0.92251 0.30086 0.71723 0.0
C3476 C 0.91662 0.29364 0.70817 0.0
C3477 C 0.90626 0.29817 0.70202 0.0
C3478 C 0.92383 0.32051 0.72964 0.0
C3479 C 0.9213 0.28114 0.70491 0.0
C3480 C 0.95593 0.29375 0.72424 0.0
C3481 C 0.95497 0.28653 0.73488 0.0
C3482 C 0.94547 0.29861 0.71852 0.0
C3483 C 0.93373 0.29625 0.72356 0.0
C3484 C 0.93271 0.28914 0.73441 0.0
C3485 C 0.94332 0.28436 0.73992 0.0
C3486 C 0.94698 0.30616 0.70699 0.0
C3487 C 0.92037 0.2864 0.74007 0.0
H3488 H 0.90406 0.32591 0.71568 0.0
H3489 H 0.90172 0.29253 0.6952 0.0
H3490 H 0.92427 0.31552 0.7385 0.0
H3491 H 0.93339 0.32273 0.72693 0.0
H3492 H 0.91885 0.32919 0.73101 0.0
H3493 H 0.91561 0.27661 0.69774 0.0
H3494 H 0.93087 0.28192 0.70155 0.0
H3495 H 0.92144 0.27518 0.71317 0.0
H3496 H 0.96489 0.29567 0.72039 0.0
H3497 H 0.94246 0.27868 0.74805 0.0
H3498 H 0.94286 0.31529 0.70821 0.0
H3499 H 0.94204 0.30166 0.69929 0.0
H3500 H 0.95675 0.30742 0.7044 0.0
H3501 H 0.91549 0.29505 0.7419 0.0
H3502 H 0.92117 0.28117 0.74879 0.0
H3503 H 0.91461 0.28103 0.73359 0.0
C3504 C 0.20186 0.40613 0.72421 0.0
C3505 C 0.20418 0.40166 0.71243 0.0
C3506 C 0.20799 0.41656 0.72869 0.0
C3507 C 0.21675 0.42267 0.72126 0.0
C3508 C 0.21932 0.4181 0.70944 0.0
C3509 C 0.21299 0.40767 0.70516 0.0
C3510 C 0.20499 0.42111 0.74134 0.0
C3511 C 0.22862 0.42434 0.70125 0.0
C3512 C 0.2232 0.45616 0.72841 0.0
C3513 C 0.23403 0.45551 0.73538 0.0
C3514 C 0.2176 0.44557 0.72361 0.0
C3515 C 0.22297 0.43403 0.72577 0.0
C3516 C 0.23402 0.43332 0.7326 0.0
C3517 C 0.2394 0.44405 0.73734 0.0
C3518 C 0.20583 0.44674 0.71637 0.0
C3519 C 0.24004 0.42119 0.7351 0.0
H3520 H 0.19525 0.40143 0.73 0.0
H3521 H 0.21477 0.40438 0.69601 0.0
H3522 H 0.21343 0.4215 0.74706 0.0
H3523 H 0.20138 0.43054 0.74074 0.0
H3524 H 0.19809 0.41521 0.74605 0.0
H3525 H 0.22991 0.41938 0.69251 0.0
H3526 H 0.22564 0.43378 0.69911 0.0
H3527 H 0.2376 0.42507 0.70604 0.0
H3528 H 0.21909 0.46498 0.72666 0.0
H3529 H 0.24769 0.44343 0.74282 0.0
H3530 H 0.19835 0.4416 0.72104 0.0
H3531 H 0.20691 0.44266 0.70716 0.0
H3532 H 0.203 0.45641 0.71524 0.0
H3533 H 0.23384 0.41527 0.74063 0.0
H3534 H 0.2489 0.42224 0.74008 0.0
H3535 H 0.24172 0.41637 0.72636 0.0
C3536 C 0.12067 0.29865 0.30748 0.0
C3537 C 0.11982 0.30755 0.31663 0.0
C3538 C 0.11017 0.2943 0.30133 0.0
C3539 C 0.09851 0.29887 0.30448 0.0
C3540 C 0.09761 0.30795 0.31362 0.0
C3541 C 0.10828 0.31222 0.31955 0.0
C3542 C 0.11153 0.28474 0.29153 0.0
C3543 C 0.08534 0.31296 0.31733 0.0
C3544 C 0.07174 0.29471 0.28233 0.0
C3545 C 0.06569 0.28442 0.28728 0.0
C3546 C 0.08248 0.29947 0.28777 0.0
C3547 C 0.08723 0.29388 0.29849 0.0
C3548 C 0.08117 0.28351 0.30354 0.0
C3549 C 0.07054 0.27887 0.29785 0.0
C3550 C 0.08871 0.3105 0.28208 0.0
C3551 C 0.08593 0.27731 0.31499 0.0
H3552 H 0.12959 0.29512 0.3051 0.0
H3553 H 0.10757 0.319 0.3267 0.0
H3554 H 0.10656 0.27624 0.29425 0.0
H3555 H 0.10737 0.28798 0.28282 0.0
H3556 H 0.12128 0.28247 0.28984 0.0
H3557 H 0.08624 0.32023 0.32437 0.0
H3558 H 0.08053 0.31679 0.30923 0.0
H3559 H 0.07948 0.30547 0.32105 0.0
H3560 H 0.06799 0.29918 0.27428 0.0
H3561 H 0.06607 0.2708 0.30163 0.0
H3562 H 0.09836 0.30835 0.27986 0.0
H3563 H 0.08891 0.31817 0.28869 0.0
H3564 H 0.08401 0.31361 0.27357 0.0
H3565 H 0.09537 0.27399 0.31345 0.0
H3566 H 0.08006 0.26943 0.31785 0.0
H3567 H 0.08641 0.28395 0.32262 0.0
C3568 C 0.20458 0.61191 0.30593 0.0
C3569 C 0.21131 0.61734 0.3155 0.0
C3570 C 0.20879 0.60137 0.30002 0.0
C3571 C 0.22004 0.59612 0.30373 0.0
C3572 C 0.22687 0.60153 0.31338 0.0
C3573 C 0.22242 0.61202 0.31916 0.0
C3574 C 0.20123 0.59587 0.28978 0.0
C3575 C 0.2389 0.59622 0.31764 0.0
C3576 C 0.22653 0.56275 0.29668 0.0
C3577 C 0.23436 0.56376 0.28655 0.0
C3578 C 0.22165 0.57317 0.30222 0.0
C3579 C 0.22469 0.58494 0.29757 0.0
C3580 C 0.23248 0.58603 0.28727 0.0
C3581 C 0.2372 0.57544 0.28188 0.0
C3582 C 0.21332 0.5716 0.31314 0.0
C3583 C 0.23601 0.59839 0.28207 0.0
H3584 H 0.19607 0.61601 0.30292 0.0
H3585 H 0.2276 0.61597 0.32669 0.0
H3586 H 0.20664 0.59581 0.28121 0.0
H3587 H 0.19883 0.58622 0.29201 0.0
H3588 H 0.19262 0.60095 0.28807 0.0
H3589 H 0.24318 0.6016 0.32517 0.0
H3590 H 0.23744 0.58669 0.3209 0.0
H3591 H 0.24542 0.5959 0.30989 0.0
H3592 H 0.22414 0.55376 0.30023 0.0
H3593 H 0.24335 0.57632 0.27414 0.0
H3594 H 0.20441 0.57606 0.31131 0.0
H3595 H 0.21748 0.57614 0.32125 0.0
H3596 H 0.21158 0.56182 0.31543 0.0
H3597 H 0.22766 0.60359 0.27963 0.0
H3598 H 0.24184 0.59767 0.2738 0.0
H3599 H 0.24109 0.60377 0.28908 0.0
C3600 C 0.90809 0.69931 0.30138 0.0
C3601 C 0.9004 0.70477 0.31001 0.0
C3602 C 0.91866 0.70536 0.29705 0.0
C3603 C 0.92171 0.71715 0.30149 0.0
C3604 C 0.91409 0.72268 0.31029 0.0
C3605 C 0.90352 0.71644 0.31443 0.0
C3606 C 0.92654 0.69913 0.28769 0.0
C3607 C 0.91704 0.73523 0.31527 0.0
C3608 C 0.95487 0.7278 0.29776 0.0
C3609 C 0.95418 0.73517 0.28721 0.0
C3610 C 0.94435 0.72207 0.30264 0.0
C3611 C 0.93284 0.7237 0.29682 0.0
C3612 C 0.93205 0.73126 0.28627 0.0
C3613 C 0.9427 0.7369 0.28161 0.0
C3614 C 0.94559 0.71409 0.31391 0.0
C3615 C 0.91996 0.73325 0.2798 0.0
H3616 H 0.9059 0.69021 0.29807 0.0
H3617 H 0.89759 0.72079 0.32099 0.0
H3618 H 0.92714 0.70483 0.27927 0.0
H3619 H 0.936 0.69811 0.2913 0.0
H3620 H 0.92291 0.68994 0.28517 0.0
H3621 H 0.91032 0.73817 0.32225 0.0
H3622 H 0.92633 0.73533 0.31947 0.0
H3623 H 0.91713 0.74204 0.30769 0.0
H3624 H 0.9637 0.72627 0.30207 0.0
H3625 H 0.94203 0.74273 0.27358 0.0
H3626 H 0.94299 0.70453 0.31165 0.0
H3627 H 0.93925 0.71719 0.32114 0.0
H3628 H 0.95508 0.71419 0.31766 0.0
H3629 H 0.91626 0.72439 0.27643 0.0
H3630 H 0.92082 0.73965 0.27191 0.0
H3631 H 0.91316 0.73695 0.28629 0.0
C3632 C 0.82006 0.40746 0.29696 0.0
C3633 C 0.81624 0.40155 0.30777 0.0
C3634 C 0.81418 0.418 0.29259 0.0
C3635 C 0.80427 0.42288 0.29923 0.0
C3636 C 0.80038 0.41702 0.31018 0.0
C3637 C 0.80638 0.40643 0.31429 0.0
C3638 C 0.81861 0.42394 0.28088 0.0
C3639 C 0.78987 0.42195 0.31754 0.0
C3640 C 0.79683 0.45638 0.29346 0.0
C3641 C 0.78683 0.45551 0.28535 0.0
C3642 C 0.80245 0.44585 0.29821 0.0
C3643 C 0.79803 0.43413 0.29471 0.0
C3644 C 0.78787 0.4332 0.28661 0.0
C3645 C 0.78238 0.44389 0.28206 0.0
C3646 C 0.81318 0.44725 0.3069 0.0
C3647 C 0.78293 0.4209 0.28257 0.0
H3648 H 0.8278 0.40393 0.29195 0.0
H3649 H 0.80324 0.40188 0.32256 0.0
H3650 H 0.81098 0.42444 0.27415 0.0
H3651 H 0.82172 0.43346 0.28271 0.0
H3652 H 0.8263 0.4189 0.27668 0.0
H3653 H 0.78805 0.41642 0.32592 0.0
H3654 H 0.7919 0.43152 0.32028 0.0
H3655 H 0.78141 0.42208 0.31185 0.0
H3656 H 0.80022 0.46532 0.29617 0.0
H3657 H 0.77474 0.44314 0.2757 0.0
H3658 H 0.82145 0.44309 0.30288 0.0
H3659 H 0.81124 0.44233 0.31561 0.0
H3660 H 0.81527 0.45699 0.309 0.0
H3661 H 0.79015 0.41591 0.27759 0.0
H3662 H 0.77478 0.42173 0.27649 0.0
H3663 H 0.78038 0.41527 0.29067 0.0
C3664 C 0.21127 0.61267 0.70572 0.0
C3665 C 0.20227 0.61829 0.71284 0.0
C3666 C 0.21755 0.60232 0.71003 0.0
C3667 C 0.21475 0.59742 0.72174 0.0
C3668 C 0.20576 0.60309 0.72901 0.0
C3669 C 0.19967 0.61345 0.7245 0.0
C3670 C 0.22709 0.59656 0.70201 0.0
C3671 C 0.2025 0.59818 0.74155 0.0
C3672 C 0.22175 0.56406 0.7288 0.0
C3673 C 0.23246 0.56504 0.73593 0.0
C3674 C 0.21598 0.57449 0.72402 0.0
C3675 C 0.22106 0.58624 0.72636 0.0
C3676 C 0.23197 0.5873 0.7334 0.0
C3677 C 0.23751 0.57671 0.73811 0.0
C3678 C 0.20438 0.57295 0.71655 0.0
C3679 C 0.23768 0.59964 0.7361 0.0
H3680 H 0.21326 0.61623 0.69665 0.0
H3681 H 0.19291 0.61783 0.73018 0.0
H3682 H 0.23599 0.59616 0.70695 0.0
H3683 H 0.22431 0.58702 0.69984 0.0
H3684 H 0.22844 0.60166 0.69328 0.0
H3685 H 0.19536 0.60369 0.74609 0.0
H3686 H 0.1991 0.5886 0.7408 0.0
H3687 H 0.21078 0.59805 0.74749 0.0
H3688 H 0.21788 0.5551 0.72688 0.0
H3689 H 0.2457 0.57759 0.74373 0.0
H3690 H 0.20558 0.57719 0.70737 0.0
H3691 H 0.19673 0.57773 0.72107 0.0
H3692 H 0.20173 0.56319 0.71536 0.0
H3693 H 0.23952 0.60466 0.72743 0.0
H3694 H 0.24641 0.59888 0.74133 0.0
H3695 H 0.23122 0.60521 0.74148 0.0
C3696 C 0.20324 0.41147 0.3145 0.0
C3697 C 0.20511 0.40018 0.30883 0.0
C3698 C 0.20906 0.42218 0.31017 0.0
C3699 C 0.217 0.42155 0.29998 0.0
C3700 C 0.21913 0.41012 0.29438 0.0
C3701 C 0.21312 0.39959 0.29884 0.0
C3702 C 0.20649 0.4342 0.31633 0.0
C3703 C 0.22763 0.40905 0.28358 0.0
C3704 C 0.22236 0.45015 0.28069 0.0
C3705 C 0.23378 0.4543 0.28506 0.0
C3706 C 0.21677 0.43956 0.28553 0.0
C3707 C 0.22278 0.43289 0.29491 0.0
C3708 C 0.23432 0.43703 0.29936 0.0
C3709 C 0.23966 0.44771 0.29441 0.0
C3710 C 0.20441 0.43551 0.28061 0.0
C3711 C 0.24106 0.43012 0.30928 0.0
H3712 H 0.19697 0.412 0.32215 0.0
H3713 H 0.21471 0.39085 0.29453 0.0
H3714 H 0.2152 0.43858 0.31938 0.0
H3715 H 0.2021 0.44053 0.3097 0.0
H3716 H 0.20038 0.43308 0.32438 0.0
H3717 H 0.22867 0.39943 0.28058 0.0
H3718 H 0.22406 0.4145 0.27576 0.0
H3719 H 0.23682 0.41284 0.28595 0.0
H3720 H 0.2177 0.4553 0.27358 0.0
H3721 H 0.24855 0.45081 0.29773 0.0
H3722 H 0.19765 0.43503 0.28817 0.0
H3723 H 0.20505 0.4262 0.2767 0.0
H3724 H 0.20089 0.44179 0.27341 0.0
H3725 H 0.23531 0.42942 0.31761 0.0
H3726 H 0.24994 0.43457 0.31176 0.0
H3727 H 0.24286 0.42066 0.30621 0.0
C3728 C 0.11299 0.7134 0.31536 0.0
C3729 C 0.11648 0.70231 0.31006 0.0
C3730 C 0.1027 0.7198 0.31105 0.0
C3731 C 0.09565 0.71498 0.30123 0.0
C3732 C 0.09909 0.70378 0.29586 0.0
C3733 C 0.10946 0.69763 0.30029 0.0
C3734 C 0.09937 0.73172 0.31701 0.0
C3735 C 0.09182 0.69831 0.28539 0.0
C3736 C 0.06265 0.72525 0.29674 0.0
C3737 C 0.06377 0.73357 0.28696 0.0
C3738 C 0.07295 0.71923 0.30155 0.0
C3739 C 0.08469 0.72164 0.29652 0.0
C3740 C 0.08591 0.73016 0.28677 0.0
C3741 C 0.07544 0.73599 0.28209 0.0
C3742 C 0.07124 0.71014 0.31188 0.0
C3743 C 0.09826 0.73307 0.28122 0.0
H3744 H 0.11824 0.71703 0.32301 0.0
H3745 H 0.11216 0.6892 0.29595 0.0
H3746 H 0.09927 0.73917 0.31006 0.0
H3747 H 0.09 0.73103 0.32089 0.0
H3748 H 0.10587 0.73432 0.32445 0.0
H3749 H 0.09556 0.68943 0.28236 0.0
H3750 H 0.08213 0.69687 0.28815 0.0
H3751 H 0.09182 0.70473 0.27747 0.0
H3752 H 0.05366 0.72323 0.30046 0.0
H3753 H 0.07641 0.74252 0.27464 0.0
H3754 H 0.07711 0.71272 0.31979 0.0
H3755 H 0.07413 0.70094 0.30887 0.0
H3756 H 0.06156 0.70953 0.31498 0.0
H3757 H 0.10472 0.73632 0.28842 0.0
H3758 H 0.09771 0.74017 0.27392 0.0
H3759 H 0.1022 0.72468 0.27724 0.0
C3760 C 0.80004 0.61938 0.30819 0.0
C3761 C 0.80832 0.61813 0.31798 0.0
C3762 C 0.79538 0.60908 0.30198 0.0
C3763 C 0.79917 0.59724 0.30559 0.0
C3764 C 0.8077 0.59594 0.31532 0.0
C3765 C 0.81213 0.60638 0.32143 0.0
C3766 C 0.78623 0.61086 0.29172 0.0
C3767 C 0.81208 0.58349 0.31936 0.0
C3768 C 0.77857 0.56989 0.29818 0.0
C3769 C 0.78424 0.56505 0.28779 0.0
C3770 C 0.78327 0.58039 0.30399 0.0
C3771 C 0.79399 0.58619 0.29938 0.0
C3772 C 0.79979 0.58136 0.28892 0.0
C3773 C 0.79483 0.5709 0.28323 0.0
C3774 C 0.7768 0.58526 0.3151 0.0
C3775 C 0.81125 0.58724 0.28374 0.0
H3776 H 0.79695 0.62841 0.30557 0.0
H3777 H 0.81865 0.60537 0.32888 0.0
H3778 H 0.7896 0.60656 0.28322 0.0
H3779 H 0.77742 0.60627 0.2941 0.0
H3780 H 0.78445 0.62067 0.28983 0.0
H3781 H 0.81901 0.58406 0.32684 0.0
H3782 H 0.8042 0.57787 0.32261 0.0
H3783 H 0.81616 0.57864 0.3115 0.0
H3784 H 0.77052 0.56536 0.30192 0.0
H3785 H 0.79919 0.56736 0.27511 0.0
H3786 H 0.77419 0.59492 0.31353 0.0
H3787 H 0.78307 0.58509 0.32314 0.0
H3788 H 0.7684 0.57987 0.31737 0.0
H3789 H 0.8094 0.59685 0.28107 0.0
H3790 H 0.81471 0.58232 0.27561 0.0
H3791 H 0.81858 0.58747 0.29083 0.0
C3792 C 0.90686 0.29754 0.31808 0.0
C3793 C 0.90229 0.30927 0.31566 0.0
C3794 C 0.91724 0.29318 0.312 0.0
C3795 C 0.9232 0.30067 0.30318 0.0
C3796 C 0.91853 0.31243 0.30052 0.0
C3797 C 0.90816 0.3166 0.30679 0.0
C3798 C 0.92188 0.28057 0.3151 0.0
C3799 C 0.92461 0.32069 0.29117 0.0
C3800 C 0.95666 0.29367 0.29675 0.0
C3801 C 0.9558 0.28672 0.28599 0.0
C3802 C 0.94617 0.29843 0.3023 0.0
C3803 C 0.93448 0.29625 0.29698 0.0
C3804 C 0.93355 0.28945 0.286 0.0
C3805 C 0.9442 0.28476 0.28066 0.0
C3806 C 0.94757 0.30565 0.31399 0.0
C3807 C 0.92127 0.28692 0.28003 0.0
H3808 H 0.90228 0.29171 0.32473 0.0
H3809 H 0.90478 0.32571 0.30493 0.0
H3810 H 0.92212 0.27488 0.30673 0.0
H3811 H 0.93141 0.28124 0.31867 0.0
H3812 H 0.91611 0.27582 0.32205 0.0
H3813 H 0.91962 0.3294 0.28984 0.0
H3814 H 0.93414 0.32286 0.29411 0.0
H3815 H 0.92516 0.31597 0.28223 0.0
H3816 H 0.96559 0.29542 0.30083 0.0
H3817 H 0.94341 0.27931 0.27243 0.0
H3818 H 0.94259 0.30092 0.32152 0.0
H3819 H 0.94344 0.31481 0.31284 0.0
H3820 H 0.95732 0.30684 0.31676 0.0
H3821 H 0.91545 0.28133 0.28627 0.0
H3822 H 0.92215 0.282 0.27121 0.0
H3823 H 0.91641 0.29563 0.27831 0.0
C3824 C 0.82148 0.4099 0.72092 0.0
C3825 C 0.81655 0.40307 0.71117 0.0
C3826 C 0.81546 0.42022 0.72544 0.0
C3827 C 0.80415 0.42379 0.72018 0.0
C3828 C 0.79906 0.4169 0.71041 0.0
C3829 C 0.80532 0.40666 0.70601 0.0
C3830 C 0.82121 0.42729 0.73587 0.0
C3831 C 0.78701 0.42039 0.70456 0.0
C3832 C 0.78373 0.44402 0.73949 0.0
C3833 C 0.78625 0.45569 0.73462 0.0
C3834 C 0.78932 0.43355 0.73475 0.0
C3835 C 0.79769 0.43475 0.72493 0.0
C3836 C 0.80018 0.44648 0.71988 0.0
C3837 C 0.79442 0.45679 0.72477 0.0
C3838 C 0.78635 0.42121 0.74033 0.0
C3839 C 0.8091 0.44818 0.70946 0.0
H3840 H 0.83002 0.40711 0.72514 0.0
H3841 H 0.80149 0.40155 0.69839 0.0
H3842 H 0.82275 0.43696 0.73308 0.0
H3843 H 0.81491 0.42732 0.74382 0.0
H3844 H 0.83011 0.42341 0.73887 0.0
H3845 H 0.78418 0.41399 0.69718 0.0
H3846 H 0.7797 0.42053 0.71159 0.0
H3847 H 0.78773 0.42975 0.70063 0.0
H3848 H 0.7773 0.44306 0.74698 0.0
H3849 H 0.79653 0.46578 0.72104 0.0
H3850 H 0.79479 0.41714 0.74425 0.0
H3851 H 0.78288 0.41488 0.73316 0.0
H3852 H 0.77937 0.42178 0.74768 0.0
H3853 H 0.81835 0.44518 0.71239 0.0
H3854 H 0.80974 0.45784 0.70632 0.0
H3855 H 0.80628 0.4424 0.7016 0.0
C3856 C 0.10606 0.3125 0.70075 0.0
C3857 C 0.11791 0.30957 0.70477 0.0
C3858 C 0.09563 0.30802 0.70691 0.0
C3859 C 0.09708 0.30034 0.7173 0.0
C3860 C 0.10902 0.29749 0.72151 0.0
C3861 C 0.11929 0.30217 0.71522 0.0
C3862 C 0.08307 0.31138 0.70219 0.0
C3863 C 0.11095 0.28928 0.7325 0.0
C3864 C 0.06998 0.29624 0.73889 0.0
C3865 C 0.06483 0.28514 0.73485 0.0
C3866 C 0.08051 0.30126 0.73333 0.0
C3867 C 0.08608 0.29501 0.72352 0.0
C3868 C 0.08101 0.28373 0.71951 0.0
C3869 C 0.07046 0.27895 0.72519 0.0
C3870 C 0.08559 0.31334 0.73783 0.0
C3871 C 0.08671 0.27673 0.70915 0.0
H3872 H 0.10493 0.31834 0.69278 0.0
H3873 H 0.12842 0.29976 0.7183 0.0
H3874 H 0.078 0.303 0.69933 0.0
H3875 H 0.0777 0.31567 0.70958 0.0
H3876 H 0.08351 0.31778 0.69427 0.0
H3877 H 0.12082 0.28825 0.73484 0.0
H3878 H 0.10615 0.293 0.74057 0.0
H3879 H 0.10696 0.28009 0.73067 0.0
H3880 H 0.06562 0.30114 0.74625 0.0
H3881 H 0.06664 0.27029 0.72213 0.0
H3882 H 0.08538 0.3202 0.73031 0.0
H3883 H 0.09531 0.31233 0.74067 0.0
H3884 H 0.08033 0.31693 0.7457 0.0
H3885 H 0.08665 0.28238 0.70067 0.0
H3886 H 0.08181 0.26798 0.70728 0.0
H3887 H 0.09643 0.27472 0.71135 0.0
C3888 C 0.90063 0.71875 0.71445 0.0
C3889 C 0.90184 0.71182 0.70376 0.0
C3890 C 0.91098 0.72352 0.72056 0.0
C3891 C 0.92284 0.72122 0.71593 0.0
C3892 C 0.92412 0.71403 0.70528 0.0
C3893 C 0.91361 0.70946 0.6993 0.0
C3894 C 0.90923 0.7312 0.73185 0.0
C3895 C 0.93661 0.71128 0.70012 0.0
C3896 C 0.94901 0.74309 0.72392 0.0
C3897 C 0.95509 0.73669 0.73328 0.0
C3898 C 0.93845 0.7382 0.71828 0.0
C3899 C 0.93389 0.7266 0.72203 0.0
C3900 C 0.93995 0.72011 0.7315 0.0
C3901 C 0.95046 0.72525 0.73703 0.0
C3902 C 0.9322 0.74545 0.70828 0.0
C3903 C 0.93542 0.70769 0.7357 0.0
H3904 H 0.89155 0.72072 0.71786 0.0
H3905 H 0.9146 0.70398 0.69113 0.0
H3906 H 0.91442 0.72728 0.73967 0.0
H3907 H 0.91291 0.74057 0.73021 0.0
H3908 H 0.89943 0.73187 0.73446 0.0
H3909 H 0.93605 0.70522 0.692 0.0
H3910 H 0.94132 0.71992 0.69741 0.0
H3911 H 0.94238 0.70683 0.70721 0.0
H3912 H 0.95245 0.752 0.72109 0.0
H3913 H 0.9552 0.72019 0.74415 0.0
H3914 H 0.92251 0.7471 0.71078 0.0
H3915 H 0.93211 0.74016 0.69964 0.0
H3916 H 0.9368 0.75441 0.70655 0.0
H3917 H 0.92579 0.70828 0.73885 0.0
H3918 H 0.94108 0.7039 0.74328 0.0
H3919 H 0.93552 0.7012 0.72793 0.0
C3920 C 0.71938 0.21435 0.62015 0.0
C3921 C 0.71045 0.20503 0.61932 0.0
C3922 C 0.72398 0.2202 0.60961 0.0
C3923 C 0.71963 0.2166 0.59791 0.0
C3924 C 0.7105 0.20732 0.59701 0.0
C3925 C 0.706 0.20168 0.60771 0.0
C3926 C 0.73361 0.23015 0.61098 0.0
C3927 C 0.70568 0.20315 0.58472 0.0
C3928 C 0.72454 0.238 0.57063 0.0
C3929 C 0.73494 0.233 0.56511 0.0
C3930 C 0.71949 0.2328 0.58131 0.0
C3931 C 0.72489 0.22229 0.5866 0.0
C3932 C 0.73537 0.21719 0.58107 0.0
C3933 C 0.74028 0.22262 0.57045 0.0
C3934 C 0.70834 0.23854 0.58693 0.0
C3935 C 0.74141 0.20598 0.5864 0.0
H3936 H 0.72275 0.2171 0.62909 0.0
H3937 H 0.69921 0.19439 0.60698 0.0
H3938 H 0.74219 0.22737 0.60641 0.0
H3939 H 0.73049 0.23866 0.60642 0.0
H3940 H 0.73571 0.23218 0.62073 0.0
H3941 H 0.69831 0.1961 0.58559 0.0
H3942 H 0.70203 0.21104 0.57948 0.0
H3943 H 0.71326 0.19929 0.57928 0.0
H3944 H 0.72023 0.2459 0.5665 0.0
H3945 H 0.74842 0.21879 0.56641 0.0
H3946 H 0.71033 0.24113 0.59656 0.0
H3947 H 0.70063 0.23183 0.58712 0.0
H3948 H 0.70535 0.24682 0.58183 0.0
H3949 H 0.74457 0.20785 0.59589 0.0
H3950 H 0.74939 0.20303 0.58092 0.0
H3951 H 0.73468 0.1983 0.58689 0.0
C3952 C 0.30043 0.21339 0.62095 0.0
C3953 C 0.30849 0.20359 0.61964 0.0
C3954 C 0.29575 0.21958 0.61065 0.0
C3955 C 0.29931 0.21595 0.59877 0.0
C3956 C 0.30765 0.20622 0.59741 0.0
C3957 C 0.31209 0.20013 0.60786 0.0
C3958 C 0.28681 0.22984 0.61248 0.0
C3959 C 0.31178 0.20217 0.58491 0.0
C3960 C 0.27843 0.22318 0.57176 0.0
C3961 C 0.28421 0.23354 0.56663 0.0
C3962 C 0.2832 0.21745 0.58226 0.0
C3963 C 0.29407 0.2221 0.58775 0.0
C3964 C 0.29996 0.23254 0.58264 0.0
C3965 C 0.29493 0.23816 0.57219 0.0
C3966 C 0.27663 0.20636 0.58745 0.0
C3967 C 0.31159 0.23774 0.5882 0.0
H3968 H 0.29753 0.21602 0.63003 0.0
H3969 H 0.31844 0.19266 0.60681 0.0
H3970 H 0.29025 0.23832 0.60798 0.0
H3971 H 0.27789 0.22745 0.60812 0.0
H3972 H 0.28523 0.23176 0.62232 0.0
H3973 H 0.31861 0.19473 0.58544 0.0
H3974 H 0.30377 0.19889 0.5795 0.0
H3975 H 0.31589 0.21002 0.57985 0.0
H3976 H 0.27026 0.21942 0.56744 0.0
H3977 H 0.29937 0.24625 0.56842 0.0
H3978 H 0.27421 0.20795 0.59716 0.0
H3979 H 0.28276 0.19834 0.58726 0.0
H3980 H 0.26811 0.20406 0.58228 0.0
H3981 H 0.30993 0.24043 0.59783 0.0
H3982 H 0.31509 0.24586 0.58308 0.0
H3983 H 0.31881 0.23068 0.58836 0.0
C3984 C 0.30218 0.80638 0.6192 0.0
C3985 C 0.3104 0.81628 0.61791 0.0
C3986 C 0.29746 0.80021 0.60891 0.0
C3987 C 0.3011 0.80397 0.59702 0.0
C3988 C 0.30957 0.8138 0.59566 0.0
C3989 C 0.31408 0.81985 0.60611 0.0
C3990 C 0.28838 0.78984 0.61075 0.0
C3991 C 0.31378 0.818 0.58316 0.0
C3992 C 0.29641 0.78185 0.57049 0.0
C3993 C 0.2857 0.78633 0.56494 0.0
C3994 C 0.30153 0.7875 0.5809 0.0
C3995 C 0.29578 0.79783 0.58598 0.0
C3996 C 0.28495 0.80236 0.58047 0.0
C3997 C 0.28008 0.7966 0.57002 0.0
C3998 C 0.31311 0.78239 0.58648 0.0
C3999 C 0.27852 0.81335 0.58559 0.0
H4000 H 0.29918 0.80365 0.62828 0.0
H4001 H 0.32054 0.82739 0.60505 0.0
H4002 H 0.27949 0.79218 0.60639 0.0
H4003 H 0.29171 0.78144 0.60627 0.0
H4004 H 0.28676 0.7878 0.6206 0.0
H4005 H 0.32071 0.82552 0.58368 0.0
H4006 H 0.31781 0.81025 0.57813 0.0
H4007 H 0.30582 0.82124 0.57772 0.0
H4008 H 0.30075 0.77383 0.56677 0.0
H4009 H 0.27192 0.80027 0.56572 0.0
H4010 H 0.31141 0.77958 0.59611 0.0
H4011 H 0.3204 0.78955 0.58664 0.0
H4012 H 0.31653 0.77438 0.58138 0.0
H4013 H 0.27603 0.81164 0.59529 0.0
H4014 H 0.27006 0.81561 0.58037 0.0
H4015 H 0.28477 0.82143 0.5854 0.0
C4016 C 0.72355 0.81905 0.6143 0.0
C4017 C 0.7118 0.81647 0.61893 0.0
C4018 C 0.72797 0.81304 0.60392 0.0
C4019 C 0.72052 0.80415 0.59801 0.0
C4020 C 0.70872 0.80137 0.60271 0.0
C4021 C 0.7045 0.80757 0.61309 0.0
C4022 C 0.74061 0.81627 0.59922 0.0
C4023 C 0.7005 0.79194 0.59669 0.0
C4024 C 0.72759 0.79756 0.56461 0.0
C4025 C 0.73453 0.78685 0.56552 0.0
C4026 C 0.72283 0.80317 0.57508 0.0
C4027 C 0.72502 0.79795 0.58678 0.0
C4028 C 0.73185 0.78704 0.58776 0.0
C4029 C 0.73653 0.78164 0.57713 0.0
C4030 C 0.71559 0.81477 0.57363 0.0
C4031 C 0.73438 0.78119 0.60006 0.0
H4032 H 0.72937 0.82573 0.61886 0.0
H4033 H 0.69537 0.8056 0.61651 0.0
H4034 H 0.74637 0.80798 0.59904 0.0
H4035 H 0.73996 0.81976 0.58967 0.0
H4036 H 0.7453 0.8233 0.60491 0.0
H4037 H 0.69172 0.79057 0.60167 0.0
H4038 H 0.6984 0.7948 0.58714 0.0
H4039 H 0.70526 0.78304 0.59621 0.0
H4040 H 0.72582 0.80155 0.55568 0.0
H4041 H 0.74199 0.77345 0.57795 0.0
H4042 H 0.72028 0.82235 0.57857 0.0
H4043 H 0.70638 0.81358 0.57776 0.0
H4044 H 0.71444 0.8175 0.56388 0.0
H4045 H 0.73991 0.78753 0.60581 0.0
H4046 H 0.7394 0.77245 0.59923 0.0
H4047 H 0.72565 0.77937 0.60494 0.0
C4048 C 0.72488 0.81906 0.40639 0.0
C4049 C 0.71297 0.81689 0.40189 0.0
C4050 C 0.72922 0.81301 0.4169 0.0
C4051 C 0.72152 0.80448 0.42303 0.0
C4052 C 0.70957 0.80207 0.41843 0.0
C4053 C 0.70543 0.80832 0.40794 0.0
C4054 C 0.74202 0.81585 0.42151 0.0
C4055 C 0.7011 0.793 0.42469 0.0
C4056 C 0.73696 0.78175 0.44446 0.0
C4057 C 0.7352 0.78716 0.45594 0.0
C4058 C 0.73236 0.78715 0.4337 0.0
C4059 C 0.72591 0.79829 0.4344 0.0
C4060 C 0.72398 0.80373 0.44595 0.0
C4061 C 0.72859 0.79808 0.45657 0.0
C4062 C 0.73458 0.78105 0.42156 0.0
C4063 C 0.71716 0.8156 0.44709 0.0
H4064 H 0.73086 0.82549 0.40166 0.0
H4065 H 0.69617 0.80668 0.40463 0.0
H4066 H 0.7416 0.8195 0.43096 0.0
H4067 H 0.74748 0.80736 0.4219 0.0
H4068 H 0.74689 0.82263 0.41563 0.0
H4069 H 0.69226 0.79183 0.41971 0.0
H4070 H 0.70558 0.78396 0.42544 0.0
H4071 H 0.69916 0.79608 0.43414 0.0
H4072 H 0.74217 0.77339 0.44386 0.0
H4073 H 0.72699 0.80222 0.4654 0.0
H4074 H 0.74027 0.78711 0.41565 0.0
H4075 H 0.72574 0.77948 0.4167 0.0
H4076 H 0.73929 0.77215 0.42262 0.0
H4077 H 0.72204 0.82293 0.44193 0.0
H4078 H 0.71624 0.81853 0.45676 0.0
H4079 H 0.70786 0.81466 0.44301 0.0
C4080 C 0.71352 0.21664 0.4013 0.0
C4081 C 0.70379 0.20823 0.40265 0.0
C4082 C 0.71967 0.22148 0.41157 0.0
C4083 C 0.71607 0.21777 0.42349 0.0
C4084 C 0.70641 0.20911 0.4249 0.0
C4085 C 0.70037 0.20448 0.41447 0.0
C4086 C 0.72986 0.23076 0.40967 0.0
C4087 C 0.70237 0.20482 0.43743 0.0
C4088 C 0.73829 0.22299 0.45006 0.0
C4089 C 0.73358 0.23357 0.45547 0.0
C4090 C 0.73269 0.21774 0.43969 0.0
C4091 C 0.72216 0.22323 0.43449 0.0
C4092 C 0.71739 0.23392 0.43985 0.0
C4093 C 0.72311 0.23892 0.45027 0.0
C4094 C 0.73805 0.20632 0.43428 0.0
C4095 C 0.70619 0.24007 0.43459 0.0
H4096 H 0.71613 0.21969 0.39221 0.0
H4097 H 0.69295 0.19788 0.41558 0.0
H4098 H 0.72733 0.23957 0.41391 0.0
H4099 H 0.73838 0.22764 0.41425 0.0
H4100 H 0.73181 0.2324 0.39982 0.0
H4101 H 0.69499 0.19773 0.43695 0.0
H4102 H 0.71027 0.201 0.44255 0.0
H4103 H 0.69896 0.21268 0.44275 0.0
H4104 H 0.74646 0.21887 0.45388 0.0
H4105 H 0.71926 0.24696 0.45446 0.0
H4106 H 0.74076 0.20807 0.42464 0.0
H4107 H 0.73104 0.19888 0.43418 0.0
H4108 H 0.7462 0.20311 0.43947 0.0
H4109 H 0.70778 0.24257 0.42486 0.0
H4110 H 0.70376 0.24846 0.43968 0.0
H4111 H 0.69824 0.23365 0.43482 0.0
C4112 C 0.31853 0.22437 0.40827 0.0
C4113 C 0.31585 0.21267 0.40366 0.0
C4114 C 0.31253 0.22885 0.41864 0.0
C4115 C 0.30354 0.22151 0.42455 0.0
C4116 C 0.30063 0.20977 0.41986 0.0
C4117 C 0.30683 0.20548 0.40949 0.0
C4118 C 0.3159 0.24142 0.42334 0.0
C4119 C 0.29107 0.20168 0.42587 0.0
C4120 C 0.29695 0.2285 0.45796 0.0
C4121 C 0.2863 0.23556 0.45707 0.0
C4122 C 0.30255 0.22376 0.44748 0.0
C4123 C 0.29737 0.22606 0.43578 0.0
C4124 C 0.28652 0.233 0.43482 0.0
C4125 C 0.28114 0.23768 0.44545 0.0
C4126 C 0.31412 0.21641 0.44892 0.0
C4127 C 0.28069 0.23563 0.42252 0.0
H4128 H 0.3253 0.2301 0.40371 0.0
H4129 H 0.30478 0.19639 0.4061 0.0
H4130 H 0.30765 0.24726 0.42352 0.0
H4131 H 0.3194 0.24072 0.43287 0.0
H4132 H 0.323 0.24603 0.41763 0.0
H4133 H 0.28958 0.19296 0.42087 0.0
H4134 H 0.29392 0.19951 0.4354 0.0
H4135 H 0.28222 0.20654 0.42638 0.0
H4136 H 0.30089 0.22661 0.4669 0.0
H4137 H 0.27301 0.24324 0.44464 0.0
H4138 H 0.32175 0.221 0.44394 0.0
H4139 H 0.3128 0.20723 0.44481 0.0
H4140 H 0.31686 0.21525 0.45866 0.0
H4141 H 0.28713 0.24108 0.41678 0.0
H4142 H 0.272 0.24074 0.42336 0.0
H4143 H 0.27877 0.22695 0.41762 0.0
C4144 C 0.30206 0.80592 0.40108 0.0
C4145 C 0.31062 0.81551 0.40241 0.0
C4146 C 0.29721 0.79977 0.41136 0.0
C4147 C 0.30106 0.80324 0.42327 0.0
C4148 C 0.30988 0.81275 0.42466 0.0
C4149 C 0.31452 0.81879 0.41423 0.0
C4150 C 0.28777 0.78973 0.40948 0.0
C4151 C 0.31433 0.81666 0.43717 0.0
C4152 C 0.28008 0.79635 0.45029 0.0
C4153 C 0.28545 0.78588 0.45544 0.0
C4154 C 0.28501 0.80201 0.43979 0.0
C4155 C 0.29562 0.79716 0.4343 0.0
C4156 C 0.30108 0.7866 0.43941 0.0
C4157 C 0.29592 0.78108 0.44988 0.0
C4158 C 0.2789 0.81325 0.43463 0.0
C4159 C 0.3124 0.78114 0.43384 0.0
H4160 H 0.29889 0.80342 0.392 0.0
H4161 H 0.32125 0.82608 0.41533 0.0
H4162 H 0.29084 0.78117 0.41399 0.0
H4163 H 0.279 0.79233 0.4138 0.0
H4164 H 0.28604 0.78785 0.39963 0.0
H4165 H 0.3215 0.82395 0.43668 0.0
H4166 H 0.30653 0.8201 0.44259 0.0
H4167 H 0.31812 0.8087 0.44221 0.0
H4168 H 0.27212 0.80026 0.45459 0.0
H4169 H 0.30004 0.7729 0.45366 0.0
H4170 H 0.2763 0.81173 0.42491 0.0
H4171 H 0.28541 0.82113 0.43483 0.0
H4172 H 0.27055 0.81572 0.4398 0.0
H4173 H 0.31053 0.77855 0.4242 0.0
H4174 H 0.31556 0.77292 0.43893 0.0
H4175 H 0.31996 0.78803 0.43374 0.0
C4176 C 0.61926 0.21984 0.71509 0.0
C4177 C 0.6183 0.21054 0.70632 0.0
C4178 C 0.60883 0.22435 0.72097 0.0
C4179 C 0.5971 0.2195 0.71799 0.0
C4180 C 0.59607 0.20997 0.70929 0.0
C4181 C 0.60667 0.20559 0.70359 0.0
C4182 C 0.61034 0.23444 0.73026 0.0
C4183 C 0.58374 0.20457 0.70581 0.0
C4184 C 0.57072 0.22471 0.74006 0.0
C4185 C 0.56479 0.23471 0.73463 0.0
C4186 C 0.58121 0.21964 0.73475 0.0
C4187 C 0.58588 0.22465 0.7237 0.0
C4188 C 0.57989 0.2347 0.71814 0.0
C4189 C 0.56945 0.2396 0.72367 0.0
C4190 C 0.58735 0.20897 0.741 0.0
C4191 C 0.58452 0.24028 0.70633 0.0
H4192 H 0.62822 0.22361 0.71738 0.0
H4193 H 0.60583 0.1985 0.69674 0.0
H4194 H 0.60544 0.24271 0.72707 0.0
H4195 H 0.6062 0.2316 0.73911 0.0
H4196 H 0.62012 0.23693 0.73188 0.0
H4197 H 0.58453 0.19693 0.69921 0.0
H4198 H 0.57892 0.20115 0.7141 0.0
H4199 H 0.57792 0.21176 0.70164 0.0
H4200 H 0.56727 0.22095 0.7486 0.0
H4201 H 0.56483 0.24721 0.71931 0.0
H4202 H 0.59695 0.21148 0.74341 0.0
H4203 H 0.58772 0.20108 0.73468 0.0
H4204 H 0.58251 0.20605 0.74947 0.0
H4205 H 0.59407 0.24368 0.70758 0.0
H4206 H 0.57877 0.24799 0.70312 0.0
H4207 H 0.58469 0.23323 0.69907 0.0
C4208 C 0.32085 0.10643 0.70851 0.0
C4209 C 0.31725 0.11814 0.71209 0.0
C4210 C 0.3148 0.09591 0.71296 0.0
C4211 C 0.30499 0.09712 0.72129 0.0
C4212 C 0.30124 0.10893 0.72486 0.0
C4213 C 0.30738 0.11929 0.72017 0.0
C4214 C 0.31897 0.08349 0.70881 0.0
C4215 C 0.2909 0.1106 0.73382 0.0
C4216 C 0.28273 0.07039 0.72562 0.0
C4217 C 0.28728 0.06485 0.73633 0.0
C4218 C 0.2884 0.08087 0.7206 0.0
C4219 C 0.29883 0.08603 0.72649 0.0
C4220 C 0.30342 0.08056 0.73734 0.0
C4221 C 0.29764 0.07002 0.74208 0.0
C4222 C 0.28325 0.08641 0.70899 0.0
C4223 C 0.31449 0.08581 0.74391 0.0
H4224 H 0.32838 0.1055 0.70215 0.0
H4225 H 0.30465 0.12832 0.72307 0.0
H4226 H 0.32222 0.07809 0.7168 0.0
H4227 H 0.31116 0.07836 0.70467 0.0
H4228 H 0.32649 0.08413 0.702 0.0
H4229 H 0.28893 0.1204 0.73546 0.0
H4230 H 0.28243 0.10606 0.73036 0.0
H4231 H 0.29325 0.10621 0.7427 0.0
H4232 H 0.27463 0.0666 0.7212 0.0
H4233 H 0.30137 0.06572 0.75023 0.0
H4234 H 0.2904 0.08668 0.7018 0.0
H4235 H 0.28049 0.09598 0.71068 0.0
H4236 H 0.27518 0.08121 0.70546 0.0
H4237 H 0.32257 0.08572 0.73778 0.0
H4238 H 0.31675 0.08063 0.7524 0.0
H4239 H 0.31284 0.09548 0.74636 0.0
C4240 C 0.4127 0.81523 0.70417 0.0
C4241 C 0.40115 0.81009 0.70678 0.0
C4242 C 0.42338 0.81088 0.70992 0.0
C4243 C 0.4225 0.80118 0.71854 0.0
C4244 C 0.41084 0.79612 0.72141 0.0
C4245 C 0.40033 0.80061 0.71548 0.0
C4246 C 0.43564 0.81649 0.70656 0.0
C4247 C 0.40948 0.78585 0.73062 0.0
C4248 C 0.45049 0.78141 0.72428 0.0
C4249 C 0.45514 0.7862 0.73529 0.0
C4250 C 0.43993 0.78623 0.71873 0.0
C4251 C 0.43381 0.79608 0.72431 0.0
C4252 C 0.43845 0.80098 0.73541 0.0
C4253 C 0.44906 0.796 0.74075 0.0
C4254 C 0.43533 0.78078 0.70686 0.0
C4255 C 0.43217 0.81144 0.74168 0.0
H4256 H 0.41344 0.82246 0.69737 0.0
H4257 H 0.39142 0.79669 0.71766 0.0
H4258 H 0.44042 0.81984 0.7149 0.0
H4259 H 0.44154 0.80945 0.7024 0.0
H4260 H 0.43473 0.82422 0.69998 0.0
H4261 H 0.39974 0.7832 0.73214 0.0
H4262 H 0.41449 0.77771 0.72743 0.0
H4263 H 0.41361 0.78859 0.73952 0.0
H4264 H 0.45522 0.77396 0.7199 0.0
H4265 H 0.45249 0.79966 0.74933 0.0
H4266 H 0.43505 0.78794 0.69963 0.0
H4267 H 0.42583 0.77724 0.70804 0.0
H4268 H 0.44117 0.7732 0.70366 0.0
H4269 H 0.43168 0.81944 0.73541 0.0
H4270 H 0.43699 0.81427 0.75022 0.0
H4271 H 0.42261 0.80876 0.744 0.0
C4272 C 0.71469 0.90582 0.70641 0.0
C4273 C 0.70482 0.90065 0.71293 0.0
C4274 C 0.72073 0.91647 0.71056 0.0
C4275 C 0.71687 0.92207 0.72152 0.0
C4276 C 0.70694 0.9169 0.72815 0.0
C4277 C 0.70101 0.90632 0.72375 0.0
C4278 C 0.73125 0.92172 0.70321 0.0
C4279 C 0.70253 0.92258 0.73988 0.0
C4280 C 0.73871 0.94334 0.73879 0.0
C4281 C 0.7342 0.95489 0.73557 0.0
C4282 C 0.73326 0.93259 0.73416 0.0
C4283 C 0.72311 0.9334 0.72606 0.0
C4284 C 0.71867 0.94505 0.7226 0.0
C4285 C 0.72423 0.95564 0.72743 0.0
C4286 C 0.73821 0.92035 0.73816 0.0
C4287 C 0.70796 0.94632 0.71389 0.0
H4288 H 0.71782 0.90145 0.69813 0.0
H4289 H 0.69326 0.90256 0.72875 0.0
H4290 H 0.72924 0.93129 0.70048 0.0
H4291 H 0.73971 0.92197 0.70889 0.0
H4292 H 0.73307 0.91635 0.69482 0.0
H4293 H 0.69485 0.9173 0.74408 0.0
H4294 H 0.71018 0.92316 0.74661 0.0
H4295 H 0.69942 0.93205 0.73807 0.0
H4296 H 0.74632 0.94269 0.74517 0.0
H4297 H 0.72081 0.96454 0.72477 0.0
H4298 H 0.74073 0.91489 0.73004 0.0
H4299 H 0.73101 0.91512 0.74315 0.0
H4300 H 0.74639 0.92129 0.7442 0.0
H4301 H 0.70988 0.94153 0.70519 0.0
H4302 H 0.70589 0.95603 0.71177 0.0
H4303 H 0.69966 0.94195 0.71791 0.0
C4304 C 0.61504 0.81341 0.30683 0.0
C4305 C 0.61947 0.80709 0.31715 0.0
C4306 C 0.60446 0.80939 0.30058 0.0
C4307 C 0.59818 0.79873 0.30466 0.0
C4308 C 0.60263 0.79226 0.315 0.0
C4309 C 0.61315 0.79654 0.32115 0.0
C4310 C 0.59996 0.81658 0.28962 0.0
C4311 C 0.59622 0.78082 0.31962 0.0
C4312 C 0.5646 0.79363 0.2964 0.0
C4313 C 0.56537 0.78526 0.28676 0.0
C4314 C 0.57522 0.79828 0.30214 0.0
C4315 C 0.58688 0.79437 0.29822 0.0
C4316 C 0.58772 0.78602 0.28839 0.0
C4317 C 0.57695 0.78162 0.28274 0.0
C4318 C 0.57394 0.80727 0.31248 0.0
C4319 C 0.59998 0.78155 0.28402 0.0
H4320 H 0.61993 0.82146 0.30355 0.0
H4321 H 0.61634 0.7917 0.32922 0.0
H4322 H 0.59977 0.81067 0.28139 0.0
H4323 H 0.59044 0.81964 0.29119 0.0
H4324 H 0.60582 0.82473 0.28767 0.0
H4325 H 0.60103 0.77667 0.32759 0.0
H4326 H 0.58672 0.78298 0.32237 0.0
H4327 H 0.5956 0.77394 0.3122 0.0
H4328 H 0.55567 0.79659 0.29943 0.0
H4329 H 0.57758 0.77506 0.27536 0.0
H4330 H 0.57924 0.81576 0.31042 0.0
H4331 H 0.57778 0.80334 0.32104 0.0
H4332 H 0.56423 0.80973 0.31412 0.0
H4333 H 0.60594 0.78942 0.2814 0.0
H4334 H 0.59908 0.77532 0.27606 0.0
H4335 H 0.6047 0.77661 0.29157 0.0
C4336 C 0.70553 0.10624 0.31741 0.0
C4337 C 0.71014 0.11789 0.31433 0.0
C4338 C 0.70996 0.09567 0.31173 0.0
C4339 C 0.71918 0.09676 0.30268 0.0
C4340 C 0.72369 0.10852 0.29935 0.0
C4341 C 0.71915 0.11892 0.30524 0.0
C4342 C 0.70496 0.08332 0.3156 0.0
C4343 C 0.73343 0.1101 0.28967 0.0
C4344 C 0.73955 0.0694 0.29679 0.0
C4345 C 0.73427 0.06439 0.28617 0.0
C4346 C 0.73471 0.07988 0.30226 0.0
C4347 C 0.72436 0.0856 0.29696 0.0
C4348 C 0.719 0.08064 0.2862 0.0
C4349 C 0.72399 0.0701 0.28096 0.0
C4350 C 0.7407 0.08486 0.31373 0.0
C4351 C 0.70797 0.08646 0.28025 0.0
H4352 H 0.69867 0.10535 0.32452 0.0
H4353 H 0.72265 0.12789 0.3027 0.0
H4354 H 0.70132 0.07831 0.30753 0.0
H4355 H 0.71244 0.07775 0.31959 0.0
H4356 H 0.69753 0.08404 0.32248 0.0
H4357 H 0.73567 0.11987 0.28783 0.0
H4358 H 0.74192 0.10541 0.2926 0.0
H4359 H 0.73033 0.10579 0.28099 0.0
H4360 H 0.7476 0.0652 0.30079 0.0
H4361 H 0.71972 0.06623 0.27286 0.0
H4362 H 0.73391 0.08517 0.32124 0.0
H4363 H 0.74399 0.09437 0.31208 0.0
H4364 H 0.7486 0.07927 0.3168 0.0
H4365 H 0.70021 0.08652 0.28677 0.0
H4366 H 0.70499 0.0816 0.27182 0.0
H4367 H 0.7101 0.09613 0.27784 0.0
C4368 C 0.41256 0.20074 0.314 0.0
C4369 C 0.4007 0.20486 0.31132 0.0
C4370 C 0.42297 0.20685 0.30937 0.0
C4371 C 0.42151 0.2173 0.30181 0.0
C4372 C 0.40957 0.22162 0.29921 0.0
C4373 C 0.39932 0.21537 0.30403 0.0
C4374 C 0.43554 0.20201 0.31245 0.0
C4375 C 0.40762 0.23269 0.29113 0.0
C4376 C 0.44903 0.23864 0.29737 0.0
C4377 C 0.45368 0.23463 0.28614 0.0
C4378 C 0.43852 0.23316 0.30254 0.0
C4379 C 0.43247 0.22347 0.29631 0.0
C4380 C 0.43703 0.2195 0.2849 0.0
C4381 C 0.44758 0.2251 0.27997 0.0
C4382 C 0.434 0.2376 0.31476 0.0
C4383 C 0.43079 0.20928 0.27791 0.0
H4384 H 0.4137 0.19272 0.31975 0.0
H4385 H 0.39018 0.21854 0.30182 0.0
H4386 H 0.44022 0.19918 0.30395 0.0
H4387 H 0.44125 0.20932 0.3167 0.0
H4388 H 0.43513 0.19406 0.31882 0.0
H4389 H 0.39779 0.23512 0.29032 0.0
H4390 H 0.41278 0.24067 0.29482 0.0
H4391 H 0.41122 0.23091 0.28183 0.0
H4392 H 0.45377 0.24591 0.30225 0.0
H4393 H 0.45102 0.22207 0.27122 0.0
H4394 H 0.43428 0.23004 0.32157 0.0
H4395 H 0.42432 0.24051 0.31395 0.0
H4396 H 0.43958 0.2454 0.3183 0.0
H4397 H 0.43085 0.20075 0.28347 0.0
H4398 H 0.43532 0.20746 0.26902 0.0
H4399 H 0.42106 0.21157 0.27612 0.0
C4400 C 0.3196 0.90756 0.29777 0.0
C4401 C 0.31696 0.90258 0.30936 0.0
C4402 C 0.31351 0.91795 0.29335 0.0
C4403 C 0.30446 0.92351 0.30064 0.0
C4404 C 0.30161 0.91845 0.31227 0.0
C4405 C 0.30789 0.90807 0.3165 0.0
C4406 C 0.31682 0.92302 0.28089 0.0
C4407 C 0.292 0.92409 0.32031 0.0
C4408 C 0.29755 0.95693 0.29384 0.0
C4409 C 0.2869 0.95603 0.28661 0.0
C4410 C 0.30324 0.94645 0.29861 0.0
C4411 C 0.29816 0.93473 0.29613 0.0
C4412 C 0.2873 0.93376 0.289 0.0
C4413 C 0.28182 0.9444 0.28432 0.0
C4414 C 0.31478 0.9479 0.30618 0.0
C4415 C 0.28159 0.92145 0.28613 0.0
H4416 H 0.32641 0.90327 0.29208 0.0
H4417 H 0.30586 0.90438 0.3255 0.0
H4418 H 0.30856 0.92321 0.27491 0.0
H4419 H 0.32021 0.93259 0.28177 0.0
H4420 H 0.32398 0.91758 0.27631 0.0
H4421 H 0.29061 0.91887 0.32896 0.0
H4422 H 0.29474 0.93361 0.32262 0.0
H4423 H 0.28313 0.92453 0.31532 0.0
H4424 H 0.30144 0.96587 0.29584 0.0
H4425 H 0.27367 0.94358 0.27864 0.0
H4426 H 0.32248 0.94322 0.30163 0.0
H4427 H 0.31354 0.94352 0.31529 0.0
H4428 H 0.3174 0.95765 0.30754 0.0
H4429 H 0.28807 0.91595 0.28071 0.0
H4430 H 0.27288 0.92226 0.28088 0.0
H4431 H 0.27973 0.91632 0.29474 0.0
C4432 C 0.69936 0.10524 0.70782 0.0
C4433 C 0.70335 0.11708 0.7109 0.0
C4434 C 0.70534 0.09486 0.71243 0.0
C4435 C 0.71554 0.09632 0.7204 0.0
C4436 C 0.71972 0.10825 0.72342 0.0
C4437 C 0.71361 0.11847 0.71861 0.0
C4438 C 0.70066 0.08231 0.70889 0.0
C4439 C 0.73051 0.11021 0.73194 0.0
C4440 C 0.72297 0.0699 0.74198 0.0
C4441 C 0.73285 0.06439 0.73605 0.0
C4442 C 0.71733 0.08032 0.73703 0.0
C4443 C 0.72161 0.08537 0.72584 0.0
C4444 C 0.7316 0.07988 0.71983 0.0
C4445 C 0.73712 0.06948 0.72501 0.0
C4446 C 0.70676 0.08593 0.74378 0.0
C4447 C 0.7364 0.08492 0.70785 0.0
H4448 H 0.69154 0.10409 0.70174 0.0
H4449 H 0.71667 0.12758 0.72116 0.0
H4450 H 0.70814 0.07697 0.70474 0.0
H4451 H 0.69757 0.07725 0.71718 0.0
H4452 H 0.69289 0.08273 0.70228 0.0
H4453 H 0.73285 0.12005 0.7331 0.0
H4454 H 0.72843 0.10621 0.74107 0.0
H4455 H 0.73868 0.10545 0.72839 0.0
H4456 H 0.71973 0.06612 0.75059 0.0
H4457 H 0.74465 0.0652 0.72029 0.0
H4458 H 0.69844 0.08586 0.73789 0.0
H4459 H 0.70892 0.09562 0.74595 0.0
H4460 H 0.70462 0.081 0.75245 0.0
H4461 H 0.72901 0.08472 0.70083 0.0
H4462 H 0.74432 0.07968 0.70439 0.0
H4463 H 0.73928 0.09462 0.70898 0.0
C4464 C 0.71259 0.90065 0.30146 0.0
C4465 C 0.70264 0.90188 0.30944 0.0
C4466 C 0.71869 0.91097 0.29664 0.0
C4467 C 0.71482 0.92281 0.29996 0.0
C4468 C 0.70492 0.9241 0.30817 0.0
C4469 C 0.69891 0.91362 0.31276 0.0
C4470 C 0.72913 0.90921 0.28781 0.0
C4471 C 0.70062 0.93657 0.31205 0.0
C4472 C 0.73691 0.94962 0.29537 0.0
C4473 C 0.73241 0.95495 0.28454 0.0
C4474 C 0.73128 0.93919 0.30051 0.0
C4475 C 0.72095 0.93385 0.29462 0.0
C4476 C 0.71641 0.9391 0.28363 0.0
C4477 C 0.72215 0.9496 0.27877 0.0
C4478 C 0.73636 0.93389 0.31226 0.0
C4479 C 0.70545 0.93365 0.27705 0.0
H4480 H 0.71542 0.89159 0.29876 0.0
H4481 H 0.69132 0.91461 0.31903 0.0
H4482 H 0.72682 0.91343 0.27883 0.0
H4483 H 0.73753 0.91387 0.29127 0.0
H4484 H 0.73118 0.8994 0.28636 0.0
H4485 H 0.69304 0.936 0.31879 0.0
H4486 H 0.70835 0.94183 0.31618 0.0
H4487 H 0.69742 0.9418 0.30393 0.0
H4488 H 0.74494 0.95356 0.29981 0.0
H4489 H 0.71846 0.95374 0.27051 0.0
H4490 H 0.7392 0.9243 0.31078 0.0
H4491 H 0.72915 0.9337 0.31939 0.0
H4492 H 0.74437 0.93919 0.31577 0.0
H4493 H 0.70719 0.92394 0.27479 0.0
H4494 H 0.70324 0.93865 0.26844 0.0
H4495 H 0.6973 0.9338 0.28309 0.0
C4496 C 0.61142 0.20005 0.29794 0.0
C4497 C 0.61739 0.20364 0.30879 0.0
C4498 C 0.6009 0.20607 0.29369 0.0
C4499 C 0.59611 0.21589 0.30049 0.0
C4500 C 0.60201 0.21953 0.3115 0.0
C4501 C 0.61258 0.21339 0.3155 0.0
C4502 C 0.59489 0.20189 0.28192 0.0
C4503 C 0.59717 0.22993 0.31903 0.0
C4504 C 0.57532 0.23816 0.28356 0.0
C4505 C 0.56361 0.23378 0.28675 0.0
C4506 C 0.58597 0.23254 0.28809 0.0
C4507 C 0.5849 0.22231 0.29606 0.0
C4508 C 0.57311 0.21798 0.29948 0.0
C4509 C 0.56262 0.22374 0.29477 0.0
C4510 C 0.59836 0.23739 0.28414 0.0
C4511 C 0.57156 0.20717 0.30803 0.0
H4512 H 0.61489 0.1924 0.29279 0.0
H4513 H 0.61718 0.21634 0.32381 0.0
H4514 H 0.58531 0.1989 0.2837 0.0
H4515 H 0.59451 0.20961 0.27529 0.0
H4516 H 0.59985 0.19422 0.27762 0.0
H4517 H 0.6027 0.23154 0.32745 0.0
H4518 H 0.59716 0.23847 0.31348 0.0
H4519 H 0.58754 0.22798 0.32171 0.0
H4520 H 0.57617 0.24583 0.27727 0.0
H4521 H 0.55361 0.22041 0.29742 0.0
H4522 H 0.60329 0.23023 0.27903 0.0
H4523 H 0.60402 0.23972 0.29229 0.0
H4524 H 0.59763 0.24565 0.27822 0.0
H4525 H 0.57562 0.19893 0.30389 0.0
H4526 H 0.56177 0.20517 0.31011 0.0
H4527 H 0.57652 0.20891 0.31676 0.0
C4528 C 0.29745 0.11163 0.32384 0.0
C4529 C 0.30738 0.11852 0.31924 0.0
C4530 C 0.29301 0.10121 0.31772 0.0
C4531 C 0.29852 0.0976 0.30662 0.0
C4532 C 0.30847 0.10453 0.30185 0.0
C4533 C 0.3128 0.11487 0.30823 0.0
C4534 C 0.28239 0.09406 0.32314 0.0
C4535 C 0.31457 0.10101 0.29003 0.0
C4536 C 0.29416 0.06448 0.29675 0.0
C4537 C 0.28451 0.06538 0.28825 0.0
C4538 C 0.29887 0.07489 0.30271 0.0
C4539 C 0.29387 0.08652 0.30006 0.0
C4540 C 0.28424 0.08751 0.29137 0.0
C4541 C 0.27965 0.07693 0.28561 0.0
C4542 C 0.30906 0.07342 0.312 0.0
C4543 C 0.27874 0.09974 0.2882 0.0
H4544 H 0.29303 0.11447 0.33221 0.0
H4545 H 0.32057 0.12 0.30465 0.0
H4546 H 0.27458 0.09388 0.31659 0.0
H4547 H 0.2851 0.08444 0.3248 0.0
H4548 H 0.27921 0.09799 0.33191 0.0
H4549 H 0.32204 0.10749 0.28741 0.0
H4550 H 0.31846 0.09172 0.29091 0.0
H4551 H 0.30769 0.10069 0.2825 0.0
H4552 H 0.29786 0.05557 0.29894 0.0
H4553 H 0.2723 0.07772 0.27894 0.0
H4554 H 0.30593 0.07651 0.32111 0.0
H4555 H 0.31705 0.07925 0.30942 0.0
H4556 H 0.31213 0.0638 0.31282 0.0
H4557 H 0.27466 0.10382 0.2965 0.0
H4558 H 0.27153 0.09901 0.28102 0.0
H4559 H 0.28601 0.10615 0.28495 0.0
C4560 C 0.41325 0.81394 0.31734 0.0
C4561 C 0.40158 0.80943 0.31412 0.0
C4562 C 0.42387 0.80958 0.31165 0.0
C4563 C 0.4228 0.80055 0.30245 0.0
C4564 C 0.41102 0.79615 0.29897 0.0
C4565 C 0.40057 0.80061 0.30487 0.0
C4566 C 0.43625 0.81444 0.31569 0.0
C4567 C 0.40947 0.78663 0.28911 0.0
C4568 C 0.44979 0.79599 0.28095 0.0
C4569 C 0.45541 0.78564 0.28606 0.0
C4570 C 0.43916 0.80091 0.28613 0.0
C4571 C 0.43403 0.7954 0.29674 0.0
C4572 C 0.43964 0.78496 0.30194 0.0
C4573 C 0.45021 0.78019 0.29652 0.0
C4574 C 0.43343 0.81202 0.28028 0.0
C4575 C 0.43448 0.77882 0.31325 0.0
H4576 H 0.41412 0.82064 0.32458 0.0
H4577 H 0.39157 0.7972 0.30223 0.0
H4578 H 0.44176 0.80689 0.31961 0.0
H4579 H 0.44135 0.81817 0.30771 0.0
H4580 H 0.4355 0.82174 0.32268 0.0
H4581 H 0.39967 0.7845 0.28715 0.0
H4582 H 0.4139 0.78983 0.28053 0.0
H4583 H 0.41407 0.77807 0.29195 0.0
H4584 H 0.45381 0.80038 0.27298 0.0
H4585 H 0.45432 0.77207 0.30044 0.0
H4586 H 0.43338 0.81967 0.28691 0.0
H4587 H 0.42375 0.80999 0.27778 0.0
H4588 H 0.4384 0.81509 0.27193 0.0
H4589 H 0.43413 0.78547 0.32088 0.0
H4590 H 0.44001 0.77087 0.31625 0.0
H4591 H 0.42495 0.77564 0.31146 0.0
C4592 C 0.3057 0.90103 0.72076 0.0
C4593 C 0.31449 0.9019 0.71144 0.0
C4594 C 0.29987 0.91149 0.72521 0.0
C4595 C 0.30291 0.92314 0.72027 0.0
C4596 C 0.31161 0.92405 0.71071 0.0
C4597 C 0.31727 0.91343 0.70639 0.0
C4598 C 0.29056 0.91009 0.73534 0.0
C4599 C 0.31516 0.93629 0.70523 0.0
C4600 C 0.28096 0.94948 0.72538 0.0
C4601 C 0.28645 0.95553 0.73534 0.0
C4602 C 0.28622 0.93897 0.72035 0.0
C4603 C 0.29726 0.93438 0.72537 0.0
C4604 C 0.30288 0.94048 0.73539 0.0
C4605 C 0.29741 0.95095 0.74025 0.0
C4606 C 0.27991 0.9327 0.70972 0.0
C4607 C 0.31469 0.93594 0.74098 0.0
H4608 H 0.30337 0.89214 0.72459 0.0
H4609 H 0.32414 0.9142 0.69928 0.0
H4610 H 0.2938 0.91508 0.74359 0.0
H4611 H 0.28173 0.91418 0.73248 0.0
H4612 H 0.28889 0.90036 0.73789 0.0
H4613 H 0.32175 0.93542 0.69757 0.0
H4614 H 0.30688 0.94104 0.70179 0.0
H4615 H 0.31938 0.94218 0.71238 0.0
H4616 H 0.27242 0.95286 0.72161 0.0
H4617 H 0.30181 0.95566 0.74782 0.0
H4618 H 0.27743 0.92316 0.7123 0.0
H4619 H 0.28622 0.93224 0.70181 0.0
H4620 H 0.27145 0.93749 0.70678 0.0
H4621 H 0.31338 0.92646 0.74445 0.0
H4622 H 0.31795 0.94177 0.74866 0.0
H4623 H 0.32195 0.9357 0.73391 0.0
C4624 C 0.60787 0.81346 0.70333 0.0
C4625 C 0.61919 0.80784 0.70544 0.0
C4626 C 0.59716 0.80924 0.70918 0.0
C4627 C 0.59779 0.7992 0.71742 0.0
C4628 C 0.60924 0.79364 0.71975 0.0
C4629 C 0.61978 0.79799 0.71371 0.0
C4630 C 0.58513 0.81537 0.70637 0.0
C4631 C 0.61033 0.783 0.72856 0.0
C4632 C 0.57185 0.7943 0.74023 0.0
C4633 C 0.56497 0.78491 0.73466 0.0
C4634 C 0.58254 0.79903 0.73474 0.0
C4635 C 0.58644 0.79432 0.72336 0.0
C4636 C 0.5795 0.78489 0.71767 0.0
C4637 C 0.56888 0.78029 0.72339 0.0
C4638 C 0.58972 0.80903 0.74115 0.0
C4639 C 0.58328 0.77968 0.7055 0.0
H4640 H 0.60732 0.82099 0.69685 0.0
H4641 H 0.62853 0.79371 0.71549 0.0
H4642 H 0.57863 0.80867 0.70223 0.0
H4643 H 0.58091 0.81865 0.71495 0.0
H4644 H 0.58623 0.82324 0.69998 0.0
H4645 H 0.61996 0.77994 0.72966 0.0
H4646 H 0.60677 0.78557 0.73767 0.0
H4647 H 0.60468 0.77517 0.72525 0.0
H4648 H 0.56896 0.79782 0.749 0.0
H4649 H 0.56353 0.77316 0.71894 0.0
H4650 H 0.59043 0.81722 0.73514 0.0
H4651 H 0.5992 0.80593 0.74304 0.0
H4652 H 0.58546 0.81172 0.74993 0.0
H4653 H 0.58372 0.78706 0.69849 0.0
H4654 H 0.57685 0.77243 0.70224 0.0
H4655 H 0.59259 0.77575 0.70626 0.0
C4656 C 0.40906 0.22158 0.69888 0.0
C4657 C 0.40112 0.21304 0.70446 0.0
C4658 C 0.41962 0.22591 0.70493 0.0
C4659 C 0.42241 0.22155 0.71684 0.0
C4660 C 0.41451 0.21286 0.72251 0.0
C4661 C 0.40396 0.20873 0.71627 0.0
C4662 C 0.4278 0.23518 0.69856 0.0
C4663 C 0.4172 0.20797 0.73519 0.0
C4664 C 0.4555 0.22501 0.72758 0.0
C4665 C 0.45499 0.23555 0.73483 0.0
C4666 C 0.44493 0.22022 0.72186 0.0
C4667 C 0.43357 0.22615 0.72336 0.0
C4668 C 0.43295 0.2367 0.73077 0.0
C4669 C 0.44365 0.24125 0.73644 0.0
C4670 C 0.44597 0.20893 0.71405 0.0
C4671 C 0.42101 0.24329 0.73259 0.0
H4672 H 0.40708 0.2248 0.68968 0.0
H4673 H 0.39782 0.20225 0.72073 0.0
H4674 H 0.42857 0.2436 0.70415 0.0
H4675 H 0.43717 0.23148 0.69761 0.0
H4676 H 0.42431 0.2377 0.68932 0.0
H4677 H 0.41026 0.20109 0.73824 0.0
H4678 H 0.42637 0.20368 0.73541 0.0
H4679 H 0.41742 0.21559 0.74186 0.0
H4680 H 0.46423 0.22062 0.72615 0.0
H4681 H 0.44311 0.24928 0.74218 0.0
H4682 H 0.44352 0.21116 0.70443 0.0
H4683 H 0.43941 0.20178 0.71725 0.0
H4684 H 0.45536 0.2051 0.71424 0.0
H4685 H 0.41749 0.24662 0.72363 0.0
H4686 H 0.42202 0.25122 0.73885 0.0
H4687 H 0.414 0.23691 0.73639 0.0
C4688 C 0.72027 0.69833 0.11179 0.0
C4689 C 0.71147 0.70381 0.11925 0.0
C4690 C 0.72472 0.70422 0.10121 0.0
C4691 C 0.72023 0.71589 0.09792 0.0
C4692 C 0.71126 0.72145 0.10532 0.0
C4693 C 0.707 0.71535 0.11589 0.0
C4694 C 0.73426 0.69796 0.09358 0.0
C4695 C 0.70622 0.73387 0.10212 0.0
C4696 C 0.74026 0.73556 0.07696 0.0
C4697 C 0.73482 0.73355 0.06545 0.0
C4698 C 0.73551 0.73002 0.08761 0.0
C4699 C 0.72503 0.72229 0.08677 0.0
C4700 C 0.71938 0.72036 0.07523 0.0
C4701 C 0.72434 0.72599 0.06472 0.0
C4702 C 0.74181 0.73233 0.09974 0.0
C4703 C 0.70819 0.71218 0.07393 0.0
H4704 H 0.72362 0.68932 0.11415 0.0
H4705 H 0.7003 0.71974 0.12165 0.0
H4706 H 0.7308 0.6967 0.08409 0.0
H4707 H 0.74266 0.70376 0.09302 0.0
H4708 H 0.7368 0.68888 0.09737 0.0
H4709 H 0.69912 0.73684 0.10868 0.0
H4710 H 0.71376 0.74077 0.10204 0.0
H4711 H 0.70216 0.73371 0.09278 0.0
H4712 H 0.74824 0.74153 0.07766 0.0
H4713 H 0.72014 0.72424 0.05587 0.0
H4714 H 0.74519 0.72358 0.10361 0.0
H4715 H 0.7352 0.73609 0.10638 0.0
H4716 H 0.74969 0.73881 0.09889 0.0
H4717 H 0.71049 0.70271 0.07672 0.0
H4718 H 0.70459 0.71201 0.0644 0.0
H4719 H 0.70082 0.71531 0.08009 0.0
C4720 C 0.31331 0.71327 0.11514 0.0
C4721 C 0.30738 0.70257 0.11931 0.0
C4722 C 0.309 0.71964 0.10479 0.0
C4723 C 0.29858 0.71515 0.09837 0.0
C4724 C 0.29258 0.70436 0.1025 0.0
C4725 C 0.297 0.69825 0.11294 0.0
C4726 C 0.31562 0.73115 0.1007 0.0
C4727 C 0.28147 0.69925 0.09589 0.0
C4728 C 0.28016 0.73645 0.07787 0.0
C4729 C 0.28448 0.73344 0.0662 0.0
C4730 C 0.28482 0.73073 0.08843 0.0
C4731 C 0.29395 0.7217 0.0873 0.0
C4732 C 0.29842 0.7187 0.07555 0.0
C4733 C 0.29366 0.72464 0.06515 0.0
C4734 C 0.27992 0.73428 0.10081 0.0
C4735 C 0.30806 0.70905 0.07395 0.0
H4736 H 0.32142 0.71661 0.11988 0.0
H4737 H 0.29222 0.69012 0.11619 0.0
H4738 H 0.31915 0.72999 0.09127 0.0
H4739 H 0.30916 0.73892 0.10044 0.0
H4740 H 0.32343 0.73357 0.10683 0.0
H4741 H 0.27796 0.69066 0.10017 0.0
H4742 H 0.27401 0.70607 0.09584 0.0
H4743 H 0.28377 0.69738 0.0862 0.0
H4744 H 0.27316 0.74335 0.07874 0.0
H4745 H 0.29694 0.72219 0.05615 0.0
H4746 H 0.28756 0.73731 0.10685 0.0
H4747 H 0.2755 0.72623 0.10526 0.0
H4748 H 0.27311 0.74174 0.10015 0.0
H4749 H 0.31635 0.71141 0.07941 0.0
H4750 H 0.31077 0.70799 0.06422 0.0
H4751 H 0.30455 0.70012 0.07739 0.0
C4752 C 0.29998 0.32233 0.11025 0.0
C4753 C 0.3085 0.3169 0.11823 0.0
C4754 C 0.29575 0.31626 0.09971 0.0
C4755 C 0.30017 0.30447 0.09699 0.0
C4756 C 0.30889 0.29898 0.10489 0.0
C4757 C 0.31293 0.30524 0.11542 0.0
C4758 C 0.28647 0.32245 0.09153 0.0
C4759 C 0.31386 0.28644 0.10229 0.0
C4760 C 0.28037 0.28452 0.07611 0.0
C4761 C 0.28606 0.28621 0.06471 0.0
C4762 C 0.28496 0.29026 0.0867 0.0
C4763 C 0.29555 0.29786 0.08592 0.0
C4764 C 0.30146 0.29945 0.07449 0.0
C4765 C 0.29664 0.29364 0.06404 0.0
C4766 C 0.27839 0.28831 0.0987 0.0
C4767 C 0.31276 0.30746 0.07326 0.0
H4768 H 0.29667 0.33141 0.11219 0.0
H4769 H 0.31941 0.3009 0.12157 0.0
H4770 H 0.29016 0.32342 0.08212 0.0
H4771 H 0.27801 0.31674 0.09091 0.0
H4772 H 0.28397 0.33165 0.0949 0.0
H4773 H 0.32082 0.28356 0.10916 0.0
H4774 H 0.30626 0.2796 0.10225 0.0
H4775 H 0.3181 0.28632 0.09308 0.0
H4776 H 0.27232 0.27865 0.07678 0.0
H4777 H 0.30102 0.29513 0.05526 0.0
H4778 H 0.27504 0.29718 0.10215 0.0
H4779 H 0.28482 0.28464 0.10568 0.0
H4780 H 0.27046 0.2819 0.09784 0.0
H4781 H 0.31052 0.31703 0.07562 0.0
H4782 H 0.31658 0.30734 0.06385 0.0
H4783 H 0.31995 0.30441 0.07979 0.0
C4784 C 0.70663 0.31969 0.10621 0.0
C4785 C 0.71023 0.31617 0.11807 0.0
C4786 C 0.71115 0.31371 0.09584 0.0
C4787 C 0.71954 0.30402 0.09733 0.0
C4788 C 0.72309 0.30032 0.10927 0.0
C4789 C 0.71836 0.30641 0.11949 0.0
C4790 C 0.70703 0.31786 0.08327 0.0
C4791 C 0.73209 0.2901 0.11126 0.0
C4792 C 0.72415 0.28208 0.07081 0.0
C4793 C 0.73491 0.28676 0.06543 0.0
C4794 C 0.71905 0.28758 0.08119 0.0
C4795 C 0.72487 0.298 0.08637 0.0
C4796 C 0.73575 0.30273 0.08103 0.0
C4797 C 0.74061 0.2971 0.07062 0.0
C4798 C 0.70743 0.28226 0.08659 0.0
C4799 C 0.74225 0.31381 0.08628 0.0
H4800 H 0.70023 0.32712 0.10505 0.0
H4801 H 0.72129 0.30372 0.12862 0.0
H4802 H 0.71505 0.32123 0.07796 0.0
H4803 H 0.70298 0.31004 0.07817 0.0
H4804 H 0.70016 0.32526 0.08369 0.0
H4805 H 0.73363 0.28807 0.12112 0.0
H4806 H 0.72872 0.28165 0.1067 0.0
H4807 H 0.74102 0.29259 0.10704 0.0
H4808 H 0.71977 0.274 0.06699 0.0
H4809 H 0.7488 0.30092 0.06644 0.0
H4810 H 0.70017 0.28929 0.08663 0.0
H4811 H 0.70906 0.27949 0.09625 0.0
H4812 H 0.70399 0.27418 0.08144 0.0
H4813 H 0.73606 0.32179 0.08601 0.0
H4814 H 0.75076 0.31621 0.08121 0.0
H4815 H 0.74466 0.31212 0.09603 0.0
C4816 C 0.70931 0.30574 0.9051 0.0
C4817 C 0.71365 0.31752 0.90213 0.0
C4818 C 0.71347 0.29959 0.91565 0.0
C4819 C 0.72223 0.30533 0.9234 0.0
C4820 C 0.72663 0.31722 0.92047 0.0
C4821 C 0.72226 0.32318 0.90992 0.0
C4822 C 0.70853 0.28693 0.91848 0.0
C4823 C 0.73598 0.32366 0.92849 0.0
C4824 C 0.72565 0.29468 0.95646 0.0
C4825 C 0.73614 0.28739 0.95588 0.0
C4826 C 0.72093 0.30043 0.94593 0.0
C4827 C 0.72686 0.29891 0.93455 0.0
C4828 C 0.73739 0.29149 0.93388 0.0
C4829 C 0.74188 0.2858 0.94453 0.0
C4830 C 0.70967 0.30826 0.94703 0.0
C4831 C 0.74397 0.28965 0.92191 0.0
H4832 H 0.70278 0.30122 0.89908 0.0
H4833 H 0.72551 0.33236 0.90784 0.0
H4834 H 0.71615 0.2803 0.91868 0.0
H4835 H 0.70427 0.28678 0.92769 0.0
H4836 H 0.7016 0.28382 0.91165 0.0
H4837 H 0.73852 0.33287 0.9249 0.0
H4838 H 0.73231 0.32467 0.93788 0.0
H4839 H 0.7444 0.31811 0.92922 0.0
H4840 H 0.72125 0.2961 0.9652 0.0
H4841 H 0.74986 0.28003 0.94395 0.0
H4842 H 0.70244 0.30499 0.94061 0.0
H4843 H 0.71195 0.31784 0.94444 0.0
H4844 H 0.7059 0.30817 0.95646 0.0
H4845 H 0.73756 0.28576 0.915 0.0
H4846 H 0.75193 0.28346 0.92289 0.0
H4847 H 0.7473 0.29859 0.91829 0.0
C4848 C 0.71432 0.71631 0.90137 0.0
C4849 C 0.70399 0.70866 0.90271 0.0
C4850 C 0.72046 0.72117 0.91164 0.0
C4851 C 0.71622 0.71825 0.92356 0.0
C4852 C 0.70594 0.71032 0.92498 0.0
C4853 C 0.69994 0.70566 0.91455 0.0
C4854 C 0.73133 0.72963 0.90973 0.0
C4855 C 0.70119 0.70689 0.93751 0.0
C4856 C 0.73766 0.72307 0.95084 0.0
C4857 C 0.73344 0.73413 0.95562 0.0
C4858 C 0.73219 0.71781 0.9404 0.0
C4859 C 0.72228 0.72378 0.93454 0.0
C4860 C 0.71804 0.73499 0.93926 0.0
C4861 C 0.72365 0.74001 0.94974 0.0
C4862 C 0.73693 0.70581 0.9357 0.0
C4863 C 0.70756 0.7417 0.93326 0.0
H4864 H 0.71743 0.71879 0.89226 0.0
H4865 H 0.69206 0.69963 0.91566 0.0
H4866 H 0.7293 0.7388 0.91348 0.0
H4867 H 0.73944 0.72613 0.91477 0.0
H4868 H 0.73374 0.73068 0.8999 0.0
H4869 H 0.69338 0.70028 0.93706 0.0
H4870 H 0.70863 0.7028 0.9431 0.0
H4871 H 0.69813 0.71521 0.94234 0.0
H4872 H 0.74512 0.71839 0.9554 0.0
H4873 H 0.72044 0.74864 0.95326 0.0
H4874 H 0.73985 0.70685 0.92603 0.0
H4875 H 0.7295 0.69879 0.93591 0.0
H4876 H 0.74481 0.70241 0.94119 0.0
H4877 H 0.70979 0.74376 0.92355 0.0
H4878 H 0.70547 0.7504 0.93796 0.0
H4879 H 0.69919 0.73582 0.93327 0.0
C4880 C 0.31843 0.72381 0.90823 0.0
C4881 C 0.31563 0.7122 0.90346 0.0
C4882 C 0.31242 0.72824 0.91862 0.0
C4883 C 0.3033 0.72094 0.92439 0.0
C4884 C 0.3003 0.70928 0.91955 0.0
C4885 C 0.30651 0.70504 0.90917 0.0
C4886 C 0.31589 0.74073 0.92347 0.0
C4887 C 0.29062 0.70123 0.92542 0.0
C4888 C 0.2965 0.72778 0.95779 0.0
C4889 C 0.28594 0.73496 0.95685 0.0
C4890 C 0.30213 0.72304 0.94732 0.0
C4891 C 0.29707 0.72546 0.9356 0.0
C4892 C 0.28631 0.73252 0.93459 0.0
C4893 C 0.28089 0.7372 0.94521 0.0
C4894 C 0.3136 0.71555 0.94881 0.0
C4895 C 0.28062 0.7353 0.92226 0.0
H4896 H 0.32529 0.72952 0.90377 0.0
H4897 H 0.30437 0.69602 0.90566 0.0
H4898 H 0.30771 0.74666 0.92362 0.0
H4899 H 0.31927 0.7399 0.93303 0.0
H4900 H 0.3231 0.7453 0.91788 0.0
H4901 H 0.28911 0.69255 0.92035 0.0
H4902 H 0.29335 0.69898 0.93497 0.0
H4903 H 0.2818 0.70616 0.92586 0.0
H4904 H 0.30036 0.72582 0.96674 0.0
H4905 H 0.27282 0.74284 0.94436 0.0
H4906 H 0.32133 0.7201 0.94397 0.0
H4907 H 0.31223 0.70642 0.9446 0.0
H4908 H 0.31622 0.71426 0.95858 0.0
H4909 H 0.28716 0.74073 0.91661 0.0
H4910 H 0.27197 0.7405 0.92306 0.0
H4911 H 0.27865 0.72668 0.91728 0.0
C4912 C 0.3004 0.32135 0.90882 0.0
C4913 C 0.31018 0.31666 0.90204 0.0
C4914 C 0.29583 0.31518 0.91919 0.0
C4915 C 0.30108 0.30396 0.92288 0.0
C4916 C 0.31087 0.29909 0.91605 0.0
C4917 C 0.31532 0.30551 0.90574 0.0
C4918 C 0.28538 0.3207 0.92621 0.0
C4919 C 0.3167 0.28714 0.91967 0.0
C4920 C 0.29648 0.29398 0.95605 0.0
C4921 C 0.28659 0.28571 0.95505 0.0
C4922 C 0.30138 0.29985 0.94565 0.0
C4923 C 0.29632 0.29737 0.93394 0.0
C4924 C 0.28646 0.28889 0.93285 0.0
C4925 C 0.2817 0.28319 0.94341 0.0
C4926 C 0.31183 0.3089 0.94723 0.0
C4927 C 0.28087 0.28591 0.92053 0.0
H4928 H 0.29619 0.32983 0.90593 0.0
H4929 H 0.32296 0.30186 0.90069 0.0
H4930 H 0.27743 0.31428 0.92631 0.0
H4931 H 0.28818 0.32222 0.93587 0.0
H4932 H 0.28238 0.32954 0.92221 0.0
H4933 H 0.32407 0.28447 0.91326 0.0
H4934 H 0.32066 0.28786 0.92902 0.0
H4935 H 0.30965 0.27974 0.91991 0.0
H4936 H 0.30022 0.29609 0.96502 0.0
H4937 H 0.27416 0.27669 0.94254 0.0
H4938 H 0.30892 0.3181 0.94412 0.0
H4939 H 0.31971 0.30625 0.94147 0.0
H4940 H 0.31498 0.30954 0.9569 0.0
H4941 H 0.27694 0.29428 0.91636 0.0
H4942 H 0.2735 0.27882 0.92119 0.0
H4943 H 0.28804 0.28261 0.91423 0.0
C4944 C 0.61951 0.71992 0.21508 0.0
C4945 C 0.61847 0.71113 0.2058 0.0
C4946 C 0.60907 0.72442 0.22097 0.0
C4947 C 0.59727 0.72011 0.21746 0.0
C4948 C 0.59617 0.7111 0.20822 0.0
C4949 C 0.60678 0.7067 0.20254 0.0
C4950 C 0.61066 0.73391 0.23086 0.0
C4951 C 0.58377 0.70632 0.20415 0.0
C4952 C 0.57033 0.72481 0.23897 0.0
C4953 C 0.56479 0.73522 0.2339 0.0
C4954 C 0.58091 0.71981 0.23376 0.0
C4955 C 0.58607 0.7253 0.22316 0.0
C4956 C 0.58054 0.7358 0.218 0.0
C4957 C 0.57002 0.74065 0.22344 0.0
C4958 C 0.58655 0.70864 0.23958 0.0
C4959 C 0.58574 0.74193 0.2067 0.0
H4960 H 0.62852 0.72327 0.21776 0.0
H4961 H 0.60588 0.70001 0.19529 0.0
H4962 H 0.60611 0.74251 0.22804 0.0
H4963 H 0.6062 0.73071 0.23943 0.0
H4964 H 0.62047 0.73598 0.23284 0.0
H4965 H 0.58449 0.69904 0.19715 0.0
H4966 H 0.57863 0.70261 0.21211 0.0
H4967 H 0.57831 0.71392 0.20024 0.0
H4968 H 0.56629 0.72043 0.24694 0.0
H4969 H 0.56597 0.74881 0.21955 0.0
H4970 H 0.59624 0.7106 0.24211 0.0
H4971 H 0.58657 0.70101 0.23292 0.0
H4972 H 0.58155 0.70557 0.24791 0.0
H4973 H 0.59529 0.74506 0.20851 0.0
H4974 H 0.58026 0.74992 0.20371 0.0
H4975 H 0.58606 0.7353 0.19906 0.0
C4976 C 0.30501 0.61569 0.20859 0.0
C4977 C 0.31684 0.61854 0.21291 0.0
C4978 C 0.29871 0.60515 0.21266 0.0
C4979 C 0.30434 0.59729 0.22132 0.0
C4980 C 0.31629 0.60009 0.22568 0.0
C4981 C 0.3224 0.61063 0.2214 0.0
C4982 C 0.28599 0.60245 0.20776 0.0
C4983 C 0.32262 0.59195 0.23492 0.0
C4984 C 0.28456 0.57621 0.24101 0.0
C4985 C 0.28607 0.56488 0.23527 0.0
C4986 C 0.29033 0.58685 0.23649 0.0
C4987 C 0.29774 0.58618 0.22591 0.0
C4988 C 0.29914 0.57483 0.21994 0.0
C4989 C 0.29333 0.56432 0.22471 0.0
C4990 C 0.2886 0.59878 0.24312 0.0
C4991 C 0.30695 0.57375 0.20862 0.0
H4992 H 0.30057 0.6218 0.20215 0.0
H4993 H 0.33162 0.61263 0.22464 0.0
H4994 H 0.28571 0.59328 0.20347 0.0
H4995 H 0.27931 0.60229 0.21539 0.0
H4996 H 0.283 0.60933 0.20087 0.0
H4997 H 0.33191 0.59543 0.23742 0.0
H4998 H 0.31704 0.59123 0.24337 0.0
H4999 H 0.32348 0.58259 0.2312 0.0
H5000 H 0.27882 0.57677 0.24906 0.0
H5001 H 0.29468 0.55559 0.22029 0.0
H5002 H 0.28484 0.60575 0.23675 0.0
H5003 H 0.2976 0.6023 0.24644 0.0
H5004 H 0.28234 0.59781 0.25106 0.0
H5005 H 0.30379 0.58026 0.20148 0.0
H5006 H 0.30669 0.56437 0.20477 0.0
H5007 H 0.3166 0.57619 0.21085 0.0
C5008 C 0.40427 0.31404 0.21623 0.0
C5009 C 0.40125 0.30967 0.20451 0.0
C5010 C 0.41477 0.30992 0.2225 0.0
C5011 C 0.42244 0.30121 0.21694 0.0
C5012 C 0.41951 0.29685 0.20508 0.0
C5013 C 0.40901 0.30116 0.19901 0.0
C5014 C 0.41759 0.31481 0.23511 0.0
C5015 C 0.42744 0.28758 0.19881 0.0
C5016 C 0.45543 0.29736 0.22786 0.0
C5017 C 0.45455 0.28678 0.23516 0.0
C5018 C 0.44503 0.30229 0.22207 0.0
C5019 C 0.43345 0.29648 0.22355 0.0
C5020 C 0.43247 0.28589 0.23104 0.0
C5021 C 0.443 0.28119 0.23676 0.0
C5022 C 0.44648 0.3136 0.21418 0.0
C5023 C 0.4203 0.27942 0.23288 0.0
H5024 H 0.3983 0.32051 0.22063 0.0
H5025 H 0.40691 0.29789 0.18988 0.0
H5026 H 0.41749 0.30721 0.24189 0.0
H5027 H 0.42692 0.31896 0.23531 0.0
H5028 H 0.41091 0.32179 0.23803 0.0
H5029 H 0.42394 0.28516 0.18955 0.0
H5030 H 0.43694 0.2912 0.19792 0.0
H5031 H 0.42789 0.27911 0.20443 0.0
H5032 H 0.46431 0.30167 0.22643 0.0
H5033 H 0.44218 0.27314 0.24254 0.0
H5034 H 0.44014 0.3208 0.21728 0.0
H5035 H 0.44402 0.31143 0.20455 0.0
H5036 H 0.456 0.31734 0.21438 0.0
H5037 H 0.4135 0.28587 0.23659 0.0
H5038 H 0.42102 0.27147 0.23922 0.0
H5039 H 0.4167 0.27614 0.22394 0.0
C5040 C 0.70176 0.40587 0.22334 0.0
C5041 C 0.70427 0.40121 0.21167 0.0
C5042 C 0.70792 0.41629 0.22781 0.0
C5043 C 0.7169 0.4222 0.22048 0.0
C5044 C 0.71966 0.41744 0.20879 0.0
C5045 C 0.71331 0.40702 0.20452 0.0
C5046 C 0.7047 0.42105 0.24033 0.0
C5047 C 0.7292 0.42346 0.20072 0.0
C5048 C 0.7235 0.45571 0.22737 0.0
C5049 C 0.73416 0.45505 0.23461 0.0
C5050 C 0.71793 0.44513 0.22256 0.0
C5051 C 0.72314 0.43355 0.22497 0.0
C5052 C 0.73403 0.43282 0.23206 0.0
C5053 C 0.73939 0.44357 0.2368 0.0
C5054 C 0.70634 0.44631 0.21503 0.0
C5055 C 0.73988 0.42067 0.23484 0.0
H5056 H 0.69497 0.40132 0.22904 0.0
H5057 H 0.71524 0.40358 0.19545 0.0
H5058 H 0.71301 0.42143 0.24622 0.0
H5059 H 0.7012 0.43051 0.23951 0.0
H5060 H 0.69764 0.41529 0.24496 0.0
H5061 H 0.73063 0.41836 0.19208 0.0
H5062 H 0.72637 0.43291 0.19838 0.0
H5063 H 0.73808 0.42416 0.20569 0.0
H5064 H 0.71951 0.46455 0.22544 0.0
H5065 H 0.74755 0.44294 0.24248 0.0
H5066 H 0.6987 0.44134 0.21962 0.0
H5067 H 0.70757 0.44208 0.20592 0.0
H5068 H 0.70365 0.456 0.21369 0.0
H5069 H 0.73351 0.41489 0.24033 0.0
H5070 H 0.74864 0.4217 0.23998 0.0
H5071 H 0.74168 0.41571 0.22621 0.0
C5072 C 0.6085 0.31338 0.81912 0.0
C5073 C 0.61979 0.30766 0.81736 0.0
C5074 C 0.59783 0.30918 0.81316 0.0
C5075 C 0.59847 0.29905 0.80516 0.0
C5076 C 0.60989 0.29338 0.80317 0.0
C5077 C 0.6204 0.29772 0.80933 0.0
C5078 C 0.58581 0.31541 0.8156 0.0
C5079 C 0.61099 0.28265 0.79461 0.0
C5080 C 0.56959 0.28016 0.79916 0.0
C5081 C 0.56576 0.28469 0.78773 0.0
C5082 C 0.58016 0.28481 0.80495 0.0
C5083 C 0.58715 0.29417 0.79915 0.0
C5084 C 0.58334 0.29877 0.78761 0.0
C5085 C 0.57266 0.29401 0.78206 0.0
C5086 C 0.58385 0.27973 0.81731 0.0
C5087 C 0.59059 0.30867 0.78109 0.0
H5088 H 0.60796 0.32099 0.82541 0.0
H5089 H 0.62913 0.29335 0.80782 0.0
H5090 H 0.58167 0.31862 0.80687 0.0
H5091 H 0.57924 0.30879 0.81978 0.0
H5092 H 0.58691 0.32335 0.82183 0.0
H5093 H 0.6206 0.27955 0.79373 0.0
H5094 H 0.60529 0.27488 0.798 0.0
H5095 H 0.60747 0.28514 0.78539 0.0
H5096 H 0.5642 0.27308 0.80366 0.0
H5097 H 0.56981 0.29745 0.77317 0.0
H5098 H 0.5843 0.28719 0.82414 0.0
H5099 H 0.59314 0.27574 0.81678 0.0
H5100 H 0.57736 0.27256 0.82065 0.0
H5101 H 0.59129 0.31693 0.78691 0.0
H5102 H 0.58638 0.31128 0.77217 0.0
H5103 H 0.60007 0.30552 0.77942 0.0
C5104 C 0.70549 0.61263 0.80592 0.0
C5105 C 0.71201 0.61783 0.81577 0.0
C5106 C 0.70971 0.60208 0.80004 0.0
C5107 C 0.72075 0.5966 0.80404 0.0
C5108 C 0.72737 0.6018 0.81394 0.0
C5109 C 0.72291 0.61229 0.8197 0.0
C5110 C 0.70236 0.5968 0.78953 0.0
C5111 C 0.73918 0.59625 0.8185 0.0
C5112 C 0.72685 0.56318 0.79684 0.0
C5113 C 0.73493 0.56416 0.78691 0.0
C5114 C 0.72201 0.57364 0.80236 0.0
C5115 C 0.72538 0.5854 0.79791 0.0
C5116 C 0.73345 0.58645 0.78782 0.0
C5117 C 0.7381 0.57583 0.78243 0.0
C5118 C 0.71336 0.57211 0.81303 0.0
C5119 C 0.73735 0.5988 0.78285 0.0
H5120 H 0.69715 0.6169 0.8027 0.0
H5121 H 0.72791 0.61607 0.82743 0.0
H5122 H 0.70802 0.59673 0.78112 0.0
H5123 H 0.69973 0.58718 0.7916 0.0
H5124 H 0.6939 0.60205 0.78761 0.0
H5125 H 0.74334 0.60151 0.82617 0.0
H5126 H 0.73746 0.58672 0.82165 0.0
H5127 H 0.74591 0.59586 0.81093 0.0
H5128 H 0.72422 0.5542 0.80024 0.0
H5129 H 0.74445 0.57667 0.77486 0.0
H5130 H 0.70458 0.57674 0.811 0.0
H5131 H 0.71736 0.57651 0.82129 0.0
H5132 H 0.71139 0.56234 0.81518 0.0
H5133 H 0.72917 0.60416 0.78021 0.0
H5134 H 0.74342 0.59806 0.77476 0.0
H5135 H 0.74229 0.60403 0.79007 0.0
C5136 C 0.40578 0.70163 0.79877 0.0
C5137 C 0.40004 0.70541 0.80956 0.0
C5138 C 0.41641 0.70755 0.79442 0.0
C5139 C 0.42154 0.71746 0.80107 0.0
C5140 C 0.41586 0.72131 0.812 0.0
C5141 C 0.40516 0.71527 0.81609 0.0
C5142 C 0.42218 0.70316 0.78272 0.0
C5143 C 0.42107 0.73181 0.81937 0.0
C5144 C 0.45523 0.72487 0.79538 0.0
C5145 C 0.45453 0.7348 0.7872 0.0
C5146 C 0.44459 0.7193 0.80014 0.0
C5147 C 0.43293 0.7237 0.79659 0.0
C5148 C 0.43215 0.73382 0.78846 0.0
C5149 C 0.44295 0.73926 0.7839 0.0
C5150 C 0.44582 0.70862 0.80886 0.0
C5151 C 0.4199 0.73873 0.78439 0.0
H5152 H 0.40205 0.6939 0.79376 0.0
H5153 H 0.40073 0.71838 0.82435 0.0
H5154 H 0.42279 0.71079 0.77599 0.0
H5155 H 0.43167 0.70008 0.78458 0.0
H5156 H 0.41693 0.6955 0.7785 0.0
H5157 H 0.41562 0.73362 0.82772 0.0
H5158 H 0.43064 0.72982 0.82216 0.0
H5159 H 0.42134 0.74024 0.81367 0.0
H5160 H 0.46415 0.72149 0.79811 0.0
H5161 H 0.44233 0.74684 0.77749 0.0
H5162 H 0.44146 0.70034 0.80482 0.0
H5163 H 0.44097 0.71054 0.81753 0.0
H5164 H 0.45555 0.70656 0.81103 0.0
H5165 H 0.4147 0.73154 0.77936 0.0
H5166 H 0.42086 0.74689 0.77835 0.0
H5167 H 0.41436 0.74123 0.79247 0.0
C5168 C 0.32035 0.40785 0.79692 0.0
C5169 C 0.31774 0.40301 0.80857 0.0
C5170 C 0.31428 0.41822 0.7924 0.0
C5171 C 0.30529 0.4239 0.79967 0.0
C5172 C 0.30248 0.419 0.81138 0.0
C5173 C 0.30874 0.40863 0.81569 0.0
C5174 C 0.31755 0.42313 0.77987 0.0
C5175 C 0.29295 0.42478 0.8194 0.0
C5176 C 0.2984 0.45727 0.79255 0.0
C5177 C 0.28767 0.45631 0.78542 0.0
C5178 C 0.30412 0.44683 0.79737 0.0
C5179 C 0.299 0.43509 0.79505 0.0
C5180 C 0.28809 0.43406 0.78801 0.0
C5181 C 0.28258 0.44465 0.78328 0.0
C5182 C 0.31572 0.44835 0.80484 0.0
C5183 C 0.28234 0.42172 0.78532 0.0
H5184 H 0.32711 0.40346 0.79124 0.0
H5185 H 0.30673 0.40506 0.82475 0.0
H5186 H 0.30926 0.42327 0.77393 0.0
H5187 H 0.32096 0.4327 0.78062 0.0
H5188 H 0.32467 0.4176 0.77532 0.0
H5189 H 0.2916 0.41968 0.82813 0.0
H5190 H 0.29573 0.43432 0.82156 0.0
H5191 H 0.28404 0.42518 0.81446 0.0
H5192 H 0.3023 0.46623 0.79443 0.0
H5193 H 0.27438 0.44379 0.77767 0.0
H5194 H 0.32337 0.44357 0.80031 0.0
H5195 H 0.31451 0.4441 0.81402 0.0
H5196 H 0.31838 0.45811 0.80605 0.0
H5197 H 0.2888 0.41613 0.77995 0.0
H5198 H 0.27362 0.42249 0.78009 0.0
H5199 H 0.2805 0.41672 0.79399 0.0
C5200 C 0.71173 0.61221 0.20487 0.0
C5201 C 0.70254 0.61763 0.2119 0.0
C5202 C 0.71803 0.60186 0.20916 0.0
C5203 C 0.71506 0.59676 0.22074 0.0
C5204 C 0.70586 0.60223 0.22791 0.0
C5205 C 0.69976 0.61259 0.22344 0.0
C5206 C 0.72779 0.59632 0.20124 0.0
C5207 C 0.70242 0.5971 0.24032 0.0
C5208 C 0.72225 0.56342 0.22759 0.0
C5209 C 0.73279 0.56443 0.23498 0.0
C5210 C 0.71651 0.57384 0.22276 0.0
C5211 C 0.72142 0.5856 0.22533 0.0
C5212 C 0.73216 0.58669 0.23261 0.0
C5213 C 0.7377 0.57611 0.23736 0.0
C5214 C 0.70508 0.57226 0.21503 0.0
C5215 C 0.7377 0.59906 0.23556 0.0
H5216 H 0.71387 0.61594 0.1959 0.0
H5217 H 0.69285 0.61682 0.22905 0.0
H5218 H 0.73661 0.59597 0.20634 0.0
H5219 H 0.72518 0.58677 0.19891 0.0
H5220 H 0.72924 0.60155 0.1926 0.0
H5221 H 0.69511 0.60246 0.24479 0.0
H5222 H 0.69916 0.5875 0.23937 0.0
H5223 H 0.71058 0.59701 0.24642 0.0
H5224 H 0.7185 0.55444 0.22552 0.0
H5225 H 0.74575 0.57701 0.24316 0.0
H5226 H 0.70641 0.57666 0.20595 0.0
H5227 H 0.69727 0.57686 0.21948 0.0
H5228 H 0.70259 0.56249 0.21364 0.0
H5229 H 0.73961 0.60421 0.22699 0.0
H5230 H 0.74635 0.59833 0.24092 0.0
H5231 H 0.73108 0.60448 0.2409 0.0
C5232 C 0.69769 0.40886 0.79977 0.0
C5233 C 0.70335 0.401 0.80824 0.0
C5234 C 0.70374 0.41938 0.79536 0.0
C5235 C 0.71573 0.42221 0.79958 0.0
C5236 C 0.72147 0.41441 0.80822 0.0
C5237 C 0.71523 0.40388 0.81242 0.0
C5238 C 0.6973 0.42746 0.78615 0.0
C5239 C 0.73423 0.41715 0.81298 0.0
C5240 C 0.73529 0.44325 0.77961 0.0
C5241 C 0.73381 0.4546 0.78532 0.0
C5242 C 0.72958 0.43261 0.78424 0.0
C5243 C 0.72226 0.43331 0.79488 0.0
C5244 C 0.72089 0.44469 0.80081 0.0
C5245 C 0.72664 0.45519 0.79594 0.0
C5246 C 0.73126 0.42065 0.77764 0.0
C5247 C 0.7132 0.44581 0.8122 0.0
H5248 H 0.68843 0.40684 0.79665 0.0
H5249 H 0.71974 0.39781 0.81884 0.0
H5250 H 0.69645 0.43684 0.78985 0.0
H5251 H 0.7028 0.42817 0.77765 0.0
H5252 H 0.688 0.42395 0.78376 0.0
H5253 H 0.73731 0.41031 0.81986 0.0
H5254 H 0.74083 0.41729 0.80528 0.0
H5255 H 0.73454 0.42634 0.81722 0.0
H5256 H 0.74096 0.44265 0.77152 0.0
H5257 H 0.7253 0.46394 0.80033 0.0
H5258 H 0.72223 0.4171 0.77443 0.0
H5259 H 0.73511 0.41373 0.784 0.0
H5260 H 0.73743 0.4216 0.76962 0.0
H5261 H 0.70353 0.44334 0.81008 0.0
H5262 H 0.71348 0.45521 0.81601 0.0
H5263 H 0.71644 0.43933 0.81934 0.0
C5264 C 0.61351 0.71327 0.8152 0.0
C5265 C 0.61831 0.70348 0.80855 0.0
C5266 C 0.60294 0.71939 0.81118 0.0
C5267 C 0.59702 0.71569 0.80021 0.0
C5268 C 0.6018 0.70584 0.79345 0.0
C5269 C 0.61232 0.69983 0.79772 0.0
C5270 C 0.59812 0.72984 0.81866 0.0
C5271 C 0.59577 0.7016 0.78171 0.0
C5272 C 0.56351 0.72353 0.79459 0.0
C5273 C 0.56447 0.73355 0.78654 0.0
C5274 C 0.57402 0.71777 0.79926 0.0
C5275 C 0.5858 0.72209 0.79577 0.0
C5276 C 0.58684 0.73228 0.78775 0.0
C5277 C 0.57617 0.7379 0.78326 0.0
C5278 C 0.5725 0.707 0.80786 0.0
C5279 C 0.59921 0.73711 0.78374 0.0
H5280 H 0.61813 0.71627 0.82349 0.0
H5281 H 0.61579 0.69215 0.79261 0.0
H5282 H 0.59808 0.73834 0.81307 0.0
H5283 H 0.5885 0.7279 0.82139 0.0
H5284 H 0.60368 0.7315 0.82706 0.0
H5285 H 0.60072 0.69391 0.77744 0.0
H5286 H 0.58619 0.6986 0.78353 0.0
H5287 H 0.59537 0.70928 0.77504 0.0
H5288 H 0.55452 0.72023 0.79731 0.0
H5289 H 0.577 0.74555 0.77694 0.0
H5290 H 0.57747 0.70879 0.81657 0.0
H5291 H 0.57658 0.69874 0.80375 0.0
H5292 H 0.56272 0.70499 0.80996 0.0
H5293 H 0.6049 0.73949 0.79186 0.0
H5294 H 0.59847 0.74533 0.77776 0.0
H5295 H 0.60413 0.72992 0.77866 0.0
C5296 C 0.29718 0.6204 0.8086 0.0
C5297 C 0.3072 0.61988 0.81671 0.0
C5298 C 0.29287 0.60988 0.80254 0.0
C5299 C 0.29865 0.59853 0.80468 0.0
C5300 C 0.30885 0.59797 0.81274 0.0
C5301 C 0.31303 0.60865 0.81862 0.0
C5302 C 0.28205 0.6109 0.79392 0.0
C5303 C 0.31521 0.58604 0.81535 0.0
C5304 C 0.27992 0.56954 0.79885 0.0
C5305 C 0.28439 0.56578 0.78747 0.0
C5306 C 0.28452 0.58012 0.80457 0.0
C5307 C 0.2938 0.58719 0.79875 0.0
C5308 C 0.29837 0.58344 0.78726 0.0
C5309 C 0.29364 0.57277 0.78178 0.0
C5310 C 0.27947 0.58374 0.81686 0.0
C5311 C 0.30819 0.59077 0.78072 0.0
H5312 H 0.29274 0.62907 0.80697 0.0
H5313 H 0.32068 0.60815 0.82497 0.0
H5314 H 0.28452 0.60743 0.78474 0.0
H5315 H 0.27433 0.60515 0.79733 0.0
H5316 H 0.27885 0.62046 0.79293 0.0
H5317 H 0.32321 0.58719 0.82159 0.0
H5318 H 0.30866 0.57944 0.81958 0.0
H5319 H 0.3184 0.58194 0.80668 0.0
H5320 H 0.27289 0.56409 0.80338 0.0
H5321 H 0.29704 0.56999 0.77292 0.0
H5322 H 0.27539 0.59297 0.81623 0.0
H5323 H 0.28699 0.58423 0.82373 0.0
H5324 H 0.27236 0.5772 0.82022 0.0
H5325 H 0.30494 0.60019 0.77893 0.0
H5326 H 0.3108 0.5866 0.77187 0.0
H5327 H 0.3165 0.59153 0.78659 0.0
C5328 C 0.41356 0.3151 0.81689 0.0
C5329 C 0.40205 0.30974 0.8145 0.0
C5330 C 0.42422 0.31078 0.81126 0.0
C5331 C 0.42336 0.30089 0.80296 0.0
C5332 C 0.41173 0.29562 0.8003 0.0
C5333 C 0.40124 0.30007 0.80612 0.0
C5334 C 0.43645 0.31662 0.8144 0.0
C5335 C 0.41039 0.28514 0.79142 0.0
C5336 C 0.44974 0.29553 0.78092 0.0
C5337 C 0.45597 0.2859 0.78668 0.0
C5338 C 0.43914 0.30051 0.7861 0.0
C5339 C 0.43467 0.2958 0.79736 0.0
C5340 C 0.44095 0.28613 0.80325 0.0
C5341 C 0.45149 0.28129 0.79784 0.0
C5342 C 0.43266 0.31075 0.77947 0.0
C5343 C 0.43655 0.2809 0.81531 0.0
H5344 H 0.41429 0.32248 0.82345 0.0
H5345 H 0.39235 0.29599 0.80409 0.0
H5346 H 0.44249 0.30975 0.81878 0.0
H5347 H 0.44109 0.31984 0.80594 0.0
H5348 H 0.43552 0.32448 0.8207 0.0
H5349 H 0.40066 0.28236 0.78999 0.0
H5350 H 0.41439 0.28774 0.78244 0.0
H5351 H 0.41552 0.27712 0.79489 0.0
H5352 H 0.45306 0.29906 0.77223 0.0
H5353 H 0.45634 0.27397 0.80245 0.0
H5354 H 0.43215 0.31889 0.78547 0.0
H5355 H 0.42311 0.30791 0.77726 0.0
H5356 H 0.43735 0.31345 0.77085 0.0
H5357 H 0.43625 0.28822 0.82229 0.0
H5358 H 0.44253 0.27348 0.81877 0.0
H5359 H 0.42709 0.2772 0.81426 0.0
C5360 C 0.31755 0.4133 0.20619 0.0
C5361 C 0.31492 0.40179 0.21138 0.0
C5362 C 0.31184 0.42391 0.21045 0.0
C5363 C 0.30322 0.42302 0.22009 0.0
C5364 C 0.30035 0.4114 0.2252 0.0
C5365 C 0.30625 0.40095 0.22081 0.0
C5366 C 0.31522 0.43613 0.20481 0.0
C5367 C 0.29114 0.41002 0.2354 0.0
C5368 C 0.29749 0.45101 0.23974 0.0
C5369 C 0.28645 0.4554 0.23484 0.0
C5370 C 0.30306 0.44055 0.23499 0.0
C5371 C 0.29747 0.43426 0.22508 0.0
C5372 C 0.28635 0.43865 0.22005 0.0
C5373 C 0.28099 0.44917 0.22497 0.0
C5374 C 0.31496 0.43622 0.24057 0.0
C5375 C 0.28005 0.43218 0.20954 0.0
H5376 H 0.32434 0.41405 0.199 0.0
H5377 H 0.30404 0.39208 0.22475 0.0
H5378 H 0.30688 0.44073 0.20133 0.0
H5379 H 0.31939 0.44216 0.21187 0.0
H5380 H 0.32181 0.43524 0.19715 0.0
H5381 H 0.28961 0.40031 0.2381 0.0
H5382 H 0.29435 0.41517 0.24356 0.0
H5383 H 0.28223 0.41395 0.23255 0.0
H5384 H 0.30187 0.45586 0.24724 0.0
H5385 H 0.27239 0.45241 0.22121 0.0
H5386 H 0.32218 0.43597 0.23346 0.0
H5387 H 0.31378 0.42678 0.24418 0.0
H5388 H 0.31819 0.4422 0.24815 0.0
H5389 H 0.28633 0.43169 0.2016 0.0
H5390 H 0.27152 0.43682 0.20658 0.0
H5391 H 0.27771 0.42264 0.21225 0.0
C5392 C 0.60575 0.31325 0.2008 0.0
C5393 C 0.61751 0.30934 0.20415 0.0
C5394 C 0.59527 0.30885 0.20692 0.0
C5395 C 0.59656 0.30024 0.21658 0.0
C5396 C 0.60842 0.29636 0.22009 0.0
C5397 C 0.61875 0.30098 0.21387 0.0
C5398 C 0.5828 0.31334 0.20299 0.0
C5399 C 0.61018 0.28712 0.23026 0.0
C5400 C 0.57019 0.29582 0.23899 0.0
C5401 C 0.56425 0.28535 0.23433 0.0
C5402 C 0.58069 0.30077 0.23331 0.0
C5403 C 0.58547 0.29507 0.22278 0.0
C5404 C 0.57959 0.28446 0.21808 0.0
C5405 C 0.56905 0.27977 0.22387 0.0
C5406 C 0.58667 0.31211 0.23859 0.0
C5407 C 0.5844 0.2781 0.20688 0.0
H5408 H 0.60474 0.31982 0.1934 0.0
H5409 H 0.6278 0.29782 0.21642 0.0
H5410 H 0.57711 0.30554 0.19968 0.0
H5411 H 0.57799 0.31734 0.21091 0.0
H5412 H 0.58339 0.32033 0.19558 0.0
H5413 H 0.62002 0.28528 0.23211 0.0
H5414 H 0.60592 0.29041 0.23881 0.0
H5415 H 0.60553 0.27838 0.22782 0.0
H5416 H 0.56669 0.3001 0.24716 0.0
H5417 H 0.56444 0.27181 0.22006 0.0
H5418 H 0.58691 0.31949 0.23157 0.0
H5419 H 0.5963 0.31018 0.2412 0.0
H5420 H 0.58178 0.3155 0.24677 0.0
H5421 H 0.58425 0.28443 0.19891 0.0
H5422 H 0.57894 0.26978 0.20455 0.0
H5423 H 0.59408 0.27543 0.2084 0.0
C5424 C 0.40617 0.72433 0.20048 0.0
C5425 C 0.40009 0.71369 0.20457 0.0
C5426 C 0.4168 0.7287 0.20638 0.0
C5427 C 0.42159 0.72222 0.21656 0.0
C5428 C 0.41553 0.71147 0.22075 0.0
C5429 C 0.40484 0.70737 0.21474 0.0
C5430 C 0.42297 0.74023 0.20167 0.0
C5431 C 0.42039 0.70428 0.23154 0.0
C5432 C 0.45532 0.72751 0.22405 0.0
C5433 C 0.45473 0.73578 0.23379 0.0
C5434 C 0.44461 0.72286 0.2185 0.0
C5435 C 0.43301 0.72665 0.22273 0.0
C5436 C 0.43235 0.73492 0.23264 0.0
C5437 C 0.44321 0.73934 0.23809 0.0
C5438 C 0.4457 0.71396 0.20805 0.0
C5439 C 0.42016 0.73927 0.23734 0.0
H5440 H 0.40273 0.72917 0.19251 0.0
H5441 H 0.40013 0.69924 0.21809 0.0
H5442 H 0.42373 0.74706 0.20911 0.0
H5443 H 0.43241 0.73819 0.19864 0.0
H5444 H 0.4179 0.74439 0.19386 0.0
H5445 H 0.41466 0.69606 0.23361 0.0
H5446 H 0.42989 0.7013 0.22969 0.0
H5447 H 0.42075 0.71014 0.23979 0.0
H5448 H 0.4642 0.72462 0.2208 0.0
H5449 H 0.44271 0.74582 0.24554 0.0
H5450 H 0.44157 0.71791 0.19963 0.0
H5451 H 0.44056 0.7054 0.2102 0.0
H5452 H 0.45539 0.71164 0.20611 0.0
H5453 H 0.41521 0.74418 0.22994 0.0
H5454 H 0.42122 0.74548 0.2453 0.0
H5455 H 0.41435 0.73133 0.24009 0.0
loop_
_geom_bond_atom_site_label_1
_geom_bond_atom_site_label_2
_geom_bond_distance
_geom_bond_site_symmetry_2
_ccdc_geom_bond_type
C0 C1 1.264 . S
C0 C5 1.479 . S
C0 C10 1.465 . S
C1 C0 1.264 . S
C1 C3 1.339 . S
C1 H28 0.931 . S
C2 C3 1.395 . S
C2 C4 1.320 . S
C3 C1 1.339 . S
C3 C2 1.395 . S
C3 H29 0.929 . S
C4 C2 1.320 . S
C4 C5 1.405 . S
C4 H30 0.930 . S
C5 C0 1.479 . S
C5 C4 1.405 . S
C5 H31 0.931 . S
U6 O7 2.454 . S
U6 O8 2.458 . S
U6 C9 2.984 . S
U6 C10 2.847 . S
U6 C23 2.882 . S
U6 O24 2.441 . S
U6 O25 2.420 . S
U6 O26 2.455 . S
U6 O27 2.449 . S
O7 U6 2.454 . S
O7 C9 1.353 . S
O8 U6 2.458 . S
O8 C9 1.286 . S
C9 U6 2.984 . S
C9 O7 1.353 . S
C9 O8 1.286 . S
C9 C11 1.363 . S
C10 C0 1.465 . S
C10 U6 2.847 . S
C10 O24 1.249 . S
C10 O25 1.202 . S
C11 C9 1.363 . S
C11 C13 1.408 . S
C11 C16 1.342 . S
C12 C13 1.310 . S
C12 C15 1.461 . S
C12 H32 0.932 . S
C13 C11 1.408 . S
C13 C12 1.310 . S
C13 H33 0.930 . S
C14 C15 1.474 . S
C14 C16 1.285 . S
C14 H34 0.929 . S
C15 C12 1.461 . S
C15 C14 1.474 . S
C16 C11 1.342 . S
C16 C14 1.285 . S
C16 H35 0.930 . S
C17 C20 1.424 . S
C17 C22 1.245 . S
C17 C23 1.428 . S
C18 C21 1.260 . S
C18 C22 1.477 . S
C18 H36 0.932 . S
C19 C20 1.384 . S
C19 C21 1.479 . S
C19 H37 0.929 . S
C20 C17 1.424 . S
C20 C19 1.384 . S
C20 H38 0.928 . S
C21 C18 1.260 . S
C21 C19 1.479 . S
C22 C17 1.245 . S
C22 C18 1.477 . S
C22 H39 0.932 . S
C23 U6 2.882 . S
C23 C17 1.428 . S
C23 O26 1.301 . S
C23 O27 1.282 . S
O24 U6 2.441 . S
O24 C10 1.249 . S
O25 U6 2.420 . S
O25 C10 1.202 . S
O26 U6 2.455 . S
O26 C23 1.301 . S
O27 U6 2.449 . S
O27 C23 1.282 . S
H28 C1 0.931 . S
H29 C3 0.929 . S
H30 C4 0.930 . S
H31 C5 0.931 . S
H32 C12 0.932 . S
H33 C13 0.930 . S
H34 C14 0.929 . S
H35 C16 0.930 . S
H36 C18 0.932 . S
H37 C19 0.929 . S
H38 C20 0.928 . S
H39 C22 0.932 . S
C40 C41 1.264 . S
C40 C45 1.479 . S
C40 C50 1.465 . S
C41 C40 1.264 . S
C41 C43 1.339 . S
C41 H68 0.931 . S
C42 C43 1.395 . S
C42 C44 1.320 . S
C43 C41 1.339 . S
C43 C42 1.395 . S
C43 H69 0.929 . S
C44 C42 1.320 . S
C44 C45 1.405 . S
C44 H70 0.930 . S
C45 C40 1.479 . S
C45 C44 1.405 . S
C45 H71 0.931 . S
U46 O47 2.454 . S
U46 O48 2.458 . S
U46 C49 2.984 . S
U46 C50 2.847 . S
U46 C63 2.882 . S
U46 O64 2.441 . S
U46 O65 2.420 . S
U46 O66 2.455 . S
U46 O67 2.449 . S
O47 U46 2.454 . S
O47 C49 1.353 . S
O48 U46 2.458 . S
O48 C49 1.286 . S
C49 U46 2.984 . S
C49 O47 1.353 . S
C49 O48 1.286 . S
C49 C51 1.363 . S
C50 C40 1.465 . S
C50 U46 2.847 . S
C50 O64 1.249 . S
C50 O65 1.202 . S
C51 C49 1.363 . S
C51 C53 1.408 . S
C51 C56 1.342 . S
C52 C53 1.310 . S
C52 C55 1.461 . S
C52 H72 0.932 . S
C53 C51 1.408 . S
C53 C52 1.310 . S
C53 H73 0.930 . S
C54 C55 1.474 . S
C54 C56 1.285 . S
C54 H74 0.929 . S
C55 C52 1.461 . S
C55 C54 1.474 . S
C56 C51 1.342 . S
C56 C54 1.285 . S
C56 H75 0.930 . S
C57 C60 1.424 . S
C57 C62 1.245 . S
C57 C63 1.428 . S
C58 C61 1.260 . S
C58 C62 1.477 . S
C58 H76 0.932 . S
C59 C60 1.384 . S
C59 C61 1.479 . S
C59 H77 0.929 . S
C60 C57 1.424 . S
C60 C59 1.384 . S
C60 H78 0.928 . S
C61 C58 1.260 . S
C61 C59 1.479 . S
C62 C57 1.245 . S
C62 C58 1.477 . S
C62 H79 0.932 . S
C63 U46 2.882 . S
C63 C57 1.428 . S
C63 O66 1.301 . S
C63 O67 1.282 . S
O64 U46 2.441 . S
O64 C50 1.249 . S
O65 U46 2.420 . S
O65 C50 1.202 . S
O66 U46 2.455 . S
O66 C63 1.301 . S
O67 U46 2.449 . S
O67 C63 1.282 . S
H68 C41 0.931 . S
H69 C43 0.929 . S
H70 C44 0.930 . S
H71 C45 0.931 . S
H72 C52 0.932 . S
H73 C53 0.930 . S
H74 C54 0.929 . S
H75 C56 0.930 . S
H76 C58 0.932 . S
H77 C59 0.929 . S
H78 C60 0.928 . S
H79 C62 0.932 . S
C80 C81 1.264 . S
C80 C85 1.479 . S
C80 C90 1.465 . S
C81 C80 1.264 . S
C81 C83 1.339 . S
C81 H108 0.931 . S
C82 C83 1.395 . S
C82 C84 1.320 . S
C83 C81 1.339 . S
C83 C82 1.395 . S
C83 H109 0.929 . S
C84 C82 1.320 . S
C84 C85 1.405 . S
C84 H110 0.930 . S
C85 C80 1.479 . S
C85 C84 1.405 . S
C85 H111 0.931 . S
U86 O87 2.454 . S
U86 O88 2.458 . S
U86 C89 2.984 . S
U86 C90 2.847 . S
U86 C103 2.882 . S
U86 O104 2.441 . S
U86 O105 2.420 . S
U86 O106 2.455 . S
U86 O107 2.449 . S
O87 U86 2.454 . S
O87 C89 1.353 . S
O88 U86 2.458 . S
O88 C89 1.286 . S
C89 U86 2.984 . S
C89 O87 1.353 . S
C89 O88 1.286 . S
C89 C91 1.363 . S
C90 C80 1.465 . S
C90 U86 2.847 . S
C90 O104 1.249 . S
C90 O105 1.202 . S
C91 C89 1.363 . S
C91 C93 1.408 . S
C91 C96 1.342 . S
C92 C93 1.310 . S
C92 C95 1.461 . S
C92 H112 0.932 . S
C93 C91 1.408 . S
C93 C92 1.310 . S
C93 H113 0.930 . S
C94 C95 1.474 . S
C94 C96 1.285 . S
C94 H114 0.929 . S
C95 C92 1.461 . S
C95 C94 1.474 . S
C96 C91 1.342 . S
C96 C94 1.285 . S
C96 H115 0.930 . S
C97 C100 1.424 . S
C97 C102 1.245 . S
C97 C103 1.428 . S
C98 C101 1.260 . S
C98 C102 1.477 . S
C98 H116 0.932 . S
C99 C100 1.384 . S
C99 C101 1.479 . S
C99 H117 0.929 . S
C100 C97 1.424 . S
C100 C99 1.384 . S
C100 H118 0.928 . S
C101 C98 1.260 . S
C101 C99 1.479 . S
C102 C97 1.245 . S
C102 C98 1.477 . S
C102 H119 0.932 . S
C103 U86 2.882 . S
C103 C97 1.428 . S
C103 O106 1.301 . S
C103 O107 1.282 . S
O104 U86 2.441 . S
O104 C90 1.249 . S
O105 U86 2.420 . S
O105 C90 1.202 . S
O106 U86 2.455 . S
O106 C103 1.301 . S
O107 U86 2.449 . S
O107 C103 1.282 . S
H108 C81 0.931 . S
H109 C83 0.929 . S
H110 C84 0.930 . S
H111 C85 0.931 . S
H112 C92 0.932 . S
H113 C93 0.930 . S
H114 C94 0.929 . S
H115 C96 0.930 . S
H116 C98 0.932 . S
H117 C99 0.929 . S
H118 C100 0.928 . S
H119 C102 0.932 . S
C120 C121 1.264 . S
C120 C125 1.479 . S
C120 C130 1.465 . S
C121 C120 1.264 . S
C121 C123 1.339 . S
C121 H148 0.931 . S
C122 C123 1.395 . S
C122 C124 1.320 . S
C123 C121 1.339 . S
C123 C122 1.395 . S
C123 H149 0.929 . S
C124 C122 1.320 . S
C124 C125 1.405 . S
C124 H150 0.930 . S
C125 C120 1.479 . S
C125 C124 1.405 . S
C125 H151 0.931 . S
U126 O127 2.454 . S
U126 O128 2.458 . S
U126 C129 2.984 . S
U126 C130 2.847 . S
U126 C143 2.882 . S
U126 O144 2.441 . S
U126 O145 2.420 . S
U126 O146 2.455 . S
U126 O147 2.449 . S
O127 U126 2.454 . S
O127 C129 1.353 . S
O128 U126 2.458 . S
O128 C129 1.286 . S
C129 U126 2.984 . S
C129 O127 1.353 . S
C129 O128 1.286 . S
C129 C131 1.363 . S
C130 C120 1.465 . S
C130 U126 2.847 . S
C130 O144 1.249 . S
C130 O145 1.202 . S
C131 C129 1.363 . S
C131 C133 1.408 . S
C131 C136 1.342 . S
C132 C133 1.310 . S
C132 C135 1.461 . S
C132 H152 0.932 . S
C133 C131 1.408 . S
C133 C132 1.310 . S
C133 H153 0.930 . S
C134 C135 1.474 . S
C134 C136 1.285 . S
C134 H154 0.929 . S
C135 C132 1.461 . S
C135 C134 1.474 . S
C136 C131 1.342 . S
C136 C134 1.285 . S
C136 H155 0.930 . S
C137 C140 1.424 . S
C137 C142 1.245 . S
C137 C143 1.428 . S
C138 C141 1.260 . S
C138 C142 1.477 . S
C138 H156 0.932 . S
C139 C140 1.384 . S
C139 C141 1.479 . S
C139 H157 0.929 . S
C140 C137 1.424 . S
C140 C139 1.384 . S
C140 H158 0.928 . S
C141 C138 1.260 . S
C141 C139 1.479 . S
C142 C137 1.245 . S
C142 C138 1.477 . S
C142 H159 0.932 . S
C143 U126 2.882 . S
C143 C137 1.428 . S
C143 O146 1.301 . S
C143 O147 1.282 . S
O144 U126 2.441 . S
O144 C130 1.249 . S
O145 U126 2.420 . S
O145 C130 1.202 . S
O146 U126 2.455 . S
O146 C143 1.301 . S
O147 U126 2.449 . S
O147 C143 1.282 . S
H148 C121 0.931 . S
H149 C123 0.929 . S
H150 C124 0.930 . S
H151 C125 0.931 . S
H152 C132 0.932 . S
H153 C133 0.930 . S
H154 C134 0.929 . S
H155 C136 0.930 . S
H156 C138 0.932 . S
H157 C139 0.929 . S
H158 C140 0.928 . S
H159 C142 0.932 . S
C160 C161 1.264 . S
C160 C165 1.479 . S
C160 C170 1.465 . S
C161 C160 1.264 . S
C161 C163 1.339 . S
C161 H188 0.931 . S
C162 C163 1.395 . S
C162 C164 1.320 . S
C163 C161 1.339 . S
C163 C162 1.395 . S
C163 H189 0.929 . S
C164 C162 1.320 . S
C164 C165 1.405 . S
C164 H190 0.930 . S
C165 C160 1.479 . S
C165 C164 1.405 . S
C165 H191 0.931 . S
U166 O167 2.454 . S
U166 O168 2.458 . S
U166 C169 2.984 . S
U166 C170 2.847 . S
U166 C183 2.882 . S
U166 O184 2.441 . S
U166 O185 2.420 . S
U166 O186 2.455 . S
U166 O187 2.449 . S
O167 U166 2.454 . S
O167 C169 1.353 . S
O168 U166 2.458 . S
O168 C169 1.286 . S
C169 U166 2.984 . S
C169 O167 1.353 . S
C169 O168 1.286 . S
C169 C171 1.363 . S
C170 C160 1.465 . S
C170 U166 2.847 . S
C170 O184 1.249 . S
C170 O185 1.202 . S
C171 C169 1.363 . S
C171 C173 1.408 . S
C171 C176 1.342 . S
C172 C173 1.310 . S
C172 C175 1.461 . S
C172 H192 0.932 . S
C173 C171 1.408 . S
C173 C172 1.310 . S
C173 H193 0.930 . S
C174 C175 1.474 . S
C174 C176 1.285 . S
C174 H194 0.929 . S
C175 C172 1.461 . S
C175 C174 1.474 . S
C176 C171 1.342 . S
C176 C174 1.285 . S
C176 H195 0.930 . S
C177 C180 1.424 . S
C177 C182 1.245 . S
C177 C183 1.428 . S
C178 C181 1.260 . S
C178 C182 1.477 . S
C178 H196 0.932 . S
C179 C180 1.384 . S
C179 C181 1.479 . S
C179 H197 0.929 . S
C180 C177 1.424 . S
C180 C179 1.384 . S
C180 H198 0.928 . S
C181 C178 1.260 . S
C181 C179 1.479 . S
C182 C177 1.245 . S
C182 C178 1.477 . S
C182 H199 0.932 . S
C183 U166 2.882 . S
C183 C177 1.428 . S
C183 O186 1.301 . S
C183 O187 1.282 . S
O184 U166 2.441 . S
O184 C170 1.249 . S
O185 U166 2.420 . S
O185 C170 1.202 . S
O186 U166 2.455 . S
O186 C183 1.301 . S
O187 U166 2.449 . S
O187 C183 1.282 . S
H188 C161 0.931 . S
H189 C163 0.929 . S
H190 C164 0.930 . S
H191 C165 0.931 . S
H192 C172 0.932 . S
H193 C173 0.930 . S
H194 C174 0.929 . S
H195 C176 0.930 . S
H196 C178 0.932 . S
H197 C179 0.929 . S
H198 C180 0.928 . S
H199 C182 0.932 . S
C200 C201 1.264 . S
C200 C205 1.479 . S
C200 C210 1.465 . S
C201 C200 1.264 . S
C201 C203 1.339 . S
C201 H228 0.931 . S
C202 C203 1.395 . S
C202 C204 1.320 . S
C203 C201 1.339 . S
C203 C202 1.395 . S
C203 H229 0.929 . S
C204 C202 1.320 . S
C204 C205 1.405 . S
C204 H230 0.930 . S
C205 C200 1.479 . S
C205 C204 1.405 . S
C205 H231 0.931 . S
U206 O207 2.454 . S
U206 O208 2.458 . S
U206 C209 2.984 . S
U206 C210 2.847 . S
U206 C223 2.882 . S
U206 O224 2.441 . S
U206 O225 2.420 . S
U206 O226 2.455 . S
U206 O227 2.449 . S
O207 U206 2.454 . S
O207 C209 1.353 . S
O208 U206 2.458 . S
O208 C209 1.286 . S
C209 U206 2.984 . S
C209 O207 1.353 . S
C209 O208 1.286 . S
C209 C211 1.363 . S
C210 C200 1.465 . S
C210 U206 2.847 . S
C210 O224 1.249 . S
C210 O225 1.202 . S
C211 C209 1.363 . S
C211 C213 1.408 . S
C211 C216 1.342 . S
C212 C213 1.310 . S
C212 C215 1.461 . S
C212 H232 0.932 . S
C213 C211 1.408 . S
C213 C212 1.310 . S
C213 H233 0.930 . S
C214 C215 1.474 . S
C214 C216 1.285 . S
C214 H234 0.929 . S
C215 C212 1.461 . S
C215 C214 1.474 . S
C216 C211 1.342 . S
C216 C214 1.285 . S
C216 H235 0.930 . S
C217 C220 1.424 . S
C217 C222 1.245 . S
C217 C223 1.428 . S
C218 C221 1.260 . S
C218 C222 1.477 . S
C218 H236 0.932 . S
C219 C220 1.384 . S
C219 C221 1.479 . S
C219 H237 0.929 . S
C220 C217 1.424 . S
C220 C219 1.384 . S
C220 H238 0.928 . S
C221 C218 1.260 . S
C221 C219 1.479 . S
C222 C217 1.245 . S
C222 C218 1.477 . S
C222 H239 0.932 . S
C223 U206 2.882 . S
C223 C217 1.428 . S
C223 O226 1.301 . S
C223 O227 1.282 . S
O224 U206 2.441 . S
O224 C210 1.249 . S
O225 U206 2.420 . S
O225 C210 1.202 . S
O226 U206 2.455 . S
O226 C223 1.301 . S
O227 U206 2.449 . S
O227 C223 1.282 . S
H228 C201 0.931 . S
H229 C203 0.929 . S
H230 C204 0.930 . S
H231 C205 0.931 . S
H232 C212 0.932 . S
H233 C213 0.930 . S
H234 C214 0.929 . S
H235 C216 0.930 . S
H236 C218 0.932 . S
H237 C219 0.929 . S
H238 C220 0.928 . S
H239 C222 0.932 . S
C240 C241 1.264 . S
C240 C245 1.479 . S
C240 C250 1.465 . S
C241 C240 1.264 . S
C241 C243 1.339 . S
C241 H268 0.931 . S
C242 C243 1.395 . S
C242 C244 1.320 . S
C243 C241 1.339 . S
C243 C242 1.395 . S
C243 H269 0.929 . S
C244 C242 1.320 . S
C244 C245 1.405 . S
C244 H270 0.930 . S
C245 C240 1.479 . S
C245 C244 1.405 . S
C245 H271 0.931 . S
U246 O247 2.454 . S
U246 O248 2.458 . S
U246 C249 2.984 . S
U246 C250 2.847 . S
U246 C263 2.882 . S
U246 O264 2.441 . S
U246 O265 2.420 . S
U246 O266 2.455 . S
U246 O267 2.449 . S
O247 U246 2.454 . S
O247 C249 1.353 . S
O248 U246 2.458 . S
O248 C249 1.286 . S
C249 U246 2.984 . S
C249 O247 1.353 . S
C249 O248 1.286 . S
C249 C251 1.363 . S
C250 C240 1.465 . S
C250 U246 2.847 . S
C250 O264 1.249 . S
C250 O265 1.202 . S
C251 C249 1.363 . S
C251 C253 1.408 . S
C251 C256 1.342 . S
C252 C253 1.310 . S
C252 C255 1.461 . S
C252 H272 0.932 . S
C253 C251 1.408 . S
C253 C252 1.310 . S
C253 H273 0.930 . S
C254 C255 1.474 . S
C254 C256 1.285 . S
C254 H274 0.929 . S
C255 C252 1.461 . S
C255 C254 1.474 . S
C256 C251 1.342 . S
C256 C254 1.285 . S
C256 H275 0.930 . S
C257 C260 1.424 . S
C257 C262 1.245 . S
C257 C263 1.428 . S
C258 C261 1.260 . S
C258 C262 1.477 . S
C258 H276 0.932 . S
C259 C260 1.384 . S
C259 C261 1.479 . S
C259 H277 0.929 . S
C260 C257 1.424 . S
C260 C259 1.384 . S
C260 H278 0.928 . S
C261 C258 1.260 . S
C261 C259 1.479 . S
C262 C257 1.245 . S
C262 C258 1.477 . S
C262 H279 0.932 . S
C263 U246 2.882 . S
C263 C257 1.428 . S
C263 O266 1.301 . S
C263 O267 1.282 . S
O264 U246 2.441 . S
O264 C250 1.249 . S
O265 U246 2.420 . S
O265 C250 1.202 . S
O266 U246 2.455 . S
O266 C263 1.301 . S
O267 U246 2.449 . S
O267 C263 1.282 . S
H268 C241 0.931 . S
H269 C243 0.929 . S
H270 C244 0.930 . S
H271 C245 0.931 . S
H272 C252 0.932 . S
H273 C253 0.930 . S
H274 C254 0.929 . S
H275 C256 0.930 . S
H276 C258 0.932 . S
H277 C259 0.929 . S
H278 C260 0.928 . S
H279 C262 0.932 . S
C280 C281 1.264 . S
C280 C285 1.479 . S
C280 C290 1.465 . S
C281 C280 1.264 . S
C281 C283 1.339 . S
C281 H308 0.931 . S
C282 C283 1.395 . S
C282 C284 1.320 . S
C283 C281 1.339 . S
C283 C282 1.395 . S
C283 H309 0.929 . S
C284 C282 1.320 . S
C284 C285 1.405 . S
C284 H310 0.930 . S
C285 C280 1.479 . S
C285 C284 1.405 . S
C285 H311 0.931 . S
U286 O287 2.454 . S
U286 O288 2.458 . S
U286 C289 2.984 . S
U286 C290 2.847 . S
U286 C303 2.882 . S
U286 O304 2.441 . S
U286 O305 2.420 . S
U286 O306 2.455 . S
U286 O307 2.449 . S
O287 U286 2.454 . S
O287 C289 1.353 . S
O288 U286 2.458 . S
O288 C289 1.286 . S
C289 U286 2.984 . S
C289 O287 1.353 . S
C289 O288 1.286 . S
C289 C291 1.363 . S
C290 C280 1.465 . S
C290 U286 2.847 . S
C290 O304 1.249 . S
C290 O305 1.202 . S
C291 C289 1.363 . S
C291 C293 1.408 . S
C291 C296 1.342 . S
C292 C293 1.310 . S
C292 C295 1.461 . S
C292 H312 0.932 . S
C293 C291 1.408 . S
C293 C292 1.310 . S
C293 H313 0.930 . S
C294 C295 1.474 . S
C294 C296 1.285 . S
C294 H314 0.929 . S
C295 C292 1.461 . S
C295 C294 1.474 . S
C296 C291 1.342 . S
C296 C294 1.285 . S
C296 H315 0.930 . S
C297 C300 1.424 . S
C297 C302 1.245 . S
C297 C303 1.428 . S
C298 C301 1.260 . S
C298 C302 1.477 . S
C298 H316 0.932 . S
C299 C300 1.384 . S
C299 C301 1.479 . S
C299 H317 0.929 . S
C300 C297 1.424 . S
C300 C299 1.384 . S
C300 H318 0.928 . S
C301 C298 1.260 . S
C301 C299 1.479 . S
C302 C297 1.245 . S
C302 C298 1.477 . S
C302 H319 0.932 . S
C303 U286 2.882 . S
C303 C297 1.428 . S
C303 O306 1.301 . S
C303 O307 1.282 . S
O304 U286 2.441 . S
O304 C290 1.249 . S
O305 U286 2.420 . S
O305 C290 1.202 . S
O306 U286 2.455 . S
O306 C303 1.301 . S
O307 U286 2.449 . S
O307 C303 1.282 . S
H308 C281 0.931 . S
H309 C283 0.929 . S
H310 C284 0.930 . S
H311 C285 0.931 . S
H312 C292 0.932 . S
H313 C293 0.930 . S
H314 C294 0.929 . S
H315 C296 0.930 . S
H316 C298 0.932 . S
H317 C299 0.929 . S
H318 C300 0.928 . S
H319 C302 0.932 . S
C320 C321 1.264 . S
C320 C325 1.479 . S
C320 C330 1.465 . S
C321 C320 1.264 . S
C321 C323 1.339 . S
C321 H348 0.931 . S
C322 C323 1.395 . S
C322 C324 1.320 . S
C323 C321 1.339 . S
C323 C322 1.395 . S
C323 H349 0.929 . S
C324 C322 1.320 . S
C324 C325 1.405 . S
C324 H350 0.930 . S
C325 C320 1.479 . S
C325 C324 1.405 . S
C325 H351 0.931 . S
U326 O327 2.454 . S
U326 O328 2.458 . S
U326 C329 2.984 . S
U326 C330 2.847 . S
U326 C343 2.882 . S
U326 O344 2.441 . S
U326 O345 2.420 . S
U326 O346 2.455 . S
U326 O347 2.449 . S
O327 U326 2.454 . S
O327 C329 1.353 . S
O328 U326 2.458 . S
O328 C329 1.286 . S
C329 U326 2.984 . S
C329 O327 1.353 . S
C329 O328 1.286 . S
C329 C331 1.363 . S
C330 C320 1.465 . S
C330 U326 2.847 . S
C330 O344 1.249 . S
C330 O345 1.202 . S
C331 C329 1.363 . S
C331 C333 1.408 . S
C331 C336 1.342 . S
C332 C333 1.310 . S
C332 C335 1.461 . S
C332 H352 0.932 . S
C333 C331 1.408 . S
C333 C332 1.310 . S
C333 H353 0.930 . S
C334 C335 1.474 . S
C334 C336 1.285 . S
C334 H354 0.929 . S
C335 C332 1.461 . S
C335 C334 1.474 . S
C336 C331 1.342 . S
C336 C334 1.285 . S
C336 H355 0.930 . S
C337 C340 1.424 . S
C337 C342 1.245 . S
C337 C343 1.428 . S
C338 C341 1.260 . S
C338 C342 1.477 . S
C338 H356 0.932 . S
C339 C340 1.384 . S
C339 C341 1.479 . S
C339 H357 0.929 . S
C340 C337 1.424 . S
C340 C339 1.384 . S
C340 H358 0.928 . S
C341 C338 1.260 . S
C341 C339 1.479 . S
C342 C337 1.245 . S
C342 C338 1.477 . S
C342 H359 0.932 . S
C343 U326 2.882 . S
C343 C337 1.428 . S
C343 O346 1.301 . S
C343 O347 1.282 . S
O344 U326 2.441 . S
O344 C330 1.249 . S
O345 U326 2.420 . S
O345 C330 1.202 . S
O346 U326 2.455 . S
O346 C343 1.301 . S
O347 U326 2.449 . S
O347 C343 1.282 . S
H348 C321 0.931 . S
H349 C323 0.929 . S
H350 C324 0.930 . S
H351 C325 0.931 . S
H352 C332 0.932 . S
H353 C333 0.930 . S
H354 C334 0.929 . S
H355 C336 0.930 . S
H356 C338 0.932 . S
H357 C339 0.929 . S
H358 C340 0.928 . S
H359 C342 0.932 . S
C360 C361 1.264 . S
C360 C365 1.479 . S
C360 C370 1.465 . S
C361 C360 1.264 . S
C361 C363 1.339 . S
C361 H388 0.931 . S
C362 C363 1.395 . S
C362 C364 1.320 . S
C363 C361 1.339 . S
C363 C362 1.395 . S
C363 H389 0.929 . S
C364 C362 1.320 . S
C364 C365 1.405 . S
C364 H390 0.930 . S
C365 C360 1.479 . S
C365 C364 1.405 . S
C365 H391 0.931 . S
U366 O367 2.454 . S
U366 O368 2.458 . S
U366 C369 2.984 . S
U366 C370 2.847 . S
U366 C383 2.882 . S
U366 O384 2.441 . S
U366 O385 2.420 . S
U366 O386 2.455 . S
U366 O387 2.449 . S
O367 U366 2.454 . S
O367 C369 1.353 . S
O368 U366 2.458 . S
O368 C369 1.286 . S
C369 U366 2.984 . S
C369 O367 1.353 . S
C369 O368 1.286 . S
C369 C371 1.363 . S
C370 C360 1.465 . S
C370 U366 2.847 . S
C370 O384 1.249 . S
C370 O385 1.202 . S
C371 C369 1.363 . S
C371 C373 1.408 . S
C371 C376 1.342 . S
C372 C373 1.310 . S
C372 C375 1.461 . S
C372 H392 0.932 . S
C373 C371 1.408 . S
C373 C372 1.310 . S
C373 H393 0.930 . S
C374 C375 1.474 . S
C374 C376 1.285 . S
C374 H394 0.929 . S
C375 C372 1.461 . S
C375 C374 1.474 . S
C376 C371 1.342 . S
C376 C374 1.285 . S
C376 H395 0.930 . S
C377 C380 1.424 . S
C377 C382 1.245 . S
C377 C383 1.428 . S
C378 C381 1.260 . S
C378 C382 1.477 . S
C378 H396 0.932 . S
C379 C380 1.384 . S
C379 C381 1.479 . S
C379 H397 0.929 . S
C380 C377 1.424 . S
C380 C379 1.384 . S
C380 H398 0.928 . S
C381 C378 1.260 . S
C381 C379 1.479 . S
C382 C377 1.245 . S
C382 C378 1.477 . S
C382 H399 0.932 . S
C383 U366 2.882 . S
C383 C377 1.428 . S
C383 O386 1.301 . S
C383 O387 1.282 . S
O384 U366 2.441 . S
O384 C370 1.249 . S
O385 U366 2.420 . S
O385 C370 1.202 . S
O386 U366 2.455 . S
O386 C383 1.301 . S
O387 U366 2.449 . S
O387 C383 1.282 . S
H388 C361 0.931 . S
H389 C363 0.929 . S
H390 C364 0.930 . S
H391 C365 0.931 . S
H392 C372 0.932 . S
H393 C373 0.930 . S
H394 C374 0.929 . S
H395 C376 0.930 . S
H396 C378 0.932 . S
H397 C379 0.929 . S
H398 C380 0.928 . S
H399 C382 0.932 . S
C400 C401 1.264 . S
C400 C405 1.479 . S
C400 C410 1.465 . S
C401 C400 1.264 . S
C401 C403 1.339 . S
C401 H428 0.931 . S
C402 C403 1.395 . S
C402 C404 1.320 . S
C403 C401 1.339 . S
C403 C402 1.395 . S
C403 H429 0.929 . S
C404 C402 1.320 . S
C404 C405 1.405 . S
C404 H430 0.930 . S
C405 C400 1.479 . S
C405 C404 1.405 . S
C405 H431 0.931 . S
U406 O407 2.454 . S
U406 O408 2.458 . S
U406 C409 2.984 . S
U406 C410 2.847 . S
U406 C423 2.882 . S
U406 O424 2.441 . S
U406 O425 2.420 . S
U406 O426 2.455 . S
U406 O427 2.449 . S
O407 U406 2.454 . S
O407 C409 1.353 . S
O408 U406 2.458 . S
O408 C409 1.286 . S
C409 U406 2.984 . S
C409 O407 1.353 . S
C409 O408 1.286 . S
C409 C411 1.363 . S
C410 C400 1.465 . S
C410 U406 2.847 . S
C410 O424 1.249 . S
C410 O425 1.202 . S
C411 C409 1.363 . S
C411 C413 1.408 . S
C411 C416 1.342 . S
C412 C413 1.310 . S
C412 C415 1.461 . S
C412 H432 0.932 . S
C413 C411 1.408 . S
C413 C412 1.310 . S
C413 H433 0.930 . S
C414 C415 1.474 . S
C414 C416 1.285 . S
C414 H434 0.929 . S
C415 C412 1.461 . S
C415 C414 1.474 . S
C416 C411 1.342 . S
C416 C414 1.285 . S
C416 H435 0.930 . S
C417 C420 1.424 . S
C417 C422 1.245 . S
C417 C423 1.428 . S
C418 C421 1.260 . S
C418 C422 1.477 . S
C418 H436 0.932 . S
C419 C420 1.384 . S
C419 C421 1.479 . S
C419 H437 0.929 . S
C420 C417 1.424 . S
C420 C419 1.384 . S
C420 H438 0.928 . S
C421 C418 1.260 . S
C421 C419 1.479 . S
C422 C417 1.245 . S
C422 C418 1.477 . S
C422 H439 0.932 . S
C423 U406 2.882 . S
C423 C417 1.428 . S
C423 O426 1.301 . S
C423 O427 1.282 . S
O424 U406 2.441 . S
O424 C410 1.249 . S
O425 U406 2.420 . S
O425 C410 1.202 . S
O426 U406 2.455 . S
O426 C423 1.301 . S
O427 U406 2.449 . S
O427 C423 1.282 . S
H428 C401 0.931 . S
H429 C403 0.929 . S
H430 C404 0.930 . S
H431 C405 0.931 . S
H432 C412 0.932 . S
H433 C413 0.930 . S
H434 C414 0.929 . S
H435 C416 0.930 . S
H436 C418 0.932 . S
H437 C419 0.929 . S
H438 C420 0.928 . S
H439 C422 0.932 . S
C440 C441 1.264 . S
C440 C445 1.479 . S
C440 C450 1.465 . S
C441 C440 1.264 . S
C441 C443 1.339 . S
C441 H468 0.931 . S
C442 C443 1.395 . S
C442 C444 1.320 . S
C443 C441 1.339 . S
C443 C442 1.395 . S
C443 H469 0.929 . S
C444 C442 1.320 . S
C444 C445 1.405 . S
C444 H470 0.930 . S
C445 C440 1.479 . S
C445 C444 1.405 . S
C445 H471 0.931 . S
U446 O447 2.454 . S
U446 O448 2.458 . S
U446 C449 2.984 . S
U446 C450 2.847 . S
U446 C463 2.882 . S
U446 O464 2.441 . S
U446 O465 2.420 . S
U446 O466 2.455 . S
U446 O467 2.449 . S
O447 U446 2.454 . S
O447 C449 1.353 . S
O448 U446 2.458 . S
O448 C449 1.286 . S
C449 U446 2.984 . S
C449 O447 1.353 . S
C449 O448 1.286 . S
C449 C451 1.363 . S
C450 C440 1.465 . S
C450 U446 2.847 . S
C450 O464 1.249 . S
C450 O465 1.202 . S
C451 C449 1.363 . S
C451 C453 1.408 . S
C451 C456 1.342 . S
C452 C453 1.310 . S
C452 C455 1.461 . S
C452 H472 0.932 . S
C453 C451 1.408 . S
C453 C452 1.310 . S
C453 H473 0.930 . S
C454 C455 1.474 . S
C454 C456 1.285 . S
C454 H474 0.929 . S
C455 C452 1.461 . S
C455 C454 1.474 . S
C456 C451 1.342 . S
C456 C454 1.285 . S
C456 H475 0.930 . S
C457 C460 1.424 . S
C457 C462 1.245 . S
C457 C463 1.428 . S
C458 C461 1.260 . S
C458 C462 1.477 . S
C458 H476 0.932 . S
C459 C460 1.384 . S
C459 C461 1.479 . S
C459 H477 0.929 . S
C460 C457 1.424 . S
C460 C459 1.384 . S
C460 H478 0.928 . S
C461 C458 1.260 . S
C461 C459 1.479 . S
C462 C457 1.245 . S
C462 C458 1.477 . S
C462 H479 0.932 . S
C463 U446 2.882 . S
C463 C457 1.428 . S
C463 O466 1.301 . S
C463 O467 1.282 . S
O464 U446 2.441 . S
O464 C450 1.249 . S
O465 U446 2.420 . S
O465 C450 1.202 . S
O466 U446 2.455 . S
O466 C463 1.301 . S
O467 U446 2.449 . S
O467 C463 1.282 . S
H468 C441 0.931 . S
H469 C443 0.929 . S
H470 C444 0.930 . S
H471 C445 0.931 . S
H472 C452 0.932 . S
H473 C453 0.930 . S
H474 C454 0.929 . S
H475 C456 0.930 . S
H476 C458 0.932 . S
H477 C459 0.929 . S
H478 C460 0.928 . S
H479 C462 0.932 . S
C480 C481 1.264 . S
C480 C485 1.479 . S
C480 C490 1.465 . S
C481 C480 1.264 . S
C481 C483 1.339 . S
C481 H508 0.931 . S
C482 C483 1.395 . S
C482 C484 1.320 . S
C483 C481 1.339 . S
C483 C482 1.395 . S
C483 H509 0.929 . S
C484 C482 1.320 . S
C484 C485 1.405 . S
C484 H510 0.930 . S
C485 C480 1.479 . S
C485 C484 1.405 . S
C485 H511 0.931 . S
U486 O487 2.454 . S
U486 O488 2.458 . S
U486 C489 2.984 . S
U486 C490 2.847 . S
U486 C503 2.882 . S
U486 O504 2.441 . S
U486 O505 2.420 . S
U486 O506 2.455 . S
U486 O507 2.449 . S
O487 U486 2.454 . S
O487 C489 1.353 . S
O488 U486 2.458 . S
O488 C489 1.286 . S
C489 U486 2.984 . S
C489 O487 1.353 . S
C489 O488 1.286 . S
C489 C491 1.363 . S
C490 C480 1.465 . S
C490 U486 2.847 . S
C490 O504 1.249 . S
C490 O505 1.202 . S
C491 C489 1.363 . S
C491 C493 1.408 . S
C491 C496 1.342 . S
C492 C493 1.310 . S
C492 C495 1.461 . S
C492 H512 0.932 . S
C493 C491 1.408 . S
C493 C492 1.310 . S
C493 H513 0.930 . S
C494 C495 1.474 . S
C494 C496 1.285 . S
C494 H514 0.929 . S
C495 C492 1.461 . S
C495 C494 1.474 . S
C496 C491 1.342 . S
C496 C494 1.285 . S
C496 H515 0.930 . S
C497 C500 1.424 . S
C497 C502 1.245 . S
C497 C503 1.428 . S
C498 C501 1.260 . S
C498 C502 1.477 . S
C498 H516 0.932 . S
C499 C500 1.384 . S
C499 C501 1.479 . S
C499 H517 0.929 . S
C500 C497 1.424 . S
C500 C499 1.384 . S
C500 H518 0.928 . S
C501 C498 1.260 . S
C501 C499 1.479 . S
C502 C497 1.245 . S
C502 C498 1.477 . S
C502 H519 0.932 . S
C503 U486 2.882 . S
C503 C497 1.428 . S
C503 O506 1.301 . S
C503 O507 1.282 . S
O504 U486 2.441 . S
O504 C490 1.249 . S
O505 U486 2.420 . S
O505 C490 1.202 . S
O506 U486 2.455 . S
O506 C503 1.301 . S
O507 U486 2.449 . S
O507 C503 1.282 . S
H508 C481 0.931 . S
H509 C483 0.929 . S
H510 C484 0.930 . S
H511 C485 0.931 . S
H512 C492 0.932 . S
H513 C493 0.930 . S
H514 C494 0.929 . S
H515 C496 0.930 . S
H516 C498 0.932 . S
H517 C499 0.929 . S
H518 C500 0.928 . S
H519 C502 0.932 . S
C520 C521 1.264 . S
C520 C525 1.479 . S
C520 C530 1.465 . S
C521 C520 1.264 . S
C521 C523 1.339 . S
C521 H548 0.931 . S
C522 C523 1.395 . S
C522 C524 1.320 . S
C523 C521 1.339 . S
C523 C522 1.395 . S
C523 H549 0.929 . S
C524 C522 1.320 . S
C524 C525 1.405 . S
C524 H550 0.930 . S
C525 C520 1.479 . S
C525 C524 1.405 . S
C525 H551 0.931 . S
U526 O527 2.454 . S
U526 O528 2.458 . S
U526 C529 2.984 . S
U526 C530 2.847 . S
U526 C543 2.882 . S
U526 O544 2.441 . S
U526 O545 2.420 . S
U526 O546 2.455 . S
U526 O547 2.449 . S
O527 U526 2.454 . S
O527 C529 1.353 . S
O528 U526 2.458 . S
O528 C529 1.286 . S
C529 U526 2.984 . S
C529 O527 1.353 . S
C529 O528 1.286 . S
C529 C531 1.363 . S
C530 C520 1.465 . S
C530 U526 2.847 . S
C530 O544 1.249 . S
C530 O545 1.202 . S
C531 C529 1.363 . S
C531 C533 1.408 . S
C531 C536 1.342 . S
C532 C533 1.310 . S
C532 C535 1.461 . S
C532 H552 0.932 . S
C533 C531 1.408 . S
C533 C532 1.310 . S
C533 H553 0.930 . S
C534 C535 1.474 . S
C534 C536 1.285 . S
C534 H554 0.929 . S
C535 C532 1.461 . S
C535 C534 1.474 . S
C536 C531 1.342 . S
C536 C534 1.285 . S
C536 H555 0.930 . S
C537 C540 1.424 . S
C537 C542 1.245 . S
C537 C543 1.428 . S
C538 C541 1.260 . S
C538 C542 1.477 . S
C538 H556 0.932 . S
C539 C540 1.384 . S
C539 C541 1.479 . S
C539 H557 0.929 . S
C540 C537 1.424 . S
C540 C539 1.384 . S
C540 H558 0.928 . S
C541 C538 1.260 . S
C541 C539 1.479 . S
C542 C537 1.245 . S
C542 C538 1.477 . S
C542 H559 0.932 . S
C543 U526 2.882 . S
C543 C537 1.428 . S
C543 O546 1.301 . S
C543 O547 1.282 . S
O544 U526 2.441 . S
O544 C530 1.249 . S
O545 U526 2.420 . S
O545 C530 1.202 . S
O546 U526 2.455 . S
O546 C543 1.301 . S
O547 U526 2.449 . S
O547 C543 1.282 . S
H548 C521 0.931 . S
H549 C523 0.929 . S
H550 C524 0.930 . S
H551 C525 0.931 . S
H552 C532 0.932 . S
H553 C533 0.930 . S
H554 C534 0.929 . S
H555 C536 0.930 . S
H556 C538 0.932 . S
H557 C539 0.929 . S
H558 C540 0.928 . S
H559 C542 0.932 . S
C560 C561 1.264 . S
C560 C565 1.479 . S
C560 C570 1.465 . S
C561 C560 1.264 . S
C561 C563 1.339 . S
C561 H588 0.931 . S
C562 C563 1.395 . S
C562 C564 1.320 . S
C563 C561 1.339 . S
C563 C562 1.395 . S
C563 H589 0.929 . S
C564 C562 1.320 . S
C564 C565 1.405 . S
C564 H590 0.930 . S
C565 C560 1.479 . S
C565 C564 1.405 . S
C565 H591 0.931 . S
U566 O567 2.454 . S
U566 O568 2.458 . S
U566 C569 2.984 . S
U566 C570 2.847 . S
U566 C583 2.882 . S
U566 O584 2.441 . S
U566 O585 2.420 . S
U566 O586 2.455 . S
U566 O587 2.449 . S
O567 U566 2.454 . S
O567 C569 1.353 . S
O568 U566 2.458 . S
O568 C569 1.286 . S
C569 U566 2.984 . S
C569 O567 1.353 . S
C569 O568 1.286 . S
C569 C571 1.363 . S
C570 C560 1.465 . S
C570 U566 2.847 . S
C570 O584 1.249 . S
C570 O585 1.202 . S
C571 C569 1.363 . S
C571 C573 1.408 . S
C571 C576 1.342 . S
C572 C573 1.310 . S
C572 C575 1.461 . S
C572 H592 0.932 . S
C573 C571 1.408 . S
C573 C572 1.310 . S
C573 H593 0.930 . S
C574 C575 1.474 . S
C574 C576 1.285 . S
C574 H594 0.929 . S
C575 C572 1.461 . S
C575 C574 1.474 . S
C576 C571 1.342 . S
C576 C574 1.285 . S
C576 H595 0.930 . S
C577 C580 1.424 . S
C577 C582 1.245 . S
C577 C583 1.428 . S
C578 C581 1.260 . S
C578 C582 1.477 . S
C578 H596 0.932 . S
C579 C580 1.384 . S
C579 C581 1.479 . S
C579 H597 0.929 . S
C580 C577 1.424 . S
C580 C579 1.384 . S
C580 H598 0.928 . S
C581 C578 1.260 . S
C581 C579 1.479 . S
C582 C577 1.245 . S
C582 C578 1.477 . S
C582 H599 0.932 . S
C583 U566 2.882 . S
C583 C577 1.428 . S
C583 O586 1.301 . S
C583 O587 1.282 . S
O584 U566 2.441 . S
O584 C570 1.249 . S
O585 U566 2.420 . S
O585 C570 1.202 . S
O586 U566 2.455 . S
O586 C583 1.301 . S
O587 U566 2.449 . S
O587 C583 1.282 . S
H588 C561 0.931 . S
H589 C563 0.929 . S
H590 C564 0.930 . S
H591 C565 0.931 . S
H592 C572 0.932 . S
H593 C573 0.930 . S
H594 C574 0.929 . S
H595 C576 0.930 . S
H596 C578 0.932 . S
H597 C579 0.929 . S
H598 C580 0.928 . S
H599 C582 0.932 . S
C600 C601 1.264 . S
C600 C605 1.479 . S
C600 C610 1.465 . S
C601 C600 1.264 . S
C601 C603 1.339 . S
C601 H628 0.931 . S
C602 C603 1.395 . S
C602 C604 1.320 . S
C603 C601 1.339 . S
C603 C602 1.395 . S
C603 H629 0.929 . S
C604 C602 1.320 . S
C604 C605 1.405 . S
C604 H630 0.930 . S
C605 C600 1.479 . S
C605 C604 1.405 . S
C605 H631 0.931 . S
U606 O607 2.454 . S
U606 O608 2.458 . S
U606 C609 2.984 . S
U606 C610 2.847 . S
U606 C623 2.882 . S
U606 O624 2.441 . S
U606 O625 2.420 . S
U606 O626 2.455 . S
U606 O627 2.449 . S
O607 U606 2.454 . S
O607 C609 1.353 . S
O608 U606 2.458 . S
O608 C609 1.286 . S
C609 U606 2.984 . S
C609 O607 1.353 . S
C609 O608 1.286 . S
C609 C611 1.363 . S
C610 C600 1.465 . S
C610 U606 2.847 . S
C610 O624 1.249 . S
C610 O625 1.202 . S
C611 C609 1.363 . S
C611 C613 1.408 . S
C611 C616 1.342 . S
C612 C613 1.310 . S
C612 C615 1.461 . S
C612 H632 0.932 . S
C613 C611 1.408 . S
C613 C612 1.310 . S
C613 H633 0.930 . S
C614 C615 1.474 . S
C614 C616 1.285 . S
C614 H634 0.929 . S
C615 C612 1.461 . S
C615 C614 1.474 . S
C616 C611 1.342 . S
C616 C614 1.285 . S
C616 H635 0.930 . S
C617 C620 1.424 . S
C617 C622 1.245 . S
C617 C623 1.428 . S
C618 C621 1.260 . S
C618 C622 1.477 . S
C618 H636 0.932 . S
C619 C620 1.384 . S
C619 C621 1.479 . S
C619 H637 0.929 . S
C620 C617 1.424 . S
C620 C619 1.384 . S
C620 H638 0.928 . S
C621 C618 1.260 . S
C621 C619 1.479 . S
C622 C617 1.245 . S
C622 C618 1.477 . S
C622 H639 0.932 . S
C623 U606 2.882 . S
C623 C617 1.428 . S
C623 O626 1.301 . S
C623 O627 1.282 . S
O624 U606 2.441 . S
O624 C610 1.249 . S
O625 U606 2.420 . S
O625 C610 1.202 . S
O626 U606 2.455 . S
O626 C623 1.301 . S
O627 U606 2.449 . S
O627 C623 1.282 . S
H628 C601 0.931 . S
H629 C603 0.929 . S
H630 C604 0.930 . S
H631 C605 0.931 . S
H632 C612 0.932 . S
H633 C613 0.930 . S
H634 C614 0.929 . S
H635 C616 0.930 . S
H636 C618 0.932 . S
H637 C619 0.929 . S
H638 C620 0.928 . S
H639 C622 0.932 . S
C640 C641 1.264 . S
C640 C645 1.479 . S
C640 C650 1.465 . S
C641 C640 1.264 . S
C641 C643 1.339 . S
C641 H668 0.931 . S
C642 C643 1.395 . S
C642 C644 1.320 . S
C643 C641 1.339 . S
C643 C642 1.395 . S
C643 H669 0.929 . S
C644 C642 1.320 . S
C644 C645 1.405 . S
C644 H670 0.930 . S
C645 C640 1.479 . S
C645 C644 1.405 . S
C645 H671 0.931 . S
U646 O647 2.454 . S
U646 O648 2.458 . S
U646 C649 2.984 . S
U646 C650 2.847 . S
U646 C663 2.882 . S
U646 O664 2.441 . S
U646 O665 2.420 . S
U646 O666 2.455 . S
U646 O667 2.449 . S
O647 U646 2.454 . S
O647 C649 1.353 . S
O648 U646 2.458 . S
O648 C649 1.286 . S
C649 U646 2.984 . S
C649 O647 1.353 . S
C649 O648 1.286 . S
C649 C651 1.363 . S
C650 C640 1.465 . S
C650 U646 2.847 . S
C650 O664 1.249 . S
C650 O665 1.202 . S
C651 C649 1.363 . S
C651 C653 1.408 . S
C651 C656 1.342 . S
C652 C653 1.310 . S
C652 C655 1.461 . S
C652 H672 0.932 . S
C653 C651 1.408 . S
C653 C652 1.310 . S
C653 H673 0.930 . S
C654 C655 1.474 . S
C654 C656 1.285 . S
C654 H674 0.929 . S
C655 C652 1.461 . S
C655 C654 1.474 . S
C656 C651 1.342 . S
C656 C654 1.285 . S
C656 H675 0.930 . S
C657 C660 1.424 . S
C657 C662 1.245 . S
C657 C663 1.428 . S
C658 C661 1.260 . S
C658 C662 1.477 . S
C658 H676 0.932 . S
C659 C660 1.384 . S
C659 C661 1.479 . S
C659 H677 0.929 . S
C660 C657 1.424 . S
C660 C659 1.384 . S
C660 H678 0.928 . S
C661 C658 1.260 . S
C661 C659 1.479 . S
C662 C657 1.245 . S
C662 C658 1.477 . S
C662 H679 0.932 . S
C663 U646 2.882 . S
C663 C657 1.428 . S
C663 O666 1.301 . S
C663 O667 1.282 . S
O664 U646 2.441 . S
O664 C650 1.249 . S
O665 U646 2.420 . S
O665 C650 1.202 . S
O666 U646 2.455 . S
O666 C663 1.301 . S
O667 U646 2.449 . S
O667 C663 1.282 . S
H668 C641 0.931 . S
H669 C643 0.929 . S
H670 C644 0.930 . S
H671 C645 0.931 . S
H672 C652 0.932 . S
H673 C653 0.930 . S
H674 C654 0.929 . S
H675 C656 0.930 . S
H676 C658 0.932 . S
H677 C659 0.929 . S
H678 C660 0.928 . S
H679 C662 0.932 . S
C680 C681 1.264 . S
C680 C685 1.479 . S
C680 C690 1.465 . S
C681 C680 1.264 . S
C681 C683 1.339 . S
C681 H708 0.931 . S
C682 C683 1.395 . S
C682 C684 1.320 . S
C683 C681 1.339 . S
C683 C682 1.395 . S
C683 H709 0.929 . S
C684 C682 1.320 . S
C684 C685 1.405 . S
C684 H710 0.930 . S
C685 C680 1.479 . S
C685 C684 1.405 . S
C685 H711 0.931 . S
U686 O687 2.454 . S
U686 O688 2.458 . S
U686 C689 2.984 . S
U686 C690 2.847 . S
U686 C703 2.882 . S
U686 O704 2.441 . S
U686 O705 2.420 . S
U686 O706 2.455 . S
U686 O707 2.449 . S
O687 U686 2.454 . S
O687 C689 1.353 . S
O688 U686 2.458 . S
O688 C689 1.286 . S
C689 U686 2.984 . S
C689 O687 1.353 . S
C689 O688 1.286 . S
C689 C691 1.363 . S
C690 C680 1.465 . S
C690 U686 2.847 . S
C690 O704 1.249 . S
C690 O705 1.202 . S
C691 C689 1.363 . S
C691 C693 1.408 . S
C691 C696 1.342 . S
C692 C693 1.310 . S
C692 C695 1.461 . S
C692 H712 0.932 . S
C693 C691 1.408 . S
C693 C692 1.310 . S
C693 H713 0.930 . S
C694 C695 1.474 . S
C694 C696 1.285 . S
C694 H714 0.929 . S
C695 C692 1.461 . S
C695 C694 1.474 . S
C696 C691 1.342 . S
C696 C694 1.285 . S
C696 H715 0.930 . S
C697 C700 1.424 . S
C697 C702 1.245 . S
C697 C703 1.428 . S
C698 C701 1.260 . S
C698 C702 1.477 . S
C698 H716 0.932 . S
C699 C700 1.384 . S
C699 C701 1.479 . S
C699 H717 0.929 . S
C700 C697 1.424 . S
C700 C699 1.384 . S
C700 H718 0.928 . S
C701 C698 1.260 . S
C701 C699 1.479 . S
C702 C697 1.245 . S
C702 C698 1.477 . S
C702 H719 0.932 . S
C703 U686 2.882 . S
C703 C697 1.428 . S
C703 O706 1.301 . S
C703 O707 1.282 . S
O704 U686 2.441 . S
O704 C690 1.249 . S
O705 U686 2.420 . S
O705 C690 1.202 . S
O706 U686 2.455 . S
O706 C703 1.301 . S
O707 U686 2.449 . S
O707 C703 1.282 . S
H708 C681 0.931 . S
H709 C683 0.929 . S
H710 C684 0.930 . S
H711 C685 0.931 . S
H712 C692 0.932 . S
H713 C693 0.930 . S
H714 C694 0.929 . S
H715 C696 0.930 . S
H716 C698 0.932 . S
H717 C699 0.929 . S
H718 C700 0.928 . S
H719 C702 0.932 . S
C720 C721 1.264 . S
C720 C725 1.479 . S
C720 C730 1.465 . S
C721 C720 1.264 . S
C721 C723 1.339 . S
C721 H748 0.931 . S
C722 C723 1.395 . S
C722 C724 1.320 . S
C723 C721 1.339 . S
C723 C722 1.395 . S
C723 H749 0.929 . S
C724 C722 1.320 . S
C724 C725 1.405 . S
C724 H750 0.930 . S
C725 C720 1.479 . S
C725 C724 1.405 . S
C725 H751 0.931 . S
U726 O727 2.454 . S
U726 O728 2.458 . S
U726 C729 2.984 . S
U726 C730 2.847 . S
U726 C743 2.882 . S
U726 O744 2.441 . S
U726 O745 2.420 . S
U726 O746 2.455 . S
U726 O747 2.449 . S
O727 U726 2.454 . S
O727 C729 1.353 . S
O728 U726 2.458 . S
O728 C729 1.286 . S
C729 U726 2.984 . S
C729 O727 1.353 . S
C729 O728 1.286 . S
C729 C731 1.363 . S
C730 C720 1.465 . S
C730 U726 2.847 . S
C730 O744 1.249 . S
C730 O745 1.202 . S
C731 C729 1.363 . S
C731 C733 1.408 . S
C731 C736 1.342 . S
C732 C733 1.310 . S
C732 C735 1.461 . S
C732 H752 0.932 . S
C733 C731 1.408 . S
C733 C732 1.310 . S
C733 H753 0.930 . S
C734 C735 1.474 . S
C734 C736 1.285 . S
C734 H754 0.929 . S
C735 C732 1.461 . S
C735 C734 1.474 . S
C736 C731 1.342 . S
C736 C734 1.285 . S
C736 H755 0.930 . S
C737 C740 1.424 . S
C737 C742 1.245 . S
C737 C743 1.428 . S
C738 C741 1.260 . S
C738 C742 1.477 . S
C738 H756 0.932 . S
C739 C740 1.384 . S
C739 C741 1.479 . S
C739 H757 0.929 . S
C740 C737 1.424 . S
C740 C739 1.384 . S
C740 H758 0.928 . S
C741 C738 1.260 . S
C741 C739 1.479 . S
C742 C737 1.245 . S
C742 C738 1.477 . S
C742 H759 0.932 . S
C743 U726 2.882 . S
C743 C737 1.428 . S
C743 O746 1.301 . S
C743 O747 1.282 . S
O744 U726 2.441 . S
O744 C730 1.249 . S
O745 U726 2.420 . S
O745 C730 1.202 . S
O746 U726 2.455 . S
O746 C743 1.301 . S
O747 U726 2.449 . S
O747 C743 1.282 . S
H748 C721 0.931 . S
H749 C723 0.929 . S
H750 C724 0.930 . S
H751 C725 0.931 . S
H752 C732 0.932 . S
H753 C733 0.930 . S
H754 C734 0.929 . S
H755 C736 0.930 . S
H756 C738 0.932 . S
H757 C739 0.929 . S
H758 C740 0.928 . S
H759 C742 0.932 . S
C760 C761 1.264 . S
C760 C765 1.479 . S
C760 C770 1.465 . S
C761 C760 1.264 . S
C761 C763 1.339 . S
C761 H788 0.931 . S
C762 C763 1.395 . S
C762 C764 1.320 . S
C763 C761 1.339 . S
C763 C762 1.395 . S
C763 H789 0.929 . S
C764 C762 1.320 . S
C764 C765 1.405 . S
C764 H790 0.930 . S
C765 C760 1.479 . S
C765 C764 1.405 . S
C765 H791 0.931 . S
U766 O767 2.454 . S
U766 O768 2.458 . S
U766 C769 2.984 . S
U766 C770 2.847 . S
U766 C783 2.882 . S
U766 O784 2.441 . S
U766 O785 2.420 . S
U766 O786 2.455 . S
U766 O787 2.449 . S
O767 U766 2.454 . S
O767 C769 1.353 . S
O768 U766 2.458 . S
O768 C769 1.286 . S
C769 U766 2.984 . S
C769 O767 1.353 . S
C769 O768 1.286 . S
C769 C771 1.363 . S
C770 C760 1.465 . S
C770 U766 2.847 . S
C770 O784 1.249 . S
C770 O785 1.202 . S
C771 C769 1.363 . S
C771 C773 1.408 . S
C771 C776 1.342 . S
C772 C773 1.310 . S
C772 C775 1.461 . S
C772 H792 0.932 . S
C773 C771 1.408 . S
C773 C772 1.310 . S
C773 H793 0.930 . S
C774 C775 1.474 . S
C774 C776 1.285 . S
C774 H794 0.929 . S
C775 C772 1.461 . S
C775 C774 1.474 . S
C776 C771 1.342 . S
C776 C774 1.285 . S
C776 H795 0.930 . S
C777 C780 1.424 . S
C777 C782 1.245 . S
C777 C783 1.428 . S
C778 C781 1.260 . S
C778 C782 1.477 . S
C778 H796 0.932 . S
C779 C780 1.384 . S
C779 C781 1.479 . S
C779 H797 0.929 . S
C780 C777 1.424 . S
C780 C779 1.384 . S
C780 H798 0.928 . S
C781 C778 1.260 . S
C781 C779 1.479 . S
C782 C777 1.245 . S
C782 C778 1.477 . S
C782 H799 0.932 . S
C783 U766 2.882 . S
C783 C777 1.428 . S
C783 O786 1.301 . S
C783 O787 1.282 . S
O784 U766 2.441 . S
O784 C770 1.249 . S
O785 U766 2.420 . S
O785 C770 1.202 . S
O786 U766 2.455 . S
O786 C783 1.301 . S
O787 U766 2.449 . S
O787 C783 1.282 . S
H788 C761 0.931 . S
H789 C763 0.929 . S
H790 C764 0.930 . S
H791 C765 0.931 . S
H792 C772 0.932 . S
H793 C773 0.930 . S
H794 C774 0.929 . S
H795 C776 0.930 . S
H796 C778 0.932 . S
H797 C779 0.929 . S
H798 C780 0.928 . S
H799 C782 0.932 . S
C800 C801 1.264 . S
C800 C805 1.479 . S
C800 C810 1.465 . S
C801 C800 1.264 . S
C801 C803 1.339 . S
C801 H828 0.931 . S
C802 C803 1.395 . S
C802 C804 1.320 . S
C803 C801 1.339 . S
C803 C802 1.395 . S
C803 H829 0.929 . S
C804 C802 1.320 . S
C804 C805 1.405 . S
C804 H830 0.930 . S
C805 C800 1.479 . S
C805 C804 1.405 . S
C805 H831 0.931 . S
U806 O807 2.454 . S
U806 O808 2.458 . S
U806 C809 2.984 . S
U806 C810 2.847 . S
U806 C823 2.882 . S
U806 O824 2.441 . S
U806 O825 2.420 . S
U806 O826 2.455 . S
U806 O827 2.449 . S
O807 U806 2.454 . S
O807 C809 1.353 . S
O808 U806 2.458 . S
O808 C809 1.286 . S
C809 U806 2.984 . S
C809 O807 1.353 . S
C809 O808 1.286 . S
C809 C811 1.363 . S
C810 C800 1.465 . S
C810 U806 2.847 . S
C810 O824 1.249 . S
C810 O825 1.202 . S
C811 C809 1.363 . S
C811 C813 1.408 . S
C811 C816 1.342 . S
C812 C813 1.310 . S
C812 C815 1.461 . S
C812 H832 0.932 . S
C813 C811 1.408 . S
C813 C812 1.310 . S
C813 H833 0.930 . S
C814 C815 1.474 . S
C814 C816 1.285 . S
C814 H834 0.929 . S
C815 C812 1.461 . S
C815 C814 1.474 . S
C816 C811 1.342 . S
C816 C814 1.285 . S
C816 H835 0.930 . S
C817 C820 1.424 . S
C817 C822 1.245 . S
C817 C823 1.428 . S
C818 C821 1.260 . S
C818 C822 1.477 . S
C818 H836 0.932 . S
C819 C820 1.384 . S
C819 C821 1.479 . S
C819 H837 0.929 . S
C820 C817 1.424 . S
C820 C819 1.384 . S
C820 H838 0.928 . S
C821 C818 1.260 . S
C821 C819 1.479 . S
C822 C817 1.245 . S
C822 C818 1.477 . S
C822 H839 0.932 . S
C823 U806 2.882 . S
C823 C817 1.428 . S
C823 O826 1.301 . S
C823 O827 1.282 . S
O824 U806 2.441 . S
O824 C810 1.249 . S
O825 U806 2.420 . S
O825 C810 1.202 . S
O826 U806 2.455 . S
O826 C823 1.301 . S
O827 U806 2.449 . S
O827 C823 1.282 . S
H828 C801 0.931 . S
H829 C803 0.929 . S
H830 C804 0.930 . S
H831 C805 0.931 . S
H832 C812 0.932 . S
H833 C813 0.930 . S
H834 C814 0.929 . S
H835 C816 0.930 . S
H836 C818 0.932 . S
H837 C819 0.929 . S
H838 C820 0.928 . S
H839 C822 0.932 . S
C840 C841 1.264 . S
C840 C845 1.479 . S
C840 C850 1.465 . S
C841 C840 1.264 . S
C841 C843 1.339 . S
C841 H868 0.931 . S
C842 C843 1.395 . S
C842 C844 1.320 . S
C843 C841 1.339 . S
C843 C842 1.395 . S
C843 H869 0.929 . S
C844 C842 1.320 . S
C844 C845 1.405 . S
C844 H870 0.930 . S
C845 C840 1.479 . S
C845 C844 1.405 . S
C845 H871 0.931 . S
U846 O847 2.454 . S
U846 O848 2.458 . S
U846 C849 2.984 . S
U846 C850 2.847 . S
U846 C863 2.882 . S
U846 O864 2.441 . S
U846 O865 2.420 . S
U846 O866 2.455 . S
U846 O867 2.449 . S
O847 U846 2.454 . S
O847 C849 1.353 . S
O848 U846 2.458 . S
O848 C849 1.286 . S
C849 U846 2.984 . S
C849 O847 1.353 . S
C849 O848 1.286 . S
C849 C851 1.363 . S
C850 C840 1.465 . S
C850 U846 2.847 . S
C850 O864 1.249 . S
C850 O865 1.202 . S
C851 C849 1.363 . S
C851 C853 1.408 . S
C851 C856 1.342 . S
C852 C853 1.310 . S
C852 C855 1.461 . S
C852 H872 0.932 . S
C853 C851 1.408 . S
C853 C852 1.310 . S
C853 H873 0.930 . S
C854 C855 1.474 . S
C854 C856 1.285 . S
C854 H874 0.929 . S
C855 C852 1.461 . S
C855 C854 1.474 . S
C856 C851 1.342 . S
C856 C854 1.285 . S
C856 H875 0.930 . S
C857 C860 1.424 . S
C857 C862 1.245 . S
C857 C863 1.428 . S
C858 C861 1.260 . S
C858 C862 1.477 . S
C858 H876 0.932 . S
C859 C860 1.384 . S
C859 C861 1.479 . S
C859 H877 0.929 . S
C860 C857 1.424 . S
C860 C859 1.384 . S
C860 H878 0.928 . S
C861 C858 1.260 . S
C861 C859 1.479 . S
C862 C857 1.245 . S
C862 C858 1.477 . S
C862 H879 0.932 . S
C863 U846 2.882 . S
C863 C857 1.428 . S
C863 O866 1.301 . S
C863 O867 1.282 . S
O864 U846 2.441 . S
O864 C850 1.249 . S
O865 U846 2.420 . S
O865 C850 1.202 . S
O866 U846 2.455 . S
O866 C863 1.301 . S
O867 U846 2.449 . S
O867 C863 1.282 . S
H868 C841 0.931 . S
H869 C843 0.929 . S
H870 C844 0.930 . S
H871 C845 0.931 . S
H872 C852 0.932 . S
H873 C853 0.930 . S
H874 C854 0.929 . S
H875 C856 0.930 . S
H876 C858 0.932 . S
H877 C859 0.929 . S
H878 C860 0.928 . S
H879 C862 0.932 . S
C880 C881 1.264 . S
C880 C885 1.479 . S
C880 C890 1.465 . S
C881 C880 1.264 . S
C881 C883 1.339 . S
C881 H908 0.931 . S
C882 C883 1.395 . S
C882 C884 1.320 . S
C883 C881 1.339 . S
C883 C882 1.395 . S
C883 H909 0.929 . S
C884 C882 1.320 . S
C884 C885 1.405 . S
C884 H910 0.930 . S
C885 C880 1.479 . S
C885 C884 1.405 . S
C885 H911 0.931 . S
U886 O887 2.454 . S
U886 O888 2.458 . S
U886 C889 2.984 . S
U886 C890 2.847 . S
U886 C903 2.882 . S
U886 O904 2.441 . S
U886 O905 2.420 . S
U886 O906 2.455 . S
U886 O907 2.449 . S
O887 U886 2.454 . S
O887 C889 1.353 . S
O888 U886 2.458 . S
O888 C889 1.286 . S
C889 U886 2.984 . S
C889 O887 1.353 . S
C889 O888 1.286 . S
C889 C891 1.363 . S
C890 C880 1.465 . S
C890 U886 2.847 . S
C890 O904 1.249 . S
C890 O905 1.202 . S
C891 C889 1.363 . S
C891 C893 1.408 . S
C891 C896 1.342 . S
C892 C893 1.310 . S
C892 C895 1.461 . S
C892 H912 0.932 . S
C893 C891 1.408 . S
C893 C892 1.310 . S
C893 H913 0.930 . S
C894 C895 1.474 . S
C894 C896 1.285 . S
C894 H914 0.929 . S
C895 C892 1.461 . S
C895 C894 1.474 . S
C896 C891 1.342 . S
C896 C894 1.285 . S
C896 H915 0.930 . S
C897 C900 1.424 . S
C897 C902 1.245 . S
C897 C903 1.428 . S
C898 C901 1.260 . S
C898 C902 1.477 . S
C898 H916 0.932 . S
C899 C900 1.384 . S
C899 C901 1.479 . S
C899 H917 0.929 . S
C900 C897 1.424 . S
C900 C899 1.384 . S
C900 H918 0.928 . S
C901 C898 1.260 . S
C901 C899 1.479 . S
C902 C897 1.245 . S
C902 C898 1.477 . S
C902 H919 0.932 . S
C903 U886 2.882 . S
C903 C897 1.428 . S
C903 O906 1.301 . S
C903 O907 1.282 . S
O904 U886 2.441 . S
O904 C890 1.249 . S
O905 U886 2.420 . S
O905 C890 1.202 . S
O906 U886 2.455 . S
O906 C903 1.301 . S
O907 U886 2.449 . S
O907 C903 1.282 . S
H908 C881 0.931 . S
H909 C883 0.929 . S
H910 C884 0.930 . S
H911 C885 0.931 . S
H912 C892 0.932 . S
H913 C893 0.930 . S
H914 C894 0.929 . S
H915 C896 0.930 . S
H916 C898 0.932 . S
H917 C899 0.929 . S
H918 C900 0.928 . S
H919 C902 0.932 . S
C920 C921 1.264 . S
C920 C925 1.479 . S
C920 C930 1.465 . S
C921 C920 1.264 . S
C921 C923 1.339 . S
C921 H948 0.931 . S
C922 C923 1.395 . S
C922 C924 1.320 . S
C923 C921 1.339 . S
C923 C922 1.395 . S
C923 H949 0.929 . S
C924 C922 1.320 . S
C924 C925 1.405 . S
C924 H950 0.930 . S
C925 C920 1.479 . S
C925 C924 1.405 . S
C925 H951 0.931 . S
U926 O927 2.454 . S
U926 O928 2.458 . S
U926 C929 2.984 . S
U926 C930 2.847 . S
U926 C943 2.882 . S
U926 O944 2.441 . S
U926 O945 2.420 . S
U926 O946 2.455 . S
U926 O947 2.449 . S
O927 U926 2.454 . S
O927 C929 1.353 . S
O928 U926 2.458 . S
O928 C929 1.286 . S
C929 U926 2.984 . S
C929 O927 1.353 . S
C929 O928 1.286 . S
C929 C931 1.363 . S
C930 C920 1.465 . S
C930 U926 2.847 . S
C930 O944 1.249 . S
C930 O945 1.202 . S
C931 C929 1.363 . S
C931 C933 1.408 . S
C931 C936 1.342 . S
C932 C933 1.310 . S
C932 C935 1.461 . S
C932 H952 0.932 . S
C933 C931 1.408 . S
C933 C932 1.310 . S
C933 H953 0.930 . S
C934 C935 1.474 . S
C934 C936 1.285 . S
C934 H954 0.929 . S
C935 C932 1.461 . S
C935 C934 1.474 . S
C936 C931 1.342 . S
C936 C934 1.285 . S
C936 H955 0.930 . S
C937 C940 1.424 . S
C937 C942 1.245 . S
C937 C943 1.428 . S
C938 C941 1.260 . S
C938 C942 1.477 . S
C938 H956 0.932 . S
C939 C940 1.384 . S
C939 C941 1.479 . S
C939 H957 0.929 . S
C940 C937 1.424 . S
C940 C939 1.384 . S
C940 H958 0.928 . S
C941 C938 1.260 . S
C941 C939 1.479 . S
C942 C937 1.245 . S
C942 C938 1.477 . S
C942 H959 0.932 . S
C943 U926 2.882 . S
C943 C937 1.428 . S
C943 O946 1.301 . S
C943 O947 1.282 . S
O944 U926 2.441 . S
O944 C930 1.249 . S
O945 U926 2.420 . S
O945 C930 1.202 . S
O946 U926 2.455 . S
O946 C943 1.301 . S
O947 U926 2.449 . S
O947 C943 1.282 . S
H948 C921 0.931 . S
H949 C923 0.929 . S
H950 C924 0.930 . S
H951 C925 0.931 . S
H952 C932 0.932 . S
H953 C933 0.930 . S
H954 C934 0.929 . S
H955 C936 0.930 . S
H956 C938 0.932 . S
H957 C939 0.929 . S
H958 C940 0.928 . S
H959 C942 0.932 . S
C960 C961 1.264 . S
C960 C965 1.479 . S
C960 C970 1.465 . S
C961 C960 1.264 . S
C961 C963 1.339 . S
C961 H988 0.931 . S
C962 C963 1.395 . S
C962 C964 1.320 . S
C963 C961 1.339 . S
C963 C962 1.395 . S
C963 H989 0.929 . S
C964 C962 1.320 . S
C964 C965 1.405 . S
C964 H990 0.930 . S
C965 C960 1.479 . S
C965 C964 1.405 . S
C965 H991 0.931 . S
U966 O967 2.454 . S
U966 O968 2.458 . S
U966 C969 2.984 . S
U966 C970 2.847 . S
U966 C983 2.882 . S
U966 O984 2.441 . S
U966 O985 2.420 . S
U966 O986 2.455 . S
U966 O987 2.449 . S
O967 U966 2.454 . S
O967 C969 1.353 . S
O968 U966 2.458 . S
O968 C969 1.286 . S
C969 U966 2.984 . S
C969 O967 1.353 . S
C969 O968 1.286 . S
C969 C971 1.363 . S
C970 C960 1.465 . S
C970 U966 2.847 . S
C970 O984 1.249 . S
C970 O985 1.202 . S
C971 C969 1.363 . S
C971 C973 1.408 . S
C971 C976 1.342 . S
C972 C973 1.310 . S
C972 C975 1.461 . S
C972 H992 0.932 . S
C973 C971 1.408 . S
C973 C972 1.310 . S
C973 H993 0.930 . S
C974 C975 1.474 . S
C974 C976 1.285 . S
C974 H994 0.929 . S
C975 C972 1.461 . S
C975 C974 1.474 . S
C976 C971 1.342 . S
C976 C974 1.285 . S
C976 H995 0.930 . S
C977 C980 1.424 . S
C977 C982 1.245 . S
C977 C983 1.428 . S
C978 C981 1.260 . S
C978 C982 1.477 . S
C978 H996 0.932 . S
C979 C980 1.384 . S
C979 C981 1.479 . S
C979 H997 0.929 . S
C980 C977 1.424 . S
C980 C979 1.384 . S
C980 H998 0.928 . S
C981 C978 1.260 . S
C981 C979 1.479 . S
C982 C977 1.245 . S
C982 C978 1.477 . S
C982 H999 0.932 . S
C983 U966 2.882 . S
C983 C977 1.428 . S
C983 O986 1.301 . S
C983 O987 1.282 . S
O984 U966 2.441 . S
O984 C970 1.249 . S
O985 U966 2.420 . S
O985 C970 1.202 . S
O986 U966 2.455 . S
O986 C983 1.301 . S
O987 U966 2.449 . S
O987 C983 1.282 . S
H988 C961 0.931 . S
H989 C963 0.929 . S
H990 C964 0.930 . S
H991 C965 0.931 . S
H992 C972 0.932 . S
H993 C973 0.930 . S
H994 C974 0.929 . S
H995 C976 0.930 . S
H996 C978 0.932 . S
H997 C979 0.929 . S
H998 C980 0.928 . S
H999 C982 0.932 . S
C1000 C1001 1.264 . S
C1000 C1005 1.479 . S
C1000 C1010 1.465 . S
C1001 C1000 1.264 . S
C1001 C1003 1.339 . S
C1001 H1028 0.931 . S
C1002 C1003 1.395 . S
C1002 C1004 1.320 . S
C1003 C1001 1.339 . S
C1003 C1002 1.395 . S
C1003 H1029 0.929 . S
C1004 C1002 1.320 . S
C1004 C1005 1.405 . S
C1004 H1030 0.930 . S
C1005 C1000 1.479 . S
C1005 C1004 1.405 . S
C1005 H1031 0.931 . S
U1006 O1007 2.454 . S
U1006 O1008 2.458 . S
U1006 C1009 2.984 . S
U1006 C1010 2.847 . S
U1006 C1023 2.882 . S
U1006 O1024 2.441 . S
U1006 O1025 2.420 . S
U1006 O1026 2.455 . S
U1006 O1027 2.449 . S
O1007 U1006 2.454 . S
O1007 C1009 1.353 . S
O1008 U1006 2.458 . S
O1008 C1009 1.286 . S
C1009 U1006 2.984 . S
C1009 O1007 1.353 . S
C1009 O1008 1.286 . S
C1009 C1011 1.363 . S
C1010 C1000 1.465 . S
C1010 U1006 2.847 . S
C1010 O1024 1.249 . S
C1010 O1025 1.202 . S
C1011 C1009 1.363 . S
C1011 C1013 1.408 . S
C1011 C1016 1.342 . S
C1012 C1013 1.310 . S
C1012 C1015 1.461 . S
C1012 H1032 0.932 . S
C1013 C1011 1.408 . S
C1013 C1012 1.310 . S
C1013 H1033 0.930 . S
C1014 C1015 1.474 . S
C1014 C1016 1.285 . S
C1014 H1034 0.929 . S
C1015 C1012 1.461 . S
C1015 C1014 1.474 . S
C1016 C1011 1.342 . S
C1016 C1014 1.285 . S
C1016 H1035 0.930 . S
C1017 C1020 1.424 . S
C1017 C1022 1.245 . S
C1017 C1023 1.428 . S
C1018 C1021 1.260 . S
C1018 C1022 1.477 . S
C1018 H1036 0.932 . S
C1019 C1020 1.384 . S
C1019 C1021 1.479 . S
C1019 H1037 0.929 . S
C1020 C1017 1.424 . S
C1020 C1019 1.384 . S
C1020 H1038 0.928 . S
C1021 C1018 1.260 . S
C1021 C1019 1.479 . S
C1022 C1017 1.245 . S
C1022 C1018 1.477 . S
C1022 H1039 0.932 . S
C1023 U1006 2.882 . S
C1023 C1017 1.428 . S
C1023 O1026 1.301 . S
C1023 O1027 1.282 . S
O1024 U1006 2.441 . S
O1024 C1010 1.249 . S
O1025 U1006 2.420 . S
O1025 C1010 1.202 . S
O1026 U1006 2.455 . S
O1026 C1023 1.301 . S
O1027 U1006 2.449 . S
O1027 C1023 1.282 . S
H1028 C1001 0.931 . S
H1029 C1003 0.929 . S
H1030 C1004 0.930 . S
H1031 C1005 0.931 . S
H1032 C1012 0.932 . S
H1033 C1013 0.930 . S
H1034 C1014 0.929 . S
H1035 C1016 0.930 . S
H1036 C1018 0.932 . S
H1037 C1019 0.929 . S
H1038 C1020 0.928 . S
H1039 C1022 0.932 . S
C1040 C1041 1.264 . S
C1040 C1045 1.479 . S
C1040 C1050 1.465 . S
C1041 C1040 1.264 . S
C1041 C1043 1.339 . S
C1041 H1068 0.931 . S
C1042 C1043 1.395 . S
C1042 C1044 1.320 . S
C1043 C1041 1.339 . S
C1043 C1042 1.395 . S
C1043 H1069 0.929 . S
C1044 C1042 1.320 . S
C1044 C1045 1.405 . S
C1044 H1070 0.930 . S
C1045 C1040 1.479 . S
C1045 C1044 1.405 . S
C1045 H1071 0.931 . S
U1046 O1047 2.454 . S
U1046 O1048 2.458 . S
U1046 C1049 2.984 . S
U1046 C1050 2.847 . S
U1046 C1063 2.882 . S
U1046 O1064 2.441 . S
U1046 O1065 2.420 . S
U1046 O1066 2.455 . S
U1046 O1067 2.449 . S
O1047 U1046 2.454 . S
O1047 C1049 1.353 . S
O1048 U1046 2.458 . S
O1048 C1049 1.286 . S
C1049 U1046 2.984 . S
C1049 O1047 1.353 . S
C1049 O1048 1.286 . S
C1049 C1051 1.363 . S
C1050 C1040 1.465 . S
C1050 U1046 2.847 . S
C1050 O1064 1.249 . S
C1050 O1065 1.202 . S
C1051 C1049 1.363 . S
C1051 C1053 1.408 . S
C1051 C1056 1.342 . S
C1052 C1053 1.310 . S
C1052 C1055 1.461 . S
C1052 H1072 0.932 . S
C1053 C1051 1.408 . S
C1053 C1052 1.310 . S
C1053 H1073 0.930 . S
C1054 C1055 1.474 . S
C1054 C1056 1.285 . S
C1054 H1074 0.929 . S
C1055 C1052 1.461 . S
C1055 C1054 1.474 . S
C1056 C1051 1.342 . S
C1056 C1054 1.285 . S
C1056 H1075 0.930 . S
C1057 C1060 1.424 . S
C1057 C1062 1.245 . S
C1057 C1063 1.428 . S
C1058 C1061 1.260 . S
C1058 C1062 1.477 . S
C1058 H1076 0.932 . S
C1059 C1060 1.384 . S
C1059 C1061 1.479 . S
C1059 H1077 0.929 . S
C1060 C1057 1.424 . S
C1060 C1059 1.384 . S
C1060 H1078 0.928 . S
C1061 C1058 1.260 . S
C1061 C1059 1.479 . S
C1062 C1057 1.245 . S
C1062 C1058 1.477 . S
C1062 H1079 0.932 . S
C1063 U1046 2.882 . S
C1063 C1057 1.428 . S
C1063 O1066 1.301 . S
C1063 O1067 1.282 . S
O1064 U1046 2.441 . S
O1064 C1050 1.249 . S
O1065 U1046 2.420 . S
O1065 C1050 1.202 . S
O1066 U1046 2.455 . S
O1066 C1063 1.301 . S
O1067 U1046 2.449 . S
O1067 C1063 1.282 . S
H1068 C1041 0.931 . S
H1069 C1043 0.929 . S
H1070 C1044 0.930 . S
H1071 C1045 0.931 . S
H1072 C1052 0.932 . S
H1073 C1053 0.930 . S
H1074 C1054 0.929 . S
H1075 C1056 0.930 . S
H1076 C1058 0.932 . S
H1077 C1059 0.929 . S
H1078 C1060 0.928 . S
H1079 C1062 0.932 . S
C1080 C1081 1.264 . S
C1080 C1085 1.479 . S
C1080 C1090 1.465 . S
C1081 C1080 1.264 . S
C1081 C1083 1.339 . S
C1081 H1108 0.931 . S
C1082 C1083 1.395 . S
C1082 C1084 1.320 . S
C1083 C1081 1.339 . S
C1083 C1082 1.395 . S
C1083 H1109 0.929 . S
C1084 C1082 1.320 . S
C1084 C1085 1.405 . S
C1084 H1110 0.930 . S
C1085 C1080 1.479 . S
C1085 C1084 1.405 . S
C1085 H1111 0.931 . S
U1086 O1087 2.454 . S
U1086 O1088 2.458 . S
U1086 C1089 2.984 . S
U1086 C1090 2.847 . S
U1086 C1103 2.882 . S
U1086 O1104 2.441 . S
U1086 O1105 2.420 . S
U1086 O1106 2.455 . S
U1086 O1107 2.449 . S
O1087 U1086 2.454 . S
O1087 C1089 1.353 . S
O1088 U1086 2.458 . S
O1088 C1089 1.286 . S
C1089 U1086 2.984 . S
C1089 O1087 1.353 . S
C1089 O1088 1.286 . S
C1089 C1091 1.363 . S
C1090 C1080 1.465 . S
C1090 U1086 2.847 . S
C1090 O1104 1.249 . S
C1090 O1105 1.202 . S
C1091 C1089 1.363 . S
C1091 C1093 1.408 . S
C1091 C1096 1.342 . S
C1092 C1093 1.310 . S
C1092 C1095 1.461 . S
C1092 H1112 0.932 . S
C1093 C1091 1.408 . S
C1093 C1092 1.310 . S
C1093 H1113 0.930 . S
C1094 C1095 1.474 . S
C1094 C1096 1.285 . S
C1094 H1114 0.929 . S
C1095 C1092 1.461 . S
C1095 C1094 1.474 . S
C1096 C1091 1.342 . S
C1096 C1094 1.285 . S
C1096 H1115 0.930 . S
C1097 C1100 1.424 . S
C1097 C1102 1.245 . S
C1097 C1103 1.428 . S
C1098 C1101 1.260 . S
C1098 C1102 1.477 . S
C1098 H1116 0.932 . S
C1099 C1100 1.384 . S
C1099 C1101 1.479 . S
C1099 H1117 0.929 . S
C1100 C1097 1.424 . S
C1100 C1099 1.384 . S
C1100 H1118 0.928 . S
C1101 C1098 1.260 . S
C1101 C1099 1.479 . S
C1102 C1097 1.245 . S
C1102 C1098 1.477 . S
C1102 H1119 0.932 . S
C1103 U1086 2.882 . S
C1103 C1097 1.428 . S
C1103 O1106 1.301 . S
C1103 O1107 1.282 . S
O1104 U1086 2.441 . S
O1104 C1090 1.249 . S
O1105 U1086 2.420 . S
O1105 C1090 1.202 . S
O1106 U1086 2.455 . S
O1106 C1103 1.301 . S
O1107 U1086 2.449 . S
O1107 C1103 1.282 . S
H1108 C1081 0.931 . S
H1109 C1083 0.929 . S
H1110 C1084 0.930 . S
H1111 C1085 0.931 . S
H1112 C1092 0.932 . S
H1113 C1093 0.930 . S
H1114 C1094 0.929 . S
H1115 C1096 0.930 . S
H1116 C1098 0.932 . S
H1117 C1099 0.929 . S
H1118 C1100 0.928 . S
H1119 C1102 0.932 . S
C1120 C1121 1.264 . S
C1120 C1125 1.479 . S
C1120 C1130 1.465 . S
C1121 C1120 1.264 . S
C1121 C1123 1.339 . S
C1121 H1148 0.931 . S
C1122 C1123 1.395 . S
C1122 C1124 1.320 . S
C1123 C1121 1.339 . S
C1123 C1122 1.395 . S
C1123 H1149 0.929 . S
C1124 C1122 1.320 . S
C1124 C1125 1.405 . S
C1124 H1150 0.930 . S
C1125 C1120 1.479 . S
C1125 C1124 1.405 . S
C1125 H1151 0.931 . S
U1126 O1127 2.454 . S
U1126 O1128 2.458 . S
U1126 C1129 2.984 . S
U1126 C1130 2.847 . S
U1126 C1143 2.882 . S
U1126 O1144 2.441 . S
U1126 O1145 2.420 . S
U1126 O1146 2.455 . S
U1126 O1147 2.449 . S
O1127 U1126 2.454 . S
O1127 C1129 1.353 . S
O1128 U1126 2.458 . S
O1128 C1129 1.286 . S
C1129 U1126 2.984 . S
C1129 O1127 1.353 . S
C1129 O1128 1.286 . S
C1129 C1131 1.363 . S
C1130 C1120 1.465 . S
C1130 U1126 2.847 . S
C1130 O1144 1.249 . S
C1130 O1145 1.202 . S
C1131 C1129 1.363 . S
C1131 C1133 1.408 . S
C1131 C1136 1.342 . S
C1132 C1133 1.310 . S
C1132 C1135 1.461 . S
C1132 H1152 0.932 . S
C1133 C1131 1.408 . S
C1133 C1132 1.310 . S
C1133 H1153 0.930 . S
C1134 C1135 1.474 . S
C1134 C1136 1.285 . S
C1134 H1154 0.929 . S
C1135 C1132 1.461 . S
C1135 C1134 1.474 . S
C1136 C1131 1.342 . S
C1136 C1134 1.285 . S
C1136 H1155 0.930 . S
C1137 C1140 1.424 . S
C1137 C1142 1.245 . S
C1137 C1143 1.428 . S
C1138 C1141 1.260 . S
C1138 C1142 1.477 . S
C1138 H1156 0.932 . S
C1139 C1140 1.384 . S
C1139 C1141 1.479 . S
C1139 H1157 0.929 . S
C1140 C1137 1.424 . S
C1140 C1139 1.384 . S
C1140 H1158 0.928 . S
C1141 C1138 1.260 . S
C1141 C1139 1.479 . S
C1142 C1137 1.245 . S
C1142 C1138 1.477 . S
C1142 H1159 0.932 . S
C1143 U1126 2.882 . S
C1143 C1137 1.428 . S
C1143 O1146 1.301 . S
C1143 O1147 1.282 . S
O1144 U1126 2.441 . S
O1144 C1130 1.249 . S
O1145 U1126 2.420 . S
O1145 C1130 1.202 . S
O1146 U1126 2.455 . S
O1146 C1143 1.301 . S
O1147 U1126 2.449 . S
O1147 C1143 1.282 . S
H1148 C1121 0.931 . S
H1149 C1123 0.929 . S
H1150 C1124 0.930 . S
H1151 C1125 0.931 . S
H1152 C1132 0.932 . S
H1153 C1133 0.930 . S
H1154 C1134 0.929 . S
H1155 C1136 0.930 . S
H1156 C1138 0.932 . S
H1157 C1139 0.929 . S
H1158 C1140 0.928 . S
H1159 C1142 0.932 . S
C1160 C1161 1.264 . S
C1160 C1165 1.479 . S
C1160 C1170 1.465 . S
C1161 C1160 1.264 . S
C1161 C1163 1.339 . S
C1161 H1188 0.931 . S
C1162 C1163 1.395 . S
C1162 C1164 1.320 . S
C1163 C1161 1.339 . S
C1163 C1162 1.395 . S
C1163 H1189 0.929 . S
C1164 C1162 1.320 . S
C1164 C1165 1.405 . S
C1164 H1190 0.930 . S
C1165 C1160 1.479 . S
C1165 C1164 1.405 . S
C1165 H1191 0.931 . S
U1166 O1167 2.454 . S
U1166 O1168 2.458 . S
U1166 C1169 2.984 . S
U1166 C1170 2.847 . S
U1166 C1183 2.882 . S
U1166 O1184 2.441 . S
U1166 O1185 2.420 . S
U1166 O1186 2.455 . S
U1166 O1187 2.449 . S
O1167 U1166 2.454 . S
O1167 C1169 1.353 . S
O1168 U1166 2.458 . S
O1168 C1169 1.286 . S
C1169 U1166 2.984 . S
C1169 O1167 1.353 . S
C1169 O1168 1.286 . S
C1169 C1171 1.363 . S
C1170 C1160 1.465 . S
C1170 U1166 2.847 . S
C1170 O1184 1.249 . S
C1170 O1185 1.202 . S
C1171 C1169 1.363 . S
C1171 C1173 1.408 . S
C1171 C1176 1.342 . S
C1172 C1173 1.310 . S
C1172 C1175 1.461 . S
C1172 H1192 0.932 . S
C1173 C1171 1.408 . S
C1173 C1172 1.310 . S
C1173 H1193 0.930 . S
C1174 C1175 1.474 . S
C1174 C1176 1.285 . S
C1174 H1194 0.929 . S
C1175 C1172 1.461 . S
C1175 C1174 1.474 . S
C1176 C1171 1.342 . S
C1176 C1174 1.285 . S
C1176 H1195 0.930 . S
C1177 C1180 1.424 . S
C1177 C1182 1.245 . S
C1177 C1183 1.428 . S
C1178 C1181 1.260 . S
C1178 C1182 1.477 . S
C1178 H1196 0.932 . S
C1179 C1180 1.384 . S
C1179 C1181 1.479 . S
C1179 H1197 0.929 . S
C1180 C1177 1.424 . S
C1180 C1179 1.384 . S
C1180 H1198 0.928 . S
C1181 C1178 1.260 . S
C1181 C1179 1.479 . S
C1182 C1177 1.245 . S
C1182 C1178 1.477 . S
C1182 H1199 0.932 . S
C1183 U1166 2.882 . S
C1183 C1177 1.428 . S
C1183 O1186 1.301 . S
C1183 O1187 1.282 . S
O1184 U1166 2.441 . S
O1184 C1170 1.249 . S
O1185 U1166 2.420 . S
O1185 C1170 1.202 . S
O1186 U1166 2.455 . S
O1186 C1183 1.301 . S
O1187 U1166 2.449 . S
O1187 C1183 1.282 . S
H1188 C1161 0.931 . S
H1189 C1163 0.929 . S
H1190 C1164 0.930 . S
H1191 C1165 0.931 . S
H1192 C1172 0.932 . S
H1193 C1173 0.930 . S
H1194 C1174 0.929 . S
H1195 C1176 0.930 . S
H1196 C1178 0.932 . S
H1197 C1179 0.929 . S
H1198 C1180 0.928 . S
H1199 C1182 0.932 . S
C1200 C1201 1.264 . S
C1200 C1205 1.479 . S
C1200 C1210 1.465 . S
C1201 C1200 1.264 . S
C1201 C1203 1.339 . S
C1201 H1228 0.931 . S
C1202 C1203 1.395 . S
C1202 C1204 1.320 . S
C1203 C1201 1.339 . S
C1203 C1202 1.395 . S
C1203 H1229 0.929 . S
C1204 C1202 1.320 . S
C1204 C1205 1.405 . S
C1204 H1230 0.930 . S
C1205 C1200 1.479 . S
C1205 C1204 1.405 . S
C1205 H1231 0.931 . S
U1206 O1207 2.454 . S
U1206 O1208 2.458 . S
U1206 C1209 2.984 . S
U1206 C1210 2.847 . S
U1206 C1223 2.882 . S
U1206 O1224 2.441 . S
U1206 O1225 2.420 . S
U1206 O1226 2.455 . S
U1206 O1227 2.449 . S
O1207 U1206 2.454 . S
O1207 C1209 1.353 . S
O1208 U1206 2.458 . S
O1208 C1209 1.286 . S
C1209 U1206 2.984 . S
C1209 O1207 1.353 . S
C1209 O1208 1.286 . S
C1209 C1211 1.363 . S
C1210 C1200 1.465 . S
C1210 U1206 2.847 . S
C1210 O1224 1.249 . S
C1210 O1225 1.202 . S
C1211 C1209 1.363 . S
C1211 C1213 1.408 . S
C1211 C1216 1.342 . S
C1212 C1213 1.310 . S
C1212 C1215 1.461 . S
C1212 H1232 0.932 . S
C1213 C1211 1.408 . S
C1213 C1212 1.310 . S
C1213 H1233 0.930 . S
C1214 C1215 1.474 . S
C1214 C1216 1.285 . S
C1214 H1234 0.929 . S
C1215 C1212 1.461 . S
C1215 C1214 1.474 . S
C1216 C1211 1.342 . S
C1216 C1214 1.285 . S
C1216 H1235 0.930 . S
C1217 C1220 1.424 . S
C1217 C1222 1.245 . S
C1217 C1223 1.428 . S
C1218 C1221 1.260 . S
C1218 C1222 1.477 . S
C1218 H1236 0.932 . S
C1219 C1220 1.384 . S
C1219 C1221 1.479 . S
C1219 H1237 0.929 . S
C1220 C1217 1.424 . S
C1220 C1219 1.384 . S
C1220 H1238 0.928 . S
C1221 C1218 1.260 . S
C1221 C1219 1.479 . S
C1222 C1217 1.245 . S
C1222 C1218 1.477 . S
C1222 H1239 0.932 . S
C1223 U1206 2.882 . S
C1223 C1217 1.428 . S
C1223 O1226 1.301 . S
C1223 O1227 1.282 . S
O1224 U1206 2.441 . S
O1224 C1210 1.249 . S
O1225 U1206 2.420 . S
O1225 C1210 1.202 . S
O1226 U1206 2.455 . S
O1226 C1223 1.301 . S
O1227 U1206 2.449 . S
O1227 C1223 1.282 . S
H1228 C1201 0.931 . S
H1229 C1203 0.929 . S
H1230 C1204 0.930 . S
H1231 C1205 0.931 . S
H1232 C1212 0.932 . S
H1233 C1213 0.930 . S
H1234 C1214 0.929 . S
H1235 C1216 0.930 . S
H1236 C1218 0.932 . S
H1237 C1219 0.929 . S
H1238 C1220 0.928 . S
H1239 C1222 0.932 . S
C1240 C1241 1.264 . S
C1240 C1245 1.479 . S
C1240 C1250 1.465 . S
C1241 C1240 1.264 . S
C1241 C1243 1.339 . S
C1241 H1268 0.931 . S
C1242 C1243 1.395 . S
C1242 C1244 1.320 . S
C1243 C1241 1.339 . S
C1243 C1242 1.395 . S
C1243 H1269 0.929 . S
C1244 C1242 1.320 . S
C1244 C1245 1.405 . S
C1244 H1270 0.930 . S
C1245 C1240 1.479 . S
C1245 C1244 1.405 . S
C1245 H1271 0.931 . S
U1246 O1247 2.454 . S
U1246 O1248 2.458 . S
U1246 C1249 2.984 . S
U1246 C1250 2.847 . S
U1246 C1263 2.882 . S
U1246 O1264 2.441 . S
U1246 O1265 2.420 . S
U1246 O1266 2.455 . S
U1246 O1267 2.449 . S
O1247 U1246 2.454 . S
O1247 C1249 1.353 . S
O1248 U1246 2.458 . S
O1248 C1249 1.286 . S
C1249 U1246 2.984 . S
C1249 O1247 1.353 . S
C1249 O1248 1.286 . S
C1249 C1251 1.363 . S
C1250 C1240 1.465 . S
C1250 U1246 2.847 . S
C1250 O1264 1.249 . S
C1250 O1265 1.202 . S
C1251 C1249 1.363 . S
C1251 C1253 1.408 . S
C1251 C1256 1.342 . S
C1252 C1253 1.310 . S
C1252 C1255 1.461 . S
C1252 H1272 0.932 . S
C1253 C1251 1.408 . S
C1253 C1252 1.310 . S
C1253 H1273 0.930 . S
C1254 C1255 1.474 . S
C1254 C1256 1.285 . S
C1254 H1274 0.929 . S
C1255 C1252 1.461 . S
C1255 C1254 1.474 . S
C1256 C1251 1.342 . S
C1256 C1254 1.285 . S
C1256 H1275 0.930 . S
C1257 C1260 1.424 . S
C1257 C1262 1.245 . S
C1257 C1263 1.428 . S
C1258 C1261 1.260 . S
C1258 C1262 1.477 . S
C1258 H1276 0.932 . S
C1259 C1260 1.384 . S
C1259 C1261 1.479 . S
C1259 H1277 0.929 . S
C1260 C1257 1.424 . S
C1260 C1259 1.384 . S
C1260 H1278 0.928 . S
C1261 C1258 1.260 . S
C1261 C1259 1.479 . S
C1262 C1257 1.245 . S
C1262 C1258 1.477 . S
C1262 H1279 0.932 . S
C1263 U1246 2.882 . S
C1263 C1257 1.428 . S
C1263 O1266 1.301 . S
C1263 O1267 1.282 . S
O1264 U1246 2.441 . S
O1264 C1250 1.249 . S
O1265 U1246 2.420 . S
O1265 C1250 1.202 . S
O1266 U1246 2.455 . S
O1266 C1263 1.301 . S
O1267 U1246 2.449 . S
O1267 C1263 1.282 . S
H1268 C1241 0.931 . S
H1269 C1243 0.929 . S
H1270 C1244 0.930 . S
H1271 C1245 0.931 . S
H1272 C1252 0.932 . S
H1273 C1253 0.930 . S
H1274 C1254 0.929 . S
H1275 C1256 0.930 . S
H1276 C1258 0.932 . S
H1277 C1259 0.929 . S
H1278 C1260 0.928 . S
H1279 C1262 0.932 . S
C1280 C1281 1.384 . S
C1280 C1282 1.384 . S
C1280 H1308 0.931 . S
C1281 C1280 1.384 . S
C1281 C1284 1.382 . S
C1282 C1280 1.384 . S
C1282 C1283 1.381 . S
C1282 H1309 0.930 . S
C1283 C1282 1.381 . S
C1283 C1285 1.381 . S
C1283 C1286 1.487 . S
C1284 C1281 1.382 . S
C1284 C1285 1.387 . S
C1284 H1310 0.930 . S
C1285 C1283 1.381 . S
C1285 C1284 1.387 . S
C1285 H1311 0.931 . S
C1286 C1283 1.487 . S
C1286 C1293 1.399 . S
C1286 N1324 1.343 . S
C1287 C1288 1.384 . S
C1287 C1289 1.384 . S
C1287 H1312 0.931 . S
C1288 C1287 1.384 . S
C1288 C1291 1.382 . S
C1289 C1287 1.384 . S
C1289 C1290 1.381 . S
C1289 H1313 0.930 . S
C1290 C1289 1.381 . S
C1290 C1292 1.381 . S
C1290 C1293 1.487 . S
C1291 C1288 1.382 . S
C1291 C1292 1.387 . S
C1291 H1314 0.930 . S
C1292 C1290 1.381 . S
C1292 C1291 1.387 . S
C1292 H1315 0.931 . S
C1293 C1286 1.399 . S
C1293 C1290 1.487 . S
C1293 N1325 1.343 . S
C1294 C1295 1.384 . S
C1294 C1296 1.384 . S
C1294 H1316 0.931 . S
C1295 C1294 1.384 . S
C1295 C1298 1.382 . S
C1296 C1294 1.384 . S
C1296 C1297 1.381 . S
C1296 H1317 0.930 . S
C1297 C1296 1.381 . S
C1297 C1299 1.381 . S
C1297 C1300 1.487 . S
C1298 C1295 1.382 . S
C1298 C1299 1.387 . S
C1298 H1318 0.930 . S
C1299 C1297 1.381 . S
C1299 C1298 1.387 . S
C1299 H1319 0.931 . S
C1300 C1297 1.487 . S
C1300 C1307 1.399 . S
C1300 N1325 1.343 1_556 S
C1301 C1302 1.384 . S
C1301 C1303 1.384 . S
C1301 H1320 0.931 . S
C1302 C1301 1.384 . S
C1302 C1305 1.382 . S
C1303 C1301 1.384 . S
C1303 C1304 1.381 . S
C1303 H1321 0.930 . S
C1304 C1303 1.381 . S
C1304 C1306 1.381 . S
C1304 C1307 1.487 . S
C1305 C1302 1.382 . S
C1305 C1306 1.387 . S
C1305 H1322 0.930 . S
C1306 C1304 1.381 . S
C1306 C1305 1.387 . S
C1306 H1323 0.931 . S
C1307 C1300 1.399 . S
C1307 C1304 1.487 . S
C1307 N1324 1.343 1_556 S
H1308 C1280 0.931 . S
H1309 C1282 0.930 . S
H1310 C1284 0.930 . S
H1311 C1285 0.931 . S
H1312 C1287 0.931 . S
H1313 C1289 0.930 . S
H1314 C1291 0.930 . S
H1315 C1292 0.931 . S
H1316 C1294 0.931 . S
H1317 C1296 0.930 . S
H1318 C1298 0.930 . S
H1319 C1299 0.931 . S
H1320 C1301 0.931 . S
H1321 C1303 0.930 . S
H1322 C1305 0.930 . S
H1323 C1306 0.931 . S
N1324 C1286 1.343 . S
N1324 C1307 1.343 1_554 S
N1325 C1293 1.343 . S
N1325 C1300 1.343 1_554 S
C1326 C1327 1.384 . S
C1326 C1328 1.384 . S
C1326 H1354 0.931 . S
C1327 C1326 1.384 . S
C1327 C1330 1.382 . S
C1328 C1326 1.384 . S
C1328 C1329 1.381 . S
C1328 H1355 0.930 . S
C1329 C1328 1.381 . S
C1329 C1331 1.381 . S
C1329 C1332 1.487 . S
C1330 C1327 1.382 . S
C1330 C1331 1.387 . S
C1330 H1356 0.930 . S
C1331 C1329 1.381 . S
C1331 C1330 1.387 . S
C1331 H1357 0.931 . S
C1332 C1329 1.487 . S
C1332 C1339 1.399 . S
C1332 N1370 1.343 1_556 S
C1333 C1334 1.384 . S
C1333 C1335 1.384 . S
C1333 H1358 0.931 . S
C1334 C1333 1.384 . S
C1334 C1337 1.382 . S
C1335 C1333 1.384 . S
C1335 C1336 1.381 . S
C1335 H1359 0.930 . S
C1336 C1335 1.381 . S
C1336 C1338 1.381 . S
C1336 C1339 1.487 . S
C1337 C1334 1.382 . S
C1337 C1338 1.387 . S
C1337 H1360 0.930 . S
C1338 C1336 1.381 . S
C1338 C1337 1.387 . S
C1338 H1361 0.931 . S
C1339 C1332 1.399 . S
C1339 C1336 1.487 . S
C1339 N1371 1.343 1_556 S
C1340 C1341 1.384 . S
C1340 C1342 1.384 . S
C1340 H1362 0.931 . S
C1341 C1340 1.384 . S
C1341 C1344 1.382 . S
C1342 C1340 1.384 . S
C1342 C1343 1.381 . S
C1342 H1363 0.930 . S
C1343 C1342 1.381 . S
C1343 C1345 1.381 . S
C1343 C1346 1.487 . S
C1344 C1341 1.382 . S
C1344 C1345 1.387 . S
C1344 H1364 0.930 . S
C1345 C1343 1.381 . S
C1345 C1344 1.387 . S
C1345 H1365 0.931 . S
C1346 C1343 1.487 . S
C1346 C1353 1.399 . S
C1346 N1371 1.343 . S
C1347 C1348 1.384 . S
C1347 C1349 1.384 . S
C1347 H1366 0.931 . S
C1348 C1347 1.384 . S
C1348 C1351 1.382 . S
C1349 C1347 1.384 . S
C1349 C1350 1.381 . S
C1349 H1367 0.930 . S
C1350 C1349 1.381 . S
C1350 C1352 1.381 . S
C1350 C1353 1.487 . S
C1351 C1348 1.382 . S
C1351 C1352 1.387 . S
C1351 H1368 0.930 . S
C1352 C1350 1.381 . S
C1352 C1351 1.387 . S
C1352 H1369 0.931 . S
C1353 C1346 1.399 . S
C1353 C1350 1.487 . S
C1353 N1370 1.343 . S
H1354 C1326 0.931 . S
H1355 C1328 0.930 . S
H1356 C1330 0.930 . S
H1357 C1331 0.931 . S
H1358 C1333 0.931 . S
H1359 C1335 0.930 . S
H1360 C1337 0.930 . S
H1361 C1338 0.931 . S
H1362 C1340 0.931 . S
H1363 C1342 0.930 . S
H1364 C1344 0.930 . S
H1365 C1345 0.931 . S
H1366 C1347 0.931 . S
H1367 C1349 0.930 . S
H1368 C1351 0.930 . S
H1369 C1352 0.931 . S
N1370 C1332 1.343 1_554 S
N1370 C1353 1.343 . S
N1371 C1339 1.343 1_554 S
N1371 C1346 1.343 . S
C1372 C1373 1.384 . S
C1372 C1374 1.384 . S
C1372 H1400 0.931 . S
C1373 C1372 1.384 . S
C1373 C1376 1.382 . S
C1374 C1372 1.384 . S
C1374 C1375 1.381 . S
C1374 H1401 0.930 . S
C1375 C1374 1.381 . S
C1375 C1377 1.381 . S
C1375 C1378 1.487 . S
C1376 C1373 1.382 . S
C1376 C1377 1.387 . S
C1376 H1402 0.930 . S
C1377 C1375 1.381 . S
C1377 C1376 1.387 . S
C1377 H1403 0.931 . S
C1378 C1375 1.487 . S
C1378 C1385 1.399 . S
C1378 N1416 1.343 . S
C1379 C1380 1.384 . S
C1379 C1381 1.384 . S
C1379 H1404 0.931 . S
C1380 C1379 1.384 . S
C1380 C1383 1.382 . S
C1381 C1379 1.384 . S
C1381 C1382 1.381 . S
C1381 H1405 0.930 . S
C1382 C1381 1.381 . S
C1382 C1384 1.381 . S
C1382 C1385 1.487 . S
C1383 C1380 1.382 . S
C1383 C1384 1.387 . S
C1383 H1406 0.930 . S
C1384 C1382 1.381 . S
C1384 C1383 1.387 . S
C1384 H1407 0.931 . S
C1385 C1378 1.399 . S
C1385 C1382 1.487 . S
C1385 N1417 1.343 . S
C1386 C1387 1.384 . S
C1386 C1388 1.384 . S
C1386 H1408 0.931 . S
C1387 C1386 1.384 . S
C1387 C1390 1.382 . S
C1388 C1386 1.384 . S
C1388 C1389 1.381 . S
C1388 H1409 0.930 . S
C1389 C1388 1.381 . S
C1389 C1391 1.381 . S
C1389 C1392 1.487 . S
C1390 C1387 1.382 . S
C1390 C1391 1.387 . S
C1390 H1410 0.930 . S
C1391 C1389 1.381 . S
C1391 C1390 1.387 . S
C1391 H1411 0.931 . S
C1392 C1389 1.487 . S
C1392 C1399 1.399 . S
C1392 N1417 1.343 1_556 S
C1393 C1394 1.384 . S
C1393 C1395 1.384 . S
C1393 H1412 0.931 . S
C1394 C1393 1.384 . S
C1394 C1397 1.382 . S
C1395 C1393 1.384 . S
C1395 C1396 1.381 . S
C1395 H1413 0.930 . S
C1396 C1395 1.381 . S
C1396 C1398 1.381 . S
C1396 C1399 1.487 . S
C1397 C1394 1.382 . S
C1397 C1398 1.387 . S
C1397 H1414 0.930 . S
C1398 C1396 1.381 . S
C1398 C1397 1.387 . S
C1398 H1415 0.931 . S
C1399 C1392 1.399 . S
C1399 C1396 1.487 . S
C1399 N1416 1.343 1_556 S
H1400 C1372 0.931 . S
H1401 C1374 0.930 . S
H1402 C1376 0.930 . S
H1403 C1377 0.931 . S
H1404 C1379 0.931 . S
H1405 C1381 0.930 . S
H1406 C1383 0.930 . S
H1407 C1384 0.931 . S
H1408 C1386 0.931 . S
H1409 C1388 0.930 . S
H1410 C1390 0.930 . S
H1411 C1391 0.931 . S
H1412 C1393 0.931 . S
H1413 C1395 0.930 . S
H1414 C1397 0.930 . S
H1415 C1398 0.931 . S
N1416 C1378 1.343 . S
N1416 C1399 1.343 1_554 S
N1417 C1385 1.343 . S
N1417 C1392 1.343 1_554 S
C1418 C1419 1.384 . S
C1418 C1420 1.384 . S
C1418 H1446 0.931 . S
C1419 C1418 1.384 . S
C1419 C1422 1.382 . S
C1420 C1418 1.384 . S
C1420 C1421 1.381 . S
C1420 H1447 0.930 . S
C1421 C1420 1.381 . S
C1421 C1423 1.381 . S
C1421 C1424 1.487 . S
C1422 C1419 1.382 . S
C1422 C1423 1.387 . S
C1422 H1448 0.930 . S
C1423 C1421 1.381 . S
C1423 C1422 1.387 . S
C1423 H1449 0.931 . S
C1424 C1421 1.487 . S
C1424 C1431 1.399 . S
C1424 N1462 1.343 1_556 S
C1425 C1426 1.384 . S
C1425 C1427 1.384 . S
C1425 H1450 0.931 . S
C1426 C1425 1.384 . S
C1426 C1429 1.382 . S
C1427 C1425 1.384 . S
C1427 C1428 1.381 . S
C1427 H1451 0.930 . S
C1428 C1427 1.381 . S
C1428 C1430 1.381 . S
C1428 C1431 1.487 . S
C1429 C1426 1.382 . S
C1429 C1430 1.387 . S
C1429 H1452 0.930 . S
C1430 C1428 1.381 . S
C1430 C1429 1.387 . S
C1430 H1453 0.931 . S
C1431 C1424 1.399 . S
C1431 C1428 1.487 . S
C1431 N1463 1.343 1_556 S
C1432 C1433 1.384 . S
C1432 C1434 1.384 . S
C1432 H1454 0.931 . S
C1433 C1432 1.384 . S
C1433 C1436 1.382 . S
C1434 C1432 1.384 . S
C1434 C1435 1.381 . S
C1434 H1455 0.930 . S
C1435 C1434 1.381 . S
C1435 C1437 1.381 . S
C1435 C1438 1.487 . S
C1436 C1433 1.382 . S
C1436 C1437 1.387 . S
C1436 H1456 0.930 . S
C1437 C1435 1.381 . S
C1437 C1436 1.387 . S
C1437 H1457 0.931 . S
C1438 C1435 1.487 . S
C1438 C1445 1.399 . S
C1438 N1463 1.343 . S
C1439 C1440 1.384 . S
C1439 C1441 1.384 . S
C1439 H1458 0.931 . S
C1440 C1439 1.384 . S
C1440 C1443 1.382 . S
C1441 C1439 1.384 . S
C1441 C1442 1.381 . S
C1441 H1459 0.930 . S
C1442 C1441 1.381 . S
C1442 C1444 1.381 . S
C1442 C1445 1.487 . S
C1443 C1440 1.382 . S
C1443 C1444 1.387 . S
C1443 H1460 0.930 . S
C1444 C1442 1.381 . S
C1444 C1443 1.387 . S
C1444 H1461 0.931 . S
C1445 C1438 1.399 . S
C1445 C1442 1.487 . S
C1445 N1462 1.343 . S
H1446 C1418 0.931 . S
H1447 C1420 0.930 . S
H1448 C1422 0.930 . S
H1449 C1423 0.931 . S
H1450 C1425 0.931 . S
H1451 C1427 0.930 . S
H1452 C1429 0.930 . S
H1453 C1430 0.931 . S
H1454 C1432 0.931 . S
H1455 C1434 0.930 . S
H1456 C1436 0.930 . S
H1457 C1437 0.931 . S
H1458 C1439 0.931 . S
H1459 C1441 0.930 . S
H1460 C1443 0.930 . S
H1461 C1444 0.931 . S
N1462 C1424 1.343 1_554 S
N1462 C1445 1.343 . S
N1463 C1431 1.343 1_554 S
N1463 C1438 1.343 . S
C1464 C1465 1.384 . S
C1464 C1466 1.384 . S
C1464 H1492 0.931 . S
C1465 C1464 1.384 . S
C1465 C1468 1.382 . S
C1466 C1464 1.384 . S
C1466 C1467 1.381 . S
C1466 H1493 0.930 . S
C1467 C1466 1.381 . S
C1467 C1469 1.381 . S
C1467 C1470 1.487 . S
C1468 C1465 1.382 . S
C1468 C1469 1.387 . S
C1468 H1494 0.930 . S
C1469 C1467 1.381 . S
C1469 C1468 1.387 . S
C1469 H1495 0.931 . S
C1470 C1467 1.487 . S
C1470 C1477 1.399 . S
C1470 N1508 1.343 1_655 S
C1471 C1472 1.384 . S
C1471 C1473 1.384 . S
C1471 H1496 0.931 . S
C1472 C1471 1.384 . S
C1472 C1475 1.382 . S
C1473 C1471 1.384 . S
C1473 C1474 1.381 . S
C1473 H1497 0.930 . S
C1474 C1473 1.381 . S
C1474 C1476 1.381 . S
C1474 C1477 1.487 . S
C1475 C1472 1.382 . S
C1475 C1476 1.387 . S
C1475 H1498 0.930 . S
C1476 C1474 1.381 . S
C1476 C1475 1.387 . S
C1476 H1499 0.931 . S
C1477 C1470 1.399 . S
C1477 C1474 1.487 . S
C1477 N1509 1.343 1_655 S
C1478 C1479 1.384 . S
C1478 C1480 1.384 . S
C1478 H1500 0.931 . S
C1479 C1478 1.384 . S
C1479 C1482 1.382 . S
C1480 C1478 1.384 . S
C1480 C1481 1.381 . S
C1480 H1501 0.930 . S
C1481 C1480 1.381 . S
C1481 C1483 1.381 . S
C1481 C1484 1.487 . S
C1482 C1479 1.382 . S
C1482 C1483 1.387 . S
C1482 H1502 0.930 . S
C1483 C1481 1.381 . S
C1483 C1482 1.387 . S
C1483 H1503 0.931 . S
C1484 C1481 1.487 . S
C1484 C1491 1.399 . S
C1484 N1509 1.343 . S
C1485 C1486 1.384 . S
C1485 C1487 1.384 . S
C1485 H1504 0.931 . S
C1486 C1485 1.384 . S
C1486 C1489 1.382 . S
C1487 C1485 1.384 . S
C1487 C1488 1.381 . S
C1487 H1505 0.930 . S
C1488 C1487 1.381 . S
C1488 C1490 1.381 . S
C1488 C1491 1.487 . S
C1489 C1486 1.382 . S
C1489 C1490 1.387 . S
C1489 H1506 0.930 . S
C1490 C1488 1.381 . S
C1490 C1489 1.387 . S
C1490 H1507 0.931 . S
C1491 C1484 1.399 . S
C1491 C1488 1.487 . S
C1491 N1508 1.343 . S
H1492 C1464 0.931 . S
H1493 C1466 0.930 . S
H1494 C1468 0.930 . S
H1495 C1469 0.931 . S
H1496 C1471 0.931 . S
H1497 C1473 0.930 . S
H1498 C1475 0.930 . S
H1499 C1476 0.931 . S
H1500 C1478 0.931 . S
H1501 C1480 0.930 . S
H1502 C1482 0.930 . S
H1503 C1483 0.931 . S
H1504 C1485 0.931 . S
H1505 C1487 0.930 . S
H1506 C1489 0.930 . S
H1507 C1490 0.931 . S
N1508 C1470 1.343 1_455 S
N1508 C1491 1.343 . S
N1509 C1477 1.343 1_455 S
N1509 C1484 1.343 . S
C1510 C1511 1.384 . S
C1510 C1512 1.384 . S
C1510 H1538 0.931 . S
C1511 C1510 1.384 . S
C1511 C1514 1.382 . S
C1512 C1510 1.384 . S
C1512 C1513 1.381 . S
C1512 H1539 0.930 . S
C1513 C1512 1.381 . S
C1513 C1515 1.381 . S
C1513 C1516 1.487 . S
C1514 C1511 1.382 . S
C1514 C1515 1.387 . S
C1514 H1540 0.930 . S
C1515 C1513 1.381 . S
C1515 C1514 1.387 . S
C1515 H1541 0.931 . S
C1516 C1513 1.487 . S
C1516 C1523 1.399 . S
C1516 N1554 1.282 1_565 S
C1517 C1518 1.384 . S
C1517 C1519 1.384 . S
C1517 H1542 0.931 . S
C1518 C1517 1.384 . S
C1518 C1521 1.382 . S
C1519 C1517 1.384 . S
C1519 C1520 1.381 . S
C1519 H1543 0.930 . S
C1520 C1519 1.381 . S
C1520 C1522 1.381 . S
C1520 C1523 1.487 . S
C1521 C1518 1.382 . S
C1521 C1522 1.387 . S
C1521 H1544 0.930 . S
C1522 C1520 1.381 . S
C1522 C1521 1.387 . S
C1522 H1545 0.931 . S
C1523 C1516 1.399 . S
C1523 C1520 1.487 . S
C1523 N1555 1.343 1_565 S
C1524 C1525 1.384 . S
C1524 C1526 1.384 . S
C1524 H1546 0.931 . S
C1525 C1524 1.384 . S
C1525 C1528 1.382 . S
C1526 C1524 1.384 . S
C1526 C1527 1.381 . S
C1526 H1547 0.930 . S
C1527 C1526 1.381 . S
C1527 C1529 1.381 . S
C1527 C1530 1.487 . S
C1528 C1525 1.382 . S
C1528 C1529 1.387 . S
C1528 H1548 0.930 . S
C1529 C1527 1.381 . S
C1529 C1528 1.387 . S
C1529 H1549 0.931 . S
C1530 C1527 1.487 . S
C1530 C1537 1.399 . S
C1530 N1555 1.343 . S
C1531 C1532 1.384 . S
C1531 C1533 1.384 . S
C1531 H1550 0.931 . S
C1532 C1531 1.384 . S
C1532 C1535 1.382 . S
C1533 C1531 1.384 . S
C1533 C1534 1.381 . S
C1533 H1551 0.930 . S
C1534 C1533 1.381 . S
C1534 C1536 1.381 . S
C1534 C1537 1.487 . S
C1535 C1532 1.382 . S
C1535 C1536 1.387 . S
C1535 H1552 0.930 . S
C1536 C1534 1.381 . S
C1536 C1535 1.387 . S
C1536 H1553 0.931 . S
C1537 C1530 1.399 . S
C1537 C1534 1.487 . S
C1537 N1554 1.405 . S
H1538 C1510 0.931 . S
H1539 C1512 0.930 . S
H1540 C1514 0.930 . S
H1541 C1515 0.931 . S
H1542 C1517 0.931 . S
H1543 C1519 0.930 . S
H1544 C1521 0.930 . S
H1545 C1522 0.931 . S
H1546 C1524 0.931 . S
H1547 C1526 0.930 . S
H1548 C1528 0.930 . S
H1549 C1529 0.931 . S
H1550 C1531 0.931 . S
H1551 C1533 0.930 . S
H1552 C1535 0.930 . S
H1553 C1536 0.931 . S
N1554 C1516 1.282 1_545 S
N1554 C1537 1.405 . S
N1555 C1523 1.343 1_545 S
N1555 C1530 1.343 . S
C1556 C1557 1.384 . S
C1556 C1558 1.384 . S
C1556 H1584 0.931 . S
C1557 C1556 1.384 . S
C1557 C1560 1.382 . S
C1558 C1556 1.384 . S
C1558 C1559 1.381 . S
C1558 H1585 0.930 . S
C1559 C1558 1.381 . S
C1559 C1561 1.381 . S
C1559 C1562 1.487 . S
C1560 C1557 1.382 . S
C1560 C1561 1.387 . S
C1560 H1586 0.930 . S
C1561 C1559 1.381 . S
C1561 C1560 1.387 . S
C1561 H1587 0.931 . S
C1562 C1559 1.487 . S
C1562 C1569 1.399 . S
C1562 N1600 1.343 . S
C1563 C1564 1.384 . S
C1563 C1565 1.384 . S
C1563 H1588 0.931 . S
C1564 C1563 1.384 . S
C1564 C1567 1.382 . S
C1565 C1563 1.384 . S
C1565 C1566 1.381 . S
C1565 H1589 0.930 . S
C1566 C1565 1.381 . S
C1566 C1568 1.381 . S
C1566 C1569 1.487 . S
C1567 C1564 1.382 . S
C1567 C1568 1.387 . S
C1567 H1590 0.930 . S
C1568 C1566 1.381 . S
C1568 C1567 1.387 . S
C1568 H1591 0.931 . S
C1569 C1562 1.399 . S
C1569 C1566 1.487 . S
C1569 N1601 1.425 . S
C1570 C1571 1.384 . S
C1570 C1572 1.384 . S
C1570 H1592 0.931 . S
C1571 C1570 1.384 . S
C1571 C1574 1.382 . S
C1572 C1570 1.384 . S
C1572 C1573 1.381 . S
C1572 H1593 0.930 . S
C1573 C1572 1.381 . S
C1573 C1575 1.381 . S
C1573 C1576 1.487 . S
C1574 C1571 1.382 . S
C1574 C1575 1.387 . S
C1574 H1594 0.930 . S
C1575 C1573 1.381 . S
C1575 C1574 1.387 . S
C1575 H1595 0.931 . S
C1576 C1573 1.487 . S
C1576 C1583 1.399 . S
C1576 N1601 1.262 1_655 S
C1577 C1578 1.384 . S
C1577 C1579 1.384 . S
C1577 H1596 0.931 . S
C1578 C1577 1.384 . S
C1578 C1581 1.382 . S
C1579 C1577 1.384 . S
C1579 C1580 1.381 . S
C1579 H1597 0.930 . S
C1580 C1579 1.381 . S
C1580 C1582 1.381 . S
C1580 C1583 1.487 . S
C1581 C1578 1.382 . S
C1581 C1582 1.387 . S
C1581 H1598 0.930 . S
C1582 C1580 1.381 . S
C1582 C1581 1.387 . S
C1582 H1599 0.931 . S
C1583 C1576 1.399 . S
C1583 C1580 1.487 . S
C1583 N1600 1.343 1_655 S
H1584 C1556 0.931 . S
H1585 C1558 0.930 . S
H1586 C1560 0.930 . S
H1587 C1561 0.931 . S
H1588 C1563 0.931 . S
H1589 C1565 0.930 . S
H1590 C1567 0.930 . S
H1591 C1568 0.931 . S
H1592 C1570 0.931 . S
H1593 C1572 0.930 . S
H1594 C1574 0.930 . S
H1595 C1575 0.931 . S
H1596 C1577 0.931 . S
H1597 C1579 0.930 . S
H1598 C1581 0.930 . S
H1599 C1582 0.931 . S
N1600 C1562 1.343 . S
N1600 C1583 1.343 1_455 S
N1601 C1569 1.425 . S
N1601 C1576 1.262 1_455 S
C1602 C1603 1.384 . S
C1602 C1604 1.384 . S
C1602 H1630 0.931 . S
C1603 C1602 1.384 . S
C1603 C1606 1.382 . S
C1604 C1602 1.384 . S
C1604 C1605 1.381 . S
C1604 H1631 0.930 . S
C1605 C1604 1.381 . S
C1605 C1607 1.381 . S
C1605 C1608 1.487 . S
C1606 C1603 1.382 . S
C1606 C1607 1.387 . S
C1606 H1632 0.930 . S
C1607 C1605 1.381 . S
C1607 C1606 1.387 . S
C1607 H1633 0.931 . S
C1608 C1605 1.487 . S
C1608 C1615 1.399 . S
C1608 N1646 1.343 1_565 S
C1609 C1610 1.384 . S
C1609 C1611 1.384 . S
C1609 H1634 0.931 . S
C1610 C1609 1.384 . S
C1610 C1613 1.382 . S
C1611 C1609 1.384 . S
C1611 C1612 1.381 . S
C1611 H1635 0.930 . S
C1612 C1611 1.381 . S
C1612 C1614 1.381 . S
C1612 C1615 1.487 . S
C1613 C1610 1.382 . S
C1613 C1614 1.387 . S
C1613 H1636 0.930 . S
C1614 C1612 1.381 . S
C1614 C1613 1.387 . S
C1614 H1637 0.931 . S
C1615 C1608 1.399 . S
C1615 C1612 1.487 . S
C1615 N1647 1.343 1_565 S
C1616 C1617 1.384 . S
C1616 C1618 1.384 . S
C1616 H1638 0.931 . S
C1617 C1616 1.384 . S
C1617 C1620 1.382 . S
C1618 C1616 1.384 . S
C1618 C1619 1.381 . S
C1618 H1639 0.930 . S
C1619 C1618 1.381 . S
C1619 C1621 1.381 . S
C1619 C1622 1.487 . S
C1620 C1617 1.382 . S
C1620 C1621 1.387 . S
C1620 H1640 0.930 . S
C1621 C1619 1.381 . S
C1621 C1620 1.387 . S
C1621 H1641 0.931 . S
C1622 C1619 1.487 . S
C1622 C1629 1.399 . S
C1622 N1647 1.343 . S
C1623 C1624 1.384 . S
C1623 C1625 1.384 . S
C1623 H1642 0.931 . S
C1624 C1623 1.384 . S
C1624 C1627 1.382 . S
C1625 C1623 1.384 . S
C1625 C1626 1.381 . S
C1625 H1643 0.930 . S
C1626 C1625 1.381 . S
C1626 C1628 1.381 . S
C1626 C1629 1.487 . S
C1627 C1624 1.382 . S
C1627 C1628 1.387 . S
C1627 H1644 0.930 . S
C1628 C1626 1.381 . S
C1628 C1627 1.387 . S
C1628 H1645 0.931 . S
C1629 C1622 1.399 . S
C1629 C1626 1.487 . S
C1629 N1646 1.343 . S
H1630 C1602 0.931 . S
H1631 C1604 0.930 . S
H1632 C1606 0.930 . S
H1633 C1607 0.931 . S
H1634 C1609 0.931 . S
H1635 C1611 0.930 . S
H1636 C1613 0.930 . S
H1637 C1614 0.931 . S
H1638 C1616 0.931 . S
H1639 C1618 0.930 . S
H1640 C1620 0.930 . S
H1641 C1621 0.931 . S
H1642 C1623 0.931 . S
H1643 C1625 0.930 . S
H1644 C1627 0.930 . S
H1645 C1628 0.931 . S
N1646 C1608 1.343 1_545 S
N1646 C1629 1.343 . S
N1647 C1615 1.343 1_545 S
N1647 C1622 1.343 . S
C1648 C1649 1.384 . S
C1648 C1650 1.384 . S
C1648 H1676 0.931 . S
C1649 C1648 1.384 . S
C1649 C1652 1.382 . S
C1650 C1648 1.384 . S
C1650 C1651 1.381 . S
C1650 H1677 0.930 . S
C1651 C1650 1.381 . S
C1651 C1653 1.381 . S
C1651 C1654 1.487 . S
C1652 C1649 1.382 . S
C1652 C1653 1.387 . S
C1652 H1678 0.930 . S
C1653 C1651 1.381 . S
C1653 C1652 1.387 . S
C1653 H1679 0.931 . S
C1654 C1651 1.487 . S
C1654 C1661 1.399 . S
C1654 N1692 1.343 1_655 S
C1655 C1656 1.384 . S
C1655 C1657 1.384 . S
C1655 H1680 0.931 . S
C1656 C1655 1.384 . S
C1656 C1659 1.382 . S
C1657 C1655 1.384 . S
C1657 C1658 1.381 . S
C1657 H1681 0.930 . S
C1658 C1657 1.381 . S
C1658 C1660 1.381 . S
C1658 C1661 1.487 . S
C1659 C1656 1.382 . S
C1659 C1660 1.387 . S
C1659 H1682 0.930 . S
C1660 C1658 1.381 . S
C1660 C1659 1.387 . S
C1660 H1683 0.931 . S
C1661 C1654 1.399 . S
C1661 C1658 1.487 . S
C1661 N1693 1.343 1_655 S
C1662 C1663 1.384 . S
C1662 C1664 1.384 . S
C1662 H1684 0.931 . S
C1663 C1662 1.384 . S
C1663 C1666 1.382 . S
C1664 C1662 1.384 . S
C1664 C1665 1.381 . S
C1664 H1685 0.930 . S
C1665 C1664 1.381 . S
C1665 C1667 1.381 . S
C1665 C1668 1.487 . S
C1666 C1663 1.382 . S
C1666 C1667 1.387 . S
C1666 H1686 0.930 . S
C1667 C1665 1.381 . S
C1667 C1666 1.387 . S
C1667 H1687 0.931 . S
C1668 C1665 1.487 . S
C1668 C1675 1.399 . S
C1668 N1693 1.343 . S
C1669 C1670 1.384 . S
C1669 C1671 1.384 . S
C1669 H1688 0.931 . S
C1670 C1669 1.384 . S
C1670 C1673 1.382 . S
C1671 C1669 1.384 . S
C1671 C1672 1.381 . S
C1671 H1689 0.930 . S
C1672 C1671 1.381 . S
C1672 C1674 1.381 . S
C1672 C1675 1.487 . S
C1673 C1670 1.382 . S
C1673 C1674 1.387 . S
C1673 H1690 0.930 . S
C1674 C1672 1.381 . S
C1674 C1673 1.387 . S
C1674 H1691 0.931 . S
C1675 C1668 1.399 . S
C1675 C1672 1.487 . S
C1675 N1692 1.343 . S
H1676 C1648 0.931 . S
H1677 C1650 0.930 . S
H1678 C1652 0.930 . S
H1679 C1653 0.931 . S
H1680 C1655 0.931 . S
H1681 C1657 0.930 . S
H1682 C1659 0.930 . S
H1683 C1660 0.931 . S
H1684 C1662 0.931 . S
H1685 C1664 0.930 . S
H1686 C1666 0.930 . S
H1687 C1667 0.931 . S
H1688 C1669 0.931 . S
H1689 C1671 0.930 . S
H1690 C1673 0.930 . S
H1691 C1674 0.931 . S
N1692 C1654 1.343 1_455 S
N1692 C1675 1.343 . S
N1693 C1661 1.343 1_455 S
N1693 C1668 1.343 . S
C1694 C1695 1.384 . S
C1694 C1696 1.384 . S
C1694 H1722 0.931 . S
C1695 C1694 1.384 . S
C1695 C1698 1.382 . S
C1696 C1694 1.384 . S
C1696 C1697 1.381 . S
C1696 H1723 0.930 . S
C1697 C1696 1.381 . S
C1697 C1699 1.381 . S
C1697 C1700 1.487 . S
C1698 C1695 1.382 . S
C1698 C1699 1.387 . S
C1698 H1724 0.930 . S
C1699 C1697 1.381 . S
C1699 C1698 1.387 . S
C1699 H1725 0.931 . S
C1700 C1697 1.487 . S
C1700 C1707 1.399 . S
C1700 N1738 1.281 1_565 S
C1701 C1702 1.384 . S
C1701 C1703 1.384 . S
C1701 H1726 0.931 . S
C1702 C1701 1.384 . S
C1702 C1705 1.382 . S
C1703 C1701 1.384 . S
C1703 C1704 1.381 . S
C1703 H1727 0.930 . S
C1704 C1703 1.381 . S
C1704 C1706 1.381 . S
C1704 C1707 1.487 . S
C1705 C1702 1.382 . S
C1705 C1706 1.387 . S
C1705 H1728 0.930 . S
C1706 C1704 1.381 . S
C1706 C1705 1.387 . S
C1706 H1729 0.931 . S
C1707 C1700 1.399 . S
C1707 C1704 1.487 . S
C1707 N1739 1.343 1_565 S
C1708 C1709 1.384 . S
C1708 C1710 1.384 . S
C1708 H1730 0.931 . S
C1709 C1708 1.384 . S
C1709 C1712 1.382 . S
C1710 C1708 1.384 . S
C1710 C1711 1.381 . S
C1710 H1731 0.930 . S
C1711 C1710 1.381 . S
C1711 C1713 1.381 . S
C1711 C1714 1.487 . S
C1712 C1709 1.382 . S
C1712 C1713 1.387 . S
C1712 H1732 0.930 . S
C1713 C1711 1.381 . S
C1713 C1712 1.387 . S
C1713 H1733 0.931 . S
C1714 C1711 1.487 . S
C1714 C1721 1.399 . S
C1714 N1739 1.343 . S
C1715 C1716 1.384 . S
C1715 C1717 1.384 . S
C1715 H1734 0.931 . S
C1716 C1715 1.384 . S
C1716 C1719 1.382 . S
C1717 C1715 1.384 . S
C1717 C1718 1.381 . S
C1717 H1735 0.930 . S
C1718 C1717 1.381 . S
C1718 C1720 1.381 . S
C1718 C1721 1.487 . S
C1719 C1716 1.382 . S
C1719 C1720 1.387 . S
C1719 H1736 0.930 . S
C1720 C1718 1.381 . S
C1720 C1719 1.387 . S
C1720 H1737 0.931 . S
C1721 C1714 1.399 . S
C1721 C1718 1.487 . S
C1721 N1738 1.406 . S
H1722 C1694 0.931 . S
H1723 C1696 0.930 . S
H1724 C1698 0.930 . S
H1725 C1699 0.931 . S
H1726 C1701 0.931 . S
H1727 C1703 0.930 . S
H1728 C1705 0.930 . S
H1729 C1706 0.931 . S
H1730 C1708 0.931 . S
H1731 C1710 0.930 . S
H1732 C1712 0.930 . S
H1733 C1713 0.931 . S
H1734 C1715 0.931 . S
H1735 C1717 0.930 . S
H1736 C1719 0.930 . S
H1737 C1720 0.931 . S
N1738 C1700 1.281 1_545 S
N1738 C1721 1.406 . S
N1739 C1707 1.343 1_545 S
N1739 C1714 1.343 . S
C1740 C1741 1.384 . S
C1740 C1742 1.384 . S
C1740 H1768 0.931 . S
C1741 C1740 1.384 . S
C1741 C1744 1.382 . S
C1742 C1740 1.384 . S
C1742 C1743 1.381 . S
C1742 H1769 0.930 . S
C1743 C1742 1.381 . S
C1743 C1745 1.381 . S
C1743 C1746 1.487 . S
C1744 C1741 1.382 . S
C1744 C1745 1.387 . S
C1744 H1770 0.930 . S
C1745 C1743 1.381 . S
C1745 C1744 1.387 . S
C1745 H1771 0.931 . S
C1746 C1743 1.487 . S
C1746 C1753 1.399 . S
C1746 N1784 1.343 . S
C1747 C1748 1.384 . S
C1747 C1749 1.384 . S
C1747 H1772 0.931 . S
C1748 C1747 1.384 . S
C1748 C1751 1.382 . S
C1749 C1747 1.384 . S
C1749 C1750 1.381 . S
C1749 H1773 0.930 . S
C1750 C1749 1.381 . S
C1750 C1752 1.381 . S
C1750 C1753 1.487 . S
C1751 C1748 1.382 . S
C1751 C1752 1.387 . S
C1751 H1774 0.930 . S
C1752 C1750 1.381 . S
C1752 C1751 1.387 . S
C1752 H1775 0.931 . S
C1753 C1746 1.399 . S
C1753 C1750 1.487 . S
C1753 N1785 1.427 . S
C1754 C1755 1.384 . S
C1754 C1756 1.384 . S
C1754 H1776 0.931 . S
C1755 C1754 1.384 . S
C1755 C1758 1.382 . S
C1756 C1754 1.384 . S
C1756 C1757 1.381 . S
C1756 H1777 0.930 . S
C1757 C1756 1.381 . S
C1757 C1759 1.381 . S
C1757 C1760 1.487 . S
C1758 C1755 1.382 . S
C1758 C1759 1.387 . S
C1758 H1778 0.930 . S
C1759 C1757 1.381 . S
C1759 C1758 1.387 . S
C1759 H1779 0.931 . S
C1760 C1757 1.487 . S
C1760 C1767 1.399 . S
C1760 N1785 1.261 1_655 S
C1761 C1762 1.384 . S
C1761 C1763 1.384 . S
C1761 H1780 0.931 . S
C1762 C1761 1.384 . S
C1762 C1765 1.382 . S
C1763 C1761 1.384 . S
C1763 C1764 1.381 . S
C1763 H1781 0.930 . S
C1764 C1763 1.381 . S
C1764 C1766 1.381 . S
C1764 C1767 1.487 . S
C1765 C1762 1.382 . S
C1765 C1766 1.387 . S
C1765 H1782 0.930 . S
C1766 C1764 1.381 . S
C1766 C1765 1.387 . S
C1766 H1783 0.931 . S
C1767 C1760 1.399 . S
C1767 C1764 1.487 . S
C1767 N1784 1.343 1_655 S
H1768 C1740 0.931 . S
H1769 C1742 0.930 . S
H1770 C1744 0.930 . S
H1771 C1745 0.931 . S
H1772 C1747 0.931 . S
H1773 C1749 0.930 . S
H1774 C1751 0.930 . S
H1775 C1752 0.931 . S
H1776 C1754 0.931 . S
H1777 C1756 0.930 . S
H1778 C1758 0.930 . S
H1779 C1759 0.931 . S
H1780 C1761 0.931 . S
H1781 C1763 0.930 . S
H1782 C1765 0.930 . S
H1783 C1766 0.931 . S
N1784 C1746 1.343 . S
N1784 C1767 1.343 1_455 S
N1785 C1753 1.427 . S
N1785 C1760 1.261 1_455 S
C1786 C1787 1.384 . S
C1786 C1788 1.384 . S
C1786 H1814 0.931 . S
C1787 C1786 1.384 . S
C1787 C1790 1.382 . S
C1788 C1786 1.384 . S
C1788 C1789 1.381 . S
C1788 H1815 0.930 . S
C1789 C1788 1.381 . S
C1789 C1791 1.381 . S
C1789 C1792 1.487 . S
C1790 C1787 1.382 . S
C1790 C1791 1.387 . S
C1790 H1816 0.930 . S
C1791 C1789 1.381 . S
C1791 C1790 1.387 . S
C1791 H1817 0.931 . S
C1792 C1789 1.487 . S
C1792 C1799 1.399 . S
C1792 N1830 1.343 1_565 S
C1793 C1794 1.384 . S
C1793 C1795 1.384 . S
C1793 H1818 0.931 . S
C1794 C1793 1.384 . S
C1794 C1797 1.382 . S
C1795 C1793 1.384 . S
C1795 C1796 1.381 . S
C1795 H1819 0.930 . S
C1796 C1795 1.381 . S
C1796 C1798 1.381 . S
C1796 C1799 1.487 . S
C1797 C1794 1.382 . S
C1797 C1798 1.387 . S
C1797 H1820 0.930 . S
C1798 C1796 1.381 . S
C1798 C1797 1.387 . S
C1798 H1821 0.931 . S
C1799 C1792 1.399 . S
C1799 C1796 1.487 . S
C1799 N1831 1.343 1_565 S
C1800 C1801 1.384 . S
C1800 C1802 1.384 . S
C1800 H1822 0.931 . S
C1801 C1800 1.384 . S
C1801 C1804 1.382 . S
C1802 C1800 1.384 . S
C1802 C1803 1.381 . S
C1802 H1823 0.930 . S
C1803 C1802 1.381 . S
C1803 C1805 1.381 . S
C1803 C1806 1.487 . S
C1804 C1801 1.382 . S
C1804 C1805 1.387 . S
C1804 H1824 0.930 . S
C1805 C1803 1.381 . S
C1805 C1804 1.387 . S
C1805 H1825 0.931 . S
C1806 C1803 1.487 . S
C1806 C1813 1.399 . S
C1806 N1831 1.343 . S
C1807 C1808 1.384 . S
C1807 C1809 1.384 . S
C1807 H1826 0.931 . S
C1808 C1807 1.384 . S
C1808 C1811 1.382 . S
C1809 C1807 1.384 . S
C1809 C1810 1.381 . S
C1809 H1827 0.930 . S
C1810 C1809 1.381 . S
C1810 C1812 1.381 . S
C1810 C1813 1.487 . S
C1811 C1808 1.382 . S
C1811 C1812 1.387 . S
C1811 H1828 0.930 . S
C1812 C1810 1.381 . S
C1812 C1811 1.387 . S
C1812 H1829 0.931 . S
C1813 C1806 1.399 . S
C1813 C1810 1.487 . S
C1813 N1830 1.343 . S
H1814 C1786 0.931 . S
H1815 C1788 0.930 . S
H1816 C1790 0.930 . S
H1817 C1791 0.931 . S
H1818 C1793 0.931 . S
H1819 C1795 0.930 . S
H1820 C1797 0.930 . S
H1821 C1798 0.931 . S
H1822 C1800 0.931 . S
H1823 C1802 0.930 . S
H1824 C1804 0.930 . S
H1825 C1805 0.931 . S
H1826 C1807 0.931 . S
H1827 C1809 0.930 . S
H1828 C1811 0.930 . S
H1829 C1812 0.931 . S
N1830 C1792 1.343 1_545 S
N1830 C1813 1.343 . S
N1831 C1799 1.343 1_545 S
N1831 C1806 1.343 . S
C1832 C1833 1.384 . S
C1832 C1834 1.384 . S
C1832 H1860 0.931 . S
C1833 C1832 1.384 . S
C1833 C1836 1.382 . S
C1834 C1832 1.384 . S
C1834 C1835 1.381 . S
C1834 H1861 0.930 . S
C1835 C1834 1.381 . S
C1835 C1837 1.381 . S
C1835 C1838 1.487 . S
C1836 C1833 1.382 . S
C1836 C1837 1.387 . S
C1836 H1862 0.930 . S
C1837 C1835 1.381 . S
C1837 C1836 1.387 . S
C1837 H1863 0.931 . S
C1838 C1835 1.487 . S
C1838 C1845 1.399 . S
C1838 N1876 1.343 . S
C1839 C1840 1.384 . S
C1839 C1841 1.384 . S
C1839 H1864 0.931 . S
C1840 C1839 1.384 . S
C1840 C1843 1.382 . S
C1841 C1839 1.384 . S
C1841 C1842 1.381 . S
C1841 H1865 0.930 . S
C1842 C1841 1.381 . S
C1842 C1844 1.381 . S
C1842 C1845 1.487 . S
C1843 C1840 1.382 . S
C1843 C1844 1.387 . S
C1843 H1866 0.930 . S
C1844 C1842 1.381 . S
C1844 C1843 1.387 . S
C1844 H1867 0.931 . S
C1845 C1838 1.399 . S
C1845 C1842 1.487 . S
C1845 N1877 1.343 . S
C1846 C1847 1.384 . S
C1846 C1848 1.384 . S
C1846 H1868 0.931 . S
C1847 C1846 1.384 . S
C1847 C1850 1.382 . S
C1848 C1846 1.384 . S
C1848 C1849 1.381 . S
C1848 H1869 0.930 . S
C1849 C1848 1.381 . S
C1849 C1851 1.381 . S
C1849 C1852 1.487 . S
C1850 C1847 1.382 . S
C1850 C1851 1.387 . S
C1850 H1870 0.930 . S
C1851 C1849 1.381 . S
C1851 C1850 1.387 . S
C1851 H1871 0.931 . S
C1852 C1849 1.487 . S
C1852 C1859 1.399 . S
C1852 N1877 1.343 . S
C1853 C1854 1.384 . S
C1853 C1855 1.384 . S
C1853 H1872 0.931 . S
C1854 C1853 1.384 . S
C1854 C1857 1.382 . S
C1855 C1853 1.384 . S
C1855 C1856 1.381 . S
C1855 H1873 0.930 . S
C1856 C1855 1.381 . S
C1856 C1858 1.381 . S
C1856 C1859 1.487 . S
C1857 C1854 1.382 . S
C1857 C1858 1.387 . S
C1857 H1874 0.930 . S
C1858 C1856 1.381 . S
C1858 C1857 1.387 . S
C1858 H1875 0.931 . S
C1859 C1852 1.399 . S
C1859 C1856 1.487 . S
C1859 N1876 1.343 . S
H1860 C1832 0.931 . S
H1861 C1834 0.930 . S
H1862 C1836 0.930 . S
H1863 C1837 0.931 . S
H1864 C1839 0.931 . S
H1865 C1841 0.930 . S
H1866 C1843 0.930 . S
H1867 C1844 0.931 . S
H1868 C1846 0.931 . S
H1869 C1848 0.930 . S
H1870 C1850 0.930 . S
H1871 C1851 0.931 . S
H1872 C1853 0.931 . S
H1873 C1855 0.930 . S
H1874 C1857 0.930 . S
H1875 C1858 0.931 . S
N1876 C1838 1.343 . S
N1876 C1859 1.343 . S
N1877 C1845 1.343 . S
N1877 C1852 1.343 . S
C1878 C1879 1.384 . S
C1878 C1880 1.384 . S
C1878 H1906 0.931 . S
C1879 C1878 1.384 . S
C1879 C1882 1.382 . S
C1880 C1878 1.384 . S
C1880 C1881 1.381 . S
C1880 H1907 0.930 . S
C1881 C1880 1.381 . S
C1881 C1883 1.381 . S
C1881 C1884 1.487 . S
C1882 C1879 1.382 . S
C1882 C1883 1.387 . S
C1882 H1908 0.930 . S
C1883 C1881 1.381 . S
C1883 C1882 1.387 . S
C1883 H1909 0.931 . S
C1884 C1881 1.487 . S
C1884 C1891 1.399 . S
C1884 N1922 1.343 . S
C1885 C1886 1.384 . S
C1885 C1887 1.384 . S
C1885 H1910 0.931 . S
C1886 C1885 1.384 . S
C1886 C1889 1.382 . S
C1887 C1885 1.384 . S
C1887 C1888 1.381 . S
C1887 H1911 0.930 . S
C1888 C1887 1.381 . S
C1888 C1890 1.381 . S
C1888 C1891 1.487 . S
C1889 C1886 1.382 . S
C1889 C1890 1.387 . S
C1889 H1912 0.930 . S
C1890 C1888 1.381 . S
C1890 C1889 1.387 . S
C1890 H1913 0.931 . S
C1891 C1884 1.399 . S
C1891 C1888 1.487 . S
C1891 N1923 1.343 . S
C1892 C1893 1.384 . S
C1892 C1894 1.384 . S
C1892 H1914 0.931 . S
C1893 C1892 1.384 . S
C1893 C1896 1.382 . S
C1894 C1892 1.384 . S
C1894 C1895 1.381 . S
C1894 H1915 0.930 . S
C1895 C1894 1.381 . S
C1895 C1897 1.381 . S
C1895 C1898 1.487 . S
C1896 C1893 1.382 . S
C1896 C1897 1.387 . S
C1896 H1916 0.930 . S
C1897 C1895 1.381 . S
C1897 C1896 1.387 . S
C1897 H1917 0.931 . S
C1898 C1895 1.487 . S
C1898 C1905 1.399 . S
C1898 N1923 1.343 . S
C1899 C1900 1.384 . S
C1899 C1901 1.384 . S
C1899 H1918 0.931 . S
C1900 C1899 1.384 . S
C1900 C1903 1.382 . S
C1901 C1899 1.384 . S
C1901 C1902 1.381 . S
C1901 H1919 0.930 . S
C1902 C1901 1.381 . S
C1902 C1904 1.381 . S
C1902 C1905 1.487 . S
C1903 C1900 1.382 . S
C1903 C1904 1.387 . S
C1903 H1920 0.930 . S
C1904 C1902 1.381 . S
C1904 C1903 1.387 . S
C1904 H1921 0.931 . S
C1905 C1898 1.399 . S
C1905 C1902 1.487 . S
C1905 N1922 1.343 . S
H1906 C1878 0.931 . S
H1907 C1880 0.930 . S
H1908 C1882 0.930 . S
H1909 C1883 0.931 . S
H1910 C1885 0.931 . S
H1911 C1887 0.930 . S
H1912 C1889 0.930 . S
H1913 C1890 0.931 . S
H1914 C1892 0.931 . S
H1915 C1894 0.930 . S
H1916 C1896 0.930 . S
H1917 C1897 0.931 . S
H1918 C1899 0.931 . S
H1919 C1901 0.930 . S
H1920 C1903 0.930 . S
H1921 C1904 0.931 . S
N1922 C1884 1.343 . S
N1922 C1905 1.343 . S
N1923 C1891 1.343 . S
N1923 C1898 1.343 . S
C1924 C1925 1.384 . S
C1924 C1926 1.384 . S
C1924 H1952 0.931 . S
C1925 C1924 1.384 . S
C1925 C1928 1.382 . S
C1926 C1924 1.384 . S
C1926 C1927 1.381 . S
C1926 H1953 0.930 . S
C1927 C1926 1.381 . S
C1927 C1929 1.381 . S
C1927 C1930 1.487 . S
C1928 C1925 1.382 . S
C1928 C1929 1.387 . S
C1928 H1954 0.930 . S
C1929 C1927 1.381 . S
C1929 C1928 1.387 . S
C1929 H1955 0.931 . S
C1930 C1927 1.487 . S
C1930 C1937 1.399 . S
C1930 N1968 1.343 . S
C1931 C1932 1.384 . S
C1931 C1933 1.384 . S
C1931 H1956 0.931 . S
C1932 C1931 1.384 . S
C1932 C1935 1.382 . S
C1933 C1931 1.384 . S
C1933 C1934 1.381 . S
C1933 H1957 0.930 . S
C1934 C1933 1.381 . S
C1934 C1936 1.381 . S
C1934 C1937 1.487 . S
C1935 C1932 1.382 . S
C1935 C1936 1.387 . S
C1935 H1958 0.930 . S
C1936 C1934 1.381 . S
C1936 C1935 1.387 . S
C1936 H1959 0.931 . S
C1937 C1930 1.399 . S
C1937 C1934 1.487 . S
C1937 N1969 1.343 . S
C1938 C1939 1.384 . S
C1938 C1940 1.384 . S
C1938 H1960 0.931 . S
C1939 C1938 1.384 . S
C1939 C1942 1.382 . S
C1940 C1938 1.384 . S
C1940 C1941 1.381 . S
C1940 H1961 0.930 . S
C1941 C1940 1.381 . S
C1941 C1943 1.381 . S
C1941 C1944 1.487 . S
C1942 C1939 1.382 . S
C1942 C1943 1.387 . S
C1942 H1962 0.930 . S
C1943 C1941 1.381 . S
C1943 C1942 1.387 . S
C1943 H1963 0.931 . S
C1944 C1941 1.487 . S
C1944 C1951 1.399 . S
C1944 N1969 1.343 . S
C1945 C1946 1.384 . S
C1945 C1947 1.384 . S
C1945 H1964 0.931 . S
C1946 C1945 1.384 . S
C1946 C1949 1.382 . S
C1947 C1945 1.384 . S
C1947 C1948 1.381 . S
C1947 H1965 0.930 . S
C1948 C1947 1.381 . S
C1948 C1950 1.381 . S
C1948 C1951 1.487 . S
C1949 C1946 1.382 . S
C1949 C1950 1.387 . S
C1949 H1966 0.930 . S
C1950 C1948 1.381 . S
C1950 C1949 1.387 . S
C1950 H1967 0.931 . S
C1951 C1944 1.399 . S
C1951 C1948 1.487 . S
C1951 N1968 1.343 . S
H1952 C1924 0.931 . S
H1953 C1926 0.930 . S
H1954 C1928 0.930 . S
H1955 C1929 0.931 . S
H1956 C1931 0.931 . S
H1957 C1933 0.930 . S
H1958 C1935 0.930 . S
H1959 C1936 0.931 . S
H1960 C1938 0.931 . S
H1961 C1940 0.930 . S
H1962 C1942 0.930 . S
H1963 C1943 0.931 . S
H1964 C1945 0.931 . S
H1965 C1947 0.930 . S
H1966 C1949 0.930 . S
H1967 C1950 0.931 . S
N1968 C1930 1.343 . S
N1968 C1951 1.343 . S
N1969 C1937 1.343 . S
N1969 C1944 1.343 . S
C1970 C1971 1.384 . S
C1970 C1972 1.384 . S
C1970 H1998 0.931 . S
C1971 C1970 1.384 . S
C1971 C1974 1.382 . S
C1972 C1970 1.384 . S
C1972 C1973 1.381 . S
C1972 H1999 0.930 . S
C1973 C1972 1.381 . S
C1973 C1975 1.381 . S
C1973 C1976 1.487 . S
C1974 C1971 1.382 . S
C1974 C1975 1.387 . S
C1974 H2000 0.930 . S
C1975 C1973 1.381 . S
C1975 C1974 1.387 . S
C1975 H2001 0.931 . S
C1976 C1973 1.487 . S
C1976 C1983 1.399 . S
C1976 N2014 1.343 . S
C1977 C1978 1.384 . S
C1977 C1979 1.384 . S
C1977 H2002 0.931 . S
C1978 C1977 1.384 . S
C1978 C1981 1.382 . S
C1979 C1977 1.384 . S
C1979 C1980 1.381 . S
C1979 H2003 0.930 . S
C1980 C1979 1.381 . S
C1980 C1982 1.381 . S
C1980 C1983 1.487 . S
C1981 C1978 1.382 . S
C1981 C1982 1.387 . S
C1981 H2004 0.930 . S
C1982 C1980 1.381 . S
C1982 C1981 1.387 . S
C1982 H2005 0.931 . S
C1983 C1976 1.399 . S
C1983 C1980 1.487 . S
C1983 N2015 1.343 . S
C1984 C1985 1.384 . S
C1984 C1986 1.384 . S
C1984 H2006 0.931 . S
C1985 C1984 1.384 . S
C1985 C1988 1.382 . S
C1986 C1984 1.384 . S
C1986 C1987 1.381 . S
C1986 H2007 0.930 . S
C1987 C1986 1.381 . S
C1987 C1989 1.381 . S
C1987 C1990 1.487 . S
C1988 C1985 1.382 . S
C1988 C1989 1.387 . S
C1988 H2008 0.930 . S
C1989 C1987 1.381 . S
C1989 C1988 1.387 . S
C1989 H2009 0.931 . S
C1990 C1987 1.487 . S
C1990 C1997 1.399 . S
C1990 N2015 1.343 . S
C1991 C1992 1.384 . S
C1991 C1993 1.384 . S
C1991 H2010 0.931 . S
C1992 C1991 1.384 . S
C1992 C1995 1.382 . S
C1993 C1991 1.384 . S
C1993 C1994 1.381 . S
C1993 H2011 0.930 . S
C1994 C1993 1.381 . S
C1994 C1996 1.381 . S
C1994 C1997 1.487 . S
C1995 C1992 1.382 . S
C1995 C1996 1.387 . S
C1995 H2012 0.930 . S
C1996 C1994 1.381 . S
C1996 C1995 1.387 . S
C1996 H2013 0.931 . S
C1997 C1990 1.399 . S
C1997 C1994 1.487 . S
C1997 N2014 1.343 . S
H1998 C1970 0.931 . S
H1999 C1972 0.930 . S
H2000 C1974 0.930 . S
H2001 C1975 0.931 . S
H2002 C1977 0.931 . S
H2003 C1979 0.930 . S
H2004 C1981 0.930 . S
H2005 C1982 0.931 . S
H2006 C1984 0.931 . S
H2007 C1986 0.930 . S
H2008 C1988 0.930 . S
H2009 C1989 0.931 . S
H2010 C1991 0.931 . S
H2011 C1993 0.930 . S
H2012 C1995 0.930 . S
H2013 C1996 0.931 . S
N2014 C1976 1.343 . S
N2014 C1997 1.343 . S
N2015 C1983 1.343 . S
N2015 C1990 1.343 . S
C2016 C2017 1.384 . S
C2016 C2018 1.384 . S
C2016 H2044 0.931 . S
C2017 C2016 1.384 . S
C2017 C2020 1.382 . S
C2018 C2016 1.384 . S
C2018 C2019 1.381 . S
C2018 H2045 0.930 . S
C2019 C2018 1.381 . S
C2019 C2021 1.381 . S
C2019 C2022 1.487 . S
C2020 C2017 1.382 . S
C2020 C2021 1.387 . S
C2020 H2046 0.930 . S
C2021 C2019 1.381 . S
C2021 C2020 1.387 . S
C2021 H2047 0.931 . S
C2022 C2019 1.487 . S
C2022 C2029 1.399 . S
C2022 N2060 1.343 . S
C2023 C2024 1.384 . S
C2023 C2025 1.384 . S
C2023 H2048 0.931 . S
C2024 C2023 1.384 . S
C2024 C2027 1.382 . S
C2025 C2023 1.384 . S
C2025 C2026 1.381 . S
C2025 H2049 0.930 . S
C2026 C2025 1.381 . S
C2026 C2028 1.381 . S
C2026 C2029 1.487 . S
C2027 C2024 1.382 . S
C2027 C2028 1.387 . S
C2027 H2050 0.930 . S
C2028 C2026 1.381 . S
C2028 C2027 1.387 . S
C2028 H2051 0.931 . S
C2029 C2022 1.399 . S
C2029 C2026 1.487 . S
C2029 N2061 1.343 . S
C2030 C2031 1.384 . S
C2030 C2032 1.384 . S
C2030 H2052 0.931 . S
C2031 C2030 1.384 . S
C2031 C2034 1.382 . S
C2032 C2030 1.384 . S
C2032 C2033 1.381 . S
C2032 H2053 0.930 . S
C2033 C2032 1.381 . S
C2033 C2035 1.381 . S
C2033 C2036 1.487 . S
C2034 C2031 1.382 . S
C2034 C2035 1.387 . S
C2034 H2054 0.930 . S
C2035 C2033 1.381 . S
C2035 C2034 1.387 . S
C2035 H2055 0.931 . S
C2036 C2033 1.487 . S
C2036 C2043 1.399 . S
C2036 N2061 1.343 . S
C2037 C2038 1.384 . S
C2037 C2039 1.384 . S
C2037 H2056 0.931 . S
C2038 C2037 1.384 . S
C2038 C2041 1.382 . S
C2039 C2037 1.384 . S
C2039 C2040 1.381 . S
C2039 H2057 0.930 . S
C2040 C2039 1.381 . S
C2040 C2042 1.381 . S
C2040 C2043 1.487 . S
C2041 C2038 1.382 . S
C2041 C2042 1.387 . S
C2041 H2058 0.930 . S
C2042 C2040 1.381 . S
C2042 C2041 1.387 . S
C2042 H2059 0.931 . S
C2043 C2036 1.399 . S
C2043 C2040 1.487 . S
C2043 N2060 1.343 . S
H2044 C2016 0.931 . S
H2045 C2018 0.930 . S
H2046 C2020 0.930 . S
H2047 C2021 0.931 . S
H2048 C2023 0.931 . S
H2049 C2025 0.930 . S
H2050 C2027 0.930 . S
H2051 C2028 0.931 . S
H2052 C2030 0.931 . S
H2053 C2032 0.930 . S
H2054 C2034 0.930 . S
H2055 C2035 0.931 . S
H2056 C2037 0.931 . S
H2057 C2039 0.930 . S
H2058 C2041 0.930 . S
H2059 C2042 0.931 . S
N2060 C2022 1.343 . S
N2060 C2043 1.343 . S
N2061 C2029 1.343 . S
N2061 C2036 1.343 . S
C2062 C2063 1.384 . S
C2062 C2064 1.384 . S
C2062 H2090 0.931 . S
C2063 C2062 1.384 . S
C2063 C2066 1.382 . S
C2064 C2062 1.384 . S
C2064 C2065 1.381 . S
C2064 H2091 0.930 . S
C2065 C2064 1.381 . S
C2065 C2067 1.381 . S
C2065 C2068 1.487 . S
C2066 C2063 1.382 . S
C2066 C2067 1.387 . S
C2066 H2092 0.930 . S
C2067 C2065 1.381 . S
C2067 C2066 1.387 . S
C2067 H2093 0.931 . S
C2068 C2065 1.487 . S
C2068 C2075 1.399 . S
C2068 N2106 1.343 . S
C2069 C2070 1.384 . S
C2069 C2071 1.384 . S
C2069 H2094 0.931 . S
C2070 C2069 1.384 . S
C2070 C2073 1.382 . S
C2071 C2069 1.384 . S
C2071 C2072 1.381 . S
C2071 H2095 0.930 . S
C2072 C2071 1.381 . S
C2072 C2074 1.381 . S
C2072 C2075 1.487 . S
C2073 C2070 1.382 . S
C2073 C2074 1.387 . S
C2073 H2096 0.930 . S
C2074 C2072 1.381 . S
C2074 C2073 1.387 . S
C2074 H2097 0.931 . S
C2075 C2068 1.399 . S
C2075 C2072 1.487 . S
C2075 N2107 1.343 . S
C2076 C2077 1.384 . S
C2076 C2078 1.384 . S
C2076 H2098 0.931 . S
C2077 C2076 1.384 . S
C2077 C2080 1.382 . S
C2078 C2076 1.384 . S
C2078 C2079 1.381 . S
C2078 H2099 0.930 . S
C2079 C2078 1.381 . S
C2079 C2081 1.381 . S
C2079 C2082 1.487 . S
C2080 C2077 1.382 . S
C2080 C2081 1.387 . S
C2080 H2100 0.930 . S
C2081 C2079 1.381 . S
C2081 C2080 1.387 . S
C2081 H2101 0.931 . S
C2082 C2079 1.487 . S
C2082 C2089 1.399 . S
C2082 N2107 1.343 . S
C2083 C2084 1.384 . S
C2083 C2085 1.384 . S
C2083 H2102 0.931 . S
C2084 C2083 1.384 . S
C2084 C2087 1.382 . S
C2085 C2083 1.384 . S
C2085 C2086 1.381 . S
C2085 H2103 0.930 . S
C2086 C2085 1.381 . S
C2086 C2088 1.381 . S
C2086 C2089 1.487 . S
C2087 C2084 1.382 . S
C2087 C2088 1.387 . S
C2087 H2104 0.930 . S
C2088 C2086 1.381 . S
C2088 C2087 1.387 . S
C2088 H2105 0.931 . S
C2089 C2082 1.399 . S
C2089 C2086 1.487 . S
C2089 N2106 1.343 . S
H2090 C2062 0.931 . S
H2091 C2064 0.930 . S
H2092 C2066 0.930 . S
H2093 C2067 0.931 . S
H2094 C2069 0.931 . S
H2095 C2071 0.930 . S
H2096 C2073 0.930 . S
H2097 C2074 0.931 . S
H2098 C2076 0.931 . S
H2099 C2078 0.930 . S
H2100 C2080 0.930 . S
H2101 C2081 0.931 . S
H2102 C2083 0.931 . S
H2103 C2085 0.930 . S
H2104 C2087 0.930 . S
H2105 C2088 0.931 . S
N2106 C2068 1.343 . S
N2106 C2089 1.343 . S
N2107 C2075 1.343 . S
N2107 C2082 1.343 . S
C2108 C2109 1.384 . S
C2108 C2110 1.384 . S
C2108 H2136 0.931 . S
C2109 C2108 1.384 . S
C2109 C2112 1.382 . S
C2110 C2108 1.384 . S
C2110 C2111 1.381 . S
C2110 H2137 0.930 . S
C2111 C2110 1.381 . S
C2111 C2113 1.381 . S
C2111 C2114 1.487 . S
C2112 C2109 1.382 . S
C2112 C2113 1.387 . S
C2112 H2138 0.930 . S
C2113 C2111 1.381 . S
C2113 C2112 1.387 . S
C2113 H2139 0.931 . S
C2114 C2111 1.487 . S
C2114 C2121 1.399 . S
C2114 N2152 1.343 . S
C2115 C2116 1.384 . S
C2115 C2117 1.384 . S
C2115 H2140 0.931 . S
C2116 C2115 1.384 . S
C2116 C2119 1.382 . S
C2117 C2115 1.384 . S
C2117 C2118 1.381 . S
C2117 H2141 0.930 . S
C2118 C2117 1.381 . S
C2118 C2120 1.381 . S
C2118 C2121 1.487 . S
C2119 C2116 1.382 . S
C2119 C2120 1.387 . S
C2119 H2142 0.930 . S
C2120 C2118 1.381 . S
C2120 C2119 1.387 . S
C2120 H2143 0.931 . S
C2121 C2114 1.399 . S
C2121 C2118 1.487 . S
C2121 N2153 1.343 . S
C2122 C2123 1.384 . S
C2122 C2124 1.384 . S
C2122 H2144 0.931 . S
C2123 C2122 1.384 . S
C2123 C2126 1.382 . S
C2124 C2122 1.384 . S
C2124 C2125 1.381 . S
C2124 H2145 0.930 . S
C2125 C2124 1.381 . S
C2125 C2127 1.381 . S
C2125 C2128 1.487 . S
C2126 C2123 1.382 . S
C2126 C2127 1.387 . S
C2126 H2146 0.930 . S
C2127 C2125 1.381 . S
C2127 C2126 1.387 . S
C2127 H2147 0.931 . S
C2128 C2125 1.487 . S
C2128 C2135 1.399 . S
C2128 N2153 1.343 . S
C2129 C2130 1.384 . S
C2129 C2131 1.384 . S
C2129 H2148 0.931 . S
C2130 C2129 1.384 . S
C2130 C2133 1.382 . S
C2131 C2129 1.384 . S
C2131 C2132 1.381 . S
C2131 H2149 0.930 . S
C2132 C2131 1.381 . S
C2132 C2134 1.381 . S
C2132 C2135 1.487 . S
C2133 C2130 1.382 . S
C2133 C2134 1.387 . S
C2133 H2150 0.930 . S
C2134 C2132 1.381 . S
C2134 C2133 1.387 . S
C2134 H2151 0.931 . S
C2135 C2128 1.399 . S
C2135 C2132 1.487 . S
C2135 N2152 1.343 . S
H2136 C2108 0.931 . S
H2137 C2110 0.930 . S
H2138 C2112 0.930 . S
H2139 C2113 0.931 . S
H2140 C2115 0.931 . S
H2141 C2117 0.930 . S
H2142 C2119 0.930 . S
H2143 C2120 0.931 . S
H2144 C2122 0.931 . S
H2145 C2124 0.930 . S
H2146 C2126 0.930 . S
H2147 C2127 0.931 . S
H2148 C2129 0.931 . S
H2149 C2131 0.930 . S
H2150 C2133 0.930 . S
H2151 C2134 0.931 . S
N2152 C2114 1.343 . S
N2152 C2135 1.343 . S
N2153 C2121 1.343 . S
N2153 C2128 1.343 . S
C2154 C2155 1.384 . S
C2154 C2156 1.384 . S
C2154 H2182 0.931 . S
C2155 C2154 1.384 . S
C2155 C2158 1.382 . S
C2156 C2154 1.384 . S
C2156 C2157 1.381 . S
C2156 H2183 0.930 . S
C2157 C2156 1.381 . S
C2157 C2159 1.381 . S
C2157 C2160 1.487 . S
C2158 C2155 1.382 . S
C2158 C2159 1.387 . S
C2158 H2184 0.930 . S
C2159 C2157 1.381 . S
C2159 C2158 1.387 . S
C2159 H2185 0.931 . S
C2160 C2157 1.487 . S
C2160 C2167 1.399 . S
C2160 N2198 1.343 . S
C2161 C2162 1.384 . S
C2161 C2163 1.384 . S
C2161 H2186 0.931 . S
C2162 C2161 1.384 . S
C2162 C2165 1.382 . S
C2163 C2161 1.384 . S
C2163 C2164 1.381 . S
C2163 H2187 0.930 . S
C2164 C2163 1.381 . S
C2164 C2166 1.381 . S
C2164 C2167 1.487 . S
C2165 C2162 1.382 . S
C2165 C2166 1.387 . S
C2165 H2188 0.930 . S
C2166 C2164 1.381 . S
C2166 C2165 1.387 . S
C2166 H2189 0.931 . S
C2167 C2160 1.399 . S
C2167 C2164 1.487 . S
C2167 N2199 1.343 . S
C2168 C2169 1.384 . S
C2168 C2170 1.384 . S
C2168 H2190 0.931 . S
C2169 C2168 1.384 . S
C2169 C2172 1.382 . S
C2170 C2168 1.384 . S
C2170 C2171 1.381 . S
C2170 H2191 0.930 . S
C2171 C2170 1.381 . S
C2171 C2173 1.381 . S
C2171 C2174 1.487 . S
C2172 C2169 1.382 . S
C2172 C2173 1.387 . S
C2172 H2192 0.930 . S
C2173 C2171 1.381 . S
C2173 C2172 1.387 . S
C2173 H2193 0.931 . S
C2174 C2171 1.487 . S
C2174 C2181 1.399 . S
C2174 N2199 1.343 . S
C2175 C2176 1.384 . S
C2175 C2177 1.384 . S
C2175 H2194 0.931 . S
C2176 C2175 1.384 . S
C2176 C2179 1.382 . S
C2177 C2175 1.384 . S
C2177 C2178 1.381 . S
C2177 H2195 0.930 . S
C2178 C2177 1.381 . S
C2178 C2180 1.381 . S
C2178 C2181 1.487 . S
C2179 C2176 1.382 . S
C2179 C2180 1.387 . S
C2179 H2196 0.930 . S
C2180 C2178 1.381 . S
C2180 C2179 1.387 . S
C2180 H2197 0.931 . S
C2181 C2174 1.399 . S
C2181 C2178 1.487 . S
C2181 N2198 1.343 . S
H2182 C2154 0.931 . S
H2183 C2156 0.930 . S
H2184 C2158 0.930 . S
H2185 C2159 0.931 . S
H2186 C2161 0.931 . S
H2187 C2163 0.930 . S
H2188 C2165 0.930 . S
H2189 C2166 0.931 . S
H2190 C2168 0.931 . S
H2191 C2170 0.930 . S
H2192 C2172 0.930 . S
H2193 C2173 0.931 . S
H2194 C2175 0.931 . S
H2195 C2177 0.930 . S
H2196 C2179 0.930 . S
H2197 C2180 0.931 . S
N2198 C2160 1.343 . S
N2198 C2181 1.343 . S
N2199 C2167 1.343 . S
N2199 C2174 1.343 . S
C2200 C2201 1.384 . S
C2200 C2202 1.384 . S
C2200 H2228 0.931 . S
C2201 C2200 1.384 . S
C2201 C2204 1.382 . S
C2202 C2200 1.384 . S
C2202 C2203 1.381 . S
C2202 H2229 0.930 . S
C2203 C2202 1.381 . S
C2203 C2205 1.381 . S
C2203 C2206 1.487 . S
C2204 C2201 1.382 . S
C2204 C2205 1.387 . S
C2204 H2230 0.930 . S
C2205 C2203 1.381 . S
C2205 C2204 1.387 . S
C2205 H2231 0.931 . S
C2206 C2203 1.487 . S
C2206 C2213 1.399 . S
C2206 N2244 1.343 . S
C2207 C2208 1.384 . S
C2207 C2209 1.384 . S
C2207 H2232 0.931 . S
C2208 C2207 1.384 . S
C2208 C2211 1.382 . S
C2209 C2207 1.384 . S
C2209 C2210 1.381 . S
C2209 H2233 0.930 . S
C2210 C2209 1.381 . S
C2210 C2212 1.381 . S
C2210 C2213 1.487 . S
C2211 C2208 1.382 . S
C2211 C2212 1.387 . S
C2211 H2234 0.930 . S
C2212 C2210 1.381 . S
C2212 C2211 1.387 . S
C2212 H2235 0.931 . S
C2213 C2206 1.399 . S
C2213 C2210 1.487 . S
C2213 N2245 1.343 . S
C2214 C2215 1.384 . S
C2214 C2216 1.384 . S
C2214 H2236 0.931 . S
C2215 C2214 1.384 . S
C2215 C2218 1.382 . S
C2216 C2214 1.384 . S
C2216 C2217 1.381 . S
C2216 H2237 0.930 . S
C2217 C2216 1.381 . S
C2217 C2219 1.381 . S
C2217 C2220 1.487 . S
C2218 C2215 1.382 . S
C2218 C2219 1.387 . S
C2218 H2238 0.930 . S
C2219 C2217 1.381 . S
C2219 C2218 1.387 . S
C2219 H2239 0.931 . S
C2220 C2217 1.487 . S
C2220 C2227 1.399 . S
C2220 N2245 1.343 . S
C2221 C2222 1.384 . S
C2221 C2223 1.384 . S
C2221 H2240 0.931 . S
C2222 C2221 1.384 . S
C2222 C2225 1.382 . S
C2223 C2221 1.384 . S
C2223 C2224 1.381 . S
C2223 H2241 0.930 . S
C2224 C2223 1.381 . S
C2224 C2226 1.381 . S
C2224 C2227 1.487 . S
C2225 C2222 1.382 . S
C2225 C2226 1.387 . S
C2225 H2242 0.930 . S
C2226 C2224 1.381 . S
C2226 C2225 1.387 . S
C2226 H2243 0.931 . S
C2227 C2220 1.399 . S
C2227 C2224 1.487 . S
C2227 N2244 1.343 . S
H2228 C2200 0.931 . S
H2229 C2202 0.930 . S
H2230 C2204 0.930 . S
H2231 C2205 0.931 . S
H2232 C2207 0.931 . S
H2233 C2209 0.930 . S
H2234 C2211 0.930 . S
H2235 C2212 0.931 . S
H2236 C2214 0.931 . S
H2237 C2216 0.930 . S
H2238 C2218 0.930 . S
H2239 C2219 0.931 . S
H2240 C2221 0.931 . S
H2241 C2223 0.930 . S
H2242 C2225 0.930 . S
H2243 C2226 0.931 . S
N2244 C2206 1.343 . S
N2244 C2227 1.343 . S
N2245 C2213 1.343 . S
N2245 C2220 1.343 . S
C2246 C2247 1.384 . S
C2246 C2248 1.384 . S
C2246 H2274 0.931 . S
C2247 C2246 1.384 . S
C2247 C2250 1.382 . S
C2248 C2246 1.384 . S
C2248 C2249 1.381 . S
C2248 H2275 0.930 . S
C2249 C2248 1.381 . S
C2249 C2251 1.381 . S
C2249 C2252 1.487 . S
C2250 C2247 1.382 . S
C2250 C2251 1.387 . S
C2250 H2276 0.930 . S
C2251 C2249 1.381 . S
C2251 C2250 1.387 . S
C2251 H2277 0.931 . S
C2252 C2249 1.487 . S
C2252 C2259 1.399 . S
C2252 N2290 1.343 . S
C2253 C2254 1.384 . S
C2253 C2255 1.384 . S
C2253 H2278 0.931 . S
C2254 C2253 1.384 . S
C2254 C2257 1.382 . S
C2255 C2253 1.384 . S
C2255 C2256 1.381 . S
C2255 H2279 0.930 . S
C2256 C2255 1.381 . S
C2256 C2258 1.381 . S
C2256 C2259 1.487 . S
C2257 C2254 1.382 . S
C2257 C2258 1.387 . S
C2257 H2280 0.930 . S
C2258 C2256 1.381 . S
C2258 C2257 1.387 . S
C2258 H2281 0.931 . S
C2259 C2252 1.399 . S
C2259 C2256 1.487 . S
C2259 N2291 1.343 . S
C2260 C2261 1.384 . S
C2260 C2262 1.384 . S
C2260 H2282 0.931 . S
C2261 C2260 1.384 . S
C2261 C2264 1.382 . S
C2262 C2260 1.384 . S
C2262 C2263 1.381 . S
C2262 H2283 0.930 . S
C2263 C2262 1.381 . S
C2263 C2265 1.381 . S
C2263 C2266 1.487 . S
C2264 C2261 1.382 . S
C2264 C2265 1.387 . S
C2264 H2284 0.930 . S
C2265 C2263 1.381 . S
C2265 C2264 1.387 . S
C2265 H2285 0.931 . S
C2266 C2263 1.487 . S
C2266 C2273 1.399 . S
C2266 N2291 1.343 . S
C2267 C2268 1.384 . S
C2267 C2269 1.384 . S
C2267 H2286 0.931 . S
C2268 C2267 1.384 . S
C2268 C2271 1.382 . S
C2269 C2267 1.384 . S
C2269 C2270 1.381 . S
C2269 H2287 0.930 . S
C2270 C2269 1.381 . S
C2270 C2272 1.381 . S
C2270 C2273 1.487 . S
C2271 C2268 1.382 . S
C2271 C2272 1.387 . S
C2271 H2288 0.930 . S
C2272 C2270 1.381 . S
C2272 C2271 1.387 . S
C2272 H2289 0.931 . S
C2273 C2266 1.399 . S
C2273 C2270 1.487 . S
C2273 N2290 1.343 . S
H2274 C2246 0.931 . S
H2275 C2248 0.930 . S
H2276 C2250 0.930 . S
H2277 C2251 0.931 . S
H2278 C2253 0.931 . S
H2279 C2255 0.930 . S
H2280 C2257 0.930 . S
H2281 C2258 0.931 . S
H2282 C2260 0.931 . S
H2283 C2262 0.930 . S
H2284 C2264 0.930 . S
H2285 C2265 0.931 . S
H2286 C2267 0.931 . S
H2287 C2269 0.930 . S
H2288 C2271 0.930 . S
H2289 C2272 0.931 . S
N2290 C2252 1.343 . S
N2290 C2273 1.343 . S
N2291 C2259 1.343 . S
N2291 C2266 1.343 . S
C2292 C2293 1.384 . S
C2292 C2294 1.384 . S
C2292 H2320 0.931 . S
C2293 C2292 1.384 . S
C2293 C2296 1.382 . S
C2294 C2292 1.384 . S
C2294 C2295 1.381 . S
C2294 H2321 0.930 . S
C2295 C2294 1.381 . S
C2295 C2297 1.381 . S
C2295 C2298 1.487 . S
C2296 C2293 1.382 . S
C2296 C2297 1.387 . S
C2296 H2322 0.930 . S
C2297 C2295 1.381 . S
C2297 C2296 1.387 . S
C2297 H2323 0.931 . S
C2298 C2295 1.487 . S
C2298 C2305 1.399 . S
C2298 N2336 1.343 . S
C2299 C2300 1.384 . S
C2299 C2301 1.384 . S
C2299 H2324 0.931 . S
C2300 C2299 1.384 . S
C2300 C2303 1.382 . S
C2301 C2299 1.384 . S
C2301 C2302 1.381 . S
C2301 H2325 0.930 . S
C2302 C2301 1.381 . S
C2302 C2304 1.381 . S
C2302 C2305 1.487 . S
C2303 C2300 1.382 . S
C2303 C2304 1.387 . S
C2303 H2326 0.930 . S
C2304 C2302 1.381 . S
C2304 C2303 1.387 . S
C2304 H2327 0.931 . S
C2305 C2298 1.399 . S
C2305 C2302 1.487 . S
C2305 N2337 1.343 . S
C2306 C2307 1.384 . S
C2306 C2308 1.384 . S
C2306 H2328 0.931 . S
C2307 C2306 1.384 . S
C2307 C2310 1.382 . S
C2308 C2306 1.384 . S
C2308 C2309 1.381 . S
C2308 H2329 0.930 . S
C2309 C2308 1.381 . S
C2309 C2311 1.381 . S
C2309 C2312 1.487 . S
C2310 C2307 1.382 . S
C2310 C2311 1.387 . S
C2310 H2330 0.930 . S
C2311 C2309 1.381 . S
C2311 C2310 1.387 . S
C2311 H2331 0.931 . S
C2312 C2309 1.487 . S
C2312 C2319 1.399 . S
C2312 N2337 1.343 . S
C2313 C2314 1.384 . S
C2313 C2315 1.384 . S
C2313 H2332 0.931 . S
C2314 C2313 1.384 . S
C2314 C2317 1.382 . S
C2315 C2313 1.384 . S
C2315 C2316 1.381 . S
C2315 H2333 0.930 . S
C2316 C2315 1.381 . S
C2316 C2318 1.381 . S
C2316 C2319 1.487 . S
C2317 C2314 1.382 . S
C2317 C2318 1.387 . S
C2317 H2334 0.930 . S
C2318 C2316 1.381 . S
C2318 C2317 1.387 . S
C2318 H2335 0.931 . S
C2319 C2312 1.399 . S
C2319 C2316 1.487 . S
C2319 N2336 1.343 . S
H2320 C2292 0.931 . S
H2321 C2294 0.930 . S
H2322 C2296 0.930 . S
H2323 C2297 0.931 . S
H2324 C2299 0.931 . S
H2325 C2301 0.930 . S
H2326 C2303 0.930 . S
H2327 C2304 0.931 . S
H2328 C2306 0.931 . S
H2329 C2308 0.930 . S
H2330 C2310 0.930 . S
H2331 C2311 0.931 . S
H2332 C2313 0.931 . S
H2333 C2315 0.930 . S
H2334 C2317 0.930 . S
H2335 C2318 0.931 . S
N2336 C2298 1.343 . S
N2336 C2319 1.343 . S
N2337 C2305 1.343 . S
N2337 C2312 1.343 . S
C2338 C2339 1.384 . S
C2338 C2340 1.384 . S
C2338 H2366 0.931 . S
C2339 C2338 1.384 . S
C2339 C2342 1.382 . S
C2340 C2338 1.384 . S
C2340 C2341 1.381 . S
C2340 H2367 0.930 . S
C2341 C2340 1.381 . S
C2341 C2343 1.381 . S
C2341 C2344 1.487 . S
C2342 C2339 1.382 . S
C2342 C2343 1.387 . S
C2342 H2368 0.930 . S
C2343 C2341 1.381 . S
C2343 C2342 1.387 . S
C2343 H2369 0.931 . S
C2344 C2341 1.487 . S
C2344 C2351 1.399 . S
C2344 N2382 1.343 . S
C2345 C2346 1.384 . S
C2345 C2347 1.384 . S
C2345 H2370 0.931 . S
C2346 C2345 1.384 . S
C2346 C2349 1.382 . S
C2347 C2345 1.384 . S
C2347 C2348 1.381 . S
C2347 H2371 0.930 . S
C2348 C2347 1.381 . S
C2348 C2350 1.381 . S
C2348 C2351 1.487 . S
C2349 C2346 1.382 . S
C2349 C2350 1.387 . S
C2349 H2372 0.930 . S
C2350 C2348 1.381 . S
C2350 C2349 1.387 . S
C2350 H2373 0.931 . S
C2351 C2344 1.399 . S
C2351 C2348 1.487 . S
C2351 N2383 1.343 . S
C2352 C2353 1.384 . S
C2352 C2354 1.384 . S
C2352 H2374 0.931 . S
C2353 C2352 1.384 . S
C2353 C2356 1.382 . S
C2354 C2352 1.384 . S
C2354 C2355 1.381 . S
C2354 H2375 0.930 . S
C2355 C2354 1.381 . S
C2355 C2357 1.381 . S
C2355 C2358 1.487 . S
C2356 C2353 1.382 . S
C2356 C2357 1.387 . S
C2356 H2376 0.930 . S
C2357 C2355 1.381 . S
C2357 C2356 1.387 . S
C2357 H2377 0.931 . S
C2358 C2355 1.487 . S
C2358 C2365 1.399 . S
C2358 N2383 1.343 . S
C2359 C2360 1.384 . S
C2359 C2361 1.384 . S
C2359 H2378 0.931 . S
C2360 C2359 1.384 . S
C2360 C2363 1.382 . S
C2361 C2359 1.384 . S
C2361 C2362 1.381 . S
C2361 H2379 0.930 . S
C2362 C2361 1.381 . S
C2362 C2364 1.381 . S
C2362 C2365 1.487 . S
C2363 C2360 1.382 . S
C2363 C2364 1.387 . S
C2363 H2380 0.930 . S
C2364 C2362 1.381 . S
C2364 C2363 1.387 . S
C2364 H2381 0.931 . S
C2365 C2358 1.399 . S
C2365 C2362 1.487 . S
C2365 N2382 1.343 . S
H2366 C2338 0.931 . S
H2367 C2340 0.930 . S
H2368 C2342 0.930 . S
H2369 C2343 0.931 . S
H2370 C2345 0.931 . S
H2371 C2347 0.930 . S
H2372 C2349 0.930 . S
H2373 C2350 0.931 . S
H2374 C2352 0.931 . S
H2375 C2354 0.930 . S
H2376 C2356 0.930 . S
H2377 C2357 0.931 . S
H2378 C2359 0.931 . S
H2379 C2361 0.930 . S
H2380 C2363 0.930 . S
H2381 C2364 0.931 . S
N2382 C2344 1.343 . S
N2382 C2365 1.343 . S
N2383 C2351 1.343 . S
N2383 C2358 1.343 . S
C2384 C2385 1.391 . S
C2384 C2386 1.394 . S
C2384 H2400 0.931 . S
C2385 C2384 1.391 . S
C2385 C2389 1.376 . S
C2386 C2384 1.394 . S
C2386 C2387 1.369 . S
C2386 C2390 1.531 . S
C2387 C2386 1.369 . S
C2387 C2388 1.410 . S
C2387 C2395 1.503 . S
C2388 C2387 1.410 . S
C2388 C2389 1.392 . S
C2388 C2391 1.511 . S
C2389 C2385 1.376 . S
C2389 C2388 1.392 . S
C2389 H2401 0.929 . S
C2390 C2386 1.531 . S
C2390 H2402 0.960 . S
C2390 H2403 0.962 . S
C2390 H2404 0.960 . S
C2391 C2388 1.511 . S
C2391 H2405 0.961 . S
C2391 H2406 0.961 . S
C2391 H2407 0.961 . S
C2392 C2393 1.370 . S
C2392 C2394 1.363 . S
C2392 H2408 0.931 . S
C2393 C2392 1.370 . S
C2393 C2397 1.408 . S
C2394 C2392 1.363 . S
C2394 C2395 1.370 . S
C2394 C2398 1.524 . S
C2395 C2387 1.503 . S
C2395 C2394 1.370 . S
C2395 C2396 1.403 . S
C2396 C2395 1.403 . S
C2396 C2397 1.404 . S
C2396 C2399 1.539 . S
C2397 C2393 1.408 . S
C2397 C2396 1.404 . S
C2397 H2409 0.930 . S
C2398 C2394 1.524 . S
C2398 H2410 0.956 . S
C2398 H2411 0.961 . S
C2398 H2412 0.961 . S
C2399 C2396 1.539 . S
C2399 H2413 0.958 . S
C2399 H2414 0.961 . S
C2399 H2415 0.960 . S
H2400 C2384 0.931 . S
H2401 C2389 0.929 . S
H2402 C2390 0.960 . S
H2403 C2390 0.962 . S
H2404 C2390 0.960 . S
H2405 C2391 0.961 . S
H2406 C2391 0.961 . S
H2407 C2391 0.961 . S
H2408 C2392 0.931 . S
H2409 C2397 0.930 . S
H2410 C2398 0.956 . S
H2411 C2398 0.961 . S
H2412 C2398 0.961 . S
H2413 C2399 0.958 . S
H2414 C2399 0.961 . S
H2415 C2399 0.960 . S
C2416 C2417 1.391 . S
C2416 C2418 1.394 . S
C2416 H2432 0.931 . S
C2417 C2416 1.391 . S
C2417 C2421 1.376 . S
C2418 C2416 1.394 . S
C2418 C2419 1.369 . S
C2418 C2422 1.531 . S
C2419 C2418 1.369 . S
C2419 C2420 1.410 . S
C2419 C2427 1.503 . S
C2420 C2419 1.410 . S
C2420 C2421 1.392 . S
C2420 C2423 1.511 . S
C2421 C2417 1.376 . S
C2421 C2420 1.392 . S
C2421 H2433 0.929 . S
C2422 C2418 1.531 . S
C2422 H2434 0.960 . S
C2422 H2435 0.962 . S
C2422 H2436 0.960 . S
C2423 C2420 1.511 . S
C2423 H2437 0.961 . S
C2423 H2438 0.961 . S
C2423 H2439 0.961 . S
C2424 C2425 1.370 . S
C2424 C2426 1.363 . S
C2424 H2440 0.931 . S
C2425 C2424 1.370 . S
C2425 C2429 1.408 . S
C2426 C2424 1.363 . S
C2426 C2427 1.370 . S
C2426 C2430 1.524 . S
C2427 C2419 1.503 . S
C2427 C2426 1.370 . S
C2427 C2428 1.403 . S
C2428 C2427 1.403 . S
C2428 C2429 1.404 . S
C2428 C2431 1.539 . S
C2429 C2425 1.408 . S
C2429 C2428 1.404 . S
C2429 H2441 0.930 . S
C2430 C2426 1.524 . S
C2430 H2442 0.956 . S
C2430 H2443 0.961 . S
C2430 H2444 0.961 . S
C2431 C2428 1.539 . S
C2431 H2445 0.958 . S
C2431 H2446 0.961 . S
C2431 H2447 0.960 . S
H2432 C2416 0.931 . S
H2433 C2421 0.929 . S
H2434 C2422 0.960 . S
H2435 C2422 0.962 . S
H2436 C2422 0.960 . S
H2437 C2423 0.961 . S
H2438 C2423 0.961 . S
H2439 C2423 0.961 . S
H2440 C2424 0.931 . S
H2441 C2429 0.930 . S
H2442 C2430 0.956 . S
H2443 C2430 0.961 . S
H2444 C2430 0.961 . S
H2445 C2431 0.958 . S
H2446 C2431 0.961 . S
H2447 C2431 0.960 . S
C2448 C2449 1.391 . S
C2448 C2450 1.394 . S
C2448 H2464 0.931 . S
C2449 C2448 1.391 . S
C2449 C2453 1.376 . S
C2450 C2448 1.394 . S
C2450 C2451 1.369 . S
C2450 C2454 1.531 . S
C2451 C2450 1.369 . S
C2451 C2452 1.410 . S
C2451 C2459 1.503 . S
C2452 C2451 1.410 . S
C2452 C2453 1.392 . S
C2452 C2455 1.511 . S
C2453 C2449 1.376 . S
C2453 C2452 1.392 . S
C2453 H2465 0.929 . S
C2454 C2450 1.531 . S
C2454 H2466 0.960 . S
C2454 H2467 0.962 . S
C2454 H2468 0.960 . S
C2455 C2452 1.511 . S
C2455 H2469 0.961 . S
C2455 H2470 0.961 . S
C2455 H2471 0.961 . S
C2456 C2457 1.370 . S
C2456 C2458 1.363 . S
C2456 H2472 0.931 . S
C2457 C2456 1.370 . S
C2457 C2461 1.408 . S
C2458 C2456 1.363 . S
C2458 C2459 1.370 . S
C2458 C2462 1.524 . S
C2459 C2451 1.503 . S
C2459 C2458 1.370 . S
C2459 C2460 1.403 . S
C2460 C2459 1.403 . S
C2460 C2461 1.404 . S
C2460 C2463 1.539 . S
C2461 C2457 1.408 . S
C2461 C2460 1.404 . S
C2461 H2473 0.930 . S
C2462 C2458 1.524 . S
C2462 H2474 0.956 . S
C2462 H2475 0.961 . S
C2462 H2476 0.961 . S
C2463 C2460 1.539 . S
C2463 H2477 0.958 . S
C2463 H2478 0.961 . S
C2463 H2479 0.960 . S
H2464 C2448 0.931 . S
H2465 C2453 0.929 . S
H2466 C2454 0.960 . S
H2467 C2454 0.962 . S
H2468 C2454 0.960 . S
H2469 C2455 0.961 . S
H2470 C2455 0.961 . S
H2471 C2455 0.961 . S
H2472 C2456 0.931 . S
H2473 C2461 0.930 . S
H2474 C2462 0.956 . S
H2475 C2462 0.961 . S
H2476 C2462 0.961 . S
H2477 C2463 0.958 . S
H2478 C2463 0.961 . S
H2479 C2463 0.960 . S
C2480 C2481 1.391 . S
C2480 C2482 1.394 . S
C2480 H2496 0.931 . S
C2481 C2480 1.391 . S
C2481 C2485 1.376 . S
C2482 C2480 1.394 . S
C2482 C2483 1.369 . S
C2482 C2486 1.531 . S
C2483 C2482 1.369 . S
C2483 C2484 1.410 . S
C2483 C2491 1.503 . S
C2484 C2483 1.410 . S
C2484 C2485 1.392 . S
C2484 C2487 1.511 . S
C2485 C2481 1.376 . S
C2485 C2484 1.392 . S
C2485 H2497 0.929 . S
C2486 C2482 1.531 . S
C2486 H2498 0.960 . S
C2486 H2499 0.962 . S
C2486 H2500 0.960 . S
C2487 C2484 1.511 . S
C2487 H2501 0.961 . S
C2487 H2502 0.961 . S
C2487 H2503 0.961 . S
C2488 C2489 1.370 . S
C2488 C2490 1.363 . S
C2488 H2504 0.931 . S
C2489 C2488 1.370 . S
C2489 C2493 1.408 . S
C2490 C2488 1.363 . S
C2490 C2491 1.370 . S
C2490 C2494 1.524 . S
C2491 C2483 1.503 . S
C2491 C2490 1.370 . S
C2491 C2492 1.403 . S
C2492 C2491 1.403 . S
C2492 C2493 1.404 . S
C2492 C2495 1.539 . S
C2493 C2489 1.408 . S
C2493 C2492 1.404 . S
C2493 H2505 0.930 . S
C2494 C2490 1.524 . S
C2494 H2506 0.956 . S
C2494 H2507 0.961 . S
C2494 H2508 0.961 . S
C2495 C2492 1.539 . S
C2495 H2509 0.958 . S
C2495 H2510 0.961 . S
C2495 H2511 0.960 . S
H2496 C2480 0.931 . S
H2497 C2485 0.929 . S
H2498 C2486 0.960 . S
H2499 C2486 0.962 . S
H2500 C2486 0.960 . S
H2501 C2487 0.961 . S
H2502 C2487 0.961 . S
H2503 C2487 0.961 . S
H2504 C2488 0.931 . S
H2505 C2493 0.930 . S
H2506 C2494 0.956 . S
H2507 C2494 0.961 . S
H2508 C2494 0.961 . S
H2509 C2495 0.958 . S
H2510 C2495 0.961 . S
H2511 C2495 0.960 . S
C2512 C2513 1.391 . S
C2512 C2514 1.394 . S
C2512 H2528 0.931 . S
C2513 C2512 1.391 . S
C2513 C2517 1.376 . S
C2514 C2512 1.394 . S
C2514 C2515 1.369 . S
C2514 C2518 1.531 . S
C2515 C2514 1.369 . S
C2515 C2516 1.410 . S
C2515 C2523 1.503 . S
C2516 C2515 1.410 . S
C2516 C2517 1.392 . S
C2516 C2519 1.511 . S
C2517 C2513 1.376 . S
C2517 C2516 1.392 . S
C2517 H2529 0.929 . S
C2518 C2514 1.531 . S
C2518 H2530 0.960 . S
C2518 H2531 0.962 . S
C2518 H2532 0.960 . S
C2519 C2516 1.511 . S
C2519 H2533 0.961 . S
C2519 H2534 0.961 . S
C2519 H2535 0.961 . S
C2520 C2521 1.370 . S
C2520 C2522 1.363 . S
C2520 H2536 0.931 . S
C2521 C2520 1.370 . S
C2521 C2525 1.408 . S
C2522 C2520 1.363 . S
C2522 C2523 1.370 . S
C2522 C2526 1.524 . S
C2523 C2515 1.503 . S
C2523 C2522 1.370 . S
C2523 C2524 1.403 . S
C2524 C2523 1.403 . S
C2524 C2525 1.404 . S
C2524 C2527 1.539 . S
C2525 C2521 1.408 . S
C2525 C2524 1.404 . S
C2525 H2537 0.930 . S
C2526 C2522 1.524 . S
C2526 H2538 0.956 . S
C2526 H2539 0.961 . S
C2526 H2540 0.961 . S
C2527 C2524 1.539 . S
C2527 H2541 0.958 . S
C2527 H2542 0.961 . S
C2527 H2543 0.960 . S
H2528 C2512 0.931 . S
H2529 C2517 0.929 . S
H2530 C2518 0.960 . S
H2531 C2518 0.962 . S
H2532 C2518 0.960 . S
H2533 C2519 0.961 . S
H2534 C2519 0.961 . S
H2535 C2519 0.961 . S
H2536 C2520 0.931 . S
H2537 C2525 0.930 . S
H2538 C2526 0.956 . S
H2539 C2526 0.961 . S
H2540 C2526 0.961 . S
H2541 C2527 0.958 . S
H2542 C2527 0.961 . S
H2543 C2527 0.960 . S
C2544 C2545 1.391 . S
C2544 C2546 1.394 . S
C2544 H2560 0.931 . S
C2545 C2544 1.391 . S
C2545 C2549 1.376 . S
C2546 C2544 1.394 . S
C2546 C2547 1.369 . S
C2546 C2550 1.531 . S
C2547 C2546 1.369 . S
C2547 C2548 1.410 . S
C2547 C2555 1.503 . S
C2548 C2547 1.410 . S
C2548 C2549 1.392 . S
C2548 C2551 1.511 . S
C2549 C2545 1.376 . S
C2549 C2548 1.392 . S
C2549 H2561 0.929 . S
C2550 C2546 1.531 . S
C2550 H2562 0.960 . S
C2550 H2563 0.962 . S
C2550 H2564 0.960 . S
C2551 C2548 1.511 . S
C2551 H2565 0.961 . S
C2551 H2566 0.961 . S
C2551 H2567 0.961 . S
C2552 C2553 1.370 . S
C2552 C2554 1.363 . S
C2552 H2568 0.931 . S
C2553 C2552 1.370 . S
C2553 C2557 1.408 . S
C2554 C2552 1.363 . S
C2554 C2555 1.370 . S
C2554 C2558 1.524 . S
C2555 C2547 1.503 . S
C2555 C2554 1.370 . S
C2555 C2556 1.403 . S
C2556 C2555 1.403 . S
C2556 C2557 1.404 . S
C2556 C2559 1.539 . S
C2557 C2553 1.408 . S
C2557 C2556 1.404 . S
C2557 H2569 0.930 . S
C2558 C2554 1.524 . S
C2558 H2570 0.956 . S
C2558 H2571 0.961 . S
C2558 H2572 0.961 . S
C2559 C2556 1.539 . S
C2559 H2573 0.958 . S
C2559 H2574 0.961 . S
C2559 H2575 0.960 . S
H2560 C2544 0.931 . S
H2561 C2549 0.929 . S
H2562 C2550 0.960 . S
H2563 C2550 0.962 . S
H2564 C2550 0.960 . S
H2565 C2551 0.961 . S
H2566 C2551 0.961 . S
H2567 C2551 0.961 . S
H2568 C2552 0.931 . S
H2569 C2557 0.930 . S
H2570 C2558 0.956 . S
H2571 C2558 0.961 . S
H2572 C2558 0.961 . S
H2573 C2559 0.958 . S
H2574 C2559 0.961 . S
H2575 C2559 0.960 . S
C2576 C2577 1.391 . S
C2576 C2578 1.394 . S
C2576 H2592 0.931 . S
C2577 C2576 1.391 . S
C2577 C2581 1.376 . S
C2578 C2576 1.394 . S
C2578 C2579 1.369 . S
C2578 C2582 1.531 . S
C2579 C2578 1.369 . S
C2579 C2580 1.410 . S
C2579 C2587 1.503 . S
C2580 C2579 1.410 . S
C2580 C2581 1.392 . S
C2580 C2583 1.511 . S
C2581 C2577 1.376 . S
C2581 C2580 1.392 . S
C2581 H2593 0.929 . S
C2582 C2578 1.531 . S
C2582 H2594 0.960 . S
C2582 H2595 0.962 . S
C2582 H2596 0.960 . S
C2583 C2580 1.511 . S
C2583 H2597 0.961 . S
C2583 H2598 0.961 . S
C2583 H2599 0.961 . S
C2584 C2585 1.370 . S
C2584 C2586 1.363 . S
C2584 H2600 0.931 . S
C2585 C2584 1.370 . S
C2585 C2589 1.408 . S
C2586 C2584 1.363 . S
C2586 C2587 1.370 . S
C2586 C2590 1.524 . S
C2587 C2579 1.503 . S
C2587 C2586 1.370 . S
C2587 C2588 1.403 . S
C2588 C2587 1.403 . S
C2588 C2589 1.404 . S
C2588 C2591 1.539 . S
C2589 C2585 1.408 . S
C2589 C2588 1.404 . S
C2589 H2601 0.930 . S
C2590 C2586 1.524 . S
C2590 H2602 0.956 . S
C2590 H2603 0.961 . S
C2590 H2604 0.961 . S
C2591 C2588 1.539 . S
C2591 H2605 0.958 . S
C2591 H2606 0.961 . S
C2591 H2607 0.960 . S
H2592 C2576 0.931 . S
H2593 C2581 0.929 . S
H2594 C2582 0.960 . S
H2595 C2582 0.962 . S
H2596 C2582 0.960 . S
H2597 C2583 0.961 . S
H2598 C2583 0.961 . S
H2599 C2583 0.961 . S
H2600 C2584 0.931 . S
H2601 C2589 0.930 . S
H2602 C2590 0.956 . S
H2603 C2590 0.961 . S
H2604 C2590 0.961 . S
H2605 C2591 0.958 . S
H2606 C2591 0.961 . S
H2607 C2591 0.960 . S
C2608 C2609 1.391 . S
C2608 C2610 1.394 . S
C2608 H2624 0.931 . S
C2609 C2608 1.391 . S
C2609 C2613 1.376 . S
C2610 C2608 1.394 . S
C2610 C2611 1.369 . S
C2610 C2614 1.531 . S
C2611 C2610 1.369 . S
C2611 C2612 1.410 . S
C2611 C2619 1.503 . S
C2612 C2611 1.410 . S
C2612 C2613 1.392 . S
C2612 C2615 1.511 . S
C2613 C2609 1.376 . S
C2613 C2612 1.392 . S
C2613 H2625 0.929 . S
C2614 C2610 1.531 . S
C2614 H2626 0.960 . S
C2614 H2627 0.962 . S
C2614 H2628 0.960 . S
C2615 C2612 1.511 . S
C2615 H2629 0.961 . S
C2615 H2630 0.961 . S
C2615 H2631 0.961 . S
C2616 C2617 1.370 . S
C2616 C2618 1.363 . S
C2616 H2632 0.931 . S
C2617 C2616 1.370 . S
C2617 C2621 1.408 . S
C2618 C2616 1.363 . S
C2618 C2619 1.370 . S
C2618 C2622 1.524 . S
C2619 C2611 1.503 . S
C2619 C2618 1.370 . S
C2619 C2620 1.403 . S
C2620 C2619 1.403 . S
C2620 C2621 1.404 . S
C2620 C2623 1.539 . S
C2621 C2617 1.408 . S
C2621 C2620 1.404 . S
C2621 H2633 0.930 . S
C2622 C2618 1.524 . S
C2622 H2634 0.956 . S
C2622 H2635 0.961 . S
C2622 H2636 0.961 . S
C2623 C2620 1.539 . S
C2623 H2637 0.958 . S
C2623 H2638 0.961 . S
C2623 H2639 0.960 . S
H2624 C2608 0.931 . S
H2625 C2613 0.929 . S
H2626 C2614 0.960 . S
H2627 C2614 0.962 . S
H2628 C2614 0.960 . S
H2629 C2615 0.961 . S
H2630 C2615 0.961 . S
H2631 C2615 0.961 . S
H2632 C2616 0.931 . S
H2633 C2621 0.930 . S
H2634 C2622 0.956 . S
H2635 C2622 0.961 . S
H2636 C2622 0.961 . S
H2637 C2623 0.958 . S
H2638 C2623 0.961 . S
H2639 C2623 0.960 . S
C2640 C2641 1.391 . S
C2640 C2642 1.394 . S
C2640 H2656 0.931 . S
C2641 C2640 1.391 . S
C2641 C2645 1.376 . S
C2642 C2640 1.394 . S
C2642 C2643 1.369 . S
C2642 C2646 1.531 . S
C2643 C2642 1.369 . S
C2643 C2644 1.410 . S
C2643 C2651 1.503 . S
C2644 C2643 1.410 . S
C2644 C2645 1.392 . S
C2644 C2647 1.511 . S
C2645 C2641 1.376 . S
C2645 C2644 1.392 . S
C2645 H2657 0.929 . S
C2646 C2642 1.531 . S
C2646 H2658 0.960 . S
C2646 H2659 0.962 . S
C2646 H2660 0.960 . S
C2647 C2644 1.511 . S
C2647 H2661 0.961 . S
C2647 H2662 0.961 . S
C2647 H2663 0.961 . S
C2648 C2649 1.370 . S
C2648 C2650 1.363 . S
C2648 H2664 0.931 . S
C2649 C2648 1.370 . S
C2649 C2653 1.408 . S
C2650 C2648 1.363 . S
C2650 C2651 1.370 . S
C2650 C2654 1.524 . S
C2651 C2643 1.503 . S
C2651 C2650 1.370 . S
C2651 C2652 1.403 . S
C2652 C2651 1.403 . S
C2652 C2653 1.404 . S
C2652 C2655 1.539 . S
C2653 C2649 1.408 . S
C2653 C2652 1.404 . S
C2653 H2665 0.930 . S
C2654 C2650 1.524 . S
C2654 H2666 0.956 . S
C2654 H2667 0.961 . S
C2654 H2668 0.961 . S
C2655 C2652 1.539 . S
C2655 H2669 0.958 . S
C2655 H2670 0.961 . S
C2655 H2671 0.960 . S
H2656 C2640 0.931 . S
H2657 C2645 0.929 . S
H2658 C2646 0.960 . S
H2659 C2646 0.962 . S
H2660 C2646 0.960 . S
H2661 C2647 0.961 . S
H2662 C2647 0.961 . S
H2663 C2647 0.961 . S
H2664 C2648 0.931 . S
H2665 C2653 0.930 . S
H2666 C2654 0.956 . S
H2667 C2654 0.961 . S
H2668 C2654 0.961 . S
H2669 C2655 0.958 . S
H2670 C2655 0.961 . S
H2671 C2655 0.960 . S
C2672 C2673 1.391 . S
C2672 C2674 1.394 . S
C2672 H2688 0.931 . S
C2673 C2672 1.391 . S
C2673 C2677 1.376 . S
C2674 C2672 1.394 . S
C2674 C2675 1.369 . S
C2674 C2678 1.531 . S
C2675 C2674 1.369 . S
C2675 C2676 1.410 . S
C2675 C2683 1.503 . S
C2676 C2675 1.410 . S
C2676 C2677 1.392 . S
C2676 C2679 1.511 . S
C2677 C2673 1.376 . S
C2677 C2676 1.392 . S
C2677 H2689 0.929 . S
C2678 C2674 1.531 . S
C2678 H2690 0.960 . S
C2678 H2691 0.962 . S
C2678 H2692 0.960 . S
C2679 C2676 1.511 . S
C2679 H2693 0.961 . S
C2679 H2694 0.961 . S
C2679 H2695 0.961 . S
C2680 C2681 1.370 . S
C2680 C2682 1.363 . S
C2680 H2696 0.931 . S
C2681 C2680 1.370 . S
C2681 C2685 1.408 . S
C2682 C2680 1.363 . S
C2682 C2683 1.370 . S
C2682 C2686 1.524 . S
C2683 C2675 1.503 . S
C2683 C2682 1.370 . S
C2683 C2684 1.403 . S
C2684 C2683 1.403 . S
C2684 C2685 1.404 . S
C2684 C2687 1.539 . S
C2685 C2681 1.408 . S
C2685 C2684 1.404 . S
C2685 H2697 0.930 . S
C2686 C2682 1.524 . S
C2686 H2698 0.956 . S
C2686 H2699 0.961 . S
C2686 H2700 0.961 . S
C2687 C2684 1.539 . S
C2687 H2701 0.958 . S
C2687 H2702 0.961 . S
C2687 H2703 0.960 . S
H2688 C2672 0.931 . S
H2689 C2677 0.929 . S
H2690 C2678 0.960 . S
H2691 C2678 0.962 . S
H2692 C2678 0.960 . S
H2693 C2679 0.961 . S
H2694 C2679 0.961 . S
H2695 C2679 0.961 . S
H2696 C2680 0.931 . S
H2697 C2685 0.930 . S
H2698 C2686 0.956 . S
H2699 C2686 0.961 . S
H2700 C2686 0.961 . S
H2701 C2687 0.958 . S
H2702 C2687 0.961 . S
H2703 C2687 0.960 . S
C2704 C2705 1.391 . S
C2704 C2706 1.394 . S
C2704 H2720 0.931 . S
C2705 C2704 1.391 . S
C2705 C2709 1.376 . S
C2706 C2704 1.394 . S
C2706 C2707 1.369 . S
C2706 C2710 1.531 . S
C2707 C2706 1.369 . S
C2707 C2708 1.410 . S
C2707 C2715 1.503 . S
C2708 C2707 1.410 . S
C2708 C2709 1.392 . S
C2708 C2711 1.511 . S
C2709 C2705 1.376 . S
C2709 C2708 1.392 . S
C2709 H2721 0.929 . S
C2710 C2706 1.531 . S
C2710 H2722 0.960 . S
C2710 H2723 0.962 . S
C2710 H2724 0.960 . S
C2711 C2708 1.511 . S
C2711 H2725 0.961 . S
C2711 H2726 0.961 . S
C2711 H2727 0.961 . S
C2712 C2713 1.370 . S
C2712 C2714 1.363 . S
C2712 H2728 0.931 . S
C2713 C2712 1.370 . S
C2713 C2717 1.408 . S
C2714 C2712 1.363 . S
C2714 C2715 1.370 . S
C2714 C2718 1.524 . S
C2715 C2707 1.503 . S
C2715 C2714 1.370 . S
C2715 C2716 1.403 . S
C2716 C2715 1.403 . S
C2716 C2717 1.404 . S
C2716 C2719 1.539 . S
C2717 C2713 1.408 . S
C2717 C2716 1.404 . S
C2717 H2729 0.930 . S
C2718 C2714 1.524 . S
C2718 H2730 0.956 . S
C2718 H2731 0.961 . S
C2718 H2732 0.961 . S
C2719 C2716 1.539 . S
C2719 H2733 0.958 . S
C2719 H2734 0.961 . S
C2719 H2735 0.960 . S
H2720 C2704 0.931 . S
H2721 C2709 0.929 . S
H2722 C2710 0.960 . S
H2723 C2710 0.962 . S
H2724 C2710 0.960 . S
H2725 C2711 0.961 . S
H2726 C2711 0.961 . S
H2727 C2711 0.961 . S
H2728 C2712 0.931 . S
H2729 C2717 0.930 . S
H2730 C2718 0.956 . S
H2731 C2718 0.961 . S
H2732 C2718 0.961 . S
H2733 C2719 0.958 . S
H2734 C2719 0.961 . S
H2735 C2719 0.960 . S
C2736 C2737 1.391 . S
C2736 C2738 1.394 . S
C2736 H2752 0.931 . S
C2737 C2736 1.391 . S
C2737 C2741 1.376 . S
C2738 C2736 1.394 . S
C2738 C2739 1.369 . S
C2738 C2742 1.531 . S
C2739 C2738 1.369 . S
C2739 C2740 1.410 . S
C2739 C2747 1.503 . S
C2740 C2739 1.410 . S
C2740 C2741 1.392 . S
C2740 C2743 1.511 . S
C2741 C2737 1.376 . S
C2741 C2740 1.392 . S
C2741 H2753 0.929 . S
C2742 C2738 1.531 . S
C2742 H2754 0.960 . S
C2742 H2755 0.962 . S
C2742 H2756 0.960 . S
C2743 C2740 1.511 . S
C2743 H2757 0.961 . S
C2743 H2758 0.961 . S
C2743 H2759 0.961 . S
C2744 C2745 1.370 . S
C2744 C2746 1.363 . S
C2744 H2760 0.931 . S
C2745 C2744 1.370 . S
C2745 C2749 1.408 . S
C2746 C2744 1.363 . S
C2746 C2747 1.370 . S
C2746 C2750 1.524 . S
C2747 C2739 1.503 . S
C2747 C2746 1.370 . S
C2747 C2748 1.403 . S
C2748 C2747 1.403 . S
C2748 C2749 1.404 . S
C2748 C2751 1.539 . S
C2749 C2745 1.408 . S
C2749 C2748 1.404 . S
C2749 H2761 0.930 . S
C2750 C2746 1.524 . S
C2750 H2762 0.956 . S
C2750 H2763 0.961 . S
C2750 H2764 0.961 . S
C2751 C2748 1.539 . S
C2751 H2765 0.958 . S
C2751 H2766 0.961 . S
C2751 H2767 0.960 . S
H2752 C2736 0.931 . S
H2753 C2741 0.929 . S
H2754 C2742 0.960 . S
H2755 C2742 0.962 . S
H2756 C2742 0.960 . S
H2757 C2743 0.961 . S
H2758 C2743 0.961 . S
H2759 C2743 0.961 . S
H2760 C2744 0.931 . S
H2761 C2749 0.930 . S
H2762 C2750 0.956 . S
H2763 C2750 0.961 . S
H2764 C2750 0.961 . S
H2765 C2751 0.958 . S
H2766 C2751 0.961 . S
H2767 C2751 0.960 . S
C2768 C2769 1.391 . S
C2768 C2770 1.394 . S
C2768 H2784 0.931 . S
C2769 C2768 1.391 . S
C2769 C2773 1.376 . S
C2770 C2768 1.394 . S
C2770 C2771 1.369 . S
C2770 C2774 1.531 . S
C2771 C2770 1.369 . S
C2771 C2772 1.410 . S
C2771 C2779 1.503 . S
C2772 C2771 1.410 . S
C2772 C2773 1.392 . S
C2772 C2775 1.511 . S
C2773 C2769 1.376 . S
C2773 C2772 1.392 . S
C2773 H2785 0.929 . S
C2774 C2770 1.531 . S
C2774 H2786 0.960 . S
C2774 H2787 0.962 . S
C2774 H2788 0.960 . S
C2775 C2772 1.511 . S
C2775 H2789 0.961 . S
C2775 H2790 0.961 . S
C2775 H2791 0.961 . S
C2776 C2777 1.370 . S
C2776 C2778 1.363 . S
C2776 H2792 0.931 . S
C2777 C2776 1.370 . S
C2777 C2781 1.408 . S
C2778 C2776 1.363 . S
C2778 C2779 1.370 . S
C2778 C2782 1.524 . S
C2779 C2771 1.503 . S
C2779 C2778 1.370 . S
C2779 C2780 1.403 . S
C2780 C2779 1.403 . S
C2780 C2781 1.404 . S
C2780 C2783 1.539 . S
C2781 C2777 1.408 . S
C2781 C2780 1.404 . S
C2781 H2793 0.930 . S
C2782 C2778 1.524 . S
C2782 H2794 0.956 . S
C2782 H2795 0.961 . S
C2782 H2796 0.961 . S
C2783 C2780 1.539 . S
C2783 H2797 0.958 . S
C2783 H2798 0.961 . S
C2783 H2799 0.960 . S
H2784 C2768 0.931 . S
H2785 C2773 0.929 . S
H2786 C2774 0.960 . S
H2787 C2774 0.962 . S
H2788 C2774 0.960 . S
H2789 C2775 0.961 . S
H2790 C2775 0.961 . S
H2791 C2775 0.961 . S
H2792 C2776 0.931 . S
H2793 C2781 0.930 . S
H2794 C2782 0.956 . S
H2795 C2782 0.961 . S
H2796 C2782 0.961 . S
H2797 C2783 0.958 . S
H2798 C2783 0.961 . S
H2799 C2783 0.960 . S
C2800 C2801 1.391 . S
C2800 C2802 1.394 . S
C2800 H2816 0.931 . S
C2801 C2800 1.391 . S
C2801 C2805 1.376 . S
C2802 C2800 1.394 . S
C2802 C2803 1.369 . S
C2802 C2806 1.531 . S
C2803 C2802 1.369 . S
C2803 C2804 1.410 . S
C2803 C2811 1.503 . S
C2804 C2803 1.410 . S
C2804 C2805 1.392 . S
C2804 C2807 1.511 . S
C2805 C2801 1.376 . S
C2805 C2804 1.392 . S
C2805 H2817 0.929 . S
C2806 C2802 1.531 . S
C2806 H2818 0.960 . S
C2806 H2819 0.962 . S
C2806 H2820 0.960 . S
C2807 C2804 1.511 . S
C2807 H2821 0.961 . S
C2807 H2822 0.961 . S
C2807 H2823 0.961 . S
C2808 C2809 1.370 . S
C2808 C2810 1.363 . S
C2808 H2824 0.931 . S
C2809 C2808 1.370 . S
C2809 C2813 1.408 . S
C2810 C2808 1.363 . S
C2810 C2811 1.370 . S
C2810 C2814 1.524 . S
C2811 C2803 1.503 . S
C2811 C2810 1.370 . S
C2811 C2812 1.403 . S
C2812 C2811 1.403 . S
C2812 C2813 1.404 . S
C2812 C2815 1.539 . S
C2813 C2809 1.408 . S
C2813 C2812 1.404 . S
C2813 H2825 0.930 . S
C2814 C2810 1.524 . S
C2814 H2826 0.956 . S
C2814 H2827 0.961 . S
C2814 H2828 0.961 . S
C2815 C2812 1.539 . S
C2815 H2829 0.958 . S
C2815 H2830 0.961 . S
C2815 H2831 0.960 . S
H2816 C2800 0.931 . S
H2817 C2805 0.929 . S
H2818 C2806 0.960 . S
H2819 C2806 0.962 . S
H2820 C2806 0.960 . S
H2821 C2807 0.961 . S
H2822 C2807 0.961 . S
H2823 C2807 0.961 . S
H2824 C2808 0.931 . S
H2825 C2813 0.930 . S
H2826 C2814 0.956 . S
H2827 C2814 0.961 . S
H2828 C2814 0.961 . S
H2829 C2815 0.958 . S
H2830 C2815 0.961 . S
H2831 C2815 0.960 . S
C2832 C2833 1.391 . S
C2832 C2834 1.394 . S
C2832 H2848 0.931 . S
C2833 C2832 1.391 . S
C2833 C2837 1.376 . S
C2834 C2832 1.394 . S
C2834 C2835 1.369 . S
C2834 C2838 1.531 . S
C2835 C2834 1.369 . S
C2835 C2836 1.410 . S
C2835 C2843 1.503 . S
C2836 C2835 1.410 . S
C2836 C2837 1.392 . S
C2836 C2839 1.511 . S
C2837 C2833 1.376 . S
C2837 C2836 1.392 . S
C2837 H2849 0.929 . S
C2838 C2834 1.531 . S
C2838 H2850 0.960 . S
C2838 H2851 0.962 . S
C2838 H2852 0.960 . S
C2839 C2836 1.511 . S
C2839 H2853 0.961 . S
C2839 H2854 0.961 . S
C2839 H2855 0.961 . S
C2840 C2841 1.370 . S
C2840 C2842 1.363 . S
C2840 H2856 0.931 . S
C2841 C2840 1.370 . S
C2841 C2845 1.408 . S
C2842 C2840 1.363 . S
C2842 C2843 1.370 . S
C2842 C2846 1.524 . S
C2843 C2835 1.503 . S
C2843 C2842 1.370 . S
C2843 C2844 1.403 . S
C2844 C2843 1.403 . S
C2844 C2845 1.404 . S
C2844 C2847 1.539 . S
C2845 C2841 1.408 . S
C2845 C2844 1.404 . S
C2845 H2857 0.930 . S
C2846 C2842 1.524 . S
C2846 H2858 0.956 . S
C2846 H2859 0.961 . S
C2846 H2860 0.961 . S
C2847 C2844 1.539 . S
C2847 H2861 0.958 . S
C2847 H2862 0.961 . S
C2847 H2863 0.960 . S
H2848 C2832 0.931 . S
H2849 C2837 0.929 . S
H2850 C2838 0.960 . S
H2851 C2838 0.962 . S
H2852 C2838 0.960 . S
H2853 C2839 0.961 . S
H2854 C2839 0.961 . S
H2855 C2839 0.961 . S
H2856 C2840 0.931 . S
H2857 C2845 0.930 . S
H2858 C2846 0.956 . S
H2859 C2846 0.961 . S
H2860 C2846 0.961 . S
H2861 C2847 0.958 . S
H2862 C2847 0.961 . S
H2863 C2847 0.960 . S
C2864 C2865 1.391 . S
C2864 C2866 1.394 . S
C2864 H2880 0.931 . S
C2865 C2864 1.391 . S
C2865 C2869 1.376 . S
C2866 C2864 1.394 . S
C2866 C2867 1.369 . S
C2866 C2870 1.531 . S
C2867 C2866 1.369 . S
C2867 C2868 1.410 . S
C2867 C2875 1.503 . S
C2868 C2867 1.410 . S
C2868 C2869 1.392 . S
C2868 C2871 1.511 . S
C2869 C2865 1.376 . S
C2869 C2868 1.392 . S
C2869 H2881 0.929 . S
C2870 C2866 1.531 . S
C2870 H2882 0.960 . S
C2870 H2883 0.962 . S
C2870 H2884 0.960 . S
C2871 C2868 1.511 . S
C2871 H2885 0.961 . S
C2871 H2886 0.961 . S
C2871 H2887 0.961 . S
C2872 C2873 1.370 . S
C2872 C2874 1.363 . S
C2872 H2888 0.931 . S
C2873 C2872 1.370 . S
C2873 C2877 1.408 . S
C2874 C2872 1.363 . S
C2874 C2875 1.370 . S
C2874 C2878 1.524 . S
C2875 C2867 1.503 . S
C2875 C2874 1.370 . S
C2875 C2876 1.403 . S
C2876 C2875 1.403 . S
C2876 C2877 1.404 . S
C2876 C2879 1.539 . S
C2877 C2873 1.408 . S
C2877 C2876 1.404 . S
C2877 H2889 0.930 . S
C2878 C2874 1.524 . S
C2878 H2890 0.956 . S
C2878 H2891 0.961 . S
C2878 H2892 0.961 . S
C2879 C2876 1.539 . S
C2879 H2893 0.958 . S
C2879 H2894 0.961 . S
C2879 H2895 0.960 . S
H2880 C2864 0.931 . S
H2881 C2869 0.929 . S
H2882 C2870 0.960 . S
H2883 C2870 0.962 . S
H2884 C2870 0.960 . S
H2885 C2871 0.961 . S
H2886 C2871 0.961 . S
H2887 C2871 0.961 . S
H2888 C2872 0.931 . S
H2889 C2877 0.930 . S
H2890 C2878 0.956 . S
H2891 C2878 0.961 . S
H2892 C2878 0.961 . S
H2893 C2879 0.958 . S
H2894 C2879 0.961 . S
H2895 C2879 0.960 . S
C2896 C2897 1.391 . S
C2896 C2898 1.394 . S
C2896 H2912 0.931 . S
C2897 C2896 1.391 . S
C2897 C2901 1.376 . S
C2898 C2896 1.394 . S
C2898 C2899 1.369 . S
C2898 C2902 1.531 . S
C2899 C2898 1.369 . S
C2899 C2900 1.410 . S
C2899 C2907 1.503 . S
C2900 C2899 1.410 . S
C2900 C2901 1.392 . S
C2900 C2903 1.511 . S
C2901 C2897 1.376 . S
C2901 C2900 1.392 . S
C2901 H2913 0.929 . S
C2902 C2898 1.531 . S
C2902 H2914 0.960 . S
C2902 H2915 0.962 . S
C2902 H2916 0.960 . S
C2903 C2900 1.511 . S
C2903 H2917 0.961 . S
C2903 H2918 0.961 . S
C2903 H2919 0.961 . S
C2904 C2905 1.370 . S
C2904 C2906 1.363 . S
C2904 H2920 0.931 . S
C2905 C2904 1.370 . S
C2905 C2909 1.408 . S
C2906 C2904 1.363 . S
C2906 C2907 1.370 . S
C2906 C2910 1.524 . S
C2907 C2899 1.503 . S
C2907 C2906 1.370 . S
C2907 C2908 1.403 . S
C2908 C2907 1.403 . S
C2908 C2909 1.404 . S
C2908 C2911 1.539 . S
C2909 C2905 1.408 . S
C2909 C2908 1.404 . S
C2909 H2921 0.930 . S
C2910 C2906 1.524 . S
C2910 H2922 0.956 . S
C2910 H2923 0.961 . S
C2910 H2924 0.961 . S
C2911 C2908 1.539 . S
C2911 H2925 0.958 . S
C2911 H2926 0.961 . S
C2911 H2927 0.960 . S
H2912 C2896 0.931 . S
H2913 C2901 0.929 . S
H2914 C2902 0.960 . S
H2915 C2902 0.962 . S
H2916 C2902 0.960 . S
H2917 C2903 0.961 . S
H2918 C2903 0.961 . S
H2919 C2903 0.961 . S
H2920 C2904 0.931 . S
H2921 C2909 0.930 . S
H2922 C2910 0.956 . S
H2923 C2910 0.961 . S
H2924 C2910 0.961 . S
H2925 C2911 0.958 . S
H2926 C2911 0.961 . S
H2927 C2911 0.960 . S
C2928 C2929 1.391 . S
C2928 C2930 1.394 . S
C2928 H2944 0.931 . S
C2929 C2928 1.391 . S
C2929 C2933 1.376 . S
C2930 C2928 1.394 . S
C2930 C2931 1.369 . S
C2930 C2934 1.531 . S
C2931 C2930 1.369 . S
C2931 C2932 1.410 . S
C2931 C2939 1.503 . S
C2932 C2931 1.410 . S
C2932 C2933 1.392 . S
C2932 C2935 1.511 . S
C2933 C2929 1.376 . S
C2933 C2932 1.392 . S
C2933 H2945 0.929 . S
C2934 C2930 1.531 . S
C2934 H2946 0.960 . S
C2934 H2947 0.962 . S
C2934 H2948 0.960 . S
C2935 C2932 1.511 . S
C2935 H2949 0.961 . S
C2935 H2950 0.961 . S
C2935 H2951 0.961 . S
C2936 C2937 1.370 . S
C2936 C2938 1.363 . S
C2936 H2952 0.931 . S
C2937 C2936 1.370 . S
C2937 C2941 1.408 . S
C2938 C2936 1.363 . S
C2938 C2939 1.370 . S
C2938 C2942 1.524 . S
C2939 C2931 1.503 . S
C2939 C2938 1.370 . S
C2939 C2940 1.403 . S
C2940 C2939 1.403 . S
C2940 C2941 1.404 . S
C2940 C2943 1.539 . S
C2941 C2937 1.408 . S
C2941 C2940 1.404 . S
C2941 H2953 0.930 . S
C2942 C2938 1.524 . S
C2942 H2954 0.956 . S
C2942 H2955 0.961 . S
C2942 H2956 0.961 . S
C2943 C2940 1.539 . S
C2943 H2957 0.958 . S
C2943 H2958 0.961 . S
C2943 H2959 0.960 . S
H2944 C2928 0.931 . S
H2945 C2933 0.929 . S
H2946 C2934 0.960 . S
H2947 C2934 0.962 . S
H2948 C2934 0.960 . S
H2949 C2935 0.961 . S
H2950 C2935 0.961 . S
H2951 C2935 0.961 . S
H2952 C2936 0.931 . S
H2953 C2941 0.930 . S
H2954 C2942 0.956 . S
H2955 C2942 0.961 . S
H2956 C2942 0.961 . S
H2957 C2943 0.958 . S
H2958 C2943 0.961 . S
H2959 C2943 0.960 . S
C2960 C2961 1.391 . S
C2960 C2962 1.394 . S
C2960 H2976 0.931 . S
C2961 C2960 1.391 . S
C2961 C2965 1.376 . S
C2962 C2960 1.394 . S
C2962 C2963 1.369 . S
C2962 C2966 1.531 . S
C2963 C2962 1.369 . S
C2963 C2964 1.410 . S
C2963 C2971 1.503 . S
C2964 C2963 1.410 . S
C2964 C2965 1.392 . S
C2964 C2967 1.511 . S
C2965 C2961 1.376 . S
C2965 C2964 1.392 . S
C2965 H2977 0.929 . S
C2966 C2962 1.531 . S
C2966 H2978 0.960 . S
C2966 H2979 0.962 . S
C2966 H2980 0.960 . S
C2967 C2964 1.511 . S
C2967 H2981 0.961 . S
C2967 H2982 0.961 . S
C2967 H2983 0.961 . S
C2968 C2969 1.370 . S
C2968 C2970 1.363 . S
C2968 H2984 0.931 . S
C2969 C2968 1.370 . S
C2969 C2973 1.408 . S
C2970 C2968 1.363 . S
C2970 C2971 1.370 . S
C2970 C2974 1.524 . S
C2971 C2963 1.503 . S
C2971 C2970 1.370 . S
C2971 C2972 1.403 . S
C2972 C2971 1.403 . S
C2972 C2973 1.404 . S
C2972 C2975 1.539 . S
C2973 C2969 1.408 . S
C2973 C2972 1.404 . S
C2973 H2985 0.930 . S
C2974 C2970 1.524 . S
C2974 H2986 0.956 . S
C2974 H2987 0.961 . S
C2974 H2988 0.961 . S
C2975 C2972 1.539 . S
C2975 H2989 0.958 . S
C2975 H2990 0.961 . S
C2975 H2991 0.960 . S
H2976 C2960 0.931 . S
H2977 C2965 0.929 . S
H2978 C2966 0.960 . S
H2979 C2966 0.962 . S
H2980 C2966 0.960 . S
H2981 C2967 0.961 . S
H2982 C2967 0.961 . S
H2983 C2967 0.961 . S
H2984 C2968 0.931 . S
H2985 C2973 0.930 . S
H2986 C2974 0.956 . S
H2987 C2974 0.961 . S
H2988 C2974 0.961 . S
H2989 C2975 0.958 . S
H2990 C2975 0.961 . S
H2991 C2975 0.960 . S
C2992 C2993 1.391 . S
C2992 C2994 1.394 . S
C2992 H3008 0.931 . S
C2993 C2992 1.391 . S
C2993 C2997 1.376 . S
C2994 C2992 1.394 . S
C2994 C2995 1.369 . S
C2994 C2998 1.531 . S
C2995 C2994 1.369 . S
C2995 C2996 1.410 . S
C2995 C3003 1.503 . S
C2996 C2995 1.410 . S
C2996 C2997 1.392 . S
C2996 C2999 1.511 . S
C2997 C2993 1.376 . S
C2997 C2996 1.392 . S
C2997 H3009 0.929 . S
C2998 C2994 1.531 . S
C2998 H3010 0.960 . S
C2998 H3011 0.962 . S
C2998 H3012 0.960 . S
C2999 C2996 1.511 . S
C2999 H3013 0.961 . S
C2999 H3014 0.961 . S
C2999 H3015 0.961 . S
C3000 C3001 1.370 . S
C3000 C3002 1.363 . S
C3000 H3016 0.931 . S
C3001 C3000 1.370 . S
C3001 C3005 1.408 . S
C3002 C3000 1.363 . S
C3002 C3003 1.370 . S
C3002 C3006 1.524 . S
C3003 C2995 1.503 . S
C3003 C3002 1.370 . S
C3003 C3004 1.403 . S
C3004 C3003 1.403 . S
C3004 C3005 1.404 . S
C3004 C3007 1.539 . S
C3005 C3001 1.408 . S
C3005 C3004 1.404 . S
C3005 H3017 0.930 . S
C3006 C3002 1.524 . S
C3006 H3018 0.956 . S
C3006 H3019 0.961 . S
C3006 H3020 0.961 . S
C3007 C3004 1.539 . S
C3007 H3021 0.958 . S
C3007 H3022 0.961 . S
C3007 H3023 0.960 . S
H3008 C2992 0.931 . S
H3009 C2997 0.929 . S
H3010 C2998 0.960 . S
H3011 C2998 0.962 . S
H3012 C2998 0.960 . S
H3013 C2999 0.961 . S
H3014 C2999 0.961 . S
H3015 C2999 0.961 . S
H3016 C3000 0.931 . S
H3017 C3005 0.930 . S
H3018 C3006 0.956 . S
H3019 C3006 0.961 . S
H3020 C3006 0.961 . S
H3021 C3007 0.958 . S
H3022 C3007 0.961 . S
H3023 C3007 0.960 . S
C3024 C3025 1.391 . S
C3024 C3026 1.394 . S
C3024 H3040 0.931 . S
C3025 C3024 1.391 . S
C3025 C3029 1.376 . S
C3026 C3024 1.394 . S
C3026 C3027 1.369 . S
C3026 C3030 1.531 . S
C3027 C3026 1.369 . S
C3027 C3028 1.410 . S
C3027 C3035 1.503 . S
C3028 C3027 1.410 . S
C3028 C3029 1.392 . S
C3028 C3031 1.511 . S
C3029 C3025 1.376 . S
C3029 C3028 1.392 . S
C3029 H3041 0.929 . S
C3030 C3026 1.531 . S
C3030 H3042 0.960 . S
C3030 H3043 0.962 . S
C3030 H3044 0.960 . S
C3031 C3028 1.511 . S
C3031 H3045 0.961 . S
C3031 H3046 0.961 . S
C3031 H3047 0.961 . S
C3032 C3033 1.370 . S
C3032 C3034 1.363 . S
C3032 H3048 0.931 . S
C3033 C3032 1.370 . S
C3033 C3037 1.408 . S
C3034 C3032 1.363 . S
C3034 C3035 1.370 . S
C3034 C3038 1.524 . S
C3035 C3027 1.503 . S
C3035 C3034 1.370 . S
C3035 C3036 1.403 . S
C3036 C3035 1.403 . S
C3036 C3037 1.404 . S
C3036 C3039 1.539 . S
C3037 C3033 1.408 . S
C3037 C3036 1.404 . S
C3037 H3049 0.930 . S
C3038 C3034 1.524 . S
C3038 H3050 0.956 . S
C3038 H3051 0.961 . S
C3038 H3052 0.961 . S
C3039 C3036 1.539 . S
C3039 H3053 0.958 . S
C3039 H3054 0.961 . S
C3039 H3055 0.960 . S
H3040 C3024 0.931 . S
H3041 C3029 0.929 . S
H3042 C3030 0.960 . S
H3043 C3030 0.962 . S
H3044 C3030 0.960 . S
H3045 C3031 0.961 . S
H3046 C3031 0.961 . S
H3047 C3031 0.961 . S
H3048 C3032 0.931 . S
H3049 C3037 0.930 . S
H3050 C3038 0.956 . S
H3051 C3038 0.961 . S
H3052 C3038 0.961 . S
H3053 C3039 0.958 . S
H3054 C3039 0.961 . S
H3055 C3039 0.960 . S
C3056 C3057 1.391 . S
C3056 C3058 1.394 . S
C3056 H3072 0.931 . S
C3057 C3056 1.391 . S
C3057 C3061 1.376 . S
C3058 C3056 1.394 . S
C3058 C3059 1.369 . S
C3058 C3062 1.531 . S
C3059 C3058 1.369 . S
C3059 C3060 1.410 . S
C3059 C3067 1.503 . S
C3060 C3059 1.410 . S
C3060 C3061 1.392 . S
C3060 C3063 1.511 . S
C3061 C3057 1.376 . S
C3061 C3060 1.392 . S
C3061 H3073 0.929 . S
C3062 C3058 1.531 . S
C3062 H3074 0.960 . S
C3062 H3075 0.962 . S
C3062 H3076 0.960 . S
C3063 C3060 1.511 . S
C3063 H3077 0.961 . S
C3063 H3078 0.961 . S
C3063 H3079 0.961 . S
C3064 C3065 1.370 . S
C3064 C3066 1.363 . S
C3064 H3080 0.931 . S
C3065 C3064 1.370 . S
C3065 C3069 1.408 . S
C3066 C3064 1.363 . S
C3066 C3067 1.370 . S
C3066 C3070 1.524 . S
C3067 C3059 1.503 . S
C3067 C3066 1.370 . S
C3067 C3068 1.403 . S
C3068 C3067 1.403 . S
C3068 C3069 1.404 . S
C3068 C3071 1.539 . S
C3069 C3065 1.408 . S
C3069 C3068 1.404 . S
C3069 H3081 0.930 . S
C3070 C3066 1.524 . S
C3070 H3082 0.956 . S
C3070 H3083 0.961 . S
C3070 H3084 0.961 . S
C3071 C3068 1.539 . S
C3071 H3085 0.958 . S
C3071 H3086 0.961 . S
C3071 H3087 0.960 . S
H3072 C3056 0.931 . S
H3073 C3061 0.929 . S
H3074 C3062 0.960 . S
H3075 C3062 0.962 . S
H3076 C3062 0.960 . S
H3077 C3063 0.961 . S
H3078 C3063 0.961 . S
H3079 C3063 0.961 . S
H3080 C3064 0.931 . S
H3081 C3069 0.930 . S
H3082 C3070 0.956 . S
H3083 C3070 0.961 . S
H3084 C3070 0.961 . S
H3085 C3071 0.958 . S
H3086 C3071 0.961 . S
H3087 C3071 0.960 . S
C3088 C3089 1.391 . S
C3088 C3090 1.394 . S
C3088 H3104 0.931 . S
C3089 C3088 1.391 . S
C3089 C3093 1.376 . S
C3090 C3088 1.394 . S
C3090 C3091 1.369 . S
C3090 C3094 1.531 . S
C3091 C3090 1.369 . S
C3091 C3092 1.410 . S
C3091 C3099 1.503 . S
C3092 C3091 1.410 . S
C3092 C3093 1.392 . S
C3092 C3095 1.511 . S
C3093 C3089 1.376 . S
C3093 C3092 1.392 . S
C3093 H3105 0.929 . S
C3094 C3090 1.531 . S
C3094 H3106 0.960 . S
C3094 H3107 0.962 . S
C3094 H3108 0.960 . S
C3095 C3092 1.511 . S
C3095 H3109 0.961 . S
C3095 H3110 0.961 . S
C3095 H3111 0.961 . S
C3096 C3097 1.370 . S
C3096 C3098 1.363 . S
C3096 H3112 0.931 . S
C3097 C3096 1.370 . S
C3097 C3101 1.408 . S
C3098 C3096 1.363 . S
C3098 C3099 1.370 . S
C3098 C3102 1.524 . S
C3099 C3091 1.503 . S
C3099 C3098 1.370 . S
C3099 C3100 1.403 . S
C3100 C3099 1.403 . S
C3100 C3101 1.404 . S
C3100 C3103 1.539 . S
C3101 C3097 1.408 . S
C3101 C3100 1.404 . S
C3101 H3113 0.930 . S
C3102 C3098 1.524 . S
C3102 H3114 0.956 . S
C3102 H3115 0.961 . S
C3102 H3116 0.961 . S
C3103 C3100 1.539 . S
C3103 H3117 0.958 . S
C3103 H3118 0.961 . S
C3103 H3119 0.960 . S
H3104 C3088 0.931 . S
H3105 C3093 0.929 . S
H3106 C3094 0.960 . S
H3107 C3094 0.962 . S
H3108 C3094 0.960 . S
H3109 C3095 0.961 . S
H3110 C3095 0.961 . S
H3111 C3095 0.961 . S
H3112 C3096 0.931 . S
H3113 C3101 0.930 . S
H3114 C3102 0.956 . S
H3115 C3102 0.961 . S
H3116 C3102 0.961 . S
H3117 C3103 0.958 . S
H3118 C3103 0.961 . S
H3119 C3103 0.960 . S
C3120 C3121 1.391 . S
C3120 C3122 1.394 . S
C3120 H3136 0.931 . S
C3121 C3120 1.391 . S
C3121 C3125 1.376 . S
C3122 C3120 1.394 . S
C3122 C3123 1.369 . S
C3122 C3126 1.531 . S
C3123 C3122 1.369 . S
C3123 C3124 1.410 . S
C3123 C3131 1.503 . S
C3124 C3123 1.410 . S
C3124 C3125 1.392 . S
C3124 C3127 1.511 . S
C3125 C3121 1.376 . S
C3125 C3124 1.392 . S
C3125 H3137 0.929 . S
C3126 C3122 1.531 . S
C3126 H3138 0.960 . S
C3126 H3139 0.962 . S
C3126 H3140 0.960 . S
C3127 C3124 1.511 . S
C3127 H3141 0.961 . S
C3127 H3142 0.961 . S
C3127 H3143 0.961 . S
C3128 C3129 1.370 . S
C3128 C3130 1.363 . S
C3128 H3144 0.931 . S
C3129 C3128 1.370 . S
C3129 C3133 1.408 . S
C3130 C3128 1.363 . S
C3130 C3131 1.370 . S
C3130 C3134 1.524 . S
C3131 C3123 1.503 . S
C3131 C3130 1.370 . S
C3131 C3132 1.403 . S
C3132 C3131 1.403 . S
C3132 C3133 1.404 . S
C3132 C3135 1.539 . S
C3133 C3129 1.408 . S
C3133 C3132 1.404 . S
C3133 H3145 0.930 . S
C3134 C3130 1.524 . S
C3134 H3146 0.956 . S
C3134 H3147 0.961 . S
C3134 H3148 0.961 . S
C3135 C3132 1.539 . S
C3135 H3149 0.958 . S
C3135 H3150 0.961 . S
C3135 H3151 0.960 . S
H3136 C3120 0.931 . S
H3137 C3125 0.929 . S
H3138 C3126 0.960 . S
H3139 C3126 0.962 . S
H3140 C3126 0.960 . S
H3141 C3127 0.961 . S
H3142 C3127 0.961 . S
H3143 C3127 0.961 . S
H3144 C3128 0.931 . S
H3145 C3133 0.930 . S
H3146 C3134 0.956 . S
H3147 C3134 0.961 . S
H3148 C3134 0.961 . S
H3149 C3135 0.958 . S
H3150 C3135 0.961 . S
H3151 C3135 0.960 . S
C3152 C3153 1.391 . S
C3152 C3154 1.394 . S
C3152 H3168 0.931 . S
C3153 C3152 1.391 . S
C3153 C3157 1.376 . S
C3154 C3152 1.394 . S
C3154 C3155 1.369 . S
C3154 C3158 1.531 . S
C3155 C3154 1.369 . S
C3155 C3156 1.410 . S
C3155 C3163 1.503 . S
C3156 C3155 1.410 . S
C3156 C3157 1.392 . S
C3156 C3159 1.511 . S
C3157 C3153 1.376 . S
C3157 C3156 1.392 . S
C3157 H3169 0.929 . S
C3158 C3154 1.531 . S
C3158 H3170 0.960 . S
C3158 H3171 0.962 . S
C3158 H3172 0.960 . S
C3159 C3156 1.511 . S
C3159 H3173 0.961 . S
C3159 H3174 0.961 . S
C3159 H3175 0.961 . S
C3160 C3161 1.370 . S
C3160 C3162 1.363 . S
C3160 H3176 0.931 . S
C3161 C3160 1.370 . S
C3161 C3165 1.408 . S
C3162 C3160 1.363 . S
C3162 C3163 1.370 . S
C3162 C3166 1.524 . S
C3163 C3155 1.503 . S
C3163 C3162 1.370 . S
C3163 C3164 1.403 . S
C3164 C3163 1.403 . S
C3164 C3165 1.404 . S
C3164 C3167 1.539 . S
C3165 C3161 1.408 . S
C3165 C3164 1.404 . S
C3165 H3177 0.930 . S
C3166 C3162 1.524 . S
C3166 H3178 0.956 . S
C3166 H3179 0.961 . S
C3166 H3180 0.961 . S
C3167 C3164 1.539 . S
C3167 H3181 0.958 . S
C3167 H3182 0.961 . S
C3167 H3183 0.960 . S
H3168 C3152 0.931 . S
H3169 C3157 0.929 . S
H3170 C3158 0.960 . S
H3171 C3158 0.962 . S
H3172 C3158 0.960 . S
H3173 C3159 0.961 . S
H3174 C3159 0.961 . S
H3175 C3159 0.961 . S
H3176 C3160 0.931 . S
H3177 C3165 0.930 . S
H3178 C3166 0.956 . S
H3179 C3166 0.961 . S
H3180 C3166 0.961 . S
H3181 C3167 0.958 . S
H3182 C3167 0.961 . S
H3183 C3167 0.960 . S
C3184 C3185 1.391 . S
C3184 C3186 1.394 . S
C3184 H3200 0.931 . S
C3185 C3184 1.391 . S
C3185 C3189 1.376 . S
C3186 C3184 1.394 . S
C3186 C3187 1.369 . S
C3186 C3190 1.531 . S
C3187 C3186 1.369 . S
C3187 C3188 1.410 . S
C3187 C3195 1.503 . S
C3188 C3187 1.410 . S
C3188 C3189 1.392 . S
C3188 C3191 1.511 . S
C3189 C3185 1.376 . S
C3189 C3188 1.392 . S
C3189 H3201 0.929 . S
C3190 C3186 1.531 . S
C3190 H3202 0.960 . S
C3190 H3203 0.962 . S
C3190 H3204 0.960 . S
C3191 C3188 1.511 . S
C3191 H3205 0.961 . S
C3191 H3206 0.961 . S
C3191 H3207 0.961 . S
C3192 C3193 1.370 . S
C3192 C3194 1.363 . S
C3192 H3208 0.931 . S
C3193 C3192 1.370 . S
C3193 C3197 1.408 . S
C3194 C3192 1.363 . S
C3194 C3195 1.370 . S
C3194 C3198 1.524 . S
C3195 C3187 1.503 . S
C3195 C3194 1.370 . S
C3195 C3196 1.403 . S
C3196 C3195 1.403 . S
C3196 C3197 1.404 . S
C3196 C3199 1.539 . S
C3197 C3193 1.408 . S
C3197 C3196 1.404 . S
C3197 H3209 0.930 . S
C3198 C3194 1.524 . S
C3198 H3210 0.956 . S
C3198 H3211 0.961 . S
C3198 H3212 0.961 . S
C3199 C3196 1.539 . S
C3199 H3213 0.958 . S
C3199 H3214 0.961 . S
C3199 H3215 0.960 . S
H3200 C3184 0.931 . S
H3201 C3189 0.929 . S
H3202 C3190 0.960 . S
H3203 C3190 0.962 . S
H3204 C3190 0.960 . S
H3205 C3191 0.961 . S
H3206 C3191 0.961 . S
H3207 C3191 0.961 . S
H3208 C3192 0.931 . S
H3209 C3197 0.930 . S
H3210 C3198 0.956 . S
H3211 C3198 0.961 . S
H3212 C3198 0.961 . S
H3213 C3199 0.958 . S
H3214 C3199 0.961 . S
H3215 C3199 0.960 . S
C3216 C3217 1.391 . S
C3216 C3218 1.394 . S
C3216 H3232 0.931 . S
C3217 C3216 1.391 . S
C3217 C3221 1.376 . S
C3218 C3216 1.394 . S
C3218 C3219 1.369 . S
C3218 C3222 1.531 . S
C3219 C3218 1.369 . S
C3219 C3220 1.410 . S
C3219 C3227 1.503 . S
C3220 C3219 1.410 . S
C3220 C3221 1.392 . S
C3220 C3223 1.511 . S
C3221 C3217 1.376 . S
C3221 C3220 1.392 . S
C3221 H3233 0.929 . S
C3222 C3218 1.531 . S
C3222 H3234 0.960 . S
C3222 H3235 0.962 . S
C3222 H3236 0.960 . S
C3223 C3220 1.511 . S
C3223 H3237 0.961 . S
C3223 H3238 0.961 . S
C3223 H3239 0.961 . S
C3224 C3225 1.370 . S
C3224 C3226 1.363 . S
C3224 H3240 0.931 . S
C3225 C3224 1.370 . S
C3225 C3229 1.408 . S
C3226 C3224 1.363 . S
C3226 C3227 1.370 . S
C3226 C3230 1.524 . S
C3227 C3219 1.503 . S
C3227 C3226 1.370 . S
C3227 C3228 1.403 . S
C3228 C3227 1.403 . S
C3228 C3229 1.404 . S
C3228 C3231 1.539 . S
C3229 C3225 1.408 . S
C3229 C3228 1.404 . S
C3229 H3241 0.930 . S
C3230 C3226 1.524 . S
C3230 H3242 0.956 . S
C3230 H3243 0.961 . S
C3230 H3244 0.961 . S
C3231 C3228 1.539 . S
C3231 H3245 0.958 . S
C3231 H3246 0.961 . S
C3231 H3247 0.960 . S
H3232 C3216 0.931 . S
H3233 C3221 0.929 . S
H3234 C3222 0.960 . S
H3235 C3222 0.962 . S
H3236 C3222 0.960 . S
H3237 C3223 0.961 . S
H3238 C3223 0.961 . S
H3239 C3223 0.961 . S
H3240 C3224 0.931 . S
H3241 C3229 0.930 . S
H3242 C3230 0.956 . S
H3243 C3230 0.961 . S
H3244 C3230 0.961 . S
H3245 C3231 0.958 . S
H3246 C3231 0.961 . S
H3247 C3231 0.960 . S
C3248 C3249 1.391 . S
C3248 C3250 1.394 . S
C3248 H3264 0.931 . S
C3249 C3248 1.391 . S
C3249 C3253 1.376 . S
C3250 C3248 1.394 . S
C3250 C3251 1.369 . S
C3250 C3254 1.531 . S
C3251 C3250 1.369 . S
C3251 C3252 1.410 . S
C3251 C3259 1.503 . S
C3252 C3251 1.410 . S
C3252 C3253 1.392 . S
C3252 C3255 1.511 . S
C3253 C3249 1.376 . S
C3253 C3252 1.392 . S
C3253 H3265 0.929 . S
C3254 C3250 1.531 . S
C3254 H3266 0.960 . S
C3254 H3267 0.962 . S
C3254 H3268 0.960 . S
C3255 C3252 1.511 . S
C3255 H3269 0.961 . S
C3255 H3270 0.961 . S
C3255 H3271 0.961 . S
C3256 C3257 1.370 . S
C3256 C3258 1.363 . S
C3256 H3272 0.931 . S
C3257 C3256 1.370 . S
C3257 C3261 1.408 . S
C3258 C3256 1.363 . S
C3258 C3259 1.370 . S
C3258 C3262 1.524 . S
C3259 C3251 1.503 . S
C3259 C3258 1.370 . S
C3259 C3260 1.403 . S
C3260 C3259 1.403 . S
C3260 C3261 1.404 . S
C3260 C3263 1.539 . S
C3261 C3257 1.408 . S
C3261 C3260 1.404 . S
C3261 H3273 0.930 . S
C3262 C3258 1.524 . S
C3262 H3274 0.956 . S
C3262 H3275 0.961 . S
C3262 H3276 0.961 . S
C3263 C3260 1.539 . S
C3263 H3277 0.958 . S
C3263 H3278 0.961 . S
C3263 H3279 0.960 . S
H3264 C3248 0.931 . S
H3265 C3253 0.929 . S
H3266 C3254 0.960 . S
H3267 C3254 0.962 . S
H3268 C3254 0.960 . S
H3269 C3255 0.961 . S
H3270 C3255 0.961 . S
H3271 C3255 0.961 . S
H3272 C3256 0.931 . S
H3273 C3261 0.930 . S
H3274 C3262 0.956 . S
H3275 C3262 0.961 . S
H3276 C3262 0.961 . S
H3277 C3263 0.958 . S
H3278 C3263 0.961 . S
H3279 C3263 0.960 . S
C3280 C3281 1.391 . S
C3280 C3282 1.394 . S
C3280 H3296 0.931 . S
C3281 C3280 1.391 . S
C3281 C3285 1.376 . S
C3282 C3280 1.394 . S
C3282 C3283 1.369 . S
C3282 C3286 1.531 . S
C3283 C3282 1.369 . S
C3283 C3284 1.410 . S
C3283 C3291 1.503 . S
C3284 C3283 1.410 . S
C3284 C3285 1.392 . S
C3284 C3287 1.511 . S
C3285 C3281 1.376 . S
C3285 C3284 1.392 . S
C3285 H3297 0.929 . S
C3286 C3282 1.531 . S
C3286 H3298 0.960 . S
C3286 H3299 0.962 . S
C3286 H3300 0.960 . S
C3287 C3284 1.511 . S
C3287 H3301 0.961 . S
C3287 H3302 0.961 . S
C3287 H3303 0.961 . S
C3288 C3289 1.370 . S
C3288 C3290 1.363 . S
C3288 H3304 0.931 . S
C3289 C3288 1.370 . S
C3289 C3293 1.408 . S
C3290 C3288 1.363 . S
C3290 C3291 1.370 . S
C3290 C3294 1.524 . S
C3291 C3283 1.503 . S
C3291 C3290 1.370 . S
C3291 C3292 1.403 . S
C3292 C3291 1.403 . S
C3292 C3293 1.404 . S
C3292 C3295 1.539 . S
C3293 C3289 1.408 . S
C3293 C3292 1.404 . S
C3293 H3305 0.930 . S
C3294 C3290 1.524 . S
C3294 H3306 0.956 . S
C3294 H3307 0.961 . S
C3294 H3308 0.961 . S
C3295 C3292 1.539 . S
C3295 H3309 0.958 . S
C3295 H3310 0.961 . S
C3295 H3311 0.960 . S
H3296 C3280 0.931 . S
H3297 C3285 0.929 . S
H3298 C3286 0.960 . S
H3299 C3286 0.962 . S
H3300 C3286 0.960 . S
H3301 C3287 0.961 . S
H3302 C3287 0.961 . S
H3303 C3287 0.961 . S
H3304 C3288 0.931 . S
H3305 C3293 0.930 . S
H3306 C3294 0.956 . S
H3307 C3294 0.961 . S
H3308 C3294 0.961 . S
H3309 C3295 0.958 . S
H3310 C3295 0.961 . S
H3311 C3295 0.960 . S
C3312 C3313 1.391 . S
C3312 C3314 1.394 . S
C3312 H3328 0.931 . S
C3313 C3312 1.391 . S
C3313 C3317 1.376 . S
C3314 C3312 1.394 . S
C3314 C3315 1.369 . S
C3314 C3318 1.531 . S
C3315 C3314 1.369 . S
C3315 C3316 1.410 . S
C3315 C3323 1.503 . S
C3316 C3315 1.410 . S
C3316 C3317 1.392 . S
C3316 C3319 1.511 . S
C3317 C3313 1.376 . S
C3317 C3316 1.392 . S
C3317 H3329 0.929 . S
C3318 C3314 1.531 . S
C3318 H3330 0.960 . S
C3318 H3331 0.962 . S
C3318 H3332 0.960 . S
C3319 C3316 1.511 . S
C3319 H3333 0.961 . S
C3319 H3334 0.961 . S
C3319 H3335 0.961 . S
C3320 C3321 1.370 . S
C3320 C3322 1.363 . S
C3320 H3336 0.931 . S
C3321 C3320 1.370 . S
C3321 C3325 1.408 . S
C3322 C3320 1.363 . S
C3322 C3323 1.370 . S
C3322 C3326 1.524 . S
C3323 C3315 1.503 . S
C3323 C3322 1.370 . S
C3323 C3324 1.403 . S
C3324 C3323 1.403 . S
C3324 C3325 1.404 . S
C3324 C3327 1.539 . S
C3325 C3321 1.408 . S
C3325 C3324 1.404 . S
C3325 H3337 0.930 . S
C3326 C3322 1.524 . S
C3326 H3338 0.956 . S
C3326 H3339 0.961 . S
C3326 H3340 0.961 . S
C3327 C3324 1.539 . S
C3327 H3341 0.958 . S
C3327 H3342 0.961 . S
C3327 H3343 0.960 . S
H3328 C3312 0.931 . S
H3329 C3317 0.929 . S
H3330 C3318 0.960 . S
H3331 C3318 0.962 . S
H3332 C3318 0.960 . S
H3333 C3319 0.961 . S
H3334 C3319 0.961 . S
H3335 C3319 0.961 . S
H3336 C3320 0.931 . S
H3337 C3325 0.930 . S
H3338 C3326 0.956 . S
H3339 C3326 0.961 . S
H3340 C3326 0.961 . S
H3341 C3327 0.958 . S
H3342 C3327 0.961 . S
H3343 C3327 0.960 . S
C3344 C3345 1.391 . S
C3344 C3346 1.394 . S
C3344 H3360 0.931 . S
C3345 C3344 1.391 . S
C3345 C3349 1.376 . S
C3346 C3344 1.394 . S
C3346 C3347 1.369 . S
C3346 C3350 1.531 . S
C3347 C3346 1.369 . S
C3347 C3348 1.410 . S
C3347 C3355 1.503 . S
C3348 C3347 1.410 . S
C3348 C3349 1.392 . S
C3348 C3351 1.511 . S
C3349 C3345 1.376 . S
C3349 C3348 1.392 . S
C3349 H3361 0.929 . S
C3350 C3346 1.531 . S
C3350 H3362 0.960 . S
C3350 H3363 0.962 . S
C3350 H3364 0.960 . S
C3351 C3348 1.511 . S
C3351 H3365 0.961 . S
C3351 H3366 0.961 . S
C3351 H3367 0.961 . S
C3352 C3353 1.370 . S
C3352 C3354 1.363 . S
C3352 H3368 0.931 . S
C3353 C3352 1.370 . S
C3353 C3357 1.408 . S
C3354 C3352 1.363 . S
C3354 C3355 1.370 . S
C3354 C3358 1.524 . S
C3355 C3347 1.503 . S
C3355 C3354 1.370 . S
C3355 C3356 1.403 . S
C3356 C3355 1.403 . S
C3356 C3357 1.404 . S
C3356 C3359 1.539 . S
C3357 C3353 1.408 . S
C3357 C3356 1.404 . S
C3357 H3369 0.930 . S
C3358 C3354 1.524 . S
C3358 H3370 0.956 . S
C3358 H3371 0.961 . S
C3358 H3372 0.961 . S
C3359 C3356 1.539 . S
C3359 H3373 0.958 . S
C3359 H3374 0.961 . S
C3359 H3375 0.960 . S
H3360 C3344 0.931 . S
H3361 C3349 0.929 . S
H3362 C3350 0.960 . S
H3363 C3350 0.962 . S
H3364 C3350 0.960 . S
H3365 C3351 0.961 . S
H3366 C3351 0.961 . S
H3367 C3351 0.961 . S
H3368 C3352 0.931 . S
H3369 C3357 0.930 . S
H3370 C3358 0.956 . S
H3371 C3358 0.961 . S
H3372 C3358 0.961 . S
H3373 C3359 0.958 . S
H3374 C3359 0.961 . S
H3375 C3359 0.960 . S
C3376 C3377 1.391 . S
C3376 C3378 1.394 . S
C3376 H3392 0.931 . S
C3377 C3376 1.391 . S
C3377 C3381 1.376 . S
C3378 C3376 1.394 . S
C3378 C3379 1.369 . S
C3378 C3382 1.531 . S
C3379 C3378 1.369 . S
C3379 C3380 1.410 . S
C3379 C3387 1.503 . S
C3380 C3379 1.410 . S
C3380 C3381 1.392 . S
C3380 C3383 1.511 . S
C3381 C3377 1.376 . S
C3381 C3380 1.392 . S
C3381 H3393 0.929 . S
C3382 C3378 1.531 . S
C3382 H3394 0.960 . S
C3382 H3395 0.962 . S
C3382 H3396 0.960 . S
C3383 C3380 1.511 . S
C3383 H3397 0.961 . S
C3383 H3398 0.961 . S
C3383 H3399 0.961 . S
C3384 C3385 1.370 . S
C3384 C3386 1.363 . S
C3384 H3400 0.931 . S
C3385 C3384 1.370 . S
C3385 C3389 1.408 . S
C3386 C3384 1.363 . S
C3386 C3387 1.370 . S
C3386 C3390 1.524 . S
C3387 C3379 1.503 . S
C3387 C3386 1.370 . S
C3387 C3388 1.403 . S
C3388 C3387 1.403 . S
C3388 C3389 1.404 . S
C3388 C3391 1.539 . S
C3389 C3385 1.408 . S
C3389 C3388 1.404 . S
C3389 H3401 0.930 . S
C3390 C3386 1.524 . S
C3390 H3402 0.956 . S
C3390 H3403 0.961 . S
C3390 H3404 0.961 . S
C3391 C3388 1.539 . S
C3391 H3405 0.958 . S
C3391 H3406 0.961 . S
C3391 H3407 0.960 . S
H3392 C3376 0.931 . S
H3393 C3381 0.929 . S
H3394 C3382 0.960 . S
H3395 C3382 0.962 . S
H3396 C3382 0.960 . S
H3397 C3383 0.961 . S
H3398 C3383 0.961 . S
H3399 C3383 0.961 . S
H3400 C3384 0.931 . S
H3401 C3389 0.930 . S
H3402 C3390 0.956 . S
H3403 C3390 0.961 . S
H3404 C3390 0.961 . S
H3405 C3391 0.958 . S
H3406 C3391 0.961 . S
H3407 C3391 0.960 . S
C3408 C3409 1.391 . S
C3408 C3410 1.394 . S
C3408 H3424 0.931 . S
C3409 C3408 1.391 . S
C3409 C3413 1.376 . S
C3410 C3408 1.394 . S
C3410 C3411 1.369 . S
C3410 C3414 1.531 . S
C3411 C3410 1.369 . S
C3411 C3412 1.410 . S
C3411 C3419 1.503 . S
C3412 C3411 1.410 . S
C3412 C3413 1.392 . S
C3412 C3415 1.511 . S
C3413 C3409 1.376 . S
C3413 C3412 1.392 . S
C3413 H3425 0.929 . S
C3414 C3410 1.531 . S
C3414 H3426 0.960 . S
C3414 H3427 0.962 . S
C3414 H3428 0.960 . S
C3415 C3412 1.511 . S
C3415 H3429 0.961 . S
C3415 H3430 0.961 . S
C3415 H3431 0.961 . S
C3416 C3417 1.370 . S
C3416 C3418 1.363 . S
C3416 H3432 0.931 . S
C3417 C3416 1.370 . S
C3417 C3421 1.408 . S
C3418 C3416 1.363 . S
C3418 C3419 1.370 . S
C3418 C3422 1.524 . S
C3419 C3411 1.503 . S
C3419 C3418 1.370 . S
C3419 C3420 1.403 . S
C3420 C3419 1.403 . S
C3420 C3421 1.404 . S
C3420 C3423 1.539 . S
C3421 C3417 1.408 . S
C3421 C3420 1.404 . S
C3421 H3433 0.930 . S
C3422 C3418 1.524 . S
C3422 H3434 0.956 . S
C3422 H3435 0.961 . S
C3422 H3436 0.961 . S
C3423 C3420 1.539 . S
C3423 H3437 0.958 . S
C3423 H3438 0.961 . S
C3423 H3439 0.960 . S
H3424 C3408 0.931 . S
H3425 C3413 0.929 . S
H3426 C3414 0.960 . S
H3427 C3414 0.962 . S
H3428 C3414 0.960 . S
H3429 C3415 0.961 . S
H3430 C3415 0.961 . S
H3431 C3415 0.961 . S
H3432 C3416 0.931 . S
H3433 C3421 0.930 . S
H3434 C3422 0.956 . S
H3435 C3422 0.961 . S
H3436 C3422 0.961 . S
H3437 C3423 0.958 . S
H3438 C3423 0.961 . S
H3439 C3423 0.960 . S
C3440 C3441 1.391 . S
C3440 C3442 1.394 . S
C3440 H3456 0.931 . S
C3441 C3440 1.391 . S
C3441 C3445 1.376 . S
C3442 C3440 1.394 . S
C3442 C3443 1.369 . S
C3442 C3446 1.531 . S
C3443 C3442 1.369 . S
C3443 C3444 1.410 . S
C3443 C3451 1.503 . S
C3444 C3443 1.410 . S
C3444 C3445 1.392 . S
C3444 C3447 1.511 . S
C3445 C3441 1.376 . S
C3445 C3444 1.392 . S
C3445 H3457 0.929 . S
C3446 C3442 1.531 . S
C3446 H3458 0.960 . S
C3446 H3459 0.962 . S
C3446 H3460 0.960 . S
C3447 C3444 1.511 . S
C3447 H3461 0.961 . S
C3447 H3462 0.961 . S
C3447 H3463 0.961 . S
C3448 C3449 1.370 . S
C3448 C3450 1.363 . S
C3448 H3464 0.931 . S
C3449 C3448 1.370 . S
C3449 C3453 1.408 . S
C3450 C3448 1.363 . S
C3450 C3451 1.370 . S
C3450 C3454 1.524 . S
C3451 C3443 1.503 . S
C3451 C3450 1.370 . S
C3451 C3452 1.403 . S
C3452 C3451 1.403 . S
C3452 C3453 1.404 . S
C3452 C3455 1.539 . S
C3453 C3449 1.408 . S
C3453 C3452 1.404 . S
C3453 H3465 0.930 . S
C3454 C3450 1.524 . S
C3454 H3466 0.956 . S
C3454 H3467 0.961 . S
C3454 H3468 0.961 . S
C3455 C3452 1.539 . S
C3455 H3469 0.958 . S
C3455 H3470 0.961 . S
C3455 H3471 0.960 . S
H3456 C3440 0.931 . S
H3457 C3445 0.929 . S
H3458 C3446 0.960 . S
H3459 C3446 0.962 . S
H3460 C3446 0.960 . S
H3461 C3447 0.961 . S
H3462 C3447 0.961 . S
H3463 C3447 0.961 . S
H3464 C3448 0.931 . S
H3465 C3453 0.930 . S
H3466 C3454 0.956 . S
H3467 C3454 0.961 . S
H3468 C3454 0.961 . S
H3469 C3455 0.958 . S
H3470 C3455 0.961 . S
H3471 C3455 0.960 . S
C3472 C3473 1.391 . S
C3472 C3474 1.394 . S
C3472 H3488 0.931 . S
C3473 C3472 1.391 . S
C3473 C3477 1.376 . S
C3474 C3472 1.394 . S
C3474 C3475 1.369 . S
C3474 C3478 1.531 . S
C3475 C3474 1.369 . S
C3475 C3476 1.410 . S
C3475 C3483 1.503 . S
C3476 C3475 1.410 . S
C3476 C3477 1.392 . S
C3476 C3479 1.511 . S
C3477 C3473 1.376 . S
C3477 C3476 1.392 . S
C3477 H3489 0.929 . S
C3478 C3474 1.531 . S
C3478 H3490 0.960 . S
C3478 H3491 0.962 . S
C3478 H3492 0.960 . S
C3479 C3476 1.511 . S
C3479 H3493 0.961 . S
C3479 H3494 0.961 . S
C3479 H3495 0.961 . S
C3480 C3481 1.370 . S
C3480 C3482 1.363 . S
C3480 H3496 0.931 . S
C3481 C3480 1.370 . S
C3481 C3485 1.408 . S
C3482 C3480 1.363 . S
C3482 C3483 1.370 . S
C3482 C3486 1.524 . S
C3483 C3475 1.503 . S
C3483 C3482 1.370 . S
C3483 C3484 1.403 . S
C3484 C3483 1.403 . S
C3484 C3485 1.404 . S
C3484 C3487 1.539 . S
C3485 C3481 1.408 . S
C3485 C3484 1.404 . S
C3485 H3497 0.930 . S
C3486 C3482 1.524 . S
C3486 H3498 0.956 . S
C3486 H3499 0.961 . S
C3486 H3500 0.961 . S
C3487 C3484 1.539 . S
C3487 H3501 0.958 . S
C3487 H3502 0.961 . S
C3487 H3503 0.960 . S
H3488 C3472 0.931 . S
H3489 C3477 0.929 . S
H3490 C3478 0.960 . S
H3491 C3478 0.962 . S
H3492 C3478 0.960 . S
H3493 C3479 0.961 . S
H3494 C3479 0.961 . S
H3495 C3479 0.961 . S
H3496 C3480 0.931 . S
H3497 C3485 0.930 . S
H3498 C3486 0.956 . S
H3499 C3486 0.961 . S
H3500 C3486 0.961 . S
H3501 C3487 0.958 . S
H3502 C3487 0.961 . S
H3503 C3487 0.960 . S
C3504 C3505 1.391 . S
C3504 C3506 1.394 . S
C3504 H3520 0.931 . S
C3505 C3504 1.391 . S
C3505 C3509 1.376 . S
C3506 C3504 1.394 . S
C3506 C3507 1.369 . S
C3506 C3510 1.531 . S
C3507 C3506 1.369 . S
C3507 C3508 1.410 . S
C3507 C3515 1.503 . S
C3508 C3507 1.410 . S
C3508 C3509 1.392 . S
C3508 C3511 1.511 . S
C3509 C3505 1.376 . S
C3509 C3508 1.392 . S
C3509 H3521 0.929 . S
C3510 C3506 1.531 . S
C3510 H3522 0.960 . S
C3510 H3523 0.962 . S
C3510 H3524 0.960 . S
C3511 C3508 1.511 . S
C3511 H3525 0.961 . S
C3511 H3526 0.961 . S
C3511 H3527 0.961 . S
C3512 C3513 1.370 . S
C3512 C3514 1.363 . S
C3512 H3528 0.931 . S
C3513 C3512 1.370 . S
C3513 C3517 1.408 . S
C3514 C3512 1.363 . S
C3514 C3515 1.370 . S
C3514 C3518 1.524 . S
C3515 C3507 1.503 . S
C3515 C3514 1.370 . S
C3515 C3516 1.403 . S
C3516 C3515 1.403 . S
C3516 C3517 1.404 . S
C3516 C3519 1.539 . S
C3517 C3513 1.408 . S
C3517 C3516 1.404 . S
C3517 H3529 0.930 . S
C3518 C3514 1.524 . S
C3518 H3530 0.956 . S
C3518 H3531 0.961 . S
C3518 H3532 0.961 . S
C3519 C3516 1.539 . S
C3519 H3533 0.958 . S
C3519 H3534 0.961 . S
C3519 H3535 0.960 . S
H3520 C3504 0.931 . S
H3521 C3509 0.929 . S
H3522 C3510 0.960 . S
H3523 C3510 0.962 . S
H3524 C3510 0.960 . S
H3525 C3511 0.961 . S
H3526 C3511 0.961 . S
H3527 C3511 0.961 . S
H3528 C3512 0.931 . S
H3529 C3517 0.930 . S
H3530 C3518 0.956 . S
H3531 C3518 0.961 . S
H3532 C3518 0.961 . S
H3533 C3519 0.958 . S
H3534 C3519 0.961 . S
H3535 C3519 0.960 . S
C3536 C3537 1.391 . S
C3536 C3538 1.394 . S
C3536 H3552 0.931 . S
C3537 C3536 1.391 . S
C3537 C3541 1.376 . S
C3538 C3536 1.394 . S
C3538 C3539 1.369 . S
C3538 C3542 1.531 . S
C3539 C3538 1.369 . S
C3539 C3540 1.410 . S
C3539 C3547 1.503 . S
C3540 C3539 1.410 . S
C3540 C3541 1.392 . S
C3540 C3543 1.511 . S
C3541 C3537 1.376 . S
C3541 C3540 1.392 . S
C3541 H3553 0.929 . S
C3542 C3538 1.531 . S
C3542 H3554 0.960 . S
C3542 H3555 0.962 . S
C3542 H3556 0.960 . S
C3543 C3540 1.511 . S
C3543 H3557 0.961 . S
C3543 H3558 0.961 . S
C3543 H3559 0.961 . S
C3544 C3545 1.370 . S
C3544 C3546 1.363 . S
C3544 H3560 0.931 . S
C3545 C3544 1.370 . S
C3545 C3549 1.408 . S
C3546 C3544 1.363 . S
C3546 C3547 1.370 . S
C3546 C3550 1.524 . S
C3547 C3539 1.503 . S
C3547 C3546 1.370 . S
C3547 C3548 1.403 . S
C3548 C3547 1.403 . S
C3548 C3549 1.404 . S
C3548 C3551 1.539 . S
C3549 C3545 1.408 . S
C3549 C3548 1.404 . S
C3549 H3561 0.930 . S
C3550 C3546 1.524 . S
C3550 H3562 0.956 . S
C3550 H3563 0.961 . S
C3550 H3564 0.961 . S
C3551 C3548 1.539 . S
C3551 H3565 0.958 . S
C3551 H3566 0.961 . S
C3551 H3567 0.960 . S
H3552 C3536 0.931 . S
H3553 C3541 0.929 . S
H3554 C3542 0.960 . S
H3555 C3542 0.962 . S
H3556 C3542 0.960 . S
H3557 C3543 0.961 . S
H3558 C3543 0.961 . S
H3559 C3543 0.961 . S
H3560 C3544 0.931 . S
H3561 C3549 0.930 . S
H3562 C3550 0.956 . S
H3563 C3550 0.961 . S
H3564 C3550 0.961 . S
H3565 C3551 0.958 . S
H3566 C3551 0.961 . S
H3567 C3551 0.960 . S
C3568 C3569 1.391 . S
C3568 C3570 1.394 . S
C3568 H3584 0.931 . S
C3569 C3568 1.391 . S
C3569 C3573 1.376 . S
C3570 C3568 1.394 . S
C3570 C3571 1.369 . S
C3570 C3574 1.531 . S
C3571 C3570 1.369 . S
C3571 C3572 1.410 . S
C3571 C3579 1.503 . S
C3572 C3571 1.410 . S
C3572 C3573 1.392 . S
C3572 C3575 1.511 . S
C3573 C3569 1.376 . S
C3573 C3572 1.392 . S
C3573 H3585 0.929 . S
C3574 C3570 1.531 . S
C3574 H3586 0.960 . S
C3574 H3587 0.962 . S
C3574 H3588 0.960 . S
C3575 C3572 1.511 . S
C3575 H3589 0.961 . S
C3575 H3590 0.961 . S
C3575 H3591 0.961 . S
C3576 C3577 1.370 . S
C3576 C3578 1.363 . S
C3576 H3592 0.931 . S
C3577 C3576 1.370 . S
C3577 C3581 1.408 . S
C3578 C3576 1.363 . S
C3578 C3579 1.370 . S
C3578 C3582 1.524 . S
C3579 C3571 1.503 . S
C3579 C3578 1.370 . S
C3579 C3580 1.403 . S
C3580 C3579 1.403 . S
C3580 C3581 1.404 . S
C3580 C3583 1.539 . S
C3581 C3577 1.408 . S
C3581 C3580 1.404 . S
C3581 H3593 0.930 . S
C3582 C3578 1.524 . S
C3582 H3594 0.956 . S
C3582 H3595 0.961 . S
C3582 H3596 0.961 . S
C3583 C3580 1.539 . S
C3583 H3597 0.958 . S
C3583 H3598 0.961 . S
C3583 H3599 0.960 . S
H3584 C3568 0.931 . S
H3585 C3573 0.929 . S
H3586 C3574 0.960 . S
H3587 C3574 0.962 . S
H3588 C3574 0.960 . S
H3589 C3575 0.961 . S
H3590 C3575 0.961 . S
H3591 C3575 0.961 . S
H3592 C3576 0.931 . S
H3593 C3581 0.930 . S
H3594 C3582 0.956 . S
H3595 C3582 0.961 . S
H3596 C3582 0.961 . S
H3597 C3583 0.958 . S
H3598 C3583 0.961 . S
H3599 C3583 0.960 . S
C3600 C3601 1.391 . S
C3600 C3602 1.394 . S
C3600 H3616 0.931 . S
C3601 C3600 1.391 . S
C3601 C3605 1.376 . S
C3602 C3600 1.394 . S
C3602 C3603 1.369 . S
C3602 C3606 1.531 . S
C3603 C3602 1.369 . S
C3603 C3604 1.410 . S
C3603 C3611 1.503 . S
C3604 C3603 1.410 . S
C3604 C3605 1.392 . S
C3604 C3607 1.511 . S
C3605 C3601 1.376 . S
C3605 C3604 1.392 . S
C3605 H3617 0.929 . S
C3606 C3602 1.531 . S
C3606 H3618 0.960 . S
C3606 H3619 0.962 . S
C3606 H3620 0.960 . S
C3607 C3604 1.511 . S
C3607 H3621 0.961 . S
C3607 H3622 0.961 . S
C3607 H3623 0.961 . S
C3608 C3609 1.370 . S
C3608 C3610 1.363 . S
C3608 H3624 0.931 . S
C3609 C3608 1.370 . S
C3609 C3613 1.408 . S
C3610 C3608 1.363 . S
C3610 C3611 1.370 . S
C3610 C3614 1.524 . S
C3611 C3603 1.503 . S
C3611 C3610 1.370 . S
C3611 C3612 1.403 . S
C3612 C3611 1.403 . S
C3612 C3613 1.404 . S
C3612 C3615 1.539 . S
C3613 C3609 1.408 . S
C3613 C3612 1.404 . S
C3613 H3625 0.930 . S
C3614 C3610 1.524 . S
C3614 H3626 0.956 . S
C3614 H3627 0.961 . S
C3614 H3628 0.961 . S
C3615 C3612 1.539 . S
C3615 H3629 0.958 . S
C3615 H3630 0.961 . S
C3615 H3631 0.960 . S
H3616 C3600 0.931 . S
H3617 C3605 0.929 . S
H3618 C3606 0.960 . S
H3619 C3606 0.962 . S
H3620 C3606 0.960 . S
H3621 C3607 0.961 . S
H3622 C3607 0.961 . S
H3623 C3607 0.961 . S
H3624 C3608 0.931 . S
H3625 C3613 0.930 . S
H3626 C3614 0.956 . S
H3627 C3614 0.961 . S
H3628 C3614 0.961 . S
H3629 C3615 0.958 . S
H3630 C3615 0.961 . S
H3631 C3615 0.960 . S
C3632 C3633 1.391 . S
C3632 C3634 1.394 . S
C3632 H3648 0.931 . S
C3633 C3632 1.391 . S
C3633 C3637 1.376 . S
C3634 C3632 1.394 . S
C3634 C3635 1.369 . S
C3634 C3638 1.531 . S
C3635 C3634 1.369 . S
C3635 C3636 1.410 . S
C3635 C3643 1.503 . S
C3636 C3635 1.410 . S
C3636 C3637 1.392 . S
C3636 C3639 1.511 . S
C3637 C3633 1.376 . S
C3637 C3636 1.392 . S
C3637 H3649 0.929 . S
C3638 C3634 1.531 . S
C3638 H3650 0.960 . S
C3638 H3651 0.962 . S
C3638 H3652 0.960 . S
C3639 C3636 1.511 . S
C3639 H3653 0.961 . S
C3639 H3654 0.961 . S
C3639 H3655 0.961 . S
C3640 C3641 1.370 . S
C3640 C3642 1.363 . S
C3640 H3656 0.931 . S
C3641 C3640 1.370 . S
C3641 C3645 1.408 . S
C3642 C3640 1.363 . S
C3642 C3643 1.370 . S
C3642 C3646 1.524 . S
C3643 C3635 1.503 . S
C3643 C3642 1.370 . S
C3643 C3644 1.403 . S
C3644 C3643 1.403 . S
C3644 C3645 1.404 . S
C3644 C3647 1.539 . S
C3645 C3641 1.408 . S
C3645 C3644 1.404 . S
C3645 H3657 0.930 . S
C3646 C3642 1.524 . S
C3646 H3658 0.956 . S
C3646 H3659 0.961 . S
C3646 H3660 0.961 . S
C3647 C3644 1.539 . S
C3647 H3661 0.958 . S
C3647 H3662 0.961 . S
C3647 H3663 0.960 . S
H3648 C3632 0.931 . S
H3649 C3637 0.929 . S
H3650 C3638 0.960 . S
H3651 C3638 0.962 . S
H3652 C3638 0.960 . S
H3653 C3639 0.961 . S
H3654 C3639 0.961 . S
H3655 C3639 0.961 . S
H3656 C3640 0.931 . S
H3657 C3645 0.930 . S
H3658 C3646 0.956 . S
H3659 C3646 0.961 . S
H3660 C3646 0.961 . S
H3661 C3647 0.958 . S
H3662 C3647 0.961 . S
H3663 C3647 0.960 . S
C3664 C3665 1.391 . S
C3664 C3666 1.394 . S
C3664 H3680 0.931 . S
C3665 C3664 1.391 . S
C3665 C3669 1.376 . S
C3666 C3664 1.394 . S
C3666 C3667 1.369 . S
C3666 C3670 1.531 . S
C3667 C3666 1.369 . S
C3667 C3668 1.410 . S
C3667 C3675 1.503 . S
C3668 C3667 1.410 . S
C3668 C3669 1.392 . S
C3668 C3671 1.511 . S
C3669 C3665 1.376 . S
C3669 C3668 1.392 . S
C3669 H3681 0.929 . S
C3670 C3666 1.531 . S
C3670 H3682 0.960 . S
C3670 H3683 0.962 . S
C3670 H3684 0.960 . S
C3671 C3668 1.511 . S
C3671 H3685 0.961 . S
C3671 H3686 0.961 . S
C3671 H3687 0.961 . S
C3672 C3673 1.370 . S
C3672 C3674 1.363 . S
C3672 H3688 0.931 . S
C3673 C3672 1.370 . S
C3673 C3677 1.408 . S
C3674 C3672 1.363 . S
C3674 C3675 1.370 . S
C3674 C3678 1.524 . S
C3675 C3667 1.503 . S
C3675 C3674 1.370 . S
C3675 C3676 1.403 . S
C3676 C3675 1.403 . S
C3676 C3677 1.404 . S
C3676 C3679 1.539 . S
C3677 C3673 1.408 . S
C3677 C3676 1.404 . S
C3677 H3689 0.930 . S
C3678 C3674 1.524 . S
C3678 H3690 0.956 . S
C3678 H3691 0.961 . S
C3678 H3692 0.961 . S
C3679 C3676 1.539 . S
C3679 H3693 0.958 . S
C3679 H3694 0.961 . S
C3679 H3695 0.960 . S
H3680 C3664 0.931 . S
H3681 C3669 0.929 . S
H3682 C3670 0.960 . S
H3683 C3670 0.962 . S
H3684 C3670 0.960 . S
H3685 C3671 0.961 . S
H3686 C3671 0.961 . S
H3687 C3671 0.961 . S
H3688 C3672 0.931 . S
H3689 C3677 0.930 . S
H3690 C3678 0.956 . S
H3691 C3678 0.961 . S
H3692 C3678 0.961 . S
H3693 C3679 0.958 . S
H3694 C3679 0.961 . S
H3695 C3679 0.960 . S
C3696 C3697 1.391 . S
C3696 C3698 1.394 . S
C3696 H3712 0.931 . S
C3697 C3696 1.391 . S
C3697 C3701 1.376 . S
C3698 C3696 1.394 . S
C3698 C3699 1.369 . S
C3698 C3702 1.531 . S
C3699 C3698 1.369 . S
C3699 C3700 1.410 . S
C3699 C3707 1.503 . S
C3700 C3699 1.410 . S
C3700 C3701 1.392 . S
C3700 C3703 1.511 . S
C3701 C3697 1.376 . S
C3701 C3700 1.392 . S
C3701 H3713 0.929 . S
C3702 C3698 1.531 . S
C3702 H3714 0.960 . S
C3702 H3715 0.962 . S
C3702 H3716 0.960 . S
C3703 C3700 1.511 . S
C3703 H3717 0.961 . S
C3703 H3718 0.961 . S
C3703 H3719 0.961 . S
C3704 C3705 1.370 . S
C3704 C3706 1.363 . S
C3704 H3720 0.931 . S
C3705 C3704 1.370 . S
C3705 C3709 1.408 . S
C3706 C3704 1.363 . S
C3706 C3707 1.370 . S
C3706 C3710 1.524 . S
C3707 C3699 1.503 . S
C3707 C3706 1.370 . S
C3707 C3708 1.403 . S
C3708 C3707 1.403 . S
C3708 C3709 1.404 . S
C3708 C3711 1.539 . S
C3709 C3705 1.408 . S
C3709 C3708 1.404 . S
C3709 H3721 0.930 . S
C3710 C3706 1.524 . S
C3710 H3722 0.956 . S
C3710 H3723 0.961 . S
C3710 H3724 0.961 . S
C3711 C3708 1.539 . S
C3711 H3725 0.958 . S
C3711 H3726 0.961 . S
C3711 H3727 0.960 . S
H3712 C3696 0.931 . S
H3713 C3701 0.929 . S
H3714 C3702 0.960 . S
H3715 C3702 0.962 . S
H3716 C3702 0.960 . S
H3717 C3703 0.961 . S
H3718 C3703 0.961 . S
H3719 C3703 0.961 . S
H3720 C3704 0.931 . S
H3721 C3709 0.930 . S
H3722 C3710 0.956 . S
H3723 C3710 0.961 . S
H3724 C3710 0.961 . S
H3725 C3711 0.958 . S
H3726 C3711 0.961 . S
H3727 C3711 0.960 . S
C3728 C3729 1.391 . S
C3728 C3730 1.394 . S
C3728 H3744 0.931 . S
C3729 C3728 1.391 . S
C3729 C3733 1.376 . S
C3730 C3728 1.394 . S
C3730 C3731 1.369 . S
C3730 C3734 1.531 . S
C3731 C3730 1.369 . S
C3731 C3732 1.410 . S
C3731 C3739 1.503 . S
C3732 C3731 1.410 . S
C3732 C3733 1.392 . S
C3732 C3735 1.511 . S
C3733 C3729 1.376 . S
C3733 C3732 1.392 . S
C3733 H3745 0.929 . S
C3734 C3730 1.531 . S
C3734 H3746 0.960 . S
C3734 H3747 0.962 . S
C3734 H3748 0.960 . S
C3735 C3732 1.511 . S
C3735 H3749 0.961 . S
C3735 H3750 0.961 . S
C3735 H3751 0.961 . S
C3736 C3737 1.370 . S
C3736 C3738 1.363 . S
C3736 H3752 0.931 . S
C3737 C3736 1.370 . S
C3737 C3741 1.408 . S
C3738 C3736 1.363 . S
C3738 C3739 1.370 . S
C3738 C3742 1.524 . S
C3739 C3731 1.503 . S
C3739 C3738 1.370 . S
C3739 C3740 1.403 . S
C3740 C3739 1.403 . S
C3740 C3741 1.404 . S
C3740 C3743 1.539 . S
C3741 C3737 1.408 . S
C3741 C3740 1.404 . S
C3741 H3753 0.930 . S
C3742 C3738 1.524 . S
C3742 H3754 0.956 . S
C3742 H3755 0.961 . S
C3742 H3756 0.961 . S
C3743 C3740 1.539 . S
C3743 H3757 0.958 . S
C3743 H3758 0.961 . S
C3743 H3759 0.960 . S
H3744 C3728 0.931 . S
H3745 C3733 0.929 . S
H3746 C3734 0.960 . S
H3747 C3734 0.962 . S
H3748 C3734 0.960 . S
H3749 C3735 0.961 . S
H3750 C3735 0.961 . S
H3751 C3735 0.961 . S
H3752 C3736 0.931 . S
H3753 C3741 0.930 . S
H3754 C3742 0.956 . S
H3755 C3742 0.961 . S
H3756 C3742 0.961 . S
H3757 C3743 0.958 . S
H3758 C3743 0.961 . S
H3759 C3743 0.960 . S
C3760 C3761 1.391 . S
C3760 C3762 1.394 . S
C3760 H3776 0.931 . S
C3761 C3760 1.391 . S
C3761 C3765 1.376 . S
C3762 C3760 1.394 . S
C3762 C3763 1.369 . S
C3762 C3766 1.531 . S
C3763 C3762 1.369 . S
C3763 C3764 1.410 . S
C3763 C3771 1.503 . S
C3764 C3763 1.410 . S
C3764 C3765 1.392 . S
C3764 C3767 1.511 . S
C3765 C3761 1.376 . S
C3765 C3764 1.392 . S
C3765 H3777 0.929 . S
C3766 C3762 1.531 . S
C3766 H3778 0.960 . S
C3766 H3779 0.962 . S
C3766 H3780 0.960 . S
C3767 C3764 1.511 . S
C3767 H3781 0.961 . S
C3767 H3782 0.961 . S
C3767 H3783 0.961 . S
C3768 C3769 1.370 . S
C3768 C3770 1.363 . S
C3768 H3784 0.931 . S
C3769 C3768 1.370 . S
C3769 C3773 1.408 . S
C3770 C3768 1.363 . S
C3770 C3771 1.370 . S
C3770 C3774 1.524 . S
C3771 C3763 1.503 . S
C3771 C3770 1.370 . S
C3771 C3772 1.403 . S
C3772 C3771 1.403 . S
C3772 C3773 1.404 . S
C3772 C3775 1.539 . S
C3773 C3769 1.408 . S
C3773 C3772 1.404 . S
C3773 H3785 0.930 . S
C3774 C3770 1.524 . S
C3774 H3786 0.956 . S
C3774 H3787 0.961 . S
C3774 H3788 0.961 . S
C3775 C3772 1.539 . S
C3775 H3789 0.958 . S
C3775 H3790 0.961 . S
C3775 H3791 0.960 . S
H3776 C3760 0.931 . S
H3777 C3765 0.929 . S
H3778 C3766 0.960 . S
H3779 C3766 0.962 . S
H3780 C3766 0.960 . S
H3781 C3767 0.961 . S
H3782 C3767 0.961 . S
H3783 C3767 0.961 . S
H3784 C3768 0.931 . S
H3785 C3773 0.930 . S
H3786 C3774 0.956 . S
H3787 C3774 0.961 . S
H3788 C3774 0.961 . S
H3789 C3775 0.958 . S
H3790 C3775 0.961 . S
H3791 C3775 0.960 . S
C3792 C3793 1.391 . S
C3792 C3794 1.394 . S
C3792 H3808 0.931 . S
C3793 C3792 1.391 . S
C3793 C3797 1.376 . S
C3794 C3792 1.394 . S
C3794 C3795 1.369 . S
C3794 C3798 1.531 . S
C3795 C3794 1.369 . S
C3795 C3796 1.410 . S
C3795 C3803 1.503 . S
C3796 C3795 1.410 . S
C3796 C3797 1.392 . S
C3796 C3799 1.511 . S
C3797 C3793 1.376 . S
C3797 C3796 1.392 . S
C3797 H3809 0.929 . S
C3798 C3794 1.531 . S
C3798 H3810 0.960 . S
C3798 H3811 0.962 . S
C3798 H3812 0.960 . S
C3799 C3796 1.511 . S
C3799 H3813 0.961 . S
C3799 H3814 0.961 . S
C3799 H3815 0.961 . S
C3800 C3801 1.370 . S
C3800 C3802 1.363 . S
C3800 H3816 0.931 . S
C3801 C3800 1.370 . S
C3801 C3805 1.408 . S
C3802 C3800 1.363 . S
C3802 C3803 1.370 . S
C3802 C3806 1.524 . S
C3803 C3795 1.503 . S
C3803 C3802 1.370 . S
C3803 C3804 1.403 . S
C3804 C3803 1.403 . S
C3804 C3805 1.404 . S
C3804 C3807 1.539 . S
C3805 C3801 1.408 . S
C3805 C3804 1.404 . S
C3805 H3817 0.930 . S
C3806 C3802 1.524 . S
C3806 H3818 0.956 . S
C3806 H3819 0.961 . S
C3806 H3820 0.961 . S
C3807 C3804 1.539 . S
C3807 H3821 0.958 . S
C3807 H3822 0.961 . S
C3807 H3823 0.960 . S
H3808 C3792 0.931 . S
H3809 C3797 0.929 . S
H3810 C3798 0.960 . S
H3811 C3798 0.962 . S
H3812 C3798 0.960 . S
H3813 C3799 0.961 . S
H3814 C3799 0.961 . S
H3815 C3799 0.961 . S
H3816 C3800 0.931 . S
H3817 C3805 0.930 . S
H3818 C3806 0.956 . S
H3819 C3806 0.961 . S
H3820 C3806 0.961 . S
H3821 C3807 0.958 . S
H3822 C3807 0.961 . S
H3823 C3807 0.960 . S
C3824 C3825 1.391 . S
C3824 C3826 1.394 . S
C3824 H3840 0.931 . S
C3825 C3824 1.391 . S
C3825 C3829 1.376 . S
C3826 C3824 1.394 . S
C3826 C3827 1.369 . S
C3826 C3830 1.531 . S
C3827 C3826 1.369 . S
C3827 C3828 1.410 . S
C3827 C3835 1.503 . S
C3828 C3827 1.410 . S
C3828 C3829 1.392 . S
C3828 C3831 1.511 . S
C3829 C3825 1.376 . S
C3829 C3828 1.392 . S
C3829 H3841 0.929 . S
C3830 C3826 1.531 . S
C3830 H3842 0.960 . S
C3830 H3843 0.962 . S
C3830 H3844 0.960 . S
C3831 C3828 1.511 . S
C3831 H3845 0.961 . S
C3831 H3846 0.961 . S
C3831 H3847 0.961 . S
C3832 C3833 1.370 . S
C3832 C3834 1.363 . S
C3832 H3848 0.931 . S
C3833 C3832 1.370 . S
C3833 C3837 1.408 . S
C3834 C3832 1.363 . S
C3834 C3835 1.370 . S
C3834 C3838 1.524 . S
C3835 C3827 1.503 . S
C3835 C3834 1.370 . S
C3835 C3836 1.403 . S
C3836 C3835 1.403 . S
C3836 C3837 1.404 . S
C3836 C3839 1.539 . S
C3837 C3833 1.408 . S
C3837 C3836 1.404 . S
C3837 H3849 0.930 . S
C3838 C3834 1.524 . S
C3838 H3850 0.956 . S
C3838 H3851 0.961 . S
C3838 H3852 0.961 . S
C3839 C3836 1.539 . S
C3839 H3853 0.958 . S
C3839 H3854 0.961 . S
C3839 H3855 0.960 . S
H3840 C3824 0.931 . S
H3841 C3829 0.929 . S
H3842 C3830 0.960 . S
H3843 C3830 0.962 . S
H3844 C3830 0.960 . S
H3845 C3831 0.961 . S
H3846 C3831 0.961 . S
H3847 C3831 0.961 . S
H3848 C3832 0.931 . S
H3849 C3837 0.930 . S
H3850 C3838 0.956 . S
H3851 C3838 0.961 . S
H3852 C3838 0.961 . S
H3853 C3839 0.958 . S
H3854 C3839 0.961 . S
H3855 C3839 0.960 . S
C3856 C3857 1.391 . S
C3856 C3858 1.394 . S
C3856 H3872 0.931 . S
C3857 C3856 1.391 . S
C3857 C3861 1.376 . S
C3858 C3856 1.394 . S
C3858 C3859 1.369 . S
C3858 C3862 1.531 . S
C3859 C3858 1.369 . S
C3859 C3860 1.410 . S
C3859 C3867 1.503 . S
C3860 C3859 1.410 . S
C3860 C3861 1.392 . S
C3860 C3863 1.511 . S
C3861 C3857 1.376 . S
C3861 C3860 1.392 . S
C3861 H3873 0.929 . S
C3862 C3858 1.531 . S
C3862 H3874 0.960 . S
C3862 H3875 0.962 . S
C3862 H3876 0.960 . S
C3863 C3860 1.511 . S
C3863 H3877 0.961 . S
C3863 H3878 0.961 . S
C3863 H3879 0.961 . S
C3864 C3865 1.370 . S
C3864 C3866 1.363 . S
C3864 H3880 0.931 . S
C3865 C3864 1.370 . S
C3865 C3869 1.408 . S
C3866 C3864 1.363 . S
C3866 C3867 1.370 . S
C3866 C3870 1.524 . S
C3867 C3859 1.503 . S
C3867 C3866 1.370 . S
C3867 C3868 1.403 . S
C3868 C3867 1.403 . S
C3868 C3869 1.404 . S
C3868 C3871 1.539 . S
C3869 C3865 1.408 . S
C3869 C3868 1.404 . S
C3869 H3881 0.930 . S
C3870 C3866 1.524 . S
C3870 H3882 0.956 . S
C3870 H3883 0.961 . S
C3870 H3884 0.961 . S
C3871 C3868 1.539 . S
C3871 H3885 0.958 . S
C3871 H3886 0.961 . S
C3871 H3887 0.960 . S
H3872 C3856 0.931 . S
H3873 C3861 0.929 . S
H3874 C3862 0.960 . S
H3875 C3862 0.962 . S
H3876 C3862 0.960 . S
H3877 C3863 0.961 . S
H3878 C3863 0.961 . S
H3879 C3863 0.961 . S
H3880 C3864 0.931 . S
H3881 C3869 0.930 . S
H3882 C3870 0.956 . S
H3883 C3870 0.961 . S
H3884 C3870 0.961 . S
H3885 C3871 0.958 . S
H3886 C3871 0.961 . S
H3887 C3871 0.960 . S
C3888 C3889 1.391 . S
C3888 C3890 1.394 . S
C3888 H3904 0.931 . S
C3889 C3888 1.391 . S
C3889 C3893 1.376 . S
C3890 C3888 1.394 . S
C3890 C3891 1.369 . S
C3890 C3894 1.531 . S
C3891 C3890 1.369 . S
C3891 C3892 1.410 . S
C3891 C3899 1.503 . S
C3892 C3891 1.410 . S
C3892 C3893 1.392 . S
C3892 C3895 1.511 . S
C3893 C3889 1.376 . S
C3893 C3892 1.392 . S
C3893 H3905 0.929 . S
C3894 C3890 1.531 . S
C3894 H3906 0.960 . S
C3894 H3907 0.962 . S
C3894 H3908 0.960 . S
C3895 C3892 1.511 . S
C3895 H3909 0.961 . S
C3895 H3910 0.961 . S
C3895 H3911 0.961 . S
C3896 C3897 1.370 . S
C3896 C3898 1.363 . S
C3896 H3912 0.931 . S
C3897 C3896 1.370 . S
C3897 C3901 1.408 . S
C3898 C3896 1.363 . S
C3898 C3899 1.370 . S
C3898 C3902 1.524 . S
C3899 C3891 1.503 . S
C3899 C3898 1.370 . S
C3899 C3900 1.403 . S
C3900 C3899 1.403 . S
C3900 C3901 1.404 . S
C3900 C3903 1.539 . S
C3901 C3897 1.408 . S
C3901 C3900 1.404 . S
C3901 H3913 0.930 . S
C3902 C3898 1.524 . S
C3902 H3914 0.956 . S
C3902 H3915 0.961 . S
C3902 H3916 0.961 . S
C3903 C3900 1.539 . S
C3903 H3917 0.958 . S
C3903 H3918 0.961 . S
C3903 H3919 0.960 . S
H3904 C3888 0.931 . S
H3905 C3893 0.929 . S
H3906 C3894 0.960 . S
H3907 C3894 0.962 . S
H3908 C3894 0.960 . S
H3909 C3895 0.961 . S
H3910 C3895 0.961 . S
H3911 C3895 0.961 . S
H3912 C3896 0.931 . S
H3913 C3901 0.930 . S
H3914 C3902 0.956 . S
H3915 C3902 0.961 . S
H3916 C3902 0.961 . S
H3917 C3903 0.958 . S
H3918 C3903 0.961 . S
H3919 C3903 0.960 . S
C3920 C3921 1.391 . S
C3920 C3922 1.394 . S
C3920 H3936 0.931 . S
C3921 C3920 1.391 . S
C3921 C3925 1.376 . S
C3922 C3920 1.394 . S
C3922 C3923 1.369 . S
C3922 C3926 1.531 . S
C3923 C3922 1.369 . S
C3923 C3924 1.410 . S
C3923 C3931 1.503 . S
C3924 C3923 1.410 . S
C3924 C3925 1.392 . S
C3924 C3927 1.511 . S
C3925 C3921 1.376 . S
C3925 C3924 1.392 . S
C3925 H3937 0.929 . S
C3926 C3922 1.531 . S
C3926 H3938 0.960 . S
C3926 H3939 0.962 . S
C3926 H3940 0.960 . S
C3927 C3924 1.511 . S
C3927 H3941 0.961 . S
C3927 H3942 0.961 . S
C3927 H3943 0.961 . S
C3928 C3929 1.370 . S
C3928 C3930 1.363 . S
C3928 H3944 0.931 . S
C3929 C3928 1.370 . S
C3929 C3933 1.408 . S
C3930 C3928 1.363 . S
C3930 C3931 1.370 . S
C3930 C3934 1.524 . S
C3931 C3923 1.503 . S
C3931 C3930 1.370 . S
C3931 C3932 1.403 . S
C3932 C3931 1.403 . S
C3932 C3933 1.404 . S
C3932 C3935 1.539 . S
C3933 C3929 1.408 . S
C3933 C3932 1.404 . S
C3933 H3945 0.930 . S
C3934 C3930 1.524 . S
C3934 H3946 0.956 . S
C3934 H3947 0.961 . S
C3934 H3948 0.961 . S
C3935 C3932 1.539 . S
C3935 H3949 0.958 . S
C3935 H3950 0.961 . S
C3935 H3951 0.960 . S
H3936 C3920 0.931 . S
H3937 C3925 0.929 . S
H3938 C3926 0.960 . S
H3939 C3926 0.962 . S
H3940 C3926 0.960 . S
H3941 C3927 0.961 . S
H3942 C3927 0.961 . S
H3943 C3927 0.961 . S
H3944 C3928 0.931 . S
H3945 C3933 0.930 . S
H3946 C3934 0.956 . S
H3947 C3934 0.961 . S
H3948 C3934 0.961 . S
H3949 C3935 0.958 . S
H3950 C3935 0.961 . S
H3951 C3935 0.960 . S
C3952 C3953 1.391 . S
C3952 C3954 1.394 . S
C3952 H3968 0.931 . S
C3953 C3952 1.391 . S
C3953 C3957 1.376 . S
C3954 C3952 1.394 . S
C3954 C3955 1.369 . S
C3954 C3958 1.531 . S
C3955 C3954 1.369 . S
C3955 C3956 1.410 . S
C3955 C3963 1.503 . S
C3956 C3955 1.410 . S
C3956 C3957 1.392 . S
C3956 C3959 1.511 . S
C3957 C3953 1.376 . S
C3957 C3956 1.392 . S
C3957 H3969 0.929 . S
C3958 C3954 1.531 . S
C3958 H3970 0.960 . S
C3958 H3971 0.962 . S
C3958 H3972 0.960 . S
C3959 C3956 1.511 . S
C3959 H3973 0.961 . S
C3959 H3974 0.961 . S
C3959 H3975 0.961 . S
C3960 C3961 1.370 . S
C3960 C3962 1.363 . S
C3960 H3976 0.931 . S
C3961 C3960 1.370 . S
C3961 C3965 1.408 . S
C3962 C3960 1.363 . S
C3962 C3963 1.370 . S
C3962 C3966 1.524 . S
C3963 C3955 1.503 . S
C3963 C3962 1.370 . S
C3963 C3964 1.403 . S
C3964 C3963 1.403 . S
C3964 C3965 1.404 . S
C3964 C3967 1.539 . S
C3965 C3961 1.408 . S
C3965 C3964 1.404 . S
C3965 H3977 0.930 . S
C3966 C3962 1.524 . S
C3966 H3978 0.956 . S
C3966 H3979 0.961 . S
C3966 H3980 0.961 . S
C3967 C3964 1.539 . S
C3967 H3981 0.958 . S
C3967 H3982 0.961 . S
C3967 H3983 0.960 . S
H3968 C3952 0.931 . S
H3969 C3957 0.929 . S
H3970 C3958 0.960 . S
H3971 C3958 0.962 . S
H3972 C3958 0.960 . S
H3973 C3959 0.961 . S
H3974 C3959 0.961 . S
H3975 C3959 0.961 . S
H3976 C3960 0.931 . S
H3977 C3965 0.930 . S
H3978 C3966 0.956 . S
H3979 C3966 0.961 . S
H3980 C3966 0.961 . S
H3981 C3967 0.958 . S
H3982 C3967 0.961 . S
H3983 C3967 0.960 . S
C3984 C3985 1.391 . S
C3984 C3986 1.394 . S
C3984 H4000 0.931 . S
C3985 C3984 1.391 . S
C3985 C3989 1.376 . S
C3986 C3984 1.394 . S
C3986 C3987 1.369 . S
C3986 C3990 1.531 . S
C3987 C3986 1.369 . S
C3987 C3988 1.410 . S
C3987 C3995 1.503 . S
C3988 C3987 1.410 . S
C3988 C3989 1.392 . S
C3988 C3991 1.511 . S
C3989 C3985 1.376 . S
C3989 C3988 1.392 . S
C3989 H4001 0.929 . S
C3990 C3986 1.531 . S
C3990 H4002 0.960 . S
C3990 H4003 0.962 . S
C3990 H4004 0.960 . S
C3991 C3988 1.511 . S
C3991 H4005 0.961 . S
C3991 H4006 0.961 . S
C3991 H4007 0.961 . S
C3992 C3993 1.370 . S
C3992 C3994 1.363 . S
C3992 H4008 0.931 . S
C3993 C3992 1.370 . S
C3993 C3997 1.408 . S
C3994 C3992 1.363 . S
C3994 C3995 1.370 . S
C3994 C3998 1.524 . S
C3995 C3987 1.503 . S
C3995 C3994 1.370 . S
C3995 C3996 1.403 . S
C3996 C3995 1.403 . S
C3996 C3997 1.404 . S
C3996 C3999 1.539 . S
C3997 C3993 1.408 . S
C3997 C3996 1.404 . S
C3997 H4009 0.930 . S
C3998 C3994 1.524 . S
C3998 H4010 0.956 . S
C3998 H4011 0.961 . S
C3998 H4012 0.961 . S
C3999 C3996 1.539 . S
C3999 H4013 0.958 . S
C3999 H4014 0.961 . S
C3999 H4015 0.960 . S
H4000 C3984 0.931 . S
H4001 C3989 0.929 . S
H4002 C3990 0.960 . S
H4003 C3990 0.962 . S
H4004 C3990 0.960 . S
H4005 C3991 0.961 . S
H4006 C3991 0.961 . S
H4007 C3991 0.961 . S
H4008 C3992 0.931 . S
H4009 C3997 0.930 . S
H4010 C3998 0.956 . S
H4011 C3998 0.961 . S
H4012 C3998 0.961 . S
H4013 C3999 0.958 . S
H4014 C3999 0.961 . S
H4015 C3999 0.960 . S
C4016 C4017 1.391 . S
C4016 C4018 1.394 . S
C4016 H4032 0.931 . S
C4017 C4016 1.391 . S
C4017 C4021 1.376 . S
C4018 C4016 1.394 . S
C4018 C4019 1.369 . S
C4018 C4022 1.531 . S
C4019 C4018 1.369 . S
C4019 C4020 1.410 . S
C4019 C4027 1.503 . S
C4020 C4019 1.410 . S
C4020 C4021 1.392 . S
C4020 C4023 1.511 . S
C4021 C4017 1.376 . S
C4021 C4020 1.392 . S
C4021 H4033 0.929 . S
C4022 C4018 1.531 . S
C4022 H4034 0.960 . S
C4022 H4035 0.962 . S
C4022 H4036 0.960 . S
C4023 C4020 1.511 . S
C4023 H4037 0.961 . S
C4023 H4038 0.961 . S
C4023 H4039 0.961 . S
C4024 C4025 1.370 . S
C4024 C4026 1.363 . S
C4024 H4040 0.931 . S
C4025 C4024 1.370 . S
C4025 C4029 1.408 . S
C4026 C4024 1.363 . S
C4026 C4027 1.370 . S
C4026 C4030 1.524 . S
C4027 C4019 1.503 . S
C4027 C4026 1.370 . S
C4027 C4028 1.403 . S
C4028 C4027 1.403 . S
C4028 C4029 1.404 . S
C4028 C4031 1.539 . S
C4029 C4025 1.408 . S
C4029 C4028 1.404 . S
C4029 H4041 0.930 . S
C4030 C4026 1.524 . S
C4030 H4042 0.956 . S
C4030 H4043 0.961 . S
C4030 H4044 0.961 . S
C4031 C4028 1.539 . S
C4031 H4045 0.958 . S
C4031 H4046 0.961 . S
C4031 H4047 0.960 . S
H4032 C4016 0.931 . S
H4033 C4021 0.929 . S
H4034 C4022 0.960 . S
H4035 C4022 0.962 . S
H4036 C4022 0.960 . S
H4037 C4023 0.961 . S
H4038 C4023 0.961 . S
H4039 C4023 0.961 . S
H4040 C4024 0.931 . S
H4041 C4029 0.930 . S
H4042 C4030 0.956 . S
H4043 C4030 0.961 . S
H4044 C4030 0.961 . S
H4045 C4031 0.958 . S
H4046 C4031 0.961 . S
H4047 C4031 0.960 . S
C4048 C4049 1.391 . S
C4048 C4050 1.394 . S
C4048 H4064 0.931 . S
C4049 C4048 1.391 . S
C4049 C4053 1.376 . S
C4050 C4048 1.394 . S
C4050 C4051 1.369 . S
C4050 C4054 1.531 . S
C4051 C4050 1.369 . S
C4051 C4052 1.410 . S
C4051 C4059 1.503 . S
C4052 C4051 1.410 . S
C4052 C4053 1.392 . S
C4052 C4055 1.511 . S
C4053 C4049 1.376 . S
C4053 C4052 1.392 . S
C4053 H4065 0.929 . S
C4054 C4050 1.531 . S
C4054 H4066 0.960 . S
C4054 H4067 0.962 . S
C4054 H4068 0.960 . S
C4055 C4052 1.511 . S
C4055 H4069 0.961 . S
C4055 H4070 0.961 . S
C4055 H4071 0.961 . S
C4056 C4057 1.370 . S
C4056 C4058 1.363 . S
C4056 H4072 0.931 . S
C4057 C4056 1.370 . S
C4057 C4061 1.408 . S
C4058 C4056 1.363 . S
C4058 C4059 1.370 . S
C4058 C4062 1.524 . S
C4059 C4051 1.503 . S
C4059 C4058 1.370 . S
C4059 C4060 1.403 . S
C4060 C4059 1.403 . S
C4060 C4061 1.404 . S
C4060 C4063 1.539 . S
C4061 C4057 1.408 . S
C4061 C4060 1.404 . S
C4061 H4073 0.930 . S
C4062 C4058 1.524 . S
C4062 H4074 0.956 . S
C4062 H4075 0.961 . S
C4062 H4076 0.961 . S
C4063 C4060 1.539 . S
C4063 H4077 0.958 . S
C4063 H4078 0.961 . S
C4063 H4079 0.960 . S
H4064 C4048 0.931 . S
H4065 C4053 0.929 . S
H4066 C4054 0.960 . S
H4067 C4054 0.962 . S
H4068 C4054 0.960 . S
H4069 C4055 0.961 . S
H4070 C4055 0.961 . S
H4071 C4055 0.961 . S
H4072 C4056 0.931 . S
H4073 C4061 0.930 . S
H4074 C4062 0.956 . S
H4075 C4062 0.961 . S
H4076 C4062 0.961 . S
H4077 C4063 0.958 . S
H4078 C4063 0.961 . S
H4079 C4063 0.960 . S
C4080 C4081 1.391 . S
C4080 C4082 1.394 . S
C4080 H4096 0.931 . S
C4081 C4080 1.391 . S
C4081 C4085 1.376 . S
C4082 C4080 1.394 . S
C4082 C4083 1.369 . S
C4082 C4086 1.531 . S
C4083 C4082 1.369 . S
C4083 C4084 1.410 . S
C4083 C4091 1.503 . S
C4084 C4083 1.410 . S
C4084 C4085 1.392 . S
C4084 C4087 1.511 . S
C4085 C4081 1.376 . S
C4085 C4084 1.392 . S
C4085 H4097 0.929 . S
C4086 C4082 1.531 . S
C4086 H4098 0.960 . S
C4086 H4099 0.962 . S
C4086 H4100 0.960 . S
C4087 C4084 1.511 . S
C4087 H4101 0.961 . S
C4087 H4102 0.961 . S
C4087 H4103 0.961 . S
C4088 C4089 1.370 . S
C4088 C4090 1.363 . S
C4088 H4104 0.931 . S
C4089 C4088 1.370 . S
C4089 C4093 1.408 . S
C4090 C4088 1.363 . S
C4090 C4091 1.370 . S
C4090 C4094 1.524 . S
C4091 C4083 1.503 . S
C4091 C4090 1.370 . S
C4091 C4092 1.403 . S
C4092 C4091 1.403 . S
C4092 C4093 1.404 . S
C4092 C4095 1.539 . S
C4093 C4089 1.408 . S
C4093 C4092 1.404 . S
C4093 H4105 0.930 . S
C4094 C4090 1.524 . S
C4094 H4106 0.956 . S
C4094 H4107 0.961 . S
C4094 H4108 0.961 . S
C4095 C4092 1.539 . S
C4095 H4109 0.958 . S
C4095 H4110 0.961 . S
C4095 H4111 0.960 . S
H4096 C4080 0.931 . S
H4097 C4085 0.929 . S
H4098 C4086 0.960 . S
H4099 C4086 0.962 . S
H4100 C4086 0.960 . S
H4101 C4087 0.961 . S
H4102 C4087 0.961 . S
H4103 C4087 0.961 . S
H4104 C4088 0.931 . S
H4105 C4093 0.930 . S
H4106 C4094 0.956 . S
H4107 C4094 0.961 . S
H4108 C4094 0.961 . S
H4109 C4095 0.958 . S
H4110 C4095 0.961 . S
H4111 C4095 0.960 . S
C4112 C4113 1.391 . S
C4112 C4114 1.394 . S
C4112 H4128 0.931 . S
C4113 C4112 1.391 . S
C4113 C4117 1.376 . S
C4114 C4112 1.394 . S
C4114 C4115 1.369 . S
C4114 C4118 1.531 . S
C4115 C4114 1.369 . S
C4115 C4116 1.410 . S
C4115 C4123 1.503 . S
C4116 C4115 1.410 . S
C4116 C4117 1.392 . S
C4116 C4119 1.511 . S
C4117 C4113 1.376 . S
C4117 C4116 1.392 . S
C4117 H4129 0.929 . S
C4118 C4114 1.531 . S
C4118 H4130 0.960 . S
C4118 H4131 0.962 . S
C4118 H4132 0.960 . S
C4119 C4116 1.511 . S
C4119 H4133 0.961 . S
C4119 H4134 0.961 . S
C4119 H4135 0.961 . S
C4120 C4121 1.370 . S
C4120 C4122 1.363 . S
C4120 H4136 0.931 . S
C4121 C4120 1.370 . S
C4121 C4125 1.408 . S
C4122 C4120 1.363 . S
C4122 C4123 1.370 . S
C4122 C4126 1.524 . S
C4123 C4115 1.503 . S
C4123 C4122 1.370 . S
C4123 C4124 1.403 . S
C4124 C4123 1.403 . S
C4124 C4125 1.404 . S
C4124 C4127 1.539 . S
C4125 C4121 1.408 . S
C4125 C4124 1.404 . S
C4125 H4137 0.930 . S
C4126 C4122 1.524 . S
C4126 H4138 0.956 . S
C4126 H4139 0.961 . S
C4126 H4140 0.961 . S
C4127 C4124 1.539 . S
C4127 H4141 0.958 . S
C4127 H4142 0.961 . S
C4127 H4143 0.960 . S
H4128 C4112 0.931 . S
H4129 C4117 0.929 . S
H4130 C4118 0.960 . S
H4131 C4118 0.962 . S
H4132 C4118 0.960 . S
H4133 C4119 0.961 . S
H4134 C4119 0.961 . S
H4135 C4119 0.961 . S
H4136 C4120 0.931 . S
H4137 C4125 0.930 . S
H4138 C4126 0.956 . S
H4139 C4126 0.961 . S
H4140 C4126 0.961 . S
H4141 C4127 0.958 . S
H4142 C4127 0.961 . S
H4143 C4127 0.960 . S
C4144 C4145 1.391 . S
C4144 C4146 1.394 . S
C4144 H4160 0.931 . S
C4145 C4144 1.391 . S
C4145 C4149 1.376 . S
C4146 C4144 1.394 . S
C4146 C4147 1.369 . S
C4146 C4150 1.531 . S
C4147 C4146 1.369 . S
C4147 C4148 1.410 . S
C4147 C4155 1.503 . S
C4148 C4147 1.410 . S
C4148 C4149 1.392 . S
C4148 C4151 1.511 . S
C4149 C4145 1.376 . S
C4149 C4148 1.392 . S
C4149 H4161 0.929 . S
C4150 C4146 1.531 . S
C4150 H4162 0.960 . S
C4150 H4163 0.962 . S
C4150 H4164 0.960 . S
C4151 C4148 1.511 . S
C4151 H4165 0.961 . S
C4151 H4166 0.961 . S
C4151 H4167 0.961 . S
C4152 C4153 1.370 . S
C4152 C4154 1.363 . S
C4152 H4168 0.931 . S
C4153 C4152 1.370 . S
C4153 C4157 1.408 . S
C4154 C4152 1.363 . S
C4154 C4155 1.370 . S
C4154 C4158 1.524 . S
C4155 C4147 1.503 . S
C4155 C4154 1.370 . S
C4155 C4156 1.403 . S
C4156 C4155 1.403 . S
C4156 C4157 1.404 . S
C4156 C4159 1.539 . S
C4157 C4153 1.408 . S
C4157 C4156 1.404 . S
C4157 H4169 0.930 . S
C4158 C4154 1.524 . S
C4158 H4170 0.956 . S
C4158 H4171 0.961 . S
C4158 H4172 0.961 . S
C4159 C4156 1.539 . S
C4159 H4173 0.958 . S
C4159 H4174 0.961 . S
C4159 H4175 0.960 . S
H4160 C4144 0.931 . S
H4161 C4149 0.929 . S
H4162 C4150 0.960 . S
H4163 C4150 0.962 . S
H4164 C4150 0.960 . S
H4165 C4151 0.961 . S
H4166 C4151 0.961 . S
H4167 C4151 0.961 . S
H4168 C4152 0.931 . S
H4169 C4157 0.930 . S
H4170 C4158 0.956 . S
H4171 C4158 0.961 . S
H4172 C4158 0.961 . S
H4173 C4159 0.958 . S
H4174 C4159 0.961 . S
H4175 C4159 0.960 . S
C4176 C4177 1.391 . S
C4176 C4178 1.394 . S
C4176 H4192 0.931 . S
C4177 C4176 1.391 . S
C4177 C4181 1.376 . S
C4178 C4176 1.394 . S
C4178 C4179 1.369 . S
C4178 C4182 1.531 . S
C4179 C4178 1.369 . S
C4179 C4180 1.410 . S
C4179 C4187 1.503 . S
C4180 C4179 1.410 . S
C4180 C4181 1.392 . S
C4180 C4183 1.511 . S
C4181 C4177 1.376 . S
C4181 C4180 1.392 . S
C4181 H4193 0.929 . S
C4182 C4178 1.531 . S
C4182 H4194 0.960 . S
C4182 H4195 0.962 . S
C4182 H4196 0.960 . S
C4183 C4180 1.511 . S
C4183 H4197 0.961 . S
C4183 H4198 0.961 . S
C4183 H4199 0.961 . S
C4184 C4185 1.370 . S
C4184 C4186 1.363 . S
C4184 H4200 0.931 . S
C4185 C4184 1.370 . S
C4185 C4189 1.408 . S
C4186 C4184 1.363 . S
C4186 C4187 1.370 . S
C4186 C4190 1.524 . S
C4187 C4179 1.503 . S
C4187 C4186 1.370 . S
C4187 C4188 1.403 . S
C4188 C4187 1.403 . S
C4188 C4189 1.404 . S
C4188 C4191 1.539 . S
C4189 C4185 1.408 . S
C4189 C4188 1.404 . S
C4189 H4201 0.930 . S
C4190 C4186 1.524 . S
C4190 H4202 0.956 . S
C4190 H4203 0.961 . S
C4190 H4204 0.961 . S
C4191 C4188 1.539 . S
C4191 H4205 0.958 . S
C4191 H4206 0.961 . S
C4191 H4207 0.960 . S
H4192 C4176 0.931 . S
H4193 C4181 0.929 . S
H4194 C4182 0.960 . S
H4195 C4182 0.962 . S
H4196 C4182 0.960 . S
H4197 C4183 0.961 . S
H4198 C4183 0.961 . S
H4199 C4183 0.961 . S
H4200 C4184 0.931 . S
H4201 C4189 0.930 . S
H4202 C4190 0.956 . S
H4203 C4190 0.961 . S
H4204 C4190 0.961 . S
H4205 C4191 0.958 . S
H4206 C4191 0.961 . S
H4207 C4191 0.960 . S
C4208 C4209 1.391 . S
C4208 C4210 1.394 . S
C4208 H4224 0.931 . S
C4209 C4208 1.391 . S
C4209 C4213 1.376 . S
C4210 C4208 1.394 . S
C4210 C4211 1.369 . S
C4210 C4214 1.531 . S
C4211 C4210 1.369 . S
C4211 C4212 1.410 . S
C4211 C4219 1.503 . S
C4212 C4211 1.410 . S
C4212 C4213 1.392 . S
C4212 C4215 1.511 . S
C4213 C4209 1.376 . S
C4213 C4212 1.392 . S
C4213 H4225 0.929 . S
C4214 C4210 1.531 . S
C4214 H4226 0.960 . S
C4214 H4227 0.962 . S
C4214 H4228 0.960 . S
C4215 C4212 1.511 . S
C4215 H4229 0.961 . S
C4215 H4230 0.961 . S
C4215 H4231 0.961 . S
C4216 C4217 1.370 . S
C4216 C4218 1.363 . S
C4216 H4232 0.931 . S
C4217 C4216 1.370 . S
C4217 C4221 1.408 . S
C4218 C4216 1.363 . S
C4218 C4219 1.370 . S
C4218 C4222 1.524 . S
C4219 C4211 1.503 . S
C4219 C4218 1.370 . S
C4219 C4220 1.403 . S
C4220 C4219 1.403 . S
C4220 C4221 1.404 . S
C4220 C4223 1.539 . S
C4221 C4217 1.408 . S
C4221 C4220 1.404 . S
C4221 H4233 0.930 . S
C4222 C4218 1.524 . S
C4222 H4234 0.956 . S
C4222 H4235 0.961 . S
C4222 H4236 0.961 . S
C4223 C4220 1.539 . S
C4223 H4237 0.958 . S
C4223 H4238 0.961 . S
C4223 H4239 0.960 . S
H4224 C4208 0.931 . S
H4225 C4213 0.929 . S
H4226 C4214 0.960 . S
H4227 C4214 0.962 . S
H4228 C4214 0.960 . S
H4229 C4215 0.961 . S
H4230 C4215 0.961 . S
H4231 C4215 0.961 . S
H4232 C4216 0.931 . S
H4233 C4221 0.930 . S
H4234 C4222 0.956 . S
H4235 C4222 0.961 . S
H4236 C4222 0.961 . S
H4237 C4223 0.958 . S
H4238 C4223 0.961 . S
H4239 C4223 0.960 . S
C4240 C4241 1.391 . S
C4240 C4242 1.394 . S
C4240 H4256 0.931 . S
C4241 C4240 1.391 . S
C4241 C4245 1.376 . S
C4242 C4240 1.394 . S
C4242 C4243 1.369 . S
C4242 C4246 1.531 . S
C4243 C4242 1.369 . S
C4243 C4244 1.410 . S
C4243 C4251 1.503 . S
C4244 C4243 1.410 . S
C4244 C4245 1.392 . S
C4244 C4247 1.511 . S
C4245 C4241 1.376 . S
C4245 C4244 1.392 . S
C4245 H4257 0.929 . S
C4246 C4242 1.531 . S
C4246 H4258 0.960 . S
C4246 H4259 0.962 . S
C4246 H4260 0.960 . S
C4247 C4244 1.511 . S
C4247 H4261 0.961 . S
C4247 H4262 0.961 . S
C4247 H4263 0.961 . S
C4248 C4249 1.370 . S
C4248 C4250 1.363 . S
C4248 H4264 0.931 . S
C4249 C4248 1.370 . S
C4249 C4253 1.408 . S
C4250 C4248 1.363 . S
C4250 C4251 1.370 . S
C4250 C4254 1.524 . S
C4251 C4243 1.503 . S
C4251 C4250 1.370 . S
C4251 C4252 1.403 . S
C4252 C4251 1.403 . S
C4252 C4253 1.404 . S
C4252 C4255 1.539 . S
C4253 C4249 1.408 . S
C4253 C4252 1.404 . S
C4253 H4265 0.930 . S
C4254 C4250 1.524 . S
C4254 H4266 0.956 . S
C4254 H4267 0.961 . S
C4254 H4268 0.961 . S
C4255 C4252 1.539 . S
C4255 H4269 0.958 . S
C4255 H4270 0.961 . S
C4255 H4271 0.960 . S
H4256 C4240 0.931 . S
H4257 C4245 0.929 . S
H4258 C4246 0.960 . S
H4259 C4246 0.962 . S
H4260 C4246 0.960 . S
H4261 C4247 0.961 . S
H4262 C4247 0.961 . S
H4263 C4247 0.961 . S
H4264 C4248 0.931 . S
H4265 C4253 0.930 . S
H4266 C4254 0.956 . S
H4267 C4254 0.961 . S
H4268 C4254 0.961 . S
H4269 C4255 0.958 . S
H4270 C4255 0.961 . S
H4271 C4255 0.960 . S
C4272 C4273 1.391 . S
C4272 C4274 1.394 . S
C4272 H4288 0.931 . S
C4273 C4272 1.391 . S
C4273 C4277 1.376 . S
C4274 C4272 1.394 . S
C4274 C4275 1.369 . S
C4274 C4278 1.531 . S
C4275 C4274 1.369 . S
C4275 C4276 1.410 . S
C4275 C4283 1.503 . S
C4276 C4275 1.410 . S
C4276 C4277 1.392 . S
C4276 C4279 1.511 . S
C4277 C4273 1.376 . S
C4277 C4276 1.392 . S
C4277 H4289 0.929 . S
C4278 C4274 1.531 . S
C4278 H4290 0.960 . S
C4278 H4291 0.962 . S
C4278 H4292 0.960 . S
C4279 C4276 1.511 . S
C4279 H4293 0.961 . S
C4279 H4294 0.961 . S
C4279 H4295 0.961 . S
C4280 C4281 1.370 . S
C4280 C4282 1.363 . S
C4280 H4296 0.931 . S
C4281 C4280 1.370 . S
C4281 C4285 1.408 . S
C4282 C4280 1.363 . S
C4282 C4283 1.370 . S
C4282 C4286 1.524 . S
C4283 C4275 1.503 . S
C4283 C4282 1.370 . S
C4283 C4284 1.403 . S
C4284 C4283 1.403 . S
C4284 C4285 1.404 . S
C4284 C4287 1.539 . S
C4285 C4281 1.408 . S
C4285 C4284 1.404 . S
C4285 H4297 0.930 . S
C4286 C4282 1.524 . S
C4286 H4298 0.956 . S
C4286 H4299 0.961 . S
C4286 H4300 0.961 . S
C4287 C4284 1.539 . S
C4287 H4301 0.958 . S
C4287 H4302 0.961 . S
C4287 H4303 0.960 . S
H4288 C4272 0.931 . S
H4289 C4277 0.929 . S
H4290 C4278 0.960 . S
H4291 C4278 0.962 . S
H4292 C4278 0.960 . S
H4293 C4279 0.961 . S
H4294 C4279 0.961 . S
H4295 C4279 0.961 . S
H4296 C4280 0.931 . S
H4297 C4285 0.930 . S
H4298 C4286 0.956 . S
H4299 C4286 0.961 . S
H4300 C4286 0.961 . S
H4301 C4287 0.958 . S
H4302 C4287 0.961 . S
H4303 C4287 0.960 . S
C4304 C4305 1.391 . S
C4304 C4306 1.394 . S
C4304 H4320 0.931 . S
C4305 C4304 1.391 . S
C4305 C4309 1.376 . S
C4306 C4304 1.394 . S
C4306 C4307 1.369 . S
C4306 C4310 1.531 . S
C4307 C4306 1.369 . S
C4307 C4308 1.410 . S
C4307 C4315 1.503 . S
C4308 C4307 1.410 . S
C4308 C4309 1.392 . S
C4308 C4311 1.511 . S
C4309 C4305 1.376 . S
C4309 C4308 1.392 . S
C4309 H4321 0.929 . S
C4310 C4306 1.531 . S
C4310 H4322 0.960 . S
C4310 H4323 0.962 . S
C4310 H4324 0.960 . S
C4311 C4308 1.511 . S
C4311 H4325 0.961 . S
C4311 H4326 0.961 . S
C4311 H4327 0.961 . S
C4312 C4313 1.370 . S
C4312 C4314 1.363 . S
C4312 H4328 0.931 . S
C4313 C4312 1.370 . S
C4313 C4317 1.408 . S
C4314 C4312 1.363 . S
C4314 C4315 1.370 . S
C4314 C4318 1.524 . S
C4315 C4307 1.503 . S
C4315 C4314 1.370 . S
C4315 C4316 1.403 . S
C4316 C4315 1.403 . S
C4316 C4317 1.404 . S
C4316 C4319 1.539 . S
C4317 C4313 1.408 . S
C4317 C4316 1.404 . S
C4317 H4329 0.930 . S
C4318 C4314 1.524 . S
C4318 H4330 0.956 . S
C4318 H4331 0.961 . S
C4318 H4332 0.961 . S
C4319 C4316 1.539 . S
C4319 H4333 0.958 . S
C4319 H4334 0.961 . S
C4319 H4335 0.960 . S
H4320 C4304 0.931 . S
H4321 C4309 0.929 . S
H4322 C4310 0.960 . S
H4323 C4310 0.962 . S
H4324 C4310 0.960 . S
H4325 C4311 0.961 . S
H4326 C4311 0.961 . S
H4327 C4311 0.961 . S
H4328 C4312 0.931 . S
H4329 C4317 0.930 . S
H4330 C4318 0.956 . S
H4331 C4318 0.961 . S
H4332 C4318 0.961 . S
H4333 C4319 0.958 . S
H4334 C4319 0.961 . S
H4335 C4319 0.960 . S
C4336 C4337 1.391 . S
C4336 C4338 1.394 . S
C4336 H4352 0.931 . S
C4337 C4336 1.391 . S
C4337 C4341 1.376 . S
C4338 C4336 1.394 . S
C4338 C4339 1.369 . S
C4338 C4342 1.531 . S
C4339 C4338 1.369 . S
C4339 C4340 1.410 . S
C4339 C4347 1.503 . S
C4340 C4339 1.410 . S
C4340 C4341 1.392 . S
C4340 C4343 1.511 . S
C4341 C4337 1.376 . S
C4341 C4340 1.392 . S
C4341 H4353 0.929 . S
C4342 C4338 1.531 . S
C4342 H4354 0.960 . S
C4342 H4355 0.962 . S
C4342 H4356 0.960 . S
C4343 C4340 1.511 . S
C4343 H4357 0.961 . S
C4343 H4358 0.961 . S
C4343 H4359 0.961 . S
C4344 C4345 1.370 . S
C4344 C4346 1.363 . S
C4344 H4360 0.931 . S
C4345 C4344 1.370 . S
C4345 C4349 1.408 . S
C4346 C4344 1.363 . S
C4346 C4347 1.370 . S
C4346 C4350 1.524 . S
C4347 C4339 1.503 . S
C4347 C4346 1.370 . S
C4347 C4348 1.403 . S
C4348 C4347 1.403 . S
C4348 C4349 1.404 . S
C4348 C4351 1.539 . S
C4349 C4345 1.408 . S
C4349 C4348 1.404 . S
C4349 H4361 0.930 . S
C4350 C4346 1.524 . S
C4350 H4362 0.956 . S
C4350 H4363 0.961 . S
C4350 H4364 0.961 . S
C4351 C4348 1.539 . S
C4351 H4365 0.958 . S
C4351 H4366 0.961 . S
C4351 H4367 0.960 . S
H4352 C4336 0.931 . S
H4353 C4341 0.929 . S
H4354 C4342 0.960 . S
H4355 C4342 0.962 . S
H4356 C4342 0.960 . S
H4357 C4343 0.961 . S
H4358 C4343 0.961 . S
H4359 C4343 0.961 . S
H4360 C4344 0.931 . S
H4361 C4349 0.930 . S
H4362 C4350 0.956 . S
H4363 C4350 0.961 . S
H4364 C4350 0.961 . S
H4365 C4351 0.958 . S
H4366 C4351 0.961 . S
H4367 C4351 0.960 . S
C4368 C4369 1.391 . S
C4368 C4370 1.394 . S
C4368 H4384 0.931 . S
C4369 C4368 1.391 . S
C4369 C4373 1.376 . S
C4370 C4368 1.394 . S
C4370 C4371 1.369 . S
C4370 C4374 1.531 . S
C4371 C4370 1.369 . S
C4371 C4372 1.410 . S
C4371 C4379 1.503 . S
C4372 C4371 1.410 . S
C4372 C4373 1.392 . S
C4372 C4375 1.511 . S
C4373 C4369 1.376 . S
C4373 C4372 1.392 . S
C4373 H4385 0.929 . S
C4374 C4370 1.531 . S
C4374 H4386 0.960 . S
C4374 H4387 0.962 . S
C4374 H4388 0.960 . S
C4375 C4372 1.511 . S
C4375 H4389 0.961 . S
C4375 H4390 0.961 . S
C4375 H4391 0.961 . S
C4376 C4377 1.370 . S
C4376 C4378 1.363 . S
C4376 H4392 0.931 . S
C4377 C4376 1.370 . S
C4377 C4381 1.408 . S
C4378 C4376 1.363 . S
C4378 C4379 1.370 . S
C4378 C4382 1.524 . S
C4379 C4371 1.503 . S
C4379 C4378 1.370 . S
C4379 C4380 1.403 . S
C4380 C4379 1.403 . S
C4380 C4381 1.404 . S
C4380 C4383 1.539 . S
C4381 C4377 1.408 . S
C4381 C4380 1.404 . S
C4381 H4393 0.930 . S
C4382 C4378 1.524 . S
C4382 H4394 0.956 . S
C4382 H4395 0.961 . S
C4382 H4396 0.961 . S
C4383 C4380 1.539 . S
C4383 H4397 0.958 . S
C4383 H4398 0.961 . S
C4383 H4399 0.960 . S
H4384 C4368 0.931 . S
H4385 C4373 0.929 . S
H4386 C4374 0.960 . S
H4387 C4374 0.962 . S
H4388 C4374 0.960 . S
H4389 C4375 0.961 . S
H4390 C4375 0.961 . S
H4391 C4375 0.961 . S
H4392 C4376 0.931 . S
H4393 C4381 0.930 . S
H4394 C4382 0.956 . S
H4395 C4382 0.961 . S
H4396 C4382 0.961 . S
H4397 C4383 0.958 . S
H4398 C4383 0.961 . S
H4399 C4383 0.960 . S
C4400 C4401 1.391 . S
C4400 C4402 1.394 . S
C4400 H4416 0.931 . S
C4401 C4400 1.391 . S
C4401 C4405 1.376 . S
C4402 C4400 1.394 . S
C4402 C4403 1.369 . S
C4402 C4406 1.531 . S
C4403 C4402 1.369 . S
C4403 C4404 1.410 . S
C4403 C4411 1.503 . S
C4404 C4403 1.410 . S
C4404 C4405 1.392 . S
C4404 C4407 1.511 . S
C4405 C4401 1.376 . S
C4405 C4404 1.392 . S
C4405 H4417 0.929 . S
C4406 C4402 1.531 . S
C4406 H4418 0.960 . S
C4406 H4419 0.962 . S
C4406 H4420 0.960 . S
C4407 C4404 1.511 . S
C4407 H4421 0.961 . S
C4407 H4422 0.961 . S
C4407 H4423 0.961 . S
C4408 C4409 1.370 . S
C4408 C4410 1.363 . S
C4408 H4424 0.931 . S
C4409 C4408 1.370 . S
C4409 C4413 1.408 . S
C4410 C4408 1.363 . S
C4410 C4411 1.370 . S
C4410 C4414 1.524 . S
C4411 C4403 1.503 . S
C4411 C4410 1.370 . S
C4411 C4412 1.403 . S
C4412 C4411 1.403 . S
C4412 C4413 1.404 . S
C4412 C4415 1.539 . S
C4413 C4409 1.408 . S
C4413 C4412 1.404 . S
C4413 H4425 0.930 . S
C4414 C4410 1.524 . S
C4414 H4426 0.956 . S
C4414 H4427 0.961 . S
C4414 H4428 0.961 . S
C4415 C4412 1.539 . S
C4415 H4429 0.958 . S
C4415 H4430 0.961 . S
C4415 H4431 0.960 . S
H4416 C4400 0.931 . S
H4417 C4405 0.929 . S
H4418 C4406 0.960 . S
H4419 C4406 0.962 . S
H4420 C4406 0.960 . S
H4421 C4407 0.961 . S
H4422 C4407 0.961 . S
H4423 C4407 0.961 . S
H4424 C4408 0.931 . S
H4425 C4413 0.930 . S
H4426 C4414 0.956 . S
H4427 C4414 0.961 . S
H4428 C4414 0.961 . S
H4429 C4415 0.958 . S
H4430 C4415 0.961 . S
H4431 C4415 0.960 . S
C4432 C4433 1.391 . S
C4432 C4434 1.394 . S
C4432 H4448 0.931 . S
C4433 C4432 1.391 . S
C4433 C4437 1.376 . S
C4434 C4432 1.394 . S
C4434 C4435 1.369 . S
C4434 C4438 1.531 . S
C4435 C4434 1.369 . S
C4435 C4436 1.410 . S
C4435 C4443 1.503 . S
C4436 C4435 1.410 . S
C4436 C4437 1.392 . S
C4436 C4439 1.511 . S
C4437 C4433 1.376 . S
C4437 C4436 1.392 . S
C4437 H4449 0.929 . S
C4438 C4434 1.531 . S
C4438 H4450 0.960 . S
C4438 H4451 0.962 . S
C4438 H4452 0.960 . S
C4439 C4436 1.511 . S
C4439 H4453 0.961 . S
C4439 H4454 0.961 . S
C4439 H4455 0.961 . S
C4440 C4441 1.370 . S
C4440 C4442 1.363 . S
C4440 H4456 0.931 . S
C4441 C4440 1.370 . S
C4441 C4445 1.408 . S
C4442 C4440 1.363 . S
C4442 C4443 1.370 . S
C4442 C4446 1.524 . S
C4443 C4435 1.503 . S
C4443 C4442 1.370 . S
C4443 C4444 1.403 . S
C4444 C4443 1.403 . S
C4444 C4445 1.404 . S
C4444 C4447 1.539 . S
C4445 C4441 1.408 . S
C4445 C4444 1.404 . S
C4445 H4457 0.930 . S
C4446 C4442 1.524 . S
C4446 H4458 0.956 . S
C4446 H4459 0.961 . S
C4446 H4460 0.961 . S
C4447 C4444 1.539 . S
C4447 H4461 0.958 . S
C4447 H4462 0.961 . S
C4447 H4463 0.960 . S
H4448 C4432 0.931 . S
H4449 C4437 0.929 . S
H4450 C4438 0.960 . S
H4451 C4438 0.962 . S
H4452 C4438 0.960 . S
H4453 C4439 0.961 . S
H4454 C4439 0.961 . S
H4455 C4439 0.961 . S
H4456 C4440 0.931 . S
H4457 C4445 0.930 . S
H4458 C4446 0.956 . S
H4459 C4446 0.961 . S
H4460 C4446 0.961 . S
H4461 C4447 0.958 . S
H4462 C4447 0.961 . S
H4463 C4447 0.960 . S
C4464 C4465 1.391 . S
C4464 C4466 1.394 . S
C4464 H4480 0.931 . S
C4465 C4464 1.391 . S
C4465 C4469 1.376 . S
C4466 C4464 1.394 . S
C4466 C4467 1.369 . S
C4466 C4470 1.531 . S
C4467 C4466 1.369 . S
C4467 C4468 1.410 . S
C4467 C4475 1.503 . S
C4468 C4467 1.410 . S
C4468 C4469 1.392 . S
C4468 C4471 1.511 . S
C4469 C4465 1.376 . S
C4469 C4468 1.392 . S
C4469 H4481 0.929 . S
C4470 C4466 1.531 . S
C4470 H4482 0.960 . S
C4470 H4483 0.962 . S
C4470 H4484 0.960 . S
C4471 C4468 1.511 . S
C4471 H4485 0.961 . S
C4471 H4486 0.961 . S
C4471 H4487 0.961 . S
C4472 C4473 1.370 . S
C4472 C4474 1.363 . S
C4472 H4488 0.931 . S
C4473 C4472 1.370 . S
C4473 C4477 1.408 . S
C4474 C4472 1.363 . S
C4474 C4475 1.370 . S
C4474 C4478 1.524 . S
C4475 C4467 1.503 . S
C4475 C4474 1.370 . S
C4475 C4476 1.403 . S
C4476 C4475 1.403 . S
C4476 C4477 1.404 . S
C4476 C4479 1.539 . S
C4477 C4473 1.408 . S
C4477 C4476 1.404 . S
C4477 H4489 0.930 . S
C4478 C4474 1.524 . S
C4478 H4490 0.956 . S
C4478 H4491 0.961 . S
C4478 H4492 0.961 . S
C4479 C4476 1.539 . S
C4479 H4493 0.958 . S
C4479 H4494 0.961 . S
C4479 H4495 0.960 . S
H4480 C4464 0.931 . S
H4481 C4469 0.929 . S
H4482 C4470 0.960 . S
H4483 C4470 0.962 . S
H4484 C4470 0.960 . S
H4485 C4471 0.961 . S
H4486 C4471 0.961 . S
H4487 C4471 0.961 . S
H4488 C4472 0.931 . S
H4489 C4477 0.930 . S
H4490 C4478 0.956 . S
H4491 C4478 0.961 . S
H4492 C4478 0.961 . S
H4493 C4479 0.958 . S
H4494 C4479 0.961 . S
H4495 C4479 0.960 . S
C4496 C4497 1.391 . S
C4496 C4498 1.394 . S
C4496 H4512 0.931 . S
C4497 C4496 1.391 . S
C4497 C4501 1.376 . S
C4498 C4496 1.394 . S
C4498 C4499 1.369 . S
C4498 C4502 1.531 . S
C4499 C4498 1.369 . S
C4499 C4500 1.410 . S
C4499 C4507 1.503 . S
C4500 C4499 1.410 . S
C4500 C4501 1.392 . S
C4500 C4503 1.511 . S
C4501 C4497 1.376 . S
C4501 C4500 1.392 . S
C4501 H4513 0.929 . S
C4502 C4498 1.531 . S
C4502 H4514 0.960 . S
C4502 H4515 0.962 . S
C4502 H4516 0.960 . S
C4503 C4500 1.511 . S
C4503 H4517 0.961 . S
C4503 H4518 0.961 . S
C4503 H4519 0.961 . S
C4504 C4505 1.370 . S
C4504 C4506 1.363 . S
C4504 H4520 0.931 . S
C4505 C4504 1.370 . S
C4505 C4509 1.408 . S
C4506 C4504 1.363 . S
C4506 C4507 1.370 . S
C4506 C4510 1.524 . S
C4507 C4499 1.503 . S
C4507 C4506 1.370 . S
C4507 C4508 1.403 . S
C4508 C4507 1.403 . S
C4508 C4509 1.404 . S
C4508 C4511 1.539 . S
C4509 C4505 1.408 . S
C4509 C4508 1.404 . S
C4509 H4521 0.930 . S
C4510 C4506 1.524 . S
C4510 H4522 0.956 . S
C4510 H4523 0.961 . S
C4510 H4524 0.961 . S
C4511 C4508 1.539 . S
C4511 H4525 0.958 . S
C4511 H4526 0.961 . S
C4511 H4527 0.960 . S
H4512 C4496 0.931 . S
H4513 C4501 0.929 . S
H4514 C4502 0.960 . S
H4515 C4502 0.962 . S
H4516 C4502 0.960 . S
H4517 C4503 0.961 . S
H4518 C4503 0.961 . S
H4519 C4503 0.961 . S
H4520 C4504 0.931 . S
H4521 C4509 0.930 . S
H4522 C4510 0.956 . S
H4523 C4510 0.961 . S
H4524 C4510 0.961 . S
H4525 C4511 0.958 . S
H4526 C4511 0.961 . S
H4527 C4511 0.960 . S
C4528 C4529 1.391 . S
C4528 C4530 1.394 . S
C4528 H4544 0.931 . S
C4529 C4528 1.391 . S
C4529 C4533 1.376 . S
C4530 C4528 1.394 . S
C4530 C4531 1.369 . S
C4530 C4534 1.531 . S
C4531 C4530 1.369 . S
C4531 C4532 1.410 . S
C4531 C4539 1.503 . S
C4532 C4531 1.410 . S
C4532 C4533 1.392 . S
C4532 C4535 1.511 . S
C4533 C4529 1.376 . S
C4533 C4532 1.392 . S
C4533 H4545 0.929 . S
C4534 C4530 1.531 . S
C4534 H4546 0.960 . S
C4534 H4547 0.962 . S
C4534 H4548 0.960 . S
C4535 C4532 1.511 . S
C4535 H4549 0.961 . S
C4535 H4550 0.961 . S
C4535 H4551 0.961 . S
C4536 C4537 1.370 . S
C4536 C4538 1.363 . S
C4536 H4552 0.931 . S
C4537 C4536 1.370 . S
C4537 C4541 1.408 . S
C4538 C4536 1.363 . S
C4538 C4539 1.370 . S
C4538 C4542 1.524 . S
C4539 C4531 1.503 . S
C4539 C4538 1.370 . S
C4539 C4540 1.403 . S
C4540 C4539 1.403 . S
C4540 C4541 1.404 . S
C4540 C4543 1.539 . S
C4541 C4537 1.408 . S
C4541 C4540 1.404 . S
C4541 H4553 0.930 . S
C4542 C4538 1.524 . S
C4542 H4554 0.956 . S
C4542 H4555 0.961 . S
C4542 H4556 0.961 . S
C4543 C4540 1.539 . S
C4543 H4557 0.958 . S
C4543 H4558 0.961 . S
C4543 H4559 0.960 . S
H4544 C4528 0.931 . S
H4545 C4533 0.929 . S
H4546 C4534 0.960 . S
H4547 C4534 0.962 . S
H4548 C4534 0.960 . S
H4549 C4535 0.961 . S
H4550 C4535 0.961 . S
H4551 C4535 0.961 . S
H4552 C4536 0.931 . S
H4553 C4541 0.930 . S
H4554 C4542 0.956 . S
H4555 C4542 0.961 . S
H4556 C4542 0.961 . S
H4557 C4543 0.958 . S
H4558 C4543 0.961 . S
H4559 C4543 0.960 . S
C4560 C4561 1.391 . S
C4560 C4562 1.394 . S
C4560 H4576 0.931 . S
C4561 C4560 1.391 . S
C4561 C4565 1.376 . S
C4562 C4560 1.394 . S
C4562 C4563 1.369 . S
C4562 C4566 1.531 . S
C4563 C4562 1.369 . S
C4563 C4564 1.410 . S
C4563 C4571 1.503 . S
C4564 C4563 1.410 . S
C4564 C4565 1.392 . S
C4564 C4567 1.511 . S
C4565 C4561 1.376 . S
C4565 C4564 1.392 . S
C4565 H4577 0.929 . S
C4566 C4562 1.531 . S
C4566 H4578 0.960 . S
C4566 H4579 0.962 . S
C4566 H4580 0.960 . S
C4567 C4564 1.511 . S
C4567 H4581 0.961 . S
C4567 H4582 0.961 . S
C4567 H4583 0.961 . S
C4568 C4569 1.370 . S
C4568 C4570 1.363 . S
C4568 H4584 0.931 . S
C4569 C4568 1.370 . S
C4569 C4573 1.408 . S
C4570 C4568 1.363 . S
C4570 C4571 1.370 . S
C4570 C4574 1.524 . S
C4571 C4563 1.503 . S
C4571 C4570 1.370 . S
C4571 C4572 1.403 . S
C4572 C4571 1.403 . S
C4572 C4573 1.404 . S
C4572 C4575 1.539 . S
C4573 C4569 1.408 . S
C4573 C4572 1.404 . S
C4573 H4585 0.930 . S
C4574 C4570 1.524 . S
C4574 H4586 0.956 . S
C4574 H4587 0.961 . S
C4574 H4588 0.961 . S
C4575 C4572 1.539 . S
C4575 H4589 0.958 . S
C4575 H4590 0.961 . S
C4575 H4591 0.960 . S
H4576 C4560 0.931 . S
H4577 C4565 0.929 . S
H4578 C4566 0.960 . S
H4579 C4566 0.962 . S
H4580 C4566 0.960 . S
H4581 C4567 0.961 . S
H4582 C4567 0.961 . S
H4583 C4567 0.961 . S
H4584 C4568 0.931 . S
H4585 C4573 0.930 . S
H4586 C4574 0.956 . S
H4587 C4574 0.961 . S
H4588 C4574 0.961 . S
H4589 C4575 0.958 . S
H4590 C4575 0.961 . S
H4591 C4575 0.960 . S
C4592 C4593 1.391 . S
C4592 C4594 1.394 . S
C4592 H4608 0.931 . S
C4593 C4592 1.391 . S
C4593 C4597 1.376 . S
C4594 C4592 1.394 . S
C4594 C4595 1.369 . S
C4594 C4598 1.531 . S
C4595 C4594 1.369 . S
C4595 C4596 1.410 . S
C4595 C4603 1.503 . S
C4596 C4595 1.410 . S
C4596 C4597 1.392 . S
C4596 C4599 1.511 . S
C4597 C4593 1.376 . S
C4597 C4596 1.392 . S
C4597 H4609 0.929 . S
C4598 C4594 1.531 . S
C4598 H4610 0.960 . S
C4598 H4611 0.962 . S
C4598 H4612 0.960 . S
C4599 C4596 1.511 . S
C4599 H4613 0.961 . S
C4599 H4614 0.961 . S
C4599 H4615 0.961 . S
C4600 C4601 1.370 . S
C4600 C4602 1.363 . S
C4600 H4616 0.931 . S
C4601 C4600 1.370 . S
C4601 C4605 1.408 . S
C4602 C4600 1.363 . S
C4602 C4603 1.370 . S
C4602 C4606 1.524 . S
C4603 C4595 1.503 . S
C4603 C4602 1.370 . S
C4603 C4604 1.403 . S
C4604 C4603 1.403 . S
C4604 C4605 1.404 . S
C4604 C4607 1.539 . S
C4605 C4601 1.408 . S
C4605 C4604 1.404 . S
C4605 H4617 0.930 . S
C4606 C4602 1.524 . S
C4606 H4618 0.956 . S
C4606 H4619 0.961 . S
C4606 H4620 0.961 . S
C4607 C4604 1.539 . S
C4607 H4621 0.958 . S
C4607 H4622 0.961 . S
C4607 H4623 0.960 . S
H4608 C4592 0.931 . S
H4609 C4597 0.929 . S
H4610 C4598 0.960 . S
H4611 C4598 0.962 . S
H4612 C4598 0.960 . S
H4613 C4599 0.961 . S
H4614 C4599 0.961 . S
H4615 C4599 0.961 . S
H4616 C4600 0.931 . S
H4617 C4605 0.930 . S
H4618 C4606 0.956 . S
H4619 C4606 0.961 . S
H4620 C4606 0.961 . S
H4621 C4607 0.958 . S
H4622 C4607 0.961 . S
H4623 C4607 0.960 . S
C4624 C4625 1.391 . S
C4624 C4626 1.394 . S
C4624 H4640 0.931 . S
C4625 C4624 1.391 . S
C4625 C4629 1.376 . S
C4626 C4624 1.394 . S
C4626 C4627 1.369 . S
C4626 C4630 1.531 . S
C4627 C4626 1.369 . S
C4627 C4628 1.410 . S
C4627 C4635 1.503 . S
C4628 C4627 1.410 . S
C4628 C4629 1.392 . S
C4628 C4631 1.511 . S
C4629 C4625 1.376 . S
C4629 C4628 1.392 . S
C4629 H4641 0.929 . S
C4630 C4626 1.531 . S
C4630 H4642 0.960 . S
C4630 H4643 0.962 . S
C4630 H4644 0.960 . S
C4631 C4628 1.511 . S
C4631 H4645 0.961 . S
C4631 H4646 0.961 . S
C4631 H4647 0.961 . S
C4632 C4633 1.370 . S
C4632 C4634 1.363 . S
C4632 H4648 0.931 . S
C4633 C4632 1.370 . S
C4633 C4637 1.408 . S
C4634 C4632 1.363 . S
C4634 C4635 1.370 . S
C4634 C4638 1.524 . S
C4635 C4627 1.503 . S
C4635 C4634 1.370 . S
C4635 C4636 1.403 . S
C4636 C4635 1.403 . S
C4636 C4637 1.404 . S
C4636 C4639 1.539 . S
C4637 C4633 1.408 . S
C4637 C4636 1.404 . S
C4637 H4649 0.930 . S
C4638 C4634 1.524 . S
C4638 H4650 0.956 . S
C4638 H4651 0.961 . S
C4638 H4652 0.961 . S
C4639 C4636 1.539 . S
C4639 H4653 0.958 . S
C4639 H4654 0.961 . S
C4639 H4655 0.960 . S
H4640 C4624 0.931 . S
H4641 C4629 0.929 . S
H4642 C4630 0.960 . S
H4643 C4630 0.962 . S
H4644 C4630 0.960 . S
H4645 C4631 0.961 . S
H4646 C4631 0.961 . S
H4647 C4631 0.961 . S
H4648 C4632 0.931 . S
H4649 C4637 0.930 . S
H4650 C4638 0.956 . S
H4651 C4638 0.961 . S
H4652 C4638 0.961 . S
H4653 C4639 0.958 . S
H4654 C4639 0.961 . S
H4655 C4639 0.960 . S
C4656 C4657 1.391 . S
C4656 C4658 1.394 . S
C4656 H4672 0.931 . S
C4657 C4656 1.391 . S
C4657 C4661 1.376 . S
C4658 C4656 1.394 . S
C4658 C4659 1.369 . S
C4658 C4662 1.531 . S
C4659 C4658 1.369 . S
C4659 C4660 1.410 . S
C4659 C4667 1.503 . S
C4660 C4659 1.410 . S
C4660 C4661 1.392 . S
C4660 C4663 1.511 . S
C4661 C4657 1.376 . S
C4661 C4660 1.392 . S
C4661 H4673 0.929 . S
C4662 C4658 1.531 . S
C4662 H4674 0.960 . S
C4662 H4675 0.962 . S
C4662 H4676 0.960 . S
C4663 C4660 1.511 . S
C4663 H4677 0.961 . S
C4663 H4678 0.961 . S
C4663 H4679 0.961 . S
C4664 C4665 1.370 . S
C4664 C4666 1.363 . S
C4664 H4680 0.931 . S
C4665 C4664 1.370 . S
C4665 C4669 1.408 . S
C4666 C4664 1.363 . S
C4666 C4667 1.370 . S
C4666 C4670 1.524 . S
C4667 C4659 1.503 . S
C4667 C4666 1.370 . S
C4667 C4668 1.403 . S
C4668 C4667 1.403 . S
C4668 C4669 1.404 . S
C4668 C4671 1.539 . S
C4669 C4665 1.408 . S
C4669 C4668 1.404 . S
C4669 H4681 0.930 . S
C4670 C4666 1.524 . S
C4670 H4682 0.956 . S
C4670 H4683 0.961 . S
C4670 H4684 0.961 . S
C4671 C4668 1.539 . S
C4671 H4685 0.958 . S
C4671 H4686 0.961 . S
C4671 H4687 0.960 . S
H4672 C4656 0.931 . S
H4673 C4661 0.929 . S
H4674 C4662 0.960 . S
H4675 C4662 0.962 . S
H4676 C4662 0.960 . S
H4677 C4663 0.961 . S
H4678 C4663 0.961 . S
H4679 C4663 0.961 . S
H4680 C4664 0.931 . S
H4681 C4669 0.930 . S
H4682 C4670 0.956 . S
H4683 C4670 0.961 . S
H4684 C4670 0.961 . S
H4685 C4671 0.958 . S
H4686 C4671 0.961 . S
H4687 C4671 0.960 . S
C4688 C4689 1.391 . S
C4688 C4690 1.394 . S
C4688 H4704 0.931 . S
C4689 C4688 1.391 . S
C4689 C4693 1.376 . S
C4690 C4688 1.394 . S
C4690 C4691 1.369 . S
C4690 C4694 1.531 . S
C4691 C4690 1.369 . S
C4691 C4692 1.410 . S
C4691 C4699 1.503 . S
C4692 C4691 1.410 . S
C4692 C4693 1.392 . S
C4692 C4695 1.511 . S
C4693 C4689 1.376 . S
C4693 C4692 1.392 . S
C4693 H4705 0.929 . S
C4694 C4690 1.531 . S
C4694 H4706 0.960 . S
C4694 H4707 0.962 . S
C4694 H4708 0.960 . S
C4695 C4692 1.511 . S
C4695 H4709 0.961 . S
C4695 H4710 0.961 . S
C4695 H4711 0.961 . S
C4696 C4697 1.370 . S
C4696 C4698 1.363 . S
C4696 H4712 0.931 . S
C4697 C4696 1.370 . S
C4697 C4701 1.408 . S
C4698 C4696 1.363 . S
C4698 C4699 1.370 . S
C4698 C4702 1.524 . S
C4699 C4691 1.503 . S
C4699 C4698 1.370 . S
C4699 C4700 1.403 . S
C4700 C4699 1.403 . S
C4700 C4701 1.404 . S
C4700 C4703 1.539 . S
C4701 C4697 1.408 . S
C4701 C4700 1.404 . S
C4701 H4713 0.930 . S
C4702 C4698 1.524 . S
C4702 H4714 0.956 . S
C4702 H4715 0.961 . S
C4702 H4716 0.961 . S
C4703 C4700 1.539 . S
C4703 H4717 0.958 . S
C4703 H4718 0.961 . S
C4703 H4719 0.960 . S
H4704 C4688 0.931 . S
H4705 C4693 0.929 . S
H4706 C4694 0.960 . S
H4707 C4694 0.962 . S
H4708 C4694 0.960 . S
H4709 C4695 0.961 . S
H4710 C4695 0.961 . S
H4711 C4695 0.961 . S
H4712 C4696 0.931 . S
H4713 C4701 0.930 . S
H4714 C4702 0.956 . S
H4715 C4702 0.961 . S
H4716 C4702 0.961 . S
H4717 C4703 0.958 . S
H4718 C4703 0.961 . S
H4719 C4703 0.960 . S
C4720 C4721 1.391 . S
C4720 C4722 1.394 . S
C4720 H4736 0.931 . S
C4721 C4720 1.391 . S
C4721 C4725 1.376 . S
C4722 C4720 1.394 . S
C4722 C4723 1.369 . S
C4722 C4726 1.531 . S
C4723 C4722 1.369 . S
C4723 C4724 1.410 . S
C4723 C4731 1.503 . S
C4724 C4723 1.410 . S
C4724 C4725 1.392 . S
C4724 C4727 1.511 . S
C4725 C4721 1.376 . S
C4725 C4724 1.392 . S
C4725 H4737 0.929 . S
C4726 C4722 1.531 . S
C4726 H4738 0.960 . S
C4726 H4739 0.962 . S
C4726 H4740 0.960 . S
C4727 C4724 1.511 . S
C4727 H4741 0.961 . S
C4727 H4742 0.961 . S
C4727 H4743 0.961 . S
C4728 C4729 1.370 . S
C4728 C4730 1.363 . S
C4728 H4744 0.931 . S
C4729 C4728 1.370 . S
C4729 C4733 1.408 . S
C4730 C4728 1.363 . S
C4730 C4731 1.370 . S
C4730 C4734 1.524 . S
C4731 C4723 1.503 . S
C4731 C4730 1.370 . S
C4731 C4732 1.403 . S
C4732 C4731 1.403 . S
C4732 C4733 1.404 . S
C4732 C4735 1.539 . S
C4733 C4729 1.408 . S
C4733 C4732 1.404 . S
C4733 H4745 0.930 . S
C4734 C4730 1.524 . S
C4734 H4746 0.956 . S
C4734 H4747 0.961 . S
C4734 H4748 0.961 . S
C4735 C4732 1.539 . S
C4735 H4749 0.958 . S
C4735 H4750 0.961 . S
C4735 H4751 0.960 . S
H4736 C4720 0.931 . S
H4737 C4725 0.929 . S
H4738 C4726 0.960 . S
H4739 C4726 0.962 . S
H4740 C4726 0.960 . S
H4741 C4727 0.961 . S
H4742 C4727 0.961 . S
H4743 C4727 0.961 . S
H4744 C4728 0.931 . S
H4745 C4733 0.930 . S
H4746 C4734 0.956 . S
H4747 C4734 0.961 . S
H4748 C4734 0.961 . S
H4749 C4735 0.958 . S
H4750 C4735 0.961 . S
H4751 C4735 0.960 . S
C4752 C4753 1.391 . S
C4752 C4754 1.394 . S
C4752 H4768 0.931 . S
C4753 C4752 1.391 . S
C4753 C4757 1.376 . S
C4754 C4752 1.394 . S
C4754 C4755 1.369 . S
C4754 C4758 1.531 . S
C4755 C4754 1.369 . S
C4755 C4756 1.410 . S
C4755 C4763 1.503 . S
C4756 C4755 1.410 . S
C4756 C4757 1.392 . S
C4756 C4759 1.511 . S
C4757 C4753 1.376 . S
C4757 C4756 1.392 . S
C4757 H4769 0.929 . S
C4758 C4754 1.531 . S
C4758 H4770 0.960 . S
C4758 H4771 0.962 . S
C4758 H4772 0.960 . S
C4759 C4756 1.511 . S
C4759 H4773 0.961 . S
C4759 H4774 0.961 . S
C4759 H4775 0.961 . S
C4760 C4761 1.370 . S
C4760 C4762 1.363 . S
C4760 H4776 0.931 . S
C4761 C4760 1.370 . S
C4761 C4765 1.408 . S
C4762 C4760 1.363 . S
C4762 C4763 1.370 . S
C4762 C4766 1.524 . S
C4763 C4755 1.503 . S
C4763 C4762 1.370 . S
C4763 C4764 1.403 . S
C4764 C4763 1.403 . S
C4764 C4765 1.404 . S
C4764 C4767 1.539 . S
C4765 C4761 1.408 . S
C4765 C4764 1.404 . S
C4765 H4777 0.930 . S
C4766 C4762 1.524 . S
C4766 H4778 0.956 . S
C4766 H4779 0.961 . S
C4766 H4780 0.961 . S
C4767 C4764 1.539 . S
C4767 H4781 0.958 . S
C4767 H4782 0.961 . S
C4767 H4783 0.960 . S
H4768 C4752 0.931 . S
H4769 C4757 0.929 . S
H4770 C4758 0.960 . S
H4771 C4758 0.962 . S
H4772 C4758 0.960 . S
H4773 C4759 0.961 . S
H4774 C4759 0.961 . S
H4775 C4759 0.961 . S
H4776 C4760 0.931 . S
H4777 C4765 0.930 . S
H4778 C4766 0.956 . S
H4779 C4766 0.961 . S
H4780 C4766 0.961 . S
H4781 C4767 0.958 . S
H4782 C4767 0.961 . S
H4783 C4767 0.960 . S
C4784 C4785 1.391 . S
C4784 C4786 1.394 . S
C4784 H4800 0.931 . S
C4785 C4784 1.391 . S
C4785 C4789 1.376 . S
C4786 C4784 1.394 . S
C4786 C4787 1.369 . S
C4786 C4790 1.531 . S
C4787 C4786 1.369 . S
C4787 C4788 1.410 . S
C4787 C4795 1.503 . S
C4788 C4787 1.410 . S
C4788 C4789 1.392 . S
C4788 C4791 1.511 . S
C4789 C4785 1.376 . S
C4789 C4788 1.392 . S
C4789 H4801 0.929 . S
C4790 C4786 1.531 . S
C4790 H4802 0.960 . S
C4790 H4803 0.962 . S
C4790 H4804 0.960 . S
C4791 C4788 1.511 . S
C4791 H4805 0.961 . S
C4791 H4806 0.961 . S
C4791 H4807 0.961 . S
C4792 C4793 1.370 . S
C4792 C4794 1.363 . S
C4792 H4808 0.931 . S
C4793 C4792 1.370 . S
C4793 C4797 1.408 . S
C4794 C4792 1.363 . S
C4794 C4795 1.370 . S
C4794 C4798 1.524 . S
C4795 C4787 1.503 . S
C4795 C4794 1.370 . S
C4795 C4796 1.403 . S
C4796 C4795 1.403 . S
C4796 C4797 1.404 . S
C4796 C4799 1.539 . S
C4797 C4793 1.408 . S
C4797 C4796 1.404 . S
C4797 H4809 0.930 . S
C4798 C4794 1.524 . S
C4798 H4810 0.956 . S
C4798 H4811 0.961 . S
C4798 H4812 0.961 . S
C4799 C4796 1.539 . S
C4799 H4813 0.958 . S
C4799 H4814 0.961 . S
C4799 H4815 0.960 . S
H4800 C4784 0.931 . S
H4801 C4789 0.929 . S
H4802 C4790 0.960 . S
H4803 C4790 0.962 . S
H4804 C4790 0.960 . S
H4805 C4791 0.961 . S
H4806 C4791 0.961 . S
H4807 C4791 0.961 . S
H4808 C4792 0.931 . S
H4809 C4797 0.930 . S
H4810 C4798 0.956 . S
H4811 C4798 0.961 . S
H4812 C4798 0.961 . S
H4813 C4799 0.958 . S
H4814 C4799 0.961 . S
H4815 C4799 0.960 . S
C4816 C4817 1.391 . S
C4816 C4818 1.394 . S
C4816 H4832 0.931 . S
C4817 C4816 1.391 . S
C4817 C4821 1.376 . S
C4818 C4816 1.394 . S
C4818 C4819 1.369 . S
C4818 C4822 1.531 . S
C4819 C4818 1.369 . S
C4819 C4820 1.410 . S
C4819 C4827 1.503 . S
C4820 C4819 1.410 . S
C4820 C4821 1.392 . S
C4820 C4823 1.511 . S
C4821 C4817 1.376 . S
C4821 C4820 1.392 . S
C4821 H4833 0.929 . S
C4822 C4818 1.531 . S
C4822 H4834 0.960 . S
C4822 H4835 0.962 . S
C4822 H4836 0.960 . S
C4823 C4820 1.511 . S
C4823 H4837 0.961 . S
C4823 H4838 0.961 . S
C4823 H4839 0.961 . S
C4824 C4825 1.370 . S
C4824 C4826 1.363 . S
C4824 H4840 0.931 . S
C4825 C4824 1.370 . S
C4825 C4829 1.408 . S
C4826 C4824 1.363 . S
C4826 C4827 1.370 . S
C4826 C4830 1.524 . S
C4827 C4819 1.503 . S
C4827 C4826 1.370 . S
C4827 C4828 1.403 . S
C4828 C4827 1.403 . S
C4828 C4829 1.404 . S
C4828 C4831 1.539 . S
C4829 C4825 1.408 . S
C4829 C4828 1.404 . S
C4829 H4841 0.930 . S
C4830 C4826 1.524 . S
C4830 H4842 0.956 . S
C4830 H4843 0.961 . S
C4830 H4844 0.961 . S
C4831 C4828 1.539 . S
C4831 H4845 0.958 . S
C4831 H4846 0.961 . S
C4831 H4847 0.960 . S
H4832 C4816 0.931 . S
H4833 C4821 0.929 . S
H4834 C4822 0.960 . S
H4835 C4822 0.962 . S
H4836 C4822 0.960 . S
H4837 C4823 0.961 . S
H4838 C4823 0.961 . S
H4839 C4823 0.961 . S
H4840 C4824 0.931 . S
H4841 C4829 0.930 . S
H4842 C4830 0.956 . S
H4843 C4830 0.961 . S
H4844 C4830 0.961 . S
H4845 C4831 0.958 . S
H4846 C4831 0.961 . S
H4847 C4831 0.960 . S
C4848 C4849 1.391 . S
C4848 C4850 1.394 . S
C4848 H4864 0.931 . S
C4849 C4848 1.391 . S
C4849 C4853 1.376 . S
C4850 C4848 1.394 . S
C4850 C4851 1.369 . S
C4850 C4854 1.531 . S
C4851 C4850 1.369 . S
C4851 C4852 1.410 . S
C4851 C4859 1.503 . S
C4852 C4851 1.410 . S
C4852 C4853 1.392 . S
C4852 C4855 1.511 . S
C4853 C4849 1.376 . S
C4853 C4852 1.392 . S
C4853 H4865 0.929 . S
C4854 C4850 1.531 . S
C4854 H4866 0.960 . S
C4854 H4867 0.962 . S
C4854 H4868 0.960 . S
C4855 C4852 1.511 . S
C4855 H4869 0.961 . S
C4855 H4870 0.961 . S
C4855 H4871 0.961 . S
C4856 C4857 1.370 . S
C4856 C4858 1.363 . S
C4856 H4872 0.931 . S
C4857 C4856 1.370 . S
C4857 C4861 1.408 . S
C4858 C4856 1.363 . S
C4858 C4859 1.370 . S
C4858 C4862 1.524 . S
C4859 C4851 1.503 . S
C4859 C4858 1.370 . S
C4859 C4860 1.403 . S
C4860 C4859 1.403 . S
C4860 C4861 1.404 . S
C4860 C4863 1.539 . S
C4861 C4857 1.408 . S
C4861 C4860 1.404 . S
C4861 H4873 0.930 . S
C4862 C4858 1.524 . S
C4862 H4874 0.956 . S
C4862 H4875 0.961 . S
C4862 H4876 0.961 . S
C4863 C4860 1.539 . S
C4863 H4877 0.958 . S
C4863 H4878 0.961 . S
C4863 H4879 0.960 . S
H4864 C4848 0.931 . S
H4865 C4853 0.929 . S
H4866 C4854 0.960 . S
H4867 C4854 0.962 . S
H4868 C4854 0.960 . S
H4869 C4855 0.961 . S
H4870 C4855 0.961 . S
H4871 C4855 0.961 . S
H4872 C4856 0.931 . S
H4873 C4861 0.930 . S
H4874 C4862 0.956 . S
H4875 C4862 0.961 . S
H4876 C4862 0.961 . S
H4877 C4863 0.958 . S
H4878 C4863 0.961 . S
H4879 C4863 0.960 . S
C4880 C4881 1.391 . S
C4880 C4882 1.394 . S
C4880 H4896 0.931 . S
C4881 C4880 1.391 . S
C4881 C4885 1.376 . S
C4882 C4880 1.394 . S
C4882 C4883 1.369 . S
C4882 C4886 1.531 . S
C4883 C4882 1.369 . S
C4883 C4884 1.410 . S
C4883 C4891 1.503 . S
C4884 C4883 1.410 . S
C4884 C4885 1.392 . S
C4884 C4887 1.511 . S
C4885 C4881 1.376 . S
C4885 C4884 1.392 . S
C4885 H4897 0.929 . S
C4886 C4882 1.531 . S
C4886 H4898 0.960 . S
C4886 H4899 0.962 . S
C4886 H4900 0.960 . S
C4887 C4884 1.511 . S
C4887 H4901 0.961 . S
C4887 H4902 0.961 . S
C4887 H4903 0.961 . S
C4888 C4889 1.370 . S
C4888 C4890 1.363 . S
C4888 H4904 0.931 . S
C4889 C4888 1.370 . S
C4889 C4893 1.408 . S
C4890 C4888 1.363 . S
C4890 C4891 1.370 . S
C4890 C4894 1.524 . S
C4891 C4883 1.503 . S
C4891 C4890 1.370 . S
C4891 C4892 1.403 . S
C4892 C4891 1.403 . S
C4892 C4893 1.404 . S
C4892 C4895 1.539 . S
C4893 C4889 1.408 . S
C4893 C4892 1.404 . S
C4893 H4905 0.930 . S
C4894 C4890 1.524 . S
C4894 H4906 0.956 . S
C4894 H4907 0.961 . S
C4894 H4908 0.961 . S
C4895 C4892 1.539 . S
C4895 H4909 0.958 . S
C4895 H4910 0.961 . S
C4895 H4911 0.960 . S
H4896 C4880 0.931 . S
H4897 C4885 0.929 . S
H4898 C4886 0.960 . S
H4899 C4886 0.962 . S
H4900 C4886 0.960 . S
H4901 C4887 0.961 . S
H4902 C4887 0.961 . S
H4903 C4887 0.961 . S
H4904 C4888 0.931 . S
H4905 C4893 0.930 . S
H4906 C4894 0.956 . S
H4907 C4894 0.961 . S
H4908 C4894 0.961 . S
H4909 C4895 0.958 . S
H4910 C4895 0.961 . S
H4911 C4895 0.960 . S
C4912 C4913 1.391 . S
C4912 C4914 1.394 . S
C4912 H4928 0.931 . S
C4913 C4912 1.391 . S
C4913 C4917 1.376 . S
C4914 C4912 1.394 . S
C4914 C4915 1.369 . S
C4914 C4918 1.531 . S
C4915 C4914 1.369 . S
C4915 C4916 1.410 . S
C4915 C4923 1.503 . S
C4916 C4915 1.410 . S
C4916 C4917 1.392 . S
C4916 C4919 1.511 . S
C4917 C4913 1.376 . S
C4917 C4916 1.392 . S
C4917 H4929 0.929 . S
C4918 C4914 1.531 . S
C4918 H4930 0.960 . S
C4918 H4931 0.962 . S
C4918 H4932 0.960 . S
C4919 C4916 1.511 . S
C4919 H4933 0.961 . S
C4919 H4934 0.961 . S
C4919 H4935 0.961 . S
C4920 C4921 1.370 . S
C4920 C4922 1.363 . S
C4920 H4936 0.931 . S
C4921 C4920 1.370 . S
C4921 C4925 1.408 . S
C4922 C4920 1.363 . S
C4922 C4923 1.370 . S
C4922 C4926 1.524 . S
C4923 C4915 1.503 . S
C4923 C4922 1.370 . S
C4923 C4924 1.403 . S
C4924 C4923 1.403 . S
C4924 C4925 1.404 . S
C4924 C4927 1.539 . S
C4925 C4921 1.408 . S
C4925 C4924 1.404 . S
C4925 H4937 0.930 . S
C4926 C4922 1.524 . S
C4926 H4938 0.956 . S
C4926 H4939 0.961 . S
C4926 H4940 0.961 . S
C4927 C4924 1.539 . S
C4927 H4941 0.958 . S
C4927 H4942 0.961 . S
C4927 H4943 0.960 . S
H4928 C4912 0.931 . S
H4929 C4917 0.929 . S
H4930 C4918 0.960 . S
H4931 C4918 0.962 . S
H4932 C4918 0.960 . S
H4933 C4919 0.961 . S
H4934 C4919 0.961 . S
H4935 C4919 0.961 . S
H4936 C4920 0.931 . S
H4937 C4925 0.930 . S
H4938 C4926 0.956 . S
H4939 C4926 0.961 . S
H4940 C4926 0.961 . S
H4941 C4927 0.958 . S
H4942 C4927 0.961 . S
H4943 C4927 0.960 . S
C4944 C4945 1.391 . S
C4944 C4946 1.394 . S
C4944 H4960 0.931 . S
C4945 C4944 1.391 . S
C4945 C4949 1.376 . S
C4946 C4944 1.394 . S
C4946 C4947 1.369 . S
C4946 C4950 1.531 . S
C4947 C4946 1.369 . S
C4947 C4948 1.410 . S
C4947 C4955 1.503 . S
C4948 C4947 1.410 . S
C4948 C4949 1.392 . S
C4948 C4951 1.511 . S
C4949 C4945 1.376 . S
C4949 C4948 1.392 . S
C4949 H4961 0.929 . S
C4950 C4946 1.531 . S
C4950 H4962 0.960 . S
C4950 H4963 0.962 . S
C4950 H4964 0.960 . S
C4951 C4948 1.511 . S
C4951 H4965 0.961 . S
C4951 H4966 0.961 . S
C4951 H4967 0.961 . S
C4952 C4953 1.370 . S
C4952 C4954 1.363 . S
C4952 H4968 0.931 . S
C4953 C4952 1.370 . S
C4953 C4957 1.408 . S
C4954 C4952 1.363 . S
C4954 C4955 1.370 . S
C4954 C4958 1.524 . S
C4955 C4947 1.503 . S
C4955 C4954 1.370 . S
C4955 C4956 1.403 . S
C4956 C4955 1.403 . S
C4956 C4957 1.404 . S
C4956 C4959 1.539 . S
C4957 C4953 1.408 . S
C4957 C4956 1.404 . S
C4957 H4969 0.930 . S
C4958 C4954 1.524 . S
C4958 H4970 0.956 . S
C4958 H4971 0.961 . S
C4958 H4972 0.961 . S
C4959 C4956 1.539 . S
C4959 H4973 0.958 . S
C4959 H4974 0.961 . S
C4959 H4975 0.960 . S
H4960 C4944 0.931 . S
H4961 C4949 0.929 . S
H4962 C4950 0.960 . S
H4963 C4950 0.962 . S
H4964 C4950 0.960 . S
H4965 C4951 0.961 . S
H4966 C4951 0.961 . S
H4967 C4951 0.961 . S
H4968 C4952 0.931 . S
H4969 C4957 0.930 . S
H4970 C4958 0.956 . S
H4971 C4958 0.961 . S
H4972 C4958 0.961 . S
H4973 C4959 0.958 . S
H4974 C4959 0.961 . S
H4975 C4959 0.960 . S
C4976 C4977 1.391 . S
C4976 C4978 1.394 . S
C4976 H4992 0.931 . S
C4977 C4976 1.391 . S
C4977 C4981 1.376 . S
C4978 C4976 1.394 . S
C4978 C4979 1.369 . S
C4978 C4982 1.531 . S
C4979 C4978 1.369 . S
C4979 C4980 1.410 . S
C4979 C4987 1.503 . S
C4980 C4979 1.410 . S
C4980 C4981 1.392 . S
C4980 C4983 1.511 . S
C4981 C4977 1.376 . S
C4981 C4980 1.392 . S
C4981 H4993 0.929 . S
C4982 C4978 1.531 . S
C4982 H4994 0.960 . S
C4982 H4995 0.962 . S
C4982 H4996 0.960 . S
C4983 C4980 1.511 . S
C4983 H4997 0.961 . S
C4983 H4998 0.961 . S
C4983 H4999 0.961 . S
C4984 C4985 1.370 . S
C4984 C4986 1.363 . S
C4984 H5000 0.931 . S
C4985 C4984 1.370 . S
C4985 C4989 1.408 . S
C4986 C4984 1.363 . S
C4986 C4987 1.370 . S
C4986 C4990 1.524 . S
C4987 C4979 1.503 . S
C4987 C4986 1.370 . S
C4987 C4988 1.403 . S
C4988 C4987 1.403 . S
C4988 C4989 1.404 . S
C4988 C4991 1.539 . S
C4989 C4985 1.408 . S
C4989 C4988 1.404 . S
C4989 H5001 0.930 . S
C4990 C4986 1.524 . S
C4990 H5002 0.956 . S
C4990 H5003 0.961 . S
C4990 H5004 0.961 . S
C4991 C4988 1.539 . S
C4991 H5005 0.958 . S
C4991 H5006 0.961 . S
C4991 H5007 0.960 . S
H4992 C4976 0.931 . S
H4993 C4981 0.929 . S
H4994 C4982 0.960 . S
H4995 C4982 0.962 . S
H4996 C4982 0.960 . S
H4997 C4983 0.961 . S
H4998 C4983 0.961 . S
H4999 C4983 0.961 . S
H5000 C4984 0.931 . S
H5001 C4989 0.930 . S
H5002 C4990 0.956 . S
H5003 C4990 0.961 . S
H5004 C4990 0.961 . S
H5005 C4991 0.958 . S
H5006 C4991 0.961 . S
H5007 C4991 0.960 . S
C5008 C5009 1.391 . S
C5008 C5010 1.394 . S
C5008 H5024 0.931 . S
C5009 C5008 1.391 . S
C5009 C5013 1.376 . S
C5010 C5008 1.394 . S
C5010 C5011 1.369 . S
C5010 C5014 1.531 . S
C5011 C5010 1.369 . S
C5011 C5012 1.410 . S
C5011 C5019 1.503 . S
C5012 C5011 1.410 . S
C5012 C5013 1.392 . S
C5012 C5015 1.511 . S
C5013 C5009 1.376 . S
C5013 C5012 1.392 . S
C5013 H5025 0.929 . S
C5014 C5010 1.531 . S
C5014 H5026 0.960 . S
C5014 H5027 0.962 . S
C5014 H5028 0.960 . S
C5015 C5012 1.511 . S
C5015 H5029 0.961 . S
C5015 H5030 0.961 . S
C5015 H5031 0.961 . S
C5016 C5017 1.370 . S
C5016 C5018 1.363 . S
C5016 H5032 0.931 . S
C5017 C5016 1.370 . S
C5017 C5021 1.408 . S
C5018 C5016 1.363 . S
C5018 C5019 1.370 . S
C5018 C5022 1.524 . S
C5019 C5011 1.503 . S
C5019 C5018 1.370 . S
C5019 C5020 1.403 . S
C5020 C5019 1.403 . S
C5020 C5021 1.404 . S
C5020 C5023 1.539 . S
C5021 C5017 1.408 . S
C5021 C5020 1.404 . S
C5021 H5033 0.930 . S
C5022 C5018 1.524 . S
C5022 H5034 0.956 . S
C5022 H5035 0.961 . S
C5022 H5036 0.961 . S
C5023 C5020 1.539 . S
C5023 H5037 0.958 . S
C5023 H5038 0.961 . S
C5023 H5039 0.960 . S
H5024 C5008 0.931 . S
H5025 C5013 0.929 . S
H5026 C5014 0.960 . S
H5027 C5014 0.962 . S
H5028 C5014 0.960 . S
H5029 C5015 0.961 . S
H5030 C5015 0.961 . S
H5031 C5015 0.961 . S
H5032 C5016 0.931 . S
H5033 C5021 0.930 . S
H5034 C5022 0.956 . S
H5035 C5022 0.961 . S
H5036 C5022 0.961 . S
H5037 C5023 0.958 . S
H5038 C5023 0.961 . S
H5039 C5023 0.960 . S
C5040 C5041 1.391 . S
C5040 C5042 1.394 . S
C5040 H5056 0.931 . S
C5041 C5040 1.391 . S
C5041 C5045 1.376 . S
C5042 C5040 1.394 . S
C5042 C5043 1.369 . S
C5042 C5046 1.531 . S
C5043 C5042 1.369 . S
C5043 C5044 1.410 . S
C5043 C5051 1.503 . S
C5044 C5043 1.410 . S
C5044 C5045 1.392 . S
C5044 C5047 1.511 . S
C5045 C5041 1.376 . S
C5045 C5044 1.392 . S
C5045 H5057 0.929 . S
C5046 C5042 1.531 . S
C5046 H5058 0.960 . S
C5046 H5059 0.962 . S
C5046 H5060 0.960 . S
C5047 C5044 1.511 . S
C5047 H5061 0.961 . S
C5047 H5062 0.961 . S
C5047 H5063 0.961 . S
C5048 C5049 1.370 . S
C5048 C5050 1.363 . S
C5048 H5064 0.931 . S
C5049 C5048 1.370 . S
C5049 C5053 1.408 . S
C5050 C5048 1.363 . S
C5050 C5051 1.370 . S
C5050 C5054 1.524 . S
C5051 C5043 1.503 . S
C5051 C5050 1.370 . S
C5051 C5052 1.403 . S
C5052 C5051 1.403 . S
C5052 C5053 1.404 . S
C5052 C5055 1.539 . S
C5053 C5049 1.408 . S
C5053 C5052 1.404 . S
C5053 H5065 0.930 . S
C5054 C5050 1.524 . S
C5054 H5066 0.956 . S
C5054 H5067 0.961 . S
C5054 H5068 0.961 . S
C5055 C5052 1.539 . S
C5055 H5069 0.958 . S
C5055 H5070 0.961 . S
C5055 H5071 0.960 . S
H5056 C5040 0.931 . S
H5057 C5045 0.929 . S
H5058 C5046 0.960 . S
H5059 C5046 0.962 . S
H5060 C5046 0.960 . S
H5061 C5047 0.961 . S
H5062 C5047 0.961 . S
H5063 C5047 0.961 . S
H5064 C5048 0.931 . S
H5065 C5053 0.930 . S
H5066 C5054 0.956 . S
H5067 C5054 0.961 . S
H5068 C5054 0.961 . S
H5069 C5055 0.958 . S
H5070 C5055 0.961 . S
H5071 C5055 0.960 . S
C5072 C5073 1.391 . S
C5072 C5074 1.394 . S
C5072 H5088 0.931 . S
C5073 C5072 1.391 . S
C5073 C5077 1.376 . S
C5074 C5072 1.394 . S
C5074 C5075 1.369 . S
C5074 C5078 1.531 . S
C5075 C5074 1.369 . S
C5075 C5076 1.410 . S
C5075 C5083 1.503 . S
C5076 C5075 1.410 . S
C5076 C5077 1.392 . S
C5076 C5079 1.511 . S
C5077 C5073 1.376 . S
C5077 C5076 1.392 . S
C5077 H5089 0.929 . S
C5078 C5074 1.531 . S
C5078 H5090 0.960 . S
C5078 H5091 0.962 . S
C5078 H5092 0.960 . S
C5079 C5076 1.511 . S
C5079 H5093 0.961 . S
C5079 H5094 0.961 . S
C5079 H5095 0.961 . S
C5080 C5081 1.370 . S
C5080 C5082 1.363 . S
C5080 H5096 0.931 . S
C5081 C5080 1.370 . S
C5081 C5085 1.408 . S
C5082 C5080 1.363 . S
C5082 C5083 1.370 . S
C5082 C5086 1.524 . S
C5083 C5075 1.503 . S
C5083 C5082 1.370 . S
C5083 C5084 1.403 . S
C5084 C5083 1.403 . S
C5084 C5085 1.404 . S
C5084 C5087 1.539 . S
C5085 C5081 1.408 . S
C5085 C5084 1.404 . S
C5085 H5097 0.930 . S
C5086 C5082 1.524 . S
C5086 H5098 0.956 . S
C5086 H5099 0.961 . S
C5086 H5100 0.961 . S
C5087 C5084 1.539 . S
C5087 H5101 0.958 . S
C5087 H5102 0.961 . S
C5087 H5103 0.960 . S
H5088 C5072 0.931 . S
H5089 C5077 0.929 . S
H5090 C5078 0.960 . S
H5091 C5078 0.962 . S
H5092 C5078 0.960 . S
H5093 C5079 0.961 . S
H5094 C5079 0.961 . S
H5095 C5079 0.961 . S
H5096 C5080 0.931 . S
H5097 C5085 0.930 . S
H5098 C5086 0.956 . S
H5099 C5086 0.961 . S
H5100 C5086 0.961 . S
H5101 C5087 0.958 . S
H5102 C5087 0.961 . S
H5103 C5087 0.960 . S
C5104 C5105 1.391 . S
C5104 C5106 1.394 . S
C5104 H5120 0.931 . S
C5105 C5104 1.391 . S
C5105 C5109 1.376 . S
C5106 C5104 1.394 . S
C5106 C5107 1.369 . S
C5106 C5110 1.531 . S
C5107 C5106 1.369 . S
C5107 C5108 1.410 . S
C5107 C5115 1.503 . S
C5108 C5107 1.410 . S
C5108 C5109 1.392 . S
C5108 C5111 1.511 . S
C5109 C5105 1.376 . S
C5109 C5108 1.392 . S
C5109 H5121 0.929 . S
C5110 C5106 1.531 . S
C5110 H5122 0.960 . S
C5110 H5123 0.962 . S
C5110 H5124 0.960 . S
C5111 C5108 1.511 . S
C5111 H5125 0.961 . S
C5111 H5126 0.961 . S
C5111 H5127 0.961 . S
C5112 C5113 1.370 . S
C5112 C5114 1.363 . S
C5112 H5128 0.931 . S
C5113 C5112 1.370 . S
C5113 C5117 1.408 . S
C5114 C5112 1.363 . S
C5114 C5115 1.370 . S
C5114 C5118 1.524 . S
C5115 C5107 1.503 . S
C5115 C5114 1.370 . S
C5115 C5116 1.403 . S
C5116 C5115 1.403 . S
C5116 C5117 1.404 . S
C5116 C5119 1.539 . S
C5117 C5113 1.408 . S
C5117 C5116 1.404 . S
C5117 H5129 0.930 . S
C5118 C5114 1.524 . S
C5118 H5130 0.956 . S
C5118 H5131 0.961 . S
C5118 H5132 0.961 . S
C5119 C5116 1.539 . S
C5119 H5133 0.958 . S
C5119 H5134 0.961 . S
C5119 H5135 0.960 . S
H5120 C5104 0.931 . S
H5121 C5109 0.929 . S
H5122 C5110 0.960 . S
H5123 C5110 0.962 . S
H5124 C5110 0.960 . S
H5125 C5111 0.961 . S
H5126 C5111 0.961 . S
H5127 C5111 0.961 . S
H5128 C5112 0.931 . S
H5129 C5117 0.930 . S
H5130 C5118 0.956 . S
H5131 C5118 0.961 . S
H5132 C5118 0.961 . S
H5133 C5119 0.958 . S
H5134 C5119 0.961 . S
H5135 C5119 0.960 . S
C5136 C5137 1.391 . S
C5136 C5138 1.394 . S
C5136 H5152 0.931 . S
C5137 C5136 1.391 . S
C5137 C5141 1.376 . S
C5138 C5136 1.394 . S
C5138 C5139 1.369 . S
C5138 C5142 1.531 . S
C5139 C5138 1.369 . S
C5139 C5140 1.410 . S
C5139 C5147 1.503 . S
C5140 C5139 1.410 . S
C5140 C5141 1.392 . S
C5140 C5143 1.511 . S
C5141 C5137 1.376 . S
C5141 C5140 1.392 . S
C5141 H5153 0.929 . S
C5142 C5138 1.531 . S
C5142 H5154 0.960 . S
C5142 H5155 0.962 . S
C5142 H5156 0.960 . S
C5143 C5140 1.511 . S
C5143 H5157 0.961 . S
C5143 H5158 0.961 . S
C5143 H5159 0.961 . S
C5144 C5145 1.370 . S
C5144 C5146 1.363 . S
C5144 H5160 0.931 . S
C5145 C5144 1.370 . S
C5145 C5149 1.408 . S
C5146 C5144 1.363 . S
C5146 C5147 1.370 . S
C5146 C5150 1.524 . S
C5147 C5139 1.503 . S
C5147 C5146 1.370 . S
C5147 C5148 1.403 . S
C5148 C5147 1.403 . S
C5148 C5149 1.404 . S
C5148 C5151 1.539 . S
C5149 C5145 1.408 . S
C5149 C5148 1.404 . S
C5149 H5161 0.930 . S
C5150 C5146 1.524 . S
C5150 H5162 0.956 . S
C5150 H5163 0.961 . S
C5150 H5164 0.961 . S
C5151 C5148 1.539 . S
C5151 H5165 0.958 . S
C5151 H5166 0.961 . S
C5151 H5167 0.960 . S
H5152 C5136 0.931 . S
H5153 C5141 0.929 . S
H5154 C5142 0.960 . S
H5155 C5142 0.962 . S
H5156 C5142 0.960 . S
H5157 C5143 0.961 . S
H5158 C5143 0.961 . S
H5159 C5143 0.961 . S
H5160 C5144 0.931 . S
H5161 C5149 0.930 . S
H5162 C5150 0.956 . S
H5163 C5150 0.961 . S
H5164 C5150 0.961 . S
H5165 C5151 0.958 . S
H5166 C5151 0.961 . S
H5167 C5151 0.960 . S
C5168 C5169 1.391 . S
C5168 C5170 1.394 . S
C5168 H5184 0.931 . S
C5169 C5168 1.391 . S
C5169 C5173 1.376 . S
C5170 C5168 1.394 . S
C5170 C5171 1.369 . S
C5170 C5174 1.531 . S
C5171 C5170 1.369 . S
C5171 C5172 1.410 . S
C5171 C5179 1.503 . S
C5172 C5171 1.410 . S
C5172 C5173 1.392 . S
C5172 C5175 1.511 . S
C5173 C5169 1.376 . S
C5173 C5172 1.392 . S
C5173 H5185 0.929 . S
C5174 C5170 1.531 . S
C5174 H5186 0.960 . S
C5174 H5187 0.962 . S
C5174 H5188 0.960 . S
C5175 C5172 1.511 . S
C5175 H5189 0.961 . S
C5175 H5190 0.961 . S
C5175 H5191 0.961 . S
C5176 C5177 1.370 . S
C5176 C5178 1.363 . S
C5176 H5192 0.931 . S
C5177 C5176 1.370 . S
C5177 C5181 1.408 . S
C5178 C5176 1.363 . S
C5178 C5179 1.370 . S
C5178 C5182 1.524 . S
C5179 C5171 1.503 . S
C5179 C5178 1.370 . S
C5179 C5180 1.403 . S
C5180 C5179 1.403 . S
C5180 C5181 1.404 . S
C5180 C5183 1.539 . S
C5181 C5177 1.408 . S
C5181 C5180 1.404 . S
C5181 H5193 0.930 . S
C5182 C5178 1.524 . S
C5182 H5194 0.956 . S
C5182 H5195 0.961 . S
C5182 H5196 0.961 . S
C5183 C5180 1.539 . S
C5183 H5197 0.958 . S
C5183 H5198 0.961 . S
C5183 H5199 0.960 . S
H5184 C5168 0.931 . S
H5185 C5173 0.929 . S
H5186 C5174 0.960 . S
H5187 C5174 0.962 . S
H5188 C5174 0.960 . S
H5189 C5175 0.961 . S
H5190 C5175 0.961 . S
H5191 C5175 0.961 . S
H5192 C5176 0.931 . S
H5193 C5181 0.930 . S
H5194 C5182 0.956 . S
H5195 C5182 0.961 . S
H5196 C5182 0.961 . S
H5197 C5183 0.958 . S
H5198 C5183 0.961 . S
H5199 C5183 0.960 . S
C5200 C5201 1.391 . S
C5200 C5202 1.394 . S
C5200 H5216 0.931 . S
C5201 C5200 1.391 . S
C5201 C5205 1.376 . S
C5202 C5200 1.394 . S
C5202 C5203 1.369 . S
C5202 C5206 1.531 . S
C5203 C5202 1.369 . S
C5203 C5204 1.410 . S
C5203 C5211 1.503 . S
C5204 C5203 1.410 . S
C5204 C5205 1.392 . S
C5204 C5207 1.511 . S
C5205 C5201 1.376 . S
C5205 C5204 1.392 . S
C5205 H5217 0.929 . S
C5206 C5202 1.531 . S
C5206 H5218 0.960 . S
C5206 H5219 0.962 . S
C5206 H5220 0.960 . S
C5207 C5204 1.511 . S
C5207 H5221 0.961 . S
C5207 H5222 0.961 . S
C5207 H5223 0.961 . S
C5208 C5209 1.370 . S
C5208 C5210 1.363 . S
C5208 H5224 0.931 . S
C5209 C5208 1.370 . S
C5209 C5213 1.408 . S
C5210 C5208 1.363 . S
C5210 C5211 1.370 . S
C5210 C5214 1.524 . S
C5211 C5203 1.503 . S
C5211 C5210 1.370 . S
C5211 C5212 1.403 . S
C5212 C5211 1.403 . S
C5212 C5213 1.404 . S
C5212 C5215 1.539 . S
C5213 C5209 1.408 . S
C5213 C5212 1.404 . S
C5213 H5225 0.930 . S
C5214 C5210 1.524 . S
C5214 H5226 0.956 . S
C5214 H5227 0.961 . S
C5214 H5228 0.961 . S
C5215 C5212 1.539 . S
C5215 H5229 0.958 . S
C5215 H5230 0.961 . S
C5215 H5231 0.960 . S
H5216 C5200 0.931 . S
H5217 C5205 0.929 . S
H5218 C5206 0.960 . S
H5219 C5206 0.962 . S
H5220 C5206 0.960 . S
H5221 C5207 0.961 . S
H5222 C5207 0.961 . S
H5223 C5207 0.961 . S
H5224 C5208 0.931 . S
H5225 C5213 0.930 . S
H5226 C5214 0.956 . S
H5227 C5214 0.961 . S
H5228 C5214 0.961 . S
H5229 C5215 0.958 . S
H5230 C5215 0.961 . S
H5231 C5215 0.960 . S
C5232 C5233 1.391 . S
C5232 C5234 1.394 . S
C5232 H5248 0.931 . S
C5233 C5232 1.391 . S
C5233 C5237 1.376 . S
C5234 C5232 1.394 . S
C5234 C5235 1.369 . S
C5234 C5238 1.531 . S
C5235 C5234 1.369 . S
C5235 C5236 1.410 . S
C5235 C5243 1.503 . S
C5236 C5235 1.410 . S
C5236 C5237 1.392 . S
C5236 C5239 1.511 . S
C5237 C5233 1.376 . S
C5237 C5236 1.392 . S
C5237 H5249 0.929 . S
C5238 C5234 1.531 . S
C5238 H5250 0.960 . S
C5238 H5251 0.962 . S
C5238 H5252 0.960 . S
C5239 C5236 1.511 . S
C5239 H5253 0.961 . S
C5239 H5254 0.961 . S
C5239 H5255 0.961 . S
C5240 C5241 1.370 . S
C5240 C5242 1.363 . S
C5240 H5256 0.931 . S
C5241 C5240 1.370 . S
C5241 C5245 1.408 . S
C5242 C5240 1.363 . S
C5242 C5243 1.370 . S
C5242 C5246 1.524 . S
C5243 C5235 1.503 . S
C5243 C5242 1.370 . S
C5243 C5244 1.403 . S
C5244 C5243 1.403 . S
C5244 C5245 1.404 . S
C5244 C5247 1.539 . S
C5245 C5241 1.408 . S
C5245 C5244 1.404 . S
C5245 H5257 0.930 . S
C5246 C5242 1.524 . S
C5246 H5258 0.956 . S
C5246 H5259 0.961 . S
C5246 H5260 0.961 . S
C5247 C5244 1.539 . S
C5247 H5261 0.958 . S
C5247 H5262 0.961 . S
C5247 H5263 0.960 . S
H5248 C5232 0.931 . S
H5249 C5237 0.929 . S
H5250 C5238 0.960 . S
H5251 C5238 0.962 . S
H5252 C5238 0.960 . S
H5253 C5239 0.961 . S
H5254 C5239 0.961 . S
H5255 C5239 0.961 . S
H5256 C5240 0.931 . S
H5257 C5245 0.930 . S
H5258 C5246 0.956 . S
H5259 C5246 0.961 . S
H5260 C5246 0.961 . S
H5261 C5247 0.958 . S
H5262 C5247 0.961 . S
H5263 C5247 0.960 . S
C5264 C5265 1.391 . S
C5264 C5266 1.394 . S
C5264 H5280 0.931 . S
C5265 C5264 1.391 . S
C5265 C5269 1.376 . S
C5266 C5264 1.394 . S
C5266 C5267 1.369 . S
C5266 C5270 1.531 . S
C5267 C5266 1.369 . S
C5267 C5268 1.410 . S
C5267 C5275 1.503 . S
C5268 C5267 1.410 . S
C5268 C5269 1.392 . S
C5268 C5271 1.511 . S
C5269 C5265 1.376 . S
C5269 C5268 1.392 . S
C5269 H5281 0.929 . S
C5270 C5266 1.531 . S
C5270 H5282 0.960 . S
C5270 H5283 0.962 . S
C5270 H5284 0.960 . S
C5271 C5268 1.511 . S
C5271 H5285 0.961 . S
C5271 H5286 0.961 . S
C5271 H5287 0.961 . S
C5272 C5273 1.370 . S
C5272 C5274 1.363 . S
C5272 H5288 0.931 . S
C5273 C5272 1.370 . S
C5273 C5277 1.408 . S
C5274 C5272 1.363 . S
C5274 C5275 1.370 . S
C5274 C5278 1.524 . S
C5275 C5267 1.503 . S
C5275 C5274 1.370 . S
C5275 C5276 1.403 . S
C5276 C5275 1.403 . S
C5276 C5277 1.404 . S
C5276 C5279 1.539 . S
C5277 C5273 1.408 . S
C5277 C5276 1.404 . S
C5277 H5289 0.930 . S
C5278 C5274 1.524 . S
C5278 H5290 0.956 . S
C5278 H5291 0.961 . S
C5278 H5292 0.961 . S
C5279 C5276 1.539 . S
C5279 H5293 0.958 . S
C5279 H5294 0.961 . S
C5279 H5295 0.960 . S
H5280 C5264 0.931 . S
H5281 C5269 0.929 . S
H5282 C5270 0.960 . S
H5283 C5270 0.962 . S
H5284 C5270 0.960 . S
H5285 C5271 0.961 . S
H5286 C5271 0.961 . S
H5287 C5271 0.961 . S
H5288 C5272 0.931 . S
H5289 C5277 0.930 . S
H5290 C5278 0.956 . S
H5291 C5278 0.961 . S
H5292 C5278 0.961 . S
H5293 C5279 0.958 . S
H5294 C5279 0.961 . S
H5295 C5279 0.960 . S
C5296 C5297 1.391 . S
C5296 C5298 1.394 . S
C5296 H5312 0.931 . S
C5297 C5296 1.391 . S
C5297 C5301 1.376 . S
C5298 C5296 1.394 . S
C5298 C5299 1.369 . S
C5298 C5302 1.531 . S
C5299 C5298 1.369 . S
C5299 C5300 1.410 . S
C5299 C5307 1.503 . S
C5300 C5299 1.410 . S
C5300 C5301 1.392 . S
C5300 C5303 1.511 . S
C5301 C5297 1.376 . S
C5301 C5300 1.392 . S
C5301 H5313 0.929 . S
C5302 C5298 1.531 . S
C5302 H5314 0.960 . S
C5302 H5315 0.962 . S
C5302 H5316 0.960 . S
C5303 C5300 1.511 . S
C5303 H5317 0.961 . S
C5303 H5318 0.961 . S
C5303 H5319 0.961 . S
C5304 C5305 1.370 . S
C5304 C5306 1.363 . S
C5304 H5320 0.931 . S
C5305 C5304 1.370 . S
C5305 C5309 1.408 . S
C5306 C5304 1.363 . S
C5306 C5307 1.370 . S
C5306 C5310 1.524 . S
C5307 C5299 1.503 . S
C5307 C5306 1.370 . S
C5307 C5308 1.403 . S
C5308 C5307 1.403 . S
C5308 C5309 1.404 . S
C5308 C5311 1.539 . S
C5309 C5305 1.408 . S
C5309 C5308 1.404 . S
C5309 H5321 0.930 . S
C5310 C5306 1.524 . S
C5310 H5322 0.956 . S
C5310 H5323 0.961 . S
C5310 H5324 0.961 . S
C5311 C5308 1.539 . S
C5311 H5325 0.958 . S
C5311 H5326 0.961 . S
C5311 H5327 0.960 . S
H5312 C5296 0.931 . S
H5313 C5301 0.929 . S
H5314 C5302 0.960 . S
H5315 C5302 0.962 . S
H5316 C5302 0.960 . S
H5317 C5303 0.961 . S
H5318 C5303 0.961 . S
H5319 C5303 0.961 . S
H5320 C5304 0.931 . S
H5321 C5309 0.930 . S
H5322 C5310 0.956 . S
H5323 C5310 0.961 . S
H5324 C5310 0.961 . S
H5325 C5311 0.958 . S
H5326 C5311 0.961 . S
H5327 C5311 0.960 . S
C5328 C5329 1.391 . S
C5328 C5330 1.394 . S
C5328 H5344 0.931 . S
C5329 C5328 1.391 . S
C5329 C5333 1.376 . S
C5330 C5328 1.394 . S
C5330 C5331 1.369 . S
C5330 C5334 1.531 . S
C5331 C5330 1.369 . S
C5331 C5332 1.410 . S
C5331 C5339 1.503 . S
C5332 C5331 1.410 . S
C5332 C5333 1.392 . S
C5332 C5335 1.511 . S
C5333 C5329 1.376 . S
C5333 C5332 1.392 . S
C5333 H5345 0.929 . S
C5334 C5330 1.531 . S
C5334 H5346 0.960 . S
C5334 H5347 0.962 . S
C5334 H5348 0.960 . S
C5335 C5332 1.511 . S
C5335 H5349 0.961 . S
C5335 H5350 0.961 . S
C5335 H5351 0.961 . S
C5336 C5337 1.370 . S
C5336 C5338 1.363 . S
C5336 H5352 0.931 . S
C5337 C5336 1.370 . S
C5337 C5341 1.408 . S
C5338 C5336 1.363 . S
C5338 C5339 1.370 . S
C5338 C5342 1.524 . S
C5339 C5331 1.503 . S
C5339 C5338 1.370 . S
C5339 C5340 1.403 . S
C5340 C5339 1.403 . S
C5340 C5341 1.404 . S
C5340 C5343 1.539 . S
C5341 C5337 1.408 . S
C5341 C5340 1.404 . S
C5341 H5353 0.930 . S
C5342 C5338 1.524 . S
C5342 H5354 0.956 . S
C5342 H5355 0.961 . S
C5342 H5356 0.961 . S
C5343 C5340 1.539 . S
C5343 H5357 0.958 . S
C5343 H5358 0.961 . S
C5343 H5359 0.960 . S
H5344 C5328 0.931 . S
H5345 C5333 0.929 . S
H5346 C5334 0.960 . S
H5347 C5334 0.962 . S
H5348 C5334 0.960 . S
H5349 C5335 0.961 . S
H5350 C5335 0.961 . S
H5351 C5335 0.961 . S
H5352 C5336 0.931 . S
H5353 C5341 0.930 . S
H5354 C5342 0.956 . S
H5355 C5342 0.961 . S
H5356 C5342 0.961 . S
H5357 C5343 0.958 . S
H5358 C5343 0.961 . S
H5359 C5343 0.960 . S
C5360 C5361 1.391 . S
C5360 C5362 1.394 . S
C5360 H5376 0.931 . S
C5361 C5360 1.391 . S
C5361 C5365 1.376 . S
C5362 C5360 1.394 . S
C5362 C5363 1.369 . S
C5362 C5366 1.531 . S
C5363 C5362 1.369 . S
C5363 C5364 1.410 . S
C5363 C5371 1.503 . S
C5364 C5363 1.410 . S
C5364 C5365 1.392 . S
C5364 C5367 1.511 . S
C5365 C5361 1.376 . S
C5365 C5364 1.392 . S
C5365 H5377 0.929 . S
C5366 C5362 1.531 . S
C5366 H5378 0.960 . S
C5366 H5379 0.962 . S
C5366 H5380 0.960 . S
C5367 C5364 1.511 . S
C5367 H5381 0.961 . S
C5367 H5382 0.961 . S
C5367 H5383 0.961 . S
C5368 C5369 1.370 . S
C5368 C5370 1.363 . S
C5368 H5384 0.931 . S
C5369 C5368 1.370 . S
C5369 C5373 1.408 . S
C5370 C5368 1.363 . S
C5370 C5371 1.370 . S
C5370 C5374 1.524 . S
C5371 C5363 1.503 . S
C5371 C5370 1.370 . S
C5371 C5372 1.403 . S
C5372 C5371 1.403 . S
C5372 C5373 1.404 . S
C5372 C5375 1.539 . S
C5373 C5369 1.408 . S
C5373 C5372 1.404 . S
C5373 H5385 0.930 . S
C5374 C5370 1.524 . S
C5374 H5386 0.956 . S
C5374 H5387 0.961 . S
C5374 H5388 0.961 . S
C5375 C5372 1.539 . S
C5375 H5389 0.958 . S
C5375 H5390 0.961 . S
C5375 H5391 0.960 . S
H5376 C5360 0.931 . S
H5377 C5365 0.929 . S
H5378 C5366 0.960 . S
H5379 C5366 0.962 . S
H5380 C5366 0.960 . S
H5381 C5367 0.961 . S
H5382 C5367 0.961 . S
H5383 C5367 0.961 . S
H5384 C5368 0.931 . S
H5385 C5373 0.930 . S
H5386 C5374 0.956 . S
H5387 C5374 0.961 . S
H5388 C5374 0.961 . S
H5389 C5375 0.958 . S
H5390 C5375 0.961 . S
H5391 C5375 0.960 . S
C5392 C5393 1.391 . S
C5392 C5394 1.394 . S
C5392 H5408 0.931 . S
C5393 C5392 1.391 . S
C5393 C5397 1.376 . S
C5394 C5392 1.394 . S
C5394 C5395 1.369 . S
C5394 C5398 1.531 . S
C5395 C5394 1.369 . S
C5395 C5396 1.410 . S
C5395 C5403 1.503 . S
C5396 C5395 1.410 . S
C5396 C5397 1.392 . S
C5396 C5399 1.511 . S
C5397 C5393 1.376 . S
C5397 C5396 1.392 . S
C5397 H5409 0.929 . S
C5398 C5394 1.531 . S
C5398 H5410 0.960 . S
C5398 H5411 0.962 . S
C5398 H5412 0.960 . S
C5399 C5396 1.511 . S
C5399 H5413 0.961 . S
C5399 H5414 0.961 . S
C5399 H5415 0.961 . S
C5400 C5401 1.370 . S
C5400 C5402 1.363 . S
C5400 H5416 0.931 . S
C5401 C5400 1.370 . S
C5401 C5405 1.408 . S
C5402 C5400 1.363 . S
C5402 C5403 1.370 . S
C5402 C5406 1.524 . S
C5403 C5395 1.503 . S
C5403 C5402 1.370 . S
C5403 C5404 1.403 . S
C5404 C5403 1.403 . S
C5404 C5405 1.404 . S
C5404 C5407 1.539 . S
C5405 C5401 1.408 . S
C5405 C5404 1.404 . S
C5405 H5417 0.930 . S
C5406 C5402 1.524 . S
C5406 H5418 0.956 . S
C5406 H5419 0.961 . S
C5406 H5420 0.961 . S
C5407 C5404 1.539 . S
C5407 H5421 0.958 . S
C5407 H5422 0.961 . S
C5407 H5423 0.960 . S
H5408 C5392 0.931 . S
H5409 C5397 0.929 . S
H5410 C5398 0.960 . S
H5411 C5398 0.962 . S
H5412 C5398 0.960 . S
H5413 C5399 0.961 . S
H5414 C5399 0.961 . S
H5415 C5399 0.961 . S
H5416 C5400 0.931 . S
H5417 C5405 0.930 . S
H5418 C5406 0.956 . S
H5419 C5406 0.961 . S
H5420 C5406 0.961 . S
H5421 C5407 0.958 . S
H5422 C5407 0.961 . S
H5423 C5407 0.960 . S
C5424 C5425 1.391 . S
C5424 C5426 1.394 . S
C5424 H5440 0.931 . S
C5425 C5424 1.391 . S
C5425 C5429 1.376 . S
C5426 C5424 1.394 . S
C5426 C5427 1.369 . S
C5426 C5430 1.531 . S
C5427 C5426 1.369 . S
C5427 C5428 1.410 . S
C5427 C5435 1.503 . S
C5428 C5427 1.410 . S
C5428 C5429 1.392 . S
C5428 C5431 1.511 . S
C5429 C5425 1.376 . S
C5429 C5428 1.392 . S
C5429 H5441 0.929 . S
C5430 C5426 1.531 . S
C5430 H5442 0.960 . S
C5430 H5443 0.962 . S
C5430 H5444 0.960 . S
C5431 C5428 1.511 . S
C5431 H5445 0.961 . S
C5431 H5446 0.961 . S
C5431 H5447 0.961 . S
C5432 C5433 1.370 . S
C5432 C5434 1.363 . S
C5432 H5448 0.931 . S
C5433 C5432 1.370 . S
C5433 C5437 1.408 . S
C5434 C5432 1.363 . S
C5434 C5435 1.370 . S
C5434 C5438 1.524 . S
C5435 C5427 1.503 . S
C5435 C5434 1.370 . S
C5435 C5436 1.403 . S
C5436 C5435 1.403 . S
C5436 C5437 1.404 . S
C5436 C5439 1.539 . S
C5437 C5433 1.408 . S
C5437 C5436 1.404 . S
C5437 H5449 0.930 . S
C5438 C5434 1.524 . S
C5438 H5450 0.956 . S
C5438 H5451 0.961 . S
C5438 H5452 0.961 . S
C5439 C5436 1.539 . S
C5439 H5453 0.958 . S
C5439 H5454 0.961 . S
C5439 H5455 0.960 . S
H5440 C5424 0.931 . S
H5441 C5429 0.929 . S
H5442 C5430 0.960 . S
H5443 C5430 0.962 . S
H5444 C5430 0.960 . S
H5445 C5431 0.961 . S
H5446 C5431 0.961 . S
H5447 C5431 0.961 . S
H5448 C5432 0.931 . S
H5449 C5437 0.930 . S
H5450 C5438 0.956 . S
H5451 C5438 0.961 . S
H5452 C5438 0.961 . S
H5453 C5439 0.958 . S
H5454 C5439 0.961 . S
H5455 C5439 0.960 . S
C2393 C1281 1.550 . S
C2385 C21 1.526 . S
C2425 C1348 1.431 . S
C2417 C42 1.411 . S
C2449 C82 1.509 . S
C2457 C1373 1.531 . S
C2489 C1433 1.490 . S
C2481 C135 1.488 . S
C2513 C175 1.416 . S
C2521 C1426 1.420 . S
C2545 C221 1.529 . S
C2553 C1302 1.545 . S
C2577 C255 1.475 . S
C2585 C1327 1.480 . S
C2617 C1394 1.562 . S
C2609 C301 1.535 . S
C2649 C1486 1.519 . S
C2641 C15 1.514 . S
C2673 C55 1.426 . S
C2681 C1525 1.428 . S
C2705 C101 1.538 . S
C2713 C1578 1.555 . S
C2745 C1603 1.503 . S
C2737 C141 1.501 . S
C2769 C162 1.436 . S
C2777 C1663 1.451 . S
C2809 C1716 1.515 . S
C2801 C215 1.512 . S
C2833 C261 1.474 . S
C2841 C1755 1.505 . S
C2873 C1794 1.524 . S
C2865 C282 1.489 . S
C2897 C2 1.524 . S
C2905 C1624 1.532 . S
C2929 C181 1.411 . S
C2937 C1695 1.436 . S
C2969 C1748 1.544 . S
C2961 C202 1.545 . S
C2993 C242 1.487 . S
C3001 C1801 1.506 . S
C3033 C1656 1.513 . S
C3025 C295 1.505 . S
C3065 C1518 1.522 . S
C3057 C95 1.518 . S
C3089 C122 1.492 . S
C3097 C1557 1.500 . S
C3129 C1465 1.446 . S
C3121 C61 1.438 . S
C3161 C1833 1.551 . S
C3153 C341 1.530 . S
C3185 C362 1.413 . S
C3193 C1879 1.429 . S
C3217 C402 1.524 . S
C3225 C1946 1.528 . S
C3257 C1992 1.493 . S
C3249 C455 1.487 . S
C3281 C495 1.418 . S
C3289 C1971 1.416 . S
C3313 C541 1.529 . S
C3321 C1854 1.542 . S
C3345 C575 1.476 . S
C3353 C1900 1.478 . S
C3377 C621 1.549 . S
C3385 C1925 1.564 . S
C3417 C1670 1.517 . S
C3409 C335 1.513 . S
C3441 C375 1.426 . S
C3449 C2031 1.428 . S
C3481 C1762 1.553 . S
C3473 C421 1.553 . S
C3505 C461 1.470 . S
C3513 C2063 1.501 . S
C3537 C482 1.430 . S
C3545 C1479 1.452 . S
C3577 C2130 1.515 . S
C3569 C535 1.512 . S
C3601 C581 1.471 . S
C3609 C1571 1.504 . S
C3641 C2162 1.523 . S
C3633 C602 1.486 . S
C3665 C322 1.531 . S
C3673 C2084 1.531 . S
C3705 C2109 1.433 . S
C3697 C501 1.431 . S
C3729 C522 1.545 . S
C3737 C1564 1.544 . S
C3769 C2169 1.507 . S
C3761 C562 1.498 . S
C3793 C615 1.505 . S
C3801 C1472 1.512 . S
C3825 C415 1.520 . S
C3833 C2024 1.523 . S
C3857 C442 1.470 . S
C3865 C1741 1.497 . S
C3889 C381 1.435 . S
C3897 C1649 1.447 . S
C3921 C661 1.530 . S
C3929 C1939 1.550 . S
C3961 C1985 1.432 . S
C3953 C682 1.426 . S
C3985 C722 1.512 . S
C3993 C1840 1.531 . S
C4017 C775 1.486 . S
C4025 C1886 1.492 . S
C4049 C815 1.416 . S
C4057 C1893 1.421 . S
C4081 C861 1.537 . S
C4089 C1932 1.545 . S
C4121 C1978 1.481 . S
C4113 C895 1.476 . S
C4145 C941 1.546 . S
C4153 C1847 1.563 . S
C4185 C2201 1.519 . S
C4177 C655 1.515 . S
C4209 C695 1.428 . S
C4217 C1709 1.431 . S
C4249 C2247 1.553 . S
C4241 C741 1.545 . S
C4273 C781 1.499 . S
C4281 C1787 1.503 . S
C4305 C802 1.447 . S
C4313 C2314 1.451 . S
C4337 C855 1.513 . S
C4345 C1532 1.516 . S
C4377 C2346 1.503 . S
C4369 C901 1.476 . S
C4401 C922 1.490 . S
C4409 C1610 1.524 . S
C4441 C1808 1.532 . S
C4433 C642 1.519 . S
C4473 C1511 1.436 . S
C4465 C821 1.427 . S
C4497 C842 1.526 . S
C4505 C2353 1.547 . S
C4529 C882 1.474 . S
C4537 C1617 1.506 . S
C4569 C2293 1.510 . S
C4561 C935 1.511 . S
C4601 C1702 1.523 . S
C4593 C735 1.519 . S
C4633 C2268 1.499 . S
C4625 C762 1.474 . S
C4665 C2222 1.444 . S
C4657 C701 1.415 . S
C4689 C981 1.526 . S
C4697 C1380 1.550 . S
C4721 C1002 1.426 . S
C4729 C1440 1.433 . S
C4761 C1288 1.531 . S
C4753 C1042 1.508 . S
C4793 C1341 1.494 . S
C4785 C1095 1.489 . S
C4825 C1334 1.418 . S
C4817 C1135 1.418 . S
C4857 C1387 1.541 . S
C4849 C1181 1.537 . S
C4889 C1419 1.480 . S
C4881 C1215 1.475 . S
C4913 C1261 1.528 . S
C4921 C1295 1.562 . S
C4945 C975 1.516 . S
C4953 C2307 1.518 . S
C4985 C2123 1.432 . S
C4977 C1015 1.429 . S
C5017 C2339 1.554 . S
C5009 C1061 1.551 . S
C5049 C2155 1.501 . S
C5041 C1101 1.468 . S
C5073 C1122 1.449 . S
C5081 C2208 1.453 . S
C5113 C2038 1.515 . S
C5105 C1175 1.512 . S
C5145 C2254 1.503 . S
C5137 C1221 1.472 . S
C5169 C1242 1.489 . S
C5177 C2070 1.524 . S
C5209 C2176 1.530 . S
C5201 C962 1.528 . S
C5241 C2017 1.436 . S
C5233 C1141 1.410 . S
C5273 C2261 1.544 . S
C5265 C1162 1.542 . S
C5297 C1202 1.486 . S
C5305 C2077 1.506 . S
C5329 C1255 1.512 . S
C5337 C2215 1.514 . S
C5361 C1055 1.518 . S
C5369 C2116 1.520 . S
C5393 C1082 1.465 . S
C5401 C2360 1.498 . S
C5433 C2300 1.444 . S
C5425 C1021 1.415 . S
