# Generated by pormake.
# Topology eea, (3,6)-cn, num edge types: 1
# Building blocks:
#     Node 0, Type 0, BuildingBlock: ESEHIV_clean_linker_0, # of connection points: 3
#     Node 1, Type 0, BuildingBlock: ESEHIV_clean_linker_0, # of connection points: 3
#     Node 2, Type 0, BuildingBlock: ESEHIV_clean_linker_0, # of connection points: 3
#     Node 3, Type 0, BuildingBlock: ESEHIV_clean_linker_0, # of connection points: 3
#     Node 4, Type 0, BuildingBlock: ESEHIV_clean_linker_0, # of connection points: 3
#     Node 5, Type 0, BuildingBlock: ESEHIV_clean_linker_0, # of connection points: 3
#     Node 6, Type 0, BuildingBlock: ESEHIV_clean_linker_0, # of connection points: 3
#     Node 7, Type 0, BuildingBlock: ESEHIV_clean_linker_0, # of connection points: 3
#     Node 8, Type 0, BuildingBlock: ESEHIV_clean_linker_0, # of connection points: 3
#     Node 9, Type 0, BuildingBlock: ESEHIV_clean_linker_0, # of connection points: 3
#     Node 10, Type 0, BuildingBlock: ESEHIV_clean_linker_0, # of connection points: 3
#     Node 11, Type 0, BuildingBlock: ESEHIV_clean_linker_0, # of connection points: 3
#     Node 12, Type 0, BuildingBlock: ESEHIV_clean_linker_0, # of connection points: 3
#     Node 13, Type 0, BuildingBlock: ESEHIV_clean_linker_0, # of connection points: 3
#     Node 14, Type 0, BuildingBlock: ESEHIV_clean_linker_0, # of connection points: 3
#     Node 15, Type 0, BuildingBlock: ESEHIV_clean_linker_0, # of connection points: 3
#     Node 16, Type 0, BuildingBlock: ESEHIV_clean_linker_0, # of connection points: 3
#     Node 17, Type 0, BuildingBlock: ESEHIV_clean_linker_0, # of connection points: 3
#     Node 18, Type 1, BuildingBlock: KUMJIN_clean_sbu_0, # of connection points: 6
#     Node 19, Type 1, BuildingBlock: KUMJIN_clean_sbu_0, # of connection points: 6
#     Node 20, Type 1, BuildingBlock: KUMJIN_clean_sbu_0, # of connection points: 6
#     Node 21, Type 1, BuildingBlock: KUMJIN_clean_sbu_0, # of connection points: 6
#     Node 22, Type 1, BuildingBlock: KUMJIN_clean_sbu_0, # of connection points: 6
#     Node 23, Type 1, BuildingBlock: KUMJIN_clean_sbu_0, # of connection points: 6
#     Node 24, Type 1, BuildingBlock: KUMJIN_clean_sbu_0, # of connection points: 6
#     Node 25, Type 1, BuildingBlock: KUMJIN_clean_sbu_0, # of connection points: 6
#     Node 26, Type 1, BuildingBlock: KUMJIN_clean_sbu_0, # of connection points: 6
#     Edge 27, Type (0, 1), BuildingBlock: UVAHIK_clean_linker_0, # of connection points: 2
#     Edge 28, Type (0, 1), BuildingBlock: UVAHIK_clean_linker_0, # of connection points: 2
#     Edge 29, Type (0, 1), BuildingBlock: UVAHIK_clean_linker_0, # of connection points: 2
#     Edge 30, Type (0, 1), BuildingBlock: UVAHIK_clean_linker_0, # of connection points: 2
#     Edge 31, Type (0, 1), BuildingBlock: UVAHIK_clean_linker_0, # of connection points: 2
#     Edge 32, Type (0, 1), BuildingBlock: UVAHIK_clean_linker_0, # of connection points: 2
#     Edge 33, Type (0, 1), BuildingBlock: UVAHIK_clean_linker_0, # of connection points: 2
#     Edge 34, Type (0, 1), BuildingBlock: UVAHIK_clean_linker_0, # of connection points: 2
#     Edge 35, Type (0, 1), BuildingBlock: UVAHIK_clean_linker_0, # of connection points: 2
#     Edge 36, Type (0, 1), BuildingBlock: UVAHIK_clean_linker_0, # of connection points: 2
#     Edge 37, Type (0, 1), BuildingBlock: UVAHIK_clean_linker_0, # of connection points: 2
#     Edge 38, Type (0, 1), BuildingBlock: UVAHIK_clean_linker_0, # of connection points: 2
#     Edge 39, Type (0, 1), BuildingBlock: UVAHIK_clean_linker_0, # of connection points: 2
#     Edge 40, Type (0, 1), BuildingBlock: UVAHIK_clean_linker_0, # of connection points: 2
#     Edge 41, Type (0, 1), BuildingBlock: UVAHIK_clean_linker_0, # of connection points: 2
#     Edge 42, Type (0, 1), BuildingBlock: UVAHIK_clean_linker_0, # of connection points: 2
#     Edge 43, Type (0, 1), BuildingBlock: UVAHIK_clean_linker_0, # of connection points: 2
#     Edge 44, Type (0, 1), BuildingBlock: UVAHIK_clean_linker_0, # of connection points: 2
#     Edge 45, Type (0, 1), BuildingBlock: UVAHIK_clean_linker_0, # of connection points: 2
#     Edge 46, Type (0, 1), BuildingBlock: UVAHIK_clean_linker_0, # of connection points: 2
#     Edge 47, Type (0, 1), BuildingBlock: UVAHIK_clean_linker_0, # of connection points: 2
#     Edge 48, Type (0, 1), BuildingBlock: UVAHIK_clean_linker_0, # of connection points: 2
#     Edge 49, Type (0, 1), BuildingBlock: UVAHIK_clean_linker_0, # of connection points: 2
#     Edge 50, Type (0, 1), BuildingBlock: UVAHIK_clean_linker_0, # of connection points: 2
#     Edge 51, Type (0, 1), BuildingBlock: UVAHIK_clean_linker_0, # of connection points: 2
#     Edge 52, Type (0, 1), BuildingBlock: UVAHIK_clean_linker_0, # of connection points: 2
#     Edge 53, Type (0, 1), BuildingBlock: UVAHIK_clean_linker_0, # of connection points: 2
#     Edge 54, Type (0, 1), BuildingBlock: UVAHIK_clean_linker_0, # of connection points: 2
#     Edge 55, Type (0, 1), BuildingBlock: UVAHIK_clean_linker_0, # of connection points: 2
#     Edge 56, Type (0, 1), BuildingBlock: UVAHIK_clean_linker_0, # of connection points: 2
#     Edge 57, Type (0, 1), BuildingBlock: UVAHIK_clean_linker_0, # of connection points: 2
#     Edge 58, Type (0, 1), BuildingBlock: UVAHIK_clean_linker_0, # of connection points: 2
#     Edge 59, Type (0, 1), BuildingBlock: UVAHIK_clean_linker_0, # of connection points: 2
#     Edge 60, Type (0, 1), BuildingBlock: UVAHIK_clean_linker_0, # of connection points: 2
#     Edge 61, Type (0, 1), BuildingBlock: UVAHIK_clean_linker_0, # of connection points: 2
#     Edge 62, Type (0, 1), BuildingBlock: UVAHIK_clean_linker_0, # of connection points: 2
#     Edge 63, Type (0, 1), BuildingBlock: UVAHIK_clean_linker_0, # of connection points: 2
#     Edge 64, Type (0, 1), BuildingBlock: UVAHIK_clean_linker_0, # of connection points: 2
#     Edge 65, Type (0, 1), BuildingBlock: UVAHIK_clean_linker_0, # of connection points: 2
#     Edge 66, Type (0, 1), BuildingBlock: UVAHIK_clean_linker_0, # of connection points: 2
#     Edge 67, Type (0, 1), BuildingBlock: UVAHIK_clean_linker_0, # of connection points: 2
#     Edge 68, Type (0, 1), BuildingBlock: UVAHIK_clean_linker_0, # of connection points: 2
#     Edge 69, Type (0, 1), BuildingBlock: UVAHIK_clean_linker_0, # of connection points: 2
#     Edge 70, Type (0, 1), BuildingBlock: UVAHIK_clean_linker_0, # of connection points: 2
#     Edge 71, Type (0, 1), BuildingBlock: UVAHIK_clean_linker_0, # of connection points: 2
#     Edge 72, Type (0, 1), BuildingBlock: UVAHIK_clean_linker_0, # of connection points: 2
#     Edge 73, Type (0, 1), BuildingBlock: UVAHIK_clean_linker_0, # of connection points: 2
#     Edge 74, Type (0, 1), BuildingBlock: UVAHIK_clean_linker_0, # of connection points: 2
#     Edge 75, Type (0, 1), BuildingBlock: UVAHIK_clean_linker_0, # of connection points: 2
#     Edge 76, Type (0, 1), BuildingBlock: UVAHIK_clean_linker_0, # of connection points: 2
#     Edge 77, Type (0, 1), BuildingBlock: UVAHIK_clean_linker_0, # of connection points: 2
#     Edge 78, Type (0, 1), BuildingBlock: UVAHIK_clean_linker_0, # of connection points: 2
#     Edge 79, Type (0, 1), BuildingBlock: UVAHIK_clean_linker_0, # of connection points: 2
#     Edge 80, Type (0, 1), BuildingBlock: UVAHIK_clean_linker_0, # of connection points: 2
# Relax obj value: 0.009
# Max RMSD: 0.095
# Mean RMSD: 0.062
data_MOF--net-eea--node1-KUMJIN_clean_sbu_0--node2-ESEHIV_clean_linker_0--edge1-UVAHIK_clean_linker_0
_symmetry_space_group_name_H-M    P1
_symmetry_Int_Tables_number       1
_symmetry_cell_setting            triclinic
loop_
_symmetry_equiv_pos_as_xyz
'x, y, z'
_cell_length_a     62.937845
_cell_length_b     64.254954
_cell_length_c     89.440013
_cell_angle_alpha  90.125931
_cell_angle_beta   90.205593
_cell_angle_gamma 119.92599
loop_
_atom_site_label
_atom_site_type_symbol
_atom_site_fract_x
_atom_site_fract_y
_atom_site_fract_z
_atom_type_partial_charge
H0 H 0.2592 0.16092 0.44343 0.0
H1 H 0.26292 0.09592 0.44167 0.0
H2 H 0.22644 0.11182 0.40659 0.0
C3 C 0.25499 0.14433 0.43782 0.0
C4 C 0.24193 0.13822 0.42423 0.0
C5 C 0.26263 0.12916 0.44422 0.0
C6 C 0.2571 0.10771 0.43681 0.0
C7 C 0.24404 0.10127 0.42323 0.0
C8 C 0.23654 0.11665 0.41706 0.0
H9 H 0.85122 0.09401 0.44071 0.0
H10 H 0.91791 0.16223 0.44074 0.0
H11 H 0.90042 0.11415 0.40336 0.0
C12 C 0.86831 0.10658 0.43539 0.0
C13 C 0.87392 0.10115 0.42122 0.0
C14 C 0.88409 0.12846 0.4426 0.0
C15 C 0.90553 0.14535 0.43527 0.0
C16 C 0.91148 0.1403 0.42108 0.0
C17 C 0.89574 0.11809 0.41424 0.0
H18 H 0.84809 0.76197 0.43797 0.0
H19 H 0.91659 0.76237 0.43802 0.0
H20 H 0.89644 0.79095 0.40046 0.0
C21 C 0.86505 0.76601 0.43249 0.0
C22 C 0.87007 0.77656 0.41824 0.0
C23 C 0.88187 0.76114 0.43985 0.0
C24 C 0.90402 0.76697 0.43267 0.0
C25 C 0.90958 0.77772 0.41842 0.0
C26 C 0.89249 0.78263 0.41138 0.0
H27 H 0.08994 0.23887 0.57432 0.0
H28 H 0.1576 0.23749 0.57498 0.0
H29 H 0.10876 0.21047 0.61248 0.0
C30 C 0.10245 0.23439 0.57988 0.0
C31 C 0.09651 0.22382 0.59417 0.0
C32 C 0.12447 0.23947 0.57281 0.0
C33 C 0.14072 0.23397 0.58035 0.0
C34 C 0.13523 0.22347 0.59462 0.0
C35 C 0.1129 0.21813 0.60136 0.0
H36 H 0.73954 0.90278 0.5725 0.0
H37 H 0.73674 0.83458 0.57271 0.0
H38 H 0.76793 0.88282 0.61019 0.0
C39 C 0.74314 0.88989 0.57808 0.0
C40 C 0.75415 0.89525 0.5923 0.0
C41 C 0.73689 0.86808 0.57094 0.0
C42 C 0.74163 0.85145 0.5782 0.0
C43 C 0.75297 0.85664 0.59235 0.0
C44 C 0.7591 0.87858 0.59931 0.0
H45 H 0.08539 0.8371 0.57242 0.0
H46 H 0.15255 0.90475 0.57186 0.0
H47 H 0.1041 0.88619 0.60944 0.0
C48 C 0.09779 0.85411 0.57774 0.0
C49 C 0.09234 0.85937 0.59203 0.0
C50 C 0.11919 0.87068 0.57023 0.0
C51 C 0.13551 0.89246 0.57733 0.0
C52 C 0.13044 0.89816 0.59157 0.0
C53 C 0.10864 0.8816 0.59872 0.0
H54 H 0.93429 0.49783 0.77293 0.0
H55 H 0.93392 0.43058 0.77275 0.0
H56 H 0.90074 0.44804 0.7365 0.0
C57 C 0.92944 0.48083 0.76765 0.0
C58 C 0.91659 0.47469 0.75399 0.0
C59 C 0.93581 0.46502 0.77455 0.0
C60 C 0.92934 0.44303 0.76751 0.0
C61 C 0.91691 0.43692 0.75373 0.0
C62 C 0.91055 0.4528 0.74707 0.0
H63 H 0.51947 0.42791 0.77407 0.0
H64 H 0.58598 0.49635 0.77255 0.0
H65 H 0.56512 0.44786 0.73508 0.0
C66 C 0.53583 0.44076 0.7682 0.0
C67 C 0.54037 0.43515 0.7538 0.0
C68 C 0.55211 0.46278 0.77508 0.0
C69 C 0.57314 0.47944 0.76729 0.0
C70 C 0.57813 0.47401 0.75293 0.0
C71 C 0.56167 0.45183 0.7463 0.0
H72 H 0.51422 0.08874 0.77408 0.0
H73 H 0.582 0.08782 0.77226 0.0
H74 H 0.56068 0.11666 0.73548 0.0
C75 C 0.53091 0.09282 0.76824 0.0
C76 C 0.5354 0.10347 0.75399 0.0
C77 C 0.54758 0.08706 0.77492 0.0
C78 C 0.56898 0.09203 0.76713 0.0
C79 C 0.57405 0.10296 0.75296 0.0
C80 C 0.55724 0.10882 0.74655 0.0
H81 H 0.755 0.57265 0.90794 0.0
H82 H 0.82126 0.56891 0.90713 0.0
H83 H 0.77291 0.54143 0.94494 0.0
C84 C 0.76721 0.56745 0.91316 0.0
C85 C 0.76141 0.55659 0.92734 0.0
C86 C 0.7887 0.57185 0.90572 0.0
C87 C 0.80453 0.56529 0.91273 0.0
C88 C 0.79912 0.55428 0.92688 0.0
C89 C 0.77737 0.54988 0.93405 0.0
H90 H 0.39878 0.23299 0.90847 0.0
H91 H 0.39729 0.16545 0.90959 0.0
H92 H 0.42927 0.21526 0.94617 0.0
C93 C 0.40315 0.2207 0.91415 0.0
C94 C 0.4145 0.22675 0.92828 0.0
C95 C 0.39708 0.19873 0.9073 0.0
C96 C 0.40195 0.18243 0.91485 0.0
C97 C 0.41333 0.18817 0.92898 0.0
C98 C 0.41958 0.21037 0.93557 0.0
H99 H 0.7569 0.16738 0.90561 0.0
H100 H 0.82506 0.23429 0.90526 0.0
H101 H 0.77598 0.21666 0.94248 0.0
C102 C 0.76977 0.18418 0.91099 0.0
C103 C 0.76412 0.18996 0.92504 0.0
C104 C 0.79146 0.2004 0.9036 0.0
C105 C 0.80785 0.22223 0.91065 0.0
C106 C 0.80254 0.22835 0.92469 0.0
C107 C 0.78048 0.21212 0.93172 0.0
H108 H 0.61478 0.84098 0.09977 0.0
H109 H 0.61167 0.77261 0.10195 0.0
H110 H 0.58178 0.79001 0.06388 0.0
C111 C 0.60951 0.82361 0.09489 0.0
C112 C 0.59815 0.81758 0.08074 0.0
C113 C 0.61448 0.80746 0.10264 0.0
C114 C 0.60798 0.78517 0.09603 0.0
C115 C 0.59641 0.77878 0.08197 0.0
C116 C 0.59156 0.79512 0.07446 0.0
H117 H 0.184 0.76185 0.10624 0.0
H118 H 0.25024 0.83061 0.10452 0.0
H119 H 0.23026 0.78149 0.06751 0.0
C120 C 0.20035 0.77471 0.10037 0.0
C121 C 0.20507 0.76897 0.08605 0.0
C122 C 0.21652 0.79684 0.1072 0.0
C123 C 0.23749 0.81354 0.09938 0.0
C124 C 0.24265 0.80788 0.08515 0.0
C125 C 0.22647 0.78559 0.07861 0.0
H126 H 0.18072 0.42593 0.10595 0.0
H127 H 0.24967 0.4273 0.10576 0.0
H128 H 0.22848 0.45484 0.06811 0.0
C129 C 0.1978 0.43044 0.10044 0.0
C130 C 0.20248 0.4407 0.08611 0.0
C131 C 0.21482 0.42576 0.10768 0.0
C132 C 0.23674 0.4313 0.10031 0.0
C133 C 0.24203 0.44189 0.08601 0.0
C134 C 0.22475 0.44667 0.07908 0.0
H135 H 0.42048 0.90499 0.2399 0.0
H136 H 0.48731 0.90225 0.23934 0.0
H137 H 0.43916 0.87504 0.27724 0.0
C138 C 0.43289 0.90011 0.2452 0.0
C139 C 0.42729 0.88954 0.25947 0.0
C140 C 0.45444 0.90463 0.23779 0.0
C141 C 0.47053 0.89852 0.24491 0.0
C142 C 0.46531 0.88783 0.25916 0.0
C143 C 0.44348 0.88327 0.26629 0.0
H144 H 0.07813 0.57123 0.23727 0.0
H145 H 0.08216 0.50644 0.23595 0.0
H146 H 0.11178 0.5544 0.27362 0.0
C147 C 0.08399 0.55958 0.2423 0.0
C148 C 0.09586 0.56561 0.25627 0.0
C149 C 0.07896 0.53828 0.23491 0.0
C150 C 0.08564 0.5227 0.24173 0.0
C151 C 0.09752 0.52839 0.25572 0.0
C152 C 0.10258 0.5499 0.26286 0.0
H153 H 0.41794 0.50328 0.23928 0.0
H154 H 0.48424 0.57163 0.23826 0.0
H155 H 0.43615 0.55277 0.27603 0.0
C156 C 0.43013 0.52044 0.24449 0.0
C157 C 0.42466 0.52574 0.25877 0.0
C158 C 0.4513 0.53719 0.23687 0.0
C159 C 0.46736 0.55918 0.24382 0.0
C160 C 0.46226 0.56492 0.25804 0.0
C161 C 0.4407 0.54817 0.26532 0.0
Eu162 Eu 0.49127 0.98342 0.98521 0.0
C163 C 0.54994 0.07056 0.02515 0.0
C164 C 0.59083 0.07664 0.02195 0.0
C165 C 0.58521 0.1109 0.02644 0.0
C166 C 0.5652 0.06132 0.02245 0.0
C167 C 0.55981 0.09537 0.02768 0.0
C168 C 0.6007 0.10154 0.02356 0.0
C169 C 0.51919 0.08721 0.03435 0.0
N170 N 0.52559 0.05503 0.02647 0.0
C171 C 0.51039 0.06275 0.03187 0.0
C172 C 0.54396 0.10367 0.03199 0.0
Eu173 Eu 0.51173 0.01388 0.02169 0.0
N174 N 0.55505 0.0372 0.021 0.0
C175 C 0.56956 0.02704 0.01997 0.0
C176 C 0.60578 0.06641 0.02024 0.0
C177 C 0.59509 0.04147 0.01949 0.0
H178 H 0.49126 0.04997 0.03381 0.0
H179 H 0.60649 0.03334 0.01841 0.0
H180 H 0.62032 0.11363 0.02301 0.0
H181 H 0.50692 0.09333 0.03815 0.0
H182 H 0.56154 0.00783 0.01926 0.0
H183 H 0.43625 0.0021 0.94589 0.0
H184 H 0.62554 0.07755 0.01978 0.0
H185 H 0.47574 0.92949 1.00039 0.0
H186 H 0.47431 0.00732 0.95761 0.0
H187 H 0.43876 0.89095 0.00542 0.0
H188 H 0.59312 0.13006 0.02816 0.0
H189 H 0.39602 0.96844 0.95368 0.0
H190 H 0.3726 0.93028 0.96834 0.0
H191 H 0.55081 0.1226 0.03405 0.0
H192 H 0.3734 0.89956 0.98433 0.0
N193 N 0.45559 0.9785 0.97281 0.0
C194 C 0.45674 0.99301 0.9613 0.0
C195 C 0.41263 0.97097 0.95902 0.0
C196 C 0.41185 0.95456 0.96958 0.0
C197 C 0.43528 0.98996 0.95458 0.0
C198 C 0.43403 0.95868 0.97617 0.0
H199 H 0.39807 0.8843 0.99766 0.0
N200 N 0.45656 0.9452 0.99008 0.0
C201 C 0.43727 0.90504 0.99975 0.0
C202 C 0.43454 0.94135 0.98498 0.0
C203 C 0.45829 0.92711 0.99693 0.0
C204 C 0.41434 0.90137 0.99539 0.0
C205 C 0.41278 0.91948 0.98769 0.0
O206 O 0.4946 0.95703 0.97136 0.0
O207 O 0.52375 0.00966 0.99891 0.0
O208 O 0.50112 0.03631 0.00715 0.0
O209 O 0.47807 0.01042 0.98749 0.0
O210 O 0.51894 0.02057 0.97779 0.0
O211 O 0.50769 0.9927 0.96295 0.0
O212 O 0.49382 0.00971 0.04333 0.0
O213 O 0.48235 0.98184 0.00951 0.0
O214 O 0.5124 0.96776 0.99685 0.0
O215 O 0.51621 0.98127 0.02145 0.0
O216 O 0.47147 0.00155 0.02278 0.0
O217 O 0.52527 0.00505 0.04188 0.0
C218 C 0.53279 0.02659 0.98948 0.0
C219 C 0.49028 0.96137 0.94512 0.0
C220 C 0.48801 0.96615 0.91803 0.0
C221 C 0.49937 0.97529 0.93202 0.0
C222 C 0.46734 0.94302 0.91735 0.0
C223 C 0.46941 0.9384 0.94409 0.0
C224 C 0.45809 0.92936 0.93029 0.0
C225 C 0.48634 0.03051 0.99539 0.0
C226 C 0.50263 0.97101 0.95972 0.0
C227 C 0.39035 0.91606 0.98215 0.0
C228 C 0.38988 0.93358 0.97309 0.0
C229 C 0.46396 0.98279 0.0144 0.0
C230 C 0.51848 0.01847 0.065 0.0
C231 C 0.51094 0.00575 0.07855 0.0
C232 C 0.52002 0.01769 0.09236 0.0
C233 C 0.53651 0.04262 0.0923 0.0
C234 C 0.53509 0.04322 0.06526 0.0
C235 C 0.54395 0.05521 0.07885 0.0
C236 C 0.51775 0.96739 0.01114 0.0
C237 C 0.5092 0.00563 0.0507 0.0
H238 H 0.51542 0.99304 0.93266 0.0
H239 H 0.45813 0.9356 0.90679 0.0
H240 H 0.46178 0.92738 0.95393 0.0
H241 H 0.44203 0.91165 0.92962 0.0
H242 H 0.49839 0.98654 0.07831 0.0
H243 H 0.54353 0.05248 0.10267 0.0
H244 H 0.54128 0.05325 0.05498 0.0
H245 H 0.55668 0.07435 0.07897 0.0
Eu246 Eu 0.02381 0.50484 0.98998 0.0
C247 C 0.92207 0.47018 0.02126 0.0
C248 C 0.91295 0.50185 0.01609 0.0
C249 C 0.87967 0.46096 0.01953 0.0
C250 C 0.93004 0.49397 0.0182 0.0
C251 C 0.89681 0.45351 0.02244 0.0
C252 C 0.88774 0.4851 0.01634 0.0
C253 C 0.90742 0.42424 0.03108 0.0
N254 N 0.9391 0.46373 0.02426 0.0
C255 C 0.93225 0.4415 0.02984 0.0
C256 C 0.88959 0.43014 0.02711 0.0
Eu257 Eu 0.98082 0.49335 0.02147 0.0
N258 N 0.95452 0.50966 0.0182 0.0
C259 C 0.96307 0.53379 0.01733 0.0
C260 C 0.92171 0.52642 0.01426 0.0
C261 C 0.94687 0.54249 0.01513 0.0
H262 H 0.94602 0.43692 0.03292 0.0
H263 H 0.95383 0.56158 0.01403 0.0
H264 H 0.87435 0.49077 0.01454 0.0
H265 H 0.90207 0.40642 0.0351 0.0
H266 H 0.98243 0.54648 0.0179 0.0
H267 H 0.05205 0.43739 0.99571 0.0
H268 H 0.90921 0.5332 0.01255 0.0
H269 H 0.05812 0.56315 0.98176 0.0
H270 H 0.02289 0.45205 0.99238 0.0
H271 H 0.10199 0.59433 0.98073 0.0
H272 H 0.86018 0.44836 0.0202 0.0
H273 H 0.09652 0.46627 0.99764 0.0
H274 H 0.13089 0.50905 0.99672 0.0
H275 H 0.87037 0.41679 0.02817 0.0
H276 H 0.1445 0.55177 0.99265 0.0
N277 N 0.05043 0.48897 0.99277 0.0
C278 C 0.04222 0.46489 0.99314 0.0
C279 C 0.08379 0.47283 0.99615 0.0
C280 C 0.09219 0.49744 0.99494 0.0
C281 C 0.05871 0.45648 0.99503 0.0
C282 C 0.07483 0.50504 0.9931 0.0
H283 H 0.13389 0.58368 0.98645 0.0
N284 N 0.06531 0.5355 0.98838 0.0
C285 C 0.09676 0.57607 0.98366 0.0
C286 C 0.08251 0.52906 0.99087 0.0
C287 C 0.07199 0.55841 0.98422 0.0
C288 C 0.11471 0.56999 0.98694 0.0
C289 C 0.10771 0.54617 0.99036 0.0
O290 O 0.02432 0.51775 0.96737 0.0
O291 O 0.98928 0.50314 0.99747 0.0
O292 O 0.9607 0.46268 0.00508 0.0
O293 O 0.99304 0.46566 0.99042 0.0
O294 O 0.01161 0.5316 0.98384 0.0
O295 O 0.01845 0.48183 0.9707 0.0
O296 O 0.98225 0.48203 0.04427 0.0
O297 O 0.01473 0.49415 0.01374 0.0
O298 O 0.0442 0.53262 0.00789 0.0
O299 O 0.01148 0.53266 0.01998 0.0
O300 O 0.99269 0.46637 0.02783 0.0
O301 O 0.98738 0.51746 0.04036 0.0
C302 C 0.99088 0.52103 0.99069 0.0
C303 C 0.03796 0.50184 0.94842 0.0
C304 C 0.04434 0.50355 0.92144 0.0
C305 C 0.02902 0.49973 0.93379 0.0
C306 C 0.0688 0.50947 0.92402 0.0
C307 C 0.06234 0.50766 0.95078 0.0
C308 C 0.07767 0.51146 0.93861 0.0
C309 C 0.96993 0.4542 0.99503 0.0
C310 C 0.02162 0.4983 0.96101 0.0
C311 C 0.12505 0.53885 0.99285 0.0
C312 C 0.1173 0.51453 0.99515 0.0
C313 C 0.01301 0.4762 0.02052 0.0
C314 C 0.96905 0.49846 0.06308 0.0
C315 C 0.97823 0.50023 0.0776 0.0
C316 C 0.96326 0.49653 0.09011 0.0
C317 C 0.93887 0.49106 0.08779 0.0
C318 C 0.94475 0.4931 0.06098 0.0
C319 C 0.92975 0.48941 0.07331 0.0
C320 C 0.03518 0.5426 0.0169 0.0
C321 C 0.98496 0.50166 0.05032 0.0
H322 H 0.01003 0.49485 0.93207 0.0
H323 H 0.08118 0.51284 0.91479 0.0
H324 H 0.06951 0.50929 0.96196 0.0
H325 H 0.09652 0.51606 0.94049 0.0
H326 H 0.99716 0.50475 0.07911 0.0
H327 H 0.92675 0.48781 0.09716 0.0
H328 H 0.93739 0.49173 0.04986 0.0
H329 H 0.91096 0.48517 0.07163 0.0
Eu330 Eu 0.51545 0.49538 0.02271 0.0
C331 C 0.45237 0.52966 0.98689 0.0
C332 C 0.41083 0.49734 0.99065 0.0
C333 C 0.4187 0.538 0.98681 0.0
C334 C 0.4362 0.50572 0.98959 0.0
C335 C 0.44375 0.54597 0.98498 0.0
C336 C 0.40226 0.51372 0.98968 0.0
C337 C 0.48475 0.57597 0.97781 0.0
N338 N 0.47635 0.53664 0.98499 0.0
C339 C 0.49232 0.55906 0.97976 0.0
C340 C 0.46043 0.56952 0.98069 0.0
Eu341 Eu 0.48839 0.50762 0.98905 0.0
N342 N 0.44511 0.49039 0.99029 0.0
C343 C 0.42938 0.46615 0.99076 0.0
C344 C 0.39479 0.47266 0.99215 0.0
C345 C 0.40409 0.45698 0.99194 0.0
H346 H 0.51115 0.56405 0.97754 0.0
H347 H 0.3918 0.4378 0.99276 0.0
H348 H 0.38287 0.50766 0.99065 0.0
H349 H 0.49765 0.59394 0.97409 0.0
H350 H 0.43619 0.45374 0.99071 0.0
H351 H 0.61184 0.56581 0.01922 0.0
H352 H 0.3752 0.4655 0.99307 0.0
H353 H 0.49312 0.43886 0.03394 0.0
H354 H 0.5674 0.54953 0.02127 0.0
H355 H 0.50696 0.40918 0.03711 0.0
H356 H 0.41175 0.55031 0.98558 0.0
H357 H 0.62877 0.53839 0.01868 0.0
H358 H 0.62145 0.49632 0.02077 0.0
H359 H 0.45454 0.5826 0.97908 0.0
H360 H 0.59283 0.45353 0.02562 0.0
N361 N 0.55877 0.51296 0.02149 0.0
C362 C 0.57435 0.53723 0.02113 0.0
C363 C 0.60916 0.53108 0.0196 0.0
C364 C 0.59327 0.50635 0.02098 0.0
C365 C 0.59967 0.54661 0.01994 0.0
C366 C 0.56787 0.49777 0.02205 0.0
H367 H 0.55015 0.42092 0.03203 0.0
N368 N 0.52782 0.46655 0.02655 0.0
C369 C 0.51975 0.42723 0.03347 0.0
C370 C 0.55184 0.47374 0.02461 0.0
C371 C 0.51198 0.44403 0.03168 0.0
C372 C 0.54412 0.4339 0.03054 0.0
C373 C 0.56065 0.45756 0.02637 0.0
O374 O 0.49962 0.48221 0.04476 0.0
O375 O 0.48359 0.49712 0.01311 0.0
O376 O 0.49744 0.5381 0.00515 0.0
O377 O 0.52407 0.53429 0.02193 0.0
O378 O 0.47552 0.46805 0.02666 0.0
O379 O 0.53029 0.51825 0.04249 0.0
O380 O 0.5043 0.52037 0.96696 0.0
O381 O 0.52016 0.50589 0.9987 0.0
O382 O 0.50659 0.46511 0.00648 0.0
O383 O 0.47951 0.46864 0.98996 0.0
O384 O 0.52839 0.53481 0.98503 0.0
O385 O 0.47333 0.48454 0.96937 0.0
C386 C 0.46626 0.4787 0.01909 0.0
C387 C 0.52637 0.49842 0.06537 0.0
C388 C 0.52787 0.49782 0.09266 0.0
C389 C 0.51785 0.50102 0.07934 0.0
C390 C 0.54652 0.49186 0.09171 0.0
C391 C 0.54503 0.49257 0.06466 0.0
C392 C 0.555 0.48927 0.0778 0.0
C393 C 0.51372 0.54612 0.01619 0.0
C394 C 0.51543 0.50171 0.0517 0.0
C395 C 0.58574 0.46574 0.02451 0.0
C396 C 0.60203 0.49011 0.02177 0.0
C397 C 0.53757 0.52418 0.99269 0.0
C398 C 0.47765 0.50407 0.94631 0.0
C399 C 0.48619 0.5011 0.93244 0.0
C400 C 0.47638 0.50421 0.919 0.0
C401 C 0.45791 0.51045 0.91973 0.0
C402 C 0.4592 0.51021 0.9468 0.0
C403 C 0.44943 0.51342 0.93355 0.0
C404 C 0.49013 0.45697 0.99554 0.0
C405 C 0.48837 0.50084 0.9601 0.0
H406 H 0.50367 0.50589 0.07979 0.0
H407 H 0.55441 0.48895 0.10172 0.0
H408 H 0.55187 0.49059 0.054 0.0
H409 H 0.56934 0.48466 0.0772 0.0
H410 H 0.50022 0.49601 0.93215 0.0
H411 H 0.45019 0.5133 0.90962 0.0
H412 H 0.45236 0.5125 0.95739 0.0
H413 H 0.43524 0.51825 0.93398 0.0
Eu414 Eu 0.15552 0.31363 0.32306 0.0
C415 C 0.21562 0.40904 0.36042 0.0
C416 C 0.25799 0.41898 0.35831 0.0
C417 C 0.24812 0.45079 0.36143 0.0
C418 C 0.23276 0.40185 0.35852 0.0
C419 C 0.2231 0.43356 0.36221 0.0
C420 C 0.26554 0.44352 0.35947 0.0
C421 C 0.18073 0.42201 0.3665 0.0
N422 N 0.19166 0.39192 0.36121 0.0
C423 C 0.17426 0.39792 0.36471 0.0
C424 C 0.20523 0.43994 0.36508 0.0
Eu425 Eu 0.1818 0.35163 0.35724 0.0
N426 N 0.22481 0.37801 0.3575 0.0
C427 C 0.24124 0.36999 0.35735 0.0
C428 C 0.27487 0.4109 0.35729 0.0
C429 C 0.26645 0.38628 0.35702 0.0
H430 H 0.15527 0.38413 0.36572 0.0
H431 H 0.27935 0.37981 0.3565 0.0
H432 H 0.28483 0.45696 0.35919 0.0
H433 H 0.16682 0.42672 0.36895 0.0
H434 H 0.23504 0.35104 0.35704 0.0
H435 H 0.05787 0.28502 0.32364 0.0
H436 H 0.2944 0.42348 0.35703 0.0
H437 H 0.18238 0.28135 0.3147 0.0
H438 H 0.10217 0.31396 0.32316 0.0
H439 H 0.17103 0.23882 0.31152 0.0
H440 H 0.25422 0.46974 0.36265 0.0
H441 H 0.04304 0.24139 0.32311 0.0
H442 H 0.05283 0.20806 0.32101 0.0
H443 H 0.21021 0.45858 0.36651 0.0
H444 H 0.08361 0.19547 0.31764 0.0
N445 N 0.11255 0.28711 0.32275 0.0
C446 C 0.09604 0.29502 0.32286 0.0
C447 C 0.06255 0.25404 0.32289 0.0
C448 C 0.07953 0.24607 0.32192 0.0
C449 C 0.07085 0.27864 0.32315 0.0
C450 C 0.10474 0.2633 0.32175 0.0
H451 H 0.12769 0.20682 0.31389 0.0
N452 N 0.14593 0.2734 0.31915 0.0
C453 C 0.15706 0.24345 0.31393 0.0
C454 C 0.12198 0.25621 0.31989 0.0
C455 C 0.16341 0.26751 0.31569 0.0
C456 C 0.13258 0.22544 0.31531 0.0
C457 C 0.11462 0.23172 0.31812 0.0
O458 O 0.17269 0.31825 0.3012 0.0
O459 O 0.18732 0.34553 0.33342 0.0
O460 O 0.1762 0.37383 0.33974 0.0
O461 O 0.14572 0.34332 0.32508 0.0
O462 O 0.19551 0.32493 0.31943 0.0
O463 O 0.14107 0.32281 0.30341 0.0
O464 O 0.16539 0.34796 0.37928 0.0
O465 O 0.14996 0.3199 0.34684 0.0
O466 O 0.1609 0.29135 0.34061 0.0
O467 O 0.19155 0.32194 0.35513 0.0
O468 O 0.14181 0.34033 0.36097 0.0
O469 O 0.19557 0.34123 0.37665 0.0
C470 C 0.20473 0.34407 0.32758 0.0
C471 C 0.14758 0.30996 0.27989 0.0
C472 C 0.14811 0.31086 0.25252 0.0
C473 C 0.15601 0.32277 0.26642 0.0
C474 C 0.13143 0.286 0.25237 0.0
C475 C 0.13091 0.28523 0.27946 0.0
C476 C 0.12286 0.27335 0.26575 0.0
C477 C 0.15848 0.36604 0.32957 0.0
C478 C 0.15699 0.32245 0.29427 0.0
C479 C 0.08962 0.2144 0.31885 0.0
C480 C 0.0721 0.22156 0.32077 0.0
C481 C 0.13256 0.32132 0.35271 0.0
C482 C 0.19091 0.35498 0.40029 0.0
C483 C 0.18341 0.34209 0.41378 0.0
C484 C 0.19314 0.35367 0.42761 0.0
C485 C 0.21038 0.37842 0.4276 0.0
C486 C 0.20816 0.37956 0.4006 0.0
C487 C 0.2178 0.39118 0.4142 0.0
C488 C 0.17865 0.29917 0.35076 0.0
C489 C 0.18047 0.34264 0.38599 0.0
H490 H 0.1691 0.34186 0.26677 0.0
H491 H 0.1248 0.27636 0.24189 0.0
H492 H 0.12425 0.27511 0.2897 0.0
H493 H 0.10999 0.25425 0.26548 0.0
H494 H 0.17025 0.32302 0.41346 0.0
H495 H 0.21793 0.38806 0.43799 0.0
H496 H 0.2141 0.38974 0.39034 0.0
H497 H 0.23103 0.41021 0.41438 0.0
Eu498 Eu 0.68995 0.83975 0.32205 0.0
C499 C 0.58972 0.80719 0.35426 0.0
C500 C 0.58227 0.84013 0.34971 0.0
C501 C 0.54789 0.7997 0.35276 0.0
C502 C 0.59861 0.83127 0.35156 0.0
C503 C 0.56428 0.79125 0.3554 0.0
C504 C 0.55688 0.82411 0.34989 0.0
C505 C 0.57327 0.76062 0.36355 0.0
N506 N 0.60604 0.79973 0.357 0.0
C507 C 0.59831 0.7772 0.36238 0.0
C508 C 0.55614 0.76755 0.35978 0.0
Eu509 Eu 0.64813 0.82829 0.35434 0.0
N510 N 0.62324 0.84625 0.35158 0.0
C511 C 0.6327 0.87055 0.35099 0.0
C512 C 0.59195 0.86489 0.34816 0.0
C513 C 0.61726 0.88019 0.34906 0.0
H514 H 0.61158 0.77186 0.36532 0.0
H515 H 0.62492 0.89941 0.34818 0.0
H516 H 0.54406 0.83054 0.34829 0.0
H517 H 0.56721 0.74256 0.36738 0.0
H518 H 0.65221 0.88266 0.35156 0.0
H519 H 0.71187 0.76768 0.32786 0.0
H520 H 0.58004 0.8724 0.34665 0.0
H521 H 0.72731 0.89628 0.3115 0.0
H522 H 0.68509 0.78497 0.32439 0.0
H523 H 0.77184 0.92523 0.3099 0.0
H524 H 0.52826 0.78767 0.35339 0.0
H525 H 0.75677 0.79426 0.32991 0.0
H526 H 0.79311 0.83596 0.32881 0.0
H527 H 0.53675 0.75475 0.3608 0.0
H528 H 0.80952 0.87902 0.32404 0.0
N529 N 0.71433 0.82125 0.3248 0.0
C530 C 0.7046 0.7969 0.32517 0.0
C531 C 0.74508 0.80201 0.32835 0.0
C532 C 0.75506 0.82684 0.32703 0.0
C533 C 0.71976 0.78696 0.32716 0.0
C534 C 0.73901 0.83602 0.32511 0.0
H535 H 0.80175 0.91243 0.31669 0.0
N536 N 0.73221 0.86799 0.31976 0.0
C537 C 0.76547 0.90705 0.31361 0.0
C538 C 0.74824 0.86021 0.3226 0.0
C539 C 0.74034 0.89067 0.31451 0.0
C540 C 0.78228 0.89977 0.3175 0.0
C541 C 0.77376 0.87594 0.32172 0.0
O542 O 0.69041 0.85348 0.29965 0.0
O543 O 0.65603 0.83849 0.33035 0.0
O544 O 0.62701 0.79786 0.33803 0.0
O545 O 0.65809 0.80107 0.3221 0.0
O546 O 0.6781 0.86699 0.31664 0.0
O547 O 0.68291 0.81699 0.30238 0.0
O548 O 0.64876 0.81527 0.37678 0.0
O549 O 0.68202 0.82947 0.34602 0.0
O550 O 0.711 0.87003 0.33851 0.0
O551 O 0.6797 0.86707 0.35409 0.0
O552 O 0.65981 0.80094 0.35969 0.0
O553 O 0.65487 0.85128 0.37385 0.0
C554 C 0.65767 0.8566 0.32383 0.0
C555 C 0.70267 0.83711 0.28022 0.0
C556 C 0.7088 0.8386 0.25321 0.0
C557 C 0.6937 0.83529 0.26561 0.0
C558 C 0.73309 0.84391 0.25573 0.0
C559 C 0.72684 0.84217 0.28248 0.0
C560 C 0.74197 0.84562 0.27028 0.0
C561 C 0.6354 0.78955 0.32738 0.0
C562 C 0.68666 0.83391 0.29294 0.0
C563 C 0.78985 0.86716 0.32446 0.0
C564 C 0.78051 0.84264 0.32714 0.0
C565 C 0.68024 0.81124 0.35249 0.0
C566 C 0.63633 0.83132 0.3963 0.0
C567 C 0.64612 0.834 0.41073 0.0
C568 C 0.63137 0.83011 0.42336 0.0
C569 C 0.6066 0.82341 0.42133 0.0
C570 C 0.61167 0.82491 0.39445 0.0
C571 C 0.59688 0.82093 0.40694 0.0
C572 C 0.70252 0.87843 0.34904 0.0
C573 C 0.65202 0.83475 0.38337 0.0
H574 H 0.67486 0.83096 0.26394 0.0
H575 H 0.74534 0.84696 0.24647 0.0
H576 H 0.73399 0.84345 0.29364 0.0
H577 H 0.76067 0.84967 0.2721 0.0
H578 H 0.66516 0.83878 0.41211 0.0
H579 H 0.59487 0.82044 0.43086 0.0
H580 H 0.60386 0.82296 0.38342 0.0
H581 H 0.57784 0.81594 0.40546 0.0
Eu582 Eu 0.18182 0.82717 0.35582 0.0
C583 C 0.11879 0.86169 0.32014 0.0
C584 C 0.07727 0.8292 0.3237 0.0
C585 C 0.08499 0.86984 0.32004 0.0
C586 C 0.10267 0.83769 0.32271 0.0
C587 C 0.11008 0.87794 0.31828 0.0
C588 C 0.0686 0.84551 0.32279 0.0
C589 C 0.15111 0.90818 0.31134 0.0
N590 N 0.14282 0.86882 0.31833 0.0
C591 C 0.15879 0.89134 0.31326 0.0
C592 C 0.12672 0.90157 0.31412 0.0
Eu593 Eu 0.15497 0.83985 0.32222 0.0
N594 N 0.11167 0.82243 0.32336 0.0
C595 C 0.09603 0.79818 0.32375 0.0
C596 C 0.06131 0.80449 0.32512 0.0
C597 C 0.07071 0.78889 0.32488 0.0
H598 H 0.17769 0.89648 0.31117 0.0
H599 H 0.05848 0.7697 0.32564 0.0
H600 H 0.0492 0.83936 0.32372 0.0
H601 H 0.164 0.92622 0.30773 0.0
H602 H 0.10292 0.78583 0.32368 0.0
H603 H 0.27828 0.89745 0.35261 0.0
H604 H 0.0417 0.79725 0.32599 0.0
H605 H 0.15925 0.77053 0.36683 0.0
H606 H 0.23383 0.88124 0.35458 0.0
H607 H 0.17298 0.74077 0.37004 0.0
H608 H 0.07797 0.8821 0.31884 0.0
H609 H 0.29512 0.86995 0.35201 0.0
H610 H 0.28767 0.82782 0.35402 0.0
H611 H 0.12077 0.9146 0.31255 0.0
H612 H 0.25894 0.78502 0.35876 0.0
N613 N 0.22513 0.84465 0.35468 0.0
C614 C 0.24075 0.86892 0.3544 0.0
C615 C 0.2755 0.86267 0.35289 0.0
C616 C 0.25956 0.83794 0.35419 0.0
C617 C 0.26607 0.87825 0.35327 0.0
C618 C 0.23416 0.82941 0.35521 0.0
H619 H 0.21618 0.75245 0.36506 0.0
N620 N 0.19404 0.79822 0.35958 0.0
C621 C 0.18583 0.75883 0.36644 0.0
C622 C 0.21806 0.80537 0.3577 0.0
C623 C 0.17812 0.77568 0.36464 0.0
C624 C 0.2102 0.76547 0.36358 0.0
C625 C 0.2268 0.78914 0.35946 0.0
O626 O 0.16582 0.8139 0.37782 0.0
O627 O 0.15007 0.82897 0.34618 0.0
O628 O 0.16347 0.86982 0.33866 0.0
O629 O 0.19041 0.8661 0.35521 0.0
O630 O 0.14183 0.79983 0.35966 0.0
O631 O 0.19669 0.84984 0.37567 0.0
O632 O 0.17102 0.85307 0.30021 0.0
O633 O 0.18672 0.8381 0.33187 0.0
O634 O 0.17318 0.79715 0.33941 0.0
O635 O 0.14628 0.80089 0.32285 0.0
O636 O 0.19496 0.86728 0.31844 0.0
O637 O 0.1402 0.8171 0.30239 0.0
C638 C 0.13266 0.81057 0.35209 0.0
C639 C 0.1924 0.82986 0.39854 0.0
C640 C 0.19394 0.82957 0.42583 0.0
C641 C 0.18409 0.83288 0.41247 0.0
C642 C 0.21222 0.82308 0.42495 0.0
C643 C 0.21069 0.82351 0.3979 0.0
C644 C 0.22049 0.82009 0.41107 0.0
C645 C 0.1797 0.87778 0.34974 0.0
C646 C 0.18167 0.83332 0.38482 0.0
C647 C 0.2519 0.79727 0.35765 0.0
C648 C 0.26826 0.82165 0.35498 0.0
C649 C 0.20414 0.85655 0.32601 0.0
C650 C 0.1445 0.83698 0.27948 0.0
C651 C 0.1529 0.83403 0.26555 0.0
C652 C 0.143 0.83721 0.25217 0.0
C653 C 0.1246 0.84354 0.25302 0.0
C654 C 0.12609 0.84318 0.28008 0.0
C655 C 0.11625 0.84648 0.26689 0.0
C656 C 0.1569 0.78917 0.32837 0.0
C657 C 0.15522 0.83361 0.29323 0.0
H658 H 0.1702 0.83815 0.41288 0.0
H659 H 0.21995 0.82007 0.43499 0.0
H660 H 0.21737 0.82121 0.38726 0.0
H661 H 0.23454 0.81509 0.41052 0.0
H662 H 0.16689 0.82889 0.26517 0.0
H663 H 0.11682 0.84645 0.24297 0.0
H664 H 0.11933 0.84542 0.2907 0.0
H665 H 0.10211 0.85137 0.26741 0.0
Eu666 Eu 0.82351 0.64819 0.65546 0.0
C667 C 0.88497 0.74161 0.69409 0.0
C668 C 0.92644 0.74905 0.69155 0.0
C669 C 0.91927 0.78249 0.69541 0.0
C670 C 0.90091 0.73307 0.69179 0.0
C671 C 0.89397 0.76634 0.69642 0.0
C672 C 0.93549 0.77385 0.69294 0.0
C673 C 0.85267 0.75692 0.70228 0.0
N674 N 0.86074 0.72551 0.6952 0.0
C675 C 0.8447 0.73258 0.69995 0.0
C676 C 0.87736 0.77394 0.70026 0.0
Eu677 Eu 0.84811 0.68471 0.69045 0.0
N678 N 0.89152 0.70899 0.69068 0.0
C679 C 0.9068 0.69959 0.69059 0.0
C680 C 0.94211 0.73955 0.69041 0.0
C681 C 0.93224 0.71469 0.6902 0.0
H682 H 0.82558 0.71941 0.70148 0.0
H683 H 0.94421 0.70713 0.68968 0.0
H684 H 0.95502 0.78643 0.6926 0.0
H685 H 0.83977 0.76252 0.70564 0.0
H686 H 0.89952 0.68044 0.69034 0.0
H687 H 0.72761 0.62653 0.65584 0.0
H688 H 0.96182 0.75121 0.69013 0.0
H689 H 0.84583 0.61328 0.64462 0.0
H690 H 0.77232 0.65292 0.65559 0.0
H691 H 0.83137 0.5702 0.64012 0.0
H692 H 0.92653 0.80159 0.69698 0.0
H693 H 0.70966 0.58243 0.65489 0.0
H694 H 0.71613 0.54705 0.65216 0.0
H695 H 0.88354 0.79278 0.70216 0.0
H696 H 0.74442 0.53163 0.64789 0.0
N697 N 0.78005 0.6242 0.65498 0.0
C698 C 0.76493 0.63377 0.65513 0.0
C699 C 0.72939 0.59396 0.65479 0.0
C700 C 0.74492 0.5843 0.65364 0.0
C701 C 0.73945 0.61883 0.65528 0.0
C702 C 0.77049 0.60012 0.65365 0.0
H703 H 0.78741 0.54016 0.64309 0.0
N704 N 0.81062 0.60738 0.65058 0.0
C705 C 0.81851 0.57588 0.6434 0.0
C706 C 0.78632 0.59142 0.65141 0.0
C707 C 0.82663 0.60021 0.64593 0.0
C708 C 0.7937 0.55899 0.64514 0.0
C709 C 0.77716 0.56671 0.64889 0.0
O710 O 0.84126 0.6517 0.63387 0.0
O711 O 0.85484 0.67965 0.66658 0.0
O712 O 0.84147 0.70786 0.67422 0.0
O713 O 0.81578 0.67923 0.65649 0.0
O714 O 0.8634 0.65874 0.65305 0.0
O715 O 0.81167 0.65938 0.63554 0.0
O716 O 0.83061 0.68119 0.71212 0.0
O717 O 0.8169 0.65331 0.6793 0.0
O718 O 0.82987 0.62494 0.67182 0.0
O719 O 0.85587 0.65368 0.68941 0.0
O720 O 0.80806 0.67366 0.69312 0.0
O721 O 0.86055 0.67403 0.71033 0.0
C722 C 0.87238 0.67789 0.6612 0.0
C723 C 0.81708 0.64529 0.61226 0.0
C724 C 0.81527 0.64682 0.58494 0.0
C725 C 0.82471 0.65833 0.59882 0.0
C726 C 0.79828 0.622 0.58481 0.0
C727 C 0.79999 0.62067 0.61182 0.0
C728 C 0.79072 0.60911 0.59815 0.0
C729 C 0.82627 0.70094 0.66263 0.0
C730 C 0.82702 0.65754 0.62665 0.0
C731 C 0.7518 0.55071 0.64962 0.0
C732 C 0.7357 0.5595 0.65203 0.0
C733 C 0.79923 0.6547 0.6848 0.0
C734 C 0.85519 0.68814 0.73361 0.0
C735 C 0.84749 0.67528 0.7471 0.0
C736 C 0.85703 0.6869 0.76094 0.0
C737 C 0.87423 0.71166 0.76096 0.0
C738 C 0.87245 0.71272 0.73394 0.0
C739 C 0.88184 0.72439 0.74756 0.0
C740 C 0.84514 0.63186 0.6834 0.0
C741 C 0.84518 0.6757 0.71928 0.0
H742 H 0.83767 0.67744 0.59923 0.0
H743 H 0.79099 0.61243 0.57438 0.0
H744 H 0.79383 0.61039 0.62201 0.0
H745 H 0.77764 0.59005 0.59788 0.0
H746 H 0.83439 0.6562 0.74678 0.0
H747 H 0.88163 0.72131 0.77136 0.0
H748 H 0.87866 0.72285 0.72369 0.0
H749 H 0.89507 0.74342 0.74775 0.0
Eu750 Eu 0.35752 0.17075 0.65834 0.0
C751 C 0.25631 0.13631 0.68993 0.0
C752 C 0.24725 0.1681 0.68504 0.0
C753 C 0.21393 0.1272 0.68841 0.0
C754 C 0.26431 0.16014 0.68697 0.0
C755 C 0.23105 0.11968 0.69117 0.0
C756 C 0.22203 0.15139 0.68534 0.0
C757 C 0.24163 0.09028 0.6996 0.0
N758 N 0.27332 0.12979 0.69282 0.0
C759 C 0.26646 0.10752 0.69833 0.0
C760 C 0.22381 0.09626 0.69575 0.0
Eu761 Eu 0.31505 0.15941 0.69002 0.0
N762 N 0.2888 0.17581 0.68696 0.0
C763 C 0.29738 0.19996 0.68622 0.0
C764 C 0.25604 0.1927 0.68335 0.0
C765 C 0.28121 0.20872 0.68419 0.0
H766 H 0.28022 0.10287 0.70132 0.0
H767 H 0.28819 0.22783 0.68319 0.0
H768 H 0.20865 0.15711 0.68368 0.0
H769 H 0.23626 0.07243 0.70356 0.0
H770 H 0.31676 0.21262 0.68677 0.0
H771 H 0.38554 0.10313 0.66394 0.0
H772 H 0.24355 0.19953 0.68177 0.0
H773 H 0.39184 0.229 0.64993 0.0
H774 H 0.35643 0.11789 0.66077 0.0
H775 H 0.43571 0.26006 0.64862 0.0
H776 H 0.19444 0.11463 0.68912 0.0
H777 H 0.43007 0.13192 0.66557 0.0
H778 H 0.46452 0.17464 0.66439 0.0
H779 H 0.20459 0.08294 0.69684 0.0
H780 H 0.47819 0.21735 0.66023 0.0
N781 N 0.38407 0.15478 0.66095 0.0
C782 C 0.37579 0.13069 0.6614 0.0
C783 C 0.41736 0.13852 0.66414 0.0
C784 C 0.42581 0.16313 0.66285 0.0
C785 C 0.39225 0.12222 0.6632 0.0
C786 C 0.40849 0.17079 0.66112 0.0
H787 H 0.46761 0.24931 0.65411 0.0
N788 N 0.39902 0.20131 0.65647 0.0
C789 C 0.43048 0.2418 0.65158 0.0
C790 C 0.4162 0.19481 0.65884 0.0
C791 C 0.4057 0.22421 0.65229 0.0
C792 C 0.44842 0.23567 0.65472 0.0
C793 C 0.44141 0.21186 0.65817 0.0
O794 O 0.35751 0.18355 0.63577 0.0
O795 O 0.32313 0.1692 0.666 0.0
O796 O 0.29456 0.12897 0.67355 0.0
O797 O 0.32664 0.13161 0.65881 0.0
O798 O 0.34539 0.19765 0.65235 0.0
O799 O 0.35211 0.14778 0.63901 0.0
O800 O 0.31632 0.14794 0.71281 0.0
O801 O 0.34891 0.16015 0.68216 0.0
O802 O 0.37826 0.1986 0.67614 0.0
O803 O 0.34576 0.19868 0.68851 0.0
O804 O 0.3269 0.13235 0.69622 0.0
O805 O 0.3218 0.18352 0.70894 0.0
C806 C 0.32473 0.18714 0.65927 0.0
C807 C 0.37095 0.16783 0.6166 0.0
C808 C 0.37663 0.16968 0.58955 0.0
C809 C 0.36159 0.16559 0.60208 0.0
C810 C 0.40127 0.17598 0.59185 0.0
C811 C 0.39549 0.17402 0.61868 0.0
C812 C 0.41056 0.17807 0.60634 0.0
C813 C 0.30354 0.12036 0.66344 0.0
C814 C 0.35489 0.16416 0.62936 0.0
C815 C 0.45874 0.20448 0.66055 0.0
C816 C 0.45095 0.18016 0.6629 0.0
C817 C 0.34719 0.14215 0.68889 0.0
C818 C 0.30312 0.16446 0.73157 0.0
C819 C 0.31222 0.16649 0.74614 0.0
C820 C 0.29703 0.16266 0.75854 0.0
C821 C 0.27254 0.15668 0.75614 0.0
C822 C 0.27873 0.15875 0.72936 0.0
C823 C 0.26352 0.15485 0.74161 0.0
C824 C 0.3694 0.20863 0.68525 0.0
C825 C 0.31915 0.1676 0.71888 0.0
H826 H 0.34247 0.16042 0.60059 0.0
H827 H 0.41346 0.17958 0.58248 0.0
H828 H 0.40299 0.17577 0.62978 0.0
H829 H 0.42954 0.18296 0.608 0.0
H830 H 0.33102 0.17068 0.74781 0.0
H831 H 0.2605 0.15378 0.7655 0.0
H832 H 0.27145 0.15726 0.71822 0.0
H833 H 0.24469 0.1504 0.73984 0.0
Eu834 Eu 0.84989 0.16016 0.68886 0.0
C835 C 0.78977 0.19972 0.65488 0.0
C836 C 0.74706 0.16965 0.658 0.0
C837 C 0.75866 0.21162 0.6552 0.0
C838 C 0.77196 0.17606 0.65703 0.0
C839 C 0.7833 0.21773 0.65365 0.0
C840 C 0.74057 0.18761 0.65738 0.0
C841 C 0.82575 0.24616 0.64836 0.0
N842 N 0.81335 0.20497 0.65334 0.0
C843 C 0.83122 0.22764 0.6496 0.0
C844 C 0.80173 0.24125 0.65056 0.0
Eu845 Eu 0.82148 0.17299 0.65631 0.0
N846 N 0.77886 0.15916 0.65751 0.0
C847 C 0.76161 0.13533 0.65788 0.0
C848 C 0.7294 0.14533 0.65922 0.0
C849 C 0.7367 0.12808 0.65895 0.0
H850 H 0.84986 0.23158 0.64799 0.0
H851 H 0.72317 0.1092 0.65964 0.0
H852 H 0.72156 0.18307 0.65826 0.0
H853 H 0.84006 0.2642 0.64573 0.0
H854 H 0.76697 0.1218 0.65777 0.0
H855 H 0.94795 0.22478 0.68511 0.0
H856 H 0.7101 0.13967 0.66006 0.0
H857 H 0.82233 0.10172 0.6974 0.0
H858 H 0.90408 0.21171 0.68729 0.0
H859 H 0.83265 0.06941 0.69946 0.0
H860 H 0.75334 0.22523 0.65442 0.0
H861 H 0.96147 0.19465 0.68431 0.0
H862 H 0.9505 0.15137 0.68589 0.0
H863 H 0.79752 0.25561 0.64954 0.0
H864 H 0.91914 0.10908 0.68983 0.0
N865 N 0.89258 0.17444 0.68738 0.0
C866 C 0.90963 0.19833 0.68703 0.0
C867 C 0.94213 0.18878 0.6853 0.0
C868 C 0.92469 0.1644 0.6865 0.0
C869 C 0.93458 0.20584 0.68578 0.0
C870 C 0.89974 0.15772 0.68766 0.0
H871 H 0.87521 0.0784 0.69512 0.0
N872 N 0.85854 0.12848 0.69161 0.0
C873 C 0.84673 0.08747 0.69669 0.0
C874 C 0.88215 0.13398 0.68983 0.0
C875 C 0.84097 0.1058 0.69555 0.0
C876 C 0.87076 0.09261 0.69419 0.0
C877 C 0.88892 0.11617 0.69094 0.0
O878 O 0.83527 0.14831 0.71128 0.0
O879 O 0.81768 0.16214 0.68022 0.0
O880 O 0.82919 0.2009 0.67408 0.0
O881 O 0.86078 0.19981 0.68716 0.0
O882 O 0.80999 0.13364 0.69408 0.0
O883 O 0.8672 0.18344 0.70823 0.0
O884 O 0.8361 0.18455 0.63387 0.0
O885 O 0.85361 0.17099 0.665 0.0
O886 O 0.8417 0.13198 0.67118 0.0
O887 O 0.81017 0.1333 0.65819 0.0
O888 O 0.86146 0.19946 0.65113 0.0
O889 O 0.80443 0.14927 0.6371 0.0
C890 C 0.80051 0.14414 0.68659 0.0
C891 C 0.86359 0.16365 0.73115 0.0
C892 C 0.86549 0.16166 0.75836 0.0
C893 C 0.85554 0.16588 0.74536 0.0
C894 C 0.88366 0.15512 0.75685 0.0
C895 C 0.88172 0.15716 0.72988 0.0
C896 C 0.89168 0.15291 0.74269 0.0
C897 C 0.84807 0.21045 0.68343 0.0
C898 C 0.8524 0.16757 0.71781 0.0
C899 C 0.9136 0.12254 0.68916 0.0
C900 C 0.93145 0.14662 0.68693 0.0
C901 C 0.87087 0.1889 0.65862 0.0
C902 C 0.80824 0.16814 0.6138 0.0
C903 C 0.81641 0.16499 0.59984 0.0
C904 C 0.80654 0.16832 0.5865 0.0
C905 C 0.7883 0.17484 0.58741 0.0
C906 C 0.79009 0.17466 0.61448 0.0
C907 C 0.78017 0.17797 0.60132 0.0
C908 C 0.82276 0.12252 0.66187 0.0
C909 C 0.81928 0.16496 0.62746 0.0
H910 H 0.84171 0.17118 0.74625 0.0
H911 H 0.89147 0.15142 0.7666 0.0
H912 H 0.8881 0.15531 0.71902 0.0
H913 H 0.9056 0.14781 0.74165 0.0
H914 H 0.83027 0.15969 0.59942 0.0
H915 H 0.78053 0.17785 0.57738 0.0
H916 H 0.78366 0.17723 0.62515 0.0
H917 H 0.7662 0.18309 0.60189 0.0
C918 C 0.26959 0.8483 0.07381 0.0
C919 C 0.26508 0.82508 0.07707 0.0
C920 C 0.29039 0.86417 0.06568 0.0
C921 C 0.35277 0.88001 0.05848 0.0
H922 H 0.34748 0.90809 0.02131 0.0
C923 C 0.43934 0.94212 0.02525 0.0
C924 C 0.44016 0.96169 0.01784 0.0
C925 C 0.41726 0.9238 0.03091 0.0
C926 C 0.34939 0.90074 0.03177 0.0
H927 H 0.27869 0.80025 0.07469 0.0
H928 H 0.31563 0.82839 0.06096 0.0
H929 H 0.31038 0.88027 0.03483 0.0
H930 H 0.41908 0.97827 0.01109 0.0
H931 H 0.38054 0.94682 0.02144 0.0
H932 H 0.39153 0.90115 0.0561 0.0
C933 C 0.30287 0.83411 0.06446 0.0
C934 C 0.3281 0.8847 0.03945 0.0
C935 C 0.28182 0.81807 0.07227 0.0
C936 C 0.41863 0.96288 0.01636 0.0
C937 C 0.39655 0.94476 0.02226 0.0
C938 C 0.37405 0.89642 0.05102 0.0
C939 C 0.30724 0.85722 0.06102 0.0
C940 C 0.32965 0.87419 0.05284 0.0
C941 C 0.39562 0.92512 0.02987 0.0
C942 C 0.37273 0.90701 0.03752 0.0
H943 H 0.25683 0.854 0.07734 0.0
H944 H 0.29351 0.88198 0.06322 0.0
H945 H 0.3544 0.87227 0.06887 0.0
H946 H 0.45596 0.94133 0.02703 0.0
H947 H 0.41736 0.90883 0.03637 0.0
C948 C 0.15906 0.42646 0.07815 0.0
C949 C 0.18378 0.44468 0.07841 0.0
C950 C 0.1413 0.43009 0.07112 0.0
C951 C 0.13319 0.47014 0.04426 0.0
H952 H 0.06876 0.44133 0.06227 0.0
C953 C 0.05742 0.49268 0.02719 0.0
C954 C 0.03367 0.47296 0.02533 0.0
C955 C 0.07635 0.48945 0.03286 0.0
C956 C 0.08659 0.44932 0.05702 0.0
H957 H 0.20924 0.48104 0.07147 0.0
H958 H 0.17817 0.4877 0.05951 0.0
H959 H 0.10054 0.43568 0.07381 0.0
H960 H 0.01083 0.43465 0.02846 0.0
H961 H 0.0438 0.42897 0.03849 0.0
H962 H 0.11908 0.48428 0.02766 0.0
C963 C 0.17252 0.47035 0.06445 0.0
C964 C 0.10486 0.44602 0.06361 0.0
C965 C 0.19036 0.46659 0.07136 0.0
C966 C 0.02908 0.45008 0.02957 0.0
C967 C 0.04791 0.44687 0.03536 0.0
C968 C 0.11492 0.47367 0.03775 0.0
C969 C 0.14768 0.45217 0.06429 0.0
C970 C 0.1284 0.4562 0.05729 0.0
C971 C 0.07174 0.46652 0.03714 0.0
C972 C 0.09137 0.46315 0.04402 0.0
H973 H 0.15348 0.40922 0.08325 0.0
H974 H 0.12254 0.41542 0.07094 0.0
H975 H 0.15093 0.47803 0.03893 0.0
H976 H 0.06131 0.51065 0.0245 0.0
H977 H 0.09444 0.50499 0.03428 0.0
C978 C 0.57892 0.73416 0.08425 0.0
C979 C 0.58867 0.75481 0.07527 0.0
C980 C 0.57094 0.71158 0.07786 0.0
C981 C 0.57508 0.6819 0.0431 0.0
H982 H 0.51739 0.6268 0.05928 0.0
C983 C 0.52529 0.58925 0.01374 0.0
C984 C 0.52098 0.56974 0.02279 0.0
C985 C 0.53322 0.61184 0.02009 0.0
C986 C 0.53358 0.64205 0.05471 0.0
H987 H 0.59811 0.76785 0.05253 0.0
H988 H 0.58314 0.72847 0.04134 0.0
H989 H 0.5321 0.66636 0.07043 0.0
H990 H 0.52125 0.55829 0.04553 0.0
H991 H 0.53471 0.59776 0.05669 0.0
H992 H 0.57603 0.65747 0.02713 0.0
C993 C 0.58212 0.72971 0.05337 0.0
C994 C 0.54213 0.66469 0.06113 0.0
C995 C 0.59038 0.75232 0.05977 0.0
C996 C 0.52446 0.57309 0.03831 0.0
C997 C 0.53201 0.59558 0.04469 0.0
C998 C 0.5663 0.6593 0.03655 0.0
C999 C 0.57222 0.70903 0.06232 0.0
C1000 C 0.56307 0.68491 0.05545 0.0
C1001 C 0.53665 0.61519 0.03562 0.0
C1002 C 0.54555 0.63918 0.04234 0.0
H1003 H 0.57701 0.73532 0.0962 0.0
H1004 H 0.5638 0.69613 0.08515 0.0
H1005 H 0.5915 0.69692 0.03859 0.0
H1006 H 0.52333 0.58728 1.00175 0.0
H1007 H 0.53666 0.62671 0.01287 0.0
C1008 C 0.83328 0.27254 0.92342 0.0
C1009 C 0.82001 0.25163 0.93199 0.0
C1010 C 0.84982 0.29433 0.93023 0.0
C1011 C 0.8846 0.3199 0.96572 0.0
H1012 H 0.89212 0.37931 0.94983 0.0
C1013 C 0.93616 0.41147 0.99654 0.0
C1014 C 0.95335 0.43081 0.988 0.0
C1015 C 0.92026 0.38946 0.98973 0.0
C1016 C 0.89029 0.36285 0.95431 0.0
H1017 H 0.81402 0.23743 0.95454 0.0
H1018 H 0.84173 0.27554 0.96646 0.0
H1019 H 0.86316 0.34123 0.93807 0.0
H1020 H 0.96763 0.44245 0.96571 0.0
H1021 H 0.93948 0.40402 0.95371 0.0
H1022 H 0.91126 0.34172 0.98226 0.0
C1023 C 0.83988 0.27503 0.95441 0.0
C1024 C 0.8738 0.341 0.94754 0.0
C1025 C 0.82361 0.25317 0.94757 0.0
C1026 C 0.95452 0.42776 0.97254 0.0
C1027 C 0.93835 0.40589 0.96567 0.0
C1028 C 0.9008 0.34173 0.97262 0.0
C1029 C 0.85329 0.29591 0.94583 0.0
C1030 C 0.87077 0.31921 0.95312 0.0
C1031 C 0.92108 0.38654 0.97421 0.0
C1032 C 0.90386 0.3634 0.96694 0.0
H1033 H 0.83079 0.27219 0.91142 0.0
H1034 H 0.86004 0.30988 0.9232 0.0
H1035 H 0.88319 0.30361 0.97017 0.0
H1036 H 0.9353 0.41316 0.0085 0.0
H1037 H 0.9071 0.3748 0.99656 0.0
C1038 C 0.73295 0.57111 0.93569 0.0
C1039 C 0.73891 0.55276 0.93523 0.0
C1040 C 0.71165 0.56756 0.94281 0.0
C1041 C 0.66304 0.52771 0.9697 0.0
H1042 H 0.62792 0.5566 0.95162 0.0
C1043 C 0.56489 0.5069 0.98717 0.0
C1044 C 0.5615 0.52686 0.98842 0.0
C1045 C 0.58699 0.50961 0.98169 0.0
C1046 C 0.63762 0.54859 0.9569 0.0
H1047 H 0.72714 0.51625 0.94199 0.0
H1048 H 0.68964 0.50979 0.95418 0.0
H1049 H 0.66512 0.56186 0.93999 0.0
H1050 H 0.57822 0.5651 0.98472 0.0
H1051 H 0.61666 0.56986 0.97508 0.0
H1052 H 0.63494 0.51406 0.98647 0.0
C1053 C 0.70167 0.52715 0.94927 0.0
C1054 C 0.65906 0.55167 0.95025 0.0
C1055 C 0.72315 0.53081 0.94224 0.0
C1056 C 0.58048 0.54948 0.98401 0.0
C1057 C 0.60241 0.55216 0.97843 0.0
C1058 C 0.64139 0.52446 0.9763 0.0
C1059 C 0.69552 0.54544 0.94957 0.0
C1060 C 0.67226 0.54149 0.95661 0.0
C1061 C 0.60585 0.53224 0.97703 0.0
C1062 C 0.62857 0.53506 0.97003 0.0
H1063 H 0.74492 0.58839 0.93065 0.0
H1064 H 0.70795 0.5823 0.9431 0.0
H1065 H 0.67278 0.5198 0.97504 0.0
H1066 H 0.5503 0.48914 0.99012 0.0
H1067 H 0.58899 0.49389 0.98062 0.0
C1068 C 0.41651 0.16784 0.95211 0.0
C1069 C 0.41984 0.17163 0.93662 0.0
C1070 C 0.42399 0.15338 0.95944 0.0
C1071 C 0.4663 0.12976 0.95526 0.0
H1072 H 0.42583 0.08382 0.9854 0.0
C1073 C 0.4821 0.05375 0.97472 0.0
C1074 C 0.4799 0.0482 0.98998 0.0
C1075 C 0.47569 0.07015 0.96925 0.0
C1076 C 0.43748 0.09683 0.97717 0.0
H1077 H 0.43342 0.16306 0.91664 0.0
H1078 H 0.44596 0.13741 0.92935 0.0
H1079 H 0.41208 0.10936 0.97359 0.0
H1080 H 0.46978 0.0556 0.01161 0.0
H1081 H 0.45857 0.08464 1.00204 0.0
H1082 H 0.4915 0.11702 0.95865 0.0
C1083 C 0.43787 0.14588 0.93588 0.0
C1084 C 0.4296 0.11141 0.97039 0.0
C1085 C 0.43039 0.16031 0.92856 0.0
C1086 C 0.47163 0.05967 0.99979 0.0
C1087 C 0.46505 0.07607 0.9943 0.0
C1088 C 0.47413 0.11519 0.962 0.0
C1089 C 0.435 0.14246 0.95142 0.0
C1090 C 0.44377 0.12777 0.9592 0.0
C1091 C 0.467 0.08142 0.97895 0.0
C1092 C 0.45963 0.09831 0.97285 0.0
H1093 H 0.40822 0.17616 0.9586 0.0
H1094 H 0.42164 0.15118 0.97143 0.0
H1095 H 0.4779 0.14258 0.94693 0.0
H1096 H 0.48914 0.04568 0.96703 0.0
H1097 H 0.47724 0.07376 0.95736 0.0
C1098 C 0.72641 0.18123 0.9394 0.0
C1099 C 0.74112 0.17299 0.93282 0.0
C1100 C 0.70511 0.16544 0.94709 0.0
C1101 C 0.66017 0.10062 0.95125 0.0
H1102 H 0.64074 0.12219 0.98651 0.0
C1103 C 0.5754 0.03591 0.98502 0.0
C1104 C 0.5589 0.04408 0.98784 0.0
C1105 C 0.59922 0.0519 0.9803 0.0
C1106 C 0.64595 0.11597 0.97666 0.0
H1107 H 0.74521 0.14183 0.92928 0.0
H1108 H 0.70824 0.11426 0.94291 0.0
H1109 H 0.67927 0.14943 0.97406 0.0
H1110 H 0.55375 0.07492 0.98775 0.0
H1111 H 0.5957 0.10319 0.97974 0.0
H1112 H 0.62689 0.06719 0.95387 0.0
C1113 C 0.71285 0.13283 0.94188 0.0
C1114 C 0.66795 0.13158 0.96948 0.0
C1115 C 0.73405 0.14861 0.93408 0.0
C1116 C 0.56653 0.06847 0.98604 0.0
C1117 C 0.59045 0.08456 0.98147 0.0
C1118 C 0.63834 0.085 0.95851 0.0
C1119 C 0.69808 0.14104 0.9485 0.0
C1120 C 0.67522 0.12417 0.95658 0.0
C1121 C 0.60683 0.07629 0.97816 0.0
C1122 C 0.63088 0.09255 0.97121 0.0
H1123 H 0.73125 0.19989 0.93845 0.0
H1124 H 0.69397 0.17234 0.95175 0.0
H1125 H 0.66489 0.09439 0.94122 0.0
H1126 H 0.56956 0.01698 0.9859 0.0
H1127 H 0.61147 0.04505 0.97791 0.0
C1128 C 0.82133 0.55129 0.94969 0.0
C1129 C 0.81659 0.54799 0.93421 0.0
C1130 C 0.83888 0.54683 0.95632 0.0
C1131 C 0.89512 0.54593 0.94729 0.0
H1132 H 0.88444 0.51123 0.9845 0.0
C1133 C 0.94631 0.50334 0.98405 0.0
C1134 C 0.96993 0.52344 0.98538 0.0
C1135 C 0.92688 0.50579 0.97839 0.0
C1136 C 0.88763 0.5209 0.97408 0.0
H1137 H 0.82595 0.53617 0.91376 0.0
H1138 H 0.85691 0.52908 0.92526 0.0
H1139 H 0.85124 0.5159 0.97355 0.0
H1140 H 0.99207 0.56155 0.98119 0.0
H1141 H 0.95824 0.56583 0.97112 0.0
H1142 H 0.9315 0.55116 0.94784 0.0
C1143 C 0.84717 0.53534 0.93223 0.0
C1144 C 0.86871 0.5237 0.96788 0.0
C1145 C 0.82946 0.53952 0.92563 0.0
C1146 C 0.97395 0.54585 0.98049 0.0
C1147 C 0.95463 0.54827 0.97469 0.0
C1148 C 0.91409 0.54344 0.95358 0.0
C1149 C 0.85229 0.5392 0.94761 0.0
C1150 C 0.87223 0.53616 0.95436 0.0
C1151 C 0.93087 0.52828 0.97359 0.0
C1152 C 0.91056 0.53086 0.96702 0.0
H1153 H 0.81206 0.55806 0.95665 0.0
H1154 H 0.84255 0.55014 0.96819 0.0
H1155 H 0.89849 0.55581 0.93695 0.0
H1156 H 0.94286 0.48571 0.98731 0.0
H1157 H 0.90885 0.49001 0.9775 0.0
C1158 C 0.41978 0.25239 0.95081 0.0
C1159 C 0.42168 0.25039 0.93526 0.0
C1160 C 0.42725 0.27471 0.95742 0.0
C1161 C 0.43632 0.33423 0.94988 0.0
H1162 H 0.48103 0.35474 0.98372 0.0
C1163 C 0.47977 0.43035 0.9733 0.0
C1164 C 0.48312 0.4335 0.98883 0.0
C1165 C 0.47266 0.40806 0.96678 0.0
C1166 C 0.46825 0.34918 0.97443 0.0
H1167 H 0.4331 0.27047 0.91451 0.0
H1168 H 0.44533 0.30928 0.92606 0.0
H1169 H 0.4671 0.31539 0.97246 0.0
H1170 H 0.48085 0.41577 0.00976 0.0
H1171 H 0.46797 0.37669 0.99853 0.0
H1172 H 0.4368 0.36756 0.952 0.0
C1173 C 0.43805 0.29349 0.93307 0.0
C1174 C 0.46038 0.32668 0.96796 0.0
C1175 C 0.43092 0.27123 0.92647 0.0
C1176 C 0.47909 0.41398 0.99775 0.0
C1177 C 0.47164 0.39157 0.99127 0.0
C1178 C 0.4439 0.35658 0.95646 0.0
C1179 C 0.43643 0.29543 0.9486 0.0
C1180 C 0.44445 0.31908 0.95559 0.0
C1181 C 0.46831 0.38831 0.9757 0.0
C1182 C 0.46007 0.3644 0.96878 0.0
H1183 H 0.41235 0.23669 0.95789 0.0
H1184 H 0.42556 0.27575 0.96941 0.0
H1185 H 0.42379 0.32862 0.94044 0.0
H1186 H 0.48293 0.44522 0.96617 0.0
H1187 H 0.47076 0.4064 0.95474 0.0
C1188 C 0.16214 0.73676 0.07974 0.0
C1189 C 0.18754 0.74572 0.07885 0.0
C1190 C 0.14562 0.71495 0.07295 0.0
C1191 C 0.14124 0.67235 0.04364 0.0
H1192 H 0.08189 0.62774 0.0645 0.0
C1193 C 0.07788 0.57531 0.02289 0.0
C1194 C 0.05244 0.56611 0.02377 0.0
C1195 C 0.09424 0.59738 0.02944 0.0
C1196 C 0.09823 0.64012 0.05845 0.0
H1197 H 0.21548 0.7386 0.07025 0.0
H1198 H 0.18663 0.7005 0.05839 0.0
H1199 H 0.11073 0.66586 0.07628 0.0
H1200 H 0.02425 0.57292 0.03234 0.0
H1201 H 0.05282 0.6115 0.04372 0.0
H1202 H 0.12875 0.64658 0.02581 0.0
C1203 C 0.1795 0.71053 0.06417 0.0
C1204 C 0.11477 0.66197 0.0652 0.0
C1205 C 0.19604 0.73236 0.07097 0.0
C1206 C 0.04372 0.57945 0.03145 0.0
C1207 C 0.06011 0.60153 0.03803 0.0
C1208 C 0.1247 0.6505 0.03688 0.0
C1209 C 0.15409 0.70157 0.06509 0.0
C1210 C 0.13648 0.67834 0.05788 0.0
C1211 C 0.08556 0.61075 0.0371 0.0
C1212 C 0.10301 0.63411 0.04421 0.0
H1213 H 0.15501 0.74681 0.08551 0.0
H1214 H 0.12619 0.70875 0.07367 0.0
H1215 H 0.1576 0.68472 0.03759 0.0
H1216 H 0.08526 0.56533 0.01731 0.0
H1217 H 0.11371 0.60376 0.02872 0.0
C1218 C 0.26592 0.44454 0.06269 0.0
C1219 C 0.26539 0.44764 0.07827 0.0
C1220 C 0.28767 0.44931 0.05555 0.0
C1221 C 0.34608 0.45143 0.06286 0.0
H1222 H 0.3674 0.48639 0.02551 0.0
C1223 C 0.43855 0.49557 0.02459 0.0
C1224 C 0.44226 0.47579 0.02343 0.0
C1225 C 0.41644 0.49265 0.03021 0.0
C1226 C 0.36168 0.47666 0.03595 0.0
H1227 H 0.28791 0.45907 0.09836 0.0
H1228 H 0.32552 0.4667 0.08596 0.0
H1229 H 0.32997 0.48086 0.03761 0.0
H1230 H 0.42605 0.43765 0.02739 0.0
H1231 H 0.38767 0.43259 0.03737 0.0
H1232 H 0.37754 0.44703 0.0612 0.0
C1233 C 0.309 0.46043 0.07931 0.0
C1234 C 0.3402 0.47335 0.04283 0.0
C1235 C 0.28735 0.45593 0.08643 0.0
C1236 C 0.42356 0.45314 0.02804 0.0
C1237 C 0.40165 0.45028 0.03379 0.0
C1238 C 0.36729 0.45444 0.0559 0.0
C1239 C 0.3094 0.45704 0.0638 0.0
C1240 C 0.33221 0.46076 0.05639 0.0
C1241 C 0.39793 0.47002 0.03513 0.0
C1242 C 0.37535 0.46707 0.04238 0.0
H1243 H 0.24939 0.43784 0.05602 0.0
H1244 H 0.28731 0.44628 0.04361 0.0
H1245 H 0.34033 0.44147 0.07322 0.0
H1246 H 0.45291 0.51335 0.02148 0.0
H1247 H 0.41418 0.50823 0.03122 0.0
C1248 C 0.58138 0.84572 0.08023 0.0
C1249 C 0.59208 0.83411 0.07265 0.0
C1250 C 0.57354 0.85944 0.07236 0.0
C1251 C 0.57995 0.89103 0.03674 0.0
H1252 H 0.51696 0.88323 0.04803 0.0
C1253 C 0.53359 0.93878 0.00649 0.0
C1254 C 0.52536 0.95025 0.01638 0.0
C1255 C 0.54123 0.9231 0.01198 0.0
C1256 C 0.5346 0.88562 0.04476 0.0
H1257 H 0.60402 0.82871 0.05099 0.0
H1258 H 0.59007 0.85249 0.03723 0.0
H1259 H 0.53233 0.8598 0.06064 0.0
H1260 H 0.51818 0.9538 0.03975 0.0
H1261 H 0.53133 0.92679 0.04913 0.0
H1262 H 0.58221 0.91716 0.02095 0.0
C1263 C 0.58776 0.85099 0.04924 0.0
C1264 C 0.54346 0.8723 0.05203 0.0
C1265 C 0.59556 0.83722 0.05711 0.0
C1266 C 0.52455 0.94545 0.03177 0.0
C1267 C 0.5319 0.92975 0.03718 0.0
C1268 C 0.57103 0.90439 0.02943 0.0
C1269 C 0.57626 0.86189 0.05675 0.0
C1270 C 0.56646 0.87521 0.04834 0.0
C1271 C 0.54033 0.91841 0.0274 0.0
C1272 C 0.5485 0.90217 0.03361 0.0
H1273 H 0.57832 0.84355 0.09217 0.0
H1274 H 0.56512 0.86797 0.0785 0.0
H1275 H 0.59776 0.89369 0.03366 0.0
H1276 H 0.53443 0.94214 0.99458 0.0
H1277 H 0.54763 0.91452 0.00419 0.0
C1278 C 0.94947 0.15159 0.40618 0.0
C1279 C 0.9339 0.15835 0.41324 0.0
C1280 C 0.97029 0.16854 0.39852 0.0
C1281 C 0.01191 0.23438 0.39526 0.0
H1282 H 0.03259 0.2172 0.35869 0.0
C1283 C 0.08921 0.30582 0.35972 0.0
C1284 C 0.10794 0.30104 0.35587 0.0
C1285 C 0.06689 0.28758 0.36514 0.0
C1286 C 0.02704 0.22218 0.36893 0.0
H1287 H 0.92767 0.18805 0.41758 0.0
H1288 H 0.96365 0.21754 0.40403 0.0
H1289 H 0.99581 0.18709 0.37157 0.0
H1290 H 0.11811 0.27346 0.35462 0.0
H1291 H 0.0788 0.24132 0.36386 0.0
H1292 H 0.04296 0.26947 0.39255 0.0
C1293 C 0.96021 0.19929 0.40469 0.0
C1294 C 0.00605 0.20494 0.37636 0.0
C1295 C 0.93954 0.18239 0.41244 0.0
C1296 C 0.10375 0.2775 0.35716 0.0
C1297 C 0.0813 0.25915 0.3625 0.0
C1298 C 0.03268 0.2516 0.38778 0.0
C1299 C 0.97593 0.19263 0.39766 0.0
C1300 C 0.99822 0.21083 0.38963 0.0
C1301 C 0.06291 0.26418 0.36693 0.0
C1302 C 0.04047 0.24572 0.37454 0.0
H1303 H 0.94571 0.13322 0.40673 0.0
H1304 H 0.98215 0.16281 0.39348 0.0
H1305 H 0.00684 0.23949 0.40562 0.0
H1306 H 0.09211 0.32389 0.35893 0.0
H1307 H 0.05295 0.29191 0.36831 0.0
C1308 C 0.82678 0.76259 0.41019 0.0
C1309 C 0.85153 0.78071 0.41048 0.0
C1310 C 0.8091 0.76642 0.40322 0.0
C1311 C 0.80105 0.80658 0.37653 0.0
H1312 H 0.73696 0.77834 0.39496 0.0
C1313 C 0.72472 0.82836 0.35923 0.0
C1314 C 0.70105 0.80844 0.35755 0.0
C1315 C 0.74384 0.82551 0.365 0.0
C1316 C 0.7547 0.78619 0.3896 0.0
H1317 H 0.87718 0.81706 0.4036 0.0
H1318 H 0.84624 0.82402 0.3917 0.0
H1319 H 0.76884 0.77271 0.40638 0.0
H1320 H 0.67854 0.77019 0.36112 0.0
H1321 H 0.71179 0.76518 0.37133 0.0
H1322 H 0.78672 0.82047 0.3599 0.0
C1323 C 0.8405 0.80663 0.39661 0.0
C1324 C 0.77301 0.78289 0.39612 0.0
C1325 C 0.85826 0.80269 0.40347 0.0
C1326 C 0.69671 0.78577 0.3621 0.0
C1327 C 0.71571 0.78294 0.36799 0.0
C1328 C 0.78272 0.81008 0.37008 0.0
C1329 C 0.81562 0.78858 0.39648 0.0
C1330 C 0.7964 0.79281 0.38961 0.0
C1331 C 0.73947 0.80277 0.36957 0.0
C1332 C 0.75928 0.79972 0.37648 0.0
H1333 H 0.82107 0.7453 0.41525 0.0
H1334 H 0.79029 0.75184 0.40305 0.0
H1335 H 0.81869 0.81429 0.37108 0.0
H1336 H 0.7284 0.84616 0.35622 0.0
H1337 H 0.76189 0.84116 0.36625 0.0
C1338 C 0.23095 0.05737 0.42377 0.0
C1339 C 0.23802 0.07841 0.41553 0.0
C1340 C 0.22486 0.03582 0.41651 0.0
C1341 C 0.23069 0.01113 0.38009 0.0
H1342 H 0.17792 0.95164 0.39593 0.0
C1343 C 0.18817 0.92018 0.34854 0.0
C1344 C 0.18602 0.90081 0.35693 0.0
C1345 C 0.19448 0.94201 0.35551 0.0
C1346 C 0.19277 0.96813 0.39144 0.0
H1347 H 0.24466 0.0933 0.39315 0.0
H1348 H 0.23296 0.05558 0.38049 0.0
H1349 H 0.18898 0.98951 0.40838 0.0
H1350 H 0.18857 0.8889 0.37919 0.0
H1351 H 0.19929 0.92696 0.39141 0.0
H1352 H 0.23396 0.98957 0.36293 0.0
C1353 C 0.23258 0.05577 0.39259 0.0
C1354 C 0.19923 0.98983 0.39861 0.0
C1355 C 0.23894 0.07738 0.39985 0.0
C1356 C 0.19019 0.90359 0.37243 0.0
C1357 C 0.19614 0.92527 0.37944 0.0
C1358 C 0.224 0.98944 0.37281 0.0
C1359 C 0.22541 0.03469 0.40082 0.0
C1360 C 0.21838 0.01161 0.39308 0.0
C1361 C 0.19842 0.9447 0.37103 0.0
C1362 C 0.20508 0.96775 0.37848 0.0
H1363 H 0.22975 0.05741 0.43584 0.0
H1364 H 0.21982 0.02006 0.42325 0.0
H1365 H 0.2458 0.02747 0.37564 0.0
H1366 H 0.18558 0.91871 0.33657 0.0
H1367 H 0.1961 0.95674 0.34879 0.0
C1368 C 0.48395 0.58962 0.28083 0.0
C1369 C 0.47961 0.58826 0.26532 0.0
C1370 C 0.50056 0.61141 0.28762 0.0
C1371 C 0.53468 0.67749 0.28108 0.0
H1372 H 0.57441 0.67723 0.31425 0.0
C1373 C 0.61803 0.76344 0.30486 0.0
C1374 C 0.61818 0.7663 0.32043 0.0
C1375 C 0.60111 0.74172 0.29812 0.0
C1376 C 0.56332 0.67752 0.30504 0.0
H1377 H 0.48921 0.60909 0.24487 0.0
H1378 H 0.519 0.64666 0.25654 0.0
H1379 H 0.54497 0.63939 0.30241 0.0
H1380 H 0.60173 0.74848 0.34121 0.0
H1381 H 0.57221 0.71042 0.32949 0.0
H1382 H 0.55372 0.7158 0.28353 0.0
C1383 C 0.50916 0.63102 0.26356 0.0
C1384 C 0.54633 0.65585 0.2983 0.0
C1385 C 0.49231 0.60931 0.2568 0.0
C1386 C 0.60158 0.74693 0.32919 0.0
C1387 C 0.58492 0.72508 0.32249 0.0
C1388 C 0.55193 0.69918 0.28769 0.0
C1389 C 0.51354 0.63239 0.27906 0.0
C1390 C 0.5317 0.65551 0.28625 0.0
C1391 C 0.58439 0.72235 0.30688 0.0
C1392 C 0.56634 0.69938 0.29976 0.0
H1393 H 0.47478 0.57377 0.28775 0.0
H1394 H 0.5031 0.61177 0.29961 0.0
H1395 H 0.52346 0.67799 0.27204 0.0
H1396 H 0.63068 0.77816 0.29787 0.0
H1397 H 0.60121 0.73999 0.28608 0.0
C1398 C 0.38924 0.86372 0.2745 0.0
C1399 C 0.40477 0.88561 0.26736 0.0
C1400 C 0.36784 0.86002 0.28165 0.0
C1401 C 0.32498 0.88423 0.2829 0.0
H1402 H 0.30181 0.847 0.31932 0.0
C1403 C 0.247 0.88199 0.31731 0.0
C1404 C 0.22807 0.85932 0.32168 0.0
C1405 C 0.2689 0.88475 0.31163 0.0
C1406 C 0.308 0.8573 0.30909 0.0
H1407 H 0.41045 0.92107 0.26262 0.0
H1408 H 0.37361 0.91492 0.27528 0.0
H1409 H 0.33948 0.85283 0.30759 0.0
H1410 H 0.21696 0.8216 0.32325 0.0
H1411 H 0.25561 0.82649 0.31358 0.0
H1412 H 0.29376 0.88901 0.28452 0.0
C1413 C 0.37743 0.90025 0.27501 0.0
C1414 C 0.32955 0.8606 0.30233 0.0
C1415 C 0.39864 0.90384 0.26777 0.0
C1416 C 0.2315 0.83939 0.32032 0.0
C1417 C 0.25358 0.84219 0.31475 0.0
C1418 C 0.30366 0.88113 0.28972 0.0
C1419 C 0.36155 0.8782 0.28193 0.0
C1420 C 0.33841 0.87423 0.28916 0.0
C1421 C 0.27235 0.86486 0.31009 0.0
C1422 C 0.29496 0.86774 0.30292 0.0
H1423 H 0.39338 0.84926 0.27429 0.0
H1424 H 0.35599 0.84271 0.28667 0.0
H1425 H 0.33076 0.8943 0.27258 0.0
H1426 H 0.24472 0.89759 0.31811 0.0
H1427 H 0.2831 0.90247 0.30827 0.0
C1428 C 0.08852 0.48697 0.26276 0.0
C1429 C 0.10457 0.51192 0.26298 0.0
C1430 C 0.09472 0.4716 0.27016 0.0
C1431 C 0.14742 0.46849 0.28625 0.0
H1432 H 0.09664 0.41447 0.30796 0.0
C1433 C 0.16782 0.40824 0.32481 0.0
C1434 C 0.15223 0.38337 0.32294 0.0
C1435 C 0.1622 0.4245 0.31802 0.0
C1436 C 0.11097 0.42941 0.30188 0.0
H1437 H 0.14006 0.54021 0.27076 0.0
H1438 H 0.15054 0.51348 0.28401 0.0
H1439 H 0.0866 0.4416 0.29474 0.0
H1440 H 0.11837 0.35612 0.3126 0.0
H1441 H 0.10866 0.38443 0.30082 0.0
H1442 H 0.1718 0.45627 0.2935 0.0
C1443 C 0.13327 0.50574 0.278 0.0
C1444 C 0.10522 0.4449 0.29425 0.0
C1445 C 0.12712 0.5211 0.27056 0.0
C1446 C 0.13079 0.37513 0.3143 0.0
C1447 C 0.12512 0.39135 0.30761 0.0
C1448 C 0.1532 0.45305 0.29395 0.0
C1449 C 0.11707 0.48082 0.27799 0.0
C1450 C 0.12332 0.46453 0.28625 0.0
C1451 C 0.14081 0.41619 0.30932 0.0
C1452 C 0.13499 0.43326 0.30175 0.0
H1453 H 0.07094 0.47934 0.25713 0.0
H1454 H 0.08198 0.45245 0.26973 0.0
H1455 H 0.16174 0.48325 0.28004 0.0
H1456 H 0.18456 0.41519 0.33132 0.0
H1457 H 0.17453 0.44356 0.31961 0.0
C1458 C 0.38015 0.49351 0.25923 0.0
C1459 C 0.40232 0.50793 0.26692 0.0
C1460 C 0.35933 0.47662 0.26689 0.0
C1461 C 0.32459 0.4321 0.28464 0.0
H1462 H 0.30444 0.44824 0.32182 0.0
C1463 C 0.248 0.35975 0.32026 0.0
C1464 C 0.22925 0.36441 0.3243 0.0
C1465 C 0.27021 0.37811 0.31479 0.0
C1466 C 0.3099 0.44354 0.31145 0.0
H1467 H 0.41984 0.51566 0.28877 0.0
H1468 H 0.38334 0.48654 0.30213 0.0
H1469 H 0.34078 0.47894 0.30871 0.0
H1470 H 0.21895 0.39187 0.32583 0.0
H1471 H 0.25809 0.42421 0.31657 0.0
H1472 H 0.29382 0.3968 0.28729 0.0
C1473 C 0.38211 0.48846 0.29017 0.0
C1474 C 0.33071 0.46101 0.30401 0.0
C1475 C 0.40301 0.50518 0.2825 0.0
C1476 C 0.23332 0.38792 0.32315 0.0
C1477 C 0.25568 0.40639 0.3178 0.0
C1478 C 0.30403 0.41461 0.29215 0.0
C1479 C 0.3601 0.4739 0.28244 0.0
C1480 C 0.33817 0.45548 0.29048 0.0
C1481 C 0.27409 0.4015 0.31319 0.0
C1482 C 0.29642 0.42013 0.30561 0.0
H1483 H 0.37876 0.49541 0.24729 0.0
H1484 H 0.34251 0.46583 0.26066 0.0
H1485 H 0.33002 0.42726 0.27432 0.0
H1486 H 0.24519 0.34171 0.32093 0.0
H1487 H 0.28418 0.37389 0.31147 0.0
C1488 C 0.49612 0.87363 0.25824 0.0
C1489 C 0.48302 0.88204 0.26664 0.0
C1490 C 0.51393 0.86978 0.265 0.0
C1491 C 0.53534 0.85891 0.30092 0.0
H1492 H 0.59833 0.88646 0.28112 0.0
C1493 C 0.64061 0.88147 0.31391 0.0
C1494 C 0.63665 0.85904 0.31873 0.0
C1495 C 0.62127 0.88386 0.30814 0.0
C1496 C 0.58087 0.87873 0.28681 0.0
H1497 H 0.47826 0.89244 0.28894 0.0
H1498 H 0.50893 0.88509 0.30078 0.0
H1499 H 0.56528 0.89074 0.26994 0.0
H1500 H 0.60964 0.82128 0.3206 0.0
H1501 H 0.57558 0.82555 0.31086 0.0
H1502 H 0.55105 0.84679 0.31777 0.0
C1503 C 0.50534 0.88155 0.28892 0.0
C1504 C 0.56188 0.881 0.28034 0.0
C1505 C 0.48769 0.88568 0.28212 0.0
C1506 C 0.61304 0.83892 0.3174 0.0
C1507 C 0.59359 0.84135 0.31179 0.0
C1508 C 0.55428 0.85633 0.3073 0.0
C1509 C 0.51893 0.87394 0.28038 0.0
C1510 C 0.53891 0.87117 0.28732 0.0
C1511 C 0.59755 0.86383 0.307 0.0
C1512 C 0.57728 0.86632 0.30032 0.0
H1513 H 0.49268 0.87005 0.24638 0.0
H1514 H 0.52383 0.86353 0.25817 0.0
H1515 H 0.5178 0.85107 0.30653 0.0
H1516 H 0.65873 0.89718 0.3146 0.0
H1517 H 0.62485 0.90142 0.30458 0.0
C1518 C 0.10887 0.60948 0.25569 0.0
C1519 C 0.10133 0.58833 0.26394 0.0
C1520 C 0.11415 0.63085 0.26289 0.0
C1521 C 0.1342 0.66231 0.29853 0.0
H1522 H 0.10624 0.70022 0.28382 0.0
C1523 C 0.14737 0.74651 0.32996 0.0
C1524 C 0.15034 0.76598 0.32135 0.0
C1525 C 0.14088 0.72452 0.32316 0.0
C1526 C 0.11451 0.69006 0.28795 0.0
H1527 H 0.09304 0.5731 0.28625 0.0
H1528 H 0.10305 0.61067 0.29881 0.0
H1529 H 0.0961 0.66253 0.27142 0.0
H1530 H 0.1491 0.77797 0.29891 0.0
H1531 H 0.13854 0.73992 0.28694 0.0
H1532 H 0.1532 0.69003 0.31478 0.0
C1533 C 0.10486 0.61058 0.28677 0.0
C1534 C 0.10859 0.66843 0.28088 0.0
C1535 C 0.09925 0.58912 0.27957 0.0
C1536 C 0.14673 0.76314 0.30583 0.0
C1537 C 0.14056 0.74128 0.29899 0.0
C1538 C 0.1404 0.68411 0.30549 0.0
C1539 C 0.11233 0.63161 0.27849 0.0
C1540 C 0.11838 0.65438 0.2861 0.0
C1541 C 0.13745 0.72164 0.30758 0.0
C1542 C 0.13066 0.69829 0.30028 0.0
H1543 H 0.1111 0.60966 0.24368 0.0
H1544 H 0.12014 0.64692 0.25627 0.0
H1545 H 0.14219 0.65189 0.30267 0.0
H1546 H 0.14935 0.74801 0.34196 0.0
H1547 H 0.13813 0.70968 0.33018 0.0
C1548 C 0.84368 0.05675 0.42191 0.0
C1549 C 0.85676 0.07803 0.41362 0.0
C1550 C 0.82702 0.03524 0.41486 0.0
C1551 C 0.81216 0.0036 0.3791 0.0
H1552 H 0.74632 0.96674 0.39486 0.0
C1553 C 0.73683 0.92094 0.34768 0.0
C1554 C 0.71974 0.90152 0.35619 0.0
C1555 C 0.75339 0.94262 0.3546 0.0
C1556 C 0.76472 0.97654 0.39043 0.0
H1557 H 0.86234 0.09314 0.39131 0.0
H1558 H 0.83391 0.05536 0.379 0.0
H1559 H 0.77598 0.0039 0.40725 0.0
H1560 H 0.70641 0.88934 0.37857 0.0
H1561 H 0.73577 0.9268 0.39078 0.0
H1562 H 0.80136 0.97607 0.36254 0.0
C1563 C 0.83662 0.05549 0.39098 0.0
C1564 C 0.78166 0.99791 0.39751 0.0
C1565 C 0.853 0.07709 0.39805 0.0
C1566 C 0.71934 0.90415 0.37174 0.0
C1567 C 0.73612 0.92569 0.37871 0.0
C1568 C 0.79536 0.98204 0.37214 0.0
C1569 C 0.82334 0.03442 0.39933 0.0
C1570 C 0.8055 0.01166 0.39189 0.0
C1571 C 0.7534 0.94526 0.37024 0.0
C1572 C 0.77136 0.96824 0.37768 0.0
H1573 H 0.84641 0.05662 0.43386 0.0
H1574 H 0.8172 0.01916 0.42153 0.0
H1575 H 0.83053 0.01377 0.37463 0.0
H1576 H 0.73704 0.91961 0.33565 0.0
H1577 H 0.76595 0.95741 0.34764 0.0
C1578 C 0.95474 0.79111 0.419 0.0
C1579 C 0.93291 0.78318 0.41076 0.0
C1580 C 0.9763 0.79518 0.41196 0.0
C1581 C 0.00765 0.80742 0.37557 0.0
H1582 H 0.04383 0.77999 0.39415 0.0
C1583 C 0.0899 0.78542 0.36111 0.0
C1584 C 0.1088 0.80795 0.35648 0.0
C1585 C 0.0681 0.78288 0.36684 0.0
C1586 C 0.03389 0.7877 0.38879 0.0
H1587 H 0.91703 0.77356 0.38848 0.0
H1588 H 0.95481 0.78125 0.37621 0.0
H1589 H 0.00685 0.77525 0.40605 0.0
H1590 H 0.11995 0.84563 0.3545 0.0
H1591 H 0.08145 0.84108 0.36417 0.0
H1592 H 0.03492 0.81993 0.35831 0.0
C1593 C 0.95515 0.78435 0.38814 0.0
C1594 C 0.01283 0.78517 0.39568 0.0
C1595 C 0.93348 0.78001 0.3952 0.0
C1596 C 0.10543 0.82793 0.35762 0.0
C1597 C 0.08345 0.82534 0.3632 0.0
C1598 C 0.02898 0.81024 0.36876 0.0
C1599 C 0.97673 0.7917 0.39647 0.0
C1600 C 0.9994 0.79492 0.38915 0.0
C1601 C 0.06472 0.80284 0.36811 0.0
C1602 C 0.04222 0.80026 0.37527 0.0
H1603 H 0.95525 0.79427 0.43093 0.0
H1604 H 0.99273 0.80117 0.41866 0.0
H1605 H 0.99776 0.81524 0.3703 0.0
H1606 H 0.09214 0.76978 0.36049 0.0
H1607 H 0.05394 0.76528 0.37042 0.0
C1608 C 0.21104 0.14489 0.41037 0.0
C1609 C 0.23413 0.15439 0.41735 0.0
C1610 C 0.20416 0.15998 0.40328 0.0
C1611 C 0.2172 0.22235 0.40214 0.0
H1612 H 0.18907 0.2059 0.36225 0.0
C1613 C 0.2062 0.29017 0.3662 0.0
C1614 C 0.18473 0.28185 0.35759 0.0
C1615 C 0.21158 0.27405 0.3733 0.0
C1616 C 0.19658 0.21059 0.37346 0.0
H1617 H 0.26801 0.18727 0.42238 0.0
H1618 H 0.25577 0.21364 0.41022 0.0
H1619 H 0.1993 0.17877 0.37542 0.0
H1620 H 0.15213 0.24997 0.34958 0.0
H1621 H 0.16139 0.22174 0.36218 0.0
H1622 H 0.21433 0.254 0.40032 0.0
C1623 C 0.24299 0.19449 0.41032 0.0
C1624 C 0.20247 0.19507 0.38098 0.0
C1625 C 0.24997 0.17939 0.41731 0.0
C1626 C 0.16891 0.25697 0.35605 0.0
C1627 C 0.17425 0.24079 0.36325 0.0
C1628 C 0.21116 0.23776 0.39467 0.0
C1629 C 0.2201 0.18492 0.40313 0.0
C1630 C 0.21304 0.20092 0.39534 0.0
C1631 C 0.19554 0.24917 0.37208 0.0
C1632 C 0.20103 0.23221 0.38018 0.0
H1633 H 0.19822 0.12576 0.41043 0.0
H1634 H 0.18626 0.15215 0.39801 0.0
H1635 H 0.22496 0.22712 0.41329 0.0
H1636 H 0.21893 0.3092 0.36753 0.0
H1637 H 0.22841 0.28113 0.37973 0.0
C1638 C 0.61519 0.48385 0.73751 0.0
C1639 C 0.60043 0.49147 0.74474 0.0
C1640 C 0.63596 0.50017 0.72958 0.0
C1641 C 0.6633 0.55822 0.7103 0.0
H1642 H 0.72503 0.55999 0.71719 0.0
C1643 C 0.75586 0.63813 0.69236 0.0
C1644 C 0.7749 0.63403 0.68814 0.0
C1645 C 0.7336 0.61928 0.69742 0.0
C1646 C 0.70787 0.55946 0.71486 0.0
H1647 H 0.59573 0.52208 0.74921 0.0
H1648 H 0.63204 0.55063 0.73528 0.0
H1649 H 0.68818 0.53 0.72981 0.0
H1650 H 0.78579 0.60708 0.68602 0.0
H1651 H 0.74656 0.57384 0.6943 0.0
H1652 H 0.68284 0.58756 0.6953 0.0
C1653 C 0.62748 0.53201 0.73576 0.0
C1654 C 0.68677 0.54233 0.72218 0.0
C1655 C 0.60686 0.51575 0.74385 0.0
C1656 C 0.77122 0.61064 0.68891 0.0
C1657 C 0.74885 0.59168 0.69386 0.0
C1658 C 0.68433 0.5752 0.70285 0.0
C1659 C 0.64226 0.5244 0.72855 0.0
C1660 C 0.66435 0.54176 0.72016 0.0
C1661 C 0.72989 0.59584 0.69845 0.0
C1662 C 0.707 0.57632 0.70522 0.0
H1663 H 0.61075 0.46527 0.73809 0.0
H1664 H 0.64695 0.49377 0.72408 0.0
H1665 H 0.64616 0.55794 0.70834 0.0
H1666 H 0.75842 0.6561 0.69208 0.0
H1667 H 0.71968 0.62332 0.70109 0.0
C1668 C 0.52377 0.13 0.73945 0.0
C1669 C 0.51682 0.10811 0.74667 0.0
C1670 C 0.50613 0.13426 0.73271 0.0
C1671 C 0.43856 0.11139 0.73226 0.0
H1672 H 0.45308 0.14921 0.6961 0.0
C1673 C 0.36311 0.11594 0.69809 0.0
C1674 C 0.36784 0.13881 0.69368 0.0
C1675 C 0.38185 0.11262 0.70393 0.0
C1676 C 0.44884 0.13875 0.70625 0.0
H1677 H 0.48594 0.07323 0.75198 0.0
H1678 H 0.45537 0.08028 0.73998 0.0
H1679 H 0.48459 0.14246 0.70738 0.0
H1680 H 0.39576 0.17637 0.69255 0.0
H1681 H 0.42877 0.1705 0.70239 0.0
H1682 H 0.40268 0.10729 0.73093 0.0
C1683 C 0.4743 0.09459 0.7399 0.0
C1684 C 0.46692 0.13493 0.71278 0.0
C1685 C 0.49187 0.09047 0.74677 0.0
C1686 C 0.39172 0.15841 0.69539 0.0
C1687 C 0.41059 0.15506 0.70109 0.0
C1688 C 0.42047 0.11498 0.72565 0.0
C1689 C 0.48108 0.11662 0.73286 0.0
C1690 C 0.46203 0.12111 0.72588 0.0
C1691 C 0.40579 0.13214 0.70559 0.0
C1692 C 0.42533 0.12863 0.71255 0.0
H1693 H 0.54283 0.14403 0.73926 0.0
H1694 H 0.51214 0.15157 0.72761 0.0
H1695 H 0.43414 0.10118 0.74252 0.0
H1696 H 0.34478 0.1006 0.6971 0.0
H1697 H 0.37758 0.09473 0.70721 0.0
C1698 C 0.91523 0.41326 0.73105 0.0
C1699 C 0.91033 0.41385 0.74631 0.0
C1700 C 0.90877 0.39148 0.72398 0.0
C1701 C 0.86637 0.32686 0.72654 0.0
H1702 H 0.91291 0.32116 0.70097 0.0
C1703 C 0.8783 0.24755 0.69719 0.0
C1704 C 0.8555 0.23427 0.68996 0.0
C1705 C 0.88516 0.26988 0.70358 0.0
C1706 C 0.89976 0.32251 0.7081 0.0
H1707 H 0.89475 0.39224 0.76612 0.0
H1708 H 0.88333 0.35407 0.75372 0.0
H1709 H 0.92474 0.35943 0.71335 0.0
H1710 H 0.82196 0.23401 0.68379 0.0
H1711 H 0.83398 0.27301 0.69502 0.0
H1712 H 0.84141 0.28992 0.72132 0.0
C1713 C 0.89216 0.37047 0.74726 0.0
C1714 C 0.90646 0.34441 0.71509 0.0
C1715 C 0.89887 0.39228 0.75437 0.0
C1716 C 0.83972 0.24383 0.68922 0.0
C1717 C 0.8465 0.26608 0.69573 0.0
C1718 C 0.85958 0.30503 0.71942 0.0
C1719 C 0.89706 0.36987 0.73199 0.0
C1720 C 0.88987 0.34675 0.72444 0.0
C1721 C 0.86926 0.27928 0.703 0.0
C1722 C 0.87626 0.30262 0.7102 0.0
H1723 H 0.9242 0.42967 0.72461 0.0
H1724 H 0.91262 0.39151 0.71218 0.0
H1725 H 0.85317 0.32824 0.73359 0.0
H1726 H 0.8909 0.24071 0.69796 0.0
H1727 H 0.90272 0.2796 0.70924 0.0
C1728 C 0.16134 0.94238 0.5907 0.0
C1729 C 0.14807 0.92122 0.59905 0.0
C1730 C 0.17835 0.96383 0.59767 0.0
C1731 C 0.2146 0.9875 0.63287 0.0
H1732 H 0.22358 0.04818 0.61835 0.0
C1733 C 0.2694 0.07779 0.66472 0.0
C1734 C 0.2866 0.09723 0.65626 0.0
C1735 C 0.25289 0.05615 0.65775 0.0
C1736 C 0.22135 0.03135 0.62244 0.0
H1737 H 0.14246 0.90625 0.62138 0.0
H1738 H 0.171 0.9438 0.63359 0.0
H1739 H 0.19335 0.01084 0.60638 0.0
H1740 H 0.30033 0.10943 0.63393 0.0
H1741 H 0.27112 0.07164 0.62165 0.0
H1742 H 0.24217 0.00822 0.64925 0.0
C1743 C 0.16879 0.94373 0.62158 0.0
C1744 C 0.20411 0.00993 0.61555 0.0
C1745 C 0.15205 0.9222 0.61459 0.0
C1746 C 0.28723 0.09464 0.6407 0.0
C1747 C 0.27045 0.07314 0.63368 0.0
C1748 C 0.23156 0.00891 0.6399 0.0
C1749 C 0.18232 0.96482 0.61321 0.0
C1750 C 0.20055 0.98768 0.62064 0.0
C1751 C 0.2531 0.05371 0.64215 0.0
C1752 C 0.23514 0.03102 0.63471 0.0
H1753 H 0.15856 0.94246 0.57875 0.0
H1754 H 0.18861 0.97956 0.59078 0.0
H1755 H 0.2128 0.97083 0.63693 0.0
H1756 H 0.26895 0.07914 0.67674 0.0
H1757 H 0.23969 0.04143 0.66452 0.0
C1758 C 0.06699 0.23746 0.60179 0.0
C1759 C 0.0736 0.21956 0.60174 0.0
C1760 C 0.04545 0.23359 0.60875 0.0
C1761 C 0.99704 0.19357 0.63581 0.0
H1762 H 0.96141 0.22183 0.61759 0.0
C1763 C 0.89835 0.17183 0.65296 0.0
C1764 C 0.89489 0.19173 0.65441 0.0
C1765 C 0.92054 0.17471 0.6475 0.0
C1766 C 0.97124 0.21398 0.6229 0.0
H1767 H 0.06269 0.18349 0.60903 0.0
H1768 H 0.02471 0.17641 0.62087 0.0
H1769 H 0.99875 0.22738 0.60601 0.0
H1770 H 0.91158 0.23003 0.651 0.0
H1771 H 0.95014 0.23507 0.64134 0.0
H1772 H 0.96884 0.17968 0.65253 0.0
C1773 C 0.03644 0.19371 0.6158 0.0
C1774 C 0.99279 0.21724 0.61628 0.0
C1775 C 0.05819 0.1977 0.60895 0.0
C1776 C 0.91389 0.21445 0.65017 0.0
C1777 C 0.9359 0.2173 0.64458 0.0
C1778 C 0.97525 0.19008 0.64235 0.0
C1779 C 0.02967 0.21157 0.61573 0.0
C1780 C 0.00621 0.20733 0.6227 0.0
C1781 C 0.93942 0.19745 0.64302 0.0
C1782 C 0.96225 0.20047 0.63604 0.0
H1783 H 0.07869 0.25467 0.59659 0.0
H1784 H 0.04134 0.24806 0.60875 0.0
H1785 H 0.00691 0.18585 0.64122 0.0
H1786 H 0.88377 0.15399 0.65572 0.0
H1787 H 0.92261 0.15903 0.6463 0.0
C1788 C 0.75695 0.83626 0.6153 0.0
C1789 C 0.75918 0.83961 0.59972 0.0
C1790 C 0.7641 0.82131 0.62232 0.0
C1791 C 0.77383 0.77057 0.61577 0.0
H1792 H 0.81726 0.79477 0.65019 0.0
C1793 C 0.818 0.71856 0.6402 0.0
C1794 C 0.82035 0.71826 0.65579 0.0
C1795 C 0.81111 0.7339 0.63352 0.0
C1796 C 0.80485 0.78758 0.64073 0.0
H1797 H 0.77058 0.82965 0.57932 0.0
H1798 H 0.78235 0.80301 0.59157 0.0
H1799 H 0.80305 0.81985 0.63834 0.0
H1800 H 0.817 0.73346 0.67664 0.0
H1801 H 0.80451 0.76002 0.66508 0.0
H1802 H 0.77504 0.73814 0.61826 0.0
C1803 C 0.77507 0.81202 0.5983 0.0
C1804 C 0.79679 0.80199 0.63393 0.0
C1805 C 0.76821 0.8272 0.5913 0.0
C1806 C 0.8159 0.73374 0.6646 0.0
C1807 C 0.80867 0.74891 0.65794 0.0
C1808 C 0.78163 0.75606 0.62266 0.0
C1809 C 0.77331 0.80914 0.61389 0.0
C1810 C 0.78134 0.79366 0.62133 0.0
C1811 C 0.80598 0.74903 0.6423 0.0
C1812 C 0.7974 0.76443 0.63516 0.0
H1813 H 0.74963 0.84515 0.62211 0.0
H1814 H 0.76225 0.81911 0.63434 0.0
H1815 H 0.76166 0.76362 0.60618 0.0
H1816 H 0.82159 0.70695 0.63313 0.0
H1817 H 0.80982 0.73387 0.62144 0.0
C1818 C 0.04762 0.82764 0.59233 0.0
C1819 C 0.0698 0.84171 0.60009 0.0
C1820 C 0.02662 0.81087 0.59991 0.0
C1821 C 0.99778 0.79505 0.63697 0.0
H1822 H 0.96053 0.73102 0.62005 0.0
C1823 C 0.91549 0.69382 0.65338 0.0
C1824 C 0.89671 0.69833 0.6576 0.0
C1825 C 0.9375 0.71223 0.64774 0.0
C1826 C 0.97082 0.74879 0.62496 0.0
H1827 H 0.08716 0.84891 0.62198 0.0
H1828 H 0.05037 0.82001 0.63519 0.0
H1829 H 0.99677 0.76146 0.6071 0.0
H1830 H 0.88614 0.72559 0.6593 0.0
H1831 H 0.925 0.75806 0.6497 0.0
H1832 H 0.97159 0.78223 0.65483 0.0
C1833 C 0.04927 0.82213 0.62325 0.0
C1834 C 0.99142 0.76627 0.61746 0.0
C1835 C 0.07033 0.83873 0.61566 0.0
C1836 C 0.90055 0.72176 0.65643 0.0
C1837 C 0.92273 0.74029 0.65091 0.0
C1838 C 0.97694 0.77758 0.6444 0.0
C1839 C 0.02724 0.80792 0.61544 0.0
C1840 C 0.00516 0.78957 0.62339 0.0
C1841 C 0.94116 0.73553 0.64614 0.0
C1842 C 0.96335 0.75424 0.63849 0.0
H1843 H 0.04636 0.82973 0.5804 0.0
H1844 H 0.00981 0.80033 0.59362 0.0
H1845 H 0.00797 0.81291 0.64176 0.0
H1846 H 0.91286 0.67585 0.65408 0.0
H1847 H 0.9515 0.70812 0.6443 0.0
C1848 C 0.1782 0.23656 0.60309 0.0
C1849 C 0.15328 0.21881 0.60259 0.0
C1850 C 0.19538 0.2323 0.61035 0.0
C1851 C 0.20708 0.18413 0.6218 0.0
H1852 H 0.25661 0.23309 0.6475 0.0
C1853 C 0.28015 0.16977 0.6527 0.0
C1854 C 0.3038 0.18976 0.65415 0.0
C1855 C 0.26071 0.17248 0.64733 0.0
C1856 C 0.24314 0.21932 0.64021 0.0
H1857 H 0.12688 0.18261 0.60934 0.0
H1858 H 0.15704 0.17502 0.62193 0.0
H1859 H 0.22485 0.23945 0.63645 0.0
H1860 H 0.32605 0.22793 0.65028 0.0
H1861 H 0.29247 0.23271 0.64061 0.0
H1862 H 0.22573 0.16429 0.62513 0.0
C1863 C 0.16321 0.19228 0.6167 0.0
C1864 C 0.22484 0.22295 0.63393 0.0
C1865 C 0.14593 0.19667 0.60959 0.0
C1866 C 0.30786 0.21232 0.64959 0.0
C1867 C 0.28851 0.21505 0.64416 0.0
C1868 C 0.22556 0.1806 0.62795 0.0
C1869 C 0.18814 0.21007 0.61718 0.0
C1870 C 0.20673 0.20551 0.62453 0.0
C1871 C 0.26459 0.1952 0.64303 0.0
C1872 C 0.24405 0.19828 0.63711 0.0
H1873 H 0.18442 0.25387 0.59791 0.0
H1874 H 0.21445 0.24631 0.6104 0.0
H1875 H 0.19351 0.17044 0.61451 0.0
H1876 H 0.27664 0.15204 0.65576 0.0
H1877 H 0.2426 0.15679 0.64675 0.0
C1878 C 0.7445 0.92741 0.59943 0.0
C1879 C 0.76071 0.91834 0.59979 0.0
C1880 C 0.75066 0.94912 0.6065 0.0
C1881 C 0.79073 0.99077 0.63577 0.0
H1882 H 0.77902 0.03711 0.6151 0.0
C1883 C 0.83006 0.08829 0.65664 0.0
C1884 C 0.81497 0.09857 0.65542 0.0
C1885 C 0.82288 0.06588 0.65026 0.0
C1886 C 0.78211 0.02424 0.62111 0.0
H1887 H 0.79626 0.92513 0.60767 0.0
H1888 H 0.80692 0.96294 0.6201 0.0
H1889 H 0.76739 0.99872 0.60319 0.0
H1890 H 0.78038 0.09323 0.64664 0.0
H1891 H 0.7678 0.05408 0.63567 0.0
H1892 H 0.80543 0.01628 0.6537 0.0
C1893 C 0.78931 0.95309 0.61451 0.0
C1894 C 0.77547 0.00226 0.61428 0.0
C1895 C 0.7832 0.93143 0.6074 0.0
C1896 C 0.79251 0.0859 0.64774 0.0
C1897 C 0.78533 0.06348 0.64138 0.0
C1898 C 0.79731 0.01273 0.64263 0.0
C1899 C 0.77313 0.96218 0.61412 0.0
C1900 C 0.77979 0.98533 0.62151 0.0
C1901 C 0.80048 0.05327 0.6425 0.0
C1902 C 0.79314 0.02975 0.63535 0.0
H1903 H 0.72688 0.91757 0.59385 0.0
H1904 H 0.73767 0.95553 0.60618 0.0
H1905 H 0.79397 0.97792 0.6417 0.0
H1906 H 0.84763 0.09771 0.66231 0.0
H1907 H 0.83515 0.05867 0.65114 0.0
C1908 C 0.53108 0.39866 0.73852 0.0
C1909 C 0.52272 0.41199 0.74655 0.0
C1910 C 0.51444 0.37686 0.73174 0.0
C1911 C 0.44976 0.32828 0.73315 0.0
H1912 H 0.46305 0.31275 0.69361 0.0
C1913 C 0.37818 0.24553 0.69981 0.0
C1914 C 0.38677 0.23218 0.69202 0.0
C1915 C 0.39466 0.26765 0.7063 0.0
C1916 C 0.45919 0.31671 0.70472 0.0
H1917 H 0.4903 0.41309 0.75347 0.0
H1918 H 0.46129 0.37508 0.74166 0.0
H1919 H 0.49206 0.35096 0.70525 0.0
H1920 H 0.4195 0.23143 0.68528 0.0
H1921 H 0.44813 0.26995 0.69654 0.0
H1922 H 0.41691 0.29402 0.73264 0.0
C1923 C 0.4807 0.38128 0.74081 0.0
C1924 C 0.47582 0.33861 0.71139 0.0
C1925 C 0.49733 0.40306 0.74759 0.0
C1926 C 0.41221 0.24141 0.69094 0.0
C1927 C 0.42866 0.26354 0.6974 0.0
C1928 C 0.43313 0.30639 0.72648 0.0
C1929 C 0.48905 0.36789 0.73283 0.0
C1930 C 0.47132 0.34464 0.72569 0.0
C1931 C 0.4201 0.27692 0.70517 0.0
C1932 C 0.43765 0.30033 0.71219 0.0
H1933 H 0.55051 0.40489 0.73768 0.0
H1934 H 0.52147 0.36683 0.72586 0.0
H1935 H 0.44592 0.33221 0.74427 0.0
H1936 H 0.35872 0.23897 0.70086 0.0
H1937 H 0.38747 0.27764 0.71207 0.0
C1938 C 0.60368 0.09012 0.74417 0.0
C1939 C 0.59667 0.10772 0.74479 0.0
C1940 C 0.62515 0.09458 0.73685 0.0
C1941 C 0.67277 0.13602 0.70984 0.0
H1942 H 0.7098 0.10861 0.72719 0.0
C1943 C 0.77207 0.16022 0.69201 0.0
C1944 C 0.77614 0.1407 0.69052 0.0
C1945 C 0.74963 0.15673 0.69747 0.0
C1946 C 0.69958 0.11623 0.72211 0.0
H1947 H 0.60673 0.14383 0.73805 0.0
H1948 H 0.64457 0.15191 0.72554 0.0
H1949 H 0.67228 0.10187 0.73911 0.0
H1950 H 0.76019 0.10241 0.69367 0.0
H1951 H 0.72122 0.09632 0.70328 0.0
H1952 H 0.70075 0.15085 0.693 0.0
C1953 C 0.63322 0.13442 0.73047 0.0
C1954 C 0.67793 0.11229 0.72893 0.0
C1955 C 0.61154 0.12983 0.73769 0.0
C1956 C 0.75743 0.11772 0.69457 0.0
C1957 C 0.73518 0.11427 0.70013 0.0
C1958 C 0.69466 0.14018 0.70309 0.0
C1959 C 0.64045 0.11691 0.73004 0.0
C1960 C 0.66399 0.12187 0.72283 0.0
C1961 C 0.73111 0.13375 0.70188 0.0
C1962 C 0.70817 0.1301 0.70907 0.0
H1963 H 0.59241 0.07272 0.74927 0.0
H1964 H 0.62963 0.08036 0.73646 0.0
H1965 H 0.6625 0.14353 0.70469 0.0
H1966 H 0.7864 0.17824 0.68935 0.0
H1967 H 0.74713 0.17213 0.69879 0.0
C1968 C 0.88493 0.48174 0.74182 0.0
C1969 C 0.90909 0.49088 0.74697 0.0
C1970 C 0.87782 0.49679 0.73492 0.0
C1971 C 0.89637 0.56099 0.73028 0.0
H1972 H 0.85007 0.5363 0.69726 0.0
C1973 C 0.85434 0.61507 0.70592 0.0
C1974 C 0.85082 0.61443 0.69038 0.0
C1975 C 0.86084 0.59952 0.71271 0.0
C1976 C 0.8632 0.54359 0.70636 0.0
H1977 H 0.94482 0.52281 0.74888 0.0
H1978 H 0.93265 0.5491 0.7365 0.0
H1979 H 0.86349 0.51067 0.70899 0.0
H1980 H 0.85166 0.59724 0.66977 0.0
H1981 H 0.86343 0.57027 0.6815 0.0
H1982 H 0.89686 0.59418 0.72729 0.0
C1983 C 0.91898 0.53042 0.73808 0.0
C1984 C 0.87064 0.52876 0.71324 0.0
C1985 C 0.92602 0.51539 0.74514 0.0
C1986 C 0.85372 0.59778 0.68176 0.0
C1987 C 0.86053 0.58236 0.68853 0.0
C1988 C 0.88912 0.57588 0.72331 0.0
C1989 C 0.89479 0.52129 0.73287 0.0
C1990 C 0.88722 0.53722 0.72535 0.0
C1991 C 0.86435 0.58316 0.70409 0.0
C1992 C 0.87232 0.56733 0.71132 0.0
H1993 H 0.87144 0.46296 0.74328 0.0
H1994 H 0.85893 0.48922 0.73135 0.0
H1995 H 0.90894 0.56807 0.73967 0.0
H1996 H 0.85192 0.62755 0.71288 0.0
H1997 H 0.86304 0.6003 0.72475 0.0
C1998 C 0.48441 0.93378 0.21918 0.0
C1999 C 0.46034 0.91595 0.22268 0.0
C2000 C 0.49009 0.94423 0.20499 0.0
C2001 C 0.46778 0.93464 0.16572 0.0
H2002 H 0.51367 0.00286 0.16239 0.0
C2003 C 0.48816 0.98656 0.10944 0.0
C2004 C 0.5126 0.00443 0.10683 0.0
C2005 C 0.48117 0.9751 0.12335 0.0
C2006 C 0.50103 0.98373 0.16308 0.0
H2007 H 0.42338 0.8951 0.21385 0.0
H2008 H 0.4332 0.91365 0.18916 0.0
H2009 H 0.50255 0.98449 0.18699 0.0
H2010 H 0.54903 0.02337 0.11664 0.0
H2011 H 0.5369 0.00349 0.14076 0.0
H2012 H 0.4663 0.93396 0.14175 0.0
C2013 C 0.44776 0.91937 0.19737 0.0
C2014 C 0.49464 0.97317 0.17722 0.0
C2015 C 0.44207 0.90893 0.2116 0.0
C2016 C 0.52994 0.0101 0.11835 0.0
C2017 C 0.52298 0.99869 0.13221 0.0
C2018 C 0.47417 0.94522 0.15154 0.0
C2019 C 0.47186 0.93719 0.19388 0.0
C2020 C 0.47806 0.94845 0.17875 0.0
C2021 C 0.49845 0.98124 0.13498 0.0
C2022 C 0.49104 0.96989 0.15004 0.0
H2023 H 0.49891 0.93985 0.22747 0.0
H2024 H 0.5089 0.95768 0.20268 0.0
H2025 H 0.45517 0.9155 0.16644 0.0
H2026 H 0.47428 0.98188 0.10088 0.0
H2027 H 0.46209 0.96189 0.12512 0.0
C2028 C 0.07453 0.55042 0.20903 0.0
C2029 C 0.06685 0.53256 0.22003 0.0
C2030 C 0.06269 0.54542 0.19518 0.0
C2031 C 0.02166 0.49555 0.16992 0.0
H2032 H 0.01115 0.54461 0.15202 0.0
C2033 C 0.96724 0.50985 0.11692 0.0
C2034 C 0.97321 0.49863 0.10549 0.0
C2035 C 0.97742 0.51271 0.1312 0.0
C2036 C 0.01366 0.53059 0.15692 0.0
H2037 H 0.04085 0.49541 0.22512 0.0
H2038 H 0.01989 0.48669 0.20094 0.0
H2039 H 0.03105 0.55188 0.17633 0.0
H2040 H 0.99397 0.48089 0.1003 0.0
H2041 H 0.01232 0.48657 0.12505 0.0
H2042 H 0.00371 0.47403 0.15063 0.0
C2043 C 0.03533 0.50448 0.20294 0.0
C2044 C 0.02541 0.5349 0.17078 0.0
C2045 C 0.04729 0.50946 0.2168 0.0
C2046 C 0.98926 0.48995 0.10877 0.0
C2047 C 0.99953 0.49291 0.12304 0.0
C2048 C 0.00979 0.49119 0.15607 0.0
C2049 C 0.04278 0.52247 0.19201 0.0
C2050 C 0.02973 0.51752 0.17741 0.0
C2051 C 0.9939 0.50452 0.13439 0.0
C2052 C 0.00576 0.50871 0.14936 0.0
H2053 H 0.08983 0.56827 0.21112 0.0
H2054 H 0.06928 0.55955 0.18691 0.0
H2055 H 0.02485 0.48184 0.17465 0.0
H2056 H 0.95511 0.51692 0.11476 0.0
H2057 H 0.9724 0.52142 0.13975 0.0
C2058 C 0.45427 0.50938 0.21817 0.0
C2059 C 0.45692 0.5319 0.22165 0.0
C2060 C 0.46078 0.50501 0.20404 0.0
C2061 C 0.49968 0.53713 0.17169 0.0
H2062 H 0.46177 0.47597 0.15134 0.0
C2063 C 0.53578 0.51281 0.11921 0.0
C2064 C 0.51908 0.50094 0.10747 0.0
C2065 C 0.52763 0.51604 0.13307 0.0
C2066 C 0.47247 0.49321 0.15683 0.0
H2067 H 0.46746 0.56713 0.21282 0.0
H2068 H 0.47868 0.55951 0.18822 0.0
H2069 H 0.44787 0.48264 0.17541 0.0
H2070 H 0.4806 0.4828 0.10124 0.0
H2071 H 0.46643 0.48885 0.12536 0.0
H2072 H 0.52403 0.5479 0.15305 0.0
C2073 C 0.47211 0.54537 0.19648 0.0
C2074 C 0.46464 0.49694 0.1707 0.0
C2075 C 0.46564 0.54974 0.21058 0.0
C2076 C 0.49399 0.49225 0.10998 0.0
C2077 C 0.48583 0.49547 0.12387 0.0
C2078 C 0.5075 0.5334 0.15786 0.0
C2079 C 0.47005 0.52306 0.19309 0.0
C2080 C 0.47816 0.51896 0.1783 0.0
C2081 C 0.50257 0.50749 0.13556 0.0
C2082 C 0.49404 0.51139 0.15026 0.0
H2083 H 0.44781 0.49534 0.2265 0.0
H2084 H 0.4592 0.48771 0.20185 0.0
H2085 H 0.51071 0.55421 0.1773 0.0
H2086 H 0.55525 0.51994 0.11763 0.0
H2087 H 0.541 0.52513 0.14188 0.0
C2088 C 0.9675 0.46573 0.79202 0.0
C2089 C 0.94882 0.47117 0.7892 0.0
C2090 C 0.97895 0.47043 0.80601 0.0
C2091 C 0.99067 0.50634 0.84039 0.0
H2092 H 0.99958 0.45637 0.85841 0.0
C2093 C 0.01857 0.50964 0.90233 0.0
C2094 C 0.03472 0.50122 0.90594 0.0
C2095 C 0.009 0.50686 0.88787 0.0
C2096 C 0.99758 0.47067 0.85347 0.0
H2097 H 0.92767 0.48603 0.79889 0.0
H2098 H 0.94788 0.49449 0.82328 0.0
H2099 H 0.98153 0.45023 0.83353 0.0
H2100 H 0.05355 0.48336 0.89709 0.0
H2101 H 0.03745 0.47916 0.87179 0.0
H2102 H 0.00681 0.52685 0.8603 0.0
C2103 C 0.95376 0.48673 0.8146 0.0
C2104 C 0.98719 0.46712 0.83921 0.0
C2105 C 0.94222 0.48191 0.80062 0.0
C2106 C 0.04134 0.49026 0.89468 0.0
C2107 C 0.03185 0.48757 0.88021 0.0
C2108 C 1.00119 0.50996 0.85463 0.0
C2109 C 0.97207 0.48081 0.81749 0.0
C2110 C 0.98355 0.48488 0.83253 0.0
C2111 C 0.01542 0.49569 0.87665 0.0
C2112 C 0.0047 0.49213 0.86137 0.0
H2113 H 0.97335 0.45786 0.78338 0.0
H2114 H 0.99328 0.46603 0.80782 0.0
H2115 H 0.98836 0.52047 0.83545 0.0
H2116 H 0.01334 0.51847 0.91067 0.0
H2117 H 0.99621 0.51312 0.88558 0.0
C2118 C 0.53825 0.45044 0.80148 0.0
C2119 C 0.54693 0.46821 0.79037 0.0
C2120 C 0.532 0.45494 0.81562 0.0
C2121 C 0.53985 0.50361 0.84135 0.0
H2122 H 0.48023 0.45303 0.85903 0.0
C2123 C 0.46857 0.4888 0.89254 0.0
C2124 C 0.48521 0.50073 0.90429 0.0
C2125 C 0.47675 0.48528 0.87876 0.0
C2126 C 0.49684 0.46742 0.85421 0.0
H2127 H 0.55629 0.50484 0.78551 0.0
H2128 H 0.54529 0.51271 0.81021 0.0
H2129 H 0.49355 0.44642 0.83485 0.0
H2130 H 0.52363 0.51867 0.91064 0.0
H2131 H 0.53787 0.51214 0.88668 0.0
H2132 H 0.5428 0.52479 0.86062 0.0
C2133 C 0.54355 0.49534 0.80802 0.0
C2134 C 0.50465 0.46352 0.84042 0.0
C2135 C 0.54984 0.49084 0.79387 0.0
C2136 C 0.51028 0.50917 0.90188 0.0
C2137 C 0.51848 0.50568 0.88809 0.0
C2138 C 0.53204 0.50751 0.85518 0.0
C2139 C 0.53425 0.47733 0.81901 0.0
C2140 C 0.52624 0.48156 0.8338 0.0
C2141 C 0.5018 0.49361 0.87637 0.0
C2142 C 0.51038 0.48948 0.86175 0.0
H2143 H 0.53626 0.43297 0.79925 0.0
H2144 H 0.5254 0.44083 0.8239 0.0
H2145 H 0.55667 0.51782 0.83663 0.0
H2146 H 0.44911 0.48185 0.89404 0.0
H2147 H 0.46343 0.47617 0.86993 0.0
C2148 C 0.53483 0.08447 0.80187 0.0
C2149 C 0.54252 0.07553 0.78995 0.0
C2150 C 0.53016 0.07364 0.81599 0.0
C2151 C 0.51266 0.01622 0.83433 0.0
H2152 H 0.53859 0.05415 0.8705 0.0
C2153 C 0.50119 0.97001 0.89127 0.0
C2154 C 0.49736 0.98041 0.90406 0.0
C2155 C 0.50803 0.98244 0.87771 0.0
C2156 C 0.53086 0.04323 0.86057 0.0
H2157 H 0.55107 0.04801 0.78351 0.0
H2158 H 0.54256 0.02889 0.80807 0.0
H2159 H 0.54725 0.07409 0.84624 0.0
H2160 H 0.49805 0.0122 0.91272 0.0
H2161 H 0.50921 0.03375 0.88896 0.0
H2162 H 0.4956 0.98545 0.84845 0.0
C2163 C 0.54029 0.04438 0.80652 0.0
C2164 C 0.53593 0.05472 0.84663 0.0
C2165 C 0.54532 0.05543 0.79248 0.0
C2166 C 0.50107 0.00381 0.90307 0.0
C2167 C 0.50754 0.01617 0.88941 0.0
C2168 C 0.50729 0.00477 0.84823 0.0
C2169 C 0.53267 0.05335 0.81846 0.0
C2170 C 0.52703 0.04132 0.83334 0.0
C2171 C 0.51081 0.00554 0.87644 0.0
C2172 C 0.51645 0.01804 0.8616 0.0
H2173 H 0.53266 0.10003 0.80032 0.0
H2174 H 0.52417 0.08089 0.82493 0.0
H2175 H 0.50519 0.00539 0.82432 0.0
H2176 H 0.49877 0.9521 0.89174 0.0
H2177 H 0.51104 0.97381 0.8682 0.0
C2178 C 0.15488 0.26863 0.55435 0.0
C2179 C 0.13073 0.25079 0.55768 0.0
C2180 C 0.16089 0.27915 0.54017 0.0
C2181 C 0.13916 0.27002 0.50069 0.0
H2182 H 0.18603 0.33804 0.49764 0.0
C2183 C 0.16081 0.32279 0.44463 0.0
C2184 C 0.18543 0.34025 0.44204 0.0
C2185 C 0.15356 0.3112 0.4585 0.0
C2186 C 0.17311 0.31896 0.49825 0.0
H2187 H 0.09398 0.23 0.54852 0.0
H2188 H 0.10435 0.24873 0.5239 0.0
H2189 H 0.17436 0.3195 0.52216 0.0
H2190 H 0.22186 0.3583 0.45191 0.0
H2191 H 0.20925 0.33826 0.47596 0.0
H2192 H 0.1379 0.26962 0.47671 0.0
C2193 C 0.11874 0.25438 0.53223 0.0
C2194 C 0.1664 0.30829 0.51236 0.0
C2195 C 0.11272 0.24383 0.54643 0.0
C2196 C 0.20266 0.34537 0.45357 0.0
C2197 C 0.19542 0.33386 0.4674 0.0
C2198 C 0.14584 0.28073 0.48655 0.0
C2199 C 0.14292 0.27222 0.5289 0.0
C2200 C 0.14948 0.28363 0.5138 0.0
C2201 C 0.17074 0.31681 0.47013 0.0
C2202 C 0.16305 0.30532 0.48515 0.0
H2203 H 0.1692 0.27468 0.56275 0.0
H2204 H 0.17976 0.29258 0.53802 0.0
H2205 H 0.1263 0.25093 0.50132 0.0
H2206 H 0.14699 0.31853 0.43609 0.0
H2207 H 0.13437 0.29831 0.46023 0.0
C2208 C 0.7052 0.84071 0.55236 0.0
C2209 C 0.72592 0.86299 0.55575 0.0
C2210 C 0.69476 0.83615 0.53805 0.0
C2211 C 0.70887 0.85521 0.49894 0.0
H2212 H 0.63864 0.82818 0.49451 0.0
C2213 C 0.66471 0.8532 0.44209 0.0
C2214 C 0.6419 0.8331 0.43859 0.0
C2215 C 0.67476 0.85605 0.45641 0.0
C2216 C 0.65823 0.83539 0.49552 0.0
H2217 H 0.75226 0.89774 0.54681 0.0
H2218 H 0.73406 0.88976 0.52182 0.0
H2219 H 0.65664 0.83417 0.51945 0.0
H2220 H 0.61185 0.80006 0.44724 0.0
H2221 H 0.62957 0.80475 0.47219 0.0
H2222 H 0.71057 0.85625 0.47507 0.0
C2223 C 0.72588 0.87585 0.53021 0.0
C2224 C 0.66852 0.83886 0.50982 0.0
C2225 C 0.73616 0.8805 0.54453 0.0
C2226 C 0.62934 0.81588 0.44969 0.0
C2227 C 0.63948 0.81861 0.46399 0.0
C2228 C 0.69858 0.85156 0.48464 0.0
C2229 C 0.70503 0.85367 0.52683 0.0
C2230 C 0.69397 0.84901 0.51167 0.0
C2231 C 0.66233 0.83875 0.46753 0.0
C2232 C 0.67315 0.84182 0.48275 0.0
H2233 H 0.69688 0.82696 0.56083 0.0
H2234 H 0.67878 0.81884 0.53572 0.0
H2235 H 0.72851 0.86275 0.50003 0.0
H2236 H 0.67464 0.86693 0.43381 0.0
H2237 H 0.69214 0.87201 0.4588 0.0
C2238 C 0.13396 0.88339 0.54402 0.0
C2239 C 0.12478 0.86541 0.555 0.0
C2240 C 0.14028 0.87897 0.52989 0.0
C2241 C 0.13156 0.83031 0.50389 0.0
H2242 H 0.19148 0.88053 0.48627 0.0
C2243 C 0.16037 0.82492 0.44314 0.0
C2244 C 0.18536 0.83308 0.44062 0.0
C2245 C 0.15241 0.82843 0.45702 0.0
C2246 C 0.17479 0.86624 0.49107 0.0
H2247 H 0.11478 0.82855 0.55967 0.0
H2248 H 0.12591 0.82082 0.53497 0.0
H2249 H 0.17853 0.8871 0.51058 0.0
H2250 H 0.22157 0.8515 0.45076 0.0
H2251 H 0.20765 0.85718 0.475 0.0
H2252 H 0.12816 0.80926 0.48447 0.0
C2253 C 0.12795 0.83828 0.53725 0.0
C2254 C 0.16719 0.87012 0.50493 0.0
C2255 C 0.12158 0.84271 0.55141 0.0
C2256 C 0.20216 0.84476 0.45234 0.0
C2257 C 0.19421 0.84828 0.4662 0.0
C2258 C 0.13917 0.82642 0.48998 0.0
C2259 C 0.13762 0.85645 0.52637 0.0
C2260 C 0.14549 0.85222 0.51153 0.0
C2261 C 0.16925 0.84022 0.46871 0.0
C2262 C 0.16092 0.84433 0.48342 0.0
H2263 H 0.13621 0.90094 0.54635 0.0
H2264 H 0.14719 0.89322 0.52169 0.0
H2265 H 0.11465 0.81621 0.50858 0.0
H2266 H 0.1469 0.81563 0.43441 0.0
H2267 H 0.13308 0.82218 0.45851 0.0
C2268 C 0.64354 0.80717 0.12184 0.0
C2269 C 0.62581 0.81339 0.1178 0.0
C2270 C 0.65281 0.81096 0.1364 0.0
C2271 C 0.66036 0.84501 0.17113 0.0
H2272 H 0.66485 0.79275 0.18956 0.0
C2273 C 0.68362 0.84533 0.23391 0.0
C2274 C 0.69921 0.83631 0.23769 0.0
C2275 C 0.67455 0.84301 0.21933 0.0
C2276 C 0.66403 0.80766 0.18454 0.0
H2277 H 0.60436 0.82899 0.12589 0.0
H2278 H 0.62083 0.83587 0.15133 0.0
H2279 H 0.64992 0.78852 0.16396 0.0
H2280 H 0.71727 0.81756 0.22907 0.0
H2281 H 0.70209 0.81414 0.20363 0.0
H2282 H 0.67468 0.86424 0.19168 0.0
C2283 C 0.62757 0.82813 0.14316 0.0
C2284 C 0.65543 0.8052 0.16986 0.0
C2285 C 0.61818 0.82423 0.12858 0.0
C2286 C 0.70555 0.82498 0.22653 0.0
C2287 C 0.69656 0.82272 0.21196 0.0
C2288 C 0.66909 0.84752 0.18581 0.0
C2289 C 0.6447 0.82117 0.14729 0.0
C2290 C 0.65362 0.82388 0.16296 0.0
C2291 C 0.68088 0.83163 0.20818 0.0
C2292 C 0.67114 0.82891 0.19267 0.0
H2293 H 0.65018 0.79923 0.11373 0.0
H2294 H 0.66636 0.80585 0.13916 0.0
H2295 H 0.65935 0.85979 0.16606 0.0
H2296 H 0.67857 0.8544 0.24218 0.0
H2297 H 0.66234 0.84987 0.21685 0.0
C2298 C 0.21431 0.82473 0.12617 0.0
C2299 C 0.21143 0.80216 0.12255 0.0
C2300 C 0.20823 0.82913 0.14043 0.0
C2301 C 0.17001 0.79704 0.17301 0.0
H2302 H 0.20847 0.85813 0.19334 0.0
C2303 C 0.17664 0.84213 0.23483 0.0
C2304 C 0.15161 0.83371 0.23739 0.0
C2305 C 0.18463 0.83873 0.22093 0.0
C2306 C 0.19763 0.8409 0.18786 0.0
H2307 H 0.20108 0.76693 0.13131 0.0
H2308 H 0.19058 0.77459 0.1561 0.0
H2309 H 0.22188 0.85143 0.1691 0.0
H2310 H 0.11537 0.8149 0.22732 0.0
H2311 H 0.12932 0.80936 0.20306 0.0
H2312 H 0.14597 0.78633 0.19181 0.0
C2313 C 0.19697 0.78873 0.14785 0.0
C2314 C 0.20518 0.83716 0.17389 0.0
C2315 C 0.203 0.78434 0.13363 0.0
C2316 C 0.1348 0.82184 0.2257 0.0
C2317 C 0.14277 0.81841 0.21183 0.0
C2318 C 0.16247 0.80078 0.18693 0.0
C2319 C 0.1992 0.81107 0.15138 0.0
C2320 C 0.19144 0.81517 0.1663 0.0
C2321 C 0.16778 0.82676 0.20927 0.0
C2322 C 0.17612 0.82278 0.19452 0.0
H2323 H 0.22058 0.83877 0.11785 0.0
H2324 H 0.20996 0.84647 0.14272 0.0
H2325 H 0.15883 0.77998 0.16741 0.0
H2326 H 0.19012 0.85156 0.24353 0.0
H2327 H 0.204 0.8452 0.21938 0.0
C2328 C 0.21345 0.39568 0.12627 0.0
C2329 C 0.20953 0.41488 0.1229 0.0
C2330 C 0.20785 0.38509 0.14045 0.0
C2331 C 0.19825 0.3959 0.17983 0.0
H2332 H 0.16248 0.32645 0.18239 0.0
C2333 C 0.158 0.34609 0.2358 0.0
C2334 C 0.15721 0.32409 0.23816 0.0
C2335 C 0.16529 0.35774 0.22196 0.0
C2336 C 0.17283 0.34587 0.18196 0.0
H2337 H 0.19719 0.43834 0.13194 0.0
H2338 H 0.18749 0.41992 0.15669 0.0
H2339 H 0.17381 0.34561 0.15802 0.0
H2340 H 0.16452 0.29765 0.22804 0.0
H2341 H 0.1778 0.31813 0.20414 0.0
H2342 H 0.19761 0.39623 0.20377 0.0
C2343 C 0.19487 0.41303 0.14836 0.0
C2344 C 0.17926 0.35685 0.16793 0.0
C2345 C 0.20022 0.42345 0.13413 0.0
C2346 C 0.16451 0.31436 0.2265 0.0
C2347 C 0.17203 0.3261 0.21274 0.0
C2348 C 0.19203 0.38491 0.1939 0.0
C2349 C 0.19845 0.39361 0.15167 0.0
C2350 C 0.192 0.382 0.16667 0.0
C2351 C 0.17222 0.34781 0.21017 0.0
C2352 C 0.17917 0.3597 0.19518 0.0
H2353 H 0.22044 0.38855 0.11785 0.0
H2354 H 0.21101 0.37029 0.14267 0.0
H2355 H 0.2083 0.41532 0.17927 0.0
H2356 H 0.15229 0.35395 0.24451 0.0
H2357 H 0.16485 0.37423 0.22041 0.0
C2358 C 0.81903 0.60111 0.8873 0.0
C2359 C 0.79483 0.5835 0.89071 0.0
C2360 C 0.82493 0.6118 0.87318 0.0
C2361 C 0.80277 0.60321 0.83388 0.0
H2362 H 0.85001 0.67115 0.83091 0.0
C2363 C 0.82461 0.65614 0.77793 0.0
C2364 C 0.84926 0.6735 0.77535 0.0
C2365 C 0.81732 0.64455 0.79178 0.0
C2366 C 0.83698 0.6521 0.83151 0.0
H2367 H 0.75786 0.56334 0.8818 0.0
H2368 H 0.76806 0.58235 0.85725 0.0
H2369 H 0.8384 0.65249 0.85541 0.0
H2370 H 0.8857 0.69137 0.78519 0.0
H2371 H 0.87304 0.67128 0.80922 0.0
H2372 H 0.80139 0.60292 0.80991 0.0
C2373 C 0.78256 0.58769 0.86547 0.0
C2374 C 0.83031 0.64137 0.84559 0.0
C2375 C 0.77665 0.57698 0.87962 0.0
C2376 C 0.86648 0.67852 0.78686 0.0
C2377 C 0.85921 0.66698 0.80067 0.0
C2378 C 0.80944 0.61397 0.81977 0.0
C2379 C 0.8068 0.60525 0.86205 0.0
C2380 C 0.81326 0.61674 0.84699 0.0
C2381 C 0.8345 0.65004 0.8034 0.0
C2382 C 0.82679 0.63853 0.81839 0.0
H2383 H 0.83347 0.6068 0.89559 0.0
H2384 H 0.84384 0.62504 0.87093 0.0
H2385 H 0.78981 0.58415 0.8345 0.0
H2386 H 0.81081 0.65197 0.76938 0.0
H2387 H 0.79811 0.63174 0.79352 0.0
C2388 C 0.397 0.21057 0.88072 0.0
C2389 C 0.38644 0.19328 0.89203 0.0
C2390 C 0.38718 0.20562 0.86629 0.0
C2391 C 0.33055 0.1687 0.84544 0.0
H2392 H 0.37372 0.18547 0.81126 0.0
C2393 C 0.29353 0.14753 0.78475 0.0
C2394 C 0.30685 0.16497 0.77391 0.0
C2395 C 0.30305 0.14961 0.79917 0.0
C2396 C 0.36142 0.18093 0.82067 0.0
H2397 H 0.35734 0.15732 0.89718 0.0
H2398 H 0.33995 0.1487 0.87186 0.0
H2399 H 0.39074 0.19161 0.83646 0.0
H2400 H 0.34025 0.1985 0.76969 0.0
H2401 H 0.35665 0.20246 0.79489 0.0
H2402 H 0.3013 0.15862 0.82971 0.0
C2403 C 0.35585 0.16605 0.87421 0.0
C2404 C 0.37118 0.18437 0.8351 0.0
C2405 C 0.36586 0.17091 0.88864 0.0
C2406 C 0.32975 0.18461 0.77778 0.0
C2407 C 0.33917 0.18681 0.79221 0.0
C2408 C 0.32079 0.16545 0.831 0.0
C2409 C 0.36647 0.18336 0.8629 0.0
C2410 C 0.35588 0.17849 0.84762 0.0
C2411 C 0.326 0.16929 0.80308 0.0
C2412 C 0.33615 0.17174 0.81844 0.0
H2413 H 0.41302 0.22788 0.88301 0.0
H2414 H 0.3956 0.21937 0.85782 0.0
H2415 H 0.31837 0.16423 0.85491 0.0
H2416 H 0.27594 0.13205 0.782 0.0
H2417 H 0.29256 0.13561 0.80719 0.0
C2418 C 0.80672 0.21297 0.87747 0.0
C2419 C 0.79709 0.19496 0.88843 0.0
C2420 C 0.8131 0.20842 0.8634 0.0
C2421 C 0.8038 0.15976 0.8373 0.0
H2422 H 0.86437 0.20961 0.82009 0.0
C2423 C 0.83217 0.15616 0.77616 0.0
C2424 C 0.85709 0.16424 0.77345 0.0
C2425 C 0.8244 0.159 0.79027 0.0
C2426 C 0.84751 0.1954 0.82478 0.0
H2427 H 0.7862 0.15787 0.89308 0.0
H2428 H 0.79746 0.14991 0.86846 0.0
H2429 H 0.85155 0.21594 0.84449 0.0
H2430 H 0.89335 0.18165 0.78352 0.0
H2431 H 0.87976 0.18614 0.80816 0.0
H2432 H 0.80006 0.13905 0.81764 0.0
C2433 C 0.79986 0.16752 0.87074 0.0
C2434 C 0.83999 0.19916 0.8387 0.0
C2435 C 0.79342 0.17207 0.88485 0.0
C2436 C 0.874 0.17502 0.78523 0.0
C2437 C 0.86623 0.17785 0.79933 0.0
C2438 C 0.81134 0.15599 0.82334 0.0
C2439 C 0.81005 0.18574 0.85991 0.0
C2440 C 0.81801 0.18143 0.84513 0.0
C2441 C 0.84136 0.17001 0.80201 0.0
C2442 C 0.83329 0.17379 0.8169 0.0
H2443 H 0.80929 0.23064 0.87976 0.0
H2444 H 0.82038 0.22271 0.85523 0.0
H2445 H 0.78669 0.1458 0.84188 0.0
H2446 H 0.8186 0.14751 0.76739 0.0
H2447 H 0.80514 0.15294 0.7919 0.0
C2448 C 0.26916 0.14532 0.47049 0.0
C2449 C 0.27614 0.13549 0.45871 0.0
C2450 C 0.28127 0.15038 0.48429 0.0
C2451 C 0.31738 0.13268 0.50783 0.0
H2452 H 0.33563 0.19176 0.52934 0.0
C2453 C 0.37326 0.15675 0.56267 0.0
C2454 C 0.36656 0.16728 0.57416 0.0
C2455 C 0.36329 0.15393 0.54832 0.0
C2456 C 0.33041 0.17504 0.52356 0.0
H2457 H 0.3019 0.12408 0.45208 0.0
H2458 H 0.32274 0.1326 0.47623 0.0
H2459 H 0.31611 0.18493 0.50481 0.0
H2460 H 0.34453 0.18366 0.57941 0.0
H2461 H 0.32653 0.178 0.55457 0.0
H2462 H 0.33115 0.12249 0.52663 0.0
C2463 C 0.30772 0.13611 0.47482 0.0
C2464 C 0.31928 0.17118 0.5095 0.0
C2465 C 0.29574 0.1312 0.461 0.0
C2466 C 0.34984 0.17515 0.57089 0.0
C2467 C 0.33977 0.17221 0.55657 0.0
C2468 C 0.32835 0.13646 0.52192 0.0
C2469 C 0.30051 0.1456 0.48664 0.0
C2470 C 0.31264 0.14995 0.50148 0.0
C2471 C 0.34627 0.16145 0.54512 0.0
C2472 C 0.33499 0.15768 0.52999 0.0
H2473 H 0.25393 0.14854 0.46919 0.0
H2474 H 0.27513 0.15744 0.49326 0.0
H2475 H 0.31213 0.11598 0.50201 0.0
H2476 H 0.38591 0.15027 0.56481 0.0
H2477 H 0.36898 0.14587 0.53973 0.0
C2478 C 0.86846 0.11543 0.46866 0.0
C2479 C 0.87794 0.13351 0.45774 0.0
C2480 C 0.86171 0.11971 0.4827 0.0
C2481 C 0.86985 0.16818 0.50868 0.0
H2482 H 0.80959 0.11786 0.52591 0.0
C2483 C 0.79854 0.15336 0.55992 0.0
C2484 C 0.81523 0.16493 0.5717 0.0
C2485 C 0.80662 0.14994 0.54607 0.0
C2486 C 0.82637 0.13218 0.52122 0.0
H2487 H 0.88797 0.1704 0.4531 0.0
H2488 H 0.87612 0.17788 0.47764 0.0
H2489 H 0.82298 0.11144 0.5017 0.0
H2490 H 0.85364 0.18236 0.57803 0.0
H2491 H 0.86768 0.17598 0.55398 0.0
H2492 H 0.87292 0.1891 0.52811 0.0
C2493 C 0.87417 0.16044 0.47538 0.0
C2494 C 0.83422 0.12839 0.50741 0.0
C2495 C 0.88096 0.15616 0.46131 0.0
C2496 C 0.84024 0.17313 0.56926 0.0
C2497 C 0.84834 0.16973 0.5554 0.0
C2498 C 0.86199 0.17198 0.52252 0.0
C2499 C 0.86424 0.14219 0.4862 0.0
C2500 C 0.85606 0.14632 0.50096 0.0
C2501 C 0.83161 0.15802 0.54365 0.0
C2502 C 0.84012 0.15403 0.52895 0.0
H2503 H 0.86634 0.09793 0.46637 0.0
H2504 H 0.8546 0.1054 0.49085 0.0
H2505 H 0.88686 0.1823 0.5041 0.0
H2506 H 0.77912 0.14661 0.56144 0.0
H2507 H 0.79327 0.14111 0.53722 0.0
C2508 C 0.85215 0.73137 0.45833 0.0
C2509 C 0.87606 0.74969 0.45494 0.0
C2510 C 0.84651 0.72085 0.4725 0.0
C2511 C 0.86852 0.73066 0.51191 0.0
H2512 H 0.82285 0.66236 0.51508 0.0
C2513 C 0.84751 0.67805 0.56803 0.0
C2514 C 0.82295 0.66037 0.57056 0.0
C2515 C 0.85473 0.68968 0.55418 0.0
C2516 C 0.83545 0.68151 0.51442 0.0
H2517 H 0.9128 0.77127 0.46398 0.0
H2518 H 0.90309 0.75252 0.4886 0.0
H2519 H 0.83424 0.68081 0.49052 0.0
H2520 H 0.78657 0.64205 0.56064 0.0
H2521 H 0.79913 0.66214 0.53661 0.0
H2522 H 0.86974 0.73121 0.53589 0.0
C2523 C 0.88859 0.74651 0.48032 0.0
C2524 C 0.84198 0.69212 0.5003 0.0
C2525 C 0.89424 0.75707 0.46612 0.0
C2526 C 0.80573 0.65513 0.55901 0.0
C2527 C 0.81294 0.66667 0.5452 0.0
C2528 C 0.86203 0.71999 0.52606 0.0
C2529 C 0.86463 0.72824 0.48371 0.0
C2530 C 0.85843 0.71689 0.49883 0.0
C2531 C 0.83757 0.68388 0.54252 0.0
C2532 C 0.84521 0.69531 0.5275 0.0
H2533 H 0.83773 0.72498 0.44998 0.0
H2534 H 0.8278 0.70707 0.47471 0.0
H2535 H 0.88102 0.74982 0.51124 0.0
H2536 H 0.86131 0.68241 0.57661 0.0
H2537 H 0.87388 0.70273 0.55247 0.0
loop_
_geom_bond_atom_site_label_1
_geom_bond_atom_site_label_2
_geom_bond_distance
_geom_bond_site_symmetry_2
_ccdc_geom_bond_type
H0 C3 0.931 . S
H1 C6 0.928 . S
H2 C8 0.930 . S
C3 H0 0.931 . S
C3 C4 1.413 . S
C3 C5 1.360 . S
C4 C3 1.413 . S
C4 C8 1.429 . S
C5 C3 1.360 . S
C5 C6 1.372 . S
C6 H1 0.928 . S
C6 C5 1.372 . S
C6 C7 1.404 . S
C7 C6 1.404 . S
C7 C8 1.391 . S
C8 H2 0.930 . S
C8 C4 1.429 . S
C8 C7 1.391 . S
H9 C12 0.931 . S
H10 C15 0.928 . S
H11 C17 0.930 . S
C12 H9 0.931 . S
C12 C13 1.413 . S
C12 C14 1.360 . S
C13 C12 1.413 . S
C13 C17 1.429 . S
C14 C12 1.360 . S
C14 C15 1.372 . S
C15 H10 0.928 . S
C15 C14 1.372 . S
C15 C16 1.404 . S
C16 C15 1.404 . S
C16 C17 1.391 . S
C17 H11 0.930 . S
C17 C13 1.429 . S
C17 C16 1.391 . S
H18 C21 0.931 . S
H19 C24 0.928 . S
H20 C26 0.930 . S
C21 H18 0.931 . S
C21 C22 1.413 . S
C21 C23 1.360 . S
C22 C21 1.413 . S
C22 C26 1.429 . S
C23 C21 1.360 . S
C23 C24 1.372 . S
C24 H19 0.928 . S
C24 C23 1.372 . S
C24 C25 1.404 . S
C25 C24 1.404 . S
C25 C26 1.391 . S
C26 H20 0.930 . S
C26 C22 1.429 . S
C26 C25 1.391 . S
H27 C30 0.931 . S
H28 C33 0.928 . S
H29 C35 0.930 . S
C30 H27 0.931 . S
C30 C31 1.413 . S
C30 C32 1.360 . S
C31 C30 1.413 . S
C31 C35 1.429 . S
C32 C30 1.360 . S
C32 C33 1.372 . S
C33 H28 0.928 . S
C33 C32 1.372 . S
C33 C34 1.404 . S
C34 C33 1.404 . S
C34 C35 1.391 . S
C35 H29 0.930 . S
C35 C31 1.429 . S
C35 C34 1.391 . S
H36 C39 0.931 . S
H37 C42 0.928 . S
H38 C44 0.930 . S
C39 H36 0.931 . S
C39 C40 1.413 . S
C39 C41 1.360 . S
C40 C39 1.413 . S
C40 C44 1.429 . S
C41 C39 1.360 . S
C41 C42 1.372 . S
C42 H37 0.928 . S
C42 C41 1.372 . S
C42 C43 1.404 . S
C43 C42 1.404 . S
C43 C44 1.391 . S
C44 H38 0.930 . S
C44 C40 1.429 . S
C44 C43 1.391 . S
H45 C48 0.931 . S
H46 C51 0.928 . S
H47 C53 0.930 . S
C48 H45 0.931 . S
C48 C49 1.413 . S
C48 C50 1.360 . S
C49 C48 1.413 . S
C49 C53 1.429 . S
C50 C48 1.360 . S
C50 C51 1.372 . S
C51 H46 0.928 . S
C51 C50 1.372 . S
C51 C52 1.404 . S
C52 C51 1.404 . S
C52 C53 1.391 . S
C53 H47 0.930 . S
C53 C49 1.429 . S
C53 C52 1.391 . S
H54 C57 0.931 . S
H55 C60 0.928 . S
H56 C62 0.930 . S
C57 H54 0.931 . S
C57 C58 1.413 . S
C57 C59 1.360 . S
C58 C57 1.413 . S
C58 C62 1.429 . S
C59 C57 1.360 . S
C59 C60 1.372 . S
C60 H55 0.928 . S
C60 C59 1.372 . S
C60 C61 1.404 . S
C61 C60 1.404 . S
C61 C62 1.391 . S
C62 H56 0.930 . S
C62 C58 1.429 . S
C62 C61 1.391 . S
H63 C66 0.931 . S
H64 C69 0.928 . S
H65 C71 0.930 . S
C66 H63 0.931 . S
C66 C67 1.413 . S
C66 C68 1.360 . S
C67 C66 1.413 . S
C67 C71 1.429 . S
C68 C66 1.360 . S
C68 C69 1.372 . S
C69 H64 0.928 . S
C69 C68 1.372 . S
C69 C70 1.404 . S
C70 C69 1.404 . S
C70 C71 1.391 . S
C71 H65 0.930 . S
C71 C67 1.429 . S
C71 C70 1.391 . S
H72 C75 0.931 . S
H73 C78 0.928 . S
H74 C80 0.930 . S
C75 H72 0.931 . S
C75 C76 1.413 . S
C75 C77 1.360 . S
C76 C75 1.413 . S
C76 C80 1.429 . S
C77 C75 1.360 . S
C77 C78 1.372 . S
C78 H73 0.928 . S
C78 C77 1.372 . S
C78 C79 1.404 . S
C79 C78 1.404 . S
C79 C80 1.391 . S
C80 H74 0.930 . S
C80 C76 1.429 . S
C80 C79 1.391 . S
H81 C84 0.931 . S
H82 C87 0.928 . S
H83 C89 0.930 . S
C84 H81 0.931 . S
C84 C85 1.413 . S
C84 C86 1.360 . S
C85 C84 1.413 . S
C85 C89 1.429 . S
C86 C84 1.360 . S
C86 C87 1.372 . S
C87 H82 0.928 . S
C87 C86 1.372 . S
C87 C88 1.404 . S
C88 C87 1.404 . S
C88 C89 1.391 . S
C89 H83 0.930 . S
C89 C85 1.429 . S
C89 C88 1.391 . S
H90 C93 0.931 . S
H91 C96 0.928 . S
H92 C98 0.930 . S
C93 H90 0.931 . S
C93 C94 1.413 . S
C93 C95 1.360 . S
C94 C93 1.413 . S
C94 C98 1.429 . S
C95 C93 1.360 . S
C95 C96 1.372 . S
C96 H91 0.928 . S
C96 C95 1.372 . S
C96 C97 1.404 . S
C97 C96 1.404 . S
C97 C98 1.391 . S
C98 H92 0.930 . S
C98 C94 1.429 . S
C98 C97 1.391 . S
H99 C102 0.931 . S
H100 C105 0.928 . S
H101 C107 0.930 . S
C102 H99 0.931 . S
C102 C103 1.413 . S
C102 C104 1.360 . S
C103 C102 1.413 . S
C103 C107 1.429 . S
C104 C102 1.360 . S
C104 C105 1.372 . S
C105 H100 0.928 . S
C105 C104 1.372 . S
C105 C106 1.404 . S
C106 C105 1.404 . S
C106 C107 1.391 . S
C107 H101 0.930 . S
C107 C103 1.429 . S
C107 C106 1.391 . S
H108 C111 0.931 . S
H109 C114 0.928 . S
H110 C116 0.930 . S
C111 H108 0.931 . S
C111 C112 1.413 . S
C111 C113 1.360 . S
C112 C111 1.413 . S
C112 C116 1.429 . S
C113 C111 1.360 . S
C113 C114 1.372 . S
C114 H109 0.928 . S
C114 C113 1.372 . S
C114 C115 1.404 . S
C115 C114 1.404 . S
C115 C116 1.391 . S
C116 H110 0.930 . S
C116 C112 1.429 . S
C116 C115 1.391 . S
H117 C120 0.931 . S
H118 C123 0.928 . S
H119 C125 0.930 . S
C120 H117 0.931 . S
C120 C121 1.413 . S
C120 C122 1.360 . S
C121 C120 1.413 . S
C121 C125 1.429 . S
C122 C120 1.360 . S
C122 C123 1.372 . S
C123 H118 0.928 . S
C123 C122 1.372 . S
C123 C124 1.404 . S
C124 C123 1.404 . S
C124 C125 1.391 . S
C125 H119 0.930 . S
C125 C121 1.429 . S
C125 C124 1.391 . S
H126 C129 0.931 . S
H127 C132 0.928 . S
H128 C134 0.930 . S
C129 H126 0.931 . S
C129 C130 1.413 . S
C129 C131 1.360 . S
C130 C129 1.413 . S
C130 C134 1.429 . S
C131 C129 1.360 . S
C131 C132 1.372 . S
C132 H127 0.928 . S
C132 C131 1.372 . S
C132 C133 1.404 . S
C133 C132 1.404 . S
C133 C134 1.391 . S
C134 H128 0.930 . S
C134 C130 1.429 . S
C134 C133 1.391 . S
H135 C138 0.931 . S
H136 C141 0.928 . S
H137 C143 0.930 . S
C138 H135 0.931 . S
C138 C139 1.413 . S
C138 C140 1.360 . S
C139 C138 1.413 . S
C139 C143 1.429 . S
C140 C138 1.360 . S
C140 C141 1.372 . S
C141 H136 0.928 . S
C141 C140 1.372 . S
C141 C142 1.404 . S
C142 C141 1.404 . S
C142 C143 1.391 . S
C143 H137 0.930 . S
C143 C139 1.429 . S
C143 C142 1.391 . S
H144 C147 0.931 . S
H145 C150 0.928 . S
H146 C152 0.930 . S
C147 H144 0.931 . S
C147 C148 1.413 . S
C147 C149 1.360 . S
C148 C147 1.413 . S
C148 C152 1.429 . S
C149 C147 1.360 . S
C149 C150 1.372 . S
C150 H145 0.928 . S
C150 C149 1.372 . S
C150 C151 1.404 . S
C151 C150 1.404 . S
C151 C152 1.391 . S
C152 H146 0.930 . S
C152 C148 1.429 . S
C152 C151 1.391 . S
H153 C156 0.931 . S
H154 C159 0.928 . S
H155 C161 0.930 . S
C156 H153 0.931 . S
C156 C157 1.413 . S
C156 C158 1.360 . S
C157 C156 1.413 . S
C157 C161 1.429 . S
C158 C156 1.360 . S
C158 C159 1.372 . S
C159 H154 0.928 . S
C159 C158 1.372 . S
C159 C160 1.404 . S
C160 C159 1.404 . S
C160 C161 1.391 . S
C161 H155 0.930 . S
C161 C157 1.429 . S
C161 C160 1.391 . S
Eu162 N193 2.657 . S
Eu162 N200 2.609 . S
Eu162 O206 2.558 . S
Eu162 O207 2.612 1_565 S
Eu162 O209 2.339 1_565 S
Eu162 O210 2.563 1_565 S
Eu162 O211 2.419 . S
Eu162 O213 2.380 1_556 S
Eu162 O214 2.432 . S
Eu162 C226 2.848 . S
C163 C166 1.429 . S
C163 C167 1.411 . S
C163 N170 1.377 . S
C164 C166 1.420 . S
C164 C168 1.423 . S
C164 C176 1.392 . S
C165 C167 1.420 . S
C165 C168 1.351 . S
C165 H188 0.931 . S
C166 C163 1.429 . S
C166 C164 1.420 . S
C166 N174 1.362 . S
C167 C163 1.411 . S
C167 C165 1.420 . S
C167 C172 1.395 . S
C168 C164 1.423 . S
C168 C165 1.351 . S
C168 H180 0.930 . S
C169 C171 1.400 . S
C169 C172 1.386 . S
C169 H181 0.930 . S
N170 C163 1.377 . S
N170 C171 1.321 . S
N170 Eu173 2.609 . S
C171 C169 1.400 . S
C171 N170 1.321 . S
C171 H178 0.930 . S
C172 C167 1.395 . S
C172 C169 1.386 . S
C172 H191 0.930 . S
Eu173 N170 2.609 . S
Eu173 N174 2.657 . S
Eu173 O207 2.380 1_554 S
Eu173 O208 2.432 . S
Eu173 O212 2.558 . S
Eu173 O213 2.612 1_545 S
Eu173 O215 2.339 1_545 S
Eu173 O216 2.563 1_545 S
Eu173 O217 2.419 . S
Eu173 C237 2.848 . S
N174 C166 1.362 . S
N174 Eu173 2.657 . S
N174 C175 1.334 . S
C175 N174 1.334 . S
C175 C177 1.413 . S
C175 H182 0.929 . S
C176 C164 1.392 . S
C176 C177 1.367 . S
C176 H184 0.930 . S
C177 C175 1.413 . S
C177 C176 1.367 . S
C177 H179 0.930 . S
H178 C171 0.930 . S
H179 C177 0.930 . S
H180 C168 0.930 . S
H181 C169 0.930 . S
H182 C175 0.929 . S
H183 C197 0.930 . S
H184 C176 0.930 . S
H185 C203 0.930 . S
H186 C194 0.929 . S
H187 C201 0.930 . S
H188 C165 0.931 . S
H189 C195 0.930 . S
H190 C228 0.930 . S
H191 C172 0.930 . S
H192 C227 0.931 . S
N193 Eu162 2.657 . S
N193 C194 1.334 . S
N193 C198 1.362 . S
C194 H186 0.929 . S
C194 N193 1.334 . S
C194 C197 1.413 . S
C195 H189 0.930 . S
C195 C196 1.392 . S
C195 C197 1.367 . S
C196 C195 1.392 . S
C196 C198 1.420 . S
C196 C228 1.423 . S
C197 H183 0.930 . S
C197 C194 1.413 . S
C197 C195 1.367 . S
C198 N193 1.362 . S
C198 C196 1.420 . S
C198 C202 1.429 . S
H199 C204 0.930 . S
N200 Eu162 2.609 . S
N200 C202 1.377 . S
N200 C203 1.321 . S
C201 H187 0.930 . S
C201 C203 1.400 . S
C201 C204 1.386 . S
C202 C198 1.429 . S
C202 N200 1.377 . S
C202 C205 1.411 . S
C203 H185 0.930 . S
C203 N200 1.321 . S
C203 C201 1.400 . S
C204 H199 0.930 . S
C204 C201 1.386 . S
C204 C205 1.395 . S
C205 C202 1.411 . S
C205 C204 1.395 . S
C205 C227 1.420 . S
O206 Eu162 2.558 . S
O206 C226 1.257 . S
O207 Eu162 2.612 1_545 S
O207 Eu173 2.380 1_556 S
O207 C218 1.276 . S
O208 Eu173 2.432 . S
O208 C225 1.264 1_554 S
O209 Eu162 2.339 1_545 S
O209 C225 1.254 . S
O210 Eu162 2.563 1_545 S
O210 C218 1.235 . S
O211 Eu162 2.419 . S
O211 C226 1.249 . S
O212 Eu173 2.558 . S
O212 C237 1.257 . S
O213 Eu162 2.380 1_554 S
O213 Eu173 2.612 1_565 S
O213 C229 1.276 . S
O214 Eu162 2.432 . S
O214 C236 1.264 1_556 S
O215 Eu173 2.339 1_565 S
O215 C236 1.254 . S
O216 Eu173 2.563 1_565 S
O216 C229 1.235 . S
O217 Eu173 2.419 . S
O217 C237 1.249 . S
C218 O207 1.276 . S
C218 O210 1.235 . S
C219 C221 1.393 1_565 S
C219 C223 1.395 . S
C219 C226 1.492 . S
C220 C221 1.392 . S
C220 C222 1.386 1_545 S
C221 C219 1.393 1_545 S
C221 C220 1.392 . S
C221 H238 0.930 . S
C222 C220 1.386 1_565 S
C222 C224 1.395 . S
C222 H239 0.930 . S
C223 C219 1.395 . S
C223 C224 1.379 . S
C223 H240 0.930 . S
C224 C222 1.395 . S
C224 C223 1.379 . S
C224 H241 0.930 . S
C225 O208 1.264 1_556 S
C225 O209 1.254 . S
C226 Eu162 2.848 . S
C226 O206 1.257 . S
C226 O211 1.249 . S
C226 C219 1.492 . S
C227 H192 0.931 . S
C227 C205 1.420 . S
C227 C228 1.351 . S
C228 H190 0.930 . S
C228 C196 1.423 . S
C228 C227 1.351 . S
C229 O213 1.276 . S
C229 O216 1.235 . S
C230 C231 1.393 1_545 S
C230 C234 1.395 . S
C230 C237 1.492 . S
C231 C230 1.393 1_565 S
C231 C232 1.392 . S
C231 H242 0.930 . S
C232 C231 1.392 . S
C232 C233 1.386 1_565 S
C233 C232 1.386 1_545 S
C233 C235 1.395 . S
C233 H243 0.930 . S
C234 C230 1.395 . S
C234 C235 1.379 . S
C234 H244 0.930 . S
C235 C233 1.395 . S
C235 C234 1.379 . S
C235 H245 0.930 . S
C236 O214 1.264 1_554 S
C236 O215 1.254 . S
C237 Eu173 2.848 . S
C237 O212 1.257 . S
C237 O217 1.249 . S
C237 C230 1.492 . S
H238 C221 0.930 . S
H239 C222 0.930 . S
H240 C223 0.930 . S
H241 C224 0.930 . S
H242 C231 0.930 . S
H243 C233 0.930 . S
H244 C234 0.930 . S
H245 C235 0.930 . S
Eu246 N277 2.657 . S
Eu246 N284 2.609 . S
Eu246 O290 2.558 . S
Eu246 O291 2.612 1_455 S
Eu246 O293 2.339 1_455 S
Eu246 O294 2.563 1_455 S
Eu246 O295 2.419 . S
Eu246 O297 2.380 1_556 S
Eu246 O298 2.432 . S
Eu246 C310 2.848 . S
C247 C250 1.429 . S
C247 C251 1.411 . S
C247 N254 1.377 . S
C248 C250 1.420 . S
C248 C252 1.423 . S
C248 C260 1.392 . S
C249 C251 1.420 . S
C249 C252 1.351 . S
C249 H272 0.931 . S
C250 C247 1.429 . S
C250 C248 1.420 . S
C250 N258 1.362 . S
C251 C247 1.411 . S
C251 C249 1.420 . S
C251 C256 1.395 . S
C252 C248 1.423 . S
C252 C249 1.351 . S
C252 H264 0.930 . S
C253 C255 1.400 . S
C253 C256 1.386 . S
C253 H265 0.930 . S
N254 C247 1.377 . S
N254 C255 1.321 . S
N254 Eu257 2.609 . S
C255 C253 1.400 . S
C255 N254 1.321 . S
C255 H262 0.930 . S
C256 C251 1.395 . S
C256 C253 1.386 . S
C256 H275 0.930 . S
Eu257 N254 2.609 . S
Eu257 N258 2.657 . S
Eu257 O291 2.380 1_554 S
Eu257 O292 2.432 . S
Eu257 O296 2.558 . S
Eu257 O297 2.612 1_655 S
Eu257 O299 2.339 1_655 S
Eu257 O300 2.563 1_655 S
Eu257 O301 2.419 . S
Eu257 C321 2.848 . S
N258 C250 1.362 . S
N258 Eu257 2.657 . S
N258 C259 1.334 . S
C259 N258 1.334 . S
C259 C261 1.413 . S
C259 H266 0.929 . S
C260 C248 1.392 . S
C260 C261 1.367 . S
C260 H268 0.930 . S
C261 C259 1.413 . S
C261 C260 1.367 . S
C261 H263 0.930 . S
H262 C255 0.930 . S
H263 C261 0.930 . S
H264 C252 0.930 . S
H265 C253 0.930 . S
H266 C259 0.929 . S
H267 C281 0.930 . S
H268 C260 0.930 . S
H269 C287 0.930 . S
H270 C278 0.929 . S
H271 C285 0.930 . S
H272 C249 0.931 . S
H273 C279 0.930 . S
H274 C312 0.930 . S
H275 C256 0.930 . S
H276 C311 0.931 . S
N277 Eu246 2.657 . S
N277 C278 1.334 . S
N277 C282 1.362 . S
C278 H270 0.929 . S
C278 N277 1.334 . S
C278 C281 1.413 . S
C279 H273 0.930 . S
C279 C280 1.392 . S
C279 C281 1.367 . S
C280 C279 1.392 . S
C280 C282 1.420 . S
C280 C312 1.423 . S
C281 H267 0.930 . S
C281 C278 1.413 . S
C281 C279 1.367 . S
C282 N277 1.362 . S
C282 C280 1.420 . S
C282 C286 1.429 . S
H283 C288 0.930 . S
N284 Eu246 2.609 . S
N284 C286 1.377 . S
N284 C287 1.321 . S
C285 H271 0.930 . S
C285 C287 1.400 . S
C285 C288 1.386 . S
C286 C282 1.429 . S
C286 N284 1.377 . S
C286 C289 1.411 . S
C287 H269 0.930 . S
C287 N284 1.321 . S
C287 C285 1.400 . S
C288 H283 0.930 . S
C288 C285 1.386 . S
C288 C289 1.395 . S
C289 C286 1.411 . S
C289 C288 1.395 . S
C289 C311 1.420 . S
O290 Eu246 2.558 . S
O290 C310 1.257 . S
O291 Eu246 2.612 1_655 S
O291 Eu257 2.380 1_556 S
O291 C302 1.276 . S
O292 Eu257 2.432 . S
O292 C309 1.264 1_554 S
O293 Eu246 2.339 1_655 S
O293 C309 1.254 . S
O294 Eu246 2.563 1_655 S
O294 C302 1.235 . S
O295 Eu246 2.419 . S
O295 C310 1.249 . S
O296 Eu257 2.558 . S
O296 C321 1.257 . S
O297 Eu246 2.380 1_554 S
O297 Eu257 2.612 1_455 S
O297 C313 1.276 . S
O298 Eu246 2.432 . S
O298 C320 1.264 1_556 S
O299 Eu257 2.339 1_455 S
O299 C320 1.254 . S
O300 Eu257 2.563 1_455 S
O300 C313 1.235 . S
O301 Eu257 2.419 . S
O301 C321 1.249 . S
C302 O291 1.276 . S
C302 O294 1.235 . S
C303 C305 1.393 1_455 S
C303 C307 1.395 . S
C303 C310 1.492 . S
C304 C305 1.392 . S
C304 C306 1.386 1_655 S
C305 C303 1.393 1_655 S
C305 C304 1.392 . S
C305 H322 0.930 . S
C306 C304 1.386 1_455 S
C306 C308 1.395 . S
C306 H323 0.930 . S
C307 C303 1.395 . S
C307 C308 1.379 . S
C307 H324 0.930 . S
C308 C306 1.395 . S
C308 C307 1.379 . S
C308 H325 0.930 . S
C309 O292 1.264 1_556 S
C309 O293 1.254 . S
C310 Eu246 2.848 . S
C310 O290 1.257 . S
C310 O295 1.249 . S
C310 C303 1.492 . S
C311 H276 0.931 . S
C311 C289 1.420 . S
C311 C312 1.351 . S
C312 H274 0.930 . S
C312 C280 1.423 . S
C312 C311 1.351 . S
C313 O297 1.276 . S
C313 O300 1.235 . S
C314 C315 1.393 1_655 S
C314 C318 1.395 . S
C314 C321 1.492 . S
C315 C314 1.393 1_455 S
C315 C316 1.392 . S
C315 H326 0.930 . S
C316 C315 1.392 . S
C316 C317 1.386 1_455 S
C317 C316 1.386 1_655 S
C317 C319 1.395 . S
C317 H327 0.930 . S
C318 C314 1.395 . S
C318 C319 1.379 . S
C318 H328 0.930 . S
C319 C317 1.395 . S
C319 C318 1.379 . S
C319 H329 0.930 . S
C320 O298 1.264 1_554 S
C320 O299 1.254 . S
C321 Eu257 2.848 . S
C321 O296 1.257 . S
C321 O301 1.249 . S
C321 C314 1.492 . S
H322 C305 0.930 . S
H323 C306 0.930 . S
H324 C307 0.930 . S
H325 C308 0.930 . S
H326 C315 0.930 . S
H327 C317 0.930 . S
H328 C318 0.930 . S
H329 C319 0.930 . S
Eu330 N361 2.657 . S
Eu330 N368 2.609 . S
Eu330 O374 2.558 . S
Eu330 O375 2.612 . S
Eu330 O377 2.339 . S
Eu330 O378 2.563 . S
Eu330 O379 2.419 . S
Eu330 O381 2.380 1_554 S
Eu330 O382 2.432 . S
Eu330 C394 2.848 . S
C331 C334 1.429 . S
C331 C335 1.411 . S
C331 N338 1.377 . S
C332 C334 1.420 . S
C332 C336 1.423 . S
C332 C344 1.392 . S
C333 C335 1.420 . S
C333 C336 1.351 . S
C333 H356 0.931 . S
C334 C331 1.429 . S
C334 C332 1.420 . S
C334 N342 1.362 . S
C335 C331 1.411 . S
C335 C333 1.420 . S
C335 C340 1.395 . S
C336 C332 1.423 . S
C336 C333 1.351 . S
C336 H348 0.930 . S
C337 C339 1.400 . S
C337 C340 1.386 . S
C337 H349 0.930 . S
N338 C331 1.377 . S
N338 C339 1.321 . S
N338 Eu341 2.609 . S
C339 C337 1.400 . S
C339 N338 1.321 . S
C339 H346 0.930 . S
C340 C335 1.395 . S
C340 C337 1.386 . S
C340 H359 0.930 . S
Eu341 N338 2.609 . S
Eu341 N342 2.657 . S
Eu341 O375 2.380 1_556 S
Eu341 O376 2.432 . S
Eu341 O380 2.558 . S
Eu341 O381 2.612 . S
Eu341 O383 2.339 . S
Eu341 O384 2.563 . S
Eu341 O385 2.419 . S
Eu341 C405 2.848 . S
N342 C334 1.362 . S
N342 Eu341 2.657 . S
N342 C343 1.334 . S
C343 N342 1.334 . S
C343 C345 1.413 . S
C343 H350 0.929 . S
C344 C332 1.392 . S
C344 C345 1.367 . S
C344 H352 0.930 . S
C345 C343 1.413 . S
C345 C344 1.367 . S
C345 H347 0.930 . S
H346 C339 0.930 . S
H347 C345 0.930 . S
H348 C336 0.930 . S
H349 C337 0.930 . S
H350 C343 0.929 . S
H351 C365 0.930 . S
H352 C344 0.930 . S
H353 C371 0.930 . S
H354 C362 0.929 . S
H355 C369 0.930 . S
H356 C333 0.931 . S
H357 C363 0.930 . S
H358 C396 0.930 . S
H359 C340 0.930 . S
H360 C395 0.931 . S
N361 Eu330 2.657 . S
N361 C362 1.334 . S
N361 C366 1.362 . S
C362 H354 0.929 . S
C362 N361 1.334 . S
C362 C365 1.413 . S
C363 H357 0.930 . S
C363 C364 1.392 . S
C363 C365 1.367 . S
C364 C363 1.392 . S
C364 C366 1.420 . S
C364 C396 1.423 . S
C365 H351 0.930 . S
C365 C362 1.413 . S
C365 C363 1.367 . S
C366 N361 1.362 . S
C366 C364 1.420 . S
C366 C370 1.429 . S
H367 C372 0.930 . S
N368 Eu330 2.609 . S
N368 C370 1.377 . S
N368 C371 1.321 . S
C369 H355 0.930 . S
C369 C371 1.400 . S
C369 C372 1.386 . S
C370 C366 1.429 . S
C370 N368 1.377 . S
C370 C373 1.411 . S
C371 H353 0.930 . S
C371 N368 1.321 . S
C371 C369 1.400 . S
C372 H367 0.930 . S
C372 C369 1.386 . S
C372 C373 1.395 . S
C373 C370 1.411 . S
C373 C372 1.395 . S
C373 C395 1.420 . S
O374 Eu330 2.558 . S
O374 C394 1.257 . S
O375 Eu330 2.612 . S
O375 Eu341 2.380 1_554 S
O375 C386 1.276 . S
O376 Eu341 2.432 . S
O376 C393 1.264 1_556 S
O377 Eu330 2.339 . S
O377 C393 1.254 . S
O378 Eu330 2.563 . S
O378 C386 1.235 . S
O379 Eu330 2.419 . S
O379 C394 1.249 . S
O380 Eu341 2.558 . S
O380 C405 1.257 . S
O381 Eu330 2.380 1_556 S
O381 Eu341 2.612 . S
O381 C397 1.276 . S
O382 Eu330 2.432 . S
O382 C404 1.264 1_554 S
O383 Eu341 2.339 . S
O383 C404 1.254 . S
O384 Eu341 2.563 . S
O384 C397 1.235 . S
O385 Eu341 2.419 . S
O385 C405 1.249 . S
C386 O375 1.276 . S
C386 O378 1.235 . S
C387 C389 1.393 . S
C387 C391 1.395 . S
C387 C394 1.492 . S
C388 C389 1.392 . S
C388 C390 1.386 . S
C389 C387 1.393 . S
C389 C388 1.392 . S
C389 H406 0.930 . S
C390 C388 1.386 . S
C390 C392 1.395 . S
C390 H407 0.930 . S
C391 C387 1.395 . S
C391 C392 1.379 . S
C391 H408 0.930 . S
C392 C390 1.395 . S
C392 C391 1.379 . S
C392 H409 0.930 . S
C393 O376 1.264 1_554 S
C393 O377 1.254 . S
C394 Eu330 2.848 . S
C394 O374 1.257 . S
C394 O379 1.249 . S
C394 C387 1.492 . S
C395 H360 0.931 . S
C395 C373 1.420 . S
C395 C396 1.351 . S
C396 H358 0.930 . S
C396 C364 1.423 . S
C396 C395 1.351 . S
C397 O381 1.276 . S
C397 O384 1.235 . S
C398 C399 1.393 . S
C398 C402 1.395 . S
C398 C405 1.492 . S
C399 C398 1.393 . S
C399 C400 1.392 . S
C399 H410 0.930 . S
C400 C399 1.392 . S
C400 C401 1.386 . S
C401 C400 1.386 . S
C401 C403 1.395 . S
C401 H411 0.930 . S
C402 C398 1.395 . S
C402 C403 1.379 . S
C402 H412 0.930 . S
C403 C401 1.395 . S
C403 C402 1.379 . S
C403 H413 0.930 . S
C404 O382 1.264 1_556 S
C404 O383 1.254 . S
C405 Eu341 2.848 . S
C405 O380 1.257 . S
C405 O385 1.249 . S
C405 C398 1.492 . S
H406 C389 0.930 . S
H407 C390 0.930 . S
H408 C391 0.930 . S
H409 C392 0.930 . S
H410 C399 0.930 . S
H411 C401 0.930 . S
H412 C402 0.930 . S
H413 C403 0.930 . S
Eu414 N445 2.657 . S
Eu414 N452 2.609 . S
Eu414 O458 2.558 . S
Eu414 O459 2.612 . S
Eu414 O461 2.339 . S
Eu414 O462 2.563 . S
Eu414 O463 2.419 . S
Eu414 O465 2.380 . S
Eu414 O466 2.432 . S
Eu414 C478 2.848 . S
C415 C418 1.429 . S
C415 C419 1.411 . S
C415 N422 1.377 . S
C416 C418 1.420 . S
C416 C420 1.423 . S
C416 C428 1.392 . S
C417 C419 1.420 . S
C417 C420 1.351 . S
C417 H440 0.931 . S
C418 C415 1.429 . S
C418 C416 1.420 . S
C418 N426 1.362 . S
C419 C415 1.411 . S
C419 C417 1.420 . S
C419 C424 1.395 . S
C420 C416 1.423 . S
C420 C417 1.351 . S
C420 H432 0.930 . S
C421 C423 1.400 . S
C421 C424 1.386 . S
C421 H433 0.930 . S
N422 C415 1.377 . S
N422 C423 1.321 . S
N422 Eu425 2.609 . S
C423 C421 1.400 . S
C423 N422 1.321 . S
C423 H430 0.930 . S
C424 C419 1.395 . S
C424 C421 1.386 . S
C424 H443 0.930 . S
Eu425 N422 2.609 . S
Eu425 N426 2.657 . S
Eu425 O459 2.380 . S
Eu425 O460 2.432 . S
Eu425 O464 2.558 . S
Eu425 O465 2.612 . S
Eu425 O467 2.339 . S
Eu425 O468 2.563 . S
Eu425 O469 2.419 . S
Eu425 C489 2.848 . S
N426 C418 1.362 . S
N426 Eu425 2.657 . S
N426 C427 1.334 . S
C427 N426 1.334 . S
C427 C429 1.413 . S
C427 H434 0.929 . S
C428 C416 1.392 . S
C428 C429 1.367 . S
C428 H436 0.930 . S
C429 C427 1.413 . S
C429 C428 1.367 . S
C429 H431 0.930 . S
H430 C423 0.930 . S
H431 C429 0.930 . S
H432 C420 0.930 . S
H433 C421 0.930 . S
H434 C427 0.929 . S
H435 C449 0.930 . S
H436 C428 0.930 . S
H437 C455 0.930 . S
H438 C446 0.929 . S
H439 C453 0.930 . S
H440 C417 0.931 . S
H441 C447 0.930 . S
H442 C480 0.930 . S
H443 C424 0.930 . S
H444 C479 0.931 . S
N445 Eu414 2.657 . S
N445 C446 1.334 . S
N445 C450 1.362 . S
C446 H438 0.929 . S
C446 N445 1.334 . S
C446 C449 1.413 . S
C447 H441 0.930 . S
C447 C448 1.392 . S
C447 C449 1.367 . S
C448 C447 1.392 . S
C448 C450 1.420 . S
C448 C480 1.423 . S
C449 H435 0.930 . S
C449 C446 1.413 . S
C449 C447 1.367 . S
C450 N445 1.362 . S
C450 C448 1.420 . S
C450 C454 1.429 . S
H451 C456 0.930 . S
N452 Eu414 2.609 . S
N452 C454 1.377 . S
N452 C455 1.321 . S
C453 H439 0.930 . S
C453 C455 1.400 . S
C453 C456 1.386 . S
C454 C450 1.429 . S
C454 N452 1.377 . S
C454 C457 1.411 . S
C455 H437 0.930 . S
C455 N452 1.321 . S
C455 C453 1.400 . S
C456 H451 0.930 . S
C456 C453 1.386 . S
C456 C457 1.395 . S
C457 C454 1.411 . S
C457 C456 1.395 . S
C457 C479 1.420 . S
O458 Eu414 2.558 . S
O458 C478 1.257 . S
O459 Eu414 2.612 . S
O459 Eu425 2.380 . S
O459 C470 1.276 . S
O460 Eu425 2.432 . S
O460 C477 1.264 . S
O461 Eu414 2.339 . S
O461 C477 1.254 . S
O462 Eu414 2.563 . S
O462 C470 1.235 . S
O463 Eu414 2.419 . S
O463 C478 1.249 . S
O464 Eu425 2.558 . S
O464 C489 1.257 . S
O465 Eu414 2.380 . S
O465 Eu425 2.612 . S
O465 C481 1.276 . S
O466 Eu414 2.432 . S
O466 C488 1.264 . S
O467 Eu425 2.339 . S
O467 C488 1.254 . S
O468 Eu425 2.563 . S
O468 C481 1.235 . S
O469 Eu425 2.419 . S
O469 C489 1.249 . S
C470 O459 1.276 . S
C470 O462 1.235 . S
C471 C473 1.393 . S
C471 C475 1.395 . S
C471 C478 1.492 . S
C472 C473 1.392 . S
C472 C474 1.386 . S
C473 C471 1.393 . S
C473 C472 1.392 . S
C473 H490 0.930 . S
C474 C472 1.386 . S
C474 C476 1.395 . S
C474 H491 0.930 . S
C475 C471 1.395 . S
C475 C476 1.379 . S
C475 H492 0.930 . S
C476 C474 1.395 . S
C476 C475 1.379 . S
C476 H493 0.930 . S
C477 O460 1.264 . S
C477 O461 1.254 . S
C478 Eu414 2.848 . S
C478 O458 1.257 . S
C478 O463 1.249 . S
C478 C471 1.492 . S
C479 H444 0.931 . S
C479 C457 1.420 . S
C479 C480 1.351 . S
C480 H442 0.930 . S
C480 C448 1.423 . S
C480 C479 1.351 . S
C481 O465 1.276 . S
C481 O468 1.235 . S
C482 C483 1.393 . S
C482 C486 1.395 . S
C482 C489 1.492 . S
C483 C482 1.393 . S
C483 C484 1.392 . S
C483 H494 0.930 . S
C484 C483 1.392 . S
C484 C485 1.386 . S
C485 C484 1.386 . S
C485 C487 1.395 . S
C485 H495 0.930 . S
C486 C482 1.395 . S
C486 C487 1.379 . S
C486 H496 0.930 . S
C487 C485 1.395 . S
C487 C486 1.379 . S
C487 H497 0.930 . S
C488 O466 1.264 . S
C488 O467 1.254 . S
C489 Eu425 2.848 . S
C489 O464 1.257 . S
C489 O469 1.249 . S
C489 C482 1.492 . S
H490 C473 0.930 . S
H491 C474 0.930 . S
H492 C475 0.930 . S
H493 C476 0.930 . S
H494 C483 0.930 . S
H495 C485 0.930 . S
H496 C486 0.930 . S
H497 C487 0.930 . S
Eu498 N529 2.657 . S
Eu498 N536 2.609 . S
Eu498 O542 2.558 . S
Eu498 O543 2.612 . S
Eu498 O545 2.339 . S
Eu498 O546 2.563 . S
Eu498 O547 2.419 . S
Eu498 O549 2.380 . S
Eu498 O550 2.432 . S
Eu498 C562 2.848 . S
C499 C502 1.429 . S
C499 C503 1.411 . S
C499 N506 1.377 . S
C500 C502 1.420 . S
C500 C504 1.423 . S
C500 C512 1.392 . S
C501 C503 1.420 . S
C501 C504 1.351 . S
C501 H524 0.931 . S
C502 C499 1.429 . S
C502 C500 1.420 . S
C502 N510 1.362 . S
C503 C499 1.411 . S
C503 C501 1.420 . S
C503 C508 1.395 . S
C504 C500 1.423 . S
C504 C501 1.351 . S
C504 H516 0.930 . S
C505 C507 1.400 . S
C505 C508 1.386 . S
C505 H517 0.930 . S
N506 C499 1.377 . S
N506 C507 1.321 . S
N506 Eu509 2.609 . S
C507 C505 1.400 . S
C507 N506 1.321 . S
C507 H514 0.930 . S
C508 C503 1.395 . S
C508 C505 1.386 . S
C508 H527 0.930 . S
Eu509 N506 2.609 . S
Eu509 N510 2.657 . S
Eu509 O543 2.380 . S
Eu509 O544 2.432 . S
Eu509 O548 2.558 . S
Eu509 O549 2.612 . S
Eu509 O551 2.339 . S
Eu509 O552 2.563 . S
Eu509 O553 2.419 . S
Eu509 C573 2.848 . S
N510 C502 1.362 . S
N510 Eu509 2.657 . S
N510 C511 1.334 . S
C511 N510 1.334 . S
C511 C513 1.413 . S
C511 H518 0.929 . S
C512 C500 1.392 . S
C512 C513 1.367 . S
C512 H520 0.930 . S
C513 C511 1.413 . S
C513 C512 1.367 . S
C513 H515 0.930 . S
H514 C507 0.930 . S
H515 C513 0.930 . S
H516 C504 0.930 . S
H517 C505 0.930 . S
H518 C511 0.929 . S
H519 C533 0.930 . S
H520 C512 0.930 . S
H521 C539 0.930 . S
H522 C530 0.929 . S
H523 C537 0.930 . S
H524 C501 0.931 . S
H525 C531 0.930 . S
H526 C564 0.930 . S
H527 C508 0.930 . S
H528 C563 0.931 . S
N529 Eu498 2.657 . S
N529 C530 1.334 . S
N529 C534 1.362 . S
C530 H522 0.929 . S
C530 N529 1.334 . S
C530 C533 1.413 . S
C531 H525 0.930 . S
C531 C532 1.392 . S
C531 C533 1.367 . S
C532 C531 1.392 . S
C532 C534 1.420 . S
C532 C564 1.423 . S
C533 H519 0.930 . S
C533 C530 1.413 . S
C533 C531 1.367 . S
C534 N529 1.362 . S
C534 C532 1.420 . S
C534 C538 1.429 . S
H535 C540 0.930 . S
N536 Eu498 2.609 . S
N536 C538 1.377 . S
N536 C539 1.321 . S
C537 H523 0.930 . S
C537 C539 1.400 . S
C537 C540 1.386 . S
C538 C534 1.429 . S
C538 N536 1.377 . S
C538 C541 1.411 . S
C539 H521 0.930 . S
C539 N536 1.321 . S
C539 C537 1.400 . S
C540 H535 0.930 . S
C540 C537 1.386 . S
C540 C541 1.395 . S
C541 C538 1.411 . S
C541 C540 1.395 . S
C541 C563 1.420 . S
O542 Eu498 2.558 . S
O542 C562 1.257 . S
O543 Eu498 2.612 . S
O543 Eu509 2.380 . S
O543 C554 1.276 . S
O544 Eu509 2.432 . S
O544 C561 1.264 . S
O545 Eu498 2.339 . S
O545 C561 1.254 . S
O546 Eu498 2.563 . S
O546 C554 1.235 . S
O547 Eu498 2.419 . S
O547 C562 1.249 . S
O548 Eu509 2.558 . S
O548 C573 1.257 . S
O549 Eu498 2.380 . S
O549 Eu509 2.612 . S
O549 C565 1.276 . S
O550 Eu498 2.432 . S
O550 C572 1.264 . S
O551 Eu509 2.339 . S
O551 C572 1.254 . S
O552 Eu509 2.563 . S
O552 C565 1.235 . S
O553 Eu509 2.419 . S
O553 C573 1.249 . S
C554 O543 1.276 . S
C554 O546 1.235 . S
C555 C557 1.393 . S
C555 C559 1.395 . S
C555 C562 1.492 . S
C556 C557 1.392 . S
C556 C558 1.386 . S
C557 C555 1.393 . S
C557 C556 1.392 . S
C557 H574 0.930 . S
C558 C556 1.386 . S
C558 C560 1.395 . S
C558 H575 0.930 . S
C559 C555 1.395 . S
C559 C560 1.379 . S
C559 H576 0.930 . S
C560 C558 1.395 . S
C560 C559 1.379 . S
C560 H577 0.930 . S
C561 O544 1.264 . S
C561 O545 1.254 . S
C562 Eu498 2.848 . S
C562 O542 1.257 . S
C562 O547 1.249 . S
C562 C555 1.492 . S
C563 H528 0.931 . S
C563 C541 1.420 . S
C563 C564 1.351 . S
C564 H526 0.930 . S
C564 C532 1.423 . S
C564 C563 1.351 . S
C565 O549 1.276 . S
C565 O552 1.235 . S
C566 C567 1.393 . S
C566 C570 1.395 . S
C566 C573 1.492 . S
C567 C566 1.393 . S
C567 C568 1.392 . S
C567 H578 0.930 . S
C568 C567 1.392 . S
C568 C569 1.386 . S
C569 C568 1.386 . S
C569 C571 1.395 . S
C569 H579 0.930 . S
C570 C566 1.395 . S
C570 C571 1.379 . S
C570 H580 0.930 . S
C571 C569 1.395 . S
C571 C570 1.379 . S
C571 H581 0.930 . S
C572 O550 1.264 . S
C572 O551 1.254 . S
C573 Eu509 2.848 . S
C573 O548 1.257 . S
C573 O553 1.249 . S
C573 C566 1.492 . S
H574 C557 0.930 . S
H575 C558 0.930 . S
H576 C559 0.930 . S
H577 C560 0.930 . S
H578 C567 0.930 . S
H579 C569 0.930 . S
H580 C570 0.930 . S
H581 C571 0.930 . S
Eu582 N613 2.657 . S
Eu582 N620 2.609 . S
Eu582 O626 2.558 . S
Eu582 O627 2.612 . S
Eu582 O629 2.339 . S
Eu582 O630 2.563 . S
Eu582 O631 2.419 . S
Eu582 O633 2.380 . S
Eu582 O634 2.432 . S
Eu582 C646 2.848 . S
C583 C586 1.429 . S
C583 C587 1.411 . S
C583 N590 1.377 . S
C584 C586 1.420 . S
C584 C588 1.423 . S
C584 C596 1.392 . S
C585 C587 1.420 . S
C585 C588 1.351 . S
C585 H608 0.931 . S
C586 C583 1.429 . S
C586 C584 1.420 . S
C586 N594 1.362 . S
C587 C583 1.411 . S
C587 C585 1.420 . S
C587 C592 1.395 . S
C588 C584 1.423 . S
C588 C585 1.351 . S
C588 H600 0.930 . S
C589 C591 1.400 . S
C589 C592 1.386 . S
C589 H601 0.930 . S
N590 C583 1.377 . S
N590 C591 1.321 . S
N590 Eu593 2.609 . S
C591 C589 1.400 . S
C591 N590 1.321 . S
C591 H598 0.930 . S
C592 C587 1.395 . S
C592 C589 1.386 . S
C592 H611 0.930 . S
Eu593 N590 2.609 . S
Eu593 N594 2.657 . S
Eu593 O627 2.380 . S
Eu593 O628 2.432 . S
Eu593 O632 2.558 . S
Eu593 O633 2.612 . S
Eu593 O635 2.339 . S
Eu593 O636 2.563 . S
Eu593 O637 2.419 . S
Eu593 C657 2.848 . S
N594 C586 1.362 . S
N594 Eu593 2.657 . S
N594 C595 1.334 . S
C595 N594 1.334 . S
C595 C597 1.413 . S
C595 H602 0.929 . S
C596 C584 1.392 . S
C596 C597 1.367 . S
C596 H604 0.930 . S
C597 C595 1.413 . S
C597 C596 1.367 . S
C597 H599 0.930 . S
H598 C591 0.930 . S
H599 C597 0.930 . S
H600 C588 0.930 . S
H601 C589 0.930 . S
H602 C595 0.929 . S
H603 C617 0.930 . S
H604 C596 0.930 . S
H605 C623 0.930 . S
H606 C614 0.929 . S
H607 C621 0.930 . S
H608 C585 0.931 . S
H609 C615 0.930 . S
H610 C648 0.930 . S
H611 C592 0.930 . S
H612 C647 0.931 . S
N613 Eu582 2.657 . S
N613 C614 1.334 . S
N613 C618 1.362 . S
C614 H606 0.929 . S
C614 N613 1.334 . S
C614 C617 1.413 . S
C615 H609 0.930 . S
C615 C616 1.392 . S
C615 C617 1.367 . S
C616 C615 1.392 . S
C616 C618 1.420 . S
C616 C648 1.423 . S
C617 H603 0.930 . S
C617 C614 1.413 . S
C617 C615 1.367 . S
C618 N613 1.362 . S
C618 C616 1.420 . S
C618 C622 1.429 . S
H619 C624 0.930 . S
N620 Eu582 2.609 . S
N620 C622 1.377 . S
N620 C623 1.321 . S
C621 H607 0.930 . S
C621 C623 1.400 . S
C621 C624 1.386 . S
C622 C618 1.429 . S
C622 N620 1.377 . S
C622 C625 1.411 . S
C623 H605 0.930 . S
C623 N620 1.321 . S
C623 C621 1.400 . S
C624 H619 0.930 . S
C624 C621 1.386 . S
C624 C625 1.395 . S
C625 C622 1.411 . S
C625 C624 1.395 . S
C625 C647 1.420 . S
O626 Eu582 2.558 . S
O626 C646 1.257 . S
O627 Eu582 2.612 . S
O627 Eu593 2.380 . S
O627 C638 1.276 . S
O628 Eu593 2.432 . S
O628 C645 1.264 . S
O629 Eu582 2.339 . S
O629 C645 1.254 . S
O630 Eu582 2.563 . S
O630 C638 1.235 . S
O631 Eu582 2.419 . S
O631 C646 1.249 . S
O632 Eu593 2.558 . S
O632 C657 1.257 . S
O633 Eu582 2.380 . S
O633 Eu593 2.612 . S
O633 C649 1.276 . S
O634 Eu582 2.432 . S
O634 C656 1.264 . S
O635 Eu593 2.339 . S
O635 C656 1.254 . S
O636 Eu593 2.563 . S
O636 C649 1.235 . S
O637 Eu593 2.419 . S
O637 C657 1.249 . S
C638 O627 1.276 . S
C638 O630 1.235 . S
C639 C641 1.393 . S
C639 C643 1.395 . S
C639 C646 1.492 . S
C640 C641 1.392 . S
C640 C642 1.386 . S
C641 C639 1.393 . S
C641 C640 1.392 . S
C641 H658 0.930 . S
C642 C640 1.386 . S
C642 C644 1.395 . S
C642 H659 0.930 . S
C643 C639 1.395 . S
C643 C644 1.379 . S
C643 H660 0.930 . S
C644 C642 1.395 . S
C644 C643 1.379 . S
C644 H661 0.930 . S
C645 O628 1.264 . S
C645 O629 1.254 . S
C646 Eu582 2.848 . S
C646 O626 1.257 . S
C646 O631 1.249 . S
C646 C639 1.492 . S
C647 H612 0.931 . S
C647 C625 1.420 . S
C647 C648 1.351 . S
C648 H610 0.930 . S
C648 C616 1.423 . S
C648 C647 1.351 . S
C649 O633 1.276 . S
C649 O636 1.235 . S
C650 C651 1.393 . S
C650 C654 1.395 . S
C650 C657 1.492 . S
C651 C650 1.393 . S
C651 C652 1.392 . S
C651 H662 0.930 . S
C652 C651 1.392 . S
C652 C653 1.386 . S
C653 C652 1.386 . S
C653 C655 1.395 . S
C653 H663 0.930 . S
C654 C650 1.395 . S
C654 C655 1.379 . S
C654 H664 0.930 . S
C655 C653 1.395 . S
C655 C654 1.379 . S
C655 H665 0.930 . S
C656 O634 1.264 . S
C656 O635 1.254 . S
C657 Eu593 2.848 . S
C657 O632 1.257 . S
C657 O637 1.249 . S
C657 C650 1.492 . S
H658 C641 0.930 . S
H659 C642 0.930 . S
H660 C643 0.930 . S
H661 C644 0.930 . S
H662 C651 0.930 . S
H663 C653 0.930 . S
H664 C654 0.930 . S
H665 C655 0.930 . S
Eu666 N697 2.657 . S
Eu666 N704 2.609 . S
Eu666 O710 2.558 . S
Eu666 O711 2.612 . S
Eu666 O713 2.339 . S
Eu666 O714 2.563 . S
Eu666 O715 2.419 . S
Eu666 O717 2.380 . S
Eu666 O718 2.432 . S
Eu666 C730 2.848 . S
C667 C670 1.429 . S
C667 C671 1.411 . S
C667 N674 1.377 . S
C668 C670 1.420 . S
C668 C672 1.423 . S
C668 C680 1.392 . S
C669 C671 1.420 . S
C669 C672 1.351 . S
C669 H692 0.931 . S
C670 C667 1.429 . S
C670 C668 1.420 . S
C670 N678 1.362 . S
C671 C667 1.411 . S
C671 C669 1.420 . S
C671 C676 1.395 . S
C672 C668 1.423 . S
C672 C669 1.351 . S
C672 H684 0.930 . S
C673 C675 1.400 . S
C673 C676 1.386 . S
C673 H685 0.930 . S
N674 C667 1.377 . S
N674 C675 1.321 . S
N674 Eu677 2.609 . S
C675 C673 1.400 . S
C675 N674 1.321 . S
C675 H682 0.930 . S
C676 C671 1.395 . S
C676 C673 1.386 . S
C676 H695 0.930 . S
Eu677 N674 2.609 . S
Eu677 N678 2.657 . S
Eu677 O711 2.380 . S
Eu677 O712 2.432 . S
Eu677 O716 2.558 . S
Eu677 O717 2.612 . S
Eu677 O719 2.339 . S
Eu677 O720 2.563 . S
Eu677 O721 2.419 . S
Eu677 C741 2.848 . S
N678 C670 1.362 . S
N678 Eu677 2.657 . S
N678 C679 1.334 . S
C679 N678 1.334 . S
C679 C681 1.413 . S
C679 H686 0.929 . S
C680 C668 1.392 . S
C680 C681 1.367 . S
C680 H688 0.930 . S
C681 C679 1.413 . S
C681 C680 1.367 . S
C681 H683 0.930 . S
H682 C675 0.930 . S
H683 C681 0.930 . S
H684 C672 0.930 . S
H685 C673 0.930 . S
H686 C679 0.929 . S
H687 C701 0.930 . S
H688 C680 0.930 . S
H689 C707 0.930 . S
H690 C698 0.929 . S
H691 C705 0.930 . S
H692 C669 0.931 . S
H693 C699 0.930 . S
H694 C732 0.930 . S
H695 C676 0.930 . S
H696 C731 0.931 . S
N697 Eu666 2.657 . S
N697 C698 1.334 . S
N697 C702 1.362 . S
C698 H690 0.929 . S
C698 N697 1.334 . S
C698 C701 1.413 . S
C699 H693 0.930 . S
C699 C700 1.392 . S
C699 C701 1.367 . S
C700 C699 1.392 . S
C700 C702 1.420 . S
C700 C732 1.423 . S
C701 H687 0.930 . S
C701 C698 1.413 . S
C701 C699 1.367 . S
C702 N697 1.362 . S
C702 C700 1.420 . S
C702 C706 1.429 . S
H703 C708 0.930 . S
N704 Eu666 2.609 . S
N704 C706 1.377 . S
N704 C707 1.321 . S
C705 H691 0.930 . S
C705 C707 1.400 . S
C705 C708 1.386 . S
C706 C702 1.429 . S
C706 N704 1.377 . S
C706 C709 1.411 . S
C707 H689 0.930 . S
C707 N704 1.321 . S
C707 C705 1.400 . S
C708 H703 0.930 . S
C708 C705 1.386 . S
C708 C709 1.395 . S
C709 C706 1.411 . S
C709 C708 1.395 . S
C709 C731 1.420 . S
O710 Eu666 2.558 . S
O710 C730 1.257 . S
O711 Eu666 2.612 . S
O711 Eu677 2.380 . S
O711 C722 1.276 . S
O712 Eu677 2.432 . S
O712 C729 1.264 . S
O713 Eu666 2.339 . S
O713 C729 1.254 . S
O714 Eu666 2.563 . S
O714 C722 1.235 . S
O715 Eu666 2.419 . S
O715 C730 1.249 . S
O716 Eu677 2.558 . S
O716 C741 1.257 . S
O717 Eu666 2.380 . S
O717 Eu677 2.612 . S
O717 C733 1.276 . S
O718 Eu666 2.432 . S
O718 C740 1.264 . S
O719 Eu677 2.339 . S
O719 C740 1.254 . S
O720 Eu677 2.563 . S
O720 C733 1.235 . S
O721 Eu677 2.419 . S
O721 C741 1.249 . S
C722 O711 1.276 . S
C722 O714 1.235 . S
C723 C725 1.393 . S
C723 C727 1.395 . S
C723 C730 1.492 . S
C724 C725 1.392 . S
C724 C726 1.386 . S
C725 C723 1.393 . S
C725 C724 1.392 . S
C725 H742 0.930 . S
C726 C724 1.386 . S
C726 C728 1.395 . S
C726 H743 0.930 . S
C727 C723 1.395 . S
C727 C728 1.379 . S
C727 H744 0.930 . S
C728 C726 1.395 . S
C728 C727 1.379 . S
C728 H745 0.930 . S
C729 O712 1.264 . S
C729 O713 1.254 . S
C730 Eu666 2.848 . S
C730 O710 1.257 . S
C730 O715 1.249 . S
C730 C723 1.492 . S
C731 H696 0.931 . S
C731 C709 1.420 . S
C731 C732 1.351 . S
C732 H694 0.930 . S
C732 C700 1.423 . S
C732 C731 1.351 . S
C733 O717 1.276 . S
C733 O720 1.235 . S
C734 C735 1.393 . S
C734 C738 1.395 . S
C734 C741 1.492 . S
C735 C734 1.393 . S
C735 C736 1.392 . S
C735 H746 0.930 . S
C736 C735 1.392 . S
C736 C737 1.386 . S
C737 C736 1.386 . S
C737 C739 1.395 . S
C737 H747 0.930 . S
C738 C734 1.395 . S
C738 C739 1.379 . S
C738 H748 0.930 . S
C739 C737 1.395 . S
C739 C738 1.379 . S
C739 H749 0.930 . S
C740 O718 1.264 . S
C740 O719 1.254 . S
C741 Eu677 2.848 . S
C741 O716 1.257 . S
C741 O721 1.249 . S
C741 C734 1.492 . S
H742 C725 0.930 . S
H743 C726 0.930 . S
H744 C727 0.930 . S
H745 C728 0.930 . S
H746 C735 0.930 . S
H747 C737 0.930 . S
H748 C738 0.930 . S
H749 C739 0.930 . S
Eu750 N781 2.657 . S
Eu750 N788 2.609 . S
Eu750 O794 2.558 . S
Eu750 O795 2.612 . S
Eu750 O797 2.339 . S
Eu750 O798 2.563 . S
Eu750 O799 2.419 . S
Eu750 O801 2.380 . S
Eu750 O802 2.432 . S
Eu750 C814 2.848 . S
C751 C754 1.429 . S
C751 C755 1.411 . S
C751 N758 1.377 . S
C752 C754 1.420 . S
C752 C756 1.423 . S
C752 C764 1.392 . S
C753 C755 1.420 . S
C753 C756 1.351 . S
C753 H776 0.931 . S
C754 C751 1.429 . S
C754 C752 1.420 . S
C754 N762 1.362 . S
C755 C751 1.411 . S
C755 C753 1.420 . S
C755 C760 1.395 . S
C756 C752 1.423 . S
C756 C753 1.351 . S
C756 H768 0.930 . S
C757 C759 1.400 . S
C757 C760 1.386 . S
C757 H769 0.930 . S
N758 C751 1.377 . S
N758 C759 1.321 . S
N758 Eu761 2.609 . S
C759 C757 1.400 . S
C759 N758 1.321 . S
C759 H766 0.930 . S
C760 C755 1.395 . S
C760 C757 1.386 . S
C760 H779 0.930 . S
Eu761 N758 2.609 . S
Eu761 N762 2.657 . S
Eu761 O795 2.380 . S
Eu761 O796 2.432 . S
Eu761 O800 2.558 . S
Eu761 O801 2.612 . S
Eu761 O803 2.339 . S
Eu761 O804 2.563 . S
Eu761 O805 2.419 . S
Eu761 C825 2.848 . S
N762 C754 1.362 . S
N762 Eu761 2.657 . S
N762 C763 1.334 . S
C763 N762 1.334 . S
C763 C765 1.413 . S
C763 H770 0.929 . S
C764 C752 1.392 . S
C764 C765 1.367 . S
C764 H772 0.930 . S
C765 C763 1.413 . S
C765 C764 1.367 . S
C765 H767 0.930 . S
H766 C759 0.930 . S
H767 C765 0.930 . S
H768 C756 0.930 . S
H769 C757 0.930 . S
H770 C763 0.929 . S
H771 C785 0.930 . S
H772 C764 0.930 . S
H773 C791 0.930 . S
H774 C782 0.929 . S
H775 C789 0.930 . S
H776 C753 0.931 . S
H777 C783 0.930 . S
H778 C816 0.930 . S
H779 C760 0.930 . S
H780 C815 0.931 . S
N781 Eu750 2.657 . S
N781 C782 1.334 . S
N781 C786 1.362 . S
C782 H774 0.929 . S
C782 N781 1.334 . S
C782 C785 1.413 . S
C783 H777 0.930 . S
C783 C784 1.392 . S
C783 C785 1.367 . S
C784 C783 1.392 . S
C784 C786 1.420 . S
C784 C816 1.423 . S
C785 H771 0.930 . S
C785 C782 1.413 . S
C785 C783 1.367 . S
C786 N781 1.362 . S
C786 C784 1.420 . S
C786 C790 1.429 . S
H787 C792 0.930 . S
N788 Eu750 2.609 . S
N788 C790 1.377 . S
N788 C791 1.321 . S
C789 H775 0.930 . S
C789 C791 1.400 . S
C789 C792 1.386 . S
C790 C786 1.429 . S
C790 N788 1.377 . S
C790 C793 1.411 . S
C791 H773 0.930 . S
C791 N788 1.321 . S
C791 C789 1.400 . S
C792 H787 0.930 . S
C792 C789 1.386 . S
C792 C793 1.395 . S
C793 C790 1.411 . S
C793 C792 1.395 . S
C793 C815 1.420 . S
O794 Eu750 2.558 . S
O794 C814 1.257 . S
O795 Eu750 2.612 . S
O795 Eu761 2.380 . S
O795 C806 1.276 . S
O796 Eu761 2.432 . S
O796 C813 1.264 . S
O797 Eu750 2.339 . S
O797 C813 1.254 . S
O798 Eu750 2.563 . S
O798 C806 1.235 . S
O799 Eu750 2.419 . S
O799 C814 1.249 . S
O800 Eu761 2.558 . S
O800 C825 1.257 . S
O801 Eu750 2.380 . S
O801 Eu761 2.612 . S
O801 C817 1.276 . S
O802 Eu750 2.432 . S
O802 C824 1.264 . S
O803 Eu761 2.339 . S
O803 C824 1.254 . S
O804 Eu761 2.563 . S
O804 C817 1.235 . S
O805 Eu761 2.419 . S
O805 C825 1.249 . S
C806 O795 1.276 . S
C806 O798 1.235 . S
C807 C809 1.393 . S
C807 C811 1.395 . S
C807 C814 1.492 . S
C808 C809 1.392 . S
C808 C810 1.386 . S
C809 C807 1.393 . S
C809 C808 1.392 . S
C809 H826 0.930 . S
C810 C808 1.386 . S
C810 C812 1.395 . S
C810 H827 0.930 . S
C811 C807 1.395 . S
C811 C812 1.379 . S
C811 H828 0.930 . S
C812 C810 1.395 . S
C812 C811 1.379 . S
C812 H829 0.930 . S
C813 O796 1.264 . S
C813 O797 1.254 . S
C814 Eu750 2.848 . S
C814 O794 1.257 . S
C814 O799 1.249 . S
C814 C807 1.492 . S
C815 H780 0.931 . S
C815 C793 1.420 . S
C815 C816 1.351 . S
C816 H778 0.930 . S
C816 C784 1.423 . S
C816 C815 1.351 . S
C817 O801 1.276 . S
C817 O804 1.235 . S
C818 C819 1.393 . S
C818 C822 1.395 . S
C818 C825 1.492 . S
C819 C818 1.393 . S
C819 C820 1.392 . S
C819 H830 0.930 . S
C820 C819 1.392 . S
C820 C821 1.386 . S
C821 C820 1.386 . S
C821 C823 1.395 . S
C821 H831 0.930 . S
C822 C818 1.395 . S
C822 C823 1.379 . S
C822 H832 0.930 . S
C823 C821 1.395 . S
C823 C822 1.379 . S
C823 H833 0.930 . S
C824 O802 1.264 . S
C824 O803 1.254 . S
C825 Eu761 2.848 . S
C825 O800 1.257 . S
C825 O805 1.249 . S
C825 C818 1.492 . S
H826 C809 0.930 . S
H827 C810 0.930 . S
H828 C811 0.930 . S
H829 C812 0.930 . S
H830 C819 0.930 . S
H831 C821 0.930 . S
H832 C822 0.930 . S
H833 C823 0.930 . S
Eu834 N865 2.657 . S
Eu834 N872 2.609 . S
Eu834 O878 2.558 . S
Eu834 O879 2.612 . S
Eu834 O881 2.339 . S
Eu834 O882 2.563 . S
Eu834 O883 2.419 . S
Eu834 O885 2.380 . S
Eu834 O886 2.432 . S
Eu834 C898 2.848 . S
C835 C838 1.429 . S
C835 C839 1.411 . S
C835 N842 1.377 . S
C836 C838 1.420 . S
C836 C840 1.423 . S
C836 C848 1.392 . S
C837 C839 1.420 . S
C837 C840 1.351 . S
C837 H860 0.931 . S
C838 C835 1.429 . S
C838 C836 1.420 . S
C838 N846 1.362 . S
C839 C835 1.411 . S
C839 C837 1.420 . S
C839 C844 1.395 . S
C840 C836 1.423 . S
C840 C837 1.351 . S
C840 H852 0.930 . S
C841 C843 1.400 . S
C841 C844 1.386 . S
C841 H853 0.930 . S
N842 C835 1.377 . S
N842 C843 1.321 . S
N842 Eu845 2.609 . S
C843 C841 1.400 . S
C843 N842 1.321 . S
C843 H850 0.930 . S
C844 C839 1.395 . S
C844 C841 1.386 . S
C844 H863 0.930 . S
Eu845 N842 2.609 . S
Eu845 N846 2.657 . S
Eu845 O879 2.380 . S
Eu845 O880 2.432 . S
Eu845 O884 2.558 . S
Eu845 O885 2.612 . S
Eu845 O887 2.339 . S
Eu845 O888 2.563 . S
Eu845 O889 2.419 . S
Eu845 C909 2.848 . S
N846 C838 1.362 . S
N846 Eu845 2.657 . S
N846 C847 1.334 . S
C847 N846 1.334 . S
C847 C849 1.413 . S
C847 H854 0.929 . S
C848 C836 1.392 . S
C848 C849 1.367 . S
C848 H856 0.930 . S
C849 C847 1.413 . S
C849 C848 1.367 . S
C849 H851 0.930 . S
H850 C843 0.930 . S
H851 C849 0.930 . S
H852 C840 0.930 . S
H853 C841 0.930 . S
H854 C847 0.929 . S
H855 C869 0.930 . S
H856 C848 0.930 . S
H857 C875 0.930 . S
H858 C866 0.929 . S
H859 C873 0.930 . S
H860 C837 0.931 . S
H861 C867 0.930 . S
H862 C900 0.930 . S
H863 C844 0.930 . S
H864 C899 0.931 . S
N865 Eu834 2.657 . S
N865 C866 1.334 . S
N865 C870 1.362 . S
C866 H858 0.929 . S
C866 N865 1.334 . S
C866 C869 1.413 . S
C867 H861 0.930 . S
C867 C868 1.392 . S
C867 C869 1.367 . S
C868 C867 1.392 . S
C868 C870 1.420 . S
C868 C900 1.423 . S
C869 H855 0.930 . S
C869 C866 1.413 . S
C869 C867 1.367 . S
C870 N865 1.362 . S
C870 C868 1.420 . S
C870 C874 1.429 . S
H871 C876 0.930 . S
N872 Eu834 2.609 . S
N872 C874 1.377 . S
N872 C875 1.321 . S
C873 H859 0.930 . S
C873 C875 1.400 . S
C873 C876 1.386 . S
C874 C870 1.429 . S
C874 N872 1.377 . S
C874 C877 1.411 . S
C875 H857 0.930 . S
C875 N872 1.321 . S
C875 C873 1.400 . S
C876 H871 0.930 . S
C876 C873 1.386 . S
C876 C877 1.395 . S
C877 C874 1.411 . S
C877 C876 1.395 . S
C877 C899 1.420 . S
O878 Eu834 2.558 . S
O878 C898 1.257 . S
O879 Eu834 2.612 . S
O879 Eu845 2.380 . S
O879 C890 1.276 . S
O880 Eu845 2.432 . S
O880 C897 1.264 . S
O881 Eu834 2.339 . S
O881 C897 1.254 . S
O882 Eu834 2.563 . S
O882 C890 1.235 . S
O883 Eu834 2.419 . S
O883 C898 1.249 . S
O884 Eu845 2.558 . S
O884 C909 1.257 . S
O885 Eu834 2.380 . S
O885 Eu845 2.612 . S
O885 C901 1.276 . S
O886 Eu834 2.432 . S
O886 C908 1.264 . S
O887 Eu845 2.339 . S
O887 C908 1.254 . S
O888 Eu845 2.563 . S
O888 C901 1.235 . S
O889 Eu845 2.419 . S
O889 C909 1.249 . S
C890 O879 1.276 . S
C890 O882 1.235 . S
C891 C893 1.393 . S
C891 C895 1.395 . S
C891 C898 1.492 . S
C892 C893 1.392 . S
C892 C894 1.386 . S
C893 C891 1.393 . S
C893 C892 1.392 . S
C893 H910 0.930 . S
C894 C892 1.386 . S
C894 C896 1.395 . S
C894 H911 0.930 . S
C895 C891 1.395 . S
C895 C896 1.379 . S
C895 H912 0.930 . S
C896 C894 1.395 . S
C896 C895 1.379 . S
C896 H913 0.930 . S
C897 O880 1.264 . S
C897 O881 1.254 . S
C898 Eu834 2.848 . S
C898 O878 1.257 . S
C898 O883 1.249 . S
C898 C891 1.492 . S
C899 H864 0.931 . S
C899 C877 1.420 . S
C899 C900 1.351 . S
C900 H862 0.930 . S
C900 C868 1.423 . S
C900 C899 1.351 . S
C901 O885 1.276 . S
C901 O888 1.235 . S
C902 C903 1.393 . S
C902 C906 1.395 . S
C902 C909 1.492 . S
C903 C902 1.393 . S
C903 C904 1.392 . S
C903 H914 0.930 . S
C904 C903 1.392 . S
C904 C905 1.386 . S
C905 C904 1.386 . S
C905 C907 1.395 . S
C905 H915 0.930 . S
C906 C902 1.395 . S
C906 C907 1.379 . S
C906 H916 0.930 . S
C907 C905 1.395 . S
C907 C906 1.379 . S
C907 H917 0.930 . S
C908 O886 1.264 . S
C908 O887 1.254 . S
C909 Eu845 2.848 . S
C909 O884 1.257 . S
C909 O889 1.249 . S
C909 C902 1.492 . S
H910 C893 0.930 . S
H911 C894 0.930 . S
H912 C895 0.930 . S
H913 C896 0.930 . S
H914 C903 0.930 . S
H915 C905 0.930 . S
H916 C906 0.930 . S
H917 C907 0.930 . S
C918 C919 1.349 . S
C918 C920 1.327 . S
C918 H943 0.950 . S
C919 C918 1.349 . S
C919 C935 1.349 . S
C920 C918 1.327 . S
C920 C939 1.429 . S
C920 H944 0.950 . S
C921 C938 1.574 . S
C921 C940 1.368 . S
C921 H945 0.949 . S
H922 C926 0.949 . S
C923 C924 1.349 . S
C923 C925 1.327 . S
C923 H946 0.950 . S
C924 C923 1.349 . S
C924 C936 1.349 . S
C925 C923 1.327 . S
C925 C941 1.429 . S
C925 H947 0.950 . S
C926 H922 0.949 . S
C926 C934 1.574 . S
C926 C942 1.368 . S
H927 C935 0.950 . S
H928 C933 0.950 . S
H929 C934 0.949 . S
H930 C936 0.950 . S
H931 C937 0.950 . S
H932 C938 0.949 . S
C933 H928 0.950 . S
C933 C935 1.327 . S
C933 C939 1.429 . S
C934 C926 1.574 . S
C934 H929 0.949 . S
C934 C940 1.368 . S
C935 C919 1.349 . S
C935 H927 0.950 . S
C935 C933 1.327 . S
C936 C924 1.349 . S
C936 H930 0.950 . S
C936 C937 1.327 . S
C937 H931 0.950 . S
C937 C936 1.327 . S
C937 C941 1.429 . S
C938 C921 1.574 . S
C938 H932 0.949 . S
C938 C942 1.368 . S
C939 C920 1.429 . S
C939 C933 1.429 . S
C939 C940 1.523 . S
C940 C921 1.368 . S
C940 C934 1.368 . S
C940 C939 1.523 . S
C941 C925 1.429 . S
C941 C937 1.429 . S
C941 C942 1.523 . S
C942 C926 1.368 . S
C942 C938 1.368 . S
C942 C941 1.523 . S
H943 C918 0.950 . S
H944 C920 0.950 . S
H945 C921 0.949 . S
H946 C923 0.950 . S
H947 C925 0.950 . S
C948 C949 1.349 . S
C948 C950 1.327 . S
C948 H973 0.950 . S
C949 C948 1.349 . S
C949 C965 1.349 . S
C950 C948 1.327 . S
C950 C969 1.429 . S
C950 H974 0.950 . S
C951 C968 1.574 . S
C951 C970 1.368 . S
C951 H975 0.949 . S
H952 C956 0.949 . S
C953 C954 1.349 . S
C953 C955 1.327 . S
C953 H976 0.950 . S
C954 C953 1.349 . S
C954 C966 1.349 . S
C955 C953 1.327 . S
C955 C971 1.429 . S
C955 H977 0.950 . S
C956 H952 0.949 . S
C956 C964 1.574 . S
C956 C972 1.368 . S
H957 C965 0.950 . S
H958 C963 0.950 . S
H959 C964 0.949 . S
H960 C966 0.950 . S
H961 C967 0.950 . S
H962 C968 0.949 . S
C963 H958 0.950 . S
C963 C965 1.327 . S
C963 C969 1.429 . S
C964 C956 1.574 . S
C964 H959 0.949 . S
C964 C970 1.368 . S
C965 C949 1.349 . S
C965 H957 0.950 . S
C965 C963 1.327 . S
C966 C954 1.349 . S
C966 H960 0.950 . S
C966 C967 1.327 . S
C967 H961 0.950 . S
C967 C966 1.327 . S
C967 C971 1.429 . S
C968 C951 1.574 . S
C968 H962 0.949 . S
C968 C972 1.368 . S
C969 C950 1.429 . S
C969 C963 1.429 . S
C969 C970 1.523 . S
C970 C951 1.368 . S
C970 C964 1.368 . S
C970 C969 1.523 . S
C971 C955 1.429 . S
C971 C967 1.429 . S
C971 C972 1.523 . S
C972 C956 1.368 . S
C972 C968 1.368 . S
C972 C971 1.523 . S
H973 C948 0.950 . S
H974 C950 0.950 . S
H975 C951 0.949 . S
H976 C953 0.950 . S
H977 C955 0.950 . S
C978 C979 1.349 . S
C978 C980 1.327 . S
C978 H1003 0.950 . S
C979 C978 1.349 . S
C979 C995 1.349 . S
C980 C978 1.327 . S
C980 C999 1.429 . S
C980 H1004 0.950 . S
C981 C998 1.574 . S
C981 C1000 1.368 . S
C981 H1005 0.949 . S
H982 C986 0.949 . S
C983 C984 1.349 . S
C983 C985 1.327 . S
C983 H1006 0.950 . S
C984 C983 1.349 . S
C984 C996 1.349 . S
C985 C983 1.327 . S
C985 C1001 1.429 . S
C985 H1007 0.950 . S
C986 H982 0.949 . S
C986 C994 1.574 . S
C986 C1002 1.368 . S
H987 C995 0.950 . S
H988 C993 0.950 . S
H989 C994 0.949 . S
H990 C996 0.950 . S
H991 C997 0.950 . S
H992 C998 0.949 . S
C993 H988 0.950 . S
C993 C995 1.327 . S
C993 C999 1.429 . S
C994 C986 1.574 . S
C994 H989 0.949 . S
C994 C1000 1.368 . S
C995 C979 1.349 . S
C995 H987 0.950 . S
C995 C993 1.327 . S
C996 C984 1.349 . S
C996 H990 0.950 . S
C996 C997 1.327 . S
C997 H991 0.950 . S
C997 C996 1.327 . S
C997 C1001 1.429 . S
C998 C981 1.574 . S
C998 H992 0.949 . S
C998 C1002 1.368 . S
C999 C980 1.429 . S
C999 C993 1.429 . S
C999 C1000 1.523 . S
C1000 C981 1.368 . S
C1000 C994 1.368 . S
C1000 C999 1.523 . S
C1001 C985 1.429 . S
C1001 C997 1.429 . S
C1001 C1002 1.523 . S
C1002 C986 1.368 . S
C1002 C998 1.368 . S
C1002 C1001 1.523 . S
H1003 C978 0.950 . S
H1004 C980 0.950 . S
H1005 C981 0.949 . S
H1006 C983 0.950 . S
H1007 C985 0.950 . S
C1008 C1009 1.349 . S
C1008 C1010 1.327 . S
C1008 H1033 0.950 . S
C1009 C1008 1.349 . S
C1009 C1025 1.349 . S
C1010 C1008 1.327 . S
C1010 C1029 1.429 . S
C1010 H1034 0.950 . S
C1011 C1028 1.574 . S
C1011 C1030 1.368 . S
C1011 H1035 0.949 . S
H1012 C1016 0.949 . S
C1013 C1014 1.349 . S
C1013 C1015 1.327 . S
C1013 H1036 0.950 1_556 S
C1014 C1013 1.349 . S
C1014 C1026 1.349 . S
C1015 C1013 1.327 . S
C1015 C1031 1.429 . S
C1015 H1037 0.950 . S
C1016 H1012 0.949 . S
C1016 C1024 1.574 . S
C1016 C1032 1.368 . S
H1017 C1025 0.950 . S
H1018 C1023 0.950 . S
H1019 C1024 0.949 . S
H1020 C1026 0.950 . S
H1021 C1027 0.950 . S
H1022 C1028 0.949 . S
C1023 H1018 0.950 . S
C1023 C1025 1.327 . S
C1023 C1029 1.429 . S
C1024 C1016 1.574 . S
C1024 H1019 0.949 . S
C1024 C1030 1.368 . S
C1025 C1009 1.349 . S
C1025 H1017 0.950 . S
C1025 C1023 1.327 . S
C1026 C1014 1.349 . S
C1026 H1020 0.950 . S
C1026 C1027 1.327 . S
C1027 H1021 0.950 . S
C1027 C1026 1.327 . S
C1027 C1031 1.429 . S
C1028 C1011 1.574 . S
C1028 H1022 0.949 . S
C1028 C1032 1.368 . S
C1029 C1010 1.429 . S
C1029 C1023 1.429 . S
C1029 C1030 1.523 . S
C1030 C1011 1.368 . S
C1030 C1024 1.368 . S
C1030 C1029 1.523 . S
C1031 C1015 1.429 . S
C1031 C1027 1.429 . S
C1031 C1032 1.523 . S
C1032 C1016 1.368 . S
C1032 C1028 1.368 . S
C1032 C1031 1.523 . S
H1033 C1008 0.950 . S
H1034 C1010 0.950 . S
H1035 C1011 0.949 . S
H1036 C1013 0.950 1_554 S
H1037 C1015 0.950 . S
C1038 C1039 1.349 . S
C1038 C1040 1.327 . S
C1038 H1063 0.950 . S
C1039 C1038 1.349 . S
C1039 C1055 1.349 . S
C1040 C1038 1.327 . S
C1040 C1059 1.429 . S
C1040 H1064 0.950 . S
C1041 C1058 1.574 . S
C1041 C1060 1.368 . S
C1041 H1065 0.949 . S
H1042 C1046 0.949 . S
C1043 C1044 1.349 . S
C1043 C1045 1.327 . S
C1043 H1066 0.950 . S
C1044 C1043 1.349 . S
C1044 C1056 1.349 . S
C1045 C1043 1.327 . S
C1045 C1061 1.429 . S
C1045 H1067 0.950 . S
C1046 H1042 0.949 . S
C1046 C1054 1.574 . S
C1046 C1062 1.368 . S
H1047 C1055 0.950 . S
H1048 C1053 0.950 . S
H1049 C1054 0.949 . S
H1050 C1056 0.950 . S
H1051 C1057 0.950 . S
H1052 C1058 0.949 . S
C1053 H1048 0.950 . S
C1053 C1055 1.327 . S
C1053 C1059 1.429 . S
C1054 C1046 1.574 . S
C1054 H1049 0.949 . S
C1054 C1060 1.368 . S
C1055 C1039 1.349 . S
C1055 H1047 0.950 . S
C1055 C1053 1.327 . S
C1056 C1044 1.349 . S
C1056 H1050 0.950 . S
C1056 C1057 1.327 . S
C1057 H1051 0.950 . S
C1057 C1056 1.327 . S
C1057 C1061 1.429 . S
C1058 C1041 1.574 . S
C1058 H1052 0.949 . S
C1058 C1062 1.368 . S
C1059 C1040 1.429 . S
C1059 C1053 1.429 . S
C1059 C1060 1.523 . S
C1060 C1041 1.368 . S
C1060 C1054 1.368 . S
C1060 C1059 1.523 . S
C1061 C1045 1.429 . S
C1061 C1057 1.429 . S
C1061 C1062 1.523 . S
C1062 C1046 1.368 . S
C1062 C1058 1.368 . S
C1062 C1061 1.523 . S
H1063 C1038 0.950 . S
H1064 C1040 0.950 . S
H1065 C1041 0.949 . S
H1066 C1043 0.950 . S
H1067 C1045 0.950 . S
C1068 C1069 1.349 . S
C1068 C1070 1.327 . S
C1068 H1093 0.950 . S
C1069 C1068 1.349 . S
C1069 C1085 1.349 . S
C1070 C1068 1.327 . S
C1070 C1089 1.429 . S
C1070 H1094 0.950 . S
C1071 C1088 1.574 . S
C1071 C1090 1.368 . S
C1071 H1095 0.949 . S
H1072 C1076 0.949 . S
C1073 C1074 1.349 . S
C1073 C1075 1.327 . S
C1073 H1096 0.950 . S
C1074 C1073 1.349 . S
C1074 C1086 1.349 . S
C1075 C1073 1.327 . S
C1075 C1091 1.429 . S
C1075 H1097 0.950 . S
C1076 H1072 0.949 . S
C1076 C1084 1.574 . S
C1076 C1092 1.368 . S
H1077 C1085 0.950 . S
H1078 C1083 0.950 . S
H1079 C1084 0.949 . S
H1080 C1086 0.950 . S
H1081 C1087 0.950 . S
H1082 C1088 0.949 . S
C1083 H1078 0.950 . S
C1083 C1085 1.327 . S
C1083 C1089 1.429 . S
C1084 C1076 1.574 . S
C1084 H1079 0.949 . S
C1084 C1090 1.368 . S
C1085 C1069 1.349 . S
C1085 H1077 0.950 . S
C1085 C1083 1.327 . S
C1086 C1074 1.349 . S
C1086 H1080 0.950 . S
C1086 C1087 1.327 . S
C1087 H1081 0.950 . S
C1087 C1086 1.327 . S
C1087 C1091 1.429 . S
C1088 C1071 1.574 . S
C1088 H1082 0.949 . S
C1088 C1092 1.368 . S
C1089 C1070 1.429 . S
C1089 C1083 1.429 . S
C1089 C1090 1.523 . S
C1090 C1071 1.368 . S
C1090 C1084 1.368 . S
C1090 C1089 1.523 . S
C1091 C1075 1.429 . S
C1091 C1087 1.429 . S
C1091 C1092 1.523 . S
C1092 C1076 1.368 . S
C1092 C1088 1.368 . S
C1092 C1091 1.523 . S
H1093 C1068 0.950 . S
H1094 C1070 0.950 . S
H1095 C1071 0.949 . S
H1096 C1073 0.950 . S
H1097 C1075 0.950 . S
C1098 C1099 1.349 . S
C1098 C1100 1.327 . S
C1098 H1123 0.950 . S
C1099 C1098 1.349 . S
C1099 C1115 1.349 . S
C1100 C1098 1.327 . S
C1100 C1119 1.429 . S
C1100 H1124 0.950 . S
C1101 C1118 1.574 . S
C1101 C1120 1.368 . S
C1101 H1125 0.949 . S
H1102 C1106 0.949 . S
C1103 C1104 1.349 . S
C1103 C1105 1.327 . S
C1103 H1126 0.950 . S
C1104 C1103 1.349 . S
C1104 C1116 1.349 . S
C1105 C1103 1.327 . S
C1105 C1121 1.429 . S
C1105 H1127 0.950 . S
C1106 H1102 0.949 . S
C1106 C1114 1.574 . S
C1106 C1122 1.368 . S
H1107 C1115 0.950 . S
H1108 C1113 0.950 . S
H1109 C1114 0.949 . S
H1110 C1116 0.950 . S
H1111 C1117 0.950 . S
H1112 C1118 0.949 . S
C1113 H1108 0.950 . S
C1113 C1115 1.327 . S
C1113 C1119 1.429 . S
C1114 C1106 1.574 . S
C1114 H1109 0.949 . S
C1114 C1120 1.368 . S
C1115 C1099 1.349 . S
C1115 H1107 0.950 . S
C1115 C1113 1.327 . S
C1116 C1104 1.349 . S
C1116 H1110 0.950 . S
C1116 C1117 1.327 . S
C1117 H1111 0.950 . S
C1117 C1116 1.327 . S
C1117 C1121 1.429 . S
C1118 C1101 1.574 . S
C1118 H1112 0.949 . S
C1118 C1122 1.368 . S
C1119 C1100 1.429 . S
C1119 C1113 1.429 . S
C1119 C1120 1.523 . S
C1120 C1101 1.368 . S
C1120 C1114 1.368 . S
C1120 C1119 1.523 . S
C1121 C1105 1.429 . S
C1121 C1117 1.429 . S
C1121 C1122 1.523 . S
C1122 C1106 1.368 . S
C1122 C1118 1.368 . S
C1122 C1121 1.523 . S
H1123 C1098 0.950 . S
H1124 C1100 0.950 . S
H1125 C1101 0.949 . S
H1126 C1103 0.950 . S
H1127 C1105 0.950 . S
C1128 C1129 1.349 . S
C1128 C1130 1.327 . S
C1128 H1153 0.950 . S
C1129 C1128 1.349 . S
C1129 C1145 1.349 . S
C1130 C1128 1.327 . S
C1130 C1149 1.429 . S
C1130 H1154 0.950 . S
C1131 C1148 1.574 . S
C1131 C1150 1.368 . S
C1131 H1155 0.949 . S
H1132 C1136 0.949 . S
C1133 C1134 1.349 . S
C1133 C1135 1.327 . S
C1133 H1156 0.950 . S
C1134 C1133 1.349 . S
C1134 C1146 1.349 . S
C1135 C1133 1.327 . S
C1135 C1151 1.429 . S
C1135 H1157 0.950 . S
C1136 H1132 0.949 . S
C1136 C1144 1.574 . S
C1136 C1152 1.368 . S
H1137 C1145 0.950 . S
H1138 C1143 0.950 . S
H1139 C1144 0.949 . S
H1140 C1146 0.950 1_554 S
H1141 C1147 0.950 . S
H1142 C1148 0.949 . S
C1143 H1138 0.950 . S
C1143 C1145 1.327 . S
C1143 C1149 1.429 . S
C1144 C1136 1.574 . S
C1144 H1139 0.949 . S
C1144 C1150 1.368 . S
C1145 C1129 1.349 . S
C1145 H1137 0.950 . S
C1145 C1143 1.327 . S
C1146 C1134 1.349 . S
C1146 H1140 0.950 1_556 S
C1146 C1147 1.327 . S
C1147 H1141 0.950 . S
C1147 C1146 1.327 . S
C1147 C1151 1.429 . S
C1148 C1131 1.574 . S
C1148 H1142 0.949 . S
C1148 C1152 1.368 . S
C1149 C1130 1.429 . S
C1149 C1143 1.429 . S
C1149 C1150 1.523 . S
C1150 C1131 1.368 . S
C1150 C1144 1.368 . S
C1150 C1149 1.523 . S
C1151 C1135 1.429 . S
C1151 C1147 1.429 . S
C1151 C1152 1.523 . S
C1152 C1136 1.368 . S
C1152 C1148 1.368 . S
C1152 C1151 1.523 . S
H1153 C1128 0.950 . S
H1154 C1130 0.950 . S
H1155 C1131 0.949 . S
H1156 C1133 0.950 . S
H1157 C1135 0.950 . S
C1158 C1159 1.349 . S
C1158 C1160 1.327 . S
C1158 H1183 0.950 . S
C1159 C1158 1.349 . S
C1159 C1175 1.349 . S
C1160 C1158 1.327 . S
C1160 C1179 1.429 . S
C1160 H1184 0.950 . S
C1161 C1178 1.574 . S
C1161 C1180 1.368 . S
C1161 H1185 0.949 . S
H1162 C1166 0.949 . S
C1163 C1164 1.349 . S
C1163 C1165 1.327 . S
C1163 H1186 0.950 . S
C1164 C1163 1.349 . S
C1164 C1176 1.349 . S
C1165 C1163 1.327 . S
C1165 C1181 1.429 . S
C1165 H1187 0.950 . S
C1166 H1162 0.949 . S
C1166 C1174 1.574 . S
C1166 C1182 1.368 . S
H1167 C1175 0.950 . S
H1168 C1173 0.950 . S
H1169 C1174 0.949 . S
H1170 C1176 0.950 1_554 S
H1171 C1177 0.950 . S
H1172 C1178 0.949 . S
C1173 H1168 0.950 . S
C1173 C1175 1.327 . S
C1173 C1179 1.429 . S
C1174 C1166 1.574 . S
C1174 H1169 0.949 . S
C1174 C1180 1.368 . S
C1175 C1159 1.349 . S
C1175 H1167 0.950 . S
C1175 C1173 1.327 . S
C1176 C1164 1.349 . S
C1176 H1170 0.950 1_556 S
C1176 C1177 1.327 . S
C1177 H1171 0.950 . S
C1177 C1176 1.327 . S
C1177 C1181 1.429 . S
C1178 C1161 1.574 . S
C1178 H1172 0.949 . S
C1178 C1182 1.368 . S
C1179 C1160 1.429 . S
C1179 C1173 1.429 . S
C1179 C1180 1.523 . S
C1180 C1161 1.368 . S
C1180 C1174 1.368 . S
C1180 C1179 1.523 . S
C1181 C1165 1.429 . S
C1181 C1177 1.429 . S
C1181 C1182 1.523 . S
C1182 C1166 1.368 . S
C1182 C1178 1.368 . S
C1182 C1181 1.523 . S
H1183 C1158 0.950 . S
H1184 C1160 0.950 . S
H1185 C1161 0.949 . S
H1186 C1163 0.950 . S
H1187 C1165 0.950 . S
C1188 C1189 1.349 . S
C1188 C1190 1.327 . S
C1188 H1213 0.950 . S
C1189 C1188 1.349 . S
C1189 C1205 1.349 . S
C1190 C1188 1.327 . S
C1190 C1209 1.429 . S
C1190 H1214 0.950 . S
C1191 C1208 1.574 . S
C1191 C1210 1.368 . S
C1191 H1215 0.949 . S
H1192 C1196 0.949 . S
C1193 C1194 1.349 . S
C1193 C1195 1.327 . S
C1193 H1216 0.950 . S
C1194 C1193 1.349 . S
C1194 C1206 1.349 . S
C1195 C1193 1.327 . S
C1195 C1211 1.429 . S
C1195 H1217 0.950 . S
C1196 H1192 0.949 . S
C1196 C1204 1.574 . S
C1196 C1212 1.368 . S
H1197 C1205 0.950 . S
H1198 C1203 0.950 . S
H1199 C1204 0.949 . S
H1200 C1206 0.950 . S
H1201 C1207 0.950 . S
H1202 C1208 0.949 . S
C1203 H1198 0.950 . S
C1203 C1205 1.327 . S
C1203 C1209 1.429 . S
C1204 C1196 1.574 . S
C1204 H1199 0.949 . S
C1204 C1210 1.368 . S
C1205 C1189 1.349 . S
C1205 H1197 0.950 . S
C1205 C1203 1.327 . S
C1206 C1194 1.349 . S
C1206 H1200 0.950 . S
C1206 C1207 1.327 . S
C1207 H1201 0.950 . S
C1207 C1206 1.327 . S
C1207 C1211 1.429 . S
C1208 C1191 1.574 . S
C1208 H1202 0.949 . S
C1208 C1212 1.368 . S
C1209 C1190 1.429 . S
C1209 C1203 1.429 . S
C1209 C1210 1.523 . S
C1210 C1191 1.368 . S
C1210 C1204 1.368 . S
C1210 C1209 1.523 . S
C1211 C1195 1.429 . S
C1211 C1207 1.429 . S
C1211 C1212 1.523 . S
C1212 C1196 1.368 . S
C1212 C1208 1.368 . S
C1212 C1211 1.523 . S
H1213 C1188 0.950 . S
H1214 C1190 0.950 . S
H1215 C1191 0.949 . S
H1216 C1193 0.950 . S
H1217 C1195 0.950 . S
C1218 C1219 1.349 . S
C1218 C1220 1.327 . S
C1218 H1243 0.950 . S
C1219 C1218 1.349 . S
C1219 C1235 1.349 . S
C1220 C1218 1.327 . S
C1220 C1239 1.429 . S
C1220 H1244 0.950 . S
C1221 C1238 1.574 . S
C1221 C1240 1.368 . S
C1221 H1245 0.949 . S
H1222 C1226 0.949 . S
C1223 C1224 1.349 . S
C1223 C1225 1.327 . S
C1223 H1246 0.950 . S
C1224 C1223 1.349 . S
C1224 C1236 1.349 . S
C1225 C1223 1.327 . S
C1225 C1241 1.429 . S
C1225 H1247 0.950 . S
C1226 H1222 0.949 . S
C1226 C1234 1.574 . S
C1226 C1242 1.368 . S
H1227 C1235 0.950 . S
H1228 C1233 0.950 . S
H1229 C1234 0.949 . S
H1230 C1236 0.951 1_556 S
H1231 C1237 0.950 . S
H1232 C1238 0.949 . S
C1233 H1228 0.950 . S
C1233 C1235 1.327 . S
C1233 C1239 1.429 . S
C1234 C1226 1.574 . S
C1234 H1229 0.949 . S
C1234 C1240 1.368 . S
C1235 C1219 1.349 . S
C1235 H1227 0.950 . S
C1235 C1233 1.327 . S
C1236 C1224 1.349 . S
C1236 H1230 0.951 1_554 S
C1236 C1237 1.327 . S
C1237 H1231 0.950 . S
C1237 C1236 1.327 . S
C1237 C1241 1.429 . S
C1238 C1221 1.574 . S
C1238 H1232 0.949 . S
C1238 C1242 1.368 . S
C1239 C1220 1.429 . S
C1239 C1233 1.429 . S
C1239 C1240 1.523 . S
C1240 C1221 1.368 . S
C1240 C1234 1.368 . S
C1240 C1239 1.523 . S
C1241 C1225 1.429 . S
C1241 C1237 1.429 . S
C1241 C1242 1.523 . S
C1242 C1226 1.368 . S
C1242 C1238 1.368 . S
C1242 C1241 1.523 . S
H1243 C1218 0.950 . S
H1244 C1220 0.950 . S
H1245 C1221 0.949 . S
H1246 C1223 0.950 . S
H1247 C1225 0.950 . S
C1248 C1249 1.349 . S
C1248 C1250 1.327 . S
C1248 H1273 0.950 . S
C1249 C1248 1.349 . S
C1249 C1265 1.349 . S
C1250 C1248 1.327 . S
C1250 C1269 1.429 . S
C1250 H1274 0.950 . S
C1251 C1268 1.574 . S
C1251 C1270 1.368 . S
C1251 H1275 0.949 . S
H1252 C1256 0.949 . S
C1253 C1254 1.349 . S
C1253 C1255 1.327 . S
C1253 H1276 0.950 . S
C1254 C1253 1.349 . S
C1254 C1266 1.349 . S
C1255 C1253 1.327 . S
C1255 C1271 1.429 . S
C1255 H1277 0.950 . S
C1256 H1252 0.949 . S
C1256 C1264 1.574 . S
C1256 C1272 1.368 . S
H1257 C1265 0.950 . S
H1258 C1263 0.950 . S
H1259 C1264 0.949 . S
H1260 C1266 0.950 . S
H1261 C1267 0.950 . S
H1262 C1268 0.949 . S
C1263 H1258 0.950 . S
C1263 C1265 1.327 . S
C1263 C1269 1.429 . S
C1264 C1256 1.574 . S
C1264 H1259 0.949 . S
C1264 C1270 1.368 . S
C1265 C1249 1.349 . S
C1265 H1257 0.950 . S
C1265 C1263 1.327 . S
C1266 C1254 1.349 . S
C1266 H1260 0.950 . S
C1266 C1267 1.327 . S
C1267 H1261 0.950 . S
C1267 C1266 1.327 . S
C1267 C1271 1.429 . S
C1268 C1251 1.574 . S
C1268 H1262 0.949 . S
C1268 C1272 1.368 . S
C1269 C1250 1.429 . S
C1269 C1263 1.429 . S
C1269 C1270 1.523 . S
C1270 C1251 1.368 . S
C1270 C1264 1.368 . S
C1270 C1269 1.523 . S
C1271 C1255 1.429 . S
C1271 C1267 1.429 . S
C1271 C1272 1.523 . S
C1272 C1256 1.368 . S
C1272 C1268 1.368 . S
C1272 C1271 1.523 . S
H1273 C1248 0.950 . S
H1274 C1250 0.950 . S
H1275 C1251 0.949 . S
H1276 C1253 0.950 . S
H1277 C1255 0.950 . S
C1278 C1279 1.349 . S
C1278 C1280 1.327 . S
C1278 H1303 0.950 . S
C1279 C1278 1.349 . S
C1279 C1295 1.349 . S
C1280 C1278 1.327 . S
C1280 C1299 1.429 . S
C1280 H1304 0.950 . S
C1281 C1298 1.574 1_655 S
C1281 C1300 1.368 . S
C1281 H1305 0.949 . S
H1282 C1286 0.949 . S
C1283 C1284 1.349 . S
C1283 C1285 1.327 . S
C1283 H1306 0.950 . S
C1284 C1283 1.349 . S
C1284 C1296 1.349 . S
C1285 C1283 1.327 . S
C1285 C1301 1.429 . S
C1285 H1307 0.950 . S
C1286 H1282 0.949 . S
C1286 C1294 1.574 . S
C1286 C1302 1.368 . S
H1287 C1295 0.950 . S
H1288 C1293 0.950 . S
H1289 C1294 0.949 . S
H1290 C1296 0.950 . S
H1291 C1297 0.950 . S
H1292 C1298 0.949 . S
C1293 H1288 0.950 . S
C1293 C1295 1.327 . S
C1293 C1299 1.429 . S
C1294 C1286 1.574 . S
C1294 H1289 0.949 . S
C1294 C1300 1.368 1_455 S
C1295 C1279 1.349 . S
C1295 H1287 0.950 . S
C1295 C1293 1.327 . S
C1296 C1284 1.349 . S
C1296 H1290 0.950 . S
C1296 C1297 1.327 . S
C1297 H1291 0.950 . S
C1297 C1296 1.327 . S
C1297 C1301 1.429 . S
C1298 C1281 1.574 1_455 S
C1298 H1292 0.949 . S
C1298 C1302 1.368 . S
C1299 C1280 1.429 . S
C1299 C1293 1.429 . S
C1299 C1300 1.523 . S
C1300 C1281 1.368 . S
C1300 C1294 1.368 1_655 S
C1300 C1299 1.523 . S
C1301 C1285 1.429 . S
C1301 C1297 1.429 . S
C1301 C1302 1.523 . S
C1302 C1286 1.368 . S
C1302 C1298 1.368 . S
C1302 C1301 1.523 . S
H1303 C1278 0.950 . S
H1304 C1280 0.950 . S
H1305 C1281 0.949 . S
H1306 C1283 0.950 . S
H1307 C1285 0.950 . S
C1308 C1309 1.349 . S
C1308 C1310 1.327 . S
C1308 H1333 0.950 . S
C1309 C1308 1.349 . S
C1309 C1325 1.349 . S
C1310 C1308 1.327 . S
C1310 C1329 1.429 . S
C1310 H1334 0.950 . S
C1311 C1328 1.574 . S
C1311 C1330 1.368 . S
C1311 H1335 0.949 . S
H1312 C1316 0.949 . S
C1313 C1314 1.349 . S
C1313 C1315 1.327 . S
C1313 H1336 0.950 . S
C1314 C1313 1.349 . S
C1314 C1326 1.349 . S
C1315 C1313 1.327 . S
C1315 C1331 1.429 . S
C1315 H1337 0.950 . S
C1316 H1312 0.949 . S
C1316 C1324 1.574 . S
C1316 C1332 1.368 . S
H1317 C1325 0.950 . S
H1318 C1323 0.950 . S
H1319 C1324 0.949 . S
H1320 C1326 0.950 . S
H1321 C1327 0.950 . S
H1322 C1328 0.949 . S
C1323 H1318 0.950 . S
C1323 C1325 1.327 . S
C1323 C1329 1.429 . S
C1324 C1316 1.574 . S
C1324 H1319 0.949 . S
C1324 C1330 1.368 . S
C1325 C1309 1.349 . S
C1325 H1317 0.950 . S
C1325 C1323 1.327 . S
C1326 C1314 1.349 . S
C1326 H1320 0.950 . S
C1326 C1327 1.327 . S
C1327 H1321 0.950 . S
C1327 C1326 1.327 . S
C1327 C1331 1.429 . S
C1328 C1311 1.574 . S
C1328 H1322 0.949 . S
C1328 C1332 1.368 . S
C1329 C1310 1.429 . S
C1329 C1323 1.429 . S
C1329 C1330 1.523 . S
C1330 C1311 1.368 . S
C1330 C1324 1.368 . S
C1330 C1329 1.523 . S
C1331 C1315 1.429 . S
C1331 C1327 1.429 . S
C1331 C1332 1.523 . S
C1332 C1316 1.368 . S
C1332 C1328 1.368 . S
C1332 C1331 1.523 . S
H1333 C1308 0.950 . S
H1334 C1310 0.950 . S
H1335 C1311 0.949 . S
H1336 C1313 0.950 . S
H1337 C1315 0.950 . S
C1338 C1339 1.349 . S
C1338 C1340 1.327 . S
C1338 H1363 0.950 . S
C1339 C1338 1.349 . S
C1339 C1355 1.349 . S
C1340 C1338 1.327 . S
C1340 C1359 1.429 . S
C1340 H1364 0.950 . S
C1341 C1358 1.574 1_545 S
C1341 C1360 1.368 . S
C1341 H1365 0.949 . S
H1342 C1346 0.949 . S
C1343 C1344 1.349 . S
C1343 C1345 1.327 . S
C1343 H1366 0.950 . S
C1344 C1343 1.349 . S
C1344 C1356 1.349 . S
C1345 C1343 1.327 . S
C1345 C1361 1.429 . S
C1345 H1367 0.950 . S
C1346 H1342 0.949 . S
C1346 C1354 1.574 . S
C1346 C1362 1.368 . S
H1347 C1355 0.950 . S
H1348 C1353 0.950 . S
H1349 C1354 0.949 . S
H1350 C1356 0.950 . S
H1351 C1357 0.950 . S
H1352 C1358 0.949 . S
C1353 H1348 0.950 . S
C1353 C1355 1.327 . S
C1353 C1359 1.429 . S
C1354 C1346 1.574 . S
C1354 H1349 0.949 . S
C1354 C1360 1.368 1_565 S
C1355 C1339 1.349 . S
C1355 H1347 0.950 . S
C1355 C1353 1.327 . S
C1356 C1344 1.349 . S
C1356 H1350 0.950 . S
C1356 C1357 1.327 . S
C1357 H1351 0.950 . S
C1357 C1356 1.327 . S
C1357 C1361 1.429 . S
C1358 C1341 1.574 1_565 S
C1358 H1352 0.949 . S
C1358 C1362 1.368 . S
C1359 C1340 1.429 . S
C1359 C1353 1.429 . S
C1359 C1360 1.523 . S
C1360 C1341 1.368 . S
C1360 C1354 1.368 1_545 S
C1360 C1359 1.523 . S
C1361 C1345 1.429 . S
C1361 C1357 1.429 . S
C1361 C1362 1.523 . S
C1362 C1346 1.368 . S
C1362 C1358 1.368 . S
C1362 C1361 1.523 . S
H1363 C1338 0.950 . S
H1364 C1340 0.950 . S
H1365 C1341 0.949 . S
H1366 C1343 0.950 . S
H1367 C1345 0.950 . S
C1368 C1369 1.349 . S
C1368 C1370 1.327 . S
C1368 H1393 0.950 . S
C1369 C1368 1.349 . S
C1369 C1385 1.349 . S
C1370 C1368 1.327 . S
C1370 C1389 1.429 . S
C1370 H1394 0.950 . S
C1371 C1388 1.574 . S
C1371 C1390 1.368 . S
C1371 H1395 0.949 . S
H1372 C1376 0.949 . S
C1373 C1374 1.349 . S
C1373 C1375 1.327 . S
C1373 H1396 0.950 . S
C1374 C1373 1.349 . S
C1374 C1386 1.349 . S
C1375 C1373 1.327 . S
C1375 C1391 1.429 . S
C1375 H1397 0.950 . S
C1376 H1372 0.949 . S
C1376 C1384 1.574 . S
C1376 C1392 1.368 . S
H1377 C1385 0.950 . S
H1378 C1383 0.950 . S
H1379 C1384 0.949 . S
H1380 C1386 0.950 . S
H1381 C1387 0.950 . S
H1382 C1388 0.949 . S
C1383 H1378 0.950 . S
C1383 C1385 1.327 . S
C1383 C1389 1.429 . S
C1384 C1376 1.574 . S
C1384 H1379 0.949 . S
C1384 C1390 1.368 . S
C1385 C1369 1.349 . S
C1385 H1377 0.950 . S
C1385 C1383 1.327 . S
C1386 C1374 1.349 . S
C1386 H1380 0.950 . S
C1386 C1387 1.327 . S
C1387 H1381 0.950 . S
C1387 C1386 1.327 . S
C1387 C1391 1.429 . S
C1388 C1371 1.574 . S
C1388 H1382 0.949 . S
C1388 C1392 1.368 . S
C1389 C1370 1.429 . S
C1389 C1383 1.429 . S
C1389 C1390 1.523 . S
C1390 C1371 1.368 . S
C1390 C1384 1.368 . S
C1390 C1389 1.523 . S
C1391 C1375 1.429 . S
C1391 C1387 1.429 . S
C1391 C1392 1.523 . S
C1392 C1376 1.368 . S
C1392 C1388 1.368 . S
C1392 C1391 1.523 . S
H1393 C1368 0.950 . S
H1394 C1370 0.950 . S
H1395 C1371 0.949 . S
H1396 C1373 0.950 . S
H1397 C1375 0.950 . S
C1398 C1399 1.349 . S
C1398 C1400 1.327 . S
C1398 H1423 0.950 . S
C1399 C1398 1.349 . S
C1399 C1415 1.349 . S
C1400 C1398 1.327 . S
C1400 C1419 1.429 . S
C1400 H1424 0.950 . S
C1401 C1418 1.574 . S
C1401 C1420 1.368 . S
C1401 H1425 0.949 . S
H1402 C1406 0.949 . S
C1403 C1404 1.349 . S
C1403 C1405 1.327 . S
C1403 H1426 0.950 . S
C1404 C1403 1.349 . S
C1404 C1416 1.349 . S
C1405 C1403 1.327 . S
C1405 C1421 1.429 . S
C1405 H1427 0.950 . S
C1406 H1402 0.949 . S
C1406 C1414 1.574 . S
C1406 C1422 1.368 . S
H1407 C1415 0.950 . S
H1408 C1413 0.950 . S
H1409 C1414 0.949 . S
H1410 C1416 0.950 . S
H1411 C1417 0.950 . S
H1412 C1418 0.949 . S
C1413 H1408 0.950 . S
C1413 C1415 1.327 . S
C1413 C1419 1.429 . S
C1414 C1406 1.574 . S
C1414 H1409 0.949 . S
C1414 C1420 1.368 . S
C1415 C1399 1.349 . S
C1415 H1407 0.950 . S
C1415 C1413 1.327 . S
C1416 C1404 1.349 . S
C1416 H1410 0.950 . S
C1416 C1417 1.327 . S
C1417 H1411 0.950 . S
C1417 C1416 1.327 . S
C1417 C1421 1.429 . S
C1418 C1401 1.574 . S
C1418 H1412 0.949 . S
C1418 C1422 1.368 . S
C1419 C1400 1.429 . S
C1419 C1413 1.429 . S
C1419 C1420 1.523 . S
C1420 C1401 1.368 . S
C1420 C1414 1.368 . S
C1420 C1419 1.523 . S
C1421 C1405 1.429 . S
C1421 C1417 1.429 . S
C1421 C1422 1.523 . S
C1422 C1406 1.368 . S
C1422 C1418 1.368 . S
C1422 C1421 1.523 . S
H1423 C1398 0.950 . S
H1424 C1400 0.950 . S
H1425 C1401 0.949 . S
H1426 C1403 0.950 . S
H1427 C1405 0.950 . S
C1428 C1429 1.349 . S
C1428 C1430 1.327 . S
C1428 H1453 0.950 . S
C1429 C1428 1.349 . S
C1429 C1445 1.349 . S
C1430 C1428 1.327 . S
C1430 C1449 1.429 . S
C1430 H1454 0.950 . S
C1431 C1448 1.574 . S
C1431 C1450 1.368 . S
C1431 H1455 0.949 . S
H1432 C1436 0.949 . S
C1433 C1434 1.349 . S
C1433 C1435 1.327 . S
C1433 H1456 0.950 . S
C1434 C1433 1.349 . S
C1434 C1446 1.349 . S
C1435 C1433 1.327 . S
C1435 C1451 1.429 . S
C1435 H1457 0.950 . S
C1436 H1432 0.949 . S
C1436 C1444 1.574 . S
C1436 C1452 1.368 . S
H1437 C1445 0.950 . S
H1438 C1443 0.950 . S
H1439 C1444 0.949 . S
H1440 C1446 0.950 . S
H1441 C1447 0.950 . S
H1442 C1448 0.949 . S
C1443 H1438 0.950 . S
C1443 C1445 1.327 . S
C1443 C1449 1.429 . S
C1444 C1436 1.574 . S
C1444 H1439 0.949 . S
C1444 C1450 1.368 . S
C1445 C1429 1.349 . S
C1445 H1437 0.950 . S
C1445 C1443 1.327 . S
C1446 C1434 1.349 . S
C1446 H1440 0.950 . S
C1446 C1447 1.327 . S
C1447 H1441 0.950 . S
C1447 C1446 1.327 . S
C1447 C1451 1.429 . S
C1448 C1431 1.574 . S
C1448 H1442 0.949 . S
C1448 C1452 1.368 . S
C1449 C1430 1.429 . S
C1449 C1443 1.429 . S
C1449 C1450 1.523 . S
C1450 C1431 1.368 . S
C1450 C1444 1.368 . S
C1450 C1449 1.523 . S
C1451 C1435 1.429 . S
C1451 C1447 1.429 . S
C1451 C1452 1.523 . S
C1452 C1436 1.368 . S
C1452 C1448 1.368 . S
C1452 C1451 1.523 . S
H1453 C1428 0.950 . S
H1454 C1430 0.950 . S
H1455 C1431 0.949 . S
H1456 C1433 0.950 . S
H1457 C1435 0.950 . S
C1458 C1459 1.349 . S
C1458 C1460 1.327 . S
C1458 H1483 0.950 . S
C1459 C1458 1.349 . S
C1459 C1475 1.349 . S
C1460 C1458 1.327 . S
C1460 C1479 1.429 . S
C1460 H1484 0.950 . S
C1461 C1478 1.574 . S
C1461 C1480 1.368 . S
C1461 H1485 0.949 . S
H1462 C1466 0.949 . S
C1463 C1464 1.349 . S
C1463 C1465 1.327 . S
C1463 H1486 0.950 . S
C1464 C1463 1.349 . S
C1464 C1476 1.349 . S
C1465 C1463 1.327 . S
C1465 C1481 1.429 . S
C1465 H1487 0.950 . S
C1466 H1462 0.949 . S
C1466 C1474 1.574 . S
C1466 C1482 1.368 . S
H1467 C1475 0.950 . S
H1468 C1473 0.950 . S
H1469 C1474 0.949 . S
H1470 C1476 0.950 . S
H1471 C1477 0.950 . S
H1472 C1478 0.949 . S
C1473 H1468 0.950 . S
C1473 C1475 1.327 . S
C1473 C1479 1.429 . S
C1474 C1466 1.574 . S
C1474 H1469 0.949 . S
C1474 C1480 1.368 . S
C1475 C1459 1.349 . S
C1475 H1467 0.950 . S
C1475 C1473 1.327 . S
C1476 C1464 1.349 . S
C1476 H1470 0.950 . S
C1476 C1477 1.327 . S
C1477 H1471 0.950 . S
C1477 C1476 1.327 . S
C1477 C1481 1.429 . S
C1478 C1461 1.574 . S
C1478 H1472 0.949 . S
C1478 C1482 1.368 . S
C1479 C1460 1.429 . S
C1479 C1473 1.429 . S
C1479 C1480 1.523 . S
C1480 C1461 1.368 . S
C1480 C1474 1.368 . S
C1480 C1479 1.523 . S
C1481 C1465 1.429 . S
C1481 C1477 1.429 . S
C1481 C1482 1.523 . S
C1482 C1466 1.368 . S
C1482 C1478 1.368 . S
C1482 C1481 1.523 . S
H1483 C1458 0.950 . S
H1484 C1460 0.950 . S
H1485 C1461 0.949 . S
H1486 C1463 0.950 . S
H1487 C1465 0.950 . S
C1488 C1489 1.349 . S
C1488 C1490 1.327 . S
C1488 H1513 0.950 . S
C1489 C1488 1.349 . S
C1489 C1505 1.349 . S
C1490 C1488 1.327 . S
C1490 C1509 1.429 . S
C1490 H1514 0.950 . S
C1491 C1508 1.574 . S
C1491 C1510 1.368 . S
C1491 H1515 0.949 . S
H1492 C1496 0.949 . S
C1493 C1494 1.349 . S
C1493 C1495 1.327 . S
C1493 H1516 0.950 . S
C1494 C1493 1.349 . S
C1494 C1506 1.349 . S
C1495 C1493 1.327 . S
C1495 C1511 1.429 . S
C1495 H1517 0.950 . S
C1496 H1492 0.949 . S
C1496 C1504 1.574 . S
C1496 C1512 1.368 . S
H1497 C1505 0.950 . S
H1498 C1503 0.950 . S
H1499 C1504 0.949 . S
H1500 C1506 0.950 . S
H1501 C1507 0.950 . S
H1502 C1508 0.949 . S
C1503 H1498 0.950 . S
C1503 C1505 1.327 . S
C1503 C1509 1.429 . S
C1504 C1496 1.574 . S
C1504 H1499 0.949 . S
C1504 C1510 1.368 . S
C1505 C1489 1.349 . S
C1505 H1497 0.950 . S
C1505 C1503 1.327 . S
C1506 C1494 1.349 . S
C1506 H1500 0.950 . S
C1506 C1507 1.327 . S
C1507 H1501 0.950 . S
C1507 C1506 1.327 . S
C1507 C1511 1.429 . S
C1508 C1491 1.574 . S
C1508 H1502 0.949 . S
C1508 C1512 1.368 . S
C1509 C1490 1.429 . S
C1509 C1503 1.429 . S
C1509 C1510 1.523 . S
C1510 C1491 1.368 . S
C1510 C1504 1.368 . S
C1510 C1509 1.523 . S
C1511 C1495 1.429 . S
C1511 C1507 1.429 . S
C1511 C1512 1.523 . S
C1512 C1496 1.368 . S
C1512 C1508 1.368 . S
C1512 C1511 1.523 . S
H1513 C1488 0.950 . S
H1514 C1490 0.950 . S
H1515 C1491 0.949 . S
H1516 C1493 0.950 . S
H1517 C1495 0.950 . S
C1518 C1519 1.349 . S
C1518 C1520 1.327 . S
C1518 H1543 0.950 . S
C1519 C1518 1.349 . S
C1519 C1535 1.349 . S
C1520 C1518 1.327 . S
C1520 C1539 1.429 . S
C1520 H1544 0.950 . S
C1521 C1538 1.574 . S
C1521 C1540 1.368 . S
C1521 H1545 0.949 . S
H1522 C1526 0.949 . S
C1523 C1524 1.349 . S
C1523 C1525 1.327 . S
C1523 H1546 0.950 . S
C1524 C1523 1.349 . S
C1524 C1536 1.349 . S
C1525 C1523 1.327 . S
C1525 C1541 1.429 . S
C1525 H1547 0.950 . S
C1526 H1522 0.949 . S
C1526 C1534 1.574 . S
C1526 C1542 1.368 . S
H1527 C1535 0.950 . S
H1528 C1533 0.950 . S
H1529 C1534 0.949 . S
H1530 C1536 0.950 . S
H1531 C1537 0.950 . S
H1532 C1538 0.949 . S
C1533 H1528 0.950 . S
C1533 C1535 1.327 . S
C1533 C1539 1.429 . S
C1534 C1526 1.574 . S
C1534 H1529 0.949 . S
C1534 C1540 1.368 . S
C1535 C1519 1.349 . S
C1535 H1527 0.950 . S
C1535 C1533 1.327 . S
C1536 C1524 1.349 . S
C1536 H1530 0.950 . S
C1536 C1537 1.327 . S
C1537 H1531 0.950 . S
C1537 C1536 1.327 . S
C1537 C1541 1.429 . S
C1538 C1521 1.574 . S
C1538 H1532 0.949 . S
C1538 C1542 1.368 . S
C1539 C1520 1.429 . S
C1539 C1533 1.429 . S
C1539 C1540 1.523 . S
C1540 C1521 1.368 . S
C1540 C1534 1.368 . S
C1540 C1539 1.523 . S
C1541 C1525 1.429 . S
C1541 C1537 1.429 . S
C1541 C1542 1.523 . S
C1542 C1526 1.368 . S
C1542 C1538 1.368 . S
C1542 C1541 1.523 . S
H1543 C1518 0.950 . S
H1544 C1520 0.950 . S
H1545 C1521 0.949 . S
H1546 C1523 0.950 . S
H1547 C1525 0.950 . S
C1548 C1549 1.349 . S
C1548 C1550 1.327 . S
C1548 H1573 0.950 . S
C1549 C1548 1.349 . S
C1549 C1565 1.349 . S
C1550 C1548 1.327 . S
C1550 C1569 1.429 . S
C1550 H1574 0.950 . S
C1551 C1568 1.574 1_545 S
C1551 C1570 1.368 . S
C1551 H1575 0.949 . S
H1552 C1556 0.949 . S
C1553 C1554 1.349 . S
C1553 C1555 1.327 . S
C1553 H1576 0.950 . S
C1554 C1553 1.349 . S
C1554 C1566 1.349 . S
C1555 C1553 1.327 . S
C1555 C1571 1.429 . S
C1555 H1577 0.950 . S
C1556 H1552 0.949 . S
C1556 C1564 1.574 . S
C1556 C1572 1.368 . S
H1557 C1565 0.950 . S
H1558 C1563 0.950 . S
H1559 C1564 0.949 1_545 S
H1560 C1566 0.950 . S
H1561 C1567 0.950 . S
H1562 C1568 0.949 . S
C1563 H1558 0.950 . S
C1563 C1565 1.327 . S
C1563 C1569 1.429 . S
C1564 C1556 1.574 . S
C1564 H1559 0.949 1_565 S
C1564 C1570 1.368 1_565 S
C1565 C1549 1.349 . S
C1565 H1557 0.950 . S
C1565 C1563 1.327 . S
C1566 C1554 1.349 . S
C1566 H1560 0.950 . S
C1566 C1567 1.327 . S
C1567 H1561 0.950 . S
C1567 C1566 1.327 . S
C1567 C1571 1.429 . S
C1568 C1551 1.574 1_565 S
C1568 H1562 0.949 . S
C1568 C1572 1.368 . S
C1569 C1550 1.429 . S
C1569 C1563 1.429 . S
C1569 C1570 1.523 . S
C1570 C1551 1.368 . S
C1570 C1564 1.368 1_545 S
C1570 C1569 1.523 . S
C1571 C1555 1.429 . S
C1571 C1567 1.429 . S
C1571 C1572 1.523 . S
C1572 C1556 1.368 . S
C1572 C1568 1.368 . S
C1572 C1571 1.523 . S
H1573 C1548 0.950 . S
H1574 C1550 0.950 . S
H1575 C1551 0.949 . S
H1576 C1553 0.950 . S
H1577 C1555 0.950 . S
C1578 C1579 1.349 . S
C1578 C1580 1.327 . S
C1578 H1603 0.950 . S
C1579 C1578 1.349 . S
C1579 C1595 1.349 . S
C1580 C1578 1.327 . S
C1580 C1599 1.429 . S
C1580 H1604 0.950 . S
C1581 C1598 1.574 1_655 S
C1581 C1600 1.368 . S
C1581 H1605 0.949 . S
H1582 C1586 0.949 . S
C1583 C1584 1.349 . S
C1583 C1585 1.327 . S
C1583 H1606 0.950 . S
C1584 C1583 1.349 . S
C1584 C1596 1.349 . S
C1585 C1583 1.327 . S
C1585 C1601 1.429 . S
C1585 H1607 0.950 . S
C1586 H1582 0.949 . S
C1586 C1594 1.574 . S
C1586 C1602 1.368 . S
H1587 C1595 0.950 . S
H1588 C1593 0.950 . S
H1589 C1594 0.949 . S
H1590 C1596 0.950 . S
H1591 C1597 0.950 . S
H1592 C1598 0.949 . S
C1593 H1588 0.950 . S
C1593 C1595 1.327 . S
C1593 C1599 1.429 . S
C1594 C1586 1.574 . S
C1594 H1589 0.949 . S
C1594 C1600 1.368 1_455 S
C1595 C1579 1.349 . S
C1595 H1587 0.950 . S
C1595 C1593 1.327 . S
C1596 C1584 1.349 . S
C1596 H1590 0.950 . S
C1596 C1597 1.327 . S
C1597 H1591 0.950 . S
C1597 C1596 1.327 . S
C1597 C1601 1.429 . S
C1598 C1581 1.574 1_455 S
C1598 H1592 0.949 . S
C1598 C1602 1.368 . S
C1599 C1580 1.429 . S
C1599 C1593 1.429 . S
C1599 C1600 1.523 . S
C1600 C1581 1.368 . S
C1600 C1594 1.368 1_655 S
C1600 C1599 1.523 . S
C1601 C1585 1.429 . S
C1601 C1597 1.429 . S
C1601 C1602 1.523 . S
C1602 C1586 1.368 . S
C1602 C1598 1.368 . S
C1602 C1601 1.523 . S
H1603 C1578 0.950 . S
H1604 C1580 0.950 . S
H1605 C1581 0.949 . S
H1606 C1583 0.950 . S
H1607 C1585 0.950 . S
C1608 C1609 1.349 . S
C1608 C1610 1.327 . S
C1608 H1633 0.950 . S
C1609 C1608 1.349 . S
C1609 C1625 1.349 . S
C1610 C1608 1.327 . S
C1610 C1629 1.429 . S
C1610 H1634 0.950 . S
C1611 C1628 1.574 . S
C1611 C1630 1.368 . S
C1611 H1635 0.949 . S
H1612 C1616 0.949 . S
C1613 C1614 1.349 . S
C1613 C1615 1.327 . S
C1613 H1636 0.950 . S
C1614 C1613 1.349 . S
C1614 C1626 1.349 . S
C1615 C1613 1.327 . S
C1615 C1631 1.429 . S
C1615 H1637 0.950 . S
C1616 H1612 0.949 . S
C1616 C1624 1.574 . S
C1616 C1632 1.368 . S
H1617 C1625 0.950 . S
H1618 C1623 0.950 . S
H1619 C1624 0.949 . S
H1620 C1626 0.950 . S
H1621 C1627 0.950 . S
H1622 C1628 0.949 . S
C1623 H1618 0.950 . S
C1623 C1625 1.327 . S
C1623 C1629 1.429 . S
C1624 C1616 1.574 . S
C1624 H1619 0.949 . S
C1624 C1630 1.368 . S
C1625 C1609 1.349 . S
C1625 H1617 0.950 . S
C1625 C1623 1.327 . S
C1626 C1614 1.349 . S
C1626 H1620 0.950 . S
C1626 C1627 1.327 . S
C1627 H1621 0.950 . S
C1627 C1626 1.327 . S
C1627 C1631 1.429 . S
C1628 C1611 1.574 . S
C1628 H1622 0.949 . S
C1628 C1632 1.368 . S
C1629 C1610 1.429 . S
C1629 C1623 1.429 . S
C1629 C1630 1.523 . S
C1630 C1611 1.368 . S
C1630 C1624 1.368 . S
C1630 C1629 1.523 . S
C1631 C1615 1.429 . S
C1631 C1627 1.429 . S
C1631 C1632 1.523 . S
C1632 C1616 1.368 . S
C1632 C1628 1.368 . S
C1632 C1631 1.523 . S
H1633 C1608 0.950 . S
H1634 C1610 0.950 . S
H1635 C1611 0.949 . S
H1636 C1613 0.950 . S
H1637 C1615 0.950 . S
C1638 C1639 1.349 . S
C1638 C1640 1.327 . S
C1638 H1663 0.950 . S
C1639 C1638 1.349 . S
C1639 C1655 1.349 . S
C1640 C1638 1.327 . S
C1640 C1659 1.429 . S
C1640 H1664 0.950 . S
C1641 C1658 1.574 . S
C1641 C1660 1.368 . S
C1641 H1665 0.949 . S
H1642 C1646 0.949 . S
C1643 C1644 1.349 . S
C1643 C1645 1.327 . S
C1643 H1666 0.950 . S
C1644 C1643 1.349 . S
C1644 C1656 1.349 . S
C1645 C1643 1.327 . S
C1645 C1661 1.429 . S
C1645 H1667 0.950 . S
C1646 H1642 0.949 . S
C1646 C1654 1.574 . S
C1646 C1662 1.368 . S
H1647 C1655 0.950 . S
H1648 C1653 0.950 . S
H1649 C1654 0.949 . S
H1650 C1656 0.950 . S
H1651 C1657 0.950 . S
H1652 C1658 0.949 . S
C1653 H1648 0.950 . S
C1653 C1655 1.327 . S
C1653 C1659 1.429 . S
C1654 C1646 1.574 . S
C1654 H1649 0.949 . S
C1654 C1660 1.368 . S
C1655 C1639 1.349 . S
C1655 H1647 0.950 . S
C1655 C1653 1.327 . S
C1656 C1644 1.349 . S
C1656 H1650 0.950 . S
C1656 C1657 1.327 . S
C1657 H1651 0.950 . S
C1657 C1656 1.327 . S
C1657 C1661 1.429 . S
C1658 C1641 1.574 . S
C1658 H1652 0.949 . S
C1658 C1662 1.368 . S
C1659 C1640 1.429 . S
C1659 C1653 1.429 . S
C1659 C1660 1.523 . S
C1660 C1641 1.368 . S
C1660 C1654 1.368 . S
C1660 C1659 1.523 . S
C1661 C1645 1.429 . S
C1661 C1657 1.429 . S
C1661 C1662 1.523 . S
C1662 C1646 1.368 . S
C1662 C1658 1.368 . S
C1662 C1661 1.523 . S
H1663 C1638 0.950 . S
H1664 C1640 0.950 . S
H1665 C1641 0.949 . S
H1666 C1643 0.950 . S
H1667 C1645 0.950 . S
C1668 C1669 1.349 . S
C1668 C1670 1.327 . S
C1668 H1693 0.950 . S
C1669 C1668 1.349 . S
C1669 C1685 1.349 . S
C1670 C1668 1.327 . S
C1670 C1689 1.429 . S
C1670 H1694 0.950 . S
C1671 C1688 1.574 . S
C1671 C1690 1.368 . S
C1671 H1695 0.949 . S
H1672 C1676 0.949 . S
C1673 C1674 1.349 . S
C1673 C1675 1.327 . S
C1673 H1696 0.950 . S
C1674 C1673 1.349 . S
C1674 C1686 1.349 . S
C1675 C1673 1.327 . S
C1675 C1691 1.429 . S
C1675 H1697 0.950 . S
C1676 H1672 0.949 . S
C1676 C1684 1.574 . S
C1676 C1692 1.368 . S
H1677 C1685 0.950 . S
H1678 C1683 0.950 . S
H1679 C1684 0.949 . S
H1680 C1686 0.950 . S
H1681 C1687 0.950 . S
H1682 C1688 0.949 . S
C1683 H1678 0.950 . S
C1683 C1685 1.327 . S
C1683 C1689 1.429 . S
C1684 C1676 1.574 . S
C1684 H1679 0.949 . S
C1684 C1690 1.368 . S
C1685 C1669 1.349 . S
C1685 H1677 0.950 . S
C1685 C1683 1.327 . S
C1686 C1674 1.349 . S
C1686 H1680 0.950 . S
C1686 C1687 1.327 . S
C1687 H1681 0.950 . S
C1687 C1686 1.327 . S
C1687 C1691 1.429 . S
C1688 C1671 1.574 . S
C1688 H1682 0.949 . S
C1688 C1692 1.368 . S
C1689 C1670 1.429 . S
C1689 C1683 1.429 . S
C1689 C1690 1.523 . S
C1690 C1671 1.368 . S
C1690 C1684 1.368 . S
C1690 C1689 1.523 . S
C1691 C1675 1.429 . S
C1691 C1687 1.429 . S
C1691 C1692 1.523 . S
C1692 C1676 1.368 . S
C1692 C1688 1.368 . S
C1692 C1691 1.523 . S
H1693 C1668 0.950 . S
H1694 C1670 0.950 . S
H1695 C1671 0.949 . S
H1696 C1673 0.950 . S
H1697 C1675 0.950 . S
C1698 C1699 1.349 . S
C1698 C1700 1.327 . S
C1698 H1723 0.950 . S
C1699 C1698 1.349 . S
C1699 C1715 1.349 . S
C1700 C1698 1.327 . S
C1700 C1719 1.429 . S
C1700 H1724 0.950 . S
C1701 C1718 1.574 . S
C1701 C1720 1.368 . S
C1701 H1725 0.949 . S
H1702 C1706 0.949 . S
C1703 C1704 1.349 . S
C1703 C1705 1.327 . S
C1703 H1726 0.950 . S
C1704 C1703 1.349 . S
C1704 C1716 1.349 . S
C1705 C1703 1.327 . S
C1705 C1721 1.429 . S
C1705 H1727 0.950 . S
C1706 H1702 0.949 . S
C1706 C1714 1.574 . S
C1706 C1722 1.368 . S
H1707 C1715 0.950 . S
H1708 C1713 0.950 . S
H1709 C1714 0.949 . S
H1710 C1716 0.950 . S
H1711 C1717 0.950 . S
H1712 C1718 0.949 . S
C1713 H1708 0.950 . S
C1713 C1715 1.327 . S
C1713 C1719 1.429 . S
C1714 C1706 1.574 . S
C1714 H1709 0.949 . S
C1714 C1720 1.368 . S
C1715 C1699 1.349 . S
C1715 H1707 0.950 . S
C1715 C1713 1.327 . S
C1716 C1704 1.349 . S
C1716 H1710 0.950 . S
C1716 C1717 1.327 . S
C1717 H1711 0.950 . S
C1717 C1716 1.327 . S
C1717 C1721 1.429 . S
C1718 C1701 1.574 . S
C1718 H1712 0.949 . S
C1718 C1722 1.368 . S
C1719 C1700 1.429 . S
C1719 C1713 1.429 . S
C1719 C1720 1.523 . S
C1720 C1701 1.368 . S
C1720 C1714 1.368 . S
C1720 C1719 1.523 . S
C1721 C1705 1.429 . S
C1721 C1717 1.429 . S
C1721 C1722 1.523 . S
C1722 C1706 1.368 . S
C1722 C1718 1.368 . S
C1722 C1721 1.523 . S
H1723 C1698 0.950 . S
H1724 C1700 0.950 . S
H1725 C1701 0.949 . S
H1726 C1703 0.950 . S
H1727 C1705 0.950 . S
C1728 C1729 1.349 . S
C1728 C1730 1.327 . S
C1728 H1753 0.950 . S
C1729 C1728 1.349 . S
C1729 C1745 1.349 . S
C1730 C1728 1.327 . S
C1730 C1749 1.429 . S
C1730 H1754 0.950 . S
C1731 C1748 1.574 1_565 S
C1731 C1750 1.368 . S
C1731 H1755 0.949 . S
H1732 C1736 0.949 . S
C1733 C1734 1.349 . S
C1733 C1735 1.327 . S
C1733 H1756 0.950 . S
C1734 C1733 1.349 . S
C1734 C1746 1.349 . S
C1735 C1733 1.327 . S
C1735 C1751 1.429 . S
C1735 H1757 0.950 . S
C1736 H1732 0.949 . S
C1736 C1744 1.574 . S
C1736 C1752 1.368 . S
H1737 C1745 0.950 . S
H1738 C1743 0.950 . S
H1739 C1744 0.949 . S
H1740 C1746 0.950 . S
H1741 C1747 0.950 . S
H1742 C1748 0.949 . S
C1743 H1738 0.950 . S
C1743 C1745 1.327 . S
C1743 C1749 1.429 . S
C1744 C1736 1.574 . S
C1744 H1739 0.949 . S
C1744 C1750 1.368 1_545 S
C1745 C1729 1.349 . S
C1745 H1737 0.950 . S
C1745 C1743 1.327 . S
C1746 C1734 1.349 . S
C1746 H1740 0.950 . S
C1746 C1747 1.327 . S
C1747 H1741 0.950 . S
C1747 C1746 1.327 . S
C1747 C1751 1.429 . S
C1748 C1731 1.574 1_545 S
C1748 H1742 0.949 . S
C1748 C1752 1.368 . S
C1749 C1730 1.429 . S
C1749 C1743 1.429 . S
C1749 C1750 1.523 . S
C1750 C1731 1.368 . S
C1750 C1744 1.368 1_565 S
C1750 C1749 1.523 . S
C1751 C1735 1.429 . S
C1751 C1747 1.429 . S
C1751 C1752 1.523 . S
C1752 C1736 1.368 . S
C1752 C1748 1.368 . S
C1752 C1751 1.523 . S
H1753 C1728 0.950 . S
H1754 C1730 0.950 . S
H1755 C1731 0.949 . S
H1756 C1733 0.950 . S
H1757 C1735 0.950 . S
C1758 C1759 1.349 . S
C1758 C1760 1.327 . S
C1758 H1783 0.950 . S
C1759 C1758 1.349 . S
C1759 C1775 1.349 . S
C1760 C1758 1.327 . S
C1760 C1779 1.429 . S
C1760 H1784 0.950 . S
C1761 C1778 1.574 . S
C1761 C1780 1.368 1_655 S
C1761 H1785 0.949 . S
H1762 C1766 0.949 . S
C1763 C1764 1.349 . S
C1763 C1765 1.327 . S
C1763 H1786 0.950 . S
C1764 C1763 1.349 . S
C1764 C1776 1.349 . S
C1765 C1763 1.327 . S
C1765 C1781 1.429 . S
C1765 H1787 0.950 . S
C1766 H1762 0.949 . S
C1766 C1774 1.574 . S
C1766 C1782 1.368 . S
H1767 C1775 0.950 . S
H1768 C1773 0.950 . S
H1769 C1774 0.949 1_455 S
H1770 C1776 0.950 . S
H1771 C1777 0.950 . S
H1772 C1778 0.949 . S
C1773 H1768 0.950 . S
C1773 C1775 1.327 . S
C1773 C1779 1.429 . S
C1774 C1766 1.574 . S
C1774 H1769 0.949 1_655 S
C1774 C1780 1.368 1_655 S
C1775 C1759 1.349 . S
C1775 H1767 0.950 . S
C1775 C1773 1.327 . S
C1776 C1764 1.349 . S
C1776 H1770 0.950 . S
C1776 C1777 1.327 . S
C1777 H1771 0.950 . S
C1777 C1776 1.327 . S
C1777 C1781 1.429 . S
C1778 C1761 1.574 . S
C1778 H1772 0.949 . S
C1778 C1782 1.368 . S
C1779 C1760 1.429 . S
C1779 C1773 1.429 . S
C1779 C1780 1.523 . S
C1780 C1761 1.368 1_455 S
C1780 C1774 1.368 1_455 S
C1780 C1779 1.523 . S
C1781 C1765 1.429 . S
C1781 C1777 1.429 . S
C1781 C1782 1.523 . S
C1782 C1766 1.368 . S
C1782 C1778 1.368 . S
C1782 C1781 1.523 . S
H1783 C1758 0.950 . S
H1784 C1760 0.950 . S
H1785 C1761 0.949 . S
H1786 C1763 0.950 . S
H1787 C1765 0.950 . S
C1788 C1789 1.349 . S
C1788 C1790 1.327 . S
C1788 H1813 0.950 . S
C1789 C1788 1.349 . S
C1789 C1805 1.349 . S
C1790 C1788 1.327 . S
C1790 C1809 1.429 . S
C1790 H1814 0.950 . S
C1791 C1808 1.574 . S
C1791 C1810 1.368 . S
C1791 H1815 0.949 . S
H1792 C1796 0.949 . S
C1793 C1794 1.349 . S
C1793 C1795 1.327 . S
C1793 H1816 0.950 . S
C1794 C1793 1.349 . S
C1794 C1806 1.349 . S
C1795 C1793 1.327 . S
C1795 C1811 1.429 . S
C1795 H1817 0.950 . S
C1796 H1792 0.949 . S
C1796 C1804 1.574 . S
C1796 C1812 1.368 . S
H1797 C1805 0.950 . S
H1798 C1803 0.950 . S
H1799 C1804 0.949 . S
H1800 C1806 0.950 . S
H1801 C1807 0.950 . S
H1802 C1808 0.949 . S
C1803 H1798 0.950 . S
C1803 C1805 1.327 . S
C1803 C1809 1.429 . S
C1804 C1796 1.574 . S
C1804 H1799 0.949 . S
C1804 C1810 1.368 . S
C1805 C1789 1.349 . S
C1805 H1797 0.950 . S
C1805 C1803 1.327 . S
C1806 C1794 1.349 . S
C1806 H1800 0.950 . S
C1806 C1807 1.327 . S
C1807 H1801 0.950 . S
C1807 C1806 1.327 . S
C1807 C1811 1.429 . S
C1808 C1791 1.574 . S
C1808 H1802 0.949 . S
C1808 C1812 1.368 . S
C1809 C1790 1.429 . S
C1809 C1803 1.429 . S
C1809 C1810 1.523 . S
C1810 C1791 1.368 . S
C1810 C1804 1.368 . S
C1810 C1809 1.523 . S
C1811 C1795 1.429 . S
C1811 C1807 1.429 . S
C1811 C1812 1.523 . S
C1812 C1796 1.368 . S
C1812 C1808 1.368 . S
C1812 C1811 1.523 . S
H1813 C1788 0.950 . S
H1814 C1790 0.950 . S
H1815 C1791 0.949 . S
H1816 C1793 0.950 . S
H1817 C1795 0.950 . S
C1818 C1819 1.349 . S
C1818 C1820 1.327 . S
C1818 H1843 0.950 . S
C1819 C1818 1.349 . S
C1819 C1835 1.349 . S
C1820 C1818 1.327 . S
C1820 C1839 1.429 . S
C1820 H1844 0.950 . S
C1821 C1838 1.574 1_455 S
C1821 C1840 1.368 . S
C1821 H1845 0.949 . S
H1822 C1826 0.949 . S
C1823 C1824 1.349 . S
C1823 C1825 1.327 . S
C1823 H1846 0.950 . S
C1824 C1823 1.349 . S
C1824 C1836 1.349 . S
C1825 C1823 1.327 . S
C1825 C1841 1.429 . S
C1825 H1847 0.950 . S
C1826 H1822 0.949 . S
C1826 C1834 1.574 . S
C1826 C1842 1.368 . S
H1827 C1835 0.950 . S
H1828 C1833 0.950 . S
H1829 C1834 0.949 . S
H1830 C1836 0.950 . S
H1831 C1837 0.950 . S
H1832 C1838 0.949 . S
C1833 H1828 0.950 . S
C1833 C1835 1.327 . S
C1833 C1839 1.429 . S
C1834 C1826 1.574 . S
C1834 H1829 0.949 . S
C1834 C1840 1.368 1_655 S
C1835 C1819 1.349 . S
C1835 H1827 0.950 . S
C1835 C1833 1.327 . S
C1836 C1824 1.349 . S
C1836 H1830 0.950 . S
C1836 C1837 1.327 . S
C1837 H1831 0.950 . S
C1837 C1836 1.327 . S
C1837 C1841 1.429 . S
C1838 C1821 1.574 1_655 S
C1838 H1832 0.949 . S
C1838 C1842 1.368 . S
C1839 C1820 1.429 . S
C1839 C1833 1.429 . S
C1839 C1840 1.523 . S
C1840 C1821 1.368 . S
C1840 C1834 1.368 1_455 S
C1840 C1839 1.523 . S
C1841 C1825 1.429 . S
C1841 C1837 1.429 . S
C1841 C1842 1.523 . S
C1842 C1826 1.368 . S
C1842 C1838 1.368 . S
C1842 C1841 1.523 . S
H1843 C1818 0.950 . S
H1844 C1820 0.950 . S
H1845 C1821 0.949 . S
H1846 C1823 0.950 . S
H1847 C1825 0.950 . S
C1848 C1849 1.349 . S
C1848 C1850 1.327 . S
C1848 H1873 0.950 . S
C1849 C1848 1.349 . S
C1849 C1865 1.349 . S
C1850 C1848 1.327 . S
C1850 C1869 1.429 . S
C1850 H1874 0.950 . S
C1851 C1868 1.574 . S
C1851 C1870 1.368 . S
C1851 H1875 0.949 . S
H1852 C1856 0.949 . S
C1853 C1854 1.349 . S
C1853 C1855 1.327 . S
C1853 H1876 0.950 . S
C1854 C1853 1.349 . S
C1854 C1866 1.349 . S
C1855 C1853 1.327 . S
C1855 C1871 1.429 . S
C1855 H1877 0.950 . S
C1856 H1852 0.949 . S
C1856 C1864 1.574 . S
C1856 C1872 1.368 . S
H1857 C1865 0.950 . S
H1858 C1863 0.950 . S
H1859 C1864 0.949 . S
H1860 C1866 0.950 . S
H1861 C1867 0.950 . S
H1862 C1868 0.949 . S
C1863 H1858 0.950 . S
C1863 C1865 1.327 . S
C1863 C1869 1.429 . S
C1864 C1856 1.574 . S
C1864 H1859 0.949 . S
C1864 C1870 1.368 . S
C1865 C1849 1.349 . S
C1865 H1857 0.950 . S
C1865 C1863 1.327 . S
C1866 C1854 1.349 . S
C1866 H1860 0.950 . S
C1866 C1867 1.327 . S
C1867 H1861 0.950 . S
C1867 C1866 1.327 . S
C1867 C1871 1.429 . S
C1868 C1851 1.574 . S
C1868 H1862 0.949 . S
C1868 C1872 1.368 . S
C1869 C1850 1.429 . S
C1869 C1863 1.429 . S
C1869 C1870 1.523 . S
C1870 C1851 1.368 . S
C1870 C1864 1.368 . S
C1870 C1869 1.523 . S
C1871 C1855 1.429 . S
C1871 C1867 1.429 . S
C1871 C1872 1.523 . S
C1872 C1856 1.368 . S
C1872 C1868 1.368 . S
C1872 C1871 1.523 . S
H1873 C1848 0.950 . S
H1874 C1850 0.950 . S
H1875 C1851 0.949 . S
H1876 C1853 0.950 . S
H1877 C1855 0.950 . S
C1878 C1879 1.349 . S
C1878 C1880 1.327 . S
C1878 H1903 0.950 . S
C1879 C1878 1.349 . S
C1879 C1895 1.349 . S
C1880 C1878 1.327 . S
C1880 C1899 1.429 . S
C1880 H1904 0.950 . S
C1881 C1898 1.574 1_565 S
C1881 C1900 1.368 . S
C1881 H1905 0.949 . S
H1882 C1886 0.949 . S
C1883 C1884 1.349 . S
C1883 C1885 1.327 . S
C1883 H1906 0.950 . S
C1884 C1883 1.349 . S
C1884 C1896 1.349 . S
C1885 C1883 1.327 . S
C1885 C1901 1.429 . S
C1885 H1907 0.950 . S
C1886 H1882 0.949 . S
C1886 C1894 1.574 . S
C1886 C1902 1.368 . S
H1887 C1895 0.950 . S
H1888 C1893 0.950 . S
H1889 C1894 0.949 1_565 S
H1890 C1896 0.950 . S
H1891 C1897 0.950 . S
H1892 C1898 0.949 . S
C1893 H1888 0.950 . S
C1893 C1895 1.327 . S
C1893 C1899 1.429 . S
C1894 C1886 1.574 . S
C1894 H1889 0.949 1_545 S
C1894 C1900 1.368 1_545 S
C1895 C1879 1.349 . S
C1895 H1887 0.950 . S
C1895 C1893 1.327 . S
C1896 C1884 1.349 . S
C1896 H1890 0.950 . S
C1896 C1897 1.327 . S
C1897 H1891 0.950 . S
C1897 C1896 1.327 . S
C1897 C1901 1.429 . S
C1898 C1881 1.574 1_545 S
C1898 H1892 0.949 . S
C1898 C1902 1.368 . S
C1899 C1880 1.429 . S
C1899 C1893 1.429 . S
C1899 C1900 1.523 . S
C1900 C1881 1.368 . S
C1900 C1894 1.368 1_565 S
C1900 C1899 1.523 . S
C1901 C1885 1.429 . S
C1901 C1897 1.429 . S
C1901 C1902 1.523 . S
C1902 C1886 1.368 . S
C1902 C1898 1.368 . S
C1902 C1901 1.523 . S
H1903 C1878 0.950 . S
H1904 C1880 0.950 . S
H1905 C1881 0.949 . S
H1906 C1883 0.950 . S
H1907 C1885 0.950 . S
C1908 C1909 1.349 . S
C1908 C1910 1.327 . S
C1908 H1933 0.950 . S
C1909 C1908 1.349 . S
C1909 C1925 1.349 . S
C1910 C1908 1.327 . S
C1910 C1929 1.429 . S
C1910 H1934 0.950 . S
C1911 C1928 1.574 . S
C1911 C1930 1.368 . S
C1911 H1935 0.949 . S
H1912 C1916 0.949 . S
C1913 C1914 1.349 . S
C1913 C1915 1.327 . S
C1913 H1936 0.950 . S
C1914 C1913 1.349 . S
C1914 C1926 1.349 . S
C1915 C1913 1.327 . S
C1915 C1931 1.429 . S
C1915 H1937 0.950 . S
C1916 H1912 0.949 . S
C1916 C1924 1.574 . S
C1916 C1932 1.368 . S
H1917 C1925 0.950 . S
H1918 C1923 0.950 . S
H1919 C1924 0.949 . S
H1920 C1926 0.950 . S
H1921 C1927 0.950 . S
H1922 C1928 0.949 . S
C1923 H1918 0.950 . S
C1923 C1925 1.327 . S
C1923 C1929 1.429 . S
C1924 C1916 1.574 . S
C1924 H1919 0.949 . S
C1924 C1930 1.368 . S
C1925 C1909 1.349 . S
C1925 H1917 0.950 . S
C1925 C1923 1.327 . S
C1926 C1914 1.349 . S
C1926 H1920 0.950 . S
C1926 C1927 1.327 . S
C1927 H1921 0.950 . S
C1927 C1926 1.327 . S
C1927 C1931 1.429 . S
C1928 C1911 1.574 . S
C1928 H1922 0.949 . S
C1928 C1932 1.368 . S
C1929 C1910 1.429 . S
C1929 C1923 1.429 . S
C1929 C1930 1.523 . S
C1930 C1911 1.368 . S
C1930 C1924 1.368 . S
C1930 C1929 1.523 . S
C1931 C1915 1.429 . S
C1931 C1927 1.429 . S
C1931 C1932 1.523 . S
C1932 C1916 1.368 . S
C1932 C1928 1.368 . S
C1932 C1931 1.523 . S
H1933 C1908 0.950 . S
H1934 C1910 0.950 . S
H1935 C1911 0.949 . S
H1936 C1913 0.950 . S
H1937 C1915 0.950 . S
C1938 C1939 1.349 . S
C1938 C1940 1.327 . S
C1938 H1963 0.950 . S
C1939 C1938 1.349 . S
C1939 C1955 1.349 . S
C1940 C1938 1.327 . S
C1940 C1959 1.429 . S
C1940 H1964 0.950 . S
C1941 C1958 1.574 . S
C1941 C1960 1.368 . S
C1941 H1965 0.949 . S
H1942 C1946 0.949 . S
C1943 C1944 1.349 . S
C1943 C1945 1.327 . S
C1943 H1966 0.950 . S
C1944 C1943 1.349 . S
C1944 C1956 1.349 . S
C1945 C1943 1.327 . S
C1945 C1961 1.429 . S
C1945 H1967 0.950 . S
C1946 H1942 0.949 . S
C1946 C1954 1.574 . S
C1946 C1962 1.368 . S
H1947 C1955 0.950 . S
H1948 C1953 0.950 . S
H1949 C1954 0.949 . S
H1950 C1956 0.950 . S
H1951 C1957 0.950 . S
H1952 C1958 0.949 . S
C1953 H1948 0.950 . S
C1953 C1955 1.327 . S
C1953 C1959 1.429 . S
C1954 C1946 1.574 . S
C1954 H1949 0.949 . S
C1954 C1960 1.368 . S
C1955 C1939 1.349 . S
C1955 H1947 0.950 . S
C1955 C1953 1.327 . S
C1956 C1944 1.349 . S
C1956 H1950 0.950 . S
C1956 C1957 1.327 . S
C1957 H1951 0.950 . S
C1957 C1956 1.327 . S
C1957 C1961 1.429 . S
C1958 C1941 1.574 . S
C1958 H1952 0.949 . S
C1958 C1962 1.368 . S
C1959 C1940 1.429 . S
C1959 C1953 1.429 . S
C1959 C1960 1.523 . S
C1960 C1941 1.368 . S
C1960 C1954 1.368 . S
C1960 C1959 1.523 . S
C1961 C1945 1.429 . S
C1961 C1957 1.429 . S
C1961 C1962 1.523 . S
C1962 C1946 1.368 . S
C1962 C1958 1.368 . S
C1962 C1961 1.523 . S
H1963 C1938 0.950 . S
H1964 C1940 0.950 . S
H1965 C1941 0.949 . S
H1966 C1943 0.950 . S
H1967 C1945 0.950 . S
C1968 C1969 1.349 . S
C1968 C1970 1.327 . S
C1968 H1993 0.950 . S
C1969 C1968 1.349 . S
C1969 C1985 1.349 . S
C1970 C1968 1.327 . S
C1970 C1989 1.429 . S
C1970 H1994 0.950 . S
C1971 C1988 1.574 . S
C1971 C1990 1.368 . S
C1971 H1995 0.949 . S
H1972 C1976 0.949 . S
C1973 C1974 1.349 . S
C1973 C1975 1.327 . S
C1973 H1996 0.950 . S
C1974 C1973 1.349 . S
C1974 C1986 1.349 . S
C1975 C1973 1.327 . S
C1975 C1991 1.429 . S
C1975 H1997 0.950 . S
C1976 H1972 0.949 . S
C1976 C1984 1.574 . S
C1976 C1992 1.368 . S
H1977 C1985 0.950 . S
H1978 C1983 0.950 . S
H1979 C1984 0.949 . S
H1980 C1986 0.950 . S
H1981 C1987 0.950 . S
H1982 C1988 0.949 . S
C1983 H1978 0.950 . S
C1983 C1985 1.327 . S
C1983 C1989 1.429 . S
C1984 C1976 1.574 . S
C1984 H1979 0.949 . S
C1984 C1990 1.368 . S
C1985 C1969 1.349 . S
C1985 H1977 0.950 . S
C1985 C1983 1.327 . S
C1986 C1974 1.349 . S
C1986 H1980 0.950 . S
C1986 C1987 1.327 . S
C1987 H1981 0.950 . S
C1987 C1986 1.327 . S
C1987 C1991 1.429 . S
C1988 C1971 1.574 . S
C1988 H1982 0.949 . S
C1988 C1992 1.368 . S
C1989 C1970 1.429 . S
C1989 C1983 1.429 . S
C1989 C1990 1.523 . S
C1990 C1971 1.368 . S
C1990 C1984 1.368 . S
C1990 C1989 1.523 . S
C1991 C1975 1.429 . S
C1991 C1987 1.429 . S
C1991 C1992 1.523 . S
C1992 C1976 1.368 . S
C1992 C1988 1.368 . S
C1992 C1991 1.523 . S
H1993 C1968 0.950 . S
H1994 C1970 0.950 . S
H1995 C1971 0.949 . S
H1996 C1973 0.950 . S
H1997 C1975 0.950 . S
C1998 C1999 1.349 . S
C1998 C2000 1.327 . S
C1998 H2023 0.950 . S
C1999 C1998 1.349 . S
C1999 C2015 1.349 . S
C2000 C1998 1.327 . S
C2000 C2019 1.429 . S
C2000 H2024 0.950 . S
C2001 C2018 1.574 . S
C2001 C2020 1.368 . S
C2001 H2025 0.949 . S
H2002 C2006 0.949 . S
C2003 C2004 1.349 . S
C2003 C2005 1.327 . S
C2003 H2026 0.950 . S
C2004 C2003 1.349 . S
C2004 C2016 1.349 . S
C2005 C2003 1.327 . S
C2005 C2021 1.429 . S
C2005 H2027 0.950 . S
C2006 H2002 0.949 . S
C2006 C2014 1.574 . S
C2006 C2022 1.368 . S
H2007 C2015 0.950 . S
H2008 C2013 0.950 . S
H2009 C2014 0.949 . S
H2010 C2016 0.950 1_545 S
H2011 C2017 0.950 . S
H2012 C2018 0.949 . S
C2013 H2008 0.950 . S
C2013 C2015 1.327 . S
C2013 C2019 1.429 . S
C2014 C2006 1.574 . S
C2014 H2009 0.949 . S
C2014 C2020 1.368 . S
C2015 C1999 1.349 . S
C2015 H2007 0.950 . S
C2015 C2013 1.327 . S
C2016 C2004 1.349 . S
C2016 H2010 0.950 1_565 S
C2016 C2017 1.327 . S
C2017 H2011 0.950 . S
C2017 C2016 1.327 . S
C2017 C2021 1.429 . S
C2018 C2001 1.574 . S
C2018 H2012 0.949 . S
C2018 C2022 1.368 . S
C2019 C2000 1.429 . S
C2019 C2013 1.429 . S
C2019 C2020 1.523 . S
C2020 C2001 1.368 . S
C2020 C2014 1.368 . S
C2020 C2019 1.523 . S
C2021 C2005 1.429 . S
C2021 C2017 1.429 . S
C2021 C2022 1.523 . S
C2022 C2006 1.368 . S
C2022 C2018 1.368 . S
C2022 C2021 1.523 . S
H2023 C1998 0.950 . S
H2024 C2000 0.950 . S
H2025 C2001 0.949 . S
H2026 C2003 0.950 . S
H2027 C2005 0.950 . S
C2028 C2029 1.349 . S
C2028 C2030 1.327 . S
C2028 H2053 0.950 . S
C2029 C2028 1.349 . S
C2029 C2045 1.349 . S
C2030 C2028 1.327 . S
C2030 C2049 1.429 . S
C2030 H2054 0.950 . S
C2031 C2048 1.574 . S
C2031 C2050 1.368 . S
C2031 H2055 0.949 . S
H2032 C2036 0.949 . S
C2033 C2034 1.349 . S
C2033 C2035 1.327 . S
C2033 H2056 0.950 1_455 S
C2034 C2033 1.349 . S
C2034 C2046 1.349 . S
C2035 C2033 1.327 . S
C2035 C2051 1.429 . S
C2035 H2057 0.950 . S
C2036 H2032 0.949 . S
C2036 C2044 1.574 . S
C2036 C2052 1.368 . S
H2037 C2045 0.950 . S
H2038 C2043 0.950 . S
H2039 C2044 0.949 . S
H2040 C2046 0.950 . S
H2041 C2047 0.950 . S
H2042 C2048 0.949 . S
C2043 H2038 0.950 . S
C2043 C2045 1.327 . S
C2043 C2049 1.429 . S
C2044 C2036 1.574 . S
C2044 H2039 0.949 . S
C2044 C2050 1.368 . S
C2045 C2029 1.349 . S
C2045 H2037 0.950 . S
C2045 C2043 1.327 . S
C2046 C2034 1.349 . S
C2046 H2040 0.950 . S
C2046 C2047 1.327 . S
C2047 H2041 0.950 . S
C2047 C2046 1.327 . S
C2047 C2051 1.429 . S
C2048 C2031 1.574 . S
C2048 H2042 0.949 . S
C2048 C2052 1.368 . S
C2049 C2030 1.429 . S
C2049 C2043 1.429 . S
C2049 C2050 1.523 . S
C2050 C2031 1.368 . S
C2050 C2044 1.368 . S
C2050 C2049 1.523 . S
C2051 C2035 1.429 . S
C2051 C2047 1.429 . S
C2051 C2052 1.523 . S
C2052 C2036 1.368 . S
C2052 C2048 1.368 . S
C2052 C2051 1.523 . S
H2053 C2028 0.950 . S
H2054 C2030 0.950 . S
H2055 C2031 0.949 . S
H2056 C2033 0.950 1_655 S
H2057 C2035 0.950 . S
C2058 C2059 1.349 . S
C2058 C2060 1.327 . S
C2058 H2083 0.950 . S
C2059 C2058 1.349 . S
C2059 C2075 1.349 . S
C2060 C2058 1.327 . S
C2060 C2079 1.429 . S
C2060 H2084 0.950 . S
C2061 C2078 1.574 . S
C2061 C2080 1.368 . S
C2061 H2085 0.949 . S
H2062 C2066 0.949 . S
C2063 C2064 1.349 . S
C2063 C2065 1.327 . S
C2063 H2086 0.950 . S
C2064 C2063 1.349 . S
C2064 C2076 1.349 . S
C2065 C2063 1.327 . S
C2065 C2081 1.429 . S
C2065 H2087 0.950 . S
C2066 H2062 0.949 . S
C2066 C2074 1.574 . S
C2066 C2082 1.368 . S
H2067 C2075 0.950 . S
H2068 C2073 0.950 . S
H2069 C2074 0.949 . S
H2070 C2076 0.950 . S
H2071 C2077 0.950 . S
H2072 C2078 0.949 . S
C2073 H2068 0.950 . S
C2073 C2075 1.327 . S
C2073 C2079 1.429 . S
C2074 C2066 1.574 . S
C2074 H2069 0.949 . S
C2074 C2080 1.368 . S
C2075 C2059 1.349 . S
C2075 H2067 0.950 . S
C2075 C2073 1.327 . S
C2076 C2064 1.349 . S
C2076 H2070 0.950 . S
C2076 C2077 1.327 . S
C2077 H2071 0.950 . S
C2077 C2076 1.327 . S
C2077 C2081 1.429 . S
C2078 C2061 1.574 . S
C2078 H2072 0.949 . S
C2078 C2082 1.368 . S
C2079 C2060 1.429 . S
C2079 C2073 1.429 . S
C2079 C2080 1.523 . S
C2080 C2061 1.368 . S
C2080 C2074 1.368 . S
C2080 C2079 1.523 . S
C2081 C2065 1.429 . S
C2081 C2077 1.429 . S
C2081 C2082 1.523 . S
C2082 C2066 1.368 . S
C2082 C2078 1.368 . S
C2082 C2081 1.523 . S
H2083 C2058 0.950 . S
H2084 C2060 0.950 . S
H2085 C2061 0.949 . S
H2086 C2063 0.950 . S
H2087 C2065 0.950 . S
C2088 C2089 1.349 . S
C2088 C2090 1.327 . S
C2088 H2113 0.950 . S
C2089 C2088 1.349 . S
C2089 C2105 1.349 . S
C2090 C2088 1.327 . S
C2090 C2109 1.429 . S
C2090 H2114 0.950 . S
C2091 C2108 1.574 . S
C2091 C2110 1.368 . S
C2091 H2115 0.949 . S
H2092 C2096 0.949 . S
C2093 C2094 1.349 . S
C2093 C2095 1.327 . S
C2093 H2116 0.950 . S
C2094 C2093 1.349 . S
C2094 C2106 1.349 . S
C2095 C2093 1.327 . S
C2095 C2111 1.429 . S
C2095 H2117 0.950 . S
C2096 H2092 0.949 . S
C2096 C2104 1.574 . S
C2096 C2112 1.368 . S
H2097 C2105 0.950 . S
H2098 C2103 0.950 . S
H2099 C2104 0.949 . S
H2100 C2106 0.950 . S
H2101 C2107 0.950 . S
H2102 C2108 0.949 . S
C2103 H2098 0.950 . S
C2103 C2105 1.327 . S
C2103 C2109 1.429 . S
C2104 C2096 1.574 . S
C2104 H2099 0.949 . S
C2104 C2110 1.368 . S
C2105 C2089 1.349 . S
C2105 H2097 0.950 . S
C2105 C2103 1.327 . S
C2106 C2094 1.349 . S
C2106 H2100 0.950 . S
C2106 C2107 1.327 . S
C2107 H2101 0.950 . S
C2107 C2106 1.327 . S
C2107 C2111 1.429 . S
C2108 C2091 1.574 . S
C2108 H2102 0.949 . S
C2108 C2112 1.368 . S
C2109 C2090 1.429 . S
C2109 C2103 1.429 . S
C2109 C2110 1.523 . S
C2110 C2091 1.368 . S
C2110 C2104 1.368 . S
C2110 C2109 1.523 . S
C2111 C2095 1.429 . S
C2111 C2107 1.429 . S
C2111 C2112 1.523 . S
C2112 C2096 1.368 . S
C2112 C2108 1.368 . S
C2112 C2111 1.523 . S
H2113 C2088 0.950 . S
H2114 C2090 0.950 . S
H2115 C2091 0.949 . S
H2116 C2093 0.950 . S
H2117 C2095 0.950 . S
C2118 C2119 1.349 . S
C2118 C2120 1.327 . S
C2118 H2143 0.950 . S
C2119 C2118 1.349 . S
C2119 C2135 1.349 . S
C2120 C2118 1.327 . S
C2120 C2139 1.429 . S
C2120 H2144 0.950 . S
C2121 C2138 1.574 . S
C2121 C2140 1.368 . S
C2121 H2145 0.949 . S
H2122 C2126 0.949 . S
C2123 C2124 1.349 . S
C2123 C2125 1.327 . S
C2123 H2146 0.950 . S
C2124 C2123 1.349 . S
C2124 C2136 1.349 . S
C2125 C2123 1.327 . S
C2125 C2141 1.429 . S
C2125 H2147 0.950 . S
C2126 H2122 0.949 . S
C2126 C2134 1.574 . S
C2126 C2142 1.368 . S
H2127 C2135 0.950 . S
H2128 C2133 0.950 . S
H2129 C2134 0.949 . S
H2130 C2136 0.950 . S
H2131 C2137 0.950 . S
H2132 C2138 0.949 . S
C2133 H2128 0.950 . S
C2133 C2135 1.327 . S
C2133 C2139 1.429 . S
C2134 C2126 1.574 . S
C2134 H2129 0.949 . S
C2134 C2140 1.368 . S
C2135 C2119 1.349 . S
C2135 H2127 0.950 . S
C2135 C2133 1.327 . S
C2136 C2124 1.349 . S
C2136 H2130 0.950 . S
C2136 C2137 1.327 . S
C2137 H2131 0.950 . S
C2137 C2136 1.327 . S
C2137 C2141 1.429 . S
C2138 C2121 1.574 . S
C2138 H2132 0.949 . S
C2138 C2142 1.368 . S
C2139 C2120 1.429 . S
C2139 C2133 1.429 . S
C2139 C2140 1.523 . S
C2140 C2121 1.368 . S
C2140 C2134 1.368 . S
C2140 C2139 1.523 . S
C2141 C2125 1.429 . S
C2141 C2137 1.429 . S
C2141 C2142 1.523 . S
C2142 C2126 1.368 . S
C2142 C2138 1.368 . S
C2142 C2141 1.523 . S
H2143 C2118 0.950 . S
H2144 C2120 0.950 . S
H2145 C2121 0.949 . S
H2146 C2123 0.950 . S
H2147 C2125 0.950 . S
C2148 C2149 1.349 . S
C2148 C2150 1.327 . S
C2148 H2173 0.950 . S
C2149 C2148 1.349 . S
C2149 C2165 1.349 . S
C2150 C2148 1.327 . S
C2150 C2169 1.429 . S
C2150 H2174 0.950 . S
C2151 C2168 1.574 . S
C2151 C2170 1.368 . S
C2151 H2175 0.949 . S
H2152 C2156 0.949 . S
C2153 C2154 1.349 . S
C2153 C2155 1.327 . S
C2153 H2176 0.950 1_545 S
C2154 C2153 1.349 . S
C2154 C2166 1.349 . S
C2155 C2153 1.327 . S
C2155 C2171 1.429 . S
C2155 H2177 0.950 . S
C2156 H2152 0.949 . S
C2156 C2164 1.574 . S
C2156 C2172 1.368 . S
H2157 C2165 0.950 . S
H2158 C2163 0.950 . S
H2159 C2164 0.949 . S
H2160 C2166 0.950 . S
H2161 C2167 0.950 . S
H2162 C2168 0.949 . S
C2163 H2158 0.950 . S
C2163 C2165 1.327 . S
C2163 C2169 1.429 . S
C2164 C2156 1.574 . S
C2164 H2159 0.949 . S
C2164 C2170 1.368 . S
C2165 C2149 1.349 . S
C2165 H2157 0.950 . S
C2165 C2163 1.327 . S
C2166 C2154 1.349 . S
C2166 H2160 0.950 . S
C2166 C2167 1.327 . S
C2167 H2161 0.950 . S
C2167 C2166 1.327 . S
C2167 C2171 1.429 . S
C2168 C2151 1.574 . S
C2168 H2162 0.949 . S
C2168 C2172 1.368 . S
C2169 C2150 1.429 . S
C2169 C2163 1.429 . S
C2169 C2170 1.523 . S
C2170 C2151 1.368 . S
C2170 C2164 1.368 . S
C2170 C2169 1.523 . S
C2171 C2155 1.429 . S
C2171 C2167 1.429 . S
C2171 C2172 1.523 . S
C2172 C2156 1.368 . S
C2172 C2168 1.368 . S
C2172 C2171 1.523 . S
H2173 C2148 0.950 . S
H2174 C2150 0.950 . S
H2175 C2151 0.949 . S
H2176 C2153 0.950 1_565 S
H2177 C2155 0.950 . S
C2178 C2179 1.349 . S
C2178 C2180 1.327 . S
C2178 H2203 0.950 . S
C2179 C2178 1.349 . S
C2179 C2195 1.349 . S
C2180 C2178 1.327 . S
C2180 C2199 1.429 . S
C2180 H2204 0.950 . S
C2181 C2198 1.574 . S
C2181 C2200 1.368 . S
C2181 H2205 0.949 . S
H2182 C2186 0.949 . S
C2183 C2184 1.349 . S
C2183 C2185 1.327 . S
C2183 H2206 0.950 . S
C2184 C2183 1.349 . S
C2184 C2196 1.349 . S
C2185 C2183 1.327 . S
C2185 C2201 1.429 . S
C2185 H2207 0.950 . S
C2186 H2182 0.949 . S
C2186 C2194 1.574 . S
C2186 C2202 1.368 . S
H2187 C2195 0.950 . S
H2188 C2193 0.950 . S
H2189 C2194 0.949 . S
H2190 C2196 0.950 . S
H2191 C2197 0.950 . S
H2192 C2198 0.949 . S
C2193 H2188 0.950 . S
C2193 C2195 1.327 . S
C2193 C2199 1.429 . S
C2194 C2186 1.574 . S
C2194 H2189 0.949 . S
C2194 C2200 1.368 . S
C2195 C2179 1.349 . S
C2195 H2187 0.950 . S
C2195 C2193 1.327 . S
C2196 C2184 1.349 . S
C2196 H2190 0.950 . S
C2196 C2197 1.327 . S
C2197 H2191 0.950 . S
C2197 C2196 1.327 . S
C2197 C2201 1.429 . S
C2198 C2181 1.574 . S
C2198 H2192 0.949 . S
C2198 C2202 1.368 . S
C2199 C2180 1.429 . S
C2199 C2193 1.429 . S
C2199 C2200 1.523 . S
C2200 C2181 1.368 . S
C2200 C2194 1.368 . S
C2200 C2199 1.523 . S
C2201 C2185 1.429 . S
C2201 C2197 1.429 . S
C2201 C2202 1.523 . S
C2202 C2186 1.368 . S
C2202 C2198 1.368 . S
C2202 C2201 1.523 . S
H2203 C2178 0.950 . S
H2204 C2180 0.950 . S
H2205 C2181 0.949 . S
H2206 C2183 0.950 . S
H2207 C2185 0.950 . S
C2208 C2209 1.349 . S
C2208 C2210 1.327 . S
C2208 H2233 0.950 . S
C2209 C2208 1.349 . S
C2209 C2225 1.349 . S
C2210 C2208 1.327 . S
C2210 C2229 1.429 . S
C2210 H2234 0.950 . S
C2211 C2228 1.574 . S
C2211 C2230 1.368 . S
C2211 H2235 0.949 . S
H2212 C2216 0.949 . S
C2213 C2214 1.349 . S
C2213 C2215 1.327 . S
C2213 H2236 0.950 . S
C2214 C2213 1.349 . S
C2214 C2226 1.349 . S
C2215 C2213 1.327 . S
C2215 C2231 1.429 . S
C2215 H2237 0.950 . S
C2216 H2212 0.949 . S
C2216 C2224 1.574 . S
C2216 C2232 1.368 . S
H2217 C2225 0.950 . S
H2218 C2223 0.950 . S
H2219 C2224 0.949 . S
H2220 C2226 0.950 . S
H2221 C2227 0.950 . S
H2222 C2228 0.949 . S
C2223 H2218 0.950 . S
C2223 C2225 1.327 . S
C2223 C2229 1.429 . S
C2224 C2216 1.574 . S
C2224 H2219 0.949 . S
C2224 C2230 1.368 . S
C2225 C2209 1.349 . S
C2225 H2217 0.950 . S
C2225 C2223 1.327 . S
C2226 C2214 1.349 . S
C2226 H2220 0.950 . S
C2226 C2227 1.327 . S
C2227 H2221 0.950 . S
C2227 C2226 1.327 . S
C2227 C2231 1.429 . S
C2228 C2211 1.574 . S
C2228 H2222 0.949 . S
C2228 C2232 1.368 . S
C2229 C2210 1.429 . S
C2229 C2223 1.429 . S
C2229 C2230 1.523 . S
C2230 C2211 1.368 . S
C2230 C2224 1.368 . S
C2230 C2229 1.523 . S
C2231 C2215 1.429 . S
C2231 C2227 1.429 . S
C2231 C2232 1.523 . S
C2232 C2216 1.368 . S
C2232 C2228 1.368 . S
C2232 C2231 1.523 . S
H2233 C2208 0.950 . S
H2234 C2210 0.950 . S
H2235 C2211 0.949 . S
H2236 C2213 0.950 . S
H2237 C2215 0.950 . S
C2238 C2239 1.349 . S
C2238 C2240 1.327 . S
C2238 H2263 0.950 . S
C2239 C2238 1.349 . S
C2239 C2255 1.349 . S
C2240 C2238 1.327 . S
C2240 C2259 1.429 . S
C2240 H2264 0.950 . S
C2241 C2258 1.574 . S
C2241 C2260 1.368 . S
C2241 H2265 0.949 . S
H2242 C2246 0.949 . S
C2243 C2244 1.349 . S
C2243 C2245 1.327 . S
C2243 H2266 0.950 . S
C2244 C2243 1.349 . S
C2244 C2256 1.349 . S
C2245 C2243 1.327 . S
C2245 C2261 1.429 . S
C2245 H2267 0.950 . S
C2246 H2242 0.949 . S
C2246 C2254 1.574 . S
C2246 C2262 1.368 . S
H2247 C2255 0.950 . S
H2248 C2253 0.950 . S
H2249 C2254 0.949 . S
H2250 C2256 0.950 . S
H2251 C2257 0.950 . S
H2252 C2258 0.949 . S
C2253 H2248 0.950 . S
C2253 C2255 1.327 . S
C2253 C2259 1.429 . S
C2254 C2246 1.574 . S
C2254 H2249 0.949 . S
C2254 C2260 1.368 . S
C2255 C2239 1.349 . S
C2255 H2247 0.950 . S
C2255 C2253 1.327 . S
C2256 C2244 1.349 . S
C2256 H2250 0.950 . S
C2256 C2257 1.327 . S
C2257 H2251 0.950 . S
C2257 C2256 1.327 . S
C2257 C2261 1.429 . S
C2258 C2241 1.574 . S
C2258 H2252 0.949 . S
C2258 C2262 1.368 . S
C2259 C2240 1.429 . S
C2259 C2253 1.429 . S
C2259 C2260 1.523 . S
C2260 C2241 1.368 . S
C2260 C2254 1.368 . S
C2260 C2259 1.523 . S
C2261 C2245 1.429 . S
C2261 C2257 1.429 . S
C2261 C2262 1.523 . S
C2262 C2246 1.368 . S
C2262 C2258 1.368 . S
C2262 C2261 1.523 . S
H2263 C2238 0.950 . S
H2264 C2240 0.950 . S
H2265 C2241 0.949 . S
H2266 C2243 0.950 . S
H2267 C2245 0.950 . S
C2268 C2269 1.349 . S
C2268 C2270 1.327 . S
C2268 H2293 0.950 . S
C2269 C2268 1.349 . S
C2269 C2285 1.349 . S
C2270 C2268 1.327 . S
C2270 C2289 1.429 . S
C2270 H2294 0.950 . S
C2271 C2288 1.574 . S
C2271 C2290 1.368 . S
C2271 H2295 0.949 . S
H2272 C2276 0.949 . S
C2273 C2274 1.349 . S
C2273 C2275 1.327 . S
C2273 H2296 0.950 . S
C2274 C2273 1.349 . S
C2274 C2286 1.349 . S
C2275 C2273 1.327 . S
C2275 C2291 1.429 . S
C2275 H2297 0.950 . S
C2276 H2272 0.949 . S
C2276 C2284 1.574 . S
C2276 C2292 1.368 . S
H2277 C2285 0.950 . S
H2278 C2283 0.950 . S
H2279 C2284 0.949 . S
H2280 C2286 0.950 . S
H2281 C2287 0.950 . S
H2282 C2288 0.949 . S
C2283 H2278 0.950 . S
C2283 C2285 1.327 . S
C2283 C2289 1.429 . S
C2284 C2276 1.574 . S
C2284 H2279 0.949 . S
C2284 C2290 1.368 . S
C2285 C2269 1.349 . S
C2285 H2277 0.950 . S
C2285 C2283 1.327 . S
C2286 C2274 1.349 . S
C2286 H2280 0.950 . S
C2286 C2287 1.327 . S
C2287 H2281 0.950 . S
C2287 C2286 1.327 . S
C2287 C2291 1.429 . S
C2288 C2271 1.574 . S
C2288 H2282 0.949 . S
C2288 C2292 1.368 . S
C2289 C2270 1.429 . S
C2289 C2283 1.429 . S
C2289 C2290 1.523 . S
C2290 C2271 1.368 . S
C2290 C2284 1.368 . S
C2290 C2289 1.523 . S
C2291 C2275 1.429 . S
C2291 C2287 1.429 . S
C2291 C2292 1.523 . S
C2292 C2276 1.368 . S
C2292 C2288 1.368 . S
C2292 C2291 1.523 . S
H2293 C2268 0.950 . S
H2294 C2270 0.950 . S
H2295 C2271 0.949 . S
H2296 C2273 0.950 . S
H2297 C2275 0.950 . S
C2298 C2299 1.349 . S
C2298 C2300 1.327 . S
C2298 H2323 0.950 . S
C2299 C2298 1.349 . S
C2299 C2315 1.349 . S
C2300 C2298 1.327 . S
C2300 C2319 1.429 . S
C2300 H2324 0.950 . S
C2301 C2318 1.574 . S
C2301 C2320 1.368 . S
C2301 H2325 0.949 . S
H2302 C2306 0.949 . S
C2303 C2304 1.349 . S
C2303 C2305 1.327 . S
C2303 H2326 0.950 . S
C2304 C2303 1.349 . S
C2304 C2316 1.349 . S
C2305 C2303 1.327 . S
C2305 C2321 1.429 . S
C2305 H2327 0.950 . S
C2306 H2302 0.949 . S
C2306 C2314 1.574 . S
C2306 C2322 1.368 . S
H2307 C2315 0.950 . S
H2308 C2313 0.950 . S
H2309 C2314 0.949 . S
H2310 C2316 0.950 . S
H2311 C2317 0.950 . S
H2312 C2318 0.949 . S
C2313 H2308 0.950 . S
C2313 C2315 1.327 . S
C2313 C2319 1.429 . S
C2314 C2306 1.574 . S
C2314 H2309 0.949 . S
C2314 C2320 1.368 . S
C2315 C2299 1.349 . S
C2315 H2307 0.950 . S
C2315 C2313 1.327 . S
C2316 C2304 1.349 . S
C2316 H2310 0.950 . S
C2316 C2317 1.327 . S
C2317 H2311 0.950 . S
C2317 C2316 1.327 . S
C2317 C2321 1.429 . S
C2318 C2301 1.574 . S
C2318 H2312 0.949 . S
C2318 C2322 1.368 . S
C2319 C2300 1.429 . S
C2319 C2313 1.429 . S
C2319 C2320 1.523 . S
C2320 C2301 1.368 . S
C2320 C2314 1.368 . S
C2320 C2319 1.523 . S
C2321 C2305 1.429 . S
C2321 C2317 1.429 . S
C2321 C2322 1.523 . S
C2322 C2306 1.368 . S
C2322 C2318 1.368 . S
C2322 C2321 1.523 . S
H2323 C2298 0.950 . S
H2324 C2300 0.950 . S
H2325 C2301 0.949 . S
H2326 C2303 0.950 . S
H2327 C2305 0.950 . S
C2328 C2329 1.349 . S
C2328 C2330 1.327 . S
C2328 H2353 0.950 . S
C2329 C2328 1.349 . S
C2329 C2345 1.349 . S
C2330 C2328 1.327 . S
C2330 C2349 1.429 . S
C2330 H2354 0.950 . S
C2331 C2348 1.574 . S
C2331 C2350 1.368 . S
C2331 H2355 0.949 . S
H2332 C2336 0.949 . S
C2333 C2334 1.349 . S
C2333 C2335 1.327 . S
C2333 H2356 0.950 . S
C2334 C2333 1.349 . S
C2334 C2346 1.349 . S
C2335 C2333 1.327 . S
C2335 C2351 1.429 . S
C2335 H2357 0.950 . S
C2336 H2332 0.949 . S
C2336 C2344 1.574 . S
C2336 C2352 1.368 . S
H2337 C2345 0.950 . S
H2338 C2343 0.950 . S
H2339 C2344 0.949 . S
H2340 C2346 0.950 . S
H2341 C2347 0.950 . S
H2342 C2348 0.949 . S
C2343 H2338 0.950 . S
C2343 C2345 1.327 . S
C2343 C2349 1.429 . S
C2344 C2336 1.574 . S
C2344 H2339 0.949 . S
C2344 C2350 1.368 . S
C2345 C2329 1.349 . S
C2345 H2337 0.950 . S
C2345 C2343 1.327 . S
C2346 C2334 1.349 . S
C2346 H2340 0.950 . S
C2346 C2347 1.327 . S
C2347 H2341 0.950 . S
C2347 C2346 1.327 . S
C2347 C2351 1.429 . S
C2348 C2331 1.574 . S
C2348 H2342 0.949 . S
C2348 C2352 1.368 . S
C2349 C2330 1.429 . S
C2349 C2343 1.429 . S
C2349 C2350 1.523 . S
C2350 C2331 1.368 . S
C2350 C2344 1.368 . S
C2350 C2349 1.523 . S
C2351 C2335 1.429 . S
C2351 C2347 1.429 . S
C2351 C2352 1.523 . S
C2352 C2336 1.368 . S
C2352 C2348 1.368 . S
C2352 C2351 1.523 . S
H2353 C2328 0.950 . S
H2354 C2330 0.950 . S
H2355 C2331 0.949 . S
H2356 C2333 0.950 . S
H2357 C2335 0.950 . S
C2358 C2359 1.349 . S
C2358 C2360 1.327 . S
C2358 H2383 0.950 . S
C2359 C2358 1.349 . S
C2359 C2375 1.349 . S
C2360 C2358 1.327 . S
C2360 C2379 1.429 . S
C2360 H2384 0.950 . S
C2361 C2378 1.574 . S
C2361 C2380 1.368 . S
C2361 H2385 0.949 . S
H2362 C2366 0.949 . S
C2363 C2364 1.349 . S
C2363 C2365 1.327 . S
C2363 H2386 0.950 . S
C2364 C2363 1.349 . S
C2364 C2376 1.349 . S
C2365 C2363 1.327 . S
C2365 C2381 1.429 . S
C2365 H2387 0.950 . S
C2366 H2362 0.949 . S
C2366 C2374 1.574 . S
C2366 C2382 1.368 . S
H2367 C2375 0.950 . S
H2368 C2373 0.950 . S
H2369 C2374 0.949 . S
H2370 C2376 0.950 . S
H2371 C2377 0.950 . S
H2372 C2378 0.949 . S
C2373 H2368 0.950 . S
C2373 C2375 1.327 . S
C2373 C2379 1.429 . S
C2374 C2366 1.574 . S
C2374 H2369 0.949 . S
C2374 C2380 1.368 . S
C2375 C2359 1.349 . S
C2375 H2367 0.950 . S
C2375 C2373 1.327 . S
C2376 C2364 1.349 . S
C2376 H2370 0.950 . S
C2376 C2377 1.327 . S
C2377 H2371 0.950 . S
C2377 C2376 1.327 . S
C2377 C2381 1.429 . S
C2378 C2361 1.574 . S
C2378 H2372 0.949 . S
C2378 C2382 1.368 . S
C2379 C2360 1.429 . S
C2379 C2373 1.429 . S
C2379 C2380 1.523 . S
C2380 C2361 1.368 . S
C2380 C2374 1.368 . S
C2380 C2379 1.523 . S
C2381 C2365 1.429 . S
C2381 C2377 1.429 . S
C2381 C2382 1.523 . S
C2382 C2366 1.368 . S
C2382 C2378 1.368 . S
C2382 C2381 1.523 . S
H2383 C2358 0.950 . S
H2384 C2360 0.950 . S
H2385 C2361 0.949 . S
H2386 C2363 0.950 . S
H2387 C2365 0.950 . S
C2388 C2389 1.349 . S
C2388 C2390 1.327 . S
C2388 H2413 0.950 . S
C2389 C2388 1.349 . S
C2389 C2405 1.349 . S
C2390 C2388 1.327 . S
C2390 C2409 1.429 . S
C2390 H2414 0.950 . S
C2391 C2408 1.574 . S
C2391 C2410 1.368 . S
C2391 H2415 0.949 . S
H2392 C2396 0.949 . S
C2393 C2394 1.349 . S
C2393 C2395 1.327 . S
C2393 H2416 0.950 . S
C2394 C2393 1.349 . S
C2394 C2406 1.349 . S
C2395 C2393 1.327 . S
C2395 C2411 1.429 . S
C2395 H2417 0.950 . S
C2396 H2392 0.949 . S
C2396 C2404 1.574 . S
C2396 C2412 1.368 . S
H2397 C2405 0.950 . S
H2398 C2403 0.950 . S
H2399 C2404 0.949 . S
H2400 C2406 0.950 . S
H2401 C2407 0.950 . S
H2402 C2408 0.949 . S
C2403 H2398 0.950 . S
C2403 C2405 1.327 . S
C2403 C2409 1.429 . S
C2404 C2396 1.574 . S
C2404 H2399 0.949 . S
C2404 C2410 1.368 . S
C2405 C2389 1.349 . S
C2405 H2397 0.950 . S
C2405 C2403 1.327 . S
C2406 C2394 1.349 . S
C2406 H2400 0.950 . S
C2406 C2407 1.327 . S
C2407 H2401 0.950 . S
C2407 C2406 1.327 . S
C2407 C2411 1.429 . S
C2408 C2391 1.574 . S
C2408 H2402 0.949 . S
C2408 C2412 1.368 . S
C2409 C2390 1.429 . S
C2409 C2403 1.429 . S
C2409 C2410 1.523 . S
C2410 C2391 1.368 . S
C2410 C2404 1.368 . S
C2410 C2409 1.523 . S
C2411 C2395 1.429 . S
C2411 C2407 1.429 . S
C2411 C2412 1.523 . S
C2412 C2396 1.368 . S
C2412 C2408 1.368 . S
C2412 C2411 1.523 . S
H2413 C2388 0.950 . S
H2414 C2390 0.950 . S
H2415 C2391 0.949 . S
H2416 C2393 0.950 . S
H2417 C2395 0.950 . S
C2418 C2419 1.349 . S
C2418 C2420 1.327 . S
C2418 H2443 0.950 . S
C2419 C2418 1.349 . S
C2419 C2435 1.349 . S
C2420 C2418 1.327 . S
C2420 C2439 1.429 . S
C2420 H2444 0.950 . S
C2421 C2438 1.574 . S
C2421 C2440 1.368 . S
C2421 H2445 0.949 . S
H2422 C2426 0.949 . S
C2423 C2424 1.349 . S
C2423 C2425 1.327 . S
C2423 H2446 0.950 . S
C2424 C2423 1.349 . S
C2424 C2436 1.349 . S
C2425 C2423 1.327 . S
C2425 C2441 1.429 . S
C2425 H2447 0.950 . S
C2426 H2422 0.949 . S
C2426 C2434 1.574 . S
C2426 C2442 1.368 . S
H2427 C2435 0.950 . S
H2428 C2433 0.950 . S
H2429 C2434 0.949 . S
H2430 C2436 0.950 . S
H2431 C2437 0.950 . S
H2432 C2438 0.949 . S
C2433 H2428 0.950 . S
C2433 C2435 1.327 . S
C2433 C2439 1.429 . S
C2434 C2426 1.574 . S
C2434 H2429 0.949 . S
C2434 C2440 1.368 . S
C2435 C2419 1.349 . S
C2435 H2427 0.950 . S
C2435 C2433 1.327 . S
C2436 C2424 1.349 . S
C2436 H2430 0.950 . S
C2436 C2437 1.327 . S
C2437 H2431 0.950 . S
C2437 C2436 1.327 . S
C2437 C2441 1.429 . S
C2438 C2421 1.574 . S
C2438 H2432 0.949 . S
C2438 C2442 1.368 . S
C2439 C2420 1.429 . S
C2439 C2433 1.429 . S
C2439 C2440 1.523 . S
C2440 C2421 1.368 . S
C2440 C2434 1.368 . S
C2440 C2439 1.523 . S
C2441 C2425 1.429 . S
C2441 C2437 1.429 . S
C2441 C2442 1.523 . S
C2442 C2426 1.368 . S
C2442 C2438 1.368 . S
C2442 C2441 1.523 . S
H2443 C2418 0.950 . S
H2444 C2420 0.950 . S
H2445 C2421 0.949 . S
H2446 C2423 0.950 . S
H2447 C2425 0.950 . S
C2448 C2449 1.349 . S
C2448 C2450 1.327 . S
C2448 H2473 0.950 . S
C2449 C2448 1.349 . S
C2449 C2465 1.349 . S
C2450 C2448 1.327 . S
C2450 C2469 1.429 . S
C2450 H2474 0.950 . S
C2451 C2468 1.574 . S
C2451 C2470 1.368 . S
C2451 H2475 0.949 . S
H2452 C2456 0.949 . S
C2453 C2454 1.349 . S
C2453 C2455 1.327 . S
C2453 H2476 0.950 . S
C2454 C2453 1.349 . S
C2454 C2466 1.349 . S
C2455 C2453 1.327 . S
C2455 C2471 1.429 . S
C2455 H2477 0.950 . S
C2456 H2452 0.949 . S
C2456 C2464 1.574 . S
C2456 C2472 1.368 . S
H2457 C2465 0.950 . S
H2458 C2463 0.950 . S
H2459 C2464 0.949 . S
H2460 C2466 0.950 . S
H2461 C2467 0.950 . S
H2462 C2468 0.949 . S
C2463 H2458 0.950 . S
C2463 C2465 1.327 . S
C2463 C2469 1.429 . S
C2464 C2456 1.574 . S
C2464 H2459 0.949 . S
C2464 C2470 1.368 . S
C2465 C2449 1.349 . S
C2465 H2457 0.950 . S
C2465 C2463 1.327 . S
C2466 C2454 1.349 . S
C2466 H2460 0.950 . S
C2466 C2467 1.327 . S
C2467 H2461 0.950 . S
C2467 C2466 1.327 . S
C2467 C2471 1.429 . S
C2468 C2451 1.574 . S
C2468 H2462 0.949 . S
C2468 C2472 1.368 . S
C2469 C2450 1.429 . S
C2469 C2463 1.429 . S
C2469 C2470 1.523 . S
C2470 C2451 1.368 . S
C2470 C2464 1.368 . S
C2470 C2469 1.523 . S
C2471 C2455 1.429 . S
C2471 C2467 1.429 . S
C2471 C2472 1.523 . S
C2472 C2456 1.368 . S
C2472 C2468 1.368 . S
C2472 C2471 1.523 . S
H2473 C2448 0.950 . S
H2474 C2450 0.950 . S
H2475 C2451 0.949 . S
H2476 C2453 0.950 . S
H2477 C2455 0.950 . S
C2478 C2479 1.349 . S
C2478 C2480 1.327 . S
C2478 H2503 0.950 . S
C2479 C2478 1.349 . S
C2479 C2495 1.349 . S
C2480 C2478 1.327 . S
C2480 C2499 1.429 . S
C2480 H2504 0.950 . S
C2481 C2498 1.574 . S
C2481 C2500 1.368 . S
C2481 H2505 0.949 . S
H2482 C2486 0.949 . S
C2483 C2484 1.349 . S
C2483 C2485 1.327 . S
C2483 H2506 0.950 . S
C2484 C2483 1.349 . S
C2484 C2496 1.349 . S
C2485 C2483 1.327 . S
C2485 C2501 1.429 . S
C2485 H2507 0.950 . S
C2486 H2482 0.949 . S
C2486 C2494 1.574 . S
C2486 C2502 1.368 . S
H2487 C2495 0.950 . S
H2488 C2493 0.950 . S
H2489 C2494 0.949 . S
H2490 C2496 0.950 . S
H2491 C2497 0.950 . S
H2492 C2498 0.949 . S
C2493 H2488 0.950 . S
C2493 C2495 1.327 . S
C2493 C2499 1.429 . S
C2494 C2486 1.574 . S
C2494 H2489 0.949 . S
C2494 C2500 1.368 . S
C2495 C2479 1.349 . S
C2495 H2487 0.950 . S
C2495 C2493 1.327 . S
C2496 C2484 1.349 . S
C2496 H2490 0.950 . S
C2496 C2497 1.327 . S
C2497 H2491 0.950 . S
C2497 C2496 1.327 . S
C2497 C2501 1.429 . S
C2498 C2481 1.574 . S
C2498 H2492 0.949 . S
C2498 C2502 1.368 . S
C2499 C2480 1.429 . S
C2499 C2493 1.429 . S
C2499 C2500 1.523 . S
C2500 C2481 1.368 . S
C2500 C2494 1.368 . S
C2500 C2499 1.523 . S
C2501 C2485 1.429 . S
C2501 C2497 1.429 . S
C2501 C2502 1.523 . S
C2502 C2486 1.368 . S
C2502 C2498 1.368 . S
C2502 C2501 1.523 . S
H2503 C2478 0.950 . S
H2504 C2480 0.950 . S
H2505 C2481 0.949 . S
H2506 C2483 0.950 . S
H2507 C2485 0.950 . S
C2508 C2509 1.349 . S
C2508 C2510 1.327 . S
C2508 H2533 0.950 . S
C2509 C2508 1.349 . S
C2509 C2525 1.349 . S
C2510 C2508 1.327 . S
C2510 C2529 1.429 . S
C2510 H2534 0.950 . S
C2511 C2528 1.574 . S
C2511 C2530 1.368 . S
C2511 H2535 0.949 . S
H2512 C2516 0.949 . S
C2513 C2514 1.349 . S
C2513 C2515 1.327 . S
C2513 H2536 0.950 . S
C2514 C2513 1.349 . S
C2514 C2526 1.349 . S
C2515 C2513 1.327 . S
C2515 C2531 1.429 . S
C2515 H2537 0.950 . S
C2516 H2512 0.949 . S
C2516 C2524 1.574 . S
C2516 C2532 1.368 . S
H2517 C2525 0.950 . S
H2518 C2523 0.950 . S
H2519 C2524 0.949 . S
H2520 C2526 0.950 . S
H2521 C2527 0.950 . S
H2522 C2528 0.949 . S
C2523 H2518 0.950 . S
C2523 C2525 1.327 . S
C2523 C2529 1.429 . S
C2524 C2516 1.574 . S
C2524 H2519 0.949 . S
C2524 C2530 1.368 . S
C2525 C2509 1.349 . S
C2525 H2517 0.950 . S
C2525 C2523 1.327 . S
C2526 C2514 1.349 . S
C2526 H2520 0.950 . S
C2526 C2527 1.327 . S
C2527 H2521 0.950 . S
C2527 C2526 1.327 . S
C2527 C2531 1.429 . S
C2528 C2511 1.574 . S
C2528 H2522 0.949 . S
C2528 C2532 1.368 . S
C2529 C2510 1.429 . S
C2529 C2523 1.429 . S
C2529 C2530 1.523 . S
C2530 C2511 1.368 . S
C2530 C2524 1.368 . S
C2530 C2529 1.523 . S
C2531 C2515 1.429 . S
C2531 C2527 1.429 . S
C2531 C2532 1.523 . S
C2532 C2516 1.368 . S
C2532 C2528 1.368 . S
C2532 C2531 1.523 . S
H2533 C2508 0.950 . S
H2534 C2510 0.950 . S
H2535 C2511 0.949 . S
H2536 C2513 0.950 . S
H2537 C2515 0.950 . S
C919 C124 1.406 . S
C924 C229 1.332 . S
C949 C130 1.467 . S
C954 C313 1.396 . S
C979 C115 1.443 . S
C984 C393 1.409 . S
C1009 C106 1.411 . S
C1014 C309 1.379 . S
C1044 C397 1.332 . S
C1039 C85 1.405 . S
C1069 C97 1.367 . S
C1074 C225 1.335 . S
C1104 C218 1.358 . S
C1099 C103 1.434 . S
C1134 C302 1.369 . S
C1129 C88 1.438 . S
C1159 C94 1.441 . S
C1164 C404 1.407 . S
C1189 C121 1.409 . S
C1194 C320 1.377 . S
C1219 C133 1.375 . S
C1224 C386 1.304 . S
C1254 C236 1.362 . S
C1249 C112 1.395 . S
C1284 C481 1.332 . S
C1279 C16 1.406 . S
C1309 C22 1.467 . S
C1314 C565 1.396 . S
C1339 C7 1.442 . S
C1344 C645 1.408 . S
C1369 C160 1.411 . S
C1374 C561 1.379 . S
C1399 C139 1.405 . S
C1404 C649 1.332 . S
C1429 C151 1.368 . S
C1434 C477 1.335 . S
C1459 C157 1.435 . S
C1464 C470 1.359 . S
C1489 C142 1.438 . S
C1494 C554 1.368 . S
C1524 C656 1.408 . S
C1519 C148 1.442 . S
C1549 C13 1.409 . S
C1554 C572 1.377 . S
C1584 C638 1.304 . S
C1579 C25 1.375 . S
C1609 C4 1.395 . S
C1614 C488 1.362 . S
C1644 C733 1.331 . S
C1639 C70 1.405 . S
C1669 C76 1.467 . S
C1674 C817 1.396 . S
C1704 C897 1.409 . S
C1699 C61 1.443 . S
C1734 C813 1.379 . S
C1729 C52 1.411 . S
C1764 C901 1.332 . S
C1759 C31 1.405 . S
C1789 C43 1.367 . S
C1794 C729 1.335 . S
C1819 C49 1.434 . S
C1824 C722 1.359 . S
C1849 C34 1.438 . S
C1854 C806 1.368 . S
C1884 C908 1.407 . S
C1879 C40 1.441 . S
C1909 C67 1.410 . S
C1914 C824 1.378 . S
C1939 C79 1.376 . S
C1944 C890 1.304 . S
C1969 C58 1.395 . S
C1974 C740 1.361 . S
C1999 C140 1.451 . S
C2004 C232 1.333 . S
C2034 C316 1.357 . S
C2029 C149 1.494 . S
C2059 C158 1.488 . S
C2064 C388 1.357 . S
C2089 C59 1.518 . S
C2094 C304 1.379 . S
C2119 C68 1.465 . S
C2124 C400 1.337 . S
C2154 C220 1.334 . S
C2149 C77 1.451 . S
C2179 C32 1.450 . S
C2184 C484 1.333 . S
C2209 C41 1.495 . S
C2214 C568 1.358 . S
C2239 C50 1.487 . S
C2244 C640 1.356 . S
C2269 C113 1.517 . S
C2274 C556 1.378 . S
C2304 C652 1.337 . S
C2299 C122 1.465 . S
C2329 C131 1.451 . S
C2334 C472 1.334 . S
C2359 C86 1.450 . S
C2364 C736 1.333 . S
C2389 C95 1.495 . S
C2394 C820 1.358 . S
C2424 C892 1.357 . S
C2419 C104 1.488 . S
C2449 C5 1.518 . S
C2454 C808 1.378 . S
C2479 C14 1.464 . S
C2484 C904 1.336 . S
C2509 C23 1.451 . S
C2514 C724 1.334 . S
