# Generated by pormake.
# Topology pyr, (3,6)-cn, num edge types: 1
# Building blocks:
#     Node 0, Type 0, BuildingBlock: CUQRIR_clean_linker_1, # of connection points: 3
#     Node 1, Type 0, BuildingBlock: CUQRIR_clean_linker_1, # of connection points: 3
#     Node 2, Type 0, BuildingBlock: CUQRIR_clean_linker_1, # of connection points: 3
#     Node 3, Type 0, BuildingBlock: CUQRIR_clean_linker_1, # of connection points: 3
#     Node 4, Type 0, BuildingBlock: CUQRIR_clean_linker_1, # of connection points: 3
#     Node 5, Type 0, BuildingBlock: CUQRIR_clean_linker_1, # of connection points: 3
#     Node 6, Type 0, BuildingBlock: CUQRIR_clean_linker_1, # of connection points: 3
#     Node 7, Type 0, BuildingBlock: CUQRIR_clean_linker_1, # of connection points: 3
#     Node 8, Type 1, BuildingBlock: PAMTOO_clean_sbu_0, # of connection points: 6
#     Node 9, Type 1, BuildingBlock: PAMTOO_clean_sbu_0, # of connection points: 6
#     Node 10, Type 1, BuildingBlock: PAMTOO_clean_sbu_0, # of connection points: 6
#     Node 11, Type 1, BuildingBlock: PAMTOO_clean_sbu_0, # of connection points: 6
#     Edge 12, Type (0, 1), BuildingBlock: KIFKEQ_clean_linker_1, # of connection points: 2
#     Edge 13, Type (0, 1), BuildingBlock: KIFKEQ_clean_linker_1, # of connection points: 2
#     Edge 14, Type (0, 1), BuildingBlock: KIFKEQ_clean_linker_1, # of connection points: 2
#     Edge 15, Type (0, 1), BuildingBlock: KIFKEQ_clean_linker_1, # of connection points: 2
#     Edge 16, Type (0, 1), BuildingBlock: KIFKEQ_clean_linker_1, # of connection points: 2
#     Edge 17, Type (0, 1), BuildingBlock: KIFKEQ_clean_linker_1, # of connection points: 2
#     Edge 18, Type (0, 1), BuildingBlock: KIFKEQ_clean_linker_1, # of connection points: 2
#     Edge 19, Type (0, 1), BuildingBlock: KIFKEQ_clean_linker_1, # of connection points: 2
#     Edge 20, Type (0, 1), BuildingBlock: KIFKEQ_clean_linker_1, # of connection points: 2
#     Edge 21, Type (0, 1), BuildingBlock: KIFKEQ_clean_linker_1, # of connection points: 2
#     Edge 22, Type (0, 1), BuildingBlock: KIFKEQ_clean_linker_1, # of connection points: 2
#     Edge 23, Type (0, 1), BuildingBlock: KIFKEQ_clean_linker_1, # of connection points: 2
#     Edge 24, Type (0, 1), BuildingBlock: KIFKEQ_clean_linker_1, # of connection points: 2
#     Edge 25, Type (0, 1), BuildingBlock: KIFKEQ_clean_linker_1, # of connection points: 2
#     Edge 26, Type (0, 1), BuildingBlock: KIFKEQ_clean_linker_1, # of connection points: 2
#     Edge 27, Type (0, 1), BuildingBlock: KIFKEQ_clean_linker_1, # of connection points: 2
#     Edge 28, Type (0, 1), BuildingBlock: KIFKEQ_clean_linker_1, # of connection points: 2
#     Edge 29, Type (0, 1), BuildingBlock: KIFKEQ_clean_linker_1, # of connection points: 2
#     Edge 30, Type (0, 1), BuildingBlock: KIFKEQ_clean_linker_1, # of connection points: 2
#     Edge 31, Type (0, 1), BuildingBlock: KIFKEQ_clean_linker_1, # of connection points: 2
#     Edge 32, Type (0, 1), BuildingBlock: KIFKEQ_clean_linker_1, # of connection points: 2
#     Edge 33, Type (0, 1), BuildingBlock: KIFKEQ_clean_linker_1, # of connection points: 2
#     Edge 34, Type (0, 1), BuildingBlock: KIFKEQ_clean_linker_1, # of connection points: 2
#     Edge 35, Type (0, 1), BuildingBlock: KIFKEQ_clean_linker_1, # of connection points: 2
# Relax obj value: 0.188
# Max RMSD: 0.275
# Mean RMSD: 0.167
data_MOF--net-pyr--node1-PAMTOO_clean_sbu_0--node2-CUQRIR_clean_linker_1--edge1-KIFKEQ_clean_linker_1
_symmetry_space_group_name_H-M    P1
_symmetry_Int_Tables_number       1
_symmetry_cell_setting            triclinic
loop_
_symmetry_equiv_pos_as_xyz
'x, y, z'
_cell_length_a     35.607011
_cell_length_b     36.361988
_cell_length_c     35.101653
_cell_angle_alpha  89.325705
_cell_angle_beta   90.399179
_cell_angle_gamma 108.73103
loop_
_atom_site_label
_atom_site_type_symbol
_atom_site_fract_x
_atom_site_fract_y
_atom_site_fract_z
_atom_type_partial_charge
C0 C 0.3533 0.37486 0.26254 0.0
N1 N 0.3779 0.35334 0.26667 0.0
N2 N 0.35031 0.3843 0.22543 0.0
C3 C 0.32694 0.38055 0.29389 0.0
C4 C 0.37392 0.36753 0.20718 0.0
N5 N 0.39046 0.34839 0.23212 0.0
C6 C 0.37984 0.36935 0.16475 0.0
H7 H 0.30449 0.39349 0.28359 0.0
H8 H 0.34559 0.39983 0.3158 0.0
H9 H 0.31137 0.35228 0.3079 0.0
H10 H 0.3779 0.3972 0.15311 0.0
H11 H 0.35606 0.34542 0.15124 0.0
H12 H 0.40899 0.36639 0.15739 0.0
C13 C 0.15593 0.81301 0.73272 0.0
N14 N 0.14697 0.83832 0.756 0.0
N15 N 0.17745 0.79377 0.75136 0.0
C16 C 0.1462 0.8093 0.69089 0.0
C17 C 0.18093 0.80812 0.78713 0.0
N18 N 0.16222 0.8351 0.79004 0.0
C19 C 0.20818 0.80033 0.81703 0.0
H20 H 0.14721 0.78114 0.6799 0.0
H21 H 0.16802 0.83325 0.67506 0.0
H22 H 0.11634 0.81186 0.68572 0.0
H23 H 0.23672 0.80104 0.80403 0.0
H24 H 0.19416 0.77078 0.82911 0.0
H25 H 0.21462 0.82152 0.84054 0.0
C26 C 0.61476 0.39207 0.87372 0.0
N27 N 0.63654 0.38925 0.90491 0.0
N28 N 0.62808 0.42829 0.85826 0.0
C29 C 0.57844 0.36056 0.86017 0.0
C30 C 0.65866 0.44748 0.88125 0.0
N31 N 0.66359 0.42397 0.90985 0.0
C32 C 0.68578 0.48816 0.87374 0.0
H33 H 0.58754 0.34198 0.83974 0.0
H34 H 0.55758 0.37305 0.84546 0.0
H35 H 0.56293 0.34209 0.88434 0.0
H36 H 0.67498 0.50884 0.88981 0.0
H37 H 0.6862 0.4957 0.843 0.0
H38 H 0.71649 0.49153 0.88324 0.0
C39 C 0.83987 0.69666 0.37069 0.0
N40 N 0.87461 0.72351 0.35994 0.0
N41 N 0.82056 0.71161 0.39629 0.0
C42 C 0.82422 0.65616 0.3552 0.0
C43 C 0.84466 0.74854 0.40078 0.0
N44 N 0.87734 0.75611 0.37853 0.0
C45 C 0.83705 0.77683 0.42836 0.0
H46 H 0.82992 0.65625 0.32416 0.0
H47 H 0.79195 0.64302 0.36042 0.0
H48 H 0.84004 0.63795 0.36938 0.0
H49 H 0.86505 0.79586 0.44105 0.0
H50 H 0.81708 0.76154 0.45171 0.0
H51 H 0.82283 0.79559 0.41275 0.0
C52 C 0.65693 0.82024 0.95301 0.0
N53 N 0.68069 0.80994 0.92823 0.0
N54 N 0.63489 0.83917 0.93471 0.0
C55 C 0.65766 0.81508 0.99556 0.0
C56 C 0.64573 0.83947 0.89776 0.0
N57 N 0.67346 0.82163 0.89374 0.0
C58 C 0.63346 0.86204 0.86655 0.0
H59 H 0.62741 0.80854 1.00739 0.0
H60 H 0.67666 0.84255 1.00842 0.0
H61 H 0.66945 0.79128 1.00359 0.0
H62 H 0.65915 0.88762 0.85855 0.0
H63 H 0.60849 0.87193 0.87552 0.0
H64 H 0.62425 0.84374 0.84093 0.0
C65 C 0.8638 0.34688 0.49339 0.0
N66 N 0.88079 0.32979 0.4675 0.0
N67 N 0.8416 0.36614 0.47582 0.0
C68 C 0.86773 0.344 0.53586 0.0
C69 C 0.84538 0.35986 0.43829 0.0
N70 N 0.86939 0.33803 0.43317 0.0
C71 C 0.82034 0.36921 0.40708 0.0
H72 H 0.8433 0.31871 0.54672 0.0
H73 H 0.86532 0.37047 0.54963 0.0
H74 H 0.89645 0.34002 0.54364 0.0
H75 H 0.83971 0.39196 0.3881 0.0
H76 H 0.79659 0.3797 0.41811 0.0
H77 H 0.80631 0.34313 0.38958 0.0
C78 C 0.33913 0.69868 0.27832 0.0
N79 N 0.36931 0.72815 0.29317 0.0
N80 N 0.32146 0.71152 0.24911 0.0
C81 C 0.32736 0.65719 0.29206 0.0
C82 C 0.34167 0.74997 0.24691 0.0
N83 N 0.37066 0.76024 0.27372 0.0
C84 C 0.33288 0.7776 0.21849 0.0
H85 H 0.31256 0.63688 0.26909 0.0
H86 H 0.30643 0.65336 0.31619 0.0
H87 H 0.35359 0.64981 0.30241 0.0
H88 H 0.3408 0.80747 0.22965 0.0
H89 H 0.30103 0.76789 0.21054 0.0
H90 H 0.35064 0.77856 0.19243 0.0
C91 C 0.11423 0.38443 0.78068 0.0
N92 N 0.13623 0.38217 0.74984 0.0
N93 N 0.12678 0.42066 0.79567 0.0
C94 C 0.07909 0.35185 0.79486 0.0
C95 C 0.15734 0.44029 0.77268 0.0
N96 N 0.16288 0.41714 0.74455 0.0
C97 C 0.18402 0.48107 0.77995 0.0
H98 H 0.06427 0.33256 0.77118 0.0
H99 H 0.05735 0.36325 0.80891 0.0
H100 H 0.08948 0.33429 0.81599 0.0
H101 H 0.21486 0.48485 0.77098 0.0
H102 H 0.18415 0.48832 0.81057 0.0
H103 H 0.17305 0.50171 0.76334 0.0
Dy104 Dy 0.06897 0.08136 0.53176 0.0
Dy105 Dy 0.98338 0.05577 0.57399 0.0
C106 C 0.05199 0.13443 0.59768 0.0
O107 O 0.06515 1.02955 0.56827 0.0
O108 O 0.02276 1.03684 0.6138 0.0
O109 O 0.13115 0.08716 0.53533 0.0
O110 O 0.10543 0.09781 0.48161 0.0
O111 O 0.98659 1.00321 0.54251 0.0
O112 O 0.0272 1.03601 0.49487 0.0
O113 O 0.97776 0.08745 0.52056 0.0
O114 O 0.04183 0.12709 0.51548 0.0
O115 O 0.92038 1.02487 0.57082 0.0
O116 O 0.94579 0.05752 0.62124 0.0
C117 C 0.05039 1.02275 0.60276 0.0
O118 O 0.07828 0.12045 0.58257 0.0
O119 O 0.01369 0.11747 0.59219 0.0
C120 C 0.17412 0.13069 0.4921 0.0
C121 C 0.24491 0.18745 0.46888 0.0
C122 C 0.20817 0.19388 0.46424 0.0
C123 C 0.17305 0.16575 0.47581 0.0
C124 C 0.21081 0.12512 0.49871 0.0
C125 C 0.24593 0.15328 0.48731 0.0
C126 C 0.1377 0.09833 0.49988 0.0
C127 C 1.00112 1.00406 0.50804 0.0
C128 C 1.00376 0.12025 0.50929 0.0
C129 C 0.89188 0.99947 0.63021 0.0
C130 C 0.84555 0.93871 0.67756 0.0
C131 C 0.83278 0.94381 0.64042 0.0
C132 C 0.85565 0.97401 0.61708 0.0
C133 C 0.90535 0.99364 0.6668 0.0
C134 C 0.88238 0.96371 0.69023 0.0
C135 C 0.91451 1.03257 0.60605 0.0
H136 H 0.20624 0.21965 0.44972 0.0
H137 H 0.14506 0.17079 0.47064 0.0
H138 H 0.2122 0.09831 0.51148 0.0
H139 H 0.27376 0.14769 0.49171 0.0
H140 H 0.80484 0.9248 0.62954 0.0
H141 H 0.84471 0.97784 0.58892 0.0
H142 H 0.93323 1.01268 0.67778 0.0
H143 H 0.89292 0.96118 0.71883 0.0
Dy144 Dy 0.47834 0.07407 0.09338 0.0
Dy145 Dy 0.56373 0.09554 0.13977 0.0
C146 C 0.48987 1.02068 0.16326 0.0
O147 O 0.48506 0.12879 0.12373 0.0
O148 O 0.53 0.12867 0.17109 0.0
O149 O 0.4148 0.06311 0.09173 0.0
O150 O 0.44849 0.06897 1.03918 0.0
O151 O 0.5699 0.14839 0.10458 0.0
O152 O 0.52497 0.11828 0.05851 0.0
O153 O 0.5678 0.06348 0.08667 0.0
O154 O 0.50277 1.02745 0.0775 0.0
O155 O 0.62713 0.10983 0.13688 0.0
O156 O 0.59724 0.09649 0.19165 0.0
C157 C 0.50353 0.14251 0.15547 0.0
O158 O 0.4649 1.03525 0.14567 0.0
O159 O 0.52829 1.03594 0.15875 0.0
C160 C 0.37913 1.03747 1.03435 0.0
C161 C 0.31073 0.99394 0.99414 0.0
C162 C 0.31754 0.98333 1.03166 0.0
C163 C 0.35147 1.00511 1.05176 0.0
C164 C 0.37253 0.04757 0.99686 0.0
C165 C 0.33886 1.02609 0.97696 0.0
C166 C 0.4138 0.06329 1.05451 0.0
C167 C 0.5543 0.14836 0.07063 0.0
C168 C 0.54061 1.03309 0.07244 0.0
C169 C 0.66523 0.13493 0.19203 0.0
C170 C 0.73454 0.18457 0.22614 0.0
C171 C 0.71876 0.1965 0.19314 0.0
C172 C 0.68433 0.1718 0.17614 0.0
C173 C 0.68068 0.12323 0.22507 0.0
C174 C 0.71487 0.14778 0.24202 0.0
C175 C 0.63106 0.1067 0.17364 0.0
H176 H 0.2964 0.95864 1.04559 0.0
H177 H 0.35586 0.99691 0.0808 0.0
H178 H 0.39339 0.07254 0.98296 0.0
H179 H 0.3351 1.03451 0.94784 0.0
H180 H 0.73322 0.22469 0.18029 0.0
H181 H 0.67296 0.18132 0.15046 0.0
H182 H 0.66641 0.09483 0.23764 0.0
H183 H 0.72558 0.13806 0.26796 0.0
Dy184 Dy 0.48643 0.52724 0.54521 0.0
Dy185 Dy 0.49541 0.60498 0.59509 0.0
C186 C 0.52447 0.53775 0.62928 0.0
O187 O 0.42399 0.51823 0.56366 0.0
O188 O 0.43887 0.56023 0.61419 0.0
O189 O 0.46952 0.46489 0.53924 0.0
O190 O 0.50047 0.50265 0.49353 0.0
O191 O 0.45508 0.6075 0.547 0.0
O192 O 0.47519 0.57087 0.50414 0.0
O193 O 0.54653 0.62136 0.55435 0.0
O194 O 0.55105 0.56061 0.54806 0.0
O195 O 0.50595 0.66671 0.5988 0.0
O196 O 0.49423 0.63097 0.64989 0.0
C197 C 0.41384 0.53145 0.59541 0.0
O198 O 0.50023 0.51401 0.60533 0.0
O199 O 0.53363 0.57552 0.62508 0.0
C200 C 0.52219 0.4502 0.50954 0.0
C201 C 0.59131 0.42808 0.50953 0.0
C202 C 0.5789 0.44153 0.543 0.0
C203 C 0.54485 0.45268 0.54295 0.0
C204 C 0.53369 0.4356 0.47639 0.0
C205 C 0.56796 0.42461 0.47637 0.0
C206 C 0.49021 0.46775 0.50816 0.0
C207 C 0.45919 0.59798 0.51173 0.0
C208 C 0.56614 0.5983 0.54341 0.0
C209 C 0.46358 0.67869 0.64441 0.0
C210 C 0.39777 0.70064 0.66544 0.0
C211 C 0.3956 0.67686 0.63373 0.0
C212 C 0.42814 0.66584 0.62343 0.0
C213 C 0.46609 0.70261 0.67594 0.0
C214 C 0.43335 0.71351 0.68645 0.0
C215 C 0.49649 0.66453 0.6348 0.0
H216 H 0.59645 0.44507 0.56884 0.0
H217 H 0.5371 0.46462 0.56873 0.0
H218 H 0.51693 0.43394 0.45023 0.0
H219 H 0.57655 0.41399 0.45022 0.0
H220 H 0.36843 0.66603 0.61736 0.0
H221 H 0.42541 0.64673 0.5994 0.0
H222 H 0.49311 0.7124 0.69266 0.0
H223 H 0.43588 0.7321 0.71087 0.0
Dy224 Dy 0.99846 0.60435 1.05366 0.0
Dy225 Dy 0.98865 0.52586 0.10558 0.0
C226 C 0.96598 0.59942 0.13906 0.0
O227 O 0.05197 0.61893 0.09139 0.0
O228 O 0.0533 0.55709 0.1007 0.0
O229 O 0.0133 0.66653 1.04744 0.0
O230 O 0.99433 0.62962 0.99841 0.0
O231 O 1.00027 0.51105 1.0456 0.0
O232 O 0.03297 0.57207 1.02268 0.0
O233 O 0.92616 0.51764 0.08814 0.0
O234 O 0.93934 0.56188 1.03844 0.0
O235 O 0.97502 0.46375 0.11293 0.0
O236 O 0.99923 0.50224 0.15983 0.0
C237 C 0.07026 0.59468 0.10289 0.0
O238 O 0.96349 0.61172 0.10408 0.0
O239 O 0.97915 0.57 0.14604 0.0
C240 C 0.97048 0.68217 1.00385 0.0
C241 C 0.9096 0.71359 0.98671 0.0
C242 C 0.90515 0.68646 1.01658 0.0
C243 C 0.93525 0.67081 1.02498 0.0
C244 C 0.97525 0.70925 0.97407 0.0
C245 C 0.94495 0.72484 0.96548 0.0
C246 C 1.0012 0.66431 1.01214 0.0
C247 C 0.02337 0.5341 1.02006 0.0
C248 C 0.91499 0.53262 0.05754 0.0
C249 C 0.0258 0.45228 0.15007 0.0
C250 C 0.09692 0.43498 0.16133 0.0
C251 C 0.08875 0.44955 0.12606 0.0
C252 C 0.05366 0.45829 0.12056 0.0
C253 C 0.03321 0.43668 0.18492 0.0
C254 C 0.06847 0.42806 0.19052 0.0
C255 C 0.99233 0.46753 0.14622 0.0
H256 H 0.87804 0.67675 1.03302 0.0
H257 H 0.93086 0.64949 1.04775 0.0
H258 H 1.0022 0.7181 0.95736 0.0
H259 H 0.94926 0.74586 0.94245 0.0
H260 H 0.11022 0.45573 0.1032 0.0
H261 H 0.049 0.47115 0.09367 0.0
H262 H 0.01237 0.43238 0.2082 0.0
H263 H 0.07375 0.41651 0.21789 0.0
H264 H 0.34893 0.27569 0.26971 0.0
H265 H 0.40394 0.37696 0.33734 0.0
H266 H 0.33223 0.23593 0.32704 0.0
H267 H 0.3865 0.33725 0.39569 0.0
H268 H 0.2698 0.26702 0.46533 0.0
H269 H 0.31823 0.30803 0.42117 0.0
H270 H 0.35035 0.20864 0.38616 0.0
H271 H 0.30091 0.16736 0.42914 0.0
C272 C 0.35912 0.289 0.29693 0.0
C273 C 0.37785 0.32915 0.29935 0.0
C274 C 0.34946 0.26632 0.32988 0.0
C275 C 0.35785 0.28353 0.36596 0.0
C276 C 0.37947 0.32329 0.36827 0.0
C277 C 0.38955 0.34592 0.3351 0.0
C278 C 0.28778 0.2541 0.44878 0.0
C279 C 0.28086 0.21383 0.45011 0.0
C280 C 0.31595 0.27768 0.42384 0.0
C281 C 0.33768 0.26139 0.39981 0.0
C282 C 0.33365 0.22186 0.40403 0.0
C283 C 0.30546 0.19828 0.42889 0.0
H284 H 0.20605 0.91046 0.78884 0.0
H285 H 0.1338 0.81891 0.86106 0.0
H286 H 0.23018 0.95098 0.84423 0.0
H287 H 0.1588 0.85906 0.91739 0.0
H288 H 0.27837 0.91485 0.98959 0.0
H289 H 0.22928 0.87839 0.94346 0.0
H290 H 0.21508 0.9852 0.90134 0.0
H291 H 0.26371 1.02165 0.94783 0.0
C292 C 0.1938 0.89988 0.81647 0.0
C293 C 0.16757 0.86203 0.82081 0.0
C294 C 0.20786 0.92287 0.84833 0.0
C295 C 0.19649 0.90809 0.88519 0.0
C296 C 0.16812 0.8711 0.88932 0.0
C297 C 0.15358 0.84834 0.85727 0.0
C298 C 0.26384 0.93042 0.97136 0.0
C299 C 0.27551 0.97117 0.97181 0.0
C300 C 0.23564 0.90954 0.94496 0.0
C301 C 0.2187 0.92905 0.91854 0.0
C302 C 0.22807 0.96949 0.92104 0.0
C303 C 0.25604 0.99032 0.94752 0.0
H304 H 0.6048 0.49187 0.85502 0.0
H305 H 0.61751 0.39869 0.78728 0.0
H306 H 0.58024 0.51828 0.7993 0.0
H307 H 0.59351 0.42507 0.73104 0.0
H308 H 0.51091 0.46114 0.64815 0.0
H309 H 0.53562 0.43449 0.70325 0.0
H310 H 0.60093 0.55067 0.73967 0.0
H311 H 0.57536 0.57734 0.6851 0.0
C312 C 0.60249 0.47725 0.828 0.0
C313 C 0.613 0.44333 0.82533 0.0
C314 C 0.58861 0.49239 0.79599 0.0
C315 C 0.58496 0.47398 0.76041 0.0
C316 C 0.59537 0.43981 0.75795 0.0
C317 C 0.60918 0.42467 0.79006 0.0
C318 C 0.53057 0.48107 0.66786 0.0
C319 C 0.54093 0.52148 0.66214 0.0
C320 C 0.54499 0.46572 0.69944 0.0
C321 C 0.57025 0.49032 0.72619 0.0
C322 C 0.58101 0.53075 0.72014 0.0
C323 C 0.56654 0.5461 0.6886 0.0
H324 H 0.87069 0.74243 0.28625 0.0
H325 H 0.93005 0.68769 0.36432 0.0
H326 H 0.89435 0.71404 0.23253 0.0
H327 H 0.95602 0.66059 0.31095 0.0
H328 H 0.95325 0.57656 0.21435 0.0
H329 H 0.93687 0.61148 0.26714 0.0
H330 H 0.94083 0.70691 0.19093 0.0
H331 H 0.95512 0.67095 0.13801 0.0
C332 C 0.89065 0.72589 0.29168 0.0
C333 C 0.89939 0.71815 0.3294 0.0
C334 C 0.90408 0.70914 0.26085 0.0
C335 C 0.92696 0.68419 0.26678 0.0
C336 C 0.93775 0.67864 0.30472 0.0
C337 C 0.92378 0.69499 0.3355 0.0
C338 C 0.95044 0.60492 0.20881 0.0
C339 C 0.95528 0.62059 0.17162 0.0
C340 C 0.94144 0.62538 0.23936 0.0
C341 C 0.93755 0.66259 0.234 0.0
C342 C 0.94275 0.67826 0.19668 0.0
C343 C 0.95117 0.65755 0.16606 0.0
H344 H 0.36681 0.28988 0.18201 0.0
H345 H 0.45806 0.34329 0.26401 0.0
H346 H 0.40006 0.24294 0.16676 0.0
H347 H 0.49134 0.29514 0.24949 0.0
H348 H 0.49985 0.16428 0.23048 0.0
H349 H 0.47597 0.21724 0.25219 0.0
H350 H 0.46726 0.25159 0.1352 0.0
H351 H 0.49061 0.19963 0.11384 0.0
C352 C 0.39452 0.29202 0.19615 0.0
C353 C 0.41078 0.32108 0.22303 0.0
C354 C 0.41331 0.26489 0.18784 0.0
C355 C 0.44858 0.26576 0.20659 0.0
C356 C 0.46425 0.29393 0.23458 0.0
C357 C 0.44548 0.32149 0.24266 0.0
C358 C 0.49354 0.18375 0.20967 0.0
C359 C 0.49619 0.17738 0.17052 0.0
C360 C 0.47992 0.21393 0.22201 0.0
C361 C 0.469 0.23789 0.19525 0.0
C362 C 0.47457 0.23303 0.15639 0.0
C363 C 0.48794 0.20322 0.14421 0.0
H364 H 0.19142 0.90143 0.71876 0.0
H365 H 0.07399 0.84487 0.76187 0.0
H366 H 0.1684 0.94975 0.68582 0.0
H367 H 0.04981 0.89235 0.72765 0.0
H368 H 0.02756 1.00166 0.67668 0.0
H369 H 0.05179 0.96049 0.71939 0.0
H370 H 0.12801 0.94512 0.62996 0.0
H371 H 0.10475 0.98658 0.58791 0.0
C372 C 0.16077 0.90013 0.72174 0.0
C373 C 0.13443 0.8701 0.74297 0.0
C374 C 0.14739 0.92731 0.70256 0.0
C375 C 0.1071 0.92452 0.70355 0.0
C376 C 0.08106 0.89546 0.72649 0.0
C377 C 0.09471 0.86836 0.74606 0.0
C378 C 0.04961 0.98957 0.66625 0.0
C379 C 0.06436 0.99759 0.62891 0.0
C380 C 0.06335 0.96588 0.69068 0.0
C381 C 0.09216 0.94988 0.67826 0.0
C382 C 0.10651 0.95769 0.64081 0.0
C383 C 0.0929 0.98128 0.61652 0.0
H384 H 0.71727 0.38769 0.92665 0.0
H385 H 0.67892 0.48407 0.95798 0.0
H386 H 0.77542 0.41185 0.96856 0.0
H387 H 0.73711 0.50878 0.99926 0.0
H388 H 0.87375 0.56717 1.01184 0.0
H389 H 0.80932 0.53757 0.9819 0.0
H390 H 0.79941 0.42843 1.03767 0.0
H391 H 0.8642 0.45829 0.06812 0.0
C392 C 0.72091 0.41354 0.94322 0.0
C393 C 0.69403 0.43433 0.93889 0.0
C394 C 0.75413 0.42743 0.96712 0.0
C395 C 0.76113 0.46253 0.98682 0.0
C396 C 0.7329 0.48202 0.98401 0.0
C397 C 0.69963 0.46793 0.96049 0.0
C398 C 0.85773 0.53695 1.01808 0.0
C399 C 0.87417 0.51509 1.04235 0.0
C400 C 0.82066 0.52003 1.00107 0.0
C401 C 0.79923 0.48064 1.00742 0.0
C402 C 0.81532 0.4588 1.03212 0.0
C403 C 0.85225 0.47597 1.04973 0.0
H404 H 0.80234 0.6479 0.4416 0.0
H405 H 0.75559 0.73403 0.3944 0.0
H406 H 0.74152 0.62003 0.47874 0.0
H407 H 0.69433 0.70614 0.43059 0.0
H408 H 0.60865 0.67487 0.53003 0.0
H409 H 0.67016 0.70104 0.49434 0.0
H410 H 0.67223 0.58457 0.47501 0.0
H411 H 0.61142 0.5585 0.51155 0.0
C412 C 0.77861 0.66035 0.43882 0.0
C413 C 0.78339 0.69296 0.41528 0.0
C414 C 0.74378 0.64452 0.46001 0.0
C415 C 0.71295 0.66098 0.45802 0.0
C416 C 0.71763 0.69314 0.43358 0.0
C417 C 0.75247 0.70895 0.41255 0.0
C418 C 0.62238 0.65484 0.51845 0.0
C419 C 0.60497 0.61457 0.52376 0.0
C420 C 0.65754 0.66984 0.49763 0.0
C421 C 0.67618 0.64497 0.48139 0.0
C422 C 0.65909 0.6047 0.48734 0.0
C423 C 0.62402 0.58972 0.50826 0.0
H424 H 0.28991 0.33939 0.18374 0.0
H425 H 0.3381 0.45332 0.23193 0.0
H426 H 0.22982 0.3537 0.16491 0.0
H427 H 0.27792 0.46822 0.21312 0.0
H428 H 0.14466 0.45457 0.22418 0.0
H429 H 0.20869 0.44519 0.23515 0.0
H430 H 0.20196 0.39367 0.124 0.0
H431 H 0.13731 0.40209 0.11345 0.0
C432 C 0.28795 0.36797 0.18917 0.0
C433 C 0.31846 0.39546 0.20889 0.0
C434 C 0.25358 0.37617 0.17858 0.0
C435 C 0.24895 0.41201 0.18775 0.0
C436 C 0.28037 0.44016 0.20609 0.0
C437 C 0.31488 0.43194 0.21649 0.0
C438 C 0.15667 0.44092 0.20222 0.0
C439 C 0.13575 0.42882 0.16806 0.0
C440 C 0.19365 0.43608 0.20827 0.0
C441 C 0.21055 0.41889 0.18035 0.0
C442 C 0.18967 0.40685 0.14614 0.0
C443 C 0.15275 0.41186 0.14001 0.0
H444 H 0.63249 0.31706 0.8838 0.0
H445 H 0.62556 0.38547 0.98117 0.0
H446 H 0.6149 0.25843 0.9238 0.0
H447 H 0.6081 0.327 1.02162 0.0
H448 H 0.60952 0.21822 0.0884 0.0
H449 H 0.63274 0.27662 1.04878 0.0
H450 H 0.55629 0.21716 0.95737 0.0
H451 H 0.53332 0.15856 0.99679 0.0
C452 C 0.62731 0.31941 0.91389 0.0
C453 C 0.6301 0.3556 0.92943 0.0
C454 C 0.61711 0.28591 0.9368 0.0
C455 C 0.60968 0.28783 0.97592 0.0
C456 C 0.6139 0.32442 0.99169 0.0
C457 C 0.62394 0.35793 0.96865 0.0
C458 C 0.59779 0.21743 0.05976 0.0
C459 C 0.56954 0.1835 1.04583 0.0
C460 C 0.61096 0.2511 1.03712 0.0
C461 C 0.59643 0.25171 0.99984 0.0
C462 C 0.56853 0.21764 0.98576 0.0
C463 C 0.55518 0.18403 1.00847 0.0
H464 H 0.94107 0.76674 0.42335 0.0
H465 H 0.88531 0.82513 0.34527 0.0
H466 H 0.97748 0.829 0.45258 0.0
H467 H 0.92202 0.88769 0.37375 0.0
H468 H 0.00874 0.9979 0.43056 0.0
H469 H 0.98849 0.93891 0.39193 0.0
H470 H 0.94697 0.86989 0.49323 0.0
H471 H 0.96649 0.92865 0.53166 0.0
C472 C 0.93859 0.79324 0.41085 0.0
C473 C 0.9109 0.79111 0.38156 0.0
C474 C 0.95868 0.82884 0.42815 0.0
C475 C 0.95211 0.86335 0.41605 0.0
C476 C 0.9279 0.86179 0.38382 0.0
C477 C 0.90733 0.82603 0.36698 0.0
C478 C 0.99537 0.97013 0.44462 0.0
C479 C 0.98914 0.96818 0.48431 0.0
C480 C 0.98376 0.93631 0.42243 0.0
C481 C 0.96646 0.89952 0.43944 0.0
C482 C 0.96078 0.8976 0.47918 0.0
C483 C 0.97164 0.93141 0.50123 0.0
H484 H 0.18439 0.72409 0.77 0.0
H485 H 0.23109 0.82401 0.69662 0.0
H486 H 0.23577 0.69778 0.74753 0.0
H487 H 0.28173 0.79793 0.67367 0.0
H488 H 0.3489 0.72555 0.61906 0.0
H489 H 0.29099 0.74333 0.63718 0.0
H490 H 0.30999 0.71862 0.75509 0.0
H491 H 0.36751 0.70005 0.73685 0.0
C492 C 0.20516 0.73985 0.74847 0.0
C493 C 0.20354 0.77557 0.73444 0.0
C494 C 0.23459 0.72508 0.73582 0.0
C495 C 0.26267 0.74582 0.7088 0.0
C496 C 0.26011 0.78097 0.69399 0.0
C497 C 0.23101 0.7958 0.70688 0.0
C498 C 0.34046 0.72357 0.6488 0.0
C499 C 0.36277 0.71157 0.67658 0.0
C500 C 0.30747 0.73391 0.65917 0.0
C501 C 0.29597 0.73227 0.69752 0.0
C502 C 0.31792 0.71973 0.72526 0.0
C503 C 0.3511 0.70962 0.71491 0.0
H504 H 0.6543 0.79365 0.82292 0.0
H505 H 0.75078 0.86303 0.89223 0.0
H506 H 0.69629 0.81222 0.76595 0.0
H507 H 0.79312 0.88063 0.83612 0.0
H508 H 0.86684 0.89356 0.73141 0.0
H509 H 0.82539 0.85522 0.78226 0.0
H510 H 0.72362 0.87936 0.73458 0.0
H511 H 0.76493 0.9186 0.68459 0.0
C512 C 0.68479 0.81211 0.82589 0.0
C513 C 0.69957 0.82693 0.86162 0.0
C514 C 0.70873 0.82266 0.79354 0.0
C515 C 0.74794 0.84777 0.79671 0.0
C516 C 0.76326 0.86072 0.83291 0.0
C517 C 0.73915 0.85065 0.86501 0.0
C518 C 0.83557 0.89047 0.73159 0.0
C519 C 0.8194 0.90973 0.70421 0.0
C520 C 0.81185 0.86831 0.76055 0.0
C521 C 0.77141 0.86454 0.76241 0.0
C522 C 0.75463 0.88141 0.73357 0.0
C523 C 0.77839 0.90391 0.70486 0.0
H524 H 0.89438 0.36715 0.36338 0.0
H525 H 0.84192 0.26056 0.42606 0.0
H526 H 0.87554 0.3319 0.30324 0.0
H527 H 0.82487 0.22518 0.36683 0.0
H528 H 0.7963 0.16582 0.25834 0.0
H529 H 0.84554 0.20502 0.3029 0.0
H530 H 0.80252 0.30177 0.28218 0.0
H531 H 0.75278 0.2625 0.23839 0.0
C532 C 0.88047 0.33594 0.36413 0.0
C533 C 0.86965 0.31644 0.39912 0.0
C534 C 0.86967 0.31586 0.32993 0.0
C535 C 0.84868 0.27589 0.33045 0.0
C536 C 0.84157 0.25587 0.36551 0.0
C537 C 0.85156 0.27605 0.39953 0.0
C538 C 0.79783 0.19569 0.2628 0.0
C539 C 0.76999 0.21078 0.24563 0.0
C540 C 0.82622 0.21815 0.28802 0.0
C541 C 0.82755 0.25623 0.29619 0.0
C542 C 0.80241 0.27259 0.27611 0.0
C543 C 0.77379 0.25003 0.25109 0.0
H544 H 0.43905 0.71408 0.295 0.0
H545 H 0.34699 0.72885 0.36559 0.0
H546 H 0.46434 0.68556 0.34911 0.0
H547 H 0.37086 0.69954 0.41955 0.0
H548 H 0.43324 0.66098 0.51739 0.0
H549 H 0.41851 0.70017 0.46647 0.0
H550 H 0.44449 0.62536 0.38308 0.0
H551 H 0.46055 0.5868 0.43425 0.0
C552 C 0.42536 0.7127 0.32266 0.0
C553 C 0.3918 0.72459 0.32652 0.0
C554 C 0.43912 0.69549 0.35349 0.0
C555 C 0.41938 0.68948 0.38888 0.0
C556 C 0.3873 0.70387 0.39315 0.0
C557 C 0.37373 0.72111 0.36235 0.0
C558 C 0.43572 0.65268 0.48822 0.0
C559 C 0.4479 0.62037 0.48012 0.0
C560 C 0.42717 0.67528 0.45885 0.0
C561 C 0.4303 0.66628 0.42033 0.0
C562 C 0.4424 0.63386 0.41224 0.0
C563 C 0.45117 0.61132 0.44168 0.0
H564 H 0.10317 0.48422 0.79635 0.0
H565 H 0.11432 0.39112 0.86758 0.0
H566 H 0.07808 0.51109 0.85038 0.0
H567 H 0.08965 0.41794 0.92218 0.0
H568 H 0.00935 0.45686 1.00395 0.0
H569 H 0.03325 0.42891 0.95008 0.0
H570 H 0.09733 0.54422 0.90872 0.0
H571 H 0.07263 0.57208 0.96198 0.0
C572 C 0.10039 0.46964 0.82376 0.0
C573 C 0.11078 0.43563 0.82773 0.0
C574 C 0.08616 0.48509 0.85489 0.0
C575 C 0.0819 0.467 0.8911 0.0
C576 C 0.09194 0.43259 0.89485 0.0
C577 C 0.10616 0.41714 0.86359 0.0
C578 C 0.02852 0.47632 0.98337 0.0
C579 C 0.03881 0.51686 0.98748 0.0
C580 C 0.04251 0.46022 0.95245 0.0
C581 C 0.06728 0.48411 0.9246 0.0
C582 C 0.0778 0.52468 0.92898 0.0
C583 C 0.06379 0.54076 0.95985 0.0
H584 H 0.56824 0.8229 0.9767 0.0
H585 H 0.66618 0.91652 0.93205 0.0
H586 H 0.54381 0.86997 1.0097 0.0
H587 H 0.64148 0.96376 0.96331 0.0
H588 H 0.61602 1.03221 0.06123 0.0
H589 H 0.63695 0.98448 1.02714 0.0
H590 H 0.51486 0.92175 0.99939 0.0
H591 H 0.49366 0.96917 1.03449 0.0
C592 C 0.58411 0.85364 0.97374 0.0
C593 C 0.61881 0.86642 0.952 0.0
C594 C 0.57015 0.88056 0.99227 0.0
C595 C 0.59084 0.92063 0.98927 0.0
C596 C 0.6252 0.93315 0.96675 0.0
C597 C 0.63913 0.90629 0.94852 0.0
C598 C 0.59357 1.00837 1.04776 0.0
C599 C 0.55317 1.00461 1.0505 0.0
C600 C 0.60561 0.98105 1.02804 0.0
C601 C 0.57759 0.94939 1.01035 0.0
C602 C 0.53714 0.94559 1.01302 0.0
C603 C 0.52504 0.97292 1.03292 0.0
H604 H 0.85771 0.26582 0.51247 0.0
H605 H 0.95041 0.33139 0.43683 0.0
H606 H 0.89003 0.21621 0.51946 0.0
H607 H 0.98273 0.28118 0.4429 0.0
H608 H 0.04511 0.19797 0.50097 0.0
H609 H 0.01733 0.25069 0.49031 0.0
H610 H 0.9007 0.16665 0.47758 0.0
H611 H 0.92813 0.1142 0.48841 0.0
C612 C 0.88556 0.26997 0.49808 0.0
C613 C 0.90209 0.30269 0.47475 0.0
C614 C 0.90372 0.24127 0.50144 0.0
C615 C 0.9388 0.24459 0.48145 0.0
C616 C 0.95589 0.27788 0.45882 0.0
C617 C 0.93751 0.30654 0.45532 0.0
C618 C 0.01368 0.19073 0.49509 0.0
C619 C 0.98883 0.15183 0.49582 0.0
C620 C 0.99776 0.22096 0.4891 0.0
C621 C 0.9567 0.21285 0.48385 0.0
C622 C 0.93231 0.1739 0.48247 0.0
C623 C 0.94814 0.14379 0.48835 0.0
H624 H 0.25027 0.66666 0.27519 0.0
H625 H 0.31648 0.70864 0.17243 0.0
H626 H 0.19091 0.63509 0.23704 0.0
H627 H 0.25669 0.67868 0.1342 0.0
H628 H 0.12384 0.668 0.09782 0.0
H629 H 0.18722 0.69319 0.13165 0.0
H630 H 0.16876 0.58053 0.18335 0.0
H631 H 0.10595 0.55499 0.14911 0.0
C632 C 0.25214 0.66858 0.24442 0.0
C633 C 0.28771 0.6901 0.22664 0.0
C634 C 0.21829 0.65077 0.22265 0.0
C635 C 0.21932 0.65478 0.18277 0.0
C636 C 0.25513 0.67554 0.16493 0.0
C637 C 0.28916 0.69264 0.18669 0.0
C638 C 0.13353 0.64853 0.11605 0.0
C639 C 0.10991 0.60957 0.1208 0.0
C640 C 0.16979 0.66289 0.13526 0.0
C641 C 0.18263 0.63875 0.1601 0.0
C642 C 0.15935 0.5997 0.16445 0.0
C643 C 0.12353 0.58514 0.14469 0.0
H644 H 0.21678 0.38132 0.72772 0.0
H645 H 0.17849 0.47854 0.69648 0.0
H646 H 0.27519 0.4068 0.6865 0.0
H647 H 0.23712 0.50468 0.65624 0.0
H648 H 0.37364 0.56378 0.64343 0.0
H649 H 0.3099 0.53296 0.67419 0.0
H650 H 0.2992 0.42573 0.61687 0.0
H651 H 0.36319 0.4569 0.58541 0.0
C652 C 0.2204 0.40763 0.71132 0.0
C653 C 0.19334 0.42817 0.71554 0.0
C654 C 0.2539 0.42235 0.68786 0.0
C655 C 0.26115 0.45811 0.6685 0.0
C656 C 0.23282 0.47743 0.67122 0.0
C657 C 0.19923 0.46247 0.69418 0.0
C658 C 0.35764 0.53371 0.63707 0.0
C659 C 0.3736 0.51286 0.61187 0.0
C660 C 0.32094 0.51607 0.6546 0.0
C661 C 0.29935 0.47685 0.64799 0.0
C662 C 0.31514 0.45593 0.62266 0.0
C663 C 0.35165 0.47387 0.60445 0.0
H664 H 0.74033 0.84096 0.97784 0.0
H665 H 0.69505 0.7485 0.89742 0.0
H666 H 0.79673 0.81846 0.99161 0.0
H667 H 0.75171 0.72572 0.9108 0.0
H668 H 0.88009 0.72329 0.91648 0.0
H669 H 0.82469 0.74719 0.902 0.0
H670 H 0.80964 0.7624 1.02217 0.0
H671 H 0.8655 0.73951 1.03652 0.0
C672 C 0.74215 0.81526 0.96378 0.0
C673 C 0.713 0.79566 0.93743 0.0
C674 C 0.77448 0.80253 0.9714 0.0
C675 C 0.77851 0.77016 0.95247 0.0
C676 C 0.74953 0.75089 0.92566 0.0
C677 C 0.71707 0.7636 0.91819 0.0
C678 C 0.8652 0.73219 0.93972 0.0
C679 C 0.87708 0.7295 0.97763 0.0
C680 C 0.83324 0.74543 0.93147 0.0
C681 C 0.81273 0.7565 0.96097 0.0
C682 C 0.82502 0.75434 0.99881 0.0
C683 C 0.85679 0.74093 1.00705 0.0
H684 H 0.36146 0.82206 0.30868 0.0
H685 H 0.44156 0.78473 0.23994 0.0
H686 H 0.39331 0.88934 0.28727 0.0
H687 H 0.47393 0.85164 0.21857 0.0
H688 H 0.53408 0.97996 0.19657 0.0
H689 H 0.51173 0.92001 0.23349 0.0
H690 H 0.39067 0.91901 0.22216 0.0
H691 H 0.41305 0.97957 0.1849 0.0
C692 C 0.3875 0.82873 0.29079 0.0
C693 C 0.39946 0.79839 0.27632 0.0
C694 C 0.4051 0.86703 0.27773 0.0
C695 C 0.43562 0.87582 0.25051 0.0
C696 C 0.45053 0.84604 0.23952 0.0
C697 C 0.43251 0.80773 0.25221 0.0
C698 C 0.50262 0.96732 0.20203 0.0
C699 C 0.47535 0.98478 0.1874 0.0
C700 C 0.48986 0.93274 0.22326 0.0
C701 C 0.44945 0.91461 0.23093 0.0
C702 C 0.42213 0.93247 0.21723 0.0
C703 C 0.4349 0.96705 0.19559 0.0
H704 H 0.10596 0.37356 0.67863 0.0
H705 H 0.14969 0.31516 0.76716 0.0
H706 H 0.08644 0.31385 0.6406 0.0
H707 H 0.13114 0.25556 0.72918 0.0
H708 H 0.12479 0.1682 0.63108 0.0
H709 H 0.14792 0.22922 0.66623 0.0
H710 H 0.03463 0.24616 0.64813 0.0
H711 H 0.01124 0.18494 0.61347 0.0
C712 C 0.11205 0.34805 0.68947 0.0
C713 C 0.1296 0.34884 0.7255 0.0
C714 C 0.10061 0.31381 0.66799 0.0
C715 C 0.10711 0.27981 0.68186 0.0
C716 C 0.12594 0.28121 0.71749 0.0
C717 C 0.13661 0.31521 0.73923 0.0
C718 C 0.10474 0.18486 0.63465 0.0
C719 C 0.06602 0.1714 0.61956 0.0
C720 C 0.118 0.21982 0.65489 0.0
C721 C 0.0932 0.24271 0.65994 0.0
C722 C 0.05464 0.22947 0.64451 0.0
C723 C 0.04112 0.19416 0.62489 0.0
H724 H 0.83602 0.43803 0.47253 0.0
H725 H 0.77724 0.32177 0.5133 0.0
H726 H 0.77642 0.45559 0.48574 0.0
H727 H 0.7174 0.3387 0.52636 0.0
H728 H 0.62126 0.38943 0.56317 0.0
H729 H 0.68534 0.37807 0.5626 0.0
H730 H 0.71169 0.43667 0.45351 0.0
H731 H 0.64833 0.44886 0.45456 0.0
C732 C 0.81063 0.41673 0.48551 0.0
C733 C 0.81099 0.37877 0.4922 0.0
C734 C 0.77642 0.42647 0.49259 0.0
C735 C 0.74196 0.39835 0.50655 0.0
C736 C 0.74346 0.3611 0.51584 0.0
C737 C 0.77768 0.3514 0.50861 0.0
C738 C 0.6409 0.40009 0.53921 0.0
C739 C 0.62961 0.41987 0.5088 0.0
C740 C 0.6775 0.39343 0.53881 0.0
C741 C 0.70376 0.40672 0.50816 0.0
C742 C 0.69248 0.42661 0.47787 0.0
C743 C 0.65586 0.43306 0.47816 0.0
loop_
_geom_bond_atom_site_label_1
_geom_bond_atom_site_label_2
_geom_bond_distance
_geom_bond_site_symmetry_2
_ccdc_geom_bond_type
C0 N1 1.317 . S
C0 N2 1.348 . S
C0 C3 1.485 . S
N1 C0 1.317 . S
N1 N5 1.370 . S
N2 C0 1.348 . S
N2 C4 1.346 . S
C3 C0 1.485 . S
C3 H7 0.960 . S
C3 H8 0.961 . S
C3 H9 0.960 . S
C4 N2 1.346 . S
C4 N5 1.307 . S
C4 C6 1.486 . S
N5 N1 1.370 . S
N5 C4 1.307 . S
C6 C4 1.486 . S
C6 H10 0.960 . S
C6 H11 0.960 . S
C6 H12 0.959 . S
H7 C3 0.960 . S
H8 C3 0.961 . S
H9 C3 0.960 . S
H10 C6 0.960 . S
H11 C6 0.960 . S
H12 C6 0.959 . S
C13 N14 1.317 . S
C13 N15 1.348 . S
C13 C16 1.485 . S
N14 C13 1.317 . S
N14 N18 1.370 . S
N15 C13 1.348 . S
N15 C17 1.346 . S
C16 C13 1.485 . S
C16 H20 0.960 . S
C16 H21 0.961 . S
C16 H22 0.960 . S
C17 N15 1.346 . S
C17 N18 1.307 . S
C17 C19 1.486 . S
N18 N14 1.370 . S
N18 C17 1.307 . S
C19 C17 1.486 . S
C19 H23 0.960 . S
C19 H24 0.960 . S
C19 H25 0.959 . S
H20 C16 0.960 . S
H21 C16 0.961 . S
H22 C16 0.960 . S
H23 C19 0.960 . S
H24 C19 0.960 . S
H25 C19 0.959 . S
C26 N27 1.317 . S
C26 N28 1.348 . S
C26 C29 1.485 . S
N27 C26 1.317 . S
N27 N31 1.370 . S
N28 C26 1.348 . S
N28 C30 1.346 . S
C29 C26 1.485 . S
C29 H33 0.960 . S
C29 H34 0.961 . S
C29 H35 0.960 . S
C30 N28 1.346 . S
C30 N31 1.307 . S
C30 C32 1.486 . S
N31 N27 1.370 . S
N31 C30 1.307 . S
C32 C30 1.486 . S
C32 H36 0.960 . S
C32 H37 0.960 . S
C32 H38 0.959 . S
H33 C29 0.960 . S
H34 C29 0.961 . S
H35 C29 0.960 . S
H36 C32 0.960 . S
H37 C32 0.960 . S
H38 C32 0.959 . S
C39 N40 1.317 . S
C39 N41 1.348 . S
C39 C42 1.485 . S
N40 C39 1.317 . S
N40 N44 1.370 . S
N41 C39 1.348 . S
N41 C43 1.346 . S
C42 C39 1.485 . S
C42 H46 0.960 . S
C42 H47 0.961 . S
C42 H48 0.960 . S
C43 N41 1.346 . S
C43 N44 1.307 . S
C43 C45 1.486 . S
N44 N40 1.370 . S
N44 C43 1.307 . S
C45 C43 1.486 . S
C45 H49 0.960 . S
C45 H50 0.960 . S
C45 H51 0.959 . S
H46 C42 0.960 . S
H47 C42 0.961 . S
H48 C42 0.960 . S
H49 C45 0.960 . S
H50 C45 0.960 . S
H51 C45 0.959 . S
C52 N53 1.317 . S
C52 N54 1.348 . S
C52 C55 1.485 . S
N53 C52 1.317 . S
N53 N57 1.370 . S
N54 C52 1.348 . S
N54 C56 1.346 . S
C55 C52 1.485 . S
C55 H59 0.960 . S
C55 H60 0.961 . S
C55 H61 0.960 . S
C56 N54 1.346 . S
C56 N57 1.307 . S
C56 C58 1.486 . S
N57 N53 1.370 . S
N57 C56 1.307 . S
C58 C56 1.486 . S
C58 H62 0.960 . S
C58 H63 0.960 . S
C58 H64 0.959 . S
H59 C55 0.960 . S
H60 C55 0.961 . S
H61 C55 0.960 . S
H62 C58 0.960 . S
H63 C58 0.960 . S
H64 C58 0.959 . S
C65 N66 1.317 . S
C65 N67 1.348 . S
C65 C68 1.485 . S
N66 C65 1.317 . S
N66 N70 1.370 . S
N67 C65 1.348 . S
N67 C69 1.346 . S
C68 C65 1.485 . S
C68 H72 0.960 . S
C68 H73 0.961 . S
C68 H74 0.960 . S
C69 N67 1.346 . S
C69 N70 1.307 . S
C69 C71 1.486 . S
N70 N66 1.370 . S
N70 C69 1.307 . S
C71 C69 1.486 . S
C71 H75 0.960 . S
C71 H76 0.960 . S
C71 H77 0.959 . S
H72 C68 0.960 . S
H73 C68 0.961 . S
H74 C68 0.960 . S
H75 C71 0.960 . S
H76 C71 0.960 . S
H77 C71 0.959 . S
C78 N79 1.317 . S
C78 N80 1.348 . S
C78 C81 1.485 . S
N79 C78 1.317 . S
N79 N83 1.370 . S
N80 C78 1.348 . S
N80 C82 1.346 . S
C81 C78 1.485 . S
C81 H85 0.960 . S
C81 H86 0.961 . S
C81 H87 0.960 . S
C82 N80 1.346 . S
C82 N83 1.307 . S
C82 C84 1.486 . S
N83 N79 1.370 . S
N83 C82 1.307 . S
C84 C82 1.486 . S
C84 H88 0.960 . S
C84 H89 0.960 . S
C84 H90 0.959 . S
H85 C81 0.960 . S
H86 C81 0.961 . S
H87 C81 0.960 . S
H88 C84 0.960 . S
H89 C84 0.960 . S
H90 C84 0.959 . S
C91 N92 1.317 . S
C91 N93 1.348 . S
C91 C94 1.485 . S
N92 C91 1.317 . S
N92 N96 1.370 . S
N93 C91 1.348 . S
N93 C95 1.346 . S
C94 C91 1.485 . S
C94 H98 0.960 . S
C94 H99 0.961 . S
C94 H100 0.960 . S
C95 N93 1.346 . S
C95 N96 1.307 . S
C95 C97 1.486 . S
N96 N92 1.370 . S
N96 C95 1.307 . S
C97 C95 1.486 . S
C97 H101 0.960 . S
C97 H102 0.960 . S
C97 H103 0.959 . S
H98 C94 0.960 . S
H99 C94 0.961 . S
H100 C94 0.960 . S
H101 C97 0.960 . S
H102 C97 0.960 . S
H103 C97 0.959 . S
Dy104 O107 2.307 1_545 S
Dy104 O109 2.395 . S
Dy104 O110 2.379 . S
Dy104 O112 2.339 1_545 S
Dy104 O114 2.298 . S
Dy104 O118 2.275 . S
Dy104 C126 2.738 . S
Dy105 O108 2.298 1_645 S
Dy105 O111 2.275 1_645 S
Dy105 O113 2.307 . S
Dy105 O115 2.395 1_545 S
Dy105 O116 2.379 1_545 S
Dy105 O119 2.339 1_655 S
Dy105 C135 2.738 1_545 S
C106 O118 1.254 . S
C106 O119 1.257 . S
O107 Dy104 2.307 1_565 S
O107 C117 1.266 . S
O108 Dy105 2.298 1_465 S
O108 C117 1.236 . S
O109 Dy104 2.395 . S
O109 C126 1.255 . S
O110 Dy104 2.379 . S
O110 C126 1.249 . S
O111 Dy105 2.275 1_465 S
O111 C127 1.254 . S
O112 Dy104 2.339 1_565 S
O112 C127 1.257 . S
O113 Dy105 2.307 . S
O113 C128 1.266 1_655 S
O114 Dy104 2.298 . S
O114 C128 1.236 . S
O115 Dy105 2.395 1_565 S
O115 C135 1.255 . S
O116 Dy105 2.379 1_565 S
O116 C135 1.249 . S
C117 O107 1.266 . S
C117 O108 1.236 . S
O118 Dy104 2.275 . S
O118 C106 1.254 . S
O119 Dy105 2.339 1_455 S
O119 C106 1.257 . S
C120 C123 1.344 . S
C120 C124 1.328 . S
C120 C126 1.516 . S
C121 C122 1.304 . S
C121 C125 1.323 . S
C122 C121 1.304 . S
C122 C123 1.371 . S
C122 H136 0.930 . S
C123 C120 1.344 . S
C123 C122 1.371 . S
C123 H137 0.931 . S
C124 C120 1.328 . S
C124 C125 1.433 . S
C124 H138 0.931 . S
C125 C121 1.323 . S
C125 C124 1.433 . S
C125 H139 0.933 . S
C126 Dy104 2.738 . S
C126 O109 1.255 . S
C126 O110 1.249 . S
C126 C120 1.516 . S
C127 O111 1.254 . S
C127 O112 1.257 . S
C128 O113 1.266 1_455 S
C128 O114 1.236 . S
C129 C132 1.344 . S
C129 C133 1.328 . S
C129 C135 1.516 . S
C130 C131 1.304 . S
C130 C134 1.323 . S
C131 C130 1.304 . S
C131 C132 1.371 . S
C131 H140 0.930 . S
C132 C129 1.344 . S
C132 C131 1.371 . S
C132 H141 0.931 . S
C133 C129 1.328 . S
C133 C134 1.433 . S
C133 H142 0.931 . S
C134 C130 1.323 . S
C134 C133 1.433 . S
C134 H143 0.933 . S
C135 Dy105 2.738 1_565 S
C135 O115 1.255 . S
C135 O116 1.249 . S
C135 C129 1.516 . S
H136 C122 0.930 . S
H137 C123 0.931 . S
H138 C124 0.931 . S
H139 C125 0.933 . S
H140 C131 0.930 . S
H141 C132 0.931 . S
H142 C133 0.931 . S
H143 C134 0.933 . S
Dy144 O147 2.307 . S
Dy144 O149 2.395 1_545 S
Dy144 O150 2.379 1_554 S
Dy144 O152 2.339 1_554 S
Dy144 O154 2.298 1_545 S
Dy144 O158 2.275 1_545 S
Dy144 C166 2.738 1_544 S
Dy145 O148 2.298 . S
Dy145 O151 2.275 . S
Dy145 O153 2.307 1_545 S
Dy145 O155 2.395 . S
Dy145 O156 2.379 . S
Dy145 O159 2.339 1_545 S
Dy145 C175 2.738 . S
C146 O158 1.254 . S
C146 O159 1.257 . S
O147 Dy144 2.307 . S
O147 C157 1.266 . S
O148 Dy145 2.298 . S
O148 C157 1.236 . S
O149 Dy144 2.395 1_565 S
O149 C166 1.255 1_554 S
O150 Dy144 2.379 1_556 S
O150 C166 1.249 1_545 S
O151 Dy145 2.275 . S
O151 C167 1.254 . S
O152 Dy144 2.339 1_556 S
O152 C167 1.257 1_556 S
O153 Dy145 2.307 1_565 S
O153 C168 1.266 . S
O154 Dy144 2.298 1_565 S
O154 C168 1.236 . S
O155 Dy145 2.395 . S
O155 C175 1.255 . S
O156 Dy145 2.379 . S
O156 C175 1.249 . S
C157 O147 1.266 . S
C157 O148 1.236 . S
O158 Dy144 2.275 1_565 S
O158 C146 1.254 . S
O159 Dy145 2.339 1_565 S
O159 C146 1.257 . S
C160 C163 1.344 . S
C160 C164 1.328 . S
C160 C166 1.516 . S
C161 C162 1.304 . S
C161 C165 1.323 . S
C162 C161 1.304 . S
C162 C163 1.371 . S
C162 H176 0.930 . S
C163 C160 1.344 . S
C163 C162 1.371 . S
C163 H177 0.931 . S
C164 C160 1.328 . S
C164 C165 1.433 . S
C164 H178 0.931 . S
C165 C161 1.323 . S
C165 C164 1.433 . S
C165 H179 0.933 . S
C166 Dy144 2.738 1_566 S
C166 O149 1.255 1_556 S
C166 O150 1.249 1_565 S
C166 C160 1.516 . S
C167 O151 1.254 . S
C167 O152 1.257 1_554 S
C168 O153 1.266 . S
C168 O154 1.236 . S
C169 C172 1.344 . S
C169 C173 1.328 . S
C169 C175 1.516 . S
C170 C171 1.304 . S
C170 C174 1.323 . S
C171 C170 1.304 . S
C171 C172 1.371 . S
C171 H180 0.930 . S
C172 C169 1.344 . S
C172 C171 1.371 . S
C172 H181 0.931 . S
C173 C169 1.328 . S
C173 C174 1.433 . S
C173 H182 0.931 . S
C174 C170 1.323 . S
C174 C173 1.433 . S
C174 H183 0.933 . S
C175 Dy145 2.738 . S
C175 O155 1.255 . S
C175 O156 1.249 . S
C175 C169 1.516 . S
H176 C162 0.930 . S
H177 C163 0.931 . S
H178 C164 0.931 . S
H179 C165 0.933 . S
H180 C171 0.930 . S
H181 C172 0.931 . S
H182 C173 0.931 . S
H183 C174 0.933 . S
Dy184 O187 2.307 . S
Dy184 O189 2.395 . S
Dy184 O190 2.379 . S
Dy184 O192 2.339 . S
Dy184 O194 2.298 . S
Dy184 O198 2.275 . S
Dy184 C206 2.738 . S
Dy185 O188 2.298 . S
Dy185 O191 2.275 . S
Dy185 O193 2.307 . S
Dy185 O195 2.395 . S
Dy185 O196 2.379 . S
Dy185 O199 2.339 . S
Dy185 C215 2.738 . S
C186 O198 1.254 . S
C186 O199 1.257 . S
O187 Dy184 2.307 . S
O187 C197 1.266 . S
O188 Dy185 2.298 . S
O188 C197 1.236 . S
O189 Dy184 2.395 . S
O189 C206 1.255 . S
O190 Dy184 2.379 . S
O190 C206 1.249 . S
O191 Dy185 2.275 . S
O191 C207 1.254 . S
O192 Dy184 2.339 . S
O192 C207 1.257 . S
O193 Dy185 2.307 . S
O193 C208 1.266 . S
O194 Dy184 2.298 . S
O194 C208 1.236 . S
O195 Dy185 2.395 . S
O195 C215 1.255 . S
O196 Dy185 2.379 . S
O196 C215 1.249 . S
C197 O187 1.266 . S
C197 O188 1.236 . S
O198 Dy184 2.275 . S
O198 C186 1.254 . S
O199 Dy185 2.339 . S
O199 C186 1.257 . S
C200 C203 1.344 . S
C200 C204 1.328 . S
C200 C206 1.516 . S
C201 C202 1.304 . S
C201 C205 1.323 . S
C202 C201 1.304 . S
C202 C203 1.371 . S
C202 H216 0.930 . S
C203 C200 1.344 . S
C203 C202 1.371 . S
C203 H217 0.931 . S
C204 C200 1.328 . S
C204 C205 1.433 . S
C204 H218 0.931 . S
C205 C201 1.323 . S
C205 C204 1.433 . S
C205 H219 0.933 . S
C206 Dy184 2.738 . S
C206 O189 1.255 . S
C206 O190 1.249 . S
C206 C200 1.516 . S
C207 O191 1.254 . S
C207 O192 1.257 . S
C208 O193 1.266 . S
C208 O194 1.236 . S
C209 C212 1.344 . S
C209 C213 1.328 . S
C209 C215 1.516 . S
C210 C211 1.304 . S
C210 C214 1.323 . S
C211 C210 1.304 . S
C211 C212 1.371 . S
C211 H220 0.930 . S
C212 C209 1.344 . S
C212 C211 1.371 . S
C212 H221 0.931 . S
C213 C209 1.328 . S
C213 C214 1.433 . S
C213 H222 0.931 . S
C214 C210 1.323 . S
C214 C213 1.433 . S
C214 H223 0.933 . S
C215 Dy185 2.738 . S
C215 O195 1.255 . S
C215 O196 1.249 . S
C215 C209 1.516 . S
H216 C202 0.930 . S
H217 C203 0.931 . S
H218 C204 0.931 . S
H219 C205 0.933 . S
H220 C211 0.930 . S
H221 C212 0.931 . S
H222 C213 0.931 . S
H223 C214 0.933 . S
Dy224 O227 2.307 1_556 S
Dy224 O229 2.395 1_455 S
Dy224 O230 2.379 1_455 S
Dy224 O232 2.339 . S
Dy224 O234 2.298 1_455 S
Dy224 O238 2.275 1_456 S
Dy224 C246 2.738 1_455 S
Dy225 O228 2.298 . S
Dy225 O231 2.275 1_554 S
Dy225 O233 2.307 1_455 S
Dy225 O235 2.395 . S
Dy225 O236 2.379 . S
Dy225 O239 2.339 1_455 S
Dy225 C255 2.738 . S
C226 O238 1.254 . S
C226 O239 1.257 . S
O227 Dy224 2.307 1_554 S
O227 C237 1.266 . S
O228 Dy225 2.298 . S
O228 C237 1.236 . S
O229 Dy224 2.395 1_655 S
O229 C246 1.255 . S
O230 Dy224 2.379 1_655 S
O230 C246 1.249 . S
O231 Dy225 2.275 1_556 S
O231 C247 1.254 . S
O232 Dy224 2.339 . S
O232 C247 1.257 . S
O233 Dy225 2.307 1_655 S
O233 C248 1.266 1_554 S
O234 Dy224 2.298 1_655 S
O234 C248 1.236 . S
O235 Dy225 2.395 . S
O235 C255 1.255 . S
O236 Dy225 2.379 . S
O236 C255 1.249 . S
C237 O227 1.266 . S
C237 O228 1.236 . S
O238 Dy224 2.275 1_654 S
O238 C226 1.254 . S
O239 Dy225 2.339 1_655 S
O239 C226 1.257 . S
C240 C243 1.344 . S
C240 C244 1.328 . S
C240 C246 1.516 . S
C241 C242 1.304 . S
C241 C245 1.323 . S
C242 C241 1.304 . S
C242 C243 1.371 . S
C242 H256 0.930 . S
C243 C240 1.344 . S
C243 C242 1.371 . S
C243 H257 0.931 . S
C244 C240 1.328 . S
C244 C245 1.433 . S
C244 H258 0.931 . S
C245 C241 1.323 . S
C245 C244 1.433 . S
C245 H259 0.933 . S
C246 Dy224 2.738 1_655 S
C246 O229 1.255 . S
C246 O230 1.249 . S
C246 C240 1.516 . S
C247 O231 1.254 . S
C247 O232 1.257 . S
C248 O233 1.266 1_556 S
C248 O234 1.236 . S
C249 C252 1.344 . S
C249 C253 1.328 . S
C249 C255 1.516 . S
C250 C251 1.304 . S
C250 C254 1.323 . S
C251 C250 1.304 . S
C251 C252 1.371 . S
C251 H260 0.930 . S
C252 C249 1.344 . S
C252 C251 1.371 . S
C252 H261 0.931 . S
C253 C249 1.328 . S
C253 C254 1.433 . S
C253 H262 0.931 . S
C254 C250 1.323 . S
C254 C253 1.433 . S
C254 H263 0.933 . S
C255 Dy225 2.738 . S
C255 O235 1.255 . S
C255 O236 1.249 . S
C255 C249 1.516 . S
H256 C242 0.930 . S
H257 C243 0.931 . S
H258 C244 0.931 . S
H259 C245 0.933 . S
H260 C251 0.930 . S
H261 C252 0.931 . S
H262 C253 0.931 . S
H263 C254 0.933 . S
H264 C272 0.950 . S
H265 C277 0.950 . S
H266 C274 0.950 . S
H267 C276 0.950 . S
H268 C278 0.950 . S
H269 C280 0.950 . S
H270 C282 0.950 . S
H271 C283 0.950 . S
C272 H264 0.950 . S
C272 C273 1.386 . S
C272 C274 1.391 . S
C273 C272 1.386 . S
C273 C277 1.393 . S
C274 H266 0.950 . S
C274 C272 1.391 . S
C274 C275 1.400 . S
C275 C274 1.400 . S
C275 C276 1.398 . S
C275 C281 1.491 . S
C276 H267 0.950 . S
C276 C275 1.398 . S
C276 C277 1.391 . S
C277 H265 0.950 . S
C277 C273 1.393 . S
C277 C276 1.391 . S
C278 H268 0.950 . S
C278 C279 1.386 . S
C278 C280 1.391 . S
C279 C278 1.386 . S
C279 C283 1.393 . S
C280 H269 0.950 . S
C280 C278 1.391 . S
C280 C281 1.400 . S
C281 C275 1.491 . S
C281 C280 1.400 . S
C281 C282 1.398 . S
C282 H270 0.950 . S
C282 C281 1.398 . S
C282 C283 1.391 . S
C283 H271 0.950 . S
C283 C279 1.393 . S
C283 C282 1.391 . S
H284 C292 0.950 . S
H285 C297 0.950 . S
H286 C294 0.950 . S
H287 C296 0.950 . S
H288 C298 0.950 . S
H289 C300 0.950 . S
H290 C302 0.950 . S
H291 C303 0.950 . S
C292 H284 0.950 . S
C292 C293 1.386 . S
C292 C294 1.391 . S
C293 C292 1.386 . S
C293 C297 1.393 . S
C294 H286 0.950 . S
C294 C292 1.391 . S
C294 C295 1.400 . S
C295 C294 1.400 . S
C295 C296 1.398 . S
C295 C301 1.491 . S
C296 H287 0.950 . S
C296 C295 1.398 . S
C296 C297 1.391 . S
C297 H285 0.950 . S
C297 C293 1.393 . S
C297 C296 1.391 . S
C298 H288 0.950 . S
C298 C299 1.386 . S
C298 C300 1.391 . S
C299 C298 1.386 . S
C299 C303 1.393 . S
C300 H289 0.950 . S
C300 C298 1.391 . S
C300 C301 1.400 . S
C301 C295 1.491 . S
C301 C300 1.400 . S
C301 C302 1.398 . S
C302 H290 0.950 . S
C302 C301 1.398 . S
C302 C303 1.391 . S
C303 H291 0.950 . S
C303 C299 1.393 . S
C303 C302 1.391 . S
H304 C312 0.950 . S
H305 C317 0.950 . S
H306 C314 0.950 . S
H307 C316 0.950 . S
H308 C318 0.950 . S
H309 C320 0.950 . S
H310 C322 0.950 . S
H311 C323 0.950 . S
C312 H304 0.950 . S
C312 C313 1.386 . S
C312 C314 1.391 . S
C313 C312 1.386 . S
C313 C317 1.393 . S
C314 H306 0.950 . S
C314 C312 1.391 . S
C314 C315 1.400 . S
C315 C314 1.400 . S
C315 C316 1.398 . S
C315 C321 1.491 . S
C316 H307 0.950 . S
C316 C315 1.398 . S
C316 C317 1.391 . S
C317 H305 0.950 . S
C317 C313 1.393 . S
C317 C316 1.391 . S
C318 H308 0.950 . S
C318 C319 1.386 . S
C318 C320 1.391 . S
C319 C318 1.386 . S
C319 C323 1.393 . S
C320 H309 0.950 . S
C320 C318 1.391 . S
C320 C321 1.400 . S
C321 C315 1.491 . S
C321 C320 1.400 . S
C321 C322 1.398 . S
C322 H310 0.950 . S
C322 C321 1.398 . S
C322 C323 1.391 . S
C323 H311 0.950 . S
C323 C319 1.393 . S
C323 C322 1.391 . S
H324 C332 0.950 . S
H325 C337 0.950 . S
H326 C334 0.950 . S
H327 C336 0.950 . S
H328 C338 0.950 . S
H329 C340 0.950 . S
H330 C342 0.950 . S
H331 C343 0.950 . S
C332 H324 0.950 . S
C332 C333 1.386 . S
C332 C334 1.391 . S
C333 C332 1.386 . S
C333 C337 1.393 . S
C334 H326 0.950 . S
C334 C332 1.391 . S
C334 C335 1.400 . S
C335 C334 1.400 . S
C335 C336 1.398 . S
C335 C341 1.491 . S
C336 H327 0.950 . S
C336 C335 1.398 . S
C336 C337 1.391 . S
C337 H325 0.950 . S
C337 C333 1.393 . S
C337 C336 1.391 . S
C338 H328 0.950 . S
C338 C339 1.386 . S
C338 C340 1.391 . S
C339 C338 1.386 . S
C339 C343 1.393 . S
C340 H329 0.950 . S
C340 C338 1.391 . S
C340 C341 1.400 . S
C341 C335 1.491 . S
C341 C340 1.400 . S
C341 C342 1.398 . S
C342 H330 0.950 . S
C342 C341 1.398 . S
C342 C343 1.391 . S
C343 H331 0.950 . S
C343 C339 1.393 . S
C343 C342 1.391 . S
H344 C352 0.950 . S
H345 C357 0.950 . S
H346 C354 0.950 . S
H347 C356 0.950 . S
H348 C358 0.950 . S
H349 C360 0.950 . S
H350 C362 0.950 . S
H351 C363 0.950 . S
C352 H344 0.950 . S
C352 C353 1.386 . S
C352 C354 1.391 . S
C353 C352 1.386 . S
C353 C357 1.393 . S
C354 H346 0.950 . S
C354 C352 1.391 . S
C354 C355 1.400 . S
C355 C354 1.400 . S
C355 C356 1.398 . S
C355 C361 1.491 . S
C356 H347 0.950 . S
C356 C355 1.398 . S
C356 C357 1.391 . S
C357 H345 0.950 . S
C357 C353 1.393 . S
C357 C356 1.391 . S
C358 H348 0.950 . S
C358 C359 1.386 . S
C358 C360 1.391 . S
C359 C358 1.386 . S
C359 C363 1.393 . S
C360 H349 0.950 . S
C360 C358 1.391 . S
C360 C361 1.400 . S
C361 C355 1.491 . S
C361 C360 1.400 . S
C361 C362 1.398 . S
C362 H350 0.950 . S
C362 C361 1.398 . S
C362 C363 1.391 . S
C363 H351 0.950 . S
C363 C359 1.393 . S
C363 C362 1.391 . S
H364 C372 0.950 . S
H365 C377 0.950 . S
H366 C374 0.950 . S
H367 C376 0.950 . S
H368 C378 0.950 . S
H369 C380 0.950 . S
H370 C382 0.950 . S
H371 C383 0.950 . S
C372 H364 0.950 . S
C372 C373 1.386 . S
C372 C374 1.391 . S
C373 C372 1.386 . S
C373 C377 1.393 . S
C374 H366 0.950 . S
C374 C372 1.391 . S
C374 C375 1.400 . S
C375 C374 1.400 . S
C375 C376 1.398 . S
C375 C381 1.491 . S
C376 H367 0.950 . S
C376 C375 1.398 . S
C376 C377 1.391 . S
C377 H365 0.950 . S
C377 C373 1.393 . S
C377 C376 1.391 . S
C378 H368 0.950 . S
C378 C379 1.386 . S
C378 C380 1.391 . S
C379 C378 1.386 . S
C379 C383 1.393 . S
C380 H369 0.950 . S
C380 C378 1.391 . S
C380 C381 1.400 . S
C381 C375 1.491 . S
C381 C380 1.400 . S
C381 C382 1.398 . S
C382 H370 0.950 . S
C382 C381 1.398 . S
C382 C383 1.391 . S
C383 H371 0.950 . S
C383 C379 1.393 . S
C383 C382 1.391 . S
H384 C392 0.950 . S
H385 C397 0.950 . S
H386 C394 0.950 . S
H387 C396 0.950 . S
H388 C398 0.950 . S
H389 C400 0.950 . S
H390 C402 0.950 . S
H391 C403 0.950 . S
C392 H384 0.950 . S
C392 C393 1.386 . S
C392 C394 1.391 . S
C393 C392 1.386 . S
C393 C397 1.393 . S
C394 H386 0.950 . S
C394 C392 1.391 . S
C394 C395 1.400 . S
C395 C394 1.400 . S
C395 C396 1.398 . S
C395 C401 1.491 . S
C396 H387 0.950 . S
C396 C395 1.398 . S
C396 C397 1.391 . S
C397 H385 0.950 . S
C397 C393 1.393 . S
C397 C396 1.391 . S
C398 H388 0.950 . S
C398 C399 1.386 . S
C398 C400 1.391 . S
C399 C398 1.386 . S
C399 C403 1.393 . S
C400 H389 0.950 . S
C400 C398 1.391 . S
C400 C401 1.400 . S
C401 C395 1.491 . S
C401 C400 1.400 . S
C401 C402 1.398 . S
C402 H390 0.950 . S
C402 C401 1.398 . S
C402 C403 1.391 . S
C403 H391 0.950 . S
C403 C399 1.393 . S
C403 C402 1.391 . S
H404 C412 0.950 . S
H405 C417 0.950 . S
H406 C414 0.950 . S
H407 C416 0.950 . S
H408 C418 0.950 . S
H409 C420 0.950 . S
H410 C422 0.950 . S
H411 C423 0.950 . S
C412 H404 0.950 . S
C412 C413 1.386 . S
C412 C414 1.391 . S
C413 C412 1.386 . S
C413 C417 1.393 . S
C414 H406 0.950 . S
C414 C412 1.391 . S
C414 C415 1.400 . S
C415 C414 1.400 . S
C415 C416 1.398 . S
C415 C421 1.491 . S
C416 H407 0.950 . S
C416 C415 1.398 . S
C416 C417 1.391 . S
C417 H405 0.950 . S
C417 C413 1.393 . S
C417 C416 1.391 . S
C418 H408 0.950 . S
C418 C419 1.386 . S
C418 C420 1.391 . S
C419 C418 1.386 . S
C419 C423 1.393 . S
C420 H409 0.950 . S
C420 C418 1.391 . S
C420 C421 1.400 . S
C421 C415 1.491 . S
C421 C420 1.400 . S
C421 C422 1.398 . S
C422 H410 0.950 . S
C422 C421 1.398 . S
C422 C423 1.391 . S
C423 H411 0.950 . S
C423 C419 1.393 . S
C423 C422 1.391 . S
H424 C432 0.950 . S
H425 C437 0.950 . S
H426 C434 0.950 . S
H427 C436 0.950 . S
H428 C438 0.950 . S
H429 C440 0.950 . S
H430 C442 0.950 . S
H431 C443 0.950 . S
C432 H424 0.950 . S
C432 C433 1.386 . S
C432 C434 1.391 . S
C433 C432 1.386 . S
C433 C437 1.393 . S
C434 H426 0.950 . S
C434 C432 1.391 . S
C434 C435 1.400 . S
C435 C434 1.400 . S
C435 C436 1.398 . S
C435 C441 1.491 . S
C436 H427 0.950 . S
C436 C435 1.398 . S
C436 C437 1.391 . S
C437 H425 0.950 . S
C437 C433 1.393 . S
C437 C436 1.391 . S
C438 H428 0.950 . S
C438 C439 1.386 . S
C438 C440 1.391 . S
C439 C438 1.386 . S
C439 C443 1.393 . S
C440 H429 0.950 . S
C440 C438 1.391 . S
C440 C441 1.400 . S
C441 C435 1.491 . S
C441 C440 1.400 . S
C441 C442 1.398 . S
C442 H430 0.950 . S
C442 C441 1.398 . S
C442 C443 1.391 . S
C443 H431 0.950 . S
C443 C439 1.393 . S
C443 C442 1.391 . S
H444 C452 0.950 . S
H445 C457 0.950 . S
H446 C454 0.950 . S
H447 C456 0.950 . S
H448 C458 0.950 . S
H449 C460 0.950 . S
H450 C462 0.950 . S
H451 C463 0.950 . S
C452 H444 0.950 . S
C452 C453 1.386 . S
C452 C454 1.391 . S
C453 C452 1.386 . S
C453 C457 1.393 . S
C454 H446 0.950 . S
C454 C452 1.391 . S
C454 C455 1.400 . S
C455 C454 1.400 . S
C455 C456 1.398 . S
C455 C461 1.491 . S
C456 H447 0.950 . S
C456 C455 1.398 . S
C456 C457 1.391 . S
C457 H445 0.950 . S
C457 C453 1.393 . S
C457 C456 1.391 . S
C458 H448 0.950 . S
C458 C459 1.386 1_554 S
C458 C460 1.391 1_554 S
C459 C458 1.386 1_556 S
C459 C463 1.393 . S
C460 H449 0.950 . S
C460 C458 1.391 1_556 S
C460 C461 1.400 . S
C461 C455 1.491 . S
C461 C460 1.400 . S
C461 C462 1.398 . S
C462 H450 0.950 . S
C462 C461 1.398 . S
C462 C463 1.391 . S
C463 H451 0.950 . S
C463 C459 1.393 . S
C463 C462 1.391 . S
H464 C472 0.950 . S
H465 C477 0.950 . S
H466 C474 0.950 . S
H467 C476 0.950 . S
H468 C478 0.950 1_455 S
H469 C480 0.950 . S
H470 C482 0.950 . S
H471 C483 0.950 . S
C472 H464 0.950 . S
C472 C473 1.386 . S
C472 C474 1.391 . S
C473 C472 1.386 . S
C473 C477 1.393 . S
C474 H466 0.950 . S
C474 C472 1.391 . S
C474 C475 1.400 . S
C475 C474 1.400 . S
C475 C476 1.398 . S
C475 C481 1.491 . S
C476 H467 0.950 . S
C476 C475 1.398 . S
C476 C477 1.391 . S
C477 H465 0.950 . S
C477 C473 1.393 . S
C477 C476 1.391 . S
C478 H468 0.950 1_655 S
C478 C479 1.386 . S
C478 C480 1.391 . S
C479 C478 1.386 . S
C479 C483 1.393 . S
C480 H469 0.950 . S
C480 C478 1.391 . S
C480 C481 1.400 . S
C481 C475 1.491 . S
C481 C480 1.400 . S
C481 C482 1.398 . S
C482 H470 0.950 . S
C482 C481 1.398 . S
C482 C483 1.391 . S
C483 H471 0.950 . S
C483 C479 1.393 . S
C483 C482 1.391 . S
H484 C492 0.950 . S
H485 C497 0.950 . S
H486 C494 0.950 . S
H487 C496 0.950 . S
H488 C498 0.950 . S
H489 C500 0.950 . S
H490 C502 0.950 . S
H491 C503 0.950 . S
C492 H484 0.950 . S
C492 C493 1.386 . S
C492 C494 1.391 . S
C493 C492 1.386 . S
C493 C497 1.393 . S
C494 H486 0.950 . S
C494 C492 1.391 . S
C494 C495 1.400 . S
C495 C494 1.400 . S
C495 C496 1.398 . S
C495 C501 1.491 . S
C496 H487 0.950 . S
C496 C495 1.398 . S
C496 C497 1.391 . S
C497 H485 0.950 . S
C497 C493 1.393 . S
C497 C496 1.391 . S
C498 H488 0.950 . S
C498 C499 1.386 . S
C498 C500 1.391 . S
C499 C498 1.386 . S
C499 C503 1.393 . S
C500 H489 0.950 . S
C500 C498 1.391 . S
C500 C501 1.400 . S
C501 C495 1.491 . S
C501 C500 1.400 . S
C501 C502 1.398 . S
C502 H490 0.950 . S
C502 C501 1.398 . S
C502 C503 1.391 . S
C503 H491 0.950 . S
C503 C499 1.393 . S
C503 C502 1.391 . S
H504 C512 0.950 . S
H505 C517 0.950 . S
H506 C514 0.950 . S
H507 C516 0.950 . S
H508 C518 0.950 . S
H509 C520 0.950 . S
H510 C522 0.950 . S
H511 C523 0.950 . S
C512 H504 0.950 . S
C512 C513 1.386 . S
C512 C514 1.391 . S
C513 C512 1.386 . S
C513 C517 1.393 . S
C514 H506 0.950 . S
C514 C512 1.391 . S
C514 C515 1.400 . S
C515 C514 1.400 . S
C515 C516 1.398 . S
C515 C521 1.491 . S
C516 H507 0.950 . S
C516 C515 1.398 . S
C516 C517 1.391 . S
C517 H505 0.950 . S
C517 C513 1.393 . S
C517 C516 1.391 . S
C518 H508 0.950 . S
C518 C519 1.386 . S
C518 C520 1.391 . S
C519 C518 1.386 . S
C519 C523 1.393 . S
C520 H509 0.950 . S
C520 C518 1.391 . S
C520 C521 1.400 . S
C521 C515 1.491 . S
C521 C520 1.400 . S
C521 C522 1.398 . S
C522 H510 0.950 . S
C522 C521 1.398 . S
C522 C523 1.391 . S
C523 H511 0.950 . S
C523 C519 1.393 . S
C523 C522 1.391 . S
H524 C532 0.950 . S
H525 C537 0.950 . S
H526 C534 0.950 . S
H527 C536 0.950 . S
H528 C538 0.950 . S
H529 C540 0.950 . S
H530 C542 0.950 . S
H531 C543 0.950 . S
C532 H524 0.950 . S
C532 C533 1.386 . S
C532 C534 1.391 . S
C533 C532 1.386 . S
C533 C537 1.393 . S
C534 H526 0.950 . S
C534 C532 1.391 . S
C534 C535 1.400 . S
C535 C534 1.400 . S
C535 C536 1.398 . S
C535 C541 1.491 . S
C536 H527 0.950 . S
C536 C535 1.398 . S
C536 C537 1.391 . S
C537 H525 0.950 . S
C537 C533 1.393 . S
C537 C536 1.391 . S
C538 H528 0.950 . S
C538 C539 1.386 . S
C538 C540 1.391 . S
C539 C538 1.386 . S
C539 C543 1.393 . S
C540 H529 0.950 . S
C540 C538 1.391 . S
C540 C541 1.400 . S
C541 C535 1.491 . S
C541 C540 1.400 . S
C541 C542 1.398 . S
C542 H530 0.950 . S
C542 C541 1.398 . S
C542 C543 1.391 . S
C543 H531 0.950 . S
C543 C539 1.393 . S
C543 C542 1.391 . S
H544 C552 0.950 . S
H545 C557 0.950 . S
H546 C554 0.950 . S
H547 C556 0.950 . S
H548 C558 0.950 . S
H549 C560 0.950 . S
H550 C562 0.950 . S
H551 C563 0.950 . S
C552 H544 0.950 . S
C552 C553 1.386 . S
C552 C554 1.391 . S
C553 C552 1.386 . S
C553 C557 1.393 . S
C554 H546 0.950 . S
C554 C552 1.391 . S
C554 C555 1.400 . S
C555 C554 1.400 . S
C555 C556 1.398 . S
C555 C561 1.491 . S
C556 H547 0.950 . S
C556 C555 1.398 . S
C556 C557 1.391 . S
C557 H545 0.950 . S
C557 C553 1.393 . S
C557 C556 1.391 . S
C558 H548 0.950 . S
C558 C559 1.386 . S
C558 C560 1.391 . S
C559 C558 1.386 . S
C559 C563 1.393 . S
C560 H549 0.950 . S
C560 C558 1.391 . S
C560 C561 1.400 . S
C561 C555 1.491 . S
C561 C560 1.400 . S
C561 C562 1.398 . S
C562 H550 0.950 . S
C562 C561 1.398 . S
C562 C563 1.391 . S
C563 H551 0.950 . S
C563 C559 1.393 . S
C563 C562 1.391 . S
H564 C572 0.950 . S
H565 C577 0.950 . S
H566 C574 0.950 . S
H567 C576 0.950 . S
H568 C578 0.950 . S
H569 C580 0.950 . S
H570 C582 0.950 . S
H571 C583 0.950 . S
C572 H564 0.950 . S
C572 C573 1.386 . S
C572 C574 1.391 . S
C573 C572 1.386 . S
C573 C577 1.393 . S
C574 H566 0.950 . S
C574 C572 1.391 . S
C574 C575 1.400 . S
C575 C574 1.400 . S
C575 C576 1.398 . S
C575 C581 1.491 . S
C576 H567 0.950 . S
C576 C575 1.398 . S
C576 C577 1.391 . S
C577 H565 0.950 . S
C577 C573 1.393 . S
C577 C576 1.391 . S
C578 H568 0.950 . S
C578 C579 1.386 . S
C578 C580 1.391 . S
C579 C578 1.386 . S
C579 C583 1.393 . S
C580 H569 0.950 . S
C580 C578 1.391 . S
C580 C581 1.400 . S
C581 C575 1.491 . S
C581 C580 1.400 . S
C581 C582 1.398 . S
C582 H570 0.950 . S
C582 C581 1.398 . S
C582 C583 1.391 . S
C583 H571 0.950 . S
C583 C579 1.393 . S
C583 C582 1.391 . S
H584 C592 0.950 . S
H585 C597 0.950 . S
H586 C594 0.950 . S
H587 C596 0.950 . S
H588 C598 0.950 . S
H589 C600 0.950 . S
H590 C602 0.950 . S
H591 C603 0.950 . S
C592 H584 0.950 . S
C592 C593 1.386 . S
C592 C594 1.391 . S
C593 C592 1.386 . S
C593 C597 1.393 . S
C594 H586 0.950 . S
C594 C592 1.391 . S
C594 C595 1.400 . S
C595 C594 1.400 . S
C595 C596 1.398 . S
C595 C601 1.491 . S
C596 H587 0.950 . S
C596 C595 1.398 . S
C596 C597 1.391 . S
C597 H585 0.950 . S
C597 C593 1.393 . S
C597 C596 1.391 . S
C598 H588 0.950 . S
C598 C599 1.386 . S
C598 C600 1.391 . S
C599 C598 1.386 . S
C599 C603 1.393 . S
C600 H589 0.950 . S
C600 C598 1.391 . S
C600 C601 1.400 . S
C601 C595 1.491 . S
C601 C600 1.400 . S
C601 C602 1.398 . S
C602 H590 0.950 . S
C602 C601 1.398 . S
C602 C603 1.391 . S
C603 H591 0.950 . S
C603 C599 1.393 . S
C603 C602 1.391 . S
H604 C612 0.950 . S
H605 C617 0.950 . S
H606 C614 0.950 . S
H607 C616 0.950 . S
H608 C618 0.950 . S
H609 C620 0.950 1_455 S
H610 C622 0.950 . S
H611 C623 0.950 . S
C612 H604 0.950 . S
C612 C613 1.386 . S
C612 C614 1.391 . S
C613 C612 1.386 . S
C613 C617 1.393 . S
C614 H606 0.950 . S
C614 C612 1.391 . S
C614 C615 1.400 . S
C615 C614 1.400 . S
C615 C616 1.398 . S
C615 C621 1.491 . S
C616 H607 0.950 . S
C616 C615 1.398 . S
C616 C617 1.391 . S
C617 H605 0.950 . S
C617 C613 1.393 . S
C617 C616 1.391 . S
C618 H608 0.950 . S
C618 C619 1.386 1_455 S
C618 C620 1.391 1_455 S
C619 C618 1.386 1_655 S
C619 C623 1.393 . S
C620 H609 0.950 1_655 S
C620 C618 1.391 1_655 S
C620 C621 1.400 . S
C621 C615 1.491 . S
C621 C620 1.400 . S
C621 C622 1.398 . S
C622 H610 0.950 . S
C622 C621 1.398 . S
C622 C623 1.391 . S
C623 H611 0.950 . S
C623 C619 1.393 . S
C623 C622 1.391 . S
H624 C632 0.950 . S
H625 C637 0.950 . S
H626 C634 0.950 . S
H627 C636 0.950 . S
H628 C638 0.950 . S
H629 C640 0.950 . S
H630 C642 0.950 . S
H631 C643 0.950 . S
C632 H624 0.950 . S
C632 C633 1.386 . S
C632 C634 1.391 . S
C633 C632 1.386 . S
C633 C637 1.393 . S
C634 H626 0.950 . S
C634 C632 1.391 . S
C634 C635 1.400 . S
C635 C634 1.400 . S
C635 C636 1.398 . S
C635 C641 1.491 . S
C636 H627 0.950 . S
C636 C635 1.398 . S
C636 C637 1.391 . S
C637 H625 0.950 . S
C637 C633 1.393 . S
C637 C636 1.391 . S
C638 H628 0.950 . S
C638 C639 1.386 . S
C638 C640 1.391 . S
C639 C638 1.386 . S
C639 C643 1.393 . S
C640 H629 0.950 . S
C640 C638 1.391 . S
C640 C641 1.400 . S
C641 C635 1.491 . S
C641 C640 1.400 . S
C641 C642 1.398 . S
C642 H630 0.950 . S
C642 C641 1.398 . S
C642 C643 1.391 . S
C643 H631 0.950 . S
C643 C639 1.393 . S
C643 C642 1.391 . S
H644 C652 0.950 . S
H645 C657 0.950 . S
H646 C654 0.950 . S
H647 C656 0.950 . S
H648 C658 0.950 . S
H649 C660 0.950 . S
H650 C662 0.950 . S
H651 C663 0.950 . S
C652 H644 0.950 . S
C652 C653 1.386 . S
C652 C654 1.391 . S
C653 C652 1.386 . S
C653 C657 1.393 . S
C654 H646 0.950 . S
C654 C652 1.391 . S
C654 C655 1.400 . S
C655 C654 1.400 . S
C655 C656 1.398 . S
C655 C661 1.491 . S
C656 H647 0.950 . S
C656 C655 1.398 . S
C656 C657 1.391 . S
C657 H645 0.950 . S
C657 C653 1.393 . S
C657 C656 1.391 . S
C658 H648 0.950 . S
C658 C659 1.386 . S
C658 C660 1.391 . S
C659 C658 1.386 . S
C659 C663 1.393 . S
C660 H649 0.950 . S
C660 C658 1.391 . S
C660 C661 1.400 . S
C661 C655 1.491 . S
C661 C660 1.400 . S
C661 C662 1.398 . S
C662 H650 0.950 . S
C662 C661 1.398 . S
C662 C663 1.391 . S
C663 H651 0.950 . S
C663 C659 1.393 . S
C663 C662 1.391 . S
H664 C672 0.950 . S
H665 C677 0.950 . S
H666 C674 0.950 . S
H667 C676 0.950 . S
H668 C678 0.950 . S
H669 C680 0.950 . S
H670 C682 0.950 . S
H671 C683 0.950 . S
C672 H664 0.950 . S
C672 C673 1.386 . S
C672 C674 1.391 . S
C673 C672 1.386 . S
C673 C677 1.393 . S
C674 H666 0.950 . S
C674 C672 1.391 . S
C674 C675 1.400 . S
C675 C674 1.400 . S
C675 C676 1.398 . S
C675 C681 1.491 . S
C676 H667 0.950 . S
C676 C675 1.398 . S
C676 C677 1.391 . S
C677 H665 0.950 . S
C677 C673 1.393 . S
C677 C676 1.391 . S
C678 H668 0.950 . S
C678 C679 1.386 . S
C678 C680 1.391 . S
C679 C678 1.386 . S
C679 C683 1.393 . S
C680 H669 0.950 . S
C680 C678 1.391 . S
C680 C681 1.400 . S
C681 C675 1.491 . S
C681 C680 1.400 . S
C681 C682 1.398 . S
C682 H670 0.950 . S
C682 C681 1.398 . S
C682 C683 1.391 . S
C683 H671 0.950 . S
C683 C679 1.393 . S
C683 C682 1.391 . S
H684 C692 0.950 . S
H685 C697 0.950 . S
H686 C694 0.950 . S
H687 C696 0.950 . S
H688 C698 0.950 . S
H689 C700 0.950 . S
H690 C702 0.950 . S
H691 C703 0.950 . S
C692 H684 0.950 . S
C692 C693 1.386 . S
C692 C694 1.391 . S
C693 C692 1.386 . S
C693 C697 1.393 . S
C694 H686 0.950 . S
C694 C692 1.391 . S
C694 C695 1.400 . S
C695 C694 1.400 . S
C695 C696 1.398 . S
C695 C701 1.491 . S
C696 H687 0.950 . S
C696 C695 1.398 . S
C696 C697 1.391 . S
C697 H685 0.950 . S
C697 C693 1.393 . S
C697 C696 1.391 . S
C698 H688 0.950 . S
C698 C699 1.386 . S
C698 C700 1.391 . S
C699 C698 1.386 . S
C699 C703 1.393 . S
C700 H689 0.950 . S
C700 C698 1.391 . S
C700 C701 1.400 . S
C701 C695 1.491 . S
C701 C700 1.400 . S
C701 C702 1.398 . S
C702 H690 0.950 . S
C702 C701 1.398 . S
C702 C703 1.391 . S
C703 H691 0.950 . S
C703 C699 1.393 . S
C703 C702 1.391 . S
H704 C712 0.950 . S
H705 C717 0.950 . S
H706 C714 0.950 . S
H707 C716 0.950 . S
H708 C718 0.950 . S
H709 C720 0.950 . S
H710 C722 0.950 . S
H711 C723 0.950 . S
C712 H704 0.950 . S
C712 C713 1.386 . S
C712 C714 1.391 . S
C713 C712 1.386 . S
C713 C717 1.393 . S
C714 H706 0.950 . S
C714 C712 1.391 . S
C714 C715 1.400 . S
C715 C714 1.400 . S
C715 C716 1.398 . S
C715 C721 1.491 . S
C716 H707 0.950 . S
C716 C715 1.398 . S
C716 C717 1.391 . S
C717 H705 0.950 . S
C717 C713 1.393 . S
C717 C716 1.391 . S
C718 H708 0.950 . S
C718 C719 1.386 . S
C718 C720 1.391 . S
C719 C718 1.386 . S
C719 C723 1.393 . S
C720 H709 0.950 . S
C720 C718 1.391 . S
C720 C721 1.400 . S
C721 C715 1.491 . S
C721 C720 1.400 . S
C721 C722 1.398 . S
C722 H710 0.950 . S
C722 C721 1.398 . S
C722 C723 1.391 . S
C723 H711 0.950 . S
C723 C719 1.393 . S
C723 C722 1.391 . S
H724 C732 0.950 . S
H725 C737 0.950 . S
H726 C734 0.950 . S
H727 C736 0.950 . S
H728 C738 0.950 . S
H729 C740 0.950 . S
H730 C742 0.950 . S
H731 C743 0.950 . S
C732 H724 0.950 . S
C732 C733 1.386 . S
C732 C734 1.391 . S
C733 C732 1.386 . S
C733 C737 1.393 . S
C734 H726 0.950 . S
C734 C732 1.391 . S
C734 C735 1.400 . S
C735 C734 1.400 . S
C735 C736 1.398 . S
C735 C741 1.491 . S
C736 H727 0.950 . S
C736 C735 1.398 . S
C736 C737 1.391 . S
C737 H725 0.950 . S
C737 C733 1.393 . S
C737 C736 1.391 . S
C738 H728 0.950 . S
C738 C739 1.386 . S
C738 C740 1.391 . S
C739 C738 1.386 . S
C739 C743 1.393 . S
C740 H729 0.950 . S
C740 C738 1.391 . S
C740 C741 1.400 . S
C741 C735 1.491 . S
C741 C740 1.400 . S
C741 C742 1.398 . S
C742 H730 0.950 . S
C742 C741 1.398 . S
C742 C743 1.391 . S
C743 H731 0.950 . S
C743 C739 1.393 . S
C743 C742 1.391 . S
C273 N1 0.926 . S
C279 C121 0.923 . S
C293 N18 1.107 . S
C299 C161 1.149 . S
C319 C186 1.980 . S
C313 N28 2.041 . S
C333 N40 2.665 . S
C339 C226 2.670 . S
C359 C157 1.908 . S
C353 N5 1.878 . S
C379 C117 1.495 . S
C373 N14 1.426 . S
C399 C248 1.793 . S
C393 N31 1.789 . S
C419 C208 1.474 . S
C413 N41 1.494 . S
C433 N2 1.088 . S
C439 C250 1.105 . S
C459 C167 2.343 1_556 S
C453 N27 2.388 . S
C473 N44 2.329 . S
C479 C127 2.371 1_655 S
C493 N15 1.003 . S
C499 C210 1.021 . S
C519 C130 1.469 . S
C513 N57 1.456 . S
C533 N70 0.918 . S
C539 C170 0.936 . S
C553 N79 2.253 . S
C559 C207 2.267 . S
C573 N93 2.410 . S
C579 C247 2.374 . S
C593 N54 1.483 . S
C599 C168 1.552 1_556 S
C619 C128 2.123 1_655 S
C613 N66 2.110 . S
C639 C237 1.259 . S
C633 N80 1.289 . S
C659 C197 1.701 . S
C653 N96 1.741 . S
C673 N53 1.288 . S
C679 C241 1.285 . S
C699 C146 1.901 . S
C693 N83 1.850 . S
C719 C106 2.390 . S
C713 N92 2.455 . S
C733 N67 1.228 . S
C739 C201 1.240 . S
