# Generated by pormake.
# Topology eea, (3,6)-cn, num edge types: 1
# Building blocks:
#     Node 0, Type 0, BuildingBlock: KAKCAD_clean_linker_0, # of connection points: 3
#     Node 1, Type 0, BuildingBlock: KAKCAD_clean_linker_0, # of connection points: 3
#     Node 2, Type 0, BuildingBlock: KAKCAD_clean_linker_0, # of connection points: 3
#     Node 3, Type 0, BuildingBlock: KAKCAD_clean_linker_0, # of connection points: 3
#     Node 4, Type 0, BuildingBlock: KAKCAD_clean_linker_0, # of connection points: 3
#     Node 5, Type 0, BuildingBlock: KAKCAD_clean_linker_0, # of connection points: 3
#     Node 6, Type 0, BuildingBlock: KAKCAD_clean_linker_0, # of connection points: 3
#     Node 7, Type 0, BuildingBlock: KAKCAD_clean_linker_0, # of connection points: 3
#     Node 8, Type 0, BuildingBlock: KAKCAD_clean_linker_0, # of connection points: 3
#     Node 9, Type 0, BuildingBlock: KAKCAD_clean_linker_0, # of connection points: 3
#     Node 10, Type 0, BuildingBlock: KAKCAD_clean_linker_0, # of connection points: 3
#     Node 11, Type 0, BuildingBlock: KAKCAD_clean_linker_0, # of connection points: 3
#     Node 12, Type 0, BuildingBlock: KAKCAD_clean_linker_0, # of connection points: 3
#     Node 13, Type 0, BuildingBlock: KAKCAD_clean_linker_0, # of connection points: 3
#     Node 14, Type 0, BuildingBlock: KAKCAD_clean_linker_0, # of connection points: 3
#     Node 15, Type 0, BuildingBlock: KAKCAD_clean_linker_0, # of connection points: 3
#     Node 16, Type 0, BuildingBlock: KAKCAD_clean_linker_0, # of connection points: 3
#     Node 17, Type 0, BuildingBlock: KAKCAD_clean_linker_0, # of connection points: 3
#     Node 18, Type 1, BuildingBlock: NUHQIS_clean_sbu_0, # of connection points: 6
#     Node 19, Type 1, BuildingBlock: NUHQIS_clean_sbu_0, # of connection points: 6
#     Node 20, Type 1, BuildingBlock: NUHQIS_clean_sbu_0, # of connection points: 6
#     Node 21, Type 1, BuildingBlock: NUHQIS_clean_sbu_0, # of connection points: 6
#     Node 22, Type 1, BuildingBlock: NUHQIS_clean_sbu_0, # of connection points: 6
#     Node 23, Type 1, BuildingBlock: NUHQIS_clean_sbu_0, # of connection points: 6
#     Node 24, Type 1, BuildingBlock: NUHQIS_clean_sbu_0, # of connection points: 6
#     Node 25, Type 1, BuildingBlock: NUHQIS_clean_sbu_0, # of connection points: 6
#     Node 26, Type 1, BuildingBlock: NUHQIS_clean_sbu_0, # of connection points: 6
#     Edge 27, Type (0, 1), BuildingBlock: XUDNAN_clean_linker_2, # of connection points: 2
#     Edge 28, Type (0, 1), BuildingBlock: XUDNAN_clean_linker_2, # of connection points: 2
#     Edge 29, Type (0, 1), BuildingBlock: XUDNAN_clean_linker_2, # of connection points: 2
#     Edge 30, Type (0, 1), BuildingBlock: XUDNAN_clean_linker_2, # of connection points: 2
#     Edge 31, Type (0, 1), BuildingBlock: XUDNAN_clean_linker_2, # of connection points: 2
#     Edge 32, Type (0, 1), BuildingBlock: XUDNAN_clean_linker_2, # of connection points: 2
#     Edge 33, Type (0, 1), BuildingBlock: XUDNAN_clean_linker_2, # of connection points: 2
#     Edge 34, Type (0, 1), BuildingBlock: XUDNAN_clean_linker_2, # of connection points: 2
#     Edge 35, Type (0, 1), BuildingBlock: XUDNAN_clean_linker_2, # of connection points: 2
#     Edge 36, Type (0, 1), BuildingBlock: XUDNAN_clean_linker_2, # of connection points: 2
#     Edge 37, Type (0, 1), BuildingBlock: XUDNAN_clean_linker_2, # of connection points: 2
#     Edge 38, Type (0, 1), BuildingBlock: XUDNAN_clean_linker_2, # of connection points: 2
#     Edge 39, Type (0, 1), BuildingBlock: XUDNAN_clean_linker_2, # of connection points: 2
#     Edge 40, Type (0, 1), BuildingBlock: XUDNAN_clean_linker_2, # of connection points: 2
#     Edge 41, Type (0, 1), BuildingBlock: XUDNAN_clean_linker_2, # of connection points: 2
#     Edge 42, Type (0, 1), BuildingBlock: XUDNAN_clean_linker_2, # of connection points: 2
#     Edge 43, Type (0, 1), BuildingBlock: XUDNAN_clean_linker_2, # of connection points: 2
#     Edge 44, Type (0, 1), BuildingBlock: XUDNAN_clean_linker_2, # of connection points: 2
#     Edge 45, Type (0, 1), BuildingBlock: XUDNAN_clean_linker_2, # of connection points: 2
#     Edge 46, Type (0, 1), BuildingBlock: XUDNAN_clean_linker_2, # of connection points: 2
#     Edge 47, Type (0, 1), BuildingBlock: XUDNAN_clean_linker_2, # of connection points: 2
#     Edge 48, Type (0, 1), BuildingBlock: XUDNAN_clean_linker_2, # of connection points: 2
#     Edge 49, Type (0, 1), BuildingBlock: XUDNAN_clean_linker_2, # of connection points: 2
#     Edge 50, Type (0, 1), BuildingBlock: XUDNAN_clean_linker_2, # of connection points: 2
#     Edge 51, Type (0, 1), BuildingBlock: XUDNAN_clean_linker_2, # of connection points: 2
#     Edge 52, Type (0, 1), BuildingBlock: XUDNAN_clean_linker_2, # of connection points: 2
#     Edge 53, Type (0, 1), BuildingBlock: XUDNAN_clean_linker_2, # of connection points: 2
#     Edge 54, Type (0, 1), BuildingBlock: XUDNAN_clean_linker_2, # of connection points: 2
#     Edge 55, Type (0, 1), BuildingBlock: XUDNAN_clean_linker_2, # of connection points: 2
#     Edge 56, Type (0, 1), BuildingBlock: XUDNAN_clean_linker_2, # of connection points: 2
#     Edge 57, Type (0, 1), BuildingBlock: XUDNAN_clean_linker_2, # of connection points: 2
#     Edge 58, Type (0, 1), BuildingBlock: XUDNAN_clean_linker_2, # of connection points: 2
#     Edge 59, Type (0, 1), BuildingBlock: XUDNAN_clean_linker_2, # of connection points: 2
#     Edge 60, Type (0, 1), BuildingBlock: XUDNAN_clean_linker_2, # of connection points: 2
#     Edge 61, Type (0, 1), BuildingBlock: XUDNAN_clean_linker_2, # of connection points: 2
#     Edge 62, Type (0, 1), BuildingBlock: XUDNAN_clean_linker_2, # of connection points: 2
#     Edge 63, Type (0, 1), BuildingBlock: XUDNAN_clean_linker_2, # of connection points: 2
#     Edge 64, Type (0, 1), BuildingBlock: XUDNAN_clean_linker_2, # of connection points: 2
#     Edge 65, Type (0, 1), BuildingBlock: XUDNAN_clean_linker_2, # of connection points: 2
#     Edge 66, Type (0, 1), BuildingBlock: XUDNAN_clean_linker_2, # of connection points: 2
#     Edge 67, Type (0, 1), BuildingBlock: XUDNAN_clean_linker_2, # of connection points: 2
#     Edge 68, Type (0, 1), BuildingBlock: XUDNAN_clean_linker_2, # of connection points: 2
#     Edge 69, Type (0, 1), BuildingBlock: XUDNAN_clean_linker_2, # of connection points: 2
#     Edge 70, Type (0, 1), BuildingBlock: XUDNAN_clean_linker_2, # of connection points: 2
#     Edge 71, Type (0, 1), BuildingBlock: XUDNAN_clean_linker_2, # of connection points: 2
#     Edge 72, Type (0, 1), BuildingBlock: XUDNAN_clean_linker_2, # of connection points: 2
#     Edge 73, Type (0, 1), BuildingBlock: XUDNAN_clean_linker_2, # of connection points: 2
#     Edge 74, Type (0, 1), BuildingBlock: XUDNAN_clean_linker_2, # of connection points: 2
#     Edge 75, Type (0, 1), BuildingBlock: XUDNAN_clean_linker_2, # of connection points: 2
#     Edge 76, Type (0, 1), BuildingBlock: XUDNAN_clean_linker_2, # of connection points: 2
#     Edge 77, Type (0, 1), BuildingBlock: XUDNAN_clean_linker_2, # of connection points: 2
#     Edge 78, Type (0, 1), BuildingBlock: XUDNAN_clean_linker_2, # of connection points: 2
#     Edge 79, Type (0, 1), BuildingBlock: XUDNAN_clean_linker_2, # of connection points: 2
#     Edge 80, Type (0, 1), BuildingBlock: XUDNAN_clean_linker_2, # of connection points: 2
# Relax obj value: 0.034
# Max RMSD: 0.133
# Mean RMSD: 0.075
data_MOF--net-eea--node1-NUHQIS_clean_sbu_0--node2-KAKCAD_clean_linker_0--edge1-XUDNAN_clean_linker_2
_symmetry_space_group_name_H-M    P1
_symmetry_Int_Tables_number       1
_symmetry_cell_setting            triclinic
loop_
_symmetry_equiv_pos_as_xyz
'x, y, z'
_cell_length_a     62.446621
_cell_length_b     62.818223
_cell_length_c     90.511482
_cell_angle_alpha  93.631527
_cell_angle_beta   93.228985
_cell_angle_gamma 119.87743
loop_
_atom_site_label
_atom_site_type_symbol
_atom_site_fract_x
_atom_site_fract_y
_atom_site_fract_z
_atom_type_partial_charge
C0 C 0.31111 0.18536 0.47079 0.0
C1 C 0.32592 0.17661 0.47704 0.0
C2 C 0.30223 0.17923 0.45578 0.0
C3 C 0.30825 0.16448 0.44654 0.0
C4 C 0.32307 0.15565 0.45282 0.0
C5 C 0.33172 0.16156 0.46797 0.0
C6 C 0.29867 0.15833 0.43051 0.0
C7 C 0.29679 0.17599 0.42265 0.0
C8 C 0.28486 0.16989 0.40814 0.0
C9 C 0.27606 0.14606 0.40111 0.0
C10 C 0.27882 0.12843 0.40851 0.0
C11 C 0.29003 0.13462 0.42323 0.0
C12 C 0.26929 0.10336 0.40088 0.0
C13 C 0.24561 0.09068 0.39295 0.0
C14 C 0.28408 0.09231 0.40102 0.0
C15 C 0.27562 0.06933 0.39299 0.0
C16 C 0.25214 0.0569 0.38474 0.0
C17 C 0.28059 0.18813 0.40074 0.0
C18 C 0.27513 0.20411 0.40918 0.0
C19 C 0.28163 0.18967 0.38531 0.0
C20 C 0.27748 0.20691 0.37856 0.0
C21 C 0.2727 0.22315 0.38717 0.0
C22 C 0.27149 0.22157 0.4025 0.0
C23 C 0.2371 0.06768 0.38502 0.0
H24 H 0.30589 0.19652 0.47761 0.0
H25 H 0.29027 0.18578 0.45147 0.0
H26 H 0.32819 0.1444 0.44602 0.0
H27 H 0.34315 0.1546 0.47255 0.0
H28 H 0.3045 0.19462 0.42796 0.0
H29 H 0.29106 0.12066 0.42917 0.0
H30 H 0.26676 0.14105 0.38992 0.0
H31 H 0.23363 0.09856 0.39288 0.0
H32 H 0.30248 0.10178 0.40698 0.0
H33 H 0.28775 0.06163 0.39292 0.0
H34 H 0.27338 0.20301 0.42098 0.0
H35 H 0.28599 0.17784 0.37848 0.0
H36 H 0.21867 0.05835 0.3791 0.0
H37 H 0.26741 0.23369 0.40929 0.0
H38 H 0.27849 0.20791 0.36669 0.0
C39 C 0.90324 0.18425 0.4792 0.0
C40 C 0.8975 0.16818 0.49042 0.0
C41 C 0.90747 0.17761 0.46505 0.0
C42 C 0.90578 0.15465 0.46173 0.0
C43 C 0.9008 0.13892 0.47302 0.0
C44 C 0.89686 0.14564 0.48719 0.0
C45 C 0.90705 0.14611 0.44628 0.0
C46 C 0.9264 0.16102 0.43789 0.0
C47 C 0.92683 0.1527 0.42313 0.0
C48 C 0.9076 0.12934 0.41684 0.0
C49 C 0.88824 0.11422 0.4251 0.0
C50 C 0.88816 0.12282 0.43979 0.0
C51 C 0.86797 0.08946 0.41851 0.0
C52 C 0.857 0.08583 0.40386 0.0
C53 C 0.85886 0.06938 0.42708 0.0
C54 C 0.8387 0.04651 0.42138 0.0
C55 C 0.82714 0.04308 0.40696 0.0
C56 C 0.94742 0.16795 0.41421 0.0
C57 C 0.97233 0.17853 0.42007 0.0
C58 C 0.94222 0.1708 0.3994 0.0
C59 C 0.96143 0.18333 0.39051 0.0
C60 C 0.98638 0.19314 0.39614 0.0
C61 C 0.9916 0.19089 0.41112 0.0
C62 C 0.8368 0.06283 0.39813 0.0
H63 H 0.90362 0.20162 0.48115 0.0
H64 H 0.91101 0.18998 0.45651 0.0
H65 H 0.89965 0.1212 0.47081 0.0
H66 H 0.89315 0.13304 0.49559 0.0
H67 H 0.94106 0.17904 0.44281 0.0
H68 H 0.8729 0.1116 0.44611 0.0
H69 H 0.9081 0.12262 0.40561 0.0
H70 H 0.8635 0.10096 0.397 0.0
H71 H 0.86724 0.07138 0.43826 0.0
H72 H 0.83205 0.03149 0.42834 0.0
H73 H 0.97688 0.17645 0.43141 0.0
H74 H 0.92321 0.16316 0.39464 0.0
H75 H 0.8282 0.06075 0.387 0.0
H76 H 0.01053 0.19797 0.41583 0.0
H77 H 0.95664 0.18524 0.37918 0.0
C78 C 0.91349 0.74813 0.48752 0.0
C79 C 0.8901 0.73266 0.49235 0.0
C80 C 0.91567 0.75433 0.4729 0.0
C81 C 0.89454 0.74505 0.46258 0.0
C82 C 0.87117 0.72907 0.46728 0.0
C83 C 0.86897 0.72297 0.48197 0.0
C84 C 0.89694 0.75284 0.44719 0.0
C85 C 0.91755 0.75661 0.43968 0.0
C86 C 0.92113 0.76591 0.42572 0.0
C87 C 0.90344 0.77097 0.41916 0.0
C88 C 0.88264 0.76722 0.42637 0.0
C89 C 0.87944 0.75799 0.44032 0.0
C90 C 0.86508 0.77424 0.41956 0.0
C91 C 0.87429 0.79676 0.41337 0.0
C92 C 0.83922 0.75846 0.41884 0.0
C93 C 0.82298 0.76463 0.41147 0.0
C94 C 0.83232 0.78673 0.40473 0.0
C95 C 0.94417 0.77212 0.41846 0.0
C96 C 0.96738 0.78381 0.42699 0.0
C97 C 0.94345 0.76797 0.40291 0.0
C98 C 0.96543 0.77615 0.39604 0.0
C99 C 0.98865 0.78878 0.40456 0.0
C100 C 0.98928 0.79199 0.42014 0.0
C101 C 0.85815 0.80295 0.4061 0.0
H102 H 0.93025 0.75564 0.49509 0.0
H103 H 0.93397 0.76693 0.46982 0.0
H104 H 0.85449 0.72132 0.45962 0.0
H105 H 0.85063 0.71113 0.48528 0.0
H106 H 0.93092 0.75232 0.44471 0.0
H107 H 0.86393 0.75598 0.44612 0.0
H108 H 0.90617 0.77848 0.40852 0.0
H109 H 0.89408 0.80962 0.41407 0.0
H110 H 0.83158 0.74098 0.42353 0.0
H111 H 0.8032 0.7517 0.41058 0.0
H112 H 0.96874 0.78752 0.43896 0.0
H113 H 0.92589 0.75874 0.39601 0.0
H114 H 0.86598 0.82042 0.4014 0.0
H115 H 0.00682 0.80129 0.42707 0.0
H116 H 0.96426 0.7734 0.38402 0.0
C117 C 0.14682 0.26615 0.52672 0.0
C118 C 0.14274 0.28593 0.52469 0.0
C119 C 0.14052 0.25395 0.53965 0.0
C120 C 0.12973 0.26106 0.55076 0.0
C121 C 0.1254 0.28063 0.54859 0.0
C122 C 0.13179 0.29285 0.53577 0.0
C123 C 0.12303 0.24834 0.56462 0.0
C124 C 0.13929 0.24241 0.57235 0.0
C125 C 0.13356 0.23156 0.58584 0.0
C126 C 0.11089 0.22622 0.59133 0.0
C127 C 0.09465 0.23242 0.58397 0.0
C128 C 0.10079 0.24322 0.57057 0.0
C129 C 0.072 0.22896 0.59074 0.0
C130 C 0.05653 0.20728 0.59719 0.0
C131 C 0.06605 0.2478 0.59108 0.0
C132 C 0.04508 0.24498 0.59752 0.0
C133 C 0.02926 0.22314 0.60372 0.0
C134 C 0.15175 0.22718 0.59472 0.0
C135 C 0.16708 0.21989 0.58779 0.0
C136 C 0.15417 0.23066 0.61037 0.0
C137 C 0.17115 0.22686 0.61882 0.0
C138 C 0.18679 0.21999 0.61196 0.0
C139 C 0.1844 0.21641 0.59629 0.0
C140 C 0.03539 0.20439 0.60359 0.0
H141 H 0.15536 0.26043 0.51847 0.0
H142 H 0.14395 0.23884 0.54089 0.0
H143 H 0.11739 0.28683 0.55695 0.0
H144 H 0.12808 0.30779 0.53453 0.0
H145 H 0.15693 0.24733 0.5682 0.0
H146 H 0.08808 0.24757 0.56469 0.0
H147 H 0.10608 0.21779 0.60161 0.0
H148 H 0.06053 0.19237 0.59707 0.0
H149 H 0.07786 0.26498 0.58655 0.0
H150 H 0.04138 0.26009 0.59771 0.0
H151 H 0.16566 0.21677 0.57579 0.0
H152 H 0.1432 0.23674 0.61622 0.0
H153 H 0.02356 0.18723 0.60812 0.0
H154 H 0.19619 0.21131 0.59055 0.0
H155 H 0.1719 0.22932 0.63082 0.0
C156 C 0.69068 0.83579 0.54867 0.0
C157 C 0.70506 0.85613 0.54087 0.0
C158 C 0.69742 0.83607 0.56375 0.0
C159 C 0.71858 0.85675 0.5713 0.0
C160 C 0.73325 0.87674 0.56337 0.0
C161 C 0.72662 0.87642 0.54836 0.0
C162 C 0.72547 0.85788 0.58742 0.0
C163 C 0.72619 0.83807 0.59334 0.0
C164 C 0.73516 0.84024 0.60832 0.0
C165 C 0.74298 0.86237 0.61738 0.0
C166 C 0.74225 0.8822 0.61161 0.0
C167 C 0.73317 0.8797 0.59672 0.0
C168 C 0.75345 0.90646 0.62057 0.0
C169 C 0.7778 0.91738 0.62748 0.0
C170 C 0.74097 0.91988 0.62101 0.0
C171 C 0.75303 0.94419 0.62771 0.0
C172 C 0.77787 0.95555 0.63383 0.0
C173 C 0.7382 0.82024 0.61422 0.0
C174 C 0.7203 0.79527 0.61019 0.0
C175 C 0.75958 0.82605 0.62357 0.0
C176 C 0.76321 0.80739 0.62854 0.0
C177 C 0.74565 0.78248 0.6242 0.0
C178 C 0.72402 0.77659 0.6151 0.0
C179 C 0.78997 0.94179 0.63396 0.0
H180 H 0.6739 0.81992 0.54324 0.0
H181 H 0.68576 0.82041 0.5696 0.0
H182 H 0.75002 0.89268 0.56878 0.0
H183 H 0.73849 0.89212 0.54261 0.0
H184 H 0.72109 0.82153 0.58607 0.0
H185 H 0.73301 0.8952 0.59219 0.0
H186 H 0.74996 0.86437 0.62892 0.0
H187 H 0.78788 0.90749 0.62717 0.0
H188 H 0.72217 0.9118 0.61578 0.0
H189 H 0.74339 0.95452 0.62738 0.0
H190 H 0.70348 0.79017 0.60318 0.0
H191 H 0.774 0.84505 0.62666 0.0
H192 H 0.80911 0.95019 0.63866 0.0
H193 H 0.71007 0.75751 0.61169 0.0
H194 H 0.78026 0.81252 0.63532 0.0
C195 C 0.10148 0.82719 0.52681 0.0
C196 C 0.12469 0.82887 0.52604 0.0
C197 C 0.09509 0.83359 0.54028 0.0
C198 C 0.11196 0.84218 0.55316 0.0
C199 C 0.13501 0.84353 0.55241 0.0
C200 C 0.14125 0.8368 0.53902 0.0
C201 C 0.10618 0.85099 0.56714 0.0
C202 C 0.08336 0.83659 0.57294 0.0
C203 C 0.07795 0.84537 0.58606 0.0
C204 C 0.09549 0.86864 0.59328 0.0
C205 C 0.11829 0.88321 0.58767 0.0
C206 C 0.12359 0.87419 0.57464 0.0
C207 C 0.13647 0.90763 0.59572 0.0
C208 C 0.12833 0.92337 0.60148 0.0
C209 C 0.16166 0.91476 0.59846 0.0
C210 C 0.17813 0.93672 0.60734 0.0
C211 C 0.16968 0.95189 0.61363 0.0
C212 C 0.0546 0.83032 0.59285 0.0
C213 C 0.04113 0.84122 0.59802 0.0
C214 C 0.04722 0.80604 0.59577 0.0
C215 C 0.02765 0.79347 0.60446 0.0
C216 C 0.01505 0.80494 0.61034 0.0
C217 C 0.02155 0.82867 0.60662 0.0
C218 C 0.14473 0.94523 0.61033 0.0
H219 H 0.08832 0.82101 0.51698 0.0
H220 H 0.07727 0.83254 0.54054 0.0
H221 H 0.14831 0.84998 0.56219 0.0
H222 H 0.15934 0.83848 0.53873 0.0
H223 H 0.06992 0.8186 0.56731 0.0
H224 H 0.14104 0.88552 0.57012 0.0
H225 H 0.09166 0.87513 0.60364 0.0
H226 H 0.10914 0.91862 0.5993 0.0
H227 H 0.16842 0.90291 0.59424 0.0
H228 H 0.19724 0.94134 0.60974 0.0
H229 H 0.04624 0.85982 0.59576 0.0
H230 H 0.05743 0.79729 0.59202 0.0
H231 H 0.1378 0.95683 0.61472 0.0
H232 H 0.01184 0.83779 0.61063 0.0
H233 H 0.0232 0.77526 0.60716 0.0
C234 C 0.9534 0.48933 0.82119 0.0
C235 C 0.96669 0.47778 0.82561 0.0
C236 C 0.94838 0.49047 0.80609 0.0
C237 C 0.95674 0.48023 0.79515 0.0
C238 C 0.97116 0.46988 0.79967 0.0
C239 C 0.97596 0.46854 0.81472 0.0
C240 C 0.94897 0.47856 0.77909 0.0
C241 C 0.94782 0.4981 0.77296 0.0
C242 C 0.93997 0.49585 0.75779 0.0
C243 C 0.93275 0.47381 0.74888 0.0
C244 C 0.93334 0.4541 0.75485 0.0
C245 C 0.94168 0.45665 0.76989 0.0
C246 C 0.92419 0.43052 0.74546 0.0
C247 C 0.90119 0.4197 0.73683 0.0
C248 C 0.93831 0.4188 0.74498 0.0
C249 C 0.92974 0.39681 0.73579 0.0
C250 C 0.90675 0.386 0.72704 0.0
C251 C 0.93792 0.51565 0.75101 0.0
C252 C 0.92319 0.52463 0.75678 0.0
C253 C 0.94763 0.52285 0.7374 0.0
C254 C 0.9411 0.53709 0.72912 0.0
C255 C 0.92464 0.54434 0.73424 0.0
C256 C 0.91656 0.53888 0.74844 0.0
C257 C 0.8925 0.39762 0.72779 0.0
H258 H 0.94598 0.49653 0.82938 0.0
H259 H 0.93706 0.4984 0.80298 0.0
H260 H 0.97839 0.46235 0.79155 0.0
H261 H 0.98668 0.45998 0.81784 0.0
H262 H 0.95333 0.51509 0.77986 0.0
H263 H 0.94147 0.44108 0.77455 0.0
H264 H 0.9262 0.47182 0.73723 0.0
H265 H 0.88977 0.42819 0.7372 0.0
H266 H 0.95618 0.4269 0.75148 0.0
H267 H 0.94134 0.38853 0.73535 0.0
H268 H 0.91538 0.51919 0.76722 0.0
H269 H 0.95927 0.51637 0.73281 0.0
H270 H 0.87445 0.38955 0.7215 0.0
H271 H 0.90382 0.5442 0.75266 0.0
H272 H 0.94806 0.5415 0.71837 0.0
C273 C 0.52504 0.48053 0.80543 0.0
C274 C 0.5453 0.4874 0.81605 0.0
C275 C 0.5268 0.47625 0.79033 0.0
C276 C 0.54884 0.47873 0.78545 0.0
C277 C 0.56933 0.48627 0.79601 0.0
C278 C 0.56757 0.49053 0.81113 0.0
C279 C 0.5501 0.47246 0.76951 0.0
C280 C 0.57136 0.48719 0.76238 0.0
C281 C 0.5725 0.48099 0.74738 0.0
C282 C 0.55252 0.45963 0.73963 0.0
C283 C 0.53115 0.4446 0.74649 0.0
C284 C 0.53006 0.45129 0.76144 0.0
C285 C 0.51051 0.4216 0.73809 0.0
C286 C 0.50456 0.42075 0.72276 0.0
C287 C 0.49736 0.39999 0.74511 0.0
C288 C 0.47919 0.37802 0.73694 0.0
C289 C 0.47398 0.37694 0.72149 0.0
C290 C 0.5945 0.49641 0.73957 0.0
C291 C 0.61848 0.50309 0.7456 0.0
C292 C 0.59129 0.50303 0.72543 0.0
C293 C 0.61151 0.51537 0.71726 0.0
C294 C 0.63544 0.52119 0.72296 0.0
C295 C 0.63876 0.51528 0.73735 0.0
C296 C 0.48677 0.3987 0.71455 0.0
H297 H 0.50755 0.47776 0.80883 0.0
H298 H 0.51077 0.4708 0.78246 0.0
H299 H 0.58654 0.4882 0.79265 0.0
H300 H 0.58364 0.49612 0.819 0.0
H301 H 0.58678 0.50374 0.76838 0.0
H302 H 0.51369 0.43986 0.76687 0.0
H303 H 0.55405 0.45436 0.72827 0.0
H304 H 0.51387 0.43709 0.71699 0.0
H305 H 0.50151 0.39979 0.75686 0.0
H306 H 0.4694 0.36184 0.74278 0.0
H307 H 0.6214 0.49802 0.75644 0.0
H308 H 0.573 0.49837 0.72062 0.0
H309 H 0.48358 0.39869 0.70267 0.0
H310 H 0.65688 0.51931 0.74205 0.0
H311 H 0.60833 0.52021 0.70641 0.0
C312 C 0.55921 0.06689 0.81624 0.0
C313 C 0.53456 0.04855 0.81754 0.0
C314 C 0.56575 0.07823 0.80305 0.0
C315 C 0.54776 0.07163 0.79089 0.0
C316 C 0.52311 0.05346 0.79229 0.0
C317 C 0.51661 0.04214 0.80541 0.0
C318 C 0.55443 0.08364 0.7768 0.0
C319 C 0.57647 0.08838 0.77069 0.0
C320 C 0.58264 0.09944 0.75729 0.0
C321 C 0.56623 0.10564 0.75006 0.0
C322 C 0.54405 0.10098 0.75591 0.0
C323 C 0.53844 0.09009 0.76931 0.0
C324 C 0.52674 0.10739 0.74794 0.0
C325 C 0.53602 0.12927 0.74098 0.0
C326 C 0.50084 0.09141 0.74687 0.0
C327 C 0.48473 0.09687 0.73872 0.0
C328 C 0.49415 0.11835 0.73137 0.0
C329 C 0.60638 0.10505 0.75095 0.0
C330 C 0.62827 0.11297 0.76035 0.0
C331 C 0.60765 0.10351 0.73544 0.0
C332 C 0.63029 0.11069 0.72954 0.0
C333 C 0.65232 0.11938 0.73897 0.0
C334 C 0.65081 0.11984 0.75446 0.0
C335 C 0.51996 0.13463 0.73278 0.0
H336 H 0.57354 0.07218 0.82532 0.0
H337 H 0.58486 0.09232 0.80243 0.0
H338 H 0.50879 0.04771 0.78314 0.0
H339 H 0.49739 0.02834 0.80604 0.0
H340 H 0.5885 0.08285 0.77619 0.0
H341 H 0.52176 0.0871 0.7741 0.0
H342 H 0.57073 0.11423 0.73982 0.0
H343 H 0.55577 0.14231 0.74184 0.0
H344 H 0.49302 0.07429 0.75196 0.0
H345 H 0.46497 0.08385 0.73775 0.0
H346 H 0.62825 0.11459 0.77233 0.0
H347 H 0.59117 0.09697 0.72778 0.0
H348 H 0.52779 0.15157 0.72749 0.0
H349 H 0.66717 0.12581 0.76214 0.0
H350 H 0.63058 0.1101 0.71758 0.0
C351 C 0.80281 0.57672 0.86432 0.0
C352 C 0.79587 0.59254 0.85796 0.0
C353 C 0.79851 0.57108 0.87894 0.0
C354 C 0.78742 0.58135 0.88781 0.0
C355 C 0.78082 0.59752 0.88156 0.0
C356 C 0.78495 0.60301 0.86683 0.0
C357 C 0.78264 0.57486 0.9034 0.0
C358 C 0.79956 0.5712 0.9123 0.0
C359 C 0.7948 0.56371 0.92668 0.0
C360 C 0.77273 0.56015 0.9322 0.0
C361 C 0.75608 0.56467 0.9238 0.0
C362 C 0.76109 0.57189 0.9094 0.0
C363 C 0.73386 0.5627 0.93028 0.0
C364 C 0.71732 0.54145 0.93668 0.0
C365 C 0.72944 0.58251 0.93039 0.0
C366 C 0.70892 0.58114 0.93671 0.0
C367 C 0.69184 0.55966 0.94281 0.0
C368 C 0.81325 0.56035 0.93604 0.0
C369 C 0.82746 0.55119 0.92957 0.0
C370 C 0.81724 0.56682 0.95152 0.0
C371 C 0.83496 0.5644 0.96024 0.0
C372 C 0.84964 0.55587 0.95374 0.0
C373 C 0.84549 0.54913 0.93827 0.0
C374 C 0.69644 0.53985 0.94276 0.0
H375 H 0.81168 0.56861 0.85801 0.0
H376 H 0.80358 0.5583 0.8832 0.0
H377 H 0.77255 0.60607 0.88805 0.0
H378 H 0.77916 0.61512 0.86233 0.0
H379 H 0.81684 0.57483 0.90812 0.0
H380 H 0.74781 0.57459 0.90278 0.0
H381 H 0.76857 0.55423 0.94319 0.0
H382 H 0.7203 0.52587 0.93673 0.0
H383 H 0.74214 0.59931 0.9258 0.0
H384 H 0.70665 0.59715 0.93689 0.0
H385 H 0.82472 0.54558 0.91774 0.0
H386 H 0.80701 0.57424 0.95697 0.0
H387 H 0.6837 0.52288 0.94715 0.0
H388 H 0.85648 0.54268 0.93278 0.0
H389 H 0.8371 0.56928 0.97213 0.0
C390 C 0.38219 0.15535 0.87687 0.0
C391 C 0.39151 0.17411 0.86732 0.0
C392 C 0.38699 0.1612 0.89229 0.0
C393 C 0.4012 0.18592 0.8985 0.0
C394 C 0.41066 0.20466 0.88894 0.0
C395 C 0.40585 0.19882 0.87353 0.0
C396 C 0.40623 0.19215 0.91489 0.0
C397 C 0.4132 0.17864 0.92375 0.0
C398 C 0.41867 0.18474 0.93926 0.0
C399 C 0.41677 0.20456 0.94582 0.0
C400 C 0.41082 0.21892 0.93706 0.0
C401 C 0.4052 0.21231 0.92163 0.0
C402 C 0.41305 0.24228 0.94371 0.0
C403 C 0.4331 0.25807 0.95433 0.0
C404 C 0.39685 0.2502 0.93843 0.0
C405 C 0.4016 0.27399 0.94286 0.0
C406 C 0.42247 0.29019 0.95278 0.0
C407 C 0.42822 0.17169 0.94836 0.0
C408 C 0.42028 0.14663 0.94455 0.0
C409 C 0.44646 0.18459 0.96046 0.0
C410 C 0.45681 0.17293 0.96831 0.0
C411 C 0.44975 0.1482 0.96405 0.0
C412 C 0.43111 0.13514 0.95215 0.0
C413 C 0.43768 0.28174 0.95887 0.0
H414 H 0.3708 0.13616 0.87242 0.0
H415 H 0.37924 0.14638 0.89938 0.0
H416 H 0.42208 0.22386 0.89337 0.0
H417 H 0.41362 0.21366 0.86647 0.0
H418 H 0.41549 0.16408 0.9184 0.0
H419 H 0.40069 0.22331 0.91474 0.0
H420 H 0.42036 0.20918 0.95777 0.0
H421 H 0.44616 0.25275 0.9585 0.0
H422 H 0.38095 0.23832 0.93049 0.0
H423 H 0.38941 0.28 0.93816 0.0
H424 H 0.40594 0.13588 0.93551 0.0
H425 H 0.45342 0.20399 0.96366 0.0
H426 H 0.45402 0.29395 0.96643 0.0
H427 H 0.42528 0.11618 0.94836 0.0
H428 H 0.47064 0.1835 0.97761 0.0
C429 C 0.78702 0.1695 0.85795 0.0
C430 C 0.81251 0.17882 0.85692 0.0
C431 C 0.77862 0.17387 0.87123 0.0
C432 C 0.79555 0.18785 0.88371 0.0
C433 C 0.82098 0.19693 0.88269 0.0
C434 C 0.82933 0.1925 0.86948 0.0
C435 C 0.78705 0.19389 0.8976 0.0
C436 C 0.76597 0.17583 0.90363 0.0
C437 C 0.7581 0.18186 0.91672 0.0
C438 C 0.77144 0.20613 0.92371 0.0
C439 C 0.7927 0.22423 0.91802 0.0
C440 C 0.80033 0.21799 0.90496 0.0
C441 C 0.80735 0.24937 0.92609 0.0
C442 C 0.7954 0.26185 0.9313 0.0
C443 C 0.8332 0.26052 0.92929 0.0
C444 C 0.84668 0.28326 0.93804 0.0
C445 C 0.83462 0.29545 0.94367 0.0
C446 C 0.73681 0.16285 0.92375 0.0
C447 C 0.71828 0.16751 0.92836 0.0
C448 C 0.73614 0.14104 0.92717 0.0
C449 C 0.71795 0.12478 0.93565 0.0
C450 C 0.69984 0.12982 0.94064 0.0
C451 C 0.69987 0.15108 0.93662 0.0
C452 C 0.80888 0.28468 0.93988 0.0
H453 H 0.77355 0.15872 0.84852 0.0
H454 H 0.75893 0.16677 0.87163 0.0
H455 H 0.83451 0.20755 0.89212 0.0
H456 H 0.84911 0.20022 0.86906 0.0
H457 H 0.75586 0.15708 0.89826 0.0
H458 H 0.81645 0.23212 0.9004 0.0
H459 H 0.76583 0.2107 0.934 0.0
H460 H 0.77555 0.25385 0.9288 0.0
H461 H 0.84286 0.2512 0.92551 0.0
H462 H 0.86639 0.29081 0.94084 0.0
H463 H 0.71837 0.18419 0.92586 0.0
H464 H 0.75032 0.1371 0.92386 0.0
H465 H 0.79903 0.29377 0.94369 0.0
H466 H 0.68626 0.15553 0.94037 0.0
H467 H 0.71825 0.10843 0.93849 0.0
C468 C 0.6299 0.84592 0.15096 0.0
C469 C 0.6425 0.83472 0.15705 0.0
C470 C 0.61791 0.8381 0.13654 0.0
C471 C 0.61847 0.81907 0.12782 0.0
C472 C 0.63139 0.80809 0.13388 0.0
C473 C 0.64316 0.81575 0.14838 0.0
C474 C 0.60498 0.81032 0.11264 0.0
C475 C 0.60427 0.82718 0.10335 0.0
C476 C 0.59024 0.81893 0.08938 0.0
C477 C 0.577 0.79354 0.08472 0.0
C478 C 0.57805 0.7766 0.09362 0.0
C479 C 0.59207 0.78499 0.10753 0.0
C480 C 0.56464 0.75016 0.08804 0.0
C481 C 0.53928 0.73827 0.08311 0.0
C482 C 0.57763 0.73746 0.08619 0.0
C483 C 0.56575 0.71371 0.07864 0.0
C484 C 0.54059 0.70218 0.07299 0.0
C485 C 0.58871 0.83652 0.07974 0.0
C486 C 0.58666 0.85645 0.0859 0.0
C487 C 0.58793 0.8327 0.06419 0.0
C488 C 0.584 0.84768 0.055 0.0
C489 C 0.58108 0.8671 0.06111 0.0
C490 C 0.58301 0.87164 0.0767 0.0
C491 C 0.5273 0.71442 0.07578 0.0
H492 H 0.62882 0.86036 0.15748 0.0
H493 H 0.60772 0.84664 0.13238 0.0
H494 H 0.63254 0.79366 0.12741 0.0
H495 H 0.65299 0.807 0.15278 0.0
H496 H 0.61488 0.84678 0.10694 0.0
H497 H 0.59217 0.77166 0.11452 0.0
H498 H 0.56574 0.78679 0.07409 0.0
H499 H 0.52889 0.74772 0.08457 0.0
H500 H 0.59728 0.74642 0.08983 0.0
H501 H 0.57666 0.70499 0.07658 0.0
H502 H 0.58705 0.85987 0.09782 0.0
H503 H 0.58995 0.81782 0.05908 0.0
H504 H 0.50778 0.70587 0.07193 0.0
H505 H 0.58136 0.88674 0.08181 0.0
H506 H 0.58244 0.84347 0.04306 0.0
C507 C 0.21329 0.81173 0.14515 0.0
C508 C 0.23321 0.81772 0.15583 0.0
C509 C 0.21557 0.80883 0.13 0.0
C510 C 0.23785 0.81195 0.12513 0.0
C511 C 0.25815 0.81898 0.13572 0.0
C512 C 0.25582 0.82172 0.15093 0.0
C513 C 0.23904 0.80605 0.10913 0.0
C514 C 0.25906 0.82189 0.10151 0.0
C515 C 0.25955 0.81624 0.08623 0.0
C516 C 0.23984 0.79405 0.07876 0.0
C517 C 0.21989 0.77788 0.08632 0.0
C518 C 0.21978 0.78408 0.10148 0.0
C519 C 0.19915 0.75416 0.07874 0.0
C520 C 0.20374 0.7385 0.06931 0.0
C521 C 0.17468 0.746 0.08206 0.0
C522 C 0.15567 0.72211 0.0771 0.0
C523 C 0.16058 0.70593 0.06852 0.0
C524 C 0.28015 0.83384 0.07797 0.0
C525 C 0.29039 0.85946 0.08116 0.0
C526 C 0.2894 0.82527 0.06662 0.0
C527 C 0.30807 0.84188 0.05854 0.0
C528 C 0.31807 0.86749 0.06163 0.0
C529 C 0.30916 0.87602 0.07318 0.0
C530 C 0.18454 0.71455 0.06419 0.0
H531 H 0.19557 0.80831 0.14852 0.0
H532 H 0.19968 0.80363 0.12207 0.0
H533 H 0.27551 0.82142 0.13229 0.0
H534 H 0.2716 0.82662 0.15888 0.0
H535 H 0.27411 0.8387 0.1075 0.0
H536 H 0.20485 0.7714 0.10752 0.0
H537 H 0.23959 0.78965 0.06696 0.0
H538 H 0.22239 0.74421 0.06657 0.0
H539 H 0.17038 0.75781 0.08898 0.0
H540 H 0.13724 0.71595 0.08041 0.0
H541 H 0.28362 0.86683 0.08966 0.0
H542 H 0.28225 0.8057 0.06397 0.0
H543 H 0.18872 0.70232 0.0576 0.0
H544 H 0.31669 0.8956 0.07612 0.0
H545 H 0.31431 0.83457 0.04968 0.0
C546 C 0.24168 0.41296 0.14984 0.0
C547 C 0.21919 0.39674 0.15539 0.0
C548 C 0.24204 0.41899 0.1352 0.0
C549 C 0.21993 0.40885 0.12565 0.0
C550 C 0.19753 0.39197 0.13105 0.0
C551 C 0.19716 0.38604 0.14572 0.0
C552 C 0.22013 0.4167 0.11039 0.0
C553 C 0.23959 0.42096 0.10166 0.0
C554 C 0.24054 0.42956 0.08754 0.0
C555 C 0.22141 0.43375 0.08223 0.0
C556 C 0.20139 0.42875 0.09055 0.0
C557 C 0.20104 0.42047 0.10463 0.0
C558 C 0.18042 0.43157 0.08446 0.0
C559 C 0.18462 0.45315 0.07829 0.0
C560 C 0.15587 0.41253 0.08495 0.0
C561 C 0.13593 0.4151 0.07962 0.0
C562 C 0.13996 0.43696 0.07385 0.0
C563 C 0.26105 0.43351 0.07821 0.0
C564 C 0.28522 0.44158 0.08475 0.0
C565 C 0.25654 0.42891 0.0626 0.0
C566 C 0.27551 0.43231 0.05383 0.0
C567 C 0.29955 0.43986 0.06037 0.0
C568 C 0.30412 0.44451 0.07598 0.0
C569 C 0.16461 0.45588 0.07311 0.0
H570 H 0.25909 0.42125 0.15686 0.0
H571 H 0.25962 0.43217 0.13152 0.0
H572 H 0.18018 0.38345 0.12396 0.0
H573 H 0.17947 0.3736 0.14959 0.0
H574 H 0.25369 0.41695 0.10575 0.0
H575 H 0.18606 0.41755 0.11126 0.0
H576 H 0.2218 0.4406 0.07151 0.0
H577 H 0.20337 0.46817 0.07783 0.0
H578 H 0.15207 0.3955 0.08939 0.0
H579 H 0.1173 0.39982 0.08002 0.0
H580 H 0.28969 0.44576 0.09669 0.0
H581 H 0.2382 0.42228 0.05704 0.0
H582 H 0.16851 0.47307 0.0689 0.0
H583 H 0.32222 0.4501 0.08153 0.0
H584 H 0.2712 0.42906 0.04187 0.0
C585 C 0.47968 0.92627 0.19624 0.0
C586 C 0.47269 0.94386 0.19343 0.0
C587 C 0.47445 0.91477 0.2094 0.0
C588 C 0.46203 0.92048 0.2201 0.0
C589 C 0.45441 0.93752 0.21707 0.0
C590 C 0.45966 0.94904 0.20393 0.0
C591 C 0.45785 0.90943 0.23458 0.0
C592 C 0.47648 0.90657 0.2421 0.0
C593 C 0.47311 0.89663 0.25584 0.0
C594 C 0.45092 0.89007 0.26221 0.0
C595 C 0.43162 0.89213 0.25485 0.0
C596 C 0.43539 0.90191 0.24099 0.0
C597 C 0.40754 0.88349 0.26161 0.0
C598 C 0.39906 0.86412 0.27076 0.0
C599 C 0.39295 0.89458 0.25929 0.0
C600 C 0.37079 0.88661 0.26597 0.0
C601 C 0.36278 0.86771 0.2755 0.0
C602 C 0.49198 0.89159 0.26319 0.0
C603 C 0.50406 0.88212 0.25464 0.0
C604 C 0.49673 0.89442 0.27881 0.0
C605 C 0.51209 0.88679 0.28568 0.0
C606 C 0.52325 0.87628 0.27711 0.0
C607 C 0.51955 0.8747 0.26149 0.0
C608 C 0.37752 0.8568 0.27782 0.0
H609 H 0.48984 0.9219 0.18847 0.0
H610 H 0.48028 0.90146 0.21123 0.0
H611 H 0.44494 0.94251 0.22505 0.0
H612 H 0.45364 0.96219 0.20206 0.0
H613 H 0.49389 0.91251 0.23737 0.0
H614 H 0.42063 0.90309 0.23493 0.0
H615 H 0.44856 0.88286 0.2729 0.0
H616 H 0.409 0.85435 0.27258 0.0
H617 H 0.39873 0.90969 0.25246 0.0
H618 H 0.36001 0.89536 0.26357 0.0
H619 H 0.50083 0.8795 0.24261 0.0
H620 H 0.48818 0.9021 0.28579 0.0
H621 H 0.37283 0.84269 0.28529 0.0
H622 H 0.52829 0.86726 0.25449 0.0
H623 H 0.51445 0.88832 0.29771 0.0
C624 C 0.01481 0.50548 0.219 0.0
C625 C 0.02979 0.52628 0.2117 0.0
C626 C 0.02094 0.5047 0.234 0.0
C627 C 0.04206 0.52477 0.24201 0.0
C628 C 0.05729 0.5453 0.23463 0.0
C629 C 0.05128 0.54602 0.21966 0.0
C630 C 0.04807 0.52458 0.25808 0.0
C631 C 0.04809 0.50405 0.26335 0.0
C632 C 0.05504 0.50436 0.27845 0.0
C633 C 0.06098 0.52514 0.28835 0.0
C634 C 0.06173 0.54614 0.28323 0.0
C635 C 0.05508 0.54556 0.26805 0.0
C636 C 0.07155 0.56935 0.2934 0.0
C637 C 0.0912 0.57614 0.30449 0.0
C638 C 0.06269 0.58576 0.29147 0.0
C639 C 0.0741 0.60888 0.29978 0.0
C640 C 0.09441 0.61603 0.31045 0.0
C641 C 0.05858 0.48421 0.28362 0.0
C642 C 0.04244 0.45942 0.27799 0.0
C643 C 0.07928 0.48996 0.29361 0.0
C644 C 0.08409 0.47154 0.29758 0.0
C645 C 0.06844 0.44692 0.29158 0.0
C646 C 0.04736 0.44097 0.28191 0.0
C647 C 0.10225 0.59901 0.31301 0.0
H648 H 0.99801 0.49005 0.21326 0.0
H649 H 0.00882 0.48869 0.23944 0.0
H650 H 0.07398 0.56082 0.24044 0.0
H651 H 0.06357 0.56206 0.2143 0.0
H652 H 0.04403 0.48843 0.25551 0.0
H653 H 0.05594 0.56169 0.26383 0.0
H654 H 0.06553 0.52509 0.30007 0.0
H655 H 0.09883 0.56425 0.30627 0.0
H656 H 0.04726 0.58103 0.28328 0.0
H657 H 0.06758 0.62147 0.29738 0.0
H658 H 0.02618 0.45432 0.27043 0.0
H659 H 0.09243 0.50889 0.29792 0.0
H660 H 0.11742 0.60357 0.32135 0.0
H661 H 0.03485 0.42208 0.27722 0.0
H662 H 0.10072 0.4768 0.30483 0.0
C663 C 0.42198 0.50956 0.18827 0.0
C664 C 0.44505 0.5151 0.18343 0.0
C665 C 0.42025 0.51625 0.20304 0.0
C666 C 0.44156 0.52858 0.21333 0.0
C667 C 0.46454 0.53369 0.2085 0.0
C668 C 0.46627 0.52713 0.19375 0.0
C669 C 0.44015 0.53668 0.22893 0.0
C670 C 0.42028 0.52155 0.23701 0.0
C671 C 0.41942 0.52913 0.25186 0.0
C672 C 0.43877 0.55217 0.2585 0.0
C673 C 0.45875 0.56756 0.25068 0.0
C674 C 0.45908 0.55972 0.23587 0.0
C675 C 0.47962 0.59137 0.25824 0.0
C676 C 0.47505 0.60571 0.26878 0.0
C677 C 0.50442 0.59922 0.25567 0.0
C678 C 0.52409 0.6202 0.26392 0.0
C679 C 0.51934 0.63351 0.27499 0.0
C680 C 0.39855 0.51329 0.26064 0.0
C681 C 0.37386 0.49964 0.25402 0.0
C682 C 0.40309 0.51271 0.27599 0.0
C683 C 0.38352 0.5 0.28461 0.0
C684 C 0.35887 0.48706 0.27808 0.0
C685 C 0.35425 0.48654 0.26264 0.0
C686 C 0.49469 0.62638 0.27716 0.0
H687 H 0.40529 0.50047 0.18057 0.0
H688 H 0.40231 0.51226 0.20631 0.0
H689 H 0.48128 0.54265 0.21616 0.0
H690 H 0.48425 0.53122 0.19048 0.0
H691 H 0.4059 0.50357 0.23189 0.0
H692 H 0.474 0.5718 0.22961 0.0
H693 H 0.43837 0.55814 0.26991 0.0
H694 H 0.45626 0.60071 0.2708 0.0
H695 H 0.50873 0.58856 0.24777 0.0
H696 H 0.54301 0.6253 0.26217 0.0
H697 H 0.36956 0.49973 0.24227 0.0
H698 H 0.42184 0.52229 0.28146 0.0
H699 H 0.49066 0.6365 0.28562 0.0
H700 H 0.33539 0.47671 0.25733 0.0
H701 H 0.38768 0.50032 0.29643 0.0
Tb702 Tb 0.50285 0.98897 0.98897 0.0
Eu703 Eu 0.5238 0.0141 0.02389 0.0
C704 C 0.52143 0.96522 0.01201 0.0
C705 C 0.46688 0.97422 0.01377 0.0
C706 C 0.49398 0.9781 0.94693 0.0
C707 C 0.50005 0.96794 0.92172 0.0
C708 C 0.49613 0.96219 0.93634 0.0
C709 C 0.4965 0.00036 0.94272 0.0
C710 C 0.50037 0.00613 0.928 0.0
C711 C 0.50175 0.98974 0.91724 0.0
C712 C 0.48863 0.97053 0.96208 0.0
O713 O 0.4935 0.0179 0.99288 0.0
O714 O 0.5243 0.04382 0.01125 0.0
O715 O 0.55729 0.02588 0.01087 0.0
O716 O 0.53827 0.02197 0.98752 0.0
C717 C 0.50722 0.0397 1.00054 0.0
O718 O 0.52347 0.03537 0.04384 0.0
O719 O 0.54685 0.01896 0.04433 0.0
O720 O 0.51418 0.97464 0.02253 0.0
O721 O 0.52349 0.97283 0.99873 0.0
O722 O 0.4737 0.96557 1.00248 0.0
O723 O 0.48212 0.99557 0.02142 0.0
C724 C 0.55838 0.03048 0.99683 0.0
O725 O 0.50627 0.96998 0.9701 0.0
O726 O 0.47754 0.97948 0.96996 0.0
C727 C 0.52954 0.02173 0.06688 0.0
C728 C 0.51646 0.00856 0.09588 0.0
C729 C 0.5116 0.02571 0.0894 0.0
C730 C 0.51817 0.03229 0.07516 0.0
C731 C 0.53392 0.00411 0.07316 0.0
C732 C 0.5274 0.99757 0.08747 0.0
C733 C 0.53769 0.03017 0.05214 0.0
H734 H 0.50159 0.95514 0.91387 0.0
H735 H 0.4945 0.94505 0.93936 0.0
H736 H 0.49511 0.01308 0.95072 0.0
H737 H 0.50152 0.02304 0.92494 0.0
H738 H 0.50278 0.03423 0.09537 0.0
H739 H 0.51458 0.04594 0.07069 0.0
H740 H 0.54274 0.99564 0.06714 0.0
H741 H 0.53164 0.98447 0.09211 0.0
Tb742 Tb 1.00442 0.49895 1.00379 0.0
Eu743 Eu 0.97444 0.49038 0.03361 0.0
C744 C 0.02791 0.53707 0.03277 0.0
C745 C 0.01562 0.4747 0.0302 0.0
C746 C 0.01762 0.49868 0.96434 0.0
C747 C 0.02464 0.50795 0.93885 0.0
C748 C 0.03239 0.51392 0.95407 0.0
C749 C 0.99488 0.47741 0.95925 0.0
C750 C 0.98721 0.47131 0.94401 0.0
C751 C 1.00202 0.48655 0.93367 0.0
C752 C 0.0259 0.50556 0.98031 0.0
O753 O 0.97377 0.46069 1.00035 0.0
O754 O 0.94657 0.46305 0.01551 0.0
O755 O 0.96991 0.51787 0.021 0.0
O756 O 0.97265 0.50345 0.99783 0.0
C757 C 0.9513 0.45174 0.0046 0.0
O758 O 0.95577 0.468 0.0514 0.0
O759 O 0.95822 0.50339 0.04999 0.0
O760 O 0.01355 0.51985 0.04084 0.0
O761 O 0.02414 0.53401 0.01813 0.0
O762 O 0.02519 0.49044 0.02027 0.0
O763 O 0.99347 0.468 0.03425 0.0
C764 C 0.9654 0.51568 0.0065 0.0
O765 O 0.02076 0.52137 0.98678 0.0
O766 O 0.02141 0.48752 0.98833 0.0
C767 C 0.96161 0.49205 0.07395 0.0
C768 C 0.97827 0.50547 0.1045 0.0
C769 C 0.95583 0.4836 0.0997 0.0
C770 C 0.94753 0.47699 0.08453 0.0
C771 C 0.98429 0.51361 0.0787 0.0
C772 C 0.99248 0.52032 0.09383 0.0
C773 C 0.95267 0.48516 0.05803 0.0
H774 H 0.03653 0.5199 0.93112 0.0
H775 H 0.04993 0.53046 0.95783 0.0
H776 H 0.98305 0.46557 0.96704 0.0
H777 H 0.96957 0.45485 0.94034 0.0
H778 H 0.94445 0.47188 0.10769 0.0
H779 H 0.93004 0.46022 0.08106 0.0
H780 H 0.99562 0.52537 0.07072 0.0
H781 H 0.01003 0.53708 0.09719 0.0
Tb782 Tb 0.50652 0.50308 0.01569 0.0
Eu783 Eu 0.4853 0.5118 0.98379 0.0
C784 C 0.48962 0.46499 0.98737 0.0
C785 C 0.54233 0.52885 0.99148 0.0
C786 C 0.51201 0.49739 0.05592 0.0
C787 C 0.49535 0.47693 0.07789 0.0
C788 C 0.50525 0.47741 0.06436 0.0
C789 C 0.50926 0.51726 0.06145 0.0
C790 C 0.49963 0.51692 0.07511 0.0
C791 C 0.49219 0.49654 0.08335 0.0
C792 C 0.51983 0.49607 0.04092 0.0
O793 O 0.5127 0.54061 0.01806 0.0
O794 O 0.48265 0.53757 1.00073 0.0
O795 O 0.45184 0.48591 0.99496 0.0
O796 O 0.46985 0.49745 0.0191 0.0
C797 C 0.49832 0.5487 0.01268 0.0
O798 O 0.48652 0.53569 0.96698 0.0
O799 O 0.4616 0.49618 0.96279 0.0
O800 O 0.49634 0.48347 0.97938 0.0
O801 O 0.48796 0.46784 1.00167 0.0
O802 O 0.53637 0.51245 1.00116 0.0
O803 O 0.52676 0.53597 0.98703 0.0
C804 C 0.45008 0.48665 0.00937 0.0
O805 O 0.50288 0.47854 0.03138 0.0
O806 O 0.53195 0.51669 0.03494 0.0
C807 C 0.48302 0.51657 0.94302 0.0
C808 C 0.50236 0.51081 0.91657 0.0
C809 C 0.47821 0.50731 0.91616 0.0
C810 C 0.46862 0.51014 0.9293 0.0
C811 C 0.50725 0.52053 0.94344 0.0
C812 C 0.51688 0.51785 0.93036 0.0
C813 C 0.47232 0.51713 0.95701 0.0
H814 H 0.49003 0.46111 0.08408 0.0
H815 H 0.50707 0.46185 0.0603 0.0
H816 H 0.51401 0.53279 0.05508 0.0
H817 H 0.49724 0.53221 0.07898 0.0
H818 H 0.46641 0.50159 0.90577 0.0
H819 H 0.44977 0.50671 0.92879 0.0
H820 H 0.51859 0.52522 0.95395 0.0
H821 H 0.53566 0.52108 0.93109 0.0
Tb822 Tb 0.17051 0.32175 0.32137 0.0
Eu823 Eu 0.17877 0.35257 0.35462 0.0
C824 C 0.2018 0.31775 0.34775 0.0
C825 C 0.13448 0.29736 0.34608 0.0
C826 C 0.17284 0.31423 0.28121 0.0
C827 C 0.18144 0.31287 0.25538 0.0
C828 C 0.17417 0.30129 0.26843 0.0
C829 C 0.17872 0.33883 0.28077 0.0
C830 C 0.18583 0.35034 0.26777 0.0
C831 C 0.18752 0.33763 0.2549 0.0
C832 C 0.16612 0.30257 0.29517 0.0
O833 O 0.16166 0.35032 0.31767 0.0
O834 O 0.15024 0.35643 0.34049 0.0
O835 O 0.20394 0.38141 0.34039 0.0
O836 O 0.20715 0.35472 0.3232 0.0
C837 C 0.14934 0.35731 0.32603 0.0
O838 O 0.163 0.3626 0.37284 0.0
O839 O 0.2021 0.37425 0.3751 0.0
O840 O 0.2059 0.33905 0.35398 0.0
O841 O 0.18406 0.30504 0.33689 0.0
O842 O 0.13643 0.30015 0.33183 0.0
O843 O 0.15228 0.31251 0.35631 0.0
C844 C 0.21484 0.37716 0.32945 0.0
O845 O 0.18471 0.30831 0.30501 0.0
O846 O 0.14822 0.3037 0.30126 0.0
C847 C 0.18124 0.36436 0.39707 0.0
C848 C 0.17691 0.35151 0.42672 0.0
C849 C 0.19807 0.37278 0.42306 0.0
C850 C 0.20014 0.37913 0.40845 0.0
C851 C 0.16036 0.3427 0.40055 0.0
C852 C 0.15823 0.33634 0.41521 0.0
C853 C 0.18337 0.37229 0.38185 0.0
H854 H 0.18283 0.30258 0.24579 0.0
H855 H 0.16987 0.28234 0.26859 0.0
H856 H 0.17795 0.34924 0.29053 0.0
H857 H 0.1899 0.36924 0.26782 0.0
H858 H 0.21307 0.38466 0.43152 0.0
H859 H 0.21647 0.39582 0.40606 0.0
H860 H 0.14547 0.33086 0.39202 0.0
H861 H 0.14161 0.31994 0.41758 0.0
Tb862 Tb 0.68901 0.84164 0.33216 0.0
Eu863 Eu 0.65821 0.82371 0.36188 0.0
C864 C 0.70109 0.87845 0.36096 0.0
C865 C 0.70954 0.82416 0.35838 0.0
C866 C 0.70854 0.8547 0.29382 0.0
C867 C 0.72335 0.86964 0.27032 0.0
C868 C 0.72789 0.86967 0.28559 0.0
C869 C 0.68466 0.83901 0.28658 0.0
C870 C 0.6801 0.83889 0.27125 0.0
C871 C 0.69932 0.85462 0.26304 0.0
C872 C 0.71324 0.85745 0.31005 0.0
O873 O 0.66657 0.80123 0.32763 0.0
O874 O 0.63743 0.7918 0.34454 0.0
O875 O 0.63935 0.83901 0.34716 0.0
O876 O 0.65172 0.83261 0.32472 0.0
C877 C 0.64577 0.78568 0.33301 0.0
O878 O 0.64276 0.79857 0.379 0.0
O879 O 0.63823 0.83056 0.37873 0.0
O880 O 0.69208 0.85996 0.36903 0.0
O881 O 0.69716 0.87495 0.34635 0.0
O882 O 0.71455 0.84034 0.34874 0.0
O883 O 0.68772 0.81271 0.36354 0.0
C884 C 0.63678 0.83657 0.33251 0.0
O885 O 0.70322 0.86835 0.3172 0.0
O886 O 0.71074 0.83826 0.31625 0.0
C887 C 0.64392 0.81883 0.40213 0.0
C888 C 0.65843 0.83213 0.43288 0.0
C889 C 0.6364 0.81009 0.42769 0.0
C890 C 0.62915 0.80355 0.4124 0.0
C891 C 0.66629 0.84045 0.40726 0.0
C892 C 0.67342 0.84712 0.42251 0.0
C893 C 0.63576 0.81242 0.38612 0.0
H894 H 0.73857 0.88168 0.26424 0.0
H895 H 0.74641 0.88191 0.29105 0.0
H896 H 0.66947 0.82746 0.29284 0.0
H897 H 0.66137 0.82726 0.26594 0.0
H898 H 0.62447 0.79827 0.43544 0.0
H899 H 0.61188 0.78674 0.40862 0.0
H900 H 0.67811 0.85233 0.39949 0.0
H901 H 0.69067 0.86401 0.42619 0.0
Tb902 Tb 0.19215 0.84163 0.35789 0.0
Eu903 Eu 0.16645 0.83622 0.32389 0.0
C904 C 0.16199 0.79103 0.33953 0.0
C905 C 0.22146 0.84524 0.33004 0.0
C906 C 0.19992 0.83977 0.39896 0.0
C907 C 0.18042 0.81042 0.41706 0.0
C908 C 0.18955 0.81569 0.40318 0.0
C909 C 0.20106 0.85844 0.40897 0.0
C910 C 0.19184 0.85315 0.42281 0.0
C911 C 0.18147 0.82909 0.42704 0.0
C912 C 0.21003 0.8458 0.38439 0.0
O913 O 0.20898 0.87818 0.35021 0.0
O914 O 0.17539 0.87269 0.3354 0.0
O915 O 0.13489 0.82515 0.33846 0.0
O916 O 0.15869 0.84317 0.361 0.0
C917 C 0.19616 0.88712 0.34383 0.0
O918 O 0.16423 0.85296 0.30392 0.0
O919 O 0.14189 0.81338 0.30411 0.0
O920 O 0.16858 0.80231 0.32753 0.0
O921 O 0.16371 0.80312 0.35229 0.0
O922 O 0.21616 0.8368 0.34307 0.0
O923 O 0.20743 0.8516 0.32242 0.0
C924 C 0.13734 0.83296 0.35266 0.0
O925 O 0.20489 0.82745 0.3745 0.0
O926 O 0.2083 0.86325 0.37838 0.0
C927 C 0.16018 0.82838 0.28217 0.0
C928 C 0.18013 0.82311 0.25583 0.0
C929 C 0.15663 0.82122 0.25521 0.0
C930 C 0.14677 0.82387 0.26828 0.0
C931 C 0.18352 0.83013 0.28286 0.0
C932 C 0.19344 0.82764 0.26985 0.0
C933 C 0.15031 0.83179 0.29596 0.0
H934 H 0.17239 0.79166 0.41995 0.0
H935 H 0.1885 0.80088 0.39578 0.0
H936 H 0.20924 0.87725 0.40615 0.0
H937 H 0.19333 0.86804 0.43032 0.0
H938 H 0.14572 0.81744 0.24464 0.0
H939 H 0.12871 0.82243 0.26754 0.0
H940 H 0.1942 0.83364 0.29348 0.0
H941 H 0.21173 0.82963 0.2708 0.0
Tb942 Tb 0.83109 0.64644 0.65637 0.0
Eu943 Eu 0.83994 0.67379 0.69095 0.0
C944 C 0.8524 0.63054 0.68269 0.0
C945 C 0.79108 0.62251 0.67922 0.0
C946 C 0.83541 0.64382 0.61598 0.0
C947 C 0.84479 0.64394 0.59023 0.0
C948 C 0.83646 0.63142 0.60285 0.0
C949 C 0.84281 0.66894 0.61633 0.0
C950 C 0.85096 0.68142 0.60373 0.0
C951 C 0.85218 0.66916 0.5905 0.0
C952 C 0.82692 0.63076 0.62932 0.0
O953 O 0.82831 0.67913 0.65472 0.0
O954 O 0.81463 0.68272 0.67718 0.0
O955 O 0.86838 0.70241 0.67803 0.0
O956 O 0.87002 0.67461 0.66112 0.0
C957 C 0.81567 0.6858 0.66296 0.0
O958 O 0.82607 0.68553 0.7095 0.0
O959 O 0.86309 0.69083 0.71215 0.0
O960 O 0.8595 0.65178 0.69046 0.0
O961 O 0.83709 0.6229 0.67045 0.0
O962 O 0.79521 0.62675 0.66531 0.0
O963 O 0.80821 0.63513 0.69035 0.0
C964 C 0.87919 0.69723 0.66747 0.0
O965 O 0.84436 0.63345 0.63917 0.0
O966 O 0.80986 0.63321 0.63558 0.0
C967 C 0.83941 0.6786 0.73269 0.0
C968 C 0.82883 0.65443 0.75899 0.0
C969 C 0.84685 0.67966 0.75952 0.0
C970 C 0.85206 0.69162 0.74649 0.0
C971 C 0.82143 0.6535 0.73213 0.0
C972 C 0.81604 0.64163 0.74509 0.0
C973 C 0.84515 0.69087 0.71887 0.0
H974 H 0.84581 0.63395 0.58036 0.0
H975 H 0.83098 0.61207 0.60239 0.0
H976 H 0.84225 0.67893 0.62636 0.0
H977 H 0.85609 0.70067 0.60437 0.0
H978 H 0.8573 0.69009 0.76995 0.0
H979 H 0.86613 0.71097 0.74717 0.0
H980 H 0.81155 0.64303 0.72161 0.0
H981 H 0.80172 0.62236 0.74419 0.0
Tb982 Tb 0.33954 0.15791 0.65509 0.0
Eu983 Eu 0.32415 0.15801 0.68917 0.0
C984 C 0.36541 0.20584 0.67712 0.0
C985 C 0.36739 0.14693 0.68135 0.0
C986 C 0.34905 0.16499 0.61429 0.0
C987 C 0.36876 0.19299 0.5956 0.0
C988 C 0.36918 0.18646 0.61005 0.0
C989 C 0.3283 0.15049 0.60388 0.0
C990 C 0.32792 0.15696 0.58945 0.0
C991 C 0.34833 0.178 0.58508 0.0
C992 C 0.35081 0.15625 0.62884 0.0
O993 O 0.31769 0.11994 0.66019 0.0
O994 O 0.2927 0.12604 0.67497 0.0
O995 O 0.30683 0.17655 0.67666 0.0
O996 O 0.30732 0.16284 0.65249 0.0
C997 C 0.29631 0.11162 0.66568 0.0
O998 O 0.30525 0.13707 0.70721 0.0
O999 O 0.32325 0.17704 0.70997 0.0
O1000 O 0.36111 0.19193 0.68804 0.0
O1001 O 0.35404 0.19631 0.66369 0.0
O1002 O 0.36872 0.15704 0.66889 0.0
O1003 O 0.34914 0.14163 0.68965 0.0
C1004 C 0.29983 0.17346 0.66231 0.0
O1005 O 0.36589 0.17257 0.63965 0.0
O1006 O 0.33013 0.13982 0.6335 0.0
C1007 C 0.32317 0.15684 0.73146 0.0
C1008 C 0.34272 0.15627 0.76023 0.0
C1009 C 0.3243 0.13425 0.75206 0.0
C1010 C 0.31455 0.13455 0.73788 0.0
C1011 C 0.3416 0.17891 0.73962 0.0
C1012 C 0.35126 0.17862 0.75388 0.0
C1013 C 0.3124 0.15675 0.71646 0.0
H1014 H 0.38484 0.20919 0.5925 0.0
H1015 H 0.38559 0.19782 0.61775 0.0
H1016 H 0.31258 0.13369 0.60672 0.0
H1017 H 0.31178 0.14525 0.58162 0.0
H1018 H 0.31704 0.11681 0.75677 0.0
H1019 H 0.30012 0.11729 0.73195 0.0
H1020 H 0.34855 0.19642 0.73504 0.0
H1021 H 0.36554 0.19586 0.75989 0.0
Tb1022 Tb 0.85645 0.17351 0.68574 0.0
Eu1023 Eu 0.82487 0.17285 0.65497 0.0
C1024 C 0.83179 0.12865 0.66205 0.0
C1025 C 0.88302 0.19019 0.65666 0.0
C1026 C 0.87201 0.17141 0.72581 0.0
C1027 C 0.86928 0.15423 0.74941 0.0
C1028 C 0.87437 0.15493 0.73455 0.0
C1029 C 0.8642 0.1871 0.73213 0.0
C1030 C 0.85927 0.18655 0.74707 0.0
C1031 C 0.86187 0.17017 0.75594 0.0
C1032 C 0.87694 0.17115 0.71005 0.0
O1033 O 0.86595 0.21173 0.68433 0.0
O1034 O 0.83209 0.20636 0.66946 0.0
O1035 O 0.79649 0.15589 0.67166 0.0
O1036 O 0.82378 0.17332 0.69291 0.0
C1037 C 0.85181 0.22003 0.67891 0.0
O1038 O 0.81822 0.19211 0.63767 0.0
O1039 O 0.79775 0.15211 0.63573 0.0
O1040 O 0.83504 0.14349 0.65189 0.0
O1041 O 0.83179 0.13562 0.67596 0.0
O1042 O 0.88114 0.17811 0.66837 0.0
O1043 O 0.86552 0.19478 0.65211 0.0
C1044 C 0.80111 0.16237 0.68615 0.0
O1045 O 0.86048 0.15197 0.7013 0.0
O1046 O 0.88406 0.19145 0.70381 0.0
C1047 C 0.8119 0.17179 0.61374 0.0
C1048 C 0.83253 0.17646 0.58626 0.0
C1049 C 0.8236 0.19205 0.5911 0.0
C1050 C 0.81332 0.18966 0.60466 0.0
C1051 C 0.82031 0.1558 0.60877 0.0
C1052 C 0.83034 0.158 0.59511 0.0
C1053 C 0.80416 0.17185 0.6289 0.0
H1054 H 0.87094 0.14097 0.75573 0.0
H1055 H 0.88003 0.14243 0.72984 0.0
H1056 H 0.86194 0.1998 0.72555 0.0
H1057 H 0.85381 0.19924 0.75171 0.0
H1058 H 0.82483 0.20629 0.58445 0.0
H1059 H 0.80713 0.2023 0.60829 0.0
H1060 H 0.81982 0.14206 0.61562 0.0
H1061 H 0.83727 0.14588 0.59175 0.0
H1062 H 0.3573 0.86514 0.0504 0.0
H1063 H 0.32268 0.91036 0.05265 0.0
H1064 H 0.35567 0.94117 0.03931 0.0
H1065 H 0.4195 0.91366 0.05583 0.0
H1066 H 0.43091 0.8997 0.04282 0.0
H1067 H 0.40402 0.88053 0.05205 0.0
H1068 H 0.37862 0.85962 0.02651 0.0
H1069 H 0.40548 0.87875 0.01719 0.0
H1070 H 0.37679 0.87842 0.01281 0.0
H1071 H 0.39411 0.96881 0.02786 0.0
H1072 H 0.43479 0.9906 0.01776 0.0
H1073 H 0.44309 0.92648 0.0208 0.0
C1074 C 0.35635 0.88128 0.04787 0.0
C1075 C 0.3374 0.88534 0.05278 0.0
C1076 C 0.33721 0.90698 0.04936 0.0
C1077 C 0.35577 0.92453 0.04164 0.0
C1078 C 0.37428 0.9201 0.03716 0.0
C1079 C 0.37463 0.89892 0.04 0.0
C1080 C 0.39705 0.89904 0.03422 0.0
C1081 C 0.41386 0.89819 0.04699 0.0
C1082 C 0.389 0.87768 0.02195 0.0
C1083 C 0.40945 0.9238 0.02796 0.0
C1084 C 0.39598 0.93564 0.02983 0.0
C1085 C 0.40456 0.95954 0.02605 0.0
C1086 C 0.42763 0.97176 0.02034 0.0
C1087 C 0.44162 0.95994 0.01824 0.0
C1088 C 0.43229 0.93555 0.0219 0.0
H1089 H 0.13467 0.46082 0.05031 0.0
H1090 H 0.09651 0.42065 0.08678 0.0
H1091 H 0.06045 0.42457 0.07885 0.0
H1092 H 0.11301 0.50454 0.05327 0.0
H1093 H 0.11001 0.50587 0.03348 0.0
H1094 H 0.13271 0.49919 0.04163 0.0
H1095 H 0.1138 0.45881 0.02383 0.0
H1096 H 0.09095 0.4653 0.01568 0.0
H1097 H 0.08122 0.43645 0.02338 0.0
H1098 H 0.02844 0.43251 0.06717 0.0
H1099 H 1.00315 0.446 0.05324 0.0
H1100 H 0.06222 0.48287 0.02485 0.0
C1101 C 0.11883 0.45298 0.05671 0.0
C1102 C 0.11846 0.44007 0.06908 0.0
C1103 C 0.09717 0.43003 0.07704 0.0
C1104 C 0.07658 0.43231 0.07269 0.0
C1105 C 0.0775 0.44489 0.06041 0.0
C1106 C 0.09811 0.45526 0.05259 0.0
C1107 C 0.09439 0.4684 0.04003 0.0
C1108 C 0.11368 0.49615 0.04224 0.0
C1109 C 0.09513 0.45652 0.02483 0.0
C1110 C 0.06849 0.46377 0.04206 0.0
C1111 C 0.0591 0.45003 0.05383 0.0
C1112 C 0.03558 0.44332 0.05793 0.0
C1113 C 0.02132 0.45106 0.0499 0.0
C1114 C 0.03061 0.46553 0.03791 0.0
C1115 C 0.05452 0.47182 0.03392 0.0
H1116 H 0.54732 0.66223 0.07533 0.0
H1117 H 0.50805 0.68893 0.048 0.0
H1118 H 0.49079 0.65123 0.03062 0.0
H1119 H 0.5655 0.63841 0.04539 0.0
H1120 H 0.56205 0.61195 0.05404 0.0
H1121 H 0.56916 0.63968 0.06539 0.0
H1122 H 0.53047 0.61475 0.07938 0.0
H1123 H 0.52327 0.5869 0.06808 0.0
H1124 H 0.50041 0.59634 0.06896 0.0
H1125 H 0.47994 0.61224 0.0153 0.0
H1126 H 0.47642 0.57437 1.00293 0.0
H1127 H 0.52414 0.57373 0.03955 0.0
C1128 C 0.53496 0.66011 0.06576 0.0
C1129 C 0.52885 0.67851 0.06319 0.0
C1130 C 0.51255 0.6749 0.05049 0.0
C1131 C 0.50276 0.65359 0.04046 0.0
C1132 C 0.50946 0.63605 0.04322 0.0
C1133 C 0.52514 0.63901 0.05556 0.0
C1134 C 0.53055 0.61802 0.05543 0.0
C1135 C 0.55847 0.6276 0.05503 0.0
C1136 C 0.52057 0.60312 0.06876 0.0
C1137 C 0.51587 0.60314 0.04093 0.0
C1138 C 0.50363 0.61373 0.03416 0.0
C1139 C 0.4893 0.60365 0.02052 0.0
C1140 C 0.48746 0.58216 0.01358 0.0
C1141 C 0.50006 0.57112 0.02024 0.0
C1142 C 0.51434 0.58176 0.03414 0.0
H1143 H 0.88252 0.33446 0.94308 0.0
H1144 H 0.81829 0.30851 0.96818 0.0
H1145 H 0.84079 0.34606 0.98577 0.0
H1146 H 0.92793 0.35966 0.97496 0.0
H1147 H 0.95017 0.38577 0.96629 0.0
H1148 H 0.92867 0.35741 0.95505 0.0
H1149 H 0.91345 0.38114 0.9392 0.0
H1150 H 0.93491 0.40955 0.95041 0.0
H1151 H 0.90229 0.39959 0.94825 0.0
H1152 H 0.86995 0.38569 1.00089 0.0
H1153 H 0.90458 0.42495 0.01306 0.0
H1154 H 0.95102 0.42507 0.97902 0.0
C1155 C 0.87318 0.33661 0.95229 0.0
C1156 C 0.84842 0.31853 0.95408 0.0
C1157 C 0.83695 0.32226 0.96628 0.0
C1158 C 0.84965 0.34348 0.97643 0.0
C1159 C 0.87393 0.36084 0.97434 0.0
C1160 C 0.88567 0.35769 0.96261 0.0
C1161 C 0.91216 0.379 0.96323 0.0
C1162 C 0.93083 0.36991 0.96499 0.0
C1163 C 0.91591 0.39316 0.94945 0.0
C1164 C 0.91344 0.39447 0.97718 0.0
C1165 C 0.8911 0.38366 0.98332 0.0
C1166 C 0.88756 0.39436 0.99619 0.0
C1167 C 0.90739 0.41672 1.00302 0.0
C1168 C 0.9306 0.42815 0.99704 0.0
C1169 C 0.93358 0.41679 0.98392 0.0
H1170 H 0.66678 0.53471 0.96636 0.0
H1171 H 0.66457 0.58005 0.93259 0.0
H1172 H 0.62845 0.57899 0.94261 0.0
H1173 H 0.59992 0.49518 0.9643 0.0
H1174 H 0.59962 0.49181 0.98393 0.0
H1175 H 0.62641 0.49709 0.97471 0.0
H1176 H 0.65423 0.53524 0.99368 0.0
H1177 H 0.62748 0.5302 1.00288 0.0
H1178 H 0.64696 0.55957 0.99613 0.0
H1179 H 0.59312 0.57378 0.95604 0.0
H1180 H 0.55774 0.56151 0.97067 0.0
H1181 H 0.57945 0.51659 0.99499 0.0
C1182 C 0.65867 0.54431 0.96097 0.0
C1183 C 0.66918 0.55797 0.9488 0.0
C1184 C 0.65772 0.57019 0.9422 0.0
C1185 C 0.63695 0.56954 0.94775 0.0
C1186 C 0.62739 0.55628 0.95981 0.0
C1187 C 0.63757 0.54357 0.96625 0.0
C1188 C 0.62273 0.52983 0.97871 0.0
C1189 C 0.6115 0.50182 0.9752 0.0
C1190 C 0.63882 0.53928 0.99374 0.0
C1191 C 0.60267 0.53688 0.97821 0.0
C1192 C 0.60603 0.55237 0.96729 0.0
C1193 C 0.59022 0.56158 0.96458 0.0
C1194 C 0.57011 0.55446 0.97304 0.0
C1195 C 0.56558 0.53796 0.98404 0.0
C1196 C 0.58236 0.52928 0.98674 0.0
H1197 H 0.43001 0.09929 0.96908 0.0
H1198 H 0.49865 0.17018 0.97568 0.0
H1199 H 0.51995 0.15055 0.9873 0.0
H1200 H 0.43893 0.07414 1.00216 0.0
H1201 H 0.42641 0.04352 0.99281 0.0
H1202 H 0.41574 0.06357 0.98646 0.0
H1203 H 0.42747 0.05826 0.96 0.0
H1204 H 0.43816 0.0382 0.96626 0.0
H1205 H 0.45871 0.06523 0.95763 0.0
H1206 H 0.53424 0.12305 0.99767 0.0
H1207 H 0.54092 0.0891 0.00445 0.0
H1208 H 0.46416 0.03595 0.98874 0.0
C1209 C 0.44953 0.1108 0.97289 0.0
C1210 C 0.46244 0.13645 0.97155 0.0
C1211 C 0.48799 0.15066 0.9769 0.0
C1212 C 0.50039 0.13964 0.98344 0.0
C1213 C 0.48713 0.11433 0.98439 0.0
C1214 C 0.46233 0.10005 0.97914 0.0
C1215 C 0.45277 0.07298 0.98055 0.0
C1216 C 0.43225 0.06297 0.99113 0.0
C1217 C 0.44375 0.05778 0.9652 0.0
C1218 C 0.47616 0.07427 0.98728 0.0
C1219 C 0.49568 0.09832 0.98963 0.0
C1220 C 0.51911 0.10413 0.99587 0.0
C1221 C 0.52272 0.08478 0.9997 0.0
C1222 C 0.50309 0.06 0.99702 0.0
C1223 C 0.47955 0.05475 0.99077 0.0
H1224 H 0.64941 0.1113 0.9386 0.0
H1225 H 0.70974 0.11251 0.96556 0.0
H1226 H 0.6804 0.08782 0.98319 0.0
H1227 H 0.61659 0.11646 0.96852 0.0
H1228 H 0.58624 0.09562 0.95901 0.0
H1229 H 0.61193 0.11324 0.94848 0.0
H1230 H 0.60403 0.07292 0.93362 0.0
H1231 H 0.57822 0.0552 0.94405 0.0
H1232 H 0.60308 0.04848 0.94351 0.0
H1233 H 0.64452 0.06439 0.9985 0.0
H1234 H 0.60436 0.04105 0.00904 0.0
H1235 H 0.56748 0.05405 0.97153 0.0
C1236 C 0.65641 0.10632 0.94821 0.0
C1237 C 0.68185 0.11381 0.95072 0.0
C1238 C 0.69028 0.10676 0.96335 0.0
C1239 C 0.67379 0.09288 0.97347 0.0
C1240 C 0.64886 0.08598 0.97074 0.0
C1241 C 0.64015 0.09222 0.95832 0.0
C1242 C 0.61242 0.0821 0.95779 0.0
C1243 C 0.60646 0.10311 0.9585 0.0
C1244 C 0.59863 0.06357 0.94392 0.0
C1245 C 0.60692 0.06935 0.9719 0.0
C1246 C 0.62819 0.07195 0.9793 0.0
C1247 C 0.62772 0.06211 0.99275 0.0
C1248 C 0.60486 0.04898 0.99869 0.0
C1249 C 0.58276 0.04561 0.9911 0.0
C1250 C 0.58398 0.0561 0.97757 0.0
H1251 H 0.8653 0.52164 0.95043 0.0
H1252 H 0.87939 0.58725 0.97819 0.0
H1253 H 0.91071 0.58433 0.99423 0.0
H1254 H 0.87245 0.48907 0.97909 0.0
H1255 H 0.88834 0.47691 0.96854 0.0
H1256 H 0.86687 0.48399 0.95907 0.0
H1257 H 0.90119 0.51265 0.94326 0.0
H1258 H 0.92276 0.50561 0.95266 0.0
H1259 H 0.93028 0.53725 0.95245 0.0
H1260 H 0.93882 0.57317 0.00817 0.0
H1261 H 0.96375 0.55578 0.01819 0.0
H1262 H 0.93441 0.49958 0.98043 0.0
C1263 C 0.87516 0.53565 0.95973 0.0
C1264 C 0.86941 0.5545 0.96307 0.0
C1265 C 0.88276 0.5722 0.97553 0.0
C1266 C 0.90084 0.57087 0.98467 0.0
C1267 C 0.90581 0.55198 0.98114 0.0
C1268 C 0.8936 0.53484 0.96888 0.0
C1269 C 0.90262 0.51644 0.96757 0.0
C1270 C 0.8813 0.49004 0.96863 0.0
C1271 C 0.91495 0.5181 0.95313 0.0
C1272 C 0.92153 0.52574 0.98114 0.0
C1273 C 0.92295 0.5462 0.98883 0.0
C1274 C 0.9381 0.55735 1.00214 0.0
C1275 C 0.95214 0.54731 0.00777 0.0
C1276 C 0.95119 0.52652 1.00001 0.0
C1277 C 0.93583 0.51576 0.98645 0.0
H1278 H 0.43728 0.31933 0.97953 0.0
H1279 H 0.4255 0.32061 0.93196 0.0
H1280 H 0.44206 0.36554 0.93575 0.0
H1281 H 0.42031 0.36554 0.99067 0.0
H1282 H 0.4434 0.37902 0.00651 0.0
H1283 H 0.42993 0.34678 1.00009 0.0
H1284 H 0.47394 0.35341 0.99763 0.0
H1285 H 0.48752 0.38572 1.00387 0.0
H1286 H 0.49424 0.37638 0.9863 0.0
H1287 H 0.46224 0.41014 0.94432 0.0
H1288 H 0.48058 0.45181 0.95743 0.0
H1289 H 0.47814 0.42204 0.99976 0.0
C1290 C 0.43801 0.32911 0.96996 0.0
C1291 C 0.43003 0.31657 0.95546 0.0
C1292 C 0.43119 0.32985 0.94317 0.0
C1293 C 0.44075 0.35537 0.9452 0.0
C1294 C 0.44885 0.36725 0.9596 0.0
C1295 C 0.44725 0.35459 0.97181 0.0
C1296 C 0.45707 0.37191 0.98609 0.0
C1297 C 0.43644 0.36542 0.99645 0.0
C1298 C 0.47953 0.37185 0.99393 0.0
C1299 C 0.46469 0.39631 0.97994 0.0
C1300 C 0.45996 0.39314 0.96462 0.0
C1301 C 0.46585 0.41288 0.95632 0.0
C1302 C 0.47641 0.43652 0.9639 0.0
C1303 C 0.48075 0.4402 0.97965 0.0
C1304 C 0.47498 0.4198 0.98773 0.0
H1305 H 0.14132 0.67711 0.04154 0.0
H1306 H 0.13646 0.6755 0.08911 0.0
H1307 H 0.10351 0.63171 0.08503 0.0
H1308 H 0.07597 0.63962 0.03104 0.0
H1309 H 0.07882 0.62364 0.01469 0.0
H1310 H 0.10328 0.65447 0.02127 0.0
H1311 H 0.13499 0.63929 0.02266 0.0
H1312 H 0.11059 0.6084 0.01607 0.0
H1313 H 0.12933 0.61404 0.03334 0.0
H1314 H 0.07103 0.58899 0.07611 0.0
H1315 H 0.03893 0.54953 0.06276 0.0
H1316 H 0.06286 0.57818 0.02055 0.0
C1317 C 0.13341 0.66735 0.05104 0.0
C1318 C 0.14133 0.67953 0.06564 0.0
C1319 C 0.13047 0.66643 0.07785 0.0
C1320 C 0.11186 0.64157 0.07565 0.0
C1321 C 0.10422 0.6301 0.06115 0.0
C1322 C 0.11447 0.64248 0.04902 0.0
C1323 C 0.10181 0.62591 0.03459 0.0
C1324 C 0.08922 0.63655 0.02483 0.0
C1325 C 0.12029 0.62166 0.02617 0.0
C1326 C 0.08278 0.60243 0.04055 0.0
C1327 C 0.08477 0.6053 0.05591 0.0
C1328 C 0.06925 0.58647 0.06407 0.0
C1329 C 0.05101 0.56408 0.05634 0.0
C1330 C 0.0482 0.56068 0.04056 0.0
C1331 C 0.06448 0.58015 0.0326 0.0
H1332 H 0.3503 0.47304 0.06523 0.0
H1333 H 0.29449 0.41257 0.03398 0.0
H1334 H 0.32669 0.41823 0.01769 0.0
H1335 H 0.38767 0.51099 0.03907 0.0
H1336 H 0.41683 0.52059 0.04976 0.0
H1337 H 0.3894 0.51214 0.05908 0.0
H1338 H 0.39555 0.47966 0.07203 0.0
H1339 H 0.42308 0.48812 0.06279 0.0
H1340 H 0.39823 0.45644 0.06088 0.0
H1341 H 0.3645 0.4317 1.00401 0.0
H1342 H 0.40606 0.44997 0.99498 0.0
H1343 H 0.43793 0.49901 0.03599 0.0
C1344 C 0.34476 0.46067 0.0551 0.0
C1345 C 0.31952 0.44259 0.05089 0.0
C1346 C 0.31339 0.42709 0.03737 0.0
C1347 C 0.33164 0.42997 0.02805 0.0
C1348 C 0.35615 0.44811 0.03246 0.0
C1349 C 0.36283 0.46295 0.04577 0.0
C1350 C 0.39063 0.48079 0.04798 0.0
C1351 C 0.39646 0.50772 0.04903 0.0
C1352 C 0.40257 0.47595 0.06173 0.0
C1353 C 0.39841 0.47385 0.03373 0.0
C1354 C 0.37819 0.45507 0.02489 0.0
C1355 C 0.38053 0.44623 0.01091 0.0
C1356 C 0.40417 0.45678 0.00584 0.0
C1357 C 0.42522 0.47576 0.01481 0.0
C1358 C 0.42222 0.48429 0.02896 0.0
H1359 H 0.54943 0.88483 0.06563 0.0
H1360 H 0.59854 0.88252 0.03424 0.0
H1361 H 0.58636 0.90492 0.0174 0.0
H1362 H 0.50103 0.87768 0.03919 0.0
H1363 H 0.49513 0.89913 0.04982 0.0
H1364 H 0.50695 0.88208 0.05919 0.0
H1365 H 0.54425 0.92298 0.072 0.0
H1366 H 0.53237 0.94013 0.06281 0.0
H1367 H 0.56356 0.94669 0.06074 0.0
H1368 H 0.56869 0.92761 1.00397 0.0
H1369 H 0.54975 0.95199 0.99602 0.0
H1370 H 0.51399 0.94091 0.03688 0.0
C1371 C 0.55794 0.88927 0.05533 0.0
C1372 C 0.57488 0.88175 0.05126 0.0
C1373 C 0.58518 0.88766 0.03751 0.0
C1374 C 0.57845 0.90046 0.02788 0.0
C1375 C 0.56153 0.90736 0.03221 0.0
C1376 C 0.55164 0.90222 0.04568 0.0
C1377 C 0.53452 0.91243 0.04797 0.0
C1378 C 0.50783 0.89158 0.0491 0.0
C1379 C 0.54427 0.9317 0.06169 0.0
C1380 C 0.53644 0.92426 0.0337 0.0
C1381 C 0.55187 0.92091 0.02467 0.0
C1382 C 0.55658 0.93037 0.01095 0.0
C1383 C 0.54565 0.94408 0.0065 0.0
C1384 C 0.53044 0.94837 0.01585 0.0
C1385 C 0.52555 0.93798 0.0295 0.0
H1386 H 0.03344 0.23369 0.40322 0.0
H1387 H 0.98556 0.1793 0.3666 0.0
H1388 H 0.01842 0.19925 0.35 0.0
H1389 H 0.06166 0.28528 0.38235 0.0
H1390 H 0.09203 0.29846 0.39236 0.0
H1391 H 0.06477 0.27976 0.40144 0.0
H1392 H 0.08203 0.25114 0.40785 0.0
H1393 H 0.10931 0.26985 0.39876 0.0
H1394 H 0.09074 0.23715 0.39314 0.0
H1395 H 0.05601 0.22615 0.337 0.0
H1396 H 0.09588 0.25753 0.32891 0.0
H1397 H 0.11989 0.29282 0.37425 0.0
C1398 C 0.02991 0.22573 0.39177 0.0
C1399 C 0.00668 0.20498 0.38626 0.0
C1400 C 1.0029 0.19547 0.37109 0.0
C1401 C 0.02156 0.20654 0.36157 0.0
C1402 C 0.04411 0.22702 0.36735 0.0
C1403 C 0.04843 0.23644 0.38212 0.0
C1404 C 0.07426 0.25877 0.3855 0.0
C1405 C 0.0731 0.28193 0.39071 0.0
C1406 C 0.09001 0.25392 0.39699 0.0
C1407 C 0.08364 0.26053 0.37028 0.0
C1408 C 0.06598 0.24208 0.35995 0.0
C1409 C 0.07008 0.24055 0.34503 0.0
C1410 C 0.09277 0.25847 0.34053 0.0
C1411 C 0.11113 0.27756 0.35094 0.0
C1412 C 0.10643 0.27833 0.36603 0.0
H1413 H 0.78641 0.78057 0.41047 0.0
H1414 H 0.84035 0.80561 0.37801 0.0
H1415 H 0.81439 0.81699 0.36291 0.0
H1416 H 0.73146 0.75452 0.38336 0.0
H1417 H 0.7146 0.76412 0.39495 0.0
H1418 H 0.73711 0.75736 0.40334 0.0
H1419 H 0.76013 0.8008 0.41806 0.0
H1420 H 0.73774 0.80772 0.40969 0.0
H1421 H 0.77034 0.8277 0.40815 0.0
H1422 H 0.78428 0.82713 0.35173 0.0
H1423 H 0.75037 0.83455 0.34435 0.0
H1424 H 0.71402 0.80213 0.38324 0.0
C1425 C 0.7926 0.78822 0.40011 0.0
C1426 C 0.81565 0.79248 0.39555 0.0
C1427 C 0.82311 0.80266 0.38194 0.0
C1428 C 0.80839 0.80903 0.37321 0.0
C1429 C 0.78608 0.80498 0.37811 0.0
C1430 C 0.77802 0.7947 0.39117 0.0
C1431 C 0.75324 0.79268 0.3938 0.0
C1432 C 0.7329 0.76555 0.39386 0.0
C1433 C 0.75551 0.80815 0.40829 0.0
C1434 C 0.74886 0.80362 0.38023 0.0
C1435 C 0.76815 0.81056 0.3714 0.0
C1436 C 0.76898 0.82168 0.35849 0.0
C1437 C 0.7496 0.82591 0.35444 0.0
C1438 C 0.72946 0.81898 0.36321 0.0
C1439 C 0.72905 0.8075 0.37626 0.0
H1440 H 0.25793 0.01798 0.39193 0.0
H1441 H 0.22664 0.04172 0.35695 0.0
H1442 H 0.21061 0.00149 0.3422 0.0
H1443 H 0.27692 0.98345 0.36712 0.0
H1444 H 0.26929 0.95954 0.37928 0.0
H1445 H 0.27903 0.99055 0.38695 0.0
H1446 H 0.23873 0.97424 0.40008 0.0
H1447 H 0.22888 0.94322 0.39245 0.0
H1448 H 0.20906 0.95604 0.38921 0.0
H1449 H 0.1958 0.95806 0.33194 0.0
H1450 H 0.18407 0.91436 0.32655 0.0
H1451 H 0.22674 0.91948 0.36752 0.0
C1452 C 0.24806 0.01489 0.38107 0.0
C1453 C 0.24342 0.03299 0.37566 0.0
C1454 C 0.23006 0.028 0.36147 0.0
C1455 C 0.22105 0.00529 0.35294 0.0
C1456 C 0.22576 0.98781 0.35867 0.0
C1457 C 0.23907 0.99236 0.37235 0.0
C1458 C 0.24099 0.97016 0.37607 0.0
C1459 C 0.26818 0.9763 0.37743 0.0
C1460 C 0.22868 0.96034 0.39029 0.0
C1461 C 0.22639 0.95233 0.36243 0.0
C1462 C 0.21777 0.9629 0.35253 0.0
C1463 C 0.20269 0.94965 0.3395 0.0
C1464 C 0.19608 0.92486 0.33656 0.0
C1465 C 0.2047 0.91366 0.34655 0.0
C1466 C 0.22028 0.9277 0.35955 0.0
H1467 H 0.55762 0.67845 0.2689 0.0
H1468 H 0.52649 0.63252 0.30452 0.0
H1469 H 0.55913 0.66515 0.32269 0.0
H1470 H 0.62381 0.70881 0.28415 0.0
H1471 H 0.63098 0.73845 0.27846 0.0
H1472 H 0.607 0.71053 0.26784 0.0
H1473 H 0.57554 0.72559 0.27087 0.0
H1474 H 0.59942 0.75354 0.28144 0.0
H1475 H 0.57089 0.73424 0.28928 0.0
H1476 H 0.59205 0.70295 0.33712 0.0
H1477 H 0.62278 0.74533 0.3476 0.0
H1478 H 0.63352 0.76839 0.30314 0.0
C1479 C 0.55809 0.67526 0.2805 0.0
C1480 C 0.53978 0.65303 0.2854 0.0
C1481 C 0.54045 0.64948 0.30065 0.0
C1482 C 0.55897 0.66781 0.31099 0.0
C1483 C 0.57663 0.68965 0.30591 0.0
C1484 C 0.57638 0.69361 0.29107 0.0
C1485 C 0.59636 0.7197 0.2889 0.0
C1486 C 0.61569 0.71934 0.27927 0.0
C1487 C 0.58486 0.73411 0.28223 0.0
C1488 C 0.60744 0.72985 0.30488 0.0
C1489 C 0.59589 0.71197 0.31442 0.0
C1490 C 0.60148 0.71703 0.32978 0.0
C1491 C 0.61892 0.74115 0.33562 0.0
C1492 C 0.63064 0.75996 0.32616 0.0
C1493 C 0.62525 0.75416 0.31056 0.0
H1494 H 0.33931 0.89421 0.28341 0.0
H1495 H 0.33213 0.82178 0.2848 0.0
H1496 H 0.29706 0.80951 0.29966 0.0
H1497 H 0.32208 0.90135 0.31888 0.0
H1498 H 0.30334 0.91432 0.31303 0.0
H1499 H 0.32879 0.91833 0.3028 0.0
H1500 H 0.29901 0.89886 0.27851 0.0
H1501 H 0.27354 0.89514 0.28864 0.0
H1502 H 0.27165 0.86883 0.2781 0.0
H1503 H 0.26489 0.80596 0.31625 0.0
H1504 H 0.23286 0.80884 0.32965 0.0
H1505 H 0.25596 0.88045 0.3143 0.0
C1506 C 0.33029 0.8756 0.28654 0.0
C1507 C 0.33955 0.85945 0.2832 0.0
C1508 C 0.32666 0.83523 0.2877 0.0
C1509 C 0.30633 0.82783 0.29605 0.0
C1510 C 0.2983 0.84443 0.29945 0.0
C1511 C 0.30934 0.86751 0.29446 0.0
C1512 C 0.29603 0.88123 0.29901 0.0
C1513 C 0.31361 0.90523 0.30902 0.0
C1514 C 0.28436 0.88631 0.28525 0.0
C1515 C 0.27623 0.86243 0.30764 0.0
C1516 C 0.27816 0.84148 0.30793 0.0
C1517 C 0.26293 0.82209 0.3159 0.0
C1518 C 0.24493 0.82396 0.32357 0.0
C1519 C 0.24196 0.84479 0.32294 0.0
C1520 C 0.25779 0.86424 0.31485 0.0
H1521 H 0.08584 0.43977 0.3183 0.0
H1522 H 0.06756 0.41216 0.27145 0.0
H1523 H 0.0838 0.38416 0.27566 0.0
H1524 H 0.14264 0.44158 0.32252 0.0
H1525 H 0.13962 0.43179 0.34096 0.0
H1526 H 0.12407 0.44771 0.33473 0.0
H1527 H 0.08192 0.41152 0.34052 0.0
H1528 H 0.09739 0.39555 0.3469 0.0
H1529 H 0.07185 0.3806 0.33246 0.0
H1530 H 0.10636 0.3631 0.28419 0.0
H1531 H 0.13095 0.34759 0.29691 0.0
H1532 H 0.13394 0.38793 0.33849 0.0
C1533 C 0.08493 0.42755 0.30898 0.0
C1534 C 0.07533 0.42805 0.29455 0.0
C1535 C 0.07444 0.4118 0.28263 0.0
C1536 C 0.08376 0.39594 0.2849 0.0
C1537 C 0.09365 0.39638 0.29917 0.0
C1538 C 0.094 0.41149 0.31106 0.0
C1539 C 0.10668 0.40913 0.32514 0.0
C1540 C 0.12961 0.43403 0.33119 0.0
C1541 C 0.08836 0.39856 0.33695 0.0
C1542 C 0.11401 0.39084 0.3192 0.0
C1543 C 0.10627 0.38373 0.30419 0.0
C1544 C 0.11217 0.3682 0.29598 0.0
C1545 C 0.12629 0.35963 0.3033 0.0
C1546 C 0.13424 0.36647 0.3187 0.0
C1547 C 0.12782 0.38213 0.32676 0.0
H1548 H 0.31951 0.4394 0.27397 0.0
H1549 H 0.35175 0.50719 0.30363 0.0
H1550 H 0.31795 0.48706 0.31981 0.0
H1551 H 0.25479 0.4196 0.27723 0.0
H1552 H 0.24563 0.38747 0.2772 0.0
H1553 H 0.27165 0.40758 0.2676 0.0
H1554 H 0.29946 0.39528 0.28283 0.0
H1555 H 0.27342 0.37519 0.29241 0.0
H1556 H 0.30168 0.39898 0.30288 0.0
H1557 H 0.28021 0.45924 0.33279 0.0
H1558 H 0.24295 0.42546 0.34201 0.0
H1559 H 0.2365 0.37573 0.30423 0.0
C1560 C 0.31927 0.45003 0.28379 0.0
C1561 C 0.33816 0.47488 0.28753 0.0
C1562 C 0.33749 0.4881 0.30062 0.0
C1563 C 0.31832 0.47685 0.30983 0.0
C1564 C 0.30005 0.45227 0.3059 0.0
C1565 C 0.30046 0.43898 0.29324 0.0
C1566 C 0.27924 0.41252 0.29188 0.0
C1567 C 0.26181 0.40647 0.27763 0.0
C1568 C 0.28904 0.39443 0.29255 0.0
C1569 C 0.26672 0.41308 0.30564 0.0
C1570 C 0.27888 0.43617 0.31357 0.0
C1571 C 0.27057 0.44106 0.32666 0.0
C1572 C 0.24936 0.42178 0.33181 0.0
C1573 C 0.23682 0.39788 0.32393 0.0
C1574 C 0.24569 0.39369 0.31063 0.0
H1575 H 0.5554 0.89426 0.30313 0.0
H1576 H 0.52315 0.834 0.26756 0.0
H1577 H 0.54691 0.8165 0.2788 0.0
H1578 H 0.61572 0.9015 0.30676 0.0
H1579 H 0.62025 0.90759 0.32675 0.0
H1580 H 0.60022 0.91529 0.31618 0.0
H1581 H 0.56419 0.88876 0.33163 0.0
H1582 H 0.58412 0.88091 0.34223 0.0
H1583 H 0.55501 0.85682 0.33275 0.0
H1584 H 0.57563 0.80666 0.29273 0.0
H1585 H 0.60756 0.80473 0.30896 0.0
H1586 H 0.61989 0.86945 0.33673 0.0
C1587 C 0.55308 0.87722 0.29779 0.0
C1588 C 0.53753 0.86574 0.2843 0.0
C1589 C 0.53533 0.84357 0.27766 0.0
C1590 C 0.54856 0.83329 0.28406 0.0
C1591 C 0.56378 0.84514 0.29724 0.0
C1592 C 0.56607 0.86653 0.30412 0.0
C1593 C 0.5842 0.87573 0.3181 0.0
C1594 C 0.60641 0.90155 0.31687 0.0
C1595 C 0.57109 0.87554 0.332 0.0
C1596 C 0.592 0.85634 0.31784 0.0
C1597 C 0.5799 0.83889 0.30568 0.0
C1598 C 0.58496 0.81999 0.30241 0.0
C1599 C 0.60312 0.81905 0.31167 0.0
C1600 C 0.61585 0.83671 0.32417 0.0
C1601 C 0.60995 0.85538 0.32744 0.0
H1602 H 0.07642 0.64652 0.31958 0.0
H1603 H 0.14472 0.64431 0.31784 0.0
H1604 H 0.16868 0.68766 0.32842 0.0
H1605 H 0.09987 0.70447 0.30679 0.0
H1606 H 0.08307 0.71442 0.3182 0.0
H1607 H 0.0707 0.68206 0.31281 0.0
H1608 H 0.06843 0.6738 0.34054 0.0
H1609 H 0.08085 0.70622 0.34601 0.0
H1610 H 0.09597 0.69058 0.35347 0.0
H1611 H 0.18587 0.73213 0.3363 0.0
H1612 H 0.19492 0.77526 0.34056 0.0
H1613 H 0.11617 0.74968 0.33639 0.0
C1614 C 0.09638 0.65501 0.32156 0.0
C1615 C 0.10853 0.64168 0.31802 0.0
C1616 C 0.13476 0.6537 0.32082 0.0
C1617 C 0.14863 0.67845 0.32676 0.0
C1618 C 0.13611 0.69109 0.32985 0.0
C1619 C 0.11058 0.67984 0.32735 0.0
C1620 C 0.10194 0.69824 0.33029 0.0
C1621 C 0.08809 0.69989 0.31618 0.0
C1622 C 0.08585 0.69182 0.34336 0.0
C1623 C 0.12667 0.72172 0.33438 0.0
C1624 C 0.14612 0.71707 0.33427 0.0
C1625 C 0.17082 0.73597 0.33669 0.0
C1626 C 0.1758 0.76032 0.33909 0.0
C1627 C 0.15619 0.7654 0.33902 0.0
C1628 C 0.13136 0.74596 0.33683 0.0
H1629 H 0.81553 0.01615 0.37943 0.0
H1630 H 0.78757 0.01606 0.42228 0.0
H1631 H 0.75083 0.97537 0.41419 0.0
H1632 H 0.75435 0.98469 0.35707 0.0
H1633 H 0.76281 0.96718 0.34462 0.0
H1634 H 0.78623 0.99725 0.35326 0.0
H1635 H 0.81172 0.97843 0.36393 0.0
H1636 H 0.78842 0.94835 0.35534 0.0
H1637 H 0.79728 0.95304 0.37509 0.0
H1638 H 0.71924 0.93389 0.40263 0.0
H1639 H 0.69382 0.89345 0.38794 0.0
H1640 H 0.74069 0.91981 0.35197 0.0
C1641 C 0.80143 0.00772 0.38699 0.0
C1642 C 0.80448 0.01921 0.40153 0.0
C1643 C 0.78581 0.00745 0.41118 0.0
C1644 C 0.76477 0.98443 0.40665 0.0
C1645 C 0.76252 0.97343 0.39238 0.0
C1646 C 0.78021 0.98463 0.38263 0.0
C1647 C 0.77368 0.96806 0.36816 0.0
C1648 C 0.76899 0.98001 0.355 0.0
C1649 C 0.79398 0.96159 0.36548 0.0
C1650 C 0.74986 0.94563 0.37148 0.0
C1651 C 0.74379 0.9493 0.38551 0.0
C1652 C 0.72358 0.93088 0.39156 0.0
C1653 C 0.70933 0.90794 0.38315 0.0
C1654 C 0.71523 0.90359 0.36881 0.0
C1655 C 0.73552 0.92283 0.36279 0.0
H1656 H 1.00138 0.76872 0.38074 0.0
H1657 H 0.02925 0.83451 0.41187 0.0
H1658 H 0.06879 0.85348 0.40066 0.0
H1659 H 0.05819 0.76822 0.38083 0.0
H1660 H 0.05429 0.75804 0.36129 0.0
H1661 H 0.02747 0.7498 0.3712 0.0
H1662 H 0.01161 0.76919 0.35217 0.0
H1663 H 0.03845 0.77757 0.34222 0.0
H1664 H 0.03143 0.80087 0.3488 0.0
H1665 H 0.10583 0.86466 0.3874 0.0
H1666 H 0.13904 0.86743 0.3728 0.0
H1667 H 0.08808 0.79534 0.34927 0.0
C1668 C 0.01571 0.78722 0.38506 0.0
C1669 C 0.01221 0.80003 0.3973 0.0
C1670 C 0.03157 0.82412 0.40272 0.0
C1671 C 0.05405 0.83517 0.39633 0.0
C1672 C 0.05699 0.82203 0.38442 0.0
C1673 C 0.03843 0.79861 0.37879 0.0
C1674 C 0.04702 0.78832 0.36624 0.0
C1675 C 0.04672 0.7647 0.37013 0.0
C1676 C 0.03118 0.78372 0.35148 0.0
C1677 C 0.0734 0.80951 0.36589 0.0
C1678 C 0.07858 0.82875 0.37647 0.0
C1679 C 0.10194 0.84985 0.37897 0.0
C1680 C 0.12069 0.85123 0.37063 0.0
C1681 C 0.11607 0.83172 0.35982 0.0
C1682 C 0.09196 0.81073 0.35724 0.0
H1683 H 0.23728 0.2155 0.36499 0.0
H1684 H 0.29885 0.27259 0.39479 0.0
H1685 H 0.28956 0.3038 0.3859 0.0
H1686 H 0.24227 0.25428 0.33422 0.0
H1687 H 0.20904 0.23968 0.33042 0.0
H1688 H 0.22274 0.22247 0.33743 0.0
H1689 H 0.19535 0.212 0.35933 0.0
H1690 H 0.18175 0.22932 0.35249 0.0
H1691 H 0.19649 0.23672 0.37126 0.0
H1692 H 0.27125 0.32758 0.37612 0.0
H1693 H 0.24519 0.34326 0.36577 0.0
H1694 H 0.19457 0.27082 0.34235 0.0
C1695 C 0.24918 0.23472 0.36926 0.0
C1696 C 0.26893 0.24189 0.3804 0.0
C1697 C 0.28375 0.26696 0.38616 0.0
C1698 C 0.27865 0.28474 0.38116 0.0
C1699 C 0.25865 0.27706 0.37043 0.0
C1700 C 0.24417 0.2527 0.36448 0.0
C1701 C 0.22241 0.24908 0.35411 0.0
C1702 C 0.22424 0.2409 0.3381 0.0
C1703 C 0.19754 0.2307 0.35964 0.0
C1704 C 0.22658 0.27507 0.35552 0.0
C1705 C 0.24776 0.2909 0.36486 0.0
C1706 C 0.25481 0.31548 0.36862 0.0
C1707 C 0.23976 0.32415 0.36274 0.0
C1708 C 0.21783 0.30827 0.35323 0.0
C1709 C 0.21135 0.28347 0.34945 0.0
H1710 H 0.68382 0.5571 0.7321 0.0
H1711 H 0.63507 0.51154 0.6929 0.0
H1712 H 0.66969 0.53165 0.67742 0.0
H1713 H 0.71823 0.61197 0.71505 0.0
H1714 H 0.74747 0.62063 0.72532 0.0
H1715 H 0.7189 0.60234 0.73334 0.0
H1716 H 0.73098 0.56896 0.73708 0.0
H1717 H 0.75956 0.58716 0.72901 0.0
H1718 H 0.73849 0.55572 0.72136 0.0
H1719 H 0.70946 0.55801 0.666 0.0
H1720 H 0.75149 0.58803 0.6598 0.0
H1721 H 0.77408 0.61464 0.70666 0.0
C1722 C 0.68045 0.55107 0.7203 0.0
C1723 C 0.6566 0.53284 0.71374 0.0
C1724 C 0.65301 0.5258 0.69818 0.0
C1725 C 0.67262 0.53697 0.68929 0.0
C1726 C 0.69581 0.55498 0.69611 0.0
C1727 C 0.69984 0.56188 0.71128 0.0
C1728 C 0.72646 0.58191 0.71584 0.0
C1729 C 0.72783 0.60561 0.72279 0.0
C1730 C 0.73965 0.57289 0.72645 0.0
C1731 C 0.73664 0.58538 0.70085 0.0
C1732 C 0.71874 0.56971 0.6896 0.0
C1733 C 0.72371 0.57024 0.67474 0.0
C1734 C 0.74761 0.58736 0.67132 0.0
C1735 C 0.76619 0.60361 0.68273 0.0
C1736 C 0.7605 0.60235 0.69766 0.0
H1737 H 0.44893 0.11366 0.73696 0.0
H1738 H 0.50136 0.13399 0.7037 0.0
H1739 H 0.47424 0.14254 0.68734 0.0
H1740 H 0.393 0.08361 0.7111 0.0
H1741 H 0.3766 0.09488 0.72188 0.0
H1742 H 0.39991 0.08995 0.73103 0.0
H1743 H 0.42318 0.13528 0.74305 0.0
H1744 H 0.39993 0.14031 0.73394 0.0
H1745 H 0.43218 0.15995 0.73132 0.0
H1746 H 0.442 0.14908 0.67461 0.0
H1747 H 0.40689 0.15432 0.66634 0.0
H1748 H 0.37466 0.13003 0.70768 0.0
C1749 C 0.45459 0.11975 0.72619 0.0
C1750 C 0.47738 0.12327 0.72164 0.0
C1751 C 0.48421 0.1315 0.70752 0.0
C1752 C 0.46885 0.13626 0.69811 0.0
C1753 C 0.44663 0.13274 0.70293 0.0
C1754 C 0.43947 0.12475 0.71664 0.0
C1755 C 0.4148 0.12299 0.71916 0.0
C1756 C 0.3949 0.09626 0.72089 0.0
C1757 C 0.41771 0.14069 0.73267 0.0
C1758 C 0.4093 0.13126 0.70473 0.0
C1759 C 0.42792 0.13668 0.69554 0.0
C1760 C 0.42728 0.14488 0.68169 0.0
C1761 C 0.40719 0.1478 0.6771 0.0
C1762 C 0.38789 0.14261 0.68632 0.0
C1763 C 0.389 0.13408 0.70031 0.0
H1764 H 0.91119 0.34564 0.73248 0.0
H1765 H 0.88154 0.37359 0.69917 0.0
H1766 H 0.86448 0.33426 0.68327 0.0
H1767 H 0.92957 0.31305 0.70605 0.0
H1768 H 0.92162 0.28786 0.71722 0.0
H1769 H 0.93156 0.3183 0.72603 0.0
H1770 H 0.89113 0.30075 0.73911 0.0
H1771 H 0.88102 0.2703 0.73029 0.0
H1772 H 0.86151 0.2837 0.72806 0.0
H1773 H 0.84902 0.29142 0.6715 0.0
H1774 H 0.83823 0.24851 0.66394 0.0
H1775 H 0.88007 0.24934 0.70417 0.0
C1776 C 0.90145 0.34369 0.72176 0.0
C1777 C 0.89755 0.36271 0.71717 0.0
C1778 C 0.88435 0.35916 0.7031 0.0
C1779 C 0.87473 0.33694 0.69392 0.0
C1780 C 0.8787 0.31854 0.69887 0.0
C1781 C 0.89194 0.32174 0.71238 0.0
C1782 C 0.89358 0.29901 0.71504 0.0
C1783 C 0.92069 0.30491 0.71614 0.0
C1784 C 0.88106 0.28778 0.72895 0.0
C1785 C 0.87899 0.28248 0.70097 0.0
C1786 C 0.87047 0.29407 0.69183 0.0
C1787 C 0.85577 0.28221 0.67848 0.0
C1788 C 0.84966 0.25783 0.67432 0.0
C1789 C 0.85845 0.24571 0.68343 0.0
C1790 C 0.87337 0.25827 0.69689 0.0
H1791 H 0.21806 0.98735 0.611 0.0
H1792 H 0.15903 0.96655 0.63988 0.0
H1793 H 0.18592 0.00411 0.65697 0.0
H1794 H 0.26939 0.01373 0.64072 0.0
H1795 H 0.28979 0.03834 0.63035 0.0
H1796 H 0.26634 0.00918 0.62067 0.0
H1797 H 0.24882 0.03168 0.60542 0.0
H1798 H 0.27219 0.06087 0.61505 0.0
H1799 H 0.23983 0.05156 0.61505 0.0
H1800 H 0.21802 0.04463 0.67019 0.0
H1801 H 0.25363 0.08588 0.67884 0.0
H1802 H 0.29244 0.08027 0.64179 0.0
C1803 C 0.21094 0.99054 0.62103 0.0
C1804 C 0.1864 0.9741 0.62407 0.0
C1805 C 0.17764 0.97909 0.63721 0.0
C1806 C 0.19282 1.00027 0.64704 0.0
C1807 C 0.21679 0.01622 0.64364 0.0
C1808 C 0.22588 0.01164 0.63099 0.0
C1809 C 0.25206 0.03231 0.62971 0.0
C1810 C 0.27048 0.02282 0.63041 0.0
C1811 C 0.25328 0.04484 0.61546 0.0
C1812 C 0.25608 0.04933 0.64351 0.0
C1813 C 0.23552 0.03962 0.6514 0.0
C1814 C 0.23433 0.05236 0.6642 0.0
C1815 C 0.25463 0.07579 0.669 0.0
C1816 C 0.27585 0.08622 0.66103 0.0
C1817 C 0.27662 0.07264 0.64822 0.0
H1818 H 0.00814 0.2009 0.62879 0.0
H1819 H 0.99766 0.23767 0.59233 0.0
H1820 H 0.96043 0.23407 0.60245 0.0
H1821 H 0.94246 0.15714 0.63009 0.0
H1822 H 0.94486 0.15788 0.65007 0.0
H1823 H 0.97111 0.1635 0.64016 0.0
H1824 H 0.99805 0.20534 0.65631 0.0
H1825 H 0.97184 0.19991 0.66621 0.0
H1826 H 0.98794 0.22769 0.65718 0.0
H1827 H 0.92488 0.22716 0.61622 0.0
H1828 H 0.89148 0.21579 0.6324 0.0
H1829 H 0.92296 0.18204 0.66009 0.0
C1830 C 0.99791 0.20803 0.62287 0.0
C1831 C 0.00618 0.21991 0.60982 0.0
C1832 C 0.99221 0.22905 0.60251 0.0
C1833 C 0.97087 0.22695 0.60812 0.0
C1834 C 0.96348 0.2155 0.62105 0.0
C1835 C 0.97638 0.20601 0.62832 0.0
C1836 C 0.96399 0.19432 0.64196 0.0
C1837 C 0.95507 0.16656 0.64048 0.0
C1838 C 0.9815 0.20762 0.65626 0.0
C1839 C 0.94219 0.19883 0.64118 0.0
C1840 C 0.94244 0.21115 0.62901 0.0
C1841 C 0.92445 0.21749 0.62578 0.0
C1842 C 0.9055 0.21092 0.63512 0.0
C1843 C 0.90445 0.19799 0.64763 0.0
C1844 C 0.92322 0.192 0.6507 0.0
H1845 H 0.76427 0.77799 0.65139 0.0
H1846 H 0.73973 0.74335 0.60594 0.0
H1847 H 0.75242 0.71314 0.61167 0.0
H1848 H 0.81796 0.77352 0.65544 0.0
H1849 H 0.81564 0.76675 0.67454 0.0
H1850 H 0.80241 0.78425 0.66743 0.0
H1851 H 0.75959 0.75274 0.67538 0.0
H1852 H 0.77273 0.73519 0.68262 0.0
H1853 H 0.74598 0.72044 0.669 0.0
H1854 H 0.77206 0.69027 0.62118 0.0
H1855 H 0.79467 0.67335 0.63457 0.0
H1856 H 0.80536 0.72119 0.67442 0.0
C1857 C 0.76127 0.76382 0.64272 0.0
C1858 C 0.7509 0.76291 0.62823 0.0
C1859 C 0.74726 0.74413 0.61717 0.0
C1860 C 0.75453 0.72698 0.6203 0.0
C1861 C 0.76514 0.72868 0.63459 0.0
C1862 C 0.76822 0.74637 0.6457 0.0
C1863 C 0.78101 0.74463 0.65996 0.0
C1864 C 0.80572 0.76872 0.66461 0.0
C1865 C 0.76379 0.73784 0.67248 0.0
C1866 C 0.78525 0.72364 0.65497 0.0
C1867 C 0.77592 0.71479 0.64028 0.0
C1868 C 0.77905 0.6967 0.63276 0.0
C1869 C 0.79206 0.68734 0.64044 0.0
C1870 C 0.80158 0.69589 0.65553 0.0
C1871 C 0.79789 0.71408 0.66296 0.0
H1872 H 0.97882 0.75594 0.60916 0.0
H1873 H 0.00882 0.82662 0.63571 0.0
H1874 H 0.97792 0.80687 0.65352 0.0
H1875 H 0.91481 0.73351 0.61462 0.0
H1876 H 0.90768 0.7021 0.61553 0.0
H1877 H 0.93203 0.72207 0.60484 0.0
H1878 H 0.96296 0.7134 0.61999 0.0
H1879 H 0.93865 0.69364 0.63078 0.0
H1880 H 0.96702 0.71928 0.64 0.0
H1881 H 0.94321 0.77933 0.66839 0.0
H1882 H 0.90731 0.74604 0.67893 0.0
H1883 H 0.90125 0.69355 0.64298 0.0
C1884 C 0.97902 0.76725 0.61876 0.0
C1885 C 0.99618 0.79288 0.62095 0.0
C1886 C 0.99559 0.80704 0.63361 0.0
C1887 C 0.97823 0.79596 0.64388 0.0
C1888 C 0.96161 0.77067 0.64139 0.0
C1889 C 0.96186 0.75649 0.62914 0.0
C1890 C 0.9419 0.72972 0.62899 0.0
C1891 C 0.923 0.72136 0.61518 0.0
C1892 C 0.95333 0.71303 0.63 0.0
C1893 C 0.93044 0.73107 0.64305 0.0
C1894 C 0.94199 0.75482 0.65006 0.0
C1895 C 0.93409 0.76061 0.66305 0.0
C1896 C 0.91371 0.7416 0.66896 0.0
C1897 C 0.90157 0.71714 0.66189 0.0
C1898 C 0.91027 0.71195 0.64881 0.0
H1899 H 0.20322 0.18662 0.60672 0.0
H1900 H 0.2137 0.24702 0.63822 0.0
H1901 H 0.2427 0.24096 0.65441 0.0
H1902 H 0.20637 0.14818 0.63305 0.0
H1903 H 0.22389 0.13826 0.62232 0.0
H1904 H 0.20357 0.14695 0.61303 0.0
H1905 H 0.24019 0.17912 0.59999 0.0
H1906 H 0.26059 0.17041 0.60917 0.0
H1907 H 0.26813 0.2022 0.61107 0.0
H1908 H 0.26917 0.22747 0.66786 0.0
H1909 H 0.29428 0.20963 0.6767 0.0
H1910 H 0.2696 0.15996 0.6359 0.0
C1911 C 0.21181 0.19881 0.61692 0.0
C1912 C 0.20561 0.21703 0.62123 0.0
C1913 C 0.21735 0.23241 0.63477 0.0
C1914 C 0.23409 0.22928 0.64404 0.0
C1915 C 0.23939 0.21093 0.63958 0.0
C1916 C 0.22891 0.19617 0.62626 0.0
C1917 C 0.23825 0.17812 0.62405 0.0
C1918 C 0.21673 0.15129 0.62306 0.0
C1919 C 0.25265 0.18275 0.61025 0.0
C1920 C 0.25539 0.18494 0.63828 0.0
C1921 C 0.25558 0.2038 0.64711 0.0
C1922 C 0.26933 0.21282 0.66099 0.0
C1923 C 0.28345 0.20246 0.66595 0.0
C1924 C 0.28398 0.18342 0.65701 0.0
C1925 C 0.26974 0.17461 0.64296 0.0
H1926 H 0.765 0.982 0.65301 0.0
H1927 H 0.82174 0.9894 0.62482 0.0
H1928 H 0.84325 0.03474 0.63031 0.0
H1929 H 0.7611 0.0329 0.64301 0.0
H1930 H 0.75723 0.04263 0.66134 0.0
H1931 H 0.74728 0.01067 0.65622 0.0
H1932 H 0.7749 0.01119 0.67886 0.0
H1933 H 0.78484 0.04315 0.68413 0.0
H1934 H 0.80753 0.03395 0.68125 0.0
H1935 H 0.85526 0.07876 0.63601 0.0
H1936 H 0.85986 0.11935 0.644 0.0
H1937 H 0.79758 0.08394 0.67021 0.0
C1938 C 0.78218 0.99323 0.64823 0.0
C1939 C 0.79185 0.98235 0.63856 0.0
C1940 C 0.81428 0.99747 0.63241 0.0
C1941 C 0.82654 0.02319 0.63541 0.0
C1942 C 0.81633 0.0334 0.64479 0.0
C1943 C 0.79493 0.01894 0.65134 0.0
C1944 C 0.78762 0.0347 0.66072 0.0
C1945 C 0.76178 0.02994 0.65497 0.0
C1946 C 0.7888 0.0305 0.67722 0.0
C1947 C 0.80785 0.06025 0.65804 0.0
C1948 C 0.82412 0.05903 0.64874 0.0
C1949 C 0.84302 0.08002 0.64357 0.0
C1950 C 0.84541 0.1029 0.64807 0.0
C1951 C 0.82927 0.10455 0.65782 0.0
C1952 C 0.81045 0.08305 0.663 0.0
H1953 H 0.46462 0.33016 0.72593 0.0
H1954 H 0.44218 0.36946 0.69674 0.0
H1955 H 0.41404 0.33032 0.68131 0.0
H1956 H 0.46222 0.28556 0.69845 0.0
H1957 H 0.44929 0.26058 0.71 0.0
H1958 H 0.46868 0.29187 0.71841 0.0
H1959 H 0.43374 0.28722 0.73442 0.0
H1960 H 0.41435 0.25584 0.72618 0.0
H1961 H 0.4033 0.27738 0.72542 0.0
H1962 H 0.38862 0.28677 0.6688 0.0
H1963 H 0.36477 0.24165 0.66173 0.0
H1964 H 0.40151 0.23085 0.70026 0.0
C1965 C 0.45361 0.33066 0.71644 0.0
C1966 C 0.45595 0.35314 0.71255 0.0
C1967 C 0.4413 0.3527 0.69982 0.0
C1968 C 0.42511 0.3305 0.691 0.0
C1969 C 0.42349 0.30881 0.69513 0.0
C1970 C 0.43707 0.30867 0.70767 0.0
C1971 C 0.43113 0.28273 0.71005 0.0
C1972 C 0.45421 0.28004 0.70917 0.0
C1973 C 0.41996 0.27537 0.7249 0.0
C1974 C 0.41203 0.26829 0.69691 0.0
C1975 C 0.40812 0.28367 0.6883 0.0
C1976 C 0.39147 0.27453 0.67548 0.0
C1977 C 0.37812 0.24892 0.67151 0.0
C1978 C 0.38129 0.23282 0.68047 0.0
C1979 C 0.39864 0.24273 0.69324 0.0
H1980 H 0.66362 0.1029 0.7128 0.0
H1981 H 0.69707 0.15859 0.75096 0.0
H1982 H 0.73777 0.17487 0.74142 0.0
H1983 H 0.71461 0.09209 0.70948 0.0
H1984 H 0.71163 0.089 0.68943 0.0
H1985 H 0.68475 0.08104 0.69925 0.0
H1986 H 0.67653 0.11141 0.68531 0.0
H1987 H 0.70338 0.11947 0.67544 0.0
H1988 H 0.70076 0.14324 0.68599 0.0
H1989 H 0.77489 0.18492 0.72844 0.0
H1990 H 0.80667 0.18922 0.71219 0.0
H1991 H 0.75017 0.12898 0.68119 0.0
C1992 C 0.67943 0.11863 0.71912 0.0
C1993 C 0.67694 0.12912 0.73284 0.0
C1994 C 0.69833 0.14964 0.7407 0.0
C1995 C 0.72161 0.15925 0.73529 0.0
C1996 C 0.72338 0.14843 0.72186 0.0
C1997 C 0.70293 0.12869 0.71379 0.0
C1998 C 0.71022 0.12082 0.69956 0.0
C1999 C 0.70499 0.09416 0.69943 0.0
C2000 C 0.69693 0.12392 0.68576 0.0
C2001 C 0.73797 0.13919 0.70099 0.0
C2002 C 0.74502 0.1548 0.71401 0.0
C2003 C 0.7696 0.17289 0.71817 0.0
C2004 C 0.78755 0.17511 0.70884 0.0
C2005 C 0.781 0.15946 0.69536 0.0
C2006 C 0.75575 0.14135 0.69133 0.0
H2007 H 0.91716 0.58358 0.7406 0.0
H2008 H 0.90724 0.52872 0.70507 0.0
H2009 H 0.88792 0.54493 0.6881 0.0
H2010 H 0.85948 0.58179 0.73133 0.0
H2011 H 0.8722 0.61451 0.73575 0.0
H2012 H 0.88567 0.59891 0.74519 0.0
H2013 H 0.92869 0.62935 0.73694 0.0
H2014 H 0.91535 0.64507 0.72752 0.0
H2015 H 0.93188 0.63312 0.71746 0.0
H2016 H 0.86845 0.56583 0.67519 0.0
H2017 H 0.85178 0.59177 0.66673 0.0
H2018 H 0.87483 0.63371 0.71037 0.0
C2019 C 0.91094 0.57504 0.72925 0.0
C2020 C 0.91392 0.55505 0.72411 0.0
C2021 C 0.90558 0.54436 0.70916 0.0
C2022 C 0.89441 0.55331 0.69946 0.0
C2023 C 0.89174 0.57299 0.70485 0.0
C2024 C 0.89985 0.58386 0.71935 0.0
C2025 C 0.89478 0.6049 0.72222 0.0
C2026 C 0.87697 0.5997 0.73434 0.0
C2027 C 0.91913 0.62957 0.72627 0.0
C2028 C 0.88251 0.60403 0.70709 0.0
C2029 C 0.88081 0.58538 0.69728 0.0
C2030 C 0.86976 0.58059 0.68274 0.0
C2031 C 0.86028 0.59538 0.67805 0.0
C2032 C 0.8621 0.61482 0.68785 0.0
C2033 C 0.87336 0.61913 0.70257 0.0
H2034 H 0.4726 0.92606 0.16456 0.0
H2035 H 0.48964 0.99303 0.19184 0.0
H2036 H 0.50216 0.01631 0.16998 0.0
H2037 H 0.52384 0.95467 0.1422 0.0
H2038 H 0.50643 0.93561 0.12527 0.0
H2039 H 0.49829 0.92386 0.14299 0.0
H2040 H 0.45329 0.9145 0.13654 0.0
H2041 H 0.46128 0.92619 0.11878 0.0
H2042 H 0.44807 0.93889 0.1313 0.0
H2043 H 0.51369 0.03272 0.14543 0.0
H2044 H 0.52288 0.04114 0.11966 0.0
H2045 H 0.49817 0.9637 0.10778 0.0
C2046 C 0.47906 0.94564 0.16596 0.0
C2047 C 0.47993 0.95762 0.17999 0.0
C2048 C 0.48833 0.98326 0.18123 0.0
C2049 C 0.49567 0.99673 0.16887 0.0
C2050 C 0.49456 0.98438 0.15526 0.0
C2051 C 0.48644 0.95941 0.15369 0.0
C2052 C 0.48708 0.95072 0.13774 0.0
C2053 C 0.50498 0.94062 0.13701 0.0
C2054 C 0.46087 0.93143 0.13068 0.0
C2055 C 0.49695 0.97473 0.13065 0.0
C2056 C 0.50111 0.99387 0.14099 0.0
C2057 C 0.51032 0.01783 0.13721 0.0
C2058 C 0.51532 0.02239 0.12247 0.0
C2059 C 0.51105 0.00309 0.11154 0.0
C2060 C 0.50181 0.97894 0.11581 0.0
H2061 H 0.00999 0.48922 0.1884 0.0
H2062 H 0.0337 0.56662 0.19935 0.0
H2063 H 0.02319 0.56959 0.1732 0.0
H2064 H 0.03216 0.49474 0.15246 0.0
H2065 H 0.00611 0.46598 0.14404 0.0
H2066 H 0.01557 0.46983 0.16365 0.0
H2067 H 0.97118 0.45837 0.16955 0.0
H2068 H 0.96156 0.45445 0.14995 0.0
H2069 H 0.95739 0.4754 0.16237 0.0
H2070 H 0.0108 0.56451 0.14591 0.0
H2071 H 0.99625 0.55131 0.11922 0.0
H2072 H 0.97936 0.47696 0.12602 0.0
C2073 C 0.01274 0.50674 0.18534 0.0
C2074 C 0.02287 0.52774 0.19595 0.0
C2075 C 0.02644 0.55038 0.19141 0.0
C2076 C 0.02036 0.55223 0.17659 0.0
C2077 C 0.01057 0.53124 0.16644 0.0
C2078 C 0.00666 0.50889 0.1706 0.0
C2079 C 0.99584 0.48915 0.15746 0.0
C2080 C 0.01348 0.47936 0.15421 0.0
C2081 C 0.96996 0.4681 0.15999 0.0
C2082 C 0.99434 0.50394 0.14526 0.0
C2083 C 1.00301 0.5282 0.15069 0.0
C2084 C 1.00392 0.54556 0.14152 0.0
C2085 C 0.99574 0.53792 0.12638 0.0
C2086 C 0.98669 0.51314 0.12057 0.0
C2087 C 0.98593 0.49596 0.13019 0.0
H2088 H 0.48065 0.54296 0.16536 0.0
H2089 H 0.41418 0.47165 0.16599 0.0
H2090 H 0.41826 0.45971 0.14021 0.0
H2091 H 0.46944 0.55065 0.12679 0.0
H2092 H 0.50175 0.56509 0.12364 0.0
H2093 H 0.49315 0.56832 0.14196 0.0
H2094 H 0.51992 0.55091 0.15273 0.0
H2095 H 0.52861 0.54764 0.13445 0.0
H2096 H 0.51451 0.52131 0.14491 0.0
H2097 H 0.43072 0.45478 0.1148 0.0
H2098 H 0.44991 0.45772 0.0913 0.0
H2099 H 0.50806 0.53238 0.10705 0.0
C2100 C 0.46696 0.52481 0.16009 0.0
C2101 C 0.44707 0.50822 0.16772 0.0
C2102 C 0.4294 0.48477 0.16034 0.0
C2103 C 0.43163 0.47778 0.14571 0.0
C2104 C 0.45155 0.49451 0.13857 0.0
C2105 C 0.46883 0.5176 0.14547 0.0
C2106 C 0.48862 0.53202 0.13537 0.0
C2107 C 0.4882 0.5554 0.13172 0.0
C2108 C 0.51444 0.53833 0.14228 0.0
C2109 C 0.47995 0.51333 0.12176 0.0
C2110 C 0.45854 0.4918 0.12385 0.0
C2111 C 0.44742 0.47159 0.11303 0.0
C2112 C 0.45852 0.47338 0.09976 0.0
C2113 C 0.48047 0.49525 0.09737 0.0
C2114 C 0.49114 0.51553 0.10851 0.0
H2115 H 0.98233 0.51212 0.85003 0.0
H2116 H 0.95819 0.43528 0.83679 0.0
H2117 H 0.96352 0.42886 0.86307 0.0
H2118 H 0.02945 0.52184 0.87846 0.0
H2119 H 0.024 0.54187 0.89086 0.0
H2120 H 0.01744 0.54023 0.87106 0.0
H2121 H 0.97219 0.52888 0.8746 0.0
H2122 H 0.97862 0.5305 0.89442 0.0
H2123 H 0.95329 0.50277 0.88443 0.0
H2124 H 0.97139 0.43073 0.8907 0.0
H2125 H 0.98331 0.44135 0.91781 0.0
H2126 H 1.00303 0.51712 0.91305 0.0
C2127 C 0.97801 0.49393 0.85271 0.0
C2128 C 0.96988 0.47419 0.84142 0.0
C2129 C 0.96467 0.45069 0.84529 0.0
C2130 C 0.9675 0.44683 0.86017 0.0
C2131 C 0.97565 0.46669 0.87104 0.0
C2132 C 0.98096 0.4898 0.86751 0.0
C2133 C 0.99019 0.50818 0.88128 0.0
C2134 C 0.01685 0.52927 0.88036 0.0
C2135 C 0.97251 0.51816 0.88383 0.0
C2136 C 0.98931 0.4918 0.89308 0.0
C2137 C 0.98067 0.46788 0.88695 0.0
C2138 C 0.97816 0.44939 0.89564 0.0
C2139 C 0.98486 0.45555 0.91102 0.0
C2140 C 0.99411 0.48004 0.9175 0.0
C2141 C 0.99624 0.4983 0.90837 0.0
H2142 H 0.52171 0.50916 0.82988 0.0
H2143 H 0.56288 0.47164 0.83878 0.0
H2144 H 0.55746 0.47473 0.86546 0.0
H2145 H 0.54494 0.55114 0.86388 0.0
H2146 H 0.51561 0.54939 0.86608 0.0
H2147 H 0.52369 0.54523 0.84775 0.0
H2148 H 0.48306 0.50287 0.84268 0.0
H2149 H 0.4749 0.50686 0.861 0.0
H2150 H 0.47661 0.47977 0.85529 0.0
H2151 H 0.546 0.48014 0.89094 0.0
H2152 H 0.52996 0.48817 0.91361 0.0
H2153 H 0.49641 0.52248 0.8883 0.0
C2154 C 0.52959 0.50158 0.83743 0.0
C2155 C 0.54284 0.49025 0.83221 0.0
C2156 C 0.55303 0.48078 0.84252 0.0
C2157 C 0.54991 0.4823 0.85769 0.0
C2158 C 0.5366 0.49339 0.86242 0.0
C2159 C 0.52667 0.50296 0.85263 0.0
C2160 C 0.5128 0.51357 0.86058 0.0
C2161 C 0.525 0.54149 0.85951 0.0
C2162 C 0.48521 0.49995 0.85453 0.0
C2163 C 0.51622 0.5082 0.87635 0.0
C2164 C 0.53007 0.49662 0.87716 0.0
C2165 C 0.53534 0.48942 0.89048 0.0
C2166 C 0.52626 0.49422 0.90332 0.0
C2167 C 0.51207 0.50617 0.90281 0.0
C2168 C 0.50705 0.5132 0.88908 0.0
H2169 H 0.5497 0.06821 0.8471 0.0
H2170 H 0.50346 0.99926 0.81906 0.0
H2171 H 0.49012 0.97739 0.84137 0.0
H2172 H 0.56963 0.04199 0.87588 0.0
H2173 H 0.56898 0.06182 0.89092 0.0
H2174 H 0.57517 0.07231 0.87274 0.0
H2175 H 0.53871 0.08095 0.87252 0.0
H2176 H 0.53233 0.07037 0.89066 0.0
H2177 H 0.50818 0.05649 0.87538 0.0
H2178 H 0.48102 0.96287 0.8664 0.0
H2179 H 0.47742 0.9562 0.89284 0.0
H2180 H 0.53029 0.03401 0.90531 0.0
C2181 C 0.53695 0.04847 0.84566 0.0
C2182 C 0.52747 0.03553 0.83124 0.0
C2183 C 0.51064 0.00972 0.82991 0.0
C2184 C 0.50305 0.99707 0.84254 0.0
C2185 C 0.51246 0.01038 0.85652 0.0
C2186 C 0.52911 0.03548 0.85821 0.0
C2187 C 0.53621 0.04523 0.8746 0.0
C2188 C 0.56416 0.05597 0.87878 0.0
C2189 C 0.52839 0.06439 0.87852 0.0
C2190 C 0.52089 0.02169 0.8818 0.0
C2191 C 0.50736 0.00187 0.87111 0.0
C2192 C 0.49169 0.97821 0.87488 0.0
C2193 C 0.4899 0.97459 0.88998 0.0
C2194 C 0.50378 0.99448 0.90125 0.0
C2195 C 0.51935 0.01842 0.89702 0.0
H2196 H 0.13732 0.26777 0.49512 0.0
H2197 H 0.16581 0.33595 0.52411 0.0
H2198 H 0.17749 0.35961 0.50236 0.0
H2199 H 0.18489 0.29226 0.46944 0.0
H2200 H 0.16371 0.27464 0.45322 0.0
H2201 H 0.15776 0.26284 0.47108 0.0
H2202 H 0.11431 0.25871 0.46831 0.0
H2203 H 0.12017 0.2706 0.45047 0.0
H2204 H 0.11172 0.28534 0.46489 0.0
H2205 H 0.18551 0.37607 0.47766 0.0
H2206 H 0.18975 0.38443 0.45148 0.0
H2207 H 0.15705 0.30599 0.43799 0.0
C2208 C 0.14623 0.2877 0.4969 0.0
C2209 C 0.15047 0.29995 0.51138 0.0
C2210 C 0.16197 0.32605 0.51316 0.0
C2211 C 0.16882 0.33971 0.50087 0.0
C2212 C 0.16413 0.32709 0.48678 0.0
C2213 C 0.15316 0.30169 0.48468 0.0
C2214 C 0.15 0.29281 0.46826 0.0
C2215 C 0.16499 0.27988 0.46533 0.0
C2216 C 0.12241 0.27586 0.46265 0.0
C2217 C 0.16088 0.31719 0.46149 0.0
C2218 C 0.16893 0.33668 0.47242 0.0
C2219 C 0.17946 0.36097 0.46901 0.0
C2220 C 0.18195 0.36554 0.45406 0.0
C2221 C 0.17402 0.34597 0.44257 0.0
C2222 C 0.16323 0.32142 0.44643 0.0
H2223 H 0.68606 0.81824 0.51806 0.0
H2224 H 0.70717 0.89518 0.52786 0.0
H2225 H 0.69704 0.89708 0.50146 0.0
H2226 H 0.70993 0.82373 0.4829 0.0
H2227 H 0.68484 0.79451 0.47427 0.0
H2228 H 0.69314 0.79883 0.49405 0.0
H2229 H 0.64794 0.78615 0.4987 0.0
H2230 H 0.63947 0.78169 0.47892 0.0
H2231 H 0.63377 0.80225 0.49065 0.0
H2232 H 0.68634 0.89135 0.474 0.0
H2233 H 0.67411 0.87776 0.44716 0.0
H2234 H 0.65869 0.80424 0.45505 0.0
C2235 C 0.68822 0.83538 0.5147 0.0
C2236 C 0.69763 0.85662 0.52505 0.0
C2237 C 0.70045 0.87879 0.52012 0.0
C2238 C 0.69459 0.88002 0.50516 0.0
C2239 C 0.68572 0.85889 0.49523 0.0
C2240 C 0.68236 0.83693 0.49978 0.0
C2241 C 0.6728 0.81703 0.48675 0.0
C2242 C 0.69129 0.808 0.48435 0.0
C2243 C 0.64696 0.79551 0.48889 0.0
C2244 C 0.67152 0.83133 0.47419 0.0
C2245 C 0.67911 0.85546 0.47935 0.0
C2246 C 0.68024 0.87248 0.46983 0.0
C2247 C 0.67341 0.86463 0.4546 0.0
C2248 C 0.66547 0.83997 0.44905 0.0
C2249 C 0.66442 0.82312 0.45902 0.0
H2250 H 0.12062 0.84503 0.49917 0.0
H2251 H 0.14621 0.80077 0.52061 0.0
H2252 H 0.16134 0.79392 0.49711 0.0
H2253 H 0.10113 0.80933 0.4623 0.0
H2254 H 0.11184 0.83651 0.45261 0.0
H2255 H 0.10118 0.83614 0.47074 0.0
H2256 H 0.14306 0.87541 0.48025 0.0
H2257 H 0.15388 0.87583 0.4622 0.0
H2258 H 0.17164 0.87535 0.47845 0.0
H2259 H 0.17551 0.79364 0.47167 0.0
H2260 H 0.1887 0.80086 0.44636 0.0
H2261 H 0.15411 0.84557 0.44156 0.0
C2262 C 0.12894 0.83347 0.49881 0.0
C2263 C 0.13212 0.82328 0.51166 0.0
C2264 C 0.14366 0.80878 0.51089 0.0
C2265 C 0.1522 0.8047 0.49759 0.0
C2266 C 0.1491 0.8153 0.48517 0.0
C2267 C 0.13774 0.82939 0.48566 0.0
C2268 C 0.13802 0.8399 0.47101 0.0
C2269 C 0.11146 0.82986 0.46374 0.0
C2270 C 0.15252 0.8683 0.47311 0.0
C2271 C 0.15163 0.82983 0.46229 0.0
C2272 C 0.15762 0.81548 0.47059 0.0
C2273 C 0.17072 0.80467 0.46501 0.0
C2274 C 0.17805 0.80879 0.4506 0.0
C2275 C 0.17241 0.82374 0.44196 0.0
C2276 C 0.15885 0.8342 0.44791 0.0
H2277 H 0.63896 0.80533 0.17895 0.0
H2278 H 0.67285 0.8819 0.16997 0.0
H2279 H 0.69183 0.89524 0.19603 0.0
H2280 H 0.62393 0.81429 0.21537 0.0
H2281 H 0.63043 0.79202 0.22294 0.0
H2282 H 0.62043 0.78843 0.20344 0.0
H2283 H 0.65962 0.78719 0.19671 0.0
H2284 H 0.6697 0.79068 0.21621 0.0
H2285 H 0.68989 0.81211 0.20412 0.0
H2286 H 0.70652 0.90021 0.22295 0.0
H2287 H 0.71531 0.89667 0.24932 0.0
H2288 H 0.67149 0.8168 0.24092 0.0
C2289 C 0.65065 0.82489 0.18245 0.0
C2290 C 0.65457 0.84263 0.17249 0.0
C2291 C 0.66956 0.86806 0.17749 0.0
C2292 C 0.68047 0.87579 0.19222 0.0
C2293 C 0.67609 0.85783 0.20179 0.0
C2294 C 0.66151 0.83291 0.19714 0.0
C2295 C 0.65907 0.81744 0.2098 0.0
C2296 C 0.63185 0.80215 0.21308 0.0
C2297 C 0.67024 0.80088 0.20651 0.0
C2298 C 0.67452 0.83757 0.22231 0.0
C2299 C 0.68428 0.86071 0.21741 0.0
C2300 C 0.6991 0.8822 0.22691 0.0
C2301 C 0.70408 0.87999 0.24184 0.0
C2302 C 0.69419 0.85646 0.24713 0.0
C2303 C 0.67919 0.83502 0.2372 0.0
H2304 H 0.20917 0.83781 0.17082 0.0
H2305 H 0.24887 0.79821 0.17725 0.0
H2306 H 0.24043 0.79609 0.2036 0.0
H2307 H 0.22919 0.8734 0.20738 0.0
H2308 H 0.19967 0.87145 0.20912 0.0
H2309 H 0.21002 0.87098 0.19098 0.0
H2310 H 0.1694 0.82967 0.18265 0.0
H2311 H 0.15902 0.82991 0.20079 0.0
H2312 H 0.16097 0.80374 0.19325 0.0
H2313 H 0.22548 0.79602 0.22882 0.0
H2314 H 0.20688 0.79976 0.25144 0.0
H2315 H 0.1775 0.84011 0.22878 0.0
C2316 C 0.21619 0.82879 0.17779 0.0
C2317 C 0.22978 0.81825 0.17196 0.0
C2318 C 0.23877 0.80677 0.18149 0.0
C2319 C 0.23392 0.80531 0.19646 0.0
C2320 C 0.22015 0.81555 0.20176 0.0
C2321 C 0.21159 0.82726 0.19276 0.0
C2322 C 0.19694 0.83644 0.20118 0.0
C2323 C 0.20973 0.86475 0.20223 0.0
C2324 C 0.16999 0.8242 0.19404 0.0
C2325 C 0.19824 0.8277 0.21625 0.0
C2326 C 0.21175 0.81573 0.21635 0.0
C2327 C 0.21511 0.80562 0.22892 0.0
C2328 C 0.20455 0.80795 0.24176 0.0
C2329 C 0.19082 0.82039 0.242 0.0
C2330 C 0.18766 0.83031 0.22899 0.0
H2331 H 0.19027 0.35292 0.16745 0.0
H2332 H 0.24644 0.42985 0.17965 0.0
H2333 H 0.24526 0.4226 0.20608 0.0
H2334 H 0.1542 0.34786 0.19795 0.0
H2335 H 0.14637 0.31665 0.20046 0.0
H2336 H 0.15233 0.32747 0.18235 0.0
H2337 H 0.18624 0.3153 0.18107 0.0
H2338 H 0.18041 0.30447 0.19919 0.0
H2339 H 0.21131 0.32739 0.19576 0.0
H2340 H 0.2374 0.4076 0.23119 0.0
H2341 H 0.22338 0.38582 0.2534 0.0
H2342 H 0.17125 0.31873 0.22533 0.0
C2343 C 0.20229 0.36828 0.17566 0.0
C2344 C 0.21863 0.39195 0.17136 0.0
C2345 C 0.23415 0.41143 0.18254 0.0
C2346 C 0.2335 0.40755 0.19763 0.0
C2347 C 0.21719 0.38409 0.20145 0.0
C2348 C 0.20184 0.36476 0.19082 0.0
C2349 C 0.18568 0.34147 0.19801 0.0
C2350 C 0.15801 0.33286 0.19448 0.0
C2351 C 0.19125 0.32095 0.19322 0.0
C2352 C 0.19426 0.3508 0.21434 0.0
C2353 C 0.21248 0.37543 0.21603 0.0
C2354 C 0.22313 0.3883 0.23 0.0
C2355 C 0.21492 0.37574 0.2426 0.0
C2356 C 0.19617 0.35047 0.24125 0.0
C2357 C 0.18583 0.33791 0.22684 0.0
H2358 H 0.80917 0.63611 0.84535 0.0
H2359 H 0.79056 0.5601 0.83431 0.0
H2360 H 0.79796 0.56813 0.80831 0.0
H2361 H 0.77898 0.64034 0.81107 0.0
H2362 H 0.80214 0.67204 0.80981 0.0
H2363 H 0.79591 0.66058 0.82774 0.0
H2364 H 0.84242 0.67466 0.83368 0.0
H2365 H 0.84876 0.68602 0.81572 0.0
H2366 H 0.85723 0.66386 0.82114 0.0
H2367 H 0.80813 0.58428 0.7836 0.0
H2368 H 0.81835 0.60694 0.76147 0.0
H2369 H 0.82779 0.67192 0.78775 0.0
C2370 C 0.80641 0.62106 0.83747 0.0
C2371 C 0.79958 0.59751 0.84207 0.0
C2372 C 0.79639 0.57847 0.83128 0.0
C2373 C 0.80037 0.58278 0.81641 0.0
C2374 C 0.80733 0.60619 0.81233 0.0
C2375 C 0.81013 0.62498 0.82248 0.0
C2376 C 0.81737 0.64833 0.81504 0.0
C2377 C 0.79741 0.65575 0.81597 0.0
C2378 C 0.84297 0.66946 0.8218 0.0
C2379 C 0.81826 0.63969 0.79914 0.0
C2380 C 0.8125 0.61535 0.79788 0.0
C2381 C 0.8124 0.60328 0.78441 0.0
C2382 C 0.81807 0.61632 0.77184 0.0
C2383 C 0.82359 0.64122 0.77269 0.0
C2384 C 0.82382 0.65301 0.78664 0.0
H2385 H 0.37845 0.19763 0.8473 0.0
H2386 H 0.39212 0.13667 0.85037 0.0
H2387 H 0.38234 0.12614 0.82314 0.0
H2388 H 0.32732 0.16735 0.8194 0.0
H2389 H 0.33573 0.19451 0.81002 0.0
H2390 H 0.34447 0.19756 0.82966 0.0
H2391 H 0.39057 0.22638 0.82553 0.0
H2392 H 0.38198 0.22339 0.80585 0.0
H2393 H 0.40494 0.21587 0.81246 0.0
H2394 H 0.37023 0.12183 0.79564 0.0
H2395 H 0.35619 0.12375 0.76993 0.0
H2396 H 0.35075 0.18771 0.78499 0.0
C2397 C 0.37972 0.18227 0.84223 0.0
C2398 C 0.38609 0.16799 0.85095 0.0
C2399 C 0.38704 0.14771 0.84392 0.0
C2400 C 0.38168 0.14169 0.82846 0.0
C2401 C 0.37544 0.15616 0.82021 0.0
C2402 C 0.37443 0.17602 0.82685 0.0
C2403 C 0.36663 0.18823 0.81553 0.0
C2404 C 0.34208 0.18681 0.81885 0.0
C2405 C 0.38727 0.21506 0.81481 0.0
C2406 C 0.36328 0.17206 0.80148 0.0
C2407 C 0.3685 0.15369 0.8044 0.0
C2408 C 0.36615 0.13616 0.79322 0.0
C2409 C 0.35806 0.13733 0.77868 0.0
C2410 C 0.35242 0.15589 0.77548 0.0
C2411 C 0.35528 0.17354 0.78706 0.0
H2412 H 0.79718 0.18099 0.82808 0.0
H2413 H 0.84901 0.16725 0.85387 0.0
H2414 H 0.86669 0.16315 0.83091 0.0
H2415 H 0.78641 0.13759 0.79563 0.0
H2416 H 0.78455 0.15721 0.78254 0.0
H2417 H 0.77532 0.15825 0.80095 0.0
H2418 H 0.80621 0.20537 0.80498 0.0
H2419 H 0.81568 0.20443 0.78664 0.0
H2420 H 0.83851 0.21691 0.80261 0.0
H2421 H 0.88024 0.16262 0.80554 0.0
H2422 H 0.88776 0.16395 0.77914 0.0
H2423 H 0.82603 0.17614 0.76929 0.0
C2424 C 0.81197 0.17672 0.82887 0.0
C2425 C 0.8218 0.17461 0.84284 0.0
C2426 C 0.84142 0.16936 0.84337 0.0
C2427 C 0.85151 0.16685 0.83037 0.0
C2428 C 0.84172 0.16949 0.81686 0.0
C2429 C 0.82228 0.17411 0.81597 0.0
C2430 C 0.81555 0.17652 0.80002 0.0
C2431 C 0.78887 0.15618 0.79446 0.0
C2432 C 0.81921 0.20235 0.79848 0.0
C2433 C 0.83444 0.17279 0.79214 0.0
C2434 C 0.84931 0.16875 0.8021 0.0
C2435 C 0.8685 0.16543 0.7976 0.0
C2436 C 0.87252 0.16607 0.78252 0.0
C2437 C 0.85736 0.16987 0.77199 0.0
C2438 C 0.83809 0.17334 0.77698 0.0
H2439 H 0.32262 0.14469 0.49714 0.0
H2440 H 0.34749 0.22184 0.49322 0.0
H2441 H 0.35794 0.23119 0.52049 0.0
H2442 H 0.29333 0.14071 0.52958 0.0
H2443 H 0.30193 0.12021 0.53768 0.0
H2444 H 0.29871 0.11997 0.51778 0.0
H2445 H 0.34363 0.1284 0.51664 0.0
H2446 H 0.34692 0.12841 0.53654 0.0
H2447 H 0.36889 0.15462 0.52784 0.0
H2448 H 0.36341 0.2316 0.54831 0.0
H2449 H 0.36326 0.22289 0.57461 0.0
H2450 H 0.33445 0.14544 0.56013 0.0
C2451 C 0.33081 0.16363 0.50201 0.0
C2452 C 0.33442 0.18259 0.49313 0.0
C2453 C 0.34457 0.20707 0.49989 0.0
C2454 C 0.35063 0.21256 0.51533 0.0
C2455 C 0.34638 0.19334 0.52382 0.0
C2456 C 0.33677 0.16938 0.5174 0.0
C2457 C 0.33262 0.15186 0.52906 0.0
C2458 C 0.30501 0.13203 0.52849 0.0
C2459 C 0.349 0.14014 0.52742 0.0
C2460 C 0.34103 0.16963 0.54305 0.0
C2461 C 0.34911 0.1935 0.53982 0.0
C2462 C 0.3573 0.213 0.55099 0.0
C2463 C 0.35719 0.20791 0.56586 0.0
C2464 C 0.34874 0.1835 0.56939 0.0
C2465 C 0.34072 0.16423 0.55778 0.0
H2466 H 0.86296 0.13679 0.50801 0.0
H2467 H 0.91827 0.2139 0.50654 0.0
H2468 H 0.90726 0.22438 0.5306 0.0
H2469 H 0.8176 0.14631 0.52454 0.0
H2470 H 0.80848 0.12144 0.5361 0.0
H2471 H 0.8205 0.11997 0.51868 0.0
H2472 H 0.85445 0.11402 0.53233 0.0
H2473 H 0.84246 0.11536 0.5498 0.0
H2474 H 0.87465 0.1362 0.5476 0.0
H2475 H 0.88963 0.22659 0.5547 0.0
H2476 H 0.86801 0.22007 0.57748 0.0
H2477 H 0.82564 0.14134 0.56377 0.0
C2478 C 0.87308 0.15586 0.51279 0.0
C2479 C 0.89149 0.17451 0.50524 0.0
C2480 C 0.90382 0.19928 0.51189 0.0
C2481 C 0.89781 0.20542 0.52563 0.0
C2482 C 0.87954 0.18658 0.53269 0.0
C2483 C 0.86749 0.16228 0.52655 0.0
C2484 C 0.8487 0.14549 0.53647 0.0
C2485 C 0.82226 0.13255 0.52847 0.0
C2486 C 0.85548 0.12666 0.54187 0.0
C2487 C 0.852 0.16415 0.54914 0.0
C2488 C 0.86978 0.18777 0.54671 0.0
C2489 C 0.87572 0.20816 0.55673 0.0
C2490 C 0.86324 0.2043 0.56959 0.0
C2491 C 0.84512 0.18022 0.57239 0.0
C2492 C 0.83954 0.15993 0.562 0.0
H2493 H 0.85838 0.6889 0.50364 0.0
H2494 H 0.91647 0.76466 0.51719 0.0
H2495 H 0.91354 0.75633 0.54343 0.0
H2496 H 0.82136 0.68419 0.53395 0.0
H2497 H 0.81212 0.65244 0.53588 0.0
H2498 H 0.81908 0.66412 0.51805 0.0
H2499 H 0.85161 0.65013 0.51659 0.0
H2500 H 0.84484 0.63851 0.53446 0.0
H2501 H 0.87623 0.66075 0.53146 0.0
H2502 H 0.90455 0.74005 0.56822 0.0
H2503 H 0.88953 0.71712 0.58994 0.0
H2504 H 0.83595 0.65221 0.56069 0.0
C2505 C 0.87038 0.70381 0.51211 0.0
C2506 C 0.88786 0.72741 0.50824 0.0
C2507 C 0.90331 0.74628 0.51975 0.0
C2508 C 0.90167 0.74179 0.53474 0.0
C2509 C 0.8844 0.71835 0.53813 0.0
C2510 C 0.86893 0.69968 0.52718 0.0
C2511 C 0.8518 0.67622 0.53392 0.0
C2512 C 0.82447 0.66881 0.53023 0.0
C2513 C 0.85641 0.65516 0.5288 0.0
C2514 C 0.86009 0.68466 0.55036 0.0
C2515 C 0.87894 0.70902 0.55251 0.0
C2516 C 0.8897 0.72099 0.56667 0.0
C2517 C 0.88092 0.70777 0.57899 0.0
C2518 C 0.86146 0.68277 0.57717 0.0
C2519 C 0.85103 0.67116 0.56257 0.0
loop_
_geom_bond_atom_site_label_1
_geom_bond_atom_site_label_2
_geom_bond_distance
_geom_bond_site_symmetry_2
_ccdc_geom_bond_type
C0 C1 1.386 . S
C0 C2 1.397 . S
C0 H24 0.931 . S
C1 C0 1.386 . S
C1 C5 1.397 . S
C2 C0 1.397 . S
C2 C3 1.384 . S
C2 H25 0.930 . S
C3 C2 1.384 . S
C3 C4 1.377 . S
C3 C6 1.481 . S
C4 C3 1.377 . S
C4 C5 1.389 . S
C4 H26 0.929 . S
C5 C1 1.397 . S
C5 C4 1.389 . S
C5 H27 0.931 . S
C6 C3 1.481 . S
C6 C7 1.387 . S
C6 C11 1.390 . S
C7 C6 1.387 . S
C7 C8 1.401 . S
C7 H28 0.930 . S
C8 C7 1.401 . S
C8 C9 1.376 . S
C8 C17 1.511 . S
C9 C8 1.376 . S
C9 C10 1.392 . S
C9 H30 0.931 . S
C10 C9 1.392 . S
C10 C11 1.361 . S
C10 C12 1.500 . S
C11 C6 1.390 . S
C11 C10 1.361 . S
C11 H29 0.931 . S
C12 C10 1.500 . S
C12 C13 1.371 . S
C12 C14 1.365 . S
C13 C12 1.371 . S
C13 C23 1.386 . S
C13 H31 0.931 . S
C14 C12 1.365 . S
C14 C15 1.409 . S
C14 H32 0.929 . S
C15 C14 1.409 . S
C15 C16 1.380 . S
C15 H33 0.930 . S
C16 C15 1.380 . S
C16 C23 1.357 . S
C17 C8 1.511 . S
C17 C18 1.341 . S
C17 C19 1.371 . S
C18 C17 1.341 . S
C18 C22 1.394 . S
C18 H34 0.930 . S
C19 C17 1.371 . S
C19 C20 1.392 . S
C19 H35 0.931 . S
C20 C19 1.392 . S
C20 C21 1.331 . S
C20 H38 0.932 . S
C21 C20 1.331 . S
C21 C22 1.336 . S
C22 C18 1.394 . S
C22 C21 1.336 . S
C22 H37 0.929 . S
C23 C13 1.386 . S
C23 C16 1.357 . S
C23 H36 0.928 . S
H24 C0 0.931 . S
H25 C2 0.930 . S
H26 C4 0.929 . S
H27 C5 0.931 . S
H28 C7 0.930 . S
H29 C11 0.931 . S
H30 C9 0.931 . S
H31 C13 0.931 . S
H32 C14 0.929 . S
H33 C15 0.930 . S
H34 C18 0.930 . S
H35 C19 0.931 . S
H36 C23 0.928 . S
H37 C22 0.929 . S
H38 C20 0.932 . S
C39 C40 1.386 . S
C39 C41 1.397 . S
C39 H63 0.931 . S
C40 C39 1.386 . S
C40 C44 1.397 . S
C41 C39 1.397 . S
C41 C42 1.384 . S
C41 H64 0.930 . S
C42 C41 1.384 . S
C42 C43 1.377 . S
C42 C45 1.481 . S
C43 C42 1.377 . S
C43 C44 1.389 . S
C43 H65 0.929 . S
C44 C40 1.397 . S
C44 C43 1.389 . S
C44 H66 0.931 . S
C45 C42 1.481 . S
C45 C46 1.387 . S
C45 C50 1.390 . S
C46 C45 1.387 . S
C46 C47 1.401 . S
C46 H67 0.930 . S
C47 C46 1.401 . S
C47 C48 1.376 . S
C47 C56 1.511 . S
C48 C47 1.376 . S
C48 C49 1.392 . S
C48 H69 0.931 . S
C49 C48 1.392 . S
C49 C50 1.361 . S
C49 C51 1.500 . S
C50 C45 1.390 . S
C50 C49 1.361 . S
C50 H68 0.931 . S
C51 C49 1.500 . S
C51 C52 1.371 . S
C51 C53 1.365 . S
C52 C51 1.371 . S
C52 C62 1.386 . S
C52 H70 0.931 . S
C53 C51 1.365 . S
C53 C54 1.409 . S
C53 H71 0.929 . S
C54 C53 1.409 . S
C54 C55 1.380 . S
C54 H72 0.930 . S
C55 C54 1.380 . S
C55 C62 1.357 . S
C56 C47 1.511 . S
C56 C57 1.341 . S
C56 C58 1.371 . S
C57 C56 1.341 . S
C57 C61 1.394 . S
C57 H73 0.930 . S
C58 C56 1.371 . S
C58 C59 1.392 . S
C58 H74 0.931 . S
C59 C58 1.392 . S
C59 C60 1.331 . S
C59 H77 0.932 . S
C60 C59 1.331 . S
C60 C61 1.336 . S
C61 C57 1.394 . S
C61 C60 1.336 . S
C61 H76 0.929 . S
C62 C52 1.386 . S
C62 C55 1.357 . S
C62 H75 0.928 . S
H63 C39 0.931 . S
H64 C41 0.930 . S
H65 C43 0.929 . S
H66 C44 0.931 . S
H67 C46 0.930 . S
H68 C50 0.931 . S
H69 C48 0.931 . S
H70 C52 0.931 . S
H71 C53 0.929 . S
H72 C54 0.930 . S
H73 C57 0.930 . S
H74 C58 0.931 . S
H75 C62 0.928 . S
H76 C61 0.929 . S
H77 C59 0.932 . S
C78 C79 1.386 . S
C78 C80 1.397 . S
C78 H102 0.931 . S
C79 C78 1.386 . S
C79 C83 1.397 . S
C80 C78 1.397 . S
C80 C81 1.384 . S
C80 H103 0.930 . S
C81 C80 1.384 . S
C81 C82 1.377 . S
C81 C84 1.481 . S
C82 C81 1.377 . S
C82 C83 1.389 . S
C82 H104 0.929 . S
C83 C79 1.397 . S
C83 C82 1.389 . S
C83 H105 0.931 . S
C84 C81 1.481 . S
C84 C85 1.387 . S
C84 C89 1.390 . S
C85 C84 1.387 . S
C85 C86 1.401 . S
C85 H106 0.930 . S
C86 C85 1.401 . S
C86 C87 1.376 . S
C86 C95 1.511 . S
C87 C86 1.376 . S
C87 C88 1.392 . S
C87 H108 0.931 . S
C88 C87 1.392 . S
C88 C89 1.361 . S
C88 C90 1.500 . S
C89 C84 1.390 . S
C89 C88 1.361 . S
C89 H107 0.931 . S
C90 C88 1.500 . S
C90 C91 1.371 . S
C90 C92 1.365 . S
C91 C90 1.371 . S
C91 C101 1.386 . S
C91 H109 0.931 . S
C92 C90 1.365 . S
C92 C93 1.409 . S
C92 H110 0.929 . S
C93 C92 1.409 . S
C93 C94 1.380 . S
C93 H111 0.930 . S
C94 C93 1.380 . S
C94 C101 1.357 . S
C95 C86 1.511 . S
C95 C96 1.341 . S
C95 C97 1.371 . S
C96 C95 1.341 . S
C96 C100 1.394 . S
C96 H112 0.930 . S
C97 C95 1.371 . S
C97 C98 1.392 . S
C97 H113 0.931 . S
C98 C97 1.392 . S
C98 C99 1.331 . S
C98 H116 0.932 . S
C99 C98 1.331 . S
C99 C100 1.336 . S
C100 C96 1.394 . S
C100 C99 1.336 . S
C100 H115 0.929 . S
C101 C91 1.386 . S
C101 C94 1.357 . S
C101 H114 0.928 . S
H102 C78 0.931 . S
H103 C80 0.930 . S
H104 C82 0.929 . S
H105 C83 0.931 . S
H106 C85 0.930 . S
H107 C89 0.931 . S
H108 C87 0.931 . S
H109 C91 0.931 . S
H110 C92 0.929 . S
H111 C93 0.930 . S
H112 C96 0.930 . S
H113 C97 0.931 . S
H114 C101 0.928 . S
H115 C100 0.929 . S
H116 C98 0.932 . S
C117 C118 1.386 . S
C117 C119 1.397 . S
C117 H141 0.931 . S
C118 C117 1.386 . S
C118 C122 1.397 . S
C119 C117 1.397 . S
C119 C120 1.384 . S
C119 H142 0.930 . S
C120 C119 1.384 . S
C120 C121 1.377 . S
C120 C123 1.481 . S
C121 C120 1.377 . S
C121 C122 1.389 . S
C121 H143 0.929 . S
C122 C118 1.397 . S
C122 C121 1.389 . S
C122 H144 0.931 . S
C123 C120 1.481 . S
C123 C124 1.387 . S
C123 C128 1.390 . S
C124 C123 1.387 . S
C124 C125 1.401 . S
C124 H145 0.930 . S
C125 C124 1.401 . S
C125 C126 1.376 . S
C125 C134 1.511 . S
C126 C125 1.376 . S
C126 C127 1.392 . S
C126 H147 0.931 . S
C127 C126 1.392 . S
C127 C128 1.361 . S
C127 C129 1.500 . S
C128 C123 1.390 . S
C128 C127 1.361 . S
C128 H146 0.931 . S
C129 C127 1.500 . S
C129 C130 1.371 . S
C129 C131 1.365 . S
C130 C129 1.371 . S
C130 C140 1.386 . S
C130 H148 0.931 . S
C131 C129 1.365 . S
C131 C132 1.409 . S
C131 H149 0.929 . S
C132 C131 1.409 . S
C132 C133 1.380 . S
C132 H150 0.930 . S
C133 C132 1.380 . S
C133 C140 1.357 . S
C134 C125 1.511 . S
C134 C135 1.341 . S
C134 C136 1.371 . S
C135 C134 1.341 . S
C135 C139 1.394 . S
C135 H151 0.930 . S
C136 C134 1.371 . S
C136 C137 1.392 . S
C136 H152 0.931 . S
C137 C136 1.392 . S
C137 C138 1.331 . S
C137 H155 0.932 . S
C138 C137 1.331 . S
C138 C139 1.336 . S
C139 C135 1.394 . S
C139 C138 1.336 . S
C139 H154 0.929 . S
C140 C130 1.386 . S
C140 C133 1.357 . S
C140 H153 0.928 . S
H141 C117 0.931 . S
H142 C119 0.930 . S
H143 C121 0.929 . S
H144 C122 0.931 . S
H145 C124 0.930 . S
H146 C128 0.931 . S
H147 C126 0.931 . S
H148 C130 0.931 . S
H149 C131 0.929 . S
H150 C132 0.930 . S
H151 C135 0.930 . S
H152 C136 0.931 . S
H153 C140 0.928 . S
H154 C139 0.929 . S
H155 C137 0.932 . S
C156 C157 1.386 . S
C156 C158 1.397 . S
C156 H180 0.931 . S
C157 C156 1.386 . S
C157 C161 1.397 . S
C158 C156 1.397 . S
C158 C159 1.384 . S
C158 H181 0.930 . S
C159 C158 1.384 . S
C159 C160 1.377 . S
C159 C162 1.481 . S
C160 C159 1.377 . S
C160 C161 1.389 . S
C160 H182 0.929 . S
C161 C157 1.397 . S
C161 C160 1.389 . S
C161 H183 0.931 . S
C162 C159 1.481 . S
C162 C163 1.387 . S
C162 C167 1.390 . S
C163 C162 1.387 . S
C163 C164 1.401 . S
C163 H184 0.930 . S
C164 C163 1.401 . S
C164 C165 1.376 . S
C164 C173 1.511 . S
C165 C164 1.376 . S
C165 C166 1.392 . S
C165 H186 0.931 . S
C166 C165 1.392 . S
C166 C167 1.361 . S
C166 C168 1.500 . S
C167 C162 1.390 . S
C167 C166 1.361 . S
C167 H185 0.931 . S
C168 C166 1.500 . S
C168 C169 1.371 . S
C168 C170 1.365 . S
C169 C168 1.371 . S
C169 C179 1.386 . S
C169 H187 0.931 . S
C170 C168 1.365 . S
C170 C171 1.409 . S
C170 H188 0.929 . S
C171 C170 1.409 . S
C171 C172 1.380 . S
C171 H189 0.930 . S
C172 C171 1.380 . S
C172 C179 1.357 . S
C173 C164 1.511 . S
C173 C174 1.341 . S
C173 C175 1.371 . S
C174 C173 1.341 . S
C174 C178 1.394 . S
C174 H190 0.930 . S
C175 C173 1.371 . S
C175 C176 1.392 . S
C175 H191 0.931 . S
C176 C175 1.392 . S
C176 C177 1.331 . S
C176 H194 0.932 . S
C177 C176 1.331 . S
C177 C178 1.336 . S
C178 C174 1.394 . S
C178 C177 1.336 . S
C178 H193 0.929 . S
C179 C169 1.386 . S
C179 C172 1.357 . S
C179 H192 0.928 . S
H180 C156 0.931 . S
H181 C158 0.930 . S
H182 C160 0.929 . S
H183 C161 0.931 . S
H184 C163 0.930 . S
H185 C167 0.931 . S
H186 C165 0.931 . S
H187 C169 0.931 . S
H188 C170 0.929 . S
H189 C171 0.930 . S
H190 C174 0.930 . S
H191 C175 0.931 . S
H192 C179 0.928 . S
H193 C178 0.929 . S
H194 C176 0.932 . S
C195 C196 1.386 . S
C195 C197 1.397 . S
C195 H219 0.931 . S
C196 C195 1.386 . S
C196 C200 1.397 . S
C197 C195 1.397 . S
C197 C198 1.384 . S
C197 H220 0.930 . S
C198 C197 1.384 . S
C198 C199 1.377 . S
C198 C201 1.481 . S
C199 C198 1.377 . S
C199 C200 1.389 . S
C199 H221 0.929 . S
C200 C196 1.397 . S
C200 C199 1.389 . S
C200 H222 0.931 . S
C201 C198 1.481 . S
C201 C202 1.387 . S
C201 C206 1.390 . S
C202 C201 1.387 . S
C202 C203 1.401 . S
C202 H223 0.930 . S
C203 C202 1.401 . S
C203 C204 1.376 . S
C203 C212 1.511 . S
C204 C203 1.376 . S
C204 C205 1.392 . S
C204 H225 0.931 . S
C205 C204 1.392 . S
C205 C206 1.361 . S
C205 C207 1.500 . S
C206 C201 1.390 . S
C206 C205 1.361 . S
C206 H224 0.931 . S
C207 C205 1.500 . S
C207 C208 1.371 . S
C207 C209 1.365 . S
C208 C207 1.371 . S
C208 C218 1.386 . S
C208 H226 0.931 . S
C209 C207 1.365 . S
C209 C210 1.409 . S
C209 H227 0.929 . S
C210 C209 1.409 . S
C210 C211 1.380 . S
C210 H228 0.930 . S
C211 C210 1.380 . S
C211 C218 1.357 . S
C212 C203 1.511 . S
C212 C213 1.341 . S
C212 C214 1.371 . S
C213 C212 1.341 . S
C213 C217 1.394 . S
C213 H229 0.930 . S
C214 C212 1.371 . S
C214 C215 1.392 . S
C214 H230 0.931 . S
C215 C214 1.392 . S
C215 C216 1.331 . S
C215 H233 0.932 . S
C216 C215 1.331 . S
C216 C217 1.336 . S
C217 C213 1.394 . S
C217 C216 1.336 . S
C217 H232 0.929 . S
C218 C208 1.386 . S
C218 C211 1.357 . S
C218 H231 0.928 . S
H219 C195 0.931 . S
H220 C197 0.930 . S
H221 C199 0.929 . S
H222 C200 0.931 . S
H223 C202 0.930 . S
H224 C206 0.931 . S
H225 C204 0.931 . S
H226 C208 0.931 . S
H227 C209 0.929 . S
H228 C210 0.930 . S
H229 C213 0.930 . S
H230 C214 0.931 . S
H231 C218 0.928 . S
H232 C217 0.929 . S
H233 C215 0.932 . S
C234 C235 1.386 . S
C234 C236 1.397 . S
C234 H258 0.931 . S
C235 C234 1.386 . S
C235 C239 1.397 1_655 S
C236 C234 1.397 . S
C236 C237 1.384 . S
C236 H259 0.930 . S
C237 C236 1.384 . S
C237 C238 1.377 . S
C237 C240 1.481 . S
C238 C237 1.377 . S
C238 C239 1.389 1_655 S
C238 H260 0.929 1_655 S
C239 C235 1.397 1_455 S
C239 C238 1.389 1_455 S
C239 H261 0.931 . S
C240 C237 1.481 . S
C240 C241 1.387 . S
C240 C245 1.390 . S
C241 C240 1.387 . S
C241 C242 1.401 . S
C241 H262 0.930 . S
C242 C241 1.401 . S
C242 C243 1.376 . S
C242 C251 1.511 . S
C243 C242 1.376 . S
C243 C244 1.392 . S
C243 H264 0.931 . S
C244 C243 1.392 . S
C244 C245 1.361 . S
C244 C246 1.500 . S
C245 C240 1.390 . S
C245 C244 1.361 . S
C245 H263 0.931 . S
C246 C244 1.500 . S
C246 C247 1.371 . S
C246 C248 1.365 . S
C247 C246 1.371 . S
C247 C257 1.386 . S
C247 H265 0.931 . S
C248 C246 1.365 . S
C248 C249 1.409 . S
C248 H266 0.929 . S
C249 C248 1.409 . S
C249 C250 1.380 . S
C249 H267 0.930 . S
C250 C249 1.380 . S
C250 C257 1.357 . S
C251 C242 1.511 . S
C251 C252 1.341 . S
C251 C253 1.371 . S
C252 C251 1.341 . S
C252 C256 1.394 . S
C252 H268 0.930 . S
C253 C251 1.371 . S
C253 C254 1.392 . S
C253 H269 0.931 . S
C254 C253 1.392 . S
C254 C255 1.331 . S
C254 H272 0.932 . S
C255 C254 1.331 . S
C255 C256 1.336 . S
C256 C252 1.394 . S
C256 C255 1.336 . S
C256 H271 0.929 . S
C257 C247 1.386 . S
C257 C250 1.357 . S
C257 H270 0.928 . S
H258 C234 0.931 . S
H259 C236 0.930 . S
H260 C238 0.929 1_455 S
H261 C239 0.931 . S
H262 C241 0.930 . S
H263 C245 0.931 . S
H264 C243 0.931 . S
H265 C247 0.931 . S
H266 C248 0.929 . S
H267 C249 0.930 . S
H268 C252 0.930 . S
H269 C253 0.931 . S
H270 C257 0.928 . S
H271 C256 0.929 . S
H272 C254 0.932 . S
C273 C274 1.386 . S
C273 C275 1.397 . S
C273 H297 0.931 . S
C274 C273 1.386 . S
C274 C278 1.397 . S
C275 C273 1.397 . S
C275 C276 1.384 . S
C275 H298 0.930 . S
C276 C275 1.384 . S
C276 C277 1.377 . S
C276 C279 1.481 . S
C277 C276 1.377 . S
C277 C278 1.389 . S
C277 H299 0.929 . S
C278 C274 1.397 . S
C278 C277 1.389 . S
C278 H300 0.931 . S
C279 C276 1.481 . S
C279 C280 1.387 . S
C279 C284 1.390 . S
C280 C279 1.387 . S
C280 C281 1.401 . S
C280 H301 0.930 . S
C281 C280 1.401 . S
C281 C282 1.376 . S
C281 C290 1.511 . S
C282 C281 1.376 . S
C282 C283 1.392 . S
C282 H303 0.931 . S
C283 C282 1.392 . S
C283 C284 1.361 . S
C283 C285 1.500 . S
C284 C279 1.390 . S
C284 C283 1.361 . S
C284 H302 0.931 . S
C285 C283 1.500 . S
C285 C286 1.371 . S
C285 C287 1.365 . S
C286 C285 1.371 . S
C286 C296 1.386 . S
C286 H304 0.931 . S
C287 C285 1.365 . S
C287 C288 1.409 . S
C287 H305 0.929 . S
C288 C287 1.409 . S
C288 C289 1.380 . S
C288 H306 0.930 . S
C289 C288 1.380 . S
C289 C296 1.357 . S
C290 C281 1.511 . S
C290 C291 1.341 . S
C290 C292 1.371 . S
C291 C290 1.341 . S
C291 C295 1.394 . S
C291 H307 0.930 . S
C292 C290 1.371 . S
C292 C293 1.392 . S
C292 H308 0.931 . S
C293 C292 1.392 . S
C293 C294 1.331 . S
C293 H311 0.932 . S
C294 C293 1.331 . S
C294 C295 1.336 . S
C295 C291 1.394 . S
C295 C294 1.336 . S
C295 H310 0.929 . S
C296 C286 1.386 . S
C296 C289 1.357 . S
C296 H309 0.928 . S
H297 C273 0.931 . S
H298 C275 0.930 . S
H299 C277 0.929 . S
H300 C278 0.931 . S
H301 C280 0.930 . S
H302 C284 0.931 . S
H303 C282 0.931 . S
H304 C286 0.931 . S
H305 C287 0.929 . S
H306 C288 0.930 . S
H307 C291 0.930 . S
H308 C292 0.931 . S
H309 C296 0.928 . S
H310 C295 0.929 . S
H311 C293 0.932 . S
C312 C313 1.386 . S
C312 C314 1.397 . S
C312 H336 0.931 . S
C313 C312 1.386 . S
C313 C317 1.397 . S
C314 C312 1.397 . S
C314 C315 1.384 . S
C314 H337 0.930 . S
C315 C314 1.384 . S
C315 C316 1.377 . S
C315 C318 1.481 . S
C316 C315 1.377 . S
C316 C317 1.389 . S
C316 H338 0.929 . S
C317 C313 1.397 . S
C317 C316 1.389 . S
C317 H339 0.931 . S
C318 C315 1.481 . S
C318 C319 1.387 . S
C318 C323 1.390 . S
C319 C318 1.387 . S
C319 C320 1.401 . S
C319 H340 0.930 . S
C320 C319 1.401 . S
C320 C321 1.376 . S
C320 C329 1.511 . S
C321 C320 1.376 . S
C321 C322 1.392 . S
C321 H342 0.931 . S
C322 C321 1.392 . S
C322 C323 1.361 . S
C322 C324 1.500 . S
C323 C318 1.390 . S
C323 C322 1.361 . S
C323 H341 0.931 . S
C324 C322 1.500 . S
C324 C325 1.371 . S
C324 C326 1.365 . S
C325 C324 1.371 . S
C325 C335 1.386 . S
C325 H343 0.931 . S
C326 C324 1.365 . S
C326 C327 1.409 . S
C326 H344 0.929 . S
C327 C326 1.409 . S
C327 C328 1.380 . S
C327 H345 0.930 . S
C328 C327 1.380 . S
C328 C335 1.357 . S
C329 C320 1.511 . S
C329 C330 1.341 . S
C329 C331 1.371 . S
C330 C329 1.341 . S
C330 C334 1.394 . S
C330 H346 0.930 . S
C331 C329 1.371 . S
C331 C332 1.392 . S
C331 H347 0.931 . S
C332 C331 1.392 . S
C332 C333 1.331 . S
C332 H350 0.932 . S
C333 C332 1.331 . S
C333 C334 1.336 . S
C334 C330 1.394 . S
C334 C333 1.336 . S
C334 H349 0.929 . S
C335 C325 1.386 . S
C335 C328 1.357 . S
C335 H348 0.928 . S
H336 C312 0.931 . S
H337 C314 0.930 . S
H338 C316 0.929 . S
H339 C317 0.931 . S
H340 C319 0.930 . S
H341 C323 0.931 . S
H342 C321 0.931 . S
H343 C325 0.931 . S
H344 C326 0.929 . S
H345 C327 0.930 . S
H346 C330 0.930 . S
H347 C331 0.931 . S
H348 C335 0.928 . S
H349 C334 0.929 . S
H350 C332 0.932 . S
C351 C352 1.386 . S
C351 C353 1.397 . S
C351 H375 0.931 . S
C352 C351 1.386 . S
C352 C356 1.397 . S
C353 C351 1.397 . S
C353 C354 1.384 . S
C353 H376 0.930 . S
C354 C353 1.384 . S
C354 C355 1.377 . S
C354 C357 1.481 . S
C355 C354 1.377 . S
C355 C356 1.389 . S
C355 H377 0.929 . S
C356 C352 1.397 . S
C356 C355 1.389 . S
C356 H378 0.931 . S
C357 C354 1.481 . S
C357 C358 1.387 . S
C357 C362 1.390 . S
C358 C357 1.387 . S
C358 C359 1.401 . S
C358 H379 0.930 . S
C359 C358 1.401 . S
C359 C360 1.376 . S
C359 C368 1.511 . S
C360 C359 1.376 . S
C360 C361 1.392 . S
C360 H381 0.931 . S
C361 C360 1.392 . S
C361 C362 1.361 . S
C361 C363 1.500 . S
C362 C357 1.390 . S
C362 C361 1.361 . S
C362 H380 0.931 . S
C363 C361 1.500 . S
C363 C364 1.371 . S
C363 C365 1.365 . S
C364 C363 1.371 . S
C364 C374 1.386 . S
C364 H382 0.931 . S
C365 C363 1.365 . S
C365 C366 1.409 . S
C365 H383 0.929 . S
C366 C365 1.409 . S
C366 C367 1.380 . S
C366 H384 0.930 . S
C367 C366 1.380 . S
C367 C374 1.357 . S
C368 C359 1.511 . S
C368 C369 1.341 . S
C368 C370 1.371 . S
C369 C368 1.341 . S
C369 C373 1.394 . S
C369 H385 0.930 . S
C370 C368 1.371 . S
C370 C371 1.392 . S
C370 H386 0.931 . S
C371 C370 1.392 . S
C371 C372 1.331 . S
C371 H389 0.932 . S
C372 C371 1.331 . S
C372 C373 1.336 . S
C373 C369 1.394 . S
C373 C372 1.336 . S
C373 H388 0.929 . S
C374 C364 1.386 . S
C374 C367 1.357 . S
C374 H387 0.928 . S
H375 C351 0.931 . S
H376 C353 0.930 . S
H377 C355 0.929 . S
H378 C356 0.931 . S
H379 C358 0.930 . S
H380 C362 0.931 . S
H381 C360 0.931 . S
H382 C364 0.931 . S
H383 C365 0.929 . S
H384 C366 0.930 . S
H385 C369 0.930 . S
H386 C370 0.931 . S
H387 C374 0.928 . S
H388 C373 0.929 . S
H389 C371 0.932 . S
C390 C391 1.386 . S
C390 C392 1.397 . S
C390 H414 0.931 . S
C391 C390 1.386 . S
C391 C395 1.397 . S
C392 C390 1.397 . S
C392 C393 1.384 . S
C392 H415 0.930 . S
C393 C392 1.384 . S
C393 C394 1.377 . S
C393 C396 1.481 . S
C394 C393 1.377 . S
C394 C395 1.389 . S
C394 H416 0.929 . S
C395 C391 1.397 . S
C395 C394 1.389 . S
C395 H417 0.931 . S
C396 C393 1.481 . S
C396 C397 1.387 . S
C396 C401 1.390 . S
C397 C396 1.387 . S
C397 C398 1.401 . S
C397 H418 0.930 . S
C398 C397 1.401 . S
C398 C399 1.376 . S
C398 C407 1.511 . S
C399 C398 1.376 . S
C399 C400 1.392 . S
C399 H420 0.931 . S
C400 C399 1.392 . S
C400 C401 1.361 . S
C400 C402 1.500 . S
C401 C396 1.390 . S
C401 C400 1.361 . S
C401 H419 0.931 . S
C402 C400 1.500 . S
C402 C403 1.371 . S
C402 C404 1.365 . S
C403 C402 1.371 . S
C403 C413 1.386 . S
C403 H421 0.931 . S
C404 C402 1.365 . S
C404 C405 1.409 . S
C404 H422 0.929 . S
C405 C404 1.409 . S
C405 C406 1.380 . S
C405 H423 0.930 . S
C406 C405 1.380 . S
C406 C413 1.357 . S
C407 C398 1.511 . S
C407 C408 1.341 . S
C407 C409 1.371 . S
C408 C407 1.341 . S
C408 C412 1.394 . S
C408 H424 0.930 . S
C409 C407 1.371 . S
C409 C410 1.392 . S
C409 H425 0.931 . S
C410 C409 1.392 . S
C410 C411 1.331 . S
C410 H428 0.932 . S
C411 C410 1.331 . S
C411 C412 1.336 . S
C412 C408 1.394 . S
C412 C411 1.336 . S
C412 H427 0.929 . S
C413 C403 1.386 . S
C413 C406 1.357 . S
C413 H426 0.928 . S
H414 C390 0.931 . S
H415 C392 0.930 . S
H416 C394 0.929 . S
H417 C395 0.931 . S
H418 C397 0.930 . S
H419 C401 0.931 . S
H420 C399 0.931 . S
H421 C403 0.931 . S
H422 C404 0.929 . S
H423 C405 0.930 . S
H424 C408 0.930 . S
H425 C409 0.931 . S
H426 C413 0.928 . S
H427 C412 0.929 . S
H428 C410 0.932 . S
C429 C430 1.386 . S
C429 C431 1.397 . S
C429 H453 0.931 . S
C430 C429 1.386 . S
C430 C434 1.397 . S
C431 C429 1.397 . S
C431 C432 1.384 . S
C431 H454 0.930 . S
C432 C431 1.384 . S
C432 C433 1.377 . S
C432 C435 1.481 . S
C433 C432 1.377 . S
C433 C434 1.389 . S
C433 H455 0.929 . S
C434 C430 1.397 . S
C434 C433 1.389 . S
C434 H456 0.931 . S
C435 C432 1.481 . S
C435 C436 1.387 . S
C435 C440 1.390 . S
C436 C435 1.387 . S
C436 C437 1.401 . S
C436 H457 0.930 . S
C437 C436 1.401 . S
C437 C438 1.376 . S
C437 C446 1.511 . S
C438 C437 1.376 . S
C438 C439 1.392 . S
C438 H459 0.931 . S
C439 C438 1.392 . S
C439 C440 1.361 . S
C439 C441 1.500 . S
C440 C435 1.390 . S
C440 C439 1.361 . S
C440 H458 0.931 . S
C441 C439 1.500 . S
C441 C442 1.371 . S
C441 C443 1.365 . S
C442 C441 1.371 . S
C442 C452 1.386 . S
C442 H460 0.931 . S
C443 C441 1.365 . S
C443 C444 1.409 . S
C443 H461 0.929 . S
C444 C443 1.409 . S
C444 C445 1.380 . S
C444 H462 0.930 . S
C445 C444 1.380 . S
C445 C452 1.357 . S
C446 C437 1.511 . S
C446 C447 1.341 . S
C446 C448 1.371 . S
C447 C446 1.341 . S
C447 C451 1.394 . S
C447 H463 0.930 . S
C448 C446 1.371 . S
C448 C449 1.392 . S
C448 H464 0.931 . S
C449 C448 1.392 . S
C449 C450 1.331 . S
C449 H467 0.932 . S
C450 C449 1.331 . S
C450 C451 1.336 . S
C451 C447 1.394 . S
C451 C450 1.336 . S
C451 H466 0.929 . S
C452 C442 1.386 . S
C452 C445 1.357 . S
C452 H465 0.928 . S
H453 C429 0.931 . S
H454 C431 0.930 . S
H455 C433 0.929 . S
H456 C434 0.931 . S
H457 C436 0.930 . S
H458 C440 0.931 . S
H459 C438 0.931 . S
H460 C442 0.931 . S
H461 C443 0.929 . S
H462 C444 0.930 . S
H463 C447 0.930 . S
H464 C448 0.931 . S
H465 C452 0.928 . S
H466 C451 0.929 . S
H467 C449 0.932 . S
C468 C469 1.386 . S
C468 C470 1.397 . S
C468 H492 0.931 . S
C469 C468 1.386 . S
C469 C473 1.397 . S
C470 C468 1.397 . S
C470 C471 1.384 . S
C470 H493 0.930 . S
C471 C470 1.384 . S
C471 C472 1.377 . S
C471 C474 1.481 . S
C472 C471 1.377 . S
C472 C473 1.389 . S
C472 H494 0.929 . S
C473 C469 1.397 . S
C473 C472 1.389 . S
C473 H495 0.931 . S
C474 C471 1.481 . S
C474 C475 1.387 . S
C474 C479 1.390 . S
C475 C474 1.387 . S
C475 C476 1.401 . S
C475 H496 0.930 . S
C476 C475 1.401 . S
C476 C477 1.376 . S
C476 C485 1.511 . S
C477 C476 1.376 . S
C477 C478 1.392 . S
C477 H498 0.931 . S
C478 C477 1.392 . S
C478 C479 1.361 . S
C478 C480 1.500 . S
C479 C474 1.390 . S
C479 C478 1.361 . S
C479 H497 0.931 . S
C480 C478 1.500 . S
C480 C481 1.371 . S
C480 C482 1.365 . S
C481 C480 1.371 . S
C481 C491 1.386 . S
C481 H499 0.931 . S
C482 C480 1.365 . S
C482 C483 1.409 . S
C482 H500 0.929 . S
C483 C482 1.409 . S
C483 C484 1.380 . S
C483 H501 0.930 . S
C484 C483 1.380 . S
C484 C491 1.357 . S
C485 C476 1.511 . S
C485 C486 1.341 . S
C485 C487 1.371 . S
C486 C485 1.341 . S
C486 C490 1.394 . S
C486 H502 0.930 . S
C487 C485 1.371 . S
C487 C488 1.392 . S
C487 H503 0.931 . S
C488 C487 1.392 . S
C488 C489 1.331 . S
C488 H506 0.932 . S
C489 C488 1.331 . S
C489 C490 1.336 . S
C490 C486 1.394 . S
C490 C489 1.336 . S
C490 H505 0.929 . S
C491 C481 1.386 . S
C491 C484 1.357 . S
C491 H504 0.928 . S
H492 C468 0.931 . S
H493 C470 0.930 . S
H494 C472 0.929 . S
H495 C473 0.931 . S
H496 C475 0.930 . S
H497 C479 0.931 . S
H498 C477 0.931 . S
H499 C481 0.931 . S
H500 C482 0.929 . S
H501 C483 0.930 . S
H502 C486 0.930 . S
H503 C487 0.931 . S
H504 C491 0.928 . S
H505 C490 0.929 . S
H506 C488 0.932 . S
C507 C508 1.386 . S
C507 C509 1.397 . S
C507 H531 0.931 . S
C508 C507 1.386 . S
C508 C512 1.397 . S
C509 C507 1.397 . S
C509 C510 1.384 . S
C509 H532 0.930 . S
C510 C509 1.384 . S
C510 C511 1.377 . S
C510 C513 1.481 . S
C511 C510 1.377 . S
C511 C512 1.389 . S
C511 H533 0.929 . S
C512 C508 1.397 . S
C512 C511 1.389 . S
C512 H534 0.931 . S
C513 C510 1.481 . S
C513 C514 1.387 . S
C513 C518 1.390 . S
C514 C513 1.387 . S
C514 C515 1.401 . S
C514 H535 0.930 . S
C515 C514 1.401 . S
C515 C516 1.376 . S
C515 C524 1.511 . S
C516 C515 1.376 . S
C516 C517 1.392 . S
C516 H537 0.931 . S
C517 C516 1.392 . S
C517 C518 1.361 . S
C517 C519 1.500 . S
C518 C513 1.390 . S
C518 C517 1.361 . S
C518 H536 0.931 . S
C519 C517 1.500 . S
C519 C520 1.371 . S
C519 C521 1.365 . S
C520 C519 1.371 . S
C520 C530 1.386 . S
C520 H538 0.931 . S
C521 C519 1.365 . S
C521 C522 1.409 . S
C521 H539 0.929 . S
C522 C521 1.409 . S
C522 C523 1.380 . S
C522 H540 0.930 . S
C523 C522 1.380 . S
C523 C530 1.357 . S
C524 C515 1.511 . S
C524 C525 1.341 . S
C524 C526 1.371 . S
C525 C524 1.341 . S
C525 C529 1.394 . S
C525 H541 0.930 . S
C526 C524 1.371 . S
C526 C527 1.392 . S
C526 H542 0.931 . S
C527 C526 1.392 . S
C527 C528 1.331 . S
C527 H545 0.932 . S
C528 C527 1.331 . S
C528 C529 1.336 . S
C529 C525 1.394 . S
C529 C528 1.336 . S
C529 H544 0.929 . S
C530 C520 1.386 . S
C530 C523 1.357 . S
C530 H543 0.928 . S
H531 C507 0.931 . S
H532 C509 0.930 . S
H533 C511 0.929 . S
H534 C512 0.931 . S
H535 C514 0.930 . S
H536 C518 0.931 . S
H537 C516 0.931 . S
H538 C520 0.931 . S
H539 C521 0.929 . S
H540 C522 0.930 . S
H541 C525 0.930 . S
H542 C526 0.931 . S
H543 C530 0.928 . S
H544 C529 0.929 . S
H545 C527 0.932 . S
C546 C547 1.386 . S
C546 C548 1.397 . S
C546 H570 0.931 . S
C547 C546 1.386 . S
C547 C551 1.397 . S
C548 C546 1.397 . S
C548 C549 1.384 . S
C548 H571 0.930 . S
C549 C548 1.384 . S
C549 C550 1.377 . S
C549 C552 1.481 . S
C550 C549 1.377 . S
C550 C551 1.389 . S
C550 H572 0.929 . S
C551 C547 1.397 . S
C551 C550 1.389 . S
C551 H573 0.931 . S
C552 C549 1.481 . S
C552 C553 1.387 . S
C552 C557 1.390 . S
C553 C552 1.387 . S
C553 C554 1.401 . S
C553 H574 0.930 . S
C554 C553 1.401 . S
C554 C555 1.376 . S
C554 C563 1.511 . S
C555 C554 1.376 . S
C555 C556 1.392 . S
C555 H576 0.931 . S
C556 C555 1.392 . S
C556 C557 1.361 . S
C556 C558 1.500 . S
C557 C552 1.390 . S
C557 C556 1.361 . S
C557 H575 0.931 . S
C558 C556 1.500 . S
C558 C559 1.371 . S
C558 C560 1.365 . S
C559 C558 1.371 . S
C559 C569 1.386 . S
C559 H577 0.931 . S
C560 C558 1.365 . S
C560 C561 1.409 . S
C560 H578 0.929 . S
C561 C560 1.409 . S
C561 C562 1.380 . S
C561 H579 0.930 . S
C562 C561 1.380 . S
C562 C569 1.357 . S
C563 C554 1.511 . S
C563 C564 1.341 . S
C563 C565 1.371 . S
C564 C563 1.341 . S
C564 C568 1.394 . S
C564 H580 0.930 . S
C565 C563 1.371 . S
C565 C566 1.392 . S
C565 H581 0.931 . S
C566 C565 1.392 . S
C566 C567 1.331 . S
C566 H584 0.932 . S
C567 C566 1.331 . S
C567 C568 1.336 . S
C568 C564 1.394 . S
C568 C567 1.336 . S
C568 H583 0.929 . S
C569 C559 1.386 . S
C569 C562 1.357 . S
C569 H582 0.928 . S
H570 C546 0.931 . S
H571 C548 0.930 . S
H572 C550 0.929 . S
H573 C551 0.931 . S
H574 C553 0.930 . S
H575 C557 0.931 . S
H576 C555 0.931 . S
H577 C559 0.931 . S
H578 C560 0.929 . S
H579 C561 0.930 . S
H580 C564 0.930 . S
H581 C565 0.931 . S
H582 C569 0.928 . S
H583 C568 0.929 . S
H584 C566 0.932 . S
C585 C586 1.386 . S
C585 C587 1.397 . S
C585 H609 0.931 . S
C586 C585 1.386 . S
C586 C590 1.397 . S
C587 C585 1.397 . S
C587 C588 1.384 . S
C587 H610 0.930 . S
C588 C587 1.384 . S
C588 C589 1.377 . S
C588 C591 1.481 . S
C589 C588 1.377 . S
C589 C590 1.389 . S
C589 H611 0.929 . S
C590 C586 1.397 . S
C590 C589 1.389 . S
C590 H612 0.931 . S
C591 C588 1.481 . S
C591 C592 1.387 . S
C591 C596 1.390 . S
C592 C591 1.387 . S
C592 C593 1.401 . S
C592 H613 0.930 . S
C593 C592 1.401 . S
C593 C594 1.376 . S
C593 C602 1.511 . S
C594 C593 1.376 . S
C594 C595 1.392 . S
C594 H615 0.931 . S
C595 C594 1.392 . S
C595 C596 1.361 . S
C595 C597 1.500 . S
C596 C591 1.390 . S
C596 C595 1.361 . S
C596 H614 0.931 . S
C597 C595 1.500 . S
C597 C598 1.371 . S
C597 C599 1.365 . S
C598 C597 1.371 . S
C598 C608 1.386 . S
C598 H616 0.931 . S
C599 C597 1.365 . S
C599 C600 1.409 . S
C599 H617 0.929 . S
C600 C599 1.409 . S
C600 C601 1.380 . S
C600 H618 0.930 . S
C601 C600 1.380 . S
C601 C608 1.357 . S
C602 C593 1.511 . S
C602 C603 1.341 . S
C602 C604 1.371 . S
C603 C602 1.341 . S
C603 C607 1.394 . S
C603 H619 0.930 . S
C604 C602 1.371 . S
C604 C605 1.392 . S
C604 H620 0.931 . S
C605 C604 1.392 . S
C605 C606 1.331 . S
C605 H623 0.932 . S
C606 C605 1.331 . S
C606 C607 1.336 . S
C607 C603 1.394 . S
C607 C606 1.336 . S
C607 H622 0.929 . S
C608 C598 1.386 . S
C608 C601 1.357 . S
C608 H621 0.928 . S
H609 C585 0.931 . S
H610 C587 0.930 . S
H611 C589 0.929 . S
H612 C590 0.931 . S
H613 C592 0.930 . S
H614 C596 0.931 . S
H615 C594 0.931 . S
H616 C598 0.931 . S
H617 C599 0.929 . S
H618 C600 0.930 . S
H619 C603 0.930 . S
H620 C604 0.931 . S
H621 C608 0.928 . S
H622 C607 0.929 . S
H623 C605 0.932 . S
C624 C625 1.386 1_655 S
C624 C626 1.397 1_655 S
C624 H648 0.931 . S
C625 C624 1.386 1_455 S
C625 C629 1.397 . S
C626 C624 1.397 1_455 S
C626 C627 1.384 . S
C626 H649 0.930 1_455 S
C627 C626 1.384 . S
C627 C628 1.377 . S
C627 C630 1.481 . S
C628 C627 1.377 . S
C628 C629 1.389 . S
C628 H650 0.929 . S
C629 C625 1.397 . S
C629 C628 1.389 . S
C629 H651 0.931 . S
C630 C627 1.481 . S
C630 C631 1.387 . S
C630 C635 1.390 . S
C631 C630 1.387 . S
C631 C632 1.401 . S
C631 H652 0.930 . S
C632 C631 1.401 . S
C632 C633 1.376 . S
C632 C641 1.511 . S
C633 C632 1.376 . S
C633 C634 1.392 . S
C633 H654 0.931 . S
C634 C633 1.392 . S
C634 C635 1.361 . S
C634 C636 1.500 . S
C635 C630 1.390 . S
C635 C634 1.361 . S
C635 H653 0.931 . S
C636 C634 1.500 . S
C636 C637 1.371 . S
C636 C638 1.365 . S
C637 C636 1.371 . S
C637 C647 1.386 . S
C637 H655 0.931 . S
C638 C636 1.365 . S
C638 C639 1.409 . S
C638 H656 0.929 . S
C639 C638 1.409 . S
C639 C640 1.380 . S
C639 H657 0.930 . S
C640 C639 1.380 . S
C640 C647 1.357 . S
C641 C632 1.511 . S
C641 C642 1.341 . S
C641 C643 1.371 . S
C642 C641 1.341 . S
C642 C646 1.394 . S
C642 H658 0.930 . S
C643 C641 1.371 . S
C643 C644 1.392 . S
C643 H659 0.931 . S
C644 C643 1.392 . S
C644 C645 1.331 . S
C644 H662 0.932 . S
C645 C644 1.331 . S
C645 C646 1.336 . S
C646 C642 1.394 . S
C646 C645 1.336 . S
C646 H661 0.929 . S
C647 C637 1.386 . S
C647 C640 1.357 . S
C647 H660 0.928 . S
H648 C624 0.931 . S
H649 C626 0.930 1_655 S
H650 C628 0.929 . S
H651 C629 0.931 . S
H652 C631 0.930 . S
H653 C635 0.931 . S
H654 C633 0.931 . S
H655 C637 0.931 . S
H656 C638 0.929 . S
H657 C639 0.930 . S
H658 C642 0.930 . S
H659 C643 0.931 . S
H660 C647 0.928 . S
H661 C646 0.929 . S
H662 C644 0.932 . S
C663 C664 1.386 . S
C663 C665 1.397 . S
C663 H687 0.931 . S
C664 C663 1.386 . S
C664 C668 1.397 . S
C665 C663 1.397 . S
C665 C666 1.384 . S
C665 H688 0.930 . S
C666 C665 1.384 . S
C666 C667 1.377 . S
C666 C669 1.481 . S
C667 C666 1.377 . S
C667 C668 1.389 . S
C667 H689 0.929 . S
C668 C664 1.397 . S
C668 C667 1.389 . S
C668 H690 0.931 . S
C669 C666 1.481 . S
C669 C670 1.387 . S
C669 C674 1.390 . S
C670 C669 1.387 . S
C670 C671 1.401 . S
C670 H691 0.930 . S
C671 C670 1.401 . S
C671 C672 1.376 . S
C671 C680 1.511 . S
C672 C671 1.376 . S
C672 C673 1.392 . S
C672 H693 0.931 . S
C673 C672 1.392 . S
C673 C674 1.361 . S
C673 C675 1.500 . S
C674 C669 1.390 . S
C674 C673 1.361 . S
C674 H692 0.931 . S
C675 C673 1.500 . S
C675 C676 1.371 . S
C675 C677 1.365 . S
C676 C675 1.371 . S
C676 C686 1.386 . S
C676 H694 0.931 . S
C677 C675 1.365 . S
C677 C678 1.409 . S
C677 H695 0.929 . S
C678 C677 1.409 . S
C678 C679 1.380 . S
C678 H696 0.930 . S
C679 C678 1.380 . S
C679 C686 1.357 . S
C680 C671 1.511 . S
C680 C681 1.341 . S
C680 C682 1.371 . S
C681 C680 1.341 . S
C681 C685 1.394 . S
C681 H697 0.930 . S
C682 C680 1.371 . S
C682 C683 1.392 . S
C682 H698 0.931 . S
C683 C682 1.392 . S
C683 C684 1.331 . S
C683 H701 0.932 . S
C684 C683 1.331 . S
C684 C685 1.336 . S
C685 C681 1.394 . S
C685 C684 1.336 . S
C685 H700 0.929 . S
C686 C676 1.386 . S
C686 C679 1.357 . S
C686 H699 0.928 . S
H687 C663 0.931 . S
H688 C665 0.930 . S
H689 C667 0.929 . S
H690 C668 0.931 . S
H691 C670 0.930 . S
H692 C674 0.931 . S
H693 C672 0.931 . S
H694 C676 0.931 . S
H695 C677 0.929 . S
H696 C678 0.930 . S
H697 C681 0.930 . S
H698 C682 0.931 . S
H699 C686 0.928 . S
H700 C685 0.929 . S
H701 C683 0.932 . S
Tb702 C712 2.825 . S
Tb702 O713 2.347 1_565 S
Tb702 O716 2.366 1_565 S
Tb702 O721 2.418 . S
Tb702 O722 2.357 1_556 S
Tb702 O725 2.479 . S
Tb702 O726 2.446 1_565 S
Eu703 O714 2.418 . S
Eu703 O715 2.384 . S
Eu703 O718 2.479 . S
Eu703 O719 2.461 1_545 S
Eu703 O720 2.347 1_545 S
Eu703 O723 2.366 1_545 S
Eu703 C733 2.825 . S
C704 O720 1.259 . S
C704 O721 1.265 1_554 S
C705 O722 1.288 . S
C705 O723 1.265 . S
C706 C708 1.380 . S
C706 C709 1.374 1_565 S
C706 C712 1.507 . S
C707 C708 1.384 . S
C707 C711 1.387 1_565 S
C707 H734 0.930 . S
C708 C706 1.380 . S
C708 C707 1.384 . S
C708 H735 0.931 . S
C709 C706 1.374 1_545 S
C709 C710 1.390 . S
C709 H736 0.930 . S
C710 C709 1.390 . S
C710 C711 1.391 . S
C710 H737 0.930 . S
C711 C707 1.387 1_545 S
C711 C710 1.391 . S
C712 Tb702 2.825 . S
C712 C706 1.507 . S
C712 O725 1.238 . S
C712 O726 1.209 1_565 S
O713 Tb702 2.347 1_545 S
O713 C717 1.256 . S
O714 Eu703 2.418 . S
O714 C717 1.273 1_554 S
O715 Eu703 2.384 . S
O715 C724 1.255 1_554 S
O716 Tb702 2.366 1_545 S
O716 C724 1.265 . S
C717 O713 1.256 . S
C717 O714 1.273 1_556 S
O718 Eu703 2.479 . S
O718 C733 1.238 . S
O719 Eu703 2.461 1_565 S
O719 C733 1.231 1_565 S
O720 Eu703 2.347 1_565 S
O720 C704 1.259 . S
O721 Tb702 2.418 . S
O721 C704 1.265 1_556 S
O722 Tb702 2.357 1_554 S
O722 C705 1.288 . S
O723 Eu703 2.366 1_565 S
O723 C705 1.265 . S
C724 O715 1.255 1_556 S
C724 O716 1.265 . S
O725 Tb702 2.479 . S
O725 C712 1.238 . S
O726 Tb702 2.446 1_545 S
O726 C712 1.209 1_545 S
C727 C730 1.380 . S
C727 C731 1.374 1_545 S
C727 C733 1.507 . S
C728 C729 1.387 1_565 S
C728 C732 1.391 . S
C729 C728 1.387 1_545 S
C729 C730 1.384 . S
C729 H738 0.930 . S
C730 C727 1.380 . S
C730 C729 1.384 . S
C730 H739 0.931 . S
C731 C727 1.374 1_565 S
C731 C732 1.390 . S
C731 H740 0.930 . S
C732 C728 1.391 . S
C732 C731 1.390 . S
C732 H741 0.930 . S
C733 Eu703 2.825 . S
C733 O718 1.238 . S
C733 O719 1.231 1_545 S
C733 C727 1.507 . S
H734 C707 0.930 . S
H735 C708 0.931 . S
H736 C709 0.930 . S
H737 C710 0.930 . S
H738 C729 0.930 . S
H739 C730 0.931 . S
H740 C731 0.930 . S
H741 C732 0.930 . S
Tb742 C752 2.825 . S
Tb742 O753 2.347 1_455 S
Tb742 O756 2.366 1_455 S
Tb742 O761 2.418 . S
Tb742 O762 2.384 1_556 S
Tb742 O765 2.479 . S
Tb742 O766 2.471 1_455 S
Eu743 O754 2.418 . S
Eu743 O755 2.384 . S
Eu743 O758 2.479 . S
Eu743 O759 2.471 1_655 S
Eu743 O760 2.347 1_655 S
Eu743 O763 2.366 1_655 S
Eu743 C773 2.825 . S
C744 O760 1.259 . S
C744 O761 1.265 1_554 S
C745 O762 1.255 . S
C745 O763 1.265 . S
C746 C748 1.380 . S
C746 C749 1.374 1_455 S
C746 C752 1.507 . S
C747 C748 1.384 . S
C747 C751 1.387 1_455 S
C747 H774 0.930 . S
C748 C746 1.380 . S
C748 C747 1.384 . S
C748 H775 0.931 . S
C749 C746 1.374 1_655 S
C749 C750 1.390 . S
C749 H776 0.930 . S
C750 C749 1.390 . S
C750 C751 1.391 . S
C750 H777 0.930 . S
C751 C747 1.387 1_655 S
C751 C750 1.391 . S
C752 Tb742 2.825 . S
C752 C746 1.507 . S
C752 O765 1.238 . S
C752 O766 1.247 1_455 S
O753 Tb742 2.347 1_655 S
O753 C757 1.259 . S
O754 Eu743 2.418 . S
O754 C757 1.265 1_554 S
O755 Eu743 2.384 . S
O755 C764 1.255 1_554 S
O756 Tb742 2.366 1_655 S
O756 C764 1.265 . S
C757 O753 1.259 . S
C757 O754 1.265 1_556 S
O758 Eu743 2.479 . S
O758 C773 1.238 . S
O759 Eu743 2.471 1_455 S
O759 C773 1.247 1_455 S
O760 Eu743 2.347 1_455 S
O760 C744 1.259 . S
O761 Tb742 2.418 . S
O761 C744 1.265 1_556 S
O762 Tb742 2.384 1_554 S
O762 C745 1.255 . S
O763 Eu743 2.366 1_455 S
O763 C745 1.265 . S
C764 O755 1.255 1_556 S
C764 O756 1.265 . S
O765 Tb742 2.479 . S
O765 C752 1.238 . S
O766 Tb742 2.471 1_655 S
O766 C752 1.247 1_655 S
C767 C770 1.380 . S
C767 C771 1.374 1_655 S
C767 C773 1.507 . S
C768 C769 1.387 1_455 S
C768 C772 1.391 . S
C769 C768 1.387 1_655 S
C769 C770 1.384 . S
C769 H778 0.930 . S
C770 C767 1.380 . S
C770 C769 1.384 . S
C770 H779 0.931 . S
C771 C767 1.374 1_455 S
C771 C772 1.390 . S
C771 H780 0.930 . S
C772 C768 1.391 . S
C772 C771 1.390 . S
C772 H781 0.930 . S
C773 Eu743 2.825 . S
C773 O758 1.238 . S
C773 O759 1.247 1_655 S
C773 C767 1.507 . S
H774 C747 0.930 . S
H775 C748 0.931 . S
H776 C749 0.930 . S
H777 C750 0.930 . S
H778 C769 0.930 . S
H779 C770 0.931 . S
H780 C771 0.930 . S
H781 C772 0.930 . S
Tb782 C792 2.825 . S
Tb782 O793 2.347 . S
Tb782 O796 2.366 . S
Tb782 O801 2.418 . S
Tb782 O802 2.384 . S
Tb782 O805 2.479 . S
Tb782 O806 2.471 . S
Eu783 O794 2.418 . S
Eu783 O795 2.384 1_556 S
Eu783 O798 2.479 . S
Eu783 O799 2.471 . S
Eu783 O800 2.347 . S
Eu783 O803 2.366 . S
Eu783 C813 2.825 . S
C784 O800 1.259 . S
C784 O801 1.265 1_556 S
C785 O802 1.255 1_556 S
C785 O803 1.265 . S
C786 C788 1.380 . S
C786 C789 1.374 . S
C786 C792 1.507 . S
C787 C788 1.384 . S
C787 C791 1.387 . S
C787 H814 0.930 . S
C788 C786 1.380 . S
C788 C787 1.384 . S
C788 H815 0.931 . S
C789 C786 1.374 . S
C789 C790 1.390 . S
C789 H816 0.930 . S
C790 C789 1.390 . S
C790 C791 1.391 . S
C790 H817 0.930 . S
C791 C787 1.387 . S
C791 C790 1.391 . S
C792 Tb782 2.825 . S
C792 C786 1.507 . S
C792 O805 1.238 . S
C792 O806 1.247 . S
O793 Tb782 2.347 . S
O793 C797 1.259 . S
O794 Eu783 2.418 . S
O794 C797 1.265 1_556 S
O795 Eu783 2.384 1_554 S
O795 C804 1.255 . S
O796 Tb782 2.366 . S
O796 C804 1.265 . S
C797 O793 1.259 . S
C797 O794 1.265 1_554 S
O798 Eu783 2.479 . S
O798 C813 1.238 . S
O799 Eu783 2.471 . S
O799 C813 1.247 . S
O800 Eu783 2.347 . S
O800 C784 1.259 . S
O801 Tb782 2.418 . S
O801 C784 1.265 1_554 S
O802 Tb782 2.384 . S
O802 C785 1.255 1_554 S
O803 Eu783 2.366 . S
O803 C785 1.265 . S
C804 O795 1.255 . S
C804 O796 1.265 . S
O805 Tb782 2.479 . S
O805 C792 1.238 . S
O806 Tb782 2.471 . S
O806 C792 1.247 . S
C807 C810 1.380 . S
C807 C811 1.374 . S
C807 C813 1.507 . S
C808 C809 1.387 . S
C808 C812 1.391 . S
C809 C808 1.387 . S
C809 C810 1.384 . S
C809 H818 0.930 . S
C810 C807 1.380 . S
C810 C809 1.384 . S
C810 H819 0.931 . S
C811 C807 1.374 . S
C811 C812 1.390 . S
C811 H820 0.930 . S
C812 C808 1.391 . S
C812 C811 1.390 . S
C812 H821 0.930 . S
C813 Eu783 2.825 . S
C813 O798 1.238 . S
C813 O799 1.247 . S
C813 C807 1.507 . S
H814 C787 0.930 . S
H815 C788 0.931 . S
H816 C789 0.930 . S
H817 C790 0.930 . S
H818 C809 0.930 . S
H819 C810 0.931 . S
H820 C811 0.930 . S
H821 C812 0.930 . S
Tb822 C832 2.825 . S
Tb822 O833 2.347 . S
Tb822 O836 2.366 . S
Tb822 O841 2.418 . S
Tb822 O842 2.384 . S
Tb822 O845 2.479 . S
Tb822 O846 2.471 . S
Eu823 O834 2.418 . S
Eu823 O835 2.384 . S
Eu823 O838 2.479 . S
Eu823 O839 2.471 . S
Eu823 O840 2.347 . S
Eu823 O843 2.366 . S
Eu823 C853 2.825 . S
C824 O840 1.259 . S
C824 O841 1.265 . S
C825 O842 1.255 . S
C825 O843 1.265 . S
C826 C828 1.380 . S
C826 C829 1.374 . S
C826 C832 1.507 . S
C827 C828 1.384 . S
C827 C831 1.387 . S
C827 H854 0.930 . S
C828 C826 1.380 . S
C828 C827 1.384 . S
C828 H855 0.931 . S
C829 C826 1.374 . S
C829 C830 1.390 . S
C829 H856 0.930 . S
C830 C829 1.390 . S
C830 C831 1.391 . S
C830 H857 0.930 . S
C831 C827 1.387 . S
C831 C830 1.391 . S
C832 Tb822 2.825 . S
C832 C826 1.507 . S
C832 O845 1.238 . S
C832 O846 1.247 . S
O833 Tb822 2.347 . S
O833 C837 1.259 . S
O834 Eu823 2.418 . S
O834 C837 1.265 . S
O835 Eu823 2.384 . S
O835 C844 1.255 . S
O836 Tb822 2.366 . S
O836 C844 1.265 . S
C837 O833 1.259 . S
C837 O834 1.265 . S
O838 Eu823 2.479 . S
O838 C853 1.238 . S
O839 Eu823 2.471 . S
O839 C853 1.247 . S
O840 Eu823 2.347 . S
O840 C824 1.259 . S
O841 Tb822 2.418 . S
O841 C824 1.265 . S
O842 Tb822 2.384 . S
O842 C825 1.255 . S
O843 Eu823 2.366 . S
O843 C825 1.265 . S
C844 O835 1.255 . S
C844 O836 1.265 . S
O845 Tb822 2.479 . S
O845 C832 1.238 . S
O846 Tb822 2.471 . S
O846 C832 1.247 . S
C847 C850 1.380 . S
C847 C851 1.374 . S
C847 C853 1.507 . S
C848 C849 1.387 . S
C848 C852 1.391 . S
C849 C848 1.387 . S
C849 C850 1.384 . S
C849 H858 0.930 . S
C850 C847 1.380 . S
C850 C849 1.384 . S
C850 H859 0.931 . S
C851 C847 1.374 . S
C851 C852 1.390 . S
C851 H860 0.930 . S
C852 C848 1.391 . S
C852 C851 1.390 . S
C852 H861 0.930 . S
C853 Eu823 2.825 . S
C853 O838 1.238 . S
C853 O839 1.247 . S
C853 C847 1.507 . S
H854 C827 0.930 . S
H855 C828 0.931 . S
H856 C829 0.930 . S
H857 C830 0.930 . S
H858 C849 0.930 . S
H859 C850 0.931 . S
H860 C851 0.930 . S
H861 C852 0.930 . S
Tb862 C872 2.825 . S
Tb862 O873 2.347 . S
Tb862 O876 2.366 . S
Tb862 O881 2.418 . S
Tb862 O882 2.384 . S
Tb862 O885 2.479 . S
Tb862 O886 2.471 . S
Eu863 O874 2.418 . S
Eu863 O875 2.384 . S
Eu863 O878 2.479 . S
Eu863 O879 2.471 . S
Eu863 O880 2.347 . S
Eu863 O883 2.366 . S
Eu863 C893 2.825 . S
C864 O880 1.259 . S
C864 O881 1.265 . S
C865 O882 1.255 . S
C865 O883 1.265 . S
C866 C868 1.380 . S
C866 C869 1.374 . S
C866 C872 1.507 . S
C867 C868 1.384 . S
C867 C871 1.387 . S
C867 H894 0.930 . S
C868 C866 1.380 . S
C868 C867 1.384 . S
C868 H895 0.931 . S
C869 C866 1.374 . S
C869 C870 1.390 . S
C869 H896 0.930 . S
C870 C869 1.390 . S
C870 C871 1.391 . S
C870 H897 0.930 . S
C871 C867 1.387 . S
C871 C870 1.391 . S
C872 Tb862 2.825 . S
C872 C866 1.507 . S
C872 O885 1.238 . S
C872 O886 1.247 . S
O873 Tb862 2.347 . S
O873 C877 1.259 . S
O874 Eu863 2.418 . S
O874 C877 1.265 . S
O875 Eu863 2.384 . S
O875 C884 1.255 . S
O876 Tb862 2.366 . S
O876 C884 1.265 . S
C877 O873 1.259 . S
C877 O874 1.265 . S
O878 Eu863 2.479 . S
O878 C893 1.238 . S
O879 Eu863 2.471 . S
O879 C893 1.247 . S
O880 Eu863 2.347 . S
O880 C864 1.259 . S
O881 Tb862 2.418 . S
O881 C864 1.265 . S
O882 Tb862 2.384 . S
O882 C865 1.255 . S
O883 Eu863 2.366 . S
O883 C865 1.265 . S
C884 O875 1.255 . S
C884 O876 1.265 . S
O885 Tb862 2.479 . S
O885 C872 1.238 . S
O886 Tb862 2.471 . S
O886 C872 1.247 . S
C887 C890 1.380 . S
C887 C891 1.374 . S
C887 C893 1.507 . S
C888 C889 1.387 . S
C888 C892 1.391 . S
C889 C888 1.387 . S
C889 C890 1.384 . S
C889 H898 0.930 . S
C890 C887 1.380 . S
C890 C889 1.384 . S
C890 H899 0.931 . S
C891 C887 1.374 . S
C891 C892 1.390 . S
C891 H900 0.930 . S
C892 C888 1.391 . S
C892 C891 1.390 . S
C892 H901 0.930 . S
C893 Eu863 2.825 . S
C893 O878 1.238 . S
C893 O879 1.247 . S
C893 C887 1.507 . S
H894 C867 0.930 . S
H895 C868 0.931 . S
H896 C869 0.930 . S
H897 C870 0.930 . S
H898 C889 0.930 . S
H899 C890 0.931 . S
H900 C891 0.930 . S
H901 C892 0.930 . S
Tb902 C912 2.825 . S
Tb902 O913 2.347 . S
Tb902 O916 2.366 . S
Tb902 O921 2.418 . S
Tb902 O922 2.384 . S
Tb902 O925 2.479 . S
Tb902 O926 2.471 . S
Eu903 O914 2.418 . S
Eu903 O915 2.384 . S
Eu903 O918 2.479 . S
Eu903 O919 2.471 . S
Eu903 O920 2.347 . S
Eu903 O923 2.366 . S
Eu903 C933 2.825 . S
C904 O920 1.259 . S
C904 O921 1.265 . S
C905 O922 1.255 . S
C905 O923 1.265 . S
C906 C908 1.380 . S
C906 C909 1.374 . S
C906 C912 1.507 . S
C907 C908 1.384 . S
C907 C911 1.387 . S
C907 H934 0.930 . S
C908 C906 1.380 . S
C908 C907 1.384 . S
C908 H935 0.931 . S
C909 C906 1.374 . S
C909 C910 1.390 . S
C909 H936 0.930 . S
C910 C909 1.390 . S
C910 C911 1.391 . S
C910 H937 0.930 . S
C911 C907 1.387 . S
C911 C910 1.391 . S
C912 Tb902 2.825 . S
C912 C906 1.507 . S
C912 O925 1.238 . S
C912 O926 1.247 . S
O913 Tb902 2.347 . S
O913 C917 1.259 . S
O914 Eu903 2.418 . S
O914 C917 1.265 . S
O915 Eu903 2.384 . S
O915 C924 1.255 . S
O916 Tb902 2.366 . S
O916 C924 1.265 . S
C917 O913 1.259 . S
C917 O914 1.265 . S
O918 Eu903 2.479 . S
O918 C933 1.238 . S
O919 Eu903 2.471 . S
O919 C933 1.247 . S
O920 Eu903 2.347 . S
O920 C904 1.259 . S
O921 Tb902 2.418 . S
O921 C904 1.265 . S
O922 Tb902 2.384 . S
O922 C905 1.255 . S
O923 Eu903 2.366 . S
O923 C905 1.265 . S
C924 O915 1.255 . S
C924 O916 1.265 . S
O925 Tb902 2.479 . S
O925 C912 1.238 . S
O926 Tb902 2.471 . S
O926 C912 1.247 . S
C927 C930 1.380 . S
C927 C931 1.374 . S
C927 C933 1.507 . S
C928 C929 1.387 . S
C928 C932 1.391 . S
C929 C928 1.387 . S
C929 C930 1.384 . S
C929 H938 0.930 . S
C930 C927 1.380 . S
C930 C929 1.384 . S
C930 H939 0.931 . S
C931 C927 1.374 . S
C931 C932 1.390 . S
C931 H940 0.930 . S
C932 C928 1.391 . S
C932 C931 1.390 . S
C932 H941 0.930 . S
C933 Eu903 2.825 . S
C933 O918 1.238 . S
C933 O919 1.247 . S
C933 C927 1.507 . S
H934 C907 0.930 . S
H935 C908 0.931 . S
H936 C909 0.930 . S
H937 C910 0.930 . S
H938 C929 0.930 . S
H939 C930 0.931 . S
H940 C931 0.930 . S
H941 C932 0.930 . S
Tb942 C952 2.825 . S
Tb942 O953 2.347 . S
Tb942 O956 2.366 . S
Tb942 O961 2.418 . S
Tb942 O962 2.384 . S
Tb942 O965 2.479 . S
Tb942 O966 2.471 . S
Eu943 O954 2.418 . S
Eu943 O955 2.384 . S
Eu943 O958 2.479 . S
Eu943 O959 2.471 . S
Eu943 O960 2.347 . S
Eu943 O963 2.366 . S
Eu943 C973 2.825 . S
C944 O960 1.259 . S
C944 O961 1.265 . S
C945 O962 1.255 . S
C945 O963 1.265 . S
C946 C948 1.380 . S
C946 C949 1.374 . S
C946 C952 1.507 . S
C947 C948 1.384 . S
C947 C951 1.387 . S
C947 H974 0.930 . S
C948 C946 1.380 . S
C948 C947 1.384 . S
C948 H975 0.931 . S
C949 C946 1.374 . S
C949 C950 1.390 . S
C949 H976 0.930 . S
C950 C949 1.390 . S
C950 C951 1.391 . S
C950 H977 0.930 . S
C951 C947 1.387 . S
C951 C950 1.391 . S
C952 Tb942 2.825 . S
C952 C946 1.507 . S
C952 O965 1.238 . S
C952 O966 1.247 . S
O953 Tb942 2.347 . S
O953 C957 1.259 . S
O954 Eu943 2.418 . S
O954 C957 1.265 . S
O955 Eu943 2.384 . S
O955 C964 1.255 . S
O956 Tb942 2.366 . S
O956 C964 1.265 . S
C957 O953 1.259 . S
C957 O954 1.265 . S
O958 Eu943 2.479 . S
O958 C973 1.238 . S
O959 Eu943 2.471 . S
O959 C973 1.247 . S
O960 Eu943 2.347 . S
O960 C944 1.259 . S
O961 Tb942 2.418 . S
O961 C944 1.265 . S
O962 Tb942 2.384 . S
O962 C945 1.255 . S
O963 Eu943 2.366 . S
O963 C945 1.265 . S
C964 O955 1.255 . S
C964 O956 1.265 . S
O965 Tb942 2.479 . S
O965 C952 1.238 . S
O966 Tb942 2.471 . S
O966 C952 1.247 . S
C967 C970 1.380 . S
C967 C971 1.374 . S
C967 C973 1.507 . S
C968 C969 1.387 . S
C968 C972 1.391 . S
C969 C968 1.387 . S
C969 C970 1.384 . S
C969 H978 0.930 . S
C970 C967 1.380 . S
C970 C969 1.384 . S
C970 H979 0.931 . S
C971 C967 1.374 . S
C971 C972 1.390 . S
C971 H980 0.930 . S
C972 C968 1.391 . S
C972 C971 1.390 . S
C972 H981 0.930 . S
C973 Eu943 2.825 . S
C973 O958 1.238 . S
C973 O959 1.247 . S
C973 C967 1.507 . S
H974 C947 0.930 . S
H975 C948 0.931 . S
H976 C949 0.930 . S
H977 C950 0.930 . S
H978 C969 0.930 . S
H979 C970 0.931 . S
H980 C971 0.930 . S
H981 C972 0.930 . S
Tb982 C992 2.825 . S
Tb982 O993 2.347 . S
Tb982 O996 2.366 . S
Tb982 O1001 2.418 . S
Tb982 O1002 2.384 . S
Tb982 O1005 2.479 . S
Tb982 O1006 2.471 . S
Eu983 O994 2.418 . S
Eu983 O995 2.384 . S
Eu983 O998 2.479 . S
Eu983 O999 2.471 . S
Eu983 O1000 2.347 . S
Eu983 O1003 2.366 . S
Eu983 C1013 2.825 . S
C984 O1000 1.259 . S
C984 O1001 1.265 . S
C985 O1002 1.255 . S
C985 O1003 1.265 . S
C986 C988 1.380 . S
C986 C989 1.374 . S
C986 C992 1.507 . S
C987 C988 1.384 . S
C987 C991 1.387 . S
C987 H1014 0.930 . S
C988 C986 1.380 . S
C988 C987 1.384 . S
C988 H1015 0.931 . S
C989 C986 1.374 . S
C989 C990 1.390 . S
C989 H1016 0.930 . S
C990 C989 1.390 . S
C990 C991 1.391 . S
C990 H1017 0.930 . S
C991 C987 1.387 . S
C991 C990 1.391 . S
C992 Tb982 2.825 . S
C992 C986 1.507 . S
C992 O1005 1.238 . S
C992 O1006 1.247 . S
O993 Tb982 2.347 . S
O993 C997 1.259 . S
O994 Eu983 2.418 . S
O994 C997 1.265 . S
O995 Eu983 2.384 . S
O995 C1004 1.255 . S
O996 Tb982 2.366 . S
O996 C1004 1.265 . S
C997 O993 1.259 . S
C997 O994 1.265 . S
O998 Eu983 2.479 . S
O998 C1013 1.238 . S
O999 Eu983 2.471 . S
O999 C1013 1.247 . S
O1000 Eu983 2.347 . S
O1000 C984 1.259 . S
O1001 Tb982 2.418 . S
O1001 C984 1.265 . S
O1002 Tb982 2.384 . S
O1002 C985 1.255 . S
O1003 Eu983 2.366 . S
O1003 C985 1.265 . S
C1004 O995 1.255 . S
C1004 O996 1.265 . S
O1005 Tb982 2.479 . S
O1005 C992 1.238 . S
O1006 Tb982 2.471 . S
O1006 C992 1.247 . S
C1007 C1010 1.380 . S
C1007 C1011 1.374 . S
C1007 C1013 1.507 . S
C1008 C1009 1.387 . S
C1008 C1012 1.391 . S
C1009 C1008 1.387 . S
C1009 C1010 1.384 . S
C1009 H1018 0.930 . S
C1010 C1007 1.380 . S
C1010 C1009 1.384 . S
C1010 H1019 0.931 . S
C1011 C1007 1.374 . S
C1011 C1012 1.390 . S
C1011 H1020 0.930 . S
C1012 C1008 1.391 . S
C1012 C1011 1.390 . S
C1012 H1021 0.930 . S
C1013 Eu983 2.825 . S
C1013 O998 1.238 . S
C1013 O999 1.247 . S
C1013 C1007 1.507 . S
H1014 C987 0.930 . S
H1015 C988 0.931 . S
H1016 C989 0.930 . S
H1017 C990 0.930 . S
H1018 C1009 0.930 . S
H1019 C1010 0.931 . S
H1020 C1011 0.930 . S
H1021 C1012 0.930 . S
Tb1022 C1032 2.825 . S
Tb1022 O1033 2.347 . S
Tb1022 O1036 2.366 . S
Tb1022 O1041 2.418 . S
Tb1022 O1042 2.384 . S
Tb1022 O1045 2.479 . S
Tb1022 O1046 2.471 . S
Eu1023 O1034 2.418 . S
Eu1023 O1035 2.384 . S
Eu1023 O1038 2.479 . S
Eu1023 O1039 2.471 . S
Eu1023 O1040 2.347 . S
Eu1023 O1043 2.366 . S
Eu1023 C1053 2.825 . S
C1024 O1040 1.259 . S
C1024 O1041 1.265 . S
C1025 O1042 1.255 . S
C1025 O1043 1.265 . S
C1026 C1028 1.380 . S
C1026 C1029 1.374 . S
C1026 C1032 1.507 . S
C1027 C1028 1.384 . S
C1027 C1031 1.387 . S
C1027 H1054 0.930 . S
C1028 C1026 1.380 . S
C1028 C1027 1.384 . S
C1028 H1055 0.931 . S
C1029 C1026 1.374 . S
C1029 C1030 1.390 . S
C1029 H1056 0.930 . S
C1030 C1029 1.390 . S
C1030 C1031 1.391 . S
C1030 H1057 0.930 . S
C1031 C1027 1.387 . S
C1031 C1030 1.391 . S
C1032 Tb1022 2.825 . S
C1032 C1026 1.507 . S
C1032 O1045 1.238 . S
C1032 O1046 1.247 . S
O1033 Tb1022 2.347 . S
O1033 C1037 1.259 . S
O1034 Eu1023 2.418 . S
O1034 C1037 1.265 . S
O1035 Eu1023 2.384 . S
O1035 C1044 1.255 . S
O1036 Tb1022 2.366 . S
O1036 C1044 1.265 . S
C1037 O1033 1.259 . S
C1037 O1034 1.265 . S
O1038 Eu1023 2.479 . S
O1038 C1053 1.238 . S
O1039 Eu1023 2.471 . S
O1039 C1053 1.247 . S
O1040 Eu1023 2.347 . S
O1040 C1024 1.259 . S
O1041 Tb1022 2.418 . S
O1041 C1024 1.265 . S
O1042 Tb1022 2.384 . S
O1042 C1025 1.255 . S
O1043 Eu1023 2.366 . S
O1043 C1025 1.265 . S
C1044 O1035 1.255 . S
C1044 O1036 1.265 . S
O1045 Tb1022 2.479 . S
O1045 C1032 1.238 . S
O1046 Tb1022 2.471 . S
O1046 C1032 1.247 . S
C1047 C1050 1.380 . S
C1047 C1051 1.374 . S
C1047 C1053 1.507 . S
C1048 C1049 1.387 . S
C1048 C1052 1.391 . S
C1049 C1048 1.387 . S
C1049 C1050 1.384 . S
C1049 H1058 0.930 . S
C1050 C1047 1.380 . S
C1050 C1049 1.384 . S
C1050 H1059 0.931 . S
C1051 C1047 1.374 . S
C1051 C1052 1.390 . S
C1051 H1060 0.930 . S
C1052 C1048 1.391 . S
C1052 C1051 1.390 . S
C1052 H1061 0.930 . S
C1053 Eu1023 2.825 . S
C1053 O1038 1.238 . S
C1053 O1039 1.247 . S
C1053 C1047 1.507 . S
H1054 C1027 0.930 . S
H1055 C1028 0.931 . S
H1056 C1029 0.930 . S
H1057 C1030 0.930 . S
H1058 C1049 0.930 . S
H1059 C1050 0.931 . S
H1060 C1051 0.930 . S
H1061 C1052 0.930 . S
H1062 C1074 0.930 . S
H1063 C1076 0.930 . S
H1064 C1077 0.930 . S
H1065 C1081 0.959 . S
H1066 C1081 0.959 . S
H1067 C1081 0.961 . S
H1068 C1082 0.960 . S
H1069 C1082 0.961 . S
H1070 C1082 0.959 . S
H1071 C1085 0.929 . S
H1072 C1086 0.931 . S
H1073 C1088 0.930 . S
C1074 H1062 0.930 . S
C1074 C1075 1.399 . S
C1074 C1079 1.399 . S
C1075 C1074 1.399 . S
C1075 C1076 1.376 . S
C1076 H1063 0.930 . S
C1076 C1075 1.376 . S
C1076 C1077 1.388 . S
C1077 H1064 0.930 . S
C1077 C1076 1.388 . S
C1077 C1078 1.390 . S
C1078 C1077 1.390 . S
C1078 C1079 1.394 . S
C1078 C1084 1.465 . S
C1079 C1074 1.399 . S
C1079 C1078 1.394 . S
C1079 C1080 1.516 . S
C1080 C1079 1.516 . S
C1080 C1081 1.502 . S
C1080 C1082 1.561 . S
C1080 C1083 1.526 . S
C1081 H1065 0.959 . S
C1081 H1066 0.959 . S
C1081 H1067 0.961 . S
C1081 C1080 1.502 . S
C1082 H1068 0.960 . S
C1082 H1069 0.961 . S
C1082 H1070 0.959 . S
C1082 C1080 1.561 . S
C1083 C1080 1.526 . S
C1083 C1084 1.396 . S
C1083 C1088 1.390 . S
C1084 C1078 1.465 . S
C1084 C1083 1.396 . S
C1084 C1085 1.399 . S
C1085 H1071 0.929 . S
C1085 C1084 1.399 . S
C1085 C1086 1.385 . S
C1086 H1072 0.931 . S
C1086 C1085 1.385 . S
C1086 C1087 1.389 . S
C1087 C1086 1.389 . S
C1087 C1088 1.387 . S
C1088 H1073 0.930 . S
C1088 C1083 1.390 . S
C1088 C1087 1.387 . S
H1089 C1101 0.930 . S
H1090 C1103 0.930 . S
H1091 C1104 0.930 . S
H1092 C1108 0.959 . S
H1093 C1108 0.959 . S
H1094 C1108 0.961 . S
H1095 C1109 0.960 . S
H1096 C1109 0.961 . S
H1097 C1109 0.959 . S
H1098 C1112 0.929 . S
H1099 C1113 0.931 . S
H1100 C1115 0.930 . S
C1101 H1089 0.930 . S
C1101 C1102 1.399 . S
C1101 C1106 1.399 . S
C1102 C1101 1.399 . S
C1102 C1103 1.376 . S
C1103 H1090 0.930 . S
C1103 C1102 1.376 . S
C1103 C1104 1.388 . S
C1104 H1091 0.930 . S
C1104 C1103 1.388 . S
C1104 C1105 1.390 . S
C1105 C1104 1.390 . S
C1105 C1106 1.394 . S
C1105 C1111 1.465 . S
C1106 C1101 1.399 . S
C1106 C1105 1.394 . S
C1106 C1107 1.516 . S
C1107 C1106 1.516 . S
C1107 C1108 1.502 . S
C1107 C1109 1.561 . S
C1107 C1110 1.526 . S
C1108 H1092 0.959 . S
C1108 H1093 0.959 . S
C1108 H1094 0.961 . S
C1108 C1107 1.502 . S
C1109 H1095 0.960 . S
C1109 H1096 0.961 . S
C1109 H1097 0.959 . S
C1109 C1107 1.561 . S
C1110 C1107 1.526 . S
C1110 C1111 1.396 . S
C1110 C1115 1.390 . S
C1111 C1105 1.465 . S
C1111 C1110 1.396 . S
C1111 C1112 1.399 . S
C1112 H1098 0.929 . S
C1112 C1111 1.399 . S
C1112 C1113 1.385 . S
C1113 H1099 0.931 . S
C1113 C1112 1.385 . S
C1113 C1114 1.389 . S
C1114 C1113 1.389 . S
C1114 C1115 1.387 . S
C1115 H1100 0.930 . S
C1115 C1110 1.390 . S
C1115 C1114 1.387 . S
H1116 C1128 0.930 . S
H1117 C1130 0.930 . S
H1118 C1131 0.930 1_556 S
H1119 C1135 0.959 . S
H1120 C1135 0.959 . S
H1121 C1135 0.961 . S
H1122 C1136 0.960 . S
H1123 C1136 0.961 . S
H1124 C1136 0.959 . S
H1125 C1139 0.920 1_556 S
H1126 C1140 0.912 1_556 S
H1127 C1142 0.930 . S
C1128 H1116 0.930 . S
C1128 C1129 1.399 . S
C1128 C1133 1.399 . S
C1129 C1128 1.399 . S
C1129 C1130 1.376 . S
C1130 H1117 0.930 . S
C1130 C1129 1.376 . S
C1130 C1131 1.388 . S
C1131 H1118 0.930 1_554 S
C1131 C1130 1.388 . S
C1131 C1132 1.390 . S
C1132 C1131 1.390 . S
C1132 C1133 1.394 . S
C1132 C1138 1.465 . S
C1133 C1128 1.399 . S
C1133 C1132 1.394 . S
C1133 C1134 1.516 . S
C1134 C1133 1.516 . S
C1134 C1135 1.502 . S
C1134 C1136 1.561 . S
C1134 C1137 1.526 . S
C1135 H1119 0.959 . S
C1135 H1120 0.959 . S
C1135 H1121 0.961 . S
C1135 C1134 1.502 . S
C1136 H1122 0.960 . S
C1136 H1123 0.961 . S
C1136 H1124 0.959 . S
C1136 C1134 1.561 . S
C1137 C1134 1.526 . S
C1137 C1138 1.396 . S
C1137 C1142 1.390 . S
C1138 C1132 1.465 . S
C1138 C1137 1.396 . S
C1138 C1139 1.407 . S
C1139 H1125 0.920 1_554 S
C1139 C1138 1.407 . S
C1139 C1140 1.384 . S
C1140 H1126 0.912 1_554 S
C1140 C1139 1.384 . S
C1140 C1141 1.411 . S
C1141 C1140 1.411 . S
C1141 C1142 1.387 . S
C1142 H1127 0.930 . S
C1142 C1137 1.390 . S
C1142 C1141 1.387 . S
H1143 C1155 0.930 . S
H1144 C1157 0.930 . S
H1145 C1158 0.930 1_554 S
H1146 C1162 0.959 . S
H1147 C1162 0.959 . S
H1148 C1162 0.961 . S
H1149 C1163 0.960 . S
H1150 C1163 0.961 . S
H1151 C1163 0.959 . S
H1152 C1166 0.929 . S
H1153 C1167 0.931 . S
H1154 C1169 0.930 . S
C1155 H1143 0.930 . S
C1155 C1156 1.399 . S
C1155 C1160 1.399 . S
C1156 C1155 1.399 . S
C1156 C1157 1.376 . S
C1157 H1144 0.930 . S
C1157 C1156 1.376 . S
C1157 C1158 1.388 . S
C1158 H1145 0.930 1_556 S
C1158 C1157 1.388 . S
C1158 C1159 1.390 . S
C1159 C1158 1.390 . S
C1159 C1160 1.394 . S
C1159 C1165 1.465 . S
C1160 C1155 1.399 . S
C1160 C1159 1.394 . S
C1160 C1161 1.516 . S
C1161 C1160 1.516 . S
C1161 C1162 1.502 . S
C1161 C1163 1.561 . S
C1161 C1164 1.526 . S
C1162 H1146 0.959 . S
C1162 H1147 0.959 . S
C1162 H1148 0.961 . S
C1162 C1161 1.502 . S
C1163 H1149 0.960 . S
C1163 H1150 0.961 . S
C1163 H1151 0.959 . S
C1163 C1161 1.561 . S
C1164 C1161 1.526 . S
C1164 C1165 1.396 . S
C1164 C1169 1.390 . S
C1165 C1159 1.465 . S
C1165 C1164 1.396 . S
C1165 C1166 1.399 1_556 S
C1166 H1152 0.929 . S
C1166 C1165 1.399 1_554 S
C1166 C1167 1.385 . S
C1167 H1153 0.931 . S
C1167 C1166 1.385 . S
C1167 C1168 1.389 1_554 S
C1168 C1167 1.389 1_556 S
C1168 C1169 1.387 . S
C1169 H1154 0.930 . S
C1169 C1164 1.390 . S
C1169 C1168 1.387 . S
H1170 C1182 0.930 . S
H1171 C1184 0.930 . S
H1172 C1185 0.930 . S
H1173 C1189 0.959 . S
H1174 C1189 0.959 1_554 S
H1175 C1189 0.961 . S
H1176 C1190 0.960 . S
H1177 C1190 1.008 . S
H1178 C1190 0.959 . S
H1179 C1193 0.929 . S
H1180 C1194 0.931 . S
H1181 C1196 0.930 . S
C1182 H1170 0.930 . S
C1182 C1183 1.399 . S
C1182 C1187 1.399 . S
C1183 C1182 1.399 . S
C1183 C1184 1.376 . S
C1184 H1171 0.930 . S
C1184 C1183 1.376 . S
C1184 C1185 1.388 . S
C1185 H1172 0.930 . S
C1185 C1184 1.388 . S
C1185 C1186 1.390 . S
C1186 C1185 1.390 . S
C1186 C1187 1.394 . S
C1186 C1192 1.465 . S
C1187 C1182 1.399 . S
C1187 C1186 1.394 . S
C1187 C1188 1.516 . S
C1188 C1187 1.516 . S
C1188 C1189 1.502 . S
C1188 C1190 1.561 . S
C1188 C1191 1.526 . S
C1189 H1173 0.959 . S
C1189 H1174 0.959 1_556 S
C1189 H1175 0.961 . S
C1189 C1188 1.502 . S
C1190 H1176 0.960 . S
C1190 H1177 1.008 . S
C1190 H1178 0.959 . S
C1190 C1188 1.561 . S
C1191 C1188 1.526 . S
C1191 C1192 1.396 . S
C1191 C1196 1.390 . S
C1192 C1186 1.465 . S
C1192 C1191 1.396 . S
C1192 C1193 1.399 . S
C1193 H1179 0.929 . S
C1193 C1192 1.399 . S
C1193 C1194 1.385 . S
C1194 H1180 0.931 . S
C1194 C1193 1.385 . S
C1194 C1195 1.389 . S
C1195 C1194 1.389 . S
C1195 C1196 1.387 . S
C1196 H1181 0.930 . S
C1196 C1191 1.390 . S
C1196 C1195 1.387 . S
H1197 C1209 0.930 . S
H1198 C1211 0.930 . S
H1199 C1212 0.930 . S
H1200 C1216 0.959 . S
H1201 C1216 0.959 . S
H1202 C1216 0.961 . S
H1203 C1217 0.960 . S
H1204 C1217 0.961 . S
H1205 C1217 0.959 . S
H1206 C1220 0.919 1_554 S
H1207 C1221 0.921 1_554 S
H1208 C1223 0.930 . S
C1209 H1197 0.930 . S
C1209 C1210 1.399 . S
C1209 C1214 1.399 . S
C1210 C1209 1.399 . S
C1210 C1211 1.376 . S
C1211 H1198 0.930 . S
C1211 C1210 1.376 . S
C1211 C1212 1.388 . S
C1212 H1199 0.930 . S
C1212 C1211 1.388 . S
C1212 C1213 1.390 . S
C1213 C1212 1.390 . S
C1213 C1214 1.394 . S
C1213 C1219 1.465 . S
C1214 C1209 1.399 . S
C1214 C1213 1.394 . S
C1214 C1215 1.516 . S
C1215 C1214 1.516 . S
C1215 C1216 1.502 . S
C1215 C1217 1.561 . S
C1215 C1218 1.526 . S
C1216 H1200 0.959 . S
C1216 H1201 0.959 . S
C1216 H1202 0.961 . S
C1216 C1215 1.502 . S
C1217 H1203 0.960 . S
C1217 H1204 0.961 . S
C1217 H1205 0.959 . S
C1217 C1215 1.561 . S
C1218 C1215 1.526 . S
C1218 C1219 1.396 . S
C1218 C1223 1.390 . S
C1219 C1213 1.465 . S
C1219 C1218 1.396 . S
C1219 C1220 1.399 . S
C1220 H1206 0.919 1_556 S
C1220 C1219 1.399 . S
C1220 C1221 1.389 . S
C1221 H1207 0.921 1_556 S
C1221 C1220 1.389 . S
C1221 C1222 1.395 . S
C1222 C1221 1.395 . S
C1222 C1223 1.387 . S
C1223 H1208 0.930 . S
C1223 C1218 1.390 . S
C1223 C1222 1.387 . S
H1224 C1236 0.930 . S
H1225 C1238 0.930 . S
H1226 C1239 0.930 . S
H1227 C1243 0.959 . S
H1228 C1243 0.959 . S
H1229 C1243 0.961 . S
H1230 C1244 0.960 . S
H1231 C1244 0.961 . S
H1232 C1244 0.959 . S
H1233 C1247 0.929 . S
H1234 C1248 0.931 . S
H1235 C1250 0.930 . S
C1236 H1224 0.930 . S
C1236 C1237 1.399 . S
C1236 C1241 1.399 . S
C1237 C1236 1.399 . S
C1237 C1238 1.376 . S
C1238 H1225 0.930 . S
C1238 C1237 1.376 . S
C1238 C1239 1.388 . S
C1239 H1226 0.930 . S
C1239 C1238 1.388 . S
C1239 C1240 1.390 . S
C1240 C1239 1.390 . S
C1240 C1241 1.394 . S
C1240 C1246 1.465 . S
C1241 C1236 1.399 . S
C1241 C1240 1.394 . S
C1241 C1242 1.516 . S
C1242 C1241 1.516 . S
C1242 C1243 1.502 . S
C1242 C1244 1.561 . S
C1242 C1245 1.526 . S
C1243 H1227 0.959 . S
C1243 H1228 0.959 . S
C1243 H1229 0.961 . S
C1243 C1242 1.502 . S
C1244 H1230 0.960 . S
C1244 H1231 0.961 . S
C1244 H1232 0.959 . S
C1244 C1242 1.561 . S
C1245 C1242 1.526 . S
C1245 C1246 1.396 . S
C1245 C1250 1.390 . S
C1246 C1240 1.465 . S
C1246 C1245 1.396 . S
C1246 C1247 1.399 . S
C1247 H1233 0.929 . S
C1247 C1246 1.399 . S
C1247 C1248 1.385 . S
C1248 H1234 0.931 . S
C1248 C1247 1.385 . S
C1248 C1249 1.389 . S
C1249 C1248 1.389 . S
C1249 C1250 1.387 . S
C1250 H1235 0.930 . S
C1250 C1245 1.390 . S
C1250 C1249 1.387 . S
H1251 C1263 0.930 . S
H1252 C1265 0.930 . S
H1253 C1266 0.930 . S
H1254 C1270 0.959 . S
H1255 C1270 0.959 . S
H1256 C1270 0.961 . S
H1257 C1271 0.960 . S
H1258 C1271 0.961 . S
H1259 C1271 0.959 . S
H1260 C1274 0.929 . S
H1261 C1275 0.956 . S
H1262 C1277 0.930 . S
C1263 H1251 0.930 . S
C1263 C1264 1.399 . S
C1263 C1268 1.399 . S
C1264 C1263 1.399 . S
C1264 C1265 1.376 . S
C1265 H1252 0.930 . S
C1265 C1264 1.376 . S
C1265 C1266 1.388 . S
C1266 H1253 0.930 . S
C1266 C1265 1.388 . S
C1266 C1267 1.390 . S
C1267 C1266 1.390 . S
C1267 C1268 1.394 . S
C1267 C1273 1.465 . S
C1268 C1263 1.399 . S
C1268 C1267 1.394 . S
C1268 C1269 1.516 . S
C1269 C1268 1.516 . S
C1269 C1270 1.502 . S
C1269 C1271 1.561 . S
C1269 C1272 1.526 . S
C1270 H1254 0.959 . S
C1270 H1255 0.959 . S
C1270 H1256 0.961 . S
C1270 C1269 1.502 . S
C1271 H1257 0.960 . S
C1271 H1258 0.961 . S
C1271 H1259 0.959 . S
C1271 C1269 1.561 . S
C1272 C1269 1.526 . S
C1272 C1273 1.396 . S
C1272 C1277 1.390 . S
C1273 C1267 1.465 . S
C1273 C1272 1.396 . S
C1273 C1274 1.399 . S
C1274 H1260 0.929 . S
C1274 C1273 1.399 . S
C1274 C1275 1.385 . S
C1275 H1261 0.956 . S
C1275 C1274 1.385 . S
C1275 C1276 1.389 . S
C1276 C1275 1.389 . S
C1276 C1277 1.387 . S
C1277 H1262 0.930 . S
C1277 C1272 1.390 . S
C1277 C1276 1.387 . S
H1278 C1290 0.930 . S
H1279 C1292 0.930 . S
H1280 C1293 0.930 . S
H1281 C1297 0.959 . S
H1282 C1297 0.959 . S
H1283 C1297 0.961 . S
H1284 C1298 0.960 . S
H1285 C1298 0.961 . S
H1286 C1298 0.959 . S
H1287 C1301 0.929 . S
H1288 C1302 0.931 . S
H1289 C1304 0.930 1_554 S
C1290 H1278 0.930 . S
C1290 C1291 1.399 . S
C1290 C1295 1.399 . S
C1291 C1290 1.399 . S
C1291 C1292 1.376 . S
C1292 H1279 0.930 . S
C1292 C1291 1.376 . S
C1292 C1293 1.388 . S
C1293 H1280 0.930 . S
C1293 C1292 1.388 . S
C1293 C1294 1.390 . S
C1294 C1293 1.390 . S
C1294 C1295 1.394 . S
C1294 C1300 1.465 . S
C1295 C1290 1.399 . S
C1295 C1294 1.394 . S
C1295 C1296 1.516 1_556 S
C1296 C1295 1.516 1_554 S
C1296 C1297 1.502 . S
C1296 C1298 1.561 . S
C1296 C1299 1.526 1_554 S
C1297 H1281 0.959 . S
C1297 H1282 0.959 . S
C1297 H1283 0.961 . S
C1297 C1296 1.502 . S
C1298 H1284 0.960 . S
C1298 H1285 0.961 . S
C1298 H1286 0.959 . S
C1298 C1296 1.561 . S
C1299 C1296 1.526 1_556 S
C1299 C1300 1.396 . S
C1299 C1304 1.390 . S
C1300 C1294 1.465 . S
C1300 C1299 1.396 . S
C1300 C1301 1.399 . S
C1301 H1287 0.929 . S
C1301 C1300 1.399 . S
C1301 C1302 1.385 . S
C1302 H1288 0.931 . S
C1302 C1301 1.385 . S
C1302 C1303 1.389 . S
C1303 C1302 1.389 . S
C1303 C1304 1.387 . S
C1304 H1289 0.930 1_556 S
C1304 C1299 1.390 . S
C1304 C1303 1.387 . S
H1305 C1317 0.930 . S
H1306 C1319 0.930 . S
H1307 C1320 0.930 . S
H1308 C1324 0.937 1_554 S
H1309 C1324 0.984 . S
H1310 C1324 0.975 . S
H1311 C1325 0.960 . S
H1312 C1325 0.961 . S
H1313 C1325 0.959 1_554 S
H1314 C1328 0.929 . S
H1315 C1329 0.931 . S
H1316 C1331 0.867 1_556 S
C1317 H1305 0.930 . S
C1317 C1318 1.399 . S
C1317 C1322 1.399 . S
C1318 C1317 1.399 . S
C1318 C1319 1.376 . S
C1319 H1306 0.930 . S
C1319 C1318 1.376 . S
C1319 C1320 1.388 . S
C1320 H1307 0.930 . S
C1320 C1319 1.388 . S
C1320 C1321 1.390 . S
C1321 C1320 1.390 . S
C1321 C1322 1.394 . S
C1321 C1327 1.465 . S
C1322 C1317 1.399 . S
C1322 C1321 1.394 . S
C1322 C1323 1.516 . S
C1323 C1322 1.516 . S
C1323 C1324 1.485 1_554 S
C1323 C1325 1.561 1_554 S
C1323 C1326 1.526 . S
C1324 H1308 0.937 1_556 S
C1324 H1309 0.984 . S
C1324 H1310 0.975 . S
C1324 C1323 1.485 1_556 S
C1325 H1311 0.960 . S
C1325 H1312 0.961 . S
C1325 H1313 0.959 1_556 S
C1325 C1323 1.561 1_556 S
C1326 C1323 1.526 . S
C1326 C1327 1.396 . S
C1326 C1331 1.390 . S
C1327 C1321 1.465 . S
C1327 C1326 1.396 . S
C1327 C1328 1.399 . S
C1328 H1314 0.929 . S
C1328 C1327 1.399 . S
C1328 C1329 1.385 . S
C1329 H1315 0.931 . S
C1329 C1328 1.385 . S
C1329 C1330 1.389 . S
C1330 C1329 1.389 . S
C1330 C1331 1.387 . S
C1331 H1316 0.867 1_554 S
C1331 C1326 1.390 . S
C1331 C1330 1.387 . S
H1332 C1344 0.930 . S
H1333 C1346 0.930 . S
H1334 C1347 0.930 . S
H1335 C1351 0.959 . S
H1336 C1351 0.959 . S
H1337 C1351 0.961 . S
H1338 C1352 0.960 . S
H1339 C1352 0.961 . S
H1340 C1352 0.959 . S
H1341 C1355 0.929 . S
H1342 C1356 0.931 . S
H1343 C1358 0.930 . S
C1344 H1332 0.930 . S
C1344 C1345 1.399 . S
C1344 C1349 1.399 . S
C1345 C1344 1.399 . S
C1345 C1346 1.376 . S
C1346 H1333 0.930 . S
C1346 C1345 1.376 . S
C1346 C1347 1.388 . S
C1347 H1334 0.930 . S
C1347 C1346 1.388 . S
C1347 C1348 1.390 . S
C1348 C1347 1.390 . S
C1348 C1349 1.394 . S
C1348 C1354 1.465 . S
C1349 C1344 1.399 . S
C1349 C1348 1.394 . S
C1349 C1350 1.516 . S
C1350 C1349 1.516 . S
C1350 C1351 1.502 . S
C1350 C1352 1.561 . S
C1350 C1353 1.526 . S
C1351 H1335 0.959 . S
C1351 H1336 0.959 . S
C1351 H1337 0.961 . S
C1351 C1350 1.502 . S
C1352 H1338 0.960 . S
C1352 H1339 0.961 . S
C1352 H1340 0.959 . S
C1352 C1350 1.561 . S
C1353 C1350 1.526 . S
C1353 C1354 1.396 . S
C1353 C1358 1.390 . S
C1354 C1348 1.465 . S
C1354 C1353 1.396 . S
C1354 C1355 1.399 . S
C1355 H1341 0.929 . S
C1355 C1354 1.399 . S
C1355 C1356 1.385 . S
C1356 H1342 0.931 . S
C1356 C1355 1.385 . S
C1356 C1357 1.389 . S
C1357 C1356 1.389 . S
C1357 C1358 1.387 . S
C1358 H1343 0.930 . S
C1358 C1353 1.390 . S
C1358 C1357 1.387 . S
H1359 C1371 0.930 . S
H1360 C1373 0.930 . S
H1361 C1374 0.930 . S
H1362 C1378 0.959 . S
H1363 C1378 0.959 . S
H1364 C1378 0.961 . S
H1365 C1379 0.960 . S
H1366 C1379 0.961 . S
H1367 C1379 0.959 . S
H1368 C1382 0.929 . S
H1369 C1383 0.931 1_556 S
H1370 C1385 0.930 . S
C1371 H1359 0.930 . S
C1371 C1372 1.399 . S
C1371 C1376 1.399 . S
C1372 C1371 1.399 . S
C1372 C1373 1.376 . S
C1373 H1360 0.930 . S
C1373 C1372 1.376 . S
C1373 C1374 1.388 . S
C1374 H1361 0.930 . S
C1374 C1373 1.388 . S
C1374 C1375 1.390 . S
C1375 C1374 1.390 . S
C1375 C1376 1.394 . S
C1375 C1381 1.465 . S
C1376 C1371 1.399 . S
C1376 C1375 1.394 . S
C1376 C1377 1.516 . S
C1377 C1376 1.516 . S
C1377 C1378 1.502 . S
C1377 C1379 1.561 . S
C1377 C1380 1.526 . S
C1378 H1362 0.959 . S
C1378 H1363 0.959 . S
C1378 H1364 0.961 . S
C1378 C1377 1.502 . S
C1379 H1365 0.960 . S
C1379 H1366 0.961 . S
C1379 H1367 0.959 . S
C1379 C1377 1.561 . S
C1380 C1377 1.526 . S
C1380 C1381 1.396 . S
C1380 C1385 1.390 . S
C1381 C1375 1.465 . S
C1381 C1380 1.396 . S
C1381 C1382 1.399 . S
C1382 H1368 0.929 . S
C1382 C1381 1.399 . S
C1382 C1383 1.385 . S
C1383 H1369 0.931 1_554 S
C1383 C1382 1.385 . S
C1383 C1384 1.389 . S
C1384 C1383 1.389 . S
C1384 C1385 1.387 . S
C1385 H1370 0.930 . S
C1385 C1380 1.390 . S
C1385 C1384 1.387 . S
H1386 C1398 0.930 . S
H1387 C1400 0.930 . S
H1388 C1401 0.930 . S
H1389 C1405 0.959 . S
H1390 C1405 0.959 . S
H1391 C1405 0.961 . S
H1392 C1406 0.960 . S
H1393 C1406 0.961 . S
H1394 C1406 0.959 . S
H1395 C1409 0.929 . S
H1396 C1410 0.931 . S
H1397 C1412 0.930 . S
C1398 H1386 0.930 . S
C1398 C1399 1.399 . S
C1398 C1403 1.399 1_655 S
C1399 C1398 1.399 . S
C1399 C1400 1.376 . S
C1400 H1387 0.930 . S
C1400 C1399 1.376 . S
C1400 C1401 1.388 1_655 S
C1401 H1388 0.930 . S
C1401 C1400 1.388 1_455 S
C1401 C1402 1.390 . S
C1402 C1401 1.390 . S
C1402 C1403 1.394 . S
C1402 C1408 1.465 . S
C1403 C1398 1.399 1_455 S
C1403 C1402 1.394 . S
C1403 C1404 1.516 . S
C1404 C1403 1.516 . S
C1404 C1405 1.502 . S
C1404 C1406 1.561 . S
C1404 C1407 1.526 . S
C1405 H1389 0.959 . S
C1405 H1390 0.959 . S
C1405 H1391 0.961 . S
C1405 C1404 1.502 . S
C1406 H1392 0.960 . S
C1406 H1393 0.961 . S
C1406 H1394 0.959 . S
C1406 C1404 1.561 . S
C1407 C1404 1.526 . S
C1407 C1408 1.396 . S
C1407 C1412 1.390 . S
C1408 C1402 1.465 . S
C1408 C1407 1.396 . S
C1408 C1409 1.399 . S
C1409 H1395 0.929 . S
C1409 C1408 1.399 . S
C1409 C1410 1.385 . S
C1410 H1396 0.931 . S
C1410 C1409 1.385 . S
C1410 C1411 1.389 . S
C1411 C1410 1.389 . S
C1411 C1412 1.387 . S
C1412 H1397 0.930 . S
C1412 C1407 1.390 . S
C1412 C1411 1.387 . S
H1413 C1425 0.930 . S
H1414 C1427 0.930 . S
H1415 C1428 0.930 . S
H1416 C1432 0.959 . S
H1417 C1432 0.959 . S
H1418 C1432 0.961 . S
H1419 C1433 0.960 . S
H1420 C1433 0.961 . S
H1421 C1433 0.959 . S
H1422 C1436 0.929 . S
H1423 C1437 0.931 . S
H1424 C1439 0.930 . S
C1425 H1413 0.930 . S
C1425 C1426 1.399 . S
C1425 C1430 1.399 . S
C1426 C1425 1.399 . S
C1426 C1427 1.376 . S
C1427 H1414 0.930 . S
C1427 C1426 1.376 . S
C1427 C1428 1.388 . S
C1428 H1415 0.930 . S
C1428 C1427 1.388 . S
C1428 C1429 1.390 . S
C1429 C1428 1.390 . S
C1429 C1430 1.394 . S
C1429 C1435 1.465 . S
C1430 C1425 1.399 . S
C1430 C1429 1.394 . S
C1430 C1431 1.516 . S
C1431 C1430 1.516 . S
C1431 C1432 1.502 . S
C1431 C1433 1.561 . S
C1431 C1434 1.526 . S
C1432 H1416 0.959 . S
C1432 H1417 0.959 . S
C1432 H1418 0.961 . S
C1432 C1431 1.502 . S
C1433 H1419 0.960 . S
C1433 H1420 0.961 . S
C1433 H1421 0.959 . S
C1433 C1431 1.561 . S
C1434 C1431 1.526 . S
C1434 C1435 1.396 . S
C1434 C1439 1.390 . S
C1435 C1429 1.465 . S
C1435 C1434 1.396 . S
C1435 C1436 1.399 . S
C1436 H1422 0.929 . S
C1436 C1435 1.399 . S
C1436 C1437 1.385 . S
C1437 H1423 0.931 . S
C1437 C1436 1.385 . S
C1437 C1438 1.389 . S
C1438 C1437 1.389 . S
C1438 C1439 1.387 . S
C1439 H1424 0.930 . S
C1439 C1434 1.390 . S
C1439 C1438 1.387 . S
H1440 C1452 0.930 . S
H1441 C1454 0.930 . S
H1442 C1455 0.930 . S
H1443 C1459 0.959 . S
H1444 C1459 0.959 . S
H1445 C1459 0.961 . S
H1446 C1460 0.960 . S
H1447 C1460 0.961 . S
H1448 C1460 0.959 . S
H1449 C1463 0.929 . S
H1450 C1464 0.931 . S
H1451 C1466 0.930 . S
C1452 H1440 0.930 . S
C1452 C1453 1.399 . S
C1452 C1457 1.399 1_545 S
C1453 C1452 1.399 . S
C1453 C1454 1.376 . S
C1454 H1441 0.930 . S
C1454 C1453 1.376 . S
C1454 C1455 1.388 . S
C1455 H1442 0.930 . S
C1455 C1454 1.388 . S
C1455 C1456 1.390 1_545 S
C1456 C1455 1.390 1_565 S
C1456 C1457 1.394 . S
C1456 C1462 1.465 . S
C1457 C1452 1.399 1_565 S
C1457 C1456 1.394 . S
C1457 C1458 1.516 . S
C1458 C1457 1.516 . S
C1458 C1459 1.502 . S
C1458 C1460 1.561 . S
C1458 C1461 1.526 . S
C1459 H1443 0.959 . S
C1459 H1444 0.959 . S
C1459 H1445 0.961 . S
C1459 C1458 1.502 . S
C1460 H1446 0.960 . S
C1460 H1447 0.961 . S
C1460 H1448 0.959 . S
C1460 C1458 1.561 . S
C1461 C1458 1.526 . S
C1461 C1462 1.396 . S
C1461 C1466 1.390 . S
C1462 C1456 1.465 . S
C1462 C1461 1.396 . S
C1462 C1463 1.399 . S
C1463 H1449 0.929 . S
C1463 C1462 1.399 . S
C1463 C1464 1.385 . S
C1464 H1450 0.931 . S
C1464 C1463 1.385 . S
C1464 C1465 1.389 . S
C1465 C1464 1.389 . S
C1465 C1466 1.387 . S
C1466 H1451 0.930 . S
C1466 C1461 1.390 . S
C1466 C1465 1.387 . S
H1467 C1479 0.930 . S
H1468 C1481 0.930 . S
H1469 C1482 0.930 . S
H1470 C1486 0.959 . S
H1471 C1486 0.959 . S
H1472 C1486 0.961 . S
H1473 C1487 0.960 . S
H1474 C1487 0.961 . S
H1475 C1487 0.959 . S
H1476 C1490 0.929 . S
H1477 C1491 0.931 . S
H1478 C1493 0.930 . S
C1479 H1467 0.930 . S
C1479 C1480 1.399 . S
C1479 C1484 1.399 . S
C1480 C1479 1.399 . S
C1480 C1481 1.376 . S
C1481 H1468 0.930 . S
C1481 C1480 1.376 . S
C1481 C1482 1.388 . S
C1482 H1469 0.930 . S
C1482 C1481 1.388 . S
C1482 C1483 1.390 . S
C1483 C1482 1.390 . S
C1483 C1484 1.394 . S
C1483 C1489 1.465 . S
C1484 C1479 1.399 . S
C1484 C1483 1.394 . S
C1484 C1485 1.516 . S
C1485 C1484 1.516 . S
C1485 C1486 1.502 . S
C1485 C1487 1.561 . S
C1485 C1488 1.526 . S
C1486 H1470 0.959 . S
C1486 H1471 0.959 . S
C1486 H1472 0.961 . S
C1486 C1485 1.502 . S
C1487 H1473 0.960 . S
C1487 H1474 0.961 . S
C1487 H1475 0.959 . S
C1487 C1485 1.561 . S
C1488 C1485 1.526 . S
C1488 C1489 1.396 . S
C1488 C1493 1.390 . S
C1489 C1483 1.465 . S
C1489 C1488 1.396 . S
C1489 C1490 1.399 . S
C1490 H1476 0.929 . S
C1490 C1489 1.399 . S
C1490 C1491 1.385 . S
C1491 H1477 0.931 . S
C1491 C1490 1.385 . S
C1491 C1492 1.389 . S
C1492 C1491 1.389 . S
C1492 C1493 1.387 . S
C1493 H1478 0.930 . S
C1493 C1488 1.390 . S
C1493 C1492 1.387 . S
H1494 C1506 0.930 . S
H1495 C1508 0.930 . S
H1496 C1509 0.930 . S
H1497 C1513 0.959 . S
H1498 C1513 0.959 . S
H1499 C1513 0.961 . S
H1500 C1514 0.960 . S
H1501 C1514 0.961 . S
H1502 C1514 0.959 . S
H1503 C1517 0.929 . S
H1504 C1518 0.931 . S
H1505 C1520 0.930 . S
C1506 H1494 0.930 . S
C1506 C1507 1.399 . S
C1506 C1511 1.399 . S
C1507 C1506 1.399 . S
C1507 C1508 1.376 . S
C1508 H1495 0.930 . S
C1508 C1507 1.376 . S
C1508 C1509 1.388 . S
C1509 H1496 0.930 . S
C1509 C1508 1.388 . S
C1509 C1510 1.390 . S
C1510 C1509 1.390 . S
C1510 C1511 1.394 . S
C1510 C1516 1.465 . S
C1511 C1506 1.399 . S
C1511 C1510 1.394 . S
C1511 C1512 1.516 . S
C1512 C1511 1.516 . S
C1512 C1513 1.502 . S
C1512 C1514 1.561 . S
C1512 C1515 1.526 . S
C1513 H1497 0.959 . S
C1513 H1498 0.959 . S
C1513 H1499 0.961 . S
C1513 C1512 1.502 . S
C1514 H1500 0.960 . S
C1514 H1501 0.961 . S
C1514 H1502 0.959 . S
C1514 C1512 1.561 . S
C1515 C1512 1.526 . S
C1515 C1516 1.396 . S
C1515 C1520 1.390 . S
C1516 C1510 1.465 . S
C1516 C1515 1.396 . S
C1516 C1517 1.399 . S
C1517 H1503 0.929 . S
C1517 C1516 1.399 . S
C1517 C1518 1.385 . S
C1518 H1504 0.931 . S
C1518 C1517 1.385 . S
C1518 C1519 1.389 . S
C1519 C1518 1.389 . S
C1519 C1520 1.387 . S
C1520 H1505 0.930 . S
C1520 C1515 1.390 . S
C1520 C1519 1.387 . S
H1521 C1533 0.930 . S
H1522 C1535 0.930 . S
H1523 C1536 0.930 . S
H1524 C1540 0.959 . S
H1525 C1540 0.959 . S
H1526 C1540 0.961 . S
H1527 C1541 0.960 . S
H1528 C1541 0.961 . S
H1529 C1541 0.959 . S
H1530 C1544 0.929 . S
H1531 C1545 0.931 . S
H1532 C1547 0.930 . S
C1533 H1521 0.930 . S
C1533 C1534 1.399 . S
C1533 C1538 1.399 . S
C1534 C1533 1.399 . S
C1534 C1535 1.376 . S
C1535 H1522 0.930 . S
C1535 C1534 1.376 . S
C1535 C1536 1.388 . S
C1536 H1523 0.930 . S
C1536 C1535 1.388 . S
C1536 C1537 1.390 . S
C1537 C1536 1.390 . S
C1537 C1538 1.394 . S
C1537 C1543 1.465 . S
C1538 C1533 1.399 . S
C1538 C1537 1.394 . S
C1538 C1539 1.516 . S
C1539 C1538 1.516 . S
C1539 C1540 1.502 . S
C1539 C1541 1.561 . S
C1539 C1542 1.526 . S
C1540 H1524 0.959 . S
C1540 H1525 0.959 . S
C1540 H1526 0.961 . S
C1540 C1539 1.502 . S
C1541 H1527 0.960 . S
C1541 H1528 0.961 . S
C1541 H1529 0.959 . S
C1541 C1539 1.561 . S
C1542 C1539 1.526 . S
C1542 C1543 1.396 . S
C1542 C1547 1.390 . S
C1543 C1537 1.465 . S
C1543 C1542 1.396 . S
C1543 C1544 1.399 . S
C1544 H1530 0.929 . S
C1544 C1543 1.399 . S
C1544 C1545 1.385 . S
C1545 H1531 0.931 . S
C1545 C1544 1.385 . S
C1545 C1546 1.389 . S
C1546 C1545 1.389 . S
C1546 C1547 1.387 . S
C1547 H1532 0.930 . S
C1547 C1542 1.390 . S
C1547 C1546 1.387 . S
H1548 C1560 0.930 . S
H1549 C1562 0.930 . S
H1550 C1563 0.930 . S
H1551 C1567 0.959 . S
H1552 C1567 0.959 . S
H1553 C1567 0.961 . S
H1554 C1568 0.960 . S
H1555 C1568 0.961 . S
H1556 C1568 0.959 . S
H1557 C1571 0.929 . S
H1558 C1572 0.931 . S
H1559 C1574 0.930 . S
C1560 H1548 0.930 . S
C1560 C1561 1.399 . S
C1560 C1565 1.399 . S
C1561 C1560 1.399 . S
C1561 C1562 1.376 . S
C1562 H1549 0.930 . S
C1562 C1561 1.376 . S
C1562 C1563 1.388 . S
C1563 H1550 0.930 . S
C1563 C1562 1.388 . S
C1563 C1564 1.390 . S
C1564 C1563 1.390 . S
C1564 C1565 1.394 . S
C1564 C1570 1.465 . S
C1565 C1560 1.399 . S
C1565 C1564 1.394 . S
C1565 C1566 1.516 . S
C1566 C1565 1.516 . S
C1566 C1567 1.502 . S
C1566 C1568 1.561 . S
C1566 C1569 1.526 . S
C1567 H1551 0.959 . S
C1567 H1552 0.959 . S
C1567 H1553 0.961 . S
C1567 C1566 1.502 . S
C1568 H1554 0.960 . S
C1568 H1555 0.961 . S
C1568 H1556 0.959 . S
C1568 C1566 1.561 . S
C1569 C1566 1.526 . S
C1569 C1570 1.396 . S
C1569 C1574 1.390 . S
C1570 C1564 1.465 . S
C1570 C1569 1.396 . S
C1570 C1571 1.399 . S
C1571 H1557 0.929 . S
C1571 C1570 1.399 . S
C1571 C1572 1.385 . S
C1572 H1558 0.931 . S
C1572 C1571 1.385 . S
C1572 C1573 1.389 . S
C1573 C1572 1.389 . S
C1573 C1574 1.387 . S
C1574 H1559 0.930 . S
C1574 C1569 1.390 . S
C1574 C1573 1.387 . S
H1575 C1587 0.930 . S
H1576 C1589 0.930 . S
H1577 C1590 0.930 . S
H1578 C1594 0.959 . S
H1579 C1594 0.959 . S
H1580 C1594 0.961 . S
H1581 C1595 0.960 . S
H1582 C1595 0.961 . S
H1583 C1595 0.959 . S
H1584 C1598 0.929 . S
H1585 C1599 0.931 . S
H1586 C1601 0.930 . S
C1587 H1575 0.930 . S
C1587 C1588 1.399 . S
C1587 C1592 1.399 . S
C1588 C1587 1.399 . S
C1588 C1589 1.376 . S
C1589 H1576 0.930 . S
C1589 C1588 1.376 . S
C1589 C1590 1.388 . S
C1590 H1577 0.930 . S
C1590 C1589 1.388 . S
C1590 C1591 1.390 . S
C1591 C1590 1.390 . S
C1591 C1592 1.394 . S
C1591 C1597 1.465 . S
C1592 C1587 1.399 . S
C1592 C1591 1.394 . S
C1592 C1593 1.516 . S
C1593 C1592 1.516 . S
C1593 C1594 1.502 . S
C1593 C1595 1.561 . S
C1593 C1596 1.526 . S
C1594 H1578 0.959 . S
C1594 H1579 0.959 . S
C1594 H1580 0.961 . S
C1594 C1593 1.502 . S
C1595 H1581 0.960 . S
C1595 H1582 0.961 . S
C1595 H1583 0.959 . S
C1595 C1593 1.561 . S
C1596 C1593 1.526 . S
C1596 C1597 1.396 . S
C1596 C1601 1.390 . S
C1597 C1591 1.465 . S
C1597 C1596 1.396 . S
C1597 C1598 1.399 . S
C1598 H1584 0.929 . S
C1598 C1597 1.399 . S
C1598 C1599 1.385 . S
C1599 H1585 0.931 . S
C1599 C1598 1.385 . S
C1599 C1600 1.389 . S
C1600 C1599 1.389 . S
C1600 C1601 1.387 . S
C1601 H1586 0.930 . S
C1601 C1596 1.390 . S
C1601 C1600 1.387 . S
H1602 C1614 0.930 . S
H1603 C1616 0.930 . S
H1604 C1617 0.930 . S
H1605 C1621 0.959 . S
H1606 C1621 0.959 . S
H1607 C1621 0.961 . S
H1608 C1622 0.960 . S
H1609 C1622 0.961 . S
H1610 C1622 0.959 . S
H1611 C1625 0.929 . S
H1612 C1626 0.931 . S
H1613 C1628 0.930 . S
C1614 H1602 0.930 . S
C1614 C1615 1.399 . S
C1614 C1619 1.399 . S
C1615 C1614 1.399 . S
C1615 C1616 1.376 . S
C1616 H1603 0.930 . S
C1616 C1615 1.376 . S
C1616 C1617 1.388 . S
C1617 H1604 0.930 . S
C1617 C1616 1.388 . S
C1617 C1618 1.390 . S
C1618 C1617 1.390 . S
C1618 C1619 1.394 . S
C1618 C1624 1.465 . S
C1619 C1614 1.399 . S
C1619 C1618 1.394 . S
C1619 C1620 1.516 . S
C1620 C1619 1.516 . S
C1620 C1621 1.502 . S
C1620 C1622 1.561 . S
C1620 C1623 1.526 . S
C1621 H1605 0.959 . S
C1621 H1606 0.959 . S
C1621 H1607 0.961 . S
C1621 C1620 1.502 . S
C1622 H1608 0.960 . S
C1622 H1609 0.961 . S
C1622 H1610 0.959 . S
C1622 C1620 1.561 . S
C1623 C1620 1.526 . S
C1623 C1624 1.396 . S
C1623 C1628 1.390 . S
C1624 C1618 1.465 . S
C1624 C1623 1.396 . S
C1624 C1625 1.399 . S
C1625 H1611 0.929 . S
C1625 C1624 1.399 . S
C1625 C1626 1.385 . S
C1626 H1612 0.931 . S
C1626 C1625 1.385 . S
C1626 C1627 1.389 . S
C1627 C1626 1.389 . S
C1627 C1628 1.387 . S
C1628 H1613 0.930 . S
C1628 C1623 1.390 . S
C1628 C1627 1.387 . S
H1629 C1641 0.930 . S
H1630 C1643 0.930 . S
H1631 C1644 0.930 . S
H1632 C1648 0.959 . S
H1633 C1648 0.959 . S
H1634 C1648 0.961 . S
H1635 C1649 0.960 . S
H1636 C1649 0.961 . S
H1637 C1649 0.959 . S
H1638 C1652 0.929 . S
H1639 C1653 0.931 . S
H1640 C1655 0.930 . S
C1641 H1629 0.930 . S
C1641 C1642 1.399 . S
C1641 C1646 1.399 1_545 S
C1642 C1641 1.399 . S
C1642 C1643 1.376 . S
C1643 H1630 0.930 . S
C1643 C1642 1.376 . S
C1643 C1644 1.388 1_545 S
C1644 H1631 0.930 . S
C1644 C1643 1.388 1_565 S
C1644 C1645 1.390 . S
C1645 C1644 1.390 . S
C1645 C1646 1.394 . S
C1645 C1651 1.465 . S
C1646 C1641 1.399 1_565 S
C1646 C1645 1.394 . S
C1646 C1647 1.516 . S
C1647 C1646 1.516 . S
C1647 C1648 1.502 . S
C1647 C1649 1.561 . S
C1647 C1650 1.526 . S
C1648 H1632 0.959 . S
C1648 H1633 0.959 . S
C1648 H1634 0.961 . S
C1648 C1647 1.502 . S
C1649 H1635 0.960 . S
C1649 H1636 0.961 . S
C1649 H1637 0.959 . S
C1649 C1647 1.561 . S
C1650 C1647 1.526 . S
C1650 C1651 1.396 . S
C1650 C1655 1.390 . S
C1651 C1645 1.465 . S
C1651 C1650 1.396 . S
C1651 C1652 1.399 . S
C1652 H1638 0.929 . S
C1652 C1651 1.399 . S
C1652 C1653 1.385 . S
C1653 H1639 0.931 . S
C1653 C1652 1.385 . S
C1653 C1654 1.389 . S
C1654 C1653 1.389 . S
C1654 C1655 1.387 . S
C1655 H1640 0.930 . S
C1655 C1650 1.390 . S
C1655 C1654 1.387 . S
H1656 C1668 0.930 1_655 S
H1657 C1670 0.930 1_655 S
H1658 C1671 0.930 . S
H1659 C1675 0.959 . S
H1660 C1675 0.959 . S
H1661 C1675 0.961 . S
H1662 C1676 0.960 . S
H1663 C1676 0.961 . S
H1664 C1676 0.959 . S
H1665 C1679 0.929 . S
H1666 C1680 0.931 . S
H1667 C1682 0.930 . S
C1668 H1656 0.930 1_455 S
C1668 C1669 1.399 1_455 S
C1668 C1673 1.399 . S
C1669 C1668 1.399 1_655 S
C1669 C1670 1.376 1_655 S
C1670 H1657 0.930 1_455 S
C1670 C1669 1.376 1_455 S
C1670 C1671 1.388 . S
C1671 H1658 0.930 . S
C1671 C1670 1.388 . S
C1671 C1672 1.390 . S
C1672 C1671 1.390 . S
C1672 C1673 1.394 . S
C1672 C1678 1.465 . S
C1673 C1668 1.399 . S
C1673 C1672 1.394 . S
C1673 C1674 1.516 . S
C1674 C1673 1.516 . S
C1674 C1675 1.502 . S
C1674 C1676 1.561 . S
C1674 C1677 1.526 . S
C1675 H1659 0.959 . S
C1675 H1660 0.959 . S
C1675 H1661 0.961 . S
C1675 C1674 1.502 . S
C1676 H1662 0.960 . S
C1676 H1663 0.961 . S
C1676 H1664 0.959 . S
C1676 C1674 1.561 . S
C1677 C1674 1.526 . S
C1677 C1678 1.396 . S
C1677 C1682 1.390 . S
C1678 C1672 1.465 . S
C1678 C1677 1.396 . S
C1678 C1679 1.399 . S
C1679 H1665 0.929 . S
C1679 C1678 1.399 . S
C1679 C1680 1.385 . S
C1680 H1666 0.931 . S
C1680 C1679 1.385 . S
C1680 C1681 1.389 . S
C1681 C1680 1.389 . S
C1681 C1682 1.387 . S
C1682 H1667 0.930 . S
C1682 C1677 1.390 . S
C1682 C1681 1.387 . S
H1683 C1695 0.930 . S
H1684 C1697 0.930 . S
H1685 C1698 0.930 . S
H1686 C1702 0.959 . S
H1687 C1702 0.959 . S
H1688 C1702 0.961 . S
H1689 C1703 0.960 . S
H1690 C1703 0.961 . S
H1691 C1703 0.959 . S
H1692 C1706 0.929 . S
H1693 C1707 0.931 . S
H1694 C1709 0.930 . S
C1695 H1683 0.930 . S
C1695 C1696 1.399 . S
C1695 C1700 1.399 . S
C1696 C1695 1.399 . S
C1696 C1697 1.376 . S
C1697 H1684 0.930 . S
C1697 C1696 1.376 . S
C1697 C1698 1.388 . S
C1698 H1685 0.930 . S
C1698 C1697 1.388 . S
C1698 C1699 1.390 . S
C1699 C1698 1.390 . S
C1699 C1700 1.394 . S
C1699 C1705 1.465 . S
C1700 C1695 1.399 . S
C1700 C1699 1.394 . S
C1700 C1701 1.516 . S
C1701 C1700 1.516 . S
C1701 C1702 1.502 . S
C1701 C1703 1.561 . S
C1701 C1704 1.526 . S
C1702 H1686 0.959 . S
C1702 H1687 0.959 . S
C1702 H1688 0.961 . S
C1702 C1701 1.502 . S
C1703 H1689 0.960 . S
C1703 H1690 0.961 . S
C1703 H1691 0.959 . S
C1703 C1701 1.561 . S
C1704 C1701 1.526 . S
C1704 C1705 1.396 . S
C1704 C1709 1.390 . S
C1705 C1699 1.465 . S
C1705 C1704 1.396 . S
C1705 C1706 1.399 . S
C1706 H1692 0.929 . S
C1706 C1705 1.399 . S
C1706 C1707 1.385 . S
C1707 H1693 0.931 . S
C1707 C1706 1.385 . S
C1707 C1708 1.389 . S
C1708 C1707 1.389 . S
C1708 C1709 1.387 . S
C1709 H1694 0.930 . S
C1709 C1704 1.390 . S
C1709 C1708 1.387 . S
H1710 C1722 0.930 . S
H1711 C1724 0.930 . S
H1712 C1725 0.930 . S
H1713 C1729 0.959 . S
H1714 C1729 0.959 . S
H1715 C1729 0.961 . S
H1716 C1730 0.960 . S
H1717 C1730 0.961 . S
H1718 C1730 0.959 . S
H1719 C1733 0.929 . S
H1720 C1734 0.931 . S
H1721 C1736 0.930 . S
C1722 H1710 0.930 . S
C1722 C1723 1.399 . S
C1722 C1727 1.399 . S
C1723 C1722 1.399 . S
C1723 C1724 1.376 . S
C1724 H1711 0.930 . S
C1724 C1723 1.376 . S
C1724 C1725 1.388 . S
C1725 H1712 0.930 . S
C1725 C1724 1.388 . S
C1725 C1726 1.390 . S
C1726 C1725 1.390 . S
C1726 C1727 1.394 . S
C1726 C1732 1.465 . S
C1727 C1722 1.399 . S
C1727 C1726 1.394 . S
C1727 C1728 1.516 . S
C1728 C1727 1.516 . S
C1728 C1729 1.502 . S
C1728 C1730 1.561 . S
C1728 C1731 1.526 . S
C1729 H1713 0.959 . S
C1729 H1714 0.959 . S
C1729 H1715 0.961 . S
C1729 C1728 1.502 . S
C1730 H1716 0.960 . S
C1730 H1717 0.961 . S
C1730 H1718 0.959 . S
C1730 C1728 1.561 . S
C1731 C1728 1.526 . S
C1731 C1732 1.396 . S
C1731 C1736 1.390 . S
C1732 C1726 1.465 . S
C1732 C1731 1.396 . S
C1732 C1733 1.399 . S
C1733 H1719 0.929 . S
C1733 C1732 1.399 . S
C1733 C1734 1.385 . S
C1734 H1720 0.931 . S
C1734 C1733 1.385 . S
C1734 C1735 1.389 . S
C1735 C1734 1.389 . S
C1735 C1736 1.387 . S
C1736 H1721 0.930 . S
C1736 C1731 1.390 . S
C1736 C1735 1.387 . S
H1737 C1749 0.930 . S
H1738 C1751 0.930 . S
H1739 C1752 0.930 . S
H1740 C1756 0.959 . S
H1741 C1756 0.959 . S
H1742 C1756 0.961 . S
H1743 C1757 0.960 . S
H1744 C1757 0.961 . S
H1745 C1757 0.959 . S
H1746 C1760 0.929 . S
H1747 C1761 0.931 . S
H1748 C1763 0.930 . S
C1749 H1737 0.930 . S
C1749 C1750 1.399 . S
C1749 C1754 1.399 . S
C1750 C1749 1.399 . S
C1750 C1751 1.376 . S
C1751 H1738 0.930 . S
C1751 C1750 1.376 . S
C1751 C1752 1.388 . S
C1752 H1739 0.930 . S
C1752 C1751 1.388 . S
C1752 C1753 1.390 . S
C1753 C1752 1.390 . S
C1753 C1754 1.394 . S
C1753 C1759 1.465 . S
C1754 C1749 1.399 . S
C1754 C1753 1.394 . S
C1754 C1755 1.516 . S
C1755 C1754 1.516 . S
C1755 C1756 1.502 . S
C1755 C1757 1.561 . S
C1755 C1758 1.526 . S
C1756 H1740 0.959 . S
C1756 H1741 0.959 . S
C1756 H1742 0.961 . S
C1756 C1755 1.502 . S
C1757 H1743 0.960 . S
C1757 H1744 0.961 . S
C1757 H1745 0.959 . S
C1757 C1755 1.561 . S
C1758 C1755 1.526 . S
C1758 C1759 1.396 . S
C1758 C1763 1.390 . S
C1759 C1753 1.465 . S
C1759 C1758 1.396 . S
C1759 C1760 1.399 . S
C1760 H1746 0.929 . S
C1760 C1759 1.399 . S
C1760 C1761 1.385 . S
C1761 H1747 0.931 . S
C1761 C1760 1.385 . S
C1761 C1762 1.389 . S
C1762 C1761 1.389 . S
C1762 C1763 1.387 . S
C1763 H1748 0.930 . S
C1763 C1758 1.390 . S
C1763 C1762 1.387 . S
H1764 C1776 0.930 . S
H1765 C1778 0.930 . S
H1766 C1779 0.930 . S
H1767 C1783 0.959 . S
H1768 C1783 0.959 . S
H1769 C1783 0.961 . S
H1770 C1784 0.960 . S
H1771 C1784 0.961 . S
H1772 C1784 0.959 . S
H1773 C1787 0.929 . S
H1774 C1788 0.931 . S
H1775 C1790 0.930 . S
C1776 H1764 0.930 . S
C1776 C1777 1.399 . S
C1776 C1781 1.399 . S
C1777 C1776 1.399 . S
C1777 C1778 1.376 . S
C1778 H1765 0.930 . S
C1778 C1777 1.376 . S
C1778 C1779 1.388 . S
C1779 H1766 0.930 . S
C1779 C1778 1.388 . S
C1779 C1780 1.390 . S
C1780 C1779 1.390 . S
C1780 C1781 1.394 . S
C1780 C1786 1.465 . S
C1781 C1776 1.399 . S
C1781 C1780 1.394 . S
C1781 C1782 1.516 . S
C1782 C1781 1.516 . S
C1782 C1783 1.502 . S
C1782 C1784 1.561 . S
C1782 C1785 1.526 . S
C1783 H1767 0.959 . S
C1783 H1768 0.959 . S
C1783 H1769 0.961 . S
C1783 C1782 1.502 . S
C1784 H1770 0.960 . S
C1784 H1771 0.961 . S
C1784 H1772 0.959 . S
C1784 C1782 1.561 . S
C1785 C1782 1.526 . S
C1785 C1786 1.396 . S
C1785 C1790 1.390 . S
C1786 C1780 1.465 . S
C1786 C1785 1.396 . S
C1786 C1787 1.399 . S
C1787 H1773 0.929 . S
C1787 C1786 1.399 . S
C1787 C1788 1.385 . S
C1788 H1774 0.931 . S
C1788 C1787 1.385 . S
C1788 C1789 1.389 . S
C1789 C1788 1.389 . S
C1789 C1790 1.387 . S
C1790 H1775 0.930 . S
C1790 C1785 1.390 . S
C1790 C1789 1.387 . S
H1791 C1803 0.930 . S
H1792 C1805 0.930 . S
H1793 C1806 0.930 . S
H1794 C1810 0.959 . S
H1795 C1810 0.959 . S
H1796 C1810 0.961 . S
H1797 C1811 0.960 . S
H1798 C1811 0.961 . S
H1799 C1811 0.959 . S
H1800 C1814 0.929 . S
H1801 C1815 0.931 . S
H1802 C1817 0.930 . S
C1803 H1791 0.930 . S
C1803 C1804 1.399 . S
C1803 C1808 1.399 1_565 S
C1804 C1803 1.399 . S
C1804 C1805 1.376 . S
C1805 H1792 0.930 . S
C1805 C1804 1.376 . S
C1805 C1806 1.388 . S
C1806 H1793 0.930 . S
C1806 C1805 1.388 . S
C1806 C1807 1.390 1_565 S
C1807 C1806 1.390 1_545 S
C1807 C1808 1.394 . S
C1807 C1813 1.465 . S
C1808 C1803 1.399 1_545 S
C1808 C1807 1.394 . S
C1808 C1809 1.516 . S
C1809 C1808 1.516 . S
C1809 C1810 1.502 . S
C1809 C1811 1.561 . S
C1809 C1812 1.526 . S
C1810 H1794 0.959 . S
C1810 H1795 0.959 . S
C1810 H1796 0.961 . S
C1810 C1809 1.502 . S
C1811 H1797 0.960 . S
C1811 H1798 0.961 . S
C1811 H1799 0.959 . S
C1811 C1809 1.561 . S
C1812 C1809 1.526 . S
C1812 C1813 1.396 . S
C1812 C1817 1.390 . S
C1813 C1807 1.465 . S
C1813 C1812 1.396 . S
C1813 C1814 1.399 . S
C1814 H1800 0.929 . S
C1814 C1813 1.399 . S
C1814 C1815 1.385 . S
C1815 H1801 0.931 . S
C1815 C1814 1.385 . S
C1815 C1816 1.389 . S
C1816 C1815 1.389 . S
C1816 C1817 1.387 . S
C1817 H1802 0.930 . S
C1817 C1812 1.390 . S
C1817 C1816 1.387 . S
H1818 C1830 0.930 . S
H1819 C1832 0.930 . S
H1820 C1833 0.930 . S
H1821 C1837 0.959 . S
H1822 C1837 0.959 . S
H1823 C1837 0.961 . S
H1824 C1838 0.960 . S
H1825 C1838 0.961 . S
H1826 C1838 0.959 . S
H1827 C1841 0.929 . S
H1828 C1842 0.931 . S
H1829 C1844 0.930 . S
C1830 H1818 0.930 . S
C1830 C1831 1.399 . S
C1830 C1835 1.399 1_455 S
C1831 C1830 1.399 . S
C1831 C1832 1.376 1_455 S
C1832 H1819 0.930 . S
C1832 C1831 1.376 1_655 S
C1832 C1833 1.388 . S
C1833 H1820 0.930 . S
C1833 C1832 1.388 . S
C1833 C1834 1.390 . S
C1834 C1833 1.390 . S
C1834 C1835 1.394 . S
C1834 C1840 1.465 . S
C1835 C1830 1.399 1_655 S
C1835 C1834 1.394 . S
C1835 C1836 1.516 . S
C1836 C1835 1.516 . S
C1836 C1837 1.502 . S
C1836 C1838 1.561 . S
C1836 C1839 1.526 . S
C1837 H1821 0.959 . S
C1837 H1822 0.959 . S
C1837 H1823 0.961 . S
C1837 C1836 1.502 . S
C1838 H1824 0.960 . S
C1838 H1825 0.961 . S
C1838 H1826 0.959 . S
C1838 C1836 1.561 . S
C1839 C1836 1.526 . S
C1839 C1840 1.396 . S
C1839 C1844 1.390 . S
C1840 C1834 1.465 . S
C1840 C1839 1.396 . S
C1840 C1841 1.399 . S
C1841 H1827 0.929 . S
C1841 C1840 1.399 . S
C1841 C1842 1.385 . S
C1842 H1828 0.931 . S
C1842 C1841 1.385 . S
C1842 C1843 1.389 . S
C1843 C1842 1.389 . S
C1843 C1844 1.387 . S
C1844 H1829 0.930 . S
C1844 C1839 1.390 . S
C1844 C1843 1.387 . S
H1845 C1857 0.930 . S
H1846 C1859 0.930 . S
H1847 C1860 0.930 . S
H1848 C1864 0.959 . S
H1849 C1864 0.959 . S
H1850 C1864 0.961 . S
H1851 C1865 0.960 . S
H1852 C1865 0.961 . S
H1853 C1865 0.959 . S
H1854 C1868 0.929 . S
H1855 C1869 0.931 . S
H1856 C1871 0.930 . S
C1857 H1845 0.930 . S
C1857 C1858 1.399 . S
C1857 C1862 1.399 . S
C1858 C1857 1.399 . S
C1858 C1859 1.376 . S
C1859 H1846 0.930 . S
C1859 C1858 1.376 . S
C1859 C1860 1.388 . S
C1860 H1847 0.930 . S
C1860 C1859 1.388 . S
C1860 C1861 1.390 . S
C1861 C1860 1.390 . S
C1861 C1862 1.394 . S
C1861 C1867 1.465 . S
C1862 C1857 1.399 . S
C1862 C1861 1.394 . S
C1862 C1863 1.516 . S
C1863 C1862 1.516 . S
C1863 C1864 1.502 . S
C1863 C1865 1.561 . S
C1863 C1866 1.526 . S
C1864 H1848 0.959 . S
C1864 H1849 0.959 . S
C1864 H1850 0.961 . S
C1864 C1863 1.502 . S
C1865 H1851 0.960 . S
C1865 H1852 0.961 . S
C1865 H1853 0.959 . S
C1865 C1863 1.561 . S
C1866 C1863 1.526 . S
C1866 C1867 1.396 . S
C1866 C1871 1.390 . S
C1867 C1861 1.465 . S
C1867 C1866 1.396 . S
C1867 C1868 1.399 . S
C1868 H1854 0.929 . S
C1868 C1867 1.399 . S
C1868 C1869 1.385 . S
C1869 H1855 0.931 . S
C1869 C1868 1.385 . S
C1869 C1870 1.389 . S
C1870 C1869 1.389 . S
C1870 C1871 1.387 . S
C1871 H1856 0.930 . S
C1871 C1866 1.390 . S
C1871 C1870 1.387 . S
H1872 C1884 0.930 . S
H1873 C1886 0.930 . S
H1874 C1887 0.930 . S
H1875 C1891 0.959 . S
H1876 C1891 0.959 . S
H1877 C1891 0.961 . S
H1878 C1892 0.960 . S
H1879 C1892 0.961 . S
H1880 C1892 0.959 . S
H1881 C1895 0.929 . S
H1882 C1896 0.931 . S
H1883 C1898 0.930 . S
C1884 H1872 0.930 . S
C1884 C1885 1.399 . S
C1884 C1889 1.399 1_455 S
C1885 C1884 1.399 . S
C1885 C1886 1.376 . S
C1886 H1873 0.930 . S
C1886 C1885 1.376 . S
C1886 C1887 1.388 1_455 S
C1887 H1874 0.930 . S
C1887 C1886 1.388 1_655 S
C1887 C1888 1.390 . S
C1888 C1887 1.390 . S
C1888 C1889 1.394 . S
C1888 C1894 1.465 . S
C1889 C1884 1.399 1_655 S
C1889 C1888 1.394 . S
C1889 C1890 1.516 . S
C1890 C1889 1.516 . S
C1890 C1891 1.502 . S
C1890 C1892 1.561 . S
C1890 C1893 1.526 . S
C1891 H1875 0.959 . S
C1891 H1876 0.959 . S
C1891 H1877 0.961 . S
C1891 C1890 1.502 . S
C1892 H1878 0.960 . S
C1892 H1879 0.961 . S
C1892 H1880 0.959 . S
C1892 C1890 1.561 . S
C1893 C1890 1.526 . S
C1893 C1894 1.396 . S
C1893 C1898 1.390 . S
C1894 C1888 1.465 . S
C1894 C1893 1.396 . S
C1894 C1895 1.399 . S
C1895 H1881 0.929 . S
C1895 C1894 1.399 . S
C1895 C1896 1.385 . S
C1896 H1882 0.931 . S
C1896 C1895 1.385 . S
C1896 C1897 1.389 . S
C1897 C1896 1.389 . S
C1897 C1898 1.387 . S
C1898 H1883 0.930 . S
C1898 C1893 1.390 . S
C1898 C1897 1.387 . S
H1899 C1911 0.930 . S
H1900 C1913 0.930 . S
H1901 C1914 0.930 . S
H1902 C1918 0.959 . S
H1903 C1918 0.959 . S
H1904 C1918 0.961 . S
H1905 C1919 0.960 . S
H1906 C1919 0.961 . S
H1907 C1919 0.959 . S
H1908 C1922 0.929 . S
H1909 C1923 0.931 . S
H1910 C1925 0.930 . S
C1911 H1899 0.930 . S
C1911 C1912 1.399 . S
C1911 C1916 1.399 . S
C1912 C1911 1.399 . S
C1912 C1913 1.376 . S
C1913 H1900 0.930 . S
C1913 C1912 1.376 . S
C1913 C1914 1.388 . S
C1914 H1901 0.930 . S
C1914 C1913 1.388 . S
C1914 C1915 1.390 . S
C1915 C1914 1.390 . S
C1915 C1916 1.394 . S
C1915 C1921 1.465 . S
C1916 C1911 1.399 . S
C1916 C1915 1.394 . S
C1916 C1917 1.516 . S
C1917 C1916 1.516 . S
C1917 C1918 1.502 . S
C1917 C1919 1.561 . S
C1917 C1920 1.526 . S
C1918 H1902 0.959 . S
C1918 H1903 0.959 . S
C1918 H1904 0.961 . S
C1918 C1917 1.502 . S
C1919 H1905 0.960 . S
C1919 H1906 0.961 . S
C1919 H1907 0.959 . S
C1919 C1917 1.561 . S
C1920 C1917 1.526 . S
C1920 C1921 1.396 . S
C1920 C1925 1.390 . S
C1921 C1915 1.465 . S
C1921 C1920 1.396 . S
C1921 C1922 1.399 . S
C1922 H1908 0.929 . S
C1922 C1921 1.399 . S
C1922 C1923 1.385 . S
C1923 H1909 0.931 . S
C1923 C1922 1.385 . S
C1923 C1924 1.389 . S
C1924 C1923 1.389 . S
C1924 C1925 1.387 . S
C1925 H1910 0.930 . S
C1925 C1920 1.390 . S
C1925 C1924 1.387 . S
H1926 C1938 0.930 . S
H1927 C1940 0.930 . S
H1928 C1941 0.930 1_545 S
H1929 C1945 0.959 . S
H1930 C1945 0.959 . S
H1931 C1945 0.961 . S
H1932 C1946 0.960 . S
H1933 C1946 0.961 . S
H1934 C1946 0.959 . S
H1935 C1949 0.929 . S
H1936 C1950 0.931 . S
H1937 C1952 0.930 . S
C1938 H1926 0.930 . S
C1938 C1939 1.399 . S
C1938 C1943 1.399 1_565 S
C1939 C1938 1.399 . S
C1939 C1940 1.376 . S
C1940 H1927 0.930 . S
C1940 C1939 1.376 . S
C1940 C1941 1.388 . S
C1941 H1928 0.930 1_565 S
C1941 C1940 1.388 . S
C1941 C1942 1.390 1_565 S
C1942 C1941 1.390 1_545 S
C1942 C1943 1.394 . S
C1942 C1948 1.465 . S
C1943 C1938 1.399 1_545 S
C1943 C1942 1.394 . S
C1943 C1944 1.516 . S
C1944 C1943 1.516 . S
C1944 C1945 1.502 . S
C1944 C1946 1.561 . S
C1944 C1947 1.526 . S
C1945 H1929 0.959 . S
C1945 H1930 0.959 . S
C1945 H1931 0.961 . S
C1945 C1944 1.502 . S
C1946 H1932 0.960 . S
C1946 H1933 0.961 . S
C1946 H1934 0.959 . S
C1946 C1944 1.561 . S
C1947 C1944 1.526 . S
C1947 C1948 1.396 . S
C1947 C1952 1.390 . S
C1948 C1942 1.465 . S
C1948 C1947 1.396 . S
C1948 C1949 1.399 . S
C1949 H1935 0.929 . S
C1949 C1948 1.399 . S
C1949 C1950 1.385 . S
C1950 H1936 0.931 . S
C1950 C1949 1.385 . S
C1950 C1951 1.389 . S
C1951 C1950 1.389 . S
C1951 C1952 1.387 . S
C1952 H1937 0.930 . S
C1952 C1947 1.390 . S
C1952 C1951 1.387 . S
H1953 C1965 0.930 . S
H1954 C1967 0.930 . S
H1955 C1968 0.930 . S
H1956 C1972 0.959 . S
H1957 C1972 0.959 . S
H1958 C1972 0.961 . S
H1959 C1973 0.960 . S
H1960 C1973 0.961 . S
H1961 C1973 0.959 . S
H1962 C1976 0.929 . S
H1963 C1977 0.931 . S
H1964 C1979 0.930 . S
C1965 H1953 0.930 . S
C1965 C1966 1.399 . S
C1965 C1970 1.399 . S
C1966 C1965 1.399 . S
C1966 C1967 1.376 . S
C1967 H1954 0.930 . S
C1967 C1966 1.376 . S
C1967 C1968 1.388 . S
C1968 H1955 0.930 . S
C1968 C1967 1.388 . S
C1968 C1969 1.390 . S
C1969 C1968 1.390 . S
C1969 C1970 1.394 . S
C1969 C1975 1.465 . S
C1970 C1965 1.399 . S
C1970 C1969 1.394 . S
C1970 C1971 1.516 . S
C1971 C1970 1.516 . S
C1971 C1972 1.502 . S
C1971 C1973 1.561 . S
C1971 C1974 1.526 . S
C1972 H1956 0.959 . S
C1972 H1957 0.959 . S
C1972 H1958 0.961 . S
C1972 C1971 1.502 . S
C1973 H1959 0.960 . S
C1973 H1960 0.961 . S
C1973 H1961 0.959 . S
C1973 C1971 1.561 . S
C1974 C1971 1.526 . S
C1974 C1975 1.396 . S
C1974 C1979 1.390 . S
C1975 C1969 1.465 . S
C1975 C1974 1.396 . S
C1975 C1976 1.399 . S
C1976 H1962 0.929 . S
C1976 C1975 1.399 . S
C1976 C1977 1.385 . S
C1977 H1963 0.931 . S
C1977 C1976 1.385 . S
C1977 C1978 1.389 . S
C1978 C1977 1.389 . S
C1978 C1979 1.387 . S
C1979 H1964 0.930 . S
C1979 C1974 1.390 . S
C1979 C1978 1.387 . S
H1980 C1992 0.930 . S
H1981 C1994 0.930 . S
H1982 C1995 0.930 . S
H1983 C1999 0.959 . S
H1984 C1999 0.959 . S
H1985 C1999 0.961 . S
H1986 C2000 0.960 . S
H1987 C2000 0.961 . S
H1988 C2000 0.959 . S
H1989 C2003 0.929 . S
H1990 C2004 0.931 . S
H1991 C2006 0.930 . S
C1992 H1980 0.930 . S
C1992 C1993 1.399 . S
C1992 C1997 1.399 . S
C1993 C1992 1.399 . S
C1993 C1994 1.376 . S
C1994 H1981 0.930 . S
C1994 C1993 1.376 . S
C1994 C1995 1.388 . S
C1995 H1982 0.930 . S
C1995 C1994 1.388 . S
C1995 C1996 1.390 . S
C1996 C1995 1.390 . S
C1996 C1997 1.394 . S
C1996 C2002 1.465 . S
C1997 C1992 1.399 . S
C1997 C1996 1.394 . S
C1997 C1998 1.516 . S
C1998 C1997 1.516 . S
C1998 C1999 1.502 . S
C1998 C2000 1.561 . S
C1998 C2001 1.526 . S
C1999 H1983 0.959 . S
C1999 H1984 0.959 . S
C1999 H1985 0.961 . S
C1999 C1998 1.502 . S
C2000 H1986 0.960 . S
C2000 H1987 0.961 . S
C2000 H1988 0.959 . S
C2000 C1998 1.561 . S
C2001 C1998 1.526 . S
C2001 C2002 1.396 . S
C2001 C2006 1.390 . S
C2002 C1996 1.465 . S
C2002 C2001 1.396 . S
C2002 C2003 1.399 . S
C2003 H1989 0.929 . S
C2003 C2002 1.399 . S
C2003 C2004 1.385 . S
C2004 H1990 0.931 . S
C2004 C2003 1.385 . S
C2004 C2005 1.389 . S
C2005 C2004 1.389 . S
C2005 C2006 1.387 . S
C2006 H1991 0.930 . S
C2006 C2001 1.390 . S
C2006 C2005 1.387 . S
H2007 C2019 0.930 . S
H2008 C2021 0.930 . S
H2009 C2022 0.930 . S
H2010 C2026 0.959 . S
H2011 C2026 0.959 . S
H2012 C2026 0.961 . S
H2013 C2027 0.960 . S
H2014 C2027 0.961 . S
H2015 C2027 0.959 . S
H2016 C2030 0.929 . S
H2017 C2031 0.931 . S
H2018 C2033 0.930 . S
C2019 H2007 0.930 . S
C2019 C2020 1.399 . S
C2019 C2024 1.399 . S
C2020 C2019 1.399 . S
C2020 C2021 1.376 . S
C2021 H2008 0.930 . S
C2021 C2020 1.376 . S
C2021 C2022 1.388 . S
C2022 H2009 0.930 . S
C2022 C2021 1.388 . S
C2022 C2023 1.390 . S
C2023 C2022 1.390 . S
C2023 C2024 1.394 . S
C2023 C2029 1.465 . S
C2024 C2019 1.399 . S
C2024 C2023 1.394 . S
C2024 C2025 1.516 . S
C2025 C2024 1.516 . S
C2025 C2026 1.502 . S
C2025 C2027 1.561 . S
C2025 C2028 1.526 . S
C2026 H2010 0.959 . S
C2026 H2011 0.959 . S
C2026 H2012 0.961 . S
C2026 C2025 1.502 . S
C2027 H2013 0.960 . S
C2027 H2014 0.961 . S
C2027 H2015 0.959 . S
C2027 C2025 1.561 . S
C2028 C2025 1.526 . S
C2028 C2029 1.396 . S
C2028 C2033 1.390 . S
C2029 C2023 1.465 . S
C2029 C2028 1.396 . S
C2029 C2030 1.399 . S
C2030 H2016 0.929 . S
C2030 C2029 1.399 . S
C2030 C2031 1.385 . S
C2031 H2017 0.931 . S
C2031 C2030 1.385 . S
C2031 C2032 1.389 . S
C2032 C2031 1.389 . S
C2032 C2033 1.387 . S
C2033 H2018 0.930 . S
C2033 C2028 1.390 . S
C2033 C2032 1.387 . S
H2034 C2046 0.930 . S
H2035 C2048 0.921 1_545 S
H2036 C2049 0.930 . S
H2037 C2053 0.959 . S
H2038 C2053 0.959 . S
H2039 C2053 0.961 . S
H2040 C2054 0.960 . S
H2041 C2054 0.961 . S
H2042 C2054 0.959 . S
H2043 C2057 0.929 . S
H2044 C2058 0.931 . S
H2045 C2060 0.930 . S
C2046 H2034 0.930 . S
C2046 C2047 1.399 . S
C2046 C2051 1.399 . S
C2047 C2046 1.399 . S
C2047 C2048 1.376 . S
C2048 H2035 0.921 1_565 S
C2048 C2047 1.376 . S
C2048 C2049 1.388 1_565 S
C2049 H2036 0.930 . S
C2049 C2048 1.388 1_545 S
C2049 C2050 1.390 1_545 S
C2050 C2049 1.390 1_565 S
C2050 C2051 1.394 . S
C2050 C2056 1.465 . S
C2051 C2046 1.399 . S
C2051 C2050 1.394 . S
C2051 C2052 1.516 . S
C2052 C2051 1.516 . S
C2052 C2053 1.502 . S
C2052 C2054 1.561 . S
C2052 C2055 1.526 . S
C2053 H2037 0.959 . S
C2053 H2038 0.959 . S
C2053 H2039 0.961 . S
C2053 C2052 1.502 . S
C2054 H2040 0.960 . S
C2054 H2041 0.961 . S
C2054 H2042 0.959 . S
C2054 C2052 1.561 . S
C2055 C2052 1.526 . S
C2055 C2056 1.396 . S
C2055 C2060 1.390 . S
C2056 C2050 1.465 . S
C2056 C2055 1.396 . S
C2056 C2057 1.399 1_565 S
C2057 H2043 0.929 . S
C2057 C2056 1.399 1_545 S
C2057 C2058 1.385 . S
C2058 H2044 0.931 . S
C2058 C2057 1.385 . S
C2058 C2059 1.389 1_545 S
C2059 C2058 1.389 1_565 S
C2059 C2060 1.387 . S
C2060 H2045 0.930 . S
C2060 C2055 1.390 . S
C2060 C2059 1.387 . S
H2061 C2073 0.930 . S
H2062 C2075 0.930 . S
H2063 C2076 0.930 . S
H2064 C2080 0.959 . S
H2065 C2080 0.959 . S
H2066 C2080 0.961 . S
H2067 C2081 0.960 . S
H2068 C2081 0.961 . S
H2069 C2081 0.959 . S
H2070 C2084 0.929 . S
H2071 C2085 0.931 . S
H2072 C2087 0.930 . S
C2073 H2061 0.930 . S
C2073 C2074 1.399 . S
C2073 C2078 1.399 . S
C2074 C2073 1.399 . S
C2074 C2075 1.376 . S
C2075 H2062 0.930 . S
C2075 C2074 1.376 . S
C2075 C2076 1.388 . S
C2076 H2063 0.930 . S
C2076 C2075 1.388 . S
C2076 C2077 1.390 . S
C2077 C2076 1.390 . S
C2077 C2078 1.394 . S
C2077 C2083 1.465 . S
C2078 C2073 1.399 . S
C2078 C2077 1.394 . S
C2078 C2079 1.516 . S
C2079 C2078 1.516 . S
C2079 C2080 1.502 . S
C2079 C2081 1.561 1_455 S
C2079 C2082 1.526 . S
C2080 H2064 0.959 . S
C2080 H2065 0.959 . S
C2080 H2066 0.961 . S
C2080 C2079 1.502 . S
C2081 H2067 0.960 . S
C2081 H2068 0.961 . S
C2081 H2069 0.959 . S
C2081 C2079 1.561 1_655 S
C2082 C2079 1.526 . S
C2082 C2083 1.396 . S
C2082 C2087 1.390 . S
C2083 C2077 1.465 . S
C2083 C2082 1.396 . S
C2083 C2084 1.399 . S
C2084 H2070 0.929 . S
C2084 C2083 1.399 . S
C2084 C2085 1.385 . S
C2085 H2071 0.931 . S
C2085 C2084 1.385 . S
C2085 C2086 1.389 . S
C2086 C2085 1.389 . S
C2086 C2087 1.387 . S
C2087 H2072 0.930 . S
C2087 C2082 1.390 . S
C2087 C2086 1.387 . S
H2088 C2100 0.930 . S
H2089 C2102 0.930 . S
H2090 C2103 0.930 . S
H2091 C2107 0.959 . S
H2092 C2107 0.959 . S
H2093 C2107 0.961 . S
H2094 C2108 0.960 . S
H2095 C2108 0.961 . S
H2096 C2108 0.959 . S
H2097 C2111 0.929 . S
H2098 C2112 0.931 . S
H2099 C2114 0.930 . S
C2100 H2088 0.930 . S
C2100 C2101 1.399 . S
C2100 C2105 1.399 . S
C2101 C2100 1.399 . S
C2101 C2102 1.376 . S
C2102 H2089 0.930 . S
C2102 C2101 1.376 . S
C2102 C2103 1.388 . S
C2103 H2090 0.930 . S
C2103 C2102 1.388 . S
C2103 C2104 1.390 . S
C2104 C2103 1.390 . S
C2104 C2105 1.394 . S
C2104 C2110 1.465 . S
C2105 C2100 1.399 . S
C2105 C2104 1.394 . S
C2105 C2106 1.516 . S
C2106 C2105 1.516 . S
C2106 C2107 1.502 . S
C2106 C2108 1.561 . S
C2106 C2109 1.526 . S
C2107 H2091 0.959 . S
C2107 H2092 0.959 . S
C2107 H2093 0.961 . S
C2107 C2106 1.502 . S
C2108 H2094 0.960 . S
C2108 H2095 0.961 . S
C2108 H2096 0.959 . S
C2108 C2106 1.561 . S
C2109 C2106 1.526 . S
C2109 C2110 1.396 . S
C2109 C2114 1.390 . S
C2110 C2104 1.465 . S
C2110 C2109 1.396 . S
C2110 C2111 1.399 . S
C2111 H2097 0.929 . S
C2111 C2110 1.399 . S
C2111 C2112 1.385 . S
C2112 H2098 0.931 . S
C2112 C2111 1.385 . S
C2112 C2113 1.389 . S
C2113 C2112 1.389 . S
C2113 C2114 1.387 . S
C2114 H2099 0.930 . S
C2114 C2109 1.390 . S
C2114 C2113 1.387 . S
H2115 C2127 0.930 . S
H2116 C2129 0.930 . S
H2117 C2130 0.930 . S
H2118 C2134 0.959 . S
H2119 C2134 0.959 . S
H2120 C2134 0.961 . S
H2121 C2135 0.960 . S
H2122 C2135 0.961 . S
H2123 C2135 0.959 1_655 S
H2124 C2138 0.929 . S
H2125 C2139 0.931 . S
H2126 C2141 0.928 . S
C2127 H2115 0.930 . S
C2127 C2128 1.399 1_455 S
C2127 C2132 1.397 1_455 S
C2128 C2127 1.399 1_655 S
C2128 C2129 1.376 . S
C2129 H2116 0.930 . S
C2129 C2128 1.376 . S
C2129 C2130 1.388 . S
C2130 H2117 0.930 . S
C2130 C2129 1.388 . S
C2130 C2131 1.390 . S
C2131 C2130 1.390 . S
C2131 C2132 1.398 . S
C2131 C2137 1.465 . S
C2132 C2127 1.397 1_655 S
C2132 C2131 1.398 . S
C2132 C2133 1.515 1_655 S
C2133 C2132 1.515 1_455 S
C2133 C2134 1.502 . S
C2133 C2135 1.561 . S
C2133 C2136 1.526 1_455 S
C2134 H2118 0.959 . S
C2134 H2119 0.959 . S
C2134 H2120 0.961 . S
C2134 C2133 1.502 . S
C2135 H2121 0.960 . S
C2135 H2122 0.961 . S
C2135 H2123 0.959 1_455 S
C2135 C2133 1.561 . S
C2136 C2133 1.526 1_655 S
C2136 C2137 1.396 . S
C2136 C2141 1.389 1_655 S
C2137 C2131 1.465 . S
C2137 C2136 1.396 . S
C2137 C2138 1.399 . S
C2138 H2124 0.929 . S
C2138 C2137 1.399 . S
C2138 C2139 1.385 . S
C2139 H2125 0.931 . S
C2139 C2138 1.385 . S
C2139 C2140 1.389 . S
C2140 C2139 1.389 . S
C2140 C2141 1.389 1_655 S
C2141 H2126 0.928 . S
C2141 C2136 1.389 1_455 S
C2141 C2140 1.389 1_455 S
H2142 C2154 0.930 . S
H2143 C2156 0.930 . S
H2144 C2157 0.930 . S
H2145 C2161 0.959 . S
H2146 C2161 0.959 . S
H2147 C2161 0.961 . S
H2148 C2162 0.960 . S
H2149 C2162 0.961 . S
H2150 C2162 0.959 . S
H2151 C2165 0.929 . S
H2152 C2166 0.931 . S
H2153 C2168 0.930 . S
C2154 H2142 0.930 . S
C2154 C2155 1.399 . S
C2154 C2159 1.399 . S
C2155 C2154 1.399 . S
C2155 C2156 1.376 . S
C2156 H2143 0.930 . S
C2156 C2155 1.376 . S
C2156 C2157 1.388 . S
C2157 H2144 0.930 . S
C2157 C2156 1.388 . S
C2157 C2158 1.390 . S
C2158 C2157 1.390 . S
C2158 C2159 1.394 . S
C2158 C2164 1.465 . S
C2159 C2154 1.399 . S
C2159 C2158 1.394 . S
C2159 C2160 1.516 . S
C2160 C2159 1.516 . S
C2160 C2161 1.502 . S
C2160 C2162 1.561 . S
C2160 C2163 1.526 . S
C2161 H2145 0.959 . S
C2161 H2146 0.959 . S
C2161 H2147 0.961 . S
C2161 C2160 1.502 . S
C2162 H2148 0.960 . S
C2162 H2149 0.961 . S
C2162 H2150 0.959 . S
C2162 C2160 1.561 . S
C2163 C2160 1.526 . S
C2163 C2164 1.396 . S
C2163 C2168 1.390 . S
C2164 C2158 1.465 . S
C2164 C2163 1.396 . S
C2164 C2165 1.399 . S
C2165 H2151 0.929 . S
C2165 C2164 1.399 . S
C2165 C2166 1.385 . S
C2166 H2152 0.931 . S
C2166 C2165 1.385 . S
C2166 C2167 1.389 . S
C2167 C2166 1.389 . S
C2167 C2168 1.387 . S
C2168 H2153 0.930 . S
C2168 C2163 1.390 . S
C2168 C2167 1.387 . S
H2169 C2181 0.930 . S
H2170 C2183 0.933 1_565 S
H2171 C2184 0.961 . S
H2172 C2188 0.959 . S
H2173 C2188 0.959 . S
H2174 C2188 0.961 . S
H2175 C2189 0.960 . S
H2176 C2189 0.961 . S
H2177 C2189 0.959 . S
H2178 C2192 0.929 . S
H2179 C2193 0.931 . S
H2180 C2195 0.930 . S
C2181 H2169 0.930 . S
C2181 C2182 1.399 . S
C2181 C2186 1.399 . S
C2182 C2181 1.399 . S
C2182 C2183 1.376 . S
C2183 H2170 0.933 1_545 S
C2183 C2182 1.376 . S
C2183 C2184 1.373 1_545 S
C2184 H2171 0.961 . S
C2184 C2183 1.373 1_565 S
C2184 C2185 1.374 1_565 S
C2185 C2184 1.374 1_545 S
C2185 C2186 1.394 . S
C2185 C2191 1.465 . S
C2186 C2181 1.399 . S
C2186 C2185 1.394 . S
C2186 C2187 1.516 . S
C2187 C2186 1.516 . S
C2187 C2188 1.502 . S
C2187 C2189 1.561 . S
C2187 C2190 1.526 . S
C2188 H2172 0.959 . S
C2188 H2173 0.959 . S
C2188 H2174 0.961 . S
C2188 C2187 1.502 . S
C2189 H2175 0.960 . S
C2189 H2176 0.961 . S
C2189 H2177 0.959 . S
C2189 C2187 1.561 . S
C2190 C2187 1.526 . S
C2190 C2191 1.396 . S
C2190 C2195 1.390 . S
C2191 C2185 1.465 . S
C2191 C2190 1.396 . S
C2191 C2192 1.399 1_545 S
C2192 H2178 0.929 . S
C2192 C2191 1.399 1_565 S
C2192 C2193 1.385 . S
C2193 H2179 0.931 . S
C2193 C2192 1.385 . S
C2193 C2194 1.389 1_565 S
C2194 C2193 1.389 1_545 S
C2194 C2195 1.387 . S
C2195 H2180 0.930 . S
C2195 C2190 1.390 . S
C2195 C2194 1.387 . S
H2196 C2208 0.930 . S
H2197 C2210 0.930 . S
H2198 C2211 0.930 . S
H2199 C2215 0.959 . S
H2200 C2215 0.959 . S
H2201 C2215 0.961 . S
H2202 C2216 0.960 . S
H2203 C2216 0.961 . S
H2204 C2216 0.959 . S
H2205 C2219 0.929 . S
H2206 C2220 0.931 . S
H2207 C2222 0.930 . S
C2208 H2196 0.930 . S
C2208 C2209 1.399 . S
C2208 C2213 1.399 . S
C2209 C2208 1.399 . S
C2209 C2210 1.376 . S
C2210 H2197 0.930 . S
C2210 C2209 1.376 . S
C2210 C2211 1.388 . S
C2211 H2198 0.930 . S
C2211 C2210 1.388 . S
C2211 C2212 1.390 . S
C2212 C2211 1.390 . S
C2212 C2213 1.394 . S
C2212 C2218 1.465 . S
C2213 C2208 1.399 . S
C2213 C2212 1.394 . S
C2213 C2214 1.516 . S
C2214 C2213 1.516 . S
C2214 C2215 1.502 . S
C2214 C2216 1.561 . S
C2214 C2217 1.526 . S
C2215 H2199 0.959 . S
C2215 H2200 0.959 . S
C2215 H2201 0.961 . S
C2215 C2214 1.502 . S
C2216 H2202 0.960 . S
C2216 H2203 0.961 . S
C2216 H2204 0.959 . S
C2216 C2214 1.561 . S
C2217 C2214 1.526 . S
C2217 C2218 1.396 . S
C2217 C2222 1.390 . S
C2218 C2212 1.465 . S
C2218 C2217 1.396 . S
C2218 C2219 1.399 . S
C2219 H2205 0.929 . S
C2219 C2218 1.399 . S
C2219 C2220 1.385 . S
C2220 H2206 0.931 . S
C2220 C2219 1.385 . S
C2220 C2221 1.389 . S
C2221 C2220 1.389 . S
C2221 C2222 1.387 . S
C2222 H2207 0.930 . S
C2222 C2217 1.390 . S
C2222 C2221 1.387 . S
H2223 C2235 0.930 . S
H2224 C2237 0.930 . S
H2225 C2238 0.930 . S
H2226 C2242 0.959 . S
H2227 C2242 0.959 . S
H2228 C2242 0.961 . S
H2229 C2243 0.960 . S
H2230 C2243 0.961 . S
H2231 C2243 0.959 . S
H2232 C2246 0.929 . S
H2233 C2247 0.931 . S
H2234 C2249 0.930 . S
C2235 H2223 0.930 . S
C2235 C2236 1.399 . S
C2235 C2240 1.399 . S
C2236 C2235 1.399 . S
C2236 C2237 1.376 . S
C2237 H2224 0.930 . S
C2237 C2236 1.376 . S
C2237 C2238 1.388 . S
C2238 H2225 0.930 . S
C2238 C2237 1.388 . S
C2238 C2239 1.390 . S
C2239 C2238 1.390 . S
C2239 C2240 1.394 . S
C2239 C2245 1.465 . S
C2240 C2235 1.399 . S
C2240 C2239 1.394 . S
C2240 C2241 1.516 . S
C2241 C2240 1.516 . S
C2241 C2242 1.502 . S
C2241 C2243 1.561 . S
C2241 C2244 1.526 . S
C2242 H2226 0.959 . S
C2242 H2227 0.959 . S
C2242 H2228 0.961 . S
C2242 C2241 1.502 . S
C2243 H2229 0.960 . S
C2243 H2230 0.961 . S
C2243 H2231 0.959 . S
C2243 C2241 1.561 . S
C2244 C2241 1.526 . S
C2244 C2245 1.396 . S
C2244 C2249 1.390 . S
C2245 C2239 1.465 . S
C2245 C2244 1.396 . S
C2245 C2246 1.399 . S
C2246 H2232 0.929 . S
C2246 C2245 1.399 . S
C2246 C2247 1.385 . S
C2247 H2233 0.931 . S
C2247 C2246 1.385 . S
C2247 C2248 1.389 . S
C2248 C2247 1.389 . S
C2248 C2249 1.387 . S
C2249 H2234 0.930 . S
C2249 C2244 1.390 . S
C2249 C2248 1.387 . S
H2250 C2262 0.930 . S
H2251 C2264 0.930 . S
H2252 C2265 0.930 . S
H2253 C2269 0.959 . S
H2254 C2269 0.959 . S
H2255 C2269 0.961 . S
H2256 C2270 0.960 . S
H2257 C2270 0.961 . S
H2258 C2270 0.959 . S
H2259 C2273 0.929 . S
H2260 C2274 0.931 . S
H2261 C2276 0.930 . S
C2262 H2250 0.930 . S
C2262 C2263 1.399 . S
C2262 C2267 1.399 . S
C2263 C2262 1.399 . S
C2263 C2264 1.376 . S
C2264 H2251 0.930 . S
C2264 C2263 1.376 . S
C2264 C2265 1.388 . S
C2265 H2252 0.930 . S
C2265 C2264 1.388 . S
C2265 C2266 1.390 . S
C2266 C2265 1.390 . S
C2266 C2267 1.394 . S
C2266 C2272 1.465 . S
C2267 C2262 1.399 . S
C2267 C2266 1.394 . S
C2267 C2268 1.516 . S
C2268 C2267 1.516 . S
C2268 C2269 1.502 . S
C2268 C2270 1.561 . S
C2268 C2271 1.526 . S
C2269 H2253 0.959 . S
C2269 H2254 0.959 . S
C2269 H2255 0.961 . S
C2269 C2268 1.502 . S
C2270 H2256 0.960 . S
C2270 H2257 0.961 . S
C2270 H2258 0.959 . S
C2270 C2268 1.561 . S
C2271 C2268 1.526 . S
C2271 C2272 1.396 . S
C2271 C2276 1.390 . S
C2272 C2266 1.465 . S
C2272 C2271 1.396 . S
C2272 C2273 1.399 . S
C2273 H2259 0.929 . S
C2273 C2272 1.399 . S
C2273 C2274 1.385 . S
C2274 H2260 0.931 . S
C2274 C2273 1.385 . S
C2274 C2275 1.389 . S
C2275 C2274 1.389 . S
C2275 C2276 1.387 . S
C2276 H2261 0.930 . S
C2276 C2271 1.390 . S
C2276 C2275 1.387 . S
H2277 C2289 0.930 . S
H2278 C2291 0.930 . S
H2279 C2292 0.930 . S
H2280 C2296 0.959 . S
H2281 C2296 0.959 . S
H2282 C2296 0.961 . S
H2283 C2297 0.960 . S
H2284 C2297 0.961 . S
H2285 C2297 0.959 . S
H2286 C2300 0.929 . S
H2287 C2301 0.931 . S
H2288 C2303 0.930 . S
C2289 H2277 0.930 . S
C2289 C2290 1.399 . S
C2289 C2294 1.399 . S
C2290 C2289 1.399 . S
C2290 C2291 1.376 . S
C2291 H2278 0.930 . S
C2291 C2290 1.376 . S
C2291 C2292 1.388 . S
C2292 H2279 0.930 . S
C2292 C2291 1.388 . S
C2292 C2293 1.390 . S
C2293 C2292 1.390 . S
C2293 C2294 1.394 . S
C2293 C2299 1.465 . S
C2294 C2289 1.399 . S
C2294 C2293 1.394 . S
C2294 C2295 1.516 . S
C2295 C2294 1.516 . S
C2295 C2296 1.502 . S
C2295 C2297 1.561 . S
C2295 C2298 1.526 . S
C2296 H2280 0.959 . S
C2296 H2281 0.959 . S
C2296 H2282 0.961 . S
C2296 C2295 1.502 . S
C2297 H2283 0.960 . S
C2297 H2284 0.961 . S
C2297 H2285 0.959 . S
C2297 C2295 1.561 . S
C2298 C2295 1.526 . S
C2298 C2299 1.396 . S
C2298 C2303 1.390 . S
C2299 C2293 1.465 . S
C2299 C2298 1.396 . S
C2299 C2300 1.399 . S
C2300 H2286 0.929 . S
C2300 C2299 1.399 . S
C2300 C2301 1.385 . S
C2301 H2287 0.931 . S
C2301 C2300 1.385 . S
C2301 C2302 1.389 . S
C2302 C2301 1.389 . S
C2302 C2303 1.387 . S
C2303 H2288 0.930 . S
C2303 C2298 1.390 . S
C2303 C2302 1.387 . S
H2304 C2316 0.930 . S
H2305 C2318 0.930 . S
H2306 C2319 0.930 . S
H2307 C2323 0.959 . S
H2308 C2323 0.959 . S
H2309 C2323 0.961 . S
H2310 C2324 0.960 . S
H2311 C2324 0.961 . S
H2312 C2324 0.959 . S
H2313 C2327 0.929 . S
H2314 C2328 0.931 . S
H2315 C2330 0.930 . S
C2316 H2304 0.930 . S
C2316 C2317 1.399 . S
C2316 C2321 1.399 . S
C2317 C2316 1.399 . S
C2317 C2318 1.376 . S
C2318 H2305 0.930 . S
C2318 C2317 1.376 . S
C2318 C2319 1.388 . S
C2319 H2306 0.930 . S
C2319 C2318 1.388 . S
C2319 C2320 1.390 . S
C2320 C2319 1.390 . S
C2320 C2321 1.394 . S
C2320 C2326 1.465 . S
C2321 C2316 1.399 . S
C2321 C2320 1.394 . S
C2321 C2322 1.516 . S
C2322 C2321 1.516 . S
C2322 C2323 1.502 . S
C2322 C2324 1.561 . S
C2322 C2325 1.526 . S
C2323 H2307 0.959 . S
C2323 H2308 0.959 . S
C2323 H2309 0.961 . S
C2323 C2322 1.502 . S
C2324 H2310 0.960 . S
C2324 H2311 0.961 . S
C2324 H2312 0.959 . S
C2324 C2322 1.561 . S
C2325 C2322 1.526 . S
C2325 C2326 1.396 . S
C2325 C2330 1.390 . S
C2326 C2320 1.465 . S
C2326 C2325 1.396 . S
C2326 C2327 1.399 . S
C2327 H2313 0.929 . S
C2327 C2326 1.399 . S
C2327 C2328 1.385 . S
C2328 H2314 0.931 . S
C2328 C2327 1.385 . S
C2328 C2329 1.389 . S
C2329 C2328 1.389 . S
C2329 C2330 1.387 . S
C2330 H2315 0.930 . S
C2330 C2325 1.390 . S
C2330 C2329 1.387 . S
H2331 C2343 0.930 . S
H2332 C2345 0.930 . S
H2333 C2346 0.930 . S
H2334 C2350 0.959 . S
H2335 C2350 0.959 . S
H2336 C2350 0.961 . S
H2337 C2351 0.960 . S
H2338 C2351 0.961 . S
H2339 C2351 0.959 . S
H2340 C2354 0.929 . S
H2341 C2355 0.931 . S
H2342 C2357 0.930 . S
C2343 H2331 0.930 . S
C2343 C2344 1.399 . S
C2343 C2348 1.399 . S
C2344 C2343 1.399 . S
C2344 C2345 1.376 . S
C2345 H2332 0.930 . S
C2345 C2344 1.376 . S
C2345 C2346 1.388 . S
C2346 H2333 0.930 . S
C2346 C2345 1.388 . S
C2346 C2347 1.390 . S
C2347 C2346 1.390 . S
C2347 C2348 1.394 . S
C2347 C2353 1.465 . S
C2348 C2343 1.399 . S
C2348 C2347 1.394 . S
C2348 C2349 1.516 . S
C2349 C2348 1.516 . S
C2349 C2350 1.502 . S
C2349 C2351 1.561 . S
C2349 C2352 1.526 . S
C2350 H2334 0.959 . S
C2350 H2335 0.959 . S
C2350 H2336 0.961 . S
C2350 C2349 1.502 . S
C2351 H2337 0.960 . S
C2351 H2338 0.961 . S
C2351 H2339 0.959 . S
C2351 C2349 1.561 . S
C2352 C2349 1.526 . S
C2352 C2353 1.396 . S
C2352 C2357 1.390 . S
C2353 C2347 1.465 . S
C2353 C2352 1.396 . S
C2353 C2354 1.399 . S
C2354 H2340 0.929 . S
C2354 C2353 1.399 . S
C2354 C2355 1.385 . S
C2355 H2341 0.931 . S
C2355 C2354 1.385 . S
C2355 C2356 1.389 . S
C2356 C2355 1.389 . S
C2356 C2357 1.387 . S
C2357 H2342 0.930 . S
C2357 C2352 1.390 . S
C2357 C2356 1.387 . S
H2358 C2370 0.930 . S
H2359 C2372 0.930 . S
H2360 C2373 0.930 . S
H2361 C2377 0.959 . S
H2362 C2377 0.959 . S
H2363 C2377 0.961 . S
H2364 C2378 0.960 . S
H2365 C2378 0.961 . S
H2366 C2378 0.959 . S
H2367 C2381 0.929 . S
H2368 C2382 0.931 . S
H2369 C2384 0.930 . S
C2370 H2358 0.930 . S
C2370 C2371 1.399 . S
C2370 C2375 1.399 . S
C2371 C2370 1.399 . S
C2371 C2372 1.376 . S
C2372 H2359 0.930 . S
C2372 C2371 1.376 . S
C2372 C2373 1.388 . S
C2373 H2360 0.930 . S
C2373 C2372 1.388 . S
C2373 C2374 1.390 . S
C2374 C2373 1.390 . S
C2374 C2375 1.394 . S
C2374 C2380 1.465 . S
C2375 C2370 1.399 . S
C2375 C2374 1.394 . S
C2375 C2376 1.516 . S
C2376 C2375 1.516 . S
C2376 C2377 1.502 . S
C2376 C2378 1.561 . S
C2376 C2379 1.526 . S
C2377 H2361 0.959 . S
C2377 H2362 0.959 . S
C2377 H2363 0.961 . S
C2377 C2376 1.502 . S
C2378 H2364 0.960 . S
C2378 H2365 0.961 . S
C2378 H2366 0.959 . S
C2378 C2376 1.561 . S
C2379 C2376 1.526 . S
C2379 C2380 1.396 . S
C2379 C2384 1.390 . S
C2380 C2374 1.465 . S
C2380 C2379 1.396 . S
C2380 C2381 1.399 . S
C2381 H2367 0.929 . S
C2381 C2380 1.399 . S
C2381 C2382 1.385 . S
C2382 H2368 0.931 . S
C2382 C2381 1.385 . S
C2382 C2383 1.389 . S
C2383 C2382 1.389 . S
C2383 C2384 1.387 . S
C2384 H2369 0.930 . S
C2384 C2379 1.390 . S
C2384 C2383 1.387 . S
H2385 C2397 0.930 . S
H2386 C2399 0.930 . S
H2387 C2400 0.930 . S
H2388 C2404 0.959 . S
H2389 C2404 0.959 . S
H2390 C2404 0.961 . S
H2391 C2405 0.960 . S
H2392 C2405 0.961 . S
H2393 C2405 0.959 . S
H2394 C2408 0.929 . S
H2395 C2409 0.931 . S
H2396 C2411 0.930 . S
C2397 H2385 0.930 . S
C2397 C2398 1.399 . S
C2397 C2402 1.399 . S
C2398 C2397 1.399 . S
C2398 C2399 1.376 . S
C2399 H2386 0.930 . S
C2399 C2398 1.376 . S
C2399 C2400 1.388 . S
C2400 H2387 0.930 . S
C2400 C2399 1.388 . S
C2400 C2401 1.390 . S
C2401 C2400 1.390 . S
C2401 C2402 1.394 . S
C2401 C2407 1.465 . S
C2402 C2397 1.399 . S
C2402 C2401 1.394 . S
C2402 C2403 1.516 . S
C2403 C2402 1.516 . S
C2403 C2404 1.502 . S
C2403 C2405 1.561 . S
C2403 C2406 1.526 . S
C2404 H2388 0.959 . S
C2404 H2389 0.959 . S
C2404 H2390 0.961 . S
C2404 C2403 1.502 . S
C2405 H2391 0.960 . S
C2405 H2392 0.961 . S
C2405 H2393 0.959 . S
C2405 C2403 1.561 . S
C2406 C2403 1.526 . S
C2406 C2407 1.396 . S
C2406 C2411 1.390 . S
C2407 C2401 1.465 . S
C2407 C2406 1.396 . S
C2407 C2408 1.399 . S
C2408 H2394 0.929 . S
C2408 C2407 1.399 . S
C2408 C2409 1.385 . S
C2409 H2395 0.931 . S
C2409 C2408 1.385 . S
C2409 C2410 1.389 . S
C2410 C2409 1.389 . S
C2410 C2411 1.387 . S
C2411 H2396 0.930 . S
C2411 C2406 1.390 . S
C2411 C2410 1.387 . S
H2412 C2424 0.930 . S
H2413 C2426 0.930 . S
H2414 C2427 0.930 . S
H2415 C2431 0.959 . S
H2416 C2431 0.959 . S
H2417 C2431 0.961 . S
H2418 C2432 0.960 . S
H2419 C2432 0.961 . S
H2420 C2432 0.959 . S
H2421 C2435 0.929 . S
H2422 C2436 0.931 . S
H2423 C2438 0.930 . S
C2424 H2412 0.930 . S
C2424 C2425 1.399 . S
C2424 C2429 1.399 . S
C2425 C2424 1.399 . S
C2425 C2426 1.376 . S
C2426 H2413 0.930 . S
C2426 C2425 1.376 . S
C2426 C2427 1.388 . S
C2427 H2414 0.930 . S
C2427 C2426 1.388 . S
C2427 C2428 1.390 . S
C2428 C2427 1.390 . S
C2428 C2429 1.394 . S
C2428 C2434 1.465 . S
C2429 C2424 1.399 . S
C2429 C2428 1.394 . S
C2429 C2430 1.516 . S
C2430 C2429 1.516 . S
C2430 C2431 1.502 . S
C2430 C2432 1.561 . S
C2430 C2433 1.526 . S
C2431 H2415 0.959 . S
C2431 H2416 0.959 . S
C2431 H2417 0.961 . S
C2431 C2430 1.502 . S
C2432 H2418 0.960 . S
C2432 H2419 0.961 . S
C2432 H2420 0.959 . S
C2432 C2430 1.561 . S
C2433 C2430 1.526 . S
C2433 C2434 1.396 . S
C2433 C2438 1.390 . S
C2434 C2428 1.465 . S
C2434 C2433 1.396 . S
C2434 C2435 1.399 . S
C2435 H2421 0.929 . S
C2435 C2434 1.399 . S
C2435 C2436 1.385 . S
C2436 H2422 0.931 . S
C2436 C2435 1.385 . S
C2436 C2437 1.389 . S
C2437 C2436 1.389 . S
C2437 C2438 1.387 . S
C2438 H2423 0.930 . S
C2438 C2433 1.390 . S
C2438 C2437 1.387 . S
H2439 C2451 0.930 . S
H2440 C2453 0.930 . S
H2441 C2454 0.930 . S
H2442 C2458 0.959 . S
H2443 C2458 0.959 . S
H2444 C2458 0.961 . S
H2445 C2459 0.960 . S
H2446 C2459 0.961 . S
H2447 C2459 0.959 . S
H2448 C2462 0.929 . S
H2449 C2463 0.931 . S
H2450 C2465 0.930 . S
C2451 H2439 0.930 . S
C2451 C2452 1.399 . S
C2451 C2456 1.399 . S
C2452 C2451 1.399 . S
C2452 C2453 1.376 . S
C2453 H2440 0.930 . S
C2453 C2452 1.376 . S
C2453 C2454 1.388 . S
C2454 H2441 0.930 . S
C2454 C2453 1.388 . S
C2454 C2455 1.390 . S
C2455 C2454 1.390 . S
C2455 C2456 1.394 . S
C2455 C2461 1.465 . S
C2456 C2451 1.399 . S
C2456 C2455 1.394 . S
C2456 C2457 1.516 . S
C2457 C2456 1.516 . S
C2457 C2458 1.502 . S
C2457 C2459 1.561 . S
C2457 C2460 1.526 . S
C2458 H2442 0.959 . S
C2458 H2443 0.959 . S
C2458 H2444 0.961 . S
C2458 C2457 1.502 . S
C2459 H2445 0.960 . S
C2459 H2446 0.961 . S
C2459 H2447 0.959 . S
C2459 C2457 1.561 . S
C2460 C2457 1.526 . S
C2460 C2461 1.396 . S
C2460 C2465 1.390 . S
C2461 C2455 1.465 . S
C2461 C2460 1.396 . S
C2461 C2462 1.399 . S
C2462 H2448 0.929 . S
C2462 C2461 1.399 . S
C2462 C2463 1.385 . S
C2463 H2449 0.931 . S
C2463 C2462 1.385 . S
C2463 C2464 1.389 . S
C2464 C2463 1.389 . S
C2464 C2465 1.387 . S
C2465 H2450 0.930 . S
C2465 C2460 1.390 . S
C2465 C2464 1.387 . S
H2466 C2478 0.930 . S
H2467 C2480 0.930 . S
H2468 C2481 0.930 . S
H2469 C2485 0.959 . S
H2470 C2485 0.959 . S
H2471 C2485 0.961 . S
H2472 C2486 0.960 . S
H2473 C2486 0.961 . S
H2474 C2486 0.959 . S
H2475 C2489 0.929 . S
H2476 C2490 0.931 . S
H2477 C2492 0.930 . S
C2478 H2466 0.930 . S
C2478 C2479 1.399 . S
C2478 C2483 1.399 . S
C2479 C2478 1.399 . S
C2479 C2480 1.376 . S
C2480 H2467 0.930 . S
C2480 C2479 1.376 . S
C2480 C2481 1.388 . S
C2481 H2468 0.930 . S
C2481 C2480 1.388 . S
C2481 C2482 1.390 . S
C2482 C2481 1.390 . S
C2482 C2483 1.394 . S
C2482 C2488 1.465 . S
C2483 C2478 1.399 . S
C2483 C2482 1.394 . S
C2483 C2484 1.516 . S
C2484 C2483 1.516 . S
C2484 C2485 1.502 . S
C2484 C2486 1.561 . S
C2484 C2487 1.526 . S
C2485 H2469 0.959 . S
C2485 H2470 0.959 . S
C2485 H2471 0.961 . S
C2485 C2484 1.502 . S
C2486 H2472 0.960 . S
C2486 H2473 0.961 . S
C2486 H2474 0.959 . S
C2486 C2484 1.561 . S
C2487 C2484 1.526 . S
C2487 C2488 1.396 . S
C2487 C2492 1.390 . S
C2488 C2482 1.465 . S
C2488 C2487 1.396 . S
C2488 C2489 1.399 . S
C2489 H2475 0.929 . S
C2489 C2488 1.399 . S
C2489 C2490 1.385 . S
C2490 H2476 0.931 . S
C2490 C2489 1.385 . S
C2490 C2491 1.389 . S
C2491 C2490 1.389 . S
C2491 C2492 1.387 . S
C2492 H2477 0.930 . S
C2492 C2487 1.390 . S
C2492 C2491 1.387 . S
H2493 C2505 0.930 . S
H2494 C2507 0.930 . S
H2495 C2508 0.930 . S
H2496 C2512 0.959 . S
H2497 C2512 0.959 . S
H2498 C2512 0.961 . S
H2499 C2513 0.960 . S
H2500 C2513 0.961 . S
H2501 C2513 0.959 . S
H2502 C2516 0.929 . S
H2503 C2517 0.931 . S
H2504 C2519 0.930 . S
C2505 H2493 0.930 . S
C2505 C2506 1.399 . S
C2505 C2510 1.399 . S
C2506 C2505 1.399 . S
C2506 C2507 1.376 . S
C2507 H2494 0.930 . S
C2507 C2506 1.376 . S
C2507 C2508 1.388 . S
C2508 H2495 0.930 . S
C2508 C2507 1.388 . S
C2508 C2509 1.390 . S
C2509 C2508 1.390 . S
C2509 C2510 1.394 . S
C2509 C2515 1.465 . S
C2510 C2505 1.399 . S
C2510 C2509 1.394 . S
C2510 C2511 1.516 . S
C2511 C2510 1.516 . S
C2511 C2512 1.502 . S
C2511 C2513 1.561 . S
C2511 C2514 1.526 . S
C2512 H2496 0.959 . S
C2512 H2497 0.959 . S
C2512 H2498 0.961 . S
C2512 C2511 1.502 . S
C2513 H2499 0.960 . S
C2513 H2500 0.961 . S
C2513 H2501 0.959 . S
C2513 C2511 1.561 . S
C2514 C2511 1.526 . S
C2514 C2515 1.396 . S
C2514 C2519 1.390 . S
C2515 C2509 1.465 . S
C2515 C2514 1.396 . S
C2515 C2516 1.399 . S
C2516 H2502 0.929 . S
C2516 C2515 1.399 . S
C2516 C2517 1.385 . S
C2517 H2503 0.931 . S
C2517 C2516 1.385 . S
C2517 C2518 1.389 . S
C2518 C2517 1.389 . S
C2518 C2519 1.387 . S
C2519 H2504 0.930 . S
C2519 C2514 1.390 . S
C2519 C2518 1.387 . S
C1075 C528 1.684 . S
C1087 C705 1.658 . S
C1102 C562 1.821 . S
C1114 C745 1.813 . S
C1129 C484 1.741 . S
C1141 C797 1.731 . S
C1156 C445 1.569 . S
C1168 C757 1.538 . S
C1195 C785 1.497 . S
C1183 C367 1.490 . S
C1210 C411 1.376 . S
C1222 C717 1.422 . S
C1249 C724 1.704 . S
C1237 C450 1.652 . S
C1276 C764 1.783 . S
C1264 C372 1.803 . S
C1291 C406 1.704 . S
C1303 C784 1.781 . S
C1318 C523 1.532 . S
C1330 C744 1.591 . S
C1345 C567 1.483 . S
C1357 C804 1.461 . S
C1384 C704 1.426 . S
C1372 C489 1.453 . S
C1411 C825 1.687 . S
C1399 C60 1.636 . S
C1426 C94 1.809 . S
C1438 C865 1.805 . S
C1453 C16 1.741 . S
C1465 C917 1.730 . S
C1480 C679 1.566 . S
C1492 C877 1.539 . S
C1507 C601 1.486 . S
C1519 C905 1.500 . S
C1534 C645 1.422 . S
C1546 C837 1.444 . S
C1561 C684 1.648 . S
C1573 C844 1.706 . S
C1588 C606 1.775 . S
C1600 C884 1.799 . S
C1627 C904 1.780 . S
C1615 C640 1.704 . S
C1642 C55 1.538 . S
C1654 C864 1.594 . S
C1681 C924 1.487 . S
C1669 C99 1.432 . S
C1696 C21 1.381 . S
C1708 C824 1.472 . S
C1735 C945 1.689 . S
C1723 C294 1.634 . S
C1750 C328 1.814 . S
C1762 C985 1.803 . S
C1789 C1037 1.732 . S
C1777 C250 1.738 . S
C1816 C997 1.537 . S
C1804 C211 1.572 . S
C1843 C1025 1.486 . S
C1831 C133 1.503 . S
C1858 C177 1.421 . S
C1870 C957 1.444 . S
C1885 C216 1.634 . S
C1897 C964 1.711 . S
C1912 C138 1.798 . S
C1924 C1004 1.787 . S
C1951 C1024 1.781 . S
C1939 C172 1.703 . S
C1966 C289 1.592 . S
C1978 C984 1.540 . S
C1993 C333 1.435 . S
C2005 C1044 1.487 . S
C2020 C255 1.443 . S
C2032 C944 1.421 . S
C2047 C586 1.336 . S
C2059 C728 1.320 . S
C2086 C768 1.829 . S
C2074 C625 1.863 . S
C2101 C664 1.586 . S
C2113 C791 1.566 . S
C2128 C235 1.838 . S
C2140 C751 1.866 . S
C2155 C274 1.555 . S
C2167 C808 1.553 . S
C2194 C711 1.315 . S
C2182 C313 1.334 . S
C2209 C118 1.333 . S
C2221 C848 1.334 . S
C2236 C157 1.862 . S
C2248 C888 1.831 . S
C2263 C196 1.585 . S
C2275 C911 1.564 . S
C2290 C469 1.880 . S
C2302 C871 1.847 . S
C2329 C928 1.549 . S
C2317 C508 1.560 . S
C2344 C547 1.319 . S
C2356 C831 1.329 . S
C2371 C352 1.324 . S
C2383 C968 1.309 . S
C2398 C391 1.845 . S
C2410 C1008 1.858 . S
C2437 C1031 1.563 . S
C2425 C430 1.585 . S
C2452 C1 1.880 . S
C2464 C991 1.847 . S
C2479 C40 1.556 . S
C2491 C1048 1.566 . S
C2506 C79 1.319 . S
C2518 C951 1.325 . S
