# Generated by pormake.
# Topology dag, (6,3)-cn, num edge types: 1
# Building blocks:
#     Node 0, Type 0, BuildingBlock: OJICUG_clean_sbu_0, # of connection points: 6
#     Node 1, Type 0, BuildingBlock: OJICUG_clean_sbu_0, # of connection points: 6
#     Node 2, Type 0, BuildingBlock: OJICUG_clean_sbu_0, # of connection points: 6
#     Node 3, Type 0, BuildingBlock: OJICUG_clean_sbu_0, # of connection points: 6
#     Node 4, Type 1, BuildingBlock: BELTOD_clean_linker_0, # of connection points: 3
#     Node 5, Type 1, BuildingBlock: BELTOD_clean_linker_0, # of connection points: 3
#     Node 6, Type 1, BuildingBlock: BELTOD_clean_linker_0, # of connection points: 3
#     Node 7, Type 1, BuildingBlock: BELTOD_clean_linker_0, # of connection points: 3
#     Node 8, Type 1, BuildingBlock: BELTOD_clean_linker_0, # of connection points: 3
#     Node 9, Type 1, BuildingBlock: BELTOD_clean_linker_0, # of connection points: 3
#     Node 10, Type 1, BuildingBlock: BELTOD_clean_linker_0, # of connection points: 3
#     Node 11, Type 1, BuildingBlock: BELTOD_clean_linker_0, # of connection points: 3
#     Edge 12, Type (0, 1), BuildingBlock: UVAHIK_clean_linker_0, # of connection points: 2
#     Edge 13, Type (0, 1), BuildingBlock: UVAHIK_clean_linker_0, # of connection points: 2
#     Edge 14, Type (0, 1), BuildingBlock: UVAHIK_clean_linker_0, # of connection points: 2
#     Edge 15, Type (0, 1), BuildingBlock: UVAHIK_clean_linker_0, # of connection points: 2
#     Edge 16, Type (0, 1), BuildingBlock: UVAHIK_clean_linker_0, # of connection points: 2
#     Edge 17, Type (0, 1), BuildingBlock: UVAHIK_clean_linker_0, # of connection points: 2
#     Edge 18, Type (0, 1), BuildingBlock: UVAHIK_clean_linker_0, # of connection points: 2
#     Edge 19, Type (0, 1), BuildingBlock: UVAHIK_clean_linker_0, # of connection points: 2
#     Edge 20, Type (0, 1), BuildingBlock: UVAHIK_clean_linker_0, # of connection points: 2
#     Edge 21, Type (0, 1), BuildingBlock: UVAHIK_clean_linker_0, # of connection points: 2
#     Edge 22, Type (0, 1), BuildingBlock: UVAHIK_clean_linker_0, # of connection points: 2
#     Edge 23, Type (0, 1), BuildingBlock: UVAHIK_clean_linker_0, # of connection points: 2
#     Edge 24, Type (0, 1), BuildingBlock: UVAHIK_clean_linker_0, # of connection points: 2
#     Edge 25, Type (0, 1), BuildingBlock: UVAHIK_clean_linker_0, # of connection points: 2
#     Edge 26, Type (0, 1), BuildingBlock: UVAHIK_clean_linker_0, # of connection points: 2
#     Edge 27, Type (0, 1), BuildingBlock: UVAHIK_clean_linker_0, # of connection points: 2
#     Edge 28, Type (0, 1), BuildingBlock: UVAHIK_clean_linker_0, # of connection points: 2
#     Edge 29, Type (0, 1), BuildingBlock: UVAHIK_clean_linker_0, # of connection points: 2
#     Edge 30, Type (0, 1), BuildingBlock: UVAHIK_clean_linker_0, # of connection points: 2
#     Edge 31, Type (0, 1), BuildingBlock: UVAHIK_clean_linker_0, # of connection points: 2
#     Edge 32, Type (0, 1), BuildingBlock: UVAHIK_clean_linker_0, # of connection points: 2
#     Edge 33, Type (0, 1), BuildingBlock: UVAHIK_clean_linker_0, # of connection points: 2
#     Edge 34, Type (0, 1), BuildingBlock: UVAHIK_clean_linker_0, # of connection points: 2
#     Edge 35, Type (0, 1), BuildingBlock: UVAHIK_clean_linker_0, # of connection points: 2
# Relax obj value: 0.238
# Max RMSD: 0.191
# Mean RMSD: 0.159
data_MOF--net-dag--node1-OJICUG_clean_sbu_0--node2-BELTOD_clean_linker_0--edge1-UVAHIK_clean_linker_0
_symmetry_space_group_name_H-M    P1
_symmetry_Int_Tables_number       1
_symmetry_cell_setting            triclinic
loop_
_symmetry_equiv_pos_as_xyz
'x, y, z'
_cell_length_a     50.390517
_cell_length_b     53.828876
_cell_length_c     52.359119
_cell_angle_alpha  94.91904
_cell_angle_beta   90.274503
_cell_angle_gamma 90.183158
loop_
_atom_site_label
_atom_site_type_symbol
_atom_site_fract_x
_atom_site_fract_y
_atom_site_fract_z
_atom_type_partial_charge
Sc0 Sc 0.12996 0.85869 0.02981 0.0
Sc1 Sc 0.13825 0.79436 0.03441 0.0
Sc2 Sc 0.18217 0.83776 0.06716 0.0
O3 O 0.15019 0.83024 0.04377 0.0
C4 C 0.18962 0.87887 0.02756 0.0
C5 C 0.13172 0.81893 0.98119 0.0
C6 C 0.20151 0.79011 0.03163 0.0
C7 C 0.0826 0.82164 0.04172 0.0
C8 C 0.14086 0.87983 0.08767 0.0
C9 C 0.15368 0.79349 0.09356 0.0
O10 O 0.16526 0.87866 0.02126 0.0
O11 O 0.13336 0.80013 0.9943 0.0
O12 O 0.20605 0.80952 0.04665 0.0
O13 O 0.0919 0.84264 0.03676 0.0
O14 O 0.16145 0.86661 0.09024 0.0
O15 O 0.1416 0.7846 0.07342 0.0
O16 O 0.12722 0.87876 0.06708 0.0
O17 O 0.09696 0.80233 0.0423 0.0
O18 O 0.16899 0.81231 0.09391 0.0
O19 O 0.13095 0.84124 0.99135 0.0
O20 O 0.19907 0.86465 0.04348 0.0
O21 O 0.17821 0.78251 0.02554 0.0
Sc22 Sc 0.67783 0.65705 0.47336 0.0
Sc23 Sc 0.63075 0.69925 0.50226 0.0
Sc24 Sc 0.6282 0.63536 0.51267 0.0
O25 O 0.64564 0.66396 0.49615 0.0
C26 C 0.64057 0.61023 0.4567 0.0
C27 C 0.6452 0.69583 0.44275 0.0
C28 C 0.5777 0.66687 0.49703 0.0
C29 C 0.69336 0.70907 0.50396 0.0
C30 C 0.68958 0.62143 0.51745 0.0
C31 C 0.62672 0.67892 0.55777 0.0
O32 O 0.65974 0.62487 0.4529 0.0
O33 O 0.63278 0.70576 0.4621 0.0
O34 O 0.58874 0.64718 0.50359 0.0
O35 O 0.69925 0.68869 0.49116 0.0
O36 O 0.66538 0.61994 0.52383 0.0
O37 O 0.62663 0.69673 0.54325 0.0
O38 O 0.69735 0.63436 0.4997 0.0
O39 O 0.6696 0.71532 0.50951 0.0
O40 O 0.62775 0.6561 0.54942 0.0
O41 O 0.6619 0.67839 0.44421 0.0
O42 O 0.62716 0.61183 0.47728 0.0
O43 O 0.59035 0.68711 0.49532 0.0
Sc44 Sc 0.86917 0.22137 0.00966 0.0
Sc45 Sc 0.82284 0.17758 0.98143 0.0
Sc46 Sc 0.88153 0.15676 0.00864 0.0
O47 O 0.85787 0.18527 -9e-05 0.0
C48 C 0.92467 0.19604 0.99312 0.0
C49 C 0.8452 0.22419 0.95369 0.0
C50 C 0.86118 0.1377 0.9524 0.0
C51 C 0.8067 0.22306 0.02094 0.0
C52 C 0.88521 0.19448 0.05938 0.0
C53 C 0.82424 0.135 0.02004 0.0
O54 O 0.91008 0.21501 0.99845 0.0
O55 O 0.82969 0.20576 0.95557 0.0
O56 O 0.87747 0.13739 0.97101 0.0
O57 O 0.82984 0.23263 0.02237 0.0
O58 O 0.88794 0.17325 0.04703 0.0
O59 O 0.81198 0.14828 0.00495 0.0
O60 O 0.87808 0.21385 0.04877 0.0
O61 O 0.80139 0.20275 0.00773 0.0
O62 O 0.84917 0.13632 0.02359 0.0
O63 O 0.86137 0.23197 0.97138 0.0
O64 O 0.91667 0.17389 0.99504 0.0
O65 O 0.84063 0.15138 0.95329 0.0
Sc66 Sc 0.37516 0.34937 0.55099 0.0
Sc67 Sc 0.31858 0.3267 0.58021 0.0
Sc68 Sc 0.36505 0.28446 0.55077 0.0
O69 O 0.35295 0.32015 0.56065 0.0
C70 C 0.37833 0.31142 0.50046 0.0
C71 C 0.31707 0.36999 0.54212 0.0
C72 C 0.30212 0.28109 0.54078 0.0
C73 C 0.35689 0.36782 0.60788 0.0
C74 C 0.42011 0.31166 0.56606 0.0
C75 C 0.34249 0.28007 0.60671 0.0
O76 O 0.38071 0.33285 0.51253 0.0
O77 O 0.30617 0.35648 0.55784 0.0
O78 O 0.32556 0.27236 0.53894 0.0
O79 O 0.37152 0.36919 0.58832 0.0
O80 O 0.40604 0.29217 0.56112 0.0
O81 O 0.32637 0.29797 0.60508 0.0
O82 O 0.41133 0.33351 0.56407 0.0
O83 O 0.33749 0.35268 0.6084 0.0
O84 O 0.35907 0.27345 0.58919 0.0
O85 O 0.34166 0.36874 0.53695 0.0
O86 O 0.37234 0.29196 0.51144 0.0
O87 O 0.29661 0.30128 0.55408 0.0
P88 P 0.01954 0.10822 0.35903 0.0
H89 H 0.03384 0.05557 0.3602 0.0
H90 H 0.04977 0.02422 0.32703 0.0
H91 H 0.04933 0.07976 0.27214 0.0
H92 H 0.03344 0.11071 0.30508 0.0
H93 H 0.02355 0.13299 0.41065 0.0
H94 H 0.05985 0.15499 0.43427 0.0
H95 H 0.11125 0.13953 0.36903 0.0
H96 H 0.0748 0.11807 0.34545 0.0
H97 H 0.96615 0.10521 0.33796 0.0
H98 H 0.03041 0.15852 0.34345 0.0
O99 O 0.00031 0.09415 0.37932 0.0
H100 H 0.9426 0.13044 0.30868 0.0
H101 H 0.00677 0.18414 0.31456 0.0
C102 C 0.03179 0.08526 0.33495 0.0
C103 C 0.03709 0.0609 0.34098 0.0
C104 C 0.04633 0.04307 0.32208 0.0
C105 C 0.05044 0.04946 0.29689 0.0
C106 C 0.04577 0.07411 0.2912 0.0
C107 C 0.03668 0.09186 0.31007 0.0
C108 C 0.04665 0.12349 0.37653 0.0
C109 C 0.04271 0.1342 0.40155 0.0
C110 C 0.06349 0.1467 0.41503 0.0
C111 C 0.0885 0.14889 0.40358 0.0
C112 C 0.0922 0.13834 0.37834 0.0
C113 C 0.07142 0.12583 0.36491 0.0
C114 C 0.99984 0.13011 0.34313 0.0
C115 C 0.97476 0.12279 0.33355 0.0
C116 C 0.9613 0.13729 0.31683 0.0
C117 C 0.97284 0.1593 0.30921 0.0
C118 C 0.99745 0.16718 0.31987 0.0
C119 C 0.01089 0.15264 0.33661 0.0
P120 P 0.4815 0.60869 0.86208 0.0
H121 H 0.53421 0.63205 0.86388 0.0
H122 H 0.55972 0.6531 0.83226 0.0
H123 H 0.49396 0.64345 0.77904 0.0
H124 H 0.46869 0.6227 0.81055 0.0
H125 H 0.46256 0.61044 0.91481 0.0
H126 H 0.42874 0.63567 0.93825 0.0
H127 H 0.41498 0.67567 0.8714 0.0
H128 H 0.44892 0.65071 0.84821 0.0
H129 H 0.49543 0.55649 0.84877 0.0
H130 H 0.42946 0.60504 0.83653 0.0
O131 O 0.50284 0.59725 0.88251 0.0
H132 H 0.47391 0.52307 0.82128 0.0
H133 H 0.40824 0.57194 0.80879 0.0
C134 C 0.49972 0.6254 0.83943 0.0
C135 C 0.52528 0.63454 0.84543 0.0
C136 C 0.53983 0.64657 0.82737 0.0
C137 C 0.52886 0.64992 0.80315 0.0
C138 C 0.50288 0.64144 0.79761 0.0
C139 C 0.48848 0.6293 0.81557 0.0
C140 C 0.45852 0.6289 0.87988 0.0
C141 C 0.45258 0.62492 0.90535 0.0
C142 C 0.43329 0.63933 0.91871 0.0
C143 C 0.41928 0.65758 0.9066 0.0
C144 C 0.4254 0.66162 0.88114 0.0
C145 C 0.44493 0.64745 0.86792 0.0
C146 C 0.46394 0.58318 0.84496 0.0
C147 C 0.47613 0.55983 0.84059 0.0
C148 C 0.46384 0.54076 0.82491 0.0
C149 C 0.43946 0.545 0.81293 0.0
C150 C 0.42708 0.56825 0.81774 0.0
C151 C 0.43916 0.58713 0.83372 0.0
P152 P 0.75019 0.86937 0.19888 0.0
H153 H 0.73328 0.91936 0.21813 0.0
H154 H 0.7254 0.95707 0.19645 0.0
H155 H 0.73278 0.9144 0.12308 0.0
H156 H 0.74012 0.87662 0.14495 0.0
H157 H 0.7539 0.81686 0.20747 0.0
H158 H 0.72182 0.78811 0.22334 0.0
H159 H 0.65981 0.84255 0.21715 0.0
H160 H 0.6922 0.87133 0.20111 0.0
H161 H 0.80397 0.88781 0.19917 0.0
H162 H 0.75956 0.82768 0.15925 0.0
O163 O 0.76003 0.87962 0.22841 0.0
H164 H 0.84301 0.87614 0.17354 0.0
H165 H 0.79906 0.81553 0.13375 0.0
C166 C 0.73791 0.89539 0.1831 0.0
C167 C 0.73264 0.91801 0.19738 0.0
C168 C 0.72821 0.93956 0.18497 0.0
C169 C 0.72899 0.93878 0.15807 0.0
C170 C 0.73201 0.91561 0.14382 0.0
C171 C 0.73638 0.89403 0.15629 0.0
C172 C 0.72535 0.846 0.20255 0.0
C173 C 0.73321 0.82221 0.2084 0.0
C174 C 0.71478 0.80576 0.21751 0.0
C175 C 0.68824 0.81306 0.22149 0.0
C176 C 0.68013 0.83644 0.2143 0.0
C177 C 0.69859 0.85283 0.20497 0.0
C178 C 0.77914 0.8582 0.18161 0.0
C179 C 0.80279 0.87178 0.18522 0.0
C180 C 0.825 0.86523 0.17045 0.0
C181 C 0.82397 0.84494 0.15173 0.0
C182 C 0.80035 0.83108 0.14827 0.0
C183 C 0.7779 0.83793 0.16288 0.0
P184 P 0.78965 0.32466 0.62302 0.0
H185 H 0.83292 0.35739 0.60974 0.0
H186 H 0.83482 0.40192 0.60309 0.0
H187 H 0.75113 0.40817 0.62025 0.0
H188 H 0.74963 0.36437 0.62755 0.0
H189 H 0.8141 0.28064 0.64135 0.0
H190 H 0.82929 0.27074 0.68367 0.0
H191 H 0.80865 0.34512 0.71475 0.0
H192 H 0.79403 0.35501 0.67222 0.0
H193 H 0.75636 0.30589 0.57973 0.0
H194 H 0.7478 0.3219 0.6614 0.0
O195 O 0.80723 0.30919 0.5999 0.0
H196 H 0.70863 0.29763 0.57576 0.0
H197 H 0.7002 0.3137 0.65756 0.0
C198 C 0.79107 0.35744 0.61865 0.0
C199 C 0.81505 0.36846 0.61211 0.0
C200 C 0.81608 0.39387 0.60827 0.0
C201 C 0.79312 0.40865 0.61111 0.0
C202 C 0.7693 0.39752 0.61827 0.0
C203 C 0.76834 0.37224 0.62216 0.0
C204 C 0.80338 0.31864 0.6536 0.0
C205 C 0.8133 0.29493 0.65719 0.0
C206 C 0.82175 0.28925 0.68144 0.0
C207 C 0.82012 0.30714 0.7026 0.0
C208 C 0.81055 0.33106 0.69879 0.0
C209 C 0.80213 0.33672 0.67449 0.0
C210 C 0.7557 0.31411 0.62088 0.0
C211 C 0.74434 0.307 0.59688 0.0
C212 C 0.71708 0.30228 0.59464 0.0
C213 C 0.70071 0.30505 0.61636 0.0
C214 C 0.71232 0.31153 0.64048 0.0
C215 C 0.73958 0.31602 0.64272 0.0
P216 P 0.5108 0.3774 0.19169 0.0
H217 H 0.52766 0.42944 0.19019 0.0
H218 H 0.54596 0.4601 0.223 0.0
H219 H 0.54446 0.40457 0.27789 0.0
H220 H 0.52604 0.37435 0.24535 0.0
H221 H 0.52509 0.3678 0.13763 0.0
H222 H 0.56366 0.34797 0.11629 0.0
H223 H 0.59423 0.32964 0.18944 0.0
H224 H 0.55621 0.35036 0.2109 0.0
H225 H 0.45579 0.38541 0.20575 0.0
H226 H 0.51492 0.32902 0.21456 0.0
O227 O 0.49412 0.39262 0.17028 0.0
H228 H 0.42746 0.36667 0.23645 0.0
H229 H 0.48748 0.31106 0.2464 0.0
C230 C 0.52485 0.39981 0.21549 0.0
C231 C 0.53118 0.42396 0.20933 0.0
C232 C 0.54179 0.44139 0.22803 0.0
C233 C 0.54633 0.43483 0.25312 0.0
C234 C 0.54062 0.41037 0.25892 0.0
C235 C 0.53011 0.39303 0.24025 0.0
C236 C 0.53757 0.36029 0.17586 0.0
C237 C 0.53994 0.35939 0.14912 0.0
C238 C 0.562 0.34815 0.13692 0.0
C239 C 0.58176 0.33729 0.15128 0.0
C240 C 0.57908 0.33771 0.17798 0.0
C241 C 0.55731 0.34942 0.19021 0.0
C242 C 0.48753 0.3587 0.20781 0.0
C243 C 0.46244 0.36861 0.2138 0.0
C244 C 0.44639 0.35806 0.23168 0.0
C245 C 0.45542 0.33768 0.24441 0.0
C246 C 0.47978 0.32666 0.23695 0.0
C247 C 0.49566 0.33706 0.21874 0.0
P248 P 0.29596 0.18755 0.94264 0.0
H249 H 0.32314 0.16401 0.98392 0.0
H250 H 0.32481 0.12082 0.99502 0.0
H251 H 0.27958 0.09763 0.92672 0.0
H252 H 0.27836 0.14071 0.91559 0.0
H253 H 0.28993 0.23117 0.91461 0.0
H254 H 0.30167 0.24034 0.87127 0.0
H255 H 0.33757 0.16756 0.85809 0.0
H256 H 0.32664 0.15891 0.9019 0.0
H257 H 0.26258 0.20858 0.98477 0.0
H258 H 0.25212 0.17878 0.90626 0.0
O259 O 0.31234 0.20634 0.96435 0.0
H260 H 0.21449 0.21426 0.98881 0.0
H261 H 0.20419 0.18445 0.9101 0.0
C262 C 0.30072 0.15552 0.94887 0.0
C263 C 0.31403 0.14957 0.97109 0.0
C264 C 0.31488 0.12489 0.97747 0.0
C265 C 0.30232 0.1058 0.96176 0.0
C266 C 0.28981 0.1118 0.93903 0.0
C267 C 0.28892 0.13647 0.93273 0.0
C268 C 0.30686 0.1942 0.91127 0.0
C269 C 0.30048 0.21725 0.90243 0.0
C270 C 0.30704 0.22238 0.87759 0.0
C271 C 0.32012 0.20448 0.86103 0.0
C272 C 0.32749 0.18173 0.87034 0.0
C273 C 0.32099 0.17667 0.89534 0.0
C274 C 0.26091 0.19361 0.94512 0.0
C275 C 0.24997 0.20358 0.96832 0.0
C276 C 0.22251 0.20685 0.97058 0.0
C277 C 0.20556 0.19982 0.94976 0.0
C278 C 0.2167 0.18986 0.92654 0.0
C279 C 0.24411 0.18675 0.92428 0.0
P280 P 0.23839 0.61205 0.3465 0.0
H281 H 0.23399 0.55805 0.34405 0.0
H282 H 0.2231 0.52988 0.37616 0.0
H283 H 0.19989 0.59259 0.4284 0.0
H284 H 0.21171 0.62093 0.39597 0.0
H285 H 0.25033 0.66042 0.32879 0.0
H286 H 0.22279 0.69042 0.30897 0.0
H287 H 0.15264 0.64891 0.32679 0.0
H288 H 0.18063 0.61851 0.34615 0.0
H289 H 0.29084 0.59013 0.34465 0.0
H290 H 0.25313 0.65485 0.38264 0.0
O291 O 0.24505 0.59604 0.31856 0.0
H292 H 0.33207 0.60079 0.36772 0.0
H293 H 0.29461 0.66575 0.40587 0.0
C294 C 0.22342 0.59153 0.36757 0.0
C295 C 0.22579 0.56575 0.36209 0.0
C296 C 0.21937 0.54958 0.38054 0.0
C297 C 0.2106 0.55891 0.40497 0.0
C298 C 0.20681 0.58479 0.40987 0.0
C299 C 0.21334 0.60099 0.39133 0.0
C300 C 0.21751 0.63751 0.33936 0.0
C301 C 0.22897 0.65827 0.32931 0.0
C302 C 0.2131 0.67549 0.318 0.0
C303 C 0.18543 0.67208 0.31623 0.0
C304 C 0.17389 0.65197 0.32767 0.0
C305 C 0.18985 0.6347 0.33896 0.0
C306 C 0.26921 0.62207 0.36143 0.0
C307 C 0.29159 0.6069 0.35765 0.0
C308 C 0.31506 0.61287 0.37103 0.0
C309 C 0.31652 0.63409 0.38861 0.0
C310 C 0.2941 0.64945 0.39222 0.0
C311 C 0.27047 0.64329 0.37894 0.0
P312 P 0.92497 0.86125 0.73004 0.0
H313 H 0.87771 0.88626 0.75126 0.0
H314 H 0.86926 0.92929 0.76773 0.0
H315 H 0.94689 0.95071 0.74239 0.0
H316 H 0.95519 0.90745 0.72588 0.0
H317 H 0.91398 0.81281 0.70352 0.0
H318 H 0.8949 0.80016 0.66155 0.0
H319 H 0.89795 0.8766 0.64226 0.0
H320 H 0.91697 0.88916 0.6845 0.0
H321 H 0.95854 0.88119 0.772 0.0
H322 H 0.96528 0.8262 0.70739 0.0
O323 O 0.90626 0.84443 0.74839 0.0
H324 H 0.00193 0.86962 0.78727 0.0
H325 H 0.00895 0.81411 0.72303 0.0
C326 C 0.91737 0.89361 0.73812 0.0
C327 C 0.89278 0.90026 0.74896 0.0
C328 C 0.8879 0.92492 0.75818 0.0
C329 C 0.90756 0.94331 0.75663 0.0
C330 C 0.93155 0.93684 0.74421 0.0
C331 C 0.93631 0.91217 0.73478 0.0
C332 C 0.91646 0.85193 0.69725 0.0
C333 C 0.91108 0.82677 0.69005 0.0
C334 C 0.90033 0.81955 0.66595 0.0
C335 C 0.89471 0.83743 0.64863 0.0
C336 C 0.90175 0.86246 0.65533 0.0
C337 C 0.91267 0.86965 0.67946 0.0
C338 C 0.95892 0.8551 0.73815 0.0
C339 C 0.96971 0.86714 0.76061 0.0
C340 C 0.9946 0.86048 0.76936 0.0
C341 C 0.00902 0.84116 0.75616 0.0
C342 C 0.99833 0.82918 0.73348 0.0
C343 C 0.97342 0.83615 0.7245 0.0
C344 C 0.14513 0.89734 0.13359 0.0
C345 C 0.13217 0.89701 0.10969 0.0
C346 C 0.13667 0.91336 0.15437 0.0
C347 C 0.09947 0.97144 0.16988 0.0
H348 H 0.09304 0.9477 0.23746 0.0
C349 C 0.04769 0.02966 0.25192 0.0
C350 C 0.05936 0.03061 0.27641 0.0
C351 C 0.05671 0.0128 0.23218 0.0
C352 C 0.09503 0.95469 0.21878 0.0
H353 H 0.10003 0.91334 0.08905 0.0
H354 H 0.08535 0.94115 0.12527 0.0
H355 H 0.10892 0.91952 0.20177 0.0
H356 H 0.08943 0.01434 0.29951 0.0
H357 H 0.1054 0.98488 0.26488 0.0
H358 H 0.08574 0.00658 0.18675 0.0
C359 C 0.10221 0.92918 0.12785 0.0
C360 C 0.10411 0.93855 0.19834 0.0
C361 C 0.11057 0.91311 0.10711 0.0
C362 C 0.07991 0.0139 0.28088 0.0
C363 C 0.08903 0.99704 0.26105 0.0
C364 C 0.09048 0.98756 0.19028 0.0
C365 C 0.11516 0.9295 0.1517 0.0
C366 C 0.10624 0.94672 0.17363 0.0
C367 C 0.07771 0.99649 0.23639 0.0
C368 C 0.08794 0.97935 0.21493 0.0
H369 H 0.1618 0.88517 0.13632 0.0
H370 H 0.14721 0.91334 0.17245 0.0
H371 H 0.10136 0.97842 0.15118 0.0
H372 H 0.03146 0.04196 0.24802 0.0
H373 H 0.04713 0.01249 0.21359 0.0
C374 C 0.63973 0.67047 0.60195 0.0
C375 C 0.62467 0.6844 0.58573 0.0
C376 C 0.63485 0.67213 0.62823 0.0
C377 C 0.59544 0.70565 0.68098 0.0
H378 H 0.59625 0.64038 0.7071 0.0
C379 C 0.53337 0.67718 0.76679 0.0
C380 C 0.54485 0.6606 0.78298 0.0
C381 C 0.54722 0.68443 0.74556 0.0
C382 C 0.59636 0.65884 0.70034 0.0
H383 H 0.59368 0.71196 0.58417 0.0
H384 H 0.58415 0.71412 0.63006 0.0
H385 H 0.6131 0.64523 0.66463 0.0
H386 H 0.58036 0.63967 0.79036 0.0
H387 H 0.60456 0.65241 0.75338 0.0
H388 H 0.57721 0.71874 0.71659 0.0
C389 C 0.60026 0.70238 0.6227 0.0
C390 C 0.60613 0.66169 0.67591 0.0
C391 C 0.60563 0.70113 0.59639 0.0
C392 C 0.57101 0.65254 0.77833 0.0
C393 C 0.58479 0.65967 0.75704 0.0
C394 C 0.58534 0.7027 0.70543 0.0
C395 C 0.61422 0.68721 0.63881 0.0
C396 C 0.60565 0.68507 0.66575 0.0
C397 C 0.57276 0.67511 0.74003 0.0
C398 C 0.58553 0.67919 0.71525 0.0
H399 H 0.65477 0.65766 0.59416 0.0
H400 H 0.64662 0.66081 0.64009 0.0
H401 H 0.59501 0.72397 0.67394 0.0
H402 H 0.51335 0.68394 0.77009 0.0
H403 H 0.53738 0.69624 0.73274 0.0
C404 C 0.7843 0.10789 0.02484 0.0
C405 C 0.80885 0.11733 0.03427 0.0
C406 C 0.77017 0.09069 0.03811 0.0
C407 C 0.76122 0.06863 0.1015 0.0
H408 H 0.74473 0.00417 0.06607 0.0
C409 C 0.7469 0.98169 0.15519 0.0
C410 C 0.73022 0.96225 0.14518 0.0
C411 C 0.75094 0.00266 0.14184 0.0
C412 C 0.74853 0.02224 0.07619 0.0
H413 H 0.83747 0.11669 0.0653 0.0
H414 H 0.81251 0.08708 0.08866 0.0
H415 H 0.7622 0.03745 0.04205 0.0
H416 H 0.70378 0.95003 0.11381 0.0
H417 H 0.71043 0.98708 0.09055 0.0
H418 H 0.74772 0.05365 0.13564 0.0
C419 C 0.80435 0.09286 0.07094 0.0
C420 C 0.75866 0.04124 0.0624 0.0
C421 C 0.8187 0.10964 0.05746 0.0
C422 C 0.71689 0.96466 0.12189 0.0
C423 C 0.72079 0.98583 0.10856 0.0
C424 C 0.75073 0.0498 0.11522 0.0
C425 C 0.78007 0.0831 0.06129 0.0
C426 C 0.76584 0.06432 0.0751 0.0
C427 C 0.73828 0.00488 0.11816 0.0
C428 C 0.74511 0.02608 0.1029 0.0
H429 H 0.77625 0.11344 0.00698 0.0
H430 H 0.75148 0.0834 0.03033 0.0
H431 H 0.76626 0.08644 0.11163 0.0
H432 H 0.75792 0.98018 0.1728 0.0
H433 H 0.76502 0.01659 0.14961 0.0
C434 C 0.46199 0.28665 0.56766 0.0
C435 C 0.44818 0.30899 0.57383 0.0
C436 C 0.48903 0.2849 0.57346 0.0
C437 C 0.54797 0.32529 0.58863 0.0
H438 H 0.57993 0.26409 0.60782 0.0
C439 C 0.65527 0.3219 0.6256 0.0
C440 C 0.67145 0.30321 0.61359 0.0
C441 C 0.62785 0.32138 0.62166 0.0
C442 C 0.57124 0.28124 0.60234 0.0
H443 H 0.45158 0.34659 0.59208 0.0
H444 H 0.49827 0.34331 0.60299 0.0
H445 H 0.53211 0.26556 0.5999 0.0
H446 H 0.67158 0.26894 0.58864 0.0
H447 H 0.62336 0.2679 0.58195 0.0
H448 H 0.58701 0.34107 0.59158 0.0
C449 C 0.4886 0.32737 0.59283 0.0
C450 C 0.54388 0.2821 0.59771 0.0
C451 C 0.46173 0.32922 0.58672 0.0
C452 C 0.65956 0.28363 0.59805 0.0
C453 C 0.63202 0.28295 0.59436 0.0
C454 C 0.57517 0.32451 0.59356 0.0
C455 C 0.50277 0.30537 0.58585 0.0
C456 C 0.53187 0.30418 0.59085 0.0
C457 C 0.61598 0.30205 0.60582 0.0
C458 C 0.58708 0.30253 0.60051 0.0
H459 H 0.45212 0.27075 0.55763 0.0
H460 H 0.4993 0.26774 0.56754 0.0
H461 H 0.53966 0.34244 0.58274 0.0
H462 H 0.66389 0.33736 0.63746 0.0
H463 H 0.61592 0.33624 0.63088 0.0
C464 C 0.61221 0.57418 0.43941 0.0
C465 C 0.63294 0.5911 0.43588 0.0
C466 C 0.60421 0.5569 0.41942 0.0
C467 C 0.60464 0.54593 0.34912 0.0
H468 H 0.58697 0.47809 0.36242 0.0
C469 C 0.57756 0.46955 0.26834 0.0
C470 C 0.55669 0.45333 0.27339 0.0
C471 C 0.58776 0.48636 0.28782 0.0
C472 C 0.59158 0.49704 0.35843 0.0
H473 H 0.6617 0.6028 0.40852 0.0
H474 H 0.64779 0.5725 0.37375 0.0
H475 H 0.60351 0.50706 0.39723 0.0
H476 H 0.52951 0.44265 0.30255 0.0
H477 H 0.54714 0.47198 0.33641 0.0
H478 H 0.59246 0.53596 0.31035 0.0
C479 C 0.63759 0.57283 0.39194 0.0
C480 C 0.60108 0.51362 0.37838 0.0
C481 C 0.64566 0.59008 0.41195 0.0
C482 C 0.54594 0.45457 0.29818 0.0
C483 C 0.55608 0.47136 0.3176 0.0
C484 C 0.59509 0.52935 0.32915 0.0
C485 C 0.61668 0.55615 0.39542 0.0
C486 C 0.60754 0.53829 0.37399 0.0
C487 C 0.57724 0.48731 0.31272 0.0
C488 C 0.58825 0.50477 0.33364 0.0
H489 H 0.6019 0.57444 0.45753 0.0
H490 H 0.58782 0.54448 0.42261 0.0
H491 H 0.60913 0.56492 0.3452 0.0
H492 H 0.58642 0.46886 0.24948 0.0
H493 H 0.60424 0.49825 0.28351 0.0
C494 C 0.96538 0.22283 0.99035 0.0
C495 C 0.95253 0.19969 0.98519 0.0
C496 C 0.9923 0.2255 0.9846 0.0
C497 C 0.04662 0.19709 0.94528 0.0
H498 H 0.09275 0.2263 0.99932 0.0
C499 C 0.15961 0.18255 0.94271 0.0
C500 C 0.17631 0.20212 0.9524 0.0
C501 C 0.13211 0.18441 0.94539 0.0
C502 C 0.08016 0.21849 0.98383 0.0
H503 H 0.95767 0.16151 0.96905 0.0
H504 H 0.00438 0.16629 0.95886 0.0
H505 H 0.04481 0.22631 0.00562 0.0
H506 H 0.17722 0.23916 0.97218 0.0
H507 H 0.1291 0.2426 0.9766 0.0
H508 H 0.0818 0.18919 0.92345 0.0
C509 C 0.9937 0.18233 0.96739 0.0
C510 C 0.05267 0.21848 0.98748 0.0
C511 C 0.96695 0.17956 0.9734 0.0
C512 C 0.16487 0.22366 0.96476 0.0
C513 C 0.13729 0.2256 0.96731 0.0
C514 C 0.07405 0.19727 0.94154 0.0
C515 C 0.00677 0.20521 0.97324 0.0
C516 C 0.03566 0.20739 0.96841 0.0
C517 C 0.12056 0.20596 0.9577 0.0
C518 C 0.09123 0.20755 0.96095 0.0
H519 H 0.95486 0.23869 -0.00054 0.0
H520 H 0.00184 0.24341 0.98915 0.0
H521 H 0.03395 0.18873 0.9301 0.0
H522 H 0.16784 0.16553 0.93347 0.0
H523 H 0.11995 0.16868 0.93826 0.0
C524 C 0.2742 0.393 0.53726 0.0
C525 C 0.30085 0.38884 0.53019 0.0
C526 C 0.25964 0.41207 0.52724 0.0
C527 C 0.26972 0.47134 0.49831 0.0
H528 H 0.1976 0.46204 0.47308 0.0
C529 C 0.22007 0.54954 0.45018 0.0
C530 C 0.20931 0.54195 0.42592 0.0
C531 C 0.22504 0.5321 0.46785 0.0
C532 C 0.21769 0.46495 0.48015 0.0
H533 H 0.33269 0.40091 0.50624 0.0
H534 H 0.30729 0.43377 0.48872 0.0
H535 H 0.21992 0.42817 0.49285 0.0
H536 H 0.19232 0.51062 0.40251 0.0
H537 H 0.20199 0.48007 0.43284 0.0
H538 H 0.26828 0.50744 0.48461 0.0
C539 C 0.29781 0.42268 0.5024 0.0
C540 C 0.2304 0.44562 0.49162 0.0
C541 C 0.31231 0.40369 0.51235 0.0
C542 C 0.20124 0.51698 0.42078 0.0
C543 C 0.20649 0.49948 0.43835 0.0
C544 C 0.2571 0.49057 0.48687 0.0
C545 C 0.27147 0.42736 0.51004 0.0
C546 C 0.2568 0.44844 0.50021 0.0
C547 C 0.21966 0.50665 0.46156 0.0
C548 C 0.23113 0.48746 0.47715 0.0
H549 H 0.26472 0.38191 0.55092 0.0
H550 H 0.23939 0.41527 0.5335 0.0
H551 H 0.2899 0.47425 0.50518 0.0
H552 H 0.22655 0.56859 0.45488 0.0
H553 H 0.23458 0.53835 0.48586 0.0
C554 C 0.12484 0.79085 0.94077 0.0
C555 C 0.12973 0.81478 0.95289 0.0
C556 C 0.12047 0.78753 0.91429 0.0
C557 C 0.12497 0.8192 0.85391 0.0
H558 H 0.05852 0.78507 0.83713 0.0
C559 C 0.05195 0.8493 0.77957 0.0
C560 C 0.0336 0.83215 0.76794 0.0
C561 C 0.07145 0.84151 0.79608 0.0
C562 C 0.07752 0.79408 0.84109 0.0
H563 H 0.13549 0.85373 0.94638 0.0
H564 H 0.12762 0.84798 0.90049 0.0
H565 H 0.07884 0.78164 0.87874 0.0
H566 H 0.02291 0.79301 0.7624 0.0
H567 H 0.05736 0.77926 0.79093 0.0
H568 H 0.12286 0.83268 0.81665 0.0
C569 C 0.12731 0.83173 0.91134 0.0
C570 C 0.08917 0.79214 0.86507 0.0
C571 C 0.13152 0.83507 0.93776 0.0
C572 C 0.03677 0.80667 0.77113 0.0
C573 C 0.05634 0.79884 0.78766 0.0
C574 C 0.11335 0.82108 0.82986 0.0
C575 C 0.12112 0.80804 0.89938 0.0
C576 C 0.11239 0.80556 0.87216 0.0
C577 C 0.07305 0.81635 0.80127 0.0
C578 C 0.08887 0.80944 0.82363 0.0
H579 H 0.1235 0.77478 0.95182 0.0
H580 H 0.11592 0.76903 0.90556 0.0
H581 H 0.14316 0.82937 0.85868 0.0
H582 H 0.05016 0.86902 0.77717 0.0
H583 H 0.08385 0.85557 0.80627 0.0
C584 C 0.8905 0.10861 0.92531 0.0
C585 C 0.86625 0.12132 0.92871 0.0
C586 C 0.89504 0.09278 0.90322 0.0
C587 C 0.90396 0.07015 0.84852 0.0
H588 H 0.84897 0.02158 0.82897 0.0
C589 C 0.87947 0.98077 0.76932 0.0
C590 C 0.90392 0.96839 0.77019 0.0
C591 C 0.87499 0.0027 0.78497 0.0
C592 C 0.86434 0.03532 0.83374 0.0
H593 H 0.82795 0.1276 0.91123 0.0
H594 H 0.83589 0.09978 0.87281 0.0
H595 H 0.84084 0.05381 0.86348 0.0
H596 H 0.94311 0.9697 0.78752 0.0
H597 H 0.93525 0.00764 0.81501 0.0
H598 H 0.9276 0.05151 0.81896 0.0
C599 C 0.8513 0.10207 0.88732 0.0
C600 C 0.85969 0.05375 0.85361 0.0
C601 C 0.84682 0.11806 0.90931 0.0
C602 C 0.92418 0.97899 0.78616 0.0
C603 C 0.91965 0.00079 0.80193 0.0
C604 C 0.90856 0.05181 0.82849 0.0
C605 C 0.87539 0.08916 0.88412 0.0
C606 C 0.87962 0.07106 0.86153 0.0
C607 C 0.89479 0.0126 0.80199 0.0
C608 C 0.88899 0.03387 0.82118 0.0
H609 H 0.90596 0.11076 0.93977 0.0
H610 H 0.9137 0.08286 0.9014 0.0
H611 H 0.91954 0.0835 0.85398 0.0
H612 H 0.86361 0.97317 0.75695 0.0
H613 H 0.85579 0.01159 0.78415 0.0
C614 C 0.38202 0.33121 0.45916 0.0
C615 C 0.38215 0.3095 0.47229 0.0
C616 C 0.38561 0.32986 0.4327 0.0
C617 C 0.416 0.29256 0.37952 0.0
H618 H 0.37412 0.33498 0.33876 0.0
C619 C 0.44023 0.30496 0.27308 0.0
C620 C 0.44112 0.33003 0.26733 0.0
C621 C 0.42905 0.29851 0.29608 0.0
C622 C 0.38599 0.32302 0.34985 0.0
H623 H 0.38613 0.26924 0.46775 0.0
H624 H 0.39287 0.26697 0.42124 0.0
H625 H 0.36212 0.33084 0.38325 0.0
H626 H 0.43089 0.36788 0.28149 0.0
H627 H 0.41127 0.35666 0.32099 0.0
H628 H 0.44055 0.28559 0.34639 0.0
C629 C 0.38984 0.285 0.43164 0.0
C630 C 0.3791 0.32063 0.37531 0.0
C631 C 0.38591 0.28631 0.45822 0.0
C632 C 0.42997 0.34832 0.28482 0.0
C633 C 0.41874 0.34188 0.30762 0.0
C634 C 0.42298 0.29503 0.354 0.0
C635 C 0.38964 0.3068 0.41864 0.0
C636 C 0.39451 0.30602 0.39065 0.0
C637 C 0.41841 0.31697 0.31371 0.0
C638 C 0.40853 0.31093 0.33916 0.0
H639 H 0.37905 0.34939 0.46929 0.0
H640 H 0.38576 0.34703 0.4233 0.0
H641 H 0.42831 0.28126 0.39093 0.0
H642 H 0.44842 0.29036 0.25995 0.0
H643 H 0.42892 0.27912 0.30016 0.0
C644 C 0.23372 0.90079 0.02508 0.0
C645 C 0.20691 0.89815 0.01757 0.0
C646 C 0.24867 0.92123 0.01839 0.0
C647 C 0.23845 0.9857 0.0076 0.0
H648 H 0.3074 0.98531 0.97495 0.0
C649 C 0.29278 0.07694 0.99559 0.0
C650 C 0.29985 0.08026 0.97017 0.0
C651 C 0.28632 0.0533 0.00275 0.0
C652 C 0.28821 0.98561 0.9842 0.0
H653 H 0.17545 0.91412 0.99565 0.0
H654 H 0.2014 0.94965 0.98446 0.0
H655 H 0.28611 0.94563 0.98337 0.0
H656 H 0.30761 0.06114 0.93281 0.0
H657 H 0.29608 0.01971 0.94536 0.0
H658 H 0.24013 0.02539 0.00835 0.0
C659 C 0.21072 0.93603 0.99564 0.0
C660 C 0.27614 0.96301 0.98907 0.0
C661 C 0.19592 0.9156 0.00205 0.0
C662 C 0.30192 0.05918 0.95247 0.0
C663 C 0.29559 0.03546 0.95969 0.0
C664 C 0.2506 0.00817 0.00311 0.0
C665 C 0.23696 0.9394 0.00432 0.0
C666 C 0.25094 0.96293 0.00041 0.0
C667 C 0.28687 0.03245 0.98469 0.0
C668 C 0.27545 0.00839 0.99112 0.0
H669 H 0.24287 0.88763 0.03692 0.0
H670 H 0.26892 0.92348 0.02527 0.0
H671 H 0.21911 0.98611 0.01659 0.0
H672 H 0.29079 0.09279 0.00964 0.0
H673 H 0.27989 0.05145 0.02221 0.0
C674 C 0.53629 0.68628 0.48061 0.0
C675 C 0.54915 0.66568 0.48992 0.0
C676 C 0.50996 0.68434 0.47201 0.0
C677 C 0.46239 0.63709 0.44565 0.0
H678 H 0.40948 0.6886 0.45948 0.0
C679 C 0.35441 0.62028 0.41479 0.0
C680 C 0.34127 0.63954 0.40347 0.0
C681 C 0.37869 0.62469 0.42725 0.0
C682 C 0.42413 0.67416 0.45526 0.0
H683 H 0.54388 0.6272 0.49849 0.0
H684 H 0.49813 0.62395 0.48369 0.0
H685 H 0.45405 0.69423 0.47797 0.0
H686 H 0.34276 0.67874 0.39703 0.0
H687 H 0.38561 0.68645 0.41856 0.0
H688 H 0.43292 0.61715 0.4227 0.0
C689 C 0.50854 0.64147 0.48265 0.0
C690 C 0.44961 0.67738 0.46587 0.0
C691 C 0.53476 0.6434 0.49125 0.0
C692 C 0.35246 0.66358 0.40566 0.0
C693 C 0.37694 0.66798 0.41803 0.0
C694 C 0.43707 0.63393 0.43502 0.0
C695 C 0.496 0.66174 0.47249 0.0
C696 C 0.46893 0.65876 0.4613 0.0
C697 C 0.39056 0.64844 0.42854 0.0
C698 C 0.41754 0.6523 0.43983 0.0
H699 H 0.54673 0.70375 0.47934 0.0
H700 H 0.50086 0.70024 0.46417 0.0
H701 H 0.47701 0.62266 0.44127 0.0
H702 H 0.34596 0.60169 0.41386 0.0
H703 H 0.3883 0.60937 0.43571 0.0
C704 C 0.37425 0.40835 0.62808 0.0
C705 C 0.36257 0.38499 0.63082 0.0
C706 C 0.37966 0.42478 0.64956 0.0
C707 C 0.39802 0.42835 0.71573 0.0
H708 H 0.36976 0.49547 0.71958 0.0
C709 C 0.42453 0.50114 0.80003 0.0
C710 C 0.42783 0.5259 0.79409 0.0
C711 C 0.41398 0.48319 0.78181 0.0
C712 C 0.37815 0.47693 0.71871 0.0
H713 H 0.3477 0.36037 0.65819 0.0
H714 H 0.35813 0.38901 0.69603 0.0
H715 H 0.35663 0.46544 0.68427 0.0
H716 H 0.42333 0.55126 0.76445 0.0
H717 H 0.40604 0.52 0.7324 0.0
H718 H 0.42077 0.44001 0.74921 0.0
C719 C 0.36262 0.39457 0.67712 0.0
C720 C 0.37039 0.45971 0.69858 0.0
C721 C 0.3566 0.37831 0.65554 0.0
C722 C 0.42057 0.53237 0.76964 0.0
C723 C 0.41048 0.51441 0.75132 0.0
C724 C 0.40623 0.44573 0.73563 0.0
C725 C 0.37404 0.41799 0.67424 0.0
C726 C 0.38049 0.4354 0.69678 0.0
C727 C 0.40695 0.48955 0.75713 0.0
C728 C 0.3967 0.4704 0.73718 0.0
H729 H 0.37895 0.41406 0.60927 0.0
H730 H 0.38862 0.44271 0.64693 0.0
H731 H 0.40619 0.4097 0.71456 0.0
H732 H 0.42988 0.49575 0.81883 0.0
H733 H 0.41121 0.46438 0.78718 0.0
C734 C 0.03771 0.84113 0.04608 0.0
C735 C 0.05407 0.8203 0.04834 0.0
C736 C 0.01159 0.84121 0.05466 0.0
C737 C 0.9557 0.80268 0.07321 0.0
H738 H 0.93754 0.86273 0.1157 0.0
C739 C 0.85866 0.81516 0.13348 0.0
C740 C 0.84748 0.83911 0.13554 0.0
C741 C 0.88281 0.81082 0.12074 0.0
C742 C 0.94208 0.84597 0.10357 0.0
H743 H 0.05519 0.78267 0.06026 0.0
H744 H 0.00926 0.78293 0.0754 0.0
H745 H 0.98147 0.85862 0.09713 0.0
H746 H 0.85143 0.87675 0.12437 0.0
H747 H 0.89301 0.86913 0.10163 0.0
H748 H 0.91599 0.79016 0.07971 0.0
C749 C 0.01687 0.79914 0.0669 0.0
C750 C 0.96732 0.8436 0.09299 0.0
C751 C 0.04318 0.79905 0.05831 0.0
C752 C 0.85994 0.85823 0.12343 0.0
C753 C 0.8838 0.85386 0.11053 0.0
C754 C 0.93022 0.80512 0.08376 0.0
C755 C 0.00108 0.82049 0.06574 0.0
C756 C 0.97434 0.82211 0.07745 0.0
C757 C 0.89599 0.83035 0.10972 0.0
C758 C 0.92305 0.82697 0.09881 0.0
H759 H 0.04523 0.85772 0.03821 0.0
H760 H 0.99971 0.85775 0.05305 0.0
H761 H 0.96062 0.78591 0.06128 0.0
H762 H 0.84936 0.80015 0.14272 0.0
H763 H 0.8917 0.79251 0.1205 0.0
C764 C 0.7029 0.5968 0.5538 0.0
C765 C 0.70916 0.60625 0.53034 0.0
C766 C 0.71991 0.58014 0.56461 0.0
C767 C 0.766 0.53115 0.54461 0.0
H768 H 0.77863 0.52951 0.61755 0.0
C769 C 0.8071 0.44284 0.58414 0.0
C770 C 0.79335 0.43526 0.60547 0.0
C771 C 0.80422 0.46706 0.57679 0.0
C772 C 0.77524 0.52965 0.59713 0.0
H773 H 0.73885 0.60655 0.50048 0.0
H774 H 0.7684 0.57702 0.51928 0.0
H775 H 0.75951 0.56673 0.60128 0.0
H776 H 0.76756 0.44783 0.63699 0.0
H777 H 0.76164 0.48951 0.62364 0.0
H778 H 0.78002 0.49367 0.54042 0.0
C779 C 0.75031 0.58261 0.52923 0.0
C780 C 0.76441 0.55101 0.58783 0.0
C781 C 0.73343 0.59956 0.51855 0.0
C782 C 0.77798 0.45289 0.62014 0.0
C783 C 0.77492 0.47699 0.61268 0.0
C784 C 0.77655 0.50971 0.55391 0.0
C785 C 0.74343 0.57236 0.5521 0.0
C786 C 0.75902 0.55169 0.56156 0.0
C787 C 0.7874 0.48419 0.59048 0.0
C788 C 0.78057 0.5084 0.58037 0.0
H789 H 0.68447 0.60175 0.56348 0.0
H790 H 0.71396 0.57237 0.58213 0.0
H791 H 0.76178 0.53103 0.52429 0.0
H792 H 0.81907 0.42975 0.57237 0.0
H793 H 0.81452 0.4721 0.55986 0.0
C794 C 0.89296 0.17436 0.10003 0.0
C795 C 0.89023 0.19626 0.08742 0.0
C796 C 0.89799 0.17555 0.12629 0.0
C797 C 0.92738 0.21514 0.17907 0.0
H798 H 0.89485 0.1665 0.21977 0.0
C799 C 0.93294 0.17483 0.28634 0.0
C800 C 0.96062 0.17226 0.28815 0.0
C801 C 0.92137 0.18361 0.26452 0.0
C802 C 0.9038 0.18056 0.20892 0.0
H803 H 0.89045 0.23669 0.09277 0.0
H804 H 0.89951 0.23872 0.13894 0.0
H805 H 0.87904 0.1705 0.17636 0.0
H806 H 0.99789 0.17787 0.26883 0.0
H807 H 0.97782 0.19303 0.23092 0.0
H808 H 0.95252 0.22483 0.21154 0.0
C809 C 0.89773 0.22064 0.12827 0.0
C810 C 0.89493 0.18264 0.18391 0.0
C811 C 0.89246 0.21946 0.10187 0.0
C812 C 0.97653 0.17994 0.26826 0.0
C813 C 0.96499 0.18867 0.24647 0.0
C814 C 0.9363 0.21304 0.20414 0.0
C815 C 0.90052 0.19866 0.14072 0.0
C816 C 0.90716 0.19939 0.16844 0.0
C817 C 0.93724 0.18995 0.24401 0.0
C818 C 0.92511 0.19522 0.2191 0.0
H819 H 0.89127 0.15614 0.08962 0.0
H820 H 0.90048 0.15827 0.1352 0.0
H821 H 0.93722 0.22819 0.1676 0.0
H822 H 0.92016 0.16943 0.30151 0.0
H823 H 0.89995 0.18476 0.26339 0.0
C824 C 0.13372 0.76028 0.11855 0.0
C825 C 0.1494 0.78188 0.11788 0.0
C826 C 0.12991 0.74942 0.14159 0.0
C827 C 0.13604 0.76167 0.21223 0.0
H828 H 0.14874 0.69058 0.21031 0.0
C829 C 0.17559 0.7126 0.29767 0.0
C830 C 0.16963 0.68726 0.2993 0.0
C831 C 0.16525 0.7253 0.27772 0.0
C832 C 0.14446 0.71034 0.21124 0.0
H833 H 0.17286 0.80927 0.14113 0.0
H834 H 0.16651 0.79017 0.18102 0.0
H835 H 0.14588 0.71038 0.17046 0.0
H836 H 0.14615 0.65607 0.28251 0.0
H837 H 0.12746 0.67847 0.24832 0.0
H838 H 0.13554 0.7617 0.25314 0.0
C839 C 0.15688 0.78179 0.16383 0.0
C840 C 0.1429 0.72171 0.18832 0.0
C841 C 0.16076 0.79258 0.14085 0.0
C842 C 0.15115 0.67559 0.28194 0.0
C843 C 0.14068 0.68834 0.26209 0.0
C844 C 0.13754 0.75028 0.23519 0.0
C845 C 0.14159 0.76 0.16445 0.0
C846 C 0.13941 0.74759 0.18858 0.0
C847 C 0.14858 0.71297 0.25906 0.0
C848 C 0.14248 0.72457 0.23497 0.0
H849 H 0.12451 0.75162 0.10127 0.0
H850 H 0.11788 0.73271 0.14151 0.0
H851 H 0.13288 0.78162 0.21299 0.0
H852 H 0.1894 0.72225 0.31102 0.0
H853 H 0.17181 0.74426 0.27598 0.0
C854 C 0.70984 0.75073 0.52279 0.0
C855 C 0.71519 0.72608 0.51318 0.0
C856 C 0.73033 0.76644 0.5324 0.0
C857 C 0.80403 0.77297 0.53556 0.0
H858 H 0.78888 0.81235 0.59927 0.0
C859 C 0.88282 0.80736 0.61094 0.0
C860 C 0.87861 0.83026 0.62534 0.0
C861 C 0.86442 0.79836 0.59232 0.0
C862 C 0.79337 0.80188 0.58121 0.0
H863 H 0.74644 0.69879 0.50568 0.0
H864 H 0.78198 0.72591 0.52311 0.0
H865 H 0.75331 0.7893 0.57651 0.0
H866 H 0.85275 0.86245 0.63023 0.0
H867 H 0.8209 0.8469 0.59748 0.0
H868 H 0.84448 0.78484 0.54111 0.0
C869 C 0.76205 0.73333 0.52271 0.0
C870 C 0.77292 0.78863 0.56812 0.0
C871 C 0.7416 0.71769 0.51289 0.0
C872 C 0.85667 0.8448 0.6194 0.0
C873 C 0.83826 0.83578 0.60083 0.0
C874 C 0.82457 0.78613 0.5488 0.0
C875 C 0.75663 0.75782 0.53287 0.0
C876 C 0.77805 0.77369 0.54534 0.0
C877 C 0.84143 0.81207 0.58779 0.0
C878 C 0.81949 0.80043 0.57196 0.0
H879 H 0.68977 0.7579 0.52302 0.0
H880 H 0.7255 0.78533 0.53965 0.0
H881 H 0.80859 0.76198 0.51784 0.0
H882 H 0.89972 0.79589 0.61489 0.0
H883 H 0.86739 0.77999 0.58264 0.0
C884 C 0.76356 0.2219 0.04408 0.0
C885 C 0.78492 0.23582 0.03555 0.0
C886 C 0.74279 0.23375 0.05776 0.0
C887 C 0.70558 0.29052 0.06502 0.0
H888 H 0.68557 0.27068 0.13175 0.0
C889 C 0.62129 0.3404 0.12313 0.0
C890 C 0.60554 0.32622 0.1385 0.0
C891 C 0.64407 0.33016 0.1114 0.0
C892 C 0.69053 0.27621 0.11296 0.0
H893 H 0.80125 0.27303 0.0345 0.0
H894 H 0.76424 0.29389 0.05779 0.0
H895 H 0.72359 0.25115 0.10961 0.0
H896 H 0.60077 0.29026 0.15345 0.0
H897 H 0.63973 0.2718 0.13198 0.0
H898 H 0.67195 0.3146 0.06747 0.0
C899 C 0.76394 0.27377 0.05412 0.0
C900 C 0.71248 0.26515 0.10043 0.0
C901 C 0.78507 0.26185 0.04092 0.0
C902 C 0.61278 0.30157 0.1418 0.0
C903 C 0.63525 0.29113 0.12964 0.0
C904 C 0.68328 0.30123 0.07727 0.0
C905 C 0.7427 0.25978 0.0627 0.0
C906 C 0.72015 0.27221 0.07637 0.0
C907 C 0.65133 0.30531 0.11435 0.0
C908 C 0.67538 0.29419 0.10143 0.0
H909 H 0.76299 0.20179 0.04036 0.0
H910 H 0.72653 0.22263 0.06411 0.0
H911 H 0.71101 0.29604 0.04632 0.0
H912 H 0.61621 0.35958 0.12059 0.0
H913 H 0.65614 0.34191 0.1003 0.0
C914 C 0.32016 0.27068 0.64709 0.0
C915 C 0.34217 0.26748 0.63077 0.0
C916 C 0.32051 0.26168 0.6712 0.0
C917 C 0.35187 0.21858 0.71247 0.0
H918 H 0.32563 0.26633 0.7661 0.0
C919 C 0.34911 0.2025 0.82173 0.0
C920 C 0.32511 0.20943 0.83398 0.0
C921 C 0.35378 0.20818 0.79651 0.0
C922 C 0.33291 0.25275 0.75134 0.0
H923 H 0.38131 0.25105 0.62648 0.0
H924 H 0.38191 0.23523 0.66913 0.0
H925 H 0.32923 0.27827 0.72252 0.0
H926 H 0.28668 0.22644 0.82881 0.0
H927 H 0.29498 0.23658 0.78525 0.0
H928 H 0.35519 0.19296 0.74162 0.0
C929 C 0.36443 0.2448 0.66301 0.0
C930 C 0.33497 0.25957 0.72639 0.0
C931 C 0.36407 0.25385 0.63865 0.0
C932 C 0.30567 0.22147 0.82025 0.0
C933 C 0.31038 0.22722 0.79524 0.0
C934 C 0.34983 0.21171 0.73763 0.0
C935 C 0.3429 0.2493 0.67975 0.0
C936 C 0.34375 0.24239 0.70654 0.0
C937 C 0.3346 0.22098 0.78322 0.0
C938 C 0.33966 0.22858 0.75713 0.0
H939 H 0.30274 0.28068 0.64149 0.0
H940 H 0.30333 0.26484 0.6834 0.0
H941 H 0.35874 0.20499 0.69753 0.0
H942 H 0.36452 0.19328 0.83183 0.0
H943 H 0.37265 0.2032 0.78769 0.0
C944 C 0.64588 0.68899 0.39506 0.0
C945 C 0.64024 0.70468 0.4172 0.0
C946 C 0.64329 0.6976 0.37083 0.0
C947 C 0.61757 0.74955 0.33517 0.0
H948 H 0.678 0.73255 0.29163 0.0
C949 C 0.65694 0.80963 0.25788 0.0
C950 C 0.67068 0.798 0.23685 0.0
C951 C 0.64578 0.79544 0.27622 0.0
C952 C 0.6606 0.73706 0.30316 0.0
H953 H 0.62627 0.74133 0.43127 0.0
H954 H 0.62259 0.75677 0.38884 0.0
H955 H 0.67304 0.71325 0.33137 0.0
H956 H 0.68097 0.76239 0.21701 0.0
H957 H 0.66119 0.73752 0.24892 0.0
H958 H 0.60594 0.77432 0.30717 0.0
C959 C 0.62855 0.73762 0.39021 0.0
C960 C 0.65777 0.72598 0.32608 0.0
C961 C 0.63083 0.72886 0.41454 0.0
C962 C 0.67087 0.77184 0.23326 0.0
C963 C 0.65961 0.75764 0.25155 0.0
C964 C 0.62047 0.76074 0.31216 0.0
C965 C 0.63536 0.72224 0.36811 0.0
C966 C 0.6365 0.73239 0.34261 0.0
C967 C 0.64809 0.76934 0.27385 0.0
C968 C 0.64231 0.75493 0.29614 0.0
H969 H 0.65264 0.67006 0.39644 0.0
H970 H 0.64805 0.68506 0.3542 0.0
H971 H 0.60077 0.75463 0.3473 0.0
H972 H 0.65665 0.82976 0.26134 0.0
H973 H 0.63723 0.80508 0.29322 0.0
C974 C 0.83139 0.22418 0.90784 0.0
C975 C 0.84523 0.23582 0.92901 0.0
C976 C 0.83245 0.23379 0.88403 0.0
C977 C 0.84277 0.28969 0.85133 0.0
H978 H 0.85524 0.24218 0.79266 0.0
C979 C 0.84085 0.31703 0.7462 0.0
C980 C 0.82699 0.30036 0.72873 0.0
C981 C 0.84667 0.31057 0.77095 0.0
C982 C 0.85161 0.25568 0.80881 0.0
H983 H 0.87053 0.26722 0.94177 0.0
H984 H 0.87197 0.28433 0.8998 0.0
H985 H 0.8586 0.22874 0.83579 0.0
H986 H 0.8078 0.26412 0.7238 0.0
H987 H 0.81787 0.25291 0.7667 0.0
H988 H 0.83479 0.31643 0.82423 0.0
C989 C 0.86049 0.26759 0.90191 0.0
C990 C 0.85363 0.24799 0.83349 0.0
C991 C 0.85968 0.25777 0.92585 0.0
C992 C 0.81905 0.27716 0.73655 0.0
C993 C 0.82484 0.27073 0.76119 0.0
C994 C 0.84058 0.29739 0.82653 0.0
C995 C 0.84721 0.2554 0.88071 0.0
C996 C 0.84855 0.26472 0.85495 0.0
C997 C 0.83876 0.2873 0.77868 0.0
C998 C 0.84427 0.28025 0.805 0.0
H999 H 0.82003 0.20727 0.90943 0.0
H1000 H 0.82166 0.22425 0.86811 0.0
H1001 H 0.83869 0.30292 0.8676 0.0
H1002 H 0.8474 0.33498 0.74066 0.0
H1003 H 0.85757 0.32367 0.78394 0.0
C1004 C 0.25411 0.27621 0.52819 0.0
C1005 C 0.28027 0.26716 0.52678 0.0
C1006 C 0.23353 0.26315 0.515 0.0
C1007 C 0.19177 0.22449 0.49757 0.0
H1008 H 0.20329 0.19515 0.42828 0.0
C1009 C 0.11506 0.15905 0.44386 0.0
C1010 C 0.11058 0.16225 0.41783 0.0
C1011 C 0.13588 0.17158 0.45723 0.0
C1012 C 0.1997 0.20337 0.44755 0.0
H1013 H 0.30519 0.23714 0.51028 0.0
H1014 H 0.26922 0.21431 0.48749 0.0
H1015 H 0.23925 0.21787 0.4513 0.0
H1016 H 0.12421 0.18147 0.38555 0.0
H1017 H 0.16051 0.20335 0.40888 0.0
H1018 H 0.15206 0.21042 0.49364 0.0
C1019 C 0.26471 0.23168 0.4986 0.0
C1020 C 0.2204 0.21615 0.46085 0.0
C1021 C 0.28531 0.24473 0.5118 0.0
C1022 C 0.12739 0.17829 0.40548 0.0
C1023 C 0.1482 0.19082 0.41885 0.0
C1024 C 0.17108 0.21168 0.48428 0.0
C1025 C 0.23858 0.24074 0.50005 0.0
C1026 C 0.21666 0.22691 0.486 0.0
C1027 C 0.1527 0.18761 0.44488 0.0
C1028 C 0.17478 0.20102 0.4591 0.0
H1029 H 0.24945 0.29346 0.53943 0.0
H1030 H 0.21368 0.27082 0.51624 0.0
H1031 H 0.18832 0.23233 0.51701 0.0
H1032 H 0.10272 0.14655 0.45383 0.0
H1033 H 0.13905 0.16842 0.47717 0.0
C1034 C 0.24993 0.77921 0.03072 0.0
C1035 C 0.22434 0.77611 0.02005 0.0
C1036 C 0.27153 0.76644 0.01927 0.0
C1037 C 0.29474 0.73874 0.95751 0.0
H1038 H 0.34306 0.70087 0.99687 0.0
C1039 C 0.37289 0.67387 0.90807 0.0
C1040 C 0.39761 0.67173 0.92011 0.0
C1041 C 0.35223 0.68688 0.92077 0.0
C1042 C 0.33004 0.71168 0.98564 0.0
H1043 H 0.2014 0.75717 0.98896 0.0
H1044 H 0.23919 0.73525 0.96883 0.0
H1045 H 0.30626 0.72329 0.01835 0.0
H1046 H 0.42032 0.68168 0.95471 0.0
H1047 H 0.3845 0.70514 0.97673 0.0
H1048 H 0.31862 0.72781 0.92492 0.0
C1049 C 0.24245 0.74748 0.9861 0.0
C1050 C 0.30891 0.72442 0.99796 0.0
C1051 C 0.22082 0.75992 0.99774 0.0
C1052 C 0.40135 0.68292 0.94509 0.0
C1053 C 0.38077 0.69624 0.95771 0.0
C1054 C 0.31604 0.72632 0.94525 0.0
C1055 C 0.268 0.75068 0.99671 0.0
C1056 C 0.29092 0.73784 0.98395 0.0
C1057 C 0.35591 0.69837 0.94572 0.0
C1058 C 0.33382 0.71238 0.95908 0.0
H1059 H 0.25329 0.79149 0.04793 0.0
H1060 H 0.29107 0.76929 0.02774 0.0
H1061 H 0.28136 0.74928 0.94634 0.0
H1062 H 0.36936 0.66507 0.88896 0.0
H1063 H 0.33323 0.68758 0.91111 0.0
loop_
_geom_bond_atom_site_label_1
_geom_bond_atom_site_label_2
_geom_bond_distance
_geom_bond_site_symmetry_2
_ccdc_geom_bond_type
Sc0 O3 2.025 . S
Sc0 O10 2.105 . S
Sc0 O13 2.105 . S
Sc0 O16 2.105 . S
Sc0 O19 2.105 . S
Sc1 O3 2.025 . S
Sc1 O11 2.105 . S
Sc1 O15 2.105 . S
Sc1 O17 2.105 . S
Sc1 O21 2.105 . S
Sc2 O3 2.025 . S
Sc2 O12 2.105 . S
Sc2 O14 2.105 . S
Sc2 O18 2.105 . S
Sc2 O20 2.105 . S
O3 Sc0 2.025 . S
O3 Sc1 2.025 . S
O3 Sc2 2.025 . S
C4 O10 1.268 . S
C4 O20 1.268 . S
C5 O11 1.268 1_556 S
C5 O19 1.268 1_556 S
C6 O12 1.268 . S
C6 O21 1.268 . S
C7 O13 1.268 . S
C7 O17 1.268 . S
C8 O14 1.268 . S
C8 O16 1.268 . S
C9 O15 1.268 . S
C9 O18 1.268 . S
O10 Sc0 2.105 . S
O10 C4 1.268 . S
O11 Sc1 2.105 . S
O11 C5 1.268 1_554 S
O12 Sc2 2.105 . S
O12 C6 1.268 . S
O13 Sc0 2.105 . S
O13 C7 1.268 . S
O14 Sc2 2.105 . S
O14 C8 1.268 . S
O15 Sc1 2.105 . S
O15 C9 1.268 . S
O16 Sc0 2.105 . S
O16 C8 1.268 . S
O17 Sc1 2.105 . S
O17 C7 1.268 . S
O18 Sc2 2.105 . S
O18 C9 1.268 . S
O19 Sc0 2.105 . S
O19 C5 1.268 1_554 S
O20 Sc2 2.105 . S
O20 C4 1.268 . S
O21 Sc1 2.105 . S
O21 C6 1.268 . S
Sc22 O25 2.025 . S
Sc22 O32 2.105 . S
Sc22 O35 2.105 . S
Sc22 O38 2.105 . S
Sc22 O41 2.105 . S
Sc23 O25 2.025 . S
Sc23 O33 2.105 . S
Sc23 O37 2.105 . S
Sc23 O39 2.105 . S
Sc23 O43 2.105 . S
Sc24 O25 2.025 . S
Sc24 O34 2.105 . S
Sc24 O36 2.105 . S
Sc24 O40 2.105 . S
Sc24 O42 2.105 . S
O25 Sc22 2.025 . S
O25 Sc23 2.025 . S
O25 Sc24 2.025 . S
C26 O32 1.268 . S
C26 O42 1.268 . S
C27 O33 1.268 . S
C27 O41 1.268 . S
C28 O34 1.268 . S
C28 O43 1.268 . S
C29 O35 1.268 . S
C29 O39 1.268 . S
C30 O36 1.268 . S
C30 O38 1.268 . S
C31 O37 1.268 . S
C31 O40 1.268 . S
O32 Sc22 2.105 . S
O32 C26 1.268 . S
O33 Sc23 2.105 . S
O33 C27 1.268 . S
O34 Sc24 2.105 . S
O34 C28 1.268 . S
O35 Sc22 2.105 . S
O35 C29 1.268 . S
O36 Sc24 2.105 . S
O36 C30 1.268 . S
O37 Sc23 2.105 . S
O37 C31 1.268 . S
O38 Sc22 2.105 . S
O38 C30 1.268 . S
O39 Sc23 2.105 . S
O39 C29 1.268 . S
O40 Sc24 2.105 . S
O40 C31 1.268 . S
O41 Sc22 2.105 . S
O41 C27 1.268 . S
O42 Sc24 2.105 . S
O42 C26 1.268 . S
O43 Sc23 2.105 . S
O43 C28 1.268 . S
Sc44 O47 2.025 . S
Sc44 O54 2.105 1_554 S
Sc44 O57 2.105 . S
Sc44 O60 2.105 . S
Sc44 O63 2.105 1_554 S
Sc45 O47 2.025 1_556 S
Sc45 O55 2.105 . S
Sc45 O59 2.105 1_556 S
Sc45 O61 2.105 1_556 S
Sc45 O65 2.105 . S
Sc46 O47 2.025 . S
Sc46 O56 2.105 1_554 S
Sc46 O58 2.105 . S
Sc46 O62 2.105 . S
Sc46 O64 2.105 1_554 S
O47 Sc44 2.025 . S
O47 Sc45 2.025 1_554 S
O47 Sc46 2.025 . S
C48 O54 1.268 . S
C48 O64 1.268 . S
C49 O55 1.268 . S
C49 O63 1.268 . S
C50 O56 1.268 . S
C50 O65 1.268 . S
C51 O57 1.268 . S
C51 O61 1.268 . S
C52 O58 1.268 . S
C52 O60 1.268 . S
C53 O59 1.268 . S
C53 O62 1.268 . S
O54 Sc44 2.105 1_556 S
O54 C48 1.268 . S
O55 Sc45 2.105 . S
O55 C49 1.268 . S
O56 Sc46 2.105 1_556 S
O56 C50 1.268 . S
O57 Sc44 2.105 . S
O57 C51 1.268 . S
O58 Sc46 2.105 . S
O58 C52 1.268 . S
O59 Sc45 2.105 1_554 S
O59 C53 1.268 . S
O60 Sc44 2.105 . S
O60 C52 1.268 . S
O61 Sc45 2.105 1_554 S
O61 C51 1.268 . S
O62 Sc46 2.105 . S
O62 C53 1.268 . S
O63 Sc44 2.105 1_556 S
O63 C49 1.268 . S
O64 Sc46 2.105 1_556 S
O64 C48 1.268 . S
O65 Sc45 2.105 . S
O65 C50 1.268 . S
Sc66 O69 2.025 . S
Sc66 O76 2.105 . S
Sc66 O79 2.105 . S
Sc66 O82 2.105 . S
Sc66 O85 2.105 . S
Sc67 O69 2.025 . S
Sc67 O77 2.105 . S
Sc67 O81 2.105 . S
Sc67 O83 2.105 . S
Sc67 O87 2.105 . S
Sc68 O69 2.025 . S
Sc68 O78 2.105 . S
Sc68 O80 2.105 . S
Sc68 O84 2.105 . S
Sc68 O86 2.105 . S
O69 Sc66 2.025 . S
O69 Sc67 2.025 . S
O69 Sc68 2.025 . S
C70 O76 1.268 . S
C70 O86 1.268 . S
C71 O77 1.268 . S
C71 O85 1.268 . S
C72 O78 1.268 . S
C72 O87 1.268 . S
C73 O79 1.268 . S
C73 O83 1.268 . S
C74 O80 1.268 . S
C74 O82 1.268 . S
C75 O81 1.268 . S
C75 O84 1.268 . S
O76 Sc66 2.105 . S
O76 C70 1.268 . S
O77 Sc67 2.105 . S
O77 C71 1.268 . S
O78 Sc68 2.105 . S
O78 C72 1.268 . S
O79 Sc66 2.105 . S
O79 C73 1.268 . S
O80 Sc68 2.105 . S
O80 C74 1.268 . S
O81 Sc67 2.105 . S
O81 C75 1.268 . S
O82 Sc66 2.105 . S
O82 C74 1.268 . S
O83 Sc67 2.105 . S
O83 C73 1.268 . S
O84 Sc68 2.105 . S
O84 C75 1.268 . S
O85 Sc66 2.105 . S
O85 C71 1.268 . S
O86 Sc68 2.105 . S
O86 C70 1.268 . S
O87 Sc67 2.105 . S
O87 C72 1.268 . S
P88 O99 1.490 . S
P88 C102 1.812 . S
P88 C108 1.803 . S
P88 C114 1.819 . S
H89 C103 0.941 . S
H90 C104 0.939 . S
H91 C106 0.940 . S
H92 C107 0.940 . S
H93 C109 0.939 . S
H94 C110 0.942 . S
H95 C112 0.940 . S
H96 C113 0.939 . S
H97 C115 0.929 1_655 S
H98 C119 0.939 . S
O99 P88 1.490 . S
H100 C116 0.939 . S
H101 C118 0.940 . S
C102 P88 1.812 . S
C102 C103 1.389 . S
C102 C107 1.391 . S
C103 H89 0.941 . S
C103 C102 1.389 . S
C103 C104 1.397 . S
C104 H90 0.939 . S
C104 C103 1.397 . S
C104 C105 1.378 . S
C105 C104 1.378 . S
C105 C106 1.378 . S
C106 H91 0.940 . S
C106 C105 1.378 . S
C106 C107 1.396 . S
C107 H92 0.940 . S
C107 C102 1.391 . S
C107 C106 1.396 . S
C108 P88 1.803 . S
C108 C109 1.378 . S
C108 C113 1.400 . S
C109 H93 0.939 . S
C109 C108 1.378 . S
C109 C110 1.361 . S
C110 H94 0.942 . S
C110 C109 1.361 . S
C110 C111 1.369 . S
C111 C110 1.369 . S
C111 C112 1.404 . S
C112 H95 0.940 . S
C112 C111 1.404 . S
C112 C113 1.389 . S
C113 H96 0.939 . S
C113 C108 1.400 . S
C113 C112 1.389 . S
C114 P88 1.819 . S
C114 C115 1.424 . S
C114 C119 1.391 . S
C115 H97 0.929 1_455 S
C115 C114 1.424 . S
C115 C116 1.378 1_455 S
C116 H100 0.939 . S
C116 C115 1.378 1_655 S
C116 C117 1.397 . S
C117 C116 1.397 . S
C117 C118 1.385 1_655 S
C118 H101 0.940 . S
C118 C117 1.385 1_455 S
C118 C119 1.388 . S
C119 H98 0.939 . S
C119 C114 1.391 . S
C119 C118 1.388 . S
P120 O131 1.490 . S
P120 C134 1.812 . S
P120 C140 1.803 . S
P120 C146 1.819 . S
H121 C135 0.941 . S
H122 C136 0.939 . S
H123 C138 0.940 . S
H124 C139 0.940 . S
H125 C141 0.939 . S
H126 C142 0.942 . S
H127 C144 0.940 . S
H128 C145 0.939 . S
H129 C147 0.941 . S
H130 C151 0.939 . S
O131 P120 1.490 . S
H132 C148 0.939 . S
H133 C150 0.940 . S
C134 P120 1.812 . S
C134 C135 1.389 . S
C134 C139 1.391 . S
C135 H121 0.941 . S
C135 C134 1.389 . S
C135 C136 1.397 . S
C136 H122 0.939 . S
C136 C135 1.397 . S
C136 C137 1.378 . S
C137 C136 1.378 . S
C137 C138 1.378 . S
C138 H123 0.940 . S
C138 C137 1.378 . S
C138 C139 1.396 . S
C139 H124 0.940 . S
C139 C134 1.391 . S
C139 C138 1.396 . S
C140 P120 1.803 . S
C140 C141 1.378 . S
C140 C145 1.400 . S
C141 H125 0.939 . S
C141 C140 1.378 . S
C141 C142 1.361 . S
C142 H126 0.942 . S
C142 C141 1.361 . S
C142 C143 1.369 . S
C143 C142 1.369 . S
C143 C144 1.404 . S
C144 H127 0.940 . S
C144 C143 1.404 . S
C144 C145 1.389 . S
C145 H128 0.939 . S
C145 C140 1.400 . S
C145 C144 1.389 . S
C146 P120 1.819 . S
C146 C147 1.391 . S
C146 C151 1.391 . S
C147 H129 0.941 . S
C147 C146 1.391 . S
C147 C148 1.396 . S
C148 H132 0.939 . S
C148 C147 1.396 . S
C148 C149 1.397 . S
C149 C148 1.397 . S
C149 C150 1.385 . S
C150 H133 0.940 . S
C150 C149 1.385 . S
C150 C151 1.388 . S
C151 H130 0.939 . S
C151 C146 1.391 . S
C151 C150 1.388 . S
P152 O163 1.490 . S
P152 C166 1.812 . S
P152 C172 1.803 . S
P152 C178 1.819 . S
H153 C167 0.941 . S
H154 C168 0.939 . S
H155 C170 0.940 . S
H156 C171 0.940 . S
H157 C173 0.939 . S
H158 C174 0.942 . S
H159 C176 0.940 . S
H160 C177 0.939 . S
H161 C179 0.941 . S
H162 C183 0.939 . S
O163 P152 1.490 . S
H164 C180 0.939 . S
H165 C182 0.940 . S
C166 P152 1.812 . S
C166 C167 1.389 . S
C166 C171 1.391 . S
C167 H153 0.941 . S
C167 C166 1.389 . S
C167 C168 1.397 . S
C168 H154 0.939 . S
C168 C167 1.397 . S
C168 C169 1.378 . S
C169 C168 1.378 . S
C169 C170 1.378 . S
C170 H155 0.940 . S
C170 C169 1.378 . S
C170 C171 1.396 . S
C171 H156 0.940 . S
C171 C166 1.391 . S
C171 C170 1.396 . S
C172 P152 1.803 . S
C172 C173 1.378 . S
C172 C177 1.400 . S
C173 H157 0.939 . S
C173 C172 1.378 . S
C173 C174 1.361 . S
C174 H158 0.942 . S
C174 C173 1.361 . S
C174 C175 1.369 . S
C175 C174 1.369 . S
C175 C176 1.404 . S
C176 H159 0.940 . S
C176 C175 1.404 . S
C176 C177 1.389 . S
C177 H160 0.939 . S
C177 C172 1.400 . S
C177 C176 1.389 . S
C178 P152 1.819 . S
C178 C179 1.391 . S
C178 C183 1.391 . S
C179 H161 0.941 . S
C179 C178 1.391 . S
C179 C180 1.396 . S
C180 H164 0.939 . S
C180 C179 1.396 . S
C180 C181 1.397 . S
C181 C180 1.397 . S
C181 C182 1.385 . S
C182 H165 0.940 . S
C182 C181 1.385 . S
C182 C183 1.388 . S
C183 H162 0.939 . S
C183 C178 1.391 . S
C183 C182 1.388 . S
P184 O195 1.490 . S
P184 C198 1.812 . S
P184 C204 1.803 . S
P184 C210 1.819 . S
H185 C199 0.941 . S
H186 C200 0.939 . S
H187 C202 0.940 . S
H188 C203 0.940 . S
H189 C205 0.939 . S
H190 C206 0.942 . S
H191 C208 0.940 . S
H192 C209 0.939 . S
H193 C211 0.941 . S
H194 C215 0.939 . S
O195 P184 1.490 . S
H196 C212 0.939 . S
H197 C214 0.940 . S
C198 P184 1.812 . S
C198 C199 1.389 . S
C198 C203 1.391 . S
C199 H185 0.941 . S
C199 C198 1.389 . S
C199 C200 1.397 . S
C200 H186 0.939 . S
C200 C199 1.397 . S
C200 C201 1.378 . S
C201 C200 1.378 . S
C201 C202 1.378 . S
C202 H187 0.940 . S
C202 C201 1.378 . S
C202 C203 1.396 . S
C203 H188 0.940 . S
C203 C198 1.391 . S
C203 C202 1.396 . S
C204 P184 1.803 . S
C204 C205 1.378 . S
C204 C209 1.400 . S
C205 H189 0.939 . S
C205 C204 1.378 . S
C205 C206 1.361 . S
C206 H190 0.942 . S
C206 C205 1.361 . S
C206 C207 1.369 . S
C207 C206 1.369 . S
C207 C208 1.404 . S
C208 H191 0.940 . S
C208 C207 1.404 . S
C208 C209 1.389 . S
C209 H192 0.939 . S
C209 C204 1.400 . S
C209 C208 1.389 . S
C210 P184 1.819 . S
C210 C211 1.391 . S
C210 C215 1.391 . S
C211 H193 0.941 . S
C211 C210 1.391 . S
C211 C212 1.396 . S
C212 H196 0.939 . S
C212 C211 1.396 . S
C212 C213 1.397 . S
C213 C212 1.397 . S
C213 C214 1.385 . S
C214 H197 0.940 . S
C214 C213 1.385 . S
C214 C215 1.388 . S
C215 H194 0.939 . S
C215 C210 1.391 . S
C215 C214 1.388 . S
P216 O227 1.490 . S
P216 C230 1.812 . S
P216 C236 1.803 . S
P216 C242 1.819 . S
H217 C231 0.941 . S
H218 C232 0.939 . S
H219 C234 0.940 . S
H220 C235 0.940 . S
H221 C237 0.939 . S
H222 C238 0.942 . S
H223 C240 0.940 . S
H224 C241 0.939 . S
H225 C243 0.941 . S
H226 C247 0.939 . S
O227 P216 1.490 . S
H228 C244 0.939 . S
H229 C246 0.940 . S
C230 P216 1.812 . S
C230 C231 1.389 . S
C230 C235 1.391 . S
C231 H217 0.941 . S
C231 C230 1.389 . S
C231 C232 1.397 . S
C232 H218 0.939 . S
C232 C231 1.397 . S
C232 C233 1.378 . S
C233 C232 1.378 . S
C233 C234 1.378 . S
C234 H219 0.940 . S
C234 C233 1.378 . S
C234 C235 1.396 . S
C235 H220 0.940 . S
C235 C230 1.391 . S
C235 C234 1.396 . S
C236 P216 1.803 . S
C236 C237 1.378 . S
C236 C241 1.400 . S
C237 H221 0.939 . S
C237 C236 1.378 . S
C237 C238 1.361 . S
C238 H222 0.942 . S
C238 C237 1.361 . S
C238 C239 1.369 . S
C239 C238 1.369 . S
C239 C240 1.404 . S
C240 H223 0.940 . S
C240 C239 1.404 . S
C240 C241 1.389 . S
C241 H224 0.939 . S
C241 C236 1.400 . S
C241 C240 1.389 . S
C242 P216 1.819 . S
C242 C243 1.391 . S
C242 C247 1.391 . S
C243 H225 0.941 . S
C243 C242 1.391 . S
C243 C244 1.396 . S
C244 H228 0.939 . S
C244 C243 1.396 . S
C244 C245 1.397 . S
C245 C244 1.397 . S
C245 C246 1.385 . S
C246 H229 0.940 . S
C246 C245 1.385 . S
C246 C247 1.388 . S
C247 H226 0.939 . S
C247 C242 1.391 . S
C247 C246 1.388 . S
P248 O259 1.490 . S
P248 C262 1.812 . S
P248 C268 1.803 . S
P248 C274 1.819 . S
H249 C263 0.941 . S
H250 C264 0.939 . S
H251 C266 0.940 . S
H252 C267 0.940 . S
H253 C269 0.939 . S
H254 C270 0.942 . S
H255 C272 0.940 . S
H256 C273 0.939 . S
H257 C275 0.941 . S
H258 C279 0.939 . S
O259 P248 1.490 . S
H260 C276 0.939 . S
H261 C278 0.940 . S
C262 P248 1.812 . S
C262 C263 1.389 . S
C262 C267 1.391 . S
C263 H249 0.941 . S
C263 C262 1.389 . S
C263 C264 1.397 . S
C264 H250 0.939 . S
C264 C263 1.397 . S
C264 C265 1.378 . S
C265 C264 1.378 . S
C265 C266 1.378 . S
C266 H251 0.940 . S
C266 C265 1.378 . S
C266 C267 1.396 . S
C267 H252 0.940 . S
C267 C262 1.391 . S
C267 C266 1.396 . S
C268 P248 1.803 . S
C268 C269 1.378 . S
C268 C273 1.400 . S
C269 H253 0.939 . S
C269 C268 1.378 . S
C269 C270 1.361 . S
C270 H254 0.942 . S
C270 C269 1.361 . S
C270 C271 1.369 . S
C271 C270 1.369 . S
C271 C272 1.404 . S
C272 H255 0.940 . S
C272 C271 1.404 . S
C272 C273 1.389 . S
C273 H256 0.939 . S
C273 C268 1.400 . S
C273 C272 1.389 . S
C274 P248 1.819 . S
C274 C275 1.391 . S
C274 C279 1.391 . S
C275 H257 0.941 . S
C275 C274 1.391 . S
C275 C276 1.396 . S
C276 H260 0.939 . S
C276 C275 1.396 . S
C276 C277 1.397 . S
C277 C276 1.397 . S
C277 C278 1.385 . S
C278 H261 0.940 . S
C278 C277 1.385 . S
C278 C279 1.388 . S
C279 H258 0.939 . S
C279 C274 1.391 . S
C279 C278 1.388 . S
P280 O291 1.490 . S
P280 C294 1.812 . S
P280 C300 1.803 . S
P280 C306 1.819 . S
H281 C295 0.941 . S
H282 C296 0.939 . S
H283 C298 0.940 . S
H284 C299 0.940 . S
H285 C301 0.939 . S
H286 C302 0.942 . S
H287 C304 0.940 . S
H288 C305 0.939 . S
H289 C307 0.941 . S
H290 C311 0.939 . S
O291 P280 1.490 . S
H292 C308 0.939 . S
H293 C310 0.940 . S
C294 P280 1.812 . S
C294 C295 1.389 . S
C294 C299 1.391 . S
C295 H281 0.941 . S
C295 C294 1.389 . S
C295 C296 1.397 . S
C296 H282 0.939 . S
C296 C295 1.397 . S
C296 C297 1.378 . S
C297 C296 1.378 . S
C297 C298 1.378 . S
C298 H283 0.940 . S
C298 C297 1.378 . S
C298 C299 1.396 . S
C299 H284 0.940 . S
C299 C294 1.391 . S
C299 C298 1.396 . S
C300 P280 1.803 . S
C300 C301 1.378 . S
C300 C305 1.400 . S
C301 H285 0.939 . S
C301 C300 1.378 . S
C301 C302 1.361 . S
C302 H286 0.942 . S
C302 C301 1.361 . S
C302 C303 1.369 . S
C303 C302 1.369 . S
C303 C304 1.404 . S
C304 H287 0.940 . S
C304 C303 1.404 . S
C304 C305 1.389 . S
C305 H288 0.939 . S
C305 C300 1.400 . S
C305 C304 1.389 . S
C306 P280 1.819 . S
C306 C307 1.391 . S
C306 C311 1.391 . S
C307 H289 0.941 . S
C307 C306 1.391 . S
C307 C308 1.396 . S
C308 H292 0.939 . S
C308 C307 1.396 . S
C308 C309 1.397 . S
C309 C308 1.397 . S
C309 C310 1.385 . S
C310 H293 0.940 . S
C310 C309 1.385 . S
C310 C311 1.388 . S
C311 H290 0.939 . S
C311 C306 1.391 . S
C311 C310 1.388 . S
P312 O323 1.490 . S
P312 C326 1.812 . S
P312 C332 1.803 . S
P312 C338 1.819 . S
H313 C327 0.941 . S
H314 C328 0.939 . S
H315 C330 0.940 . S
H316 C331 0.940 . S
H317 C333 0.939 . S
H318 C334 0.942 . S
H319 C336 0.940 . S
H320 C337 0.939 . S
H321 C339 0.941 . S
H322 C343 0.939 . S
O323 P312 1.490 . S
H324 C340 0.939 . S
H325 C342 0.940 . S
C326 P312 1.812 . S
C326 C327 1.389 . S
C326 C331 1.391 . S
C327 H313 0.941 . S
C327 C326 1.389 . S
C327 C328 1.397 . S
C328 H314 0.939 . S
C328 C327 1.397 . S
C328 C329 1.378 . S
C329 C328 1.378 . S
C329 C330 1.378 . S
C330 H315 0.940 . S
C330 C329 1.378 . S
C330 C331 1.396 . S
C331 H316 0.940 . S
C331 C326 1.391 . S
C331 C330 1.396 . S
C332 P312 1.803 . S
C332 C333 1.378 . S
C332 C337 1.400 . S
C333 H317 0.939 . S
C333 C332 1.378 . S
C333 C334 1.361 . S
C334 H318 0.942 . S
C334 C333 1.361 . S
C334 C335 1.369 . S
C335 C334 1.369 . S
C335 C336 1.404 . S
C336 H319 0.940 . S
C336 C335 1.404 . S
C336 C337 1.389 . S
C337 H320 0.939 . S
C337 C332 1.400 . S
C337 C336 1.389 . S
C338 P312 1.819 . S
C338 C339 1.391 . S
C338 C343 1.391 . S
C339 H321 0.941 . S
C339 C338 1.391 . S
C339 C340 1.396 . S
C340 H324 0.939 . S
C340 C339 1.396 . S
C340 C341 1.397 . S
C341 C340 1.397 . S
C341 C342 1.385 . S
C342 H325 0.940 . S
C342 C341 1.385 . S
C342 C343 1.388 . S
C343 H322 0.939 . S
C343 C338 1.391 . S
C343 C342 1.388 . S
C344 C345 1.349 . S
C344 C346 1.327 . S
C344 H369 0.950 . S
C345 C344 1.349 . S
C345 C361 1.349 . S
C346 C344 1.327 . S
C346 C365 1.429 . S
C346 H370 0.950 . S
C347 C364 1.574 . S
C347 C366 1.368 . S
C347 H371 0.949 . S
H348 C352 0.949 . S
C349 C350 1.349 . S
C349 C351 1.327 . S
C349 H372 0.950 . S
C350 C349 1.349 . S
C350 C362 1.364 . S
C351 C349 1.327 . S
C351 C367 1.429 1_545 S
C351 H373 0.950 . S
C352 H348 0.949 . S
C352 C360 1.574 . S
C352 C368 1.368 . S
H353 C361 0.950 . S
H354 C359 0.950 . S
H355 C360 0.949 . S
H356 C362 0.945 1_565 S
H357 C363 0.950 . S
H358 C364 0.949 . S
C359 H354 0.950 . S
C359 C361 1.327 . S
C359 C365 1.429 . S
C360 C352 1.574 . S
C360 H355 0.949 . S
C360 C366 1.368 . S
C361 C345 1.349 . S
C361 H353 0.950 . S
C361 C359 1.327 . S
C362 C350 1.364 . S
C362 H356 0.945 1_545 S
C362 C363 1.317 1_545 S
C363 H357 0.950 . S
C363 C362 1.317 1_565 S
C363 C367 1.429 . S
C364 C347 1.574 . S
C364 H358 0.949 . S
C364 C368 1.368 . S
C365 C346 1.429 . S
C365 C359 1.429 . S
C365 C366 1.523 . S
C366 C347 1.368 . S
C366 C360 1.368 . S
C366 C365 1.523 . S
C367 C351 1.429 1_565 S
C367 C363 1.429 . S
C367 C368 1.523 . S
C368 C352 1.368 . S
C368 C364 1.368 . S
C368 C367 1.523 . S
H369 C344 0.950 . S
H370 C346 0.950 . S
H371 C347 0.949 . S
H372 C349 0.950 . S
H373 C351 0.950 . S
C374 C375 1.349 . S
C374 C376 1.327 . S
C374 H399 0.950 . S
C375 C374 1.349 . S
C375 C391 1.349 . S
C376 C374 1.327 . S
C376 C395 1.429 . S
C376 H400 0.950 . S
C377 C394 1.574 . S
C377 C396 1.368 . S
C377 H401 0.949 . S
H378 C382 0.949 . S
C379 C380 1.349 . S
C379 C381 1.327 . S
C379 H402 0.950 . S
C380 C379 1.349 . S
C380 C392 1.349 . S
C381 C379 1.327 . S
C381 C397 1.429 . S
C381 H403 0.950 . S
C382 H378 0.949 . S
C382 C390 1.574 . S
C382 C398 1.368 . S
H383 C391 0.950 . S
H384 C389 0.950 . S
H385 C390 0.949 . S
H386 C392 0.950 . S
H387 C393 0.950 . S
H388 C394 0.949 . S
C389 H384 0.950 . S
C389 C391 1.327 . S
C389 C395 1.429 . S
C390 C382 1.574 . S
C390 H385 0.949 . S
C390 C396 1.368 . S
C391 C375 1.349 . S
C391 H383 0.950 . S
C391 C389 1.327 . S
C392 C380 1.349 . S
C392 H386 0.950 . S
C392 C393 1.327 . S
C393 H387 0.950 . S
C393 C392 1.327 . S
C393 C397 1.429 . S
C394 C377 1.574 . S
C394 H388 0.949 . S
C394 C398 1.368 . S
C395 C376 1.429 . S
C395 C389 1.429 . S
C395 C396 1.523 . S
C396 C377 1.368 . S
C396 C390 1.368 . S
C396 C395 1.523 . S
C397 C381 1.429 . S
C397 C393 1.429 . S
C397 C398 1.523 . S
C398 C382 1.368 . S
C398 C394 1.368 . S
C398 C397 1.523 . S
H399 C374 0.950 . S
H400 C376 0.950 . S
H401 C377 0.949 . S
H402 C379 0.950 . S
H403 C381 0.950 . S
C404 C405 1.349 . S
C404 C406 1.327 . S
C404 H429 0.950 . S
C405 C404 1.349 . S
C405 C421 1.349 . S
C406 C404 1.327 . S
C406 C425 1.429 . S
C406 H430 0.950 . S
C407 C424 1.574 . S
C407 C426 1.368 . S
C407 H431 0.949 . S
H408 C412 0.949 1_565 S
C409 C410 1.349 . S
C409 C411 1.327 . S
C409 H432 0.950 . S
C410 C409 1.349 . S
C410 C422 1.349 . S
C411 C409 1.327 . S
C411 C427 1.429 . S
C411 H433 0.950 . S
C412 H408 0.949 1_545 S
C412 C420 1.574 . S
C412 C428 1.368 . S
H413 C421 0.950 . S
H414 C419 0.950 . S
H415 C420 0.949 . S
H416 C422 0.950 . S
H417 C423 0.950 . S
H418 C424 0.949 . S
C419 H414 0.950 . S
C419 C421 1.327 . S
C419 C425 1.429 . S
C420 C412 1.574 . S
C420 H415 0.949 . S
C420 C426 1.368 . S
C421 C405 1.349 . S
C421 H413 0.950 . S
C421 C419 1.327 . S
C422 C410 1.349 . S
C422 H416 0.950 . S
C422 C423 1.327 . S
C423 H417 0.950 . S
C423 C422 1.327 . S
C423 C427 1.429 . S
C424 C407 1.574 . S
C424 H418 0.949 . S
C424 C428 1.368 . S
C425 C406 1.429 . S
C425 C419 1.429 . S
C425 C426 1.523 . S
C426 C407 1.368 . S
C426 C420 1.368 . S
C426 C425 1.523 . S
C427 C411 1.429 . S
C427 C423 1.429 . S
C427 C428 1.523 1_565 S
C428 C412 1.368 . S
C428 C424 1.368 . S
C428 C427 1.523 1_545 S
H429 C404 0.950 . S
H430 C406 0.950 . S
H431 C407 0.949 . S
H432 C409 0.950 . S
H433 C411 0.950 . S
C434 C435 1.349 . S
C434 C436 1.327 . S
C434 H459 0.950 . S
C435 C434 1.349 . S
C435 C451 1.349 . S
C436 C434 1.327 . S
C436 C455 1.429 . S
C436 H460 0.950 . S
C437 C454 1.574 . S
C437 C456 1.368 . S
C437 H461 0.949 . S
H438 C442 0.949 . S
C439 C440 1.349 . S
C439 C441 1.327 . S
C439 H462 0.950 . S
C440 C439 1.349 . S
C440 C452 1.349 . S
C441 C439 1.327 . S
C441 C457 1.429 . S
C441 H463 0.950 . S
C442 H438 0.949 . S
C442 C450 1.574 . S
C442 C458 1.368 . S
H443 C451 0.950 . S
H444 C449 0.950 . S
H445 C450 0.949 . S
H446 C452 0.950 . S
H447 C453 0.950 . S
H448 C454 0.949 . S
C449 H444 0.950 . S
C449 C451 1.327 . S
C449 C455 1.429 . S
C450 C442 1.574 . S
C450 H445 0.949 . S
C450 C456 1.368 . S
C451 C435 1.349 . S
C451 H443 0.950 . S
C451 C449 1.327 . S
C452 C440 1.349 . S
C452 H446 0.950 . S
C452 C453 1.327 . S
C453 H447 0.950 . S
C453 C452 1.327 . S
C453 C457 1.429 . S
C454 C437 1.574 . S
C454 H448 0.949 . S
C454 C458 1.368 . S
C455 C436 1.429 . S
C455 C449 1.429 . S
C455 C456 1.523 . S
C456 C437 1.368 . S
C456 C450 1.368 . S
C456 C455 1.523 . S
C457 C441 1.429 . S
C457 C453 1.429 . S
C457 C458 1.523 . S
C458 C442 1.368 . S
C458 C454 1.368 . S
C458 C457 1.523 . S
H459 C434 0.950 . S
H460 C436 0.950 . S
H461 C437 0.949 . S
H462 C439 0.950 . S
H463 C441 0.950 . S
C464 C465 1.349 . S
C464 C466 1.327 . S
C464 H489 0.950 . S
C465 C464 1.349 . S
C465 C481 1.349 . S
C466 C464 1.327 . S
C466 C485 1.429 . S
C466 H490 0.950 . S
C467 C484 1.574 . S
C467 C486 1.368 . S
C467 H491 0.949 . S
H468 C472 0.949 . S
C469 C470 1.349 . S
C469 C471 1.327 . S
C469 H492 0.950 . S
C470 C469 1.349 . S
C470 C482 1.349 . S
C471 C469 1.327 . S
C471 C487 1.429 . S
C471 H493 0.950 . S
C472 H468 0.949 . S
C472 C480 1.574 . S
C472 C488 1.368 . S
H473 C481 0.950 . S
H474 C479 0.950 . S
H475 C480 0.949 . S
H476 C482 0.950 . S
H477 C483 0.950 . S
H478 C484 0.949 . S
C479 H474 0.950 . S
C479 C481 1.327 . S
C479 C485 1.429 . S
C480 C472 1.574 . S
C480 H475 0.949 . S
C480 C486 1.368 . S
C481 C465 1.349 . S
C481 H473 0.950 . S
C481 C479 1.327 . S
C482 C470 1.349 . S
C482 H476 0.950 . S
C482 C483 1.327 . S
C483 H477 0.950 . S
C483 C482 1.327 . S
C483 C487 1.429 . S
C484 C467 1.574 . S
C484 H478 0.949 . S
C484 C488 1.368 . S
C485 C466 1.429 . S
C485 C479 1.429 . S
C485 C486 1.523 . S
C486 C467 1.368 . S
C486 C480 1.368 . S
C486 C485 1.523 . S
C487 C471 1.429 . S
C487 C483 1.429 . S
C487 C488 1.523 . S
C488 C472 1.368 . S
C488 C484 1.368 . S
C488 C487 1.523 . S
H489 C464 0.950 . S
H490 C466 0.950 . S
H491 C467 0.949 . S
H492 C469 0.950 . S
H493 C471 0.950 . S
C494 C495 1.349 . S
C494 C496 1.327 . S
C494 H519 0.950 1_556 S
C495 C494 1.349 . S
C495 C511 1.349 . S
C496 C494 1.327 . S
C496 C515 1.429 . S
C496 H520 0.950 . S
C497 C514 1.574 . S
C497 C516 1.368 . S
C497 H521 0.949 . S
H498 C502 0.949 . S
C499 C500 1.349 . S
C499 C501 1.327 . S
C499 H522 0.950 . S
C500 C499 1.349 . S
C500 C512 1.349 . S
C501 C499 1.327 . S
C501 C517 1.429 . S
C501 H523 0.950 . S
C502 H498 0.949 . S
C502 C510 1.574 . S
C502 C518 1.368 . S
H503 C511 0.950 . S
H504 C509 0.950 . S
H505 C510 0.949 . S
H506 C512 0.950 . S
H507 C513 0.950 . S
H508 C514 0.949 . S
C509 H504 0.950 . S
C509 C511 1.327 . S
C509 C515 1.429 . S
C510 C502 1.574 . S
C510 H505 0.949 . S
C510 C516 1.368 . S
C511 C495 1.349 . S
C511 H503 0.950 . S
C511 C509 1.327 . S
C512 C500 1.349 . S
C512 H506 0.950 . S
C512 C513 1.327 . S
C513 H507 0.950 . S
C513 C512 1.327 . S
C513 C517 1.429 . S
C514 C497 1.574 . S
C514 H508 0.949 . S
C514 C518 1.368 . S
C515 C496 1.429 . S
C515 C509 1.429 . S
C515 C516 1.523 1_655 S
C516 C497 1.368 . S
C516 C510 1.368 . S
C516 C515 1.523 1_455 S
C517 C501 1.429 . S
C517 C513 1.429 . S
C517 C518 1.523 . S
C518 C502 1.368 . S
C518 C514 1.368 . S
C518 C517 1.523 . S
H519 C494 0.950 1_554 S
H520 C496 0.950 . S
H521 C497 0.949 . S
H522 C499 0.950 . S
H523 C501 0.950 . S
C524 C525 1.349 . S
C524 C526 1.327 . S
C524 H549 0.950 . S
C525 C524 1.349 . S
C525 C541 1.349 . S
C526 C524 1.327 . S
C526 C545 1.429 . S
C526 H550 0.950 . S
C527 C544 1.574 . S
C527 C546 1.368 . S
C527 H551 0.949 . S
H528 C532 0.949 . S
C529 C530 1.349 . S
C529 C531 1.327 . S
C529 H552 0.950 . S
C530 C529 1.349 . S
C530 C542 1.349 . S
C531 C529 1.327 . S
C531 C547 1.429 . S
C531 H553 0.950 . S
C532 H528 0.949 . S
C532 C540 1.574 . S
C532 C548 1.368 . S
H533 C541 0.950 . S
H534 C539 0.950 . S
H535 C540 0.949 . S
H536 C542 0.950 . S
H537 C543 0.950 . S
H538 C544 0.949 . S
C539 H534 0.950 . S
C539 C541 1.327 . S
C539 C545 1.429 . S
C540 C532 1.574 . S
C540 H535 0.949 . S
C540 C546 1.368 . S
C541 C525 1.349 . S
C541 H533 0.950 . S
C541 C539 1.327 . S
C542 C530 1.349 . S
C542 H536 0.950 . S
C542 C543 1.327 . S
C543 H537 0.950 . S
C543 C542 1.327 . S
C543 C547 1.429 . S
C544 C527 1.574 . S
C544 H538 0.949 . S
C544 C548 1.368 . S
C545 C526 1.429 . S
C545 C539 1.429 . S
C545 C546 1.523 . S
C546 C527 1.368 . S
C546 C540 1.368 . S
C546 C545 1.523 . S
C547 C531 1.429 . S
C547 C543 1.429 . S
C547 C548 1.523 . S
C548 C532 1.368 . S
C548 C544 1.368 . S
C548 C547 1.523 . S
H549 C524 0.950 . S
H550 C526 0.950 . S
H551 C527 0.949 . S
H552 C529 0.950 . S
H553 C531 0.950 . S
C554 C555 1.349 . S
C554 C556 1.327 . S
C554 H579 0.950 . S
C555 C554 1.349 . S
C555 C571 1.349 . S
C556 C554 1.327 . S
C556 C575 1.429 . S
C556 H580 0.950 . S
C557 C574 1.574 . S
C557 C576 1.368 . S
C557 H581 0.949 . S
H558 C562 0.949 . S
C559 C560 1.349 . S
C559 C561 1.327 . S
C559 H582 0.950 . S
C560 C559 1.349 . S
C560 C572 1.349 . S
C561 C559 1.327 . S
C561 C577 1.429 . S
C561 H583 0.950 . S
C562 H558 0.949 . S
C562 C570 1.574 . S
C562 C578 1.368 . S
H563 C571 0.950 . S
H564 C569 0.950 . S
H565 C570 0.949 . S
H566 C572 0.950 1_655 S
H567 C573 0.950 . S
H568 C574 0.949 . S
C569 H564 0.950 . S
C569 C571 1.327 . S
C569 C575 1.429 . S
C570 C562 1.574 . S
C570 H565 0.949 . S
C570 C576 1.368 . S
C571 C555 1.349 . S
C571 H563 0.950 . S
C571 C569 1.327 . S
C572 C560 1.349 . S
C572 H566 0.950 1_455 S
C572 C573 1.327 . S
C573 H567 0.950 . S
C573 C572 1.327 . S
C573 C577 1.429 . S
C574 C557 1.574 . S
C574 H568 0.949 . S
C574 C578 1.368 . S
C575 C556 1.429 . S
C575 C569 1.429 . S
C575 C576 1.523 . S
C576 C557 1.368 . S
C576 C570 1.368 . S
C576 C575 1.523 . S
C577 C561 1.429 . S
C577 C573 1.429 . S
C577 C578 1.523 . S
C578 C562 1.368 . S
C578 C574 1.368 . S
C578 C577 1.523 . S
H579 C554 0.950 . S
H580 C556 0.950 . S
H581 C557 0.949 . S
H582 C559 0.950 . S
H583 C561 0.950 . S
C584 C585 1.349 . S
C584 C586 1.327 . S
C584 H609 0.950 . S
C585 C584 1.349 . S
C585 C601 1.349 . S
C586 C584 1.327 . S
C586 C605 1.429 . S
C586 H610 0.950 . S
C587 C604 1.574 . S
C587 C606 1.368 . S
C587 H611 0.949 . S
H588 C592 0.949 . S
C589 C590 1.333 1_545 S
C589 C591 1.338 . S
C589 H612 0.956 . S
C590 C589 1.333 1_565 S
C590 C602 1.349 . S
C591 C589 1.338 . S
C591 C607 1.429 . S
C591 H613 0.950 . S
C592 H588 0.949 . S
C592 C600 1.574 . S
C592 C608 1.368 . S
H593 C601 0.950 . S
H594 C599 0.950 . S
H595 C600 0.949 . S
H596 C602 0.950 . S
H597 C603 0.950 . S
H598 C604 0.949 . S
C599 H594 0.950 . S
C599 C601 1.327 . S
C599 C605 1.429 . S
C600 C592 1.574 . S
C600 H595 0.949 . S
C600 C606 1.368 . S
C601 C585 1.349 . S
C601 H593 0.950 . S
C601 C599 1.327 . S
C602 C590 1.349 . S
C602 H596 0.950 . S
C602 C603 1.327 . S
C603 H597 0.950 . S
C603 C602 1.327 . S
C603 C607 1.429 1_565 S
C604 C587 1.574 . S
C604 H598 0.949 . S
C604 C608 1.368 . S
C605 C586 1.429 . S
C605 C599 1.429 . S
C605 C606 1.523 . S
C606 C587 1.368 . S
C606 C600 1.368 . S
C606 C605 1.523 . S
C607 C591 1.429 . S
C607 C603 1.429 1_545 S
C607 C608 1.523 . S
C608 C592 1.368 . S
C608 C604 1.368 . S
C608 C607 1.523 . S
H609 C584 0.950 . S
H610 C586 0.950 . S
H611 C587 0.949 . S
H612 C589 0.956 . S
H613 C591 0.950 . S
C614 C615 1.349 . S
C614 C616 1.327 . S
C614 H639 0.950 . S
C615 C614 1.349 . S
C615 C631 1.349 . S
C616 C614 1.327 . S
C616 C635 1.429 . S
C616 H640 0.950 . S
C617 C634 1.574 . S
C617 C636 1.368 . S
C617 H641 0.949 . S
H618 C622 0.949 . S
C619 C620 1.349 . S
C619 C621 1.327 . S
C619 H642 0.950 . S
C620 C619 1.349 . S
C620 C632 1.349 . S
C621 C619 1.327 . S
C621 C637 1.429 . S
C621 H643 0.950 . S
C622 H618 0.949 . S
C622 C630 1.574 . S
C622 C638 1.368 . S
H623 C631 0.950 . S
H624 C629 0.950 . S
H625 C630 0.949 . S
H626 C632 0.950 . S
H627 C633 0.950 . S
H628 C634 0.949 . S
C629 H624 0.950 . S
C629 C631 1.327 . S
C629 C635 1.429 . S
C630 C622 1.574 . S
C630 H625 0.949 . S
C630 C636 1.368 . S
C631 C615 1.349 . S
C631 H623 0.950 . S
C631 C629 1.327 . S
C632 C620 1.349 . S
C632 H626 0.950 . S
C632 C633 1.327 . S
C633 H627 0.950 . S
C633 C632 1.327 . S
C633 C637 1.429 . S
C634 C617 1.574 . S
C634 H628 0.949 . S
C634 C638 1.368 . S
C635 C616 1.429 . S
C635 C629 1.429 . S
C635 C636 1.523 . S
C636 C617 1.368 . S
C636 C630 1.368 . S
C636 C635 1.523 . S
C637 C621 1.429 . S
C637 C633 1.429 . S
C637 C638 1.523 . S
C638 C622 1.368 . S
C638 C634 1.368 . S
C638 C637 1.523 . S
H639 C614 0.950 . S
H640 C616 0.950 . S
H641 C617 0.949 . S
H642 C619 0.950 . S
H643 C621 0.950 . S
C644 C645 1.349 1_556 S
C644 C646 1.327 . S
C644 H669 0.950 . S
C645 C644 1.349 1_554 S
C645 C661 1.349 . S
C646 C644 1.327 . S
C646 C665 1.429 . S
C646 H670 0.950 . S
C647 C664 1.574 1_565 S
C647 C666 1.368 . S
C647 H671 0.949 . S
H648 C652 0.949 . S
C649 C650 1.349 . S
C649 C651 1.327 . S
C649 H672 0.950 . S
C650 C649 1.349 . S
C650 C662 1.349 . S
C651 C649 1.327 . S
C651 C667 1.429 . S
C651 H673 0.950 . S
C652 H648 0.949 . S
C652 C660 1.574 . S
C652 C668 1.368 . S
H653 C661 0.950 . S
H654 C659 0.950 . S
H655 C660 0.949 . S
H656 C662 0.950 . S
H657 C663 0.950 . S
H658 C664 0.949 . S
C659 H654 0.950 . S
C659 C661 1.327 . S
C659 C665 1.429 1_554 S
C660 C652 1.574 . S
C660 H655 0.949 . S
C660 C666 1.368 . S
C661 C645 1.349 . S
C661 H653 0.950 . S
C661 C659 1.327 . S
C662 C650 1.349 . S
C662 H656 0.950 . S
C662 C663 1.327 . S
C663 H657 0.950 . S
C663 C662 1.327 . S
C663 C667 1.429 . S
C664 C647 1.574 1_545 S
C664 H658 0.949 . S
C664 C668 1.368 1_545 S
C665 C646 1.429 . S
C665 C659 1.429 1_556 S
C665 C666 1.523 . S
C666 C647 1.368 . S
C666 C660 1.368 . S
C666 C665 1.523 . S
C667 C651 1.429 . S
C667 C663 1.429 . S
C667 C668 1.523 1_545 S
C668 C652 1.368 . S
C668 C664 1.368 1_565 S
C668 C667 1.523 1_565 S
H669 C644 0.950 . S
H670 C646 0.950 . S
H671 C647 0.949 . S
H672 C649 0.950 . S
H673 C651 0.950 . S
C674 C675 1.349 . S
C674 C676 1.327 . S
C674 H699 0.950 . S
C675 C674 1.349 . S
C675 C691 1.349 . S
C676 C674 1.327 . S
C676 C695 1.429 . S
C676 H700 0.950 . S
C677 C694 1.574 . S
C677 C696 1.368 . S
C677 H701 0.949 . S
H678 C682 0.949 . S
C679 C680 1.349 . S
C679 C681 1.327 . S
C679 H702 0.950 . S
C680 C679 1.349 . S
C680 C692 1.349 . S
C681 C679 1.327 . S
C681 C697 1.429 . S
C681 H703 0.950 . S
C682 H678 0.949 . S
C682 C690 1.574 . S
C682 C698 1.368 . S
H683 C691 0.950 . S
H684 C689 0.950 . S
H685 C690 0.949 . S
H686 C692 0.950 . S
H687 C693 0.950 . S
H688 C694 0.949 . S
C689 H684 0.950 . S
C689 C691 1.327 . S
C689 C695 1.429 . S
C690 C682 1.574 . S
C690 H685 0.949 . S
C690 C696 1.368 . S
C691 C675 1.349 . S
C691 H683 0.950 . S
C691 C689 1.327 . S
C692 C680 1.349 . S
C692 H686 0.950 . S
C692 C693 1.327 . S
C693 H687 0.950 . S
C693 C692 1.327 . S
C693 C697 1.429 . S
C694 C677 1.574 . S
C694 H688 0.949 . S
C694 C698 1.368 . S
C695 C676 1.429 . S
C695 C689 1.429 . S
C695 C696 1.523 . S
C696 C677 1.368 . S
C696 C690 1.368 . S
C696 C695 1.523 . S
C697 C681 1.429 . S
C697 C693 1.429 . S
C697 C698 1.523 . S
C698 C682 1.368 . S
C698 C694 1.368 . S
C698 C697 1.523 . S
H699 C674 0.950 . S
H700 C676 0.950 . S
H701 C677 0.949 . S
H702 C679 0.950 . S
H703 C681 0.950 . S
C704 C705 1.349 . S
C704 C706 1.327 . S
C704 H729 0.950 . S
C705 C704 1.349 . S
C705 C721 1.349 . S
C706 C704 1.327 . S
C706 C725 1.429 . S
C706 H730 0.950 . S
C707 C724 1.574 . S
C707 C726 1.368 . S
C707 H731 0.949 . S
H708 C712 0.949 . S
C709 C710 1.349 . S
C709 C711 1.327 . S
C709 H732 0.950 . S
C710 C709 1.349 . S
C710 C722 1.349 . S
C711 C709 1.327 . S
C711 C727 1.429 . S
C711 H733 0.950 . S
C712 H708 0.949 . S
C712 C720 1.574 . S
C712 C728 1.368 . S
H713 C721 0.950 . S
H714 C719 0.950 . S
H715 C720 0.949 . S
H716 C722 0.950 . S
H717 C723 0.950 . S
H718 C724 0.949 . S
C719 H714 0.950 . S
C719 C721 1.327 . S
C719 C725 1.429 . S
C720 C712 1.574 . S
C720 H715 0.949 . S
C720 C726 1.368 . S
C721 C705 1.349 . S
C721 H713 0.950 . S
C721 C719 1.327 . S
C722 C710 1.349 . S
C722 H716 0.950 . S
C722 C723 1.327 . S
C723 H717 0.950 . S
C723 C722 1.327 . S
C723 C727 1.429 . S
C724 C707 1.574 . S
C724 H718 0.949 . S
C724 C728 1.368 . S
C725 C706 1.429 . S
C725 C719 1.429 . S
C725 C726 1.523 . S
C726 C707 1.368 . S
C726 C720 1.368 . S
C726 C725 1.523 . S
C727 C711 1.429 . S
C727 C723 1.429 . S
C727 C728 1.523 . S
C728 C712 1.368 . S
C728 C724 1.368 . S
C728 C727 1.523 . S
H729 C704 0.950 . S
H730 C706 0.950 . S
H731 C707 0.949 . S
H732 C709 0.950 . S
H733 C711 0.950 . S
C734 C735 1.349 . S
C734 C736 1.327 . S
C734 H759 0.950 . S
C735 C734 1.349 . S
C735 C751 1.349 . S
C736 C734 1.327 . S
C736 C755 1.429 . S
C736 H760 0.950 . S
C737 C754 1.574 . S
C737 C756 1.368 . S
C737 H761 0.949 . S
H738 C742 0.949 . S
C739 C740 1.349 . S
C739 C741 1.327 . S
C739 H762 0.950 . S
C740 C739 1.349 . S
C740 C752 1.349 . S
C741 C739 1.327 . S
C741 C757 1.429 . S
C741 H763 0.950 . S
C742 H738 0.949 . S
C742 C750 1.574 . S
C742 C758 1.368 . S
H743 C751 0.950 . S
H744 C749 0.950 . S
H745 C750 0.949 . S
H746 C752 0.950 . S
H747 C753 0.950 . S
H748 C754 0.949 . S
C749 H744 0.950 . S
C749 C751 1.327 . S
C749 C755 1.429 . S
C750 C742 1.574 . S
C750 H745 0.949 . S
C750 C756 1.368 . S
C751 C735 1.349 . S
C751 H743 0.950 . S
C751 C749 1.327 . S
C752 C740 1.349 . S
C752 H746 0.950 . S
C752 C753 1.327 . S
C753 H747 0.950 . S
C753 C752 1.327 . S
C753 C757 1.429 . S
C754 C737 1.574 . S
C754 H748 0.949 . S
C754 C758 1.368 . S
C755 C736 1.429 . S
C755 C749 1.429 . S
C755 C756 1.523 1_455 S
C756 C737 1.368 . S
C756 C750 1.368 . S
C756 C755 1.523 1_655 S
C757 C741 1.429 . S
C757 C753 1.429 . S
C757 C758 1.523 . S
C758 C742 1.368 . S
C758 C754 1.368 . S
C758 C757 1.523 . S
H759 C734 0.950 . S
H760 C736 0.950 . S
H761 C737 0.949 . S
H762 C739 0.950 . S
H763 C741 0.950 . S
C764 C765 1.349 . S
C764 C766 1.327 . S
C764 H789 0.950 . S
C765 C764 1.349 . S
C765 C781 1.349 . S
C766 C764 1.327 . S
C766 C785 1.429 . S
C766 H790 0.950 . S
C767 C784 1.574 . S
C767 C786 1.368 . S
C767 H791 0.949 . S
H768 C772 0.949 . S
C769 C770 1.349 . S
C769 C771 1.327 . S
C769 H792 0.950 . S
C770 C769 1.349 . S
C770 C782 1.349 . S
C771 C769 1.327 . S
C771 C787 1.429 . S
C771 H793 0.950 . S
C772 H768 0.949 . S
C772 C780 1.574 . S
C772 C788 1.368 . S
H773 C781 0.950 . S
H774 C779 0.950 . S
H775 C780 0.949 . S
H776 C782 0.950 . S
H777 C783 0.950 . S
H778 C784 0.949 . S
C779 H774 0.950 . S
C779 C781 1.327 . S
C779 C785 1.429 . S
C780 C772 1.574 . S
C780 H775 0.949 . S
C780 C786 1.368 . S
C781 C765 1.349 . S
C781 H773 0.950 . S
C781 C779 1.327 . S
C782 C770 1.349 . S
C782 H776 0.950 . S
C782 C783 1.327 . S
C783 H777 0.950 . S
C783 C782 1.327 . S
C783 C787 1.429 . S
C784 C767 1.574 . S
C784 H778 0.949 . S
C784 C788 1.368 . S
C785 C766 1.429 . S
C785 C779 1.429 . S
C785 C786 1.523 . S
C786 C767 1.368 . S
C786 C780 1.368 . S
C786 C785 1.523 . S
C787 C771 1.429 . S
C787 C783 1.429 . S
C787 C788 1.523 . S
C788 C772 1.368 . S
C788 C784 1.368 . S
C788 C787 1.523 . S
H789 C764 0.950 . S
H790 C766 0.950 . S
H791 C767 0.949 . S
H792 C769 0.950 . S
H793 C771 0.950 . S
C794 C795 1.349 . S
C794 C796 1.327 . S
C794 H819 0.950 . S
C795 C794 1.349 . S
C795 C811 1.349 . S
C796 C794 1.327 . S
C796 C815 1.429 . S
C796 H820 0.950 . S
C797 C814 1.574 . S
C797 C816 1.368 . S
C797 H821 0.949 . S
H798 C802 0.949 . S
C799 C800 1.349 . S
C799 C801 1.327 . S
C799 H822 0.950 . S
C800 C799 1.349 . S
C800 C812 1.349 . S
C801 C799 1.327 . S
C801 C817 1.429 . S
C801 H823 0.950 . S
C802 H798 0.949 . S
C802 C810 1.574 . S
C802 C818 1.368 . S
H803 C811 0.950 . S
H804 C809 0.950 . S
H805 C810 0.949 . S
H806 C812 0.950 1_455 S
H807 C813 0.950 . S
H808 C814 0.949 . S
C809 H804 0.950 . S
C809 C811 1.327 . S
C809 C815 1.429 . S
C810 C802 1.574 . S
C810 H805 0.949 . S
C810 C816 1.368 . S
C811 C795 1.349 . S
C811 H803 0.950 . S
C811 C809 1.327 . S
C812 C800 1.349 . S
C812 H806 0.950 1_655 S
C812 C813 1.327 . S
C813 H807 0.950 . S
C813 C812 1.327 . S
C813 C817 1.429 . S
C814 C797 1.574 . S
C814 H808 0.949 . S
C814 C818 1.368 . S
C815 C796 1.429 . S
C815 C809 1.429 . S
C815 C816 1.523 . S
C816 C797 1.368 . S
C816 C810 1.368 . S
C816 C815 1.523 . S
C817 C801 1.429 . S
C817 C813 1.429 . S
C817 C818 1.523 . S
C818 C802 1.368 . S
C818 C814 1.368 . S
C818 C817 1.523 . S
H819 C794 0.950 . S
H820 C796 0.950 . S
H821 C797 0.949 . S
H822 C799 0.950 . S
H823 C801 0.950 . S
C824 C825 1.349 . S
C824 C826 1.327 . S
C824 H849 0.950 . S
C825 C824 1.349 . S
C825 C841 1.349 . S
C826 C824 1.327 . S
C826 C845 1.429 . S
C826 H850 0.950 . S
C827 C844 1.574 . S
C827 C846 1.368 . S
C827 H851 0.949 . S
H828 C832 0.949 . S
C829 C830 1.349 . S
C829 C831 1.327 . S
C829 H852 0.950 . S
C830 C829 1.349 . S
C830 C842 1.349 . S
C831 C829 1.327 . S
C831 C847 1.429 . S
C831 H853 0.950 . S
C832 H828 0.949 . S
C832 C840 1.574 . S
C832 C848 1.368 . S
H833 C841 0.950 . S
H834 C839 0.950 . S
H835 C840 0.949 . S
H836 C842 0.950 . S
H837 C843 0.950 . S
H838 C844 0.949 . S
C839 H834 0.950 . S
C839 C841 1.327 . S
C839 C845 1.429 . S
C840 C832 1.574 . S
C840 H835 0.949 . S
C840 C846 1.368 . S
C841 C825 1.349 . S
C841 H833 0.950 . S
C841 C839 1.327 . S
C842 C830 1.349 . S
C842 H836 0.950 . S
C842 C843 1.327 . S
C843 H837 0.950 . S
C843 C842 1.327 . S
C843 C847 1.429 . S
C844 C827 1.574 . S
C844 H838 0.949 . S
C844 C848 1.368 . S
C845 C826 1.429 . S
C845 C839 1.429 . S
C845 C846 1.523 . S
C846 C827 1.368 . S
C846 C840 1.368 . S
C846 C845 1.523 . S
C847 C831 1.429 . S
C847 C843 1.429 . S
C847 C848 1.523 . S
C848 C832 1.368 . S
C848 C844 1.368 . S
C848 C847 1.523 . S
H849 C824 0.950 . S
H850 C826 0.950 . S
H851 C827 0.949 . S
H852 C829 0.950 . S
H853 C831 0.950 . S
C854 C855 1.349 . S
C854 C856 1.327 . S
C854 H879 0.950 . S
C855 C854 1.349 . S
C855 C871 1.349 . S
C856 C854 1.327 . S
C856 C875 1.429 . S
C856 H880 0.950 . S
C857 C874 1.574 . S
C857 C876 1.368 . S
C857 H881 0.949 . S
H858 C862 0.949 . S
C859 C860 1.349 . S
C859 C861 1.327 . S
C859 H882 0.950 . S
C860 C859 1.349 . S
C860 C872 1.349 . S
C861 C859 1.327 . S
C861 C877 1.429 . S
C861 H883 0.950 . S
C862 H858 0.949 . S
C862 C870 1.574 . S
C862 C878 1.368 . S
H863 C871 0.950 . S
H864 C869 0.950 . S
H865 C870 0.949 . S
H866 C872 0.950 . S
H867 C873 0.950 . S
H868 C874 0.949 . S
C869 H864 0.950 . S
C869 C871 1.327 . S
C869 C875 1.429 . S
C870 C862 1.574 . S
C870 H865 0.949 . S
C870 C876 1.368 . S
C871 C855 1.349 . S
C871 H863 0.950 . S
C871 C869 1.327 . S
C872 C860 1.349 . S
C872 H866 0.950 . S
C872 C873 1.327 . S
C873 H867 0.950 . S
C873 C872 1.327 . S
C873 C877 1.429 . S
C874 C857 1.574 . S
C874 H868 0.949 . S
C874 C878 1.368 . S
C875 C856 1.429 . S
C875 C869 1.429 . S
C875 C876 1.523 . S
C876 C857 1.368 . S
C876 C870 1.368 . S
C876 C875 1.523 . S
C877 C861 1.429 . S
C877 C873 1.429 . S
C877 C878 1.523 . S
C878 C862 1.368 . S
C878 C874 1.368 . S
C878 C877 1.523 . S
H879 C854 0.950 . S
H880 C856 0.950 . S
H881 C857 0.949 . S
H882 C859 0.950 . S
H883 C861 0.950 . S
C884 C885 1.349 . S
C884 C886 1.327 . S
C884 H909 0.950 . S
C885 C884 1.349 . S
C885 C901 1.349 . S
C886 C884 1.327 . S
C886 C905 1.429 . S
C886 H910 0.950 . S
C887 C904 1.574 . S
C887 C906 1.368 . S
C887 H911 0.949 . S
H888 C892 0.949 . S
C889 C890 1.349 . S
C889 C891 1.327 . S
C889 H912 0.950 . S
C890 C889 1.349 . S
C890 C902 1.349 . S
C891 C889 1.327 . S
C891 C907 1.429 . S
C891 H913 0.950 . S
C892 H888 0.949 . S
C892 C900 1.574 . S
C892 C908 1.368 . S
H893 C901 0.950 . S
H894 C899 0.950 . S
H895 C900 0.949 . S
H896 C902 0.950 . S
H897 C903 0.950 . S
H898 C904 0.949 . S
C899 H894 0.950 . S
C899 C901 1.327 . S
C899 C905 1.429 . S
C900 C892 1.574 . S
C900 H895 0.949 . S
C900 C906 1.368 . S
C901 C885 1.349 . S
C901 H893 0.950 . S
C901 C899 1.327 . S
C902 C890 1.349 . S
C902 H896 0.950 . S
C902 C903 1.327 . S
C903 H897 0.950 . S
C903 C902 1.327 . S
C903 C907 1.429 . S
C904 C887 1.574 . S
C904 H898 0.949 . S
C904 C908 1.368 . S
C905 C886 1.429 . S
C905 C899 1.429 . S
C905 C906 1.523 . S
C906 C887 1.368 . S
C906 C900 1.368 . S
C906 C905 1.523 . S
C907 C891 1.429 . S
C907 C903 1.429 . S
C907 C908 1.523 . S
C908 C892 1.368 . S
C908 C904 1.368 . S
C908 C907 1.523 . S
H909 C884 0.950 . S
H910 C886 0.950 . S
H911 C887 0.949 . S
H912 C889 0.950 . S
H913 C891 0.950 . S
C914 C915 1.349 . S
C914 C916 1.327 . S
C914 H939 0.950 . S
C915 C914 1.349 . S
C915 C931 1.349 . S
C916 C914 1.327 . S
C916 C935 1.429 . S
C916 H940 0.950 . S
C917 C934 1.574 . S
C917 C936 1.368 . S
C917 H941 0.949 . S
H918 C922 0.949 . S
C919 C920 1.349 . S
C919 C921 1.327 . S
C919 H942 0.950 . S
C920 C919 1.349 . S
C920 C932 1.349 . S
C921 C919 1.327 . S
C921 C937 1.429 . S
C921 H943 0.950 . S
C922 H918 0.949 . S
C922 C930 1.574 . S
C922 C938 1.368 . S
H923 C931 0.950 . S
H924 C929 0.950 . S
H925 C930 0.949 . S
H926 C932 0.950 . S
H927 C933 0.950 . S
H928 C934 0.949 . S
C929 H924 0.950 . S
C929 C931 1.327 . S
C929 C935 1.429 . S
C930 C922 1.574 . S
C930 H925 0.949 . S
C930 C936 1.368 . S
C931 C915 1.349 . S
C931 H923 0.950 . S
C931 C929 1.327 . S
C932 C920 1.349 . S
C932 H926 0.950 . S
C932 C933 1.327 . S
C933 H927 0.950 . S
C933 C932 1.327 . S
C933 C937 1.429 . S
C934 C917 1.574 . S
C934 H928 0.949 . S
C934 C938 1.368 . S
C935 C916 1.429 . S
C935 C929 1.429 . S
C935 C936 1.523 . S
C936 C917 1.368 . S
C936 C930 1.368 . S
C936 C935 1.523 . S
C937 C921 1.429 . S
C937 C933 1.429 . S
C937 C938 1.523 . S
C938 C922 1.368 . S
C938 C934 1.368 . S
C938 C937 1.523 . S
H939 C914 0.950 . S
H940 C916 0.950 . S
H941 C917 0.949 . S
H942 C919 0.950 . S
H943 C921 0.950 . S
C944 C945 1.349 . S
C944 C946 1.327 . S
C944 H969 0.950 . S
C945 C944 1.349 . S
C945 C961 1.349 . S
C946 C944 1.327 . S
C946 C965 1.429 . S
C946 H970 0.950 . S
C947 C964 1.574 . S
C947 C966 1.368 . S
C947 H971 0.949 . S
H948 C952 0.949 . S
C949 C950 1.349 . S
C949 C951 1.327 . S
C949 H972 0.950 . S
C950 C949 1.349 . S
C950 C962 1.349 . S
C951 C949 1.327 . S
C951 C967 1.429 . S
C951 H973 0.950 . S
C952 H948 0.949 . S
C952 C960 1.574 . S
C952 C968 1.368 . S
H953 C961 0.950 . S
H954 C959 0.950 . S
H955 C960 0.949 . S
H956 C962 0.950 . S
H957 C963 0.950 . S
H958 C964 0.949 . S
C959 H954 0.950 . S
C959 C961 1.327 . S
C959 C965 1.429 . S
C960 C952 1.574 . S
C960 H955 0.949 . S
C960 C966 1.368 . S
C961 C945 1.349 . S
C961 H953 0.950 . S
C961 C959 1.327 . S
C962 C950 1.349 . S
C962 H956 0.950 . S
C962 C963 1.327 . S
C963 H957 0.950 . S
C963 C962 1.327 . S
C963 C967 1.429 . S
C964 C947 1.574 . S
C964 H958 0.949 . S
C964 C968 1.368 . S
C965 C946 1.429 . S
C965 C959 1.429 . S
C965 C966 1.523 . S
C966 C947 1.368 . S
C966 C960 1.368 . S
C966 C965 1.523 . S
C967 C951 1.429 . S
C967 C963 1.429 . S
C967 C968 1.523 . S
C968 C952 1.368 . S
C968 C964 1.368 . S
C968 C967 1.523 . S
H969 C944 0.950 . S
H970 C946 0.950 . S
H971 C947 0.949 . S
H972 C949 0.950 . S
H973 C951 0.950 . S
C974 C975 1.349 . S
C974 C976 1.327 . S
C974 H999 0.950 . S
C975 C974 1.349 . S
C975 C991 1.349 . S
C976 C974 1.327 . S
C976 C995 1.429 . S
C976 H1000 0.950 . S
C977 C994 1.574 . S
C977 C996 1.368 . S
C977 H1001 0.949 . S
H978 C982 0.949 . S
C979 C980 1.349 . S
C979 C981 1.327 . S
C979 H1002 0.950 . S
C980 C979 1.349 . S
C980 C992 1.349 . S
C981 C979 1.327 . S
C981 C997 1.429 . S
C981 H1003 0.950 . S
C982 H978 0.949 . S
C982 C990 1.574 . S
C982 C998 1.368 . S
H983 C991 0.950 . S
H984 C989 0.950 . S
H985 C990 0.949 . S
H986 C992 0.950 . S
H987 C993 0.950 . S
H988 C994 0.949 . S
C989 H984 0.950 . S
C989 C991 1.327 . S
C989 C995 1.429 . S
C990 C982 1.574 . S
C990 H985 0.949 . S
C990 C996 1.368 . S
C991 C975 1.349 . S
C991 H983 0.950 . S
C991 C989 1.327 . S
C992 C980 1.349 . S
C992 H986 0.950 . S
C992 C993 1.327 . S
C993 H987 0.950 . S
C993 C992 1.327 . S
C993 C997 1.429 . S
C994 C977 1.574 . S
C994 H988 0.949 . S
C994 C998 1.368 . S
C995 C976 1.429 . S
C995 C989 1.429 . S
C995 C996 1.523 . S
C996 C977 1.368 . S
C996 C990 1.368 . S
C996 C995 1.523 . S
C997 C981 1.429 . S
C997 C993 1.429 . S
C997 C998 1.523 . S
C998 C982 1.368 . S
C998 C994 1.368 . S
C998 C997 1.523 . S
H999 C974 0.950 . S
H1000 C976 0.950 . S
H1001 C977 0.949 . S
H1002 C979 0.950 . S
H1003 C981 0.950 . S
C1004 C1005 1.349 . S
C1004 C1006 1.327 . S
C1004 H1029 0.950 . S
C1005 C1004 1.349 . S
C1005 C1021 1.349 . S
C1006 C1004 1.327 . S
C1006 C1025 1.429 . S
C1006 H1030 0.950 . S
C1007 C1024 1.574 . S
C1007 C1026 1.368 . S
C1007 H1031 0.949 . S
H1008 C1012 0.949 . S
C1009 C1010 1.349 . S
C1009 C1011 1.327 . S
C1009 H1032 0.950 . S
C1010 C1009 1.349 . S
C1010 C1022 1.349 . S
C1011 C1009 1.327 . S
C1011 C1027 1.429 . S
C1011 H1033 0.950 . S
C1012 H1008 0.949 . S
C1012 C1020 1.574 . S
C1012 C1028 1.368 . S
H1013 C1021 0.950 . S
H1014 C1019 0.950 . S
H1015 C1020 0.949 . S
H1016 C1022 0.950 . S
H1017 C1023 0.950 . S
H1018 C1024 0.949 . S
C1019 H1014 0.950 . S
C1019 C1021 1.327 . S
C1019 C1025 1.429 . S
C1020 C1012 1.574 . S
C1020 H1015 0.949 . S
C1020 C1026 1.368 . S
C1021 C1005 1.349 . S
C1021 H1013 0.950 . S
C1021 C1019 1.327 . S
C1022 C1010 1.349 . S
C1022 H1016 0.950 . S
C1022 C1023 1.327 . S
C1023 H1017 0.950 . S
C1023 C1022 1.327 . S
C1023 C1027 1.429 . S
C1024 C1007 1.574 . S
C1024 H1018 0.949 . S
C1024 C1028 1.368 . S
C1025 C1006 1.429 . S
C1025 C1019 1.429 . S
C1025 C1026 1.523 . S
C1026 C1007 1.368 . S
C1026 C1020 1.368 . S
C1026 C1025 1.523 . S
C1027 C1011 1.429 . S
C1027 C1023 1.429 . S
C1027 C1028 1.523 . S
C1028 C1012 1.368 . S
C1028 C1024 1.368 . S
C1028 C1027 1.523 . S
H1029 C1004 0.950 . S
H1030 C1006 0.950 . S
H1031 C1007 0.949 . S
H1032 C1009 0.950 . S
H1033 C1011 0.950 . S
C1034 C1035 1.349 . S
C1034 C1036 1.327 . S
C1034 H1059 0.950 . S
C1035 C1034 1.349 . S
C1035 C1051 1.349 1_554 S
C1036 C1034 1.327 . S
C1036 C1055 1.429 1_554 S
C1036 H1060 0.950 . S
C1037 C1054 1.574 . S
C1037 C1056 1.368 . S
C1037 H1061 0.949 . S
H1038 C1042 0.949 . S
C1039 C1040 1.349 . S
C1039 C1041 1.327 . S
C1039 H1062 0.950 . S
C1040 C1039 1.349 . S
C1040 C1052 1.349 . S
C1041 C1039 1.327 . S
C1041 C1057 1.429 . S
C1041 H1063 0.950 . S
C1042 H1038 0.949 . S
C1042 C1050 1.574 . S
C1042 C1058 1.368 . S
H1043 C1051 0.950 . S
H1044 C1049 0.950 . S
H1045 C1050 0.982 . S
H1046 C1052 0.950 . S
H1047 C1053 0.950 . S
H1048 C1054 0.949 . S
C1049 H1044 0.950 . S
C1049 C1051 1.327 . S
C1049 C1055 1.429 . S
C1050 C1042 1.574 . S
C1050 H1045 0.982 . S
C1050 C1056 1.368 . S
C1051 C1035 1.349 1_556 S
C1051 H1043 0.950 . S
C1051 C1049 1.327 . S
C1052 C1040 1.349 . S
C1052 H1046 0.950 . S
C1052 C1053 1.327 . S
C1053 H1047 0.950 . S
C1053 C1052 1.327 . S
C1053 C1057 1.429 . S
C1054 C1037 1.574 . S
C1054 H1048 0.949 . S
C1054 C1058 1.368 . S
C1055 C1036 1.429 1_556 S
C1055 C1049 1.429 . S
C1055 C1056 1.523 . S
C1056 C1037 1.368 . S
C1056 C1050 1.368 . S
C1056 C1055 1.523 . S
C1057 C1041 1.429 . S
C1057 C1053 1.429 . S
C1057 C1058 1.523 . S
C1058 C1042 1.368 . S
C1058 C1054 1.368 . S
C1058 C1057 1.523 . S
H1059 C1034 0.950 . S
H1060 C1036 0.950 . S
H1061 C1037 0.949 . S
H1062 C1039 0.950 . S
H1063 C1041 0.950 . S
C345 C8 1.421 . S
C350 C105 1.428 . S
C375 C31 1.192 . S
C380 C137 1.190 . S
C405 C53 1.527 . S
C410 C169 1.427 . S
C440 C213 1.344 . S
C435 C74 1.314 . S
C470 C233 1.376 . S
C465 C26 1.367 . S
C495 C48 1.325 . S
C500 C277 1.355 . S
C525 C71 1.497 . S
C530 C297 1.400 . S
C555 C5 1.225 . S
C560 C341 1.126 1_455 S
C585 C50 1.409 . S
C590 C329 1.321 . S
C620 C245 1.253 . S
C615 C70 1.258 . S
C650 C265 1.533 . S
C645 C4 1.539 . S
C675 C28 1.320 . S
C680 C309 1.266 . S
C710 C149 1.444 . S
C705 C73 1.437 . S
C735 C7 1.317 . S
C740 C181 1.258 . S
C770 C201 1.496 . S
C765 C30 1.506 . S
C800 C117 1.229 . S
C795 C52 1.231 . S
C830 C303 1.289 . S
C825 C9 1.389 . S
C860 C335 1.203 . S
C855 C29 1.277 . S
C885 C51 1.278 . S
C890 C239 1.287 . S
C920 C271 1.425 . S
C915 C75 1.427 . S
C950 C175 1.305 . S
C945 C27 1.411 . S
C975 C49 1.395 . S
C980 C207 1.392 . S
C1010 C111 1.310 . S
C1005 C72 1.297 . S
C1040 C143 1.285 . S
C1035 C6 1.269 . S
